0:0
     RDKit          3D

 61 63  0  0  0  0  0  0  0  0999 V2000
   60.4640   28.8600   49.8620 C   0  0  0  0  0  0  0  0  0  0  0  0
   59.9540   29.7530   48.7220 C   0  0  0  0  0  0  0  0  0  0  0  0
   60.8140   29.6870   47.5150 N   0  0  1  0  0  0  0  0  0  0  0  0
   60.3800   28.5880   46.6030 C   0  0  0  0  0  0  0  0  0  0  0  0
   60.3300   28.9440   45.0920 C   0  0  0  0  0  0  0  0  0  0  0  0
   59.2160   28.2480   44.2790 C   0  0  0  0  0  0  0  0  0  0  0  0
   57.7660   28.6180   44.6580 C   0  0  0  0  0  0  0  0  0  0  0  0
   56.9610   29.3330   43.5600 C   0  0  0  0  0  0  0  0  0  0  0  0
   56.6680   30.8020   43.8960 C   0  0  0  0  0  0  0  0  0  0  0  0
   57.6000   31.7750   43.1600 C   0  0  0  0  0  0  0  0  0  0  0  0
   57.5700   33.0760   43.7550 O   0  0  0  0  0  0  0  0  0  0  0  0
   58.1910   33.4670   44.9530 C   0  0  0  0  0  0  0  0  0  0  0  0
   59.0360   34.5840   44.9110 C   0  0  0  0  0  0  0  0  0  0  0  0
   59.6920   35.0280   46.0610 C   0  0  0  0  0  0  0  0  0  0  0  0
   59.5150   34.3550   47.2740 C   0  0  0  0  0  0  0  0  0  0  0  0
   60.1650   34.7790   48.3920 N   0  0  0  0  0  0  0  0  0  0  0  0
   60.0130   34.1500   49.5880 C   0  0  0  0  0  0  0  0  0  0  0  0
   59.1710   33.0380   49.6940 C   0  0  0  0  0  0  0  0  0  0  0  0
   58.4910   32.5790   48.5640 C   0  0  0  0  0  0  0  0  0  0  0  0
   58.6580   33.2340   47.3370 C   0  0  0  0  0  0  0  0  0  0  0  0
   57.9960   32.7970   46.1790 C   0  0  0  0  0  0  0  0  0  0  0  0
   60.9230   31.0160   46.8520 C   0  0  0  0  0  0  0  0  0  0  0  0
   62.0270   31.8700   47.4300 C   0  0  0  0  0  0  0  0  0  0  0  0
   62.4590   33.0230   46.7480 C   0  0  0  0  0  0  0  0  0  0  0  0
   63.4720   33.8180   47.2850 C   0  0  0  0  0  0  0  0  0  0  0  0
   64.0570   33.4770   48.5060 C   0  0  0  0  0  0  0  0  0  0  0  0
   63.6260   32.3410   49.1960 C   0  0  0  0  0  0  0  0  0  0  0  0
   62.6170   31.5370   48.6600 C   0  0  0  0  0  0  0  0  0  0  0  0
   60.2039   29.3154   50.8289 H   0  0  0  0  0  0  0  0  0  0  0  0
   59.9968   27.8670   49.7869 H   0  0  0  0  0  0  0  0  0  0  0  0
   61.5567   28.7578   49.7869 H   0  0  0  0  0  0  0  0  0  0  0  0
   58.9387   29.4296   48.4489 H   0  0  0  0  0  0  0  0  0  0  0  0
   59.9665   30.7921   49.0827 H   0  0  0  0  0  0  0  0  0  0  0  0
   61.7790   29.4250   47.8290 H   0  0  0  0  0  0  0  0  0  0  0  0
   61.0797   27.7486   46.7291 H   0  0  0  0  0  0  0  0  0  0  0  0
   59.3441   28.3536   46.8893 H   0  0  0  0  0  0  0  0  0  0  0  0
   60.1839   30.0308   45.0050 H   0  0  0  0  0  0  0  0  0  0  0  0
   61.2800   28.5877   44.6672 H   0  0  0  0  0  0  0  0  0  0  0  0
   59.3625   28.5053   43.2196 H   0  0  0  0  0  0  0  0  0  0  0  0
   59.3147   27.1752   44.5011 H   0  0  0  0  0  0  0  0  0  0  0  0
   57.2356   27.6901   44.9184 H   0  0  0  0  0  0  0  0  0  0  0  0
   57.8425   29.3313   45.4919 H   0  0  0  0  0  0  0  0  0  0  0  0
   57.5351   29.2950   42.6225 H   0  0  0  0  0  0  0  0  0  0  0  0
   55.9945   28.8157   43.4689 H   0  0  0  0  0  0  0  0  0  0  0  0
   55.6292   31.0274   43.6128 H   0  0  0  0  0  0  0  0  0  0  0  0
   56.8333   30.9355   44.9753 H   0  0  0  0  0  0  0  0  0  0  0  0
   58.6282   31.3861   43.2009 H   0  0  0  0  0  0  0  0  0  0  0  0
   57.2574   31.8622   42.1184 H   0  0  0  0  0  0  0  0  0  0  0  0
   59.1844   35.1176   43.9606 H   0  0  0  0  0  0  0  0  0  0  0  0
   60.3492   35.9088   46.0127 H   0  0  0  0  0  0  0  0  0  0  0  0
   60.5530   34.5162   50.4736 H   0  0  0  0  0  0  0  0  0  0  0  0
   59.0454   32.5286   50.6608 H   0  0  0  0  0  0  0  0  0  0  0  0
   57.8262   31.7057   48.6371 H   0  0  0  0  0  0  0  0  0  0  0  0
   57.3225   31.9287   46.2277 H   0  0  0  0  0  0  0  0  0  0  0  0
   61.1235   30.8594   45.7818 H   0  0  0  0  0  0  0  0  0  0  0  0
   59.9735   31.5467   47.0160 H   0  0  0  0  0  0  0  0  0  0  0  0
   61.9965   33.2981   45.7886 H   0  0  0  0  0  0  0  0  0  0  0  0
   63.8103   34.7149   46.7455 H   0  0  0  0  0  0  0  0  0  0  0  0
   64.8581   34.1034   48.9253 H   0  0  0  0  0  0  0  0  0  0  0  0
   64.0817   32.0794   50.1624 H   0  0  0  0  0  0  0  0  0  0  0  0
   62.2837   30.6404   49.2031 H   0  0  0  0  0  0  0  0  0  0  0  0
  1  2  1  0
  2  3  1  0
  3  4  1  0
  4  5  1  0
  5  6  1  0
  6  7  1  0
  7  8  1  0
  8  9  1  0
  9 10  1  0
 10 11  1  0
 11 12  1  0
 12 13  2  0
 13 14  1  0
 14 15  2  0
 15 16  1  0
 16 17  2  0
 17 18  1  0
 18 19  2  0
 19 20  1  0
 20 21  2  0
  3 22  1  0
 22 23  1  0
 23 24  2  0
 24 25  1  0
 25 26  2  0
 26 27  1  0
 27 28  2  0
 21 12  1  0
 28 23  1  0
 20 15  1  0
  1 29  1  0
  1 30  1  0
  1 31  1  0
  2 32  1  0
  2 33  1  0
  3 34  1  1
  4 35  1  0
  4 36  1  0
  5 37  1  0
  5 38  1  0
  6 39  1  0
  6 40  1  0
  7 41  1  0
  7 42  1  0
  8 43  1  0
  8 44  1  0
  9 45  1  0
  9 46  1  0
 10 47  1  0
 10 48  1  0
 13 49  1  0
 14 50  1  0
 17 51  1  0
 18 52  1  0
 19 53  1  0
 21 54  1  0
 22 55  1  0
 22 56  1  0
 24 57  1  0
 25 58  1  0
 26 59  1  0
 27 60  1  0
 28 61  1  0
M  CHG  1   3   1
M  END
>  <UniqueID>  (1) 
1

>  <SMILES>  (1) 
CC[N@@H+](CCCCCCCOc1ccc2ncccc2c1)Cc1ccccc1

>  <Energy>  (1) 
68.1976739162822

>  <Genealogy>  (1) 
CC[NH+](CCCCCCCOc1ccc2ncccc2c1)Cc1ccccc1 (protonated)
CC[N@@H+](CCCCCCCOc1ccc2ncccc2c1)Cc1ccccc1 (chirality)
CC[N@@H+](CCCCCCCOc1ccc2ncccc2c1)Cc1ccccc1 (3D coordinates assigned)
CC[N@@H+](CCCCCCCOc1ccc2ncccc2c1)Cc1ccccc1 (optimized conformer: 68.1976739162822 kcal/mol)

>  <smiles>  (1) 
CCN(CCCCCCCOc1ccc2ncccc2c1)Cc1ccccc1

>  <score_type>  (1) 
oracle

>  <origin>  (1) 
adg

>  <m_score__min__energy>  (1) 
-6.5499999999999998

>  <m_primary>  (1) 
energy

$$$$
1:0
     RDKit          3D

 28 29  0  0  0  0  0  0  0  0999 V2000
   60.3919   34.5243   45.0156 H   0  0  0  0  0  0  0  0  0  0  0  0
   60.0600   33.8550   45.8230 C   0  0  0  0  0  0  0  0  0  0  0  0
   59.1320   32.9270   45.5600 C   0  0  0  0  0  0  0  0  0  0  0  0
   57.6970   33.1720   44.6410 S   0  0  0  0  0  0  0  0  0  0  0  0
   57.2130   31.5840   44.8950 C   0  0  0  0  0  0  0  0  0  0  0  0
   56.1270   30.8940   44.4990 N   0  0  0  0  0  0  0  0  0  0  0  0
   56.3750   29.6790   45.0640 C   0  0  0  0  0  0  0  0  0  0  0  0
   55.5210   28.5910   44.9410 O   0  0  0  0  0  0  0  0  0  0  0  0
   57.5760   29.6670   45.7690 C   0  0  0  0  0  0  0  0  0  0  0  0
   58.0218   28.8256   46.3197 H   0  0  0  0  0  0  0  0  0  0  0  0
   58.0680   30.9010   45.6300 N   0  0  0  0  0  0  0  0  0  0  0  0
   59.1500   31.6010   46.0300 C   0  0  0  0  0  0  0  0  0  0  0  0
   60.0610   31.1040   46.7450 O   0  0  0  0  0  0  0  0  0  0  0  0
   60.6340   34.0000   47.1320 N   0  0  0  0  0  0  0  0  0  0  0  0
   61.9230   33.3670   47.4360 C   0  0  0  0  0  0  0  0  0  0  0  0
   61.8163   32.2748   47.3604 H   0  0  0  0  0  0  0  0  0  0  0  0
   62.2257   33.6497   48.4550 H   0  0  0  0  0  0  0  0  0  0  0  0
   62.9940   33.8350   46.4570 C   0  0  0  0  0  0  0  0  0  0  0  0
   63.8618   34.2142   47.0166 H   0  0  0  0  0  0  0  0  0  0  0  0
   63.3061   32.9912   45.8240 H   0  0  0  0  0  0  0  0  0  0  0  0
   62.5868   34.6372   45.8240 H   0  0  0  0  0  0  0  0  0  0  0  0
   59.7830   34.4900   48.2200 C   0  0  0  0  0  0  0  0  0  0  0  0
   60.2245   35.4047   48.6423 H   0  0  0  0  0  0  0  0  0  0  0  0
   58.7806   34.7051   47.8214 H   0  0  0  0  0  0  0  0  0  0  0  0
   59.6660   33.4360   49.3150 C   0  0  0  0  0  0  0  0  0  0  0  0
   59.7201   33.9229   50.2999 H   0  0  0  0  0  0  0  0  0  0  0  0
   58.7041   32.9113   49.2176 H   0  0  0  0  0  0  0  0  0  0  0  0
   60.4894   32.7132   49.2176 H   0  0  0  0  0  0  0  0  0  0  0  0
  1  2  1  0
  2  3  2  0
  3  4  1  0
  4  5  1  0
  5  6  2  0
  6  7  1  0
  7  8  1  0
  7  9  2  0
  9 10  1  0
  9 11  1  0
 11 12  1  0
 12 13  2  0
  2 14  1  0
 14 15  1  0
 15 16  1  0
 15 17  1  0
 15 18  1  0
 18 19  1  0
 18 20  1  0
 18 21  1  0
 14 22  1  0
 22 23  1  0
 22 24  1  0
 22 25  1  0
 25 26  1  0
 25 27  1  0
 25 28  1  0
 12  3  1  0
 11  5  1  0
M  CHG  1   8  -1
M  END
>  <UniqueID>  (2) 
2

>  <SMILES>  (2) 
CCN(/C=c1\sc2nc([O-])cn2c1=O)CC

>  <Energy>  (2) 
106.13855147581937

>  <Genealogy>  (2) 
CCN(C=c1sc2nc([O-])cn2c1=O)CC (protonated)
CCN(/C=c1\sc2nc([O-])cn2c1=O)CC (cis-trans isomerization)
CCN(/C=c1\sc2nc([O-])cn2c1=O)CC (3D coordinates assigned)
CCN(/C=c1\sc2nc([O-])cn2c1=O)CC (optimized conformer: 106.13855147581937 kcal/mol)

>  <smiles>  (2) 
CCN(C=c1sc2nc(O)cn2c1=O)CC

>  <score_type>  (2) 
oracle

>  <origin>  (2) 
adg

>  <m_score__min__energy>  (2) 
-8.6400000000000006

>  <m_primary>  (2) 
energy

$$$$
2:0
     RDKit          3D

 60 64  0  0  0  0  0  0  0  0999 V2000
   61.2710   29.2190   50.3400 C   0  0  0  0  0  0  0  0  0  0  0  0
   60.8720   30.4430   49.5100 C   0  0  0  0  0  0  0  0  0  0  0  0
   59.4600   30.4440   49.0490 N   0  0  0  0  0  0  0  0  0  0  0  0
   59.2890   30.5510   47.5790 C   0  0  0  0  0  0  0  0  0  0  0  0
   60.5860   30.3940   46.7670 C   0  0  0  0  0  0  0  0  0  0  0  0
   58.5370   31.2680   49.8580 C   0  0  0  0  0  0  0  0  0  0  0  0
   59.2170   31.7570   51.1490 C   0  0  0  0  0  0  0  0  0  0  0  0
   58.7730   33.1760   51.5450 C   0  0  0  0  0  0  0  0  0  0  0  0
   59.3610   34.2030   50.6780 N   0  0  0  0  0  0  0  0  0  0  0  0
   60.4170   33.9410   49.7390 C   0  0  0  0  0  0  0  0  0  0  0  0
   61.7120   33.6610   50.1780 C   0  0  0  0  0  0  0  0  0  0  0  0
   62.7270   33.4090   49.2710 C   0  0  0  0  0  0  0  0  0  0  0  0
   62.4920   33.3200   47.9210 N   0  0  0  0  0  0  0  0  0  0  0  0
   63.5160   32.7510   47.0290 C   0  0  0  0  0  0  0  0  0  0  0  0
   61.2530   33.7090   47.4390 C   0  0  0  0  0  0  0  0  0  0  0  0
   61.0110   33.8700   46.0520 C   0  0  0  0  0  0  0  0  0  0  0  0
   59.7470   34.2220   45.5800 C   0  0  0  0  0  0  0  0  0  0  0  0
   58.6970   34.4280   46.4690 C   0  0  0  0  0  0  0  0  0  0  0  0
   58.9080   34.3140   47.8410 C   0  0  0  0  0  0  0  0  0  0  0  0
   60.1810   33.9810   48.3470 C   0  0  0  0  0  0  0  0  0  0  0  0
   63.9630   33.1890   50.0310 C   0  0  0  0  0  0  0  0  0  0  0  0
   65.3120   33.1010   49.6190 C   0  0  0  0  0  0  0  0  0  0  0  0
   66.2670   32.9690   50.6320 C   0  0  0  0  0  0  0  0  0  0  0  0
   65.9320   32.9660   51.9550 C   0  0  0  0  0  0  0  0  0  0  0  0
   64.6130   33.1090   52.3890 C   0  0  0  0  0  0  0  0  0  0  0  0
   63.6340   33.2340   51.3890 C   0  0  0  0  0  0  0  0  0  0  0  0
   62.1900   33.5470   51.5970 C   0  0  0  0  0  0  0  0  0  0  0  0
   67.0770   32.8390   52.7170 O   0  0  0  0  0  0  0  0  0  0  0  0
   68.1980   32.7560   51.8250 C   0  0  0  0  0  0  0  0  0  0  0  0
   67.6380   32.8480   50.5070 O   0  0  0  0  0  0  0  0  0  0  0  0
   61.1923   29.4603   51.4103 H   0  0  0  0  0  0  0  0  0  0  0  0
   60.5997   28.3805   50.1029 H   0  0  0  0  0  0  0  0  0  0  0  0
   62.3075   28.9372   50.1029 H   0  0  0  0  0  0  0  0  0  0  0  0
   61.0330   31.3413   50.1241 H   0  0  0  0  0  0  0  0  0  0  0  0
   61.4957   30.4221   48.6041 H   0  0  0  0  0  0  0  0  0  0  0  0
   58.5870   29.7674   47.2579 H   0  0  0  0  0  0  0  0  0  0  0  0
   58.9213   31.5690   47.3827 H   0  0  0  0  0  0  0  0  0  0  0  0
   61.4386   30.2908   47.4543 H   0  0  0  0  0  0  0  0  0  0  0  0
   60.5155   29.4978   46.1330 H   0  0  0  0  0  0  0  0  0  0  0  0
   60.7314   31.2811   46.1330 H   0  0  0  0  0  0  0  0  0  0  0  0
   58.2211   32.1397   49.2661 H   0  0  0  0  0  0  0  0  0  0  0  0
   57.6683   30.6516   50.1328 H   0  0  0  0  0  0  0  0  0  0  0  0
   58.9618   31.0662   51.9661 H   0  0  0  0  0  0  0  0  0  0  0  0
   60.3016   31.7836   50.9673 H   0  0  0  0  0  0  0  0  0  0  0  0
   57.6770   33.2371   51.4735 H   0  0  0  0  0  0  0  0  0  0  0  0
   59.1183   33.3634   52.5724 H   0  0  0  0  0  0  0  0  0  0  0  0
   59.1160   35.2020   50.8680 H   0  0  0  0  0  0  0  0  0  0  0  0
   64.3202   32.3041   47.6320 H   0  0  0  0  0  0  0  0  0  0  0  0
   63.0602   31.9768   46.3943 H   0  0  0  0  0  0  0  0  0  0  0  0
   63.9326   33.5470   46.3943 H   0  0  0  0  0  0  0  0  0  0  0  0
   61.8325   33.7150   45.3371 H   0  0  0  0  0  0  0  0  0  0  0  0
   59.5793   34.3374   44.4990 H   0  0  0  0  0  0  0  0  0  0  0  0
   57.6971   34.6817   46.0872 H   0  0  0  0  0  0  0  0  0  0  0  0
   58.0732   34.4855   48.5365 H   0  0  0  0  0  0  0  0  0  0  0  0
   65.5960   33.1346   48.5568 H   0  0  0  0  0  0  0  0  0  0  0  0
   64.3537   33.1231   53.4579 H   0  0  0  0  0  0  0  0  0  0  0  0
   61.6744   32.7363   52.1327 H   0  0  0  0  0  0  0  0  0  0  0  0
   62.0045   34.4411   52.2103 H   0  0  0  0  0  0  0  0  0  0  0  0
   68.8971   33.5858   52.0058 H   0  0  0  0  0  0  0  0  0  0  0  0
   68.7672   31.8253   51.9657 H   0  0  0  0  0  0  0  0  0  0  0  0
  1  2  1  0
  2  3  1  0
  3  4  1  0
  4  5  1  0
  3  6  1  0
  6  7  1  0
  7  8  1  0
  8  9  1  0
  9 10  1  0
 10 11  2  0
 11 12  1  0
 12 13  2  0
 13 14  1  0
 13 15  1  0
 15 16  2  0
 16 17  1  0
 17 18  2  0
 18 19  1  0
 19 20  2  0
 12 21  1  0
 21 22  2  0
 22 23  1  0
 23 24  2  0
 24 25  1  0
 25 26  2  0
 26 27  1  0
 24 28  1  0
 28 29  1  0
 29 30  1  0
 20 10  1  0
 26 21  1  0
 27 11  1  0
 20 15  1  0
 30 23  1  0
  1 31  1  0
  1 32  1  0
  1 33  1  0
  2 34  1  0
  2 35  1  0
  4 36  1  0
  4 37  1  0
  5 38  1  0
  5 39  1  0
  5 40  1  0
  6 41  1  0
  6 42  1  0
  7 43  1  0
  7 44  1  0
  8 45  1  0
  8 46  1  0
  9 47  1  0
 14 48  1  0
 14 49  1  0
 14 50  1  0
 16 51  1  0
 17 52  1  0
 18 53  1  0
 19 54  1  0
 22 55  1  0
 25 56  1  0
 27 57  1  0
 27 58  1  0
 29 59  1  0
 29 60  1  0
M  CHG  1  13   1
M  END
>  <UniqueID>  (3) 
3

>  <SMILES>  (3) 
CCN(CC)CCCNc1c2c([n+](C)c3ccccc13)-c1cc3c(cc1C2)OCO3

>  <Energy>  (3) 
135.73639721252758

>  <Genealogy>  (3) 
CCN(CC)CCCNc1c2c([n+](C)c3ccccc13)-c1cc3c(cc1C2)OCO3 (3D coordinates assigned)
CCN(CC)CCCNc1c2c([n+](C)c3ccccc13)-c1cc3c(cc1C2)OCO3 (nonaromatic ring conformer: 135.73639721252758 kcal/mol)

>  <smiles>  (3) 
CCN(CC)CCCNc1c2c([n+](C)c3ccccc13)-c1cc3c(cc1C2)OCO3

>  <score_type>  (3) 
oracle

>  <origin>  (3) 
adg

>  <m_score__min__energy>  (3) 
-6.2999999999999998

>  <m_primary>  (3) 
energy

$$$$
3:0
     RDKit          3D

 45 46  0  0  0  0  0  0  0  0999 V2000
   63.3740   33.8280   46.5840 C   0  0  0  0  0  0  0  0  0  0  0  0
   63.3760   32.6330   47.5410 C   0  0  0  0  0  0  0  0  0  0  0  0
   62.2810   32.6430   48.5400 N   0  0  0  0  0  0  0  0  0  0  0  0
   61.7240   33.9690   48.8870 C   0  0  0  0  0  0  0  0  0  0  0  0
   60.3240   33.8540   49.4890 C   0  0  0  0  0  0  0  0  0  0  0  0
   61.2840   31.5550   48.3960 C   0  0  0  0  0  0  0  0  0  0  0  0
   61.2550   30.8850   47.0070 C   0  0  0  0  0  0  0  0  0  0  0  0
   59.9240   31.0290   46.4130 N   0  0  0  0  0  0  0  0  0  0  0  0
   59.1110   30.0100   46.0430 C   0  0  0  0  0  0  0  0  0  0  0  0
   57.9520   30.5080   45.4590 C   0  0  0  0  0  0  0  0  0  0  0  0
   56.7840   29.7040   44.9670 C   0  0  0  0  0  0  0  0  0  0  0  0
   56.4030   30.0760   43.5270 C   0  0  0  0  0  0  0  0  0  0  0  0
   56.6420   28.9700   42.5970 N   0  0  0  0  0  0  0  0  0  0  0  0
   58.0790   31.8840   45.4820 C   0  0  0  0  0  0  0  0  0  0  0  0
   57.2220   32.8890   45.0330 C   0  0  0  0  0  0  0  0  0  0  0  0
   57.6390   34.2230   45.1830 C   0  0  0  0  0  0  0  0  0  0  0  0
   58.8880   34.5200   45.7690 C   0  0  0  0  0  0  0  0  0  0  0  0
   59.7320   33.4860   46.2150 C   0  0  0  0  0  0  0  0  0  0  0  0
   59.2930   32.1680   46.0590 C   0  0  0  0  0  0  0  0  0  0  0  0
   63.3724   34.7625   47.1643 H   0  0  0  0  0  0  0  0  0  0  0  0
   64.2722   33.7916   45.9500 H   0  0  0  0  0  0  0  0  0  0  0  0
   62.4759   33.7886   45.9500 H   0  0  0  0  0  0  0  0  0  0  0  0
   63.2870   31.7140   46.9431 H   0  0  0  0  0  0  0  0  0  0  0  0
   64.3170   32.6882   48.1080 H   0  0  0  0  0  0  0  0  0  0  0  0
   62.3876   34.4542   49.6179 H   0  0  0  0  0  0  0  0  0  0  0  0
   61.6527   34.5632   47.9640 H   0  0  0  0  0  0  0  0  0  0  0  0
   60.3953   33.8599   50.5867 H   0  0  0  0  0  0  0  0  0  0  0  0
   59.7110   34.7048   49.1568 H   0  0  0  0  0  0  0  0  0  0  0  0
   59.8581   32.9146   49.1568 H   0  0  0  0  0  0  0  0  0  0  0  0
   61.5108   30.7815   49.1445 H   0  0  0  0  0  0  0  0  0  0  0  0
   60.2966   32.0187   48.5372 H   0  0  0  0  0  0  0  0  0  0  0  0
   61.9996   31.3648   46.3548 H   0  0  0  0  0  0  0  0  0  0  0  0
   61.4901   29.8159   47.1151 H   0  0  0  0  0  0  0  0  0  0  0  0
   59.3358   28.9425   46.1844 H   0  0  0  0  0  0  0  0  0  0  0  0
   57.0466   28.6364   45.0015 H   0  0  0  0  0  0  0  0  0  0  0  0
   55.9223   29.9199   45.6157 H   0  0  0  0  0  0  0  0  0  0  0  0
   55.3357   30.3407   43.4984 H   0  0  0  0  0  0  0  0  0  0  0  0
   57.0299   30.9248   43.2164 H   0  0  0  0  0  0  0  0  0  0  0  0
   55.8970   28.9460   41.8640 H   0  0  0  0  0  0  0  0  0  0  0  0
   56.6630   28.0610   43.1130 H   0  0  0  0  0  0  0  0  0  0  0  0
   57.5660   29.1130   42.1290 H   0  0  0  0  0  0  0  0  0  0  0  0
   56.2513   32.6454   44.5764 H   0  0  0  0  0  0  0  0  0  0  0  0
   56.9875   35.0408   44.8414 H   0  0  0  0  0  0  0  0  0  0  0  0
   59.2043   35.5679   45.8780 H   0  0  0  0  0  0  0  0  0  0  0  0
   60.7074   33.7081   46.6724 H   0  0  0  0  0  0  0  0  0  0  0  0
  1  2  1  0
  2  3  1  0
  3  4  1  0
  4  5  1  0
  3  6  1  0
  6  7  1  0
  7  8  1  0
  8  9  1  0
  9 10  2  0
 10 11  1  0
 11 12  1  0
 12 13  1  0
 10 14  1  0
 14 15  2  0
 15 16  1  0
 16 17  2  0
 17 18  1  0
 18 19  2  0
 19  8  1  0
 19 14  1  0
  1 20  1  0
  1 21  1  0
  1 22  1  0
  2 23  1  0
  2 24  1  0
  4 25  1  0
  4 26  1  0
  5 27  1  0
  5 28  1  0
  5 29  1  0
  6 30  1  0
  6 31  1  0
  7 32  1  0
  7 33  1  0
  9 34  1  0
 11 35  1  0
 11 36  1  0
 12 37  1  0
 12 38  1  0
 13 39  1  0
 13 40  1  0
 13 41  1  0
 15 42  1  0
 16 43  1  0
 17 44  1  0
 18 45  1  0
M  CHG  1  13   1
M  END
>  <UniqueID>  (4) 
4

>  <SMILES>  (4) 
CCN(CC)CCn1cc(CC[NH3+])c2ccccc21

>  <Energy>  (4) 
77.84867282103507

>  <Genealogy>  (4) 
CCN(CC)CCn1cc(CC[NH3+])c2ccccc21 (protonated)
CCN(CC)CCn1cc(CC[NH3+])c2ccccc21 (3D coordinates assigned)
CCN(CC)CCn1cc(CC[NH3+])c2ccccc21 (optimized conformer: 77.84867282103507 kcal/mol)

>  <smiles>  (4) 
CCN(CC)CCn1cc(CCN)c2ccccc21

>  <score_type>  (4) 
oracle

>  <origin>  (4) 
adg

>  <m_score__min__energy>  (4) 
-5.0999999999999996

>  <m_primary>  (4) 
energy

$$$$
4:0
     RDKit          3D

 36 37  0  0  0  0  0  0  0  0999 V2000
   58.1980   27.2350   43.9040 C   0  0  0  0  0  0  0  0  0  0  0  0
   57.3990   28.1620   42.9960 C   0  0  0  0  0  0  0  0  0  0  0  0
   57.6120   29.5610   43.3610 N   0  0  0  0  0  0  0  0  0  0  0  0
   56.7220   30.2400   44.2600 C   0  0  0  0  0  0  0  0  0  0  0  0
   55.5750   29.7700   44.4800 O   0  0  0  0  0  0  0  0  0  0  0  0
   57.1010   31.5210   44.8910 C   0  0  0  0  0  0  0  0  0  0  0  0
   58.2030   31.7150   45.6480 C   0  0  0  0  0  0  0  0  0  0  0  0
   58.6940   33.1000   45.8910 C   0  0  0  0  0  0  0  0  0  0  0  0
   58.7970   34.0270   44.8350 C   0  0  0  0  0  0  0  0  0  0  0  0
   59.2710   35.3210   45.0720 C   0  0  0  0  0  0  0  0  0  0  0  0
   59.6520   35.7030   46.3590 C   0  0  0  0  0  0  0  0  0  0  0  0
   59.5600   34.7920   47.4140 C   0  0  0  0  0  0  0  0  0  0  0  0
   59.0870   33.4980   47.1830 C   0  0  0  0  0  0  0  0  0  0  0  0
   58.9150   30.5890   46.3060 C   0  0  0  0  0  0  0  0  0  0  0  0
   58.7690   30.3520   47.6850 C   0  0  0  0  0  0  0  0  0  0  0  0
   59.4390   29.2850   48.2910 C   0  0  0  0  0  0  0  0  0  0  0  0
   60.2700   28.4580   47.5310 C   0  0  0  0  0  0  0  0  0  0  0  0
   60.4370   28.7000   46.1650 C   0  0  0  0  0  0  0  0  0  0  0  0
   59.7670   29.7630   45.5540 C   0  0  0  0  0  0  0  0  0  0  0  0
   57.9868   27.4800   44.9554 H   0  0  0  0  0  0  0  0  0  0  0  0
   57.9117   26.1915   43.7060 H   0  0  0  0  0  0  0  0  0  0  0  0
   59.2723   27.3643   43.7060 H   0  0  0  0  0  0  0  0  0  0  0  0
   57.7183   28.0090   41.9545 H   0  0  0  0  0  0  0  0  0  0  0  0
   56.3300   27.9284   43.1086 H   0  0  0  0  0  0  0  0  0  0  0  0
   58.4340   30.0790   42.9750 H   0  0  0  0  0  0  0  0  0  0  0  0
   56.4353   32.3822   44.7324 H   0  0  0  0  0  0  0  0  0  0  0  0
   58.5026   33.7308   43.8174 H   0  0  0  0  0  0  0  0  0  0  0  0
   59.3437   36.0394   44.2422 H   0  0  0  0  0  0  0  0  0  0  0  0
   60.0248   36.7215   46.5427 H   0  0  0  0  0  0  0  0  0  0  0  0
   59.8605   35.0940   48.4282 H   0  0  0  0  0  0  0  0  0  0  0  0
   59.0211   32.7842   48.0174 H   0  0  0  0  0  0  0  0  0  0  0  0
   58.1253   31.0086   48.2887 H   0  0  0  0  0  0  0  0  0  0  0  0
   59.3118   29.0964   49.3672 H   0  0  0  0  0  0  0  0  0  0  0  0
   60.7930   27.6161   48.0082 H   0  0  0  0  0  0  0  0  0  0  0  0
   61.0972   28.0524   45.5695 H   0  0  0  0  0  0  0  0  0  0  0  0
   59.9072   29.9539   44.4798 H   0  0  0  0  0  0  0  0  0  0  0  0
  1  2  1  0
  2  3  1  0
  3  4  1  0
  4  5  2  0
  4  6  1  0
  6  7  2  3
  7  8  1  0
  8  9  2  0
  9 10  1  0
 10 11  2  0
 11 12  1  0
 12 13  2  0
  7 14  1  0
 14 15  2  0
 15 16  1  0
 16 17  2  0
 17 18  1  0
 18 19  2  0
 13  8  1  0
 19 14  1  0
  1 20  1  0
  1 21  1  0
  1 22  1  0
  2 23  1  0
  2 24  1  0
  3 25  1  0
  6 26  1  0
  9 27  1  0
 10 28  1  0
 11 29  1  0
 12 30  1  0
 13 31  1  0
 15 32  1  0
 16 33  1  0
 17 34  1  0
 18 35  1  0
 19 36  1  0
M  END
>  <UniqueID>  (5) 
5

>  <SMILES>  (5) 
CCNC(=O)C=C(c1ccccc1)c1ccccc1

>  <Energy>  (5) 
44.381465036253

>  <Genealogy>  (5) 
CCNC(=O)C=C(c1ccccc1)c1ccccc1 (3D coordinates assigned)
CCNC(=O)C=C(c1ccccc1)c1ccccc1 (optimized conformer: 44.381465036253 kcal/mol)

>  <smiles>  (5) 
CCNC(=O)C=C(c1ccccc1)c1ccccc1

>  <score_type>  (5) 
oracle

>  <origin>  (5) 
adg

>  <m_score__min__energy>  (5) 
-6.7800000000000002

>  <m_primary>  (5) 
energy

$$$$
5:0
     RDKit          3D

 53 55  0  0  0  0  0  0  0  0999 V2000
   55.8860   29.8710   43.5580 C   0  0  0  0  0  0  0  0  0  0  0  0
   56.4080   30.0380   44.8720 O   0  0  0  0  0  0  0  0  0  0  0  0
   57.3780   30.9880   45.2300 C   0  0  0  0  0  0  0  0  0  0  0  0
   57.2760   32.3370   44.8190 C   0  0  0  0  0  0  0  0  0  0  0  0
   58.2840   33.2300   45.1770 C   0  0  0  0  0  0  0  0  0  0  0  0
   59.3720   32.8270   45.8940 C   0  0  0  0  0  0  0  0  0  0  0  0
   59.4950   31.5120   46.3450 C   0  0  0  0  0  0  0  0  0  0  0  0
   58.4840   30.5810   46.0240 C   0  0  0  0  0  0  0  0  0  0  0  0
   58.6080   29.1540   46.5250 C   0  0  0  0  0  0  0  0  0  0  0  0
   59.2280   28.2100   45.5570 N   0  0  2  0  0  0  0  0  0  0  0  0
   60.7010   28.1960   45.6300 C   0  0  0  0  0  0  0  0  0  0  0  0
   58.6840   28.3060   44.1720 C   0  0  0  0  0  0  0  0  0  0  0  0
   58.1680   26.9850   43.5620 C   0  0  0  0  0  0  0  0  0  0  0  0
   58.0750   25.9960   44.5680 O   0  0  0  0  0  0  0  0  0  0  0  0
   57.2990   24.9120   44.1070 C   0  0  0  0  0  0  0  0  0  0  0  0
   57.8240   23.7420   44.6200 F   0  0  0  0  0  0  0  0  0  0  0  0
   57.3450   24.8440   42.7250 F   0  0  0  0  0  0  0  0  0  0  0  0
   60.2430   33.9180   46.1600 N   0  0  0  0  0  0  0  0  0  0  0  0
   61.4490   33.8910   46.9380 C   0  0  0  0  0  0  0  0  0  0  0  0
   62.5600   33.9390   46.3460 O   0  0  0  0  0  0  0  0  0  0  0  0
   61.4130   33.7650   48.4130 C   0  0  0  0  0  0  0  0  0  0  0  0
   60.1870   33.7370   49.1010 C   0  0  0  0  0  0  0  0  0  0  0  0
   60.1600   33.6220   50.4940 C   0  0  0  0  0  0  0  0  0  0  0  0
   61.3550   33.5260   51.2130 C   0  0  0  0  0  0  0  0  0  0  0  0
   61.3200   33.3840   52.9610 Cl  0  0  0  0  0  0  0  0  0  0  0  0
   62.5790   33.5380   50.5370 C   0  0  0  0  0  0  0  0  0  0  0  0
   62.6090   33.6530   49.1440 C   0  0  0  0  0  0  0  0  0  0  0  0
   59.6330   35.1400   45.6370 C   0  0  0  0  0  0  0  0  0  0  0  0
   58.3490   34.6930   44.8990 C   0  0  0  0  0  0  0  0  0  0  0  0
   54.8399   29.5363   43.6188 H   0  0  0  0  0  0  0  0  0  0  0  0
   55.9337   30.8293   43.0200 H   0  0  0  0  0  0  0  0  0  0  0  0
   56.4811   29.1184   43.0200 H   0  0  0  0  0  0  0  0  0  0  0  0
   56.4141   32.6764   44.2257 H   0  0  0  0  0  0  0  0  0  0  0  0
   60.3669   31.2057   46.9417 H   0  0  0  0  0  0  0  0  0  0  0  0
   59.2225   29.1628   47.4373 H   0  0  0  0  0  0  0  0  0  0  0  0
   57.5831   28.7942   46.6988 H   0  0  0  0  0  0  0  0  0  0  0  0
   58.9360   27.2620   45.8980 H   0  0  0  0  0  0  0  0  0  0  0  0
   61.0159   28.1930   46.6840 H   0  0  0  0  0  0  0  0  0  0  0  0
   61.0843   27.2942   45.1302 H   0  0  0  0  0  0  0  0  0  0  0  0
   61.1014   29.0904   45.1302 H   0  0  0  0  0  0  0  0  0  0  0  0
   57.8481   29.0209   44.1861 H   0  0  0  0  0  0  0  0  0  0  0  0
   59.5280   28.6186   43.5395 H   0  0  0  0  0  0  0  0  0  0  0  0
   57.1744   27.1506   43.1200 H   0  0  0  0  0  0  0  0  0  0  0  0
   58.8684   26.6466   42.7843 H   0  0  0  0  0  0  0  0  0  0  0  0
   56.2571   25.0501   44.4314 H   0  0  0  0  0  0  0  0  0  0  0  0
   59.2435   33.8060   48.5398 H   0  0  0  0  0  0  0  0  0  0  0  0
   59.1969   33.6070   51.0252 H   0  0  0  0  0  0  0  0  0  0  0  0
   63.5194   33.4569   51.1019 H   0  0  0  0  0  0  0  0  0  0  0  0
   63.5743   33.6559   48.6165 H   0  0  0  0  0  0  0  0  0  0  0  0
   59.3819   35.8246   46.4605 H   0  0  0  0  0  0  0  0  0  0  0  0
   60.3183   35.6767   44.9645 H   0  0  0  0  0  0  0  0  0  0  0  0
   57.4644   35.2097   45.2996 H   0  0  0  0  0  0  0  0  0  0  0  0
   58.3676   34.9260   43.8241 H   0  0  0  0  0  0  0  0  0  0  0  0
  1  2  1  0
  2  3  1  0
  3  4  2  0
  4  5  1  0
  5  6  2  0
  6  7  1  0
  7  8  2  0
  8  9  1  0
  9 10  1  0
 10 11  1  0
 10 12  1  0
 12 13  1  0
 13 14  1  0
 14 15  1  0
 15 16  1  0
 15 17  1  0
  6 18  1  0
 18 19  1  0
 19 20  2  0
 19 21  1  0
 21 22  2  0
 22 23  1  0
 23 24  2  0
 24 25  1  0
 24 26  1  0
 26 27  2  0
 18 28  1  0
 28 29  1  0
  8  3  1  0
 27 21  1  0
 29  5  1  0
  1 30  1  0
  1 31  1  0
  1 32  1  0
  4 33  1  0
  7 34  1  0
  9 35  1  0
  9 36  1  0
 10 37  1  1
 11 38  1  0
 11 39  1  0
 11 40  1  0
 12 41  1  0
 12 42  1  0
 13 43  1  0
 13 44  1  0
 15 45  1  0
 22 46  1  0
 23 47  1  0
 26 48  1  0
 27 49  1  0
 28 50  1  0
 28 51  1  0
 29 52  1  0
 29 53  1  0
M  CHG  1  10   1
M  END
>  <UniqueID>  (6) 
6

>  <SMILES>  (6) 
COc1cc2c(cc1C[N@H+](C)CCOC(F)F)N(C(=O)c1ccc(Cl)cc1)CC2

>  <Energy>  (6) 
81.59494175534739

>  <Genealogy>  (6) 
COc1cc2c(cc1C[NH+](C)CCOC(F)F)N(C(=O)c1ccc(Cl)cc1)CC2 (protonated)
COc1cc2c(cc1C[N@H+](C)CCOC(F)F)N(C(=O)c1ccc(Cl)cc1)CC2 (chirality)
COc1cc2c(cc1C[N@H+](C)CCOC(F)F)N(C(=O)c1ccc(Cl)cc1)CC2 (3D coordinates assigned)
COc1cc2c(cc1C[N@H+](C)CCOC(F)F)N(C(=O)c1ccc(Cl)cc1)CC2 (nonaromatic ring conformer: 81.59494175534739 kcal/mol)

>  <smiles>  (6) 
COc1cc2c(cc1CN(C)CCOC(F)F)N(C(=O)c1ccc(Cl)cc1)CC2

>  <score_type>  (6) 
oracle

>  <origin>  (6) 
adg

>  <m_score__min__energy>  (6) 
-5.9900000000000002

>  <m_primary>  (6) 
energy

$$$$
6:0
     RDKit          3D

 47 49  0  0  0  0  0  0  0  0999 V2000
   57.7670   26.0030   42.6640 C   0  0  0  0  0  0  0  0  0  0  0  0
   57.7750   27.5270   42.6350 C   0  0  0  0  0  0  0  0  0  0  0  0
   57.4980   28.0640   43.9700 N   0  0  0  0  0  0  0  0  0  0  0  0
   57.8440   27.3090   45.1410 C   0  0  0  0  0  0  0  0  0  0  0  0
   59.1900   27.0740   45.4550 C   0  0  0  0  0  0  0  0  0  0  0  0
   59.5300   26.3410   46.5960 C   0  0  0  0  0  0  0  0  0  0  0  0
   58.5250   25.8360   47.4280 C   0  0  0  0  0  0  0  0  0  0  0  0
   57.1820   26.0620   47.1170 C   0  0  0  0  0  0  0  0  0  0  0  0
   56.8380   26.7950   45.9770 C   0  0  0  0  0  0  0  0  0  0  0  0
   55.5300   26.9790   45.6730 F   0  0  0  0  0  0  0  0  0  0  0  0
   56.8140   29.6530   44.1380 S   0  0  0  0  0  0  0  0  0  0  0  0
   55.5030   29.5640   44.8690 O   0  0  0  0  0  0  0  0  0  0  0  0
   56.5520   30.2390   42.7790 O   0  0  0  0  0  0  0  0  0  0  0  0
   57.9270   30.6860   45.0310 C   0  0  0  0  0  0  0  0  0  0  0  0
   59.0080   30.1200   45.7140 C   0  0  0  0  0  0  0  0  0  0  0  0
   59.9170   30.9320   46.3930 C   0  0  0  0  0  0  0  0  0  0  0  0
   59.7700   32.3330   46.3880 C   0  0  0  0  0  0  0  0  0  0  0  0
   58.6430   32.8950   45.7540 C   0  0  0  0  0  0  0  0  0  0  0  0
   57.7430   32.0740   45.0580 C   0  0  0  0  0  0  0  0  0  0  0  0
   58.4260   34.3820   45.7930 C   0  0  0  0  0  0  0  0  0  0  0  0
   58.9480   34.9510   47.1110 C   0  0  0  0  0  0  0  0  0  0  0  0
   60.4340   34.6230   47.2820 C   0  0  0  0  0  0  0  0  0  0  0  0
   60.7180   33.1920   47.0730 N   0  0  0  0  0  0  0  0  0  0  0  0
   62.0580   32.7540   47.3640 C   0  0  0  0  0  0  0  0  0  0  0  0
   62.3250   31.7120   48.4060 C   0  0  0  0  0  0  0  0  0  0  0  0
   63.0240   33.2140   46.6990 O   0  0  0  0  0  0  0  0  0  0  0  0
   57.7652   25.6561   43.7079 H   0  0  0  0  0  0  0  0  0  0  0  0
   56.8669   25.6313   42.1525 H   0  0  0  0  0  0  0  0  0  0  0  0
   58.6632   25.6218   42.1525 H   0  0  0  0  0  0  0  0  0  0  0  0
   58.7624   27.8781   42.3006 H   0  0  0  0  0  0  0  0  0  0  0  0
   56.9956   27.8751   41.9412 H   0  0  0  0  0  0  0  0  0  0  0  0
   59.9819   27.4679   44.8010 H   0  0  0  0  0  0  0  0  0  0  0  0
   60.5876   26.1614   46.8395 H   0  0  0  0  0  0  0  0  0  0  0  0
   58.7923   25.2611   48.3269 H   0  0  0  0  0  0  0  0  0  0  0  0
   56.3929   25.6622   47.7708 H   0  0  0  0  0  0  0  0  0  0  0  0
   59.1425   29.0283   45.7160 H   0  0  0  0  0  0  0  0  0  0  0  0
   60.7561   30.4740   46.9372 H   0  0  0  0  0  0  0  0  0  0  0  0
   56.8883   32.5229   44.5307 H   0  0  0  0  0  0  0  0  0  0  0  0
   58.9634   34.8508   44.9555 H   0  0  0  0  0  0  0  0  0  0  0  0
   57.3495   34.5924   45.7096 H   0  0  0  0  0  0  0  0  0  0  0  0
   58.8152   36.0430   47.1124 H   0  0  0  0  0  0  0  0  0  0  0  0
   58.3851   34.5011   47.9421 H   0  0  0  0  0  0  0  0  0  0  0  0
   61.0119   35.2088   46.5520 H   0  0  0  0  0  0  0  0  0  0  0  0
   60.7180   34.8754   48.3143 H   0  0  0  0  0  0  0  0  0  0  0  0
   62.2113   32.1559   49.4060 H   0  0  0  0  0  0  0  0  0  0  0  0
   61.6099   30.8844   48.2887 H   0  0  0  0  0  0  0  0  0  0  0  0
   63.3500   31.3303   48.2887 H   0  0  0  0  0  0  0  0  0  0  0  0
  1  2  1  0
  2  3  1  0
  3  4  1  0
  4  5  2  0
  5  6  1  0
  6  7  2  0
  7  8  1  0
  8  9  2  0
  9 10  1  0
  3 11  1  0
 11 12  2  0
 11 13  2  0
 11 14  1  0
 14 15  2  0
 15 16  1  0
 16 17  2  0
 17 18  1  0
 18 19  2  0
 18 20  1  0
 20 21  1  0
 21 22  1  0
 22 23  1  0
 23 24  1  0
 24 25  1  0
 24 26  2  0
  9  4  1  0
 19 14  1  0
 23 17  1  0
  1 27  1  0
  1 28  1  0
  1 29  1  0
  2 30  1  0
  2 31  1  0
  5 32  1  0
  6 33  1  0
  7 34  1  0
  8 35  1  0
 15 36  1  0
 16 37  1  0
 19 38  1  0
 20 39  1  0
 20 40  1  0
 21 41  1  0
 21 42  1  0
 22 43  1  0
 22 44  1  0
 25 45  1  0
 25 46  1  0
 25 47  1  0
M  END
>  <UniqueID>  (7) 
7

>  <SMILES>  (7) 
CCN(c1ccccc1F)S(=O)(=O)c1ccc2c(c1)CCCN2C(C)=O

>  <Energy>  (7) 
56.05749186125202

>  <Genealogy>  (7) 
CCN(c1ccccc1F)S(=O)(=O)c1ccc2c(c1)CCCN2C(C)=O (3D coordinates assigned)
CCN(c1ccccc1F)S(=O)(=O)c1ccc2c(c1)CCCN2C(C)=O (nonaromatic ring conformer: 56.05749186125202 kcal/mol)

>  <smiles>  (7) 
CCN(c1ccccc1F)S(=O)(=O)c1ccc2c(c1)CCCN2C(C)=O

>  <score_type>  (7) 
oracle

>  <origin>  (7) 
adg

>  <m_score__min__energy>  (7) 
-8.9399999999999995

>  <m_primary>  (7) 
energy

$$$$
7:0
     RDKit          3D

 58 61  0  0  0  0  0  0  0  0999 V2000
   56.6080   29.3650   44.1840 C   0  0  0  0  0  0  0  0  0  0  0  0
   56.9960   29.2140   45.5440 O   0  0  0  0  0  0  0  0  0  0  0  0
   58.2010   29.6870   46.0810 C   0  0  0  0  0  0  0  0  0  0  0  0
   58.7770   30.8290   45.5180 C   0  0  0  0  0  0  0  0  0  0  0  0
   59.9700   31.3480   46.0250 C   0  0  0  0  0  0  0  0  0  0  0  0
   60.6180   30.7250   47.1080 C   0  0  0  0  0  0  0  0  0  0  0  0
   61.8570   31.2930   47.6970 C   0  0  0  0  0  0  0  0  0  0  0  0
   62.5800   32.3110   47.0640 C   0  0  0  0  0  0  0  0  0  0  0  0
   63.7000   32.8420   47.6940 C   0  0  0  0  0  0  0  0  0  0  0  0
   64.0820   32.3590   48.9440 C   0  0  0  0  0  0  0  0  0  0  0  0
   65.0870   32.8600   49.5190 O   0  0  0  0  0  0  0  0  0  0  0  0
   63.3560   31.3530   49.5300 N   0  0  0  0  0  0  0  0  0  0  0  0
   63.6980   30.8230   50.8590 C   0  0  0  0  0  0  0  0  0  0  0  0
   62.4470   30.6070   51.7280 C   0  0  0  0  0  0  0  0  0  0  0  0
   61.3950   31.7190   51.5640 C   0  0  0  0  0  0  0  0  0  0  0  0
   60.0650   31.2450   52.0230 N   0  0  0  0  0  0  0  0  0  0  0  0
   59.1730   32.3350   52.4680 C   0  0  0  0  0  0  0  0  0  0  0  0
   58.7240   33.2310   51.3010 C   0  0  0  0  0  0  0  0  0  0  0  0
   58.7370   32.4890   50.0400 N   0  0  0  0  0  0  0  0  0  0  0  0
   58.8990   33.1820   48.7940 C   0  0  0  0  0  0  0  0  0  0  0  0
   57.8950   33.0830   47.8200 C   0  0  0  0  0  0  0  0  0  0  0  0
   58.0160   33.7720   46.6100 C   0  0  0  0  0  0  0  0  0  0  0  0
   59.1410   34.5650   46.3650 C   0  0  0  0  0  0  0  0  0  0  0  0
   60.1460   34.6720   47.3300 C   0  0  0  0  0  0  0  0  0  0  0  0
   60.0300   33.9860   48.5480 C   0  0  0  0  0  0  0  0  0  0  0  0
   61.2830   34.1980   49.7630 Cl  0  0  0  0  0  0  0  0  0  0  0  0
   58.4980   31.0460   50.0410 C   0  0  0  0  0  0  0  0  0  0  0  0
   59.3920   30.3290   51.0740 C   0  0  0  0  0  0  0  0  0  0  0  0
   62.2910   30.8390   48.9040 N   0  0  0  0  0  0  0  0  0  0  0  0
   60.0370   29.5790   47.6760 C   0  0  0  0  0  0  0  0  0  0  0  0
   58.8410   29.0600   47.1670 C   0  0  0  0  0  0  0  0  0  0  0  0
   55.5838   29.7636   44.1370 H   0  0  0  0  0  0  0  0  0  0  0  0
   57.2958   30.0611   43.6816 H   0  0  0  0  0  0  0  0  0  0  0  0
   56.6443   28.3871   43.6816 H   0  0  0  0  0  0  0  0  0  0  0  0
   58.2858   31.3238   44.6672 H   0  0  0  0  0  0  0  0  0  0  0  0
   60.4070   32.2512   45.5743 H   0  0  0  0  0  0  0  0  0  0  0  0
   62.2655   32.6867   46.0791 H   0  0  0  0  0  0  0  0  0  0  0  0
   64.2816   33.6393   47.2081 H   0  0  0  0  0  0  0  0  0  0  0  0
   64.2163   29.8606   50.7358 H   0  0  0  0  0  0  0  0  0  0  0  0
   64.3423   31.5576   51.3643 H   0  0  0  0  0  0  0  0  0  0  0  0
   61.9880   29.6475   51.4476 H   0  0  0  0  0  0  0  0  0  0  0  0
   62.7730   30.6179   52.7785 H   0  0  0  0  0  0  0  0  0  0  0  0
   61.6946   32.5924   52.1618 H   0  0  0  0  0  0  0  0  0  0  0  0
   61.3286   31.9934   50.5008 H   0  0  0  0  0  0  0  0  0  0  0  0
   58.2822   31.8938   52.9390 H   0  0  0  0  0  0  0  0  0  0  0  0
   59.7329   32.9609   53.1785 H   0  0  0  0  0  0  0  0  0  0  0  0
   57.7035   33.5924   51.4960 H   0  0  0  0  0  0  0  0  0  0  0  0
   59.4214   34.0776   51.2186 H   0  0  0  0  0  0  0  0  0  0  0  0
   57.0082   32.4603   48.0091 H   0  0  0  0  0  0  0  0  0  0  0  0
   57.2253   33.6902   45.8497 H   0  0  0  0  0  0  0  0  0  0  0  0
   59.2352   35.1053   45.4115 H   0  0  0  0  0  0  0  0  0  0  0  0
   61.0305   35.2959   47.1339 H   0  0  0  0  0  0  0  0  0  0  0  0
   57.4429   30.8580   50.2888 H   0  0  0  0  0  0  0  0  0  0  0  0
   58.7397   30.6540   49.0421 H   0  0  0  0  0  0  0  0  0  0  0  0
   58.7653   29.6324   51.6503 H   0  0  0  0  0  0  0  0  0  0  0  0
   60.1842   29.8157   50.5092 H   0  0  0  0  0  0  0  0  0  0  0  0
   60.5264   29.0852   48.5284 H   0  0  0  0  0  0  0  0  0  0  0  0
   58.3994   28.1587   47.6172 H   0  0  0  0  0  0  0  0  0  0  0  0
  1  2  1  0
  2  3  1  0
  3  4  2  0
  4  5  1  0
  5  6  2  0
  6  7  1  0
  7  8  1  0
  8  9  2  0
  9 10  1  0
 10 11  2  0
 10 12  1  0
 12 13  1  0
 13 14  1  0
 14 15  1  0
 15 16  1  0
 16 17  1  0
 17 18  1  0
 18 19  1  0
 19 20  1  0
 20 21  2  0
 21 22  1  0
 22 23  2  0
 23 24  1  0
 24 25  2  0
 25 26  1  0
 19 27  1  0
 27 28  1  0
 12 29  1  0
  6 30  1  0
 30 31  2  0
 31  3  1  0
 29  7  2  0
 28 16  1  0
 25 20  1  0
  1 32  1  0
  1 33  1  0
  1 34  1  0
  4 35  1  0
  5 36  1  0
  8 37  1  0
  9 38  1  0
 13 39  1  0
 13 40  1  0
 14 41  1  0
 14 42  1  0
 15 43  1  0
 15 44  1  0
 17 45  1  0
 17 46  1  0
 18 47  1  0
 18 48  1  0
 21 49  1  0
 22 50  1  0
 23 51  1  0
 24 52  1  0
 27 53  1  0
 27 54  1  0
 28 55  1  0
 28 56  1  0
 30 57  1  0
 31 58  1  0
M  END
>  <UniqueID>  (8) 
8

>  <SMILES>  (8) 
COc1ccc(-c2ccc(=O)n(CCCN3CCN(c4ccccc4Cl)CC3)n2)cc1

>  <Energy>  (8) 
78.01733485642664

>  <Genealogy>  (8) 
COc1ccc(-c2ccc(=O)n(CCCN3CCN(c4ccccc4Cl)CC3)n2)cc1 (3D coordinates assigned)
COc1ccc(-c2ccc(=O)n(CCCN3CCN(c4ccccc4Cl)CC3)n2)cc1 (nonaromatic ring conformer: 78.01733485642664 kcal/mol)

>  <smiles>  (8) 
COc1ccc(-c2ccc(=O)n(CCCN3CCN(c4ccccc4Cl)CC3)n2)cc1

>  <score_type>  (8) 
oracle

>  <origin>  (8) 
adg

>  <m_score__min__energy>  (8) 
-9.1699999999999999

>  <m_primary>  (8) 
energy

$$$$
8:0
     RDKit          3D

 44 46  0  0  0  0  0  0  0  0999 V2000
   56.4926   33.4034   44.4255 H   0  0  0  0  0  0  0  0  0  0  0  0
   57.3770   32.8840   44.8230 C   0  0  0  0  0  0  0  0  0  0  0  0
   58.2600   33.6080   45.5310 C   0  0  0  0  0  0  0  0  0  0  0  0
   58.7050   33.3840   46.8990 C   0  0  0  0  0  0  0  0  0  0  0  0
   58.3320   32.4400   47.6450 O   0  0  0  0  0  0  0  0  0  0  0  0
   59.6510   34.4290   47.2650 C   0  0  0  0  0  0  0  0  0  0  0  0
   60.3060   34.5770   48.4280 C   0  0  0  0  0  0  0  0  0  0  0  0
   59.7974   35.1243   49.2353 H   0  0  0  0  0  0  0  0  0  0  0  0
   61.6600   34.0570   48.6990 C   0  0  0  0  0  0  0  0  0  0  0  0
   62.2470   34.1970   49.9660 C   0  0  0  0  0  0  0  0  0  0  0  0
   61.6812   34.6676   50.7836 H   0  0  0  0  0  0  0  0  0  0  0  0
   63.5490   33.7400   50.1920 C   0  0  0  0  0  0  0  0  0  0  0  0
   63.9947   33.8375   51.1929 H   0  0  0  0  0  0  0  0  0  0  0  0
   64.2900   33.1600   49.1570 C   0  0  0  0  0  0  0  0  0  0  0  0
   65.5900   32.7140   49.4350 O   0  0  0  0  0  0  0  0  0  0  0  0
   66.3610   33.1300   50.5580 C   0  0  0  0  0  0  0  0  0  0  0  0
   65.8398   32.8488   51.4850 H   0  0  0  0  0  0  0  0  0  0  0  0
   67.3458   32.6408   50.5281 H   0  0  0  0  0  0  0  0  0  0  0  0
   66.4928   34.2217   50.5281 H   0  0  0  0  0  0  0  0  0  0  0  0
   63.7110   33.0480   47.8770 C   0  0  0  0  0  0  0  0  0  0  0  0
   64.2853   32.5995   47.0529 H   0  0  0  0  0  0  0  0  0  0  0  0
   62.4090   33.5050   47.6510 C   0  0  0  0  0  0  0  0  0  0  0  0
   61.9702   33.4308   46.6450 H   0  0  0  0  0  0  0  0  0  0  0  0
   59.8740   35.3310   46.0910 C   0  0  0  0  0  0  0  0  0  0  0  0
   60.9104   35.2434   45.7329 H   0  0  0  0  0  0  0  0  0  0  0  0
   59.7091   36.3859   46.3556 H   0  0  0  0  0  0  0  0  0  0  0  0
   58.8880   34.8600   45.0010 C   0  0  0  0  0  0  0  0  0  0  0  0
   59.4244   34.6520   44.0635 H   0  0  0  0  0  0  0  0  0  0  0  0
   58.1330   35.6286   44.7791 H   0  0  0  0  0  0  0  0  0  0  0  0
   57.5090   31.4430   44.5410 C   0  0  0  0  0  0  0  0  0  0  0  0
   58.5630   30.7220   45.1180 C   0  0  0  0  0  0  0  0  0  0  0  0
   59.3019   31.2410   45.7462 H   0  0  0  0  0  0  0  0  0  0  0  0
   58.6800   29.3460   44.8990 C   0  0  0  0  0  0  0  0  0  0  0  0
   59.5216   28.7915   45.3398 H   0  0  0  0  0  0  0  0  0  0  0  0
   57.7260   28.6660   44.1170 C   0  0  0  0  0  0  0  0  0  0  0  0
   57.8010   27.2880   43.8680 O   0  0  0  0  0  0  0  0  0  0  0  0
   58.1330   26.7160   42.6080 C   0  0  0  0  0  0  0  0  0  0  0  0
   58.6795   25.7744   42.7653 H   0  0  0  0  0  0  0  0  0  0  0  0
   57.2113   26.5149   42.0423 H   0  0  0  0  0  0  0  0  0  0  0  0
   58.7648   27.4166   42.0423 H   0  0  0  0  0  0  0  0  0  0  0  0
   56.6570   29.3850   43.5700 C   0  0  0  0  0  0  0  0  0  0  0  0
   55.9025   28.8630   42.9632 H   0  0  0  0  0  0  0  0  0  0  0  0
   56.5400   30.7600   43.7880 C   0  0  0  0  0  0  0  0  0  0  0  0
   55.6851   31.3102   43.3680 H   0  0  0  0  0  0  0  0  0  0  0  0
  1  2  1  0
  2  3  2  3
  3  4  1  0
  4  5  2  0
  4  6  1  0
  6  7  2  0
  7  8  1  0
  7  9  1  0
  9 10  2  0
 10 11  1  0
 10 12  1  0
 12 13  1  0
 12 14  2  0
 14 15  1  0
 15 16  1  0
 16 17  1  0
 16 18  1  0
 16 19  1  0
 14 20  1  0
 20 21  1  0
 20 22  2  0
 22 23  1  0
  6 24  1  0
 24 25  1  0
 24 26  1  0
 24 27  1  0
 27 28  1  0
 27 29  1  0
  2 30  1  0
 30 31  2  0
 31 32  1  0
 31 33  1  0
 33 34  1  0
 33 35  2  0
 35 36  1  0
 36 37  1  0
 37 38  1  0
 37 39  1  0
 37 40  1  0
 35 41  1  0
 41 42  1  0
 41 43  2  0
 43 44  1  0
 27  3  1  0
 43 30  1  0
 22  9  1  0
M  END
>  <UniqueID>  (9) 
9

>  <SMILES>  (9) 
COc1ccc(C=C2CC/C(=C/c3ccc(OC)cc3)C2=O)cc1

>  <Energy>  (9) 
69.00726979331886

>  <Genealogy>  (9) 
COc1ccc(C=C2CC/C(=C/c3ccc(OC)cc3)C2=O)cc1 (cis-trans isomerization)
COc1ccc(C=C2CC/C(=C/c3ccc(OC)cc3)C2=O)cc1 (3D coordinates assigned)
COc1ccc(C=C2CC/C(=C/c3ccc(OC)cc3)C2=O)cc1 (nonaromatic ring conformer: 69.00726979331886 kcal/mol)

>  <smiles>  (9) 
COc1ccc(C=C2CCC(=Cc3ccc(OC)cc3)C2=O)cc1

>  <score_type>  (9) 
oracle

>  <origin>  (9) 
adg

>  <m_score__min__energy>  (9) 
-8.2899999999999991

>  <m_primary>  (9) 
energy

$$$$
9:0
     RDKit          3D

 83 86  0  0  0  0  0  0  0  0999 V2000
   57.4500   33.5330   45.2140 C   0  0  0  0  0  0  0  0  0  0  0  0
   58.1760   33.7150   46.5430 C   0  0  0  0  0  0  0  0  0  0  0  0
   59.4990   34.4690   46.3560 C   0  0  0  0  0  0  0  0  0  0  0  0
   60.6850   33.5900   46.7780 C   0  0  0  0  0  0  0  0  0  0  0  0
   60.5450   33.0390   48.2100 C   0  0  0  0  0  0  0  0  0  0  0  0
   61.8740   32.7650   48.9540 C   0  0  0  0  0  0  0  0  0  0  0  0
   61.7370   32.2640   50.4050 C   0  0  0  0  0  0  0  0  0  0  0  0
   63.0810   32.1640   51.1560 C   0  0  0  0  0  0  0  0  0  0  0  0
   63.5590   30.6940   51.2290 C   0  0  0  0  0  0  0  0  0  0  0  0
   63.2320   29.9720   52.5020 N   0  0  0  0  0  0  0  0  0  0  0  0
   63.5500   30.8030   53.6990 C   0  0  0  0  0  0  0  0  0  0  0  0
   64.0390   28.7250   52.5870 C   0  0  0  0  0  0  0  0  0  0  0  0
   61.7840   29.5550   52.5250 C   0  0  0  0  0  0  0  0  0  0  0  0
   61.2920   28.5560   51.4420 C   0  0  0  0  0  0  0  0  0  0  0  0
   61.5310   28.9880   49.9840 C   0  0  0  0  0  0  0  0  0  0  0  0
   60.3350   28.7370   49.1500 N   0  0  0  0  0  0  0  0  0  0  0  0
   59.5600   29.9890   49.0020 C   0  0  0  0  0  0  0  0  0  0  0  0
   58.3680   29.8200   48.0500 C   0  0  0  0  0  0  0  0  0  0  0  0
   58.7450   29.1340   46.6900 C   0  0  1  0  0  0  0  0  0  0  0  0
   58.3950   30.0950   45.5060 C   0  0  0  0  0  0  0  0  0  0  0  0
   58.9980   29.7080   44.1350 C   0  0  0  0  0  0  0  0  0  0  0  0
   59.7230   28.3590   44.1320 C   0  0  0  0  0  0  0  0  0  0  0  0
   60.7460   28.2430   45.2730 C   0  0  0  0  0  0  0  0  0  0  0  0
   60.2740   28.8850   46.6150 C   0  0  2  0  0  0  0  0  0  0  0  0
   60.6820   28.0610   47.8580 C   0  0  2  0  0  0  0  0  0  0  0  0
   60.0170   26.6660   47.8410 C   0  0  0  0  0  0  0  0  0  0  0  0
   58.6260   26.6330   47.2390 C   0  0  0  0  0  0  0  0  0  0  0  0
   57.9460   25.4060   47.2410 C   0  0  0  0  0  0  0  0  0  0  0  0
   56.6620   25.3020   46.7100 C   0  0  0  0  0  0  0  0  0  0  0  0
   56.0320   26.4290   46.1850 C   0  0  0  0  0  0  0  0  0  0  0  0
   54.7410   26.3280   45.6830 O   0  0  0  0  0  0  0  0  0  0  0  0
   56.6940   27.6580   46.1670 C   0  0  0  0  0  0  0  0  0  0  0  0
   58.0170   27.7770   46.6500 C   0  0  0  0  0  0  0  0  0  0  0  0
   56.3990   33.2695   45.4034 H   0  0  0  0  0  0  0  0  0  0  0  0
   57.4953   34.4703   44.6401 H   0  0  0  0  0  0  0  0  0  0  0  0
   57.9321   32.7279   44.6401 H   0  0  0  0  0  0  0  0  0  0  0  0
   57.5319   34.2858   47.2281 H   0  0  0  0  0  0  0  0  0  0  0  0
   58.3984   32.7203   46.9565 H   0  0  0  0  0  0  0  0  0  0  0  0
   59.6117   34.7445   45.2971 H   0  0  0  0  0  0  0  0  0  0  0  0
   59.4850   35.3719   46.9841 H   0  0  0  0  0  0  0  0  0  0  0  0
   60.7583   32.7418   46.0814 H   0  0  0  0  0  0  0  0  0  0  0  0
   61.5867   34.2195   46.7538 H   0  0  0  0  0  0  0  0  0  0  0  0
   59.9717   33.7698   48.7993 H   0  0  0  0  0  0  0  0  0  0  0  0
   60.0496   32.0621   48.1094 H   0  0  0  0  0  0  0  0  0  0  0  0
   62.4292   32.0047   48.3850 H   0  0  0  0  0  0  0  0  0  0  0  0
   62.3866   33.7361   49.0194 H   0  0  0  0  0  0  0  0  0  0  0  0
   61.0842   32.9598   50.9525 H   0  0  0  0  0  0  0  0  0  0  0  0
   61.3196   31.2474   50.3561 H   0  0  0  0  0  0  0  0  0  0  0  0
   63.8361   32.7633   50.6262 H   0  0  0  0  0  0  0  0  0  0  0  0
   62.9430   32.5422   52.1797 H   0  0  0  0  0  0  0  0  0  0  0  0
   63.0928   30.1442   50.3981 H   0  0  0  0  0  0  0  0  0  0  0  0
   64.6571   30.7302   51.1755 H   0  0  0  0  0  0  0  0  0  0  0  0
   63.3307   30.2299   54.6120 H   0  0  0  0  0  0  0  0  0  0  0  0
   64.6157   31.0750   53.6839 H   0  0  0  0  0  0  0  0  0  0  0  0
   62.9381   31.7170   53.6839 H   0  0  0  0  0  0  0  0  0  0  0  0
   64.2057   28.4674   53.6433 H   0  0  0  0  0  0  0  0  0  0  0  0
   63.5000   27.9048   52.0903 H   0  0  0  0  0  0  0  0  0  0  0  0
   65.0080   28.8808   52.0903 H   0  0  0  0  0  0  0  0  0  0  0  0
   61.5926   29.0941   53.5053 H   0  0  0  0  0  0  0  0  0  0  0  0
   61.2295   30.4814   52.3142 H   0  0  0  0  0  0  0  0  0  0  0  0
   61.8120   27.5999   51.6017 H   0  0  0  0  0  0  0  0  0  0  0  0
   60.2005   28.4929   51.5631 H   0  0  0  0  0  0  0  0  0  0  0  0
   61.7652   30.0626   49.9617 H   0  0  0  0  0  0  0  0  0  0  0  0
   62.3683   28.4007   49.5789 H   0  0  0  0  0  0  0  0  0  0  0  0
   59.1845   30.2929   49.9903 H   0  0  0  0  0  0  0  0  0  0  0  0
   60.2277   30.7529   48.5771 H   0  0  0  0  0  0  0  0  0  0  0  0
   57.6068   29.2042   48.5513 H   0  0  0  0  0  0  0  0  0  0  0  0
   57.9986   30.8284   47.8121 H   0  0  0  0  0  0  0  0  0  0  0  0
   57.3003   30.1184   45.4005 H   0  0  0  0  0  0  0  0  0  0  0  0
   58.8358   31.0686   45.7663 H   0  0  0  0  0  0  0  0  0  0  0  0
   58.1823   29.6640   43.3983 H   0  0  0  0  0  0  0  0  0  0  0  0
   59.7490   30.4735   43.8900 H   0  0  0  0  0  0  0  0  0  0  0  0
   58.9782   27.5571   44.2421 H   0  0  0  0  0  0  0  0  0  0  0  0
   60.2691   28.2730   43.1810 H   0  0  0  0  0  0  0  0  0  0  0  0
   60.9462   27.1762   45.4513 H   0  0  0  0  0  0  0  0  0  0  0  0
   61.6430   28.7942   44.9541 H   0  0  0  0  0  0  0  0  0  0  0  0
   60.7931   29.8548   46.6243 H   0  0  0  0  0  0  0  0  0  0  0  0
   61.7764   27.9649   47.8024 H   0  0  0  0  0  0  0  0  0  0  0  0
   60.6583   25.9881   47.2586 H   0  0  0  0  0  0  0  0  0  0  0  0
   59.9070   26.3621   48.8925 H   0  0  0  0  0  0  0  0  0  0  0  0
   58.4320   24.5157   47.6667 H   0  0  0  0  0  0  0  0  0  0  0  0
   56.1457   24.3307   46.7051 H   0  0  0  0  0  0  0  0  0  0  0  0
   56.1790   28.5459   45.7715 H   0  0  0  0  0  0  0  0  0  0  0  0
  1  2  1  0
  2  3  1  0
  3  4  1  0
  4  5  1  0
  5  6  1  0
  6  7  1  0
  7  8  1  0
  8  9  1  0
  9 10  1  0
 10 11  1  0
 10 12  1  0
 10 13  1  0
 13 14  1  0
 14 15  1  0
 15 16  1  0
 16 17  1  0
 17 18  1  0
 19 18  1  1
 19 20  1  0
 20 21  1  0
 21 22  1  0
 22 23  1  0
 23 24  1  0
 24 25  1  0
 25 26  1  0
 26 27  1  0
 27 28  2  0
 28 29  1  0
 29 30  2  0
 30 31  1  0
 30 32  1  0
 32 33  2  0
 25 16  1  0
 33 27  1  0
 24 19  1  0
 33 19  1  0
  1 34  1  0
  1 35  1  0
  1 36  1  0
  2 37  1  0
  2 38  1  0
  3 39  1  0
  3 40  1  0
  4 41  1  0
  4 42  1  0
  5 43  1  0
  5 44  1  0
  6 45  1  0
  6 46  1  0
  7 47  1  0
  7 48  1  0
  8 49  1  0
  8 50  1  0
  9 51  1  0
  9 52  1  0
 11 53  1  0
 11 54  1  0
 11 55  1  0
 12 56  1  0
 12 57  1  0
 12 58  1  0
 13 59  1  0
 13 60  1  0
 14 61  1  0
 14 62  1  0
 15 63  1  0
 15 64  1  0
 17 65  1  0
 17 66  1  0
 18 67  1  0
 18 68  1  0
 20 69  1  0
 20 70  1  0
 21 71  1  0
 21 72  1  0
 22 73  1  0
 22 74  1  0
 23 75  1  0
 23 76  1  0
 24 77  1  1
 25 78  1  1
 26 79  1  0
 26 80  1  0
 28 81  1  0
 29 82  1  0
 32 83  1  0
M  CHG  2  10   1  31  -1
M  END
>  <UniqueID>  (10) 
10

>  <SMILES>  (10) 
CCCCCCCCC[N+](C)(C)CCCN1CC[C@@]23CCCC[C@@H]2C1Cc1ccc([O-])cc13

>  <Energy>  (10) 
115.08386683164053

>  <Genealogy>  (10) 
CCCCCCCCC[N+](C)(C)CCCN1CCC23CCCCC2C1Cc1ccc([O-])cc13 (protonated)
CCCCCCCCC[N+](C)(C)CCCN1CC[C@@]23CCCC[C@@H]2C1Cc1ccc([O-])cc13 (chirality)
CCCCCCCCC[N+](C)(C)CCCN1CC[C@@]23CCCC[C@@H]2C1Cc1ccc([O-])cc13 (3D coordinates assigned)
CCCCCCCCC[N+](C)(C)CCCN1CC[C@@]23CCCC[C@@H]2C1Cc1ccc([O-])cc13 (nonaromatic ring conformer: 115.08386683164053 kcal/mol)

>  <smiles>  (10) 
CCCCCCCCC[N+](C)(C)CCCN1CCC23CCCCC2C1Cc1ccc(O)cc13

>  <score_type>  (10) 
oracle

>  <origin>  (10) 
adg

>  <m_score__min__energy>  (10) 
-9.9900000000000002

>  <m_primary>  (10) 
energy

$$$$
10:0
     RDKit          3D

 36 38  0  0  0  0  0  0  0  0999 V2000
   56.7870   30.2010   43.9800 C   0  0  0  0  0  0  0  0  0  0  0  0
   57.0390   30.8040   45.2460 O   0  0  0  0  0  0  0  0  0  0  0  0
   57.6150   32.0700   45.4460 C   0  0  0  0  0  0  0  0  0  0  0  0
   57.0220   33.2040   44.8550 C   0  0  0  0  0  0  0  0  0  0  0  0
   57.5990   34.4620   44.9740 C   0  0  0  0  0  0  0  0  0  0  0  0
   58.7860   34.6200   45.6740 C   0  0  0  0  0  0  0  0  0  0  0  0
   59.3990   33.5180   46.2850 C   0  0  0  0  0  0  0  0  0  0  0  0
   60.6000   33.7080   46.9640 C   0  0  0  0  0  0  0  0  0  0  0  0
   61.2390   32.6380   47.5750 C   0  0  0  0  0  0  0  0  0  0  0  0
   62.5290   32.8690   48.2650 C   0  0  0  0  0  0  0  0  0  0  0  0
   63.7770   32.7830   47.6810 C   0  0  0  0  0  0  0  0  0  0  0  0
   64.7020   33.0730   48.6140 N   0  0  0  0  0  0  0  0  0  0  0  0
   64.0170   33.3450   49.7420 C   0  0  0  0  0  0  0  0  0  0  0  0
   62.6860   33.2400   49.5560 N   0  0  0  0  0  0  0  0  0  0  0  0
   61.6590   33.5010   50.5610 C   0  0  0  0  0  0  0  0  0  0  0  0
   60.6580   31.3630   47.5030 C   0  0  0  0  0  0  0  0  0  0  0  0
   61.2880   30.3850   47.9970 O   0  0  0  0  0  0  0  0  0  0  0  0
   59.4380   31.1700   46.8870 N   0  0  0  0  0  0  0  0  0  0  0  0
   58.8210   29.8300   46.9780 C   0  0  0  0  0  0  0  0  0  0  0  0
   58.8150   32.2200   46.2190 C   0  0  0  0  0  0  0  0  0  0  0  0
   56.3668   29.1955   44.1299 H   0  0  0  0  0  0  0  0  0  0  0  0
   56.0711   30.8173   43.4163 H   0  0  0  0  0  0  0  0  0  0  0  0
   57.7285   30.1246   43.4163 H   0  0  0  0  0  0  0  0  0  0  0  0
   56.0854   33.0907   44.2893 H   0  0  0  0  0  0  0  0  0  0  0  0
   57.1137   35.3345   44.5122 H   0  0  0  0  0  0  0  0  0  0  0  0
   59.2484   35.6152   45.7499 H   0  0  0  0  0  0  0  0  0  0  0  0
   61.0451   34.7126   47.0164 H   0  0  0  0  0  0  0  0  0  0  0  0
   63.9804   32.5219   46.6320 H   0  0  0  0  0  0  0  0  0  0  0  0
   65.7380   33.0920   48.4880 H   0  0  0  0  0  0  0  0  0  0  0  0
   64.4867   33.6193   50.6981 H   0  0  0  0  0  0  0  0  0  0  0  0
   62.0928   33.3907   51.5658 H   0  0  0  0  0  0  0  0  0  0  0  0
   61.2765   34.5249   50.4371 H   0  0  0  0  0  0  0  0  0  0  0  0
   60.8341   32.7839   50.4371 H   0  0  0  0  0  0  0  0  0  0  0  0
   58.6946   29.5556   48.0357 H   0  0  0  0  0  0  0  0  0  0  0  0
   57.8388   29.8442   46.4830 H   0  0  0  0  0  0  0  0  0  0  0  0
   59.4704   29.0929   46.4830 H   0  0  0  0  0  0  0  0  0  0  0  0
  1  2  1  0
  2  3  1  0
  3  4  2  0
  4  5  1  0
  5  6  2  0
  6  7  1  0
  7  8  1  0
  8  9  2  0
  9 10  1  0
 10 11  2  0
 11 12  1  0
 12 13  2  0
 13 14  1  0
 14 15  1  0
  9 16  1  0
 16 17  2  0
 16 18  1  0
 18 19  1  0
 18 20  1  0
 20  3  1  0
 20  7  2  0
 14 10  1  0
  1 21  1  0
  1 22  1  0
  1 23  1  0
  4 24  1  0
  5 25  1  0
  6 26  1  0
  8 27  1  0
 11 28  1  0
 12 29  1  0
 13 30  1  0
 15 31  1  0
 15 32  1  0
 15 33  1  0
 19 34  1  0
 19 35  1  0
 19 36  1  0
M  CHG  1  12   1
M  END
>  <UniqueID>  (11) 
11

>  <SMILES>  (11) 
COc1cccc2cc(-c3c[nH+]cn3C)c(=O)n(C)c12

>  <Energy>  (11) 
90.06153805824138

>  <Genealogy>  (11) 
COc1cccc2cc(-c3c[nH+]cn3C)c(=O)n(C)c12 (protonated)
COc1cccc2cc(-c3c[nH+]cn3C)c(=O)n(C)c12 (3D coordinates assigned)
COc1cccc2cc(-c3c[nH+]cn3C)c(=O)n(C)c12 (optimized conformer: 90.06153805824138 kcal/mol)

>  <smiles>  (11) 
COc1cccc2cc(-c3cncn3C)c(=O)n(C)c12

>  <score_type>  (11) 
oracle

>  <origin>  (11) 
adg

>  <m_score__min__energy>  (11) 
-5.4400000000000004

>  <m_primary>  (11) 
energy

$$$$
11:0
     RDKit          3D

 58 62  0  0  0  0  0  0  0  0999 V2000
   57.2360   33.6810   44.9370 C   0  0  0  0  0  0  0  0  0  0  0  0
   58.1360   32.8860   43.9790 C   0  0  0  0  0  0  0  0  0  0  0  0
   57.4350   31.8460   43.1890 N   0  0  0  0  0  0  0  0  0  0  0  0
   57.4370   32.0390   41.7300 C   0  0  0  0  0  0  0  0  0  0  0  0
   57.6740   30.4510   43.6170 C   0  0  0  0  0  0  0  0  0  0  0  0
   56.3960   29.6830   43.9930 C   0  0  0  0  0  0  0  0  0  0  0  0
   56.3960   29.3570   45.4190 N   0  0  0  0  0  0  0  0  0  0  0  0
   57.5130   28.7220   46.0620 C   0  0  0  0  0  0  0  0  0  0  0  0
   57.6010   27.3160   46.0800 C   0  0  0  0  0  0  0  0  0  0  0  0
   56.5740   26.5650   45.4840 O   0  0  0  0  0  0  0  0  0  0  0  0
   56.7060   25.2170   45.0460 C   0  0  0  0  0  0  0  0  0  0  0  0
   58.6980   26.6980   46.7070 C   0  0  0  0  0  0  0  0  0  0  0  0
   59.6860   27.4640   47.3230 C   0  0  0  0  0  0  0  0  0  0  0  0
   59.6030   28.8620   47.3220 C   0  0  0  0  0  0  0  0  0  0  0  0
   60.5990   29.6280   47.9320 C   0  0  0  0  0  0  0  0  0  0  0  0
   60.5240   31.0310   47.9110 C   0  0  0  0  0  0  0  0  0  0  0  0
   59.4380   31.6400   47.3250 N   0  0  0  0  0  0  0  0  0  0  0  0
   58.4650   30.9050   46.7060 C   0  0  0  0  0  0  0  0  0  0  0  0
   58.5130   29.5000   46.6960 C   0  0  0  0  0  0  0  0  0  0  0  0
   59.3500   33.1110   47.2700 C   0  0  0  0  0  0  0  0  0  0  0  0
   59.8750   33.7440   48.5620 C   0  0  0  0  0  0  0  0  0  0  0  0
   61.2490   33.2250   48.8690 C   0  0  0  0  0  0  0  0  0  0  0  0
   62.1950   34.0580   49.5050 C   0  0  0  0  0  0  0  0  0  0  0  0
   63.4500   33.5290   49.7790 C   0  0  0  0  0  0  0  0  0  0  0  0
   63.7760   32.2520   49.4600 C   0  0  0  0  0  0  0  0  0  0  0  0
   62.8730   31.3890   48.8480 C   0  0  0  0  0  0  0  0  0  0  0  0
   61.5710   31.8740   48.5620 C   0  0  0  0  0  0  0  0  0  0  0  0
   65.0820   32.0040   49.8350 O   0  0  0  0  0  0  0  0  0  0  0  0
   65.6070   33.1980   50.4310 C   0  0  0  0  0  0  0  0  0  0  0  0
   64.5320   34.1460   50.3750 O   0  0  0  0  0  0  0  0  0  0  0  0
   57.5059   33.4426   45.9764 H   0  0  0  0  0  0  0  0  0  0  0  0
   57.3734   34.7580   44.7603 H   0  0  0  0  0  0  0  0  0  0  0  0
   56.1842   33.4117   44.7603 H   0  0  0  0  0  0  0  0  0  0  0  0
   58.5996   33.5948   43.2771 H   0  0  0  0  0  0  0  0  0  0  0  0
   58.8679   32.3575   44.6076 H   0  0  0  0  0  0  0  0  0  0  0  0
   57.4481   33.1152   41.5025 H   0  0  0  0  0  0  0  0  0  0  0  0
   58.3303   31.5637   41.2985 H   0  0  0  0  0  0  0  0  0  0  0  0
   56.5341   31.5823   41.2985 H   0  0  0  0  0  0  0  0  0  0  0  0
   58.1685   29.9164   42.7926 H   0  0  0  0  0  0  0  0  0  0  0  0
   58.2943   30.4989   44.5242 H   0  0  0  0  0  0  0  0  0  0  0  0
   55.5187   30.3057   43.7639 H   0  0  0  0  0  0  0  0  0  0  0  0
   56.3588   28.7484   43.4140 H   0  0  0  0  0  0  0  0  0  0  0  0
   55.6090   29.7080   46.0100 H   0  0  0  0  0  0  0  0  0  0  0  0
   56.7711   24.5522   45.9200 H   0  0  0  0  0  0  0  0  0  0  0  0
   55.8306   24.9410   44.4398 H   0  0  0  0  0  0  0  0  0  0  0  0
   57.6183   25.1161   44.4398 H   0  0  0  0  0  0  0  0  0  0  0  0
   58.7768   25.6008   46.7112 H   0  0  0  0  0  0  0  0  0  0  0  0
   60.5364   26.9674   47.8131 H   0  0  0  0  0  0  0  0  0  0  0  0
   61.4446   29.1315   48.4303 H   0  0  0  0  0  0  0  0  0  0  0  0
   57.6313   31.4215   46.2078 H   0  0  0  0  0  0  0  0  0  0  0  0
   59.9491   33.4752   46.4224 H   0  0  0  0  0  0  0  0  0  0  0  0
   58.2940   33.3932   47.1470 H   0  0  0  0  0  0  0  0  0  0  0  0
   59.9174   34.8365   48.4408 H   0  0  0  0  0  0  0  0  0  0  0  0
   59.1990   33.4853   49.3903 H   0  0  0  0  0  0  0  0  0  0  0  0
   61.9458   35.0947   49.7754 H   0  0  0  0  0  0  0  0  0  0  0  0
   63.1607   30.3584   48.5927 H   0  0  0  0  0  0  0  0  0  0  0  0
   65.9035   33.0112   51.4737 H   0  0  0  0  0  0  0  0  0  0  0  0
   66.5043   33.5602   49.9078 H   0  0  0  0  0  0  0  0  0  0  0  0
  1  2  1  0
  2  3  1  0
  3  4  1  0
  3  5  1  0
  5  6  1  0
  6  7  1  0
  7  8  1  0
  8  9  2  0
  9 10  1  0
 10 11  1  0
  9 12  1  0
 12 13  2  0
 13 14  1  0
 14 15  2  0
 15 16  1  0
 16 17  2  0
 17 18  1  0
 18 19  2  0
 17 20  1  0
 20 21  1  0
 21 22  1  0
 22 23  2  0
 23 24  1  0
 24 25  2  0
 25 26  1  0
 26 27  2  0
 25 28  1  0
 28 29  1  0
 29 30  1  0
 19  8  1  0
 27 22  1  0
 19 14  1  0
 30 24  1  0
 27 16  1  0
  1 31  1  0
  1 32  1  0
  1 33  1  0
  2 34  1  0
  2 35  1  0
  4 36  1  0
  4 37  1  0
  4 38  1  0
  5 39  1  0
  5 40  1  0
  6 41  1  0
  6 42  1  0
  7 43  1  0
 11 44  1  0
 11 45  1  0
 11 46  1  0
 12 47  1  0
 13 48  1  0
 15 49  1  0
 18 50  1  0
 20 51  1  0
 20 52  1  0
 21 53  1  0
 21 54  1  0
 23 55  1  0
 26 56  1  0
 29 57  1  0
 29 58  1  0
M  CHG  1  17   1
M  END
>  <UniqueID>  (12) 
12

>  <SMILES>  (12) 
CCN(C)CCNc1c(OC)ccc2cc3[n+](cc12)CCc1cc2c(cc1-3)OCO2

>  <Energy>  (12) 
109.71375543231962

>  <Genealogy>  (12) 
CCN(C)CCNc1c(OC)ccc2cc3[n+](cc12)CCc1cc2c(cc1-3)OCO2 (3D coordinates assigned)
CCN(C)CCNc1c(OC)ccc2cc3[n+](cc12)CCc1cc2c(cc1-3)OCO2 (nonaromatic ring conformer: 109.71375543231962 kcal/mol)

>  <smiles>  (12) 
CCN(C)CCNc1c(OC)ccc2cc3[n+](cc12)CCc1cc2c(cc1-3)OCO2

>  <score_type>  (12) 
oracle

>  <origin>  (12) 
adg

>  <m_score__min__energy>  (12) 
-6.7300000000000004

>  <m_primary>  (12) 
energy

$$$$
12:0
     RDKit          3D

 55 59  0  0  0  0  0  0  0  0999 V2000
   63.5370   30.2960   50.9740 C   0  0  0  0  0  0  0  0  0  0  0  0
   64.7680   31.1390   50.7310 C   0  0  0  0  0  0  0  0  0  0  0  0
   64.6820   32.3870   50.0660 C   0  0  0  0  0  0  0  0  0  0  0  0
   63.3900   32.9740   49.6440 C   0  0  0  0  0  0  0  0  0  0  0  0
   62.5840   33.6610   50.5780 C   0  0  0  0  0  0  0  0  0  0  0  0
   61.3570   34.2140   50.1850 C   0  0  0  0  0  0  0  0  0  0  0  0
   60.9420   34.0610   48.8620 C   0  0  0  0  0  0  0  0  0  0  0  0
   61.7150   33.3850   47.9500 C   0  0  0  0  0  0  0  0  0  0  0  0
   62.9420   32.8290   48.3150 C   0  0  0  0  0  0  0  0  0  0  0  0
   61.0960   33.3540   46.6040 C   0  0  0  0  0  0  0  0  0  0  0  0
   59.6740   33.9430   46.8420 C   0  0  1  0  0  0  0  0  0  0  0  0
   59.2570   34.9570   45.7340 C   0  0  0  0  0  0  0  0  0  0  0  0
   58.3100   34.2110   44.7860 C   0  0  0  0  0  0  0  0  0  0  0  0
   57.9170   33.0270   45.5740 C   0  0  0  0  0  0  0  0  0  0  0  0
   57.0260   32.2130   45.2180 O   0  0  0  0  0  0  0  0  0  0  0  0
   58.6740   32.8750   46.7600 N   0  0  0  0  0  0  0  0  0  0  0  0
   58.5800   31.7060   47.6360 C   0  0  0  0  0  0  0  0  0  0  0  0
   59.6950   34.5850   48.2570 C   0  0  0  0  0  0  0  0  0  0  0  0
   65.8630   33.0960   49.7980 C   0  0  0  0  0  0  0  0  0  0  0  0
   67.0640   32.6110   50.2000 N   0  0  0  0  0  0  0  0  0  0  0  0
   67.1740   31.4370   50.8710 C   0  0  0  0  0  0  0  0  0  0  0  0
   66.0330   30.6800   51.1640 C   0  0  0  0  0  0  0  0  0  0  0  0
   66.1670   29.4520   51.8960 N   0  0  0  0  0  0  0  0  0  0  0  0
   67.0090   28.3780   51.3690 C   0  0  0  0  0  0  0  0  0  0  0  0
   66.5240   27.0340   51.9210 C   0  0  0  0  0  0  0  0  0  0  0  0
   66.4280   27.0750   53.3330 O   0  0  0  0  0  0  0  0  0  0  0  0
   65.4310   28.0020   53.7220 C   0  0  0  0  0  0  0  0  0  0  0  0
   65.8260   29.4260   53.3200 C   0  0  0  0  0  0  0  0  0  0  0  0
   63.3760   30.1857   52.0565 H   0  0  0  0  0  0  0  0  0  0  0  0
   62.6622   30.7855   50.5211 H   0  0  0  0  0  0  0  0  0  0  0  0
   63.6771   29.3034   50.5211 H   0  0  0  0  0  0  0  0  0  0  0  0
   62.9208   33.7629   51.6202 H   0  0  0  0  0  0  0  0  0  0  0  0
   60.7322   34.7593   50.9077 H   0  0  0  0  0  0  0  0  0  0  0  0
   63.5504   32.2858   47.5769 H   0  0  0  0  0  0  0  0  0  0  0  0
   61.6647   33.9744   45.8957 H   0  0  0  0  0  0  0  0  0  0  0  0
   61.0733   32.3449   46.1668 H   0  0  0  0  0  0  0  0  0  0  0  0
   58.7418   35.8187   46.1835 H   0  0  0  0  0  0  0  0  0  0  0  0
   60.1372   35.3373   45.1948 H   0  0  0  0  0  0  0  0  0  0  0  0
   57.4343   34.8278   44.5357 H   0  0  0  0  0  0  0  0  0  0  0  0
   58.7740   33.9557   43.8219 H   0  0  0  0  0  0  0  0  0  0  0  0
   58.6062   32.0318   48.6863 H   0  0  0  0  0  0  0  0  0  0  0  0
   57.6363   31.1758   47.4400 H   0  0  0  0  0  0  0  0  0  0  0  0
   59.4268   31.0319   47.4400 H   0  0  0  0  0  0  0  0  0  0  0  0
   59.7229   35.6826   48.1894 H   0  0  0  0  0  0  0  0  0  0  0  0
   58.7997   34.3426   48.8484 H   0  0  0  0  0  0  0  0  0  0  0  0
   65.8142   34.0528   49.2575 H   0  0  0  0  0  0  0  0  0  0  0  0
   68.1647   31.0779   51.1865 H   0  0  0  0  0  0  0  0  0  0  0  0
   66.9464   28.3678   50.2708 H   0  0  0  0  0  0  0  0  0  0  0  0
   68.0524   28.5457   51.6743 H   0  0  0  0  0  0  0  0  0  0  0  0
   65.5340   26.8069   51.4988 H   0  0  0  0  0  0  0  0  0  0  0  0
   67.2483   26.2554   51.6395 H   0  0  0  0  0  0  0  0  0  0  0  0
   64.4825   27.7387   53.2311 H   0  0  0  0  0  0  0  0  0  0  0  0
   65.3200   27.9623   54.8157 H   0  0  0  0  0  0  0  0  0  0  0  0
   64.9834   30.1076   53.5082 H   0  0  0  0  0  0  0  0  0  0  0  0
   66.6955   29.7474   53.9122 H   0  0  0  0  0  0  0  0  0  0  0  0
  1  2  1  0
  2  3  2  0
  3  4  1  0
  4  5  2  0
  5  6  1  0
  6  7  2  0
  7  8  1  0
  8  9  2  0
  8 10  1  0
 10 11  1  0
 11 12  1  0
 12 13  1  0
 13 14  1  0
 14 15  2  0
 14 16  1  0
 16 17  1  0
 11 18  1  0
  3 19  1  0
 19 20  2  0
 20 21  1  0
 21 22  2  0
 22 23  1  0
 23 24  1  0
 24 25  1  0
 25 26  1  0
 26 27  1  0
 27 28  1  0
 22  2  1  0
 28 23  1  0
  9  4  1  0
 11 16  1  1
 18  7  1  0
  1 29  1  0
  1 30  1  0
  1 31  1  0
  5 32  1  0
  6 33  1  0
  9 34  1  0
 10 35  1  0
 10 36  1  0
 12 37  1  0
 12 38  1  0
 13 39  1  0
 13 40  1  0
 17 41  1  0
 17 42  1  0
 17 43  1  0
 18 44  1  0
 18 45  1  0
 19 46  1  0
 21 47  1  0
 24 48  1  0
 24 49  1  0
 25 50  1  0
 25 51  1  0
 27 52  1  0
 27 53  1  0
 28 54  1  0
 28 55  1  0
M  END
>  <UniqueID>  (13) 
13

>  <SMILES>  (13) 
Cc1c(-c2ccc3c(c2)C[C@]2(CCC(=O)N2C)C3)cncc1N1CCOCC1

>  <Energy>  (13) 
89.17958551283643

>  <Genealogy>  (13) 
Cc1c(-c2ccc3c(c2)C[C@]2(CCC(=O)N2C)C3)cncc1N1CCOCC1 (chirality)
Cc1c(-c2ccc3c(c2)C[C@]2(CCC(=O)N2C)C3)cncc1N1CCOCC1 (3D coordinates assigned)
Cc1c(-c2ccc3c(c2)C[C@]2(CCC(=O)N2C)C3)cncc1N1CCOCC1 (nonaromatic ring conformer: 89.17958551283643 kcal/mol)

>  <smiles>  (13) 
Cc1c(-c2ccc3c(c2)CC2(CCC(=O)N2C)C3)cncc1N1CCOCC1

>  <score_type>  (13) 
oracle

>  <origin>  (13) 
adg

>  <m_score__min__energy>  (13) 
-8.1899999999999995

>  <m_primary>  (13) 
energy

$$$$
13:0
     RDKit          3D

 45 46  0  0  0  0  0  0  0  0999 V2000
   56.5070   29.7460   42.7150 C   0  0  0  0  0  0  0  0  0  0  0  0
   55.8900   30.2850   44.0010 C   0  0  0  0  0  0  0  0  0  0  0  0
   56.9460   30.8040   44.9000 N   0  0  0  0  0  0  0  0  0  0  0  0
   57.0380   32.2830   44.8350 C   0  0  0  0  0  0  0  0  0  0  0  0
   58.1140   32.7460   43.8540 C   0  0  0  0  0  0  0  0  0  0  0  0
   58.2410   30.1040   44.7090 C   0  0  0  0  0  0  0  0  0  0  0  0
   59.0710   29.9480   45.9940 C   0  0  0  0  0  0  0  0  0  0  0  0
   58.2090   30.0530   47.1090 O   0  0  0  0  0  0  0  0  0  0  0  0
   58.9540   30.1170   48.3110 C   0  0  0  0  0  0  0  0  0  0  0  0
   59.0660   31.5690   48.7870 C   0  0  0  0  0  0  0  0  0  0  0  0
   59.6670   32.4200   47.7550 N   0  0  0  0  0  0  0  0  0  0  0  0
   59.0120   33.6110   47.2030 C   0  0  0  0  0  0  0  0  0  0  0  0
   60.1080   34.4150   46.4680 C   0  0  0  0  0  0  0  0  0  0  0  0
   61.3460   33.6450   46.7540 C   0  0  0  0  0  0  0  0  0  0  0  0
   62.6530   33.9520   46.3750 C   0  0  0  0  0  0  0  0  0  0  0  0
   63.6870   33.0870   46.7650 C   0  0  0  0  0  0  0  0  0  0  0  0
   63.3980   31.9380   47.5240 C   0  0  0  0  0  0  0  0  0  0  0  0
   62.0740   31.6470   47.8950 C   0  0  0  0  0  0  0  0  0  0  0  0
   61.0590   32.5260   47.4900 C   0  0  0  0  0  0  0  0  0  0  0  0
   57.3141   29.0409   42.9630 H   0  0  0  0  0  0  0  0  0  0  0  0
   55.7351   29.2277   42.1271 H   0  0  0  0  0  0  0  0  0  0  0  0
   56.9169   30.5805   42.1271 H   0  0  0  0  0  0  0  0  0  0  0  0
   55.1911   31.0980   43.7551 H   0  0  0  0  0  0  0  0  0  0  0  0
   55.3556   29.4696   44.5104 H   0  0  0  0  0  0  0  0  0  0  0  0
   56.0664   32.6856   44.5127 H   0  0  0  0  0  0  0  0  0  0  0  0
   57.3087   32.6513   45.8355 H   0  0  0  0  0  0  0  0  0  0  0  0
   58.9839   33.1203   44.4137 H   0  0  0  0  0  0  0  0  0  0  0  0
   58.4214   31.9005   43.2210 H   0  0  0  0  0  0  0  0  0  0  0  0
   57.7114   33.5505   43.2210 H   0  0  0  0  0  0  0  0  0  0  0  0
   58.0345   29.1006   44.3082 H   0  0  0  0  0  0  0  0  0  0  0  0
   58.8363   30.7241   44.0226 H   0  0  0  0  0  0  0  0  0  0  0  0
   59.5634   28.9644   45.9988 H   0  0  0  0  0  0  0  0  0  0  0  0
   59.8391   30.7340   46.0403 H   0  0  0  0  0  0  0  0  0  0  0  0
   58.4489   29.5191   49.0839 H   0  0  0  0  0  0  0  0  0  0  0  0
   59.9636   29.7198   48.1293 H   0  0  0  0  0  0  0  0  0  0  0  0
   58.0607   31.9476   49.0238 H   0  0  0  0  0  0  0  0  0  0  0  0
   59.7098   31.5948   49.6785 H   0  0  0  0  0  0  0  0  0  0  0  0
   58.2200   33.3168   46.4986 H   0  0  0  0  0  0  0  0  0  0  0  0
   58.5442   34.2112   47.9973 H   0  0  0  0  0  0  0  0  0  0  0  0
   59.9095   34.4547   45.3868 H   0  0  0  0  0  0  0  0  0  0  0  0
   60.1670   35.4630   46.7970 H   0  0  0  0  0  0  0  0  0  0  0  0
   62.8687   34.8535   45.7827 H   0  0  0  0  0  0  0  0  0  0  0  0
   64.7254   33.3077   46.4768 H   0  0  0  0  0  0  0  0  0  0  0  0
   64.2124   31.2641   47.8285 H   0  0  0  0  0  0  0  0  0  0  0  0
   61.8395   30.7512   48.4888 H   0  0  0  0  0  0  0  0  0  0  0  0
  1  2  1  0
  2  3  1  0
  3  4  1  0
  4  5  1  0
  3  6  1  0
  6  7  1  0
  7  8  1  0
  8  9  1  0
  9 10  1  0
 10 11  1  0
 11 12  1  0
 12 13  1  0
 13 14  1  0
 14 15  2  0
 15 16  1  0
 16 17  2  0
 17 18  1  0
 18 19  2  0
 19 11  1  0
 19 14  1  0
  1 20  1  0
  1 21  1  0
  1 22  1  0
  2 23  1  0
  2 24  1  0
  4 25  1  0
  4 26  1  0
  5 27  1  0
  5 28  1  0
  5 29  1  0
  6 30  1  0
  6 31  1  0
  7 32  1  0
  7 33  1  0
  9 34  1  0
  9 35  1  0
 10 36  1  0
 10 37  1  0
 12 38  1  0
 12 39  1  0
 13 40  1  0
 13 41  1  0
 15 42  1  0
 16 43  1  0
 17 44  1  0
 18 45  1  0
M  END
>  <UniqueID>  (14) 
14

>  <SMILES>  (14) 
CCN(CC)CCOCCN1CCc2ccccc21

>  <Energy>  (14) 
58.498078340451116

>  <Genealogy>  (14) 
CCN(CC)CCOCCN1CCc2ccccc21 (3D coordinates assigned)
CCN(CC)CCOCCN1CCc2ccccc21 (nonaromatic ring conformer: 58.498078340451116 kcal/mol)

>  <smiles>  (14) 
CCN(CC)CCOCCN1CCc2ccccc21

>  <score_type>  (14) 
oracle

>  <origin>  (14) 
adg

>  <m_score__min__energy>  (14) 
-6.3200000000000003

>  <m_primary>  (14) 
energy

$$$$
14:0
     RDKit          3D

 37 38  0  0  0  0  0  0  0  0999 V2000
   56.7270   29.6300   44.8740 C   0  0  0  0  0  0  0  0  0  0  0  0
   57.8600   28.9900   45.6860 C   0  0  0  0  0  0  0  0  0  0  0  0
   59.1760   28.9940   44.8990 C   0  0  0  0  0  0  0  0  0  0  0  0
   57.4930   27.5790   46.1290 C   0  0  0  0  0  0  0  0  0  0  0  0
   56.2970   26.9910   45.6730 C   0  0  0  0  0  0  0  0  0  0  0  0
   55.9300   25.7040   46.0760 C   0  0  0  0  0  0  0  0  0  0  0  0
   54.7700   25.1600   45.6230 N   0  0  0  0  0  0  0  0  0  0  0  0
   54.3660   23.9110   45.9860 C   0  0  0  0  0  0  0  0  0  0  0  0
   53.0750   23.3560   45.4580 C   0  0  0  0  0  0  0  0  0  0  0  0
   53.0360   23.4420   44.0770 F   0  0  0  0  0  0  0  0  0  0  0  0
   52.0140   24.0730   45.9800 F   0  0  0  0  0  0  0  0  0  0  0  0
   52.9530   22.0290   45.8280 F   0  0  0  0  0  0  0  0  0  0  0  0
   55.1620   23.1490   46.8520 C   0  0  0  0  0  0  0  0  0  0  0  0
   56.3620   23.6780   47.3360 C   0  0  0  0  0  0  0  0  0  0  0  0
   57.0730   22.9850   48.1140 O   0  0  0  0  0  0  0  0  0  0  0  0
   56.7620   24.9710   46.9490 C   0  0  0  0  0  0  0  0  0  0  0  0
   57.9570   25.5480   47.4040 C   0  0  0  0  0  0  0  0  0  0  0  0
   58.3290   26.8380   47.0000 C   0  0  0  0  0  0  0  0  0  0  0  0
   59.5680   27.3790   47.4770 N   0  0  0  0  0  0  0  0  0  0  0  0
   60.8310   26.7380   47.1160 C   0  0  0  0  0  0  0  0  0  0  0  0
   59.5450   28.4730   48.4460 C   0  0  0  0  0  0  0  0  0  0  0  0
   55.9781   30.0530   45.5597 H   0  0  0  0  0  0  0  0  0  0  0  0
   57.1369   30.4300   44.2400 H   0  0  0  0  0  0  0  0  0  0  0  0
   56.2534   28.8660   44.2400 H   0  0  0  0  0  0  0  0  0  0  0  0
   58.0059   29.5988   46.5905 H   0  0  0  0  0  0  0  0  0  0  0  0
   60.0230   28.9966   45.6009 H   0  0  0  0  0  0  0  0  0  0  0  0
   59.2273   28.0960   44.2658 H   0  0  0  0  0  0  0  0  0  0  0  0
   59.2218   29.8923   44.2658 H   0  0  0  0  0  0  0  0  0  0  0  0
   55.6426   27.5526   44.9901 H   0  0  0  0  0  0  0  0  0  0  0  0
   54.8438   22.1389   47.1496 H   0  0  0  0  0  0  0  0  0  0  0  0
   58.6094   24.9821   48.0853 H   0  0  0  0  0  0  0  0  0  0  0  0
   61.3762   26.4613   48.0304 H   0  0  0  0  0  0  0  0  0  0  0  0
   60.6272   25.8343   46.5230 H   0  0  0  0  0  0  0  0  0  0  0  0
   61.4401   27.4361   46.5230 H   0  0  0  0  0  0  0  0  0  0  0  0
   59.5537   28.0600   49.4655 H   0  0  0  0  0  0  0  0  0  0  0  0
   60.4299   29.1100   48.3009 H   0  0  0  0  0  0  0  0  0  0  0  0
   58.6341   29.0723   48.3009 H   0  0  0  0  0  0  0  0  0  0  0  0
  1  2  1  0
  2  3  1  0
  2  4  1  0
  4  5  2  0
  5  6  1  0
  6  7  1  0
  7  8  1  0
  8  9  1  0
  9 10  1  0
  9 11  1  0
  9 12  1  0
  8 13  2  0
 13 14  1  0
 14 15  2  0
 14 16  1  0
 16 17  1  0
 17 18  2  0
 18 19  1  0
 19 20  1  0
 19 21  1  0
 18  4  1  0
 16  6  2  0
  1 22  1  0
  1 23  1  0
  1 24  1  0
  2 25  1  0
  3 26  1  0
  3 27  1  0
  3 28  1  0
  5 29  1  0
 13 30  1  0
 17 31  1  0
 20 32  1  0
 20 33  1  0
 20 34  1  0
 21 35  1  0
 21 36  1  0
 21 37  1  0
M  CHG  1   7  -1
M  END
>  <UniqueID>  (15) 
15

>  <SMILES>  (15) 
CC(C)c1cc2[n-]c(C(F)(F)F)cc(=O)c2cc1N(C)C

>  <Energy>  (15) 
41.78085183992213

>  <Genealogy>  (15) 
CC(C)c1cc2[n-]c(C(F)(F)F)cc(=O)c2cc1N(C)C (protonated)
CC(C)c1cc2[n-]c(C(F)(F)F)cc(=O)c2cc1N(C)C (3D coordinates assigned)
CC(C)c1cc2[n-]c(C(F)(F)F)cc(=O)c2cc1N(C)C (optimized conformer: 41.78085183992213 kcal/mol)

>  <smiles>  (15) 
CC(C)c1cc2[nH]c(C(F)(F)F)cc(=O)c2cc1N(C)C

>  <score_type>  (15) 
oracle

>  <origin>  (15) 
adg

>  <m_score__min__energy>  (15) 
-7.1399999999999997

>  <m_primary>  (15) 
energy

$$$$
15:0
     RDKit          3D

 71 75  0  0  0  0  0  0  0  0999 V2000
   66.2480   32.6670   50.1170 C   0  0  0  0  0  0  0  0  0  0  0  0
   64.9770   33.4890   50.3780 C   0  0  0  0  0  0  0  0  0  0  0  0
   63.7490   33.0330   49.6660 N   0  0  0  0  0  0  0  0  0  0  0  0
   63.3610   33.8260   48.4640 C   0  0  0  0  0  0  0  0  0  0  0  0
   63.3220   33.0560   47.1360 C   0  0  0  0  0  0  0  0  0  0  0  0
   63.5750   31.5570   49.5490 C   0  0  0  0  0  0  0  0  0  0  0  0
   62.4220   30.9540   50.3680 C   0  0  0  0  0  0  0  0  0  0  0  0
   61.6380   32.0060   50.8910 O   0  0  0  0  0  0  0  0  0  0  0  0
   60.3620   32.0310   50.2760 C   0  0  0  0  0  0  0  0  0  0  0  0
   60.2570   30.9180   49.2270 C   0  0  0  0  0  0  0  0  0  0  0  0
   58.9110   30.8500   48.6540 N   0  0  0  0  0  0  0  0  0  0  0  0
   58.6520   31.1370   47.2660 C   0  0  0  0  0  0  0  0  0  0  0  0
   58.8190   32.4380   46.7600 C   0  0  0  0  0  0  0  0  0  0  0  0
   59.1280   33.5150   47.6190 C   0  0  0  0  0  0  0  0  0  0  0  0
   59.3840   34.7840   47.1070 C   0  0  0  0  0  0  0  0  0  0  0  0
   59.3330   35.0040   45.7360 C   0  0  0  0  0  0  0  0  0  0  0  0
   58.9750   33.9700   44.8730 C   0  0  0  0  0  0  0  0  0  0  0  0
   58.6580   32.6770   45.3680 C   0  0  0  0  0  0  0  0  0  0  0  0
   58.2100   31.6700   44.5340 N   0  0  0  0  0  0  0  0  0  0  0  0
   57.7630   31.9920   43.1600 C   0  0  0  0  0  0  0  0  0  0  0  0
   58.1350   30.3680   44.9950 C   0  0  0  0  0  0  0  0  0  0  0  0
   57.9010   29.2750   44.1070 C   0  0  0  0  0  0  0  0  0  0  0  0
   57.7730   27.9950   44.6290 C   0  0  0  0  0  0  0  0  0  0  0  0
   57.5270   26.8570   43.9400 N   0  0  0  0  0  0  0  0  0  0  0  0
   57.4800   25.8900   44.8810 C   0  0  0  0  0  0  0  0  0  0  0  0
   57.2380   24.5330   44.6820 C   0  0  0  0  0  0  0  0  0  0  0  0
   57.2220   23.6940   45.8110 C   0  0  0  0  0  0  0  0  0  0  0  0
   57.4460   24.2120   47.1090 C   0  0  0  0  0  0  0  0  0  0  0  0
   57.4150   23.3200   48.1900 O   0  0  0  0  0  0  0  0  0  0  0  0
   56.2590   22.6010   48.6050 C   0  0  0  0  0  0  0  0  0  0  0  0
   57.6880   25.5980   47.2800 C   0  0  0  0  0  0  0  0  0  0  0  0
   57.6960   26.4020   46.1420 C   0  0  0  0  0  0  0  0  0  0  0  0
   57.8850   27.7550   45.9740 C   0  0  0  0  0  0  0  0  0  0  0  0
   58.1570   28.7680   46.8810 C   0  0  0  0  0  0  0  0  0  0  0  0
   58.3070   30.0920   46.3920 C   0  0  0  0  0  0  0  0  0  0  0  0
   66.6994   32.3751   51.0767 H   0  0  0  0  0  0  0  0  0  0  0  0
   65.9897   31.7645   49.5437 H   0  0  0  0  0  0  0  0  0  0  0  0
   66.9652   33.2728   49.5437 H   0  0  0  0  0  0  0  0  0  0  0  0
   64.7714   33.4580   51.4582 H   0  0  0  0  0  0  0  0  0  0  0  0
   65.1891   34.4963   49.9903 H   0  0  0  0  0  0  0  0  0  0  0  0
   62.9930   33.2880   50.3490 H   0  0  0  0  0  0  0  0  0  0  0  0
   62.3578   34.2401   48.6430 H   0  0  0  0  0  0  0  0  0  0  0  0
   64.1460   34.5871   48.3436 H   0  0  0  0  0  0  0  0  0  0  0  0
   63.2673   31.9764   47.3396 H   0  0  0  0  0  0  0  0  0  0  0  0
   62.4384   33.3654   46.5585 H   0  0  0  0  0  0  0  0  0  0  0  0
   64.2324   33.2746   46.5585 H   0  0  0  0  0  0  0  0  0  0  0  0
   63.3965   31.3208   48.4896 H   0  0  0  0  0  0  0  0  0  0  0  0
   64.4956   31.1136   49.9563 H   0  0  0  0  0  0  0  0  0  0  0  0
   61.8017   30.3171   49.7203 H   0  0  0  0  0  0  0  0  0  0  0  0
   62.8255   30.3438   51.1895 H   0  0  0  0  0  0  0  0  0  0  0  0
   59.5867   31.8824   51.0420 H   0  0  0  0  0  0  0  0  0  0  0  0
   60.2210   33.0037   49.7821 H   0  0  0  0  0  0  0  0  0  0  0  0
   60.9795   31.1159   48.4215 H   0  0  0  0  0  0  0  0  0  0  0  0
   60.4736   29.9577   49.7178 H   0  0  0  0  0  0  0  0  0  0  0  0
   58.1370   30.4570   49.2350 H   0  0  0  0  0  0  0  0  0  0  0  0
   59.1669   33.3494   48.7058 H   0  0  0  0  0  0  0  0  0  0  0  0
   59.6268   35.6129   47.7881 H   0  0  0  0  0  0  0  0  0  0  0  0
   59.5759   35.9973   45.3306 H   0  0  0  0  0  0  0  0  0  0  0  0
   58.9373   34.1584   43.7899 H   0  0  0  0  0  0  0  0  0  0  0  0
   56.8712   32.6344   43.2056 H   0  0  0  0  0  0  0  0  0  0  0  0
   58.5678   32.5192   42.6267 H   0  0  0  0  0  0  0  0  0  0  0  0
   57.5178   31.0617   42.6267 H   0  0  0  0  0  0  0  0  0  0  0  0
   57.8231   29.4448   43.0230 H   0  0  0  0  0  0  0  0  0  0  0  0
   57.3930   26.7520   42.9100 H   0  0  0  0  0  0  0  0  0  0  0  0
   57.0648   24.1298   43.6733 H   0  0  0  0  0  0  0  0  0  0  0  0
   57.0324   22.6181   45.6830 H   0  0  0  0  0  0  0  0  0  0  0  0
   56.2180   22.5755   49.7039 H   0  0  0  0  0  0  0  0  0  0  0  0
   55.3584   23.0986   48.2159 H   0  0  0  0  0  0  0  0  0  0  0  0
   56.3071   21.5732   48.2159 H   0  0  0  0  0  0  0  0  0  0  0  0
   57.8637   26.0250   48.2784 H   0  0  0  0  0  0  0  0  0  0  0  0
   58.2543   28.5505   47.9549 H   0  0  0  0  0  0  0  0  0  0  0  0
  1  2  1  0
  2  3  1  0
  3  4  1  0
  4  5  1  0
  3  6  1  0
  6  7  1  0
  7  8  1  0
  8  9  1  0
  9 10  1  0
 10 11  1  0
 11 12  1  0
 12 13  2  0
 13 14  1  0
 14 15  2  0
 15 16  1  0
 16 17  2  0
 17 18  1  0
 18 19  2  0
 19 20  1  0
 19 21  1  0
 21 22  2  0
 22 23  1  0
 23 24  1  0
 24 25  1  0
 25 26  2  0
 26 27  1  0
 27 28  2  0
 28 29  1  0
 29 30  1  0
 28 31  1  0
 31 32  2  0
 32 33  1  0
 33 34  1  0
 34 35  2  0
 35 12  1  0
 18 13  1  0
 35 21  1  0
 33 23  2  0
 32 25  1  0
  1 36  1  0
  1 37  1  0
  1 38  1  0
  2 39  1  0
  2 40  1  0
  3 41  1  0
  4 42  1  0
  4 43  1  0
  5 44  1  0
  5 45  1  0
  5 46  1  0
  6 47  1  0
  6 48  1  0
  7 49  1  0
  7 50  1  0
  9 51  1  0
  9 52  1  0
 10 53  1  0
 10 54  1  0
 11 55  1  0
 14 56  1  0
 15 57  1  0
 16 58  1  0
 17 59  1  0
 20 60  1  0
 20 61  1  0
 20 62  1  0
 22 63  1  0
 24 64  1  0
 26 65  1  0
 27 66  1  0
 30 67  1  0
 30 68  1  0
 30 69  1  0
 31 70  1  0
 34 71  1  0
M  CHG  2   3   1  19   1
M  END
>  <UniqueID>  (16) 
16

>  <SMILES>  (16) 
CC[NH+](CC)CCOCCNc1c2ccccc2[n+](C)c2cc3[nH]c4ccc(OC)cc4c3cc12

>  <Energy>  (16) 
154.34432273058175

>  <Genealogy>  (16) 
CC[NH+](CC)CCOCCNc1c2ccccc2[n+](C)c2cc3[nH]c4ccc(OC)cc4c3cc12 (protonated)
CC[NH+](CC)CCOCCNc1c2ccccc2[n+](C)c2cc3[nH]c4ccc(OC)cc4c3cc12 (3D coordinates assigned)
CC[NH+](CC)CCOCCNc1c2ccccc2[n+](C)c2cc3[nH]c4ccc(OC)cc4c3cc12 (optimized conformer: 154.34432273058175 kcal/mol)

>  <smiles>  (16) 
CCN(CC)CCOCCNc1c2ccccc2[n+](C)c2cc3[nH]c4ccc(OC)cc4c3cc12

>  <score_type>  (16) 
oracle

>  <origin>  (16) 
adg

>  <m_score__min__energy>  (16) 
-6.1200000000000001

>  <m_primary>  (16) 
energy

$$$$
16:0
     RDKit          3D

 57 59  0  0  0  0  0  0  0  0999 V2000
   60.4930   33.7710   49.5280 C   0  0  0  0  0  0  0  0  0  0  0  0
   61.9480   33.9310   49.0670 C   0  0  0  0  0  0  0  0  0  0  0  0
   62.6420   32.6330   48.8460 N   0  0  0  0  0  0  0  0  0  0  0  0
   63.6670   32.7470   47.7750 C   0  0  0  0  0  0  0  0  0  0  0  0
   63.2770   33.7560   46.6870 C   0  0  0  0  0  0  0  0  0  0  0  0
   63.2290   32.0480   50.0820 C   0  0  0  0  0  0  0  0  0  0  0  0
   62.5010   30.7990   50.6170 C   0  0  0  0  0  0  0  0  0  0  0  0
   61.6420   30.2750   49.6210 O   0  0  0  0  0  0  0  0  0  0  0  0
   60.3330   30.1020   50.1230 C   0  0  0  0  0  0  0  0  0  0  0  0
   59.3820   29.7750   48.9690 C   0  0  0  0  0  0  0  0  0  0  0  0
   60.0260   29.9660   47.6670 N   0  0  0  0  0  0  0  0  0  0  0  0
   59.2860   29.9430   46.4340 C   0  0  0  0  0  0  0  0  0  0  0  0
   58.9260   28.7230   45.8380 C   0  0  0  0  0  0  0  0  0  0  0  0
   59.4400   27.5020   46.3210 C   0  0  0  0  0  0  0  0  0  0  0  0
   59.1040   26.2960   45.7100 C   0  0  0  0  0  0  0  0  0  0  0  0
   58.2740   26.2880   44.5950 C   0  0  0  0  0  0  0  0  0  0  0  0
   57.7640   27.4850   44.0900 C   0  0  0  0  0  0  0  0  0  0  0  0
   58.0600   28.7260   44.7110 C   0  0  0  0  0  0  0  0  0  0  0  0
   57.5460   29.9170   44.2350 N   0  0  0  0  0  0  0  0  0  0  0  0
   56.4180   29.9070   43.2760 C   0  0  0  0  0  0  0  0  0  0  0  0
   58.0710   31.1170   44.6740 C   0  0  0  0  0  0  0  0  0  0  0  0
   57.7690   32.3450   44.0300 C   0  0  0  0  0  0  0  0  0  0  0  0
   58.2400   33.5570   44.5330 C   0  0  0  0  0  0  0  0  0  0  0  0
   59.0380   33.5800   45.6720 C   0  0  0  0  0  0  0  0  0  0  0  0
   59.6560   35.2460   46.3710 Br  0  0  0  0  0  0  0  0  0  0  0  0
   59.3910   32.3860   46.3000 C   0  0  0  0  0  0  0  0  0  0  0  0
   58.9300   31.1480   45.8040 C   0  0  0  0  0  0  0  0  0  0  0  0
   60.4550   33.7668   50.6273 H   0  0  0  0  0  0  0  0  0  0  0  0
   59.8924   34.6085   49.1435 H   0  0  0  0  0  0  0  0  0  0  0  0
   60.0887   32.8230   49.1435 H   0  0  0  0  0  0  0  0  0  0  0  0
   61.9550   34.4957   48.1231 H   0  0  0  0  0  0  0  0  0  0  0  0
   62.4877   34.4565   49.8686 H   0  0  0  0  0  0  0  0  0  0  0  0
   61.9180   31.9460   48.5240 H   0  0  0  0  0  0  0  0  0  0  0  0
   64.6160   33.0683   48.2290 H   0  0  0  0  0  0  0  0  0  0  0  0
   63.7583   31.7609   47.2962 H   0  0  0  0  0  0  0  0  0  0  0  0
   62.9186   34.6831   47.1582 H   0  0  0  0  0  0  0  0  0  0  0  0
   64.1541   33.9780   46.0614 H   0  0  0  0  0  0  0  0  0  0  0  0
   62.4786   33.3303   46.0614 H   0  0  0  0  0  0  0  0  0  0  0  0
   64.2714   31.7703   49.8671 H   0  0  0  0  0  0  0  0  0  0  0  0
   63.1360   32.8177   50.8623 H   0  0  0  0  0  0  0  0  0  0  0  0
   63.2431   30.0364   50.8959 H   0  0  0  0  0  0  0  0  0  0  0  0
   61.9041   31.0787   51.4977 H   0  0  0  0  0  0  0  0  0  0  0  0
   60.3253   29.2761   50.8495 H   0  0  0  0  0  0  0  0  0  0  0  0
   60.0047   31.0285   50.6168 H   0  0  0  0  0  0  0  0  0  0  0  0
   59.0607   28.7267   49.0577 H   0  0  0  0  0  0  0  0  0  0  0  0
   58.5211   30.4570   49.0297 H   0  0  0  0  0  0  0  0  0  0  0  0
   61.0400   30.2170   47.6390 H   0  0  0  0  0  0  0  0  0  0  0  0
   60.1141   27.5018   47.1903 H   0  0  0  0  0  0  0  0  0  0  0  0
   59.4958   25.3493   46.1102 H   0  0  0  0  0  0  0  0  0  0  0  0
   58.0182   25.3349   44.1090 H   0  0  0  0  0  0  0  0  0  0  0  0
   57.1225   27.4660   43.1966 H   0  0  0  0  0  0  0  0  0  0  0  0
   55.4669   29.8986   43.8287 H   0  0  0  0  0  0  0  0  0  0  0  0
   56.4665   30.8056   42.6434 H   0  0  0  0  0  0  0  0  0  0  0  0
   56.4825   29.0094   42.6434 H   0  0  0  0  0  0  0  0  0  0  0  0
   57.1530   32.3405   43.1187 H   0  0  0  0  0  0  0  0  0  0  0  0
   57.9796   34.4985   44.0272 H   0  0  0  0  0  0  0  0  0  0  0  0
   60.0354   32.4095   47.1912 H   0  0  0  0  0  0  0  0  0  0  0  0
  1  2  1  0
  2  3  1  0
  3  4  1  0
  4  5  1  0
  3  6  1  0
  6  7  1  0
  7  8  1  0
  8  9  1  0
  9 10  1  0
 10 11  1  0
 11 12  1  0
 12 13  2  0
 13 14  1  0
 14 15  2  0
 15 16  1  0
 16 17  2  0
 17 18  1  0
 18 19  2  0
 19 20  1  0
 19 21  1  0
 21 22  2  0
 22 23  1  0
 23 24  2  0
 24 25  1  0
 24 26  1  0
 26 27  2  0
 27 12  1  0
 18 13  1  0
 27 21  1  0
  1 28  1  0
  1 29  1  0
  1 30  1  0
  2 31  1  0
  2 32  1  0
  3 33  1  0
  4 34  1  0
  4 35  1  0
  5 36  1  0
  5 37  1  0
  5 38  1  0
  6 39  1  0
  6 40  1  0
  7 41  1  0
  7 42  1  0
  9 43  1  0
  9 44  1  0
 10 45  1  0
 10 46  1  0
 11 47  1  0
 14 48  1  0
 15 49  1  0
 16 50  1  0
 17 51  1  0
 20 52  1  0
 20 53  1  0
 20 54  1  0
 22 55  1  0
 23 56  1  0
 26 57  1  0
M  CHG  2   3   1  19   1
M  END
>  <UniqueID>  (17) 
17

>  <SMILES>  (17) 
CC[NH+](CC)CCOCCNc1c2ccccc2[n+](C)c2ccc(Br)cc12

>  <Energy>  (17) 
81.74926956551188

>  <Genealogy>  (17) 
CC[NH+](CC)CCOCCNc1c2ccccc2[n+](C)c2ccc(Br)cc12 (protonated)
CC[NH+](CC)CCOCCNc1c2ccccc2[n+](C)c2ccc(Br)cc12 (3D coordinates assigned)
CC[NH+](CC)CCOCCNc1c2ccccc2[n+](C)c2ccc(Br)cc12 (optimized conformer: 81.74926956551188 kcal/mol)

>  <smiles>  (17) 
CCN(CC)CCOCCNc1c2ccccc2[n+](C)c2ccc(Br)cc12

>  <score_type>  (17) 
oracle

>  <origin>  (17) 
adg

>  <m_score__min__energy>  (17) 
-4.6900000000000004

>  <m_primary>  (17) 
energy

$$$$
17:0
     RDKit          3D

 53 55  0  0  0  0  0  0  0  0999 V2000
   57.3930   32.0140   41.8480 C   0  0  0  0  0  0  0  0  0  0  0  0
   58.1780   31.9760   43.1550 C   0  0  0  0  0  0  0  0  0  0  0  0
   57.6030   30.9630   44.0680 N   0  0  0  0  0  0  0  0  0  0  0  0
   56.5370   30.1790   43.4070 C   0  0  0  0  0  0  0  0  0  0  0  0
   55.5100   29.7180   44.4380 C   0  0  0  0  0  0  0  0  0  0  0  0
   58.6530   30.0830   44.6320 C   0  0  0  0  0  0  0  0  0  0  0  0
   58.4830   29.9420   46.1530 C   0  0  0  0  0  0  0  0  0  0  0  0
   59.3940   28.9940   46.6780 O   0  0  0  0  0  0  0  0  0  0  0  0
   60.3630   29.6260   47.4880 C   0  0  0  0  0  0  0  0  0  0  0  0
   59.7140   30.0290   48.8100 C   0  0  0  0  0  0  0  0  0  0  0  0
   59.7510   31.4440   48.9780 O   0  0  0  0  0  0  0  0  0  0  0  0
   60.7840   32.2360   48.4700 C   0  0  0  0  0  0  0  0  0  0  0  0
   60.6680   33.2010   47.4780 C   0  0  0  0  0  0  0  0  0  0  0  0
   59.4510   33.5760   46.7190 C   0  0  0  0  0  0  0  0  0  0  0  0
   58.1790   33.0890   47.0770 C   0  0  0  0  0  0  0  0  0  0  0  0
   57.0480   33.4470   46.3330 C   0  0  0  0  0  0  0  0  0  0  0  0
   57.1730   34.2870   45.2270 C   0  0  0  0  0  0  0  0  0  0  0  0
   58.4300   34.7690   44.8560 C   0  0  0  0  0  0  0  0  0  0  0  0
   59.5630   34.4130   45.5950 C   0  0  0  0  0  0  0  0  0  0  0  0
   61.8620   33.8290   47.3250 N   0  0  0  0  0  0  0  0  0  0  0  0
   62.6700   33.2050   48.2090 C   0  0  0  0  0  0  0  0  0  0  0  0
   64.0190   33.4880   48.4150 C   0  0  0  0  0  0  0  0  0  0  0  0
   64.7100   32.7180   49.3640 C   0  0  0  0  0  0  0  0  0  0  0  0
   64.0480   31.6930   50.0640 C   0  0  0  0  0  0  0  0  0  0  0  0
   62.6890   31.4520   49.8160 C   0  0  0  0  0  0  0  0  0  0  0  0
   62.0530   32.2370   48.9070 N   0  0  0  0  0  0  0  0  0  0  0  0
   56.3165   32.0661   42.0682 H   0  0  0  0  0  0  0  0  0  0  0  0
   57.6916   32.8987   41.2665 H   0  0  0  0  0  0  0  0  0  0  0  0
   57.6047   31.1046   41.2665 H   0  0  0  0  0  0  0  0  0  0  0  0
   59.2262   31.7195   42.9418 H   0  0  0  0  0  0  0  0  0  0  0  0
   58.1230   32.9641   43.6353 H   0  0  0  0  0  0  0  0  0  0  0  0
   56.0391   30.8056   42.6523 H   0  0  0  0  0  0  0  0  0  0  0  0
   56.9844   29.2973   42.9248 H   0  0  0  0  0  0  0  0  0  0  0  0
   55.9023   29.8941   45.4504 H   0  0  0  0  0  0  0  0  0  0  0  0
   54.5760   30.2832   44.3032 H   0  0  0  0  0  0  0  0  0  0  0  0
   55.3116   28.6445   44.3032 H   0  0  0  0  0  0  0  0  0  0  0  0
   58.5797   29.0890   44.1666 H   0  0  0  0  0  0  0  0  0  0  0  0
   59.6372   30.5289   44.4256 H   0  0  0  0  0  0  0  0  0  0  0  0
   58.6651   30.9175   46.6276 H   0  0  0  0  0  0  0  0  0  0  0  0
   57.4592   29.5981   46.3616 H   0  0  0  0  0  0  0  0  0  0  0  0
   61.1936   28.9310   47.6809 H   0  0  0  0  0  0  0  0  0  0  0  0
   60.7527   30.5183   46.9763 H   0  0  0  0  0  0  0  0  0  0  0  0
   58.6670   29.6918   48.8160 H   0  0  0  0  0  0  0  0  0  0  0  0
   60.2704   29.5600   49.6349 H   0  0  0  0  0  0  0  0  0  0  0  0
   58.0733   32.4234   47.9463 H   0  0  0  0  0  0  0  0  0  0  0  0
   56.0580   33.0644   46.6219 H   0  0  0  0  0  0  0  0  0  0  0  0
   56.2820   34.5698   44.6472 H   0  0  0  0  0  0  0  0  0  0  0  0
   58.5293   35.4292   43.9818 H   0  0  0  0  0  0  0  0  0  0  0  0
   60.5510   34.7915   45.2939 H   0  0  0  0  0  0  0  0  0  0  0  0
   64.5249   34.2872   47.8534 H   0  0  0  0  0  0  0  0  0  0  0  0
   65.7737   32.9171   49.5611 H   0  0  0  0  0  0  0  0  0  0  0  0
   64.5927   31.0846   50.8010 H   0  0  0  0  0  0  0  0  0  0  0  0
   62.1523   30.6493   50.3429 H   0  0  0  0  0  0  0  0  0  0  0  0
  1  2  1  0
  2  3  1  0
  3  4  1  0
  4  5  1  0
  3  6  1  0
  6  7  1  0
  7  8  1  0
  8  9  1  0
  9 10  1  0
 10 11  1  0
 11 12  1  0
 12 13  2  0
 13 14  1  0
 14 15  2  0
 15 16  1  0
 16 17  2  0
 17 18  1  0
 18 19  2  0
 13 20  1  0
 20 21  2  0
 21 22  1  0
 22 23  2  0
 23 24  1  0
 24 25  2  0
 25 26  1  0
 26 12  1  0
 19 14  1  0
 26 21  1  0
  1 27  1  0
  1 28  1  0
  1 29  1  0
  2 30  1  0
  2 31  1  0
  4 32  1  0
  4 33  1  0
  5 34  1  0
  5 35  1  0
  5 36  1  0
  6 37  1  0
  6 38  1  0
  7 39  1  0
  7 40  1  0
  9 41  1  0
  9 42  1  0
 10 43  1  0
 10 44  1  0
 15 45  1  0
 16 46  1  0
 17 47  1  0
 18 48  1  0
 19 49  1  0
 22 50  1  0
 23 51  1  0
 24 52  1  0
 25 53  1  0
M  END
>  <UniqueID>  (18) 
18

>  <SMILES>  (18) 
CCN(CC)CCOCCOc1c(-c2ccccc2)nc2ccccn12

>  <Energy>  (18) 
93.0049647487037

>  <Genealogy>  (18) 
CCN(CC)CCOCCOc1c(-c2ccccc2)nc2ccccn12 (3D coordinates assigned)
CCN(CC)CCOCCOc1c(-c2ccccc2)nc2ccccn12 (optimized conformer: 93.0049647487037 kcal/mol)

>  <smiles>  (18) 
CCN(CC)CCOCCOc1c(-c2ccccc2)nc2ccccn12

>  <score_type>  (18) 
oracle

>  <origin>  (18) 
adg

>  <m_score__min__energy>  (18) 
-6.8799999999999999

>  <m_primary>  (18) 
energy

$$$$
18:0
     RDKit          3D

 46 48  0  0  0  0  0  0  0  0999 V2000
   59.3890   29.6030   48.8880 C   0  0  0  0  0  0  0  0  0  0  0  0
   59.7920   28.1570   48.5990 C   0  0  0  0  0  0  0  0  0  0  0  0
   60.5570   28.0390   47.3360 N   0  0  0  0  0  0  0  0  0  0  0  0
   60.6950   29.3480   46.6580 C   0  0  0  0  0  0  0  0  0  0  0  0
   60.7480   29.1560   45.1460 C   0  0  0  0  0  0  0  0  0  0  0  0
   60.0560   26.9850   46.4200 C   0  0  0  0  0  0  0  0  0  0  0  0
   58.6970   26.3890   46.8320 C   0  0  0  0  0  0  0  0  0  0  0  0
   57.7870   26.4240   45.7340 O   0  0  0  0  0  0  0  0  0  0  0  0
   56.7460   27.3550   45.6230 C   0  0  0  0  0  0  0  0  0  0  0  0
   55.5790   27.0460   45.9920 O   0  0  0  0  0  0  0  0  0  0  0  0
   57.0170   28.6980   45.0660 C   0  0  0  0  0  0  0  0  0  0  0  0
   56.7620   28.9770   43.7010 C   0  0  0  0  0  0  0  0  0  0  0  0
   57.0160   30.2520   43.1670 C   0  0  0  0  0  0  0  0  0  0  0  0
   57.5230   31.2400   44.0090 C   0  0  0  0  0  0  0  0  0  0  0  0
   57.7730   30.9730   45.3400 C   0  0  0  0  0  0  0  0  0  0  0  0
   57.5310   29.7170   45.8970 C   0  0  0  0  0  0  0  0  0  0  0  0
   58.2890   32.1790   45.9530 C   0  0  0  0  0  0  0  0  0  0  0  0
   58.6870   32.4170   47.2680 C   0  0  0  0  0  0  0  0  0  0  0  0
   59.1570   33.7000   47.5970 C   0  0  0  0  0  0  0  0  0  0  0  0
   59.2170   34.7090   46.6140 C   0  0  0  0  0  0  0  0  0  0  0  0
   58.8100   34.4430   45.2950 C   0  0  0  0  0  0  0  0  0  0  0  0
   58.3470   33.1640   44.9850 C   0  0  0  0  0  0  0  0  0  0  0  0
   57.8650   32.6590   43.6560 C   0  0  0  0  0  0  0  0  0  0  0  0
   59.3450   29.7610   49.9757 H   0  0  0  0  0  0  0  0  0  0  0  0
   60.1312   30.2854   48.4481 H   0  0  0  0  0  0  0  0  0  0  0  0
   58.4008   29.8031   48.4481 H   0  0  0  0  0  0  0  0  0  0  0  0
   60.4147   27.7889   49.4277 H   0  0  0  0  0  0  0  0  0  0  0  0
   58.8733   27.5605   48.4982 H   0  0  0  0  0  0  0  0  0  0  0  0
   59.8332   29.9820   46.9136 H   0  0  0  0  0  0  0  0  0  0  0  0
   61.6269   29.8280   46.9914 H   0  0  0  0  0  0  0  0  0  0  0  0
   61.0343   28.1187   44.9179 H   0  0  0  0  0  0  0  0  0  0  0  0
   59.7582   29.3664   44.7147 H   0  0  0  0  0  0  0  0  0  0  0  0
   61.4897   29.8444   44.7147 H   0  0  0  0  0  0  0  0  0  0  0  0
   59.9519   27.4210   45.4155 H   0  0  0  0  0  0  0  0  0  0  0  0
   60.7862   26.1629   46.4522 H   0  0  0  0  0  0  0  0  0  0  0  0
   58.8401   25.3462   47.1514 H   0  0  0  0  0  0  0  0  0  0  0  0
   58.2820   26.9833   47.6594 H   0  0  0  0  0  0  0  0  0  0  0  0
   56.3602   28.1860   43.0508 H   0  0  0  0  0  0  0  0  0  0  0  0
   56.8186   30.4657   42.1062 H   0  0  0  0  0  0  0  0  0  0  0  0
   57.7362   29.5248   46.9605 H   0  0  0  0  0  0  0  0  0  0  0  0
   58.6346   31.6225   48.0270 H   0  0  0  0  0  0  0  0  0  0  0  0
   59.4794   33.9179   48.6259 H   0  0  0  0  0  0  0  0  0  0  0  0
   59.5847   35.7108   46.8809 H   0  0  0  0  0  0  0  0  0  0  0  0
   58.8556   35.2263   44.5241 H   0  0  0  0  0  0  0  0  0  0  0  0
   56.9822   33.2145   43.3066 H   0  0  0  0  0  0  0  0  0  0  0  0
   58.5900   32.7649   42.8355 H   0  0  0  0  0  0  0  0  0  0  0  0
  1  2  1  0
  2  3  1  0
  3  4  1  0
  4  5  1  0
  3  6  1  0
  6  7  1  0
  7  8  1  0
  8  9  1  0
  9 10  2  0
  9 11  1  0
 11 12  2  0
 12 13  1  0
 13 14  2  0
 14 15  1  0
 15 16  2  0
 15 17  1  0
 17 18  2  0
 18 19  1  0
 19 20  2  0
 20 21  1  0
 21 22  2  0
 22 23  1  0
 16 11  1  0
 22 17  1  0
 23 14  1  0
  1 24  1  0
  1 25  1  0
  1 26  1  0
  2 27  1  0
  2 28  1  0
  4 29  1  0
  4 30  1  0
  5 31  1  0
  5 32  1  0
  5 33  1  0
  6 34  1  0
  6 35  1  0
  7 36  1  0
  7 37  1  0
 12 38  1  0
 13 39  1  0
 16 40  1  0
 18 41  1  0
 19 42  1  0
 20 43  1  0
 21 44  1  0
 23 45  1  0
 23 46  1  0
M  END
>  <UniqueID>  (19) 
19

>  <SMILES>  (19) 
CCN(CC)CCOC(=O)c1ccc2c(c1)-c1ccccc1C2

>  <Energy>  (19) 
68.9047887968716

>  <Genealogy>  (19) 
CCN(CC)CCOC(=O)c1ccc2c(c1)-c1ccccc1C2 (3D coordinates assigned)
CCN(CC)CCOC(=O)c1ccc2c(c1)-c1ccccc1C2 (nonaromatic ring conformer: 68.9047887968716 kcal/mol)

>  <smiles>  (19) 
CCN(CC)CCOC(=O)c1ccc2c(c1)-c1ccccc1C2

>  <score_type>  (19) 
oracle

>  <origin>  (19) 
adg

>  <m_score__min__energy>  (19) 
-7.4400000000000004

>  <m_primary>  (19) 
energy

$$$$
19:0
     RDKit          3D

 41 42  0  0  0  0  0  0  0  0999 V2000
   56.2700   29.7750   42.6670 C   0  0  0  0  0  0  0  0  0  0  0  0
   55.7040   29.8410   44.0850 C   0  0  0  0  0  0  0  0  0  0  0  0
   56.7510   29.7020   45.1080 N   0  0  0  0  0  0  0  0  0  0  0  0
   58.0560   30.3060   44.7690 C   0  0  0  0  0  0  0  0  0  0  0  0
   58.2840   31.7410   45.3160 C   0  0  1  0  0  0  0  0  0  0  0  0
   57.0440   32.6320   45.1710 C   0  0  0  0  0  0  0  0  0  0  0  0
   57.3540   34.0720   45.6210 C   0  0  0  0  0  0  0  0  0  0  0  0
   58.2170   34.1710   46.8330 N   0  0  2  0  0  0  0  0  0  0  0  0
   59.5310   34.7060   46.5140 C   0  0  0  0  0  0  0  0  0  0  0  0
   59.6470   35.6320   45.6630 O   0  0  0  0  0  0  0  0  0  0  0  0
   60.7590   34.2210   47.2030 C   0  0  0  0  0  0  0  0  0  0  0  0
   61.8690   33.7410   46.4810 C   0  0  0  0  0  0  0  0  0  0  0  0
   63.0080   33.2840   47.1510 C   0  0  0  0  0  0  0  0  0  0  0  0
   63.0590   33.2950   48.5470 C   0  0  0  0  0  0  0  0  0  0  0  0
   64.5110   32.7110   49.3500 Cl  0  0  0  0  0  0  0  0  0  0  0  0
   61.9580   33.7630   49.2800 C   0  0  0  0  0  0  0  0  0  0  0  0
   61.9800   33.7900   51.0390 Cl  0  0  0  0  0  0  0  0  0  0  0  0
   60.8180   34.2190   48.6100 C   0  0  0  0  0  0  0  0  0  0  0  0
   58.2960   32.9170   47.6220 C   0  0  0  0  0  0  0  0  0  0  0  0
   58.7150   31.6770   46.8000 C   0  0  0  0  0  0  0  0  0  0  0  0
   57.3616   29.6477   42.7135 H   0  0  0  0  0  0  0  0  0  0  0  0
   55.8239   28.9228   42.1334 H   0  0  0  0  0  0  0  0  0  0  0  0
   56.0319   30.7070   42.1334 H   0  0  0  0  0  0  0  0  0  0  0  0
   55.2020   30.8102   44.2213 H   0  0  0  0  0  0  0  0  0  0  0  0
   54.9998   29.0048   44.2068 H   0  0  0  0  0  0  0  0  0  0  0  0
   56.4030   30.0970   46.0110 H   0  0  0  0  0  0  0  0  0  0  0  0
   58.8465   29.6577   45.1751 H   0  0  0  0  0  0  0  0  0  0  0  0
   58.0766   30.3912   43.6725 H   0  0  0  0  0  0  0  0  0  0  0  0
   59.0826   32.1951   44.7110 H   0  0  0  0  0  0  0  0  0  0  0  0
   56.2326   32.2259   45.7929 H   0  0  0  0  0  0  0  0  0  0  0  0
   56.7418   32.6488   44.1135 H   0  0  0  0  0  0  0  0  0  0  0  0
   56.4008   34.5770   45.8363 H   0  0  0  0  0  0  0  0  0  0  0  0
   57.9149   34.5416   44.7995 H   0  0  0  0  0  0  0  0  0  0  0  0
   57.7630   34.8540   47.4840 H   0  0  0  0  0  0  0  0  0  0  0  0
   61.8396   33.7255   45.3815 H   0  0  0  0  0  0  0  0  0  0  0  0
   63.8691   32.9136   46.5754 H   0  0  0  0  0  0  0  0  0  0  0  0
   59.9561   34.5809   49.1898 H   0  0  0  0  0  0  0  0  0  0  0  0
   57.3060   32.7221   48.0602 H   0  0  0  0  0  0  0  0  0  0  0  0
   59.0758   33.0705   48.3825 H   0  0  0  0  0  0  0  0  0  0  0  0
   58.2576   30.7868   47.2565 H   0  0  0  0  0  0  0  0  0  0  0  0
   59.8142   31.6378   46.8144 H   0  0  0  0  0  0  0  0  0  0  0  0
  1  2  1  0
  2  3  1  0
  3  4  1  0
  4  5  1  0
  5  6  1  0
  6  7  1  0
  7  8  1  0
  8  9  1  0
  9 10  2  0
  9 11  1  0
 11 12  2  0
 12 13  1  0
 13 14  2  0
 14 15  1  0
 14 16  1  0
 16 17  1  0
 16 18  2  0
  8 19  1  0
 19 20  1  0
 20  5  1  0
 18 11  1  0
  1 21  1  0
  1 22  1  0
  1 23  1  0
  2 24  1  0
  2 25  1  0
  3 26  1  0
  4 27  1  0
  4 28  1  0
  5 29  1  6
  6 30  1  0
  6 31  1  0
  7 32  1  0
  7 33  1  0
  8 34  1  1
 12 35  1  0
 13 36  1  0
 18 37  1  0
 19 38  1  0
 19 39  1  0
 20 40  1  0
 20 41  1  0
M  CHG  1   8   1
M  END
>  <UniqueID>  (20) 
20

>  <SMILES>  (20) 
CCNCC1CC[NH+](C(=O)c2ccc(Cl)c(Cl)c2)CC1

>  <Energy>  (20) 
55.90580632681156

>  <Genealogy>  (20) 
CCNCC1CC[NH+](C(=O)c2ccc(Cl)c(Cl)c2)CC1 (protonated)
CCNCC1CC[NH+](C(=O)c2ccc(Cl)c(Cl)c2)CC1 (3D coordinates assigned)
CCNCC1CC[NH+](C(=O)c2ccc(Cl)c(Cl)c2)CC1 (nonaromatic ring conformer: 55.90580632681156 kcal/mol)

>  <smiles>  (20) 
CCNCC1CCN(C(=O)c2ccc(Cl)c(Cl)c2)CC1

>  <score_type>  (20) 
oracle

>  <origin>  (20) 
adg

>  <m_score__min__energy>  (20) 
-6.4400000000000004

>  <m_primary>  (20) 
energy

$$$$
20:0
     RDKit          3D

 34 35  0  0  0  0  0  0  0  0999 V2000
   63.3550   33.8790   46.3570 C   0  0  0  0  0  0  0  0  0  0  0  0
   63.5640   32.5950   47.1580 C   0  0  0  0  0  0  0  0  0  0  0  0
   62.9270   32.6990   48.4900 N   0  0  0  0  0  0  0  0  0  0  0  0
   63.8460   32.2360   49.5460 C   0  0  0  0  0  0  0  0  0  0  0  0
   62.4900   34.0850   48.7720 C   0  0  0  0  0  0  0  0  0  0  0  0
   60.9670   34.2150   48.6510 C   0  0  0  0  0  0  0  0  0  0  0  0
   60.4320   33.1400   47.8170 N   0  0  0  0  0  0  0  0  0  0  0  0
   59.5840   33.4030   46.6890 C   0  0  0  0  0  0  0  0  0  0  0  0
   59.3400   34.6890   46.1940 C   0  0  0  0  0  0  0  0  0  0  0  0
   58.2820   34.5770   44.8810 S   0  0  0  0  0  0  0  0  0  0  0  0
   58.1360   32.9060   44.9340 C   0  0  0  0  0  0  0  0  0  0  0  0
   57.3970   32.0810   44.0890 C   0  0  0  0  0  0  0  0  0  0  0  0
   57.4430   30.6970   44.3080 C   0  0  0  0  0  0  0  0  0  0  0  0
   58.2230   30.1680   45.3530 C   0  0  0  0  0  0  0  0  0  0  0  0
   58.9620   31.0190   46.1930 C   0  0  0  0  0  0  0  0  0  0  0  0
   58.9040   32.4020   45.9750 C   0  0  0  0  0  0  0  0  0  0  0  0
   63.2175   34.7239   47.0479 H   0  0  0  0  0  0  0  0  0  0  0  0
   64.2350   34.0631   45.7232 H   0  0  0  0  0  0  0  0  0  0  0  0
   62.4620   33.7745   45.7232 H   0  0  0  0  0  0  0  0  0  0  0  0
   63.1192   31.7513   46.6100 H   0  0  0  0  0  0  0  0  0  0  0  0
   64.6438   32.4353   47.2942 H   0  0  0  0  0  0  0  0  0  0  0  0
   63.4112   32.4551   50.5324 H   0  0  0  0  0  0  0  0  0  0  0  0
   64.0021   31.1517   49.4467 H   0  0  0  0  0  0  0  0  0  0  0  0
   64.8103   32.7559   49.4467 H   0  0  0  0  0  0  0  0  0  0  0  0
   62.7945   34.3577   49.7932 H   0  0  0  0  0  0  0  0  0  0  0  0
   62.9590   34.7570   48.0383 H   0  0  0  0  0  0  0  0  0  0  0  0
   60.5168   34.1557   49.6529 H   0  0  0  0  0  0  0  0  0  0  0  0
   60.7256   35.1826   48.1869 H   0  0  0  0  0  0  0  0  0  0  0  0
   60.8900   32.2050   47.8930 H   0  0  0  0  0  0  0  0  0  0  0  0
   59.7670   35.6204   46.5941 H   0  0  0  0  0  0  0  0  0  0  0  0
   56.7938   32.5040   43.2722 H   0  0  0  0  0  0  0  0  0  0  0  0
   56.8663   30.0210   43.6595 H   0  0  0  0  0  0  0  0  0  0  0  0
   58.2547   29.0803   45.5137 H   0  0  0  0  0  0  0  0  0  0  0  0
   59.5754   30.6063   47.0076 H   0  0  0  0  0  0  0  0  0  0  0  0
  1  2  1  0
  2  3  1  0
  3  4  1  0
  3  5  1  0
  5  6  1  0
  6  7  1  0
  7  8  1  0
  8  9  2  0
  9 10  1  0
 10 11  1  0
 11 12  2  0
 12 13  1  0
 13 14  2  0
 14 15  1  0
 15 16  2  0
 16  8  1  0
 16 11  1  0
  1 17  1  0
  1 18  1  0
  1 19  1  0
  2 20  1  0
  2 21  1  0
  4 22  1  0
  4 23  1  0
  4 24  1  0
  5 25  1  0
  5 26  1  0
  6 27  1  0
  6 28  1  0
  7 29  1  0
  9 30  1  0
 12 31  1  0
 13 32  1  0
 14 33  1  0
 15 34  1  0
M  END
>  <UniqueID>  (21) 
21

>  <SMILES>  (21) 
CCN(C)CCNc1csc2ccccc12

>  <Energy>  (21) 
62.18083943821017

>  <Genealogy>  (21) 
CCN(C)CCNc1csc2ccccc12 (3D coordinates assigned)
CCN(C)CCNc1csc2ccccc12 (optimized conformer: 62.18083943821017 kcal/mol)

>  <smiles>  (21) 
CCN(C)CCNc1csc2ccccc12

>  <score_type>  (21) 
oracle

>  <origin>  (21) 
adg

>  <m_score__min__energy>  (21) 
-5.7999999999999998

>  <m_primary>  (21) 
energy

$$$$
21:0
     RDKit          3D

 43 46  0  0  0  0  0  0  0  0999 V2000
   65.1170   33.8237   47.4184 H   0  0  0  0  0  0  0  0  0  0  0  0
   64.1030   33.4870   47.6800 C   0  0  0  0  0  0  0  0  0  0  0  0
   63.3440   34.2260   48.5450 N   0  0  0  0  0  0  0  0  0  0  0  0
   62.0820   33.8500   48.9000 C   0  0  0  0  0  0  0  0  0  0  0  0
   61.4869   34.4585   49.5968 H   0  0  0  0  0  0  0  0  0  0  0  0
   61.5670   32.6770   48.3580 C   0  0  0  0  0  0  0  0  0  0  0  0
   60.0720   31.9600   48.5970 S   0  0  0  0  0  0  0  0  0  0  0  0
   60.4370   30.6700   47.5500 C   0  0  0  0  0  0  0  0  0  0  0  0
   59.5290   29.5440   47.2280 C   0  0  0  0  0  0  0  0  0  0  0  0
   59.6940   28.2870   47.8320 C   0  0  0  0  0  0  0  0  0  0  0  0
   60.5077   28.1323   48.5559 H   0  0  0  0  0  0  0  0  0  0  0  0
   58.8330   27.2310   47.5210 C   0  0  0  0  0  0  0  0  0  0  0  0
   58.9735   26.2529   48.0044 H   0  0  0  0  0  0  0  0  0  0  0  0
   57.7900   27.4070   46.5970 C   0  0  0  0  0  0  0  0  0  0  0  0
   56.8880   26.2750   46.2740 C   0  0  0  0  0  0  0  0  0  0  0  0
   55.5300   26.4960   45.9960 C   0  0  0  0  0  0  0  0  0  0  0  0
   55.1273   27.5195   46.0128 H   0  0  0  0  0  0  0  0  0  0  0  0
   54.7100   25.4510   45.7060 N   0  0  0  0  0  0  0  0  0  0  0  0
   55.1590   24.1660   45.6700 C   0  0  0  0  0  0  0  0  0  0  0  0
   54.3550   23.1750   45.4140 N   0  0  0  0  0  0  0  0  0  0  0  0
   52.9350   23.2560   45.2200 C   0  0  0  0  0  0  0  0  0  0  0  0
   52.2480   22.2060   45.3380 O   0  0  0  0  0  0  0  0  0  0  0  0
   52.3020   24.4870   44.8330 N   0  0  0  0  0  0  0  0  0  0  0  0
   52.8880   25.3010   44.5430 H   0  0  0  0  0  0  0  0  0  0  0  0
   50.8500   24.6350   44.7700 C   0  0  0  0  0  0  0  0  0  0  0  0
   50.5425   25.4666   45.4211 H   0  0  0  0  0  0  0  0  0  0  0  0
   50.3824   23.6974   45.1051 H   0  0  0  0  0  0  0  0  0  0  0  0
   50.4030   24.9250   43.3410 C   0  0  0  0  0  0  0  0  0  0  0  0
   49.4803   25.5236   43.3598 H   0  0  0  0  0  0  0  0  0  0  0  0
   51.1920   25.4837   42.8163 H   0  0  0  0  0  0  0  0  0  0  0  0
   50.2143   23.9768   42.8163 H   0  0  0  0  0  0  0  0  0  0  0  0
   56.5020   23.8990   45.9580 C   0  0  0  0  0  0  0  0  0  0  0  0
   56.8750   22.8642   45.9488 H   0  0  0  0  0  0  0  0  0  0  0  0
   57.3650   24.9540   46.2570 C   0  0  0  0  0  0  0  0  0  0  0  0
   58.4227   24.7504   46.4802 H   0  0  0  0  0  0  0  0  0  0  0  0
   57.6200   28.6670   45.9950 C   0  0  0  0  0  0  0  0  0  0  0  0
   56.5960   28.8910   45.1310 F   0  0  0  0  0  0  0  0  0  0  0  0
   58.4820   29.7230   46.3080 C   0  0  0  0  0  0  0  0  0  0  0  0
   58.3390   30.7031   45.8294 H   0  0  0  0  0  0  0  0  0  0  0  0
   61.6860   30.7900   47.0270 N   0  0  0  0  0  0  0  0  0  0  0  0
   62.3070   31.9080   47.4820 C   0  0  0  0  0  0  0  0  0  0  0  0
   63.5960   32.3000   47.1230 C   0  0  0  0  0  0  0  0  0  0  0  0
   64.1977   31.6989   46.4254 H   0  0  0  0  0  0  0  0  0  0  0  0
  1  2  1  0
  2  3  2  0
  3  4  1  0
  4  5  1  0
  4  6  2  0
  6  7  1  0
  7  8  1  0
  8  9  1  0
  9 10  2  0
 10 11  1  0
 10 12  1  0
 12 13  1  0
 12 14  2  0
 14 15  1  0
 15 16  2  0
 16 17  1  0
 16 18  1  0
 18 19  1  0
 19 20  2  0
 20 21  1  0
 21 22  2  0
 21 23  1  0
 23 24  1  0
 23 25  1  0
 25 26  1  0
 25 27  1  0
 25 28  1  0
 28 29  1  0
 28 30  1  0
 28 31  1  0
 19 32  1  0
 32 33  1  0
 32 34  2  0
 34 35  1  0
 14 36  1  0
 36 37  1  0
 36 38  2  0
 38 39  1  0
  8 40  2  0
 40 41  1  0
 41 42  2  0
 42 43  1  0
 42  2  1  0
 41  6  1  0
 38  9  1  0
 34 15  1  0
M  CHG  1  18  -1
M  END
>  <UniqueID>  (22) 
22

>  <SMILES>  (22) 
CCNC(=O)/N=c1/ccc(-c2ccc(-c3nc4ccncc4s3)cc2F)c[n-]1

>  <Energy>  (22) 
91.91815170777824

>  <Genealogy>  (22) 
CCNC(=O)N=c1ccc(-c2ccc(-c3nc4ccncc4s3)cc2F)c[n-]1 (protonated)
CCNC(=O)/N=c1/ccc(-c2ccc(-c3nc4ccncc4s3)cc2F)c[n-]1 (cis-trans isomerization)
CCNC(=O)/N=c1/ccc(-c2ccc(-c3nc4ccncc4s3)cc2F)c[n-]1 (3D coordinates assigned)
CCNC(=O)/N=c1/ccc(-c2ccc(-c3nc4ccncc4s3)cc2F)c[n-]1 (optimized conformer: 91.91815170777824 kcal/mol)

>  <smiles>  (22) 
CCNC(=O)N=c1ccc(-c2ccc(-c3nc4ccncc4s3)cc2F)c[nH]1

>  <score_type>  (22) 
oracle

>  <origin>  (22) 
adg

>  <m_score__min__energy>  (22) 
-9.3900000000000006

>  <m_primary>  (22) 
energy

$$$$
22:0
     RDKit          3D

 61 64  0  0  0  0  0  0  0  0999 V2000
   67.2690   33.1830   50.4960 C   0  0  0  0  0  0  0  0  0  0  0  0
   66.1330   32.4590   50.0340 O   0  0  0  0  0  0  0  0  0  0  0  0
   65.4470   31.4850   50.7770 C   0  0  0  0  0  0  0  0  0  0  0  0
   66.0880   30.7300   51.7790 C   0  0  0  0  0  0  0  0  0  0  0  0
   65.3890   29.7490   52.4840 C   0  0  0  0  0  0  0  0  0  0  0  0
   64.0440   29.5080   52.1990 C   0  0  0  0  0  0  0  0  0  0  0  0
   63.3950   30.2510   51.2130 C   0  0  0  0  0  0  0  0  0  0  0  0
   64.0830   31.2450   50.5000 C   0  0  0  0  0  0  0  0  0  0  0  0
   63.3800   32.0100   49.5030 N   0  0  0  0  0  0  0  0  0  0  0  0
   62.6450   31.3400   48.4300 C   0  0  0  0  0  0  0  0  0  0  0  0
   62.7080   32.1630   47.1290 C   0  0  0  0  0  0  0  0  0  0  0  0
   62.4120   33.6030   47.3260 N   0  0  0  0  0  0  0  0  0  0  0  0
   61.0090   33.9750   47.5340 C   0  0  0  0  0  0  0  0  0  0  0  0
   60.7600   34.8610   48.3420 O   0  0  0  0  0  0  0  0  0  0  0  0
   59.8240   33.3860   46.7710 C   0  0  0  0  0  0  0  0  0  0  0  0
   58.5100   33.7840   47.4520 C   0  0  0  0  0  0  0  0  0  0  0  0
   57.3120   33.1280   46.7450 C   0  0  0  0  0  0  0  0  0  0  0  0
   57.4030   33.1470   45.2670 N   0  0  0  0  0  0  0  0  0  0  0  0
   57.3700   31.5520   44.5430 S   0  0  0  0  0  0  0  0  0  0  0  0
   55.9810   30.9930   44.6800 O   0  0  0  0  0  0  0  0  0  0  0  0
   57.6770   31.6550   43.0740 O   0  0  0  0  0  0  0  0  0  0  0  0
   58.5020   30.4210   45.2890 C   0  0  0  0  0  0  0  0  0  0  0  0
   58.5540   30.2890   46.6860 C   0  0  0  0  0  0  0  0  0  0  0  0
   59.4400   29.3830   47.2750 C   0  0  0  0  0  0  0  0  0  0  0  0
   60.2730   28.5970   46.4750 C   0  0  0  0  0  0  0  0  0  0  0  0
   60.2140   28.7110   45.0830 C   0  0  0  0  0  0  0  0  0  0  0  0
   59.3280   29.6160   44.4900 C   0  0  0  0  0  0  0  0  0  0  0  0
   58.4310   34.0410   44.6970 C   0  0  0  0  0  0  0  0  0  0  0  0
   59.8380   33.8330   45.2920 C   0  0  0  0  0  0  0  0  0  0  0  0
   63.2890   34.1760   48.3750 C   0  0  0  0  0  0  0  0  0  0  0  0
   63.1430   33.4390   49.7100 C   0  0  0  0  0  0  0  0  0  0  0  0
   67.2778   33.1886   51.5959 H   0  0  0  0  0  0  0  0  0  0  0  0
   68.1861   32.7024   50.1244 H   0  0  0  0  0  0  0  0  0  0  0  0
   67.2206   34.2172   50.1244 H   0  0  0  0  0  0  0  0  0  0  0  0
   67.1479   30.9152   52.0075 H   0  0  0  0  0  0  0  0  0  0  0  0
   65.8985   29.1653   53.2649 H   0  0  0  0  0  0  0  0  0  0  0  0
   63.4955   28.7315   52.7524 H   0  0  0  0  0  0  0  0  0  0  0  0
   62.3351   30.0563   50.9924 H   0  0  0  0  0  0  0  0  0  0  0  0
   63.0890   30.3494   48.2523 H   0  0  0  0  0  0  0  0  0  0  0  0
   61.5925   31.2382   48.7329 H   0  0  0  0  0  0  0  0  0  0  0  0
   63.7194   32.0699   46.7065 H   0  0  0  0  0  0  0  0  0  0  0  0
   61.9363   31.7629   46.4549 H   0  0  0  0  0  0  0  0  0  0  0  0
   62.6870   34.0750   46.4310 H   0  0  0  0  0  0  0  0  0  0  0  0
   59.9091   32.2894   46.7867 H   0  0  0  0  0  0  0  0  0  0  0  0
   58.5335   33.4565   48.5019 H   0  0  0  0  0  0  0  0  0  0  0  0
   58.3991   34.8770   47.3961 H   0  0  0  0  0  0  0  0  0  0  0  0
   57.2466   32.0805   47.0745 H   0  0  0  0  0  0  0  0  0  0  0  0
   56.4212   33.7130   47.0174 H   0  0  0  0  0  0  0  0  0  0  0  0
   57.8948   30.9011   47.3191 H   0  0  0  0  0  0  0  0  0  0  0  0
   59.4816   29.2886   48.3702 H   0  0  0  0  0  0  0  0  0  0  0  0
   60.9747   27.8890   46.9401 H   0  0  0  0  0  0  0  0  0  0  0  0
   60.8656   28.0877   44.4530 H   0  0  0  0  0  0  0  0  0  0  0  0
   59.2785   29.6970   43.3941 H   0  0  0  0  0  0  0  0  0  0  0  0
   58.4833   33.8620   43.6129 H   0  0  0  0  0  0  0  0  0  0  0  0
   58.1299   35.0706   44.9406 H   0  0  0  0  0  0  0  0  0  0  0  0
   60.3553   33.0630   44.7008 H   0  0  0  0  0  0  0  0  0  0  0  0
   60.3516   34.8050   45.2535 H   0  0  0  0  0  0  0  0  0  0  0  0
   64.3349   34.1039   48.0420 H   0  0  0  0  0  0  0  0  0  0  0  0
   62.9926   35.2238   48.5309 H   0  0  0  0  0  0  0  0  0  0  0  0
   63.8766   33.8326   50.4290 H   0  0  0  0  0  0  0  0  0  0  0  0
   62.1275   33.5903   50.1048 H   0  0  0  0  0  0  0  0  0  0  0  0
  1  2  1  0
  2  3  1  0
  3  4  2  0
  4  5  1  0
  5  6  2  0
  6  7  1  0
  7  8  2  0
  8  9  1  0
  9 10  1  0
 10 11  1  0
 11 12  1  0
 12 13  1  0
 13 14  2  0
 13 15  1  0
 15 16  1  0
 16 17  1  0
 17 18  1  0
 18 19  1  0
 19 20  2  0
 19 21  2  0
 19 22  1  0
 22 23  2  0
 23 24  1  0
 24 25  2  0
 25 26  1  0
 26 27  2  0
 18 28  1  0
 28 29  1  0
 12 30  1  0
 30 31  1  0
  8  3  1  0
 31  9  1  0
 29 15  1  0
 27 22  1  0
  1 32  1  0
  1 33  1  0
  1 34  1  0
  4 35  1  0
  5 36  1  0
  6 37  1  0
  7 38  1  0
 10 39  1  0
 10 40  1  0
 11 41  1  0
 11 42  1  0
 12 43  1  0
 15 44  1  0
 16 45  1  0
 16 46  1  0
 17 47  1  0
 17 48  1  0
 23 49  1  0
 24 50  1  0
 25 51  1  0
 26 52  1  0
 27 53  1  0
 28 54  1  0
 28 55  1  0
 29 56  1  0
 29 57  1  0
 30 58  1  0
 30 59  1  0
 31 60  1  0
 31 61  1  0
M  CHG  1  12   1
M  END
>  <UniqueID>  (23) 
23

>  <SMILES>  (23) 
COc1ccccc1N1CC[NH+](C(=O)C2CCN(S(=O)(=O)c3ccccc3)CC2)CC1

>  <Energy>  (23) 
81.35083821483873

>  <Genealogy>  (23) 
COc1ccccc1N1CC[NH+](C(=O)C2CCN(S(=O)(=O)c3ccccc3)CC2)CC1 (protonated)
COc1ccccc1N1CC[NH+](C(=O)C2CCN(S(=O)(=O)c3ccccc3)CC2)CC1 (3D coordinates assigned)
COc1ccccc1N1CC[NH+](C(=O)C2CCN(S(=O)(=O)c3ccccc3)CC2)CC1 (nonaromatic ring conformer: 81.35083821483873 kcal/mol)

>  <smiles>  (23) 
COc1ccccc1N1CCN(C(=O)C2CCN(S(=O)(=O)c3ccccc3)CC2)CC1

>  <score_type>  (23) 
oracle

>  <origin>  (23) 
adg

>  <m_score__min__energy>  (23) 
-8.0600000000000005

>  <m_primary>  (23) 
energy

$$$$
23:0
     RDKit          3D

 46 48  0  0  0  0  0  0  0  0999 V2000
   57.0840   31.6930   44.1630 C   0  0  0  0  0  0  0  0  0  0  0  0
   57.2060   30.7660   45.2360 O   0  0  0  0  0  0  0  0  0  0  0  0
   57.7490   29.4750   45.1190 C   0  0  0  0  0  0  0  0  0  0  0  0
   57.6030   28.7130   43.9430 C   0  0  0  0  0  0  0  0  0  0  0  0
   58.1700   27.4390   43.8500 C   0  0  0  0  0  0  0  0  0  0  0  0
   58.8880   26.9130   44.9230 C   0  0  0  0  0  0  0  0  0  0  0  0
   59.0400   27.6550   46.0960 C   0  0  0  0  0  0  0  0  0  0  0  0
   58.4610   28.9310   46.2100 C   0  0  0  0  0  0  0  0  0  0  0  0
   58.6660   29.7300   47.4710 C   0  0  0  0  0  0  0  0  0  0  0  0
   59.1800   31.0620   47.1310 N   0  0  0  0  0  0  0  0  0  0  0  0
   58.7260   32.0970   48.0740 C   0  0  0  0  0  0  0  0  0  0  0  0
   58.8610   33.5360   47.5140 C   0  0  2  0  0  0  0  0  0  0  0  0
   57.7980   33.8450   46.4490 C   0  0  0  0  0  0  0  0  0  0  0  0
   58.5270   34.5940   45.3410 C   0  0  0  0  0  0  0  0  0  0  0  0
   59.9870   34.1950   45.4730 C   0  0  0  0  0  0  0  0  0  0  0  0
   60.1450   33.7120   46.8360 N   0  0  0  0  0  0  0  0  0  0  0  0
   61.4370   33.5910   47.4730 C   0  0  0  0  0  0  0  0  0  0  0  0
   61.6090   33.9610   48.8170 C   0  0  0  0  0  0  0  0  0  0  0  0
   62.8570   33.8370   49.4280 C   0  0  0  0  0  0  0  0  0  0  0  0
   63.9320   33.3390   48.6930 C   0  0  0  0  0  0  0  0  0  0  0  0
   63.7610   32.9770   47.3940 N   0  0  0  0  0  0  0  0  0  0  0  0
   62.5540   33.0900   46.7760 C   0  0  0  0  0  0  0  0  0  0  0  0
   56.9505   32.7070   44.5679 H   0  0  0  0  0  0  0  0  0  0  0  0
   57.9940   31.6614   43.5459 H   0  0  0  0  0  0  0  0  0  0  0  0
   56.2131   31.4270   43.5459 H   0  0  0  0  0  0  0  0  0  0  0  0
   57.0390   29.1235   43.0924 H   0  0  0  0  0  0  0  0  0  0  0  0
   58.0495   26.8503   42.9286 H   0  0  0  0  0  0  0  0  0  0  0  0
   59.3357   25.9113   44.8454 H   0  0  0  0  0  0  0  0  0  0  0  0
   59.6160   27.2388   46.9356 H   0  0  0  0  0  0  0  0  0  0  0  0
   57.7070   29.8316   48.0001 H   0  0  0  0  0  0  0  0  0  0  0  0
   59.3900   29.2129   48.1178 H   0  0  0  0  0  0  0  0  0  0  0  0
   58.8830   31.3080   46.1580 H   0  0  0  0  0  0  0  0  0  0  0  0
   57.6681   31.9126   48.3125 H   0  0  0  0  0  0  0  0  0  0  0  0
   59.3683   32.0316   48.9646 H   0  0  0  0  0  0  0  0  0  0  0  0
   58.7529   34.1999   48.3843 H   0  0  0  0  0  0  0  0  0  0  0  0
   57.3635   32.9125   46.0595 H   0  0  0  0  0  0  0  0  0  0  0  0
   56.9704   34.4395   46.8633 H   0  0  0  0  0  0  0  0  0  0  0  0
   58.1356   34.2995   44.3561 H   0  0  0  0  0  0  0  0  0  0  0  0
   58.3922   35.6823   45.4273 H   0  0  0  0  0  0  0  0  0  0  0  0
   60.2331   33.3997   44.7540 H   0  0  0  0  0  0  0  0  0  0  0  0
   60.6581   35.0409   45.2632 H   0  0  0  0  0  0  0  0  0  0  0  0
   60.7552   34.3506   49.3908 H   0  0  0  0  0  0  0  0  0  0  0  0
   62.9916   34.1294   50.4798 H   0  0  0  0  0  0  0  0  0  0  0  0
   64.9204   33.2388   49.1652 H   0  0  0  0  0  0  0  0  0  0  0  0
   64.5750   32.6040   46.8570 H   0  0  0  0  0  0  0  0  0  0  0  0
   62.4496   32.7877   45.7235 H   0  0  0  0  0  0  0  0  0  0  0  0
  1  2  1  0
  2  3  1  0
  3  4  2  0
  4  5  1  0
  5  6  2  0
  6  7  1  0
  7  8  2  0
  8  9  1  0
  9 10  1  0
 10 11  1  0
 11 12  1  0
 12 13  1  0
 13 14  1  0
 14 15  1  0
 15 16  1  0
 16 17  1  0
 17 18  2  0
 18 19  1  0
 19 20  2  0
 20 21  1  0
 21 22  2  0
  8  3  1  0
 16 12  1  0
 22 17  1  0
  1 23  1  0
  1 24  1  0
  1 25  1  0
  4 26  1  0
  5 27  1  0
  6 28  1  0
  7 29  1  0
  9 30  1  0
  9 31  1  0
 10 32  1  0
 11 33  1  0
 11 34  1  0
 12 35  1  1
 13 36  1  0
 13 37  1  0
 14 38  1  0
 14 39  1  0
 15 40  1  0
 15 41  1  0
 18 42  1  0
 19 43  1  0
 20 44  1  0
 21 45  1  0
 22 46  1  0
M  CHG  1  21   1
M  END
>  <UniqueID>  (24) 
24

>  <SMILES>  (24) 
COc1ccccc1CNC[C@@H]1CCCN1c1ccc[nH+]c1

>  <Energy>  (24) 
48.71991822342069

>  <Genealogy>  (24) 
COc1ccccc1CNCC1CCCN1c1ccc[nH+]c1 (protonated)
COc1ccccc1CNC[C@@H]1CCCN1c1ccc[nH+]c1 (chirality)
COc1ccccc1CNC[C@@H]1CCCN1c1ccc[nH+]c1 (3D coordinates assigned)
COc1ccccc1CNC[C@@H]1CCCN1c1ccc[nH+]c1 (nonaromatic ring conformer: 48.71991822342069 kcal/mol)

>  <smiles>  (24) 
COc1ccccc1CNCC1CCCN1c1cccnc1

>  <score_type>  (24) 
oracle

>  <origin>  (24) 
adg

>  <m_score__min__energy>  (24) 
-6.5099999999999998

>  <m_primary>  (24) 
energy

$$$$
24:0
     RDKit          3D

 49 51  0  0  0  0  0  0  0  0999 V2000
   62.6550   34.2150   49.7220 C   0  0  0  0  0  0  0  0  0  0  0  0
   61.3050   34.2050   49.0140 C   0  0  0  0  0  0  0  0  0  0  0  0
   61.3740   33.4390   47.7430 N   0  0  0  0  0  0  0  0  0  0  0  0
   62.7680   33.0040   47.4870 C   0  0  0  0  0  0  0  0  0  0  0  0
   63.3960   33.8550   46.3870 C   0  0  0  0  0  0  0  0  0  0  0  0
   60.8580   34.2630   46.6240 C   0  0  0  0  0  0  0  0  0  0  0  0
   59.5350   34.9740   46.9690 C   0  0  0  0  0  0  0  0  0  0  0  0
   58.3480   34.2160   46.5540 N   0  0  0  0  0  0  0  0  0  0  0  0
   58.3490   32.8020   46.2810 C   0  0  0  0  0  0  0  0  0  0  0  0
   58.5920   31.8110   47.2690 C   0  0  0  0  0  0  0  0  0  0  0  0
   58.6410   32.1360   48.6380 C   0  0  0  0  0  0  0  0  0  0  0  0
   58.9160   31.1600   49.5930 C   0  0  0  0  0  0  0  0  0  0  0  0
   59.1230   29.8390   49.2080 C   0  0  0  0  0  0  0  0  0  0  0  0
   59.0210   29.4720   47.8670 C   0  0  0  0  0  0  0  0  0  0  0  0
   58.7310   30.4340   46.8710 C   0  0  0  0  0  0  0  0  0  0  0  0
   58.5640   30.0690   45.5450 N   0  0  0  0  0  0  0  0  0  0  0  0
   58.7040   28.6760   45.0910 C   0  0  0  0  0  0  0  0  0  0  0  0
   58.2410   31.0390   44.6440 C   0  0  0  0  0  0  0  0  0  0  0  0
   58.0300   30.8750   43.3580 O   0  0  0  0  0  0  0  0  0  0  0  0
   57.7740   32.0630   42.8460 C   0  0  0  0  0  0  0  0  0  0  0  0
   57.5160   32.3050   41.3970 C   0  0  0  0  0  0  0  0  0  0  0  0
   57.8290   33.0450   43.8270 C   0  0  0  0  0  0  0  0  0  0  0  0
   58.1240   32.3570   44.9840 C   0  0  0  0  0  0  0  0  0  0  0  0
   62.4981   34.2138   50.8107 H   0  0  0  0  0  0  0  0  0  0  0  0
   63.2272   33.3211   49.4331 H   0  0  0  0  0  0  0  0  0  0  0  0
   63.2139   35.1173   49.4331 H   0  0  0  0  0  0  0  0  0  0  0  0
   60.5569   33.7406   49.6733 H   0  0  0  0  0  0  0  0  0  0  0  0
   61.0242   35.2429   48.7819 H   0  0  0  0  0  0  0  0  0  0  0  0
   63.3569   33.1120   48.4098 H   0  0  0  0  0  0  0  0  0  0  0  0
   62.7607   31.9523   47.1649 H   0  0  0  0  0  0  0  0  0  0  0  0
   63.9908   34.6610   46.8415 H   0  0  0  0  0  0  0  0  0  0  0  0
   64.0476   33.2254   45.7633 H   0  0  0  0  0  0  0  0  0  0  0  0
   62.6023   34.2920   45.7633 H   0  0  0  0  0  0  0  0  0  0  0  0
   61.6109   35.0241   46.3712 H   0  0  0  0  0  0  0  0  0  0  0  0
   60.6614   33.5881   45.7779 H   0  0  0  0  0  0  0  0  0  0  0  0
   59.4917   35.1236   48.0579 H   0  0  0  0  0  0  0  0  0  0  0  0
   59.5229   35.9278   46.4212 H   0  0  0  0  0  0  0  0  0  0  0  0
   57.5430   34.7730   46.1910 H   0  0  0  0  0  0  0  0  0  0  0  0
   58.4600   33.1730   48.9572 H   0  0  0  0  0  0  0  0  0  0  0  0
   58.9698   31.4349   50.6567 H   0  0  0  0  0  0  0  0  0  0  0  0
   59.3684   29.0803   49.9657 H   0  0  0  0  0  0  0  0  0  0  0  0
   59.1679   28.4205   47.5794 H   0  0  0  0  0  0  0  0  0  0  0  0
   58.7709   28.0107   45.9644 H   0  0  0  0  0  0  0  0  0  0  0  0
   57.8292   28.3983   44.4846 H   0  0  0  0  0  0  0  0  0  0  0  0
   59.6165   28.5779   44.4846 H   0  0  0  0  0  0  0  0  0  0  0  0
   56.7177   33.0538   41.2868 H   0  0  0  0  0  0  0  0  0  0  0  0
   58.4344   32.6749   40.9178 H   0  0  0  0  0  0  0  0  0  0  0  0
   57.2055   31.3648   40.9178 H   0  0  0  0  0  0  0  0  0  0  0  0
   57.6725   34.1272   43.7073 H   0  0  0  0  0  0  0  0  0  0  0  0
  1  2  1  0
  2  3  1  0
  3  4  1  0
  4  5  1  0
  3  6  1  0
  6  7  1  0
  7  8  1  0
  8  9  1  0
  9 10  2  0
 10 11  1  0
 11 12  2  0
 12 13  1  0
 13 14  2  0
 14 15  1  0
 15 16  2  0
 16 17  1  0
 16 18  1  0
 18 19  1  0
 19 20  1  0
 20 21  1  0
 20 22  2  0
 22 23  1  0
 23  9  1  0
 15 10  1  0
 23 18  2  0
  1 24  1  0
  1 25  1  0
  1 26  1  0
  2 27  1  0
  2 28  1  0
  4 29  1  0
  4 30  1  0
  5 31  1  0
  5 32  1  0
  5 33  1  0
  6 34  1  0
  6 35  1  0
  7 36  1  0
  7 37  1  0
  8 38  1  0
 11 39  1  0
 12 40  1  0
 13 41  1  0
 14 42  1  0
 17 43  1  0
 17 44  1  0
 17 45  1  0
 21 46  1  0
 21 47  1  0
 21 48  1  0
 22 49  1  0
M  CHG  1  16   1
M  END
>  <UniqueID>  (25) 
25

>  <SMILES>  (25) 
CCN(CC)CCNc1c2ccccc2[n+](C)c2oc(C)cc12

>  <Energy>  (25) 
91.06604242981443

>  <Genealogy>  (25) 
CCN(CC)CCNc1c2ccccc2[n+](C)c2oc(C)cc12 (3D coordinates assigned)
CCN(CC)CCNc1c2ccccc2[n+](C)c2oc(C)cc12 (optimized conformer: 91.06604242981443 kcal/mol)

>  <smiles>  (25) 
CCN(CC)CCNc1c2ccccc2[n+](C)c2oc(C)cc12

>  <score_type>  (25) 
oracle

>  <origin>  (25) 
adg

>  <m_score__min__energy>  (25) 
-5.1200000000000001

>  <m_primary>  (25) 
energy

$$$$
25:0
     RDKit          3D

 61 64  0  0  0  0  0  0  0  0999 V2000
   58.4000   27.1430   46.3280 C   0  0  0  0  0  0  0  0  0  0  0  0
   58.4440   28.5240   45.8530 N   0  0  0  0  0  0  0  0  0  0  0  0
   57.6210   29.0750   44.9390 C   0  0  0  0  0  0  0  0  0  0  0  0
   57.9380   30.4080   44.7640 C   0  0  0  0  0  0  0  0  0  0  0  0
   58.9960   30.6790   45.6110 C   0  0  0  0  0  0  0  0  0  0  0  0
   59.2800   29.5000   46.2720 C   0  0  0  0  0  0  0  0  0  0  0  0
   60.3770   29.3190   47.2840 C   0  0  0  0  0  0  0  0  0  0  0  0
   59.8400   28.7840   48.5570 N   0  0  0  0  0  0  0  0  0  0  0  0
   60.8530   28.7230   49.6310 C   0  0  0  0  0  0  0  0  0  0  0  0
   61.2190   30.1190   50.1840 C   0  0  0  0  0  0  0  0  0  0  0  0
   60.0980   31.0970   50.1230 N   0  0  0  0  0  0  0  0  0  0  0  0
   60.2580   32.1050   51.2010 C   0  0  0  0  0  0  0  0  0  0  0  0
   59.7670   33.5030   50.7990 C   0  0  0  0  0  0  0  0  0  0  0  0
   59.1270   33.4150   49.5390 O   0  0  0  0  0  0  0  0  0  0  0  0
   59.8220   34.1770   48.5620 C   0  0  0  0  0  0  0  0  0  0  0  0
   59.0430   34.1770   47.2660 C   0  0  0  0  0  0  0  0  0  0  0  0
   59.5700   34.8160   46.1300 C   0  0  0  0  0  0  0  0  0  0  0  0
   58.8840   34.7760   44.9120 C   0  0  0  0  0  0  0  0  0  0  0  0
   57.6730   34.0860   44.8130 C   0  0  0  0  0  0  0  0  0  0  0  0
   57.1480   33.4330   45.9300 C   0  0  0  0  0  0  0  0  0  0  0  0
   57.8300   33.4700   47.1500 C   0  0  0  0  0  0  0  0  0  0  0  0
   61.2000   33.5980   48.3070 C   0  0  0  0  0  0  0  0  0  0  0  0
   62.3290   34.1790   48.9100 C   0  0  0  0  0  0  0  0  0  0  0  0
   63.6060   33.6650   48.6590 C   0  0  0  0  0  0  0  0  0  0  0  0
   63.7670   32.5760   47.7980 C   0  0  0  0  0  0  0  0  0  0  0  0
   62.6520   32.0000   47.1830 C   0  0  0  0  0  0  0  0  0  0  0  0
   61.3740   32.5090   47.4310 C   0  0  0  0  0  0  0  0  0  0  0  0
   58.7950   30.4060   50.2040 C   0  0  0  0  0  0  0  0  0  0  0  0
   58.5960   29.4710   48.9920 C   0  0  0  0  0  0  0  0  0  0  0  0
   58.3997   27.1334   47.4280 H   0  0  0  0  0  0  0  0  0  0  0  0
   57.4859   26.6565   45.9568 H   0  0  0  0  0  0  0  0  0  0  0  0
   59.2813   26.5993   45.9568 H   0  0  0  0  0  0  0  0  0  0  0  0
   56.8164   28.5424   44.4109 H   0  0  0  0  0  0  0  0  0  0  0  0
   57.4442   31.1165   44.0827 H   0  0  0  0  0  0  0  0  0  0  0  0
   59.5104   31.6435   45.7344 H   0  0  0  0  0  0  0  0  0  0  0  0
   61.1231   28.6163   46.8844 H   0  0  0  0  0  0  0  0  0  0  0  0
   60.8378   30.2982   47.4812 H   0  0  0  0  0  0  0  0  0  0  0  0
   60.4567   28.1108   50.4545 H   0  0  0  0  0  0  0  0  0  0  0  0
   61.7664   28.2849   49.2024 H   0  0  0  0  0  0  0  0  0  0  0  0
   61.5263   30.0074   51.2343 H   0  0  0  0  0  0  0  0  0  0  0  0
   62.0272   30.5148   49.5514 H   0  0  0  0  0  0  0  0  0  0  0  0
   60.1500   31.5970   49.2040 H   0  0  0  0  0  0  0  0  0  0  0  0
   59.6848   31.7721   52.0789 H   0  0  0  0  0  0  0  0  0  0  0  0
   61.3337   32.1856   51.4164 H   0  0  0  0  0  0  0  0  0  0  0  0
   59.0552   33.8755   51.5504 H   0  0  0  0  0  0  0  0  0  0  0  0
   60.6189   34.1962   50.7388 H   0  0  0  0  0  0  0  0  0  0  0  0
   59.9290   35.2046   48.9397 H   0  0  0  0  0  0  0  0  0  0  0  0
   60.5285   35.3511   46.1997 H   0  0  0  0  0  0  0  0  0  0  0  0
   59.2982   35.2882   44.0310 H   0  0  0  0  0  0  0  0  0  0  0  0
   57.1332   34.0572   43.8550 H   0  0  0  0  0  0  0  0  0  0  0  0
   56.1957   32.8882   45.8500 H   0  0  0  0  0  0  0  0  0  0  0  0
   57.4173   32.9444   48.0237 H   0  0  0  0  0  0  0  0  0  0  0  0
   62.2081   35.0414   49.5821 H   0  0  0  0  0  0  0  0  0  0  0  0
   64.4848   34.1189   49.1403 H   0  0  0  0  0  0  0  0  0  0  0  0
   64.7717   32.1721   47.6043 H   0  0  0  0  0  0  0  0  0  0  0  0
   62.7803   31.1450   46.5029 H   0  0  0  0  0  0  0  0  0  0  0  0
   60.4999   32.0568   46.9396 H   0  0  0  0  0  0  0  0  0  0  0  0
   58.7588   29.8111   51.1286 H   0  0  0  0  0  0  0  0  0  0  0  0
   57.9944   31.1604   50.2034 H   0  0  0  0  0  0  0  0  0  0  0  0
   57.8530   28.7061   49.2618 H   0  0  0  0  0  0  0  0  0  0  0  0
   58.2652   30.0995   48.1520 H   0  0  0  0  0  0  0  0  0  0  0  0
  1  2  1  0
  2  3  1  0
  3  4  2  0
  4  5  1  0
  5  6  2  0
  6  7  1  0
  7  8  1  0
  8  9  1  0
  9 10  1  0
 10 11  1  0
 11 12  1  0
 12 13  1  0
 13 14  1  0
 14 15  1  0
 15 16  1  0
 16 17  2  0
 17 18  1  0
 18 19  2  0
 19 20  1  0
 20 21  2  0
 15 22  1  0
 22 23  2  0
 23 24  1  0
 24 25  2  0
 25 26  1  0
 26 27  2  0
 11 28  1  0
 28 29  1  0
  6  2  1  0
 29  8  1  0
 21 16  1  0
 27 22  1  0
  1 30  1  0
  1 31  1  0
  1 32  1  0
  3 33  1  0
  4 34  1  0
  5 35  1  0
  7 36  1  0
  7 37  1  0
  9 38  1  0
  9 39  1  0
 10 40  1  0
 10 41  1  0
 11 42  1  0
 12 43  1  0
 12 44  1  0
 13 45  1  0
 13 46  1  0
 15 47  1  0
 17 48  1  0
 18 49  1  0
 19 50  1  0
 20 51  1  0
 21 52  1  0
 23 53  1  0
 24 54  1  0
 25 55  1  0
 26 56  1  0
 27 57  1  0
 28 58  1  0
 28 59  1  0
 29 60  1  0
 29 61  1  0
M  CHG  1  11   1
M  END
>  <UniqueID>  (26) 
26

>  <SMILES>  (26) 
Cn1cccc1CN1CC[NH+](CCOC(c2ccccc2)c2ccccc2)CC1

>  <Energy>  (26) 
104.02586975257603

>  <Genealogy>  (26) 
Cn1cccc1CN1CC[NH+](CCOC(c2ccccc2)c2ccccc2)CC1 (protonated)
Cn1cccc1CN1CC[NH+](CCOC(c2ccccc2)c2ccccc2)CC1 (3D coordinates assigned)
Cn1cccc1CN1CC[NH+](CCOC(c2ccccc2)c2ccccc2)CC1 (nonaromatic ring conformer: 104.02586975257603 kcal/mol)

>  <smiles>  (26) 
Cn1cccc1CN1CCN(CCOC(c2ccccc2)c2ccccc2)CC1

>  <score_type>  (26) 
oracle

>  <origin>  (26) 
adg

>  <m_score__min__energy>  (26) 
-6.5899999999999999

>  <m_primary>  (26) 
energy

$$$$
26:0
     RDKit          3D

 38 40  0  0  0  0  0  0  0  0999 V2000
   59.6610   34.2130   49.1980 C   0  0  0  0  0  0  0  0  0  0  0  0
   59.3520   34.0800   47.7800 N   0  0  0  0  0  0  0  0  0  0  0  0
   59.5080   35.0340   46.8410 C   0  0  0  0  0  0  0  0  0  0  0  0
   59.0410   34.5740   45.6250 C   0  0  0  0  0  0  0  0  0  0  0  0
   58.5710   33.2940   45.8550 C   0  0  0  0  0  0  0  0  0  0  0  0
   57.9940   32.3890   44.8550 C   0  0  0  0  0  0  0  0  0  0  0  0
   57.3890   31.2250   45.1700 N   0  0  0  0  0  0  0  0  0  0  0  0
   57.0620   30.7200   43.9660 C   0  0  0  0  0  0  0  0  0  0  0  0
   56.4330   29.3710   43.7620 C   0  0  0  0  0  0  0  0  0  0  0  0
   57.3920   28.3940   43.2060 N   0  0  0  0  0  0  0  0  0  0  0  0
   58.0030   27.5210   44.2280 C   0  0  0  0  0  0  0  0  0  0  0  0
   58.7510   28.2960   45.2880 C   0  0  0  0  0  0  0  0  0  0  0  0
   58.2340   28.3960   46.5930 C   0  0  0  0  0  0  0  0  0  0  0  0
   58.9090   29.1440   47.5630 C   0  0  0  0  0  0  0  0  0  0  0  0
   60.1050   29.7900   47.2430 C   0  0  0  0  0  0  0  0  0  0  0  0
   60.6350   29.6800   45.9550 C   0  0  0  0  0  0  0  0  0  0  0  0
   59.9670   28.9300   44.9820 C   0  0  0  0  0  0  0  0  0  0  0  0
   57.4660   31.5870   42.9750 C   0  0  0  0  0  0  0  0  0  0  0  0
   58.0370   32.6100   43.5600 O   0  0  0  0  0  0  0  0  0  0  0  0
   58.7680   33.0190   47.1930 C   0  0  0  0  0  0  0  0  0  0  0  0
   58.8119   33.8475   49.7942 H   0  0  0  0  0  0  0  0  0  0  0  0
   60.5573   33.6210   49.4351 H   0  0  0  0  0  0  0  0  0  0  0  0
   59.8471   35.2709   49.4351 H   0  0  0  0  0  0  0  0  0  0  0  0
   59.9420   36.0294   47.0165 H   0  0  0  0  0  0  0  0  0  0  0  0
   59.0427   35.1160   44.6678 H   0  0  0  0  0  0  0  0  0  0  0  0
   56.0676   28.9989   44.7305 H   0  0  0  0  0  0  0  0  0  0  0  0
   55.6076   29.4849   43.0438 H   0  0  0  0  0  0  0  0  0  0  0  0
   58.1300   28.8720   42.6400 H   0  0  0  0  0  0  0  0  0  0  0  0
   56.8640   27.7730   42.5480 H   0  0  0  0  0  0  0  0  0  0  0  0
   57.2067   26.9386   44.7145 H   0  0  0  0  0  0  0  0  0  0  0  0
   58.7295   26.8715   43.7177 H   0  0  0  0  0  0  0  0  0  0  0  0
   57.2953   27.8839   46.8512 H   0  0  0  0  0  0  0  0  0  0  0  0
   58.4971   29.2236   48.5798 H   0  0  0  0  0  0  0  0  0  0  0  0
   60.6297   30.3853   48.0048 H   0  0  0  0  0  0  0  0  0  0  0  0
   61.5801   30.1846   45.7057 H   0  0  0  0  0  0  0  0  0  0  0  0
   60.3952   28.8360   43.9731 H   0  0  0  0  0  0  0  0  0  0  0  0
   57.3335   31.4461   41.8921 H   0  0  0  0  0  0  0  0  0  0  0  0
   58.4918   32.0821   47.6989 H   0  0  0  0  0  0  0  0  0  0  0  0
  1  2  1  0
  2  3  1  0
  3  4  2  0
  4  5  1  0
  5  6  1  0
  6  7  2  0
  7  8  1  0
  8  9  1  0
  9 10  1  0
 10 11  1  0
 11 12  1  0
 12 13  2  0
 13 14  1  0
 14 15  2  0
 15 16  1  0
 16 17  2  0
  8 18  2  0
 18 19  1  0
  5 20  2  0
 20  2  1  0
 19  6  1  0
 17 12  1  0
  1 21  1  0
  1 22  1  0
  1 23  1  0
  3 24  1  0
  4 25  1  0
  9 26  1  0
  9 27  1  0
 10 28  1  0
 10 29  1  0
 11 30  1  0
 11 31  1  0
 13 32  1  0
 14 33  1  0
 15 34  1  0
 16 35  1  0
 17 36  1  0
 18 37  1  0
 20 38  1  0
M  CHG  1  10   1
M  END
>  <UniqueID>  (27) 
27

>  <SMILES>  (27) 
Cn1ccc(-c2nc(C[NH2+]Cc3ccccc3)co2)c1

>  <Energy>  (27) 
90.78548746236879

>  <Genealogy>  (27) 
Cn1ccc(-c2nc(C[NH2+]Cc3ccccc3)co2)c1 (protonated)
Cn1ccc(-c2nc(C[NH2+]Cc3ccccc3)co2)c1 (3D coordinates assigned)
Cn1ccc(-c2nc(C[NH2+]Cc3ccccc3)co2)c1 (optimized conformer: 90.78548746236879 kcal/mol)

>  <smiles>  (27) 
Cn1ccc(-c2nc(CNCc3ccccc3)co2)c1

>  <score_type>  (27) 
oracle

>  <origin>  (27) 
adg

>  <m_score__min__energy>  (27) 
-5.54

>  <m_primary>  (27) 
energy

$$$$
27:0
     RDKit          3D

 53 56  0  0  0  0  0  0  0  0999 V2000
   55.4470   26.9860   44.9670 H   0  0  0  0  0  0  0  0  0  0  0  0
   55.9680   27.6130   45.6200 N   0  0  0  0  0  0  0  0  0  0  0  0
   56.4740   28.7390   45.2240 C   0  0  0  0  0  0  0  0  0  0  0  0
   55.9140   29.3810   44.1690 N   0  0  0  0  0  0  0  0  0  0  0  0
   56.3840   30.5640   43.7070 C   0  0  0  0  0  0  0  0  0  0  0  0
   55.8975   31.0398   42.8427 H   0  0  0  0  0  0  0  0  0  0  0  0
   57.4820   31.1920   44.3140 C   0  0  0  0  0  0  0  0  0  0  0  0
   57.8990   32.5390   43.7460 C   0  0  0  0  0  0  0  0  0  0  0  0
   58.9974   32.5940   43.7251 H   0  0  0  0  0  0  0  0  0  0  0  0
   57.4842   32.6303   42.7313 H   0  0  0  0  0  0  0  0  0  0  0  0
   57.3790   33.6500   44.5610 N   0  0  0  0  0  0  0  0  0  0  0  0
   56.6030   34.1130   44.0340 H   0  0  0  0  0  0  0  0  0  0  0  0
   58.4010   34.6580   44.8990 C   0  0  0  0  0  0  0  0  0  0  0  0
   59.0864   34.7637   44.0451 H   0  0  0  0  0  0  0  0  0  0  0  0
   57.8771   35.5995   45.1206 H   0  0  0  0  0  0  0  0  0  0  0  0
   59.2070   34.2870   46.1220 C   0  0  0  0  0  0  0  0  0  0  0  0
   58.5720   34.0910   47.3590 C   0  0  0  0  0  0  0  0  0  0  0  0
   57.4793   34.1920   47.4355 H   0  0  0  0  0  0  0  0  0  0  0  0
   59.3220   33.7680   48.4940 C   0  0  0  0  0  0  0  0  0  0  0  0
   58.8178   33.6285   49.4616 H   0  0  0  0  0  0  0  0  0  0  0  0
   60.7140   33.6210   48.4050 C   0  0  0  0  0  0  0  0  0  0  0  0
   61.5220   33.3180   49.6320 C   0  0  0  0  0  0  0  0  0  0  0  0
   60.9252   33.5418   50.5285 H   0  0  0  0  0  0  0  0  0  0  0  0
   61.8013   32.2540   49.6336 H   0  0  0  0  0  0  0  0  0  0  0  0
   62.4320   33.9360   49.6336 H   0  0  0  0  0  0  0  0  0  0  0  0
   61.3510   33.8230   47.1700 C   0  0  0  0  0  0  0  0  0  0  0  0
   62.4446   33.7305   47.0959 H   0  0  0  0  0  0  0  0  0  0  0  0
   60.6010   34.1410   46.0350 C   0  0  0  0  0  0  0  0  0  0  0  0
   61.1055   34.2779   45.0672 H   0  0  0  0  0  0  0  0  0  0  0  0
   58.1240   30.5360   45.4030 C   0  0  0  0  0  0  0  0  0  0  0  0
   59.2730   31.0560   46.0410 C   0  0  0  0  0  0  0  0  0  0  0  0
   59.7141   31.9961   45.6783 H   0  0  0  0  0  0  0  0  0  0  0  0
   59.8570   30.3970   47.1230 C   0  0  0  0  0  0  0  0  0  0  0  0
   60.7451   30.8292   47.6072 H   0  0  0  0  0  0  0  0  0  0  0  0
   59.3270   29.1930   47.6000 C   0  0  0  0  0  0  0  0  0  0  0  0
   59.9530   28.5010   48.7560 C   0  0  0  0  0  0  0  0  0  0  0  0
   60.1760   27.1170   48.7300 C   0  0  0  0  0  0  0  0  0  0  0  0
   59.8876   26.5324   47.8439 H   0  0  0  0  0  0  0  0  0  0  0  0
   60.7620   26.4780   49.8230 C   0  0  0  0  0  0  0  0  0  0  0  0
   60.9350   25.3919   49.8013 H   0  0  0  0  0  0  0  0  0  0  0  0
   61.1300   27.2300   50.9520 C   0  0  0  0  0  0  0  0  0  0  0  0
   61.7240   26.6420   52.0790 O   0  0  0  0  0  0  0  0  0  0  0  0
   62.7090   25.6150   52.0270 C   0  0  0  0  0  0  0  0  0  0  0  0
   62.9888   25.3232   53.0500 H   0  0  0  0  0  0  0  0  0  0  0  0
   62.3013   24.7425   51.4954 H   0  0  0  0  0  0  0  0  0  0  0  0
   63.5977   25.9859   51.4954 H   0  0  0  0  0  0  0  0  0  0  0  0
   60.9070   28.5730   50.9580 N   0  0  0  0  0  0  0  0  0  0  0  0
   61.1840   29.1310   51.7970 H   0  0  0  0  0  0  0  0  0  0  0  0
   60.3340   29.2150   49.9030 C   0  0  0  0  0  0  0  0  0  0  0  0
   60.1683   30.3014   49.9497 H   0  0  0  0  0  0  0  0  0  0  0  0
   58.2020   28.6470   46.9660 C   0  0  0  0  0  0  0  0  0  0  0  0
   57.7847   27.6957   47.3279 H   0  0  0  0  0  0  0  0  0  0  0  0
   57.5970   29.2990   45.8710 C   0  0  0  0  0  0  0  0  0  0  0  0
  1  2  1  0
  2  3  2  0
  3  4  1  0
  4  5  1  0
  5  6  1  0
  5  7  2  0
  7  8  1  0
  8  9  1  0
  8 10  1  0
  8 11  1  0
 11 12  1  0
 11 13  1  0
 13 14  1  0
 13 15  1  0
 13 16  1  0
 16 17  2  0
 17 18  1  0
 17 19  1  0
 19 20  1  0
 19 21  2  0
 21 22  1  0
 22 23  1  0
 22 24  1  0
 22 25  1  0
 21 26  1  0
 26 27  1  0
 26 28  2  0
 28 29  1  0
  7 30  1  0
 30 31  2  0
 31 32  1  0
 31 33  1  0
 33 34  1  0
 33 35  2  0
 35 36  1  0
 36 37  2  0
 37 38  1  0
 37 39  1  0
 39 40  1  0
 39 41  2  0
 41 42  1  0
 42 43  1  0
 43 44  1  0
 43 45  1  0
 43 46  1  0
 41 47  1  0
 47 48  1  0
 47 49  2  0
 49 50  1  0
 35 51  1  0
 51 52  1  0
 51 53  2  0
 53  3  1  0
 28 16  1  0
 53 30  1  0
 49 36  1  0
M  CHG  2   4  -1  47   1
M  END
>  <UniqueID>  (28) 
28

>  <SMILES>  (28) 
[H]/N=c1\[n-]cc(CNCc2ccc(C)cc2)c2ccc(-c3ccc(OC)[nH+]c3)cc12

>  <Energy>  (28) 
71.11648454192424

>  <Genealogy>  (28) 
COc1ccc(-c2ccc3c(CNCc4ccc(C)cc4)c[n-]c(=N)c3c2)c[nH+]1 (protonated)
[H]/N=c1\[n-]cc(CNCc2ccc(C)cc2)c2ccc(-c3ccc(OC)[nH+]c3)cc12 (cis-trans isomerization)
[H]/N=c1\[n-]cc(CNCc2ccc(C)cc2)c2ccc(-c3ccc(OC)[nH+]c3)cc12 (3D coordinates assigned)
[H]/N=c1\[n-]cc(CNCc2ccc(C)cc2)c2ccc(-c3ccc(OC)[nH+]c3)cc12 (optimized conformer: 71.11648454192424 kcal/mol)

>  <smiles>  (28) 
COc1ccc(-c2ccc3c(CNCc4ccc(C)cc4)c[nH]c(=N)c3c2)cn1

>  <score_type>  (28) 
oracle

>  <origin>  (28) 
adg

>  <m_score__min__energy>  (28) 
-9.0399999999999991

>  <m_primary>  (28) 
energy

$$$$
28:0
     RDKit          3D

 36 37  0  0  0  0  0  0  0  0999 V2000
   57.0400   34.5150   44.9240 C   0  0  0  0  0  0  0  0  0  0  0  0
   57.4560   33.2070   44.5430 O   0  0  0  0  0  0  0  0  0  0  0  0
   58.2050   32.3320   45.3480 C   0  0  0  0  0  0  0  0  0  0  0  0
   59.3780   32.7720   45.9920 C   0  0  0  0  0  0  0  0  0  0  0  0
   60.1200   31.9060   46.8030 C   0  0  0  0  0  0  0  0  0  0  0  0
   61.3580   32.3900   47.4520 C   0  0  0  0  0  0  0  0  0  0  0  0
   62.5350   31.7940   47.1180 N   0  0  0  0  0  0  0  0  0  0  0  0
   63.6950   32.1570   47.6670 N   0  0  0  0  0  0  0  0  0  0  0  0
   63.7540   33.1470   48.5970 C   0  0  0  0  0  0  0  0  0  0  0  0
   64.8580   33.4660   49.1130 O   0  0  0  0  0  0  0  0  0  0  0  0
   62.5870   33.8090   48.9720 C   0  0  0  0  0  0  0  0  0  0  0  0
   61.3680   33.4530   48.3840 C   0  0  0  0  0  0  0  0  0  0  0  0
   60.1220   34.2050   48.7680 C   0  0  0  0  0  0  0  0  0  0  0  0
   59.7100   30.5770   46.9450 C   0  0  0  0  0  0  0  0  0  0  0  0
   58.5420   30.1170   46.3160 C   0  0  0  0  0  0  0  0  0  0  0  0
   58.1000   28.7900   46.4560 O   0  0  0  0  0  0  0  0  0  0  0  0
   58.3320   27.7540   45.5060 C   0  0  0  0  0  0  0  0  0  0  0  0
   57.7820   30.9890   45.5190 C   0  0  0  0  0  0  0  0  0  0  0  0
   56.6230   30.4520   44.9250 O   0  0  0  0  0  0  0  0  0  0  0  0
   56.4460   30.1250   43.5510 C   0  0  0  0  0  0  0  0  0  0  0  0
   57.0170   34.5873   46.0214 H   0  0  0  0  0  0  0  0  0  0  0  0
   57.7468   35.2561   44.5224 H   0  0  0  0  0  0  0  0  0  0  0  0
   56.0350   34.7116   44.5224 H   0  0  0  0  0  0  0  0  0  0  0  0
   59.7152   33.8101   45.8556 H   0  0  0  0  0  0  0  0  0  0  0  0
   64.5690   31.6640   47.3770 H   0  0  0  0  0  0  0  0  0  0  0  0
   62.6235   34.6081   49.7270 H   0  0  0  0  0  0  0  0  0  0  0  0
   60.0450   34.2515   49.8643 H   0  0  0  0  0  0  0  0  0  0  0  0
   60.1693   35.2255   48.3602 H   0  0  0  0  0  0  0  0  0  0  0  0
   59.2411   33.6876   48.3602 H   0  0  0  0  0  0  0  0  0  0  0  0
   60.3084   29.8848   47.5556 H   0  0  0  0  0  0  0  0  0  0  0  0
   58.5428   26.8125   46.0343 H   0  0  0  0  0  0  0  0  0  0  0  0
   57.4397   27.6285   44.8751 H   0  0  0  0  0  0  0  0  0  0  0  0
   59.1926   28.0211   44.8751 H   0  0  0  0  0  0  0  0  0  0  0  0
   55.9239   29.1604   43.4680 H   0  0  0  0  0  0  0  0  0  0  0  0
   55.8488   30.9085   43.0616 H   0  0  0  0  0  0  0  0  0  0  0  0
   57.4285   30.0534   43.0616 H   0  0  0  0  0  0  0  0  0  0  0  0
  1  2  1  0
  2  3  1  0
  3  4  2  0
  4  5  1  0
  5  6  1  0
  6  7  2  0
  7  8  1  0
  8  9  1  0
  9 10  2  0
  9 11  1  0
 11 12  2  0
 12 13  1  0
  5 14  2  0
 14 15  1  0
 15 16  1  0
 16 17  1  0
 15 18  2  0
 18 19  1  0
 19 20  1  0
 18  3  1  0
 12  6  1  0
  1 21  1  0
  1 22  1  0
  1 23  1  0
  4 24  1  0
  8 25  1  0
 11 26  1  0
 13 27  1  0
 13 28  1  0
 13 29  1  0
 14 30  1  0
 17 31  1  0
 17 32  1  0
 17 33  1  0
 20 34  1  0
 20 35  1  0
 20 36  1  0
M  END
>  <UniqueID>  (29) 
29

>  <SMILES>  (29) 
COc1cc(-c2n[nH]c(=O)cc2C)cc(OC)c1OC

>  <Energy>  (29) 
44.89079318770686

>  <Genealogy>  (29) 
COc1cc(-c2n[nH]c(=O)cc2C)cc(OC)c1OC (3D coordinates assigned)
COc1cc(-c2n[nH]c(=O)cc2C)cc(OC)c1OC (optimized conformer: 44.89079318770686 kcal/mol)

>  <smiles>  (29) 
COc1cc(-c2n[nH]c(=O)cc2C)cc(OC)c1OC

>  <score_type>  (29) 
oracle

>  <origin>  (29) 
adg

>  <m_score__min__energy>  (29) 
-6.0499999999999998

>  <m_primary>  (29) 
energy

$$$$
29:0
     RDKit          3D

 43 45  0  0  0  0  0  0  0  0999 V2000
   63.6090   33.7710   47.9150 C   0  0  0  0  0  0  0  0  0  0  0  0
   62.8780   33.0930   46.7520 C   0  0  0  0  0  0  0  0  0  0  0  0
   61.4740   32.7850   47.0680 N   0  0  0  0  0  0  0  0  0  0  0  0
   61.2220   31.3380   47.1010 C   0  0  0  0  0  0  0  0  0  0  0  0
   59.9390   31.0510   47.8820 C   0  0  0  0  0  0  0  0  0  0  0  0
   58.8570   30.6840   46.9630 N   0  0  0  0  0  0  0  0  0  0  0  0
   58.1910   31.4960   46.0980 C   0  0  0  0  0  0  0  0  0  0  0  0
   58.3980   32.9130   46.0230 N   0  0  0  0  0  0  0  0  0  0  0  0
   58.6850   33.5240   44.7240 C   0  0  0  0  0  0  0  0  0  0  0  0
   59.0870   34.9960   44.9010 C   0  0  0  0  0  0  0  0  0  0  0  0
   59.9270   35.1590   46.0950 N   0  0  0  0  0  0  0  0  0  0  0  0
   59.1980   34.8460   47.3410 C   0  0  0  0  0  0  0  0  0  0  0  0
   58.1060   33.7690   47.1740 C   0  0  0  0  0  0  0  0  0  0  0  0
   57.3930   30.8320   45.2240 N   0  0  0  0  0  0  0  0  0  0  0  0
   57.5720   29.5460   45.5760 C   0  0  0  0  0  0  0  0  0  0  0  0
   57.0090   28.4190   44.9810 C   0  0  0  0  0  0  0  0  0  0  0  0
   57.3850   27.1580   45.4780 C   0  0  0  0  0  0  0  0  0  0  0  0
   58.3130   27.0540   46.5370 C   0  0  0  0  0  0  0  0  0  0  0  0
   58.8700   28.2110   47.1150 C   0  0  0  0  0  0  0  0  0  0  0  0
   58.4620   29.4490   46.6100 C   0  0  0  0  0  0  0  0  0  0  0  0
   63.2067   33.3979   48.8684 H   0  0  0  0  0  0  0  0  0  0  0  0
   64.6834   33.5425   47.8559 H   0  0  0  0  0  0  0  0  0  0  0  0
   63.4619   34.8595   47.8559 H   0  0  0  0  0  0  0  0  0  0  0  0
   62.9039   33.7639   45.8807 H   0  0  0  0  0  0  0  0  0  0  0  0
   63.3896   32.1411   46.5468 H   0  0  0  0  0  0  0  0  0  0  0  0
   60.8530   33.2250   46.3480 H   0  0  0  0  0  0  0  0  0  0  0  0
   61.1146   30.9629   46.0725 H   0  0  0  0  0  0  0  0  0  0  0  0
   62.0665   30.8344   47.5941 H   0  0  0  0  0  0  0  0  0  0  0  0
   60.1178   30.2216   48.5821 H   0  0  0  0  0  0  0  0  0  0  0  0
   59.6471   31.9550   48.4366 H   0  0  0  0  0  0  0  0  0  0  0  0
   59.5095   32.9788   44.2414 H   0  0  0  0  0  0  0  0  0  0  0  0
   57.7812   33.4739   44.0989 H   0  0  0  0  0  0  0  0  0  0  0  0
   59.6487   35.3271   44.0151 H   0  0  0  0  0  0  0  0  0  0  0  0
   58.1767   35.6019   45.0205 H   0  0  0  0  0  0  0  0  0  0  0  0
   60.7500   34.5150   46.0140 H   0  0  0  0  0  0  0  0  0  0  0  0
   59.9241   34.4900   48.0867 H   0  0  0  0  0  0  0  0  0  0  0  0
   58.6894   35.7699   47.6534 H   0  0  0  0  0  0  0  0  0  0  0  0
   58.0658   33.1510   48.0831 H   0  0  0  0  0  0  0  0  0  0  0  0
   57.1391   34.2670   47.0092 H   0  0  0  0  0  0  0  0  0  0  0  0
   56.2942   28.5123   44.1501 H   0  0  0  0  0  0  0  0  0  0  0  0
   56.9531   26.2467   45.0386 H   0  0  0  0  0  0  0  0  0  0  0  0
   58.6030   26.0619   46.9133 H   0  0  0  0  0  0  0  0  0  0  0  0
   59.6003   28.1430   47.9348 H   0  0  0  0  0  0  0  0  0  0  0  0
  1  2  1  0
  2  3  1  0
  3  4  1  0
  4  5  1  0
  5  6  1  0
  6  7  1  0
  7  8  1  0
  8  9  1  0
  9 10  1  0
 10 11  1  0
 11 12  1  0
 12 13  1  0
  7 14  2  0
 14 15  1  0
 15 16  2  0
 16 17  1  0
 17 18  2  0
 18 19  1  0
 19 20  2  0
 20  6  1  0
 13  8  1  0
 20 15  1  0
  1 21  1  0
  1 22  1  0
  1 23  1  0
  2 24  1  0
  2 25  1  0
  3 26  1  0
  4 27  1  0
  4 28  1  0
  5 29  1  0
  5 30  1  0
  9 31  1  0
  9 32  1  0
 10 33  1  0
 10 34  1  0
 11 35  1  0
 12 36  1  0
 12 37  1  0
 13 38  1  0
 13 39  1  0
 16 40  1  0
 17 41  1  0
 18 42  1  0
 19 43  1  0
M  END
>  <UniqueID>  (30) 
30

>  <SMILES>  (30) 
CCNCCn1c(N2CCNCC2)nc2ccccc21

>  <Energy>  (30) 
83.35713591862631

>  <Genealogy>  (30) 
CCNCCn1c(N2CCNCC2)nc2ccccc21 (3D coordinates assigned)
CCNCCn1c(N2CCNCC2)nc2ccccc21 (nonaromatic ring conformer: 83.35713591862631 kcal/mol)

>  <smiles>  (30) 
CCNCCn1c(N2CCNCC2)nc2ccccc21

>  <score_type>  (30) 
oracle

>  <origin>  (30) 
adg

>  <m_score__min__energy>  (30) 
-5.6799999999999997

>  <m_primary>  (30) 
energy

$$$$
30:0
     RDKit          3D

 29 31  0  0  0  0  0  0  0  0999 V2000
   57.7890   24.0190   44.4860 C   0  0  0  0  0  0  0  0  0  0  0  0
   57.6400   25.5080   44.6010 C   0  0  0  0  0  0  0  0  0  0  0  0
   57.1110   26.0780   45.7680 C   0  0  0  0  0  0  0  0  0  0  0  0
   57.0050   27.4660   45.8910 C   0  0  0  0  0  0  0  0  0  0  0  0
   57.4410   28.3070   44.8540 C   0  0  0  0  0  0  0  0  0  0  0  0
   57.3320   29.7730   44.9770 C   0  0  0  0  0  0  0  0  0  0  0  0
   58.3090   30.5700   45.4550 N   0  0  0  0  0  0  0  0  0  0  0  0
   57.7340   31.7880   45.3650 C   0  0  0  0  0  0  0  0  0  0  0  0
   58.3990   33.0440   45.7720 C   0  0  0  0  0  0  0  0  0  0  0  0
   58.7670   33.2610   47.1090 C   0  0  0  0  0  0  0  0  0  0  0  0
   59.3950   34.4530   47.4780 C   0  0  0  0  0  0  0  0  0  0  0  0
   59.6500   35.4210   46.5060 C   0  0  0  0  0  0  0  0  0  0  0  0
   59.2890   35.2000   45.2150 N   0  0  0  0  0  0  0  0  0  0  0  0
   58.6770   34.0490   44.8290 C   0  0  0  0  0  0  0  0  0  0  0  0
   56.4850   31.7280   44.8620 N   0  0  0  0  0  0  0  0  0  0  0  0
   56.2740   30.4680   44.6360 O   0  0  0  0  0  0  0  0  0  0  0  0
   57.9880   27.7350   43.6930 C   0  0  0  0  0  0  0  0  0  0  0  0
   58.0920   26.3460   43.5710 C   0  0  0  0  0  0  0  0  0  0  0  0
   57.8333   23.5762   45.4919 H   0  0  0  0  0  0  0  0  0  0  0  0
   56.9278   23.6053   43.9409 H   0  0  0  0  0  0  0  0  0  0  0  0
   58.7151   23.7842   43.9409 H   0  0  0  0  0  0  0  0  0  0  0  0
   56.7776   25.4289   46.5912 H   0  0  0  0  0  0  0  0  0  0  0  0
   56.5774   27.9026   46.8056 H   0  0  0  0  0  0  0  0  0  0  0  0
   58.5606   32.4914   47.8673 H   0  0  0  0  0  0  0  0  0  0  0  0
   59.6856   34.6268   48.5246 H   0  0  0  0  0  0  0  0  0  0  0  0
   60.1436   36.3636   46.7851 H   0  0  0  0  0  0  0  0  0  0  0  0
   58.3983   33.9035   43.7749 H   0  0  0  0  0  0  0  0  0  0  0  0
   58.3363   28.3835   42.8756 H   0  0  0  0  0  0  0  0  0  0  0  0
   58.5307   25.9080   42.6623 H   0  0  0  0  0  0  0  0  0  0  0  0
  1  2  1  0
  2  3  2  0
  3  4  1  0
  4  5  2  0
  5  6  1  0
  6  7  2  0
  7  8  1  0
  8  9  1  0
  9 10  2  0
 10 11  1  0
 11 12  2  0
 12 13  1  0
 13 14  2  0
  8 15  2  0
 15 16  1  0
  5 17  1  0
 17 18  2  0
 18  2  1  0
 16  6  1  0
 14  9  1  0
  1 19  1  0
  1 20  1  0
  1 21  1  0
  3 22  1  0
  4 23  1  0
 10 24  1  0
 11 25  1  0
 12 26  1  0
 14 27  1  0
 17 28  1  0
 18 29  1  0
M  END
>  <UniqueID>  (31) 
31

>  <SMILES>  (31) 
Cc1ccc(-c2nc(-c3cccnc3)no2)cc1

>  <Energy>  (31) 
65.36524068989073

>  <Genealogy>  (31) 
Cc1ccc(-c2nc(-c3cccnc3)no2)cc1 (3D coordinates assigned)
Cc1ccc(-c2nc(-c3cccnc3)no2)cc1 (optimized conformer: 65.36524068989073 kcal/mol)

>  <smiles>  (31) 
Cc1ccc(-c2nc(-c3cccnc3)no2)cc1

>  <score_type>  (31) 
oracle

>  <origin>  (31) 
adg

>  <m_score__min__energy>  (31) 
-7.2800000000000002

>  <m_primary>  (31) 
energy

$$$$
31:0
     RDKit          3D

 63 65  0  0  0  0  0  0  0  0999 V2000
   57.0750   34.1950   45.2520 C   0  0  0  0  0  0  0  0  0  0  0  0
   58.1260   34.0260   46.3480 C   0  0  0  0  0  0  0  0  0  0  0  0
   59.5530   34.3290   45.8580 C   0  0  0  0  0  0  0  0  0  0  0  0
   60.6130   33.3460   46.3870 C   0  0  0  0  0  0  0  0  0  0  0  0
   60.0010   32.1590   47.0410 N   0  0  0  0  0  0  0  0  0  0  0  0
   60.2580   32.1370   48.5090 C   0  0  0  0  0  0  0  0  0  0  0  0
   61.6070   32.8210   48.8330 C   0  0  0  0  0  0  0  0  0  0  0  0
   62.8250   31.8930   48.6250 C   0  0  0  0  0  0  0  0  0  0  0  0
   64.0510   32.6110   48.1850 N   0  0  0  0  0  0  0  0  0  0  0  0
   63.7200   33.7870   47.3610 C   0  0  0  0  0  0  0  0  0  0  0  0
   64.8340   33.0400   49.3610 C   0  0  0  0  0  0  0  0  0  0  0  0
   60.4930   30.9220   46.3910 C   0  0  0  0  0  0  0  0  0  0  0  0
   59.3760   29.9150   46.1530 C   0  0  0  0  0  0  0  0  0  0  0  0
   59.3610   28.7580   46.9400 C   0  0  0  0  0  0  0  0  0  0  0  0
   58.3890   27.7710   46.7670 C   0  0  0  0  0  0  0  0  0  0  0  0
   58.4350   26.6200   47.5710 C   0  0  0  0  0  0  0  0  0  0  0  0
   57.4890   25.6130   47.4190 C   0  0  0  0  0  0  0  0  0  0  0  0
   56.4880   25.7190   46.4560 C   0  0  0  0  0  0  0  0  0  0  0  0
   55.5760   24.6590   46.3350 O   0  0  0  0  0  0  0  0  0  0  0  0
   55.1680   24.0660   45.1040 C   0  0  0  0  0  0  0  0  0  0  0  0
   56.4280   26.8720   45.6470 C   0  0  0  0  0  0  0  0  0  0  0  0
   57.3690   27.9260   45.7940 C   0  0  0  0  0  0  0  0  0  0  0  0
   57.3450   29.1140   44.9940 C   0  0  0  0  0  0  0  0  0  0  0  0
   56.3210   29.3760   44.0470 C   0  0  0  0  0  0  0  0  0  0  0  0
   56.3480   30.5210   43.2520 C   0  0  0  0  0  0  0  0  0  0  0  0
   57.3910   31.4290   43.3660 C   0  0  0  0  0  0  0  0  0  0  0  0
   58.4040   31.2160   44.2960 C   0  0  0  0  0  0  0  0  0  0  0  0
   58.3870   30.0840   45.1460 C   0  0  0  0  0  0  0  0  0  0  0  0
   56.0883   34.3537   45.7115 H   0  0  0  0  0  0  0  0  0  0  0  0
   57.3326   35.0633   44.6277 H   0  0  0  0  0  0  0  0  0  0  0  0
   57.0474   33.2897   44.6277 H   0  0  0  0  0  0  0  0  0  0  0  0
   57.8853   34.7110   47.1743 H   0  0  0  0  0  0  0  0  0  0  0  0
   58.1027   32.9743   46.6697 H   0  0  0  0  0  0  0  0  0  0  0  0
   59.5586   34.2867   44.7588 H   0  0  0  0  0  0  0  0  0  0  0  0
   59.8192   35.3247   46.2422 H   0  0  0  0  0  0  0  0  0  0  0  0
   61.2328   33.0060   45.5443 H   0  0  0  0  0  0  0  0  0  0  0  0
   61.2166   33.8732   47.1405 H   0  0  0  0  0  0  0  0  0  0  0  0
   59.4477   32.6714   49.0264 H   0  0  0  0  0  0  0  0  0  0  0  0
   60.2990   31.0912   48.8474 H   0  0  0  0  0  0  0  0  0  0  0  0
   61.7201   33.6983   48.1792 H   0  0  0  0  0  0  0  0  0  0  0  0
   61.5855   33.0990   49.8971 H   0  0  0  0  0  0  0  0  0  0  0  0
   63.0418   31.3849   49.5762 H   0  0  0  0  0  0  0  0  0  0  0  0
   62.5598   31.1863   47.8249 H   0  0  0  0  0  0  0  0  0  0  0  0
   64.6590   31.9790   47.6160 H   0  0  0  0  0  0  0  0  0  0  0  0
   63.4805   34.6378   48.0158 H   0  0  0  0  0  0  0  0  0  0  0  0
   64.5808   34.0438   46.7261 H   0  0  0  0  0  0  0  0  0  0  0  0
   62.8516   33.5572   46.7261 H   0  0  0  0  0  0  0  0  0  0  0  0
   64.3040   32.7496   50.2801 H   0  0  0  0  0  0  0  0  0  0  0  0
   65.8222   32.5573   49.3395 H   0  0  0  0  0  0  0  0  0  0  0  0
   64.9591   34.1327   49.3395 H   0  0  0  0  0  0  0  0  0  0  0  0
   60.9446   31.1857   45.4232 H   0  0  0  0  0  0  0  0  0  0  0  0
   61.2297   30.4572   47.0627 H   0  0  0  0  0  0  0  0  0  0  0  0
   60.1325   28.6232   47.7124 H   0  0  0  0  0  0  0  0  0  0  0  0
   59.2266   26.5147   48.3275 H   0  0  0  0  0  0  0  0  0  0  0  0
   57.5312   24.7239   48.0653 H   0  0  0  0  0  0  0  0  0  0  0  0
   54.5556   23.1760   45.3110 H   0  0  0  0  0  0  0  0  0  0  0  0
   54.5769   24.7914   44.5257 H   0  0  0  0  0  0  0  0  0  0  0  0
   56.0567   23.7732   44.5257 H   0  0  0  0  0  0  0  0  0  0  0  0
   55.6372   26.9571   44.8872 H   0  0  0  0  0  0  0  0  0  0  0  0
   55.4908   28.6626   43.9382 H   0  0  0  0  0  0  0  0  0  0  0  0
   55.5383   30.7055   42.5307 H   0  0  0  0  0  0  0  0  0  0  0  0
   57.4171   32.3189   42.7200 H   0  0  0  0  0  0  0  0  0  0  0  0
   59.2304   31.9380   44.3718 H   0  0  0  0  0  0  0  0  0  0  0  0
  1  2  1  0
  2  3  1  0
  3  4  1  0
  4  5  1  0
  5  6  1  0
  6  7  1  0
  7  8  1  0
  8  9  1  0
  9 10  1  0
  9 11  1  0
  5 12  1  0
 12 13  1  0
 13 14  2  0
 14 15  1  0
 15 16  2  0
 16 17  1  0
 17 18  2  0
 18 19  1  0
 19 20  1  0
 18 21  1  0
 21 22  2  0
 22 23  1  0
 23 24  2  0
 24 25  1  0
 25 26  2  0
 26 27  1  0
 27 28  2  0
 28 13  1  0
 22 15  1  0
 28 23  1  0
  1 29  1  0
  1 30  1  0
  1 31  1  0
  2 32  1  0
  2 33  1  0
  3 34  1  0
  3 35  1  0
  4 36  1  0
  4 37  1  0
  6 38  1  0
  6 39  1  0
  7 40  1  0
  7 41  1  0
  8 42  1  0
  8 43  1  0
  9 44  1  0
 10 45  1  0
 10 46  1  0
 10 47  1  0
 11 48  1  0
 11 49  1  0
 11 50  1  0
 12 51  1  0
 12 52  1  0
 14 53  1  0
 16 54  1  0
 17 55  1  0
 20 56  1  0
 20 57  1  0
 20 58  1  0
 21 59  1  0
 24 60  1  0
 25 61  1  0
 26 62  1  0
 27 63  1  0
M  CHG  1   9   1
M  END
>  <UniqueID>  (32) 
32

>  <SMILES>  (32) 
CCCCN(CCC[NH+](C)C)Cc1cc2ccc(OC)cc2c2ccccc12

>  <Energy>  (32) 
74.97903400836944

>  <Genealogy>  (32) 
CCCCN(CCC[NH+](C)C)Cc1cc2ccc(OC)cc2c2ccccc12 (protonated)
CCCCN(CCC[NH+](C)C)Cc1cc2ccc(OC)cc2c2ccccc12 (3D coordinates assigned)
CCCCN(CCC[NH+](C)C)Cc1cc2ccc(OC)cc2c2ccccc12 (optimized conformer: 74.97903400836944 kcal/mol)

>  <smiles>  (32) 
CCCCN(CCCN(C)C)Cc1cc2ccc(OC)cc2c2ccccc12

>  <score_type>  (32) 
oracle

>  <origin>  (32) 
adg

>  <m_score__min__energy>  (32) 
-6.96

>  <m_primary>  (32) 
energy

$$$$
32:0
     RDKit          3D

 43 44  0  0  0  0  0  0  0  0999 V2000
   58.0970   26.8600   43.2630 C   0  0  0  0  0  0  0  0  0  0  0  0
   59.3020   27.4860   43.6920 O   0  0  0  0  0  0  0  0  0  0  0  0
   59.3610   28.5770   44.5720 C   0  0  0  0  0  0  0  0  0  0  0  0
   60.3830   28.6060   45.5180 C   0  0  0  0  0  0  0  0  0  0  0  0
   60.4850   29.6670   46.4140 C   0  0  0  0  0  0  0  0  0  0  0  0
   59.5690   30.7260   46.3920 C   0  0  0  0  0  0  0  0  0  0  0  0
   58.5140   30.7140   45.4350 C   0  0  0  0  0  0  0  0  0  0  0  0
   58.4340   29.6320   44.5320 C   0  0  0  0  0  0  0  0  0  0  0  0
   57.5000   31.7930   45.2770 C   0  0  0  0  0  0  0  0  0  0  0  0
   56.3520   31.4740   44.8610 O   0  0  0  0  0  0  0  0  0  0  0  0
   57.7500   33.1670   45.6410 N   0  0  0  0  0  0  0  0  0  0  0  0
   57.6440   34.2020   44.6070 C   0  0  0  0  0  0  0  0  0  0  0  0
   58.1880   33.5240   46.9900 C   0  0  0  0  0  0  0  0  0  0  0  0
   59.6580   33.1400   47.1600 C   0  0  1  0  0  0  0  0  0  0  0  0
   60.3230   33.8660   48.3470 C   0  0  0  0  0  0  0  0  0  0  0  0
   61.8670   33.7280   48.3480 C   0  0  0  0  0  0  0  0  0  0  0  0
   62.3580   32.3370   48.1760 N   0  0  0  0  0  0  0  0  0  0  0  0
   62.7840   31.7250   49.4480 C   0  0  0  0  0  0  0  0  0  0  0  0
   63.4210   32.2310   47.1610 C   0  0  0  0  0  0  0  0  0  0  0  0
   59.7860   31.7350   47.3450 O   0  0  0  0  0  0  0  0  0  0  0  0
   57.5095   26.5548   44.1415 H   0  0  0  0  0  0  0  0  0  0  0  0
   57.5113   27.5678   42.6581 H   0  0  0  0  0  0  0  0  0  0  0  0
   58.3394   25.9738   42.6581 H   0  0  0  0  0  0  0  0  0  0  0  0
   61.1144   27.7853   45.5575 H   0  0  0  0  0  0  0  0  0  0  0  0
   61.3001   29.6734   47.1527 H   0  0  0  0  0  0  0  0  0  0  0  0
   57.6296   29.6145   43.7819 H   0  0  0  0  0  0  0  0  0  0  0  0
   57.5430   35.1880   45.0841 H   0  0  0  0  0  0  0  0  0  0  0  0
   58.5482   34.1886   43.9807 H   0  0  0  0  0  0  0  0  0  0  0  0
   56.7613   34.0056   43.9807 H   0  0  0  0  0  0  0  0  0  0  0  0
   58.0712   34.6074   47.1400 H   0  0  0  0  0  0  0  0  0  0  0  0
   57.5778   32.9865   47.7308 H   0  0  0  0  0  0  0  0  0  0  0  0
   60.1726   33.4502   46.2386 H   0  0  0  0  0  0  0  0  0  0  0  0
   60.0658   34.9342   48.2941 H   0  0  0  0  0  0  0  0  0  0  0  0
   59.9487   33.4009   49.2709 H   0  0  0  0  0  0  0  0  0  0  0  0
   62.2677   34.3386   47.5254 H   0  0  0  0  0  0  0  0  0  0  0  0
   62.2118   34.0629   49.3374 H   0  0  0  0  0  0  0  0  0  0  0  0
   61.5460   31.7750   47.8260 H   0  0  0  0  0  0  0  0  0  0  0  0
   62.3788   32.3071   50.2888 H   0  0  0  0  0  0  0  0  0  0  0  0
   62.4084   30.6925   49.5021 H   0  0  0  0  0  0  0  0  0  0  0  0
   63.8827   31.7188   49.5021 H   0  0  0  0  0  0  0  0  0  0  0  0
   64.3963   32.1337   47.6603 H   0  0  0  0  0  0  0  0  0  0  0  0
   63.2410   31.3464   46.5325 H   0  0  0  0  0  0  0  0  0  0  0  0
   63.4192   33.1338   46.5325 H   0  0  0  0  0  0  0  0  0  0  0  0
  1  2  1  0
  2  3  1  0
  3  4  2  0
  4  5  1  0
  5  6  2  0
  6  7  1  0
  7  8  2  0
  7  9  1  0
  9 10  2  0
  9 11  1  0
 11 12  1  0
 11 13  1  0
 13 14  1  0
 14 15  1  0
 15 16  1  0
 16 17  1  0
 17 18  1  0
 17 19  1  0
 14 20  1  0
  8  3  1  0
 20  6  1  0
  1 21  1  0
  1 22  1  0
  1 23  1  0
  4 24  1  0
  5 25  1  0
  8 26  1  0
 12 27  1  0
 12 28  1  0
 12 29  1  0
 13 30  1  0
 13 31  1  0
 14 32  1  6
 15 33  1  0
 15 34  1  0
 16 35  1  0
 16 36  1  0
 17 37  1  0
 18 38  1  0
 18 39  1  0
 18 40  1  0
 19 41  1  0
 19 42  1  0
 19 43  1  0
M  CHG  1  17   1
M  END
>  <UniqueID>  (33) 
33

>  <SMILES>  (33) 
COc1ccc2c(c1)C(=O)N(C)C[C@@H](CC[NH+](C)C)O2

>  <Energy>  (33) 
52.00419853023328

>  <Genealogy>  (33) 
COc1ccc2c(c1)C(=O)N(C)CC(CC[NH+](C)C)O2 (protonated)
COc1ccc2c(c1)C(=O)N(C)C[C@@H](CC[NH+](C)C)O2 (chirality)
COc1ccc2c(c1)C(=O)N(C)C[C@@H](CC[NH+](C)C)O2 (3D coordinates assigned)
COc1ccc2c(c1)C(=O)N(C)C[C@@H](CC[NH+](C)C)O2 (nonaromatic ring conformer: 52.00419853023328 kcal/mol)

>  <smiles>  (33) 
COc1ccc2c(c1)C(=O)N(C)CC(CCN(C)C)O2

>  <score_type>  (33) 
oracle

>  <origin>  (33) 
adg

>  <m_score__min__energy>  (33) 
-3.1099999999999999

>  <m_primary>  (33) 
energy

$$$$
33:0
     RDKit          3D

 49 50  0  0  0  0  0  0  0  0999 V2000
   59.6440   35.3090   46.5530 C   0  0  0  0  0  0  0  0  0  0  0  0
   59.7530   33.9630   45.8210 C   0  0  0  0  0  0  0  0  0  0  0  0
   58.4810   33.2130   45.7560 N   0  0  0  0  0  0  0  0  0  0  0  0
   57.6230   33.4720   46.9250 C   0  0  0  0  0  0  0  0  0  0  0  0
   57.7680   33.4170   44.4780 C   0  0  0  0  0  0  0  0  0  0  0  0
   57.4530   32.0850   43.8070 C   0  0  0  0  0  0  0  0  0  0  0  0
   56.5610   31.3260   44.6200 O   0  0  0  0  0  0  0  0  0  0  0  0
   56.4480   29.9350   44.5160 C   0  0  0  0  0  0  0  0  0  0  0  0
   55.3930   29.3400   44.8820 O   0  0  0  0  0  0  0  0  0  0  0  0
   57.5990   29.1430   43.9860 C   0  0  0  0  0  0  0  0  0  0  0  0
   58.7480   29.2910   44.8740 N   0  0  0  0  0  0  0  0  0  0  0  0
   59.8400   28.5100   44.9160 C   0  0  0  0  0  0  0  0  0  0  0  0
   60.7570   28.9920   45.7810 N   0  0  0  0  0  0  0  0  0  0  0  0
   60.1570   30.1110   46.2470 C   0  0  0  0  0  0  0  0  0  0  0  0
   60.7530   30.9900   47.2170 N   0  0  0  0  0  0  0  0  0  0  0  0
   62.2010   31.2440   47.1930 C   0  0  0  0  0  0  0  0  0  0  0  0
   62.5300   32.6960   47.6040 C   0  0  0  0  0  0  0  0  0  0  0  0
   61.5140   33.3160   48.4930 N   0  0  0  0  0  0  0  0  0  0  0  0
   62.1310   34.3320   49.3590 C   0  0  0  0  0  0  0  0  0  0  0  0
   60.7950   32.3190   49.2980 C   0  0  0  0  0  0  0  0  0  0  0  0
   59.9590   31.4490   48.3620 C   0  0  0  0  0  0  0  0  0  0  0  0
   58.9420   30.2980   45.7010 N   0  0  0  0  0  0  0  0  0  0  0  0
   59.6579   35.1377   47.6395 H   0  0  0  0  0  0  0  0  0  0  0  0
   60.4933   35.9491   46.2719 H   0  0  0  0  0  0  0  0  0  0  0  0
   58.7028   35.8041   46.2719 H   0  0  0  0  0  0  0  0  0  0  0  0
   60.0955   34.1542   44.7933 H   0  0  0  0  0  0  0  0  0  0  0  0
   60.4601   33.3443   46.3930 H   0  0  0  0  0  0  0  0  0  0  0  0
   58.1974   33.2986   47.8470 H   0  0  0  0  0  0  0  0  0  0  0  0
   57.2750   34.5152   46.9005 H   0  0  0  0  0  0  0  0  0  0  0  0
   56.7559   32.7956   46.9005 H   0  0  0  0  0  0  0  0  0  0  0  0
   56.8271   33.9525   44.6730 H   0  0  0  0  0  0  0  0  0  0  0  0
   58.4139   34.0023   43.8070 H   0  0  0  0  0  0  0  0  0  0  0  0
   56.9846   32.2718   42.8294 H   0  0  0  0  0  0  0  0  0  0  0  0
   58.3870   31.5197   43.6725 H   0  0  0  0  0  0  0  0  0  0  0  0
   57.3164   28.0815   43.9274 H   0  0  0  0  0  0  0  0  0  0  0  0
   57.8634   29.5106   42.9835 H   0  0  0  0  0  0  0  0  0  0  0  0
   59.9703   27.5940   44.3210 H   0  0  0  0  0  0  0  0  0  0  0  0
   62.6962   30.5541   47.8922 H   0  0  0  0  0  0  0  0  0  0  0  0
   62.5610   31.0871   46.1655 H   0  0  0  0  0  0  0  0  0  0  0  0
   63.4963   32.6965   48.1296 H   0  0  0  0  0  0  0  0  0  0  0  0
   62.5511   33.2920   46.6797 H   0  0  0  0  0  0  0  0  0  0  0  0
   61.9678   34.0633   50.4131 H   0  0  0  0  0  0  0  0  0  0  0  0
   63.2110   34.3801   49.1558 H   0  0  0  0  0  0  0  0  0  0  0  0
   61.6756   35.3125   49.1558 H   0  0  0  0  0  0  0  0  0  0  0  0
   61.5165   31.6914   49.8417 H   0  0  0  0  0  0  0  0  0  0  0  0
   60.1423   32.8232   50.0258 H   0  0  0  0  0  0  0  0  0  0  0  0
   59.5912   30.5740   48.9179 H   0  0  0  0  0  0  0  0  0  0  0  0
   59.1179   32.0496   47.9853 H   0  0  0  0  0  0  0  0  0  0  0  0
   58.2760   31.0870   45.8620 H   0  0  0  0  0  0  0  0  0  0  0  0
  1  2  1  0
  2  3  1  0
  3  4  1  0
  3  5  1  0
  5  6  1  0
  6  7  1  0
  7  8  1  0
  8  9  2  0
  8 10  1  0
 10 11  1  0
 11 12  1  0
 12 13  2  0
 13 14  1  0
 14 15  1  0
 15 16  1  0
 16 17  1  0
 17 18  1  0
 18 19  1  0
 18 20  1  0
 20 21  1  0
 14 22  2  0
 22 11  1  0
 21 15  1  0
  1 23  1  0
  1 24  1  0
  1 25  1  0
  2 26  1  0
  2 27  1  0
  4 28  1  0
  4 29  1  0
  4 30  1  0
  5 31  1  0
  5 32  1  0
  6 33  1  0
  6 34  1  0
 10 35  1  0
 10 36  1  0
 12 37  1  0
 16 38  1  0
 16 39  1  0
 17 40  1  0
 17 41  1  0
 19 42  1  0
 19 43  1  0
 19 44  1  0
 20 45  1  0
 20 46  1  0
 21 47  1  0
 21 48  1  0
 22 49  1  0
M  CHG  1  22   1
M  END
>  <UniqueID>  (34) 
34

>  <SMILES>  (34) 
CCN(C)CCOC(=O)Cn1cnc(N2CCN(C)CC2)[nH+]1

>  <Energy>  (34) 
82.82390295892598

>  <Genealogy>  (34) 
CCN(C)CCOC(=O)Cn1cnc(N2CCN(C)CC2)[nH+]1 (protonated)
CCN(C)CCOC(=O)Cn1cnc(N2CCN(C)CC2)[nH+]1 (3D coordinates assigned)
CCN(C)CCOC(=O)Cn1cnc(N2CCN(C)CC2)[nH+]1 (nonaromatic ring conformer: 82.82390295892598 kcal/mol)

>  <smiles>  (34) 
CCN(C)CCOC(=O)Cn1cnc(N2CCN(C)CC2)n1

>  <score_type>  (34) 
oracle

>  <origin>  (34) 
adg

>  <m_score__min__energy>  (34) 
-4.7400000000000002

>  <m_primary>  (34) 
energy

$$$$
34:0
     RDKit          3D

 34 37  0  0  0  0  0  0  0  0999 V2000
   61.6984   27.0705   47.3805 H   0  0  0  0  0  0  0  0  0  0  0  0
   60.6670   27.1830   47.0150 C   0  0  0  0  0  0  0  0  0  0  0  0
   59.5930   26.9910   47.8860 C   0  0  0  0  0  0  0  0  0  0  0  0
   59.7795   26.7307   48.9384 H   0  0  0  0  0  0  0  0  0  0  0  0
   58.2800   27.1290   47.4230 C   0  0  0  0  0  0  0  0  0  0  0  0
   57.4377   26.9817   48.1150 H   0  0  0  0  0  0  0  0  0  0  0  0
   58.0310   27.4550   46.0780 C   0  0  0  0  0  0  0  0  0  0  0  0
   56.6360   27.5960   45.5890 C   0  0  0  0  0  0  0  0  0  0  0  0
   55.7430   26.8250   46.0310 O   0  0  0  0  0  0  0  0  0  0  0  0
   56.2540   28.6390   44.6790 N   0  0  0  0  0  0  0  0  0  0  0  0
   56.8110   29.8100   44.5470 C   0  0  0  0  0  0  0  0  0  0  0  0
   56.8510   30.3750   43.2970 N   0  0  0  0  0  0  0  0  0  0  0  0
   57.4120   31.5950   43.0500 C   0  0  0  0  0  0  0  0  0  0  0  0
   57.4140   32.3020   41.2770 Br  0  0  0  0  0  0  0  0  0  0  0  0
   57.9720   32.2890   44.1200 C   0  0  0  0  0  0  0  0  0  0  0  0
   57.9610   31.7440   45.3820 C   0  0  0  0  0  0  0  0  0  0  0  0
   57.3960   30.4990   45.6410 C   0  0  0  0  0  0  0  0  0  0  0  0
   57.4026   30.0666   46.6524 H   0  0  0  0  0  0  0  0  0  0  0  0
   58.5880   32.6550   46.1990 C   0  0  0  0  0  0  0  0  0  0  0  0
   58.8660   32.6440   47.5640 C   0  0  0  0  0  0  0  0  0  0  0  0
   58.5716   31.7951   48.1986 H   0  0  0  0  0  0  0  0  0  0  0  0
   59.5370   33.7580   48.1020 C   0  0  0  0  0  0  0  0  0  0  0  0
   59.7738   33.7859   49.1758 H   0  0  0  0  0  0  0  0  0  0  0  0
   59.9090   34.8410   47.2740 C   0  0  0  0  0  0  0  0  0  0  0  0
   60.4332   35.7050   47.7084 H   0  0  0  0  0  0  0  0  0  0  0  0
   59.6140   34.8230   45.8970 C   0  0  0  0  0  0  0  0  0  0  0  0
   59.8997   35.6616   45.2450 H   0  0  0  0  0  0  0  0  0  0  0  0
   58.9490   33.7100   45.3860 C   0  0  0  0  0  0  0  0  0  0  0  0
   58.5770   33.4980   44.1040 N   0  0  0  0  0  0  0  0  0  0  0  0
   58.7270   34.1310   43.2870 H   0  0  0  0  0  0  0  0  0  0  0  0
   59.1220   27.6580   45.2120 C   0  0  0  0  0  0  0  0  0  0  0  0
   58.9425   27.9285   44.1610 H   0  0  0  0  0  0  0  0  0  0  0  0
   60.4320   27.5180   45.6790 C   0  0  0  0  0  0  0  0  0  0  0  0
   61.2788   27.6717   44.9940 H   0  0  0  0  0  0  0  0  0  0  0  0
  1  2  1  0
  2  3  2  0
  3  4  1  0
  3  5  1  0
  5  6  1  0
  5  7  2  0
  7  8  1  0
  8  9  2  0
  8 10  1  0
 10 11  2  0
 11 12  1  0
 12 13  1  0
 13 14  1  0
 13 15  2  0
 15 16  1  0
 16 17  2  0
 17 18  1  0
 16 19  1  0
 19 20  2  0
 20 21  1  0
 20 22  1  0
 22 23  1  0
 22 24  2  0
 24 25  1  0
 24 26  1  0
 26 27  1  0
 26 28  2  0
 28 29  1  0
 29 30  1  0
  7 31  1  0
 31 32  1  0
 31 33  2  0
 33 34  1  0
 33  2  1  0
 17 11  1  0
 28 19  1  0
 29 15  1  0
M  CHG  1  12  -1
M  END
>  <UniqueID>  (35) 
35

>  <SMILES>  (35) 
O=C(/N=c1\cc2c([nH]c3ccccc32)c(Br)[n-]1)c1ccccc1

>  <Energy>  (35) 
90.9841867764807

>  <Genealogy>  (35) 
O=C(N=c1cc2c([nH]c3ccccc32)c(Br)[n-]1)c1ccccc1 (protonated)
O=C(/N=c1\cc2c([nH]c3ccccc32)c(Br)[n-]1)c1ccccc1 (cis-trans isomerization)
O=C(/N=c1\cc2c([nH]c3ccccc32)c(Br)[n-]1)c1ccccc1 (3D coordinates assigned)
O=C(/N=c1\cc2c([nH]c3ccccc32)c(Br)[n-]1)c1ccccc1 (optimized conformer: 90.9841867764807 kcal/mol)

>  <smiles>  (35) 
O=C(N=c1cc2c([nH]c3ccccc32)c(Br)[nH]1)c1ccccc1

>  <score_type>  (35) 
oracle

>  <origin>  (35) 
adg

>  <m_score__min__energy>  (35) 
-9.6699999999999999

>  <m_primary>  (35) 
energy

$$$$
35:0
     RDKit          3D

 51 50  0  0  0  0  0  0  0  0999 V2000
   56.2810   29.8390   42.6140 C   0  0  0  0  0  0  0  0  0  0  0  0
   55.7320   29.9620   44.0330 C   0  0  0  0  0  0  0  0  0  0  0  0
   56.7610   30.5240   44.9360 N   0  0  0  0  0  0  0  0  0  0  0  0
   57.7660   29.5020   45.3120 C   0  0  0  0  0  0  0  0  0  0  0  0
   57.0990   28.1360   45.4430 C   0  0  0  0  0  0  0  0  0  0  0  0
   57.3910   31.7420   44.3710 C   0  0  0  0  0  0  0  0  0  0  0  0
   57.3820   32.8630   45.4120 C   0  0  0  0  0  0  0  0  0  0  0  0
   58.7060   33.1880   45.8290 O   0  0  0  0  0  0  0  0  0  0  0  0
   59.2100   34.4930   45.8540 C   0  0  0  0  0  0  0  0  0  0  0  0
   59.0300   35.2740   44.8800 O   0  0  0  0  0  0  0  0  0  0  0  0
   59.9780   34.9560   47.0560 C   0  0  0  0  0  0  0  0  0  0  0  0
   60.3910   33.8190   47.9170 N   0  0  2  0  0  0  0  0  0  0  0  0
   59.6360   33.8440   49.1860 C   0  0  0  0  0  0  0  0  0  0  0  0
   61.8590   33.8610   48.1830 C   0  0  0  0  0  0  0  0  0  0  0  0
   62.6730   33.0410   47.1610 C   0  0  0  0  0  0  0  0  0  0  0  0
   62.5610   31.5220   47.3770 C   0  0  0  0  0  0  0  0  0  0  0  0
   61.1450   31.1120   47.5000 N   0  0  0  0  0  0  0  0  0  0  0  0
   60.9170   30.4640   48.8020 C   0  0  0  0  0  0  0  0  0  0  0  0
   60.7660   30.1800   46.4220 C   0  0  0  0  0  0  0  0  0  0  0  0
   57.3536   29.5987   42.6554 H   0  0  0  0  0  0  0  0  0  0  0  0
   55.7461   29.0384   42.0820 H   0  0  0  0  0  0  0  0  0  0  0  0
   56.1388   30.7913   42.0820 H   0  0  0  0  0  0  0  0  0  0  0  0
   54.8543   30.6250   44.0261 H   0  0  0  0  0  0  0  0  0  0  0  0
   55.4472   28.9627   44.3939 H   0  0  0  0  0  0  0  0  0  0  0  0
   58.5444   29.4542   44.5362 H   0  0  0  0  0  0  0  0  0  0  0  0
   58.2166   29.7773   46.2770 H   0  0  0  0  0  0  0  0  0  0  0  0
   56.9778   27.8877   46.5077 H   0  0  0  0  0  0  0  0  0  0  0  0
   56.1121   28.1618   44.9579 H   0  0  0  0  0  0  0  0  0  0  0  0
   57.7262   27.3736   44.9579 H   0  0  0  0  0  0  0  0  0  0  0  0
   58.4294   31.5170   44.0861 H   0  0  0  0  0  0  0  0  0  0  0  0
   56.8244   32.0654   43.4853 H   0  0  0  0  0  0  0  0  0  0  0  0
   56.9141   33.7567   44.9733 H   0  0  0  0  0  0  0  0  0  0  0  0
   56.8141   32.5199   46.2894 H   0  0  0  0  0  0  0  0  0  0  0  0
   60.8772   35.4927   46.7192 H   0  0  0  0  0  0  0  0  0  0  0  0
   59.3240   35.6135   47.6476 H   0  0  0  0  0  0  0  0  0  0  0  0
   60.1450   32.9190   47.4380 H   0  0  0  0  0  0  0  0  0  0  0  0
   60.3392   33.8207   50.0315 H   0  0  0  0  0  0  0  0  0  0  0  0
   59.0329   34.7626   49.2358 H   0  0  0  0  0  0  0  0  0  0  0  0
   58.9735   32.9673   49.2358 H   0  0  0  0  0  0  0  0  0  0  0  0
   62.1944   34.9078   48.1413 H   0  0  0  0  0  0  0  0  0  0  0  0
   62.0296   33.4183   49.1754 H   0  0  0  0  0  0  0  0  0  0  0  0
   62.3072   33.2786   46.1512 H   0  0  0  0  0  0  0  0  0  0  0  0
   63.7308   33.3129   47.2915 H   0  0  0  0  0  0  0  0  0  0  0  0
   63.0141   31.0015   46.5203 H   0  0  0  0  0  0  0  0  0  0  0  0
   63.0865   31.2583   48.3067 H   0  0  0  0  0  0  0  0  0  0  0  0
   61.1647   31.1679   49.6102 H   0  0  0  0  0  0  0  0  0  0  0  0
   59.8608   30.1681   48.8843 H   0  0  0  0  0  0  0  0  0  0  0  0
   61.5552   29.5719   48.8843 H   0  0  0  0  0  0  0  0  0  0  0  0
   60.3862   29.2459   46.8616 H   0  0  0  0  0  0  0  0  0  0  0  0
   59.9826   30.6377   45.8001 H   0  0  0  0  0  0  0  0  0  0  0  0
   61.6465   29.9611   45.8001 H   0  0  0  0  0  0  0  0  0  0  0  0
  1  2  1  0
  2  3  1  0
  3  4  1  0
  4  5  1  0
  3  6  1  0
  6  7  1  0
  7  8  1  0
  8  9  1  0
  9 10  2  0
  9 11  1  0
 11 12  1  0
 12 13  1  0
 12 14  1  0
 14 15  1  0
 15 16  1  0
 16 17  1  0
 17 18  1  0
 17 19  1  0
  1 20  1  0
  1 21  1  0
  1 22  1  0
  2 23  1  0
  2 24  1  0
  4 25  1  0
  4 26  1  0
  5 27  1  0
  5 28  1  0
  5 29  1  0
  6 30  1  0
  6 31  1  0
  7 32  1  0
  7 33  1  0
 11 34  1  0
 11 35  1  0
 12 36  1  6
 13 37  1  0
 13 38  1  0
 13 39  1  0
 14 40  1  0
 14 41  1  0
 15 42  1  0
 15 43  1  0
 16 44  1  0
 16 45  1  0
 18 46  1  0
 18 47  1  0
 18 48  1  0
 19 49  1  0
 19 50  1  0
 19 51  1  0
M  CHG  1  12   1
M  END
>  <UniqueID>  (36) 
36

>  <SMILES>  (36) 
CCN(CC)CCOC(=O)C[N@H+](C)CCCN(C)C

>  <Energy>  (36) 
41.79550220094566

>  <Genealogy>  (36) 
CCN(CC)CCOC(=O)C[NH+](C)CCCN(C)C (protonated)
CCN(CC)CCOC(=O)C[N@H+](C)CCCN(C)C (chirality)
CCN(CC)CCOC(=O)C[N@H+](C)CCCN(C)C (3D coordinates assigned)
CCN(CC)CCOC(=O)C[N@H+](C)CCCN(C)C (optimized conformer: 41.79550220094566 kcal/mol)

>  <smiles>  (36) 
CCN(CC)CCOC(=O)CN(C)CCCN(C)C

>  <score_type>  (36) 
oracle

>  <origin>  (36) 
adg

>  <m_score__min__energy>  (36) 
-2.7599999999999998

>  <m_primary>  (36) 
energy

$$$$
36:0
     RDKit          3D

 51 53  0  0  0  0  0  0  0  0999 V2000
   56.3280   22.6780   43.0970 C   0  0  0  0  0  0  0  0  0  0  0  0
   57.3280   21.5140   43.1480 C   0  0  0  0  0  0  0  0  0  0  0  0
   57.1820   20.6940   44.3810 N   0  0  0  0  0  0  0  0  0  0  0  0
   55.7920   20.7940   44.9070 C   0  0  0  0  0  0  0  0  0  0  0  0
   55.7470   21.4230   46.3040 C   0  0  0  0  0  0  0  0  0  0  0  0
   58.1520   21.1420   45.4170 C   0  0  0  0  0  0  0  0  0  0  0  0
   59.0800   22.2780   44.9450 C   0  0  0  0  0  0  0  0  0  0  0  0
   59.2650   23.2560   45.9720 O   0  0  0  0  0  0  0  0  0  0  0  0
   59.1350   24.6500   45.8380 C   0  0  0  0  0  0  0  0  0  0  0  0
   60.1730   25.5540   46.1320 C   0  0  0  0  0  0  0  0  0  0  0  0
   59.9740   26.9290   45.9900 C   0  0  0  0  0  0  0  0  0  0  0  0
   58.7410   27.4360   45.5400 C   0  0  0  0  0  0  0  0  0  0  0  0
   58.5390   28.9000   45.3970 C   0  0  0  0  0  0  0  0  0  0  0  0
   57.5450   29.5430   44.6580 C   0  0  0  0  0  0  0  0  0  0  0  0
   57.6110   30.9420   44.7150 C   0  0  0  0  0  0  0  0  0  0  0  0
   58.6570   31.4270   45.5000 C   0  0  0  0  0  0  0  0  0  0  0  0
   58.9940   32.8520   45.7620 C   0  0  0  0  0  0  0  0  0  0  0  0
   59.3960   33.2610   47.0500 C   0  0  0  0  0  0  0  0  0  0  0  0
   59.7140   34.5990   47.3030 C   0  0  0  0  0  0  0  0  0  0  0  0
   59.6390   35.5430   46.2790 C   0  0  0  0  0  0  0  0  0  0  0  0
   59.2460   35.1530   44.9970 C   0  0  0  0  0  0  0  0  0  0  0  0
   58.9250   33.8170   44.7370 C   0  0  0  0  0  0  0  0  0  0  0  0
   59.4880   30.0950   46.1140 S   0  0  0  0  0  0  0  0  0  0  0  0
   57.7110   26.5260   45.2370 C   0  0  0  0  0  0  0  0  0  0  0  0
   57.9120   25.1510   45.3820 C   0  0  0  0  0  0  0  0  0  0  0  0
   56.0667   22.9821   44.1213 H   0  0  0  0  0  0  0  0  0  0  0  0
   56.7817   23.5282   42.5666 H   0  0  0  0  0  0  0  0  0  0  0  0
   55.4192   22.3576   42.5666 H   0  0  0  0  0  0  0  0  0  0  0  0
   57.1633   20.8683   42.2728 H   0  0  0  0  0  0  0  0  0  0  0  0
   58.3412   21.9422   43.1482 H   0  0  0  0  0  0  0  0  0  0  0  0
   57.3710   19.6950   44.1440 H   0  0  0  0  0  0  0  0  0  0  0  0
   55.1967   21.4134   44.2200 H   0  0  0  0  0  0  0  0  0  0  0  0
   55.3843   19.7751   44.9815 H   0  0  0  0  0  0  0  0  0  0  0  0
   55.8037   20.6306   47.0649 H   0  0  0  0  0  0  0  0  0  0  0  0
   56.5984   22.1090   46.4249 H   0  0  0  0  0  0  0  0  0  0  0  0
   54.8067   21.9808   46.4249 H   0  0  0  0  0  0  0  0  0  0  0  0
   57.5871   21.4957   46.2921 H   0  0  0  0  0  0  0  0  0  0  0  0
   58.7929   20.2795   45.6524 H   0  0  0  0  0  0  0  0  0  0  0  0
   60.0578   21.8532   44.6739 H   0  0  0  0  0  0  0  0  0  0  0  0
   58.6158   22.7686   44.0768 H   0  0  0  0  0  0  0  0  0  0  0  0
   61.1468   25.1752   46.4757 H   0  0  0  0  0  0  0  0  0  0  0  0
   60.7912   27.6242   46.2329 H   0  0  0  0  0  0  0  0  0  0  0  0
   56.7794   29.0013   44.0831 H   0  0  0  0  0  0  0  0  0  0  0  0
   56.9022   31.5979   44.1884 H   0  0  0  0  0  0  0  0  0  0  0  0
   59.4600   32.5219   47.8621 H   0  0  0  0  0  0  0  0  0  0  0  0
   60.0241   34.9078   48.3122 H   0  0  0  0  0  0  0  0  0  0  0  0
   59.8895   36.5948   46.4813 H   0  0  0  0  0  0  0  0  0  0  0  0
   59.1888   35.8983   44.1900 H   0  0  0  0  0  0  0  0  0  0  0  0
   58.6163   33.5169   43.7248 H   0  0  0  0  0  0  0  0  0  0  0  0
   56.7392   26.9006   44.8829 H   0  0  0  0  0  0  0  0  0  0  0  0
   57.0979   24.4540   45.1343 H   0  0  0  0  0  0  0  0  0  0  0  0
  1  2  1  0
  2  3  1  0
  3  4  1  0
  4  5  1  0
  3  6  1  0
  6  7  1  0
  7  8  1  0
  8  9  1  0
  9 10  2  0
 10 11  1  0
 11 12  2  0
 12 13  1  0
 13 14  2  0
 14 15  1  0
 15 16  2  0
 16 17  1  0
 17 18  2  0
 18 19  1  0
 19 20  2  0
 20 21  1  0
 21 22  2  0
 16 23  1  0
 12 24  1  0
 24 25  2  0
 25  9  1  0
 23 13  1  0
 22 17  1  0
  1 26  1  0
  1 27  1  0
  1 28  1  0
  2 29  1  0
  2 30  1  0
  3 31  1  0
  4 32  1  0
  4 33  1  0
  5 34  1  0
  5 35  1  0
  5 36  1  0
  6 37  1  0
  6 38  1  0
  7 39  1  0
  7 40  1  0
 10 41  1  0
 11 42  1  0
 14 43  1  0
 15 44  1  0
 18 45  1  0
 19 46  1  0
 20 47  1  0
 21 48  1  0
 22 49  1  0
 24 50  1  0
 25 51  1  0
M  CHG  1   3   1
M  END
>  <UniqueID>  (37) 
37

>  <SMILES>  (37) 
CC[NH+](CC)CCOc1ccc(-c2ccc(-c3ccccc3)s2)cc1

>  <Energy>  (37) 
86.3214860424021

>  <Genealogy>  (37) 
CC[NH+](CC)CCOc1ccc(-c2ccc(-c3ccccc3)s2)cc1 (protonated)
CC[NH+](CC)CCOc1ccc(-c2ccc(-c3ccccc3)s2)cc1 (3D coordinates assigned)
CC[NH+](CC)CCOc1ccc(-c2ccc(-c3ccccc3)s2)cc1 (optimized conformer: 86.3214860424021 kcal/mol)

>  <smiles>  (37) 
CCN(CC)CCOc1ccc(-c2ccc(-c3ccccc3)s2)cc1

>  <score_type>  (37) 
oracle

>  <origin>  (37) 
adg

>  <m_score__min__energy>  (37) 
-6.3499999999999996

>  <m_primary>  (37) 
energy

$$$$
37:0
     RDKit          3D

 69 71  0  0  0  0  0  0  0  0999 V2000
   58.8440   30.0410   49.8570 C   0  0  0  0  0  0  0  0  0  0  0  0
   59.4330   31.2450   50.5810 C   0  0  0  0  0  0  0  0  0  0  0  0
   59.5340   32.3950   49.6440 N   0  0  0  0  0  0  0  0  0  0  0  0
   59.9780   33.6280   50.3320 C   0  0  0  0  0  0  0  0  0  0  0  0
   61.3180   33.3900   51.0380 C   0  0  0  0  0  0  0  0  0  0  0  0
   62.3910   33.5550   50.1290 O   0  0  0  0  0  0  0  0  0  0  0  0
   63.3120   32.4910   50.2450 C   0  0  0  0  0  0  0  0  0  0  0  0
   62.7180   31.2460   49.5710 C   0  0  0  0  0  0  0  0  0  0  0  0
   61.7160   31.5730   48.5420 N   0  0  0  0  0  0  0  0  0  0  0  0
   62.2320   31.3930   47.1740 C   0  0  0  0  0  0  0  0  0  0  0  0
   61.3970   30.3850   46.3700 C   0  0  0  0  0  0  0  0  0  0  0  0
   60.5240   29.6400   47.2220 O   0  0  0  0  0  0  0  0  0  0  0  0
   59.8400   28.4570   46.8880 C   0  0  0  0  0  0  0  0  0  0  0  0
   60.4500   27.1900   46.9910 C   0  0  0  0  0  0  0  0  0  0  0  0
   59.7300   26.0330   46.6880 C   0  0  0  0  0  0  0  0  0  0  0  0
   58.3990   26.1200   46.2830 C   0  0  0  0  0  0  0  0  0  0  0  0
   57.7850   27.3670   46.1670 C   0  0  0  0  0  0  0  0  0  0  0  0
   58.5040   28.5490   46.4320 C   0  0  0  0  0  0  0  0  0  0  0  0
   57.8090   29.8940   46.3490 C   0  0  0  0  0  0  0  0  0  0  0  0
   57.5270   30.3090   44.9280 C   0  0  0  0  0  0  0  0  0  0  0  0
   56.4880   29.6960   44.2050 C   0  0  0  0  0  0  0  0  0  0  0  0
   56.2240   30.0840   42.8870 C   0  0  0  0  0  0  0  0  0  0  0  0
   56.9940   31.0790   42.2810 C   0  0  0  0  0  0  0  0  0  0  0  0
   58.0290   31.6930   42.9920 C   0  0  0  0  0  0  0  0  0  0  0  0
   58.2950   31.3120   44.3110 C   0  0  0  0  0  0  0  0  0  0  0  0
   58.2650   32.6260   48.9170 C   0  0  0  0  0  0  0  0  0  0  0  0
   58.5200   33.2970   47.5920 C   0  0  0  0  0  0  0  0  0  0  0  0
   59.8120   33.7220   47.2410 C   0  0  0  0  0  0  0  0  0  0  0  0
   60.0320   34.3630   46.0170 C   0  0  0  0  0  0  0  0  0  0  0  0
   58.9670   34.5830   45.1390 C   0  0  0  0  0  0  0  0  0  0  0  0
   57.6800   34.1580   45.4820 C   0  0  0  0  0  0  0  0  0  0  0  0
   57.4550   33.5180   46.7020 C   0  0  0  0  0  0  0  0  0  0  0  0
   58.4856   29.3085   50.5952 H   0  0  0  0  0  0  0  0  0  0  0  0
   58.0037   30.3673   49.2265 H   0  0  0  0  0  0  0  0  0  0  0  0
   59.6173   29.5779   49.2265 H   0  0  0  0  0  0  0  0  0  0  0  0
   58.7828   31.5177   51.4253 H   0  0  0  0  0  0  0  0  0  0  0  0
   60.4362   30.9903   50.9536 H   0  0  0  0  0  0  0  0  0  0  0  0
   60.0955   34.4339   49.5926 H   0  0  0  0  0  0  0  0  0  0  0  0
   59.2240   33.9111   51.0812 H   0  0  0  0  0  0  0  0  0  0  0  0
   61.4267   34.1108   51.8617 H   0  0  0  0  0  0  0  0  0  0  0  0
   61.3372   32.3624   51.4299 H   0  0  0  0  0  0  0  0  0  0  0  0
   64.2561   32.7639   49.7508 H   0  0  0  0  0  0  0  0  0  0  0  0
   63.5099   32.2824   51.3067 H   0  0  0  0  0  0  0  0  0  0  0  0
   63.5342   30.6798   49.0985 H   0  0  0  0  0  0  0  0  0  0  0  0
   62.2103   30.6595   50.3509 H   0  0  0  0  0  0  0  0  0  0  0  0
   61.4560   32.5750   48.6800 H   0  0  0  0  0  0  0  0  0  0  0  0
   60.8590   30.9870   48.6810 H   0  0  0  0  0  0  0  0  0  0  0  0
   62.2115   32.3635   46.6565 H   0  0  0  0  0  0  0  0  0  0  0  0
   63.2574   31.0017   47.2473 H   0  0  0  0  0  0  0  0  0  0  0  0
   60.7951   30.9293   45.6274 H   0  0  0  0  0  0  0  0  0  0  0  0
   62.0826   29.6822   45.8741 H   0  0  0  0  0  0  0  0  0  0  0  0
   61.4993   27.1128   47.3120 H   0  0  0  0  0  0  0  0  0  0  0  0
   60.2148   25.0489   46.7691 H   0  0  0  0  0  0  0  0  0  0  0  0
   57.8328   25.2050   46.0548 H   0  0  0  0  0  0  0  0  0  0  0  0
   56.7289   27.4280   45.8656 H   0  0  0  0  0  0  0  0  0  0  0  0
   56.8559   29.8333   46.8949 H   0  0  0  0  0  0  0  0  0  0  0  0
   58.4798   30.6456   46.7907 H   0  0  0  0  0  0  0  0  0  0  0  0
   55.8812   28.9093   44.6771 H   0  0  0  0  0  0  0  0  0  0  0  0
   55.4080   29.6042   42.3268 H   0  0  0  0  0  0  0  0  0  0  0  0
   56.7859   31.3797   41.2436 H   0  0  0  0  0  0  0  0  0  0  0  0
   58.6349   32.4766   42.5136 H   0  0  0  0  0  0  0  0  0  0  0  0
   59.1087   31.7992   44.8682 H   0  0  0  0  0  0  0  0  0  0  0  0
   57.7689   31.6599   48.7421 H   0  0  0  0  0  0  0  0  0  0  0  0
   57.6249   33.2814   49.5259 H   0  0  0  0  0  0  0  0  0  0  0  0
   60.6524   33.5505   47.9298 H   0  0  0  0  0  0  0  0  0  0  0  0
   61.0450   34.6944   45.7452 H   0  0  0  0  0  0  0  0  0  0  0  0
   59.1413   35.0903   44.1786 H   0  0  0  0  0  0  0  0  0  0  0  0
   56.8429   34.3283   44.7890 H   0  0  0  0  0  0  0  0  0  0  0  0
   56.4407   33.1855   46.9677 H   0  0  0  0  0  0  0  0  0  0  0  0
  1  2  1  0
  2  3  1  0
  3  4  1  0
  4  5  1  0
  5  6  1  0
  6  7  1  0
  7  8  1  0
  8  9  1  0
  9 10  1  0
 10 11  1  0
 11 12  1  0
 12 13  1  0
 13 14  2  0
 14 15  1  0
 15 16  2  0
 16 17  1  0
 17 18  2  0
 18 19  1  0
 19 20  1  0
 20 21  2  0
 21 22  1  0
 22 23  2  0
 23 24  1  0
 24 25  2  0
  3 26  1  0
 26 27  1  0
 27 28  2  0
 28 29  1  0
 29 30  2  0
 30 31  1  0
 31 32  2  0
 18 13  1  0
 25 20  1  0
 32 27  1  0
  1 33  1  0
  1 34  1  0
  1 35  1  0
  2 36  1  0
  2 37  1  0
  4 38  1  0
  4 39  1  0
  5 40  1  0
  5 41  1  0
  7 42  1  0
  7 43  1  0
  8 44  1  0
  8 45  1  0
  9 46  1  0
  9 47  1  0
 10 48  1  0
 10 49  1  0
 11 50  1  0
 11 51  1  0
 14 52  1  0
 15 53  1  0
 16 54  1  0
 17 55  1  0
 19 56  1  0
 19 57  1  0
 21 58  1  0
 22 59  1  0
 23 60  1  0
 24 61  1  0
 25 62  1  0
 26 63  1  0
 26 64  1  0
 28 65  1  0
 29 66  1  0
 30 67  1  0
 31 68  1  0
 32 69  1  0
M  CHG  1   9   1
M  END
>  <UniqueID>  (38) 
38

>  <SMILES>  (38) 
CCN(CCOCC[NH2+]CCOc1ccccc1Cc1ccccc1)Cc1ccccc1

>  <Energy>  (38) 
73.76441165869001

>  <Genealogy>  (38) 
CCN(CCOCC[NH2+]CCOc1ccccc1Cc1ccccc1)Cc1ccccc1 (protonated)
CCN(CCOCC[NH2+]CCOc1ccccc1Cc1ccccc1)Cc1ccccc1 (3D coordinates assigned)
CCN(CCOCC[NH2+]CCOc1ccccc1Cc1ccccc1)Cc1ccccc1 (optimized conformer: 73.76441165869001 kcal/mol)

>  <smiles>  (38) 
CCN(CCOCCNCCOc1ccccc1Cc1ccccc1)Cc1ccccc1

>  <score_type>  (38) 
oracle

>  <origin>  (38) 
adg

>  <m_score__min__energy>  (38) 
-6.0999999999999996

>  <m_primary>  (38) 
energy

$$$$
38:0
     RDKit          3D

 71 74  0  0  0  0  0  0  0  0999 V2000
   62.4270   33.5170   46.8130 C   0  0  0  0  0  0  0  0  0  0  0  0
   61.6000   33.9070   48.0500 C   0  0  0  0  0  0  0  0  0  0  0  0
   60.1400   33.6760   47.9150 N   0  0  0  0  0  0  0  0  0  0  0  0
   59.3600   34.8500   47.4610 C   0  0  0  0  0  0  0  0  0  0  0  0
   59.6240   35.1890   45.9950 C   0  0  0  0  0  0  0  0  0  0  0  0
   59.5390   32.8760   49.0100 C   0  0  0  0  0  0  0  0  0  0  0  0
   59.2870   31.4000   48.6470 C   0  0  0  0  0  0  0  0  0  0  0  0
   60.1020   30.9530   47.4960 N   0  0  0  0  0  0  0  0  0  0  0  0
   59.3360   30.1640   46.5370 C   0  0  0  0  0  0  0  0  0  0  0  0
   58.6770   30.7970   45.4380 C   0  0  0  0  0  0  0  0  0  0  0  0
   58.6380   32.2090   45.2770 C   0  0  0  0  0  0  0  0  0  0  0  0
   58.0060   32.7970   44.1840 C   0  0  0  0  0  0  0  0  0  0  0  0
   57.3930   32.0080   43.2250 C   0  0  0  0  0  0  0  0  0  0  0  0
   57.4120   30.6240   43.3490 C   0  0  0  0  0  0  0  0  0  0  0  0
   58.0570   29.9920   44.4440 C   0  0  0  0  0  0  0  0  0  0  0  0
   58.0850   28.6210   44.5430 N   0  0  0  0  0  0  0  0  0  0  0  0
   57.9040   27.8110   43.3160 C   0  0  0  0  0  0  0  0  0  0  0  0
   58.4300   28.0200   45.7340 C   0  0  0  0  0  0  0  0  0  0  0  0
   58.0620   26.6680   46.0180 C   0  0  0  0  0  0  0  0  0  0  0  0
   56.9700   26.0370   45.3280 N   0  0  0  0  0  0  0  0  0  0  0  0
   55.8590   25.3980   46.0360 C   0  0  0  0  0  0  0  0  0  0  0  0
   56.1890   23.9420   46.3840 C   0  0  0  0  0  0  0  0  0  0  0  0
   56.1300   23.0820   45.1800 N   0  0  0  0  0  0  0  0  0  0  0  0
   55.5270   23.8110   44.0480 C   0  0  0  0  0  0  0  0  0  0  0  0
   55.6280   22.9920   42.7450 C   0  0  0  0  0  0  0  0  0  0  0  0
   56.0650   21.6720   43.0050 O   0  0  0  0  0  0  0  0  0  0  0  0
   57.3760   21.7000   43.5410 C   0  0  0  0  0  0  0  0  0  0  0  0
   57.4690   22.5880   44.8000 C   0  0  0  0  0  0  0  0  0  0  0  0
   58.6550   25.9960   47.0900 C   0  0  0  0  0  0  0  0  0  0  0  0
   59.5380   26.6520   47.9260 C   0  0  0  0  0  0  0  0  0  0  0  0
   59.7920   28.0100   47.7660 C   0  0  0  0  0  0  0  0  0  0  0  0
   60.6270   28.5580   48.6810 F   0  0  0  0  0  0  0  0  0  0  0  0
   59.1980   28.7450   46.6930 C   0  0  0  0  0  0  0  0  0  0  0  0
   63.3784   33.0683   47.1346 H   0  0  0  0  0  0  0  0  0  0  0  0
   61.8639   32.7896   46.2099 H   0  0  0  0  0  0  0  0  0  0  0  0
   62.6301   34.4142   46.2099 H   0  0  0  0  0  0  0  0  0  0  0  0
   61.9630   33.3179   48.9051 H   0  0  0  0  0  0  0  0  0  0  0  0
   61.7331   34.9905   48.1851 H   0  0  0  0  0  0  0  0  0  0  0  0
   58.2889   34.6333   47.5867 H   0  0  0  0  0  0  0  0  0  0  0  0
   59.6686   35.7143   48.0674 H   0  0  0  0  0  0  0  0  0  0  0  0
   60.2989   36.0556   45.9348 H   0  0  0  0  0  0  0  0  0  0  0  0
   60.0902   34.3259   45.4973 H   0  0  0  0  0  0  0  0  0  0  0  0
   58.6730   35.4296   45.4973 H   0  0  0  0  0  0  0  0  0  0  0  0
   60.2190   32.9078   49.8741 H   0  0  0  0  0  0  0  0  0  0  0  0
   58.5565   33.3214   49.2252 H   0  0  0  0  0  0  0  0  0  0  0  0
   59.5340   30.7753   49.5180 H   0  0  0  0  0  0  0  0  0  0  0  0
   58.2282   31.3008   48.3657 H   0  0  0  0  0  0  0  0  0  0  0  0
   60.5840   31.7670   47.0640 H   0  0  0  0  0  0  0  0  0  0  0  0
   60.9210   30.3980   47.8250 H   0  0  0  0  0  0  0  0  0  0  0  0
   59.1170   32.8505   46.0314 H   0  0  0  0  0  0  0  0  0  0  0  0
   57.9937   33.8922   44.0821 H   0  0  0  0  0  0  0  0  0  0  0  0
   56.8913   32.4766   42.3655 H   0  0  0  0  0  0  0  0  0  0  0  0
   56.9179   30.0068   42.5842 H   0  0  0  0  0  0  0  0  0  0  0  0
   57.6719   26.7722   43.5934 H   0  0  0  0  0  0  0  0  0  0  0  0
   57.0763   28.2255   42.7218 H   0  0  0  0  0  0  0  0  0  0  0  0
   58.8294   27.8338   42.7218 H   0  0  0  0  0  0  0  0  0  0  0  0
   57.0130   25.9860   44.2840 H   0  0  0  0  0  0  0  0  0  0  0  0
   55.6587   25.9525   46.9646 H   0  0  0  0  0  0  0  0  0  0  0  0
   54.9757   25.4083   45.3805 H   0  0  0  0  0  0  0  0  0  0  0  0
   57.2019   23.8948   46.8105 H   0  0  0  0  0  0  0  0  0  0  0  0
   55.4475   23.5787   47.1107 H   0  0  0  0  0  0  0  0  0  0  0  0
   54.4672   24.0054   44.2692 H   0  0  0  0  0  0  0  0  0  0  0  0
   56.0722   24.7564   43.9103 H   0  0  0  0  0  0  0  0  0  0  0  0
   54.6382   22.9549   42.2665 H   0  0  0  0  0  0  0  0  0  0  0  0
   56.3599   23.4780   42.0831 H   0  0  0  0  0  0  0  0  0  0  0  0
   57.6724   20.6747   43.8073 H   0  0  0  0  0  0  0  0  0  0  0  0
   58.0454   22.1231   42.7775 H   0  0  0  0  0  0  0  0  0  0  0  0
   57.8870   21.9987   45.6294 H   0  0  0  0  0  0  0  0  0  0  0  0
   58.1192   23.4484   44.5833 H   0  0  0  0  0  0  0  0  0  0  0  0
   58.4171   24.9372   47.2696 H   0  0  0  0  0  0  0  0  0  0  0  0
   60.0456   26.0942   48.7268 H   0  0  0  0  0  0  0  0  0  0  0  0
  1  2  1  0
  2  3  1  0
  3  4  1  0
  4  5  1  0
  3  6  1  0
  6  7  1  0
  7  8  1  0
  8  9  1  0
  9 10  2  0
 10 11  1  0
 11 12  2  0
 12 13  1  0
 13 14  2  0
 14 15  1  0
 15 16  2  0
 16 17  1  0
 16 18  1  0
 18 19  2  0
 19 20  1  0
 20 21  1  0
 21 22  1  0
 22 23  1  0
 23 24  1  0
 24 25  1  0
 25 26  1  0
 26 27  1  0
 27 28  1  0
 19 29  1  0
 29 30  2  0
 30 31  1  0
 31 32  1  0
 31 33  2  0
 33  9  1  0
 15 10  1  0
 33 18  1  0
 28 23  1  0
  1 34  1  0
  1 35  1  0
  1 36  1  0
  2 37  1  0
  2 38  1  0
  4 39  1  0
  4 40  1  0
  5 41  1  0
  5 42  1  0
  5 43  1  0
  6 44  1  0
  6 45  1  0
  7 46  1  0
  7 47  1  0
  8 48  1  0
  8 49  1  0
 11 50  1  0
 12 51  1  0
 13 52  1  0
 14 53  1  0
 17 54  1  0
 17 55  1  0
 17 56  1  0
 20 57  1  0
 21 58  1  0
 21 59  1  0
 22 60  1  0
 22 61  1  0
 24 62  1  0
 24 63  1  0
 25 64  1  0
 25 65  1  0
 27 66  1  0
 27 67  1  0
 28 68  1  0
 28 69  1  0
 29 70  1  0
 30 71  1  0
M  CHG  2   8   1  16   1
M  END
>  <UniqueID>  (39) 
39

>  <SMILES>  (39) 
CCN(CC)CC[NH2+]c1c2ccccc2[n+](C)c2c(NCCN3CCOCC3)ccc(F)c12

>  <Energy>  (39) 
129.03485880806105

>  <Genealogy>  (39) 
CCN(CC)CC[NH2+]c1c2ccccc2[n+](C)c2c(NCCN3CCOCC3)ccc(F)c12 (protonated)
CCN(CC)CC[NH2+]c1c2ccccc2[n+](C)c2c(NCCN3CCOCC3)ccc(F)c12 (3D coordinates assigned)
CCN(CC)CC[NH2+]c1c2ccccc2[n+](C)c2c(NCCN3CCOCC3)ccc(F)c12 (nonaromatic ring conformer: 129.03485880806105 kcal/mol)

>  <smiles>  (39) 
CCN(CC)CCNc1c2ccccc2[n+](C)c2c(NCCN3CCOCC3)ccc(F)c12

>  <score_type>  (39) 
oracle

>  <origin>  (39) 
adg

>  <m_score__min__energy>  (39) 
-5.4500000000000002

>  <m_primary>  (39) 
energy

$$$$
39:0
     RDKit          3D

 50 53  0  0  0  0  0  0  0  0999 V2000
   59.7740   29.1670   45.6340 C   0  0  0  0  0  0  0  0  0  0  0  0
   58.5950   29.1500   46.5210 N   0  0  0  0  0  0  0  0  0  0  0  0
   57.4530   28.5620   45.8020 C   0  0  0  0  0  0  0  0  0  0  0  0
   58.8690   28.3830   47.7570 C   0  0  0  0  0  0  0  0  0  0  0  0
   60.3750   28.2690   48.0340 C   0  0  0  0  0  0  0  0  0  0  0  0
   60.7220   28.6170   49.4860 C   0  0  0  0  0  0  0  0  0  0  0  0
   60.4420   30.0270   49.7460 N   0  0  0  0  0  0  0  0  0  0  0  0
   61.1150   31.0560   49.0070 C   0  0  0  0  0  0  0  0  0  0  0  0
   62.4280   31.4780   49.3210 C   0  0  0  0  0  0  0  0  0  0  0  0
   63.1630   30.8430   50.3420 C   0  0  0  0  0  0  0  0  0  0  0  0
   64.4330   31.2960   50.6880 C   0  0  0  0  0  0  0  0  0  0  0  0
   64.9920   32.3870   50.0290 C   0  0  0  0  0  0  0  0  0  0  0  0
   64.3010   33.0140   48.9910 C   0  0  0  0  0  0  0  0  0  0  0  0
   63.0260   32.5550   48.5810 C   0  0  0  0  0  0  0  0  0  0  0  0
   62.3530   33.1270   47.5100 N   0  0  0  0  0  0  0  0  0  0  0  0
   63.0270   34.0380   46.5690 C   0  0  0  0  0  0  0  0  0  0  0  0
   61.0500   32.7580   47.2960 C   0  0  0  0  0  0  0  0  0  0  0  0
   60.4520   31.7260   47.9860 C   0  0  0  0  0  0  0  0  0  0  0  0
   59.1770   31.5290   47.5860 N   0  0  0  0  0  0  0  0  0  0  0  0
   58.9540   32.4700   46.6470 C   0  0  0  0  0  0  0  0  0  0  0  0
   57.7520   32.7040   45.9830 C   0  0  0  0  0  0  0  0  0  0  0  0
   57.6870   33.7890   45.0940 C   0  0  0  0  0  0  0  0  0  0  0  0
   58.8050   34.6270   44.9080 C   0  0  0  0  0  0  0  0  0  0  0  0
   60.0070   34.3790   45.5950 C   0  0  0  0  0  0  0  0  0  0  0  0
   60.0700   33.2630   46.4410 C   0  0  0  0  0  0  0  0  0  0  0  0
   60.6904   29.1802   46.2424 H   0  0  0  0  0  0  0  0  0  0  0  0
   59.7682   28.2687   44.9992 H   0  0  0  0  0  0  0  0  0  0  0  0
   59.7423   30.0648   44.9992 H   0  0  0  0  0  0  0  0  0  0  0  0
   56.7182   28.1837   46.5279 H   0  0  0  0  0  0  0  0  0  0  0  0
   56.9826   29.3300   45.1704 H   0  0  0  0  0  0  0  0  0  0  0  0
   57.8049   27.7330   45.1704 H   0  0  0  0  0  0  0  0  0  0  0  0
   58.3881   28.8914   48.6057 H   0  0  0  0  0  0  0  0  0  0  0  0
   58.4671   27.3675   47.6259 H   0  0  0  0  0  0  0  0  0  0  0  0
   60.6960   27.2368   47.8302 H   0  0  0  0  0  0  0  0  0  0  0  0
   60.8949   28.9850   47.3805 H   0  0  0  0  0  0  0  0  0  0  0  0
   60.1179   27.9954   50.1632 H   0  0  0  0  0  0  0  0  0  0  0  0
   61.7918   28.4256   49.6558 H   0  0  0  0  0  0  0  0  0  0  0  0
   60.0680   30.2730   50.6910 H   0  0  0  0  0  0  0  0  0  0  0  0
   62.7291   29.9813   50.8705 H   0  0  0  0  0  0  0  0  0  0  0  0
   64.9969   30.7897   51.4853 H   0  0  0  0  0  0  0  0  0  0  0  0
   65.9838   32.7571   50.3279 H   0  0  0  0  0  0  0  0  0  0  0  0
   64.7542   33.8784   48.4835 H   0  0  0  0  0  0  0  0  0  0  0  0
   63.5888   34.7974   47.1326 H   0  0  0  0  0  0  0  0  0  0  0  0
   63.7198   33.4643   45.9358 H   0  0  0  0  0  0  0  0  0  0  0  0
   62.2757   34.5327   45.9358 H   0  0  0  0  0  0  0  0  0  0  0  0
   58.4910   30.8310   47.9520 H   0  0  0  0  0  0  0  0  0  0  0  0
   56.8783   32.0570   46.1504 H   0  0  0  0  0  0  0  0  0  0  0  0
   56.7578   33.9862   44.5393 H   0  0  0  0  0  0  0  0  0  0  0  0
   58.7369   35.4823   44.2196 H   0  0  0  0  0  0  0  0  0  0  0  0
   60.8750   35.0434   45.4717 H   0  0  0  0  0  0  0  0  0  0  0  0
  1  2  1  0
  2  3  1  0
  2  4  1  0
  4  5  1  0
  5  6  1  0
  6  7  1  0
  7  8  1  0
  8  9  2  0
  9 10  1  0
 10 11  2  0
 11 12  1  0
 12 13  2  0
 13 14  1  0
 14 15  2  0
 15 16  1  0
 15 17  1  0
 17 18  2  0
 18 19  1  0
 19 20  1  0
 20 21  2  0
 21 22  1  0
 22 23  2  0
 23 24  1  0
 24 25  2  0
 18  8  1  0
 25 20  1  0
 14  9  1  0
 25 17  1  0
  1 26  1  0
  1 27  1  0
  1 28  1  0
  3 29  1  0
  3 30  1  0
  3 31  1  0
  4 32  1  0
  4 33  1  0
  5 34  1  0
  5 35  1  0
  6 36  1  0
  6 37  1  0
  7 38  1  0
 10 39  1  0
 11 40  1  0
 12 41  1  0
 13 42  1  0
 16 43  1  0
 16 44  1  0
 16 45  1  0
 19 46  1  0
 21 47  1  0
 22 48  1  0
 23 49  1  0
 24 50  1  0
M  CHG  1  15   1
M  END
>  <UniqueID>  (40) 
40

>  <SMILES>  (40) 
CN(C)CCCNc1c2ccccc2[n+](C)c2c1[nH]c1ccccc12

>  <Energy>  (40) 
110.45313996589361

>  <Genealogy>  (40) 
CN(C)CCCNc1c2ccccc2[n+](C)c2c1[nH]c1ccccc12 (3D coordinates assigned)
CN(C)CCCNc1c2ccccc2[n+](C)c2c1[nH]c1ccccc12 (optimized conformer: 110.45313996589361 kcal/mol)

>  <smiles>  (40) 
CN(C)CCCNc1c2ccccc2[n+](C)c2c1[nH]c1ccccc12

>  <score_type>  (40) 
oracle

>  <origin>  (40) 
adg

>  <m_score__min__energy>  (40) 
-6.2000000000000002

>  <m_primary>  (40) 
energy

$$$$
