0:0
     RDKit          3D

 34 35  0  0  0  0  0  0  0  0999 V2000
   57.6980   25.6390   44.1680 C   0  0  0  0  0  0  0  0  0  0  0  0
   58.1080   26.5050   42.9750 C   0  0  0  0  0  0  0  0  0  0  0  0
   57.7290   27.9200   43.1490 N   0  0  0  0  0  0  0  0  0  0  0  0
   58.4740   28.5480   44.2210 C   0  0  0  0  0  0  0  0  0  0  0  0
   59.8020   28.1350   44.4530 C   0  0  0  0  0  0  0  0  0  0  0  0
   60.5730   28.7240   45.4530 C   0  0  0  0  0  0  0  0  0  0  0  0
   60.0390   29.7420   46.2360 C   0  0  0  0  0  0  0  0  0  0  0  0
   58.7310   30.1750   46.0250 C   0  0  0  0  0  0  0  0  0  0  0  0
   57.9250   29.5910   45.0280 C   0  0  0  0  0  0  0  0  0  0  0  0
   56.5450   30.1170   44.8610 C   0  0  0  0  0  0  0  0  0  0  0  0
   55.5560   29.3380   44.8360 O   0  0  0  0  0  0  0  0  0  0  0  0
   56.3430   31.5300   44.7120 N   0  0  0  0  0  0  0  0  0  0  0  0
   57.2520   32.5710   45.0980 C   0  0  0  0  0  0  0  0  0  0  0  0
   58.1810   33.0360   44.1580 C   0  0  0  0  0  0  0  0  0  0  0  0
   59.0970   34.0350   44.5010 C   0  0  0  0  0  0  0  0  0  0  0  0
   59.1020   34.5650   45.7930 C   0  0  0  0  0  0  0  0  0  0  0  0
   58.1970   34.0910   46.7460 C   0  0  0  0  0  0  0  0  0  0  0  0
   57.2790   33.0920   46.4060 C   0  0  0  0  0  0  0  0  0  0  0  0
   57.9458   26.1623   45.1033 H   0  0  0  0  0  0  0  0  0  0  0  0
   56.6150   25.4504   44.1292 H   0  0  0  0  0  0  0  0  0  0  0  0
   58.2385   24.6817   44.1292 H   0  0  0  0  0  0  0  0  0  0  0  0
   59.1996   26.4443   42.8533 H   0  0  0  0  0  0  0  0  0  0  0  0
   57.5810   26.1239   42.0878 H   0  0  0  0  0  0  0  0  0  0  0  0
   57.8820   28.4400   42.2530 H   0  0  0  0  0  0  0  0  0  0  0  0
   56.7030   27.9930   43.3320 H   0  0  0  0  0  0  0  0  0  0  0  0
   60.2361   27.3353   43.8349 H   0  0  0  0  0  0  0  0  0  0  0  0
   61.6050   28.3836   45.6234 H   0  0  0  0  0  0  0  0  0  0  0  0
   60.6504   30.2065   47.0237 H   0  0  0  0  0  0  0  0  0  0  0  0
   58.3218   30.9851   46.6465 H   0  0  0  0  0  0  0  0  0  0  0  0
   58.1898   32.6121   43.1430 H   0  0  0  0  0  0  0  0  0  0  0  0
   59.8141   34.4037   43.7528 H   0  0  0  0  0  0  0  0  0  0  0  0
   59.8185   35.3557   46.0604 H   0  0  0  0  0  0  0  0  0  0  0  0
   58.2064   34.5042   47.7654 H   0  0  0  0  0  0  0  0  0  0  0  0
   56.5763   32.7123   47.1623 H   0  0  0  0  0  0  0  0  0  0  0  0
  1  2  1  0
  2  3  1  0
  3  4  1  0
  4  5  2  0
  5  6  1  0
  6  7  2  0
  7  8  1  0
  8  9  2  0
  9 10  1  0
 10 11  2  0
 10 12  1  0
 12 13  1  0
 13 14  2  0
 14 15  1  0
 15 16  2  0
 16 17  1  0
 17 18  2  0
  9  4  1  0
 18 13  1  0
  1 19  1  0
  1 20  1  0
  1 21  1  0
  2 22  1  0
  2 23  1  0
  3 24  1  0
  3 25  1  0
  5 26  1  0
  6 27  1  0
  7 28  1  0
  8 29  1  0
 14 30  1  0
 15 31  1  0
 16 32  1  0
 17 33  1  0
 18 34  1  0
M  CHG  2   3   1  12  -1
M  END
>  <UniqueID>  (1) 
1

>  <SMILES>  (1) 
CC[NH2+]c1ccccc1C(=O)[N-]c1ccccc1

>  <Energy>  (1) 
43.498108227158646

>  <Genealogy>  (1) 
CC[NH2+]c1ccccc1C(=O)[N-]c1ccccc1 (protonated)
CC[NH2+]c1ccccc1C(=O)[N-]c1ccccc1 (3D coordinates assigned)
CC[NH2+]c1ccccc1C(=O)[N-]c1ccccc1 (optimized conformer: 43.498108227158646 kcal/mol)

>  <smiles>  (1) 
CCNc1ccccc1C(=O)Nc1ccccc1

>  <score_type>  (1) 
oracle

>  <origin>  (1) 
adg

>  <m_score__min__energy>  (1) 
-7.3899999999999997

>  <m_primary>  (1) 
energy

$$$$
1:0
     RDKit          3D

 27 28  0  0  0  0  0  0  0  0999 V2000
   59.6450   35.2890   46.4320 C   0  0  0  0  0  0  0  0  0  0  0  0
   59.1920   34.7900   45.1780 O   0  0  0  0  0  0  0  0  0  0  0  0
   58.5800   33.5410   44.9970 C   0  0  0  0  0  0  0  0  0  0  0  0
   58.1400   33.0900   43.7370 C   0  0  0  0  0  0  0  0  0  0  0  0
   57.5350   31.8360   43.6110 C   0  0  0  0  0  0  0  0  0  0  0  0
   57.3580   31.0200   44.7350 C   0  0  0  0  0  0  0  0  0  0  0  0
   56.6130   29.4330   44.5590 S   0  0  0  0  0  0  0  0  0  0  0  0
   56.7680   28.9720   43.1370 O   0  0  0  0  0  0  0  0  0  0  0  0
   55.1450   29.5120   44.8760 O   0  0  0  0  0  0  0  0  0  0  0  0
   57.3810   28.2930   45.6150 N   0  0  0  0  0  0  0  0  0  0  0  0
   58.5320   27.7170   44.9270 C   0  0  0  0  0  0  0  0  0  0  0  0
   59.7360   28.6400   44.8590 C   0  0  0  0  0  0  0  0  0  0  0  0
   59.7070   27.4950   45.8600 C   0  0  0  0  0  0  0  0  0  0  0  0
   57.7990   31.4650   45.9880 C   0  0  0  0  0  0  0  0  0  0  0  0
   58.4040   32.7190   46.1160 C   0  0  0  0  0  0  0  0  0  0  0  0
   59.1476   34.7411   47.2459 H   0  0  0  0  0  0  0  0  0  0  0  0
   60.7337   35.1520   46.5095 H   0  0  0  0  0  0  0  0  0  0  0  0
   59.4037   36.3594   46.5095 H   0  0  0  0  0  0  0  0  0  0  0  0
   58.2729   33.7264   42.8497 H   0  0  0  0  0  0  0  0  0  0  0  0
   57.1963   31.4886   42.6238 H   0  0  0  0  0  0  0  0  0  0  0  0
   57.9818   27.1123   44.1911 H   0  0  0  0  0  0  0  0  0  0  0  0
   60.4139   28.5976   43.9937 H   0  0  0  0  0  0  0  0  0  0  0  0
   59.8881   29.7275   44.9241 H   0  0  0  0  0  0  0  0  0  0  0  0
   60.3644   26.6244   45.7191 H   0  0  0  0  0  0  0  0  0  0  0  0
   59.8299   27.4113   46.9499 H   0  0  0  0  0  0  0  0  0  0  0  0
   57.6689   30.8259   46.8738 H   0  0  0  0  0  0  0  0  0  0  0  0
   58.7444   33.0623   47.1041 H   0  0  0  0  0  0  0  0  0  0  0  0
  1  2  1  0
  2  3  1  0
  3  4  2  0
  4  5  1  0
  5  6  2  0
  6  7  1  0
  7  8  2  0
  7  9  2  0
  7 10  1  0
 10 11  1  0
 11 12  1  0
 12 13  1  0
  6 14  1  0
 14 15  2  0
 15  3  1  0
 13 11  1  0
  1 16  1  0
  1 17  1  0
  1 18  1  0
  4 19  1  0
  5 20  1  0
 11 21  1  0
 12 22  1  0
 12 23  1  0
 13 24  1  0
 13 25  1  0
 14 26  1  0
 15 27  1  0
M  CHG  1  10  -1
M  END
>  <UniqueID>  (2) 
2

>  <SMILES>  (2) 
COc1ccc(S(=O)(=O)[N-]C2CC2)cc1

>  <Energy>  (2) 
287.84301534021455

>  <Genealogy>  (2) 
COc1ccc(S(=O)(=O)[N-]C2CC2)cc1 (protonated)
COc1ccc(S(=O)(=O)[N-]C2CC2)cc1 (3D coordinates assigned)
COc1ccc(S(=O)(=O)[N-]C2CC2)cc1 (nonaromatic ring conformer: 287.84301534021455 kcal/mol)

>  <smiles>  (2) 
COc1ccc(S(=O)(=O)NC2CC2)cc1

>  <score_type>  (2) 
oracle

>  <origin>  (2) 
adg

>  <m_score__min__energy>  (2) 
-6.9100000000000001

>  <m_primary>  (2) 
energy

$$$$
2:0
     RDKit          3D

 23 24  0  0  0  0  0  0  0  0999 V2000
   53.0720   30.1530   48.9820 H   0  0  0  0  0  0  0  0  0  0  0  0
   52.1160   30.0900   49.3970 N   0  0  0  0  0  0  0  0  0  0  0  0
   51.7400   30.8900   50.3420 C   0  0  0  0  0  0  0  0  0  0  0  0
   51.6790   30.5830   51.6880 C   0  0  0  0  0  0  0  0  0  0  0  0
   51.9950   29.2930   52.3410 C   0  0  0  0  0  0  0  0  0  0  0  0
   53.2640   29.0650   52.9010 C   0  0  0  0  0  0  0  0  0  0  0  0
   54.0308   29.8524   52.8567 H   0  0  0  0  0  0  0  0  0  0  0  0
   53.5570   27.8430   53.5140 C   0  0  0  0  0  0  0  0  0  0  0  0
   54.5516   27.6729   53.9521 H   0  0  0  0  0  0  0  0  0  0  0  0
   52.5880   26.8370   53.5710 C   0  0  0  0  0  0  0  0  0  0  0  0
   52.8770   25.6540   54.1670 F   0  0  0  0  0  0  0  0  0  0  0  0
   51.3250   27.0520   53.0110 C   0  0  0  0  0  0  0  0  0  0  0  0
   50.3840   26.0770   53.0670 F   0  0  0  0  0  0  0  0  0  0  0  0
   51.0300   28.2730   52.3980 C   0  0  0  0  0  0  0  0  0  0  0  0
   50.0356   28.4366   51.9571 H   0  0  0  0  0  0  0  0  0  0  0  0
   51.2470   31.7720   52.2680 C   0  0  0  0  0  0  0  0  0  0  0  0
   50.9890   32.0260   53.7190 C   0  0  0  0  0  0  0  0  0  0  0  0
   51.6428   31.3823   54.3258 H   0  0  0  0  0  0  0  0  0  0  0  0
   51.1973   33.0813   53.9492 H   0  0  0  0  0  0  0  0  0  0  0  0
   49.9371   31.8012   53.9492 H   0  0  0  0  0  0  0  0  0  0  0  0
   51.0820   32.7160   51.3150 N   0  0  0  0  0  0  0  0  0  0  0  0
   51.3810   32.1710   50.1460 N   0  0  0  0  0  0  0  0  0  0  0  0
   51.3440   32.6770   49.2340 H   0  0  0  0  0  0  0  0  0  0  0  0
  1  2  1  0
  2  3  2  0
  3  4  1  0
  4  5  1  0
  5  6  2  0
  6  7  1  0
  6  8  1  0
  8  9  1  0
  8 10  2  0
 10 11  1  0
 10 12  1  0
 12 13  1  0
 12 14  2  0
 14 15  1  0
  4 16  2  0
 16 17  1  0
 17 18  1  0
 17 19  1  0
 17 20  1  0
 16 21  1  0
 21 22  1  0
 22 23  1  0
 22  3  1  0
 14  5  1  0
M  CHG  1  21  -1
M  END
>  <UniqueID>  (3) 
3

>  <SMILES>  (3) 
[H]/N=c1\[nH][n-]c(C)c1-c1ccc(F)c(F)c1

>  <Energy>  (3) 
59.17785374197399

>  <Genealogy>  (3) 
Cc1[n-][nH]c(=N)c1-c1ccc(F)c(F)c1 (protonated)
[H]/N=c1\[nH][n-]c(C)c1-c1ccc(F)c(F)c1 (cis-trans isomerization)
[H]/N=c1\[nH][n-]c(C)c1-c1ccc(F)c(F)c1 (3D coordinates assigned)
[H]/N=c1\[nH][n-]c(C)c1-c1ccc(F)c(F)c1 (optimized conformer: 59.17785374197399 kcal/mol)

>  <smiles>  (3) 
Cc1[nH][nH]c(=N)c1-c1ccc(F)c(F)c1

>  <score_type>  (3) 
oracle

>  <origin>  (3) 
adg

>  <m_score__min__energy>  (3) 
-7.9199999999999999

>  <m_primary>  (3) 
energy

$$$$
3:0
     RDKit          3D

 54 59  0  0  0  0  0  0  0  0999 V2000
   63.0100   33.8530   52.0680 C   0  0  0  0  0  0  0  0  0  0  0  0
   63.0620   34.4610   50.7800 O   0  0  0  0  0  0  0  0  0  0  0  0
   62.8440   33.7870   49.5680 C   0  0  0  0  0  0  0  0  0  0  0  0
   61.7420   34.0880   48.7410 C   0  0  0  0  0  0  0  0  0  0  0  0
   61.5620   33.4340   47.5100 C   0  0  0  0  0  0  0  0  0  0  0  0
   60.3990   33.7740   46.6520 C   0  0  0  0  0  0  0  0  0  0  0  0
   59.9720   35.0520   46.2920 C   0  0  0  0  0  0  0  0  0  0  0  0
   58.9150   34.9510   45.4520 N   0  0  0  0  0  0  0  0  0  0  0  0
   58.7200   33.6270   45.3060 C   0  0  0  0  0  0  0  0  0  0  0  0
   57.7740   33.0040   44.5030 C   0  0  0  0  0  0  0  0  0  0  0  0
   57.7820   31.6010   44.4710 C   0  0  0  0  0  0  0  0  0  0  0  0
   58.7350   30.8820   45.2310 C   0  0  0  0  0  0  0  0  0  0  0  0
   58.7420   29.3990   45.2410 C   0  0  0  0  0  0  0  0  0  0  0  0
   58.1720   28.7230   44.1450 C   0  0  0  0  0  0  0  0  0  0  0  0
   58.0980   27.3310   44.1210 C   0  0  0  0  0  0  0  0  0  0  0  0
   58.5810   26.5820   45.1910 C   0  0  0  0  0  0  0  0  0  0  0  0
   59.1610   27.2220   46.2960 C   0  0  0  0  0  0  0  0  0  0  0  0
   59.6530   26.4620   47.3640 C   0  0  0  0  0  0  0  0  0  0  0  0
   60.2430   27.1060   48.4500 C   0  0  0  0  0  0  0  0  0  0  0  0
   60.3620   28.4580   48.4600 N   0  0  0  0  0  0  0  0  0  0  0  0
   59.8990   29.2290   47.4380 C   0  0  0  0  0  0  0  0  0  0  0  0
   59.2580   28.6380   46.3270 C   0  0  0  0  0  0  0  0  0  0  0  0
   59.6270   31.5730   46.0010 N   0  0  0  0  0  0  0  0  0  0  0  0
   59.5900   32.9030   46.0190 N   0  0  0  0  0  0  0  0  0  0  0  0
   62.4930   32.4630   47.1130 C   0  0  0  0  0  0  0  0  0  0  0  0
   63.5860   32.1560   47.9250 C   0  0  0  0  0  0  0  0  0  0  0  0
   63.7680   32.8010   49.1580 C   0  0  0  0  0  0  0  0  0  0  0  0
   64.8850   32.4390   49.9900 N   0  0  0  0  0  0  0  0  0  0  0  0
   65.0070   31.3460   50.7740 C   0  0  0  0  0  0  0  0  0  0  0  0
   66.2090   31.2750   51.3840 N   0  0  0  0  0  0  0  0  0  0  0  0
   66.8640   32.3690   50.9410 C   0  0  0  0  0  0  0  0  0  0  0  0
   68.2350   32.7570   51.3850 C   0  0  0  0  0  0  0  0  0  0  0  0
   66.0580   33.0910   50.0910 C   0  0  0  0  0  0  0  0  0  0  0  0
   63.0765   34.6304   52.8434 H   0  0  0  0  0  0  0  0  0  0  0  0
   62.0618   33.3062   52.1773 H   0  0  0  0  0  0  0  0  0  0  0  0
   63.8516   33.1531   52.1773 H   0  0  0  0  0  0  0  0  0  0  0  0
   61.0128   34.8456   49.0640 H   0  0  0  0  0  0  0  0  0  0  0  0
   60.4232   35.9942   46.6365 H   0  0  0  0  0  0  0  0  0  0  0  0
   58.3830   35.7310   45.0020 H   0  0  0  0  0  0  0  0  0  0  0  0
   57.0482   33.5861   43.9161 H   0  0  0  0  0  0  0  0  0  0  0  0
   57.0479   31.0604   43.8555 H   0  0  0  0  0  0  0  0  0  0  0  0
   57.7795   29.3015   43.2957 H   0  0  0  0  0  0  0  0  0  0  0  0
   57.6557   26.8216   43.2522 H   0  0  0  0  0  0  0  0  0  0  0  0
   58.5074   25.4847   45.1695 H   0  0  0  0  0  0  0  0  0  0  0  0
   59.5745   25.3650   47.3460 H   0  0  0  0  0  0  0  0  0  0  0  0
   60.6134   26.5167   49.3018 H   0  0  0  0  0  0  0  0  0  0  0  0
   60.0252   30.3210   47.4779 H   0  0  0  0  0  0  0  0  0  0  0  0
   62.3608   31.9395   46.1546 H   0  0  0  0  0  0  0  0  0  0  0  0
   64.3132   31.3997   47.5946 H   0  0  0  0  0  0  0  0  0  0  0  0
   64.2131   30.5953   50.9015 H   0  0  0  0  0  0  0  0  0  0  0  0
   68.2750   32.7683   52.4842 H   0  0  0  0  0  0  0  0  0  0  0  0
   68.9648   32.0301   50.9990 H   0  0  0  0  0  0  0  0  0  0  0  0
   68.4757   33.7585   50.9990 H   0  0  0  0  0  0  0  0  0  0  0  0
   66.3242   34.0310   49.5855 H   0  0  0  0  0  0  0  0  0  0  0  0
  1  2  1  0
  2  3  1  0
  3  4  2  0
  4  5  1  0
  5  6  1  0
  6  7  2  0
  7  8  1  0
  8  9  2  0
  9 10  1  0
 10 11  2  0
 11 12  1  0
 12 13  1  0
 13 14  2  0
 14 15  1  0
 15 16  2  0
 16 17  1  0
 17 18  2  0
 18 19  1  0
 19 20  2  0
 20 21  1  0
 21 22  2  0
 12 23  2  0
 23 24  1  0
  5 25  2  0
 25 26  1  0
 26 27  2  0
 27 28  1  0
 28 29  1  0
 29 30  2  0
 30 31  1  0
 31 32  1  0
 31 33  2  0
 27  3  1  0
 33 28  1  0
 24  6  1  0
 24  9  1  0
 22 13  1  0
 22 17  1  0
  1 34  1  0
  1 35  1  0
  1 36  1  0
  4 37  1  0
  7 38  1  0
  8 39  1  0
 10 40  1  0
 11 41  1  0
 14 42  1  0
 15 43  1  0
 16 44  1  0
 18 45  1  0
 19 46  1  0
 21 47  1  0
 25 48  1  0
 26 49  1  0
 29 50  1  0
 32 51  1  0
 32 52  1  0
 32 53  1  0
 33 54  1  0
M  CHG  1   8   1
M  END
>  <UniqueID>  (4) 
4

>  <SMILES>  (4) 
COc1cc(-c2c[nH+]c3ccc(-c4cccc5ccncc45)nn23)ccc1-n1cnc(C)c1

>  <Energy>  (4) 
148.28212066485756

>  <Genealogy>  (4) 
COc1cc(-c2c[nH+]c3ccc(-c4cccc5ccncc45)nn23)ccc1-n1cnc(C)c1 (protonated)
COc1cc(-c2c[nH+]c3ccc(-c4cccc5ccncc45)nn23)ccc1-n1cnc(C)c1 (3D coordinates assigned)
COc1cc(-c2c[nH+]c3ccc(-c4cccc5ccncc45)nn23)ccc1-n1cnc(C)c1 (optimized conformer: 148.28212066485756 kcal/mol)

>  <smiles>  (4) 
COc1cc(-c2cnc3ccc(-c4cccc5ccncc45)nn23)ccc1-n1cnc(C)c1

>  <score_type>  (4) 
oracle

>  <origin>  (4) 
adg

>  <m_score__min__energy>  (4) 
-8.8699999999999992

>  <m_primary>  (4) 
energy

$$$$
4:0
     RDKit          3D

 51 52  0  0  0  0  0  0  0  0999 V2000
   61.4210   31.5780   47.1220 C   0  0  0  0  0  0  0  0  0  0  0  0
   62.7970   31.5440   47.8050 C   0  0  0  0  0  0  0  0  0  0  0  0
   63.7060   32.6600   47.4300 N   0  0  1  0  0  0  0  0  0  0  0  0
   63.0660   33.5740   46.4650 C   0  0  0  0  0  0  0  0  0  0  0  0
   64.2450   33.4290   48.5790 C   0  0  0  0  0  0  0  0  0  0  0  0
   63.2620   33.5020   49.7610 C   0  0  0  0  0  0  0  0  0  0  0  0
   62.1050   34.4620   49.4620 C   0  0  0  0  0  0  0  0  0  0  0  0
   60.8140   33.7800   49.7060 N   0  0  0  0  0  0  0  0  0  0  0  0
   60.6360   33.4630   51.1390 C   0  0  0  0  0  0  0  0  0  0  0  0
   59.3740   32.6640   51.3360 C   0  0  0  0  0  0  0  0  0  0  0  0
   59.2440   31.4040   50.7280 C   0  0  0  0  0  0  0  0  0  0  0  0
   58.0680   30.6640   50.8880 C   0  0  0  0  0  0  0  0  0  0  0  0
   57.0160   31.1770   51.6510 C   0  0  0  0  0  0  0  0  0  0  0  0
   55.8750   30.4590   51.8040 F   0  0  0  0  0  0  0  0  0  0  0  0
   57.1380   32.4310   52.2580 C   0  0  0  0  0  0  0  0  0  0  0  0
   58.3130   33.1740   52.1010 C   0  0  0  0  0  0  0  0  0  0  0  0
   59.6780   34.5740   49.1910 C   0  0  0  0  0  0  0  0  0  0  0  0
   59.2310   34.0240   47.8630 C   0  0  0  0  0  0  0  0  0  0  0  0
   59.5980   34.6790   46.6760 C   0  0  0  0  0  0  0  0  0  0  0  0
   59.1660   34.1910   45.4390 C   0  0  0  0  0  0  0  0  0  0  0  0
   58.3630   33.0470   45.3790 C   0  0  0  0  0  0  0  0  0  0  0  0
   57.7720   32.3840   43.6890 Br  0  0  0  0  0  0  0  0  0  0  0  0
   57.9940   32.3900   46.5570 C   0  0  0  0  0  0  0  0  0  0  0  0
   58.4250   32.8760   47.7950 C   0  0  0  0  0  0  0  0  0  0  0  0
   60.6318   31.5975   47.8880 H   0  0  0  0  0  0  0  0  0  0  0  0
   61.3453   32.4783   46.4945 H   0  0  0  0  0  0  0  0  0  0  0  0
   61.3009   30.6825   46.4945 H   0  0  0  0  0  0  0  0  0  0  0  0
   62.6402   31.5810   48.8931 H   0  0  0  0  0  0  0  0  0  0  0  0
   63.2873   30.6184   47.4690 H   0  0  0  0  0  0  0  0  0  0  0  0
   64.5210   32.2290   46.9300 H   0  0  0  0  0  0  0  0  0  0  0  0
   62.5178   34.3569   47.0096 H   0  0  0  0  0  0  0  0  0  0  0  0
   63.8372   34.0385   45.8329 H   0  0  0  0  0  0  0  0  0  0  0  0
   62.3658   33.0082   45.8329 H   0  0  0  0  0  0  0  0  0  0  0  0
   65.1717   32.9456   48.9218 H   0  0  0  0  0  0  0  0  0  0  0  0
   64.4252   34.4578   48.2339 H   0  0  0  0  0  0  0  0  0  0  0  0
   62.8549   32.4980   49.9515 H   0  0  0  0  0  0  0  0  0  0  0  0
   63.8045   33.8746   50.6424 H   0  0  0  0  0  0  0  0  0  0  0  0
   62.1825   35.3428   50.1164 H   0  0  0  0  0  0  0  0  0  0  0  0
   62.1567   34.7776   48.4095 H   0  0  0  0  0  0  0  0  0  0  0  0
   61.4973   32.8770   51.4924 H   0  0  0  0  0  0  0  0  0  0  0  0
   60.5634   34.4002   51.7103 H   0  0  0  0  0  0  0  0  0  0  0  0
   60.0694   30.9984   50.1245 H   0  0  0  0  0  0  0  0  0  0  0  0
   57.9712   29.6768   50.4125 H   0  0  0  0  0  0  0  0  0  0  0  0
   56.3095   32.8335   52.8593 H   0  0  0  0  0  0  0  0  0  0  0  0
   58.4058   34.1607   52.5784 H   0  0  0  0  0  0  0  0  0  0  0  0
   58.8438   34.5241   49.9062 H   0  0  0  0  0  0  0  0  0  0  0  0
   59.9947   35.6196   49.0627 H   0  0  0  0  0  0  0  0  0  0  0  0
   60.2279   35.5797   46.7197 H   0  0  0  0  0  0  0  0  0  0  0  0
   59.4577   34.7069   44.5123 H   0  0  0  0  0  0  0  0  0  0  0  0
   57.3638   31.4897   46.5095 H   0  0  0  0  0  0  0  0  0  0  0  0
   58.1316   32.3571   48.7195 H   0  0  0  0  0  0  0  0  0  0  0  0
  1  2  1  0
  2  3  1  0
  3  4  1  0
  3  5  1  0
  5  6  1  0
  6  7  1  0
  7  8  1  0
  8  9  1  0
  9 10  1  0
 10 11  2  0
 11 12  1  0
 12 13  2  0
 13 14  1  0
 13 15  1  0
 15 16  2  0
  8 17  1  0
 17 18  1  0
 18 19  2  0
 19 20  1  0
 20 21  2  0
 21 22  1  0
 21 23  1  0
 23 24  2  0
 16 10  1  0
 24 18  1  0
  1 25  1  0
  1 26  1  0
  1 27  1  0
  2 28  1  0
  2 29  1  0
  3 30  1  6
  4 31  1  0
  4 32  1  0
  4 33  1  0
  5 34  1  0
  5 35  1  0
  6 36  1  0
  6 37  1  0
  7 38  1  0
  7 39  1  0
  9 40  1  0
  9 41  1  0
 11 42  1  0
 12 43  1  0
 15 44  1  0
 16 45  1  0
 17 46  1  0
 17 47  1  0
 19 48  1  0
 20 49  1  0
 23 50  1  0
 24 51  1  0
M  CHG  1   3   1
M  END
>  <UniqueID>  (5) 
5

>  <SMILES>  (5) 
CC[N@@H+](C)CCCN(Cc1ccc(F)cc1)Cc1ccc(Br)cc1

>  <Energy>  (5) 
50.749887399363146

>  <Genealogy>  (5) 
CC[NH+](C)CCCN(Cc1ccc(F)cc1)Cc1ccc(Br)cc1 (protonated)
CC[N@@H+](C)CCCN(Cc1ccc(F)cc1)Cc1ccc(Br)cc1 (chirality)
CC[N@@H+](C)CCCN(Cc1ccc(F)cc1)Cc1ccc(Br)cc1 (3D coordinates assigned)
CC[N@@H+](C)CCCN(Cc1ccc(F)cc1)Cc1ccc(Br)cc1 (optimized conformer: 50.749887399363146 kcal/mol)

>  <smiles>  (5) 
CCN(C)CCCN(Cc1ccc(F)cc1)Cc1ccc(Br)cc1

>  <score_type>  (5) 
oracle

>  <origin>  (5) 
adg

>  <m_score__min__energy>  (5) 
-5.5599999999999996

>  <m_primary>  (5) 
energy

$$$$
5:0
     RDKit          3D

 42 44  0  0  0  0  0  0  0  0999 V2000
   61.2480   28.1021   47.9260 H   0  0  0  0  0  0  0  0  0  0  0  0
   60.4250   28.6290   47.4210 C   0  0  0  0  0  0  0  0  0  0  0  0
   60.4990   29.9640   47.2140 N   0  0  0  0  0  0  0  0  0  0  0  0
   59.5280   30.6720   46.5690 C   0  0  0  0  0  0  0  0  0  0  0  0
   58.3780   29.9900   46.0580 C   0  0  0  0  0  0  0  0  0  0  0  0
   58.2880   28.6040   46.3310 C   0  0  0  0  0  0  0  0  0  0  0  0
   57.3934   28.0488   46.0126 H   0  0  0  0  0  0  0  0  0  0  0  0
   59.3100   27.9290   46.9950 C   0  0  0  0  0  0  0  0  0  0  0  0
   59.2311   26.8474   47.1793 H   0  0  0  0  0  0  0  0  0  0  0  0
   57.3910   30.7610   45.3540 C   0  0  0  0  0  0  0  0  0  0  0  0
   56.3430   30.3000   44.7200 N   0  0  0  0  0  0  0  0  0  0  0  0
   56.1000   29.6360   43.4410 C   0  0  0  0  0  0  0  0  0  0  0  0
   55.0160   29.5055   43.3072 H   0  0  0  0  0  0  0  0  0  0  0  0
   56.6148   28.6640   43.4555 H   0  0  0  0  0  0  0  0  0  0  0  0
   56.6540   30.4560   42.2600 C   0  0  0  0  0  0  0  0  0  0  0  0
   55.8130   30.8358   41.6612 H   0  0  0  0  0  0  0  0  0  0  0  0
   57.2979   29.8019   41.6538 H   0  0  0  0  0  0  0  0  0  0  0  0
   57.4600   31.5950   42.7330 N   0  0  0  0  0  0  0  0  0  0  0  0
   58.2070   31.2620   43.3870 H   0  0  0  0  0  0  0  0  0  0  0  0
   56.8370   32.2520   43.2590 H   0  0  0  0  0  0  0  0  0  0  0  0
   58.0690   32.3450   41.6200 C   0  0  0  0  0  0  0  0  0  0  0  0
   58.9309   31.7764   41.2409 H   0  0  0  0  0  0  0  0  0  0  0  0
   58.3730   33.3292   42.0060 H   0  0  0  0  0  0  0  0  0  0  0  0
   57.0880   32.5790   40.4660 C   0  0  0  0  0  0  0  0  0  0  0  0
   56.0937   32.8162   40.8724 H   0  0  0  0  0  0  0  0  0  0  0  0
   57.4415   33.4180   39.8487 H   0  0  0  0  0  0  0  0  0  0  0  0
   57.0247   31.6708   39.8487 H   0  0  0  0  0  0  0  0  0  0  0  0
   57.5550   32.1050   45.2870 N   0  0  0  0  0  0  0  0  0  0  0  0
   58.6150   32.7750   45.7920 C   0  0  0  0  0  0  0  0  0  0  0  0
   58.6680   34.1630   45.6480 C   0  0  0  0  0  0  0  0  0  0  0  0
   57.8454   34.6933   45.1459 H   0  0  0  0  0  0  0  0  0  0  0  0
   59.7570   34.8780   46.1370 C   0  0  0  0  0  0  0  0  0  0  0  0
   59.7921   35.9714   46.0223 H   0  0  0  0  0  0  0  0  0  0  0  0
   60.8020   34.2120   46.7710 C   0  0  0  0  0  0  0  0  0  0  0  0
   61.6601   34.7853   47.1518 H   0  0  0  0  0  0  0  0  0  0  0  0
   60.7740   32.8110   46.9310 C   0  0  0  0  0  0  0  0  0  0  0  0
   61.8320   32.1410   47.5700 O   0  0  0  0  0  0  0  0  0  0  0  0
   63.2060   32.5050   47.4740 C   0  0  0  0  0  0  0  0  0  0  0  0
   63.6272   32.6166   48.4840 H   0  0  0  0  0  0  0  0  0  0  0  0
   63.7559   31.7215   46.9319 H   0  0  0  0  0  0  0  0  0  0  0  0
   63.2959   33.4579   46.9319 H   0  0  0  0  0  0  0  0  0  0  0  0
   59.6570   32.0770   46.4350 C   0  0  0  0  0  0  0  0  0  0  0  0
  1  2  1  0
  2  3  2  0
  3  4  1  0
  4  5  2  0
  5  6  1  0
  6  7  1  0
  6  8  2  0
  8  9  1  0
  5 10  1  0
 10 11  2  0
 11 12  1  0
 12 13  1  0
 12 14  1  0
 12 15  1  0
 15 16  1  0
 15 17  1  0
 15 18  1  0
 18 19  1  0
 18 20  1  0
 18 21  1  0
 21 22  1  0
 21 23  1  0
 21 24  1  0
 24 25  1  0
 24 26  1  0
 24 27  1  0
 10 28  1  0
 28 29  1  0
 29 30  2  0
 30 31  1  0
 30 32  1  0
 32 33  1  0
 32 34  2  0
 34 35  1  0
 34 36  1  0
 36 37  1  0
 37 38  1  0
 38 39  1  0
 38 40  1  0
 38 41  1  0
 36 42  2  0
  8  2  1  0
 42 29  1  0
 42  4  1  0
M  CHG  2  18   1  28  -1
M  END
>  <UniqueID>  (6) 
6

>  <SMILES>  (6) 
CC[NH2+]CC/N=c1/[n-]c2cccc(OC)c2c2ncccc12

>  <Energy>  (6) 
68.27443971165704

>  <Genealogy>  (6) 
CC[NH2+]CCN=c1[n-]c2cccc(OC)c2c2ncccc12 (protonated)
CC[NH2+]CC/N=c1/[n-]c2cccc(OC)c2c2ncccc12 (cis-trans isomerization)
CC[NH2+]CC/N=c1/[n-]c2cccc(OC)c2c2ncccc12 (3D coordinates assigned)
CC[NH2+]CC/N=c1/[n-]c2cccc(OC)c2c2ncccc12 (optimized conformer: 68.27443971165704 kcal/mol)

>  <smiles>  (6) 
CCNCCN=c1[nH]c2cccc(OC)c2c2ncccc12

>  <score_type>  (6) 
oracle

>  <origin>  (6) 
adg

>  <m_score__min__energy>  (6) 
-6.4299999999999997

>  <m_primary>  (6) 
energy

$$$$
6:0
     RDKit          3D

 53 55  0  0  0  0  0  0  0  0999 V2000
   59.1244   34.4166   47.7466 H   0  0  0  0  0  0  0  0  0  0  0  0
   59.6070   33.9080   46.8990 C   0  0  0  0  0  0  0  0  0  0  0  0
   60.7770   34.3300   46.5170 N   0  0  0  0  0  0  0  0  0  0  0  0
   61.8270   33.5160   46.1310 O   0  0  0  0  0  0  0  0  0  0  0  0
   63.1930   33.8550   46.3780 C   0  0  0  0  0  0  0  0  0  0  0  0
   63.3221   34.9383   46.2377 H   0  0  0  0  0  0  0  0  0  0  0  0
   63.8191   33.2880   45.6733 H   0  0  0  0  0  0  0  0  0  0  0  0
   63.6250   33.4820   47.8110 C   0  0  0  0  0  0  0  0  0  0  0  0
   64.1580   34.3412   48.2443 H   0  0  0  0  0  0  0  0  0  0  0  0
   64.2557   32.5849   47.7252 H   0  0  0  0  0  0  0  0  0  0  0  0
   62.5020   33.1260   48.7180 N   0  0  1  0  0  0  0  0  0  0  0  0
   61.5990   33.2450   48.2070 H   0  0  0  0  0  0  0  0  0  0  0  0
   62.6140   31.6950   49.0740 C   0  0  0  0  0  0  0  0  0  0  0  0
   62.6223   31.5891   50.1689 H   0  0  0  0  0  0  0  0  0  0  0  0
   61.7561   31.1457   48.6590 H   0  0  0  0  0  0  0  0  0  0  0  0
   63.5469   31.2858   48.6590 H   0  0  0  0  0  0  0  0  0  0  0  0
   62.5040   33.9700   49.9420 C   0  0  0  0  0  0  0  0  0  0  0  0
   61.6567   33.6712   50.5767 H   0  0  0  0  0  0  0  0  0  0  0  0
   62.4228   35.0192   49.6218 H   0  0  0  0  0  0  0  0  0  0  0  0
   63.7970   33.8330   50.7540 C   0  0  0  0  0  0  0  0  0  0  0  0
   63.5600   33.8581   51.8279 H   0  0  0  0  0  0  0  0  0  0  0  0
   64.2848   32.8781   50.5084 H   0  0  0  0  0  0  0  0  0  0  0  0
   64.4740   34.6644   50.5084 H   0  0  0  0  0  0  0  0  0  0  0  0
   58.8890   32.7860   46.2610 C   0  0  0  0  0  0  0  0  0  0  0  0
   59.2380   31.4490   46.5140 C   0  0  0  0  0  0  0  0  0  0  0  0
   60.0734   31.2209   47.1923 H   0  0  0  0  0  0  0  0  0  0  0  0
   58.5300   30.4070   45.9090 C   0  0  0  0  0  0  0  0  0  0  0  0
   58.8225   29.3644   46.1026 H   0  0  0  0  0  0  0  0  0  0  0  0
   57.4470   30.6800   45.0550 C   0  0  0  0  0  0  0  0  0  0  0  0
   56.6980   29.5760   44.4090 C   0  0  0  0  0  0  0  0  0  0  0  0
   56.6950   29.4710   43.1530 O   0  0  0  0  0  0  0  0  0  0  0  0
   55.9360   28.6610   45.2100 N   0  0  0  0  0  0  0  0  0  0  0  0
   56.3730   27.3830   45.6980 C   0  0  0  0  0  0  0  0  0  0  0  0
   57.7510   27.1460   45.8170 C   0  0  0  0  0  0  0  0  0  0  0  0
   58.4661   27.9370   45.5471 H   0  0  0  0  0  0  0  0  0  0  0  0
   58.2220   25.9120   46.2760 C   0  0  0  0  0  0  0  0  0  0  0  0
   59.3035   25.7384   46.3776 H   0  0  0  0  0  0  0  0  0  0  0  0
   57.3180   24.9010   46.6050 C   0  0  0  0  0  0  0  0  0  0  0  0
   55.9420   25.1100   46.4390 C   0  0  0  0  0  0  0  0  0  0  0  0
   55.4670   26.3480   45.9960 C   0  0  0  0  0  0  0  0  0  0  0  0
   54.3856   26.5131   45.8804 H   0  0  0  0  0  0  0  0  0  0  0  0
   55.0580   24.0620   46.7170 O   0  0  0  0  0  0  0  0  0  0  0  0
   55.5310   22.7250   46.9030 C   0  0  0  0  0  0  0  0  0  0  0  0
   54.7828   22.1504   47.4687 H   0  0  0  0  0  0  0  0  0  0  0  0
   55.6946   22.2621   45.9186 H   0  0  0  0  0  0  0  0  0  0  0  0
   56.8550   22.7340   47.6780 C   0  0  0  0  0  0  0  0  0  0  0  0
   56.6620   23.0181   48.7230 H   0  0  0  0  0  0  0  0  0  0  0  0
   57.3006   21.7291   47.6372 H   0  0  0  0  0  0  0  0  0  0  0  0
   57.7640   23.6700   47.0950 O   0  0  0  0  0  0  0  0  0  0  0  0
   57.0840   32.0200   44.8260 C   0  0  0  0  0  0  0  0  0  0  0  0
   56.2355   32.2501   44.1648 H   0  0  0  0  0  0  0  0  0  0  0  0
   57.7930   33.0610   45.4320 C   0  0  0  0  0  0  0  0  0  0  0  0
   57.4886   34.1035   45.2570 H   0  0  0  0  0  0  0  0  0  0  0  0
  1  2  1  0
  2  3  2  0
  3  4  1  0
  4  5  1  0
  5  6  1  0
  5  7  1  0
  5  8  1  0
  8  9  1  0
  8 10  1  0
  8 11  1  0
 11 12  1  6
 11 13  1  0
 13 14  1  0
 13 15  1  0
 13 16  1  0
 11 17  1  0
 17 18  1  0
 17 19  1  0
 17 20  1  0
 20 21  1  0
 20 22  1  0
 20 23  1  0
  2 24  1  0
 24 25  2  0
 25 26  1  0
 25 27  1  0
 27 28  1  0
 27 29  2  0
 29 30  1  0
 30 31  2  0
 30 32  1  0
 32 33  1  0
 33 34  2  0
 34 35  1  0
 34 36  1  0
 36 37  1  0
 36 38  2  0
 38 39  1  0
 39 40  2  0
 40 41  1  0
 39 42  1  0
 42 43  1  0
 43 44  1  0
 43 45  1  0
 43 46  1  0
 46 47  1  0
 46 48  1  0
 46 49  1  0
 29 50  1  0
 50 51  1  0
 50 52  2  0
 52 53  1  0
 52 24  1  0
 40 33  1  0
 49 38  1  0
M  CHG  2  11   1  32  -1
M  END
>  <UniqueID>  (7) 
7

>  <SMILES>  (7) 
CC[N@H+](C)CCO/N=C\c1ccc(C(=O)[N-]c2ccc3c(c2)OCCO3)cc1

>  <Energy>  (7) 
71.31183066170195

>  <Genealogy>  (7) 
CC[NH+](C)CCON=Cc1ccc(C(=O)[N-]c2ccc3c(c2)OCCO3)cc1 (protonated)
CC[N@H+](C)CCON=Cc1ccc(C(=O)[N-]c2ccc3c(c2)OCCO3)cc1 (chirality)
CC[N@H+](C)CCO/N=C\c1ccc(C(=O)[N-]c2ccc3c(c2)OCCO3)cc1 (cis-trans isomerization)
CC[N@H+](C)CCO/N=C\c1ccc(C(=O)[N-]c2ccc3c(c2)OCCO3)cc1 (3D coordinates assigned)
CC[N@H+](C)CCO/N=C\c1ccc(C(=O)[N-]c2ccc3c(c2)OCCO3)cc1 (nonaromatic ring conformer: 71.31183066170195 kcal/mol)

>  <smiles>  (7) 
CCN(C)CCON=Cc1ccc(C(=O)Nc2ccc3c(c2)OCCO3)cc1

>  <score_type>  (7) 
oracle

>  <origin>  (7) 
adg

>  <m_score__min__energy>  (7) 
-7.2599999999999998

>  <m_primary>  (7) 
energy

$$$$
7:0
     RDKit          3D

 46 47  0  0  0  0  0  0  0  0999 V2000
   59.2333   30.0111   48.0412 H   0  0  0  0  0  0  0  0  0  0  0  0
   59.8840   30.3360   47.2160 C   0  0  0  0  0  0  0  0  0  0  0  0
   61.0210   31.1700   47.4950 C   0  0  0  0  0  0  0  0  0  0  0  0
   61.9730   31.8750   47.7100 C   0  0  0  0  0  0  0  0  0  0  0  0
   63.1330   32.7480   47.9680 C   0  0  0  0  0  0  0  0  0  0  0  0
   64.1520   31.9860   48.8310 C   0  0  0  0  0  0  0  0  0  0  0  0
   63.9288   32.1529   49.8951 H   0  0  0  0  0  0  0  0  0  0  0  0
   64.0903   30.9107   48.6077 H   0  0  0  0  0  0  0  0  0  0  0  0
   65.1660   32.3492   48.6077 H   0  0  0  0  0  0  0  0  0  0  0  0
   63.7710   33.1430   46.6270 C   0  0  0  0  0  0  0  0  0  0  0  0
   64.6927   33.7137   46.8135 H   0  0  0  0  0  0  0  0  0  0  0  0
   64.0113   32.2354   46.0538 H   0  0  0  0  0  0  0  0  0  0  0  0
   63.0657   33.7627   46.0538 H   0  0  0  0  0  0  0  0  0  0  0  0
   62.6540   34.0060   48.7120 C   0  0  0  0  0  0  0  0  0  0  0  0
   62.7183   33.8371   49.7970 H   0  0  0  0  0  0  0  0  0  0  0  0
   63.2899   34.8599   48.4355 H   0  0  0  0  0  0  0  0  0  0  0  0
   61.6112   34.2207   48.4355 H   0  0  0  0  0  0  0  0  0  0  0  0
   59.6080   29.9510   45.9690 C   0  0  0  0  0  0  0  0  0  0  0  0
   59.8953   28.9411   45.6411 H   0  0  0  0  0  0  0  0  0  0  0  0
   58.9100   30.8720   44.9990 C   0  0  0  0  0  0  0  0  0  0  0  0
   59.0505   30.4777   43.9818 H   0  0  0  0  0  0  0  0  0  0  0  0
   59.3540   31.8706   45.1239 H   0  0  0  0  0  0  0  0  0  0  0  0
   57.4550   31.0060   45.2540 N   0  0  0  0  0  0  0  0  0  0  0  0
   56.6640   30.1440   44.3580 C   0  0  0  0  0  0  0  0  0  0  0  0
   56.0408   29.4649   44.9584 H   0  0  0  0  0  0  0  0  0  0  0  0
   56.0186   30.7691   43.7234 H   0  0  0  0  0  0  0  0  0  0  0  0
   57.3421   29.5546   43.7234 H   0  0  0  0  0  0  0  0  0  0  0  0
   56.9590   32.4000   45.2020 C   0  0  0  0  0  0  0  0  0  0  0  0
   56.7243   32.6563   44.1583 H   0  0  0  0  0  0  0  0  0  0  0  0
   56.0626   32.4691   45.8358 H   0  0  0  0  0  0  0  0  0  0  0  0
   57.9870   33.3800   45.7290 C   0  0  0  0  0  0  0  0  0  0  0  0
   58.5280   34.3370   44.8530 C   0  0  0  0  0  0  0  0  0  0  0  0
   58.2145   34.3485   43.7987 H   0  0  0  0  0  0  0  0  0  0  0  0
   59.4590   35.2730   45.3070 C   0  0  0  0  0  0  0  0  0  0  0  0
   59.8708   36.0175   44.6098 H   0  0  0  0  0  0  0  0  0  0  0  0
   59.8700   35.2690   46.6410 C   0  0  0  0  0  0  0  0  0  0  0  0
   60.5963   36.0155   46.9948 H   0  0  0  0  0  0  0  0  0  0  0  0
   59.3580   34.3150   47.5290 C   0  0  0  0  0  0  0  0  0  0  0  0
   59.7590   34.2900   48.8710 C   0  0  0  0  0  0  0  0  0  0  0  0
   60.4828   35.0299   49.2434 H   0  0  0  0  0  0  0  0  0  0  0  0
   59.2390   33.3250   49.7350 C   0  0  0  0  0  0  0  0  0  0  0  0
   59.5473   33.3025   50.7907 H   0  0  0  0  0  0  0  0  0  0  0  0
   58.3260   32.3900   49.2500 C   0  0  0  0  0  0  0  0  0  0  0  0
   57.9168   31.6216   49.9223 H   0  0  0  0  0  0  0  0  0  0  0  0
   57.9410   32.4270   47.9470 N   0  0  0  0  0  0  0  0  0  0  0  0
   58.4180   33.3580   47.0740 C   0  0  0  0  0  0  0  0  0  0  0  0
  1  2  1  0
  2  3  1  0
  3  4  3  0
  4  5  1  0
  5  6  1  0
  6  7  1  0
  6  8  1  0
  6  9  1  0
  5 10  1  0
 10 11  1  0
 10 12  1  0
 10 13  1  0
  5 14  1  0
 14 15  1  0
 14 16  1  0
 14 17  1  0
  2 18  2  0
 18 19  1  0
 18 20  1  0
 20 21  1  0
 20 22  1  0
 20 23  1  0
 23 24  1  0
 24 25  1  0
 24 26  1  0
 24 27  1  0
 23 28  1  0
 28 29  1  0
 28 30  1  0
 28 31  1  0
 31 32  2  0
 32 33  1  0
 32 34  1  0
 34 35  1  0
 34 36  2  0
 36 37  1  0
 36 38  1  0
 38 39  2  0
 39 40  1  0
 39 41  1  0
 41 42  1  0
 41 43  2  0
 43 44  1  0
 43 45  1  0
 45 46  2  0
 46 31  1  0
 46 38  1  0
M  END
>  <UniqueID>  (8) 
8

>  <SMILES>  (8) 
CN(C/C=C/C#CC(C)(C)C)Cc1cccc2cccnc12

>  <Energy>  (8) 
39.484212738304294

>  <Genealogy>  (8) 
CN(C/C=C/C#CC(C)(C)C)Cc1cccc2cccnc12 (cis-trans isomerization)
CN(C/C=C/C#CC(C)(C)C)Cc1cccc2cccnc12 (3D coordinates assigned)
CN(C/C=C/C#CC(C)(C)C)Cc1cccc2cccnc12 (optimized conformer: 39.484212738304294 kcal/mol)

>  <smiles>  (8) 
CN(CC=CC#CC(C)(C)C)Cc1cccc2cccnc12

>  <score_type>  (8) 
oracle

>  <origin>  (8) 
adg

>  <m_score__min__energy>  (8) 
-6.9699999999999998

>  <m_primary>  (8) 
energy

$$$$
8:0
     RDKit          3D

 48 50  0  0  0  0  0  0  0  0999 V2000
   58.9190   30.0590   50.4100 C   0  0  0  0  0  0  0  0  0  0  0  0
   60.2110   30.2880   49.6070 C   0  0  0  0  0  0  0  0  0  0  0  0
   60.0410   31.0160   48.3200 N   0  0  2  0  0  0  0  0  0  0  0  0
   58.8350   31.8870   48.2520 C   0  0  0  0  0  0  0  0  0  0  0  0
   58.7740   32.8300   47.0660 C   0  0  0  0  0  0  0  0  0  0  0  0
   57.7740   32.6790   46.0870 C   0  0  0  0  0  0  0  0  0  0  0  0
   57.7030   33.5620   45.0050 C   0  0  0  0  0  0  0  0  0  0  0  0
   58.6120   34.6180   44.9030 C   0  0  0  0  0  0  0  0  0  0  0  0
   59.5860   34.7990   45.8880 C   0  0  0  0  0  0  0  0  0  0  0  0
   59.6600   33.9170   46.9710 C   0  0  0  0  0  0  0  0  0  0  0  0
   60.2030   30.1720   47.1460 C   0  0  0  0  0  0  0  0  0  0  0  0
   61.2040   30.3260   46.3950 O   0  0  0  0  0  0  0  0  0  0  0  0
   59.2000   29.1350   46.7770 C   0  0  0  0  0  0  0  0  0  0  0  0
   58.3170   29.3100   45.6960 C   0  0  0  0  0  0  0  0  0  0  0  0
   57.3900   28.3170   45.3650 C   0  0  0  0  0  0  0  0  0  0  0  0
   57.3220   27.1280   46.1100 C   0  0  0  0  0  0  0  0  0  0  0  0
   56.3560   26.0610   45.7570 C   0  0  0  0  0  0  0  0  0  0  0  0
   55.1320   26.2430   46.0010 O   0  0  0  0  0  0  0  0  0  0  0  0
   56.7770   24.7850   45.1280 C   0  0  0  0  0  0  0  0  0  0  0  0
   57.9930   24.1850   45.5010 C   0  0  0  0  0  0  0  0  0  0  0  0
   58.3900   22.9740   44.9260 C   0  0  0  0  0  0  0  0  0  0  0  0
   57.5740   22.3430   43.9840 C   0  0  0  0  0  0  0  0  0  0  0  0
   56.3560   22.9210   43.6190 C   0  0  0  0  0  0  0  0  0  0  0  0
   55.9540   24.1330   44.1900 C   0  0  0  0  0  0  0  0  0  0  0  0
   58.2210   26.9400   47.1710 C   0  0  0  0  0  0  0  0  0  0  0  0
   59.1480   27.9320   47.5020 C   0  0  0  0  0  0  0  0  0  0  0  0
   59.1441   30.0989   51.4860 H   0  0  0  0  0  0  0  0  0  0  0  0
   58.1878   30.8415   50.1591 H   0  0  0  0  0  0  0  0  0  0  0  0
   58.5013   29.0728   50.1591 H   0  0  0  0  0  0  0  0  0  0  0  0
   60.9035   30.8670   50.2357 H   0  0  0  0  0  0  0  0  0  0  0  0
   60.5855   29.2880   49.3429 H   0  0  0  0  0  0  0  0  0  0  0  0
   60.8220   31.7120   48.2950 H   0  0  0  0  0  0  0  0  0  0  0  0
   57.9492   31.2360   48.2127 H   0  0  0  0  0  0  0  0  0  0  0  0
   58.8763   32.5284   49.1447 H   0  0  0  0  0  0  0  0  0  0  0  0
   57.0436   31.8611   46.1736 H   0  0  0  0  0  0  0  0  0  0  0  0
   56.9309   33.4250   44.2336 H   0  0  0  0  0  0  0  0  0  0  0  0
   58.5608   35.3070   44.0470 H   0  0  0  0  0  0  0  0  0  0  0  0
   60.2955   35.6361   45.8118 H   0  0  0  0  0  0  0  0  0  0  0  0
   60.4166   34.0751   47.7536 H   0  0  0  0  0  0  0  0  0  0  0  0
   58.3562   30.2371   45.1053 H   0  0  0  0  0  0  0  0  0  0  0  0
   56.7087   28.4680   44.5147 H   0  0  0  0  0  0  0  0  0  0  0  0
   58.6356   24.6714   46.2496 H   0  0  0  0  0  0  0  0  0  0  0  0
   59.3475   22.5169   45.2162 H   0  0  0  0  0  0  0  0  0  0  0  0
   57.8903   21.3922   43.5303 H   0  0  0  0  0  0  0  0  0  0  0  0
   55.7113   22.4218   42.8807 H   0  0  0  0  0  0  0  0  0  0  0  0
   54.9898   24.5791   43.9047 H   0  0  0  0  0  0  0  0  0  0  0  0
   58.1958   26.0034   47.7473 H   0  0  0  0  0  0  0  0  0  0  0  0
   59.8439   27.7697   48.3383 H   0  0  0  0  0  0  0  0  0  0  0  0
  1  2  1  0
  2  3  1  0
  3  4  1  0
  4  5  1  0
  5  6  2  0
  6  7  1  0
  7  8  2  0
  8  9  1  0
  9 10  2  0
  3 11  1  0
 11 12  2  0
 11 13  1  0
 13 14  2  0
 14 15  1  0
 15 16  2  0
 16 17  1  0
 17 18  2  0
 17 19  1  0
 19 20  2  0
 20 21  1  0
 21 22  2  0
 22 23  1  0
 23 24  2  0
 16 25  1  0
 25 26  2  0
 10  5  1  0
 26 13  1  0
 24 19  1  0
  1 27  1  0
  1 28  1  0
  1 29  1  0
  2 30  1  0
  2 31  1  0
  3 32  1  6
  4 33  1  0
  4 34  1  0
  6 35  1  0
  7 36  1  0
  8 37  1  0
  9 38  1  0
 10 39  1  0
 14 40  1  0
 15 41  1  0
 20 42  1  0
 21 43  1  0
 22 44  1  0
 23 45  1  0
 24 46  1  0
 25 47  1  0
 26 48  1  0
M  CHG  1   3   1
M  END
>  <UniqueID>  (9) 
9

>  <SMILES>  (9) 
CC[N@H+](Cc1ccccc1)C(=O)c1ccc(C(=O)c2ccccc2)cc1

>  <Energy>  (9) 
70.70074685210203

>  <Genealogy>  (9) 
CC[NH+](Cc1ccccc1)C(=O)c1ccc(C(=O)c2ccccc2)cc1 (protonated)
CC[N@H+](Cc1ccccc1)C(=O)c1ccc(C(=O)c2ccccc2)cc1 (chirality)
CC[N@H+](Cc1ccccc1)C(=O)c1ccc(C(=O)c2ccccc2)cc1 (3D coordinates assigned)
CC[N@H+](Cc1ccccc1)C(=O)c1ccc(C(=O)c2ccccc2)cc1 (optimized conformer: 70.70074685210203 kcal/mol)

>  <smiles>  (9) 
CCN(Cc1ccccc1)C(=O)c1ccc(C(=O)c2ccccc2)cc1

>  <score_type>  (9) 
oracle

>  <origin>  (9) 
adg

>  <m_score__min__energy>  (9) 
-7.4000000000000004

>  <m_primary>  (9) 
energy

$$$$
9:0
     RDKit          3D

 36 38  0  0  0  0  0  0  0  0999 V2000
   54.7630   26.1920   45.9330 N   0  0  0  0  0  0  0  0  0  0  0  0
   55.8430   25.2630   45.9740 C   0  0  0  0  0  0  0  0  0  0  0  0
   55.8530   24.3470   46.8400 O   0  0  0  0  0  0  0  0  0  0  0  0
   56.9350   25.3410   44.9570 C   0  0  0  0  0  0  0  0  0  0  0  0
   57.5170   26.6790   44.9580 N   0  0  0  0  0  0  0  0  0  0  0  0
   58.2490   27.2250   45.9470 C   0  0  0  0  0  0  0  0  0  0  0  0
   58.6760   28.4780   45.5320 C   0  0  0  0  0  0  0  0  0  0  0  0
   59.4930   29.4440   46.3050 C   0  0  0  0  0  0  0  0  0  0  0  0
   59.4470   30.8130   45.9840 C   0  0  0  0  0  0  0  0  0  0  0  0
   60.2130   31.7390   46.6950 C   0  0  0  0  0  0  0  0  0  0  0  0
   61.0440   31.3200   47.7480 C   0  0  0  0  0  0  0  0  0  0  0  0
   61.8590   32.3050   48.5050 C   0  0  0  0  0  0  0  0  0  0  0  0
   61.2500   33.1840   49.4220 C   0  0  0  0  0  0  0  0  0  0  0  0
   62.0190   34.1090   50.1340 C   0  0  0  0  0  0  0  0  0  0  0  0
   63.4010   34.1700   49.9400 C   0  0  0  0  0  0  0  0  0  0  0  0
   64.0170   33.3040   49.0320 C   0  0  0  0  0  0  0  0  0  0  0  0
   63.2520   32.3760   48.3180 C   0  0  0  0  0  0  0  0  0  0  0  0
   61.0860   29.9550   48.0770 C   0  0  0  0  0  0  0  0  0  0  0  0
   60.3190   29.0250   47.3670 C   0  0  0  0  0  0  0  0  0  0  0  0
   60.3590   27.7250   47.7540 F   0  0  0  0  0  0  0  0  0  0  0  0
   58.1590   28.6280   44.2530 C   0  0  0  0  0  0  0  0  0  0  0  0
   57.4690   27.5170   43.9350 N   0  0  0  0  0  0  0  0  0  0  0  0
   54.8230   27.1050   46.4370 H   0  0  0  0  0  0  0  0  0  0  0  0
   57.7142   24.6037   45.2006 H   0  0  0  0  0  0  0  0  0  0  0  0
   56.5198   25.1264   43.9612 H   0  0  0  0  0  0  0  0  0  0  0  0
   58.4706   26.7577   46.9178 H   0  0  0  0  0  0  0  0  0  0  0  0
   58.8003   31.1578   45.1637 H   0  0  0  0  0  0  0  0  0  0  0  0
   60.1656   32.8052   46.4287 H   0  0  0  0  0  0  0  0  0  0  0  0
   60.1620   33.1422   49.5788 H   0  0  0  0  0  0  0  0  0  0  0  0
   61.5347   34.7905   50.8488 H   0  0  0  0  0  0  0  0  0  0  0  0
   64.0040   34.8989   50.5013 H   0  0  0  0  0  0  0  0  0  0  0  0
   65.1052   33.3524   48.8787 H   0  0  0  0  0  0  0  0  0  0  0  0
   63.7426   31.6968   47.6053 H   0  0  0  0  0  0  0  0  0  0  0  0
   61.7289   29.6137   48.9017 H   0  0  0  0  0  0  0  0  0  0  0  0
   58.2911   29.5083   43.6067 H   0  0  0  0  0  0  0  0  0  0  0  0
   56.9740   27.3350   43.0330 H   0  0  0  0  0  0  0  0  0  0  0  0
  1  2  1  0
  2  3  2  0
  2  4  1  0
  4  5  1  0
  5  6  1  0
  6  7  2  0
  7  8  1  0
  8  9  2  0
  9 10  1  0
 10 11  2  0
 11 12  1  0
 12 13  2  0
 13 14  1  0
 14 15  2  0
 15 16  1  0
 16 17  2  0
 11 18  1  0
 18 19  2  0
 19 20  1  0
  7 21  1  0
 21 22  2  0
 22  5  1  0
 19  8  1  0
 17 12  1  0
  1 23  1  0
  4 24  1  0
  4 25  1  0
  6 26  1  0
  9 27  1  0
 10 28  1  0
 13 29  1  0
 14 30  1  0
 15 31  1  0
 16 32  1  0
 17 33  1  0
 18 34  1  0
 21 35  1  0
 22 36  1  0
M  CHG  2   1  -1  22   1
M  END
>  <UniqueID>  (10) 
10

>  <SMILES>  (10) 
[NH-]C(=O)Cn1cc(-c2ccc(-c3ccccc3)cc2F)c[nH+]1

>  <Energy>  (10) 
75.27065300986901

>  <Genealogy>  (10) 
[NH-]C(=O)Cn1cc(-c2ccc(-c3ccccc3)cc2F)c[nH+]1 (protonated)
[NH-]C(=O)Cn1cc(-c2ccc(-c3ccccc3)cc2F)c[nH+]1 (3D coordinates assigned)
[NH-]C(=O)Cn1cc(-c2ccc(-c3ccccc3)cc2F)c[nH+]1 (optimized conformer: 75.27065300986901 kcal/mol)

>  <smiles>  (10) 
NC(=O)Cn1cc(-c2ccc(-c3ccccc3)cc2F)cn1

>  <score_type>  (10) 
oracle

>  <origin>  (10) 
adg

>  <m_score__min__energy>  (10) 
-9.3399999999999999

>  <m_primary>  (10) 
energy

$$$$
10:0
     RDKit          3D

 25 25  0  0  0  0  0  0  0  0999 V2000
   59.6120   33.8110   48.4960 C   0  0  0  0  0  0  0  0  0  0  0  0
   59.1330   33.6960   47.1170 N   0  0  0  0  0  0  0  0  0  0  0  0
   59.3910   34.6980   46.2260 C   0  0  0  0  0  0  0  0  0  0  0  0
   58.9180   34.6200   44.9170 C   0  0  0  0  0  0  0  0  0  0  0  0
   58.1600   33.5180   44.5280 C   0  0  0  0  0  0  0  0  0  0  0  0
   57.8650   32.5040   45.4470 C   0  0  0  0  0  0  0  0  0  0  0  0
   57.0740   31.3770   45.0180 N   0  0  0  0  0  0  0  0  0  0  0  0
   56.8170   31.0040   43.6250 C   0  0  0  0  0  0  0  0  0  0  0  0
   56.0050   29.7080   43.5420 C   0  0  0  0  0  0  0  0  0  0  0  0
   55.2240   29.4960   44.7570 N   0  0  0  0  0  0  0  0  0  0  0  0
   58.3740   32.6170   46.7540 C   0  0  0  0  0  0  0  0  0  0  0  0
   58.7823   33.6118   49.1902 H   0  0  0  0  0  0  0  0  0  0  0  0
   60.4164   33.0805   48.6669 H   0  0  0  0  0  0  0  0  0  0  0  0
   59.9971   34.8271   48.6669 H   0  0  0  0  0  0  0  0  0  0  0  0
   59.9765   35.5734   46.5435 H   0  0  0  0  0  0  0  0  0  0  0  0
   59.1414   35.4216   44.1976 H   0  0  0  0  0  0  0  0  0  0  0  0
   57.7916   33.4442   43.4942 H   0  0  0  0  0  0  0  0  0  0  0  0
   56.6900   30.7390   45.7520 H   0  0  0  0  0  0  0  0  0  0  0  0
   56.2547   31.8123   43.1345 H   0  0  0  0  0  0  0  0  0  0  0  0
   57.7823   30.8443   43.1223 H   0  0  0  0  0  0  0  0  0  0  0  0
   55.3218   29.7671   42.6819 H   0  0  0  0  0  0  0  0  0  0  0  0
   56.7033   28.8661   43.4253 H   0  0  0  0  0  0  0  0  0  0  0  0
   54.9030   30.4310   45.0960 H   0  0  0  0  0  0  0  0  0  0  0  0
   54.3610   28.9630   44.5000 H   0  0  0  0  0  0  0  0  0  0  0  0
   58.1595   31.8296   47.4916 H   0  0  0  0  0  0  0  0  0  0  0  0
  1  2  1  0
  2  3  2  0
  3  4  1  0
  4  5  2  0
  5  6  1  0
  6  7  1  0
  7  8  1  0
  8  9  1  0
  9 10  1  0
  6 11  2  0
 11  2  1  0
  1 12  1  0
  1 13  1  0
  1 14  1  0
  3 15  1  0
  4 16  1  0
  5 17  1  0
  7 18  1  0
  8 19  1  0
  8 20  1  0
  9 21  1  0
  9 22  1  0
 10 23  1  0
 10 24  1  0
 11 25  1  0
M  CHG  1   2   1
M  END
>  <UniqueID>  (11) 
11

>  <SMILES>  (11) 
C[n+]1cccc(NCCN)c1

>  <Energy>  (11) 
20.672013256272948

>  <Genealogy>  (11) 
C[n+]1cccc(NCCN)c1 (3D coordinates assigned)
C[n+]1cccc(NCCN)c1 (optimized conformer: 20.672013256272948 kcal/mol)

>  <smiles>  (11) 
C[n+]1cccc(NCCN)c1

>  <score_type>  (11) 
oracle

>  <origin>  (11) 
adg

>  <m_score__min__energy>  (11) 
-3.7999999999999998

>  <m_primary>  (11) 
energy

$$$$
11:0
     RDKit          3D

 64 67  0  0  0  0  0  0  0  0999 V2000
   63.9130   33.1270   47.9160 C   0  0  0  0  0  0  0  0  0  0  0  0
   62.8330   32.9820   46.8410 C   0  0  0  0  0  0  0  0  0  0  0  0
   62.0440   34.2110   46.6680 N   0  0  0  0  0  0  0  0  0  0  0  0
   60.7640   33.9680   45.9890 C   0  0  0  0  0  0  0  0  0  0  0  0
   59.6490   34.7820   46.6530 C   0  0  0  0  0  0  0  0  0  0  0  0
   59.0740   34.0670   47.7950 N   0  0  0  0  0  0  0  0  0  0  0  0
   59.5850   32.7970   48.2340 C   0  0  0  0  0  0  0  0  0  0  0  0
   59.1070   31.6010   47.6700 C   0  0  0  0  0  0  0  0  0  0  0  0
   58.2770   31.6130   46.5330 C   0  0  0  0  0  0  0  0  0  0  0  0
   57.7660   30.4200   45.9980 C   0  0  0  0  0  0  0  0  0  0  0  0
   56.9270   30.4070   44.8720 O   0  0  0  0  0  0  0  0  0  0  0  0
   57.2370   31.0180   43.6240 C   0  0  0  0  0  0  0  0  0  0  0  0
   58.0960   29.1970   46.5910 C   0  0  0  0  0  0  0  0  0  0  0  0
   57.5640   28.0250   46.0230 O   0  0  0  0  0  0  0  0  0  0  0  0
   58.2630   27.1110   45.1770 C   0  0  0  0  0  0  0  0  0  0  0  0
   58.1770   27.5490   43.7190 C   0  0  0  0  0  0  0  0  0  0  0  0
   58.9330   29.1760   47.7210 C   0  0  0  0  0  0  0  0  0  0  0  0
   59.4550   30.3700   48.2720 C   0  0  0  0  0  0  0  0  0  0  0  0
   60.2740   30.3510   49.3820 N   0  0  0  0  0  0  0  0  0  0  0  0
   60.1580   29.2180   50.3250 C   0  0  0  0  0  0  0  0  0  0  0  0
   61.0060   31.4780   49.7190 C   0  0  0  0  0  0  0  0  0  0  0  0
   60.5700   32.7390   49.2380 C   0  0  0  0  0  0  0  0  0  0  0  0
   61.0980   33.9180   49.7920 C   0  0  0  0  0  0  0  0  0  0  0  0
   62.0820   33.8660   50.7710 C   0  0  0  0  0  0  0  0  0  0  0  0
   62.6540   32.6430   51.1410 C   0  0  0  0  0  0  0  0  0  0  0  0
   63.7450   32.6150   52.0390 C   0  0  0  0  0  0  0  0  0  0  0  0
   64.1630   33.8100   52.6540 O   0  0  0  0  0  0  0  0  0  0  0  0
   65.2240   34.6350   52.1860 C   0  0  0  0  0  0  0  0  0  0  0  0
   64.3980   31.3960   52.2900 C   0  0  0  0  0  0  0  0  0  0  0  0
   64.0050   30.2390   51.6260 C   0  0  0  0  0  0  0  0  0  0  0  0
   62.9170   30.2620   50.7540 C   0  0  0  0  0  0  0  0  0  0  0  0
   62.1640   31.4390   50.5610 C   0  0  0  0  0  0  0  0  0  0  0  0
   63.4498   33.0648   48.9118 H   0  0  0  0  0  0  0  0  0  0  0  0
   64.6521   32.3200   47.8044 H   0  0  0  0  0  0  0  0  0  0  0  0
   64.4131   34.1003   47.8044 H   0  0  0  0  0  0  0  0  0  0  0  0
   63.3176   32.7360   45.8846 H   0  0  0  0  0  0  0  0  0  0  0  0
   62.1458   32.1853   47.1620 H   0  0  0  0  0  0  0  0  0  0  0  0
   62.5990   34.9090   46.1200 H   0  0  0  0  0  0  0  0  0  0  0  0
   60.8508   34.2646   44.9333 H   0  0  0  0  0  0  0  0  0  0  0  0
   60.5179   32.8982   46.0600 H   0  0  0  0  0  0  0  0  0  0  0  0
   60.0636   35.7393   47.0018 H   0  0  0  0  0  0  0  0  0  0  0  0
   58.8532   34.9487   45.9121 H   0  0  0  0  0  0  0  0  0  0  0  0
   58.2090   34.4440   48.2440 H   0  0  0  0  0  0  0  0  0  0  0  0
   58.0250   32.5719   46.0565 H   0  0  0  0  0  0  0  0  0  0  0  0
   57.7282   31.9861   43.8017 H   0  0  0  0  0  0  0  0  0  0  0  0
   57.9121   30.3636   43.0530 H   0  0  0  0  0  0  0  0  0  0  0  0
   56.3102   31.1764   43.0530 H   0  0  0  0  0  0  0  0  0  0  0  0
   59.3196   27.0742   45.4808 H   0  0  0  0  0  0  0  0  0  0  0  0
   57.8019   26.1171   45.2744 H   0  0  0  0  0  0  0  0  0  0  0  0
   57.9653   28.6274   43.6720 H   0  0  0  0  0  0  0  0  0  0  0  0
   59.1332   27.3408   43.2166 H   0  0  0  0  0  0  0  0  0  0  0  0
   57.3705   26.9947   43.2166 H   0  0  0  0  0  0  0  0  0  0  0  0
   59.1869   28.2119   48.1858 H   0  0  0  0  0  0  0  0  0  0  0  0
   60.1966   29.5950   51.3577 H   0  0  0  0  0  0  0  0  0  0  0  0
   59.2021   28.6995   50.1594 H   0  0  0  0  0  0  0  0  0  0  0  0
   60.9890   28.5166   50.1594 H   0  0  0  0  0  0  0  0  0  0  0  0
   60.7273   34.8941   49.4459 H   0  0  0  0  0  0  0  0  0  0  0  0
   62.4146   34.7937   51.2597 H   0  0  0  0  0  0  0  0  0  0  0  0
   65.7666   35.0569   53.0448 H   0  0  0  0  0  0  0  0  0  0  0  0
   65.9141   34.0339   51.5757 H   0  0  0  0  0  0  0  0  0  0  0  0
   64.8114   35.4519   51.5757 H   0  0  0  0  0  0  0  0  0  0  0  0
   65.2241   31.3569   53.0153 H   0  0  0  0  0  0  0  0  0  0  0  0
   64.5553   29.3007   51.7895 H   0  0  0  0  0  0  0  0  0  0  0  0
   62.6416   29.3477   50.2080 H   0  0  0  0  0  0  0  0  0  0  0  0
  1  2  1  0
  2  3  1  0
  3  4  1  0
  4  5  1  0
  5  6  1  0
  6  7  1  0
  7  8  2  0
  8  9  1  0
  9 10  2  0
 10 11  1  0
 11 12  1  0
 10 13  1  0
 13 14  1  0
 14 15  1  0
 15 16  1  0
 13 17  2  0
 17 18  1  0
 18 19  2  0
 19 20  1  0
 19 21  1  0
 21 22  2  0
 22 23  1  0
 23 24  2  0
 24 25  1  0
 25 26  2  0
 26 27  1  0
 27 28  1  0
 26 29  1  0
 29 30  2  0
 30 31  1  0
 31 32  2  0
 22  7  1  0
 32 25  1  0
 18  8  1  0
 32 21  1  0
  1 33  1  0
  1 34  1  0
  1 35  1  0
  2 36  1  0
  2 37  1  0
  3 38  1  0
  4 39  1  0
  4 40  1  0
  5 41  1  0
  5 42  1  0
  6 43  1  0
  9 44  1  0
 12 45  1  0
 12 46  1  0
 12 47  1  0
 15 48  1  0
 15 49  1  0
 16 50  1  0
 16 51  1  0
 16 52  1  0
 17 53  1  0
 20 54  1  0
 20 55  1  0
 20 56  1  0
 23 57  1  0
 24 58  1  0
 28 59  1  0
 28 60  1  0
 28 61  1  0
 29 62  1  0
 30 63  1  0
 31 64  1  0
M  CHG  1  19   1
M  END
>  <UniqueID>  (12) 
12

>  <SMILES>  (12) 
CCNCCNc1c2cc(OC)c(OCC)cc2[n+](C)c2c1ccc1c(OC)cccc12

>  <Energy>  (12) 
100.85207375942846

>  <Genealogy>  (12) 
CCNCCNc1c2cc(OC)c(OCC)cc2[n+](C)c2c1ccc1c(OC)cccc12 (3D coordinates assigned)
CCNCCNc1c2cc(OC)c(OCC)cc2[n+](C)c2c1ccc1c(OC)cccc12 (optimized conformer: 100.85207375942846 kcal/mol)

>  <smiles>  (12) 
CCNCCNc1c2cc(OC)c(OCC)cc2[n+](C)c2c1ccc1c(OC)cccc12

>  <score_type>  (12) 
oracle

>  <origin>  (12) 
adg

>  <m_score__min__energy>  (12) 
-5.6699999999999999

>  <m_primary>  (12) 
energy

$$$$
12:0
     RDKit          3D

 43 46  0  0  0  0  0  0  0  0999 V2000
   56.1390   29.7360   44.1570 C   0  0  0  0  0  0  0  0  0  0  0  0
   57.2000   30.4750   44.9020 C   0  0  0  0  0  0  0  0  0  0  0  0
   56.9910   31.7620   45.2810 N   0  0  0  0  0  0  0  0  0  0  0  0
   57.9190   32.4550   45.9920 C   0  0  0  0  0  0  0  0  0  0  0  0
   57.6060   33.8690   46.3820 C   0  0  0  0  0  0  0  0  0  0  0  0
   59.1360   31.8280   46.3410 C   0  0  0  0  0  0  0  0  0  0  0  0
   59.3120   30.4780   45.9690 C   0  0  0  0  0  0  0  0  0  0  0  0
   58.3430   29.8410   45.2630 N   0  0  0  0  0  0  0  0  0  0  0  0
   60.5590   29.7180   46.3560 C   0  0  0  0  0  0  0  0  0  0  0  0
   60.7790   29.6150   47.8850 C   0  0  0  0  0  0  0  0  0  0  0  0
   59.8950   30.5160   48.6620 N   0  0  0  0  0  0  0  0  0  0  0  0
   59.7130   30.0610   50.0600 C   0  0  0  0  0  0  0  0  0  0  0  0
   58.5720   30.7480   50.7630 C   0  0  0  0  0  0  0  0  0  0  0  0
   58.6230   32.0750   51.1840 C   0  0  0  0  0  0  0  0  0  0  0  0
   57.1420   32.4460   51.8870 S   0  0  0  0  0  0  0  0  0  0  0  0
   56.5010   30.9100   51.6300 C   0  0  0  0  0  0  0  0  0  0  0  0
   55.1470   30.4720   52.0090 C   0  0  0  0  0  0  0  0  0  0  0  0
   53.9650   31.1420   51.6140 C   0  0  0  0  0  0  0  0  0  0  0  0
   52.7980   30.6030   52.0500 N   0  0  0  0  0  0  0  0  0  0  0  0
   53.2520   29.2770   52.9370 S   0  0  0  0  0  0  0  0  0  0  0  0
   54.9100   29.3490   52.7950 C   0  0  0  0  0  0  0  0  0  0  0  0
   57.3970   30.1080   51.0130 N   0  0  0  0  0  0  0  0  0  0  0  0
   60.3010   31.9400   48.5900 C   0  0  0  0  0  0  0  0  0  0  0  0
   60.2120   32.5140   47.1630 C   0  0  0  0  0  0  0  0  0  0  0  0
   55.4534   29.2585   44.8726 H   0  0  0  0  0  0  0  0  0  0  0  0
   55.5774   30.4394   43.5246 H   0  0  0  0  0  0  0  0  0  0  0  0
   56.6041   28.9654   43.5246 H   0  0  0  0  0  0  0  0  0  0  0  0
   57.5878   33.9514   47.4788 H   0  0  0  0  0  0  0  0  0  0  0  0
   58.3773   34.5405   45.9766 H   0  0  0  0  0  0  0  0  0  0  0  0
   56.6234   34.1522   45.9766 H   0  0  0  0  0  0  0  0  0  0  0  0
   60.4854   28.6996   45.9469 H   0  0  0  0  0  0  0  0  0  0  0  0
   61.4140   30.2757   45.9463 H   0  0  0  0  0  0  0  0  0  0  0  0
   60.5842   28.5785   48.1976 H   0  0  0  0  0  0  0  0  0  0  0  0
   61.8166   29.9186   48.0881 H   0  0  0  0  0  0  0  0  0  0  0  0
   59.5184   28.9784   50.0529 H   0  0  0  0  0  0  0  0  0  0  0  0
   60.6333   30.3114   50.6080 H   0  0  0  0  0  0  0  0  0  0  0  0
   59.4789   32.7575   51.0758 H   0  0  0  0  0  0  0  0  0  0  0  0
   53.9903   32.0473   50.9897 H   0  0  0  0  0  0  0  0  0  0  0  0
   55.6523   28.6615   53.2267 H   0  0  0  0  0  0  0  0  0  0  0  0
   59.6423   32.5271   49.2468 H   0  0  0  0  0  0  0  0  0  0  0  0
   61.3525   32.0014   48.9070 H   0  0  0  0  0  0  0  0  0  0  0  0
   59.9808   33.5876   47.2257 H   0  0  0  0  0  0  0  0  0  0  0  0
   61.1790   32.3439   46.6671 H   0  0  0  0  0  0  0  0  0  0  0  0
  1  2  1  0
  2  3  2  0
  3  4  1  0
  4  5  1  0
  4  6  2  0
  6  7  1  0
  7  8  2  0
  7  9  1  0
  9 10  1  0
 10 11  1  0
 11 12  1  0
 12 13  1  0
 13 14  2  0
 14 15  1  0
 15 16  1  0
 16 17  1  0
 17 18  1  0
 18 19  2  0
 19 20  1  0
 20 21  1  0
 16 22  2  0
 11 23  1  0
 23 24  1  0
  8  2  1  0
 22 13  1  0
 24  6  1  0
 21 17  2  0
  1 25  1  0
  1 26  1  0
  1 27  1  0
  5 28  1  0
  5 29  1  0
  5 30  1  0
  9 31  1  0
  9 32  1  0
 10 33  1  0
 10 34  1  0
 12 35  1  0
 12 36  1  0
 14 37  1  0
 18 38  1  0
 21 39  1  0
 23 40  1  0
 23 41  1  0
 24 42  1  0
 24 43  1  0
M  END
>  <UniqueID>  (13) 
13

>  <SMILES>  (13) 
Cc1nc(C)c2c(n1)CCN(Cc1csc(-c3cnsc3)n1)CC2

>  <Energy>  (13) 
117.77695121723923

>  <Genealogy>  (13) 
Cc1nc(C)c2c(n1)CCN(Cc1csc(-c3cnsc3)n1)CC2 (3D coordinates assigned)
Cc1nc(C)c2c(n1)CCN(Cc1csc(-c3cnsc3)n1)CC2 (nonaromatic ring conformer: 117.77695121723923 kcal/mol)

>  <smiles>  (13) 
Cc1nc(C)c2c(n1)CCN(Cc1csc(-c3cnsc3)n1)CC2

>  <score_type>  (13) 
oracle

>  <origin>  (13) 
adg

>  <m_score__min__energy>  (13) 
-6.29

>  <m_primary>  (13) 
energy

$$$$
13:0
     RDKit          3D

 20 20  0  0  0  0  0  0  0  0999 V2000
   59.2850   35.6400   47.1420 O   0  0  0  0  0  0  0  0  0  0  0  0
   59.2510   35.1760   45.9830 N   0  0  0  0  0  0  0  0  0  0  0  0
   59.5900   35.9950   44.9310 O   0  0  0  0  0  0  0  0  0  0  0  0
   58.8650   33.8090   45.7510 C   0  0  0  0  0  0  0  0  0  0  0  0
   57.7830   33.5010   44.9050 C   0  0  0  0  0  0  0  0  0  0  0  0
   57.4130   32.1720   44.6820 C   0  0  0  0  0  0  0  0  0  0  0  0
   58.1110   31.1310   45.3050 C   0  0  0  0  0  0  0  0  0  0  0  0
   57.6500   29.4560   45.0080 S   0  0  0  0  0  0  0  0  0  0  0  0
   57.5580   28.7210   46.3170 O   0  0  0  0  0  0  0  0  0  0  0  0
   58.6880   28.7830   44.1530 O   0  0  0  0  0  0  0  0  0  0  0  0
   56.1160   29.4000   44.2080 N   0  0  0  0  0  0  0  0  0  0  0  0
   55.1660   29.5870   45.1540 O   0  0  0  0  0  0  0  0  0  0  0  0
   59.1940   31.4280   46.1430 C   0  0  0  0  0  0  0  0  0  0  0  0
   59.5660   32.7570   46.3670 C   0  0  0  0  0  0  0  0  0  0  0  0
   57.2245   34.3126   44.4157 H   0  0  0  0  0  0  0  0  0  0  0  0
   56.5696   31.9430   44.0140 H   0  0  0  0  0  0  0  0  0  0  0  0
   55.9960   28.4260   43.8490 H   0  0  0  0  0  0  0  0  0  0  0  0
   55.6730   29.7140   45.9960 H   0  0  0  0  0  0  0  0  0  0  0  0
   59.7532   30.6132   46.6261 H   0  0  0  0  0  0  0  0  0  0  0  0
   60.4141   32.9816   47.0306 H   0  0  0  0  0  0  0  0  0  0  0  0
  1  2  2  0
  2  3  1  0
  2  4  1  0
  4  5  2  0
  5  6  1  0
  6  7  2  0
  7  8  1  0
  8  9  2  0
  8 10  2  0
  8 11  1  0
 11 12  1  0
  7 13  1  0
 13 14  2  0
 14  4  1  0
  5 15  1  0
  6 16  1  0
 11 17  1  0
 12 18  1  0
 13 19  1  0
 14 20  1  0
M  CHG  2   2   1   3  -1
M  END
>  <UniqueID>  (14) 
14

>  <SMILES>  (14) 
O=[N+]([O-])c1ccc(S(=O)(=O)NO)cc1

>  <Energy>  (14) 
17.35475533309886

>  <Genealogy>  (14) 
O=[N+]([O-])c1ccc(S(=O)(=O)NO)cc1 (3D coordinates assigned)
O=[N+]([O-])c1ccc(S(=O)(=O)NO)cc1 (optimized conformer: 17.35475533309886 kcal/mol)

>  <smiles>  (14) 
O=[N+]([O-])c1ccc(S(=O)(=O)NO)cc1

>  <score_type>  (14) 
oracle

>  <origin>  (14) 
adg

>  <m_score__min__energy>  (14) 
-6.4800000000000004

>  <m_primary>  (14) 
energy

$$$$
14:0
     RDKit          3D

 32 34  0  0  0  0  0  0  0  0999 V2000
   62.1640   31.3740   47.3680 C   0  0  0  0  0  0  0  0  0  0  0  0
   60.9010   30.8700   48.0560 C   0  0  0  0  0  0  0  0  0  0  0  0
   59.7460   30.9800   47.1560 N   0  0  0  0  0  0  0  0  0  0  0  0
   59.2100   32.1370   46.6950 C   0  0  0  0  0  0  0  0  0  0  0  0
   59.6120   33.4520   46.9570 C   0  0  0  0  0  0  0  0  0  0  0  0
   58.8820   34.4960   46.3630 C   0  0  0  0  0  0  0  0  0  0  0  0
   57.7760   34.2150   45.5340 C   0  0  0  0  0  0  0  0  0  0  0  0
   57.3830   32.8870   45.2930 C   0  0  0  0  0  0  0  0  0  0  0  0
   58.1280   31.8660   45.8960 C   0  0  0  0  0  0  0  0  0  0  0  0
   57.9530   30.5290   45.8500 N   0  0  0  0  0  0  0  0  0  0  0  0
   57.0190   29.7730   45.2110 C   0  0  0  0  0  0  0  0  0  0  0  0
   56.1270   30.2990   44.4930 O   0  0  0  0  0  0  0  0  0  0  0  0
   57.0600   28.3860   45.3620 C   0  0  0  0  0  0  0  0  0  0  0  0
   58.0480   27.7920   46.1700 C   0  0  0  0  0  0  0  0  0  0  0  0
   58.0600   26.2930   46.3290 C   0  0  0  0  0  0  0  0  0  0  0  0
   59.0060   28.6050   46.8300 C   0  0  0  0  0  0  0  0  0  0  0  0
   59.9880   27.9860   47.6890 C   0  0  0  0  0  0  0  0  0  0  0  0
   60.7650   27.4780   48.3810 N   0  0  0  0  0  0  0  0  0  0  0  0
   58.9350   30.0060   46.6320 C   0  0  0  0  0  0  0  0  0  0  0  0
   62.9027   31.6688   48.1279 H   0  0  0  0  0  0  0  0  0  0  0  0
   62.5833   30.5743   46.7398 H   0  0  0  0  0  0  0  0  0  0  0  0
   61.9176   32.2427   46.7398 H   0  0  0  0  0  0  0  0  0  0  0  0
   61.0395   29.8164   48.3401 H   0  0  0  0  0  0  0  0  0  0  0  0
   60.7146   31.4827   48.9504 H   0  0  0  0  0  0  0  0  0  0  0  0
   60.4733   33.6620   47.6082 H   0  0  0  0  0  0  0  0  0  0  0  0
   59.1755   35.5402   46.5461 H   0  0  0  0  0  0  0  0  0  0  0  0
   57.2164   35.0418   45.0723 H   0  0  0  0  0  0  0  0  0  0  0  0
   56.5190   32.6575   44.6521 H   0  0  0  0  0  0  0  0  0  0  0  0
   56.3188   27.7558   44.8486 H   0  0  0  0  0  0  0  0  0  0  0  0
   58.0620   26.0378   47.3990 H   0  0  0  0  0  0  0  0  0  0  0  0
   57.1652   25.8665   45.8520 H   0  0  0  0  0  0  0  0  0  0  0  0
   58.9615   25.8809   45.8520 H   0  0  0  0  0  0  0  0  0  0  0  0
  1  2  1  0
  2  3  1  0
  3  4  1  0
  4  5  2  0
  5  6  1  0
  6  7  2  0
  7  8  1  0
  8  9  2  0
  9 10  1  0
 10 11  1  0
 11 12  2  0
 11 13  1  0
 13 14  2  0
 14 15  1  0
 14 16  1  0
 16 17  1  0
 17 18  3  0
 16 19  2  0
 19  3  1  0
  9  4  1  0
 19 10  1  0
  1 20  1  0
  1 21  1  0
  1 22  1  0
  2 23  1  0
  2 24  1  0
  5 25  1  0
  6 26  1  0
  7 27  1  0
  8 28  1  0
 13 29  1  0
 15 30  1  0
 15 31  1  0
 15 32  1  0
M  END
>  <UniqueID>  (15) 
15

>  <SMILES>  (15) 
CCn1c2ccccc2n2c(=O)cc(C)c(C#N)c12

>  <Energy>  (15) 
83.12931045573873

>  <Genealogy>  (15) 
CCn1c2ccccc2n2c(=O)cc(C)c(C#N)c12 (3D coordinates assigned)
CCn1c2ccccc2n2c(=O)cc(C)c(C#N)c12 (optimized conformer: 83.12931045573873 kcal/mol)

>  <smiles>  (15) 
CCn1c2ccccc2n2c(=O)cc(C)c(C#N)c12

>  <score_type>  (15) 
oracle

>  <origin>  (15) 
adg

>  <m_score__min__energy>  (15) 
-6.4000000000000004

>  <m_primary>  (15) 
energy

$$$$
15:0
     RDKit          3D

 52 56  0  0  0  0  0  0  0  0999 V2000
   62.9070   31.3250   49.3420 C   0  0  0  0  0  0  0  0  0  0  0  0
   62.1340   32.2660   48.5170 N   0  0  0  0  0  0  0  0  0  0  0  0
   63.0220   32.9780   47.5800 C   0  0  0  0  0  0  0  0  0  0  0  0
   62.1900   33.8400   46.6080 C   0  0  0  0  0  0  0  0  0  0  0  0
   60.8280   34.0760   47.1310 N   0  0  0  0  0  0  0  0  0  0  0  0
   60.0430   35.0190   46.3010 C   0  0  0  0  0  0  0  0  0  0  0  0
   59.2690   34.3540   45.1430 C   0  0  0  0  0  0  0  0  0  0  0  0
   57.7630   34.5920   45.2830 C   0  0  0  0  0  0  0  0  0  0  0  0
   57.0440   33.3230   45.1800 N   0  0  0  0  0  0  0  0  0  0  0  0
   57.6850   32.0880   45.5200 C   0  0  0  0  0  0  0  0  0  0  0  0
   57.8820   31.0410   44.5680 C   0  0  0  0  0  0  0  0  0  0  0  0
   57.3790   31.2590   42.7330 Br  0  0  0  0  0  0  0  0  0  0  0  0
   58.5170   29.8230   44.9550 C   0  0  0  0  0  0  0  0  0  0  0  0
   58.9620   29.6550   46.2830 C   0  0  0  0  0  0  0  0  0  0  0  0
   58.7540   30.7080   47.1360 C   0  0  0  0  0  0  0  0  0  0  0  0
   59.0810   30.7830   48.4370 C   0  0  0  0  0  0  0  0  0  0  0  0
   58.6900   31.9650   48.8790 O   0  0  0  0  0  0  0  0  0  0  0  0
   58.1210   32.6580   47.9150 N   0  0  0  0  0  0  0  0  0  0  0  0
   58.1630   31.8710   46.8160 C   0  0  0  0  0  0  0  0  0  0  0  0
   59.7510   29.6560   49.1050 C   0  0  0  0  0  0  0  0  0  0  0  0
   60.1100   29.7000   50.4550 C   0  0  0  0  0  0  0  0  0  0  0  0
   60.7490   28.6020   51.0380 C   0  0  0  0  0  0  0  0  0  0  0  0
   61.0280   27.4600   50.2770 C   0  0  0  0  0  0  0  0  0  0  0  0
   60.6720   27.4060   48.9250 C   0  0  0  0  0  0  0  0  0  0  0  0
   60.0310   28.4980   48.3190 C   0  0  0  0  0  0  0  0  0  0  0  0
   59.6380   28.4660   46.8620 C   0  0  0  0  0  0  0  0  0  0  0  0
   59.8760   27.4560   46.1460 O   0  0  0  0  0  0  0  0  0  0  0  0
   60.8420   34.4080   48.5660 C   0  0  0  0  0  0  0  0  0  0  0  0
   61.4060   33.2250   49.3780 C   0  0  0  0  0  0  0  0  0  0  0  0
   62.7305   31.5399   50.4063 H   0  0  0  0  0  0  0  0  0  0  0  0
   62.5903   30.2956   49.1183 H   0  0  0  0  0  0  0  0  0  0  0  0
   63.9783   31.4358   49.1183 H   0  0  0  0  0  0  0  0  0  0  0  0
   63.7043   33.6272   48.1483 H   0  0  0  0  0  0  0  0  0  0  0  0
   63.5989   32.2410   47.0021 H   0  0  0  0  0  0  0  0  0  0  0  0
   62.6927   34.8083   46.4676 H   0  0  0  0  0  0  0  0  0  0  0  0
   62.1065   33.3027   45.6518 H   0  0  0  0  0  0  0  0  0  0  0  0
   59.3177   35.5291   46.9519 H   0  0  0  0  0  0  0  0  0  0  0  0
   60.7650   35.7099   45.8412 H   0  0  0  0  0  0  0  0  0  0  0  0
   59.6134   34.7793   44.1888 H   0  0  0  0  0  0  0  0  0  0  0  0
   59.4572   33.2706   45.1717 H   0  0  0  0  0  0  0  0  0  0  0  0
   57.5560   35.0495   46.2617 H   0  0  0  0  0  0  0  0  0  0  0  0
   57.4274   35.2632   44.4787 H   0  0  0  0  0  0  0  0  0  0  0  0
   56.2610   33.2820   44.4900 H   0  0  0  0  0  0  0  0  0  0  0  0
   58.6591   29.0173   44.2197 H   0  0  0  0  0  0  0  0  0  0  0  0
   59.8907   30.5948   51.0561 H   0  0  0  0  0  0  0  0  0  0  0  0
   61.0341   28.6351   52.0999 H   0  0  0  0  0  0  0  0  0  0  0  0
   61.5300   26.6003   50.7450 H   0  0  0  0  0  0  0  0  0  0  0  0
   60.8951   26.5049   48.3350 H   0  0  0  0  0  0  0  0  0  0  0  0
   61.4730   35.2943   48.7282 H   0  0  0  0  0  0  0  0  0  0  0  0
   59.8138   34.6147   48.8978 H   0  0  0  0  0  0  0  0  0  0  0  0
   62.0963   33.6137   50.1412 H   0  0  0  0  0  0  0  0  0  0  0  0
   60.5614   32.6951   49.8426 H   0  0  0  0  0  0  0  0  0  0  0  0
  1  2  1  0
  2  3  1  0
  3  4  1  0
  4  5  1  0
  5  6  1  0
  6  7  1  0
  7  8  1  0
  8  9  1  0
  9 10  1  0
 10 11  2  0
 11 12  1  0
 11 13  1  0
 13 14  2  0
 14 15  1  0
 15 16  2  0
 16 17  1  0
 17 18  1  0
 18 19  2  0
 16 20  1  0
 20 21  2  0
 21 22  1  0
 22 23  2  0
 23 24  1  0
 24 25  2  0
 25 26  1  0
 26 27  2  0
  5 28  1  0
 28 29  1  0
 29  2  1  0
 19 10  1  0
 25 20  1  0
 26 14  1  0
 19 15  1  0
  1 30  1  0
  1 31  1  0
  1 32  1  0
  3 33  1  0
  3 34  1  0
  4 35  1  0
  4 36  1  0
  6 37  1  0
  6 38  1  0
  7 39  1  0
  7 40  1  0
  8 41  1  0
  8 42  1  0
  9 43  1  0
 13 44  1  0
 21 45  1  0
 22 46  1  0
 23 47  1  0
 24 48  1  0
 28 49  1  0
 28 50  1  0
 29 51  1  0
 29 52  1  0
M  END
>  <UniqueID>  (16) 
16

>  <SMILES>  (16) 
CN1CCN(CCCNc2c(Br)cc3c4c(onc24)-c2ccccc2C3=O)CC1

>  <Energy>  (16) 
121.46544587805423

>  <Genealogy>  (16) 
CN1CCN(CCCNc2c(Br)cc3c4c(onc24)-c2ccccc2C3=O)CC1 (3D coordinates assigned)
CN1CCN(CCCNc2c(Br)cc3c4c(onc24)-c2ccccc2C3=O)CC1 (nonaromatic ring conformer: 121.46544587805423 kcal/mol)

>  <smiles>  (16) 
CN1CCN(CCCNc2c(Br)cc3c4c(onc24)-c2ccccc2C3=O)CC1

>  <score_type>  (16) 
oracle

>  <origin>  (16) 
adg

>  <m_score__min__energy>  (16) 
-9.4299999999999997

>  <m_primary>  (16) 
energy

$$$$
16:0
     RDKit          3D

 43 45  0  0  0  0  0  0  0  0999 V2000
   62.9180   33.7160   46.7540 C   0  0  0  0  0  0  0  0  0  0  0  0
   63.4190   32.9610   47.9880 C   0  0  0  0  0  0  0  0  0  0  0  0
   62.5320   33.1600   49.1570 N   0  0  0  0  0  0  0  0  0  0  0  0
   61.5310   34.2220   48.9510 C   0  0  0  0  0  0  0  0  0  0  0  0
   60.0950   33.7150   49.1470 C   0  0  0  0  0  0  0  0  0  0  0  0
   59.6420   33.0120   47.9480 N   0  0  0  0  0  0  0  0  0  0  0  0
   59.0320   33.5800   46.8810 C   0  0  0  0  0  0  0  0  0  0  0  0
   58.8090   32.6290   45.8910 C   0  0  0  0  0  0  0  0  0  0  0  0
   58.2430   32.8880   44.5280 C   0  0  0  0  0  0  0  0  0  0  0  0
   57.3780   31.7420   44.1050 C   0  0  0  0  0  0  0  0  0  0  0  0
   56.6570   31.0550   44.9290 N   0  0  0  0  0  0  0  0  0  0  0  0
   55.9400   30.1250   44.1160 C   0  0  0  0  0  0  0  0  0  0  0  0
   55.1400   29.2790   44.5940 O   0  0  0  0  0  0  0  0  0  0  0  0
   56.2010   30.2370   42.7190 N   0  0  0  0  0  0  0  0  0  0  0  0
   57.1370   31.3020   42.7390 C   0  0  0  0  0  0  0  0  0  0  0  0
   57.6710   31.7830   41.7050 O   0  0  0  0  0  0  0  0  0  0  0  0
   59.3380   31.4470   46.3770 C   0  0  0  0  0  0  0  0  0  0  0  0
   59.4300   30.1780   45.8050 C   0  0  0  0  0  0  0  0  0  0  0  0
   60.0670   29.1590   46.5440 C   0  0  0  0  0  0  0  0  0  0  0  0
   60.1540   27.7690   45.9870 C   0  0  0  0  0  0  0  0  0  0  0  0
   60.5680   29.4350   47.8400 C   0  0  0  0  0  0  0  0  0  0  0  0
   60.4640   30.7250   48.3890 C   0  0  0  0  0  0  0  0  0  0  0  0
   59.8360   31.7150   47.6280 C   0  0  0  0  0  0  0  0  0  0  0  0
   62.3358   34.5934   47.0723 H   0  0  0  0  0  0  0  0  0  0  0  0
   63.7775   34.0452   46.1515 H   0  0  0  0  0  0  0  0  0  0  0  0
   62.2807   33.0520   46.1515 H   0  0  0  0  0  0  0  0  0  0  0  0
   63.4628   31.8871   47.7540 H   0  0  0  0  0  0  0  0  0  0  0  0
   64.4142   33.3525   48.2455 H   0  0  0  0  0  0  0  0  0  0  0  0
   63.1260   33.4470   49.9700 H   0  0  0  0  0  0  0  0  0  0  0  0
   62.0520   32.2730   49.4370 H   0  0  0  0  0  0  0  0  0  0  0  0
   61.7215   35.0320   49.6704 H   0  0  0  0  0  0  0  0  0  0  0  0
   61.6244   34.5759   47.9137 H   0  0  0  0  0  0  0  0  0  0  0  0
   60.0661   33.0270   50.0048 H   0  0  0  0  0  0  0  0  0  0  0  0
   59.4326   34.5733   49.3328 H   0  0  0  0  0  0  0  0  0  0  0  0
   58.7528   34.6415   46.8077 H   0  0  0  0  0  0  0  0  0  0  0  0
   57.6413   33.8085   44.5526 H   0  0  0  0  0  0  0  0  0  0  0  0
   59.0689   33.0004   43.8102 H   0  0  0  0  0  0  0  0  0  0  0  0
   59.0172   29.9774   44.8053 H   0  0  0  0  0  0  0  0  0  0  0  0
   60.1993   27.0449   46.8138 H   0  0  0  0  0  0  0  0  0  0  0  0
   59.2668   27.5653   45.3694 H   0  0  0  0  0  0  0  0  0  0  0  0
   61.0596   27.6775   45.3694 H   0  0  0  0  0  0  0  0  0  0  0  0
   61.0431   28.6320   48.4226 H   0  0  0  0  0  0  0  0  0  0  0  0
   60.8652   30.9488   49.3885 H   0  0  0  0  0  0  0  0  0  0  0  0
  1  2  1  0
  2  3  1  0
  3  4  1  0
  4  5  1  0
  5  6  1  0
  6  7  1  0
  7  8  2  0
  8  9  1  0
  9 10  1  0
 10 11  2  0
 11 12  1  0
 12 13  2  0
 12 14  1  0
 14 15  1  0
 15 16  2  0
  8 17  1  0
 17 18  2  0
 18 19  1  0
 19 20  1  0
 19 21  2  0
 21 22  1  0
 22 23  2  0
 23  6  1  0
 15 10  1  0
 23 17  1  0
  1 24  1  0
  1 25  1  0
  1 26  1  0
  2 27  1  0
  2 28  1  0
  3 29  1  0
  3 30  1  0
  4 31  1  0
  4 32  1  0
  5 33  1  0
  5 34  1  0
  7 35  1  0
  9 36  1  0
  9 37  1  0
 18 38  1  0
 20 39  1  0
 20 40  1  0
 20 41  1  0
 21 42  1  0
 22 43  1  0
M  CHG  2   3   1  14  -1
M  END
>  <UniqueID>  (17) 
17

>  <SMILES>  (17) 
CC[NH2+]CCn1cc(CC2=NC(=O)[N-]C2=O)c2cc(C)ccc21

>  <Energy>  (17) 
98.61775647206045

>  <Genealogy>  (17) 
CC[NH2+]CCn1cc(CC2=NC(=O)[N-]C2=O)c2cc(C)ccc21 (protonated)
CC[NH2+]CCn1cc(CC2=NC(=O)[N-]C2=O)c2cc(C)ccc21 (3D coordinates assigned)
CC[NH2+]CCn1cc(CC2=NC(=O)[N-]C2=O)c2cc(C)ccc21 (nonaromatic ring conformer: 98.61775647206045 kcal/mol)

>  <smiles>  (17) 
CCNCCn1cc(CC2=NC(=O)NC2=O)c2cc(C)ccc21

>  <score_type>  (17) 
oracle

>  <origin>  (17) 
adg

>  <m_score__min__energy>  (17) 
-8.4299999999999997

>  <m_primary>  (17) 
energy

$$$$
17:0
     RDKit          3D

 45 47  0  0  0  0  0  0  0  0999 V2000
   62.0440   29.1420   51.5640 C   0  0  0  0  0  0  0  0  0  0  0  0
   61.1970   28.8560   50.3700 C   0  0  0  0  0  0  0  0  0  0  0  0
   60.7980   27.6050   49.9490 C   0  0  0  0  0  0  0  0  0  0  0  0
   60.0220   27.8170   48.8300 C   0  0  0  0  0  0  0  0  0  0  0  0
   59.9920   29.1920   48.6400 C   0  0  0  0  0  0  0  0  0  0  0  0
   59.2860   29.9360   47.5690 C   0  0  0  0  0  0  0  0  0  0  0  0
   58.4150   29.2820   46.6850 C   0  0  0  0  0  0  0  0  0  0  0  0
   57.7490   30.0020   45.6870 C   0  0  0  0  0  0  0  0  0  0  0  0
   56.8500   29.2700   44.7700 C   0  0  0  0  0  0  0  0  0  0  0  0
   56.9000   29.5150   43.5360 O   0  0  0  0  0  0  0  0  0  0  0  0
   55.9250   28.2830   45.2450 N   0  0  0  0  0  0  0  0  0  0  0  0
   56.2900   26.9990   45.8400 C   0  0  0  0  0  0  0  0  0  0  0  0
   57.4330   26.3210   45.0750 C   0  0  0  0  0  0  0  0  0  0  0  0
   58.3080   25.5690   46.0060 N   0  0  0  0  0  0  0  0  0  0  0  0
   59.6670   26.1340   46.0170 C   0  0  0  0  0  0  0  0  0  0  0  0
   57.7650   25.5780   47.3750 C   0  0  0  0  0  0  0  0  0  0  0  0
   57.9740   31.3900   45.5670 C   0  0  0  0  0  0  0  0  0  0  0  0
   57.3250   32.1780   44.5930 C   0  0  0  0  0  0  0  0  0  0  0  0
   57.5660   33.5530   44.5190 C   0  0  0  0  0  0  0  0  0  0  0  0
   58.4500   34.1600   45.4110 C   0  0  0  0  0  0  0  0  0  0  0  0
   59.0970   33.3980   46.3850 C   0  0  0  0  0  0  0  0  0  0  0  0
   58.8650   32.0150   46.4760 C   0  0  0  0  0  0  0  0  0  0  0  0
   59.4890   31.2790   47.4400 N   0  0  0  0  0  0  0  0  0  0  0  0
   60.7020   29.7790   49.5790 O   0  0  0  0  0  0  0  0  0  0  0  0
   61.4657   28.9467   52.4791 H   0  0  0  0  0  0  0  0  0  0  0  0
   62.9328   28.4942   51.5467 H   0  0  0  0  0  0  0  0  0  0  0  0
   62.3582   30.1960   51.5467 H   0  0  0  0  0  0  0  0  0  0  0  0
   61.0474   26.6382   50.4106 H   0  0  0  0  0  0  0  0  0  0  0  0
   59.5272   27.0525   48.2130 H   0  0  0  0  0  0  0  0  0  0  0  0
   58.2547   28.1976   46.7768 H   0  0  0  0  0  0  0  0  0  0  0  0
   56.6074   27.1659   46.8799 H   0  0  0  0  0  0  0  0  0  0  0  0
   55.4107   26.3395   45.7959 H   0  0  0  0  0  0  0  0  0  0  0  0
   57.0105   25.6259   44.3345 H   0  0  0  0  0  0  0  0  0  0  0  0
   58.0315   27.0945   44.5715 H   0  0  0  0  0  0  0  0  0  0  0  0
   59.9984   26.2718   47.0568 H   0  0  0  0  0  0  0  0  0  0  0  0
   60.3539   25.4469   45.5012 H   0  0  0  0  0  0  0  0  0  0  0  0
   59.6644   27.1056   45.5012 H   0  0  0  0  0  0  0  0  0  0  0  0
   58.5937   25.5643   48.0982 H   0  0  0  0  0  0  0  0  0  0  0  0
   57.1628   26.4862   47.5246 H   0  0  0  0  0  0  0  0  0  0  0  0
   57.1330   24.6902   47.5246 H   0  0  0  0  0  0  0  0  0  0  0  0
   56.6248   31.7073   43.8872 H   0  0  0  0  0  0  0  0  0  0  0  0
   57.0567   34.1584   43.7547 H   0  0  0  0  0  0  0  0  0  0  0  0
   58.6377   35.2420   45.3466 H   0  0  0  0  0  0  0  0  0  0  0  0
   59.7927   33.8829   47.0856 H   0  0  0  0  0  0  0  0  0  0  0  0
   60.1400   31.7610   48.1020 H   0  0  0  0  0  0  0  0  0  0  0  0
  1  2  1  0
  2  3  2  0
  3  4  1  0
  4  5  2  0
  5  6  1  0
  6  7  2  0
  7  8  1  0
  8  9  1  0
  9 10  2  0
  9 11  1  0
 11 12  1  0
 12 13  1  0
 13 14  1  0
 14 15  1  0
 14 16  1  0
  8 17  2  0
 17 18  1  0
 18 19  2  0
 19 20  1  0
 20 21  2  0
 21 22  1  0
 22 23  2  0
  5 24  1  0
 24  2  1  0
 23  6  1  0
 22 17  1  0
  1 25  1  0
  1 26  1  0
  1 27  1  0
  3 28  1  0
  4 29  1  0
  7 30  1  0
 12 31  1  0
 12 32  1  0
 13 33  1  0
 13 34  1  0
 15 35  1  0
 15 36  1  0
 15 37  1  0
 16 38  1  0
 16 39  1  0
 16 40  1  0
 18 41  1  0
 19 42  1  0
 20 43  1  0
 21 44  1  0
 23 45  1  0
M  CHG  2  11  -1  23   1
M  END
>  <UniqueID>  (18) 
18

>  <SMILES>  (18) 
Cc1ccc(-c2cc(C(=O)[N-]CCN(C)C)c3ccccc3[nH+]2)o1

>  <Energy>  (18) 
80.9417661200117

>  <Genealogy>  (18) 
Cc1ccc(-c2cc(C(=O)[N-]CCN(C)C)c3ccccc3[nH+]2)o1 (protonated)
Cc1ccc(-c2cc(C(=O)[N-]CCN(C)C)c3ccccc3[nH+]2)o1 (3D coordinates assigned)
Cc1ccc(-c2cc(C(=O)[N-]CCN(C)C)c3ccccc3[nH+]2)o1 (optimized conformer: 80.9417661200117 kcal/mol)

>  <smiles>  (18) 
Cc1ccc(-c2cc(C(=O)NCCN(C)C)c3ccccc3n2)o1

>  <score_type>  (18) 
oracle

>  <origin>  (18) 
adg

>  <m_score__min__energy>  (18) 
-7.1600000000000001

>  <m_primary>  (18) 
energy

$$$$
18:0
     RDKit          3D

 51 54  0  0  0  0  0  0  0  0999 V2000
   58.5210   31.6680   48.9010 C   0  0  0  0  0  0  0  0  0  0  0  0
   58.3860   31.9590   47.4400 C   0  0  0  0  0  0  0  0  0  0  0  0
   57.9160   31.0890   46.5160 N   0  0  0  0  0  0  0  0  0  0  0  0
   57.9650   31.6610   45.3140 N   0  0  0  0  0  0  0  0  0  0  0  0
   57.5550   31.0050   44.0710 C   0  0  0  0  0  0  0  0  0  0  0  0
   56.1340   30.4400   44.1690 C   0  0  0  0  0  0  0  0  0  0  0  0
   56.0620   29.3790   45.1690 N   0  0  0  0  0  0  0  0  0  0  0  0
   57.1100   28.4730   45.5460 C   0  0  0  0  0  0  0  0  0  0  0  0
   57.4730   28.4590   46.7480 O   0  0  0  0  0  0  0  0  0  0  0  0
   57.7140   27.4810   44.5780 C   0  0  0  0  0  0  0  0  0  0  0  0
   58.2220   26.2040   45.2690 C   0  0  0  0  0  0  0  0  0  0  0  0
   59.6890   26.3150   45.7040 C   0  0  0  0  0  0  0  0  0  0  0  0
   59.9090   27.5790   46.4000 N   0  0  0  0  0  0  0  0  0  0  0  0
   60.1540   27.7380   47.8020 C   0  0  0  0  0  0  0  0  0  0  0  0
   59.9460   26.8450   48.6630 O   0  0  0  0  0  0  0  0  0  0  0  0
   60.7260   29.0550   48.0640 C   0  0  0  0  0  0  0  0  0  0  0  0
   61.1240   29.6530   49.2610 C   0  0  0  0  0  0  0  0  0  0  0  0
   61.6720   30.9480   49.2010 C   0  0  0  0  0  0  0  0  0  0  0  0
   61.8120   31.6060   47.9580 C   0  0  0  0  0  0  0  0  0  0  0  0
   61.4100   30.9770   46.7650 C   0  0  0  0  0  0  0  0  0  0  0  0
   60.8670   29.6970   46.8520 C   0  0  0  0  0  0  0  0  0  0  0  0
   60.3900   28.7920   45.8130 C   0  0  0  0  0  0  0  0  0  0  0  0
   60.4400   29.0110   44.5720 O   0  0  0  0  0  0  0  0  0  0  0  0
   58.4770   32.8990   45.4620 C   0  0  0  0  0  0  0  0  0  0  0  0
   58.7550   33.8590   44.4850 C   0  0  0  0  0  0  0  0  0  0  0  0
   59.3290   35.0710   44.9080 C   0  0  0  0  0  0  0  0  0  0  0  0
   59.6170   35.2920   46.2770 C   0  0  0  0  0  0  0  0  0  0  0  0
   59.3330   34.3030   47.2380 C   0  0  0  0  0  0  0  0  0  0  0  0
   58.7570   33.1180   46.7870 C   0  0  0  0  0  0  0  0  0  0  0  0
   58.1278   32.5156   49.4815 H   0  0  0  0  0  0  0  0  0  0  0  0
   57.9525   30.7592   49.1479 H   0  0  0  0  0  0  0  0  0  0  0  0
   59.5820   31.5152   49.1479 H   0  0  0  0  0  0  0  0  0  0  0  0
   57.5780   30.1190   46.7000 H   0  0  0  0  0  0  0  0  0  0  0  0
   57.5910   31.7387   43.2523 H   0  0  0  0  0  0  0  0  0  0  0  0
   58.2438   30.1685   43.8820 H   0  0  0  0  0  0  0  0  0  0  0  0
   55.4439   31.2486   44.4517 H   0  0  0  0  0  0  0  0  0  0  0  0
   55.8550   30.0203   43.1913 H   0  0  0  0  0  0  0  0  0  0  0  0
   56.9483   27.1999   43.8400 H   0  0  0  0  0  0  0  0  0  0  0  0
   58.5798   27.9670   44.1045 H   0  0  0  0  0  0  0  0  0  0  0  0
   57.6036   26.0146   46.1588 H   0  0  0  0  0  0  0  0  0  0  0  0
   58.1500   25.3803   44.5435 H   0  0  0  0  0  0  0  0  0  0  0  0
   59.9332   25.4807   46.3780 H   0  0  0  0  0  0  0  0  0  0  0  0
   60.3336   26.2762   44.8135 H   0  0  0  0  0  0  0  0  0  0  0  0
   61.0128   29.1283   50.2214 H   0  0  0  0  0  0  0  0  0  0  0  0
   61.9928   31.4502   50.1256 H   0  0  0  0  0  0  0  0  0  0  0  0
   62.2391   32.6191   47.9228 H   0  0  0  0  0  0  0  0  0  0  0  0
   61.5211   31.4807   45.7934 H   0  0  0  0  0  0  0  0  0  0  0  0
   58.5329   33.6732   43.4238 H   0  0  0  0  0  0  0  0  0  0  0  0
   59.5562   35.8540   44.1695 H   0  0  0  0  0  0  0  0  0  0  0  0
   60.0667   36.2451   46.5923 H   0  0  0  0  0  0  0  0  0  0  0  0
   59.5573   34.4602   48.3034 H   0  0  0  0  0  0  0  0  0  0  0  0
  1  2  1  0
  2  3  2  0
  3  4  1  0
  4  5  1  0
  5  6  1  0
  6  7  1  0
  7  8  1  0
  8  9  2  0
  8 10  1  0
 10 11  1  0
 11 12  1  0
 12 13  1  0
 13 14  1  0
 14 15  2  0
 14 16  1  0
 16 17  2  0
 17 18  1  0
 18 19  2  0
 19 20  1  0
 20 21  2  0
 21 22  1  0
 22 23  2  0
  4 24  1  0
 24 25  2  0
 25 26  1  0
 26 27  2  0
 27 28  1  0
 28 29  2  0
 29  2  1  0
 22 13  1  0
 29 24  1  0
 21 16  1  0
  1 30  1  0
  1 31  1  0
  1 32  1  0
  3 33  1  0
  5 34  1  0
  5 35  1  0
  6 36  1  0
  6 37  1  0
 10 38  1  0
 10 39  1  0
 11 40  1  0
 11 41  1  0
 12 42  1  0
 12 43  1  0
 17 44  1  0
 18 45  1  0
 19 46  1  0
 20 47  1  0
 25 48  1  0
 26 49  1  0
 27 50  1  0
 28 51  1  0
M  CHG  2   3   1   7  -1
M  END
>  <UniqueID>  (19) 
19

>  <SMILES>  (19) 
Cc1[nH+]n(CC[N-]C(=O)CCCN2C(=O)c3ccccc3C2=O)c2ccccc12

>  <Energy>  (19) 
115.80167072006962

>  <Genealogy>  (19) 
Cc1[nH+]n(CC[N-]C(=O)CCCN2C(=O)c3ccccc3C2=O)c2ccccc12 (protonated)
Cc1[nH+]n(CC[N-]C(=O)CCCN2C(=O)c3ccccc3C2=O)c2ccccc12 (3D coordinates assigned)
Cc1[nH+]n(CC[N-]C(=O)CCCN2C(=O)c3ccccc3C2=O)c2ccccc12 (nonaromatic ring conformer: 115.80167072006962 kcal/mol)

>  <smiles>  (19) 
Cc1nn(CCNC(=O)CCCN2C(=O)c3ccccc3C2=O)c2ccccc12

>  <score_type>  (19) 
oracle

>  <origin>  (19) 
adg

>  <m_score__min__energy>  (19) 
-9.3399999999999999

>  <m_primary>  (19) 
energy

$$$$
19:0
     RDKit          3D

 44 45  0  0  0  0  0  0  0  0999 V2000
   55.8560   29.8290   44.0420 C   0  0  0  0  0  0  0  0  0  0  0  0
   56.9270   29.1720   44.9090 C   0  0  0  0  0  0  0  0  0  0  0  0
   58.1920   29.9310   44.8290 N   0  0  0  0  0  0  0  0  0  0  0  0
   58.1160   30.9370   43.7550 C   0  0  0  0  0  0  0  0  0  0  0  0
   59.3560   29.0350   44.6250 C   0  0  0  0  0  0  0  0  0  0  0  0
   60.3400   29.1490   45.7970 C   0  0  0  0  0  0  0  0  0  0  0  0
   59.8090   30.0150   46.8610 N   0  0  0  0  0  0  0  0  0  0  0  0
   60.6210   31.2030   46.9840 C   0  0  0  0  0  0  0  0  0  0  0  0
   61.9210   31.1080   47.5150 C   0  0  0  0  0  0  0  0  0  0  0  0
   62.7250   32.2540   47.6700 C   0  0  0  0  0  0  0  0  0  0  0  0
   64.0260   32.1930   48.1890 O   0  0  0  0  0  0  0  0  0  0  0  0
   64.5120   33.0140   49.2470 C   0  0  0  0  0  0  0  0  0  0  0  0
   62.2170   33.5040   47.3020 C   0  0  0  0  0  0  0  0  0  0  0  0
   60.9200   33.6230   46.7880 C   0  0  0  0  0  0  0  0  0  0  0  0
   60.3990   34.8720   46.4300 C   0  0  0  0  0  0  0  0  0  0  0  0
   59.1000   34.9680   45.9290 C   0  0  0  0  0  0  0  0  0  0  0  0
   58.3270   33.8080   45.7930 C   0  0  0  0  0  0  0  0  0  0  0  0
   56.9330   33.8870   45.2550 C   0  0  0  0  0  0  0  0  0  0  0  0
   58.8510   32.6020   46.1410 N   0  0  0  0  0  0  0  0  0  0  0  0
   60.1140   32.4720   46.6310 C   0  0  0  0  0  0  0  0  0  0  0  0
   55.0967   30.2948   44.6874 H   0  0  0  0  0  0  0  0  0  0  0  0
   56.3194   30.5984   43.4070 H   0  0  0  0  0  0  0  0  0  0  0  0
   55.3801   29.0672   43.4070 H   0  0  0  0  0  0  0  0  0  0  0  0
   56.5836   29.1490   45.9538 H   0  0  0  0  0  0  0  0  0  0  0  0
   57.1016   28.1485   44.5457 H   0  0  0  0  0  0  0  0  0  0  0  0
   58.0401   31.9411   44.1978 H   0  0  0  0  0  0  0  0  0  0  0  0
   59.0212   30.8781   43.1327 H   0  0  0  0  0  0  0  0  0  0  0  0
   57.2300   30.7428   43.1327 H   0  0  0  0  0  0  0  0  0  0  0  0
   59.0030   27.9959   44.5496 H   0  0  0  0  0  0  0  0  0  0  0  0
   59.8722   29.3307   43.6997 H   0  0  0  0  0  0  0  0  0  0  0  0
   60.5228   28.1459   46.2098 H   0  0  0  0  0  0  0  0  0  0  0  0
   61.2742   29.5932   45.4229 H   0  0  0  0  0  0  0  0  0  0  0  0
   58.8230   30.2870   46.6360 H   0  0  0  0  0  0  0  0  0  0  0  0
   59.7890   29.4970   47.7700 H   0  0  0  0  0  0  0  0  0  0  0  0
   62.3146   30.1250   47.8131 H   0  0  0  0  0  0  0  0  0  0  0  0
   64.2447   32.5625   50.2138 H   0  0  0  0  0  0  0  0  0  0  0  0
   65.6061   33.0992   49.1720 H   0  0  0  0  0  0  0  0  0  0  0  0
   64.0604   34.0142   49.1720 H   0  0  0  0  0  0  0  0  0  0  0  0
   62.8420   34.4018   47.4174 H   0  0  0  0  0  0  0  0  0  0  0  0
   61.0132   35.7774   46.5435 H   0  0  0  0  0  0  0  0  0  0  0  0
   58.6867   35.9465   45.6433 H   0  0  0  0  0  0  0  0  0  0  0  0
   56.2191   33.9275   46.0909 H   0  0  0  0  0  0  0  0  0  0  0  0
   56.8284   34.7925   44.6393 H   0  0  0  0  0  0  0  0  0  0  0  0
   56.7267   32.9991   44.6393 H   0  0  0  0  0  0  0  0  0  0  0  0
  1  2  1  0
  2  3  1  0
  3  4  1  0
  3  5  1  0
  5  6  1  0
  6  7  1  0
  7  8  1  0
  8  9  2  0
  9 10  1  0
 10 11  1  0
 11 12  1  0
 10 13  2  0
 13 14  1  0
 14 15  2  0
 15 16  1  0
 16 17  2  0
 17 18  1  0
 17 19  1  0
 19 20  2  0
 20  8  1  0
 20 14  1  0
  1 21  1  0
  1 22  1  0
  1 23  1  0
  2 24  1  0
  2 25  1  0
  4 26  1  0
  4 27  1  0
  4 28  1  0
  5 29  1  0
  5 30  1  0
  6 31  1  0
  6 32  1  0
  7 33  1  0
  7 34  1  0
  9 35  1  0
 12 36  1  0
 12 37  1  0
 12 38  1  0
 13 39  1  0
 15 40  1  0
 16 41  1  0
 18 42  1  0
 18 43  1  0
 18 44  1  0
M  CHG  1   7   1
M  END
>  <UniqueID>  (20) 
20

>  <SMILES>  (20) 
CCN(C)CC[NH2+]c1cc(OC)cc2ccc(C)nc12

>  <Energy>  (20) 
43.57991612013276

>  <Genealogy>  (20) 
CCN(C)CC[NH2+]c1cc(OC)cc2ccc(C)nc12 (protonated)
CCN(C)CC[NH2+]c1cc(OC)cc2ccc(C)nc12 (3D coordinates assigned)
CCN(C)CC[NH2+]c1cc(OC)cc2ccc(C)nc12 (optimized conformer: 43.57991612013276 kcal/mol)

>  <smiles>  (20) 
CCN(C)CCNc1cc(OC)cc2ccc(C)nc12

>  <score_type>  (20) 
oracle

>  <origin>  (20) 
adg

>  <m_score__min__energy>  (20) 
-4.2300000000000004

>  <m_primary>  (20) 
energy

$$$$
20:0
     RDKit          3D

 49 52  0  0  0  0  0  0  0  0999 V2000
   56.2800   30.0120   43.6360 C   0  0  0  0  0  0  0  0  0  0  0  0
   57.3980   29.8590   44.6280 C   0  0  0  0  0  0  0  0  0  0  0  0
   58.3180   30.8570   44.9690 C   0  0  0  0  0  0  0  0  0  0  0  0
   58.4200   32.2530   44.4190 C   0  0  0  0  0  0  0  0  0  0  0  0
   57.6590   33.1990   45.2630 N   0  0  0  0  0  0  0  0  0  0  0  0
   57.5660   32.7600   46.6790 C   0  0  0  0  0  0  0  0  0  0  0  0
   58.6050   33.4130   47.6190 C   0  0  0  0  0  0  0  0  0  0  0  0
   59.7700   33.8990   46.8780 N   0  0  0  0  0  0  0  0  0  0  0  0
   61.0810   33.7360   47.4310 C   0  0  0  0  0  0  0  0  0  0  0  0
   62.1560   33.4430   46.5790 C   0  0  0  0  0  0  0  0  0  0  0  0
   63.4430   33.2850   47.1010 C   0  0  0  0  0  0  0  0  0  0  0  0
   63.6610   33.4140   48.4760 C   0  0  0  0  0  0  0  0  0  0  0  0
   62.5920   33.7030   49.3320 C   0  0  0  0  0  0  0  0  0  0  0  0
   61.3010   33.8610   48.8170 C   0  0  0  0  0  0  0  0  0  0  0  0
   59.9730   34.2030   49.9200 Cl  0  0  0  0  0  0  0  0  0  0  0  0
   59.5960   34.7060   45.6690 C   0  0  0  0  0  0  0  0  0  0  0  0
   58.1620   34.5830   45.1380 C   0  0  0  0  0  0  0  0  0  0  0  0
   59.1440   30.2900   45.9210 C   0  0  0  0  0  0  0  0  0  0  0  0
   60.2490   30.8120   46.5940 C   0  0  0  0  0  0  0  0  0  0  0  0
   60.9140   29.9800   47.5100 C   0  0  0  0  0  0  0  0  0  0  0  0
   60.4710   28.6590   47.7300 C   0  0  0  0  0  0  0  0  0  0  0  0
   59.3510   28.1580   47.0410 C   0  0  0  0  0  0  0  0  0  0  0  0
   58.7000   29.0070   46.1390 C   0  0  0  0  0  0  0  0  0  0  0  0
   57.6160   28.7430   45.3770 N   0  0  0  0  0  0  0  0  0  0  0  0
   56.8780   27.4800   45.3080 C   0  0  0  0  0  0  0  0  0  0  0  0
   55.3287   30.1422   44.1728 H   0  0  0  0  0  0  0  0  0  0  0  0
   56.4681   30.8928   43.0045 H   0  0  0  0  0  0  0  0  0  0  0  0
   56.2246   29.1131   43.0045 H   0  0  0  0  0  0  0  0  0  0  0  0
   59.4769   32.5571   44.3970 H   0  0  0  0  0  0  0  0  0  0  0  0
   58.0003   32.2664   43.4023 H   0  0  0  0  0  0  0  0  0  0  0  0
   56.5611   33.0086   47.0511 H   0  0  0  0  0  0  0  0  0  0  0  0
   57.7707   31.6792   46.6869 H   0  0  0  0  0  0  0  0  0  0  0  0
   58.1336   34.2600   48.1390 H   0  0  0  0  0  0  0  0  0  0  0  0
   58.9460   32.6526   48.3369 H   0  0  0  0  0  0  0  0  0  0  0  0
   61.9858   33.3373   45.4974 H   0  0  0  0  0  0  0  0  0  0  0  0
   64.2846   33.0591   46.4297 H   0  0  0  0  0  0  0  0  0  0  0  0
   64.6741   33.2882   48.8856 H   0  0  0  0  0  0  0  0  0  0  0  0
   62.7676   33.8062   50.4130 H   0  0  0  0  0  0  0  0  0  0  0  0
   59.8047   35.7599   45.9050 H   0  0  0  0  0  0  0  0  0  0  0  0
   60.2915   34.3431   44.8979 H   0  0  0  0  0  0  0  0  0  0  0  0
   57.5082   35.2550   45.7133 H   0  0  0  0  0  0  0  0  0  0  0  0
   58.1620   34.8571   44.0727 H   0  0  0  0  0  0  0  0  0  0  0  0
   60.5888   31.8425   46.4131 H   0  0  0  0  0  0  0  0  0  0  0  0
   61.7869   30.3616   48.0599 H   0  0  0  0  0  0  0  0  0  0  0  0
   61.0048   28.0159   48.4452 H   0  0  0  0  0  0  0  0  0  0  0  0
   58.9977   27.1295   47.2065 H   0  0  0  0  0  0  0  0  0  0  0  0
   56.6686   27.1216   46.3267 H   0  0  0  0  0  0  0  0  0  0  0  0
   55.9301   27.6380   44.7728 H   0  0  0  0  0  0  0  0  0  0  0  0
   57.4810   26.7317   44.7728 H   0  0  0  0  0  0  0  0  0  0  0  0
  1  2  1  0
  2  3  2  0
  3  4  1  0
  4  5  1  0
  5  6  1  0
  6  7  1  0
  7  8  1  0
  8  9  1  0
  9 10  2  0
 10 11  1  0
 11 12  2  0
 12 13  1  0
 13 14  2  0
 14 15  1  0
  8 16  1  0
 16 17  1  0
  3 18  1  0
 18 19  2  0
 19 20  1  0
 20 21  2  0
 21 22  1  0
 22 23  2  0
 23 24  1  0
 24 25  1  0
 24  2  1  0
 17  5  1  0
 23 18  1  0
 14  9  1  0
  1 26  1  0
  1 27  1  0
  1 28  1  0
  4 29  1  0
  4 30  1  0
  6 31  1  0
  6 32  1  0
  7 33  1  0
  7 34  1  0
 10 35  1  0
 11 36  1  0
 12 37  1  0
 13 38  1  0
 16 39  1  0
 16 40  1  0
 17 41  1  0
 17 42  1  0
 19 43  1  0
 20 44  1  0
 21 45  1  0
 22 46  1  0
 25 47  1  0
 25 48  1  0
 25 49  1  0
M  END
>  <UniqueID>  (21) 
21

>  <SMILES>  (21) 
Cc1c(CN2CCN(c3ccccc3Cl)CC2)c2ccccc2n1C

>  <Energy>  (21) 
98.37597739627914

>  <Genealogy>  (21) 
Cc1c(CN2CCN(c3ccccc3Cl)CC2)c2ccccc2n1C (3D coordinates assigned)
Cc1c(CN2CCN(c3ccccc3Cl)CC2)c2ccccc2n1C (nonaromatic ring conformer: 98.37597739627914 kcal/mol)

>  <smiles>  (21) 
Cc1c(CN2CCN(c3ccccc3Cl)CC2)c2ccccc2n1C

>  <score_type>  (21) 
oracle

>  <origin>  (21) 
adg

>  <m_score__min__energy>  (21) 
-8.4800000000000004

>  <m_primary>  (21) 
energy

$$$$
21:0
     RDKit          3D

 43 46  0  0  0  0  0  0  0  0999 V2000
   55.6560   29.9130   44.0050 C   0  0  0  0  0  0  0  0  0  0  0  0
   56.0530   29.3350   45.2430 O   0  0  0  0  0  0  0  0  0  0  0  0
   57.1730   28.5060   45.4160 C   0  0  0  0  0  0  0  0  0  0  0  0
   57.0630   27.1010   45.4010 C   0  0  0  0  0  0  0  0  0  0  0  0
   58.2010   26.3010   45.5260 C   0  0  0  0  0  0  0  0  0  0  0  0
   59.4590   26.8890   45.6600 C   0  0  0  0  0  0  0  0  0  0  0  0
   59.5820   28.2780   45.6860 C   0  0  0  0  0  0  0  0  0  0  0  0
   58.4440   29.0960   45.5880 C   0  0  0  0  0  0  0  0  0  0  0  0
   58.6110   30.5630   45.6740 C   0  0  0  0  0  0  0  0  0  0  0  0
   58.2290   31.3920   44.6630 N   0  0  0  0  0  0  0  0  0  0  0  0
   58.5540   32.6090   45.1310 C   0  0  0  0  0  0  0  0  0  0  0  0
   58.4140   33.8400   44.4990 C   0  0  0  0  0  0  0  0  0  0  0  0
   58.8810   34.9750   45.1850 C   0  0  0  0  0  0  0  0  0  0  0  0
   59.4740   34.8300   46.4620 C   0  0  0  0  0  0  0  0  0  0  0  0
   59.5930   33.5930   47.0350 N   0  0  0  0  0  0  0  0  0  0  0  0
   59.1150   32.5120   46.3640 C   0  0  0  0  0  0  0  0  0  0  0  0
   59.1710   31.2220   46.7320 N   0  0  0  0  0  0  0  0  0  0  0  0
   59.7610   30.6790   47.9260 C   0  0  0  0  0  0  0  0  0  0  0  0
   59.0730   29.6920   48.6510 C   0  0  0  0  0  0  0  0  0  0  0  0
   59.6510   29.1130   49.7810 C   0  0  0  0  0  0  0  0  0  0  0  0
   60.9190   29.5150   50.2010 C   0  0  0  0  0  0  0  0  0  0  0  0
   61.6110   30.5030   49.4940 C   0  0  0  0  0  0  0  0  0  0  0  0
   61.0360   31.0990   48.3540 C   0  0  0  0  0  0  0  0  0  0  0  0
   61.6930   32.1110   47.6370 O   0  0  0  0  0  0  0  0  0  0  0  0
   63.1060   32.2530   47.5480 C   0  0  0  0  0  0  0  0  0  0  0  0
   55.0428   30.8058   44.1971 H   0  0  0  0  0  0  0  0  0  0  0  0
   56.5495   30.1985   43.4304 H   0  0  0  0  0  0  0  0  0  0  0  0
   55.0688   29.1815   43.4304 H   0  0  0  0  0  0  0  0  0  0  0  0
   56.0745   26.6314   45.2901 H   0  0  0  0  0  0  0  0  0  0  0  0
   58.1052   25.2052   45.5188 H   0  0  0  0  0  0  0  0  0  0  0  0
   60.3549   26.2564   45.7452 H   0  0  0  0  0  0  0  0  0  0  0  0
   60.5772   28.7363   45.7839 H   0  0  0  0  0  0  0  0  0  0  0  0
   57.9562   33.9224   43.5022 H   0  0  0  0  0  0  0  0  0  0  0  0
   58.7858   35.9723   44.7308 H   0  0  0  0  0  0  0  0  0  0  0  0
   59.8417   35.7177   46.9975 H   0  0  0  0  0  0  0  0  0  0  0  0
   60.0520   33.4930   47.9680 H   0  0  0  0  0  0  0  0  0  0  0  0
   58.0717   29.3735   48.3255 H   0  0  0  0  0  0  0  0  0  0  0  0
   59.1064   28.3388   50.3413 H   0  0  0  0  0  0  0  0  0  0  0  0
   61.3751   29.0541   51.0896 H   0  0  0  0  0  0  0  0  0  0  0  0
   62.6104   30.8169   49.8298 H   0  0  0  0  0  0  0  0  0  0  0  0
   63.5347   32.2961   48.5601 H   0  0  0  0  0  0  0  0  0  0  0  0
   63.5276   31.3927   47.0075 H   0  0  0  0  0  0  0  0  0  0  0  0
   63.3480   33.1800   47.0075 H   0  0  0  0  0  0  0  0  0  0  0  0
  1  2  1  0
  2  3  1  0
  3  4  2  0
  4  5  1  0
  5  6  2  0
  6  7  1  0
  7  8  2  0
  8  9  1  0
  9 10  2  0
 10 11  1  0
 11 12  2  0
 12 13  1  0
 13 14  2  0
 14 15  1  0
 15 16  2  0
 16 17  1  0
 17 18  1  0
 18 19  2  0
 19 20  1  0
 20 21  2  0
 21 22  1  0
 22 23  2  0
 23 24  1  0
 24 25  1  0
  8  3  1  0
 17  9  1  0
 23 18  1  0
 16 11  1  0
  1 26  1  0
  1 27  1  0
  1 28  1  0
  4 29  1  0
  5 30  1  0
  6 31  1  0
  7 32  1  0
 12 33  1  0
 13 34  1  0
 14 35  1  0
 15 36  1  0
 19 37  1  0
 20 38  1  0
 21 39  1  0
 22 40  1  0
 25 41  1  0
 25 42  1  0
 25 43  1  0
M  CHG  1  15   1
M  END
>  <UniqueID>  (22) 
22

>  <SMILES>  (22) 
COc1ccccc1-c1nc2ccc[nH+]c2n1-c1ccccc1OC

>  <Energy>  (22) 
94.9550885155884

>  <Genealogy>  (22) 
COc1ccccc1-c1nc2ccc[nH+]c2n1-c1ccccc1OC (protonated)
COc1ccccc1-c1nc2ccc[nH+]c2n1-c1ccccc1OC (3D coordinates assigned)
COc1ccccc1-c1nc2ccc[nH+]c2n1-c1ccccc1OC (optimized conformer: 94.9550885155884 kcal/mol)

>  <smiles>  (22) 
COc1ccccc1-c1nc2cccnc2n1-c1ccccc1OC

>  <score_type>  (22) 
oracle

>  <origin>  (22) 
adg

>  <m_score__min__energy>  (22) 
-5.75

>  <m_primary>  (22) 
energy

$$$$
22:0
     RDKit          3D

 36 38  0  0  0  0  0  0  0  0999 V2000
   66.2060   32.5540   50.1180 C   0  0  0  0  0  0  0  0  0  0  0  0
   65.1270   33.4410   49.8420 O   0  0  0  0  0  0  0  0  0  0  0  0
   63.9920   33.1010   49.0890 C   0  0  0  0  0  0  0  0  0  0  0  0
   63.7710   33.6100   47.7960 C   0  0  0  0  0  0  0  0  0  0  0  0
   62.6300   33.2460   47.0750 C   0  0  0  0  0  0  0  0  0  0  0  0
   61.6890   32.3600   47.6280 C   0  0  0  0  0  0  0  0  0  0  0  0
   60.4680   31.9700   46.8800 C   0  0  0  0  0  0  0  0  0  0  0  0
   59.4070   32.8280   46.8490 N   0  0  0  0  0  0  0  0  0  0  0  0
   58.2740   32.5530   46.1990 N   0  0  0  0  0  0  0  0  0  0  0  0
   57.1880   33.5340   46.2220 C   0  0  0  0  0  0  0  0  0  0  0  0
   58.1450   31.3750   45.5310 C   0  0  0  0  0  0  0  0  0  0  0  0
   57.0120   31.0420   44.8690 N   0  0  0  0  0  0  0  0  0  0  0  0
   56.8980   29.8560   44.2140 C   0  0  0  0  0  0  0  0  0  0  0  0
   55.8130   29.5940   43.6280 O   0  0  0  0  0  0  0  0  0  0  0  0
   57.9410   28.9570   44.1900 N   0  0  0  0  0  0  0  0  0  0  0  0
   57.7790   27.6680   43.4950 C   0  0  0  0  0  0  0  0  0  0  0  0
   59.1060   29.2210   44.8730 C   0  0  0  0  0  0  0  0  0  0  0  0
   60.0420   28.3730   44.8910 O   0  0  0  0  0  0  0  0  0  0  0  0
   59.2600   30.4330   45.5540 C   0  0  0  0  0  0  0  0  0  0  0  0
   60.3870   30.7670   46.2380 N   0  0  0  0  0  0  0  0  0  0  0  0
   61.9060   31.8640   48.9250 C   0  0  0  0  0  0  0  0  0  0  0  0
   63.0480   32.2260   49.6470 C   0  0  0  0  0  0  0  0  0  0  0  0
   63.2860   31.5720   51.2600 Cl  0  0  0  0  0  0  0  0  0  0  0  0
   66.3286   32.4532   51.2065 H   0  0  0  0  0  0  0  0  0  0  0  0
   65.9912   31.5679   49.6804 H   0  0  0  0  0  0  0  0  0  0  0  0
   67.1319   32.9555   49.6804 H   0  0  0  0  0  0  0  0  0  0  0  0
   64.5019   34.2999   47.3489 H   0  0  0  0  0  0  0  0  0  0  0  0
   62.4672   33.6560   46.0673 H   0  0  0  0  0  0  0  0  0  0  0  0
   56.9280   33.7688   47.2647 H   0  0  0  0  0  0  0  0  0  0  0  0
   57.5119   34.4517   45.7093 H   0  0  0  0  0  0  0  0  0  0  0  0
   56.3078   33.1187   45.7093 H   0  0  0  0  0  0  0  0  0  0  0  0
   57.6777   26.8618   44.2365 H   0  0  0  0  0  0  0  0  0  0  0  0
   56.8780   27.7019   42.8648 H   0  0  0  0  0  0  0  0  0  0  0  0
   58.6603   27.4779   42.8648 H   0  0  0  0  0  0  0  0  0  0  0  0
   61.1790   30.0880   46.2940 H   0  0  0  0  0  0  0  0  0  0  0  0
   61.1696   31.1835   49.3774 H   0  0  0  0  0  0  0  0  0  0  0  0
  1  2  1  0
  2  3  1  0
  3  4  2  0
  4  5  1  0
  5  6  2  0
  6  7  1  0
  7  8  2  0
  8  9  1  0
  9 10  1  0
  9 11  1  0
 11 12  2  0
 12 13  1  0
 13 14  2  0
 13 15  1  0
 15 16  1  0
 15 17  1  0
 17 18  2  0
 17 19  1  0
 19 20  2  0
  6 21  1  0
 21 22  2  0
 22 23  1  0
 22  3  1  0
 20  7  1  0
 19 11  1  0
  1 24  1  0
  1 25  1  0
  1 26  1  0
  4 27  1  0
  5 28  1  0
 10 29  1  0
 10 30  1  0
 10 31  1  0
 16 32  1  0
 16 33  1  0
 16 34  1  0
 20 35  1  0
 21 36  1  0
M  CHG  1  20   1
M  END
>  <UniqueID>  (23) 
23

>  <SMILES>  (23) 
COc1ccc(-c2nn(C)c3nc(=O)n(C)c(=O)c-3[nH+]2)cc1Cl

>  <Energy>  (23) 
49.572091285118915

>  <Genealogy>  (23) 
COc1ccc(-c2nn(C)c3nc(=O)n(C)c(=O)c-3[nH+]2)cc1Cl (protonated)
COc1ccc(-c2nn(C)c3nc(=O)n(C)c(=O)c-3[nH+]2)cc1Cl (3D coordinates assigned)
COc1ccc(-c2nn(C)c3nc(=O)n(C)c(=O)c-3[nH+]2)cc1Cl (optimized conformer: 49.572091285118915 kcal/mol)

>  <smiles>  (23) 
COc1ccc(-c2nc3c(=O)n(C)c(=O)nc-3n(C)n2)cc1Cl

>  <score_type>  (23) 
oracle

>  <origin>  (23) 
adg

>  <m_score__min__energy>  (23) 
-5.8300000000000001

>  <m_primary>  (23) 
energy

$$$$
23:0
     RDKit          3D

 52 55  0  0  0  0  0  0  0  0999 V2000
   57.7890   25.7510   44.7270 C   0  0  0  0  0  0  0  0  0  0  0  0
   57.7840   25.9540   43.2090 C   0  0  0  0  0  0  0  0  0  0  0  0
   57.7650   27.3840   42.8380 N   0  0  0  0  0  0  0  0  0  0  0  0
   57.9950   28.2810   43.9890 C   0  0  0  0  0  0  0  0  0  0  0  0
   57.2640   29.6280   43.8490 C   0  0  0  0  0  0  0  0  0  0  0  0
   57.0280   30.2450   45.1570 N   0  0  0  0  0  0  0  0  0  0  0  0
   58.1080   30.7830   45.9390 C   0  0  0  0  0  0  0  0  0  0  0  0
   58.7800   29.9670   46.8690 C   0  0  0  0  0  0  0  0  0  0  0  0
   59.8350   30.5100   47.6370 C   0  0  0  0  0  0  0  0  0  0  0  0
   60.3580   31.7440   47.3060 N   0  0  0  0  0  0  0  0  0  0  0  0
   61.7270   32.1120   47.7210 C   0  0  0  0  0  0  0  0  0  0  0  0
   59.6360   32.6020   46.5010 C   0  0  0  0  0  0  0  0  0  0  0  0
   60.0070   33.9610   46.3460 C   0  0  0  0  0  0  0  0  0  0  0  0
   59.2530   34.8250   45.5530 C   0  0  0  0  0  0  0  0  0  0  0  0
   58.1090   34.3650   44.9080 C   0  0  0  0  0  0  0  0  0  0  0  0
   57.7190   33.0350   45.0430 C   0  0  0  0  0  0  0  0  0  0  0  0
   58.4810   32.1360   45.8190 C   0  0  0  0  0  0  0  0  0  0  0  0
   60.3640   29.6760   48.7670 C   0  0  0  0  0  0  0  0  0  0  0  0
   60.8380   30.2510   49.9620 C   0  0  0  0  0  0  0  0  0  0  0  0
   61.3070   29.4420   51.0010 C   0  0  0  0  0  0  0  0  0  0  0  0
   61.2700   28.0530   50.8800 C   0  0  0  0  0  0  0  0  0  0  0  0
   60.7270   27.4670   49.7350 C   0  0  0  0  0  0  0  0  0  0  0  0
   60.2400   28.2730   48.6950 C   0  0  0  0  0  0  0  0  0  0  0  0
   59.5570   27.6590   47.5060 C   0  0  0  0  0  0  0  0  0  0  0  0
   58.3600   28.5240   47.0930 C   0  0  0  0  0  0  0  0  0  0  0  0
   57.7649   26.7300   45.2279 H   0  0  0  0  0  0  0  0  0  0  0  0
   56.9050   25.1665   45.0217 H   0  0  0  0  0  0  0  0  0  0  0  0
   58.7007   25.2107   45.0217 H   0  0  0  0  0  0  0  0  0  0  0  0
   58.6875   25.4902   42.7865 H   0  0  0  0  0  0  0  0  0  0  0  0
   56.8711   25.4888   42.8087 H   0  0  0  0  0  0  0  0  0  0  0  0
   56.8430   27.6220   42.4020 H   0  0  0  0  0  0  0  0  0  0  0  0
   58.4910   27.5470   42.1040 H   0  0  0  0  0  0  0  0  0  0  0  0
   57.6387   27.7807   44.9015 H   0  0  0  0  0  0  0  0  0  0  0  0
   59.0736   28.4920   44.0348 H   0  0  0  0  0  0  0  0  0  0  0  0
   57.8775   30.3067   43.2383 H   0  0  0  0  0  0  0  0  0  0  0  0
   56.2904   29.4462   43.3705 H   0  0  0  0  0  0  0  0  0  0  0  0
   56.1130   30.0680   45.6290 H   0  0  0  0  0  0  0  0  0  0  0  0
   61.7854   32.1277   48.8193 H   0  0  0  0  0  0  0  0  0  0  0  0
   62.4407   31.3738   47.3264 H   0  0  0  0  0  0  0  0  0  0  0  0
   61.9744   33.1085   47.3264 H   0  0  0  0  0  0  0  0  0  0  0  0
   60.9033   34.3398   46.8590 H   0  0  0  0  0  0  0  0  0  0  0  0
   59.5635   35.8739   45.4368 H   0  0  0  0  0  0  0  0  0  0  0  0
   57.5121   35.0527   44.2909 H   0  0  0  0  0  0  0  0  0  0  0  0
   56.8072   32.6815   44.5393 H   0  0  0  0  0  0  0  0  0  0  0  0
   60.8392   31.3448   50.0786 H   0  0  0  0  0  0  0  0  0  0  0  0
   61.7064   29.9022   51.9168 H   0  0  0  0  0  0  0  0  0  0  0  0
   61.6684   27.4196   51.6862 H   0  0  0  0  0  0  0  0  0  0  0  0
   60.6809   26.3714   49.6481 H   0  0  0  0  0  0  0  0  0  0  0  0
   60.2678   27.5949   46.6689 H   0  0  0  0  0  0  0  0  0  0  0  0
   59.2041   26.6510   47.7693 H   0  0  0  0  0  0  0  0  0  0  0  0
   57.9330   28.1252   46.1610 H   0  0  0  0  0  0  0  0  0  0  0  0
   57.6146   28.4983   47.9015 H   0  0  0  0  0  0  0  0  0  0  0  0
  1  2  1  0
  2  3  1  0
  3  4  1  0
  4  5  1  0
  5  6  1  0
  6  7  1  0
  7  8  2  0
  8  9  1  0
  9 10  2  0
 10 11  1  0
 10 12  1  0
 12 13  2  0
 13 14  1  0
 14 15  2  0
 15 16  1  0
 16 17  2  0
  9 18  1  0
 18 19  2  0
 19 20  1  0
 20 21  2  0
 21 22  1  0
 22 23  2  0
 23 24  1  0
 24 25  1  0
 17  7  1  0
 23 18  1  0
 25  8  1  0
 17 12  1  0
  1 26  1  0
  1 27  1  0
  1 28  1  0
  2 29  1  0
  2 30  1  0
  3 31  1  0
  3 32  1  0
  4 33  1  0
  4 34  1  0
  5 35  1  0
  5 36  1  0
  6 37  1  0
 11 38  1  0
 11 39  1  0
 11 40  1  0
 13 41  1  0
 14 42  1  0
 15 43  1  0
 16 44  1  0
 19 45  1  0
 20 46  1  0
 21 47  1  0
 22 48  1  0
 24 49  1  0
 24 50  1  0
 25 51  1  0
 25 52  1  0
M  CHG  2   3   1  10   1
M  END
>  <UniqueID>  (24) 
24

>  <SMILES>  (24) 
CC[NH2+]CCNc1c2c([n+](C)c3ccccc13)-c1ccccc1CC2

>  <Energy>  (24) 
83.2870594793132

>  <Genealogy>  (24) 
CC[NH2+]CCNc1c2c([n+](C)c3ccccc13)-c1ccccc1CC2 (protonated)
CC[NH2+]CCNc1c2c([n+](C)c3ccccc13)-c1ccccc1CC2 (3D coordinates assigned)
CC[NH2+]CCNc1c2c([n+](C)c3ccccc13)-c1ccccc1CC2 (nonaromatic ring conformer: 83.2870594793132 kcal/mol)

>  <smiles>  (24) 
CCNCCNc1c2c([n+](C)c3ccccc13)-c1ccccc1CC2

>  <score_type>  (24) 
oracle

>  <origin>  (24) 
adg

>  <m_score__min__energy>  (24) 
-5.4100000000000001

>  <m_primary>  (24) 
energy

$$$$
24:0
     RDKit          3D

 29 31  0  0  0  0  0  0  0  0999 V2000
   62.8580   31.2370   47.1170 C   0  0  0  0  0  0  0  0  0  0  0  0
   63.7720   32.2870   47.5550 N   0  0  0  0  0  0  0  0  0  0  0  0
   63.6110   33.0020   48.7950 C   0  0  0  0  0  0  0  0  0  0  0  0
   64.6380   33.0110   49.7550 C   0  0  0  0  0  0  0  0  0  0  0  0
   64.5330   33.7820   50.8670 N   0  0  0  0  0  0  0  0  0  0  0  0
   63.4420   34.5620   51.0720 C   0  0  0  0  0  0  0  0  0  0  0  0
   62.4250   34.5570   50.1750 N   0  0  0  0  0  0  0  0  0  0  0  0
   62.4650   33.7900   49.0540 C   0  0  0  0  0  0  0  0  0  0  0  0
   61.2770   33.8000   48.1790 C   0  0  0  0  0  0  0  0  0  0  0  0
   59.9840   33.4100   48.5280 C   0  0  0  0  0  0  0  0  0  0  0  0
   59.2380   33.6500   47.3990 C   0  0  0  0  0  0  0  0  0  0  0  0
   57.8810   33.4630   47.1420 C   0  0  0  0  0  0  0  0  0  0  0  0
   57.4010   33.8190   45.8680 C   0  0  0  0  0  0  0  0  0  0  0  0
   58.2780   34.3500   44.8960 C   0  0  0  0  0  0  0  0  0  0  0  0
   59.6440   34.5310   45.1890 C   0  0  0  0  0  0  0  0  0  0  0  0
   60.0880   34.1670   46.4580 C   0  0  0  0  0  0  0  0  0  0  0  0
   61.3040   34.2580   46.9390 O   0  0  0  0  0  0  0  0  0  0  0  0
   62.4240   30.7384   47.9962 H   0  0  0  0  0  0  0  0  0  0  0  0
   62.0531   31.6803   46.5123 H   0  0  0  0  0  0  0  0  0  0  0  0
   63.4080   30.5009   46.5123 H   0  0  0  0  0  0  0  0  0  0  0  0
   64.5730   32.5160   46.9260 H   0  0  0  0  0  0  0  0  0  0  0  0
   65.5326   32.3890   49.6039 H   0  0  0  0  0  0  0  0  0  0  0  0
   65.3080   33.7880   51.5670 H   0  0  0  0  0  0  0  0  0  0  0  0
   63.3823   35.1991   51.9667 H   0  0  0  0  0  0  0  0  0  0  0  0
   59.6393   33.0024   49.4898 H   0  0  0  0  0  0  0  0  0  0  0  0
   57.2083   33.0512   47.9087 H   0  0  0  0  0  0  0  0  0  0  0  0
   56.3363   33.6830   45.6274 H   0  0  0  0  0  0  0  0  0  0  0  0
   57.8915   34.6241   43.9033 H   0  0  0  0  0  0  0  0  0  0  0  0
   60.3362   34.9455   44.4413 H   0  0  0  0  0  0  0  0  0  0  0  0
  1  2  1  0
  2  3  1  0
  3  4  2  0
  4  5  1  0
  5  6  2  0
  6  7  1  0
  7  8  2  0
  8  9  1  0
  9 10  2  0
 10 11  1  0
 11 12  2  0
 12 13  1  0
 13 14  2  0
 14 15  1  0
 15 16  2  0
 16 17  1  0
  8  3  1  0
 17  9  1  0
 16 11  1  0
  1 18  1  0
  1 19  1  0
  1 20  1  0
  2 21  1  0
  4 22  1  0
  5 23  1  0
  6 24  1  0
 10 25  1  0
 12 26  1  0
 13 27  1  0
 14 28  1  0
 15 29  1  0
M  CHG  1   5   1
M  END
>  <UniqueID>  (25) 
25

>  <SMILES>  (25) 
CNc1c[nH+]cnc1-c1cc2ccccc2o1

>  <Energy>  (25) 
70.35485110869276

>  <Genealogy>  (25) 
CNc1c[nH+]cnc1-c1cc2ccccc2o1 (protonated)
CNc1c[nH+]cnc1-c1cc2ccccc2o1 (3D coordinates assigned)
CNc1c[nH+]cnc1-c1cc2ccccc2o1 (optimized conformer: 70.35485110869276 kcal/mol)

>  <smiles>  (25) 
CNc1cncnc1-c1cc2ccccc2o1

>  <score_type>  (25) 
oracle

>  <origin>  (25) 
adg

>  <m_score__min__energy>  (25) 
-4.6699999999999999

>  <m_primary>  (25) 
energy

$$$$
25:0
     RDKit          3D

 43 45  0  0  0  0  0  0  0  0999 V2000
   56.0200   29.7450   43.4050 C   0  0  0  0  0  0  0  0  0  0  0  0
   56.7450   29.0270   44.5430 C   0  0  0  0  0  0  0  0  0  0  0  0
   58.1290   28.6570   44.1630 N   0  0  0  0  0  0  0  0  0  0  0  0
   58.1390   27.4080   43.3750 C   0  0  0  0  0  0  0  0  0  0  0  0
   58.9830   28.5110   45.3650 C   0  0  0  0  0  0  0  0  0  0  0  0
   58.5270   29.4840   46.4650 C   0  0  0  0  0  0  0  0  0  0  0  0
   59.3850   30.6830   46.5210 N   0  0  0  0  0  0  0  0  0  0  0  0
   60.6760   30.5860   47.1710 C   0  0  0  0  0  0  0  0  0  0  0  0
   61.1180   29.4470   47.4890 O   0  0  0  0  0  0  0  0  0  0  0  0
   61.5210   31.7600   47.5040 C   0  0  0  0  0  0  0  0  0  0  0  0
   62.9210   31.6080   47.5110 C   0  0  0  0  0  0  0  0  0  0  0  0
   63.7510   32.6400   47.9550 C   0  0  0  0  0  0  0  0  0  0  0  0
   63.1950   33.8310   48.4180 C   0  0  0  0  0  0  0  0  0  0  0  0
   61.8100   33.9980   48.4240 C   0  0  0  0  0  0  0  0  0  0  0  0
   60.9660   32.9760   47.9580 C   0  0  0  0  0  0  0  0  0  0  0  0
   59.5570   33.2080   47.9230 N   0  0  0  0  0  0  0  0  0  0  0  0
   58.8870   33.1130   46.6670 C   0  0  0  0  0  0  0  0  0  0  0  0
   58.2510   34.2510   46.1470 C   0  0  0  0  0  0  0  0  0  0  0  0
   57.6480   34.2120   44.8900 C   0  0  0  0  0  0  0  0  0  0  0  0
   57.6690   33.0340   44.1460 C   0  0  0  0  0  0  0  0  0  0  0  0
   58.2790   31.8890   44.6640 C   0  0  0  0  0  0  0  0  0  0  0  0
   58.8940   31.9100   45.9330 C   0  0  0  0  0  0  0  0  0  0  0  0
   55.2974   30.4606   43.8243 H   0  0  0  0  0  0  0  0  0  0  0  0
   56.7524   30.2837   42.7858 H   0  0  0  0  0  0  0  0  0  0  0  0
   55.4884   29.0074   42.7858 H   0  0  0  0  0  0  0  0  0  0  0  0
   56.7812   29.6920   45.4185 H   0  0  0  0  0  0  0  0  0  0  0  0
   56.1935   28.1034   44.7726 H   0  0  0  0  0  0  0  0  0  0  0  0
   58.1459   26.5446   44.0565 H   0  0  0  0  0  0  0  0  0  0  0  0
   57.2412   27.3674   42.7408 H   0  0  0  0  0  0  0  0  0  0  0  0
   59.0374   27.3818   42.7408 H   0  0  0  0  0  0  0  0  0  0  0  0
   58.9090   27.4794   45.7396 H   0  0  0  0  0  0  0  0  0  0  0  0
   60.0243   28.7398   45.0941 H   0  0  0  0  0  0  0  0  0  0  0  0
   57.4921   29.7951   46.2595 H   0  0  0  0  0  0  0  0  0  0  0  0
   58.5972   28.9658   47.4327 H   0  0  0  0  0  0  0  0  0  0  0  0
   63.3666   30.6646   47.1624 H   0  0  0  0  0  0  0  0  0  0  0  0
   64.8435   32.5126   47.9392 H   0  0  0  0  0  0  0  0  0  0  0  0
   63.8481   34.6393   48.7787 H   0  0  0  0  0  0  0  0  0  0  0  0
   61.3753   34.9373   48.7965 H   0  0  0  0  0  0  0  0  0  0  0  0
   59.1600   33.8680   48.6290 H   0  0  0  0  0  0  0  0  0  0  0  0
   58.2280   35.1803   46.7351 H   0  0  0  0  0  0  0  0  0  0  0  0
   57.1566   35.1097   44.4866 H   0  0  0  0  0  0  0  0  0  0  0  0
   57.2045   33.0056   43.1493 H   0  0  0  0  0  0  0  0  0  0  0  0
   58.2797   30.9599   44.0751 H   0  0  0  0  0  0  0  0  0  0  0  0
  1  2  1  0
  2  3  1  0
  3  4  1  0
  3  5  1  0
  5  6  1  0
  6  7  1  0
  7  8  1  0
  8  9  2  0
  8 10  1  0
 10 11  2  0
 11 12  1  0
 12 13  2  0
 13 14  1  0
 14 15  2  0
 15 16  1  0
 16 17  1  0
 17 18  2  0
 18 19  1  0
 19 20  2  0
 20 21  1  0
 21 22  2  0
 22  7  1  0
 15 10  1  0
 22 17  1  0
  1 23  1  0
  1 24  1  0
  1 25  1  0
  2 26  1  0
  2 27  1  0
  4 28  1  0
  4 29  1  0
  4 30  1  0
  5 31  1  0
  5 32  1  0
  6 33  1  0
  6 34  1  0
 11 35  1  0
 12 36  1  0
 13 37  1  0
 14 38  1  0
 16 39  1  0
 18 40  1  0
 19 41  1  0
 20 42  1  0
 21 43  1  0
M  END
>  <UniqueID>  (26) 
26

>  <SMILES>  (26) 
CCN(C)CCN1C(=O)c2ccccc2Nc2ccccc21

>  <Energy>  (26) 
67.69854098454634

>  <Genealogy>  (26) 
CCN(C)CCN1C(=O)c2ccccc2Nc2ccccc21 (3D coordinates assigned)
CCN(C)CCN1C(=O)c2ccccc2Nc2ccccc21 (nonaromatic ring conformer: 67.69854098454634 kcal/mol)

>  <smiles>  (26) 
CCN(C)CCN1C(=O)c2ccccc2Nc2ccccc21

>  <score_type>  (26) 
oracle

>  <origin>  (26) 
adg

>  <m_score__min__energy>  (26) 
-6.8099999999999996

>  <m_primary>  (26) 
energy

$$$$
26:0
     RDKit          3D

 55 57  0  0  0  0  0  0  0  0999 V2000
   52.5550   30.1540   50.5250 C   0  0  0  0  0  0  0  0  0  0  0  0
   53.2980   30.2040   51.8610 C   0  0  0  0  0  0  0  0  0  0  0  0
   54.3520   29.1660   51.9490 N   0  0  0  0  0  0  0  0  0  0  0  0
   54.9280   29.0330   53.2990 C   0  0  0  0  0  0  0  0  0  0  0  0
   56.2620   29.7890   53.4420 C   0  0  0  0  0  0  0  0  0  0  0  0
   56.2640   31.0940   52.6410 C   0  0  0  0  0  0  0  0  0  0  0  0
   56.6590   30.8430   51.2480 N   0  0  0  0  0  0  0  0  0  0  0  0
   58.1190   30.8580   51.0920 C   0  0  0  0  0  0  0  0  0  0  0  0
   58.5460   32.0400   50.2170 C   0  0  0  0  0  0  0  0  0  0  0  0
   59.4730   31.6080   49.1700 N   0  0  0  0  0  0  0  0  0  0  0  0
   59.0760   31.5180   47.7900 C   0  0  0  0  0  0  0  0  0  0  0  0
   58.8010   30.2690   47.2070 C   0  0  0  0  0  0  0  0  0  0  0  0
   58.8090   29.0900   47.9830 C   0  0  0  0  0  0  0  0  0  0  0  0
   58.6160   27.8450   47.3890 C   0  0  0  0  0  0  0  0  0  0  0  0
   58.4150   27.7530   46.0170 C   0  0  0  0  0  0  0  0  0  0  0  0
   58.3570   28.9080   45.2380 C   0  0  0  0  0  0  0  0  0  0  0  0
   58.4970   30.1940   45.8210 C   0  0  0  0  0  0  0  0  0  0  0  0
   58.3530   31.3510   45.0770 N   0  0  0  0  0  0  0  0  0  0  0  0
   57.7670   31.2880   43.7180 C   0  0  0  0  0  0  0  0  0  0  0  0
   58.7160   32.5710   45.6150 C   0  0  0  0  0  0  0  0  0  0  0  0
   58.8070   33.7440   44.8190 C   0  0  0  0  0  0  0  0  0  0  0  0
   59.1170   34.9780   45.3860 C   0  0  0  0  0  0  0  0  0  0  0  0
   59.3560   35.0800   46.7510 C   0  0  0  0  0  0  0  0  0  0  0  0
   59.3210   33.9420   47.5520 C   0  0  0  0  0  0  0  0  0  0  0  0
   59.0330   32.6780   46.9960 C   0  0  0  0  0  0  0  0  0  0  0  0
   51.4731   30.0812   50.7097 H   0  0  0  0  0  0  0  0  0  0  0  0
   52.7685   31.0685   49.9523 H   0  0  0  0  0  0  0  0  0  0  0  0
   52.8891   29.2763   49.9523 H   0  0  0  0  0  0  0  0  0  0  0  0
   53.7645   31.1941   51.9711 H   0  0  0  0  0  0  0  0  0  0  0  0
   52.5686   30.0165   52.6628 H   0  0  0  0  0  0  0  0  0  0  0  0
   55.1190   29.3310   51.2550 H   0  0  0  0  0  0  0  0  0  0  0  0
   53.9220   28.2440   51.7040 H   0  0  0  0  0  0  0  0  0  0  0  0
   54.2124   29.4367   54.0303 H   0  0  0  0  0  0  0  0  0  0  0  0
   55.1252   27.9656   53.4772 H   0  0  0  0  0  0  0  0  0  0  0  0
   56.4268   30.0228   54.5042 H   0  0  0  0  0  0  0  0  0  0  0  0
   57.0636   29.1457   53.0501 H   0  0  0  0  0  0  0  0  0  0  0  0
   55.2544   31.5305   52.6578 H   0  0  0  0  0  0  0  0  0  0  0  0
   56.9856   31.7889   53.0954 H   0  0  0  0  0  0  0  0  0  0  0  0
   56.2650   31.6180   50.6630 H   0  0  0  0  0  0  0  0  0  0  0  0
   58.5891   30.9506   52.0821 H   0  0  0  0  0  0  0  0  0  0  0  0
   58.4378   29.9218   50.6105 H   0  0  0  0  0  0  0  0  0  0  0  0
   57.6542   32.4816   49.7484 H   0  0  0  0  0  0  0  0  0  0  0  0
   59.0540   32.7811   50.8517 H   0  0  0  0  0  0  0  0  0  0  0  0
   60.4270   31.2780   49.4410 H   0  0  0  0  0  0  0  0  0  0  0  0
   58.9695   29.1551   49.0693 H   0  0  0  0  0  0  0  0  0  0  0  0
   58.6227   26.9344   48.0060 H   0  0  0  0  0  0  0  0  0  0  0  0
   58.3013   26.7663   45.5443 H   0  0  0  0  0  0  0  0  0  0  0  0
   58.2000   28.8207   44.1528 H   0  0  0  0  0  0  0  0  0  0  0  0
   56.6759   31.1707   43.7942 H   0  0  0  0  0  0  0  0  0  0  0  0
   57.9989   32.2163   43.1753 H   0  0  0  0  0  0  0  0  0  0  0  0
   58.1910   30.4303   43.1753 H   0  0  0  0  0  0  0  0  0  0  0  0
   58.6295   33.6767   43.7355 H   0  0  0  0  0  0  0  0  0  0  0  0
   59.1728   35.8746   44.7511 H   0  0  0  0  0  0  0  0  0  0  0  0
   59.5731   36.0609   47.1991 H   0  0  0  0  0  0  0  0  0  0  0  0
   59.5201   34.0294   48.6303 H   0  0  0  0  0  0  0  0  0  0  0  0
  1  2  1  0
  2  3  1  0
  3  4  1  0
  4  5  1  0
  5  6  1  0
  6  7  1  0
  7  8  1  0
  8  9  1  0
  9 10  1  0
 10 11  1  0
 11 12  2  0
 12 13  1  0
 13 14  2  0
 14 15  1  0
 15 16  2  0
 16 17  1  0
 17 18  2  0
 18 19  1  0
 18 20  1  0
 20 21  2  0
 21 22  1  0
 22 23  2  0
 23 24  1  0
 24 25  2  0
 25 11  1  0
 17 12  1  0
 25 20  1  0
  1 26  1  0
  1 27  1  0
  1 28  1  0
  2 29  1  0
  2 30  1  0
  3 31  1  0
  3 32  1  0
  4 33  1  0
  4 34  1  0
  5 35  1  0
  5 36  1  0
  6 37  1  0
  6 38  1  0
  7 39  1  0
  8 40  1  0
  8 41  1  0
  9 42  1  0
  9 43  1  0
 10 44  1  0
 13 45  1  0
 14 46  1  0
 15 47  1  0
 16 48  1  0
 19 49  1  0
 19 50  1  0
 19 51  1  0
 21 52  1  0
 22 53  1  0
 23 54  1  0
 24 55  1  0
M  CHG  2   3   1  18   1
M  END
>  <UniqueID>  (27) 
27

>  <SMILES>  (27) 
CC[NH2+]CCCNCCNc1c2ccccc2[n+](C)c2ccccc12

>  <Energy>  (27) 
77.01424631078574

>  <Genealogy>  (27) 
CC[NH2+]CCCNCCNc1c2ccccc2[n+](C)c2ccccc12 (protonated)
CC[NH2+]CCCNCCNc1c2ccccc2[n+](C)c2ccccc12 (3D coordinates assigned)
CC[NH2+]CCCNCCNc1c2ccccc2[n+](C)c2ccccc12 (optimized conformer: 77.01424631078574 kcal/mol)

>  <smiles>  (27) 
CCNCCCNCCNc1c2ccccc2[n+](C)c2ccccc12

>  <score_type>  (27) 
oracle

>  <origin>  (27) 
adg

>  <m_score__min__energy>  (27) 
-4.3700000000000001

>  <m_primary>  (27) 
energy

$$$$
27:0
     RDKit          3D

 45 47  0  0  0  0  0  0  0  0999 V2000
   65.9920   32.5010   50.1340 C   0  0  0  0  0  0  0  0  0  0  0  0
   65.0020   33.4130   49.6680 O   0  0  0  0  0  0  0  0  0  0  0  0
   63.7960   33.0290   49.0630 C   0  0  0  0  0  0  0  0  0  0  0  0
   63.7510   32.3930   47.8080 C   0  0  0  0  0  0  0  0  0  0  0  0
   62.5220   32.0470   47.2390 C   0  0  0  0  0  0  0  0  0  0  0  0
   61.3220   32.3460   47.9010 C   0  0  0  0  0  0  0  0  0  0  0  0
   59.7630   31.8910   47.1930 S   0  0  0  0  0  0  0  0  0  0  0  0
   59.9850   30.8540   46.1270 O   0  0  0  0  0  0  0  0  0  0  0  0
   58.9340   31.2630   48.2770 O   0  0  0  0  0  0  0  0  0  0  0  0
   58.8540   33.2220   46.5050 N   0  0  0  0  0  0  0  0  0  0  0  0
   59.6390   34.1760   45.7290 C   0  0  0  0  0  0  0  0  0  0  0  0
   58.6410   34.9630   44.8850 C   0  0  0  0  0  0  0  0  0  0  0  0
   57.3130   34.2160   45.0030 C   0  0  0  0  0  0  0  0  0  0  0  0
   57.6430   32.9130   45.7330 C   0  0  1  0  0  0  0  0  0  0  0  0
   57.7910   31.7460   44.7310 C   0  0  0  0  0  0  0  0  0  0  0  0
   57.0480   30.6060   45.1620 O   0  0  0  0  0  0  0  0  0  0  0  0
   57.5040   29.2830   45.0930 C   0  0  0  0  0  0  0  0  0  0  0  0
   57.7950   28.5210   46.2410 C   0  0  0  0  0  0  0  0  0  0  0  0
   58.2720   27.2130   46.1130 C   0  0  0  0  0  0  0  0  0  0  0  0
   58.4580   26.6560   44.8460 C   0  0  0  0  0  0  0  0  0  0  0  0
   58.1670   27.4050   43.7030 C   0  0  0  0  0  0  0  0  0  0  0  0
   57.6880   28.7120   43.8270 C   0  0  0  0  0  0  0  0  0  0  0  0
   61.3710   32.9400   49.1700 C   0  0  0  0  0  0  0  0  0  0  0  0
   62.5990   33.2910   49.7380 C   0  0  0  0  0  0  0  0  0  0  0  0
   65.9973   32.4961   51.2340 H   0  0  0  0  0  0  0  0  0  0  0  0
   65.7631   31.4907   49.7639 H   0  0  0  0  0  0  0  0  0  0  0  0
   66.9801   32.8119   49.7639 H   0  0  0  0  0  0  0  0  0  0  0  0
   64.6856   32.1676   47.2735 H   0  0  0  0  0  0  0  0  0  0  0  0
   62.4957   31.5365   46.2650 H   0  0  0  0  0  0  0  0  0  0  0  0
   60.1880   34.8530   46.4000 H   0  0  0  0  0  0  0  0  0  0  0  0
   60.3813   33.6647   45.0984 H   0  0  0  0  0  0  0  0  0  0  0  0
   58.5389   35.9884   45.2700 H   0  0  0  0  0  0  0  0  0  0  0  0
   58.9695   35.0404   43.8381 H   0  0  0  0  0  0  0  0  0  0  0  0
   56.5885   34.8082   45.5812 H   0  0  0  0  0  0  0  0  0  0  0  0
   56.8598   34.0295   44.0182 H   0  0  0  0  0  0  0  0  0  0  0  0
   56.8483   32.5666   46.4101 H   0  0  0  0  0  0  0  0  0  0  0  0
   57.4189   32.0671   43.7469 H   0  0  0  0  0  0  0  0  0  0  0  0
   58.8538   31.4693   44.6689 H   0  0  0  0  0  0  0  0  0  0  0  0
   57.6467   28.9558   47.2405 H   0  0  0  0  0  0  0  0  0  0  0  0
   58.5012   26.6217   47.0118 H   0  0  0  0  0  0  0  0  0  0  0  0
   58.8339   25.6269   44.7478 H   0  0  0  0  0  0  0  0  0  0  0  0
   58.3149   26.9659   42.7054 H   0  0  0  0  0  0  0  0  0  0  0  0
   57.4539   29.2961   42.9248 H   0  0  0  0  0  0  0  0  0  0  0  0
   60.4385   33.1308   49.7214 H   0  0  0  0  0  0  0  0  0  0  0  0
   62.6244   33.7774   50.7243 H   0  0  0  0  0  0  0  0  0  0  0  0
  1  2  1  0
  2  3  1  0
  3  4  2  0
  4  5  1  0
  5  6  2  0
  6  7  1  0
  7  8  2  0
  7  9  2  0
  7 10  1  0
 10 11  1  0
 11 12  1  0
 12 13  1  0
 13 14  1  0
 14 15  1  0
 15 16  1  0
 16 17  1  0
 17 18  2  0
 18 19  1  0
 19 20  2  0
 20 21  1  0
 21 22  2  0
  6 23  1  0
 23 24  2  0
 24  3  1  0
 14 10  1  0
 22 17  1  0
  1 25  1  0
  1 26  1  0
  1 27  1  0
  4 28  1  0
  5 29  1  0
 11 30  1  0
 11 31  1  0
 12 32  1  0
 12 33  1  0
 13 34  1  0
 13 35  1  0
 14 36  1  1
 15 37  1  0
 15 38  1  0
 18 39  1  0
 19 40  1  0
 20 41  1  0
 21 42  1  0
 22 43  1  0
 23 44  1  0
 24 45  1  0
M  END
>  <UniqueID>  (28) 
28

>  <SMILES>  (28) 
COc1ccc(S(=O)(=O)N2CCC[C@H]2COc2ccccc2)cc1

>  <Energy>  (28) 
48.73057144177807

>  <Genealogy>  (28) 
COc1ccc(S(=O)(=O)N2CCC[C@H]2COc2ccccc2)cc1 (chirality)
COc1ccc(S(=O)(=O)N2CCC[C@H]2COc2ccccc2)cc1 (3D coordinates assigned)
COc1ccc(S(=O)(=O)N2CCC[C@H]2COc2ccccc2)cc1 (nonaromatic ring conformer: 48.73057144177807 kcal/mol)

>  <smiles>  (28) 
COc1ccc(S(=O)(=O)N2CCCC2COc2ccccc2)cc1

>  <score_type>  (28) 
oracle

>  <origin>  (28) 
adg

>  <m_score__min__energy>  (28) 
-7.7999999999999998

>  <m_primary>  (28) 
energy

$$$$
28:0
     RDKit          3D

 54 56  0  0  0  0  0  0  0  0999 V2000
   61.2890   34.1890   46.3610 C   0  0  0  0  0  0  0  0  0  0  0  0
   59.9700   34.9550   46.2780 C   0  0  0  0  0  0  0  0  0  0  0  0
   58.8580   34.1570   46.8280 N   0  0  0  0  0  0  0  0  0  0  0  0
   57.7670   33.7540   45.9210 C   0  0  0  0  0  0  0  0  0  0  0  0
   58.2820   33.2030   44.5690 C   0  0  0  0  0  0  0  0  0  0  0  0
   57.9970   31.7620   44.3570 N   0  0  0  0  0  0  0  0  0  0  0  0
   58.4570   30.8910   45.4270 C   0  0  0  0  0  0  0  0  0  0  0  0
   59.6260   31.1950   46.1570 C   0  0  0  0  0  0  0  0  0  0  0  0
   60.0910   30.3560   47.1790 C   0  0  0  0  0  0  0  0  0  0  0  0
   61.2950   30.6960   47.8880 N   0  0  0  0  0  0  0  0  0  0  0  0
   62.4590   31.2200   47.1700 C   0  0  0  0  0  0  0  0  0  0  0  0
   63.1590   32.2680   48.0390 C   0  0  0  0  0  0  0  0  0  0  0  0
   63.4460   31.7460   49.3240 O   0  0  0  0  0  0  0  0  0  0  0  0
   62.2400   31.4560   50.0090 C   0  0  0  0  0  0  0  0  0  0  0  0
   61.4630   30.3430   49.3000 C   0  0  0  0  0  0  0  0  0  0  0  0
   59.3650   29.2020   47.5040 C   0  0  0  0  0  0  0  0  0  0  0  0
   59.8050   28.3570   48.4690 F   0  0  0  0  0  0  0  0  0  0  0  0
   58.1750   28.9140   46.8370 C   0  0  0  0  0  0  0  0  0  0  0  0
   57.6890   29.7620   45.8300 C   0  0  0  0  0  0  0  0  0  0  0  0
   56.4040   29.4760   45.2530 N   0  0  0  0  0  0  0  0  0  0  0  0
   55.9670   28.3060   45.2450 O   0  0  0  0  0  0  0  0  0  0  0  0
   55.7610   30.4320   44.5010 O   0  0  0  0  0  0  0  0  0  0  0  0
   58.8950   33.6670   48.1980 C   0  0  0  0  0  0  0  0  0  0  0  0
   59.7050   34.2880   49.1730 C   0  0  0  0  0  0  0  0  0  0  0  0
   59.7260   33.8180   50.4900 C   0  0  0  0  0  0  0  0  0  0  0  0
   58.9440   32.7200   50.8580 C   0  0  0  0  0  0  0  0  0  0  0  0
   58.9740   32.1350   52.5110 Cl  0  0  0  0  0  0  0  0  0  0  0  0
   58.1410   32.0900   49.9060 C   0  0  0  0  0  0  0  0  0  0  0  0
   58.1140   32.5560   48.5890 C   0  0  0  0  0  0  0  0  0  0  0  0
   61.5569   34.0334   47.4165 H   0  0  0  0  0  0  0  0  0  0  0  0
   61.1789   33.2143   45.8631 H   0  0  0  0  0  0  0  0  0  0  0  0
   62.0810   34.7677   45.8631 H   0  0  0  0  0  0  0  0  0  0  0  0
   60.0602   35.8892   46.8517 H   0  0  0  0  0  0  0  0  0  0  0  0
   59.7565   35.1703   45.2206 H   0  0  0  0  0  0  0  0  0  0  0  0
   57.1706   32.9725   46.4145 H   0  0  0  0  0  0  0  0  0  0  0  0
   57.1675   34.6508   45.7058 H   0  0  0  0  0  0  0  0  0  0  0  0
   57.8043   33.7731   43.7585 H   0  0  0  0  0  0  0  0  0  0  0  0
   59.3764   33.3135   44.5762 H   0  0  0  0  0  0  0  0  0  0  0  0
   58.4960   31.5070   43.4750 H   0  0  0  0  0  0  0  0  0  0  0  0
   56.9850   31.5760   44.1900 H   0  0  0  0  0  0  0  0  0  0  0  0
   60.1852   32.1117   45.9184 H   0  0  0  0  0  0  0  0  0  0  0  0
   63.1567   30.3981   46.9516 H   0  0  0  0  0  0  0  0  0  0  0  0
   62.1330   31.6816   46.2262 H   0  0  0  0  0  0  0  0  0  0  0  0
   64.0992   32.5690   47.5538 H   0  0  0  0  0  0  0  0  0  0  0  0
   62.4915   33.1350   48.1519 H   0  0  0  0  0  0  0  0  0  0  0  0
   62.4764   31.1337   51.0338 H   0  0  0  0  0  0  0  0  0  0  0  0
   61.6182   32.3632   50.0254 H   0  0  0  0  0  0  0  0  0  0  0  0
   62.0200   29.3978   49.3790 H   0  0  0  0  0  0  0  0  0  0  0  0
   60.4760   30.2240   49.7708 H   0  0  0  0  0  0  0  0  0  0  0  0
   57.6091   28.0093   47.1039 H   0  0  0  0  0  0  0  0  0  0  0  0
   60.3268   35.1514   48.8938 H   0  0  0  0  0  0  0  0  0  0  0  0
   60.3605   34.3145   51.2390 H   0  0  0  0  0  0  0  0  0  0  0  0
   57.5272   31.2236   50.1935 H   0  0  0  0  0  0  0  0  0  0  0  0
   57.4770   32.0519   47.8474 H   0  0  0  0  0  0  0  0  0  0  0  0
  1  2  1  0
  2  3  1  0
  3  4  1  0
  4  5  1  0
  5  6  1  0
  6  7  1  0
  7  8  2  0
  8  9  1  0
  9 10  1  0
 10 11  1  0
 11 12  1  0
 12 13  1  0
 13 14  1  0
 14 15  1  0
  9 16  2  0
 16 17  1  0
 16 18  1  0
 18 19  2  0
 19 20  1  0
 20 21  2  0
 20 22  1  0
  3 23  1  0
 23 24  2  0
 24 25  1  0
 25 26  2  0
 26 27  1  0
 26 28  1  0
 28 29  2  0
 19  7  1  0
 29 23  1  0
 15 10  1  0
  1 30  1  0
  1 31  1  0
  1 32  1  0
  2 33  1  0
  2 34  1  0
  4 35  1  0
  4 36  1  0
  5 37  1  0
  5 38  1  0
  6 39  1  0
  6 40  1  0
  8 41  1  0
 11 42  1  0
 11 43  1  0
 12 44  1  0
 12 45  1  0
 14 46  1  0
 14 47  1  0
 15 48  1  0
 15 49  1  0
 18 50  1  0
 24 51  1  0
 25 52  1  0
 28 53  1  0
 29 54  1  0
M  CHG  3   6   1  20   1  22  -1
M  END
>  <UniqueID>  (29) 
29

>  <SMILES>  (29) 
CCN(CC[NH2+]c1cc(N2CCOCC2)c(F)cc1[N+](=O)[O-])c1ccc(Cl)cc1

>  <Energy>  (29) 
74.23659951615203

>  <Genealogy>  (29) 
CCN(CC[NH2+]c1cc(N2CCOCC2)c(F)cc1[N+](=O)[O-])c1ccc(Cl)cc1 (protonated)
CCN(CC[NH2+]c1cc(N2CCOCC2)c(F)cc1[N+](=O)[O-])c1ccc(Cl)cc1 (3D coordinates assigned)
CCN(CC[NH2+]c1cc(N2CCOCC2)c(F)cc1[N+](=O)[O-])c1ccc(Cl)cc1 (nonaromatic ring conformer: 74.23659951615203 kcal/mol)

>  <smiles>  (29) 
CCN(CCNc1cc(N2CCOCC2)c(F)cc1[N+](=O)[O-])c1ccc(Cl)cc1

>  <score_type>  (29) 
oracle

>  <origin>  (29) 
adg

>  <m_score__min__energy>  (29) 
-6.2300000000000004

>  <m_primary>  (29) 
energy

$$$$
29:0
     RDKit          3D

 37 38  0  0  0  0  0  0  0  0999 V2000
   60.0410   28.5230   44.7640 C   0  0  0  0  0  0  0  0  0  0  0  0
   59.7030   29.7000   45.6330 C   0  0  0  0  0  0  0  0  0  0  0  0
   60.3180   29.8130   46.8920 C   0  0  0  0  0  0  0  0  0  0  0  0
   60.0550   30.9100   47.7150 C   0  0  0  0  0  0  0  0  0  0  0  0
   60.9290   31.0680   49.4060 Br  0  0  0  0  0  0  0  0  0  0  0  0
   59.1720   31.9030   47.2940 C   0  0  0  0  0  0  0  0  0  0  0  0
   58.5440   31.8040   46.0480 C   0  0  0  0  0  0  0  0  0  0  0  0
   57.3630   33.2040   45.4960 Br  0  0  0  0  0  0  0  0  0  0  0  0
   58.7840   30.6940   45.2190 C   0  0  0  0  0  0  0  0  0  0  0  0
   58.1320   30.6260   43.9790 O   0  0  0  0  0  0  0  0  0  0  0  0
   57.3300   29.5170   43.5710 C   0  0  0  0  0  0  0  0  0  0  0  0
   56.1340   29.3820   44.4570 C   0  0  0  0  0  0  0  0  0  0  0  0
   55.2970   30.3220   44.5280 O   0  0  0  0  0  0  0  0  0  0  0  0
   55.9700   28.2030   45.2500 N   0  0  0  0  0  0  0  0  0  0  0  0
   56.9990   27.6920   46.1500 C   0  0  0  0  0  0  0  0  0  0  0  0
   57.5650   26.3650   45.6260 C   0  0  0  0  0  0  0  0  0  0  0  0
   56.4940   25.3670   45.2600 C   0  0  0  0  0  0  0  0  0  0  0  0
   56.6750   24.5170   44.1590 C   0  0  0  0  0  0  0  0  0  0  0  0
   55.6670   23.6160   43.8130 C   0  0  0  0  0  0  0  0  0  0  0  0
   54.4850   23.5760   44.5540 C   0  0  0  0  0  0  0  0  0  0  0  0
   54.3260   24.4490   45.6310 C   0  0  0  0  0  0  0  0  0  0  0  0
   55.3200   25.3210   45.9520 N   0  0  0  0  0  0  0  0  0  0  0  0
   60.2892   27.6587   45.3976 H   0  0  0  0  0  0  0  0  0  0  0  0
   59.1775   28.2761   44.1289 H   0  0  0  0  0  0  0  0  0  0  0  0
   60.9040   28.7719   44.1289 H   0  0  0  0  0  0  0  0  0  0  0  0
   61.0124   29.0305   47.2318 H   0  0  0  0  0  0  0  0  0  0  0  0
   58.9684   32.7671   47.9435 H   0  0  0  0  0  0  0  0  0  0  0  0
   56.9968   29.6732   42.5344 H   0  0  0  0  0  0  0  0  0  0  0  0
   57.9308   28.5983   43.6419 H   0  0  0  0  0  0  0  0  0  0  0  0
   57.8130   28.4282   46.2235 H   0  0  0  0  0  0  0  0  0  0  0  0
   56.5507   27.5200   47.1397 H   0  0  0  0  0  0  0  0  0  0  0  0
   58.1709   26.5719   44.7315 H   0  0  0  0  0  0  0  0  0  0  0  0
   58.1631   25.9215   46.4357 H   0  0  0  0  0  0  0  0  0  0  0  0
   57.6047   24.5603   43.5726 H   0  0  0  0  0  0  0  0  0  0  0  0
   55.8039   22.9383   42.9574 H   0  0  0  0  0  0  0  0  0  0  0  0
   53.6880   22.8646   44.2921 H   0  0  0  0  0  0  0  0  0  0  0  0
   53.3973   24.4322   46.2203 H   0  0  0  0  0  0  0  0  0  0  0  0
  1  2  1  0
  2  3  2  0
  3  4  1  0
  4  5  1  0
  4  6  2  0
  6  7  1  0
  7  8  1  0
  7  9  2  0
  9 10  1  0
 10 11  1  0
 11 12  1  0
 12 13  2  0
 12 14  1  0
 14 15  1  0
 15 16  1  0
 16 17  1  0
 17 18  2  0
 18 19  1  0
 19 20  2  0
 20 21  1  0
 21 22  2  0
  9  2  1  0
 22 17  1  0
  1 23  1  0
  1 24  1  0
  1 25  1  0
  3 26  1  0
  6 27  1  0
 11 28  1  0
 11 29  1  0
 15 30  1  0
 15 31  1  0
 16 32  1  0
 16 33  1  0
 18 34  1  0
 19 35  1  0
 20 36  1  0
 21 37  1  0
M  CHG  1  14  -1
M  END
>  <UniqueID>  (30) 
30

>  <SMILES>  (30) 
Cc1cc(Br)cc(Br)c1OCC(=O)[N-]CCc1ccccn1

>  <Energy>  (30) 
34.85566590558508

>  <Genealogy>  (30) 
Cc1cc(Br)cc(Br)c1OCC(=O)[N-]CCc1ccccn1 (protonated)
Cc1cc(Br)cc(Br)c1OCC(=O)[N-]CCc1ccccn1 (3D coordinates assigned)
Cc1cc(Br)cc(Br)c1OCC(=O)[N-]CCc1ccccn1 (optimized conformer: 34.85566590558508 kcal/mol)

>  <smiles>  (30) 
Cc1cc(Br)cc(Br)c1OCC(=O)NCCc1ccccn1

>  <score_type>  (30) 
oracle

>  <origin>  (30) 
adg

>  <m_score__min__energy>  (30) 
-10.25

>  <m_primary>  (30) 
energy

$$$$
30:0
     RDKit          3D

 58 60  0  0  0  0  0  0  0  0999 V2000
   58.9940   33.6550   52.0350 C   0  0  0  0  0  0  0  0  0  0  0  0
   57.7030   32.9350   52.3840 C   0  0  0  0  0  0  0  0  0  0  0  0
   57.3120   32.1020   51.2970 O   0  0  0  0  0  0  0  0  0  0  0  0
   57.7900   30.7950   51.1330 C   0  0  0  0  0  0  0  0  0  0  0  0
   57.1600   29.8190   51.6320 O   0  0  0  0  0  0  0  0  0  0  0  0
   59.0370   30.5800   50.4380 N   0  0  1  0  0  0  0  0  0  0  0  0
   60.1270   30.3480   51.4180 C   0  0  0  0  0  0  0  0  0  0  0  0
   61.3860   29.7130   50.7850 C   0  0  0  0  0  0  0  0  0  0  0  0
   61.4610   29.9690   49.2630 C   0  0  2  0  0  0  0  0  0  0  0  0
   61.5350   31.4360   48.9720 N   0  0  0  0  0  0  0  0  0  0  0  0
   62.4510   32.1350   49.8990 C   0  0  0  0  0  0  0  0  0  0  0  0
   62.1630   33.6430   49.8750 C   0  0  0  0  0  0  0  0  0  0  0  0
   61.7680   34.1620   48.4670 C   0  0  0  0  0  0  0  0  0  0  0  0
   60.2640   34.3790   48.3450 C   0  0  0  0  0  0  0  0  0  0  0  0
   59.6370   34.8980   49.3100 O   0  0  0  0  0  0  0  0  0  0  0  0
   59.5010   34.0100   47.1150 C   0  0  0  0  0  0  0  0  0  0  0  0
   59.4660   34.9010   46.0240 C   0  0  0  0  0  0  0  0  0  0  0  0
   58.7680   34.5780   44.8590 C   0  0  0  0  0  0  0  0  0  0  0  0
   58.0920   33.3630   44.7590 C   0  0  0  0  0  0  0  0  0  0  0  0
   57.4220   33.0600   43.6190 F   0  0  0  0  0  0  0  0  0  0  0  0
   58.1060   32.4560   45.8270 C   0  0  0  0  0  0  0  0  0  0  0  0
   57.4140   31.2440   45.6810 O   0  0  0  0  0  0  0  0  0  0  0  0
   57.7110   30.2590   44.6950 C   0  0  0  0  0  0  0  0  0  0  0  0
   58.8090   32.7860   47.0050 C   0  0  0  0  0  0  0  0  0  0  0  0
   62.3280   33.2320   47.3670 C   0  0  0  0  0  0  0  0  0  0  0  0
   61.9310   31.7480   47.5730 C   0  0  0  0  0  0  0  0  0  0  0  0
   60.2180   29.2540   48.6520 C   0  0  0  0  0  0  0  0  0  0  0  0
   58.9110   29.4820   49.4560 C   0  0  0  0  0  0  0  0  0  0  0  0
   59.5138   33.9449   52.9601 H   0  0  0  0  0  0  0  0  0  0  0  0
   59.6391   32.9864   51.4461 H   0  0  0  0  0  0  0  0  0  0  0  0
   58.7641   34.5552   51.4461 H   0  0  0  0  0  0  0  0  0  0  0  0
   57.8591   32.3175   53.2808 H   0  0  0  0  0  0  0  0  0  0  0  0
   56.9132   33.6752   52.5797 H   0  0  0  0  0  0  0  0  0  0  0  0
   59.2370   31.4620   49.9130 H   0  0  0  0  0  0  0  0  0  0  0  0
   59.7535   29.6757   52.2045 H   0  0  0  0  0  0  0  0  0  0  0  0
   60.4210   31.3288   51.8201 H   0  0  0  0  0  0  0  0  0  0  0  0
   61.3633   28.6275   50.9618 H   0  0  0  0  0  0  0  0  0  0  0  0
   62.2695   30.1738   51.2508 H   0  0  0  0  0  0  0  0  0  0  0  0
   62.3747   29.5615   48.8057 H   0  0  0  0  0  0  0  0  0  0  0  0
   62.3019   31.7508   50.9189 H   0  0  0  0  0  0  0  0  0  0  0  0
   63.4904   31.9584   49.5851 H   0  0  0  0  0  0  0  0  0  0  0  0
   61.3372   33.8534   50.5706 H   0  0  0  0  0  0  0  0  0  0  0  0
   63.0886   34.1597   50.1686 H   0  0  0  0  0  0  0  0  0  0  0  0
   62.2284   35.1506   48.3230 H   0  0  0  0  0  0  0  0  0  0  0  0
   59.9952   35.8630   46.0911 H   0  0  0  0  0  0  0  0  0  0  0  0
   58.7514   35.2851   44.0165 H   0  0  0  0  0  0  0  0  0  0  0  0
   57.9946   29.3185   45.1900 H   0  0  0  0  0  0  0  0  0  0  0  0
   56.8239   30.0898   44.0669 H   0  0  0  0  0  0  0  0  0  0  0  0
   58.5437   30.6083   44.0669 H   0  0  0  0  0  0  0  0  0  0  0  0
   58.8175   32.0797   47.8483 H   0  0  0  0  0  0  0  0  0  0  0  0
   61.9410   33.5671   46.3934 H   0  0  0  0  0  0  0  0  0  0  0  0
   63.4255   33.2898   47.4127 H   0  0  0  0  0  0  0  0  0  0  0  0
   61.0838   31.5176   46.9103 H   0  0  0  0  0  0  0  0  0  0  0  0
   62.8160   31.1376   47.3401 H   0  0  0  0  0  0  0  0  0  0  0  0
   60.4208   28.1734   48.6176 H   0  0  0  0  0  0  0  0  0  0  0  0
   60.0595   29.6828   47.6515 H   0  0  0  0  0  0  0  0  0  0  0  0
   58.6604   28.5552   49.9928 H   0  0  0  0  0  0  0  0  0  0  0  0
   58.1222   29.7602   48.7415 H   0  0  0  0  0  0  0  0  0  0  0  0
  1  2  1  0
  2  3  1  0
  3  4  1  0
  4  5  2  0
  4  6  1  0
  6  7  1  0
  7  8  1  0
  8  9  1  0
  9 10  1  0
 10 11  1  0
 11 12  1  0
 12 13  1  0
 13 14  1  0
 14 15  2  0
 14 16  1  0
 16 17  2  0
 17 18  1  0
 18 19  2  0
 19 20  1  0
 19 21  1  0
 21 22  1  0
 22 23  1  0
 21 24  2  0
 13 25  1  0
 25 26  1  0
  9 27  1  0
 27 28  1  0
 28  6  1  0
 26 10  1  0
 24 16  1  0
  1 29  1  0
  1 30  1  0
  1 31  1  0
  2 32  1  0
  2 33  1  0
  6 34  1  6
  7 35  1  0
  7 36  1  0
  8 37  1  0
  8 38  1  0
  9 39  1  6
 11 40  1  0
 11 41  1  0
 12 42  1  0
 12 43  1  0
 13 44  1  0
 17 45  1  0
 18 46  1  0
 23 47  1  0
 23 48  1  0
 23 49  1  0
 24 50  1  0
 25 51  1  0
 25 52  1  0
 26 53  1  0
 26 54  1  0
 27 55  1  0
 27 56  1  0
 28 57  1  0
 28 58  1  0
M  CHG  1   6   1
M  END
>  <UniqueID>  (31) 
31

>  <SMILES>  (31) 
CCOC(=O)[NH+]1CCC(N2CCC(C(=O)c3ccc(F)c(OC)c3)CC2)CC1

>  <Energy>  (31) 
76.82839231888995

>  <Genealogy>  (31) 
CCOC(=O)[NH+]1CCC(N2CCC(C(=O)c3ccc(F)c(OC)c3)CC2)CC1 (protonated)
CCOC(=O)[NH+]1CCC(N2CCC(C(=O)c3ccc(F)c(OC)c3)CC2)CC1 (3D coordinates assigned)
CCOC(=O)[NH+]1CCC(N2CCC(C(=O)c3ccc(F)c(OC)c3)CC2)CC1 (nonaromatic ring conformer: 76.82839231888995 kcal/mol)

>  <smiles>  (31) 
CCOC(=O)N1CCC(N2CCC(C(=O)c3ccc(F)c(OC)c3)CC2)CC1

>  <score_type>  (31) 
oracle

>  <origin>  (31) 
adg

>  <m_score__min__energy>  (31) 
-6.0099999999999998

>  <m_primary>  (31) 
energy

$$$$
31:0
     RDKit          3D

 36 39  0  0  0  0  0  0  0  0999 V2000
   61.2570   33.8890   49.2610 C   0  0  0  0  0  0  0  0  0  0  0  0
   59.5640   33.7420   48.6370 S   0  0  0  0  0  0  0  0  0  0  0  0
   59.4840   34.4550   47.0010 C   0  0  0  0  0  0  0  0  0  0  0  0
   59.8360   35.7200   46.7110 N   0  0  0  0  0  0  0  0  0  0  0  0
   59.6470   35.9110   45.3840 C   0  0  0  0  0  0  0  0  0  0  0  0
   59.1670   34.7020   44.9000 C   0  0  0  0  0  0  0  0  0  0  0  0
   59.0690   33.8060   45.9000 N   0  0  0  0  0  0  0  0  0  0  0  0
   58.6110   32.4720   45.7460 C   0  0  0  0  0  0  0  0  0  0  0  0
   59.3100   31.4180   46.2990 C   0  0  0  0  0  0  0  0  0  0  0  0
   58.9160   30.1220   46.1800 C   0  0  0  0  0  0  0  0  0  0  0  0
   57.7830   29.7840   45.4920 C   0  0  0  0  0  0  0  0  0  0  0  0
   57.1350   28.6100   45.2280 C   0  0  0  0  0  0  0  0  0  0  0  0
   57.3680   27.2390   45.5880 C   0  0  0  0  0  0  0  0  0  0  0  0
   58.7190   26.8410   45.6430 C   0  0  0  0  0  0  0  0  0  0  0  0
   59.1000   25.5800   46.0300 C   0  0  0  0  0  0  0  0  0  0  0  0
   58.1780   24.6240   46.3880 C   0  0  0  0  0  0  0  0  0  0  0  0
   56.8520   24.9950   46.3410 C   0  0  0  0  0  0  0  0  0  0  0  0
   56.4700   26.2910   45.9450 C   0  0  0  0  0  0  0  0  0  0  0  0
   55.1480   26.5270   46.0190 F   0  0  0  0  0  0  0  0  0  0  0  0
   56.0320   28.9930   44.5130 N   0  0  0  0  0  0  0  0  0  0  0  0
   56.0110   30.2980   44.3510 N   0  0  0  0  0  0  0  0  0  0  0  0
   57.0720   30.8530   44.9340 C   0  0  0  0  0  0  0  0  0  0  0  0
   57.4630   32.1530   45.0500 C   0  0  0  0  0  0  0  0  0  0  0  0
   61.2438   33.8879   50.3609 H   0  0  0  0  0  0  0  0  0  0  0  0
   61.8557   33.0395   48.9006 H   0  0  0  0  0  0  0  0  0  0  0  0
   61.7003   34.8290   48.9006 H   0  0  0  0  0  0  0  0  0  0  0  0
   59.8344   36.8307   44.8103 H   0  0  0  0  0  0  0  0  0  0  0  0
   58.9044   34.5043   43.8503 H   0  0  0  0  0  0  0  0  0  0  0  0
   60.2290   31.6368   46.8625 H   0  0  0  0  0  0  0  0  0  0  0  0
   59.5202   29.3298   46.6462 H   0  0  0  0  0  0  0  0  0  0  0  0
   59.4969   27.5676   45.3656 H   0  0  0  0  0  0  0  0  0  0  0  0
   60.1704   25.3276   46.0544 H   0  0  0  0  0  0  0  0  0  0  0  0
   58.4842   23.6135   46.6965 H   0  0  0  0  0  0  0  0  0  0  0  0
   56.0772   24.2650   46.6181 H   0  0  0  0  0  0  0  0  0  0  0  0
   55.2760   28.3760   44.1230 H   0  0  0  0  0  0  0  0  0  0  0  0
   56.8622   32.9501   44.5878 H   0  0  0  0  0  0  0  0  0  0  0  0
  1  2  1  0
  2  3  1  0
  3  4  2  0
  4  5  1  0
  5  6  2  0
  6  7  1  0
  7  8  1  0
  8  9  1  0
  9 10  2  0
 10 11  1  0
 11 12  2  0
 12 13  1  0
 13 14  2  0
 14 15  1  0
 15 16  2  0
 16 17  1  0
 17 18  2  0
 18 19  1  0
 12 20  1  0
 20 21  1  0
 21 22  2  0
 22 23  1  0
  7  3  1  0
 23  8  2  0
 22 11  1  0
 18 13  1  0
  1 24  1  0
  1 25  1  0
  1 26  1  0
  5 27  1  0
  6 28  1  0
  9 29  1  0
 10 30  1  0
 14 31  1  0
 15 32  1  0
 16 33  1  0
 17 34  1  0
 20 35  1  0
 23 36  1  0
M  END
>  <smiles>  (32) 
CSc1nccn1-c1ccc2c(-c3ccccc3F)[nH]nc2c1

>  <score_type>  (32) 
oracle

>  <origin>  (32) 
adg

>  <m_score__min__energy>  (32) 
-8.2300000000000004

>  <m_primary>  (32) 
energy

$$$$
32:0
     RDKit          3D

 61 64  0  0  0  0  0  0  0  0999 V2000
   56.7000   30.5240   44.1360 C   0  0  0  0  0  0  0  0  0  0  0  0
   58.0590   29.8500   44.2560 C   0  0  0  0  0  0  0  0  0  0  0  0
   58.9210   30.6650   45.0430 O   0  0  0  0  0  0  0  0  0  0  0  0
   59.3710   30.3350   46.3300 C   0  0  0  0  0  0  0  0  0  0  0  0
   58.6440   29.4750   47.1930 C   0  0  0  0  0  0  0  0  0  0  0  0
   59.1190   29.1990   48.4860 C   0  0  0  0  0  0  0  0  0  0  0  0
   60.3240   29.7740   48.8840 C   0  0  0  0  0  0  0  0  0  0  0  0
   60.9020   29.6530   50.0920 N   0  0  0  0  0  0  0  0  0  0  0  0
   62.0280   30.4040   50.0270 C   0  0  0  0  0  0  0  0  0  0  0  0
   62.1690   31.0020   48.7880 C   0  0  0  0  0  0  0  0  0  0  0  0
   63.2710   31.8300   48.5000 C   0  0  0  0  0  0  0  0  0  0  0  0
   63.5070   32.3270   47.1610 N   0  0  0  0  0  0  0  0  0  0  0  0
   63.0770   33.7320   47.0460 C   0  0  0  0  0  0  0  0  0  0  0  0
   61.7160   33.8510   46.3510 C   0  0  0  0  0  0  0  0  0  0  0  0
   60.6290   33.8670   47.3550 N   0  0  0  0  0  0  0  0  0  0  0  0
   61.0960   34.2220   48.7200 C   0  0  0  0  0  0  0  0  0  0  0  0
   60.1600   33.7670   49.8480 C   0  0  0  0  0  0  0  0  0  0  0  0
   59.4300   34.5980   46.8870 C   0  0  0  0  0  0  0  0  0  0  0  0
   58.2220   33.6740   46.7300 C   0  0  0  0  0  0  0  0  0  0  0  0
   64.1410   32.1430   49.5860 C   0  0  0  0  0  0  0  0  0  0  0  0
   65.1940   33.0800   49.4430 C   0  0  0  0  0  0  0  0  0  0  0  0
   66.0380   33.3830   50.5090 C   0  0  0  0  0  0  0  0  0  0  0  0
   65.8440   32.7850   51.7470 C   0  0  0  0  0  0  0  0  0  0  0  0
   64.8070   31.8720   51.9310 C   0  0  0  0  0  0  0  0  0  0  0  0
   63.9460   31.5120   50.8630 C   0  0  0  0  0  0  0  0  0  0  0  0
   62.9300   30.5870   51.0410 N   0  0  0  0  0  0  0  0  0  0  0  0
   62.7860   29.8270   52.2990 C   0  0  0  0  0  0  0  0  0  0  0  0
   61.0560   30.5910   48.0490 C   0  0  0  0  0  0  0  0  0  0  0  0
   60.5850   30.8970   46.7660 C   0  0  0  0  0  0  0  0  0  0  0  0
   56.2993   30.7227   45.1409 H   0  0  0  0  0  0  0  0  0  0  0  0
   56.8082   31.4729   43.5902 H   0  0  0  0  0  0  0  0  0  0  0  0
   56.0101   29.8636   43.5902 H   0  0  0  0  0  0  0  0  0  0  0  0
   57.9409   28.8681   44.7377 H   0  0  0  0  0  0  0  0  0  0  0  0
   58.4929   29.7151   43.2542 H   0  0  0  0  0  0  0  0  0  0  0  0
   57.7031   29.0218   46.8477 H   0  0  0  0  0  0  0  0  0  0  0  0
   58.5539   28.5455   49.1669 H   0  0  0  0  0  0  0  0  0  0  0  0
   60.5080   29.1220   50.9000 H   0  0  0  0  0  0  0  0  0  0  0  0
   64.5140   32.2330   46.9000 H   0  0  0  0  0  0  0  0  0  0  0  0
   63.0180   31.7160   46.4730 H   0  0  0  0  0  0  0  0  0  0  0  0
   63.0021   34.1660   48.0540 H   0  0  0  0  0  0  0  0  0  0  0  0
   63.8206   34.2707   46.4403 H   0  0  0  0  0  0  0  0  0  0  0  0
   61.6860   34.7834   45.7681 H   0  0  0  0  0  0  0  0  0  0  0  0
   61.5765   32.9869   45.6848 H   0  0  0  0  0  0  0  0  0  0  0  0
   62.0793   33.7555   48.8795 H   0  0  0  0  0  0  0  0  0  0  0  0
   61.1307   35.3206   48.7644 H   0  0  0  0  0  0  0  0  0  0  0  0
   60.6219   33.9915   50.8207 H   0  0  0  0  0  0  0  0  0  0  0  0
   59.2010   34.2994   49.7659 H   0  0  0  0  0  0  0  0  0  0  0  0
   59.9863   32.6839   49.7659 H   0  0  0  0  0  0  0  0  0  0  0  0
   59.1845   35.3827   47.6178 H   0  0  0  0  0  0  0  0  0  0  0  0
   59.6581   35.0301   45.9015 H   0  0  0  0  0  0  0  0  0  0  0  0
   57.8477   33.3877   47.7240 H   0  0  0  0  0  0  0  0  0  0  0  0
   57.4289   34.1981   46.1765 H   0  0  0  0  0  0  0  0  0  0  0  0
   58.5203   32.7714   46.1765 H   0  0  0  0  0  0  0  0  0  0  0  0
   65.3477   33.5767   48.4737 H   0  0  0  0  0  0  0  0  0  0  0  0
   66.8614   34.0989   50.3694 H   0  0  0  0  0  0  0  0  0  0  0  0
   66.5112   33.0327   52.5857 H   0  0  0  0  0  0  0  0  0  0  0  0
   64.6535   31.4223   52.9231 H   0  0  0  0  0  0  0  0  0  0  0  0
   62.9147   30.5063   53.1546 H   0  0  0  0  0  0  0  0  0  0  0  0
   61.7856   29.3715   52.3397 H   0  0  0  0  0  0  0  0  0  0  0  0
   63.5505   29.0371   52.3397 H   0  0  0  0  0  0  0  0  0  0  0  0
   61.1566   31.5679   46.1078 H   0  0  0  0  0  0  0  0  0  0  0  0
  1  2  1  0
  2  3  1  0
  3  4  1  0
  4  5  2  0
  5  6  1  0
  6  7  2  0
  7  8  1  0
  8  9  1  0
  9 10  2  0
 10 11  1  0
 11 12  1  0
 12 13  1  0
 13 14  1  0
 14 15  1  0
 15 16  1  0
 16 17  1  0
 15 18  1  0
 18 19  1  0
 11 20  2  0
 20 21  1  0
 21 22  2  0
 22 23  1  0
 23 24  2  0
 24 25  1  0
 25 26  2  0
 26 27  1  0
 10 28  1  0
 28 29  2  0
 29  4  1  0
 28  7  1  0
 26  9  1  0
 25 20  1  0
  1 30  1  0
  1 31  1  0
  1 32  1  0
  2 33  1  0
  2 34  1  0
  5 35  1  0
  6 36  1  0
  8 37  1  0
 12 38  1  0
 12 39  1  0
 13 40  1  0
 13 41  1  0
 14 42  1  0
 14 43  1  0
 16 44  1  0
 16 45  1  0
 17 46  1  0
 17 47  1  0
 17 48  1  0
 18 49  1  0
 18 50  1  0
 19 51  1  0
 19 52  1  0
 19 53  1  0
 21 54  1  0
 22 55  1  0
 23 56  1  0
 24 57  1  0
 27 58  1  0
 27 59  1  0
 27 60  1  0
 29 61  1  0
M  CHG  2  12   1  26   1
M  END
>  <UniqueID>  (33) 
32

>  <SMILES>  (33) 
CCOc1ccc2[nH]c3c(c([NH2+]CCN(CC)CC)c4ccccc4[n+]3C)c2c1

>  <Energy>  (33) 
118.22099052474071

>  <Genealogy>  (33) 
CCOc1ccc2[nH]c3c(c([NH2+]CCN(CC)CC)c4ccccc4[n+]3C)c2c1 (protonated)
CCOc1ccc2[nH]c3c(c([NH2+]CCN(CC)CC)c4ccccc4[n+]3C)c2c1 (3D coordinates assigned)
CCOc1ccc2[nH]c3c(c([NH2+]CCN(CC)CC)c4ccccc4[n+]3C)c2c1 (optimized conformer: 118.22099052474071 kcal/mol)

>  <smiles>  (33) 
CCOc1ccc2[nH]c3c(c(NCCN(CC)CC)c4ccccc4[n+]3C)c2c1

>  <score_type>  (33) 
oracle

>  <origin>  (33) 
adg

>  <m_score__min__energy>  (33) 
-4.3600000000000003

>  <m_primary>  (33) 
energy

$$$$
33:0
     RDKit          3D

 57 58  0  0  0  0  0  0  0  0999 V2000
   59.8010   29.4960   49.2540 C   0  0  0  0  0  0  0  0  0  0  0  0
   58.8940   30.6670   49.6460 C   0  0  0  0  0  0  0  0  0  0  0  0
   59.0060   31.0490   51.0800 N   0  0  0  0  0  0  0  0  0  0  0  0
   58.9930   29.8210   51.9150 C   0  0  0  0  0  0  0  0  0  0  0  0
   57.6900   29.6360   52.7040 C   0  0  0  0  0  0  0  0  0  0  0  0
   58.0170   32.0820   51.5110 C   0  0  0  0  0  0  0  0  0  0  0  0
   58.6070   33.4510   51.9020 C   0  0  0  0  0  0  0  0  0  0  0  0
   59.8430   33.6570   51.2480 O   0  0  0  0  0  0  0  0  0  0  0  0
   59.6430   33.8870   49.8650 C   0  0  0  0  0  0  0  0  0  0  0  0
   60.9840   33.7730   49.1150 C   0  0  0  0  0  0  0  0  0  0  0  0
   60.8820   34.0950   47.6750 N   0  0  0  0  0  0  0  0  0  0  0  0
   59.7150   34.9670   47.3540 C   0  0  0  0  0  0  0  0  0  0  0  0
   59.0610   34.6610   45.9980 C   0  0  0  0  0  0  0  0  0  0  0  0
   58.8220   33.1860   45.8810 C   0  0  0  0  0  0  0  0  0  0  0  0
   57.6310   32.6680   45.3560 C   0  0  0  0  0  0  0  0  0  0  0  0
   57.4510   31.2740   45.2500 C   0  0  0  0  0  0  0  0  0  0  0  0
   56.2710   30.7140   44.7360 O   0  0  0  0  0  0  0  0  0  0  0  0
   56.1670   30.0760   43.4680 C   0  0  0  0  0  0  0  0  0  0  0  0
   58.4750   30.4070   45.6640 C   0  0  0  0  0  0  0  0  0  0  0  0
   58.2640   29.0240   45.5470 O   0  0  0  0  0  0  0  0  0  0  0  0
   58.9400   28.1800   44.6200 C   0  0  0  0  0  0  0  0  0  0  0  0
   59.6750   30.9390   46.1760 C   0  0  0  0  0  0  0  0  0  0  0  0
   59.8410   32.3250   46.2880 C   0  0  0  0  0  0  0  0  0  0  0  0
   61.1260   32.9340   46.7830 C   0  0  0  0  0  0  0  0  0  0  0  0
   60.1805   29.0060   50.1628 H   0  0  0  0  0  0  0  0  0  0  0  0
   59.2268   28.7707   48.6589 H   0  0  0  0  0  0  0  0  0  0  0  0
   60.6469   29.8706   48.6589 H   0  0  0  0  0  0  0  0  0  0  0  0
   59.1645   31.5382   49.0312 H   0  0  0  0  0  0  0  0  0  0  0  0
   57.8562   30.3438   49.4768 H   0  0  0  0  0  0  0  0  0  0  0  0
   59.9550   31.4790   51.1960 H   0  0  0  0  0  0  0  0  0  0  0  0
   59.1291   28.9501   51.2569 H   0  0  0  0  0  0  0  0  0  0  0  0
   59.8067   29.9179   52.6488 H   0  0  0  0  0  0  0  0  0  0  0  0
   57.9066   29.6668   53.7820 H   0  0  0  0  0  0  0  0  0  0  0  0
   56.9884   30.4435   52.4478 H   0  0  0  0  0  0  0  0  0  0  0  0
   57.2409   28.6651   52.4478 H   0  0  0  0  0  0  0  0  0  0  0  0
   57.3126   32.2422   50.6815 H   0  0  0  0  0  0  0  0  0  0  0  0
   57.5487   31.6858   52.4241 H   0  0  0  0  0  0  0  0  0  0  0  0
   57.9048   34.2457   51.6097 H   0  0  0  0  0  0  0  0  0  0  0  0
   58.7695   33.4733   52.9897 H   0  0  0  0  0  0  0  0  0  0  0  0
   58.9391   33.1401   49.4691 H   0  0  0  0  0  0  0  0  0  0  0  0
   59.2327   34.8975   49.7216 H   0  0  0  0  0  0  0  0  0  0  0  0
   61.7019   34.4666   49.5772 H   0  0  0  0  0  0  0  0  0  0  0  0
   61.3098   32.7251   49.1907 H   0  0  0  0  0  0  0  0  0  0  0  0
   58.9578   34.8351   48.1409 H   0  0  0  0  0  0  0  0  0  0  0  0
   60.0937   35.9983   47.2993 H   0  0  0  0  0  0  0  0  0  0  0  0
   58.1021   35.1949   45.9244 H   0  0  0  0  0  0  0  0  0  0  0  0
   59.7269   34.9904   45.1867 H   0  0  0  0  0  0  0  0  0  0  0  0
   56.8343   33.3508   45.0257 H   0  0  0  0  0  0  0  0  0  0  0  0
   55.9916   28.9997   43.6124 H   0  0  0  0  0  0  0  0  0  0  0  0
   55.3281   30.5121   42.9058 H   0  0  0  0  0  0  0  0  0  0  0  0
   57.1010   30.2231   42.9058 H   0  0  0  0  0  0  0  0  0  0  0  0
   59.5360   27.4359   45.1687 H   0  0  0  0  0  0  0  0  0  0  0  0
   58.2020   27.6647   43.9877 H   0  0  0  0  0  0  0  0  0  0  0  0
   59.6041   28.7876   43.9877 H   0  0  0  0  0  0  0  0  0  0  0  0
   60.4845   30.2631   46.4889 H   0  0  0  0  0  0  0  0  0  0  0  0
   61.6899   32.1707   47.3393 H   0  0  0  0  0  0  0  0  0  0  0  0
   61.6931   33.2889   45.9098 H   0  0  0  0  0  0  0  0  0  0  0  0
  1  2  1  0
  2  3  1  0
  3  4  1  0
  4  5  1  0
  3  6  1  0
  6  7  1  0
  7  8  1  0
  8  9  1  0
  9 10  1  0
 10 11  1  0
 11 12  1  0
 12 13  1  0
 13 14  1  0
 14 15  2  0
 15 16  1  0
 16 17  1  0
 17 18  1  0
 16 19  2  0
 19 20  1  0
 20 21  1  0
 19 22  1  0
 22 23  2  0
 23 24  1  0
 24 11  1  0
 23 14  1  0
  1 25  1  0
  1 26  1  0
  1 27  1  0
  2 28  1  0
  2 29  1  0
  3 30  1  0
  4 31  1  0
  4 32  1  0
  5 33  1  0
  5 34  1  0
  5 35  1  0
  6 36  1  0
  6 37  1  0
  7 38  1  0
  7 39  1  0
  9 40  1  0
  9 41  1  0
 10 42  1  0
 10 43  1  0
 12 44  1  0
 12 45  1  0
 13 46  1  0
 13 47  1  0
 15 48  1  0
 18 49  1  0
 18 50  1  0
 18 51  1  0
 21 52  1  0
 21 53  1  0
 21 54  1  0
 22 55  1  0
 24 56  1  0
 24 57  1  0
M  CHG  1   3   1
M  END
>  <UniqueID>  (34) 
33

>  <SMILES>  (34) 
CC[NH+](CC)CCOCCN1CCc2cc(OC)c(OC)cc2C1

>  <Energy>  (34) 
70.52493801164037

>  <Genealogy>  (34) 
CC[NH+](CC)CCOCCN1CCc2cc(OC)c(OC)cc2C1 (protonated)
CC[NH+](CC)CCOCCN1CCc2cc(OC)c(OC)cc2C1 (3D coordinates assigned)
CC[NH+](CC)CCOCCN1CCc2cc(OC)c(OC)cc2C1 (nonaromatic ring conformer: 70.52493801164037 kcal/mol)

>  <smiles>  (34) 
CCN(CC)CCOCCN1CCc2cc(OC)c(OC)cc2C1

>  <score_type>  (34) 
oracle

>  <origin>  (34) 
adg

>  <m_score__min__energy>  (34) 
-4.7800000000000002

>  <m_primary>  (34) 
energy

$$$$
34:0
     RDKit          3D

 39 41  0  0  0  0  0  0  0  0999 V2000
   55.9720   29.7180   43.1220 C   0  0  0  0  0  0  0  0  0  0  0  0
   55.9920   29.6250   44.5430 O   0  0  0  0  0  0  0  0  0  0  0  0
   57.1800   29.7620   45.2700 C   0  0  0  0  0  0  0  0  0  0  0  0
   57.8010   28.6190   45.8070 C   0  0  0  0  0  0  0  0  0  0  0  0
   57.0610   27.0130   45.6910 S   0  0  0  0  0  0  0  0  0  0  0  0
   55.5610   27.1020   45.6890 O   0  0  0  0  0  0  0  0  0  0  0  0
   57.4880   26.3700   44.4020 O   0  0  0  0  0  0  0  0  0  0  0  0
   57.5890   26.0170   47.0120 N   0  0  0  0  0  0  0  0  0  0  0  0
   56.7830   24.8010   47.0720 C   0  0  0  0  0  0  0  0  0  0  0  0
   57.3300   23.8040   46.1070 C   0  0  0  0  0  0  0  0  0  0  0  0
   58.6390   23.7510   45.6460 C   0  0  0  0  0  0  0  0  0  0  0  0
   58.8830   22.6580   44.8060 C   0  0  0  0  0  0  0  0  0  0  0  0
   57.7740   21.8420   44.6180 C   0  0  0  0  0  0  0  0  0  0  0  0
   56.4910   22.4800   45.4990 S   0  0  0  0  0  0  0  0  0  0  0  0
   59.0080   28.7460   46.5000 C   0  0  0  0  0  0  0  0  0  0  0  0
   59.6240   29.9940   46.6710 C   0  0  0  0  0  0  0  0  0  0  0  0
   60.9350   30.0580   47.4150 C   0  0  0  0  0  0  0  0  0  0  0  0
   58.9880   31.1570   46.1700 C   0  0  0  0  0  0  0  0  0  0  0  0
   59.5460   32.4420   46.3540 C   0  0  0  0  0  0  0  0  0  0  0  0
   58.8850   33.5800   45.8870 C   0  0  0  0  0  0  0  0  0  0  0  0
   59.5940   35.1670   46.1300 Cl  0  0  0  0  0  0  0  0  0  0  0  0
   57.6570   33.4590   45.2410 C   0  0  0  0  0  0  0  0  0  0  0  0
   57.0880   32.2030   45.0450 C   0  0  0  0  0  0  0  0  0  0  0  0
   57.7490   31.0370   45.4820 C   0  0  0  0  0  0  0  0  0  0  0  0
   55.7493   30.7536   42.8254 H   0  0  0  0  0  0  0  0  0  0  0  0
   56.9537   29.4250   42.7215 H   0  0  0  0  0  0  0  0  0  0  0  0
   55.1976   29.0473   42.7215 H   0  0  0  0  0  0  0  0  0  0  0  0
   56.8182   24.3858   48.0900 H   0  0  0  0  0  0  0  0  0  0  0  0
   55.7401   25.0348   46.8116 H   0  0  0  0  0  0  0  0  0  0  0  0
   59.4061   24.4925   45.9137 H   0  0  0  0  0  0  0  0  0  0  0  0
   59.8598   22.4636   44.3391 H   0  0  0  0  0  0  0  0  0  0  0  0
   57.7408   20.9336   43.9986 H   0  0  0  0  0  0  0  0  0  0  0  0
   59.4848   27.8481   46.9201 H   0  0  0  0  0  0  0  0  0  0  0  0
   60.7428   30.0486   48.4980 H   0  0  0  0  0  0  0  0  0  0  0  0
   61.5528   29.1889   47.1447 H   0  0  0  0  0  0  0  0  0  0  0  0
   61.4652   30.9831   47.1447 H   0  0  0  0  0  0  0  0  0  0  0  0
   60.5114   32.5471   46.8706 H   0  0  0  0  0  0  0  0  0  0  0  0
   57.1346   34.3589   44.8843 H   0  0  0  0  0  0  0  0  0  0  0  0
   56.1123   32.1199   44.5438 H   0  0  0  0  0  0  0  0  0  0  0  0
  1  2  1  0
  2  3  1  0
  3  4  2  0
  4  5  1  0
  5  6  2  0
  5  7  2  0
  5  8  1  0
  8  9  1  0
  9 10  1  0
 10 11  2  0
 11 12  1  0
 12 13  2  0
 13 14  1  0
  4 15  1  0
 15 16  2  0
 16 17  1  0
 16 18  1  0
 18 19  2  0
 19 20  1  0
 20 21  1  0
 20 22  2  0
 22 23  1  0
 23 24  2  0
 24  3  1  0
 14 10  1  0
 24 18  1  0
  1 25  1  0
  1 26  1  0
  1 27  1  0
  9 28  1  0
  9 29  1  0
 11 30  1  0
 12 31  1  0
 13 32  1  0
 15 33  1  0
 17 34  1  0
 17 35  1  0
 17 36  1  0
 19 37  1  0
 22 38  1  0
 23 39  1  0
M  CHG  1   8  -1
M  END
>  <UniqueID>  (35) 
34

>  <SMILES>  (35) 
COc1c(S(=O)(=O)[N-]Cc2cccs2)cc(C)c2cc(Cl)ccc12

>  <Energy>  (35) 
77.094684223686

>  <Genealogy>  (35) 
COc1c(S(=O)(=O)[N-]Cc2cccs2)cc(C)c2cc(Cl)ccc12 (protonated)
COc1c(S(=O)(=O)[N-]Cc2cccs2)cc(C)c2cc(Cl)ccc12 (3D coordinates assigned)
COc1c(S(=O)(=O)[N-]Cc2cccs2)cc(C)c2cc(Cl)ccc12 (optimized conformer: 77.094684223686 kcal/mol)

>  <smiles>  (35) 
COc1c(S(=O)(=O)NCc2cccs2)cc(C)c2cc(Cl)ccc12

>  <score_type>  (35) 
oracle

>  <origin>  (35) 
adg

>  <m_score__min__energy>  (35) 
-9.7899999999999991

>  <m_primary>  (35) 
energy

$$$$
35:0
     RDKit          3D

 49 52  0  0  0  0  0  0  0  0999 V2000
   59.7340   33.4460   50.3250 C   0  0  0  0  0  0  0  0  0  0  0  0
   60.7710   32.5440   49.9590 O   0  0  0  0  0  0  0  0  0  0  0  0
   61.8000   32.8400   49.0500 C   0  0  0  0  0  0  0  0  0  0  0  0
   63.1120   33.1320   49.4770 C   0  0  0  0  0  0  0  0  0  0  0  0
   64.1040   33.4430   48.5420 C   0  0  0  0  0  0  0  0  0  0  0  0
   63.8010   33.4700   47.1800 C   0  0  0  0  0  0  0  0  0  0  0  0
   62.5060   33.1800   46.7470 C   0  0  0  0  0  0  0  0  0  0  0  0
   61.5040   32.8570   47.6740 C   0  0  0  0  0  0  0  0  0  0  0  0
   60.1780   32.5590   47.2130 N   0  0  0  0  0  0  0  0  0  0  0  0
   59.6710   31.1870   47.2910 C   0  0  0  0  0  0  0  0  0  0  0  0
   58.1460   31.1600   47.1130 C   0  0  0  0  0  0  0  0  0  0  0  0
   57.6760   31.8900   45.9100 N   0  0  0  0  0  0  0  0  0  0  0  0
   57.3830   30.7950   44.5810 S   0  0  0  0  0  0  0  0  0  0  0  0
   55.9440   30.8820   44.1520 O   0  0  0  0  0  0  0  0  0  0  0  0
   58.2590   31.1630   43.4160 O   0  0  0  0  0  0  0  0  0  0  0  0
   57.7140   29.1430   45.0960 C   0  0  0  0  0  0  0  0  0  0  0  0
   59.0250   28.6390   45.0970 C   0  0  0  0  0  0  0  0  0  0  0  0
   59.2770   27.3320   45.5270 C   0  0  0  0  0  0  0  0  0  0  0  0
   58.2200   26.5270   45.9610 C   0  0  0  0  0  0  0  0  0  0  0  0
   56.9070   27.0170   45.9350 C   0  0  0  0  0  0  0  0  0  0  0  0
   56.6550   28.3270   45.5190 C   0  0  0  0  0  0  0  0  0  0  0  0
   55.8610   26.1790   46.3340 O   0  0  0  0  0  0  0  0  0  0  0  0
   56.0630   24.7720   46.4950 C   0  0  0  0  0  0  0  0  0  0  0  0
   57.4360   24.5010   47.1230 C   0  0  0  0  0  0  0  0  0  0  0  0
   58.4510   25.2290   46.4260 O   0  0  0  0  0  0  0  0  0  0  0  0
   58.5420   33.0090   45.4680 C   0  0  0  0  0  0  0  0  0  0  0  0
   59.3460   33.6080   46.6220 C   0  0  0  0  0  0  0  0  0  0  0  0
   59.6680   33.5034   51.4215 H   0  0  0  0  0  0  0  0  0  0  0  0
   59.9554   34.4438   49.9183 H   0  0  0  0  0  0  0  0  0  0  0  0
   58.7765   33.0884   49.9183 H   0  0  0  0  0  0  0  0  0  0  0  0
   63.3558   33.1150   50.5495 H   0  0  0  0  0  0  0  0  0  0  0  0
   65.1262   33.6670   48.8810 H   0  0  0  0  0  0  0  0  0  0  0  0
   64.5827   33.7198   46.4476 H   0  0  0  0  0  0  0  0  0  0  0  0
   62.2700   33.2049   45.6729 H   0  0  0  0  0  0  0  0  0  0  0  0
   60.1377   30.5841   46.4980 H   0  0  0  0  0  0  0  0  0  0  0  0
   59.9186   30.7746   48.2803 H   0  0  0  0  0  0  0  0  0  0  0  0
   57.8238   30.1114   47.0316 H   0  0  0  0  0  0  0  0  0  0  0  0
   57.7099   31.6646   47.9877 H   0  0  0  0  0  0  0  0  0  0  0  0
   59.8566   29.2744   44.7584 H   0  0  0  0  0  0  0  0  0  0  0  0
   60.3043   26.9388   45.5236 H   0  0  0  0  0  0  0  0  0  0  0  0
   55.6268   28.7178   45.5234 H   0  0  0  0  0  0  0  0  0  0  0  0
   55.2778   24.3649   47.1491 H   0  0  0  0  0  0  0  0  0  0  0  0
   56.0186   24.2884   45.5080 H   0  0  0  0  0  0  0  0  0  0  0  0
   57.4219   24.8159   48.1769 H   0  0  0  0  0  0  0  0  0  0  0  0
   57.6555   23.4253   47.0551 H   0  0  0  0  0  0  0  0  0  0  0  0
   59.2413   32.6358   44.7053 H   0  0  0  0  0  0  0  0  0  0  0  0
   57.8924   33.7991   45.0633 H   0  0  0  0  0  0  0  0  0  0  0  0
   59.9864   34.4188   46.2445 H   0  0  0  0  0  0  0  0  0  0  0  0
   58.6623   34.0146   47.3818 H   0  0  0  0  0  0  0  0  0  0  0  0
  1  2  1  0
  2  3  1  0
  3  4  2  0
  4  5  1  0
  5  6  2  0
  6  7  1  0
  7  8  2  0
  8  9  1  0
  9 10  1  0
 10 11  1  0
 11 12  1  0
 12 13  1  0
 13 14  2  0
 13 15  2  0
 13 16  1  0
 16 17  2  0
 17 18  1  0
 18 19  2  0
 19 20  1  0
 20 21  2  0
 20 22  1  0
 22 23  1  0
 23 24  1  0
 24 25  1  0
 12 26  1  0
 26 27  1  0
  8  3  1  0
 27  9  1  0
 21 16  1  0
 25 19  1  0
  1 28  1  0
  1 29  1  0
  1 30  1  0
  4 31  1  0
  5 32  1  0
  6 33  1  0
  7 34  1  0
 10 35  1  0
 10 36  1  0
 11 37  1  0
 11 38  1  0
 17 39  1  0
 18 40  1  0
 21 41  1  0
 23 42  1  0
 23 43  1  0
 24 44  1  0
 24 45  1  0
 26 46  1  0
 26 47  1  0
 27 48  1  0
 27 49  1  0
M  END
>  <UniqueID>  (36) 
35

>  <SMILES>  (36) 
COc1ccccc1N1CCN(S(=O)(=O)c2ccc3c(c2)OCCO3)CC1

>  <Energy>  (36) 
63.0900152669609

>  <Genealogy>  (36) 
COc1ccccc1N1CCN(S(=O)(=O)c2ccc3c(c2)OCCO3)CC1 (3D coordinates assigned)
COc1ccccc1N1CCN(S(=O)(=O)c2ccc3c(c2)OCCO3)CC1 (nonaromatic ring conformer: 63.0900152669609 kcal/mol)

>  <smiles>  (36) 
COc1ccccc1N1CCN(S(=O)(=O)c2ccc3c(c2)OCCO3)CC1

>  <score_type>  (36) 
oracle

>  <origin>  (36) 
adg

>  <m_score__min__energy>  (36) 
-7.9400000000000004

>  <m_primary>  (36) 
energy

$$$$
36:0
     RDKit          3D

 53 54  0  0  0  0  0  0  0  0999 V2000
   59.6610   33.9020   49.4690 C   0  0  0  0  0  0  0  0  0  0  0  0
   60.9450   33.0810   49.5930 C   0  0  0  0  0  0  0  0  0  0  0  0
   61.4590   32.6940   48.2600 N   0  0  0  0  0  0  0  0  0  0  0  0
   62.4880   31.6250   48.3530 C   0  0  0  0  0  0  0  0  0  0  0  0
   63.3960   31.6830   47.1300 C   0  0  0  0  0  0  0  0  0  0  0  0
   61.9610   33.8800   47.5290 C   0  0  0  0  0  0  0  0  0  0  0  0
   61.0530   34.2150   46.3390 C   0  0  0  0  0  0  0  0  0  0  0  0
   59.9750   33.2140   46.2280 N   0  0  0  0  0  0  0  0  0  0  0  0
   58.8480   33.6900   45.4110 C   0  0  0  0  0  0  0  0  0  0  0  0
   58.2010   32.5490   44.6570 C   0  0  0  0  0  0  0  0  0  0  0  0
   57.9500   32.7160   43.2820 C   0  0  0  0  0  0  0  0  0  0  0  0
   57.3880   31.6870   42.5280 C   0  0  0  0  0  0  0  0  0  0  0  0
   57.0710   30.4710   43.1320 C   0  0  0  0  0  0  0  0  0  0  0  0
   57.3160   30.2810   44.4920 C   0  0  0  0  0  0  0  0  0  0  0  0
   57.8780   31.3080   45.2730 C   0  0  0  0  0  0  0  0  0  0  0  0
   58.1680   31.0070   46.7300 C   0  0  0  0  0  0  0  0  0  0  0  0
   59.6130   30.8550   46.9510 N   0  0  0  0  0  0  0  0  0  0  0  0
   59.9070   29.5280   47.4390 C   0  0  0  0  0  0  0  0  0  0  0  0
   59.8550   29.2690   48.8220 C   0  0  0  0  0  0  0  0  0  0  0  0
   60.1090   27.9880   49.3160 C   0  0  0  0  0  0  0  0  0  0  0  0
   60.4090   26.9470   48.4370 C   0  0  0  0  0  0  0  0  0  0  0  0
   60.4520   27.1830   47.0620 C   0  0  0  0  0  0  0  0  0  0  0  0
   60.1990   28.4630   46.5540 C   0  0  0  0  0  0  0  0  0  0  0  0
   60.2470   28.6930   44.8100 Cl  0  0  0  0  0  0  0  0  0  0  0  0
   59.2822   34.1442   50.4729 H   0  0  0  0  0  0  0  0  0  0  0  0
   59.8724   34.8329   48.9224 H   0  0  0  0  0  0  0  0  0  0  0  0
   58.9047   33.3195   48.9224 H   0  0  0  0  0  0  0  0  0  0  0  0
   61.7069   33.6813   50.1118 H   0  0  0  0  0  0  0  0  0  0  0  0
   60.7219   32.1660   50.1613 H   0  0  0  0  0  0  0  0  0  0  0  0
   63.0887   31.7730   49.2625 H   0  0  0  0  0  0  0  0  0  0  0  0
   61.9930   30.6435   48.3949 H   0  0  0  0  0  0  0  0  0  0  0  0
   64.4448   31.7500   47.4548 H   0  0  0  0  0  0  0  0  0  0  0  0
   63.2565   30.7741   46.5263 H   0  0  0  0  0  0  0  0  0  0  0  0
   63.1420   32.5667   46.5263 H   0  0  0  0  0  0  0  0  0  0  0  0
   61.9886   34.7401   48.2141 H   0  0  0  0  0  0  0  0  0  0  0  0
   62.9694   33.6580   47.1498 H   0  0  0  0  0  0  0  0  0  0  0  0
   60.6109   35.2112   46.4875 H   0  0  0  0  0  0  0  0  0  0  0  0
   61.6506   34.2053   45.4155 H   0  0  0  0  0  0  0  0  0  0  0  0
   59.6030   33.0250   47.1890 H   0  0  0  0  0  0  0  0  0  0  0  0
   58.0994   34.1562   46.0685 H   0  0  0  0  0  0  0  0  0  0  0  0
   59.2294   34.4191   44.6810 H   0  0  0  0  0  0  0  0  0  0  0  0
   58.2005   33.6706   42.7963 H   0  0  0  0  0  0  0  0  0  0  0  0
   57.1944   31.8345   41.4553 H   0  0  0  0  0  0  0  0  0  0  0  0
   56.6271   29.6605   42.5353 H   0  0  0  0  0  0  0  0  0  0  0  0
   57.0670   29.3170   44.9596 H   0  0  0  0  0  0  0  0  0  0  0  0
   57.7926   31.8335   47.3512 H   0  0  0  0  0  0  0  0  0  0  0  0
   57.6674   30.0665   47.0034 H   0  0  0  0  0  0  0  0  0  0  0  0
   59.9380   31.5610   47.6500 H   0  0  0  0  0  0  0  0  0  0  0  0
   60.1380   31.0390   46.0640 H   0  0  0  0  0  0  0  0  0  0  0  0
   59.6119   30.0837   49.5200 H   0  0  0  0  0  0  0  0  0  0  0  0
   60.0725   27.7994   50.3991 H   0  0  0  0  0  0  0  0  0  0  0  0
   60.6119   25.9391   48.8280 H   0  0  0  0  0  0  0  0  0  0  0  0
   60.6862   26.3581   46.3730 H   0  0  0  0  0  0  0  0  0  0  0  0
  1  2  1  0
  2  3  1  0
  3  4  1  0
  4  5  1  0
  3  6  1  0
  6  7  1  0
  7  8  1  0
  8  9  1  0
  9 10  1  0
 10 11  2  0
 11 12  1  0
 12 13  2  0
 13 14  1  0
 14 15  2  0
 15 16  1  0
 16 17  1  0
 17 18  1  0
 18 19  2  0
 19 20  1  0
 20 21  2  0
 21 22  1  0
 22 23  2  0
 23 24  1  0
 15 10  1  0
 23 18  1  0
  1 25  1  0
  1 26  1  0
  1 27  1  0
  2 28  1  0
  2 29  1  0
  4 30  1  0
  4 31  1  0
  5 32  1  0
  5 33  1  0
  5 34  1  0
  6 35  1  0
  6 36  1  0
  7 37  1  0
  7 38  1  0
  8 39  1  0
  9 40  1  0
  9 41  1  0
 11 42  1  0
 12 43  1  0
 13 44  1  0
 14 45  1  0
 16 46  1  0
 16 47  1  0
 17 48  1  0
 17 49  1  0
 19 50  1  0
 20 51  1  0
 21 52  1  0
 22 53  1  0
M  CHG  1  17   1
M  END
>  <UniqueID>  (37) 
36

>  <SMILES>  (37) 
CCN(CC)CCNCc1ccccc1C[NH2+]c1ccccc1Cl

>  <Energy>  (37) 
52.74255759925592

>  <Genealogy>  (37) 
CCN(CC)CCNCc1ccccc1C[NH2+]c1ccccc1Cl (protonated)
CCN(CC)CCNCc1ccccc1C[NH2+]c1ccccc1Cl (3D coordinates assigned)
CCN(CC)CCNCc1ccccc1C[NH2+]c1ccccc1Cl (optimized conformer: 52.74255759925592 kcal/mol)

>  <smiles>  (37) 
CCN(CC)CCNCc1ccccc1CNc1ccccc1Cl

>  <score_type>  (37) 
oracle

>  <origin>  (37) 
adg

>  <m_score__min__energy>  (37) 
-4.5999999999999996

>  <m_primary>  (37) 
energy

$$$$
37:0
     RDKit          3D

 51 54  0  0  0  0  0  0  0  0999 V2000
   55.9720   23.1480   43.0550 C   0  0  0  0  0  0  0  0  0  0  0  0
   56.2340   21.8400   43.6770 N   0  0  0  0  0  0  0  0  0  0  0  0
   57.3570   21.1530   43.0230 C   0  0  0  0  0  0  0  0  0  0  0  0
   56.3630   21.9120   45.1510 C   0  0  0  0  0  0  0  0  0  0  0  0
   57.7900   22.1760   45.6660 C   0  0  0  0  0  0  0  0  0  0  0  0
   57.7980   23.2960   46.5490 O   0  0  0  0  0  0  0  0  0  0  0  0
   57.7770   24.6360   46.1340 C   0  0  0  0  0  0  0  0  0  0  0  0
   57.4870   25.6200   47.0840 C   0  0  0  0  0  0  0  0  0  0  0  0
   57.4550   26.9700   46.7240 C   0  0  0  0  0  0  0  0  0  0  0  0
   57.7100   27.3600   45.3960 C   0  0  0  0  0  0  0  0  0  0  0  0
   57.6760   28.7930   45.0080 C   0  0  0  0  0  0  0  0  0  0  0  0
   57.0090   29.2630   43.8760 C   0  0  0  0  0  0  0  0  0  0  0  0
   57.2220   30.9290   43.8060 S   0  0  0  0  0  0  0  0  0  0  0  0
   58.1490   31.0030   45.2090 C   0  0  0  0  0  0  0  0  0  0  0  0
   58.7270   32.2420   45.7870 C   0  0  0  0  0  0  0  0  0  0  0  0
   57.9800   33.4320   45.7990 C   0  0  0  0  0  0  0  0  0  0  0  0
   58.5180   34.5990   46.3430 C   0  0  0  0  0  0  0  0  0  0  0  0
   59.8040   34.5960   46.8850 C   0  0  0  0  0  0  0  0  0  0  0  0
   60.5700   33.4170   46.8930 C   0  0  0  0  0  0  0  0  0  0  0  0
   61.8970   33.4090   47.4580 N   0  0  0  0  0  0  0  0  0  0  0  0
   62.2290   33.3460   48.7610 C   0  0  0  0  0  0  0  0  0  0  0  0
   63.6020   33.3610   48.8550 C   0  0  0  0  0  0  0  0  0  0  0  0
   64.1380   33.4360   47.6210 N   0  0  0  0  0  0  0  0  0  0  0  0
   63.0720   33.4620   46.7940 C   0  0  0  0  0  0  0  0  0  0  0  0
   60.0200   32.2440   46.3430 C   0  0  0  0  0  0  0  0  0  0  0  0
   58.3040   29.7640   45.7350 N   0  0  0  0  0  0  0  0  0  0  0  0
   58.0020   26.3700   44.4430 C   0  0  0  0  0  0  0  0  0  0  0  0
   58.0350   25.0200   44.8050 C   0  0  0  0  0  0  0  0  0  0  0  0
   55.8207   23.9036   43.8400 H   0  0  0  0  0  0  0  0  0  0  0  0
   56.8304   23.4354   42.4301 H   0  0  0  0  0  0  0  0  0  0  0  0
   55.0691   23.0826   42.4301 H   0  0  0  0  0  0  0  0  0  0  0  0
   58.0307   20.7409   43.7887 H   0  0  0  0  0  0  0  0  0  0  0  0
   56.9716   20.3359   42.3955 H   0  0  0  0  0  0  0  0  0  0  0  0
   57.9090   21.8682   42.3955 H   0  0  0  0  0  0  0  0  0  0  0  0
   55.7143   22.7240   45.5113 H   0  0  0  0  0  0  0  0  0  0  0  0
   56.0756   20.9217   45.5340 H   0  0  0  0  0  0  0  0  0  0  0  0
   58.1520   21.2873   46.2038 H   0  0  0  0  0  0  0  0  0  0  0  0
   58.4457   22.3909   44.8093 H   0  0  0  0  0  0  0  0  0  0  0  0
   57.2821   25.3288   48.1248 H   0  0  0  0  0  0  0  0  0  0  0  0
   57.2290   27.7328   47.4836 H   0  0  0  0  0  0  0  0  0  0  0  0
   56.4440   28.6517   43.1569 H   0  0  0  0  0  0  0  0  0  0  0  0
   56.9643   33.4438   45.3768 H   0  0  0  0  0  0  0  0  0  0  0  0
   57.9255   35.5258   46.3446 H   0  0  0  0  0  0  0  0  0  0  0  0
   60.2209   35.5217   47.3085 H   0  0  0  0  0  0  0  0  0  0  0  0
   61.5250   33.2919   49.6045 H   0  0  0  0  0  0  0  0  0  0  0  0
   64.1741   33.3183   49.7936 H   0  0  0  0  0  0  0  0  0  0  0  0
   63.1513   33.5200   45.6984 H   0  0  0  0  0  0  0  0  0  0  0  0
   60.6093   31.3152   46.3477 H   0  0  0  0  0  0  0  0  0  0  0  0
   58.8850   29.5610   46.5770 H   0  0  0  0  0  0  0  0  0  0  0  0
   58.2067   26.6598   43.4018 H   0  0  0  0  0  0  0  0  0  0  0  0
   58.2635   24.2552   44.0482 H   0  0  0  0  0  0  0  0  0  0  0  0
  1  2  1  0
  2  3  1  0
  2  4  1  0
  4  5  1  0
  5  6  1  0
  6  7  1  0
  7  8  2  0
  8  9  1  0
  9 10  2  0
 10 11  1  0
 11 12  2  0
 12 13  1  0
 13 14  1  0
 14 15  1  0
 15 16  2  0
 16 17  1  0
 17 18  2  0
 18 19  1  0
 19 20  1  0
 20 21  1  0
 21 22  2  0
 22 23  1  0
 23 24  2  0
 19 25  2  0
 14 26  2  0
 10 27  1  0
 27 28  2  0
 28  7  1  0
 26 11  1  0
 25 15  1  0
 24 20  1  0
  1 29  1  0
  1 30  1  0
  1 31  1  0
  3 32  1  0
  3 33  1  0
  3 34  1  0
  4 35  1  0
  4 36  1  0
  5 37  1  0
  5 38  1  0
  8 39  1  0
  9 40  1  0
 12 41  1  0
 16 42  1  0
 17 43  1  0
 18 44  1  0
 21 45  1  0
 22 46  1  0
 24 47  1  0
 25 48  1  0
 26 49  1  0
 27 50  1  0
 28 51  1  0
M  CHG  1  26   1
M  END
>  <UniqueID>  (38) 
37

>  <SMILES>  (38) 
CN(C)CCOc1ccc(-c2csc(-c3cccc(-n4ccnc4)c3)[nH+]2)cc1

>  <Energy>  (38) 
124.21666337156186

>  <Genealogy>  (38) 
CN(C)CCOc1ccc(-c2csc(-c3cccc(-n4ccnc4)c3)[nH+]2)cc1 (protonated)
CN(C)CCOc1ccc(-c2csc(-c3cccc(-n4ccnc4)c3)[nH+]2)cc1 (3D coordinates assigned)
CN(C)CCOc1ccc(-c2csc(-c3cccc(-n4ccnc4)c3)[nH+]2)cc1 (optimized conformer: 124.21666337156186 kcal/mol)

>  <smiles>  (38) 
CN(C)CCOc1ccc(-c2csc(-c3cccc(-n4ccnc4)c3)n2)cc1

>  <score_type>  (38) 
oracle

>  <origin>  (38) 
adg

>  <m_score__min__energy>  (38) 
-6.6600000000000001

>  <m_primary>  (38) 
energy

$$$$
38:0
     RDKit          3D

 63 66  0  0  0  0  0  0  0  0999 V2000
   57.8230   31.7460   43.3060 C   0  0  0  0  0  0  0  0  0  0  0  0
   56.8930   31.4520   44.4940 C   0  0  0  0  0  0  0  0  0  0  0  0
   57.1950   30.2020   45.2400 N   0  0  0  0  0  0  0  0  0  0  0  0
   56.6840   28.9680   44.6010 C   0  0  0  0  0  0  0  0  0  0  0  0
   57.7770   28.1090   43.9600 C   0  0  0  0  0  0  0  0  0  0  0  0
   58.5620   30.0670   45.7900 C   0  0  0  0  0  0  0  0  0  0  0  0
   58.5260   29.5330   47.2270 C   0  0  0  0  0  0  0  0  0  0  0  0
   58.6340   30.6310   48.1880 N   0  0  0  0  0  0  0  0  0  0  0  0
   59.6950   31.5990   48.1050 C   0  0  0  0  0  0  0  0  0  0  0  0
   59.5390   32.7620   47.3330 C   0  0  0  0  0  0  0  0  0  0  0  0
   58.2910   33.1090   46.7770 C   0  0  0  0  0  0  0  0  0  0  0  0
   58.1600   34.2400   45.9750 C   0  0  0  0  0  0  0  0  0  0  0  0
   59.2660   35.0470   45.7220 C   0  0  0  0  0  0  0  0  0  0  0  0
   60.5060   34.7320   46.2770 C   0  0  0  0  0  0  0  0  0  0  0  0
   60.6660   33.5890   47.0980 C   0  0  0  0  0  0  0  0  0  0  0  0
   61.8870   33.2690   47.6540 N   0  0  0  0  0  0  0  0  0  0  0  0
   63.1130   33.7580   46.9870 C   0  0  0  0  0  0  0  0  0  0  0  0
   61.9570   32.3290   48.6690 C   0  0  0  0  0  0  0  0  0  0  0  0
   60.8990   31.3910   48.8030 C   0  0  0  0  0  0  0  0  0  0  0  0
   61.0750   30.2500   49.6070 C   0  0  0  0  0  0  0  0  0  0  0  0
   62.2480   30.0610   50.3250 C   0  0  0  0  0  0  0  0  0  0  0  0
   63.2290   31.0550   50.3480 C   0  0  0  0  0  0  0  0  0  0  0  0
   64.3460   30.9050   51.1830 C   0  0  0  0  0  0  0  0  0  0  0  0
   65.2740   31.9480   51.3300 C   0  0  0  0  0  0  0  0  0  0  0  0
   66.4090   31.8280   52.1480 O   0  0  0  0  0  0  0  0  0  0  0  0
   67.7500   31.7950   51.6680 C   0  0  0  0  0  0  0  0  0  0  0  0
   65.0590   33.1610   50.6660 C   0  0  0  0  0  0  0  0  0  0  0  0
   65.9750   34.2050   50.8790 O   0  0  0  0  0  0  0  0  0  0  0  0
   66.0970   34.9390   52.0930 C   0  0  0  0  0  0  0  0  0  0  0  0
   63.9440   33.3070   49.8200 C   0  0  0  0  0  0  0  0  0  0  0  0
   63.0650   32.2300   49.5740 C   0  0  0  0  0  0  0  0  0  0  0  0
   58.8091   32.0577   43.6807 H   0  0  0  0  0  0  0  0  0  0  0  0
   57.9334   30.8390   42.6936 H   0  0  0  0  0  0  0  0  0  0  0  0
   57.3920   32.5517   42.6936 H   0  0  0  0  0  0  0  0  0  0  0  0
   56.9638   32.2941   45.1982 H   0  0  0  0  0  0  0  0  0  0  0  0
   55.8874   31.3183   44.0687 H   0  0  0  0  0  0  0  0  0  0  0  0
   56.1737   28.3659   45.3672 H   0  0  0  0  0  0  0  0  0  0  0  0
   56.0062   29.2812   43.7932 H   0  0  0  0  0  0  0  0  0  0  0  0
   58.3802   27.6349   44.7483 H   0  0  0  0  0  0  0  0  0  0  0  0
   57.3131   27.3313   43.3356 H   0  0  0  0  0  0  0  0  0  0  0  0
   58.4231   28.7436   43.3356 H   0  0  0  0  0  0  0  0  0  0  0  0
   59.1354   29.3698   45.1614 H   0  0  0  0  0  0  0  0  0  0  0  0
   59.0366   31.0593   45.7967 H   0  0  0  0  0  0  0  0  0  0  0  0
   57.5773   29.0011   47.3912 H   0  0  0  0  0  0  0  0  0  0  0  0
   59.3758   28.8499   47.3725 H   0  0  0  0  0  0  0  0  0  0  0  0
   57.9950   30.6480   49.0150 H   0  0  0  0  0  0  0  0  0  0  0  0
   57.4115   32.4799   46.9787 H   0  0  0  0  0  0  0  0  0  0  0  0
   57.1821   34.4959   45.5411 H   0  0  0  0  0  0  0  0  0  0  0  0
   59.1614   35.9358   45.0824 H   0  0  0  0  0  0  0  0  0  0  0  0
   61.3715   35.3800   46.0744 H   0  0  0  0  0  0  0  0  0  0  0  0
   63.8514   34.0525   47.7472 H   0  0  0  0  0  0  0  0  0  0  0  0
   63.5325   32.9584   46.3588 H   0  0  0  0  0  0  0  0  0  0  0  0
   62.8670   34.6268   46.3588 H   0  0  0  0  0  0  0  0  0  0  0  0
   60.2737   29.4988   49.6674 H   0  0  0  0  0  0  0  0  0  0  0  0
   62.4057   29.1237   50.8786 H   0  0  0  0  0  0  0  0  0  0  0  0
   64.4962   29.9612   51.7277 H   0  0  0  0  0  0  0  0  0  0  0  0
   68.4444   31.7779   52.5209 H   0  0  0  0  0  0  0  0  0  0  0  0
   67.8984   30.8929   51.0562 H   0  0  0  0  0  0  0  0  0  0  0  0
   67.9426   32.6887   51.0562 H   0  0  0  0  0  0  0  0  0  0  0  0
   65.9834   34.2558   52.9476 H   0  0  0  0  0  0  0  0  0  0  0  0
   67.0869   35.4169   52.1346 H   0  0  0  0  0  0  0  0  0  0  0  0
   65.3149   35.7114   52.1346 H   0  0  0  0  0  0  0  0  0  0  0  0
   63.7537   34.2789   49.3412 H   0  0  0  0  0  0  0  0  0  0  0  0
  1  2  1  0
  2  3  1  0
  3  4  1  0
  4  5  1  0
  3  6  1  0
  6  7  1  0
  7  8  1  0
  8  9  1  0
  9 10  2  0
 10 11  1  0
 11 12  2  0
 12 13  1  0
 13 14  2  0
 14 15  1  0
 15 16  2  0
 16 17  1  0
 16 18  1  0
 18 19  2  0
 19 20  1  0
 20 21  2  0
 21 22  1  0
 22 23  2  0
 23 24  1  0
 24 25  1  0
 25 26  1  0
 24 27  2  0
 27 28  1  0
 28 29  1  0
 27 30  1  0
 30 31  2  0
 19  9  1  0
 31 22  1  0
 15 10  1  0
 31 18  1  0
  1 32  1  0
  1 33  1  0
  1 34  1  0
  2 35  1  0
  2 36  1  0
  4 37  1  0
  4 38  1  0
  5 39  1  0
  5 40  1  0
  5 41  1  0
  6 42  1  0
  6 43  1  0
  7 44  1  0
  7 45  1  0
  8 46  1  0
 11 47  1  0
 12 48  1  0
 13 49  1  0
 14 50  1  0
 17 51  1  0
 17 52  1  0
 17 53  1  0
 20 54  1  0
 21 55  1  0
 23 56  1  0
 26 57  1  0
 26 58  1  0
 26 59  1  0
 29 60  1  0
 29 61  1  0
 29 62  1  0
 30 63  1  0
M  CHG  1  16   1
M  END
>  <UniqueID>  (39) 
38

>  <SMILES>  (39) 
CCN(CC)CCNc1c2ccccc2[n+](C)c2c1ccc1cc(OC)c(OC)cc12

>  <Energy>  (39) 
109.30473588650952

>  <Genealogy>  (39) 
CCN(CC)CCNc1c2ccccc2[n+](C)c2c1ccc1cc(OC)c(OC)cc12 (3D coordinates assigned)
CCN(CC)CCNc1c2ccccc2[n+](C)c2c1ccc1cc(OC)c(OC)cc12 (optimized conformer: 109.30473588650952 kcal/mol)

>  <smiles>  (39) 
CCN(CC)CCNc1c2ccccc2[n+](C)c2c1ccc1cc(OC)c(OC)cc12

>  <score_type>  (39) 
oracle

>  <origin>  (39) 
adg

>  <m_score__min__energy>  (39) 
-5.7800000000000002

>  <m_primary>  (39) 
energy

$$$$
39:0
     RDKit          3D

 49 50  0  0  0  0  0  0  0  0999 V2000
   63.3370   33.8060   46.5470 C   0  0  0  0  0  0  0  0  0  0  0  0
   62.7890   33.5470   47.9480 C   0  0  0  0  0  0  0  0  0  0  0  0
   61.9830   32.3800   47.9740 O   0  0  0  0  0  0  0  0  0  0  0  0
   61.1280   32.3950   49.0970 C   0  0  0  0  0  0  0  0  0  0  0  0
   60.4000   33.7380   49.1540 C   0  0  0  0  0  0  0  0  0  0  0  0
   59.2620   33.7330   48.2130 N   0  0  0  0  0  0  0  0  0  0  0  0
   59.0560   34.9750   47.4350 C   0  0  0  0  0  0  0  0  0  0  0  0
   59.8560   35.0570   46.1220 C   0  0  0  0  0  0  0  0  0  0  0  0
   59.0740   34.5820   44.8990 C   0  0  0  0  0  0  0  0  0  0  0  0
   58.8310   33.1300   45.0150 N   0  0  0  0  0  0  0  0  0  0  0  0
   57.3990   32.7930   45.1830 C   0  0  0  0  0  0  0  0  0  0  0  0
   57.0970   31.3450   44.9100 C   0  0  0  0  0  0  0  0  0  0  0  0
   58.0170   30.3600   44.9370 N   0  0  0  0  0  0  0  0  0  0  0  0
   57.2660   29.2870   44.6130 C   0  0  0  0  0  0  0  0  0  0  0  0
   57.7950   27.8800   44.5570 C   0  0  0  0  0  0  0  0  0  0  0  0
   57.8390   27.3740   43.1140 C   0  0  0  0  0  0  0  0  0  0  0  0
   59.1790   27.8180   45.1990 C   0  0  0  0  0  0  0  0  0  0  0  0
   55.9730   29.6020   44.4250 N   0  0  0  0  0  0  0  0  0  0  0  0
   55.9070   30.8850   44.6120 O   0  0  0  0  0  0  0  0  0  0  0  0
   59.6760   32.4760   46.0360 C   0  0  0  0  0  0  0  0  0  0  0  0
   59.0580   32.4840   47.4520 C   0  0  0  0  0  0  0  0  0  0  0  0
   64.3292   34.2749   46.6223 H   0  0  0  0  0  0  0  0  0  0  0  0
   63.4221   32.8528   46.0046 H   0  0  0  0  0  0  0  0  0  0  0  0
   62.6546   34.4769   46.0046 H   0  0  0  0  0  0  0  0  0  0  0  0
   63.6305   33.4179   48.6446 H   0  0  0  0  0  0  0  0  0  0  0  0
   62.1693   34.4060   48.2448 H   0  0  0  0  0  0  0  0  0  0  0  0
   60.3931   31.5811   49.0112 H   0  0  0  0  0  0  0  0  0  0  0  0
   61.7187   32.2547   50.0142 H   0  0  0  0  0  0  0  0  0  0  0  0
   60.0282   33.9083   50.1752 H   0  0  0  0  0  0  0  0  0  0  0  0
   61.0981   34.5406   48.8739 H   0  0  0  0  0  0  0  0  0  0  0  0
   57.9866   35.0508   47.1890 H   0  0  0  0  0  0  0  0  0  0  0  0
   59.4163   35.7992   48.0681 H   0  0  0  0  0  0  0  0  0  0  0  0
   60.1525   36.1039   45.9602 H   0  0  0  0  0  0  0  0  0  0  0  0
   60.7230   34.3887   46.2302 H   0  0  0  0  0  0  0  0  0  0  0  0
   58.1123   35.1135   44.8475 H   0  0  0  0  0  0  0  0  0  0  0  0
   59.6517   34.7893   43.9862 H   0  0  0  0  0  0  0  0  0  0  0  0
   57.1044   33.0229   46.2176 H   0  0  0  0  0  0  0  0  0  0  0  0
   56.8340   33.3892   44.4514 H   0  0  0  0  0  0  0  0  0  0  0  0
   57.1163   27.2240   45.1218 H   0  0  0  0  0  0  0  0  0  0  0  0
   57.9343   26.2781   43.1125 H   0  0  0  0  0  0  0  0  0  0  0  0
   56.9124   27.6622   42.5960 H   0  0  0  0  0  0  0  0  0  0  0  0
   58.7019   27.8178   42.5960 H   0  0  0  0  0  0  0  0  0  0  0  0
   59.0757   27.8226   46.2941 H   0  0  0  0  0  0  0  0  0  0  0  0
   59.6890   26.8961   44.8827 H   0  0  0  0  0  0  0  0  0  0  0  0
   59.7694   28.6906   44.8827 H   0  0  0  0  0  0  0  0  0  0  0  0
   59.8390   31.4309   45.7342 H   0  0  0  0  0  0  0  0  0  0  0  0
   60.6138   33.0482   46.0915 H   0  0  0  0  0  0  0  0  0  0  0  0
   57.9752   32.3173   47.3531 H   0  0  0  0  0  0  0  0  0  0  0  0
   59.5711   31.6917   48.0167 H   0  0  0  0  0  0  0  0  0  0  0  0
  1  2  1  0
  2  3  1  0
  3  4  1  0
  4  5  1  0
  5  6  1  0
  6  7  1  0
  7  8  1  0
  8  9  1  0
  9 10  1  0
 10 11  1  0
 11 12  1  0
 12 13  2  0
 13 14  1  0
 14 15  1  0
 15 16  1  0
 15 17  1  0
 14 18  2  0
 18 19  1  0
 10 20  1  0
 20 21  1  0
 21  6  1  0
 19 12  1  0
  1 22  1  0
  1 23  1  0
  1 24  1  0
  2 25  1  0
  2 26  1  0
  4 27  1  0
  4 28  1  0
  5 29  1  0
  5 30  1  0
  7 31  1  0
  7 32  1  0
  8 33  1  0
  8 34  1  0
  9 35  1  0
  9 36  1  0
 11 37  1  0
 11 38  1  0
 15 39  1  0
 16 40  1  0
 16 41  1  0
 16 42  1  0
 17 43  1  0
 17 44  1  0
 17 45  1  0
 20 46  1  0
 20 47  1  0
 21 48  1  0
 21 49  1  0
M  END
>  <UniqueID>  (40) 
39

>  <SMILES>  (40) 
CCOCCN1CCCN(Cc2nc(C(C)C)no2)CC1

>  <Energy>  (40) 
88.47000314125592

>  <Genealogy>  (40) 
CCOCCN1CCCN(Cc2nc(C(C)C)no2)CC1 (3D coordinates assigned)
CCOCCN1CCCN(Cc2nc(C(C)C)no2)CC1 (nonaromatic ring conformer: 88.47000314125592 kcal/mol)

>  <smiles>  (40) 
CCOCCN1CCCN(Cc2nc(C(C)C)no2)CC1

>  <score_type>  (40) 
oracle

>  <origin>  (40) 
adg

>  <m_score__min__energy>  (40) 
-4.8600000000000003

>  <m_primary>  (40) 
energy

$$$$
40:0
     RDKit          3D

 42 44  0  0  0  0  0  0  0  0999 V2000
   57.4776   30.2325   47.2762 H   0  0  0  0  0  0  0  0  0  0  0  0
   58.1470   30.8890   46.7010 C   0  0  0  0  0  0  0  0  0  0  0  0
   59.1680   31.4740   47.3610 C   0  0  0  0  0  0  0  0  0  0  0  0
   60.5990   31.2730   47.0190 C   0  0  0  0  0  0  0  0  0  0  0  0
   60.9710   30.2910   46.3190 O   0  0  0  0  0  0  0  0  0  0  0  0
   61.5940   32.2250   47.5490 C   0  0  0  0  0  0  0  0  0  0  0  0
   62.9550   32.1330   47.2130 C   0  0  0  0  0  0  0  0  0  0  0  0
   63.3080   31.3116   46.5721 H   0  0  0  0  0  0  0  0  0  0  0  0
   63.8620   33.0840   47.6920 C   0  0  0  0  0  0  0  0  0  0  0  0
   64.9282   33.0054   47.4330 H   0  0  0  0  0  0  0  0  0  0  0  0
   63.4150   34.1350   48.5000 C   0  0  0  0  0  0  0  0  0  0  0  0
   64.1286   34.8862   48.8695 H   0  0  0  0  0  0  0  0  0  0  0  0
   62.0620   34.2310   48.8380 C   0  0  0  0  0  0  0  0  0  0  0  0
   61.7118   35.0612   49.4689 H   0  0  0  0  0  0  0  0  0  0  0  0
   61.1520   33.2740   48.3760 C   0  0  0  0  0  0  0  0  0  0  0  0
   59.8000   33.3770   48.7280 O   0  0  0  0  0  0  0  0  0  0  0  0
   58.8790   32.2920   48.5960 C   0  0  0  0  0  0  0  0  0  0  0  0
   57.8578   32.6952   48.5278 H   0  0  0  0  0  0  0  0  0  0  0  0
   58.9823   31.6401   49.4760 H   0  0  0  0  0  0  0  0  0  0  0  0
   57.8620   31.0660   45.2600 C   0  0  0  0  0  0  0  0  0  0  0  0
   58.2150   32.2600   44.6000 C   0  0  0  0  0  0  0  0  0  0  0  0
   58.8490   33.2800   45.3320 O   0  0  0  0  0  0  0  0  0  0  0  0
   59.0010   34.6230   44.8860 C   0  0  0  0  0  0  0  0  0  0  0  0
   59.0767   35.2919   45.7560 H   0  0  0  0  0  0  0  0  0  0  0  0
   59.9143   34.7065   44.2787 H   0  0  0  0  0  0  0  0  0  0  0  0
   58.1294   34.9085   44.2787 H   0  0  0  0  0  0  0  0  0  0  0  0
   57.9190   32.4070   43.2320 C   0  0  0  0  0  0  0  0  0  0  0  0
   58.2131   33.3290   42.7090 H   0  0  0  0  0  0  0  0  0  0  0  0
   57.2570   31.3980   42.5300 C   0  0  0  0  0  0  0  0  0  0  0  0
   56.9890   31.6050   41.1680 O   0  0  0  0  0  0  0  0  0  0  0  0
   57.4140   32.7430   40.4260 C   0  0  0  0  0  0  0  0  0  0  0  0
   57.7126   33.5426   41.1199 H   0  0  0  0  0  0  0  0  0  0  0  0
   58.2703   32.4687   39.7923 H   0  0  0  0  0  0  0  0  0  0  0  0
   56.5875   33.0971   39.7923 H   0  0  0  0  0  0  0  0  0  0  0  0
   56.8800   30.2240   43.2020 C   0  0  0  0  0  0  0  0  0  0  0  0
   56.3503   29.4300   42.6553 H   0  0  0  0  0  0  0  0  0  0  0  0
   57.1730   30.0530   44.5680 C   0  0  0  0  0  0  0  0  0  0  0  0
   56.8050   28.8880   45.2650 O   0  0  0  0  0  0  0  0  0  0  0  0
   57.5590   27.6810   45.2800 C   0  0  0  0  0  0  0  0  0  0  0  0
   57.7475   27.3793   46.3209 H   0  0  0  0  0  0  0  0  0  0  0  0
   56.9944   26.8896   44.7653 H   0  0  0  0  0  0  0  0  0  0  0  0
   58.5179   27.8412   44.7653 H   0  0  0  0  0  0  0  0  0  0  0  0
  1  2  1  0
  2  3  2  0
  3  4  1  0
  4  5  2  0
  4  6  1  0
  6  7  2  0
  7  8  1  0
  7  9  1  0
  9 10  1  0
  9 11  2  0
 11 12  1  0
 11 13  1  0
 13 14  1  0
 13 15  2  0
 15 16  1  0
 16 17  1  0
 17 18  1  0
 17 19  1  0
  2 20  1  0
 20 21  2  0
 21 22  1  0
 22 23  1  0
 23 24  1  0
 23 25  1  0
 23 26  1  0
 21 27  1  0
 27 28  1  0
 27 29  2  0
 29 30  1  0
 30 31  1  0
 31 32  1  0
 31 33  1  0
 31 34  1  0
 29 35  1  0
 35 36  1  0
 35 37  2  0
 37 38  1  0
 38 39  1  0
 39 40  1  0
 39 41  1  0
 39 42  1  0
 17  3  1  0
 37 20  1  0
 15  6  1  0
M  END
>  <UniqueID>  (41) 
40

>  <SMILES>  (41) 
COc1cc(OC)c(/C=C2/COc3ccccc3C2=O)c(OC)c1

>  <Energy>  (41) 
54.887463865964946

>  <Genealogy>  (41) 
COc1cc(OC)c(/C=C2/COc3ccccc3C2=O)c(OC)c1 (cis-trans isomerization)
COc1cc(OC)c(/C=C2/COc3ccccc3C2=O)c(OC)c1 (3D coordinates assigned)
COc1cc(OC)c(/C=C2/COc3ccccc3C2=O)c(OC)c1 (nonaromatic ring conformer: 54.887463865964946 kcal/mol)

>  <smiles>  (41) 
COc1cc(OC)c(C=C2COc3ccccc3C2=O)c(OC)c1

>  <score_type>  (41) 
oracle

>  <origin>  (41) 
adg

>  <m_score__min__energy>  (41) 
-6.8300000000000001

>  <m_primary>  (41) 
energy

$$$$
41:0
     RDKit          3D

 61 65  0  0  0  0  0  0  0  0999 V2000
   58.6980   34.5540   52.8420 C   0  0  0  0  0  0  0  0  0  0  0  0
   57.8870   33.4780   52.3810 O   0  0  0  0  0  0  0  0  0  0  0  0
   58.3330   32.4510   51.5370 C   0  0  0  0  0  0  0  0  0  0  0  0
   57.7520   31.1920   51.6840 C   0  0  0  0  0  0  0  0  0  0  0  0
   58.1560   30.1280   50.8850 C   0  0  0  0  0  0  0  0  0  0  0  0
   59.1520   30.3050   49.9160 C   0  0  0  0  0  0  0  0  0  0  0  0
   59.5410   29.2150   49.1260 C   0  0  0  0  0  0  0  0  0  0  0  0
   60.5270   29.3670   48.1590 C   0  0  0  0  0  0  0  0  0  0  0  0
   61.1380   30.6030   47.9680 C   0  0  0  0  0  0  0  0  0  0  0  0
   60.7740   31.7230   48.7370 C   0  0  0  0  0  0  0  0  0  0  0  0
   61.5190   33.0120   48.4410 C   0  0  0  0  0  0  0  0  0  0  0  0
   60.5650   34.2010   48.1900 C   0  0  0  0  0  0  0  0  0  0  0  0
   59.7190   33.9670   47.0000 N   0  0  0  0  0  0  0  0  0  0  0  0
   58.4170   33.3940   47.3950 C   0  0  0  0  0  0  0  0  0  0  0  0
   57.3940   33.3890   46.2330 C   0  0  0  0  0  0  0  0  0  0  0  0
   57.9960   33.6900   44.9190 N   0  0  0  0  0  0  0  0  0  0  0  0
   58.4790   32.5180   44.1550 C   0  0  0  0  0  0  0  0  0  0  0  0
   57.8060   31.2210   44.5370 C   0  0  0  0  0  0  0  0  0  0  0  0
   56.4880   30.9560   44.1220 C   0  0  0  0  0  0  0  0  0  0  0  0
   55.8580   29.7610   44.4810 C   0  0  0  0  0  0  0  0  0  0  0  0
   56.5430   28.8150   45.2430 C   0  0  0  0  0  0  0  0  0  0  0  0
   57.8560   29.0710   45.6640 C   0  0  0  0  0  0  0  0  0  0  0  0
   58.4950   30.2560   45.2940 C   0  0  0  0  0  0  0  0  0  0  0  0
   58.5060   28.1320   46.4690 O   0  0  0  0  0  0  0  0  0  0  0  0
   57.7770   27.0780   47.1040 C   0  0  0  0  0  0  0  0  0  0  0  0
   56.7030   26.5310   46.1530 C   0  0  0  0  0  0  0  0  0  0  0  0
   55.9370   27.6060   45.6000 O   0  0  0  0  0  0  0  0  0  0  0  0
   58.8710   34.8870   44.8850 C   0  0  0  0  0  0  0  0  0  0  0  0
   59.4970   35.2110   46.2480 C   0  0  0  0  0  0  0  0  0  0  0  0
   59.7600   31.5800   49.7340 C   0  0  0  0  0  0  0  0  0  0  0  0
   59.3330   32.6460   50.5630 C   0  0  0  0  0  0  0  0  0  0  0  0
   58.7047   34.5629   53.9419 H   0  0  0  0  0  0  0  0  0  0  0  0
   59.7251   34.4245   52.4701 H   0  0  0  0  0  0  0  0  0  0  0  0
   58.2906   35.5057   52.4701 H   0  0  0  0  0  0  0  0  0  0  0  0
   56.9668   31.0390   52.4390 H   0  0  0  0  0  0  0  0  0  0  0  0
   57.6900   29.1401   51.0148 H   0  0  0  0  0  0  0  0  0  0  0  0
   59.0637   28.2348   49.2721 H   0  0  0  0  0  0  0  0  0  0  0  0
   60.8260   28.5070   47.5418 H   0  0  0  0  0  0  0  0  0  0  0  0
   61.9201   30.7058   47.2013 H   0  0  0  0  0  0  0  0  0  0  0  0
   62.1640   33.2520   49.2992 H   0  0  0  0  0  0  0  0  0  0  0  0
   62.1074   32.8558   47.5249 H   0  0  0  0  0  0  0  0  0  0  0  0
   59.9179   34.3335   49.0696 H   0  0  0  0  0  0  0  0  0  0  0  0
   61.1709   35.1021   48.0144 H   0  0  0  0  0  0  0  0  0  0  0  0
   58.5747   32.3584   47.7306 H   0  0  0  0  0  0  0  0  0  0  0  0
   58.0059   34.0218   48.1993 H   0  0  0  0  0  0  0  0  0  0  0  0
   56.9282   32.3937   46.1831 H   0  0  0  0  0  0  0  0  0  0  0  0
   56.6610   34.1818   46.4430 H   0  0  0  0  0  0  0  0  0  0  0  0
   58.2962   32.7017   43.0860 H   0  0  0  0  0  0  0  0  0  0  0  0
   59.5484   32.4039   44.3861 H   0  0  0  0  0  0  0  0  0  0  0  0
   55.9493   31.6948   43.5104 H   0  0  0  0  0  0  0  0  0  0  0  0
   54.8231   29.5670   44.1628 H   0  0  0  0  0  0  0  0  0  0  0  0
   59.5379   30.4351   45.5946 H   0  0  0  0  0  0  0  0  0  0  0  0
   58.4702   26.2678   47.3742 H   0  0  0  0  0  0  0  0  0  0  0  0
   57.2900   27.4716   48.0084 H   0  0  0  0  0  0  0  0  0  0  0  0
   57.1890   25.9746   45.3380 H   0  0  0  0  0  0  0  0  0  0  0  0
   56.0320   25.8650   46.7153 H   0  0  0  0  0  0  0  0  0  0  0  0
   59.6799   34.7094   44.1611 H   0  0  0  0  0  0  0  0  0  0  0  0
   58.2445   35.7445   44.5985 H   0  0  0  0  0  0  0  0  0  0  0  0
   60.4587   35.7230   46.0962 H   0  0  0  0  0  0  0  0  0  0  0  0
   58.8167   35.8631   46.8154 H   0  0  0  0  0  0  0  0  0  0  0  0
   59.7883   33.6404   50.4450 H   0  0  0  0  0  0  0  0  0  0  0  0
  1  2  1  0
  2  3  1  0
  3  4  2  0
  4  5  1  0
  5  6  2  0
  6  7  1  0
  7  8  2  0
  8  9  1  0
  9 10  2  0
 10 11  1  0
 11 12  1  0
 12 13  1  0
 13 14  1  0
 14 15  1  0
 15 16  1  0
 16 17  1  0
 17 18  1  0
 18 19  2  0
 19 20  1  0
 20 21  2  0
 21 22  1  0
 22 23  2  0
 22 24  1  0
 24 25  1  0
 25 26  1  0
 26 27  1  0
 16 28  1  0
 28 29  1  0
 10 30  1  0
 30 31  2  0
 31  3  1  0
 30  6  1  0
 29 13  1  0
 23 18  1  0
 27 21  1  0
  1 32  1  0
  1 33  1  0
  1 34  1  0
  4 35  1  0
  5 36  1  0
  7 37  1  0
  8 38  1  0
  9 39  1  0
 11 40  1  0
 11 41  1  0
 12 42  1  0
 12 43  1  0
 14 44  1  0
 14 45  1  0
 15 46  1  0
 15 47  1  0
 17 48  1  0
 17 49  1  0
 19 50  1  0
 20 51  1  0
 23 52  1  0
 25 53  1  0
 25 54  1  0
 26 55  1  0
 26 56  1  0
 28 57  1  0
 28 58  1  0
 29 59  1  0
 29 60  1  0
 31 61  1  0
M  END
>  <UniqueID>  (42) 
41

>  <SMILES>  (42) 
COc1ccc2cccc(CCN3CCN(Cc4ccc5c(c4)OCCO5)CC3)c2c1

>  <Energy>  (42) 
84.25827499522516

>  <Genealogy>  (42) 
COc1ccc2cccc(CCN3CCN(Cc4ccc5c(c4)OCCO5)CC3)c2c1 (3D coordinates assigned)
COc1ccc2cccc(CCN3CCN(Cc4ccc5c(c4)OCCO5)CC3)c2c1 (nonaromatic ring conformer: 84.25827499522516 kcal/mol)

>  <smiles>  (42) 
COc1ccc2cccc(CCN3CCN(Cc4ccc5c(c4)OCCO5)CC3)c2c1

>  <score_type>  (42) 
oracle

>  <origin>  (42) 
adg

>  <m_score__min__energy>  (42) 
-9.25

>  <m_primary>  (42) 
energy

$$$$
42:0
     RDKit          3D

 32 34  0  0  0  0  0  0  0  0999 V2000
   57.0550   27.3530   45.6460 C   0  0  0  0  0  0  0  0  0  0  0  0
   56.2830   28.4400   45.2420 O   0  0  0  0  0  0  0  0  0  0  0  0
   56.7310   29.5800   44.6280 C   0  0  0  0  0  0  0  0  0  0  0  0
   56.5320   29.8080   43.2810 C   0  0  0  0  0  0  0  0  0  0  0  0
   56.9700   30.9260   42.6720 N   0  0  0  0  0  0  0  0  0  0  0  0
   57.6230   31.8440   43.4180 C   0  0  0  0  0  0  0  0  0  0  0  0
   57.8570   31.6810   44.7700 C   0  0  0  0  0  0  0  0  0  0  0  0
   58.5760   32.7300   45.4810 C   0  0  0  0  0  0  0  0  0  0  0  0
   58.0790   33.9970   45.6790 C   0  0  0  0  0  0  0  0  0  0  0  0
   58.8290   34.9500   46.3770 C   0  0  0  0  0  0  0  0  0  0  0  0
   60.0810   34.6500   46.8840 C   0  0  0  0  0  0  0  0  0  0  0  0
   60.5850   33.3740   46.6870 C   0  0  0  0  0  0  0  0  0  0  0  0
   61.8960   32.9700   47.1880 C   0  0  0  0  0  0  0  0  0  0  0  0
   62.2120   32.0200   48.1410 C   0  0  0  0  0  0  0  0  0  0  0  0
   63.5580   32.0220   48.2480 N   0  0  0  0  0  0  0  0  0  0  0  0
   64.0950   32.9060   47.4290 N   0  0  0  0  0  0  0  0  0  0  0  0
   63.1060   33.5180   46.7510 C   0  0  0  0  0  0  0  0  0  0  0  0
   59.8320   32.4430   45.9940 C   0  0  0  0  0  0  0  0  0  0  0  0
   57.4010   30.5290   45.3760 C   0  0  0  0  0  0  0  0  0  0  0  0
   57.0840   27.3121   46.7449 H   0  0  0  0  0  0  0  0  0  0  0  0
   56.6130   26.4242   45.2561 H   0  0  0  0  0  0  0  0  0  0  0  0
   58.0775   27.4644   45.2561 H   0  0  0  0  0  0  0  0  0  0  0  0
   55.9985   29.0520   42.6862 H   0  0  0  0  0  0  0  0  0  0  0  0
   57.9838   32.7604   42.9280 H   0  0  0  0  0  0  0  0  0  0  0  0
   57.0864   34.2627   45.2865 H   0  0  0  0  0  0  0  0  0  0  0  0
   58.4149   35.9582   46.5257 H   0  0  0  0  0  0  0  0  0  0  0  0
   60.6628   35.4067   47.4307 H   0  0  0  0  0  0  0  0  0  0  0  0
   61.5070   31.3880   48.7010 H   0  0  0  0  0  0  0  0  0  0  0  0
   65.1380   33.0920   47.3320 H   0  0  0  0  0  0  0  0  0  0  0  0
   63.2275   34.3050   45.9922 H   0  0  0  0  0  0  0  0  0  0  0  0
   60.2461   31.4350   45.8440 H   0  0  0  0  0  0  0  0  0  0  0  0
   57.5701   30.3664   46.4507 H   0  0  0  0  0  0  0  0  0  0  0  0
  1  2  1  0
  2  3  1  0
  3  4  2  0
  4  5  1  0
  5  6  2  0
  6  7  1  0
  7  8  1  0
  8  9  2  0
  9 10  1  0
 10 11  2  0
 11 12  1  0
 12 13  1  0
 13 14  1  0
 14 15  2  0
 15 16  1  0
 16 17  1  0
 12 18  2  0
  7 19  2  0
 19  3  1  0
 18  8  1  0
 17 13  2  0
  1 20  1  0
  1 21  1  0
  1 22  1  0
  4 23  1  0
  6 24  1  0
  9 25  1  0
 10 26  1  0
 11 27  1  0
 14 28  1  0
 16 29  1  0
 17 30  1  0
 18 31  1  0
 19 32  1  0
M  END
>  <smiles>  (43) 
COc1cncc(-c2cccc(-c3cn[nH]c3)c2)c1

>  <score_type>  (43) 
oracle

>  <origin>  (43) 
adg

>  <m_score__min__energy>  (43) 
-7.29

>  <m_primary>  (43) 
energy

$$$$
