0:0
     RDKit          3D

 40 42  0  0  0  0  0  0  0  0999 V2000
   56.2590   29.7860   43.1200 C   0  0  0  0  0  0  0  0  0  0  0  0
   57.1350   30.1760   44.2620 C   0  0  0  0  0  0  0  0  0  0  0  0
   56.9970   31.4000   44.8350 N   0  0  0  0  0  0  0  0  0  0  0  0
   57.7710   31.7910   45.8810 C   0  0  0  0  0  0  0  0  0  0  0  0
   57.4990   33.4320   46.5690 S   0  0  0  0  0  0  0  0  0  0  0  0
   58.1240   34.3580   45.1170 C   0  0  0  0  0  0  0  0  0  0  0  0
   59.6310   34.6080   45.1940 C   0  0  0  0  0  0  0  0  0  0  0  0
   60.0240   34.7510   46.5570 O   0  0  0  0  0  0  0  0  0  0  0  0
   61.1680   34.1770   47.1330 C   0  0  0  0  0  0  0  0  0  0  0  0
   62.2980   33.8420   46.3610 C   0  0  0  0  0  0  0  0  0  0  0  0
   63.4310   33.2950   46.9670 C   0  0  0  0  0  0  0  0  0  0  0  0
   63.4510   33.0670   48.3420 C   0  0  0  0  0  0  0  0  0  0  0  0
   62.3330   33.3820   49.1170 C   0  0  0  0  0  0  0  0  0  0  0  0
   61.1900   33.9410   48.5250 C   0  0  0  0  0  0  0  0  0  0  0  0
   59.9910   34.2220   49.3900 C   0  0  0  0  0  0  0  0  0  0  0  0
   58.7620   30.9180   46.3720 C   0  0  0  0  0  0  0  0  0  0  0  0
   59.6070   31.2470   47.4490 C   0  0  0  0  0  0  0  0  0  0  0  0
   60.5690   30.3340   47.8920 C   0  0  0  0  0  0  0  0  0  0  0  0
   60.6980   29.0900   47.2680 C   0  0  0  0  0  0  0  0  0  0  0  0
   59.8670   28.7520   46.1970 C   0  0  0  0  0  0  0  0  0  0  0  0
   58.9010   29.6580   45.7470 C   0  0  0  0  0  0  0  0  0  0  0  0
   58.0900   29.3220   44.7100 N   0  0  0  0  0  0  0  0  0  0  0  0
   55.3180   29.3671   43.5061 H   0  0  0  0  0  0  0  0  0  0  0  0
   56.0411   30.6721   42.5057 H   0  0  0  0  0  0  0  0  0  0  0  0
   56.7717   29.0311   42.5057 H   0  0  0  0  0  0  0  0  0  0  0  0
   57.9074   33.7784   44.2075 H   0  0  0  0  0  0  0  0  0  0  0  0
   57.6207   35.3359   45.0989 H   0  0  0  0  0  0  0  0  0  0  0  0
   60.1663   33.7578   44.7461 H   0  0  0  0  0  0  0  0  0  0  0  0
   59.8766   35.5290   44.6449 H   0  0  0  0  0  0  0  0  0  0  0  0
   62.2877   34.0124   45.2743 H   0  0  0  0  0  0  0  0  0  0  0  0
   64.3110   33.0431   46.3570 H   0  0  0  0  0  0  0  0  0  0  0  0
   64.3467   32.6393   48.8161 H   0  0  0  0  0  0  0  0  0  0  0  0
   62.3483   33.1905   50.2001 H   0  0  0  0  0  0  0  0  0  0  0  0
   60.2792   34.1544   50.4494 H   0  0  0  0  0  0  0  0  0  0  0  0
   59.6136   35.2329   49.1764 H   0  0  0  0  0  0  0  0  0  0  0  0
   59.2037   33.4840   49.1764 H   0  0  0  0  0  0  0  0  0  0  0  0
   59.5102   32.2249   47.9433 H   0  0  0  0  0  0  0  0  0  0  0  0
   61.2264   30.5957   48.7343 H   0  0  0  0  0  0  0  0  0  0  0  0
   61.4558   28.3752   47.6211 H   0  0  0  0  0  0  0  0  0  0  0  0
   59.9725   27.7727   45.7073 H   0  0  0  0  0  0  0  0  0  0  0  0
  1  2  1  0
  2  3  2  0
  3  4  1  0
  4  5  1  0
  5  6  1  0
  6  7  1  0
  7  8  1  0
  8  9  1  0
  9 10  2  0
 10 11  1  0
 11 12  2  0
 12 13  1  0
 13 14  2  0
 14 15  1  0
  4 16  2  0
 16 17  1  0
 17 18  2  0
 18 19  1  0
 19 20  2  0
 20 21  1  0
 21 22  2  0
 22  2  1  0
 14  9  1  0
 21 16  1  0
  1 23  1  0
  1 24  1  0
  1 25  1  0
  6 26  1  0
  6 27  1  0
  7 28  1  0
  7 29  1  0
 10 30  1  0
 11 31  1  0
 12 32  1  0
 13 33  1  0
 15 34  1  0
 15 35  1  0
 15 36  1  0
 17 37  1  0
 18 38  1  0
 19 39  1  0
 20 40  1  0
M  END
>  <UniqueID>  (1) 
1

>  <SMILES>  (1) 
Cc1nc(SCCOc2ccccc2C)c2ccccc2n1

>  <Energy>  (1) 
37.15897277617956

>  <Genealogy>  (1) 
Cc1nc(SCCOc2ccccc2C)c2ccccc2n1 (3D coordinates assigned)
Cc1nc(SCCOc2ccccc2C)c2ccccc2n1 (optimized conformer: 37.15897277617956 kcal/mol)

>  <smiles>  (1) 
Cc1nc(SCCOc2ccccc2C)c2ccccc2n1

>  <score_type>  (1) 
oracle

>  <origin>  (1) 
adg

>  <m_score__min__energy>  (1) 
-7.5599999999999996

>  <m_primary>  (1) 
energy

$$$$
1:0
     RDKit          3D

 63 67  0  0  0  0  0  0  0  0999 V2000
   58.1920   22.7430   44.5410 C   0  0  0  0  0  0  0  0  0  0  0  0
   57.9760   23.5250   45.6960 O   0  0  0  0  0  0  0  0  0  0  0  0
   58.0230   24.8930   45.7540 C   0  0  0  0  0  0  0  0  0  0  0  0
   59.2640   25.5000   45.6650 C   0  0  0  0  0  0  0  0  0  0  0  0
   59.4150   26.8730   45.7130 C   0  0  0  0  0  0  0  0  0  0  0  0
   58.2890   27.6600   45.8540 C   0  0  0  0  0  0  0  0  0  0  0  0
   58.3420   29.0890   45.9030 N   0  0  0  0  0  0  0  0  0  0  0  0
   58.6770   29.6950   47.0660 C   0  0  0  0  0  0  0  0  0  0  0  0
   58.9890   28.6280   48.4650 S   0  0  0  0  0  0  0  0  0  0  0  0
   60.5620   29.0180   49.2030 C   0  0  0  0  0  0  0  0  0  0  0  0
   60.5460   29.9980   50.2890 C   0  0  0  0  0  0  0  0  0  0  0  0
   61.1940   29.7120   51.3460 O   0  0  0  0  0  0  0  0  0  0  0  0
   59.8210   31.2010   50.1310 N   0  0  0  0  0  0  0  0  0  0  0  0
   59.7300   32.2100   51.1340 C   0  0  0  0  0  0  0  0  0  0  0  0
   60.7830   32.7000   51.8430 C   0  0  0  0  0  0  0  0  0  0  0  0
   60.5370   33.6820   52.7860 C   0  0  0  0  0  0  0  0  0  0  0  0
   59.2510   34.1670   53.0140 C   0  0  0  0  0  0  0  0  0  0  0  0
   58.9140   35.4050   54.2010 Cl  0  0  0  0  0  0  0  0  0  0  0  0
   58.1790   33.6750   52.2960 C   0  0  0  0  0  0  0  0  0  0  0  0
   58.4370   32.7000   51.3640 C   0  0  0  0  0  0  0  0  0  0  0  0
   58.7480   31.0420   47.1630 N   0  0  0  0  0  0  0  0  0  0  0  0
   58.4700   31.7590   46.0510 C   0  0  0  0  0  0  0  0  0  0  0  0
   58.1260   31.1630   44.8550 C   0  0  0  0  0  0  0  0  0  0  0  0
   57.8980   32.1310   43.9060 C   0  0  0  0  0  0  0  0  0  0  0  0
   57.5080   31.9960   42.4790 C   0  0  0  0  0  0  0  0  0  0  0  0
   58.1150   33.3070   44.5690 N   0  0  0  0  0  0  0  0  0  0  0  0
   58.4490   33.0840   45.8260 N   0  0  0  0  0  0  0  0  0  0  0  0
   58.7290   34.1780   46.7560 C   0  0  0  0  0  0  0  0  0  0  0  0
   60.1480   34.0330   47.2380 C   0  0  0  0  0  0  0  0  0  0  0  0
   60.4800   34.2450   48.5750 C   0  0  0  0  0  0  0  0  0  0  0  0
   61.7810   34.1160   49.0330 C   0  0  0  0  0  0  0  0  0  0  0  0
   62.7970   33.7690   48.1620 C   0  0  0  0  0  0  0  0  0  0  0  0
   62.4700   33.5580   46.8290 C   0  0  0  0  0  0  0  0  0  0  0  0
   61.1740   33.6870   46.3810 C   0  0  0  0  0  0  0  0  0  0  0  0
   58.0580   29.7910   44.7740 C   0  0  0  0  0  0  0  0  0  0  0  0
   57.7580   29.1230   43.7420 N   0  0  0  0  0  0  0  0  0  0  0  0
   57.0140   27.0880   45.9460 C   0  0  0  0  0  0  0  0  0  0  0  0
   56.9240   25.7040   45.8930 C   0  0  0  0  0  0  0  0  0  0  0  0
   58.4741   21.7218   44.8371 H   0  0  0  0  0  0  0  0  0  0  0  0
   57.2694   22.7097   43.9429 H   0  0  0  0  0  0  0  0  0  0  0  0
   59.0009   23.1880   43.9429 H   0  0  0  0  0  0  0  0  0  0  0  0
   60.1583   24.8695   45.5525 H   0  0  0  0  0  0  0  0  0  0  0  0
   60.4129   27.3301   45.6403 H   0  0  0  0  0  0  0  0  0  0  0  0
   60.9856   28.0842   49.6012 H   0  0  0  0  0  0  0  0  0  0  0  0
   61.1545   29.4812   48.4002 H   0  0  0  0  0  0  0  0  0  0  0  0
   59.3090   31.3960   49.2410 H   0  0  0  0  0  0  0  0  0  0  0  0
   61.8028   32.3253   51.6709 H   0  0  0  0  0  0  0  0  0  0  0  0
   61.3761   34.0892   53.3692 H   0  0  0  0  0  0  0  0  0  0  0  0
   57.1584   34.0494   52.4640 H   0  0  0  0  0  0  0  0  0  0  0  0
   57.6011   32.2898   50.7784 H   0  0  0  0  0  0  0  0  0  0  0  0
   56.4703   31.6368   42.4149 H   0  0  0  0  0  0  0  0  0  0  0  0
   57.5887   32.9744   41.9827 H   0  0  0  0  0  0  0  0  0  0  0  0
   58.1763   31.2769   41.9827 H   0  0  0  0  0  0  0  0  0  0  0  0
   58.6066   35.1434   46.2432 H   0  0  0  0  0  0  0  0  0  0  0  0
   58.0327   34.1415   47.6068 H   0  0  0  0  0  0  0  0  0  0  0  0
   59.6875   34.5222   49.2857 H   0  0  0  0  0  0  0  0  0  0  0  0
   62.0069   34.2906   50.0953 H   0  0  0  0  0  0  0  0  0  0  0  0
   63.8336   33.6632   48.5144 H   0  0  0  0  0  0  0  0  0  0  0  0
   63.2617   33.2824   46.1168 H   0  0  0  0  0  0  0  0  0  0  0  0
   60.9516   33.5107   45.3182 H   0  0  0  0  0  0  0  0  0  0  0  0
   58.1260   29.2940   42.8180 H   0  0  0  0  0  0  0  0  0  0  0  0
   56.1158   27.7134   46.0563 H   0  0  0  0  0  0  0  0  0  0  0  0
   55.9305   25.2374   45.9654 H   0  0  0  0  0  0  0  0  0  0  0  0
  1  2  1  0
  2  3  1  0
  3  4  2  0
  4  5  1  0
  5  6  2  0
  6  7  1  0
  7  8  1  0
  8  9  1  0
  9 10  1  0
 10 11  1  0
 11 12  2  0
 11 13  1  0
 13 14  1  0
 14 15  2  0
 15 16  1  0
 16 17  2  0
 17 18  1  0
 17 19  1  0
 19 20  2  0
  8 21  2  0
 21 22  1  0
 22 23  2  0
 23 24  1  0
 24 25  1  0
 24 26  2  0
 26 27  1  0
 27 28  1  0
 28 29  1  0
 29 30  2  0
 30 31  1  0
 31 32  2  0
 32 33  1  0
 33 34  2  0
 23 35  1  0
 35 36  2  3
  6 37  1  0
 37 38  2  0
 38  3  1  0
 35  7  1  0
 20 14  1  0
 27 22  1  0
 34 29  1  0
  1 39  1  0
  1 40  1  0
  1 41  1  0
  4 42  1  0
  5 43  1  0
 10 44  1  0
 10 45  1  0
 13 46  1  0
 15 47  1  0
 16 48  1  0
 19 49  1  0
 20 50  1  0
 25 51  1  0
 25 52  1  0
 25 53  1  0
 28 54  1  0
 28 55  1  0
 30 56  1  0
 31 57  1  0
 32 58  1  0
 33 59  1  0
 34 60  1  0
 36 61  1  0
 37 62  1  0
 38 63  1  0
M  END
>  <smiles>  (2) 
COc1ccc(-n2c(SCC(=O)Nc3ccc(Cl)cc3)nc3c(c(C)nn3Cc3ccccc3)c2=N)cc1

>  <score_type>  (2) 
oracle

>  <origin>  (2) 
adg

>  <m_score__min__energy>  (2) 
-9.3900000000000006

>  <m_primary>  (2) 
energy

$$$$
2:0
     RDKit          3D

 52 56  0  0  0  0  0  0  0  0999 V2000
   60.0360   30.0540   47.8840 C   0  0  0  0  0  0  0  0  0  0  0  0
   58.8900   30.5330   48.7750 C   0  0  0  0  0  0  0  0  0  0  0  0
   58.9150   32.0060   49.1970 C   0  0  0  0  0  0  0  0  0  0  0  0
   59.2030   32.2240   50.5700 C   0  0  0  0  0  0  0  0  0  0  0  0
   60.3740   32.8600   50.9130 N   0  0  0  0  0  0  0  0  0  0  0  0
   61.1620   33.4330   49.9560 C   0  0  0  0  0  0  0  0  0  0  0  0
   60.7140   33.5290   48.6370 C   0  0  0  0  0  0  0  0  0  0  0  0
   61.4710   34.2160   47.6790 C   0  0  0  0  0  0  0  0  0  0  0  0
   60.9850   34.3760   46.3830 C   0  0  0  0  0  0  0  0  0  0  0  0
   59.6960   33.9360   46.0560 C   0  0  0  0  0  0  0  0  0  0  0  0
   59.1560   34.2250   44.7920 C   0  0  0  0  0  0  0  0  0  0  0  0
   57.8270   33.9110   44.5080 C   0  0  0  0  0  0  0  0  0  0  0  0
   57.0190   33.3380   45.4900 C   0  0  0  0  0  0  0  0  0  0  0  0
   57.5500   33.0310   46.7460 C   0  0  0  0  0  0  0  0  0  0  0  0
   58.9140   33.2500   47.0240 C   0  0  0  0  0  0  0  0  0  0  0  0
   59.4890   32.9260   48.2820 C   0  0  0  0  0  0  0  0  0  0  0  0
   60.8910   32.7700   52.2870 C   0  0  0  0  0  0  0  0  0  0  0  0
   59.7750   32.9270   53.3150 C   0  0  0  0  0  0  0  0  0  0  0  0
   58.6150   32.0260   52.9980 C   0  0  0  0  0  0  0  0  0  0  0  0
   57.7760   31.5950   54.0350 C   0  0  0  0  0  0  0  0  0  0  0  0
   56.5960   30.8840   53.7550 C   0  0  0  0  0  0  0  0  0  0  0  0
   55.7460   30.4200   54.7710 O   0  0  0  0  0  0  0  0  0  0  0  0
   55.5070   29.0450   55.0600 C   0  0  0  0  0  0  0  0  0  0  0  0
   56.2370   30.6400   52.4240 C   0  0  0  0  0  0  0  0  0  0  0  0
   55.0390   29.9500   52.1740 O   0  0  0  0  0  0  0  0  0  0  0  0
   53.8560   30.5480   51.6530 C   0  0  0  0  0  0  0  0  0  0  0  0
   57.0710   31.0890   51.3840 C   0  0  0  0  0  0  0  0  0  0  0  0
   58.2890   31.7410   51.6570 C   0  0  0  0  0  0  0  0  0  0  0  0
   60.8686   29.7060   48.5130 H   0  0  0  0  0  0  0  0  0  0  0  0
   59.6857   29.2270   47.2489 H   0  0  0  0  0  0  0  0  0  0  0  0
   60.3784   30.8843   47.2489 H   0  0  0  0  0  0  0  0  0  0  0  0
   57.9498   30.3580   48.2315 H   0  0  0  0  0  0  0  0  0  0  0  0
   58.9935   29.9629   49.7100 H   0  0  0  0  0  0  0  0  0  0  0  0
   62.1553   33.8211   50.2258 H   0  0  0  0  0  0  0  0  0  0  0  0
   62.4529   34.6307   47.9510 H   0  0  0  0  0  0  0  0  0  0  0  0
   61.6149   34.8488   45.6151 H   0  0  0  0  0  0  0  0  0  0  0  0
   59.7832   34.7005   44.0236 H   0  0  0  0  0  0  0  0  0  0  0  0
   57.4157   34.1155   43.5085 H   0  0  0  0  0  0  0  0  0  0  0  0
   55.9609   33.1271   45.2754 H   0  0  0  0  0  0  0  0  0  0  0  0
   56.8960   32.6139   47.5259 H   0  0  0  0  0  0  0  0  0  0  0  0
   61.3693   31.7892   52.4255 H   0  0  0  0  0  0  0  0  0  0  0  0
   61.6159   33.5836   52.4372 H   0  0  0  0  0  0  0  0  0  0  0  0
   60.1659   32.6720   54.3111 H   0  0  0  0  0  0  0  0  0  0  0  0
   59.4237   33.9691   53.2920 H   0  0  0  0  0  0  0  0  0  0  0  0
   58.0438   31.8155   55.0789 H   0  0  0  0  0  0  0  0  0  0  0  0
   55.4815   28.8984   56.1499 H   0  0  0  0  0  0  0  0  0  0  0  0
   54.5426   28.7415   54.6266 H   0  0  0  0  0  0  0  0  0  0  0  0
   56.3124   28.4339   54.6266 H   0  0  0  0  0  0  0  0  0  0  0  0
   53.2129   30.8731   52.4841 H   0  0  0  0  0  0  0  0  0  0  0  0
   54.1259   31.4179   51.0363 H   0  0  0  0  0  0  0  0  0  0  0  0
   53.3155   29.8148   51.0363 H   0  0  0  0  0  0  0  0  0  0  0  0
   56.7665   30.9280   50.3393 H   0  0  0  0  0  0  0  0  0  0  0  0
  1  2  1  0
  2  3  1  0
  3  4  2  0
  4  5  1  0
  5  6  2  0
  6  7  1  0
  7  8  2  0
  8  9  1  0
  9 10  2  0
 10 11  1  0
 11 12  2  0
 12 13  1  0
 13 14  2  0
 14 15  1  0
 15 16  2  0
  5 17  1  0
 17 18  1  0
 18 19  1  0
 19 20  2  0
 20 21  1  0
 21 22  1  0
 22 23  1  0
 21 24  2  0
 24 25  1  0
 25 26  1  0
 24 27  1  0
 27 28  2  0
 16  3  1  0
 28 19  1  0
 28  4  1  0
 16  7  1  0
 15 10  1  0
  1 29  1  0
  1 30  1  0
  1 31  1  0
  2 32  1  0
  2 33  1  0
  6 34  1  0
  8 35  1  0
  9 36  1  0
 11 37  1  0
 12 38  1  0
 13 39  1  0
 14 40  1  0
 17 41  1  0
 17 42  1  0
 18 43  1  0
 18 44  1  0
 20 45  1  0
 23 46  1  0
 23 47  1  0
 23 48  1  0
 26 49  1  0
 26 50  1  0
 26 51  1  0
 27 52  1  0
M  CHG  1   5   1
M  END
>  <UniqueID>  (3) 
2

>  <SMILES>  (3) 
CCc1c2[n+](cc3ccc4ccccc4c13)CCc1cc(OC)c(OC)cc1-2

>  <Energy>  (3) 
109.10454433018474

>  <Genealogy>  (3) 
CCc1c2[n+](cc3ccc4ccccc4c13)CCc1cc(OC)c(OC)cc1-2 (3D coordinates assigned)
CCc1c2[n+](cc3ccc4ccccc4c13)CCc1cc(OC)c(OC)cc1-2 (nonaromatic ring conformer: 109.10454433018474 kcal/mol)

>  <smiles>  (3) 
CCc1c2[n+](cc3ccc4ccccc4c13)CCc1cc(OC)c(OC)cc1-2

>  <score_type>  (3) 
oracle

>  <origin>  (3) 
adg

>  <m_score__min__energy>  (3) 
-6.6299999999999999

>  <m_primary>  (3) 
energy

$$$$
3:0
     RDKit          3D

 56 58  0  0  0  0  0  0  0  0999 V2000
   57.8620   32.3760   41.4070 C   0  0  0  0  0  0  0  0  0  0  0  0
   57.3830   31.4380   42.4220 N   0  0  0  0  0  0  0  0  0  0  0  0
   57.8330   31.8460   43.7330 C   0  0  0  0  0  0  0  0  0  0  0  0
   57.6800   33.1820   44.1370 C   0  0  0  0  0  0  0  0  0  0  0  0
   58.0990   33.5980   45.3970 C   0  0  0  0  0  0  0  0  0  0  0  0
   58.6970   32.6900   46.2850 C   0  0  0  0  0  0  0  0  0  0  0  0
   59.1560   33.1220   47.5860 N   0  0  0  0  0  0  0  0  0  0  0  0
   59.9550   34.3450   47.7240 C   0  0  0  0  0  0  0  0  0  0  0  0
   60.8550   34.2370   48.9580 C   0  0  0  0  0  0  0  0  0  0  0  0
   60.0980   33.9100   50.1070 O   0  0  0  0  0  0  0  0  0  0  0  0
   59.5390   32.6160   49.9620 C   0  0  0  0  0  0  0  0  0  0  0  0
   58.5330   32.5840   48.8060 C   0  0  0  0  0  0  0  0  0  0  0  0
   58.8680   31.3560   45.8790 C   0  0  0  0  0  0  0  0  0  0  0  0
   58.4240   30.9240   44.6230 C   0  0  0  0  0  0  0  0  0  0  0  0
   58.5590   29.5380   44.2660 N   0  0  0  0  0  0  0  0  0  0  0  0
   58.5650   28.4710   45.2300 C   0  0  0  0  0  0  0  0  0  0  0  0
   59.6800   28.2370   46.0610 C   0  0  0  0  0  0  0  0  0  0  0  0
   59.6390   27.2330   47.0290 C   0  0  0  0  0  0  0  0  0  0  0  0
   58.4890   26.4560   47.1920 C   0  0  0  0  0  0  0  0  0  0  0  0
   57.3610   26.6840   46.3860 C   0  0  0  0  0  0  0  0  0  0  0  0
   56.1580   25.8380   46.5360 C   0  0  0  0  0  0  0  0  0  0  0  0
   56.2270   24.7760   47.2080 O   0  0  0  0  0  0  0  0  0  0  0  0
   54.9020   26.2130   45.9640 N   0  0  0  0  0  0  0  0  0  0  0  0
   53.8610   25.2500   45.6180 C   0  0  0  0  0  0  0  0  0  0  0  0
   54.4880   23.9880   45.0140 C   0  0  0  0  0  0  0  0  0  0  0  0
   53.5660   22.9070   45.0100 O   0  0  0  0  0  0  0  0  0  0  0  0
   52.6790   23.0050   46.1100 C   0  0  0  0  0  0  0  0  0  0  0  0
   57.4130   27.6820   45.3930 C   0  0  0  0  0  0  0  0  0  0  0  0
   58.3094   33.2521   41.8993 H   0  0  0  0  0  0  0  0  0  0  0  0
   58.6183   31.8822   40.7792 H   0  0  0  0  0  0  0  0  0  0  0  0
   57.0185   32.6991   40.7792 H   0  0  0  0  0  0  0  0  0  0  0  0
   56.3370   31.4130   42.3960 H   0  0  0  0  0  0  0  0  0  0  0  0
   57.7180   30.4740   42.1930 H   0  0  0  0  0  0  0  0  0  0  0  0
   57.2233   33.9087   43.4490 H   0  0  0  0  0  0  0  0  0  0  0  0
   57.9606   34.6465   45.6996 H   0  0  0  0  0  0  0  0  0  0  0  0
   60.5783   34.4777   46.8274 H   0  0  0  0  0  0  0  0  0  0  0  0
   59.2829   35.2083   47.8378 H   0  0  0  0  0  0  0  0  0  0  0  0
   61.6077   33.4532   48.7874 H   0  0  0  0  0  0  0  0  0  0  0  0
   61.3433   35.2087   49.1233 H   0  0  0  0  0  0  0  0  0  0  0  0
   60.3451   31.8957   49.7586 H   0  0  0  0  0  0  0  0  0  0  0  0
   59.0152   32.3519   50.8926 H   0  0  0  0  0  0  0  0  0  0  0  0
   58.2161   31.5460   48.6266 H   0  0  0  0  0  0  0  0  0  0  0  0
   57.6595   33.1989   49.0684 H   0  0  0  0  0  0  0  0  0  0  0  0
   59.3573   30.6411   46.5569 H   0  0  0  0  0  0  0  0  0  0  0  0
   58.6080   29.2960   43.2380 H   0  0  0  0  0  0  0  0  0  0  0  0
   60.5866   28.8491   45.9455 H   0  0  0  0  0  0  0  0  0  0  0  0
   60.5165   27.0521   47.6672 H   0  0  0  0  0  0  0  0  0  0  0  0
   58.4668   25.6630   47.9541 H   0  0  0  0  0  0  0  0  0  0  0  0
   53.3005   24.9791   46.5249 H   0  0  0  0  0  0  0  0  0  0  0  0
   53.1833   25.7033   44.8795 H   0  0  0  0  0  0  0  0  0  0  0  0
   54.7962   24.2004   43.9796 H   0  0  0  0  0  0  0  0  0  0  0  0
   55.3559   23.7030   45.6269 H   0  0  0  0  0  0  0  0  0  0  0  0
   53.2499   22.9419   47.0481 H   0  0  0  0  0  0  0  0  0  0  0  0
   52.1478   23.9673   46.0681 H   0  0  0  0  0  0  0  0  0  0  0  0
   51.9505   22.1819   46.0681 H   0  0  0  0  0  0  0  0  0  0  0  0
   56.5438   27.8454   44.7389 H   0  0  0  0  0  0  0  0  0  0  0  0
  1  2  1  0
  2  3  1  0
  3  4  2  0
  4  5  1  0
  5  6  2  0
  6  7  1  0
  7  8  1  0
  8  9  1  0
  9 10  1  0
 10 11  1  0
 11 12  1  0
  6 13  1  0
 13 14  2  0
 14 15  1  0
 15 16  1  0
 16 17  2  0
 17 18  1  0
 18 19  2  0
 19 20  1  0
 20 21  1  0
 21 22  2  0
 21 23  1  0
 23 24  1  0
 24 25  1  0
 25 26  1  0
 26 27  1  0
 20 28  2  0
 14  3  1  0
 28 16  1  0
 12  7  1  0
  1 29  1  0
  1 30  1  0
  1 31  1  0
  2 32  1  0
  2 33  1  0
  4 34  1  0
  5 35  1  0
  8 36  1  0
  8 37  1  0
  9 38  1  0
  9 39  1  0
 11 40  1  0
 11 41  1  0
 12 42  1  0
 12 43  1  0
 13 44  1  0
 15 45  1  0
 17 46  1  0
 18 47  1  0
 19 48  1  0
 24 49  1  0
 24 50  1  0
 25 51  1  0
 25 52  1  0
 27 53  1  0
 27 54  1  0
 27 55  1  0
 28 56  1  0
M  CHG  2   2   1  23  -1
M  END
>  <UniqueID>  (4) 
3

>  <SMILES>  (4) 
C[NH2+]c1ccc(N2CCOCC2)cc1Nc1cccc(C(=O)[N-]CCOC)c1

>  <Energy>  (4) 
74.81979444305118

>  <Genealogy>  (4) 
C[NH2+]c1ccc(N2CCOCC2)cc1Nc1cccc(C(=O)[N-]CCOC)c1 (protonated)
C[NH2+]c1ccc(N2CCOCC2)cc1Nc1cccc(C(=O)[N-]CCOC)c1 (3D coordinates assigned)
C[NH2+]c1ccc(N2CCOCC2)cc1Nc1cccc(C(=O)[N-]CCOC)c1 (nonaromatic ring conformer: 74.81979444305118 kcal/mol)

>  <smiles>  (4) 
CNc1ccc(N2CCOCC2)cc1Nc1cccc(C(=O)NCCOC)c1

>  <score_type>  (4) 
oracle

>  <origin>  (4) 
adg

>  <m_score__min__energy>  (4) 
-9.0899999999999999

>  <m_primary>  (4) 
energy

$$$$
4:0
     RDKit          3D

 50 52  0  0  0  0  0  0  0  0999 V2000
   62.0120   32.6890   48.9720 C   0  0  0  0  0  0  0  0  0  0  0  0
   60.6430   32.2030   48.5020 C   0  0  0  0  0  0  0  0  0  0  0  0
   60.3790   30.8380   49.0150 N   0  0  0  0  0  0  0  0  0  0  0  0
   58.9610   30.6830   49.4160 C   0  0  0  0  0  0  0  0  0  0  0  0
   58.4200   32.0030   49.9560 C   0  0  0  0  0  0  0  0  0  0  0  0
   60.7650   29.8090   48.0210 C   0  0  0  0  0  0  0  0  0  0  0  0
   61.0900   30.4750   46.6790 C   0  0  0  0  0  0  0  0  0  0  0  0
   60.5450   29.7020   45.5620 N   0  0  0  0  0  0  0  0  0  0  0  0
   59.2570   29.0600   45.6180 C   0  0  0  0  0  0  0  0  0  0  0  0
   58.0740   29.8000   45.4050 C   0  0  0  0  0  0  0  0  0  0  0  0
   58.0890   31.2680   45.2170 C   0  0  0  0  0  0  0  0  0  0  0  0
   58.1050   31.8140   43.9230 C   0  0  0  0  0  0  0  0  0  0  0  0
   58.1400   33.2000   43.7440 C   0  0  0  0  0  0  0  0  0  0  0  0
   58.1490   34.0500   44.8540 C   0  0  0  0  0  0  0  0  0  0  0  0
   58.1220   33.5150   46.1440 C   0  0  0  0  0  0  0  0  0  0  0  0
   58.0900   32.1290   46.3280 C   0  0  0  0  0  0  0  0  0  0  0  0
   56.8440   29.1310   45.4050 C   0  0  0  0  0  0  0  0  0  0  0  0
   56.7710   27.7930   45.6290 N   0  0  0  0  0  0  0  0  0  0  0  0
   55.5280   27.2000   45.6250 O   0  0  0  0  0  0  0  0  0  0  0  0
   57.8950   27.0480   45.8560 C   0  0  0  0  0  0  0  0  0  0  0  0
   57.8030   25.6610   46.0830 C   0  0  0  0  0  0  0  0  0  0  0  0
   58.9540   24.9000   46.2930 C   0  0  0  0  0  0  0  0  0  0  0  0
   60.2090   25.5070   46.2750 C   0  0  0  0  0  0  0  0  0  0  0  0
   60.3220   26.8810   46.0540 C   0  0  0  0  0  0  0  0  0  0  0  0
   59.1710   27.6710   45.8530 C   0  0  0  0  0  0  0  0  0  0  0  0
   62.0399   32.6989   50.0716 H   0  0  0  0  0  0  0  0  0  0  0  0
   62.7917   32.0127   48.5915 H   0  0  0  0  0  0  0  0  0  0  0  0
   62.1907   33.7055   48.5915 H   0  0  0  0  0  0  0  0  0  0  0  0
   59.8670   32.8875   48.8751 H   0  0  0  0  0  0  0  0  0  0  0  0
   60.6286   32.1814   47.4023 H   0  0  0  0  0  0  0  0  0  0  0  0
   58.3674   30.3772   48.5419 H   0  0  0  0  0  0  0  0  0  0  0  0
   58.8917   29.9175   50.2029 H   0  0  0  0  0  0  0  0  0  0  0  0
   58.4292   31.9806   51.0557 H   0  0  0  0  0  0  0  0  0  0  0  0
   59.0514   32.8308   49.6008 H   0  0  0  0  0  0  0  0  0  0  0  0
   57.3893   32.1496   49.6008 H   0  0  0  0  0  0  0  0  0  0  0  0
   61.6509   29.2666   48.3829 H   0  0  0  0  0  0  0  0  0  0  0  0
   59.9293   29.1070   47.8837 H   0  0  0  0  0  0  0  0  0  0  0  0
   60.6538   31.4847   46.6640 H   0  0  0  0  0  0  0  0  0  0  0  0
   62.1834   30.5248   46.5692 H   0  0  0  0  0  0  0  0  0  0  0  0
   61.0480   29.7350   44.6460 H   0  0  0  0  0  0  0  0  0  0  0  0
   58.0899   31.1486   43.0472 H   0  0  0  0  0  0  0  0  0  0  0  0
   58.1605   33.6224   42.7285 H   0  0  0  0  0  0  0  0  0  0  0  0
   58.1773   35.1403   44.7114 H   0  0  0  0  0  0  0  0  0  0  0  0
   58.1259   34.1849   47.0165 H   0  0  0  0  0  0  0  0  0  0  0  0
   58.0655   31.7114   47.3453 H   0  0  0  0  0  0  0  0  0  0  0  0
   55.9202   29.6989   45.2203 H   0  0  0  0  0  0  0  0  0  0  0  0
   56.8168   25.1739   46.0949 H   0  0  0  0  0  0  0  0  0  0  0  0
   58.8707   23.8181   46.4732 H   0  0  0  0  0  0  0  0  0  0  0  0
   61.1132   24.9014   46.4354 H   0  0  0  0  0  0  0  0  0  0  0  0
   61.3164   27.3510   46.0365 H   0  0  0  0  0  0  0  0  0  0  0  0
  1  2  1  0
  2  3  1  0
  3  4  1  0
  4  5  1  0
  3  6  1  0
  6  7  1  0
  7  8  1  0
  8  9  1  0
  9 10  2  0
 10 11  1  0
 11 12  2  0
 12 13  1  0
 13 14  2  0
 14 15  1  0
 15 16  2  0
 10 17  1  0
 17 18  2  0
 18 19  1  0
 18 20  1  0
 20 21  2  0
 21 22  1  0
 22 23  2  0
 23 24  1  0
 24 25  2  0
 25  9  1  0
 16 11  1  0
 25 20  1  0
  1 26  1  0
  1 27  1  0
  1 28  1  0
  2 29  1  0
  2 30  1  0
  4 31  1  0
  4 32  1  0
  5 33  1  0
  5 34  1  0
  5 35  1  0
  6 36  1  0
  6 37  1  0
  7 38  1  0
  7 39  1  0
  8 40  1  0
 12 41  1  0
 13 42  1  0
 14 43  1  0
 15 44  1  0
 16 45  1  0
 17 46  1  0
 21 47  1  0
 22 48  1  0
 23 49  1  0
 24 50  1  0
M  CHG  2  18   1  19  -1
M  END
>  <UniqueID>  (5) 
4

>  <SMILES>  (5) 
CCN(CC)CCNc1c(-c2ccccc2)c[n+]([O-])c2ccccc12

>  <Energy>  (5) 
63.8040479927756

>  <Genealogy>  (5) 
CCN(CC)CCNc1c(-c2ccccc2)c[n+]([O-])c2ccccc12 (3D coordinates assigned)
CCN(CC)CCNc1c(-c2ccccc2)c[n+]([O-])c2ccccc12 (optimized conformer: 63.8040479927756 kcal/mol)

>  <smiles>  (5) 
CCN(CC)CCNc1c(-c2ccccc2)c[n+]([O-])c2ccccc12

>  <score_type>  (5) 
oracle

>  <origin>  (5) 
adg

>  <m_score__min__energy>  (5) 
-8.1300000000000008

>  <m_primary>  (5) 
energy

$$$$
5:0
     RDKit          3D

 55 58  0  0  0  0  0  0  0  0999 V2000
   56.4090   29.4800   43.0020 C   0  0  0  0  0  0  0  0  0  0  0  0
   56.2250   29.5520   44.4080 O   0  0  0  0  0  0  0  0  0  0  0  0
   57.3040   29.7470   45.2720 C   0  0  0  0  0  0  0  0  0  0  0  0
   57.7640   28.6890   46.0680 C   0  0  0  0  0  0  0  0  0  0  0  0
   57.0020   27.1070   45.9790 Cl  0  0  0  0  0  0  0  0  0  0  0  0
   58.8350   28.8870   46.9460 C   0  0  0  0  0  0  0  0  0  0  0  0
   59.4620   30.1420   47.0420 C   0  0  0  0  0  0  0  0  0  0  0  0
   60.5870   30.3710   47.9830 C   0  0  0  0  0  0  0  0  0  0  0  0
   61.6660   31.0830   47.5690 N   0  0  0  0  0  0  0  0  0  0  0  0
   62.7230   31.3310   48.3800 C   0  0  0  0  0  0  0  0  0  0  0  0
   63.7930   32.0620   47.8450 O   0  0  0  0  0  0  0  0  0  0  0  0
   63.7720   33.4760   47.6550 C   0  0  0  0  0  0  0  0  0  0  0  0
   62.6940   33.8310   46.6160 C   0  0  0  0  0  0  0  0  0  0  0  0
   61.3080   33.8090   47.1400 N   0  0  0  0  0  0  0  0  0  0  0  0
   61.2210   34.1300   48.5800 C   0  0  0  0  0  0  0  0  0  0  0  0
   59.7610   34.3740   49.0030 C   0  0  0  0  0  0  0  0  0  0  0  0
   58.8780   33.7140   48.1190 O   0  0  0  0  0  0  0  0  0  0  0  0
   58.9130   34.3280   46.8410 C   0  0  0  0  0  0  0  0  0  0  0  0
   60.3500   34.5930   46.3410 C   0  0  0  0  0  0  0  0  0  0  0  0
   62.6930   30.8760   49.7170 C   0  0  0  0  0  0  0  0  0  0  0  0
   61.5740   30.1150   50.1300 C   0  0  0  0  0  0  0  0  0  0  0  0
   60.5480   29.8980   49.2610 N   0  0  0  0  0  0  0  0  0  0  0  0
   61.4240   29.6230   51.5520 C   0  0  0  0  0  0  0  0  0  0  0  0
   62.7300   29.6650   52.3470 C   0  0  0  0  0  0  0  0  0  0  0  0
   63.4300   31.0050   52.1420 C   0  0  0  0  0  0  0  0  0  0  0  0
   63.8280   31.1720   50.6730 C   0  0  0  0  0  0  0  0  0  0  0  0
   59.0140   31.1880   46.2170 C   0  0  0  0  0  0  0  0  0  0  0  0
   57.9420   30.9960   45.3400 C   0  0  0  0  0  0  0  0  0  0  0  0
   57.4020   32.3350   44.3390 Cl  0  0  0  0  0  0  0  0  0  0  0  0
   57.4129   29.0872   42.7832 H   0  0  0  0  0  0  0  0  0  0  0  0
   55.6510   28.8121   42.5667 H   0  0  0  0  0  0  0  0  0  0  0  0
   56.3056   30.4849   42.5667 H   0  0  0  0  0  0  0  0  0  0  0  0
   59.1904   28.0521   47.5678 H   0  0  0  0  0  0  0  0  0  0  0  0
   63.5408   33.9720   48.6092 H   0  0  0  0  0  0  0  0  0  0  0  0
   64.7555   33.8155   47.2979 H   0  0  0  0  0  0  0  0  0  0  0  0
   62.9021   34.8421   46.2360 H   0  0  0  0  0  0  0  0  0  0  0  0
   62.7461   33.0597   45.8335 H   0  0  0  0  0  0  0  0  0  0  0  0
   61.6284   33.2896   49.1612 H   0  0  0  0  0  0  0  0  0  0  0  0
   61.7992   35.0462   48.7706 H   0  0  0  0  0  0  0  0  0  0  0  0
   59.6092   33.9891   50.0222 H   0  0  0  0  0  0  0  0  0  0  0  0
   59.5556   35.4543   48.9740 H   0  0  0  0  0  0  0  0  0  0  0  0
   58.4067   33.6685   46.1207 H   0  0  0  0  0  0  0  0  0  0  0  0
   58.4090   35.3018   46.9286 H   0  0  0  0  0  0  0  0  0  0  0  0
   60.4291   34.2990   45.2840 H   0  0  0  0  0  0  0  0  0  0  0  0
   60.5797   35.6636   46.4456 H   0  0  0  0  0  0  0  0  0  0  0  0
   59.7020   29.3940   49.6070 H   0  0  0  0  0  0  0  0  0  0  0  0
   60.6831   30.2547   52.0638 H   0  0  0  0  0  0  0  0  0  0  0  0
   61.1068   28.5709   51.5013 H   0  0  0  0  0  0  0  0  0  0  0  0
   62.5088   29.5306   53.4161 H   0  0  0  0  0  0  0  0  0  0  0  0
   63.3899   28.8583   51.9952 H   0  0  0  0  0  0  0  0  0  0  0  0
   62.7482   31.8192   52.4289 H   0  0  0  0  0  0  0  0  0  0  0  0
   64.3353   31.0372   52.7660 H   0  0  0  0  0  0  0  0  0  0  0  0
   64.1584   32.2092   50.5148 H   0  0  0  0  0  0  0  0  0  0  0  0
   64.6311   30.4497   50.4649 H   0  0  0  0  0  0  0  0  0  0  0  0
   59.5119   32.1679   46.2617 H   0  0  0  0  0  0  0  0  0  0  0  0
  1  2  1  0
  2  3  1  0
  3  4  2  0
  4  5  1  0
  4  6  1  0
  6  7  2  0
  7  8  1  0
  8  9  2  0
  9 10  1  0
 10 11  1  0
 11 12  1  0
 12 13  1  0
 13 14  1  0
 14 15  1  0
 15 16  1  0
 16 17  1  0
 17 18  1  0
 18 19  1  0
 10 20  2  0
 20 21  1  0
 21 22  2  0
 21 23  1  0
 23 24  1  0
 24 25  1  0
 25 26  1  0
  7 27  1  0
 27 28  2  0
 28 29  1  0
 28  3  1  0
 22  8  1  0
 19 14  1  0
 26 20  1  0
  1 30  1  0
  1 31  1  0
  1 32  1  0
  6 33  1  0
 12 34  1  0
 12 35  1  0
 13 36  1  0
 13 37  1  0
 15 38  1  0
 15 39  1  0
 16 40  1  0
 16 41  1  0
 18 42  1  0
 18 43  1  0
 19 44  1  0
 19 45  1  0
 22 46  1  0
 23 47  1  0
 23 48  1  0
 24 49  1  0
 24 50  1  0
 25 51  1  0
 25 52  1  0
 26 53  1  0
 26 54  1  0
 27 55  1  0
M  CHG  1  22   1
M  END
>  <UniqueID>  (6) 
5

>  <SMILES>  (6) 
COc1c(Cl)cc(-c2nc(OCCN3CCOCC3)c3c([nH+]2)CCCC3)cc1Cl

>  <Energy>  (6) 
85.44015355305224

>  <Genealogy>  (6) 
COc1c(Cl)cc(-c2nc(OCCN3CCOCC3)c3c([nH+]2)CCCC3)cc1Cl (protonated)
COc1c(Cl)cc(-c2nc(OCCN3CCOCC3)c3c([nH+]2)CCCC3)cc1Cl (3D coordinates assigned)
COc1c(Cl)cc(-c2nc(OCCN3CCOCC3)c3c([nH+]2)CCCC3)cc1Cl (nonaromatic ring conformer: 85.44015355305224 kcal/mol)

>  <smiles>  (6) 
COc1c(Cl)cc(-c2nc3c(c(OCCN4CCOCC4)n2)CCCC3)cc1Cl

>  <score_type>  (6) 
oracle

>  <origin>  (6) 
adg

>  <m_score__min__energy>  (6) 
-7.5099999999999998

>  <m_primary>  (6) 
energy

$$$$
6:0
     RDKit          3D

 43 45  0  0  0  0  0  0  0  0999 V2000
   56.6140   30.2710   44.8050 O   0  0  0  0  0  0  0  0  0  0  0  0
   57.7750   30.5610   45.2050 C   0  0  0  0  0  0  0  0  0  0  0  0
   58.7250   29.5170   45.4750 N   0  0  0  0  0  0  0  0  0  0  0  0
   58.3720   28.1300   45.6250 C   0  0  0  0  0  0  0  0  0  0  0  0
   59.3540   27.1470   45.4390 C   0  0  0  0  0  0  0  0  0  0  0  0
   59.0440   25.7940   45.6020 C   0  0  0  0  0  0  0  0  0  0  0  0
   57.7480   25.4020   45.9770 C   0  0  0  0  0  0  0  0  0  0  0  0
   57.4160   23.9360   46.1650 C   0  0  0  0  0  0  0  0  0  0  0  0
   56.0560   23.5680   45.7050 N   0  0  0  0  0  0  0  0  0  0  0  0
   55.7290   24.1690   44.3960 C   0  0  0  0  0  0  0  0  0  0  0  0
   56.7320   23.7540   43.3110 C   0  0  0  0  0  0  0  0  0  0  0  0
   56.2840   22.4690   42.5840 C   0  0  0  0  0  0  0  0  0  0  0  0
   56.1690   21.3060   43.3920 O   0  0  0  0  0  0  0  0  0  0  0  0
   56.7100   21.4090   44.6990 C   0  0  0  0  0  0  0  0  0  0  0  0
   55.8170   22.1110   45.7390 C   0  0  0  0  0  0  0  0  0  0  0  0
   56.7670   26.3880   46.1760 C   0  0  0  0  0  0  0  0  0  0  0  0
   57.0780   27.7400   46.0110 C   0  0  0  0  0  0  0  0  0  0  0  0
   58.1630   31.9810   45.3580 C   0  0  0  0  0  0  0  0  0  0  0  0
   57.3580   33.0170   44.8560 C   0  0  0  0  0  0  0  0  0  0  0  0
   57.7470   34.3080   45.0210 N   0  0  0  0  0  0  0  0  0  0  0  0
   58.9020   34.6200   45.6650 C   0  0  0  0  0  0  0  0  0  0  0  0
   59.7050   33.5960   46.1670 C   0  0  0  0  0  0  0  0  0  0  0  0
   59.3180   32.3040   46.0020 N   0  0  0  0  0  0  0  0  0  0  0  0
   59.7410   29.7610   45.4720 H   0  0  0  0  0  0  0  0  0  0  0  0
   60.3767   27.4429   45.1625 H   0  0  0  0  0  0  0  0  0  0  0  0
   59.8192   25.0315   45.4357 H   0  0  0  0  0  0  0  0  0  0  0  0
   58.1469   23.3394   45.5995 H   0  0  0  0  0  0  0  0  0  0  0  0
   57.4547   23.7343   47.2457 H   0  0  0  0  0  0  0  0  0  0  0  0
   54.7231   23.8410   44.0951 H   0  0  0  0  0  0  0  0  0  0  0  0
   55.7733   25.2630   44.5018 H   0  0  0  0  0  0  0  0  0  0  0  0
   56.8197   24.5677   42.5760 H   0  0  0  0  0  0  0  0  0  0  0  0
   57.6996   23.5555   43.7951 H   0  0  0  0  0  0  0  0  0  0  0  0
   55.3004   22.6634   42.1315 H   0  0  0  0  0  0  0  0  0  0  0  0
   57.0778   22.2475   41.8554 H   0  0  0  0  0  0  0  0  0  0  0  0
   56.9140   20.3906   45.0614 H   0  0  0  0  0  0  0  0  0  0  0  0
   57.6080   22.0370   44.6027 H   0  0  0  0  0  0  0  0  0  0  0  0
   54.7606   21.9092   45.5083 H   0  0  0  0  0  0  0  0  0  0  0  0
   56.0584   21.7277   46.7414 H   0  0  0  0  0  0  0  0  0  0  0  0
   55.7470   26.0934   46.4637 H   0  0  0  0  0  0  0  0  0  0  0  0
   56.3056   28.5038   46.1842 H   0  0  0  0  0  0  0  0  0  0  0  0
   56.4188   32.7843   44.3327 H   0  0  0  0  0  0  0  0  0  0  0  0
   59.2012   35.6712   45.7894 H   0  0  0  0  0  0  0  0  0  0  0  0
   60.6426   33.8321   46.6915 H   0  0  0  0  0  0  0  0  0  0  0  0
  1  2  2  0
  2  3  1  0
  3  4  1  0
  4  5  2  0
  5  6  1  0
  6  7  2  0
  7  8  1  0
  8  9  1  0
  9 10  1  0
 10 11  1  0
 11 12  1  0
 12 13  1  0
 13 14  1  0
 14 15  1  0
  7 16  1  0
 16 17  2  0
  2 18  1  0
 18 19  2  0
 19 20  1  0
 20 21  2  0
 21 22  1  0
 22 23  2  0
 17  4  1  0
 23 18  1  0
 15  9  1  0
  3 24  1  0
  5 25  1  0
  6 26  1  0
  8 27  1  0
  8 28  1  0
 10 29  1  0
 10 30  1  0
 11 31  1  0
 11 32  1  0
 12 33  1  0
 12 34  1  0
 14 35  1  0
 14 36  1  0
 15 37  1  0
 15 38  1  0
 16 39  1  0
 17 40  1  0
 19 41  1  0
 21 42  1  0
 22 43  1  0
M  END
>  <UniqueID>  (7) 
6

>  <SMILES>  (7) 
O=C(Nc1ccc(CN2CCCOCC2)cc1)c1cnccn1

>  <Energy>  (7) 
66.36454914750324

>  <Genealogy>  (7) 
O=C(Nc1ccc(CN2CCCOCC2)cc1)c1cnccn1 (3D coordinates assigned)
O=C(Nc1ccc(CN2CCCOCC2)cc1)c1cnccn1 (nonaromatic ring conformer: 66.36454914750324 kcal/mol)

>  <smiles>  (7) 
O=C(Nc1ccc(CN2CCCOCC2)cc1)c1cnccn1

>  <score_type>  (7) 
oracle

>  <origin>  (7) 
adg

>  <m_score__min__energy>  (7) 
-5.46

>  <m_primary>  (7) 
energy

$$$$
7:0
     RDKit          3D

 87 92  0  0  0  0  0  0  0  0999 V2000
   64.2950   33.4540   50.0350 C   0  0  0  0  0  0  0  0  0  0  0  0
   63.1040   33.1780   49.2150 N   0  0  0  0  0  0  0  0  0  0  0  0
   62.1100   34.2480   49.3910 C   0  0  0  0  0  0  0  0  0  0  0  0
   63.4590   32.9990   47.7870 C   0  0  0  0  0  0  0  0  0  0  0  0
   63.0800   31.5820   47.3500 C   0  0  0  0  0  0  0  0  0  0  0  0
   61.7880   31.1800   47.9240 N   0  0  0  0  0  0  0  0  0  0  0  0
   60.8120   31.0110   46.8710 C   0  0  0  0  0  0  0  0  0  0  0  0
   60.8260   29.8240   46.0910 C   0  0  0  0  0  0  0  0  0  0  0  0
   59.8670   29.5980   45.0850 C   0  0  0  0  0  0  0  0  0  0  0  0
   58.8700   30.5550   44.8760 C   0  0  0  0  0  0  0  0  0  0  0  0
   58.8780   31.7040   45.6100 C   0  0  0  0  0  0  0  0  0  0  0  0
   57.8780   32.5510   45.2480 C   0  0  0  0  0  0  0  0  0  0  0  0
   57.7200   33.7740   45.9030 C   0  0  0  0  0  0  0  0  0  0  0  0
   58.6110   34.0970   46.9460 C   0  0  0  0  0  0  0  0  0  0  0  0
   59.6490   33.2090   47.3070 C   0  0  0  0  0  0  0  0  0  0  0  0
   59.8020   31.9820   46.6190 C   0  0  0  0  0  0  0  0  0  0  0  0
   57.0780   31.9740   44.1260 C   0  0  0  0  0  0  0  0  0  0  0  0
   57.7010   30.5500   43.9180 C   0  0  2  0  0  0  0  0  0  0  0  0
   56.6770   29.4380   44.2640 C   0  0  0  0  0  0  0  0  0  0  0  0
   56.9810   28.7400   45.5940 C   0  0  0  0  0  0  0  0  0  0  0  0
   57.2630   27.3180   45.3360 N   0  0  0  0  0  0  0  0  0  0  0  0
   56.6720   26.4210   46.3360 C   0  0  0  0  0  0  0  0  0  0  0  0
   57.6770   25.3410   46.7600 C   0  0  0  0  0  0  0  0  0  0  0  0
   58.9330   25.9800   47.3880 C   0  0  0  0  0  0  0  0  0  0  0  0
   58.7300   27.3890   47.7620 N   0  0  0  0  0  0  0  0  0  0  0  0
   59.8090   27.9370   48.6020 C   0  0  0  0  0  0  0  0  0  0  0  0
   59.3840   29.2620   49.2480 C   0  0  0  0  0  0  0  0  0  0  0  0
   59.5630   29.2510   50.7720 C   0  0  0  0  0  0  0  0  0  0  0  0
   60.9510   28.9180   51.1260 N   0  0  0  0  0  0  0  0  0  0  0  0
   61.9940   29.9070   51.0320 C   0  0  0  0  0  0  0  0  0  0  0  0
   61.7450   31.0450   50.5480 O   0  0  0  0  0  0  0  0  0  0  0  0
   63.3620   29.5850   51.5050 C   0  0  0  0  0  0  0  0  0  0  0  0
   64.3700   30.5670   51.4980 C   0  0  0  0  0  0  0  0  0  0  0  0
   65.6540   30.2660   51.9570 C   0  0  0  0  0  0  0  0  0  0  0  0
   65.9550   28.9870   52.4260 C   0  0  0  0  0  0  0  0  0  0  0  0
   64.9670   27.9900   52.4400 C   0  0  0  0  0  0  0  0  0  0  0  0
   65.2690   26.7020   52.9050 C   0  0  0  0  0  0  0  0  0  0  0  0
   64.2880   25.7120   52.9130 C   0  0  0  0  0  0  0  0  0  0  0  0
   62.9960   25.9940   52.4660 C   0  0  0  0  0  0  0  0  0  0  0  0
   62.6680   27.2780   52.0000 C   0  0  0  0  0  0  0  0  0  0  0  0
   63.6580   28.2870   51.9790 C   0  0  0  0  0  0  0  0  0  0  0  0
   61.2930   27.5820   51.5440 C   0  0  0  0  0  0  0  0  0  0  0  0
   60.4200   26.6720   51.5250 O   0  0  0  0  0  0  0  0  0  0  0  0
   64.0289   33.3923   51.1005 H   0  0  0  0  0  0  0  0  0  0  0  0
   65.0758   32.7130   49.8086 H   0  0  0  0  0  0  0  0  0  0  0  0
   64.6703   34.4629   49.8086 H   0  0  0  0  0  0  0  0  0  0  0  0
   61.9467   34.4238   50.4645 H   0  0  0  0  0  0  0  0  0  0  0  0
   62.4780   35.1714   48.9200 H   0  0  0  0  0  0  0  0  0  0  0  0
   61.1620   33.9489   48.9200 H   0  0  0  0  0  0  0  0  0  0  0  0
   62.9107   33.7317   47.1766 H   0  0  0  0  0  0  0  0  0  0  0  0
   64.5400   33.1515   47.6522 H   0  0  0  0  0  0  0  0  0  0  0  0
   63.0111   31.5506   46.2526 H   0  0  0  0  0  0  0  0  0  0  0  0
   63.8535   30.8868   47.7084 H   0  0  0  0  0  0  0  0  0  0  0  0
   61.4660   31.9170   48.5930 H   0  0  0  0  0  0  0  0  0  0  0  0
   61.8840   30.2980   48.4740 H   0  0  0  0  0  0  0  0  0  0  0  0
   61.6015   29.0662   46.2765 H   0  0  0  0  0  0  0  0  0  0  0  0
   59.9019   28.6839   44.4741 H   0  0  0  0  0  0  0  0  0  0  0  0
   56.9188   34.4691   45.6117 H   0  0  0  0  0  0  0  0  0  0  0  0
   58.4973   35.0496   47.4842 H   0  0  0  0  0  0  0  0  0  0  0  0
   60.3383   33.4715   48.1230 H   0  0  0  0  0  0  0  0  0  0  0  0
   56.0150   31.9008   44.3994 H   0  0  0  0  0  0  0  0  0  0  0  0
   57.1132   32.5914   43.2163 H   0  0  0  0  0  0  0  0  0  0  0  0
   57.9993   30.3460   42.8791 H   0  0  0  0  0  0  0  0  0  0  0  0
   55.6759   29.8896   44.3255 H   0  0  0  0  0  0  0  0  0  0  0  0
   56.7352   28.6775   43.4713 H   0  0  0  0  0  0  0  0  0  0  0  0
   57.8568   29.2100   46.0654 H   0  0  0  0  0  0  0  0  0  0  0  0
   56.1161   28.8310   46.2675 H   0  0  0  0  0  0  0  0  0  0  0  0
   56.8620   27.0660   44.4020 H   0  0  0  0  0  0  0  0  0  0  0  0
   56.3793   27.0080   47.2190 H   0  0  0  0  0  0  0  0  0  0  0  0
   55.7923   25.9304   45.8940 H   0  0  0  0  0  0  0  0  0  0  0  0
   57.2030   24.6765   47.4974 H   0  0  0  0  0  0  0  0  0  0  0  0
   57.9788   24.7701   45.8695 H   0  0  0  0  0  0  0  0  0  0  0  0
   59.2022   25.4121   48.2908 H   0  0  0  0  0  0  0  0  0  0  0  0
   59.7325   25.9497   46.6331 H   0  0  0  0  0  0  0  0  0  0  0  0
   58.6280   27.9650   46.8950 H   0  0  0  0  0  0  0  0  0  0  0  0
   60.0519   27.2126   49.3934 H   0  0  0  0  0  0  0  0  0  0  0  0
   60.6875   28.1229   47.9667 H   0  0  0  0  0  0  0  0  0  0  0  0
   59.9952   30.0733   48.8259 H   0  0  0  0  0  0  0  0  0  0  0  0
   58.3151   29.4120   49.0359 H   0  0  0  0  0  0  0  0  0  0  0  0
   59.3160   30.2453   51.1725 H   0  0  0  0  0  0  0  0  0  0  0  0
   58.8943   28.4913   51.2029 H   0  0  0  0  0  0  0  0  0  0  0  0
   64.1450   31.5784   51.1285 H   0  0  0  0  0  0  0  0  0  0  0  0
   66.4332   31.0424   51.9487 H   0  0  0  0  0  0  0  0  0  0  0  0
   66.9693   28.7593   52.7858 H   0  0  0  0  0  0  0  0  0  0  0  0
   66.2829   26.4724   53.2644 H   0  0  0  0  0  0  0  0  0  0  0  0
   64.5334   24.7022   53.2738 H   0  0  0  0  0  0  0  0  0  0  0  0
   62.2294   25.2053   52.4787 H   0  0  0  0  0  0  0  0  0  0  0  0
  1  2  1  0
  2  3  1  0
  2  4  1  0
  4  5  1  0
  5  6  1  0
  6  7  1  0
  7  8  2  0
  8  9  1  0
  9 10  2  0
 10 11  1  0
 11 12  2  0
 12 13  1  0
 13 14  2  0
 14 15  1  0
 15 16  2  0
 12 17  1  0
 17 18  1  0
 18 19  1  0
 19 20  1  0
 20 21  1  0
 21 22  1  0
 22 23  1  0
 23 24  1  0
 24 25  1  0
 25 26  1  0
 26 27  1  0
 27 28  1  0
 28 29  1  0
 29 30  1  0
 30 31  2  0
 30 32  1  0
 32 33  2  0
 33 34  1  0
 34 35  2  0
 35 36  1  0
 36 37  2  0
 37 38  1  0
 38 39  2  0
 39 40  1  0
 40 41  2  0
 40 42  1  0
 42 43  2  0
 16  7  1  0
 42 29  1  0
 18 10  1  0
 41 32  1  0
 16 11  1  0
 41 36  1  0
  1 44  1  0
  1 45  1  0
  1 46  1  0
  3 47  1  0
  3 48  1  0
  3 49  1  0
  4 50  1  0
  4 51  1  0
  5 52  1  0
  5 53  1  0
  6 54  1  0
  6 55  1  0
  8 56  1  0
  9 57  1  0
 13 58  1  0
 14 59  1  0
 15 60  1  0
 17 61  1  0
 17 62  1  0
 18 63  1  6
 19 64  1  0
 19 65  1  0
 20 66  1  0
 20 67  1  0
 21 68  1  0
 22 69  1  0
 22 70  1  0
 23 71  1  0
 23 72  1  0
 24 73  1  0
 24 74  1  0
 25 75  1  0
 26 76  1  0
 26 77  1  0
 27 78  1  0
 27 79  1  0
 28 80  1  0
 28 81  1  0
 33 82  1  0
 34 83  1  0
 35 84  1  0
 37 85  1  0
 38 86  1  0
 39 87  1  0
M  CHG  1   6   1
M  END
>  <UniqueID>  (8) 
7

>  <SMILES>  (8) 
CN(C)CC[NH2+]c1ccc2c3c(cccc13)C[C@@H]2CCNCCCNCCCN1C(=O)c2cccc3cccc(c23)C1=O

>  <Energy>  (8) 
118.72023779586115

>  <Genealogy>  (8) 
CN(C)CC[NH2+]c1ccc2c3c(cccc13)CC2CCNCCCNCCCN1C(=O)c2cccc3cccc(c23)C1=O (protonated)
CN(C)CC[NH2+]c1ccc2c3c(cccc13)C[C@@H]2CCNCCCNCCCN1C(=O)c2cccc3cccc(c23)C1=O (chirality)
CN(C)CC[NH2+]c1ccc2c3c(cccc13)C[C@@H]2CCNCCCNCCCN1C(=O)c2cccc3cccc(c23)C1=O (3D coordinates assigned)
CN(C)CC[NH2+]c1ccc2c3c(cccc13)C[C@@H]2CCNCCCNCCCN1C(=O)c2cccc3cccc(c23)C1=O (nonaromatic ring conformer: 118.72023779586115 kcal/mol)

>  <smiles>  (8) 
CN(C)CCNc1ccc2c3c(cccc13)CC2CCNCCCNCCCN1C(=O)c2cccc3cccc(c23)C1=O

>  <score_type>  (8) 
oracle

>  <origin>  (8) 
adg

>  <m_score__min__energy>  (8) 
-7.71

>  <m_primary>  (8) 
energy

$$$$
8:0
     RDKit          3D

 88 90  0  0  0  0  0  0  0  0999 V2000
   60.7420   28.9680   45.1240 C   0  0  0  0  0  0  0  0  0  0  0  0
   60.1110   29.4540   46.2000 C   0  0  0  0  0  0  0  0  0  0  0  0
   59.6310   28.5760   47.3380 C   0  0  2  0  0  0  0  0  0  0  0  0
   60.7850   28.1760   48.2990 C   0  0  0  0  0  0  0  0  0  0  0  0
   60.3010   27.5560   49.6230 C   0  0  0  0  0  0  0  0  0  0  0  0
   61.3720   27.6060   50.7310 C   0  0  0  0  0  0  0  0  0  0  0  0
   61.4690   28.9420   51.3470 N   0  0  0  0  0  0  0  0  0  0  0  0
   60.3930   29.8040   50.9010 C   0  0  0  0  0  0  0  0  0  0  0  0
   59.1080   29.6660   51.4520 C   0  0  0  0  0  0  0  0  0  0  0  0
   58.0650   30.5330   51.0820 C   0  0  0  0  0  0  0  0  0  0  0  0
   56.7770   30.4330   51.6310 O   0  0  0  0  0  0  0  0  0  0  0  0
   56.1330   31.4700   52.3640 C   0  0  0  0  0  0  0  0  0  0  0  0
   58.3060   31.5350   50.1400 C   0  0  0  0  0  0  0  0  0  0  0  0
   59.5750   31.6840   49.5590 C   0  0  0  0  0  0  0  0  0  0  0  0
   59.8300   32.6870   48.6020 C   0  0  0  0  0  0  0  0  0  0  0  0
   58.8120   33.5600   48.2080 O   0  0  0  0  0  0  0  0  0  0  0  0
   57.7140   33.1090   47.4240 C   0  0  0  0  0  0  0  0  0  0  0  0
   58.1690   32.0400   46.4350 C   0  0  0  0  0  0  0  0  0  0  0  0
   57.6000   32.3060   45.0910 N   0  0  0  0  0  0  0  0  0  0  0  0
   58.4550   31.7420   44.0220 C   0  0  0  0  0  0  0  0  0  0  0  0
   58.0100   32.2520   42.6520 C   0  0  0  0  0  0  0  0  0  0  0  0
   57.3730   33.7550   44.8820 C   0  0  0  0  0  0  0  0  0  0  0  0
   58.7050   34.5020   44.8700 C   0  0  0  0  0  0  0  0  0  0  0  0
   61.1140   32.8010   48.0360 C   0  0  0  0  0  0  0  0  0  0  0  0
   61.4120   33.7720   47.0620 C   0  0  0  0  0  0  0  0  0  0  0  0
   62.7020   33.8600   46.5300 C   0  0  0  0  0  0  0  0  0  0  0  0
   63.7030   32.9830   46.9590 C   0  0  0  0  0  0  0  0  0  0  0  0
   63.4180   32.0100   47.9200 C   0  0  0  0  0  0  0  0  0  0  0  0
   62.1280   31.9120   48.4580 C   0  0  0  0  0  0  0  0  0  0  0  0
   61.8570   30.9610   49.3860 N   0  0  0  0  0  0  0  0  0  0  0  0
   60.6240   30.8160   49.9430 C   0  0  0  0  0  0  0  0  0  0  0  0
   58.9050   27.3310   46.7940 C   0  0  0  0  0  0  0  0  0  0  0  0
   57.6630   27.7220   46.1110 N   0  0  0  0  0  0  0  0  0  0  0  0
   57.3550   26.8210   44.9910 C   0  0  0  0  0  0  0  0  0  0  0  0
   57.9400   27.3490   43.6710 C   0  0  0  0  0  0  0  0  0  0  0  0
   57.8510   28.8150   43.5710 N   0  0  0  0  0  0  0  0  0  0  0  0
   56.6260   29.3020   42.9090 C   0  0  0  0  0  0  0  0  0  0  0  0
   55.5690   29.8680   43.8750 C   0  0  0  0  0  0  0  0  0  0  0  0
   56.0800   29.9230   45.2420 N   0  0  0  0  0  0  0  0  0  0  0  0
   61.0704   29.6488   44.3248 H   0  0  0  0  0  0  0  0  0  0  0  0
   60.9320   27.8879   45.0390 H   0  0  0  0  0  0  0  0  0  0  0  0
   59.9332   30.5378   46.2607 H   0  0  0  0  0  0  0  0  0  0  0  0
   58.9159   29.1673   47.9288 H   0  0  0  0  0  0  0  0  0  0  0  0
   61.4258   27.4435   47.7863 H   0  0  0  0  0  0  0  0  0  0  0  0
   61.3250   29.0995   48.5549 H   0  0  0  0  0  0  0  0  0  0  0  0
   59.4137   28.1081   49.9663 H   0  0  0  0  0  0  0  0  0  0  0  0
   60.0725   26.4975   49.4298 H   0  0  0  0  0  0  0  0  0  0  0  0
   61.1114   26.8741   51.5098 H   0  0  0  0  0  0  0  0  0  0  0  0
   62.3446   27.3719   50.2736 H   0  0  0  0  0  0  0  0  0  0  0  0
   62.4010   29.3690   51.1320 H   0  0  0  0  0  0  0  0  0  0  0  0
   61.4190   28.8390   52.3880 H   0  0  0  0  0  0  0  0  0  0  0  0
   58.9151   28.8677   52.1838 H   0  0  0  0  0  0  0  0  0  0  0  0
   56.2488   31.2835   53.4419 H   0  0  0  0  0  0  0  0  0  0  0  0
   56.5893   32.4376   52.1082 H   0  0  0  0  0  0  0  0  0  0  0  0
   55.0633   31.4900   52.1082 H   0  0  0  0  0  0  0  0  0  0  0  0
   57.4919   32.2155   49.8498 H   0  0  0  0  0  0  0  0  0  0  0  0
   56.9452   32.6855   48.0870 H   0  0  0  0  0  0  0  0  0  0  0  0
   57.3025   33.9612   46.8634 H   0  0  0  0  0  0  0  0  0  0  0  0
   59.2672   32.0478   46.3721 H   0  0  0  0  0  0  0  0  0  0  0  0
   57.8183   31.0575   46.7838 H   0  0  0  0  0  0  0  0  0  0  0  0
   59.4986   32.0419   44.1978 H   0  0  0  0  0  0  0  0  0  0  0  0
   58.3662   30.6457   44.0383 H   0  0  0  0  0  0  0  0  0  0  0  0
   57.2919   33.0750   42.7826 H   0  0  0  0  0  0  0  0  0  0  0  0
   58.8856   32.6146   42.0936 H   0  0  0  0  0  0  0  0  0  0  0  0
   57.5321   31.4336   42.0936 H   0  0  0  0  0  0  0  0  0  0  0  0
   56.8623   33.9076   43.9197 H   0  0  0  0  0  0  0  0  0  0  0  0
   56.7518   34.1427   45.7029 H   0  0  0  0  0  0  0  0  0  0  0  0
   59.0319   34.6853   45.9042 H   0  0  0  0  0  0  0  0  0  0  0  0
   59.4606   33.8960   44.3486 H   0  0  0  0  0  0  0  0  0  0  0  0
   58.5819   35.4627   44.3486 H   0  0  0  0  0  0  0  0  0  0  0  0
   60.6283   34.4633   46.7185 H   0  0  0  0  0  0  0  0  0  0  0  0
   62.9304   34.6224   45.7707 H   0  0  0  0  0  0  0  0  0  0  0  0
   64.7168   33.0594   46.5390 H   0  0  0  0  0  0  0  0  0  0  0  0
   64.2069   31.3203   48.2546 H   0  0  0  0  0  0  0  0  0  0  0  0
   59.5620   26.8100   46.0821 H   0  0  0  0  0  0  0  0  0  0  0  0
   58.6570   26.6659   47.6343 H   0  0  0  0  0  0  0  0  0  0  0  0
   57.8080   28.6810   45.7160 H   0  0  0  0  0  0  0  0  0  0  0  0
   57.7825   25.8295   45.2010 H   0  0  0  0  0  0  0  0  0  0  0  0
   56.2618   26.7596   44.8858 H   0  0  0  0  0  0  0  0  0  0  0  0
   58.9976   27.0531   43.6087 H   0  0  0  0  0  0  0  0  0  0  0  0
   57.3547   26.9178   42.8455 H   0  0  0  0  0  0  0  0  0  0  0  0
   57.9280   29.2280   44.5290 H   0  0  0  0  0  0  0  0  0  0  0  0
   56.9082   30.0965   42.2025 H   0  0  0  0  0  0  0  0  0  0  0  0
   56.1681   28.4335   42.4130 H   0  0  0  0  0  0  0  0  0  0  0  0
   55.2954   30.8836   43.5529 H   0  0  0  0  0  0  0  0  0  0  0  0
   54.6905   29.2063   43.8574 H   0  0  0  0  0  0  0  0  0  0  0  0
   55.9840   28.9690   45.6590 H   0  0  0  0  0  0  0  0  0  0  0  0
   57.1050   30.1210   45.2030 H   0  0  0  0  0  0  0  0  0  0  0  0
  1  2  2  0
  2  3  1  0
  3  4  1  0
  4  5  1  0
  5  6  1  0
  6  7  1  0
  7  8  1  0
  8  9  2  0
  9 10  1  0
 10 11  1  0
 11 12  1  0
 10 13  2  0
 13 14  1  0
 14 15  2  0
 15 16  1  0
 16 17  1  0
 17 18  1  0
 18 19  1  0
 19 20  1  0
 20 21  1  0
 19 22  1  0
 22 23  1  0
 15 24  1  0
 24 25  2  0
 25 26  1  0
 26 27  2  0
 27 28  1  0
 28 29  2  0
 29 30  1  0
 30 31  2  0
  3 32  1  0
 32 33  1  0
 33 34  1  0
 34 35  1  0
 35 36  1  0
 36 37  1  0
 37 38  1  0
 38 39  1  0
 31  8  1  0
 31 14  1  0
 29 24  1  0
  1 40  1  0
  1 41  1  0
  2 42  1  0
  3 43  1  1
  4 44  1  0
  4 45  1  0
  5 46  1  0
  5 47  1  0
  6 48  1  0
  6 49  1  0
  7 50  1  0
  7 51  1  0
  9 52  1  0
 12 53  1  0
 12 54  1  0
 12 55  1  0
 13 56  1  0
 17 57  1  0
 17 58  1  0
 18 59  1  0
 18 60  1  0
 20 61  1  0
 20 62  1  0
 21 63  1  0
 21 64  1  0
 21 65  1  0
 22 66  1  0
 22 67  1  0
 23 68  1  0
 23 69  1  0
 23 70  1  0
 25 71  1  0
 26 72  1  0
 27 73  1  0
 28 74  1  0
 32 75  1  0
 32 76  1  0
 33 77  1  0
 34 78  1  0
 34 79  1  0
 35 80  1  0
 35 81  1  0
 36 82  1  0
 37 83  1  0
 37 84  1  0
 38 85  1  0
 38 86  1  0
 39 87  1  0
 39 88  1  0
M  CHG  1   7   1
M  END
>  <UniqueID>  (9) 
8

>  <SMILES>  (9) 
C=C[C@H](CCC[NH2+]c1cc(OC)cc2c(OCCN(CC)CC)c3ccccc3nc12)CNCCNCCN

>  <Energy>  (9) 
88.96563392311508

>  <Genealogy>  (9) 
C=CC(CCC[NH2+]c1cc(OC)cc2c(OCCN(CC)CC)c3ccccc3nc12)CNCCNCCN (protonated)
C=C[C@H](CCC[NH2+]c1cc(OC)cc2c(OCCN(CC)CC)c3ccccc3nc12)CNCCNCCN (chirality)
C=C[C@H](CCC[NH2+]c1cc(OC)cc2c(OCCN(CC)CC)c3ccccc3nc12)CNCCNCCN (3D coordinates assigned)
C=C[C@H](CCC[NH2+]c1cc(OC)cc2c(OCCN(CC)CC)c3ccccc3nc12)CNCCNCCN (optimized conformer: 88.96563392311508 kcal/mol)

>  <smiles>  (9) 
C=CC(CCCNc1cc(OC)cc2c(OCCN(CC)CC)c3ccccc3nc12)CNCCNCCN

>  <score_type>  (9) 
oracle

>  <origin>  (9) 
adg

>  <m_score__min__energy>  (9) 
-6.1399999999999997

>  <m_primary>  (9) 
energy

$$$$
9:0
     RDKit          3D

 34 36  0  0  0  0  0  0  0  0999 V2000
   57.1997   27.5199   43.6324 H   0  0  0  0  0  0  0  0  0  0  0  0
   57.3980   28.1860   44.4850 C   0  0  0  0  0  0  0  0  0  0  0  0
   56.6370   29.4480   44.5890 C   0  0  0  0  0  0  0  0  0  0  0  0
   55.4120   29.3790   44.8800 O   0  0  0  0  0  0  0  0  0  0  0  0
   57.2410   30.7810   44.3480 C   0  0  0  0  0  0  0  0  0  0  0  0
   57.5150   31.1980   43.0340 C   0  0  0  0  0  0  0  0  0  0  0  0
   57.2651   30.5407   42.1881 H   0  0  0  0  0  0  0  0  0  0  0  0
   58.1040   32.4450   42.7960 C   0  0  0  0  0  0  0  0  0  0  0  0
   58.3072   32.7685   41.7645 H   0  0  0  0  0  0  0  0  0  0  0  0
   58.4340   33.2790   43.8660 C   0  0  0  0  0  0  0  0  0  0  0  0
   58.8910   34.2615   43.6767 H   0  0  0  0  0  0  0  0  0  0  0  0
   58.1840   32.8660   45.1770 C   0  0  0  0  0  0  0  0  0  0  0  0
   58.4502   33.5214   46.0194 H   0  0  0  0  0  0  0  0  0  0  0  0
   57.5960   31.6210   45.4200 C   0  0  0  0  0  0  0  0  0  0  0  0
   57.4099   31.2963   46.4544 H   0  0  0  0  0  0  0  0  0  0  0  0
   58.3190   27.8190   45.3850 C   0  0  0  0  0  0  0  0  0  0  0  0
   58.5011   26.7465   45.5484 H   0  0  0  0  0  0  0  0  0  0  0  0
   59.0980   28.7970   46.1650 C   0  0  0  0  0  0  0  0  0  0  0  0
   60.3890   29.7320   45.6160 S   0  0  0  0  0  0  0  0  0  0  0  0
   60.6690   30.5340   47.0720 C   0  0  0  0  0  0  0  0  0  0  0  0
   61.7100   31.5510   47.3230 C   0  0  0  0  0  0  0  0  0  0  0  0
   62.7630   31.2450   48.1330 N   0  0  0  0  0  0  0  0  0  0  0  0
   63.7520   32.1390   48.4010 C   0  0  0  0  0  0  0  0  0  0  0  0
   64.5862   31.8543   49.0590 H   0  0  0  0  0  0  0  0  0  0  0  0
   63.7100   33.4180   47.8420 C   0  0  0  0  0  0  0  0  0  0  0  0
   64.5065   34.1459   48.0560 H   0  0  0  0  0  0  0  0  0  0  0  0
   62.6440   33.7610   47.0080 C   0  0  0  0  0  0  0  0  0  0  0  0
   62.5970   34.7642   46.5593 H   0  0  0  0  0  0  0  0  0  0  0  0
   61.6380   32.8300   46.7440 C   0  0  0  0  0  0  0  0  0  0  0  0
   60.7956   33.0950   46.0881 H   0  0  0  0  0  0  0  0  0  0  0  0
   59.7460   30.0740   48.0070 C   0  0  0  0  0  0  0  0  0  0  0  0
   59.7080   30.4366   49.0448 H   0  0  0  0  0  0  0  0  0  0  0  0
   58.8700   29.1050   47.5000 C   0  0  0  0  0  0  0  0  0  0  0  0
   58.0784   28.6338   48.1011 H   0  0  0  0  0  0  0  0  0  0  0  0
  1  2  1  0
  2  3  1  0
  3  4  2  0
  3  5  1  0
  5  6  2  0
  6  7  1  0
  6  8  1  0
  8  9  1  0
  8 10  2  0
 10 11  1  0
 10 12  1  0
 12 13  1  0
 12 14  2  0
 14 15  1  0
  2 16  2  0
 16 17  1  0
 16 18  1  0
 18 19  1  0
 19 20  1  0
 20 21  1  0
 21 22  2  0
 22 23  1  0
 23 24  1  0
 23 25  2  0
 25 26  1  0
 25 27  1  0
 27 28  1  0
 27 29  2  0
 29 30  1  0
 20 31  2  0
 31 32  1  0
 31 33  1  0
 33 34  1  0
 14  5  1  0
 33 18  2  0
 29 21  1  0
M  END
>  <UniqueID>  (10) 
9

>  <SMILES>  (10) 
O=C(/C=C/c1ccc(-c2ccccn2)s1)c1ccccc1

>  <Energy>  (10) 
68.31580792157716

>  <Genealogy>  (10) 
O=C(/C=C/c1ccc(-c2ccccn2)s1)c1ccccc1 (cis-trans isomerization)
O=C(/C=C/c1ccc(-c2ccccn2)s1)c1ccccc1 (3D coordinates assigned)
O=C(/C=C/c1ccc(-c2ccccn2)s1)c1ccccc1 (optimized conformer: 68.31580792157716 kcal/mol)

>  <smiles>  (10) 
O=C(C=Cc1ccc(-c2ccccn2)s1)c1ccccc1

>  <score_type>  (10) 
oracle

>  <origin>  (10) 
adg

>  <m_score__min__energy>  (10) 
-8.1799999999999997

>  <m_primary>  (10) 
energy

$$$$
10:0
     RDKit          3D

 42 44  0  0  0  0  0  0  0  0999 V2000
   59.5820   35.1310   46.7330 C   0  0  0  0  0  0  0  0  0  0  0  0
   59.6820   34.2010   45.5270 C   0  0  0  0  0  0  0  0  0  0  0  0
   59.6240   32.7980   45.9520 N   0  0  0  0  0  0  0  0  0  0  0  0
   60.4910   32.0950   46.7250 C   0  0  0  0  0  0  0  0  0  0  0  0
   61.8070   32.5510   47.2030 C   0  0  0  0  0  0  0  0  0  0  0  0
   62.6080   31.9500   48.1560 C   0  0  0  0  0  0  0  0  0  0  0  0
   63.7090   32.7680   48.2870 C   0  0  0  0  0  0  0  0  0  0  0  0
   63.5130   33.8180   47.4160 C   0  0  0  0  0  0  0  0  0  0  0  0
   62.3700   33.6630   46.7880 O   0  0  0  0  0  0  0  0  0  0  0  0
   59.9710   30.9070   47.0960 N   0  0  0  0  0  0  0  0  0  0  0  0
   58.7690   30.8380   46.5480 N   0  0  0  0  0  0  0  0  0  0  0  0
   58.5550   31.9750   45.8690 C   0  0  0  0  0  0  0  0  0  0  0  0
   57.0100   32.3610   45.0360 S   0  0  0  0  0  0  0  0  0  0  0  0
   56.9570   30.8080   44.0710 C   0  0  0  0  0  0  0  0  0  0  0  0
   56.3440   29.6890   44.8710 C   0  0  0  0  0  0  0  0  0  0  0  0
   55.1460   29.3740   44.6490 O   0  0  0  0  0  0  0  0  0  0  0  0
   57.0330   29.0120   45.9370 N   0  0  0  0  0  0  0  0  0  0  0  0
   58.0080   27.9170   45.8900 C   0  0  0  0  0  0  0  0  0  0  0  0
   58.5330   27.5050   47.2690 C   0  0  0  0  0  0  0  0  0  0  0  0
   60.0520   27.4150   47.1460 C   0  0  0  0  0  0  0  0  0  0  0  0
   60.3810   27.5110   45.6610 C   0  0  0  0  0  0  0  0  0  0  0  0
   59.2150   28.2400   45.0130 C   0  0  0  0  0  0  0  0  0  0  0  0
   59.6456   34.5396   47.6583 H   0  0  0  0  0  0  0  0  0  0  0  0
   60.4072   35.8579   46.7049 H   0  0  0  0  0  0  0  0  0  0  0  0
   58.6212   35.6658   46.7049 H   0  0  0  0  0  0  0  0  0  0  0  0
   58.8464   34.4062   44.8417 H   0  0  0  0  0  0  0  0  0  0  0  0
   60.6418   34.3790   45.0199 H   0  0  0  0  0  0  0  0  0  0  0  0
   62.4080   31.0135   48.6972 H   0  0  0  0  0  0  0  0  0  0  0  0
   64.5710   32.6140   48.9528 H   0  0  0  0  0  0  0  0  0  0  0  0
   64.2080   34.6579   47.2692 H   0  0  0  0  0  0  0  0  0  0  0  0
   58.1040   30.0440   46.6740 H   0  0  0  0  0  0  0  0  0  0  0  0
   56.3572   30.9702   43.1633 H   0  0  0  0  0  0  0  0  0  0  0  0
   57.9876   30.5252   43.8103 H   0  0  0  0  0  0  0  0  0  0  0  0
   57.4395   27.0812   45.4562 H   0  0  0  0  0  0  0  0  0  0  0  0
   58.2567   28.2584   48.0213 H   0  0  0  0  0  0  0  0  0  0  0  0
   58.1023   26.5443   47.5876 H   0  0  0  0  0  0  0  0  0  0  0  0
   60.5258   28.2435   47.6930 H   0  0  0  0  0  0  0  0  0  0  0  0
   60.4270   26.4731   47.5728 H   0  0  0  0  0  0  0  0  0  0  0  0
   61.3132   28.0758   45.5130 H   0  0  0  0  0  0  0  0  0  0  0  0
   60.5261   26.5147   45.2180 H   0  0  0  0  0  0  0  0  0  0  0  0
   59.3997   29.3242   44.9942 H   0  0  0  0  0  0  0  0  0  0  0  0
   59.0619   27.9276   43.9695 H   0  0  0  0  0  0  0  0  0  0  0  0
  1  2  1  0
  2  3  1  0
  3  4  1  0
  4  5  1  0
  5  6  2  0
  6  7  1  0
  7  8  2  0
  8  9  1  0
  4 10  2  0
 10 11  1  0
 11 12  2  0
 12 13  1  0
 13 14  1  0
 14 15  1  0
 15 16  2  0
 15 17  1  0
 17 18  1  0
 18 19  1  0
 19 20  1  0
 20 21  1  0
 21 22  1  0
 12  3  1  0
 22 18  1  0
  9  5  1  0
  1 23  1  0
  1 24  1  0
  1 25  1  0
  2 26  1  0
  2 27  1  0
  6 28  1  0
  7 29  1  0
  8 30  1  0
 11 31  1  0
 14 32  1  0
 14 33  1  0
 18 34  1  0
 19 35  1  0
 19 36  1  0
 20 37  1  0
 20 38  1  0
 21 39  1  0
 21 40  1  0
 22 41  1  0
 22 42  1  0
M  CHG  2  11   1  17  -1
M  END
>  <UniqueID>  (11) 
10

>  <SMILES>  (11) 
CCn1c(-c2ccco2)n[nH+]c1SCC(=O)[N-]C1CCCC1

>  <Energy>  (11) 
104.38328176272067

>  <Genealogy>  (11) 
CCn1c(-c2ccco2)n[nH+]c1SCC(=O)[N-]C1CCCC1 (protonated)
CCn1c(-c2ccco2)n[nH+]c1SCC(=O)[N-]C1CCCC1 (3D coordinates assigned)
CCn1c(-c2ccco2)n[nH+]c1SCC(=O)[N-]C1CCCC1 (nonaromatic ring conformer: 104.38328176272067 kcal/mol)

>  <smiles>  (11) 
CCn1c(SCC(=O)NC2CCCC2)nnc1-c1ccco1

>  <score_type>  (11) 
oracle

>  <origin>  (11) 
adg

>  <m_score__min__energy>  (11) 
-8.3200000000000003

>  <m_primary>  (11) 
energy

$$$$
11:0
     RDKit          3D

 39 40  0  0  0  0  0  0  0  0999 V2000
   56.2740   29.7160   42.9980 C   0  0  0  0  0  0  0  0  0  0  0  0
   56.2970   29.9560   44.5070 C   0  0  0  0  0  0  0  0  0  0  0  0
   57.3330   30.9440   44.8840 N   0  0  0  0  0  0  0  0  0  0  0  0
   57.5430   31.9580   43.8260 C   0  0  0  0  0  0  0  0  0  0  0  0
   57.7260   33.3380   44.4510 C   0  0  0  0  0  0  0  0  0  0  0  0
   58.6050   30.3410   45.3570 C   0  0  0  0  0  0  0  0  0  0  0  0
   58.5290   29.6780   46.7540 C   0  0  0  0  0  0  0  0  0  0  0  0
   58.8310   30.6240   47.8310 N   0  0  0  0  0  0  0  0  0  0  0  0
   59.3120   31.9690   47.6190 C   0  0  0  0  0  0  0  0  0  0  0  0
   58.4000   33.0400   47.5470 C   0  0  0  0  0  0  0  0  0  0  0  0
   58.8400   34.3400   47.3050 C   0  0  0  0  0  0  0  0  0  0  0  0
   60.1960   34.6030   47.1290 C   0  0  0  0  0  0  0  0  0  0  0  0
   61.1310   33.5630   47.2060 C   0  0  0  0  0  0  0  0  0  0  0  0
   62.4970   33.8350   47.0440 C   0  0  0  0  0  0  0  0  0  0  0  0
   63.4190   32.7960   47.1480 C   0  0  0  0  0  0  0  0  0  0  0  0
   62.9970   31.5340   47.4110 N   0  0  0  0  0  0  0  0  0  0  0  0
   61.6810   31.2300   47.5670 C   0  0  0  0  0  0  0  0  0  0  0  0
   60.6980   32.2360   47.4560 C   0  0  0  0  0  0  0  0  0  0  0  0
   56.1708   28.6390   42.7996 H   0  0  0  0  0  0  0  0  0  0  0  0
   55.4233   30.2538   42.5541 H   0  0  0  0  0  0  0  0  0  0  0  0
   57.2114   30.0824   42.5541 H   0  0  0  0  0  0  0  0  0  0  0  0
   55.3129   30.3315   44.8242 H   0  0  0  0  0  0  0  0  0  0  0  0
   56.5318   29.0033   45.0042 H   0  0  0  0  0  0  0  0  0  0  0  0
   58.4416   31.6988   43.2469 H   0  0  0  0  0  0  0  0  0  0  0  0
   56.6639   31.9759   43.1650 H   0  0  0  0  0  0  0  0  0  0  0  0
   57.7141   33.2485   45.5473 H   0  0  0  0  0  0  0  0  0  0  0  0
   58.6882   33.7621   44.1281 H   0  0  0  0  0  0  0  0  0  0  0  0
   56.9075   33.9982   44.1281 H   0  0  0  0  0  0  0  0  0  0  0  0
   58.9111   29.5740   44.6304 H   0  0  0  0  0  0  0  0  0  0  0  0
   59.3256   31.1674   45.4452 H   0  0  0  0  0  0  0  0  0  0  0  0
   57.5136   29.2824   46.9039 H   0  0  0  0  0  0  0  0  0  0  0  0
   59.2798   28.8748   46.7887 H   0  0  0  0  0  0  0  0  0  0  0  0
   58.7410   30.2660   48.8070 H   0  0  0  0  0  0  0  0  0  0  0  0
   57.3256   32.8476   47.6837 H   0  0  0  0  0  0  0  0  0  0  0  0
   58.1120   35.1630   47.2527 H   0  0  0  0  0  0  0  0  0  0  0  0
   60.5339   35.6305   46.9289 H   0  0  0  0  0  0  0  0  0  0  0  0
   62.8376   34.8601   46.8365 H   0  0  0  0  0  0  0  0  0  0  0  0
   64.4920   32.9995   47.0165 H   0  0  0  0  0  0  0  0  0  0  0  0
   61.3809   30.1936   47.7810 H   0  0  0  0  0  0  0  0  0  0  0  0
  1  2  1  0
  2  3  1  0
  3  4  1  0
  4  5  1  0
  3  6  1  0
  6  7  1  0
  7  8  1  0
  8  9  1  0
  9 10  2  0
 10 11  1  0
 11 12  2  0
 12 13  1  0
 13 14  2  0
 14 15  1  0
 15 16  2  0
 16 17  1  0
 17 18  2  0
 18  9  1  0
 18 13  1  0
  1 19  1  0
  1 20  1  0
  1 21  1  0
  2 22  1  0
  2 23  1  0
  4 24  1  0
  4 25  1  0
  5 26  1  0
  5 27  1  0
  5 28  1  0
  6 29  1  0
  6 30  1  0
  7 31  1  0
  7 32  1  0
  8 33  1  0
 10 34  1  0
 11 35  1  0
 12 36  1  0
 14 37  1  0
 15 38  1  0
 17 39  1  0
M  END
>  <UniqueID>  (12) 
11

>  <SMILES>  (12) 
CCN(CC)CCNc1cccc2ccncc12

>  <Energy>  (12) 
46.15575938153458

>  <Genealogy>  (12) 
CCN(CC)CCNc1cccc2ccncc12 (3D coordinates assigned)
CCN(CC)CCNc1cccc2ccncc12 (optimized conformer: 46.15575938153458 kcal/mol)

>  <smiles>  (12) 
CCN(CC)CCNc1cccc2ccncc12

>  <score_type>  (12) 
oracle

>  <origin>  (12) 
adg

>  <m_score__min__energy>  (12) 
-6.5499999999999998

>  <m_primary>  (12) 
energy

$$$$
12:0
     RDKit          3D

 60 63  0  0  0  0  0  0  0  0999 V2000
   54.6820   24.4480   45.5540 C   0  0  0  0  0  0  0  0  0  0  0  0
   55.5910   24.6370   46.6990 N   0  0  0  0  0  0  0  0  0  0  0  0
   55.5640   23.4370   47.5490 C   0  0  0  0  0  0  0  0  0  0  0  0
   56.9730   24.9080   46.2440 C   0  0  0  0  0  0  0  0  0  0  0  0
   57.0510   24.9680   44.7130 C   0  0  0  0  0  0  0  0  0  0  0  0
   57.5760   26.2210   44.2760 O   0  0  0  0  0  0  0  0  0  0  0  0
   58.2200   27.1760   45.0820 C   0  0  0  0  0  0  0  0  0  0  0  0
   59.5810   27.0720   45.4240 C   0  0  0  0  0  0  0  0  0  0  0  0
   60.1820   28.0330   46.2390 C   0  0  0  0  0  0  0  0  0  0  0  0
   59.4360   29.1100   46.7420 C   0  0  0  0  0  0  0  0  0  0  0  0
   60.0840   30.1450   47.5860 C   0  0  0  0  0  0  0  0  0  0  0  0
   61.2140   30.8430   47.1190 C   0  0  0  0  0  0  0  0  0  0  0  0
   61.8190   31.8220   47.9100 C   0  0  0  0  0  0  0  0  0  0  0  0
   61.3030   32.1180   49.1740 C   0  0  0  0  0  0  0  0  0  0  0  0
   60.1810   31.4340   49.6480 C   0  0  0  0  0  0  0  0  0  0  0  0
   59.5720   30.4540   48.8600 C   0  0  0  0  0  0  0  0  0  0  0  0
   58.0750   29.2090   46.4110 C   0  0  0  0  0  0  0  0  0  0  0  0
   57.4740   28.2730   45.5610 C   0  0  0  0  0  0  0  0  0  0  0  0
   56.1050   28.4750   45.1800 N   0  0  0  0  0  0  0  0  0  0  0  0
   55.6390   29.4530   44.2360 C   0  0  0  0  0  0  0  0  0  0  0  0
   54.4850   29.3220   43.7490 O   0  0  0  0  0  0  0  0  0  0  0  0
   56.4710   30.6140   43.8410 C   0  0  0  0  0  0  0  0  0  0  0  0
   56.7720   30.8410   42.4880 C   0  0  0  0  0  0  0  0  0  0  0  0
   57.6080   31.8980   42.1200 C   0  0  0  0  0  0  0  0  0  0  0  0
   58.1530   32.7370   43.0950 C   0  0  0  0  0  0  0  0  0  0  0  0
   57.8510   32.5380   44.4540 C   0  0  0  0  0  0  0  0  0  0  0  0
   58.4530   33.4010   45.5010 C   0  0  0  0  0  0  0  0  0  0  0  0
   58.2630   33.1040   46.8660 C   0  0  0  0  0  0  0  0  0  0  0  0
   58.8280   33.9170   47.8530 C   0  0  0  0  0  0  0  0  0  0  0  0
   59.5870   35.0320   47.4920 C   0  0  0  0  0  0  0  0  0  0  0  0
   59.7860   35.3350   46.1420 C   0  0  0  0  0  0  0  0  0  0  0  0
   59.2230   34.5250   45.1510 C   0  0  0  0  0  0  0  0  0  0  0  0
   56.9850   31.4910   44.8110 C   0  0  0  0  0  0  0  0  0  0  0  0
   53.6672   24.2370   45.9224 H   0  0  0  0  0  0  0  0  0  0  0  0
   54.6674   25.3623   44.9426 H   0  0  0  0  0  0  0  0  0  0  0  0
   55.0331   23.6036   44.9426 H   0  0  0  0  0  0  0  0  0  0  0  0
   55.5708   23.7370   48.6073 H   0  0  0  0  0  0  0  0  0  0  0  0
   54.6526   22.8584   47.3377 H   0  0  0  0  0  0  0  0  0  0  0  0
   56.4484   22.8180   47.3377 H   0  0  0  0  0  0  0  0  0  0  0  0
   57.3048   25.8715   46.6583 H   0  0  0  0  0  0  0  0  0  0  0  0
   57.6216   24.0915   46.5942 H   0  0  0  0  0  0  0  0  0  0  0  0
   57.7047   24.1593   44.3542 H   0  0  0  0  0  0  0  0  0  0  0  0
   56.0357   24.8524   44.3057 H   0  0  0  0  0  0  0  0  0  0  0  0
   60.1758   26.2272   45.0464 H   0  0  0  0  0  0  0  0  0  0  0  0
   61.2496   27.9453   46.4891 H   0  0  0  0  0  0  0  0  0  0  0  0
   61.6234   30.6155   46.1237 H   0  0  0  0  0  0  0  0  0  0  0  0
   62.7028   32.3606   47.5374 H   0  0  0  0  0  0  0  0  0  0  0  0
   61.7802   32.8896   49.7960 H   0  0  0  0  0  0  0  0  0  0  0  0
   59.7761   31.6674   50.6438 H   0  0  0  0  0  0  0  0  0  0  0  0
   58.6871   29.9208   49.2376 H   0  0  0  0  0  0  0  0  0  0  0  0
   57.4737   30.0320   46.8246 H   0  0  0  0  0  0  0  0  0  0  0  0
   56.3476   30.1837   41.7148 H   0  0  0  0  0  0  0  0  0  0  0  0
   57.8381   32.0704   41.0582 H   0  0  0  0  0  0  0  0  0  0  0  0
   58.8222   33.5580   42.7980 H   0  0  0  0  0  0  0  0  0  0  0  0
   57.6662   32.2267   47.1564 H   0  0  0  0  0  0  0  0  0  0  0  0
   58.6744   33.6779   48.9157 H   0  0  0  0  0  0  0  0  0  0  0  0
   60.0284   35.6721   48.2701 H   0  0  0  0  0  0  0  0  0  0  0  0
   60.3865   36.2121   45.8588 H   0  0  0  0  0  0  0  0  0  0  0  0
   59.3833   34.7684   44.0903 H   0  0  0  0  0  0  0  0  0  0  0  0
   56.7050   31.3557   45.8661 H   0  0  0  0  0  0  0  0  0  0  0  0
  1  2  1  0
  2  3  1  0
  2  4  1  0
  4  5  1  0
  5  6  1  0
  6  7  1  0
  7  8  2  0
  8  9  1  0
  9 10  2  0
 10 11  1  0
 11 12  2  0
 12 13  1  0
 13 14  2  0
 14 15  1  0
 15 16  2  0
 10 17  1  0
 17 18  2  0
 18 19  1  0
 19 20  1  0
 20 21  2  0
 20 22  1  0
 22 23  2  0
 23 24  1  0
 24 25  2  0
 25 26  1  0
 26 27  1  0
 27 28  2  0
 28 29  1  0
 29 30  2  0
 30 31  1  0
 31 32  2  0
 26 33  2  0
 18  7  1  0
 33 22  1  0
 16 11  1  0
 32 27  1  0
  1 34  1  0
  1 35  1  0
  1 36  1  0
  3 37  1  0
  3 38  1  0
  3 39  1  0
  4 40  1  0
  4 41  1  0
  5 42  1  0
  5 43  1  0
  8 44  1  0
  9 45  1  0
 12 46  1  0
 13 47  1  0
 14 48  1  0
 15 49  1  0
 16 50  1  0
 17 51  1  0
 23 52  1  0
 24 53  1  0
 25 54  1  0
 28 55  1  0
 29 56  1  0
 30 57  1  0
 31 58  1  0
 32 59  1  0
 33 60  1  0
M  CHG  1  19  -1
M  END
>  <UniqueID>  (13) 
12

>  <SMILES>  (13) 
CN(C)CCOc1ccc(-c2ccccc2)cc1[N-]C(=O)c1cccc(-c2ccccc2)c1

>  <Energy>  (13) 
79.69361866167452

>  <Genealogy>  (13) 
CN(C)CCOc1ccc(-c2ccccc2)cc1[N-]C(=O)c1cccc(-c2ccccc2)c1 (protonated)
CN(C)CCOc1ccc(-c2ccccc2)cc1[N-]C(=O)c1cccc(-c2ccccc2)c1 (3D coordinates assigned)
CN(C)CCOc1ccc(-c2ccccc2)cc1[N-]C(=O)c1cccc(-c2ccccc2)c1 (optimized conformer: 79.69361866167452 kcal/mol)

>  <smiles>  (13) 
CN(C)CCOc1ccc(-c2ccccc2)cc1NC(=O)c1cccc(-c2ccccc2)c1

>  <score_type>  (13) 
oracle

>  <origin>  (13) 
adg

>  <m_score__min__energy>  (13) 
-11.65

>  <m_primary>  (13) 
energy

$$$$
13:0
     RDKit          3D

 39 40  0  0  0  0  0  0  0  0999 V2000
   60.5560   34.2130   48.5310 C   0  0  0  0  0  0  0  0  0  0  0  0
   59.2560   34.4960   47.7630 C   0  0  0  0  0  0  0  0  0  0  0  0
   59.0080   33.6040   46.6040 N   0  0  0  0  0  0  0  0  0  0  0  0
   58.5540   34.2870   45.3720 C   0  0  0  0  0  0  0  0  0  0  0  0
   57.0420   34.2190   45.1490 C   0  0  0  0  0  0  0  0  0  0  0  0
   59.9880   32.5210   46.3720 C   0  0  0  0  0  0  0  0  0  0  0  0
   59.2930   31.1890   46.2430 C   0  0  0  0  0  0  0  0  0  0  0  0
   58.0390   31.0960   45.6240 C   0  0  0  0  0  0  0  0  0  0  0  0
   57.3820   29.8560   45.5010 C   0  0  0  0  0  0  0  0  0  0  0  0
   56.1290   29.7460   44.8720 O   0  0  0  0  0  0  0  0  0  0  0  0
   55.9240   29.7750   43.4630 C   0  0  0  0  0  0  0  0  0  0  0  0
   57.9940   28.6970   46.0210 C   0  0  0  0  0  0  0  0  0  0  0  0
   57.3720   27.4380   45.9200 C   0  0  0  0  0  0  0  0  0  0  0  0
   57.9900   26.2980   46.4430 C   0  0  0  0  0  0  0  0  0  0  0  0
   57.3830   25.0910   46.3400 F   0  0  0  0  0  0  0  0  0  0  0  0
   59.2320   26.4000   47.0730 C   0  0  0  0  0  0  0  0  0  0  0  0
   59.8650   27.6400   47.1840 C   0  0  0  0  0  0  0  0  0  0  0  0
   59.2560   28.7930   46.6610 C   0  0  0  0  0  0  0  0  0  0  0  0
   59.8910   30.0370   46.7710 C   0  0  0  0  0  0  0  0  0  0  0  0
   60.3597   34.2557   49.6125 H   0  0  0  0  0  0  0  0  0  0  0  0
   60.9286   33.2127   48.2652 H   0  0  0  0  0  0  0  0  0  0  0  0
   61.3106   34.9679   48.2652 H   0  0  0  0  0  0  0  0  0  0  0  0
   58.4149   34.3877   48.4636 H   0  0  0  0  0  0  0  0  0  0  0  0
   59.3544   35.5125   47.3542 H   0  0  0  0  0  0  0  0  0  0  0  0
   58.8481   35.3452   45.4338 H   0  0  0  0  0  0  0  0  0  0  0  0
   59.0261   33.7672   44.5253 H   0  0  0  0  0  0  0  0  0  0  0  0
   56.5286   34.1959   46.1216 H   0  0  0  0  0  0  0  0  0  0  0  0
   56.7148   35.1033   44.5825 H   0  0  0  0  0  0  0  0  0  0  0  0
   56.7955   33.3089   44.5825 H   0  0  0  0  0  0  0  0  0  0  0  0
   60.5432   32.7294   45.4456 H   0  0  0  0  0  0  0  0  0  0  0  0
   60.6760   32.4783   47.2292 H   0  0  0  0  0  0  0  0  0  0  0  0
   57.5610   32.0043   45.2285 H   0  0  0  0  0  0  0  0  0  0  0  0
   54.8553   29.9262   43.2510 H   0  0  0  0  0  0  0  0  0  0  0  0
   56.5050   30.5999   43.0248 H   0  0  0  0  0  0  0  0  0  0  0  0
   56.2534   28.8213   43.0248 H   0  0  0  0  0  0  0  0  0  0  0  0
   56.3930   27.3506   45.4262 H   0  0  0  0  0  0  0  0  0  0  0  0
   59.7137   25.5003   47.4834 H   0  0  0  0  0  0  0  0  0  0  0  0
   60.8429   27.7141   47.6822 H   0  0  0  0  0  0  0  0  0  0  0  0
   60.8658   30.1099   47.2754 H   0  0  0  0  0  0  0  0  0  0  0  0
  1  2  1  0
  2  3  1  0
  3  4  1  0
  4  5  1  0
  3  6  1  0
  6  7  1  0
  7  8  2  0
  8  9  1  0
  9 10  1  0
 10 11  1  0
  9 12  2  0
 12 13  1  0
 13 14  2  0
 14 15  1  0
 14 16  1  0
 16 17  2  0
 17 18  1  0
 18 19  2  0
 19  7  1  0
 18 12  1  0
  1 20  1  0
  1 21  1  0
  1 22  1  0
  2 23  1  0
  2 24  1  0
  4 25  1  0
  4 26  1  0
  5 27  1  0
  5 28  1  0
  5 29  1  0
  6 30  1  0
  6 31  1  0
  8 32  1  0
 11 33  1  0
 11 34  1  0
 11 35  1  0
 13 36  1  0
 16 37  1  0
 17 38  1  0
 19 39  1  0
M  END
>  <UniqueID>  (14) 
13

>  <SMILES>  (14) 
CCN(CC)Cc1cc(OC)c2cc(F)ccc2c1

>  <Energy>  (14) 
47.41044506704599

>  <Genealogy>  (14) 
CCN(CC)Cc1cc(OC)c2cc(F)ccc2c1 (3D coordinates assigned)
CCN(CC)Cc1cc(OC)c2cc(F)ccc2c1 (optimized conformer: 47.41044506704599 kcal/mol)

>  <smiles>  (14) 
CCN(CC)Cc1cc(OC)c2cc(F)ccc2c1

>  <score_type>  (14) 
oracle

>  <origin>  (14) 
adg

>  <m_score__min__energy>  (14) 
-5.9900000000000002

>  <m_primary>  (14) 
energy

$$$$
14:0
     RDKit          3D

 45 48  0  0  1  0  0  0  0  0999 V2000
   67.4540   32.9780   50.8620 C   0  0  0  0  0  0  0  0  0  0  0  0
   66.1300   32.9070   51.3180 O   0  0  0  0  0  0  0  0  0  0  0  0
   64.9910   33.0890   50.5800 C   0  0  0  0  0  0  0  0  0  0  0  0
   64.2020   34.1910   50.8590 C   0  0  0  0  0  0  0  0  0  0  0  0
   63.0370   34.4320   50.1490 C   0  0  0  0  0  0  0  0  0  0  0  0
   62.6610   33.5510   49.1430 C   0  0  0  0  0  0  0  0  0  0  0  0
   61.4900   33.8270   48.4580 C   0  0  0  0  0  0  0  0  0  0  0  0
   61.0840   32.9760   47.4530 C   0  0  0  0  0  0  0  0  0  0  0  0
   59.8730   33.1690   46.6690 C   0  0  0  0  0  0  0  0  0  0  0  0
   59.4000   34.4180   46.3230 C   0  0  0  0  0  0  0  0  0  0  0  0
   58.2430   34.5830   45.5750 C   0  0  0  0  0  0  0  0  0  0  0  0
   57.5540   33.4990   45.1690 N   0  0  0  0  0  0  0  0  0  0  0  0
   58.0310   32.2910   45.5170 C   0  0  0  0  0  0  0  0  0  0  0  0
   57.3700   31.2660   45.1280 N   0  0  0  0  0  0  0  0  0  0  0  0
   57.7620   30.4160   44.0190 C   0  0  0  0  0  0  0  0  0  0  0  0
   58.0220   29.0380   44.6390 C   0  0  0  0  0  0  0  0  0  0  0  0
   56.8260   28.8080   45.5720 C   0  0  0  0  0  0  0  0  0  0  0  0
   55.6410   28.8490   44.8780 O   0  0  0  0  0  0  0  0  0  0  0  0
   55.3840   30.0340   44.2240 C   0  0  0  0  0  0  0  0  0  0  0  0
   56.4960   30.2260   43.1860 C   0  0  0  0  0  0  0  0  0  0  0  0
   59.1500   32.1130   46.2420 N   0  0  0  0  0  0  0  0  0  0  0  0
   61.8840   31.8840   47.1890 C   0  0  0  0  0  0  0  0  0  0  0  0
   63.0170   31.6420   47.8740 N   0  0  0  0  0  0  0  0  0  0  0  0
   63.4410   32.4530   48.8600 C   0  0  0  0  0  0  0  0  0  0  0  0
   64.6110   32.2120   49.5740 C   0  0  0  0  0  0  0  0  0  0  0  0
   68.1370   33.0146   51.7235 H   0  0  0  0  0  0  0  0  0  0  0  0
   67.6799   32.0907   50.2524 H   0  0  0  0  0  0  0  0  0  0  0  0
   67.5837   33.8844   50.2524 H   0  0  0  0  0  0  0  0  0  0  0  0
   64.5043   34.8860   51.6563 H   0  0  0  0  0  0  0  0  0  0  0  0
   62.4169   35.3109   50.3793 H   0  0  0  0  0  0  0  0  0  0  0  0
   60.8914   34.7141   48.7126 H   0  0  0  0  0  0  0  0  0  0  0  0
   59.9563   35.3090   46.6496 H   0  0  0  0  0  0  0  0  0  0  0  0
   57.8908   35.5922   45.3153 H   0  0  0  0  0  0  0  0  0  0  0  0
   56.6930   33.6310   44.6120 H   0  0  0  0  0  0  0  0  0  0  0  0
   58.6129   30.8165   43.4485 H   0  0  0  0  0  0  0  0  0  0  0  0
   58.0631   28.2622   43.8603 H   0  0  0  0  0  0  0  0  0  0  0  0
   58.9838   28.9921   45.1708 H   0  0  0  0  0  0  0  0  0  0  0  0
   56.9280   27.8227   46.0504 H   0  0  0  0  0  0  0  0  0  0  0  0
   56.8151   29.6064   46.3286 H   0  0  0  0  0  0  0  0  0  0  0  0
   54.4055   29.9846   43.7240 H   0  0  0  0  0  0  0  0  0  0  0  0
   55.3600   30.8751   44.9324 H   0  0  0  0  0  0  0  0  0  0  0  0
   56.5837   29.3396   42.5406 H   0  0  0  0  0  0  0  0  0  0  0  0
   56.3026   31.0765   42.5158 H   0  0  0  0  0  0  0  0  0  0  0  0
   61.5860   31.1873   46.3916 H   0  0  0  0  0  0  0  0  0  0  0  0
   65.2301   31.3327   49.3426 H   0  0  0  0  0  0  0  0  0  0  0  0
  1  2  1  0
  2  3  1  0
  3  4  2  0
  4  5  1  0
  5  6  2  0
  6  7  1  0
  7  8  2  0
  8  9  1  0
  9 10  1  0
 10 11  2  0
 11 12  1  0
 12 13  1  0
 13 14  2  0
 14 15  1  0
 15 16  1  0
 16 17  1  0
 17 18  1  0
 18 19  1  0
 19 20  1  0
 13 21  1  0
  8 22  1  0
 22 23  2  0
 23 24  1  0
 24 25  2  0
 25  3  1  0
 24  6  1  0
 21  9  2  0
 20 15  1  0
  1 26  1  0
  1 27  1  0
  1 28  1  0
  4 29  1  0
  5 30  1  0
  7 31  1  0
 10 32  1  0
 11 33  1  0
 12 34  1  0
 15 35  1  0
 16 36  1  0
 16 37  1  0
 17 38  1  0
 17 39  1  0
 19 40  1  0
 19 41  1  0
 20 42  1  0
 20 43  1  0
 22 44  1  0
 25 45  1  0
M  END
>  <smiles>  (15) 
COc1ccc2cc(-c3cc[nH]c(=NC4CCOCC4)n3)cnc2c1

>  <score_type>  (15) 
oracle

>  <origin>  (15) 
adg

>  <m_score__min__energy>  (15) 
-8.4499999999999993

>  <m_primary>  (15) 
energy

$$$$
15:0
     RDKit          3D

 44 45  0  0  0  0  0  0  0  0999 V2000
   54.2010   24.8030   45.6010 C   0  0  0  0  0  0  0  0  0  0  0  0
   55.4070   25.4250   45.9860 O   0  0  0  0  0  0  0  0  0  0  0  0
   56.5180   24.6410   45.5900 C   0  0  0  0  0  0  0  0  0  0  0  0
   57.6110   25.5160   44.9430 C   0  0  0  0  0  0  0  0  0  0  0  0
   57.3740   26.9760   45.1270 N   0  0  0  0  0  0  0  0  0  0  0  0
   58.0300   27.7610   44.0440 C   0  0  0  0  0  0  0  0  0  0  0  0
   57.2260   29.0020   43.6030 C   0  0  0  0  0  0  0  0  0  0  0  0
   56.1010   29.2220   44.4350 O   0  0  0  0  0  0  0  0  0  0  0  0
   55.5140   30.4720   44.1490 C   0  0  0  0  0  0  0  0  0  0  0  0
   57.7910   27.4130   46.4860 C   0  0  0  0  0  0  0  0  0  0  0  0
   58.6340   28.6620   46.4860 C   0  0  0  0  0  0  0  0  0  0  0  0
   60.0020   28.7220   46.6350 C   0  0  0  0  0  0  0  0  0  0  0  0
   60.3430   29.9850   46.5990 O   0  0  0  0  0  0  0  0  0  0  0  0
   59.2420   30.6870   46.4340 C   0  0  0  0  0  0  0  0  0  0  0  0
   59.2080   32.1640   46.3470 C   0  0  0  0  0  0  0  0  0  0  0  0
   59.8870   32.9410   47.3040 C   0  0  0  0  0  0  0  0  0  0  0  0
   59.8610   34.3370   47.2310 C   0  0  0  0  0  0  0  0  0  0  0  0
   59.1610   34.9710   46.2040 C   0  0  0  0  0  0  0  0  0  0  0  0
   58.4840   34.2120   45.2470 C   0  0  0  0  0  0  0  0  0  0  0  0
   58.5040   32.8140   45.3140 C   0  0  0  0  0  0  0  0  0  0  0  0
   57.8350   32.1060   44.3690 F   0  0  0  0  0  0  0  0  0  0  0  0
   58.1410   29.9080   46.3560 N   0  0  0  0  0  0  0  0  0  0  0  0
   53.6359   24.5116   46.4986 H   0  0  0  0  0  0  0  0  0  0  0  0
   53.6016   25.5044   45.0021 H   0  0  0  0  0  0  0  0  0  0  0  0
   54.4250   23.9080   45.0021 H   0  0  0  0  0  0  0  0  0  0  0  0
   56.9367   24.1382   46.4743 H   0  0  0  0  0  0  0  0  0  0  0  0
   56.1784   23.9013   44.8501 H   0  0  0  0  0  0  0  0  0  0  0  0
   58.5798   25.2585   45.3960 H   0  0  0  0  0  0  0  0  0  0  0  0
   57.5962   25.3143   43.8618 H   0  0  0  0  0  0  0  0  0  0  0  0
   56.3430   27.1440   45.0740 H   0  0  0  0  0  0  0  0  0  0  0  0
   59.0141   28.0949   44.4045 H   0  0  0  0  0  0  0  0  0  0  0  0
   58.1060   27.0995   43.1684 H   0  0  0  0  0  0  0  0  0  0  0  0
   57.8805   29.8849   43.6481 H   0  0  0  0  0  0  0  0  0  0  0  0
   56.8653   28.8297   42.5782 H   0  0  0  0  0  0  0  0  0  0  0  0
   55.2720   30.9874   45.0902 H   0  0  0  0  0  0  0  0  0  0  0  0
   56.2190   31.0836   43.5669 H   0  0  0  0  0  0  0  0  0  0  0  0
   54.5931   30.3200   43.5669 H   0  0  0  0  0  0  0  0  0  0  0  0
   56.8868   27.6038   47.0826 H   0  0  0  0  0  0  0  0  0  0  0  0
   58.4088   26.6069   46.9086 H   0  0  0  0  0  0  0  0  0  0  0  0
   60.6820   27.8666   46.7609 H   0  0  0  0  0  0  0  0  0  0  0  0
   60.4419   32.4466   48.1150 H   0  0  0  0  0  0  0  0  0  0  0  0
   60.3932   34.9363   47.9844 H   0  0  0  0  0  0  0  0  0  0  0  0
   59.1424   36.0694   46.1481 H   0  0  0  0  0  0  0  0  0  0  0  0
   57.9333   34.7143   44.4380 H   0  0  0  0  0  0  0  0  0  0  0  0
  1  2  1  0
  2  3  1  0
  3  4  1  0
  4  5  1  0
  5  6  1  0
  6  7  1  0
  7  8  1  0
  8  9  1  0
  5 10  1  0
 10 11  1  0
 11 12  2  0
 12 13  1  0
 13 14  1  0
 14 15  1  0
 15 16  2  0
 16 17  1  0
 17 18  2  0
 18 19  1  0
 19 20  2  0
 20 21  1  0
 14 22  2  0
 22 11  1  0
 20 15  1  0
  1 23  1  0
  1 24  1  0
  1 25  1  0
  3 26  1  0
  3 27  1  0
  4 28  1  0
  4 29  1  0
  5 30  1  0
  6 31  1  0
  6 32  1  0
  7 33  1  0
  7 34  1  0
  9 35  1  0
  9 36  1  0
  9 37  1  0
 10 38  1  0
 10 39  1  0
 12 40  1  0
 16 41  1  0
 17 42  1  0
 18 43  1  0
 19 44  1  0
M  CHG  1   5   1
M  END
>  <UniqueID>  (16) 
14

>  <SMILES>  (16) 
COCC[NH+](CCOC)Cc1coc(-c2ccccc2F)n1

>  <Energy>  (16) 
81.59415589308786

>  <Genealogy>  (16) 
COCC[NH+](CCOC)Cc1coc(-c2ccccc2F)n1 (protonated)
COCC[NH+](CCOC)Cc1coc(-c2ccccc2F)n1 (3D coordinates assigned)
COCC[NH+](CCOC)Cc1coc(-c2ccccc2F)n1 (optimized conformer: 81.59415589308786 kcal/mol)

>  <smiles>  (16) 
COCCN(CCOC)Cc1coc(-c2ccccc2F)n1

>  <score_type>  (16) 
oracle

>  <origin>  (16) 
adg

>  <m_score__min__energy>  (16) 
-3.8300000000000001

>  <m_primary>  (16) 
energy

$$$$
16:0
     RDKit          3D

 58 60  0  0  0  0  0  0  0  0999 V2000
   65.7950   35.0120   52.2730 C   0  0  0  0  0  0  0  0  0  0  0  0
   67.2720   34.7670   51.9630 C   0  0  0  0  0  0  0  0  0  0  0  0
   67.4250   33.7450   50.9030 N   0  0  0  0  0  0  0  0  0  0  0  0
   68.8370   33.6190   50.4740 C   0  0  0  0  0  0  0  0  0  0  0  0
   69.3900   34.9670   50.0110 C   0  0  0  0  0  0  0  0  0  0  0  0
   66.8690   32.4310   51.3250 C   0  0  0  0  0  0  0  0  0  0  0  0
   65.6800   32.0400   50.4370 C   0  0  0  0  0  0  0  0  0  0  0  0
   65.4130   33.0540   49.4000 N   0  0  0  0  0  0  0  0  0  0  0  0
   64.0810   33.0190   48.8240 C   0  0  0  0  0  0  0  0  0  0  0  0
   63.0570   33.7170   49.4910 C   0  0  0  0  0  0  0  0  0  0  0  0
   61.7510   33.7280   48.9920 C   0  0  0  0  0  0  0  0  0  0  0  0
   61.4430   33.0600   47.8020 C   0  0  0  0  0  0  0  0  0  0  0  0
   60.0980   33.0750   47.2980 N   0  0  0  0  0  0  0  0  0  0  0  0
   59.7690   33.6650   46.1600 N   0  0  0  0  0  0  0  0  0  0  0  0
   58.4290   33.5830   46.0300 C   0  0  0  0  0  0  0  0  0  0  0  0
   57.6580   34.1970   44.9070 C   0  0  0  0  0  0  0  0  0  0  0  0
   56.3850   34.5190   45.3450 F   0  0  0  0  0  0  0  0  0  0  0  0
   58.2910   35.3460   44.4690 F   0  0  0  0  0  0  0  0  0  0  0  0
   57.5670   33.3020   43.8560 F   0  0  0  0  0  0  0  0  0  0  0  0
   57.8850   32.9410   47.1290 C   0  0  0  0  0  0  0  0  0  0  0  0
   58.9790   32.6170   47.9100 C   0  0  0  0  0  0  0  0  0  0  0  0
   58.9260   31.8410   49.1690 C   0  0  0  0  0  0  0  0  0  0  0  0
   59.5780   30.6010   49.2720 C   0  0  0  0  0  0  0  0  0  0  0  0
   59.5350   29.8820   50.4670 C   0  0  0  0  0  0  0  0  0  0  0  0
   58.8300   30.3820   51.5650 C   0  0  0  0  0  0  0  0  0  0  0  0
   58.1370   31.6010   51.4690 C   0  0  0  0  0  0  0  0  0  0  0  0
   57.4230   32.1760   52.6650 C   0  0  0  0  0  0  0  0  0  0  0  0
   58.0560   31.7950   53.8360 F   0  0  0  0  0  0  0  0  0  0  0  0
   57.4040   33.5590   52.6100 F   0  0  0  0  0  0  0  0  0  0  0  0
   56.1230   31.7090   52.6840 F   0  0  0  0  0  0  0  0  0  0  0  0
   58.2030   32.3300   50.2680 C   0  0  0  0  0  0  0  0  0  0  0  0
   62.4490   32.3460   47.1370 C   0  0  0  0  0  0  0  0  0  0  0  0
   63.7530   32.3250   47.6350 C   0  0  0  0  0  0  0  0  0  0  0  0
   65.6482   35.0363   53.3629 H   0  0  0  0  0  0  0  0  0  0  0  0
   65.4840   35.9740   51.8396 H   0  0  0  0  0  0  0  0  0  0  0  0
   65.1901   34.2019   51.8396 H   0  0  0  0  0  0  0  0  0  0  0  0
   67.7304   35.7082   51.6252 H   0  0  0  0  0  0  0  0  0  0  0  0
   67.7681   34.4050   52.8756 H   0  0  0  0  0  0  0  0  0  0  0  0
   69.4389   33.2542   51.3194 H   0  0  0  0  0  0  0  0  0  0  0  0
   68.8865   32.9117   49.6330 H   0  0  0  0  0  0  0  0  0  0  0  0
   69.6418   35.5809   50.8883 H   0  0  0  0  0  0  0  0  0  0  0  0
   70.2940   34.8041   49.4058 H   0  0  0  0  0  0  0  0  0  0  0  0
   68.6321   35.4859   49.4058 H   0  0  0  0  0  0  0  0  0  0  0  0
   67.6518   31.6628   51.2406 H   0  0  0  0  0  0  0  0  0  0  0  0
   66.5245   32.5087   52.3668 H   0  0  0  0  0  0  0  0  0  0  0  0
   65.9019   31.0802   49.9475 H   0  0  0  0  0  0  0  0  0  0  0  0
   64.7879   31.9617   51.0758 H   0  0  0  0  0  0  0  0  0  0  0  0
   65.5500   34.0040   49.8170 H   0  0  0  0  0  0  0  0  0  0  0  0
   66.1030   32.9270   48.6210 H   0  0  0  0  0  0  0  0  0  0  0  0
   63.2875   34.2618   50.4184 H   0  0  0  0  0  0  0  0  0  0  0  0
   60.9613   34.2648   49.5381 H   0  0  0  0  0  0  0  0  0  0  0  0
   56.8241   32.7354   47.3343 H   0  0  0  0  0  0  0  0  0  0  0  0
   60.1243   30.1955   48.4076 H   0  0  0  0  0  0  0  0  0  0  0  0
   60.0582   28.9176   50.5451 H   0  0  0  0  0  0  0  0  0  0  0  0
   58.8173   29.8185   52.5096 H   0  0  0  0  0  0  0  0  0  0  0  0
   57.6815   33.2953   50.1891 H   0  0  0  0  0  0  0  0  0  0  0  0
   62.2090   31.7972   46.2144 H   0  0  0  0  0  0  0  0  0  0  0  0
   64.5325   31.7641   47.0985 H   0  0  0  0  0  0  0  0  0  0  0  0
  1  2  1  0
  2  3  1  0
  3  4  1  0
  4  5  1  0
  3  6  1  0
  6  7  1  0
  7  8  1  0
  8  9  1  0
  9 10  2  0
 10 11  1  0
 11 12  2  0
 12 13  1  0
 13 14  1  0
 14 15  2  0
 15 16  1  0
 16 17  1  0
 16 18  1  0
 16 19  1  0
 15 20  1  0
 20 21  2  0
 21 22  1  0
 22 23  2  0
 23 24  1  0
 24 25  2  0
 25 26  1  0
 26 27  1  0
 27 28  1  0
 27 29  1  0
 27 30  1  0
 26 31  2  0
 12 32  1  0
 32 33  2  0
 33  9  1  0
 21 13  1  0
 31 22  1  0
  1 34  1  0
  1 35  1  0
  1 36  1  0
  2 37  1  0
  2 38  1  0
  4 39  1  0
  4 40  1  0
  5 41  1  0
  5 42  1  0
  5 43  1  0
  6 44  1  0
  6 45  1  0
  7 46  1  0
  7 47  1  0
  8 48  1  0
  8 49  1  0
 10 50  1  0
 11 51  1  0
 20 52  1  0
 23 53  1  0
 24 54  1  0
 25 55  1  0
 31 56  1  0
 32 57  1  0
 33 58  1  0
M  CHG  1   8   1
M  END
>  <UniqueID>  (17) 
15

>  <SMILES>  (17) 
CCN(CC)CC[NH2+]c1ccc(-n2nc(C(F)(F)F)cc2-c2cccc(C(F)(F)F)c2)cc1

>  <Energy>  (17) 
102.92780759231471

>  <Genealogy>  (17) 
CCN(CC)CC[NH2+]c1ccc(-n2nc(C(F)(F)F)cc2-c2cccc(C(F)(F)F)c2)cc1 (protonated)
CCN(CC)CC[NH2+]c1ccc(-n2nc(C(F)(F)F)cc2-c2cccc(C(F)(F)F)c2)cc1 (3D coordinates assigned)
CCN(CC)CC[NH2+]c1ccc(-n2nc(C(F)(F)F)cc2-c2cccc(C(F)(F)F)c2)cc1 (optimized conformer: 102.92780759231471 kcal/mol)

>  <smiles>  (17) 
CCN(CC)CCNc1ccc(-n2nc(C(F)(F)F)cc2-c2cccc(C(F)(F)F)c2)cc1

>  <score_type>  (17) 
oracle

>  <origin>  (17) 
adg

>  <m_score__min__energy>  (17) 
-6.3099999999999996

>  <m_primary>  (17) 
energy

$$$$
17:0
     RDKit          3D

 52 54  0  0  0  0  0  0  0  0999 V2000
   56.9687   26.6563   44.4116 H   0  0  0  0  0  0  0  0  0  0  0  0
   57.3800   27.5320   44.9350 C   0  0  0  0  0  0  0  0  0  0  0  0
   58.3390   27.3630   45.9280 C   0  0  0  0  0  0  0  0  0  0  0  0
   58.7101   26.3547   46.1639 H   0  0  0  0  0  0  0  0  0  0  0  0
   58.8340   28.4670   46.6280 C   0  0  0  0  0  0  0  0  0  0  0  0
   59.6172   28.3197   47.3862 H   0  0  0  0  0  0  0  0  0  0  0  0
   58.3450   29.7700   46.3780 C   0  0  0  0  0  0  0  0  0  0  0  0
   58.7570   30.9500   47.0860 C   0  0  0  0  0  0  0  0  0  0  0  0
   59.3480   30.9720   48.2580 N   0  0  0  0  0  0  0  0  0  0  0  0
   60.6850   31.3240   48.7390 C   0  0  0  0  0  0  0  0  0  0  0  0
   61.1790   30.4146   49.1118 H   0  0  0  0  0  0  0  0  0  0  0  0
   60.5724   32.0720   49.5376 H   0  0  0  0  0  0  0  0  0  0  0  0
   61.5530   31.9410   47.6300 C   0  0  0  0  0  0  0  0  0  0  0  0
   61.5558   33.0346   47.7481 H   0  0  0  0  0  0  0  0  0  0  0  0
   61.1252   31.6468   46.6602 H   0  0  0  0  0  0  0  0  0  0  0  0
   63.0090   31.4300   47.6840 C   0  0  0  0  0  0  0  0  0  0  0  0
   63.3028   31.0866   46.6811 H   0  0  0  0  0  0  0  0  0  0  0  0
   63.0550   30.6083   48.4138 H   0  0  0  0  0  0  0  0  0  0  0  0
   63.9540   32.4920   48.1250 N   0  0  0  0  0  0  0  0  0  0  0  0
   64.8550   32.3780   47.6010 H   0  0  0  0  0  0  0  0  0  0  0  0
   63.3960   33.8390   47.8240 C   0  0  0  0  0  0  0  0  0  0  0  0
   64.0084   34.5977   48.3334 H   0  0  0  0  0  0  0  0  0  0  0  0
   62.3550   33.8594   48.1787 H   0  0  0  0  0  0  0  0  0  0  0  0
   63.3860   34.1410   46.3210 C   0  0  0  0  0  0  0  0  0  0  0  0
   63.3500   35.2294   46.1659 H   0  0  0  0  0  0  0  0  0  0  0  0
   64.2981   33.7349   45.8593 H   0  0  0  0  0  0  0  0  0  0  0  0
   62.5028   33.6754   45.8593 H   0  0  0  0  0  0  0  0  0  0  0  0
   64.2260   32.3610   49.5840 C   0  0  0  0  0  0  0  0  0  0  0  0
   63.5667   33.0512   50.1307 H   0  0  0  0  0  0  0  0  0  0  0  0
   64.0370   31.3159   49.8704 H   0  0  0  0  0  0  0  0  0  0  0  0
   65.6830   32.6890   49.9330 C   0  0  0  0  0  0  0  0  0  0  0  0
   65.8011   32.7156   51.0263 H   0  0  0  0  0  0  0  0  0  0  0  0
   66.3437   31.9171   49.5115 H   0  0  0  0  0  0  0  0  0  0  0  0
   65.9492   33.6695   49.5115 H   0  0  0  0  0  0  0  0  0  0  0  0
   58.4130   32.2120   46.5410 C   0  0  0  0  0  0  0  0  0  0  0  0
   57.5410   32.2860   45.4500 C   0  0  0  0  0  0  0  0  0  0  0  0
   57.0600   31.1580   44.8790 N   0  0  0  0  0  0  0  0  0  0  0  0
   57.4370   29.9250   45.2920 C   0  0  0  0  0  0  0  0  0  0  0  0
   56.9420   28.8100   44.6050 C   0  0  0  0  0  0  0  0  0  0  0  0
   56.2036   28.9454   43.8009 H   0  0  0  0  0  0  0  0  0  0  0  0
   57.0910   33.6290   44.9540 C   0  0  0  0  0  0  0  0  0  0  0  0
   56.6452   33.5183   43.9545 H   0  0  0  0  0  0  0  0  0  0  0  0
   56.3452   34.0412   45.6496 H   0  0  0  0  0  0  0  0  0  0  0  0
   58.2880   34.5820   44.8740 C   0  0  0  0  0  0  0  0  0  0  0  0
   58.9293   34.2645   44.0386 H   0  0  0  0  0  0  0  0  0  0  0  0
   57.8832   35.5948   44.7314 H   0  0  0  0  0  0  0  0  0  0  0  0
   59.1460   34.6150   46.1640 C   0  0  0  0  0  0  0  0  0  0  0  0
   60.2011   34.5005   45.8748 H   0  0  0  0  0  0  0  0  0  0  0  0
   58.9283   35.5761   46.6529 H   0  0  0  0  0  0  0  0  0  0  0  0
   58.8120   33.5200   47.1990 C   0  0  0  0  0  0  0  0  0  0  0  0
   59.6975   33.3447   47.8276 H   0  0  0  0  0  0  0  0  0  0  0  0
   57.9588   33.8707   47.7983 H   0  0  0  0  0  0  0  0  0  0  0  0
  1  2  1  0
  2  3  2  0
  3  4  1  0
  3  5  1  0
  5  6  1  0
  5  7  2  0
  7  8  1  0
  8  9  2  0
  9 10  1  0
 10 11  1  0
 10 12  1  0
 10 13  1  0
 13 14  1  0
 13 15  1  0
 13 16  1  0
 16 17  1  0
 16 18  1  0
 16 19  1  0
 19 20  1  0
 19 21  1  0
 21 22  1  0
 21 23  1  0
 21 24  1  0
 24 25  1  0
 24 26  1  0
 24 27  1  0
 19 28  1  0
 28 29  1  0
 28 30  1  0
 28 31  1  0
 31 32  1  0
 31 33  1  0
 31 34  1  0
  8 35  1  0
 35 36  2  0
 36 37  1  0
 37 38  1  0
 38 39  2  0
 39 40  1  0
 36 41  1  0
 41 42  1  0
 41 43  1  0
 41 44  1  0
 44 45  1  0
 44 46  1  0
 44 47  1  0
 47 48  1  0
 47 49  1  0
 47 50  1  0
 50 51  1  0
 50 52  1  0
 39  2  1  0
 38  7  1  0
 50 35  1  0
M  CHG  2  19   1  37  -1
M  END
>  <UniqueID>  (18) 
16

>  <SMILES>  (18) 
CC[NH+](CC)CCC/N=c1/c2c([n-]c3ccccc13)CCCC2

>  <Energy>  (18) 
77.79047033981689

>  <Genealogy>  (18) 
CC[NH+](CC)CCCN=c1c2c([n-]c3ccccc13)CCCC2 (protonated)
CC[NH+](CC)CCC/N=c1/c2c([n-]c3ccccc13)CCCC2 (cis-trans isomerization)
CC[NH+](CC)CCC/N=c1/c2c([n-]c3ccccc13)CCCC2 (3D coordinates assigned)
CC[NH+](CC)CCC/N=c1/c2c([n-]c3ccccc13)CCCC2 (nonaromatic ring conformer: 77.79047033981689 kcal/mol)

>  <smiles>  (18) 
CCN(CC)CCCN=c1c2c([nH]c3ccccc13)CCCC2

>  <score_type>  (18) 
oracle

>  <origin>  (18) 
adg

>  <m_score__min__energy>  (18) 
-7.4800000000000004

>  <m_primary>  (18) 
energy

$$$$
18:0
     RDKit          3D

 32 33  0  0  0  0  0  0  0  0999 V2000
   59.5890   35.2170   45.9520 C   0  0  0  0  0  0  0  0  0  0  0  0
   59.3120   34.0450   45.9050 C   0  0  0  0  0  0  0  0  0  0  0  0
   58.9800   32.6420   45.8480 C   0  0  0  0  0  0  0  0  0  0  0  0
   57.7930   32.2430   45.2270 C   0  0  0  0  0  0  0  0  0  0  0  0
   57.4420   30.8820   45.1510 C   0  0  0  0  0  0  0  0  0  0  0  0
   56.2720   30.4640   44.4940 O   0  0  0  0  0  0  0  0  0  0  0  0
   56.1990   30.0900   43.1220 C   0  0  0  0  0  0  0  0  0  0  0  0
   58.2950   29.9150   45.7250 C   0  0  0  0  0  0  0  0  0  0  0  0
   57.9590   28.4700   45.6910 C   0  0  0  0  0  0  0  0  0  0  0  0
   57.7600   27.6130   46.7620 C   0  0  0  0  0  0  0  0  0  0  0  0
   57.5250   26.3690   46.3020 N   0  0  0  0  0  0  0  0  0  0  0  0
   57.5560   26.4190   44.9800 N   0  0  0  0  0  0  0  0  0  0  0  0
   57.4110   25.2540   44.1190 C   0  0  0  0  0  0  0  0  0  0  0  0
   57.8360   27.6700   44.5700 C   0  0  0  0  0  0  0  0  0  0  0  0
   59.4930   30.3260   46.3380 C   0  0  0  0  0  0  0  0  0  0  0  0
   59.8420   31.6870   46.4060 C   0  0  0  0  0  0  0  0  0  0  0  0
   61.0310   32.1200   47.0180 O   0  0  0  0  0  0  0  0  0  0  0  0
   62.0560   31.2560   47.4970 C   0  0  0  0  0  0  0  0  0  0  0  0
   59.8418   36.2867   45.9949 H   0  0  0  0  0  0  0  0  0  0  0  0
   57.1253   33.0016   44.7926 H   0  0  0  0  0  0  0  0  0  0  0  0
   55.9888   29.0129   43.0462 H   0  0  0  0  0  0  0  0  0  0  0  0
   55.3944   30.6561   42.6299 H   0  0  0  0  0  0  0  0  0  0  0  0
   57.1574   30.3120   42.6299 H   0  0  0  0  0  0  0  0  0  0  0  0
   57.7894   27.9035   47.8225 H   0  0  0  0  0  0  0  0  0  0  0  0
   57.2987   24.3520   44.7384 H   0  0  0  0  0  0  0  0  0  0  0  0
   56.5211   25.3758   43.4840 H   0  0  0  0  0  0  0  0  0  0  0  0
   58.3036   25.1540   43.4840 H   0  0  0  0  0  0  0  0  0  0  0  0
   57.9474   27.9984   43.5261 H   0  0  0  0  0  0  0  0  0  0  0  0
   60.1667   29.5717   46.7705 H   0  0  0  0  0  0  0  0  0  0  0  0
   62.0532   31.2584   48.5970 H   0  0  0  0  0  0  0  0  0  0  0  0
   61.8746   30.2343   47.1321 H   0  0  0  0  0  0  0  0  0  0  0  0
   63.0323   31.6077   47.1321 H   0  0  0  0  0  0  0  0  0  0  0  0
  1  2  3  0
  2  3  1  0
  3  4  2  0
  4  5  1  0
  5  6  1  0
  6  7  1  0
  5  8  2  0
  8  9  1  0
  9 10  1  0
 10 11  2  0
 11 12  1  0
 12 13  1  0
 12 14  1  0
  8 15  1  0
 15 16  2  0
 16 17  1  0
 17 18  1  0
 16  3  1  0
 14  9  2  0
  1 19  1  0
  4 20  1  0
  7 21  1  0
  7 22  1  0
  7 23  1  0
 10 24  1  0
 13 25  1  0
 13 26  1  0
 13 27  1  0
 14 28  1  0
 15 29  1  0
 18 30  1  0
 18 31  1  0
 18 32  1  0
M  END
>  <UniqueID>  (19) 
17

>  <SMILES>  (19) 
C#Cc1cc(OC)c(-c2cnn(C)c2)cc1OC

>  <Energy>  (19) 
62.76785082089921

>  <Genealogy>  (19) 
C#Cc1cc(OC)c(-c2cnn(C)c2)cc1OC (3D coordinates assigned)
C#Cc1cc(OC)c(-c2cnn(C)c2)cc1OC (optimized conformer: 62.76785082089921 kcal/mol)

>  <smiles>  (19) 
C#Cc1cc(OC)c(-c2cnn(C)c2)cc1OC

>  <score_type>  (19) 
oracle

>  <origin>  (19) 
adg

>  <m_score__min__energy>  (19) 
-5.25

>  <m_primary>  (19) 
energy

$$$$
19:0
     RDKit          3D

 25 26  0  0  0  0  0  0  0  0999 V2000
   57.8660   26.1040   47.5110 F   0  0  0  0  0  0  0  0  0  0  0  0
   58.4000   26.8660   46.5240 C   0  0  0  0  0  0  0  0  0  0  0  0
   59.7050   27.3520   46.6440 C   0  0  0  0  0  0  0  0  0  0  0  0
   60.2540   28.1400   45.6300 C   0  0  0  0  0  0  0  0  0  0  0  0
   59.5020   28.4430   44.4920 C   0  0  0  0  0  0  0  0  0  0  0  0
   58.1880   27.9560   44.3580 C   0  0  0  0  0  0  0  0  0  0  0  0
   57.3940   28.2980   43.2010 N   0  0  0  0  0  0  0  0  0  0  0  0
   56.4480   29.3850   43.5000 C   0  0  0  0  0  0  0  0  0  0  0  0
   57.1530   30.7010   43.6950 C   0  0  0  0  0  0  0  0  0  0  0  0
   57.5520   31.5250   42.6300 C   0  0  0  0  0  0  0  0  0  0  0  0
   58.1330   32.7160   43.0400 C   0  0  0  0  0  0  0  0  0  0  0  0
   58.1380   32.7420   44.7200 S   0  0  0  0  0  0  0  0  0  0  0  0
   57.4090   31.2470   44.9480 C   0  0  0  0  0  0  0  0  0  0  0  0
   57.6430   27.1680   45.3880 C   0  0  0  0  0  0  0  0  0  0  0  0
   60.3001   27.1136   47.5379 H   0  0  0  0  0  0  0  0  0  0  0  0
   61.2806   28.5229   45.7275 H   0  0  0  0  0  0  0  0  0  0  0  0
   59.9389   29.0651   43.6969 H   0  0  0  0  0  0  0  0  0  0  0  0
   56.8510   27.4550   42.8990 H   0  0  0  0  0  0  0  0  0  0  0  0
   58.0090   28.5700   42.3990 H   0  0  0  0  0  0  0  0  0  0  0  0
   55.7397   29.4808   42.6638 H   0  0  0  0  0  0  0  0  0  0  0  0
   55.9244   29.1355   44.4346 H   0  0  0  0  0  0  0  0  0  0  0  0
   57.4168   31.2523   41.5729 H   0  0  0  0  0  0  0  0  0  0  0  0
   58.5224   33.5055   42.3805 H   0  0  0  0  0  0  0  0  0  0  0  0
   57.1752   30.7818   45.9170 H   0  0  0  0  0  0  0  0  0  0  0  0
   56.6149   26.7871   45.2991 H   0  0  0  0  0  0  0  0  0  0  0  0
  1  2  1  0
  2  3  2  0
  3  4  1  0
  4  5  2  0
  5  6  1  0
  6  7  1  0
  7  8  1  0
  8  9  1  0
  9 10  1  0
 10 11  2  0
 11 12  1  0
 12 13  1  0
  6 14  2  0
 14  2  1  0
 13  9  2  0
  3 15  1  0
  4 16  1  0
  5 17  1  0
  7 18  1  0
  7 19  1  0
  8 20  1  0
  8 21  1  0
 10 22  1  0
 11 23  1  0
 13 24  1  0
 14 25  1  0
M  CHG  1   7   1
M  END
>  <UniqueID>  (20) 
18

>  <SMILES>  (20) 
Fc1cccc([NH2+]Cc2ccsc2)c1

>  <Energy>  (20) 
50.50143630103489

>  <Genealogy>  (20) 
Fc1cccc([NH2+]Cc2ccsc2)c1 (protonated)
Fc1cccc([NH2+]Cc2ccsc2)c1 (3D coordinates assigned)
Fc1cccc([NH2+]Cc2ccsc2)c1 (optimized conformer: 50.50143630103489 kcal/mol)

>  <smiles>  (20) 
Fc1cccc(NCc2ccsc2)c1

>  <score_type>  (20) 
oracle

>  <origin>  (20) 
adg

>  <m_score__min__energy>  (20) 
-4

>  <m_primary>  (20) 
energy

$$$$
20:0
     RDKit          3D

 32 34  0  0  0  0  0  0  0  0999 V2000
   55.8740   24.5570   45.2100 C   0  0  0  0  0  0  0  0  0  0  0  0
   55.6810   25.7600   45.9470 O   0  0  0  0  0  0  0  0  0  0  0  0
   56.6800   26.7160   46.1820 C   0  0  0  0  0  0  0  0  0  0  0  0
   57.7620   26.3570   46.9920 C   0  0  0  0  0  0  0  0  0  0  0  0
   58.7850   27.2670   47.2600 C   0  0  0  0  0  0  0  0  0  0  0  0
   58.7440   28.5600   46.7190 C   0  0  0  0  0  0  0  0  0  0  0  0
   59.7460   29.4500   46.9830 N   0  0  0  0  0  0  0  0  0  0  0  0
   59.7360   30.7180   46.4760 C   0  0  0  0  0  0  0  0  0  0  0  0
   60.8490   31.6530   46.7810 C   0  0  0  0  0  0  0  0  0  0  0  0
   62.0960   31.1590   47.2070 C   0  0  0  0  0  0  0  0  0  0  0  0
   63.1440   32.0380   47.4950 C   0  0  0  0  0  0  0  0  0  0  0  0
   62.9610   33.4160   47.3630 C   0  0  0  0  0  0  0  0  0  0  0  0
   61.7280   33.9190   46.9410 C   0  0  0  0  0  0  0  0  0  0  0  0
   60.6750   33.0440   46.6510 C   0  0  0  0  0  0  0  0  0  0  0  0
   58.6720   31.1270   45.6590 C   0  0  0  0  0  0  0  0  0  0  0  0
   57.6320   30.2420   45.3690 C   0  0  0  0  0  0  0  0  0  0  0  0
   56.6840   30.6240   44.6310 O   0  0  0  0  0  0  0  0  0  0  0  0
   57.6560   28.9390   45.9000 C   0  0  0  0  0  0  0  0  0  0  0  0
   56.6290   28.0120   45.6350 C   0  0  0  0  0  0  0  0  0  0  0  0
   56.0087   23.7172   45.9076 H   0  0  0  0  0  0  0  0  0  0  0  0
   54.9944   24.3699   44.5765 H   0  0  0  0  0  0  0  0  0  0  0  0
   56.7680   24.6545   44.5765 H   0  0  0  0  0  0  0  0  0  0  0  0
   57.8070   25.3458   47.4227 H   0  0  0  0  0  0  0  0  0  0  0  0
   59.6287   26.9684   47.8995 H   0  0  0  0  0  0  0  0  0  0  0  0
   60.5300   29.1560   47.6100 H   0  0  0  0  0  0  0  0  0  0  0  0
   62.2469   30.0747   47.3140 H   0  0  0  0  0  0  0  0  0  0  0  0
   64.1156   31.6431   47.8266 H   0  0  0  0  0  0  0  0  0  0  0  0
   63.7874   34.1052   47.5912 H   0  0  0  0  0  0  0  0  0  0  0  0
   61.5845   35.0046   46.8365 H   0  0  0  0  0  0  0  0  0  0  0  0
   59.7059   33.4453   46.3196 H   0  0  0  0  0  0  0  0  0  0  0  0
   58.6569   32.1465   45.2462 H   0  0  0  0  0  0  0  0  0  0  0  0
   55.7818   28.3027   44.9965 H   0  0  0  0  0  0  0  0  0  0  0  0
  1  2  1  0
  2  3  1  0
  3  4  2  0
  4  5  1  0
  5  6  2  0
  6  7  1  0
  7  8  1  0
  8  9  1  0
  9 10  2  0
 10 11  1  0
 11 12  2  0
 12 13  1  0
 13 14  2  0
  8 15  2  0
 15 16  1  0
 16 17  2  0
 16 18  1  0
 18 19  2  0
 19  3  1  0
 18  6  1  0
 14  9  1  0
  1 20  1  0
  1 21  1  0
  1 22  1  0
  4 23  1  0
  5 24  1  0
  7 25  1  0
 10 26  1  0
 11 27  1  0
 12 28  1  0
 13 29  1  0
 14 30  1  0
 15 31  1  0
 19 32  1  0
M  END
>  <UniqueID>  (21) 
19

>  <SMILES>  (21) 
COc1ccc2[nH]c(-c3ccccc3)cc(=O)c2c1

>  <Energy>  (21) 
43.87251550597951

>  <Genealogy>  (21) 
COc1ccc2[nH]c(-c3ccccc3)cc(=O)c2c1 (3D coordinates assigned)
COc1ccc2[nH]c(-c3ccccc3)cc(=O)c2c1 (optimized conformer: 43.87251550597951 kcal/mol)

>  <smiles>  (21) 
COc1ccc2[nH]c(-c3ccccc3)cc(=O)c2c1

>  <score_type>  (21) 
oracle

>  <origin>  (21) 
adg

>  <m_score__min__energy>  (21) 
-6.4299999999999997

>  <m_primary>  (21) 
energy

$$$$
21:0
     RDKit          3D

 58 60  0  0  0  0  0  0  0  0999 V2000
   65.3470   32.1330   50.2700 C   0  0  0  0  0  0  0  0  0  0  0  0
   64.0630   31.7760   49.5670 C   0  0  0  0  0  0  0  0  0  0  0  0
   63.3250   30.9610   50.1020 O   0  0  0  0  0  0  0  0  0  0  0  0
   63.6950   32.3350   48.2760 N   0  0  1  0  0  0  0  0  0  0  0  0
   62.5850   31.5730   47.6400 C   0  0  0  0  0  0  0  0  0  0  0  0
   61.7100   32.4560   46.7470 C   0  0  0  0  0  0  0  0  0  0  0  0
   61.0350   33.5490   47.5940 C   0  0  2  0  0  0  0  0  0  0  0  0
   60.3170   34.5650   46.6770 C   0  0  0  0  0  0  0  0  0  0  0  0
   58.9730   34.8720   47.1870 N   0  0  0  0  0  0  0  0  0  0  0  0
   58.1800   33.6590   47.4320 C   0  0  0  0  0  0  0  0  0  0  0  0
   58.1090   32.8490   46.1680 C   0  0  0  0  0  0  0  0  0  0  0  0
   57.8400   33.4600   44.9350 C   0  0  0  0  0  0  0  0  0  0  0  0
   57.7930   32.6950   43.7670 C   0  0  0  0  0  0  0  0  0  0  0  0
   58.0160   31.3160   43.8200 C   0  0  0  0  0  0  0  0  0  0  0  0
   58.2920   30.6860   45.0470 C   0  0  0  0  0  0  0  0  0  0  0  0
   58.5060   29.2170   45.1060 C   0  0  0  0  0  0  0  0  0  0  0  0
   57.9280   28.3950   44.1220 C   0  0  0  0  0  0  0  0  0  0  0  0
   58.0970   27.0110   44.1650 C   0  0  0  0  0  0  0  0  0  0  0  0
   58.8470   26.4290   45.1860 C   0  0  0  0  0  0  0  0  0  0  0  0
   59.4350   27.2300   46.1670 C   0  0  0  0  0  0  0  0  0  0  0  0
   59.2750   28.6300   46.1360 C   0  0  0  0  0  0  0  0  0  0  0  0
   59.8750   29.4590   47.0990 O   0  0  0  0  0  0  0  0  0  0  0  0
   60.3700   29.0180   48.3610 C   0  0  0  0  0  0  0  0  0  0  0  0
   59.9550   30.0060   49.4410 C   0  0  0  0  0  0  0  0  0  0  0  0
   59.5910   31.2120   48.8660 F   0  0  0  0  0  0  0  0  0  0  0  0
   58.3320   31.4640   46.2160 C   0  0  0  0  0  0  0  0  0  0  0  0
   62.0350   34.2380   48.5640 C   0  0  0  0  0  0  0  0  0  0  0  0
   63.4970   33.8070   48.3550 C   0  0  0  0  0  0  0  0  0  0  0  0
   65.1933   32.0903   51.3584 H   0  0  0  0  0  0  0  0  0  0  0  0
   66.1331   31.4194   49.9824 H   0  0  0  0  0  0  0  0  0  0  0  0
   65.6520   33.1500   49.9824 H   0  0  0  0  0  0  0  0  0  0  0  0
   64.5260   32.2030   47.6480 H   0  0  0  0  0  0  0  0  0  0  0  0
   61.9567   31.1373   48.4308 H   0  0  0  0  0  0  0  0  0  0  0  0
   63.0325   30.7931   47.0064 H   0  0  0  0  0  0  0  0  0  0  0  0
   60.9376   31.8374   46.2666 H   0  0  0  0  0  0  0  0  0  0  0  0
   62.3380   32.9292   45.9778 H   0  0  0  0  0  0  0  0  0  0  0  0
   60.2773   33.0701   48.2316 H   0  0  0  0  0  0  0  0  0  0  0  0
   60.9071   35.4924   46.6352 H   0  0  0  0  0  0  0  0  0  0  0  0
   60.2206   34.1260   45.6730 H   0  0  0  0  0  0  0  0  0  0  0  0
   58.4710   35.4460   46.4700 H   0  0  0  0  0  0  0  0  0  0  0  0
   58.6558   33.0627   48.2245 H   0  0  0  0  0  0  0  0  0  0  0  0
   57.1643   33.9399   47.7475 H   0  0  0  0  0  0  0  0  0  0  0  0
   57.6654   34.5450   44.8872 H   0  0  0  0  0  0  0  0  0  0  0  0
   57.5799   33.1793   42.8026 H   0  0  0  0  0  0  0  0  0  0  0  0
   57.9754   30.7199   42.8964 H   0  0  0  0  0  0  0  0  0  0  0  0
   57.3376   28.8473   43.3115 H   0  0  0  0  0  0  0  0  0  0  0  0
   57.6376   26.3776   43.3918 H   0  0  0  0  0  0  0  0  0  0  0  0
   58.9757   25.3371   45.2188 H   0  0  0  0  0  0  0  0  0  0  0  0
   60.0270   26.7653   46.9693 H   0  0  0  0  0  0  0  0  0  0  0  0
   59.9542   28.0261   48.5918 H   0  0  0  0  0  0  0  0  0  0  0  0
   61.4676   28.9553   48.3231 H   0  0  0  0  0  0  0  0  0  0  0  0
   59.1007   29.5967   50.0002 H   0  0  0  0  0  0  0  0  0  0  0  0
   60.8022   30.1724   50.1225 H   0  0  0  0  0  0  0  0  0  0  0  0
   58.5409   30.9813   47.1821 H   0  0  0  0  0  0  0  0  0  0  0  0
   61.7443   33.9907   49.5956 H   0  0  0  0  0  0  0  0  0  0  0  0
   61.9865   35.3181   48.3614 H   0  0  0  0  0  0  0  0  0  0  0  0
   64.0930   34.1903   49.1964 H   0  0  0  0  0  0  0  0  0  0  0  0
   63.8120   34.2201   47.3854 H   0  0  0  0  0  0  0  0  0  0  0  0
  1  2  1  0
  2  3  2  0
  2  4  1  0
  4  5  1  0
  5  6  1  0
  6  7  1  0
  7  8  1  0
  8  9  1  0
  9 10  1  0
 10 11  1  0
 11 12  2  0
 12 13  1  0
 13 14  2  0
 14 15  1  0
 15 16  1  0
 16 17  2  0
 17 18  1  0
 18 19  2  0
 19 20  1  0
 20 21  2  0
 21 22  1  0
 22 23  1  0
 23 24  1  0
 24 25  1  0
 15 26  2  0
  7 27  1  0
 27 28  1  0
 28  4  1  0
 26 11  1  0
 21 16  1  0
  1 29  1  0
  1 30  1  0
  1 31  1  0
  4 32  1  6
  5 33  1  0
  5 34  1  0
  6 35  1  0
  6 36  1  0
  7 37  1  1
  8 38  1  0
  8 39  1  0
  9 40  1  0
 10 41  1  0
 10 42  1  0
 12 43  1  0
 13 44  1  0
 14 45  1  0
 17 46  1  0
 18 47  1  0
 19 48  1  0
 20 49  1  0
 23 50  1  0
 23 51  1  0
 24 52  1  0
 24 53  1  0
 26 54  1  0
 27 55  1  0
 27 56  1  0
 28 57  1  0
 28 58  1  0
M  CHG  1   4   1
M  END
>  <UniqueID>  (22) 
20

>  <SMILES>  (22) 
CC(=O)[NH+]1CCC(CNCc2cccc(-c3ccccc3OCCF)c2)CC1

>  <Energy>  (22) 
67.93878538544472

>  <Genealogy>  (22) 
CC(=O)[NH+]1CCC(CNCc2cccc(-c3ccccc3OCCF)c2)CC1 (protonated)
CC(=O)[NH+]1CCC(CNCc2cccc(-c3ccccc3OCCF)c2)CC1 (3D coordinates assigned)
CC(=O)[NH+]1CCC(CNCc2cccc(-c3ccccc3OCCF)c2)CC1 (nonaromatic ring conformer: 67.93878538544472 kcal/mol)

>  <smiles>  (22) 
CC(=O)N1CCC(CNCc2cccc(-c3ccccc3OCCF)c2)CC1

>  <score_type>  (22) 
oracle

>  <origin>  (22) 
adg

>  <m_score__min__energy>  (22) 
-7.0499999999999998

>  <m_primary>  (22) 
energy

$$$$
22:0
     RDKit          3D

 59 61  0  0  0  0  0  0  0  0999 V2000
   63.1850   32.0400   47.2520 C   0  0  0  0  0  0  0  0  0  0  0  0
   62.7600   32.3280   48.5800 O   0  0  0  0  0  0  0  0  0  0  0  0
   63.5580   32.9440   49.5560 C   0  0  0  0  0  0  0  0  0  0  0  0
   64.9390   32.6900   49.6590 C   0  0  0  0  0  0  0  0  0  0  0  0
   65.7030   33.3250   50.6400 C   0  0  0  0  0  0  0  0  0  0  0  0
   65.0990   34.2090   51.5430 C   0  0  0  0  0  0  0  0  0  0  0  0
   65.9280   34.9220   52.5710 C   0  0  0  0  0  0  0  0  0  0  0  0
   63.7270   34.4770   51.4350 C   0  0  0  0  0  0  0  0  0  0  0  0
   62.9490   33.8470   50.4410 C   0  0  0  0  0  0  0  0  0  0  0  0
   61.5690   34.0770   50.2940 O   0  0  0  0  0  0  0  0  0  0  0  0
   60.5420   33.7790   51.2450 C   0  0  0  0  0  0  0  0  0  0  0  0
   59.8760   32.4210   50.9550 C   0  0  2  0  0  0  0  0  0  0  0  0
   60.8660   31.4330   50.8410 O   0  0  0  0  0  0  0  0  0  0  0  0
   59.0000   32.4730   49.6750 C   0  0  0  0  0  0  0  0  0  0  0  0
   59.7340   32.6150   48.3860 N   0  0  0  0  0  0  0  0  0  0  0  0
   59.9350   31.3080   47.6940 C   0  0  0  0  0  0  0  0  0  0  0  0
   60.0150   31.4500   46.1740 C   0  0  0  0  0  0  0  0  0  0  0  0
   58.8040   32.1160   45.6980 N   0  0  0  0  0  0  0  0  0  0  0  0
   58.0700   31.5880   44.5840 C   0  0  0  0  0  0  0  0  0  0  0  0
   58.1100   32.2500   43.3490 C   0  0  0  0  0  0  0  0  0  0  0  0
   57.3990   31.7480   42.2570 C   0  0  0  0  0  0  0  0  0  0  0  0
   56.6390   30.5850   42.3940 C   0  0  0  0  0  0  0  0  0  0  0  0
   56.5840   29.9220   43.6230 C   0  0  0  0  0  0  0  0  0  0  0  0
   57.2960   30.4210   44.7320 C   0  0  0  0  0  0  0  0  0  0  0  0
   57.2480   29.7990   45.9900 O   0  0  0  0  0  0  0  0  0  0  0  0
   57.9640   28.6190   46.3370 C   0  0  0  0  0  0  0  0  0  0  0  0
   58.2930   33.2930   46.4050 C   0  0  0  0  0  0  0  0  0  0  0  0
   59.2530   33.7340   47.5270 C   0  0  0  0  0  0  0  0  0  0  0  0
   64.0952   31.4232   47.2840 H   0  0  0  0  0  0  0  0  0  0  0  0
   62.3902   31.4936   46.7230 H   0  0  0  0  0  0  0  0  0  0  0  0
   63.3979   32.9807   46.7230 H   0  0  0  0  0  0  0  0  0  0  0  0
   65.4190   31.9870   48.9623 H   0  0  0  0  0  0  0  0  0  0  0  0
   66.7837   33.1302   50.7040 H   0  0  0  0  0  0  0  0  0  0  0  0
   65.5920   34.6330   53.5777 H   0  0  0  0  0  0  0  0  0  0  0  0
   66.9855   34.6469   52.4444 H   0  0  0  0  0  0  0  0  0  0  0  0
   65.8142   36.0087   52.4444 H   0  0  0  0  0  0  0  0  0  0  0  0
   63.2532   35.1846   52.1313 H   0  0  0  0  0  0  0  0  0  0  0  0
   60.9849   33.7515   52.2515 H   0  0  0  0  0  0  0  0  0  0  0  0
   59.7718   34.5613   51.1754 H   0  0  0  0  0  0  0  0  0  0  0  0
   59.2068   32.1745   51.7925 H   0  0  0  0  0  0  0  0  0  0  0  0
   61.6490   31.8550   50.3990 H   0  0  0  0  0  0  0  0  0  0  0  0
   58.4160   31.5419   49.6289 H   0  0  0  0  0  0  0  0  0  0  0  0
   58.3897   33.3832   49.7703 H   0  0  0  0  0  0  0  0  0  0  0  0
   60.7000   32.9090   48.6760 H   0  0  0  0  0  0  0  0  0  0  0  0
   60.8722   30.8593   48.0551 H   0  0  0  0  0  0  0  0  0  0  0  0
   59.0654   30.6744   47.9227 H   0  0  0  0  0  0  0  0  0  0  0  0
   60.8968   32.0499   45.9048 H   0  0  0  0  0  0  0  0  0  0  0  0
   60.1016   30.4563   45.7102 H   0  0  0  0  0  0  0  0  0  0  0  0
   58.7042   33.1692   43.2396 H   0  0  0  0  0  0  0  0  0  0  0  0
   57.4378   32.2689   41.2889 H   0  0  0  0  0  0  0  0  0  0  0  0
   56.0818   30.1893   41.5320 H   0  0  0  0  0  0  0  0  0  0  0  0
   55.9824   29.0068   43.7251 H   0  0  0  0  0  0  0  0  0  0  0  0
   58.0173   28.5312   47.4322 H   0  0  0  0  0  0  0  0  0  0  0  0
   57.4462   27.7410   45.9235 H   0  0  0  0  0  0  0  0  0  0  0  0
   58.9819   28.6728   45.9235 H   0  0  0  0  0  0  0  0  0  0  0  0
   58.1767   34.1190   45.6879 H   0  0  0  0  0  0  0  0  0  0  0  0
   57.3256   33.0320   46.8590 H   0  0  0  0  0  0  0  0  0  0  0  0
   60.1271   34.2162   47.0650 H   0  0  0  0  0  0  0  0  0  0  0  0
   58.6889   34.4169   48.1792 H   0  0  0  0  0  0  0  0  0  0  0  0
  1  2  1  0
  2  3  1  0
  3  4  2  0
  4  5  1  0
  5  6  2  0
  6  7  1  0
  6  8  1  0
  8  9  2  0
  9 10  1  0
 10 11  1  0
 11 12  1  0
 12 13  1  0
 12 14  1  0
 14 15  1  0
 15 16  1  0
 16 17  1  0
 17 18  1  0
 18 19  1  0
 19 20  2  0
 20 21  1  0
 21 22  2  0
 22 23  1  0
 23 24  2  0
 24 25  1  0
 25 26  1  0
 18 27  1  0
 27 28  1  0
  9  3  1  0
 28 15  1  0
 24 19  1  0
  1 29  1  0
  1 30  1  0
  1 31  1  0
  4 32  1  0
  5 33  1  0
  7 34  1  0
  7 35  1  0
  7 36  1  0
  8 37  1  0
 11 38  1  0
 11 39  1  0
 12 40  1  1
 13 41  1  0
 14 42  1  0
 14 43  1  0
 15 44  1  0
 16 45  1  0
 16 46  1  0
 17 47  1  0
 17 48  1  0
 20 49  1  0
 21 50  1  0
 22 51  1  0
 23 52  1  0
 26 53  1  0
 26 54  1  0
 26 55  1  0
 27 56  1  0
 27 57  1  0
 28 58  1  0
 28 59  1  0
M  CHG  1  15   1
M  END
>  <UniqueID>  (23) 
21

>  <SMILES>  (23) 
COc1ccc(C)cc1OC[C@H](O)C[NH+]1CCN(c2ccccc2OC)CC1

>  <Energy>  (23) 
76.29038498127953

>  <Genealogy>  (23) 
COc1ccc(C)cc1OCC(O)C[NH+]1CCN(c2ccccc2OC)CC1 (protonated)
COc1ccc(C)cc1OC[C@H](O)C[NH+]1CCN(c2ccccc2OC)CC1 (chirality)
COc1ccc(C)cc1OC[C@H](O)C[NH+]1CCN(c2ccccc2OC)CC1 (3D coordinates assigned)
COc1ccc(C)cc1OC[C@H](O)C[NH+]1CCN(c2ccccc2OC)CC1 (nonaromatic ring conformer: 76.29038498127953 kcal/mol)

>  <smiles>  (23) 
COc1ccc(C)cc1OCC(O)CN1CCN(c2ccccc2OC)CC1

>  <score_type>  (23) 
oracle

>  <origin>  (23) 
adg

>  <m_score__min__energy>  (23) 
-5.2199999999999998

>  <m_primary>  (23) 
energy

$$$$
23:0
     RDKit          3D

 37 38  0  0  0  0  0  0  0  0999 V2000
   55.8550   24.0550   44.7600 C   0  0  0  0  0  0  0  0  0  0  0  0
   54.8650   24.8180   45.6360 C   0  0  0  0  0  0  0  0  0  0  0  0
   55.3790   26.1500   45.9880 N   0  0  0  0  0  0  0  0  0  0  0  0
   56.8450   26.2550   45.8740 C   0  0  0  0  0  0  0  0  0  0  0  0
   57.3770   27.3920   46.7560 C   0  0  0  0  0  0  0  0  0  0  0  0
   58.0050   28.5400   45.9490 C   0  0  0  0  0  0  0  0  0  0  0  0
   57.0150   29.5500   45.5660 N   0  0  0  0  0  0  0  0  0  0  0  0
   57.2770   30.6250   44.6370 C   0  0  0  0  0  0  0  0  0  0  0  0
   56.9920   30.4520   43.2700 C   0  0  0  0  0  0  0  0  0  0  0  0
   57.2490   31.4670   42.3490 C   0  0  0  0  0  0  0  0  0  0  0  0
   57.7980   32.6740   42.7700 C   0  0  0  0  0  0  0  0  0  0  0  0
   58.0910   32.8830   44.1220 C   0  0  0  0  0  0  0  0  0  0  0  0
   58.6280   34.1110   44.5390 C   0  0  0  0  0  0  0  0  0  0  0  0
   58.9010   34.3400   45.8870 C   0  0  0  0  0  0  0  0  0  0  0  0
   58.6400   33.3490   46.8310 C   0  0  0  0  0  0  0  0  0  0  0  0
   58.1100   32.1180   46.4350 C   0  0  0  0  0  0  0  0  0  0  0  0
   57.8340   31.8570   45.0740 C   0  0  0  0  0  0  0  0  0  0  0  0
   56.5643   23.5084   45.3988 H   0  0  0  0  0  0  0  0  0  0  0  0
   55.3088   23.3420   44.1249 H   0  0  0  0  0  0  0  0  0  0  0  0
   56.4054   24.7648   44.1249 H   0  0  0  0  0  0  0  0  0  0  0  0
   53.9173   24.9326   45.0894 H   0  0  0  0  0  0  0  0  0  0  0  0
   54.7124   24.2483   46.5645 H   0  0  0  0  0  0  0  0  0  0  0  0
   55.1160   26.3310   46.9860 H   0  0  0  0  0  0  0  0  0  0  0  0
   57.3010   25.3064   46.1936 H   0  0  0  0  0  0  0  0  0  0  0  0
   57.1040   26.4689   44.8266 H   0  0  0  0  0  0  0  0  0  0  0  0
   56.5420   27.7960   47.3473 H   0  0  0  0  0  0  0  0  0  0  0  0
   58.1676   26.9693   47.3934 H   0  0  0  0  0  0  0  0  0  0  0  0
   58.7828   29.0199   46.5611 H   0  0  0  0  0  0  0  0  0  0  0  0
   58.4287   28.1143   45.0275 H   0  0  0  0  0  0  0  0  0  0  0  0
   56.0760   29.4800   46.0170 H   0  0  0  0  0  0  0  0  0  0  0  0
   56.5600   29.5019   42.9227 H   0  0  0  0  0  0  0  0  0  0  0  0
   57.0166   31.3127   41.2850 H   0  0  0  0  0  0  0  0  0  0  0  0
   58.0027   33.4677   42.0365 H   0  0  0  0  0  0  0  0  0  0  0  0
   58.8347   34.8973   43.7980 H   0  0  0  0  0  0  0  0  0  0  0  0
   59.3231   35.3045   46.2057 H   0  0  0  0  0  0  0  0  0  0  0  0
   58.8523   33.5366   47.8939 H   0  0  0  0  0  0  0  0  0  0  0  0
   57.9057   31.3447   47.1902 H   0  0  0  0  0  0  0  0  0  0  0  0
  1  2  1  0
  2  3  1  0
  3  4  1  0
  4  5  1  0
  5  6  1  0
  6  7  1  0
  7  8  1  0
  8  9  2  0
  9 10  1  0
 10 11  2  0
 11 12  1  0
 12 13  2  0
 13 14  1  0
 14 15  2  0
 15 16  1  0
 16 17  2  0
 17  8  1  0
 17 12  1  0
  1 18  1  0
  1 19  1  0
  1 20  1  0
  2 21  1  0
  2 22  1  0
  3 23  1  0
  4 24  1  0
  4 25  1  0
  5 26  1  0
  5 27  1  0
  6 28  1  0
  6 29  1  0
  7 30  1  0
  9 31  1  0
 10 32  1  0
 11 33  1  0
 13 34  1  0
 14 35  1  0
 15 36  1  0
 16 37  1  0
M  END
>  <UniqueID>  (24) 
22

>  <SMILES>  (24) 
CCNCCCNc1cccc2ccccc12

>  <Energy>  (24) 
36.334330263126375

>  <Genealogy>  (24) 
CCNCCCNc1cccc2ccccc12 (3D coordinates assigned)
CCNCCCNc1cccc2ccccc12 (optimized conformer: 36.334330263126375 kcal/mol)

>  <smiles>  (24) 
CCNCCCNc1cccc2ccccc12

>  <score_type>  (24) 
oracle

>  <origin>  (24) 
adg

>  <m_score__min__energy>  (24) 
-6.5800000000000001

>  <m_primary>  (24) 
energy

$$$$
24:0
     RDKit          3D

 31 33  0  0  0  0  0  0  0  0999 V2000
   59.8110   30.7560   48.1560 C   0  0  0  0  0  0  0  0  0  0  0  0
   58.5160   30.8020   47.5640 O   0  0  0  0  0  0  0  0  0  0  0  0
   58.2630   31.1140   46.2190 C   0  0  0  0  0  0  0  0  0  0  0  0
   57.8830   32.4100   45.8190 C   0  0  0  0  0  0  0  0  0  0  0  0
   57.6070   32.6860   44.4790 C   0  0  0  0  0  0  0  0  0  0  0  0
   57.7210   31.6810   43.5120 C   0  0  0  0  0  0  0  0  0  0  0  0
   57.3900   31.9700   42.0770 C   0  0  0  0  0  0  0  0  0  0  0  0
   58.0880   30.3870   43.9030 C   0  0  0  0  0  0  0  0  0  0  0  0
   58.3710   30.0950   45.2480 C   0  0  0  0  0  0  0  0  0  0  0  0
   58.7680   28.7630   45.6220 N   0  0  0  0  0  0  0  0  0  0  0  0
   60.0280   28.2920   45.8190 C   0  0  0  0  0  0  0  0  0  0  0  0
   60.0670   26.9700   46.1390 N   0  0  0  0  0  0  0  0  0  0  0  0
   58.7670   26.6200   46.1360 C   0  0  0  0  0  0  0  0  0  0  0  0
   58.2040   25.3800   46.4130 C   0  0  0  0  0  0  0  0  0  0  0  0
   56.8000   25.2830   46.3590 C   0  0  0  0  0  0  0  0  0  0  0  0
   56.0280   26.4260   46.0380 C   0  0  0  0  0  0  0  0  0  0  0  0
   54.7730   26.3440   45.9930 O   0  0  0  0  0  0  0  0  0  0  0  0
   56.6370   27.6230   45.7760 N   0  0  0  0  0  0  0  0  0  0  0  0
   57.9920   27.6880   45.8230 C   0  0  0  0  0  0  0  0  0  0  0  0
   59.7136   30.7595   49.2517 H   0  0  0  0  0  0  0  0  0  0  0  0
   60.3278   29.8389   47.8367 H   0  0  0  0  0  0  0  0  0  0  0  0
   60.3915   31.6341   47.8367 H   0  0  0  0  0  0  0  0  0  0  0  0
   57.8031   33.2110   46.5687 H   0  0  0  0  0  0  0  0  0  0  0  0
   57.2982   33.6990   44.1815 H   0  0  0  0  0  0  0  0  0  0  0  0
   56.5621   32.6928   42.0301 H   0  0  0  0  0  0  0  0  0  0  0  0
   58.2733   32.3911   41.5746 H   0  0  0  0  0  0  0  0  0  0  0  0
   57.0919   31.0380   41.5746 H   0  0  0  0  0  0  0  0  0  0  0  0
   58.1555   29.5898   43.1481 H   0  0  0  0  0  0  0  0  0  0  0  0
   60.9278   28.9182   45.7286 H   0  0  0  0  0  0  0  0  0  0  0  0
   58.8290   24.5103   46.6640 H   0  0  0  0  0  0  0  0  0  0  0  0
   56.3048   24.3227   46.5655 H   0  0  0  0  0  0  0  0  0  0  0  0
  1  2  1  0
  2  3  1  0
  3  4  2  0
  4  5  1  0
  5  6  2  0
  6  7  1  0
  6  8  1  0
  8  9  2  0
  9 10  1  0
 10 11  1  0
 11 12  2  0
 12 13  1  0
 13 14  1  0
 14 15  2  0
 15 16  1  0
 16 17  2  0
 16 18  1  0
 18 19  1  0
  9  3  1  0
 19 10  1  0
 19 13  2  0
  1 20  1  0
  1 21  1  0
  1 22  1  0
  4 23  1  0
  5 24  1  0
  7 25  1  0
  7 26  1  0
  7 27  1  0
  8 28  1  0
 11 29  1  0
 14 30  1  0
 15 31  1  0
M  CHG  1  18  -1
M  END
>  <UniqueID>  (25) 
23

>  <SMILES>  (25) 
COc1ccc(C)cc1-n1cnc2ccc(=O)[n-]c21

>  <Energy>  (25) 
77.57442089518614

>  <Genealogy>  (25) 
COc1ccc(C)cc1-n1cnc2ccc(=O)[n-]c21 (protonated)
COc1ccc(C)cc1-n1cnc2ccc(=O)[n-]c21 (3D coordinates assigned)
COc1ccc(C)cc1-n1cnc2ccc(=O)[n-]c21 (optimized conformer: 77.57442089518614 kcal/mol)

>  <smiles>  (25) 
COc1ccc(C)cc1-n1cnc2ccc(=O)[nH]c21

>  <score_type>  (25) 
oracle

>  <origin>  (25) 
adg

>  <m_score__min__energy>  (25) 
-8.1400000000000006

>  <m_primary>  (25) 
energy

$$$$
25:0
     RDKit          3D

 55 59  0  0  0  0  0  0  0  0999 V2000
   55.8825   30.6495   43.3841 H   0  0  0  0  0  0  0  0  0  0  0  0
   56.9210   30.3530   43.5930 C   0  0  0  0  0  0  0  0  0  0  0  0
   57.8940   31.2360   43.3300 C   0  0  0  0  0  0  0  0  0  0  0  0
   58.8300   30.8828   42.8726 H   0  0  0  0  0  0  0  0  0  0  0  0
   57.7370   32.7030   43.6460 C   0  0  0  0  0  0  0  0  0  0  0  0
   58.1636   33.2854   42.8161 H   0  0  0  0  0  0  0  0  0  0  0  0
   56.6615   32.8918   43.7789 H   0  0  0  0  0  0  0  0  0  0  0  0
   58.4080   33.1120   44.8980 N   0  0  0  0  0  0  0  0  0  0  0  0
   59.2470   34.3150   44.7350 C   0  0  0  0  0  0  0  0  0  0  0  0
   60.0528   34.0955   44.0191 H   0  0  0  0  0  0  0  0  0  0  0  0
   58.6116   35.1340   44.3669 H   0  0  0  0  0  0  0  0  0  0  0  0
   59.8730   34.7500   46.0800 C   0  0  0  0  0  0  0  0  0  0  0  0
   60.9446   34.9429   45.9237 H   0  0  0  0  0  0  0  0  0  0  0  0
   59.3429   35.6529   46.4174 H   0  0  0  0  0  0  0  0  0  0  0  0
   59.7250   33.7200   47.1390 N   0  0  0  0  0  0  0  0  0  0  0  0
   60.0450   34.1720   48.0300 H   0  0  0  0  0  0  0  0  0  0  0  0
   60.6170   32.5310   46.8770 C   0  0  0  0  0  0  0  0  0  0  0  0
   60.6245   32.4871   45.7779 H   0  0  0  0  0  0  0  0  0  0  0  0
   60.1650   31.2300   47.5230 C   0  0  0  0  0  0  0  0  0  0  0  0
   59.1460   30.3690   47.0960 C   0  0  0  0  0  0  0  0  0  0  0  0
   58.5188   30.6320   46.2315 H   0  0  0  0  0  0  0  0  0  0  0  0
   58.9370   29.1650   47.7880 C   0  0  0  0  0  0  0  0  0  0  0  0
   58.1126   28.4998   47.4916 H   0  0  0  0  0  0  0  0  0  0  0  0
   59.7760   28.8050   48.8580 C   0  0  0  0  0  0  0  0  0  0  0  0
   59.5932   27.8699   49.4077 H   0  0  0  0  0  0  0  0  0  0  0  0
   60.8450   29.6350   49.2260 C   0  0  0  0  0  0  0  0  0  0  0  0
   61.5316   29.3447   50.0349 H   0  0  0  0  0  0  0  0  0  0  0  0
   61.0160   30.8390   48.5400 C   0  0  0  0  0  0  0  0  0  0  0  0
   62.1300   31.7560   48.5770 C   0  0  0  0  0  0  0  0  0  0  0  0
   63.2900   31.7070   49.3540 C   0  0  0  0  0  0  0  0  0  0  0  0
   63.4129   30.9432   50.1360 H   0  0  0  0  0  0  0  0  0  0  0  0
   64.2940   32.6560   49.1120 C   0  0  0  0  0  0  0  0  0  0  0  0
   65.2082   32.6548   49.7237 H   0  0  0  0  0  0  0  0  0  0  0  0
   64.1360   33.6090   48.0900 C   0  0  0  0  0  0  0  0  0  0  0  0
   64.9322   34.3441   47.9010 H   0  0  0  0  0  0  0  0  0  0  0  0
   62.9690   33.6290   47.3090 C   0  0  0  0  0  0  0  0  0  0  0  0
   62.8510   34.3640   46.4991 H   0  0  0  0  0  0  0  0  0  0  0  0
   61.9580   32.6980   47.5780 C   0  0  0  0  0  0  0  0  0  0  0  0
   58.2750   33.4450   47.3490 C   0  0  0  0  0  0  0  0  0  0  0  0
   58.1779   32.5267   47.9468 H   0  0  0  0  0  0  0  0  0  0  0  0
   57.8501   34.3221   47.8591 H   0  0  0  0  0  0  0  0  0  0  0  0
   57.4860   33.2580   46.0340 C   0  0  0  0  0  0  0  0  0  0  0  0
   56.8612   32.3560   46.1116 H   0  0  0  0  0  0  0  0  0  0  0  0
   56.8542   34.1431   45.8686 H   0  0  0  0  0  0  0  0  0  0  0  0
   57.1620   29.0000   44.1490 C   0  0  0  0  0  0  0  0  0  0  0  0
   57.8870   28.0750   43.3790 C   0  0  0  0  0  0  0  0  0  0  0  0
   58.2524   28.3626   42.3821 H   0  0  0  0  0  0  0  0  0  0  0  0
   58.1480   26.7910   43.8700 C   0  0  0  0  0  0  0  0  0  0  0  0
   58.7096   26.0719   43.2556 H   0  0  0  0  0  0  0  0  0  0  0  0
   57.6970   26.4210   45.1380 C   0  0  0  0  0  0  0  0  0  0  0  0
   57.8983   25.4094   45.5203 H   0  0  0  0  0  0  0  0  0  0  0  0
   56.9900   27.3360   45.9210 C   0  0  0  0  0  0  0  0  0  0  0  0
   56.6397   27.0450   46.9223 H   0  0  0  0  0  0  0  0  0  0  0  0
   56.7260   28.6200   45.4370 C   0  0  0  0  0  0  0  0  0  0  0  0
   56.1758   29.3383   46.0626 H   0  0  0  0  0  0  0  0  0  0  0  0
  1  2  1  0
  2  3  2  0
  3  4  1  0
  3  5  1  0
  5  6  1  0
  5  7  1  0
  5  8  1  0
  8  9  1  0
  9 10  1  0
  9 11  1  0
  9 12  1  0
 12 13  1  0
 12 14  1  0
 12 15  1  0
 15 16  1  0
 15 17  1  0
 17 18  1  0
 17 19  1  0
 19 20  2  0
 20 21  1  0
 20 22  1  0
 22 23  1  0
 22 24  2  0
 24 25  1  0
 24 26  1  0
 26 27  1  0
 26 28  2  0
 28 29  1  0
 29 30  2  0
 30 31  1  0
 30 32  1  0
 32 33  1  0
 32 34  2  0
 34 35  1  0
 34 36  1  0
 36 37  1  0
 36 38  2  0
 15 39  1  0
 39 40  1  0
 39 41  1  0
 39 42  1  0
 42 43  1  0
 42 44  1  0
  2 45  1  0
 45 46  2  0
 46 47  1  0
 46 48  1  0
 48 49  1  0
 48 50  2  0
 50 51  1  0
 50 52  1  0
 52 53  1  0
 52 54  2  0
 54 55  1  0
 42  8  1  0
 54 45  1  0
 38 17  1  0
 28 19  1  0
 38 29  1  0
M  CHG  1  15   1
M  END
>  <UniqueID>  (26) 
24

>  <SMILES>  (26) 
C(=C/c1ccccc1)\CN1CC[NH+](C2c3ccccc3-c3ccccc32)CC1

>  <Energy>  (26) 
108.17545383671073

>  <Genealogy>  (26) 
C(=Cc1ccccc1)CN1CC[NH+](C2c3ccccc3-c3ccccc32)CC1 (protonated)
C(=C/c1ccccc1)\CN1CC[NH+](C2c3ccccc3-c3ccccc32)CC1 (cis-trans isomerization)
C(=C/c1ccccc1)\CN1CC[NH+](C2c3ccccc3-c3ccccc32)CC1 (3D coordinates assigned)
C(=C/c1ccccc1)\CN1CC[NH+](C2c3ccccc3-c3ccccc32)CC1 (nonaromatic ring conformer: 108.17545383671073 kcal/mol)

>  <smiles>  (26) 
C(=Cc1ccccc1)CN1CCN(C2c3ccccc3-c3ccccc32)CC1

>  <score_type>  (26) 
oracle

>  <origin>  (26) 
adg

>  <m_score__min__energy>  (26) 
-8.1999999999999993

>  <m_primary>  (26) 
energy

$$$$
26:0
     RDKit          3D

 67 70  0  0  0  0  0  0  0  0999 V2000
   61.7990   34.3470   49.2680 C   0  0  0  0  0  0  0  0  0  0  0  0
   60.9380   33.2380   48.7950 N   0  0  1  0  0  0  0  0  0  0  0  0
   60.9310   33.0650   47.3120 C   0  0  0  0  0  0  0  0  0  0  0  0
   59.6310   33.4640   46.6440 C   0  0  0  0  0  0  0  0  0  0  0  0
   59.6470   34.2740   45.4880 C   0  0  0  0  0  0  0  0  0  0  0  0
   58.4550   34.6190   44.8530 C   0  0  0  0  0  0  0  0  0  0  0  0
   57.2310   34.1820   45.3730 C   0  0  0  0  0  0  0  0  0  0  0  0
   57.2060   33.3820   46.5210 C   0  0  0  0  0  0  0  0  0  0  0  0
   58.4010   33.0220   47.1600 C   0  0  0  0  0  0  0  0  0  0  0  0
   61.2320   31.9360   49.4910 C   0  0  0  0  0  0  0  0  0  0  0  0
   60.0860   31.4280   50.4280 C   0  0  0  0  0  0  0  0  0  0  0  0
   59.0150   30.5340   49.7590 C   0  0  0  0  0  0  0  0  0  0  0  0
   59.4300   30.0110   48.4370 N   0  0  0  0  0  0  0  0  0  0  0  0
   58.5430   28.9130   47.9790 C   0  0  0  0  0  0  0  0  0  0  0  0
   59.3750   27.6730   47.6080 C   0  0  0  0  0  0  0  0  0  0  0  0
   59.6670   27.5700   46.1010 C   0  0  0  0  0  0  0  0  0  0  0  0
   58.4350   27.6710   45.2980 N   0  0  0  0  0  0  0  0  0  0  0  0
   57.5670   26.5260   45.1710 C   0  0  0  0  0  0  0  0  0  0  0  0
   57.7530   25.6190   44.1120 C   0  0  0  0  0  0  0  0  0  0  0  0
   56.8710   24.5450   43.9540 C   0  0  0  0  0  0  0  0  0  0  0  0
   55.8070   24.3660   44.8450 C   0  0  0  0  0  0  0  0  0  0  0  0
   54.9430   23.3330   44.6800 F   0  0  0  0  0  0  0  0  0  0  0  0
   55.6260   25.2530   45.9030 C   0  0  0  0  0  0  0  0  0  0  0  0
   56.4970   26.3360   46.0710 C   0  0  0  0  0  0  0  0  0  0  0  0
   58.0970   28.8990   44.6130 C   0  0  0  0  0  0  0  0  0  0  0  0
   58.8080   30.0910   44.8600 C   0  0  0  0  0  0  0  0  0  0  0  0
   58.5010   31.2630   44.1590 C   0  0  0  0  0  0  0  0  0  0  0  0
   57.4510   31.2740   43.2460 C   0  0  0  0  0  0  0  0  0  0  0  0
   57.1240   32.4220   42.6090 F   0  0  0  0  0  0  0  0  0  0  0  0
   56.7180   30.1090   43.0140 C   0  0  0  0  0  0  0  0  0  0  0  0
   57.0420   28.9250   43.6830 C   0  0  0  0  0  0  0  0  0  0  0  0
   60.8400   29.5870   48.4600 C   0  0  0  0  0  0  0  0  0  0  0  0
   61.7420   30.8290   48.5140 C   0  0  0  0  0  0  0  0  0  0  0  0
   61.8090   34.3599   50.3679 H   0  0  0  0  0  0  0  0  0  0  0  0
   62.8231   34.2015   48.8937 H   0  0  0  0  0  0  0  0  0  0  0  0
   61.4042   35.3030   48.8937 H   0  0  0  0  0  0  0  0  0  0  0  0
   59.9540   33.5180   49.0470 H   0  0  0  0  0  0  0  0  0  0  0  0
   61.7386   33.6808   46.8895 H   0  0  0  0  0  0  0  0  0  0  0  0
   61.0673   31.9906   47.1195 H   0  0  0  0  0  0  0  0  0  0  0  0
   60.6053   34.6349   45.0861 H   0  0  0  0  0  0  0  0  0  0  0  0
   58.4762   35.2354   43.9422 H   0  0  0  0  0  0  0  0  0  0  0  0
   56.2900   34.4671   44.8799 H   0  0  0  0  0  0  0  0  0  0  0  0
   56.2436   33.0337   46.9242 H   0  0  0  0  0  0  0  0  0  0  0  0
   58.3757   32.3949   48.0634 H   0  0  0  0  0  0  0  0  0  0  0  0
   62.0658   32.1695   50.1695 H   0  0  0  0  0  0  0  0  0  0  0  0
   60.5473   30.8499   51.2423 H   0  0  0  0  0  0  0  0  0  0  0  0
   59.5540   32.3299   50.7648 H   0  0  0  0  0  0  0  0  0  0  0  0
   58.8082   29.6813   50.4224 H   0  0  0  0  0  0  0  0  0  0  0  0
   58.1244   31.1590   49.5968 H   0  0  0  0  0  0  0  0  0  0  0  0
   57.8427   28.6518   48.7861 H   0  0  0  0  0  0  0  0  0  0  0  0
   57.9870   29.2492   47.0914 H   0  0  0  0  0  0  0  0  0  0  0  0
   60.3324   27.7197   48.1476 H   0  0  0  0  0  0  0  0  0  0  0  0
   58.7863   26.7873   47.8890 H   0  0  0  0  0  0  0  0  0  0  0  0
   60.3476   28.3849   45.8134 H   0  0  0  0  0  0  0  0  0  0  0  0
   60.1230   26.5880   45.9068 H   0  0  0  0  0  0  0  0  0  0  0  0
   58.5894   25.7539   43.4104 H   0  0  0  0  0  0  0  0  0  0  0  0
   57.0146   23.8370   43.1245 H   0  0  0  0  0  0  0  0  0  0  0  0
   54.7960   25.1023   46.6090 H   0  0  0  0  0  0  0  0  0  0  0  0
   56.3473   27.0385   46.9042 H   0  0  0  0  0  0  0  0  0  0  0  0
   59.6118   30.1001   45.6109 H   0  0  0  0  0  0  0  0  0  0  0  0
   59.0902   32.1760   44.3300 H   0  0  0  0  0  0  0  0  0  0  0  0
   55.8807   30.1226   42.3008 H   0  0  0  0  0  0  0  0  0  0  0  0
   56.4685   28.0083   43.4809 H   0  0  0  0  0  0  0  0  0  0  0  0
   61.0215   28.9621   49.3469 H   0  0  0  0  0  0  0  0  0  0  0  0
   61.0654   29.0067   47.5531 H   0  0  0  0  0  0  0  0  0  0  0  0
   62.7452   30.5153   48.8384 H   0  0  0  0  0  0  0  0  0  0  0  0
   61.7440   31.2678   47.5053 H   0  0  0  0  0  0  0  0  0  0  0  0
  1  2  1  0
  2  3  1  0
  3  4  1  0
  4  5  2  0
  5  6  1  0
  6  7  2  0
  7  8  1  0
  8  9  2  0
  2 10  1  0
 10 11  1  0
 11 12  1  0
 12 13  1  0
 13 14  1  0
 14 15  1  0
 15 16  1  0
 16 17  1  0
 17 18  1  0
 18 19  2  0
 19 20  1  0
 20 21  2  0
 21 22  1  0
 21 23  1  0
 23 24  2  0
 17 25  1  0
 25 26  2  0
 26 27  1  0
 27 28  2  0
 28 29  1  0
 28 30  1  0
 30 31  2  0
 13 32  1  0
 32 33  1  0
  9  4  1  0
 33 10  1  0
 24 18  1  0
 31 25  1  0
  1 34  1  0
  1 35  1  0
  1 36  1  0
  2 37  1  1
  3 38  1  0
  3 39  1  0
  5 40  1  0
  6 41  1  0
  7 42  1  0
  8 43  1  0
  9 44  1  0
 10 45  1  0
 11 46  1  0
 11 47  1  0
 12 48  1  0
 12 49  1  0
 14 50  1  0
 14 51  1  0
 15 52  1  0
 15 53  1  0
 16 54  1  0
 16 55  1  0
 19 56  1  0
 20 57  1  0
 23 58  1  0
 24 59  1  0
 26 60  1  0
 27 61  1  0
 30 62  1  0
 31 63  1  0
 32 64  1  0
 32 65  1  0
 33 66  1  0
 33 67  1  0
M  CHG  1   2   1
M  END
>  <UniqueID>  (27) 
25

>  <SMILES>  (27) 
C[N@@H+](Cc1ccccc1)C1CCN(CCCN(c2ccc(F)cc2)c2ccc(F)cc2)CC1

>  <Energy>  (27) 
97.75589821558313

>  <Genealogy>  (27) 
C[NH+](Cc1ccccc1)C1CCN(CCCN(c2ccc(F)cc2)c2ccc(F)cc2)CC1 (protonated)
C[N@@H+](Cc1ccccc1)C1CCN(CCCN(c2ccc(F)cc2)c2ccc(F)cc2)CC1 (chirality)
C[N@@H+](Cc1ccccc1)C1CCN(CCCN(c2ccc(F)cc2)c2ccc(F)cc2)CC1 (3D coordinates assigned)
C[N@@H+](Cc1ccccc1)C1CCN(CCCN(c2ccc(F)cc2)c2ccc(F)cc2)CC1 (nonaromatic ring conformer: 97.75589821558313 kcal/mol)

>  <smiles>  (27) 
CN(Cc1ccccc1)C1CCN(CCCN(c2ccc(F)cc2)c2ccc(F)cc2)CC1

>  <score_type>  (27) 
oracle

>  <origin>  (27) 
adg

>  <m_score__min__energy>  (27) 
-7.0099999999999998

>  <m_primary>  (27) 
energy

$$$$
27:0
     RDKit          3D

 52 54  0  0  0  0  0  0  0  0999 V2000
   65.9590   32.4510   50.1290 C   0  0  0  0  0  0  0  0  0  0  0  0
   64.5080   32.0480   50.4160 C   0  0  0  0  0  0  0  0  0  0  0  0
   63.5220   32.7860   49.5800 N   0  0  0  0  0  0  0  0  0  0  0  0
   62.9020   33.9420   50.2820 C   0  0  0  0  0  0  0  0  0  0  0  0
   61.8480   33.5600   51.3310 C   0  0  0  0  0  0  0  0  0  0  0  0
   64.1300   33.2060   48.2880 C   0  0  0  0  0  0  0  0  0  0  0  0
   63.3070   32.7480   47.0760 C   0  0  0  0  0  0  0  0  0  0  0  0
   62.2750   31.8120   47.5100 N   0  0  0  0  0  0  0  0  0  0  0  0
   60.9740   32.2140   47.9530 C   0  0  0  0  0  0  0  0  0  0  0  0
   60.6080   31.9330   49.1250 O   0  0  0  0  0  0  0  0  0  0  0  0
   60.0840   33.0180   47.0920 C   0  0  0  0  0  0  0  0  0  0  0  0
   60.2770   34.4070   47.1480 C   0  0  0  0  0  0  0  0  0  0  0  0
   59.6560   35.2540   46.2380 C   0  0  0  0  0  0  0  0  0  0  0  0
   58.8520   34.7300   45.2350 C   0  0  0  0  0  0  0  0  0  0  0  0
   58.6140   33.3500   45.1600 C   0  0  0  0  0  0  0  0  0  0  0  0
   57.8160   32.8580   44.1170 C   0  0  0  0  0  0  0  0  0  0  0  0
   57.5640   31.4970   44.0380 C   0  0  0  0  0  0  0  0  0  0  0  0
   58.0230   30.6290   44.9930 C   0  0  0  0  0  0  0  0  0  0  0  0
   58.7960   31.0730   46.0880 C   0  0  0  0  0  0  0  0  0  0  0  0
   59.1310   30.0850   47.1820 C   0  0  0  0  0  0  0  0  0  0  0  0
   59.1800   32.4600   46.1330 C   0  0  0  0  0  0  0  0  0  0  0  0
   57.5580   29.2410   44.7130 C   0  0  0  0  0  0  0  0  0  0  0  0
   56.8620   29.3350   43.3450 C   0  0  0  0  0  0  0  0  0  0  0  0
   56.7530   30.8270   42.9960 C   0  0  0  0  0  0  0  0  0  0  0  0
   66.4931   32.5993   51.0791 H   0  0  0  0  0  0  0  0  0  0  0  0
   66.4529   31.6560   49.5510 H   0  0  0  0  0  0  0  0  0  0  0  0
   65.9722   33.3868   49.5510 H   0  0  0  0  0  0  0  0  0  0  0  0
   64.3980   30.9714   50.2191 H   0  0  0  0  0  0  0  0  0  0  0  0
   64.2995   32.2973   51.4669 H   0  0  0  0  0  0  0  0  0  0  0  0
   62.7350   32.1260   49.3670 H   0  0  0  0  0  0  0  0  0  0  0  0
   63.7004   34.5057   50.7868 H   0  0  0  0  0  0  0  0  0  0  0  0
   62.3792   34.5305   49.5136 H   0  0  0  0  0  0  0  0  0  0  0  0
   62.2625   33.7102   52.3388 H   0  0  0  0  0  0  0  0  0  0  0  0
   60.9572   34.1924   51.2029 H   0  0  0  0  0  0  0  0  0  0  0  0
   61.5692   32.5037   51.2029 H   0  0  0  0  0  0  0  0  0  0  0  0
   64.2014   34.3036   48.2718 H   0  0  0  0  0  0  0  0  0  0  0  0
   65.1218   32.7357   48.2162 H   0  0  0  0  0  0  0  0  0  0  0  0
   62.8337   33.6215   46.6038 H   0  0  0  0  0  0  0  0  0  0  0  0
   63.9692   32.2512   46.3516 H   0  0  0  0  0  0  0  0  0  0  0  0
   60.9301   34.8319   47.9245 H   0  0  0  0  0  0  0  0  0  0  0  0
   59.8018   36.3417   46.3126 H   0  0  0  0  0  0  0  0  0  0  0  0
   58.3978   35.4029   44.4928 H   0  0  0  0  0  0  0  0  0  0  0  0
   57.3941   33.5453   43.3689 H   0  0  0  0  0  0  0  0  0  0  0  0
   58.9712   30.5561   48.1631 H   0  0  0  0  0  0  0  0  0  0  0  0
   58.4822   29.2016   47.0895 H   0  0  0  0  0  0  0  0  0  0  0  0
   60.1833   29.7784   47.0895 H   0  0  0  0  0  0  0  0  0  0  0  0
   58.4105   28.5472   44.6684 H   0  0  0  0  0  0  0  0  0  0  0  0
   56.8879   28.8589   45.4972 H   0  0  0  0  0  0  0  0  0  0  0  0
   57.4568   28.8114   42.5821 H   0  0  0  0  0  0  0  0  0  0  0  0
   55.8672   28.8668   43.3786 H   0  0  0  0  0  0  0  0  0  0  0  0
   57.1618   31.0254   41.9942 H   0  0  0  0  0  0  0  0  0  0  0  0
   55.7123   31.1826   42.9747 H   0  0  0  0  0  0  0  0  0  0  0  0
  1  2  1  0
  2  3  1  0
  3  4  1  0
  4  5  1  0
  3  6  1  0
  6  7  1  0
  7  8  1  0
  8  9  1  0
  9 10  2  0
  9 11  1  0
 11 12  2  0
 12 13  1  0
 13 14  2  0
 14 15  1  0
 15 16  2  0
 16 17  1  0
 17 18  2  0
 18 19  1  0
 19 20  1  0
 19 21  2  0
 18 22  1  0
 22 23  1  0
 23 24  1  0
 21 11  1  0
 21 15  1  0
 24 17  1  0
  1 25  1  0
  1 26  1  0
  1 27  1  0
  2 28  1  0
  2 29  1  0
  3 30  1  0
  4 31  1  0
  4 32  1  0
  5 33  1  0
  5 34  1  0
  5 35  1  0
  6 36  1  0
  6 37  1  0
  7 38  1  0
  7 39  1  0
 12 40  1  0
 13 41  1  0
 14 42  1  0
 16 43  1  0
 20 44  1  0
 20 45  1  0
 20 46  1  0
 22 47  1  0
 22 48  1  0
 23 49  1  0
 23 50  1  0
 24 51  1  0
 24 52  1  0
M  CHG  2   3   1   8  -1
M  END
>  <UniqueID>  (28) 
26

>  <SMILES>  (28) 
CC[NH+](CC)CC[N-]C(=O)c1cccc2cc3c(c(C)c12)CCC3

>  <Energy>  (28) 
78.4587667392661

>  <Genealogy>  (28) 
CC[NH+](CC)CC[N-]C(=O)c1cccc2cc3c(c(C)c12)CCC3 (protonated)
CC[NH+](CC)CC[N-]C(=O)c1cccc2cc3c(c(C)c12)CCC3 (3D coordinates assigned)
CC[NH+](CC)CC[N-]C(=O)c1cccc2cc3c(c(C)c12)CCC3 (nonaromatic ring conformer: 78.4587667392661 kcal/mol)

>  <smiles>  (28) 
CCN(CC)CCNC(=O)c1cccc2cc3c(c(C)c12)CCC3

>  <score_type>  (28) 
oracle

>  <origin>  (28) 
adg

>  <m_score__min__energy>  (28) 
-8.5299999999999994

>  <m_primary>  (28) 
energy

$$$$
28:0
     RDKit          3D

 31 32  0  0  0  0  0  0  0  0999 V2000
   59.3261   35.1878   46.9267 H   0  0  0  0  0  0  0  0  0  0  0  0
   58.8780   34.4050   46.2970 C   0  0  0  0  0  0  0  0  0  0  0  0
   58.2250   33.3210   46.8890 C   0  0  0  0  0  0  0  0  0  0  0  0
   58.1589   33.2513   47.9848 H   0  0  0  0  0  0  0  0  0  0  0  0
   57.6550   32.3240   46.0900 C   0  0  0  0  0  0  0  0  0  0  0  0
   57.1392   31.4735   46.5597 H   0  0  0  0  0  0  0  0  0  0  0  0
   57.7390   32.4050   44.6890 C   0  0  0  0  0  0  0  0  0  0  0  0
   57.1020   31.3430   43.8340 C   0  0  0  0  0  0  0  0  0  0  0  0
   57.8857   30.8115   43.2744 H   0  0  0  0  0  0  0  0  0  0  0  0
   56.3969   31.8231   43.1395 H   0  0  0  0  0  0  0  0  0  0  0  0
   56.3690   30.3850   44.6620 N   0  0  0  0  0  0  0  0  0  0  0  0
   56.8830   29.3110   45.1880 C   0  0  0  0  0  0  0  0  0  0  0  0
   58.1570   29.3130   45.6670 N   0  0  0  0  0  0  0  0  0  0  0  0
   58.7100   28.1990   46.2150 C   0  0  0  0  0  0  0  0  0  0  0  0
   60.1080   28.2450   46.7420 C   0  0  0  0  0  0  0  0  0  0  0  0
   60.0855   28.2443   47.8418 H   0  0  0  0  0  0  0  0  0  0  0  0
   60.6632   27.3646   46.3860 H   0  0  0  0  0  0  0  0  0  0  0  0
   60.6041   29.1600   46.3860 H   0  0  0  0  0  0  0  0  0  0  0  0
   57.9550   27.0270   46.3010 C   0  0  0  0  0  0  0  0  0  0  0  0
   58.3781   26.1199   46.7572 H   0  0  0  0  0  0  0  0  0  0  0  0
   56.6510   27.0290   45.7960 C   0  0  0  0  0  0  0  0  0  0  0  0
   55.8010   25.7980   45.9060 C   0  0  0  0  0  0  0  0  0  0  0  0
   55.6364   25.5597   46.9672 H   0  0  0  0  0  0  0  0  0  0  0  0
   54.8325   25.9761   45.4157 H   0  0  0  0  0  0  0  0  0  0  0  0
   56.3107   24.9555   45.4157 H   0  0  0  0  0  0  0  0  0  0  0  0
   56.1360   28.1730   45.2620 N   0  0  0  0  0  0  0  0  0  0  0  0
   55.1530   28.1810   44.9030 H   0  0  0  0  0  0  0  0  0  0  0  0
   58.3950   33.5000   44.1010 C   0  0  0  0  0  0  0  0  0  0  0  0
   58.4628   33.5748   43.0056 H   0  0  0  0  0  0  0  0  0  0  0  0
   58.9620   34.4950   44.9040 C   0  0  0  0  0  0  0  0  0  0  0  0
   59.4749   35.3498   44.4390 H   0  0  0  0  0  0  0  0  0  0  0  0
  1  2  1  0
  2  3  2  0
  3  4  1  0
  3  5  1  0
  5  6  1  0
  5  7  2  0
  7  8  1  0
  8  9  1  0
  8 10  1  0
  8 11  1  0
 11 12  2  0
 12 13  1  0
 13 14  2  0
 14 15  1  0
 15 16  1  0
 15 17  1  0
 15 18  1  0
 14 19  1  0
 19 20  1  0
 19 21  2  0
 21 22  1  0
 22 23  1  0
 22 24  1  0
 22 25  1  0
 21 26  1  0
 26 27  1  0
  7 28  1  0
 28 29  1  0
 28 30  2  0
 30 31  1  0
 30  2  1  0
 26 12  1  0
M  END
>  <UniqueID>  (29) 
27

>  <SMILES>  (29) 
Cc1cc(C)[nH]/c(=N/Cc2ccccc2)n1

>  <Energy>  (29) 
28.331168115990433

>  <Genealogy>  (29) 
Cc1cc(C)[nH]/c(=N/Cc2ccccc2)n1 (cis-trans isomerization)
Cc1cc(C)[nH]/c(=N/Cc2ccccc2)n1 (3D coordinates assigned)
Cc1cc(C)[nH]/c(=N/Cc2ccccc2)n1 (optimized conformer: 28.331168115990433 kcal/mol)

>  <smiles>  (29) 
Cc1cc(C)[nH]c(=NCc2ccccc2)n1

>  <score_type>  (29) 
oracle

>  <origin>  (29) 
adg

>  <m_score__min__energy>  (29) 
-6.7999999999999998

>  <m_primary>  (29) 
energy

$$$$
29:0
     RDKit          3D

 40 41  0  0  0  0  0  0  0  0999 V2000
   59.3040   35.3060   45.1830 C   0  0  0  0  0  0  0  0  0  0  0  0
   58.4840   34.0680   44.9700 C   0  0  0  0  0  0  0  0  0  0  0  0
   58.5250   33.3960   43.7420 C   0  0  0  0  0  0  0  0  0  0  0  0
   57.7830   32.2290   43.5790 C   0  0  0  0  0  0  0  0  0  0  0  0
   57.0270   31.7480   44.6460 C   0  0  0  0  0  0  0  0  0  0  0  0
   56.2780   30.5780   44.4920 O   0  0  0  0  0  0  0  0  0  0  0  0
   56.8430   29.3570   44.0260 C   0  0  0  0  0  0  0  0  0  0  0  0
   58.0720   29.0100   44.8750 C   0  0  0  0  0  0  0  0  0  0  0  0
   57.9500   29.4520   46.2750 N   0  0  0  0  0  0  0  0  0  0  0  0
   59.2370   29.6440   46.9670 C   0  0  0  0  0  0  0  0  0  0  0  0
   59.6190   31.1460   47.0820 C   0  0  2  0  0  0  0  0  0  0  0  0
   61.1430   31.3390   47.2500 C   0  0  0  0  0  0  0  0  0  0  0  0
   61.4850   32.6890   47.9040 C   0  0  0  0  0  0  0  0  0  0  0  0
   60.3260   33.6860   47.7570 C   0  0  0  0  0  0  0  0  0  0  0  0
   59.1110   33.2400   48.3460 O   0  0  0  0  0  0  0  0  0  0  0  0
   58.9000   31.8330   48.2680 C   0  0  0  0  0  0  0  0  0  0  0  0
   57.0330   32.4270   45.8250 N   0  0  0  0  0  0  0  0  0  0  0  0
   57.7410   33.5460   45.9870 N   0  0  0  0  0  0  0  0  0  0  0  0
   59.4231   35.4858   46.2616 H   0  0  0  0  0  0  0  0  0  0  0  0
   60.2939   35.1740   44.7218 H   0  0  0  0  0  0  0  0  0  0  0  0
   58.7963   36.1659   44.7218 H   0  0  0  0  0  0  0  0  0  0  0  0
   59.1368   33.7859   42.9151 H   0  0  0  0  0  0  0  0  0  0  0  0
   57.7936   31.6928   42.6186 H   0  0  0  0  0  0  0  0  0  0  0  0
   56.0985   28.5517   44.1110 H   0  0  0  0  0  0  0  0  0  0  0  0
   57.1420   29.4678   42.9732 H   0  0  0  0  0  0  0  0  0  0  0  0
   58.2091   27.9186   44.8630 H   0  0  0  0  0  0  0  0  0  0  0  0
   58.9325   29.5377   44.4380 H   0  0  0  0  0  0  0  0  0  0  0  0
   57.4200   30.3550   46.2970 H   0  0  0  0  0  0  0  0  0  0  0  0
   59.1631   29.2181   47.9785 H   0  0  0  0  0  0  0  0  0  0  0  0
   60.0173   29.1395   46.3783 H   0  0  0  0  0  0  0  0  0  0  0  0
   59.2948   31.6135   46.1405 H   0  0  0  0  0  0  0  0  0  0  0  0
   61.5360   30.5288   47.8818 H   0  0  0  0  0  0  0  0  0  0  0  0
   61.5998   31.3210   46.2495 H   0  0  0  0  0  0  0  0  0  0  0  0
   61.6872   32.5288   48.9733 H   0  0  0  0  0  0  0  0  0  0  0  0
   62.3696   33.1061   47.4006 H   0  0  0  0  0  0  0  0  0  0  0  0
   60.6182   34.6316   48.2370 H   0  0  0  0  0  0  0  0  0  0  0  0
   60.1372   33.8034   46.6797 H   0  0  0  0  0  0  0  0  0  0  0  0
   59.2631   31.3779   49.2013 H   0  0  0  0  0  0  0  0  0  0  0  0
   57.8214   31.6844   48.1113 H   0  0  0  0  0  0  0  0  0  0  0  0
   57.7170   34.0240   46.9150 H   0  0  0  0  0  0  0  0  0  0  0  0
  1  2  1  0
  2  3  2  0
  3  4  1  0
  4  5  2  0
  5  6  1  0
  6  7  1  0
  7  8  1  0
  8  9  1  0
  9 10  1  0
 10 11  1  0
 11 12  1  0
 12 13  1  0
 13 14  1  0
 14 15  1  0
 15 16  1  0
  5 17  1  0
 17 18  2  0
 18  2  1  0
 16 11  1  0
  1 19  1  0
  1 20  1  0
  1 21  1  0
  3 22  1  0
  4 23  1  0
  7 24  1  0
  7 25  1  0
  8 26  1  0
  8 27  1  0
  9 28  1  0
 10 29  1  0
 10 30  1  0
 11 31  1  6
 12 32  1  0
 12 33  1  0
 13 34  1  0
 13 35  1  0
 14 36  1  0
 14 37  1  0
 16 38  1  0
 16 39  1  0
 18 40  1  0
M  CHG  1  18   1
M  END
>  <UniqueID>  (30) 
28

>  <SMILES>  (30) 
Cc1ccc(OCCNC[C@@H]2CCCOC2)n[nH+]1

>  <Energy>  (30) 
48.32650201755485

>  <Genealogy>  (30) 
Cc1ccc(OCCNCC2CCCOC2)n[nH+]1 (protonated)
Cc1ccc(OCCNC[C@@H]2CCCOC2)n[nH+]1 (chirality)
Cc1ccc(OCCNC[C@@H]2CCCOC2)n[nH+]1 (3D coordinates assigned)
Cc1ccc(OCCNC[C@@H]2CCCOC2)n[nH+]1 (nonaromatic ring conformer: 48.32650201755485 kcal/mol)

>  <smiles>  (30) 
Cc1ccc(OCCNCC2CCCOC2)nn1

>  <score_type>  (30) 
oracle

>  <origin>  (30) 
adg

>  <m_score__min__energy>  (30) 
-5.6699999999999999

>  <m_primary>  (30) 
energy

$$$$
30:0
     RDKit          3D

 42 44  0  0  0  0  0  0  0  0999 V2000
   58.1450   27.1320   43.0450 C   0  0  0  0  0  0  0  0  0  0  0  0
   57.7760   26.4740   44.3460 C   0  0  0  0  0  0  0  0  0  0  0  0
   57.6220   25.0780   44.3940 C   0  0  0  0  0  0  0  0  0  0  0  0
   57.2780   24.4430   45.5900 C   0  0  0  0  0  0  0  0  0  0  0  0
   57.0730   25.1950   46.7460 C   0  0  0  0  0  0  0  0  0  0  0  0
   57.2120   26.5840   46.7120 C   0  0  0  0  0  0  0  0  0  0  0  0
   57.5720   27.2380   45.5200 C   0  0  0  0  0  0  0  0  0  0  0  0
   57.6760   28.6730   45.4850 N   0  0  0  0  0  0  0  0  0  0  0  0
   56.6110   29.5360   45.0650 C   0  0  0  0  0  0  0  0  0  0  0  0
   55.4580   29.0730   44.8520 O   0  0  0  0  0  0  0  0  0  0  0  0
   56.8620   30.9370   44.9200 N   0  0  0  0  0  0  0  0  0  0  0  0
   58.1580   31.5620   45.1800 C   0  0  1  0  0  0  0  0  0  0  0  0
   58.1440   33.0550   44.7360 C   0  0  0  0  0  0  0  0  0  0  0  0
   59.1700   33.9260   45.5140 C   0  0  1  0  0  0  0  0  0  0  0  0
   58.5080   34.5790   46.7390 C   0  0  0  0  0  0  0  0  0  0  0  0
   58.7490   33.5870   47.8660 C   0  0  0  0  0  0  0  0  0  0  0  0
   59.5250   32.4410   47.1980 C   0  0  1  0  0  0  0  0  0  0  0  0
   58.5470   31.3520   46.6710 C   0  0  0  0  0  0  0  0  0  0  0  0
   60.2080   33.0290   46.0400 N   0  0  0  0  0  0  0  0  0  0  0  0
   61.4390   33.7490   46.4140 C   0  0  0  0  0  0  0  0  0  0  0  0
   58.6738   28.0749   43.2480 H   0  0  0  0  0  0  0  0  0  0  0  0
   58.7989   26.4619   42.4677 H   0  0  0  0  0  0  0  0  0  0  0  0
   57.2322   27.3405   42.4677 H   0  0  0  0  0  0  0  0  0  0  0  0
   57.7735   24.4806   43.4829 H   0  0  0  0  0  0  0  0  0  0  0  0
   57.1688   23.3488   45.6196 H   0  0  0  0  0  0  0  0  0  0  0  0
   56.8013   24.6932   47.6864 H   0  0  0  0  0  0  0  0  0  0  0  0
   57.0384   27.1718   47.6254 H   0  0  0  0  0  0  0  0  0  0  0  0
   58.5500   29.1240   45.8370 H   0  0  0  0  0  0  0  0  0  0  0  0
   58.9423   31.0807   44.5773 H   0  0  0  0  0  0  0  0  0  0  0  0
   58.3830   33.1047   43.6634 H   0  0  0  0  0  0  0  0  0  0  0  0
   57.1417   33.4542   44.9504 H   0  0  0  0  0  0  0  0  0  0  0  0
   59.5670   34.6975   44.8378 H   0  0  0  0  0  0  0  0  0  0  0  0
   58.9765   35.5481   46.9654 H   0  0  0  0  0  0  0  0  0  0  0  0
   57.4392   34.7853   46.5805 H   0  0  0  0  0  0  0  0  0  0  0  0
   59.3446   34.0457   48.6691 H   0  0  0  0  0  0  0  0  0  0  0  0
   57.8143   33.2463   48.3353 H   0  0  0  0  0  0  0  0  0  0  0  0
   60.2175   31.9783   47.9165 H   0  0  0  0  0  0  0  0  0  0  0  0
   59.0282   30.3682   46.7735 H   0  0  0  0  0  0  0  0  0  0  0  0
   57.6246   31.4191   47.2665 H   0  0  0  0  0  0  0  0  0  0  0  0
   61.5181   33.7952   47.5102 H   0  0  0  0  0  0  0  0  0  0  0  0
   62.3121   33.2192   46.0054 H   0  0  0  0  0  0  0  0  0  0  0  0
   61.4052   34.7698   46.0054 H   0  0  0  0  0  0  0  0  0  0  0  0
  1  2  1  0
  2  3  2  0
  3  4  1  0
  4  5  2  0
  5  6  1  0
  6  7  2  0
  7  8  1  0
  8  9  1  0
  9 10  2  0
  9 11  1  0
 11 12  1  0
 12 13  1  0
 13 14  1  0
 14 15  1  0
 15 16  1  0
 16 17  1  0
 17 18  1  0
 17 19  1  0
 19 20  1  0
  7  2  1  0
 18 12  1  0
 19 14  1  0
  1 21  1  0
  1 22  1  0
  1 23  1  0
  3 24  1  0
  4 25  1  0
  5 26  1  0
  6 27  1  0
  8 28  1  0
 12 29  1  6
 13 30  1  0
 13 31  1  0
 14 32  1  6
 15 33  1  0
 15 34  1  0
 16 35  1  0
 16 36  1  0
 17 37  1  1
 18 38  1  0
 18 39  1  0
 20 40  1  0
 20 41  1  0
 20 42  1  0
M  CHG  1  11  -1
M  END
>  <UniqueID>  (31) 
29

>  <SMILES>  (31) 
Cc1ccccc1NC(=O)[N-]C1C[C@H]2CC[C@@H](C1)N2C

>  <Energy>  (31) 
61.19670936657698

>  <Genealogy>  (31) 
Cc1ccccc1NC(=O)[N-]C1CC2CCC(C1)N2C (protonated)
Cc1ccccc1NC(=O)[N-]C1C[C@H]2CC[C@@H](C1)N2C (chirality)
Cc1ccccc1NC(=O)[N-]C1C[C@H]2CC[C@@H](C1)N2C (3D coordinates assigned)
Cc1ccccc1NC(=O)[N-]C1C[C@H]2CC[C@@H](C1)N2C (nonaromatic ring conformer: 61.19670936657698 kcal/mol)

>  <smiles>  (31) 
Cc1ccccc1NC(=O)NC1CC2CCC(C1)N2C

>  <score_type>  (31) 
oracle

>  <origin>  (31) 
adg

>  <m_score__min__energy>  (31) 
-9.5299999999999994

>  <m_primary>  (31) 
energy

$$$$
31:0
     RDKit          3D

 33 34  0  0  0  0  0  0  0  0999 V2000
   57.0600   28.4170   45.5080 C   0  0  0  0  0  0  0  0  0  0  0  0
   56.4230   29.6580   45.2300 O   0  0  0  0  0  0  0  0  0  0  0  0
   56.8350   30.5670   44.2420 C   0  0  0  0  0  0  0  0  0  0  0  0
   56.5600   30.3530   42.8760 C   0  0  0  0  0  0  0  0  0  0  0  0
   57.0340   31.2460   41.9120 C   0  0  0  0  0  0  0  0  0  0  0  0
   57.7900   32.3550   42.2950 C   0  0  0  0  0  0  0  0  0  0  0  0
   58.0630   32.5820   43.6440 C   0  0  0  0  0  0  0  0  0  0  0  0
   57.5690   31.7110   44.6260 C   0  0  0  0  0  0  0  0  0  0  0  0
   57.8730   31.9670   46.0050 N   0  0  0  0  0  0  0  0  0  0  0  0
   58.9250   31.2910   46.7080 C   0  0  0  0  0  0  0  0  0  0  0  0
   59.3450   30.1740   46.3010 O   0  0  0  0  0  0  0  0  0  0  0  0
   59.5580   31.9310   47.9040 C   0  0  0  0  0  0  0  0  0  0  0  0
   60.9800   32.3220   47.5780 C   0  0  0  0  0  0  0  0  0  0  0  0
   62.0500   31.5590   48.0880 C   0  0  0  0  0  0  0  0  0  0  0  0
   61.8180   30.4490   48.8340 F   0  0  0  0  0  0  0  0  0  0  0  0
   63.3710   31.9400   47.8370 C   0  0  0  0  0  0  0  0  0  0  0  0
   63.6420   33.0860   47.0890 C   0  0  0  0  0  0  0  0  0  0  0  0
   62.5930   33.8580   46.5890 C   0  0  0  0  0  0  0  0  0  0  0  0
   61.2640   33.4890   46.8300 C   0  0  0  0  0  0  0  0  0  0  0  0
   59.9900   34.5210   46.1910 Cl  0  0  0  0  0  0  0  0  0  0  0  0
   57.1316   28.2774   46.5968 H   0  0  0  0  0  0  0  0  0  0  0  0
   56.4715   27.5968   45.0711 H   0  0  0  0  0  0  0  0  0  0  0  0
   58.0695   28.4171   45.0711 H   0  0  0  0  0  0  0  0  0  0  0  0
   55.9690   29.4781   42.5675 H   0  0  0  0  0  0  0  0  0  0  0  0
   56.8109   31.0748   40.8486 H   0  0  0  0  0  0  0  0  0  0  0  0
   58.1708   33.0505   41.5326 H   0  0  0  0  0  0  0  0  0  0  0  0
   58.6701   33.4504   43.9397 H   0  0  0  0  0  0  0  0  0  0  0  0
   57.2630   32.6270   46.5370 H   0  0  0  0  0  0  0  0  0  0  0  0
   58.9868   32.8284   48.1839 H   0  0  0  0  0  0  0  0  0  0  0  0
   59.5587   31.2180   48.7416 H   0  0  0  0  0  0  0  0  0  0  0  0
   64.2002   31.3339   48.2307 H   0  0  0  0  0  0  0  0  0  0  0  0
   64.6834   33.3811   46.8933 H   0  0  0  0  0  0  0  0  0  0  0  0
   62.8113   34.7622   46.0018 H   0  0  0  0  0  0  0  0  0  0  0  0
  1  2  1  0
  2  3  1  0
  3  4  2  0
  4  5  1  0
  5  6  2  0
  6  7  1  0
  7  8  2  0
  8  9  1  0
  9 10  1  0
 10 11  2  0
 10 12  1  0
 12 13  1  0
 13 14  2  0
 14 15  1  0
 14 16  1  0
 16 17  2  0
 17 18  1  0
 18 19  2  0
 19 20  1  0
  8  3  1  0
 19 13  1  0
  1 21  1  0
  1 22  1  0
  1 23  1  0
  4 24  1  0
  5 25  1  0
  6 26  1  0
  7 27  1  0
  9 28  1  0
 12 29  1  0
 12 30  1  0
 16 31  1  0
 17 32  1  0
 18 33  1  0
M  END
>  <UniqueID>  (32) 
30

>  <SMILES>  (32) 
COc1ccccc1NC(=O)Cc1c(F)cccc1Cl

>  <Energy>  (32) 
36.49730810413248

>  <Genealogy>  (32) 
COc1ccccc1NC(=O)Cc1c(F)cccc1Cl (3D coordinates assigned)
COc1ccccc1NC(=O)Cc1c(F)cccc1Cl (optimized conformer: 36.49730810413248 kcal/mol)

>  <smiles>  (32) 
COc1ccccc1NC(=O)Cc1c(F)cccc1Cl

>  <score_type>  (32) 
oracle

>  <origin>  (32) 
adg

>  <m_score__min__energy>  (32) 
-6.7300000000000004

>  <m_primary>  (32) 
energy

$$$$
32:0
     RDKit          3D

 42 43  0  0  0  0  0  0  0  0999 V2000
   61.1610   30.4750   48.0770 C   0  0  0  0  0  0  0  0  0  0  0  0
   60.6080   30.7920   46.8050 O   0  0  0  0  0  0  0  0  0  0  0  0
   59.7670   29.9440   46.0650 C   0  0  0  0  0  0  0  0  0  0  0  0
   60.2030   28.6810   45.6210 C   0  0  0  0  0  0  0  0  0  0  0  0
   59.3430   27.8500   44.9040 C   0  0  0  0  0  0  0  0  0  0  0  0
   58.0410   28.2580   44.6260 C   0  0  0  0  0  0  0  0  0  0  0  0
   57.5800   29.5160   45.0570 C   0  0  0  0  0  0  0  0  0  0  0  0
   56.2660   29.9440   44.8070 O   0  0  0  0  0  0  0  0  0  0  0  0
   55.6820   30.0620   43.5140 C   0  0  0  0  0  0  0  0  0  0  0  0
   58.4540   30.3740   45.7650 C   0  0  0  0  0  0  0  0  0  0  0  0
   57.9850   31.6600   46.2360 N   0  0  0  0  0  0  0  0  0  0  0  0
   58.0170   32.6420   45.1400 C   0  0  0  0  0  0  0  0  0  0  0  0
   58.7590   33.9390   45.5590 C   0  0  0  0  0  0  0  0  0  0  0  0
   59.6840   33.7850   46.7040 N   0  0  0  0  0  0  0  0  0  0  0  0
   61.1040   33.9700   46.3630 C   0  0  0  0  0  0  0  0  0  0  0  0
   61.9870   33.5860   47.5700 C   0  0  0  0  0  0  0  0  0  0  0  0
   61.2510   33.4680   48.7780 O   0  0  0  0  0  0  0  0  0  0  0  0
   60.4080   34.5890   48.9420 C   0  0  0  0  0  0  0  0  0  0  0  0
   59.2860   34.5750   47.8880 C   0  0  0  0  0  0  0  0  0  0  0  0
   60.4991   30.8544   48.8694 H   0  0  0  0  0  0  0  0  0  0  0  0
   61.2590   29.3835   48.1725 H   0  0  0  0  0  0  0  0  0  0  0  0
   62.1524   30.9419   48.1725 H   0  0  0  0  0  0  0  0  0  0  0  0
   61.2280   28.3479   45.8410 H   0  0  0  0  0  0  0  0  0  0  0  0
   59.6948   26.8675   44.5563 H   0  0  0  0  0  0  0  0  0  0  0  0
   57.3680   27.5924   44.0656 H   0  0  0  0  0  0  0  0  0  0  0  0
   54.6083   30.2789   43.6150 H   0  0  0  0  0  0  0  0  0  0  0  0
   56.1711   30.8795   42.9640 H   0  0  0  0  0  0  0  0  0  0  0  0
   55.8153   29.1188   42.9640 H   0  0  0  0  0  0  0  0  0  0  0  0
   58.5780   31.9850   47.0330 H   0  0  0  0  0  0  0  0  0  0  0  0
   57.0090   31.5740   46.6030 H   0  0  0  0  0  0  0  0  0  0  0  0
   58.5342   32.1974   44.2769 H   0  0  0  0  0  0  0  0  0  0  0  0
   56.9805   32.9055   44.8827 H   0  0  0  0  0  0  0  0  0  0  0  0
   59.3403   34.2944   44.6954 H   0  0  0  0  0  0  0  0  0  0  0  0
   57.9827   34.6480   45.8825 H   0  0  0  0  0  0  0  0  0  0  0  0
   61.3598   33.3304   45.5054 H   0  0  0  0  0  0  0  0  0  0  0  0
   61.2808   35.0246   46.1051 H   0  0  0  0  0  0  0  0  0  0  0  0
   62.4706   32.6210   47.3581 H   0  0  0  0  0  0  0  0  0  0  0  0
   62.7233   34.3912   47.7096 H   0  0  0  0  0  0  0  0  0  0  0  0
   59.9616   34.5630   49.9470 H   0  0  0  0  0  0  0  0  0  0  0  0
   61.0039   35.5051   48.8169 H   0  0  0  0  0  0  0  0  0  0  0  0
   58.3821   34.1306   48.3302 H   0  0  0  0  0  0  0  0  0  0  0  0
   59.0896   35.6096   47.5702 H   0  0  0  0  0  0  0  0  0  0  0  0
  1  2  1  0
  2  3  1  0
  3  4  2  0
  4  5  1  0
  5  6  2  0
  6  7  1  0
  7  8  1  0
  8  9  1  0
  7 10  2  0
 10 11  1  0
 11 12  1  0
 12 13  1  0
 13 14  1  0
 14 15  1  0
 15 16  1  0
 16 17  1  0
 17 18  1  0
 18 19  1  0
 10  3  1  0
 19 14  1  0
  1 20  1  0
  1 21  1  0
  1 22  1  0
  4 23  1  0
  5 24  1  0
  6 25  1  0
  9 26  1  0
  9 27  1  0
  9 28  1  0
 11 29  1  0
 11 30  1  0
 12 31  1  0
 12 32  1  0
 13 33  1  0
 13 34  1  0
 15 35  1  0
 15 36  1  0
 16 37  1  0
 16 38  1  0
 18 39  1  0
 18 40  1  0
 19 41  1  0
 19 42  1  0
M  CHG  1  11   1
M  END
>  <UniqueID>  (33) 
31

>  <SMILES>  (33) 
COc1cccc(OC)c1[NH2+]CCN1CCOCC1

>  <Energy>  (33) 
54.37697391543047

>  <Genealogy>  (33) 
COc1cccc(OC)c1[NH2+]CCN1CCOCC1 (protonated)
COc1cccc(OC)c1[NH2+]CCN1CCOCC1 (3D coordinates assigned)
COc1cccc(OC)c1[NH2+]CCN1CCOCC1 (nonaromatic ring conformer: 54.37697391543047 kcal/mol)

>  <smiles>  (33) 
COc1cccc(OC)c1NCCN1CCOCC1

>  <score_type>  (33) 
oracle

>  <origin>  (33) 
adg

>  <m_score__min__energy>  (33) 
-3.4100000000000001

>  <m_primary>  (33) 
energy

$$$$
33:0
     RDKit          3D

 52 54  0  0  0  0  0  0  0  0999 V2000
   58.1360   27.0600   42.5790 C   0  0  0  0  0  0  0  0  0  0  0  0
   57.6620   26.5050   43.8590 N   0  0  0  0  0  0  0  0  0  0  0  0
   57.3950   25.0600   43.7430 C   0  0  0  0  0  0  0  0  0  0  0  0
   58.5420   26.8420   45.0070 C   0  0  0  0  0  0  0  0  0  0  0  0
   59.5320   28.0140   44.7860 C   0  0  0  0  0  0  0  0  0  0  0  0
   59.2410   29.2250   45.6410 C   0  0  0  0  0  0  0  0  0  0  0  0
   59.5620   29.2130   47.0180 C   0  0  0  0  0  0  0  0  0  0  0  0
   59.3120   30.3370   47.8310 C   0  0  0  0  0  0  0  0  0  0  0  0
   58.7490   31.4990   47.2870 C   0  0  0  0  0  0  0  0  0  0  0  0
   58.4510   31.5040   45.9240 C   0  0  0  0  0  0  0  0  0  0  0  0
   57.9220   32.4940   45.1180 C   0  0  0  0  0  0  0  0  0  0  0  0
   57.5670   33.9020   45.4960 C   0  0  0  0  0  0  0  0  0  0  0  0
   58.5310   34.9270   44.8720 C   0  0  0  0  0  0  0  0  0  0  0  0
   59.6150   35.3360   45.7870 N   0  0  0  0  0  0  0  0  0  0  0  0
   59.6020   34.6010   47.0590 C   0  0  0  0  0  0  0  0  0  0  0  0
   60.9970   34.1830   47.4420 C   0  0  0  0  0  0  0  0  0  0  0  0
   61.3770   34.1160   48.7940 C   0  0  0  0  0  0  0  0  0  0  0  0
   62.6710   33.7140   49.1410 C   0  0  0  0  0  0  0  0  0  0  0  0
   63.5900   33.3740   48.1450 C   0  0  0  0  0  0  0  0  0  0  0  0
   63.2180   33.4360   46.7990 C   0  0  0  0  0  0  0  0  0  0  0  0
   61.9250   33.8380   46.4470 C   0  0  0  0  0  0  0  0  0  0  0  0
   57.8770   31.9530   43.8400 C   0  0  0  0  0  0  0  0  0  0  0  0
   58.3430   30.6840   43.8480 N   0  0  0  0  0  0  0  0  0  0  0  0
   58.6950   30.4150   45.1210 C   0  0  0  0  0  0  0  0  0  0  0  0
   58.8390   27.8832   42.7742 H   0  0  0  0  0  0  0  0  0  0  0  0
   58.6444   26.2723   42.0036 H   0  0  0  0  0  0  0  0  0  0  0  0
   57.2784   27.4389   42.0036 H   0  0  0  0  0  0  0  0  0  0  0  0
   56.7400   26.9640   44.0570 H   0  0  0  0  0  0  0  0  0  0  0  0
   57.3138   24.6203   44.7480 H   0  0  0  0  0  0  0  0  0  0  0  0
   56.4528   24.9039   43.1972 H   0  0  0  0  0  0  0  0  0  0  0  0
   58.2192   24.5775   43.1972 H   0  0  0  0  0  0  0  0  0  0  0  0
   57.8974   27.1027   45.8594 H   0  0  0  0  0  0  0  0  0  0  0  0
   59.1685   25.9527   45.1702 H   0  0  0  0  0  0  0  0  0  0  0  0
   60.5469   27.6599   45.0196 H   0  0  0  0  0  0  0  0  0  0  0  0
   59.4280   28.3288   43.7372 H   0  0  0  0  0  0  0  0  0  0  0  0
   60.0135   28.3132   47.4613 H   0  0  0  0  0  0  0  0  0  0  0  0
   59.5611   30.3016   48.9018 H   0  0  0  0  0  0  0  0  0  0  0  0
   58.5483   32.3797   47.9148 H   0  0  0  0  0  0  0  0  0  0  0  0
   56.5460   34.1166   45.1474 H   0  0  0  0  0  0  0  0  0  0  0  0
   57.6403   33.9889   46.5901 H   0  0  0  0  0  0  0  0  0  0  0  0
   58.9816   34.4813   43.9729 H   0  0  0  0  0  0  0  0  0  0  0  0
   57.9443   35.8271   44.6364 H   0  0  0  0  0  0  0  0  0  0  0  0
   59.5650   36.3620   45.9850 H   0  0  0  0  0  0  0  0  0  0  0  0
   59.1892   35.2484   47.8467 H   0  0  0  0  0  0  0  0  0  0  0  0
   58.9806   33.7008   46.9429 H   0  0  0  0  0  0  0  0  0  0  0  0
   60.6550   34.3803   49.5807 H   0  0  0  0  0  0  0  0  0  0  0  0
   62.9656   33.6655   50.1997 H   0  0  0  0  0  0  0  0  0  0  0  0
   64.6068   33.0573   48.4202 H   0  0  0  0  0  0  0  0  0  0  0  0
   63.9426   33.1685   46.0158 H   0  0  0  0  0  0  0  0  0  0  0  0
   61.6347   33.8839   45.3870 H   0  0  0  0  0  0  0  0  0  0  0  0
   57.5134   32.4824   42.9469 H   0  0  0  0  0  0  0  0  0  0  0  0
   58.4180   30.0640   43.0120 H   0  0  0  0  0  0  0  0  0  0  0  0
  1  2  1  0
  2  3  1  0
  2  4  1  0
  4  5  1  0
  5  6  1  0
  6  7  2  0
  7  8  1  0
  8  9  2  0
  9 10  1  0
 10 11  1  0
 11 12  1  0
 12 13  1  0
 13 14  1  0
 14 15  1  0
 15 16  1  0
 16 17  2  0
 17 18  1  0
 18 19  2  0
 19 20  1  0
 20 21  2  0
 11 22  2  0
 22 23  1  0
 23 24  1  0
 24  6  1  0
 24 10  2  0
 21 16  1  0
  1 25  1  0
  1 26  1  0
  1 27  1  0
  2 28  1  0
  3 29  1  0
  3 30  1  0
  3 31  1  0
  4 32  1  0
  4 33  1  0
  5 34  1  0
  5 35  1  0
  7 36  1  0
  8 37  1  0
  9 38  1  0
 12 39  1  0
 12 40  1  0
 13 41  1  0
 13 42  1  0
 14 43  1  0
 15 44  1  0
 15 45  1  0
 17 46  1  0
 18 47  1  0
 19 48  1  0
 20 49  1  0
 21 50  1  0
 22 51  1  0
 23 52  1  0
M  CHG  1   2   1
M  END
>  <UniqueID>  (34) 
32

>  <SMILES>  (34) 
C[NH+](C)CCc1cccc2c(CCNCc3ccccc3)c[nH]c12

>  <Energy>  (34) 
87.95134615585408

>  <Genealogy>  (34) 
C[NH+](C)CCc1cccc2c(CCNCc3ccccc3)c[nH]c12 (protonated)
C[NH+](C)CCc1cccc2c(CCNCc3ccccc3)c[nH]c12 (3D coordinates assigned)
C[NH+](C)CCc1cccc2c(CCNCc3ccccc3)c[nH]c12 (optimized conformer: 87.95134615585408 kcal/mol)

>  <smiles>  (34) 
CN(C)CCc1cccc2c(CCNCc3ccccc3)c[nH]c12

>  <score_type>  (34) 
oracle

>  <origin>  (34) 
adg

>  <m_score__min__energy>  (34) 
-6.75

>  <m_primary>  (34) 
energy

$$$$
34:0
     RDKit          3D

 39 38  0  0  0  0  0  0  0  0999 V2000
   63.3950   33.4960   46.8120 C   0  0  0  0  0  0  0  0  0  0  0  0
   61.9430   33.1370   47.1250 C   0  0  0  0  0  0  0  0  0  0  0  0
   61.7520   31.6260   47.3150 C   0  0  0  0  0  0  0  0  0  0  0  0
   60.3430   31.2940   47.5920 N   0  0  0  0  0  0  0  0  0  0  0  0
   59.5780   32.1170   48.5350 C   0  0  0  0  0  0  0  0  0  0  0  0
   59.7060   30.1590   46.9630 C   0  0  0  0  0  0  0  0  0  0  0  0
   60.3100   28.6440   47.1960 S   0  0  0  0  0  0  0  0  0  0  0  0
   58.5220   30.3490   46.1650 N   0  0  0  0  0  0  0  0  0  0  0  0
   57.7680   29.2370   45.5820 C   0  0  0  0  0  0  0  0  0  0  0  0
   56.5130   29.7340   44.9370 C   0  0  0  0  0  0  0  0  0  0  0  0
   55.5200   28.9650   44.8160 O   0  0  0  0  0  0  0  0  0  0  0  0
   56.4440   31.0620   44.5100 O   0  0  0  0  0  0  0  0  0  0  0  0
   57.3930   31.6330   43.6140 C   0  0  0  0  0  0  0  0  0  0  0  0
   57.9450   32.9230   44.2070 C   0  0  0  0  0  0  0  0  0  0  0  0
   57.5400   33.0240   45.5570 O   0  0  0  0  0  0  0  0  0  0  0  0
   58.0970   34.1880   46.1290 C   0  0  0  0  0  0  0  0  0  0  0  0
   59.2720   34.6490   45.2790 C   0  0  0  0  0  0  0  0  0  0  0  0
   63.9496   33.6331   47.7520 H   0  0  0  0  0  0  0  0  0  0  0  0
   63.8559   32.6848   46.2293 H   0  0  0  0  0  0  0  0  0  0  0  0
   63.4247   34.4285   46.2293 H   0  0  0  0  0  0  0  0  0  0  0  0
   61.6412   33.6520   48.0489 H   0  0  0  0  0  0  0  0  0  0  0  0
   61.3237   33.4530   46.2726 H   0  0  0  0  0  0  0  0  0  0  0  0
   62.0687   31.1069   46.3984 H   0  0  0  0  0  0  0  0  0  0  0  0
   62.3593   31.3050   48.1742 H   0  0  0  0  0  0  0  0  0  0  0  0
   59.8407   31.8344   49.5651 H   0  0  0  0  0  0  0  0  0  0  0  0
   59.8177   33.1784   48.3735 H   0  0  0  0  0  0  0  0  0  0  0  0
   58.5020   31.9554   48.3735 H   0  0  0  0  0  0  0  0  0  0  0  0
   58.2050   31.3260   45.9700 H   0  0  0  0  0  0  0  0  0  0  0  0
   58.3896   28.7359   44.8254 H   0  0  0  0  0  0  0  0  0  0  0  0
   57.5005   28.5312   46.3822 H   0  0  0  0  0  0  0  0  0  0  0  0
   58.2171   30.9226   43.4523 H   0  0  0  0  0  0  0  0  0  0  0  0
   56.9024   31.8531   42.6544 H   0  0  0  0  0  0  0  0  0  0  0  0
   59.0436   32.9126   44.1522 H   0  0  0  0  0  0  0  0  0  0  0  0
   57.5612   33.7842   43.6405 H   0  0  0  0  0  0  0  0  0  0  0  0
   57.3355   34.9809   46.1653 H   0  0  0  0  0  0  0  0  0  0  0  0
   58.4424   33.9695   47.1503 H   0  0  0  0  0  0  0  0  0  0  0  0
   60.0944   34.9717   45.9344 H   0  0  0  0  0  0  0  0  0  0  0  0
   59.6135   33.8182   44.6441 H   0  0  0  0  0  0  0  0  0  0  0  0
   58.9575   35.4904   44.6441 H   0  0  0  0  0  0  0  0  0  0  0  0
  1  2  1  0
  2  3  1  0
  3  4  1  0
  4  5  1  0
  4  6  1  0
  6  7  2  0
  6  8  1  0
  8  9  1  0
  9 10  1  0
 10 11  2  0
 10 12  1  0
 12 13  1  0
 13 14  1  0
 14 15  1  0
 15 16  1  0
 16 17  1  0
  1 18  1  0
  1 19  1  0
  1 20  1  0
  2 21  1  0
  2 22  1  0
  3 23  1  0
  3 24  1  0
  5 25  1  0
  5 26  1  0
  5 27  1  0
  8 28  1  0
  9 29  1  0
  9 30  1  0
 13 31  1  0
 13 32  1  0
 14 33  1  0
 14 34  1  0
 16 35  1  0
 16 36  1  0
 17 37  1  0
 17 38  1  0
 17 39  1  0
M  END
>  <UniqueID>  (35) 
33

>  <SMILES>  (35) 
CCCN(C)C(=S)NCC(=O)OCCOCC

>  <Energy>  (35) 
21.086243737645603

>  <Genealogy>  (35) 
CCCN(C)C(=S)NCC(=O)OCCOCC (3D coordinates assigned)
CCCN(C)C(=S)NCC(=O)OCCOCC (optimized conformer: 21.086243737645603 kcal/mol)

>  <smiles>  (35) 
CCCN(C)C(=S)NCC(=O)OCCOCC

>  <score_type>  (35) 
oracle

>  <origin>  (35) 
adg

>  <m_score__min__energy>  (35) 
-4.2599999999999998

>  <m_primary>  (35) 
energy

$$$$
35:0
     RDKit          3D

 38 41  0  0  0  0  0  0  0  0999 V2000
   60.3760   27.0860   48.2440 C   0  0  0  0  0  0  0  0  0  0  0  0
   60.5600   26.6750   46.4810 S   0  0  0  0  0  0  0  0  0  0  0  0
   58.8130   26.9440   46.1180 C   0  0  0  0  0  0  0  0  0  0  0  0
   57.8860   25.8790   46.0210 C   0  0  0  0  0  0  0  0  0  0  0  0
   58.2600   24.5340   46.1960 C   0  0  0  0  0  0  0  0  0  0  0  0
   57.3090   23.5170   46.0880 C   0  0  0  0  0  0  0  0  0  0  0  0
   55.9680   23.8200   45.8180 C   0  0  0  0  0  0  0  0  0  0  0  0
   54.9620   22.7170   45.6650 C   0  0  0  0  0  0  0  0  0  0  0  0
   55.5840   25.1540   45.6240 C   0  0  0  0  0  0  0  0  0  0  0  0
   56.5250   26.1890   45.7280 C   0  0  0  0  0  0  0  0  0  0  0  0
   56.1380   27.4890   45.5460 N   0  0  0  0  0  0  0  0  0  0  0  0
   57.0600   28.4750   45.6510 C   0  0  0  0  0  0  0  0  0  0  0  0
   56.8040   29.7880   45.4950 N   0  0  0  0  0  0  0  0  0  0  0  0
   58.0150   30.3690   45.6880 C   0  0  0  0  0  0  0  0  0  0  0  0
   58.2390   31.8330   45.6120 C   0  0  0  0  0  0  0  0  0  0  0  0
   59.3560   32.4050   46.2530 C   0  0  0  0  0  0  0  0  0  0  0  0
   59.5810   33.7830   46.1920 C   0  0  0  0  0  0  0  0  0  0  0  0
   58.6970   34.6070   45.4930 C   0  0  0  0  0  0  0  0  0  0  0  0
   57.5860   34.0540   44.8530 C   0  0  0  0  0  0  0  0  0  0  0  0
   57.3550   32.6760   44.9110 C   0  0  0  0  0  0  0  0  0  0  0  0
   58.9700   29.3910   45.9560 C   0  0  0  0  0  0  0  0  0  0  0  0
   58.3430   28.2050   45.9270 N   0  0  0  0  0  0  0  0  0  0  0  0
   60.7495   26.2517   48.8559 H   0  0  0  0  0  0  0  0  0  0  0  0
   60.9534   27.9944   48.4709 H   0  0  0  0  0  0  0  0  0  0  0  0
   59.3139   27.2604   48.4709 H   0  0  0  0  0  0  0  0  0  0  0  0
   59.3073   24.2821   46.4191 H   0  0  0  0  0  0  0  0  0  0  0  0
   57.6156   22.4684   46.2161 H   0  0  0  0  0  0  0  0  0  0  0  0
   54.6450   22.3694   46.6593 H   0  0  0  0  0  0  0  0  0  0  0  0
   54.0882   23.0918   45.1118 H   0  0  0  0  0  0  0  0  0  0  0  0
   55.4154   21.8813   45.1118 H   0  0  0  0  0  0  0  0  0  0  0  0
   54.5361   25.3912   45.3883 H   0  0  0  0  0  0  0  0  0  0  0  0
   55.1440   27.7310   45.3300 H   0  0  0  0  0  0  0  0  0  0  0  0
   60.0565   31.7618   46.8058 H   0  0  0  0  0  0  0  0  0  0  0  0
   60.4563   34.2192   46.6957 H   0  0  0  0  0  0  0  0  0  0  0  0
   58.8756   35.6914   45.4464 H   0  0  0  0  0  0  0  0  0  0  0  0
   56.8906   34.7040   44.3017 H   0  0  0  0  0  0  0  0  0  0  0  0
   56.4769   32.2476   44.4057 H   0  0  0  0  0  0  0  0  0  0  0  0
   60.0388   29.5595   46.1544 H   0  0  0  0  0  0  0  0  0  0  0  0
  1  2  1  0
  2  3  1  0
  3  4  2  0
  4  5  1  0
  5  6  2  0
  6  7  1  0
  7  8  1  0
  7  9  2  0
  9 10  1  0
 10 11  2  0
 11 12  1  0
 12 13  2  0
 13 14  1  0
 14 15  1  0
 15 16  2  0
 16 17  1  0
 17 18  2  0
 18 19  1  0
 19 20  2  0
 14 21  2  0
 21 22  1  0
 22  3  1  0
 10  4  1  0
 22 12  1  0
 20 15  1  0
  1 23  1  0
  1 24  1  0
  1 25  1  0
  5 26  1  0
  6 27  1  0
  8 28  1  0
  8 29  1  0
  8 30  1  0
  9 31  1  0
 11 32  1  0
 16 33  1  0
 17 34  1  0
 18 35  1  0
 19 36  1  0
 20 37  1  0
 21 38  1  0
M  CHG  1  11   1
M  END
>  <UniqueID>  (36) 
34

>  <SMILES>  (36) 
CSc1c2ccc(C)cc2[nH+]c2nc(-c3ccccc3)cn12

>  <Energy>  (36) 
78.43895156220039

>  <Genealogy>  (36) 
CSc1c2ccc(C)cc2[nH+]c2nc(-c3ccccc3)cn12 (protonated)
CSc1c2ccc(C)cc2[nH+]c2nc(-c3ccccc3)cn12 (3D coordinates assigned)
CSc1c2ccc(C)cc2[nH+]c2nc(-c3ccccc3)cn12 (optimized conformer: 78.43895156220039 kcal/mol)

>  <smiles>  (36) 
CSc1c2ccc(C)cc2nc2nc(-c3ccccc3)cn12

>  <score_type>  (36) 
oracle

>  <origin>  (36) 
adg

>  <m_score__min__energy>  (36) 
-6.1799999999999997

>  <m_primary>  (36) 
energy

$$$$
36:0
     RDKit          3D

 53 55  0  0  0  0  0  0  0  0999 V2000
   63.3570   33.4670   46.7030 C   0  0  0  0  0  0  0  0  0  0  0  0
   63.2550   33.8980   48.1670 C   0  0  0  0  0  0  0  0  0  0  0  0
   62.1580   33.2340   48.9070 N   0  0  0  0  0  0  0  0  0  0  0  0
   62.6040   32.1970   49.8750 C   0  0  0  0  0  0  0  0  0  0  0  0
   64.1200   31.9530   49.9180 C   0  0  0  0  0  0  0  0  0  0  0  0
   61.0990   34.1620   49.3640 C   0  0  0  0  0  0  0  0  0  0  0  0
   59.7280   33.7430   48.8180 C   0  0  0  0  0  0  0  0  0  0  0  0
   59.8580   32.6150   47.8950 N   0  0  0  0  0  0  0  0  0  0  0  0
   58.9950   32.4530   46.7550 C   0  0  0  0  0  0  0  0  0  0  0  0
   58.5720   33.6050   46.0690 C   0  0  0  0  0  0  0  0  0  0  0  0
   58.9570   34.8650   46.5580 O   0  0  0  0  0  0  0  0  0  0  0  0
   59.9860   35.6740   45.9960 C   0  0  0  0  0  0  0  0  0  0  0  0
   57.7770   33.4760   44.9270 C   0  0  0  0  0  0  0  0  0  0  0  0
   57.3620   32.2240   44.4920 C   0  0  0  0  0  0  0  0  0  0  0  0
   57.7100   31.0470   45.1920 C   0  0  0  0  0  0  0  0  0  0  0  0
   58.5800   31.1590   46.3140 C   0  0  0  0  0  0  0  0  0  0  0  0
   59.0330   29.9710   46.9310 C   0  0  0  0  0  0  0  0  0  0  0  0
   59.7780   30.0130   47.9490 O   0  0  0  0  0  0  0  0  0  0  0  0
   58.6860   28.7220   46.3960 C   0  0  0  0  0  0  0  0  0  0  0  0
   59.2130   27.5330   46.9470 C   0  0  0  0  0  0  0  0  0  0  0  0
   58.9120   26.2960   46.3860 C   0  0  0  0  0  0  0  0  0  0  0  0
   58.0930   26.2200   45.2630 C   0  0  0  0  0  0  0  0  0  0  0  0
   57.7540   24.6610   44.5330 Cl  0  0  0  0  0  0  0  0  0  0  0  0
   57.5510   27.3830   44.7130 C   0  0  0  0  0  0  0  0  0  0  0  0
   57.8080   28.6550   45.2880 C   0  0  0  0  0  0  0  0  0  0  0  0
   57.2390   29.8100   44.7870 N   0  0  0  0  0  0  0  0  0  0  0  0
   56.1050   29.7210   43.8400 C   0  0  0  0  0  0  0  0  0  0  0  0
   63.6101   32.3977   46.6524 H   0  0  0  0  0  0  0  0  0  0  0  0
   62.3931   33.6398   46.2019 H   0  0  0  0  0  0  0  0  0  0  0  0
   64.1412   34.0535   46.2019 H   0  0  0  0  0  0  0  0  0  0  0  0
   64.2055   33.6591   48.6665 H   0  0  0  0  0  0  0  0  0  0  0  0
   63.0390   34.9766   48.1706 H   0  0  0  0  0  0  0  0  0  0  0  0
   62.2804   32.5072   50.8795 H   0  0  0  0  0  0  0  0  0  0  0  0
   62.1515   31.2518   49.5406 H   0  0  0  0  0  0  0  0  0  0  0  0
   64.4532   31.8994   50.9649 H   0  0  0  0  0  0  0  0  0  0  0  0
   64.3535   31.0057   49.4099 H   0  0  0  0  0  0  0  0  0  0  0  0
   64.6389   32.7792   49.4099 H   0  0  0  0  0  0  0  0  0  0  0  0
   61.0655   34.1562   50.4635 H   0  0  0  0  0  0  0  0  0  0  0  0
   61.3316   35.1703   48.9910 H   0  0  0  0  0  0  0  0  0  0  0  0
   59.0802   33.4493   49.6571 H   0  0  0  0  0  0  0  0  0  0  0  0
   59.2901   34.5936   48.2752 H   0  0  0  0  0  0  0  0  0  0  0  0
   60.6220   31.9190   48.0510 H   0  0  0  0  0  0  0  0  0  0  0  0
   60.5725   36.1351   46.8043 H   0  0  0  0  0  0  0  0  0  0  0  0
   60.6451   35.0497   45.3749 H   0  0  0  0  0  0  0  0  0  0  0  0
   59.5349   36.4619   45.3749 H   0  0  0  0  0  0  0  0  0  0  0  0
   57.4771   34.3743   44.3674 H   0  0  0  0  0  0  0  0  0  0  0  0
   56.7486   32.1470   43.5821 H   0  0  0  0  0  0  0  0  0  0  0  0
   59.8683   27.5856   47.8289 H   0  0  0  0  0  0  0  0  0  0  0  0
   59.3217   25.3769   46.8304 H   0  0  0  0  0  0  0  0  0  0  0  0
   56.9140   27.3124   43.8190 H   0  0  0  0  0  0  0  0  0  0  0  0
   55.1626   29.6470   44.4024 H   0  0  0  0  0  0  0  0  0  0  0  0
   56.0846   30.6203   43.2069 H   0  0  0  0  0  0  0  0  0  0  0  0
   56.2251   28.8295   43.2069 H   0  0  0  0  0  0  0  0  0  0  0  0
  1  2  1  0
  2  3  1  0
  3  4  1  0
  4  5  1  0
  3  6  1  0
  6  7  1  0
  7  8  1  0
  8  9  1  0
  9 10  2  0
 10 11  1  0
 11 12  1  0
 10 13  1  0
 13 14  2  0
 14 15  1  0
 15 16  2  0
 16 17  1  0
 17 18  2  0
 17 19  1  0
 19 20  2  0
 20 21  1  0
 21 22  2  0
 22 23  1  0
 22 24  1  0
 24 25  2  0
 25 26  1  0
 26 27  1  0
 16  9  1  0
 25 19  1  0
 26 15  1  0
  1 28  1  0
  1 29  1  0
  1 30  1  0
  2 31  1  0
  2 32  1  0
  4 33  1  0
  4 34  1  0
  5 35  1  0
  5 36  1  0
  5 37  1  0
  6 38  1  0
  6 39  1  0
  7 40  1  0
  7 41  1  0
  8 42  1  0
 12 43  1  0
 12 44  1  0
 12 45  1  0
 13 46  1  0
 14 47  1  0
 20 48  1  0
 21 49  1  0
 24 50  1  0
 27 51  1  0
 27 52  1  0
 27 53  1  0
M  END
>  <UniqueID>  (37) 
35

>  <SMILES>  (37) 
CCN(CC)CCNc1c(OC)ccc2c1c(=O)c1ccc(Cl)cc1n2C

>  <Energy>  (37) 
86.65325730530479

>  <Genealogy>  (37) 
CCN(CC)CCNc1c(OC)ccc2c1c(=O)c1ccc(Cl)cc1n2C (3D coordinates assigned)
CCN(CC)CCNc1c(OC)ccc2c1c(=O)c1ccc(Cl)cc1n2C (optimized conformer: 86.65325730530479 kcal/mol)

>  <smiles>  (37) 
CCN(CC)CCNc1c(OC)ccc2c1c(=O)c1ccc(Cl)cc1n2C

>  <score_type>  (37) 
oracle

>  <origin>  (37) 
adg

>  <m_score__min__energy>  (37) 
-6.7199999999999998

>  <m_primary>  (37) 
energy

$$$$
37:0
     RDKit          3D

 62 66  0  0  0  0  0  0  0  0999 V2000
   63.1640   33.8640   51.0120 C   0  0  0  0  0  0  0  0  0  0  0  0
   62.4700   32.6230   50.9050 O   0  0  0  0  0  0  0  0  0  0  0  0
   61.0760   32.4850   50.9520 C   0  0  0  0  0  0  0  0  0  0  0  0
   60.2680   33.4420   51.6010 C   0  0  0  0  0  0  0  0  0  0  0  0
   58.8900   33.2550   51.6980 C   0  0  0  0  0  0  0  0  0  0  0  0
   58.2990   32.1140   51.1560 C   0  0  0  0  0  0  0  0  0  0  0  0
   59.0830   31.1630   50.5020 C   0  0  0  0  0  0  0  0  0  0  0  0
   60.4710   31.3490   50.3580 C   0  0  0  0  0  0  0  0  0  0  0  0
   61.2990   30.2710   49.6710 C   0  0  0  0  0  0  0  0  0  0  0  0
   60.8400   29.9100   48.3030 N   0  0  0  0  0  0  0  0  0  0  0  0
   59.7350   28.9280   48.2630 C   0  0  0  0  0  0  0  0  0  0  0  0
   59.1350   28.9210   46.8860 C   0  0  0  0  0  0  0  0  0  0  0  0
   59.9130   28.4710   45.7910 C   0  0  0  0  0  0  0  0  0  0  0  0
   59.3960   28.5060   44.4850 C   0  0  0  0  0  0  0  0  0  0  0  0
   58.1070   28.9980   44.3100 C   0  0  0  0  0  0  0  0  0  0  0  0
   57.3540   29.4290   45.3530 C   0  0  0  0  0  0  0  0  0  0  0  0
   57.8260   29.4100   46.6610 C   0  0  0  0  0  0  0  0  0  0  0  0
   56.1300   29.8670   44.8830 O   0  0  0  0  0  0  0  0  0  0  0  0
   56.1200   29.7160   43.4570 C   0  0  0  0  0  0  0  0  0  0  0  0
   57.3950   29.1470   43.1360 O   0  0  0  0  0  0  0  0  0  0  0  0
   60.6280   31.0580   47.3940 C   0  0  0  0  0  0  0  0  0  0  0  0
   61.8060   31.9920   47.4490 C   0  0  0  0  0  0  0  0  0  0  0  0
   63.0680   31.6380   47.1370 N   0  0  0  0  0  0  0  0  0  0  0  0
   63.7700   32.7540   47.2740 N   0  0  0  0  0  0  0  0  0  0  0  0
   62.9950   33.7590   47.6480 N   0  0  0  0  0  0  0  0  0  0  0  0
   61.7560   33.3090   47.7450 N   0  0  0  0  0  0  0  0  0  0  0  0
   60.6350   34.0900   48.2610 C   0  0  0  0  0  0  0  0  0  0  0  0
   60.0610   34.9650   47.1430 C   0  0  0  0  0  0  0  0  0  0  0  0
   59.1250   34.1830   46.2590 C   0  0  0  0  0  0  0  0  0  0  0  0
   59.3710   34.0830   44.8790 C   0  0  0  0  0  0  0  0  0  0  0  0
   58.4960   33.3630   44.0560 C   0  0  0  0  0  0  0  0  0  0  0  0
   57.3720   32.7340   44.6050 C   0  0  0  0  0  0  0  0  0  0  0  0
   57.1170   32.8350   45.9770 C   0  0  0  0  0  0  0  0  0  0  0  0
   57.9950   33.5470   46.8040 C   0  0  0  0  0  0  0  0  0  0  0  0
   63.3045   34.1152   52.0737 H   0  0  0  0  0  0  0  0  0  0  0  0
   64.1454   33.7787   50.5224 H   0  0  0  0  0  0  0  0  0  0  0  0
   62.5776   34.6555   50.5224 H   0  0  0  0  0  0  0  0  0  0  0  0
   60.7286   34.3423   52.0337 H   0  0  0  0  0  0  0  0  0  0  0  0
   58.2678   34.0086   52.2029 H   0  0  0  0  0  0  0  0  0  0  0  0
   57.2129   31.9635   51.2442 H   0  0  0  0  0  0  0  0  0  0  0  0
   58.6109   30.2571   50.0940 H   0  0  0  0  0  0  0  0  0  0  0  0
   62.3366   30.6292   49.6005 H   0  0  0  0  0  0  0  0  0  0  0  0
   61.1944   29.3628   50.2828 H   0  0  0  0  0  0  0  0  0  0  0  0
   60.1230   27.9266   48.5011 H   0  0  0  0  0  0  0  0  0  0  0  0
   58.9671   29.2031   49.0010 H   0  0  0  0  0  0  0  0  0  0  0  0
   60.9305   28.0909   45.9647 H   0  0  0  0  0  0  0  0  0  0  0  0
   59.9913   28.1557   43.6289 H   0  0  0  0  0  0  0  0  0  0  0  0
   57.2016   29.7639   47.4946 H   0  0  0  0  0  0  0  0  0  0  0  0
   55.3070   29.0439   43.1450 H   0  0  0  0  0  0  0  0  0  0  0  0
   55.9527   30.6730   42.9411 H   0  0  0  0  0  0  0  0  0  0  0  0
   60.5056   30.6885   46.3652 H   0  0  0  0  0  0  0  0  0  0  0  0
   59.7252   31.6018   47.7090 H   0  0  0  0  0  0  0  0  0  0  0  0
   64.8000   32.8300   47.1160 H   0  0  0  0  0  0  0  0  0  0  0  0
   59.8540   33.4093   48.6307 H   0  0  0  0  0  0  0  0  0  0  0  0
   60.9843   34.7310   49.0838 H   0  0  0  0  0  0  0  0  0  0  0  0
   59.5109   35.8048   47.5925 H   0  0  0  0  0  0  0  0  0  0  0  0
   60.8954   35.3305   46.5263 H   0  0  0  0  0  0  0  0  0  0  0  0
   60.2546   34.5723   44.4434 H   0  0  0  0  0  0  0  0  0  0  0  0
   58.6922   33.2915   42.9760 H   0  0  0  0  0  0  0  0  0  0  0  0
   56.6905   32.1614   43.9587 H   0  0  0  0  0  0  0  0  0  0  0  0
   56.2257   32.3545   46.4068 H   0  0  0  0  0  0  0  0  0  0  0  0
   57.7999   33.6091   47.8848 H   0  0  0  0  0  0  0  0  0  0  0  0
  1  2  1  0
  2  3  1  0
  3  4  2  0
  4  5  1  0
  5  6  2  0
  6  7  1  0
  7  8  2  0
  8  9  1  0
  9 10  1  0
 10 11  1  0
 11 12  1  0
 12 13  2  0
 13 14  1  0
 14 15  2  0
 15 16  1  0
 16 17  2  0
 16 18  1  0
 18 19  1  0
 19 20  1  0
 10 21  1  0
 21 22  1  0
 22 23  2  0
 23 24  1  0
 24 25  2  0
 25 26  1  0
 26 27  1  0
 27 28  1  0
 28 29  1  0
 29 30  2  0
 30 31  1  0
 31 32  2  0
 32 33  1  0
 33 34  2  0
  8  3  1  0
 17 12  1  0
 26 22  1  0
 34 29  1  0
 20 15  1  0
  1 35  1  0
  1 36  1  0
  1 37  1  0
  4 38  1  0
  5 39  1  0
  6 40  1  0
  7 41  1  0
  9 42  1  0
  9 43  1  0
 11 44  1  0
 11 45  1  0
 13 46  1  0
 14 47  1  0
 17 48  1  0
 19 49  1  0
 19 50  1  0
 21 51  1  0
 21 52  1  0
 24 53  1  0
 27 54  1  0
 27 55  1  0
 28 56  1  0
 28 57  1  0
 30 58  1  0
 31 59  1  0
 32 60  1  0
 33 61  1  0
 34 62  1  0
M  CHG  1  24   1
M  END
>  <UniqueID>  (38) 
36

>  <SMILES>  (38) 
COc1ccccc1CN(Cc1ccc2c(c1)OCO2)Cc1n[nH+]nn1CCc1ccccc1

>  <Energy>  (38) 
134.32709057783032

>  <Genealogy>  (38) 
COc1ccccc1CN(Cc1ccc2c(c1)OCO2)Cc1n[nH+]nn1CCc1ccccc1 (protonated)
COc1ccccc1CN(Cc1ccc2c(c1)OCO2)Cc1n[nH+]nn1CCc1ccccc1 (3D coordinates assigned)
COc1ccccc1CN(Cc1ccc2c(c1)OCO2)Cc1n[nH+]nn1CCc1ccccc1 (nonaromatic ring conformer: 134.32709057783032 kcal/mol)

>  <smiles>  (38) 
COc1ccccc1CN(Cc1ccc2c(c1)OCO2)Cc1nnnn1CCc1ccccc1

>  <score_type>  (38) 
oracle

>  <origin>  (38) 
adg

>  <m_score__min__energy>  (38) 
-8.6699999999999999

>  <m_primary>  (38) 
energy

$$$$
38:0
     RDKit          3D

 49 51  0  0  0  0  0  0  0  0999 V2000
   58.6972   35.2499   47.7632 H   0  0  0  0  0  0  0  0  0  0  0  0
   58.5500   34.6440   46.8570 C   0  0  0  0  0  0  0  0  0  0  0  0
   57.4170   33.8360   46.7340 C   0  0  0  0  0  0  0  0  0  0  0  0
   56.6735   33.8054   47.5441 H   0  0  0  0  0  0  0  0  0  0  0  0
   57.2270   33.0660   45.5820 C   0  0  0  0  0  0  0  0  0  0  0  0
   56.3338   32.4308   45.4884 H   0  0  0  0  0  0  0  0  0  0  0  0
   58.1730   33.1010   44.5440 C   0  0  0  0  0  0  0  0  0  0  0  0
   57.9900   32.2490   43.3130 C   0  0  0  0  0  0  0  0  0  0  0  0
   58.9381   31.7365   43.0928 H   0  0  0  0  0  0  0  0  0  0  0  0
   57.6908   32.9100   42.4863 H   0  0  0  0  0  0  0  0  0  0  0  0
   56.8870   31.1930   43.4960 C   0  0  0  0  0  0  0  0  0  0  0  0
   56.4824   30.9405   42.5048 H   0  0  0  0  0  0  0  0  0  0  0  0
   56.1318   31.6348   44.1627 H   0  0  0  0  0  0  0  0  0  0  0  0
   57.3660   29.8970   44.1660 C   0  0  0  0  0  0  0  0  0  0  0  0
   58.3375   29.6079   43.7386 H   0  0  0  0  0  0  0  0  0  0  0  0
   56.6188   29.1101   43.9858 H   0  0  0  0  0  0  0  0  0  0  0  0
   57.5140   30.0830   45.6180 N   0  0  0  0  0  0  0  0  0  0  0  0
   58.0070   30.9870   45.8020 H   0  0  0  0  0  0  0  0  0  0  0  0
   58.2790   28.9920   46.2410 C   0  0  0  0  0  0  0  0  0  0  0  0
   58.0920   28.0646   45.6798 H   0  0  0  0  0  0  0  0  0  0  0  0
   57.9477   28.9054   47.2863 H   0  0  0  0  0  0  0  0  0  0  0  0
   59.7920   29.2660   46.2510 C   0  0  0  0  0  0  0  0  0  0  0  0
   60.2268   28.9299   45.2981 H   0  0  0  0  0  0  0  0  0  0  0  0
   60.2466   28.7187   47.0899 H   0  0  0  0  0  0  0  0  0  0  0  0
   60.0540   30.6960   46.4220 N   0  0  0  0  0  0  0  0  0  0  0  0
   59.9430   31.4060   47.5150 C   0  0  0  0  0  0  0  0  0  0  0  0
   58.8260   31.2960   48.3580 C   0  0  0  0  0  0  0  0  0  0  0  0
   58.0155   30.5970   48.1041 H   0  0  0  0  0  0  0  0  0  0  0  0
   58.7390   32.0660   49.5120 C   0  0  0  0  0  0  0  0  0  0  0  0
   57.8547   31.9692   50.1590 H   0  0  0  0  0  0  0  0  0  0  0  0
   59.7300   32.9410   49.8590 N   0  0  0  0  0  0  0  0  0  0  0  0
   59.5630   33.7200   51.0970 C   0  0  0  0  0  0  0  0  0  0  0  0
   59.7042   33.0613   51.9666 H   0  0  0  0  0  0  0  0  0  0  0  0
   60.3082   34.5287   51.1247 H   0  0  0  0  0  0  0  0  0  0  0  0
   58.5518   34.1521   51.1247 H   0  0  0  0  0  0  0  0  0  0  0  0
   60.8490   33.0780   49.0620 C   0  0  0  0  0  0  0  0  0  0  0  0
   61.8910   33.9750   49.3970 C   0  0  0  0  0  0  0  0  0  0  0  0
   61.8133   34.5789   50.3131 H   0  0  0  0  0  0  0  0  0  0  0  0
   63.0160   34.1040   48.5810 C   0  0  0  0  0  0  0  0  0  0  0  0
   63.8159   34.8068   48.8572 H   0  0  0  0  0  0  0  0  0  0  0  0
   63.1290   33.3470   47.4200 C   0  0  0  0  0  0  0  0  0  0  0  0
   64.0184   33.4523   46.7814 H   0  0  0  0  0  0  0  0  0  0  0  0
   62.1200   32.4560   47.0630 C   0  0  0  0  0  0  0  0  0  0  0  0
   62.2188   31.8622   46.1423 H   0  0  0  0  0  0  0  0  0  0  0  0
   60.9710   32.3070   47.8710 C   0  0  0  0  0  0  0  0  0  0  0  0
   59.3120   33.9130   44.6780 C   0  0  0  0  0  0  0  0  0  0  0  0
   60.0615   33.9428   43.8734 H   0  0  0  0  0  0  0  0  0  0  0  0
   59.4960   34.6830   45.8300 C   0  0  0  0  0  0  0  0  0  0  0  0
   60.3870   35.3206   45.9280 H   0  0  0  0  0  0  0  0  0  0  0  0
  1  2  1  0
  2  3  2  0
  3  4  1  0
  3  5  1  0
  5  6  1  0
  5  7  2  0
  7  8  1  0
  8  9  1  0
  8 10  1  0
  8 11  1  0
 11 12  1  0
 11 13  1  0
 11 14  1  0
 14 15  1  0
 14 16  1  0
 14 17  1  0
 17 18  1  0
 17 19  1  0
 19 20  1  0
 19 21  1  0
 19 22  1  0
 22 23  1  0
 22 24  1  0
 22 25  1  0
 25 26  2  0
 26 27  1  0
 27 28  1  0
 27 29  2  0
 29 30  1  0
 29 31  1  0
 31 32  1  0
 32 33  1  0
 32 34  1  0
 32 35  1  0
 31 36  1  0
 36 37  2  0
 37 38  1  0
 37 39  1  0
 39 40  1  0
 39 41  2  0
 41 42  1  0
 41 43  1  0
 43 44  1  0
 43 45  2  0
  7 46  1  0
 46 47  1  0
 46 48  2  0
 48 49  1  0
 48  2  1  0
 45 26  1  0
 45 36  1  0
M  END
>  <UniqueID>  (39) 
37

>  <SMILES>  (39) 
Cn1cc/c(=N\CCNCCCc2ccccc2)c2ccccc21

>  <Energy>  (39) 
56.86721327595409

>  <Genealogy>  (39) 
Cn1cc/c(=N\CCNCCCc2ccccc2)c2ccccc21 (cis-trans isomerization)
Cn1cc/c(=N\CCNCCCc2ccccc2)c2ccccc21 (3D coordinates assigned)
Cn1cc/c(=N\CCNCCCc2ccccc2)c2ccccc21 (optimized conformer: 56.86721327595409 kcal/mol)

>  <smiles>  (39) 
Cn1ccc(=NCCNCCCc2ccccc2)c2ccccc21

>  <score_type>  (39) 
oracle

>  <origin>  (39) 
adg

>  <m_score__min__energy>  (39) 
-7.4699999999999998

>  <m_primary>  (39) 
energy

$$$$
39:0
     RDKit          3D

 38 40  0  0  0  0  0  0  0  0999 V2000
   57.1975   32.4846   42.5683 H   0  0  0  0  0  0  0  0  0  0  0  0
   57.1360   31.5890   43.2040 C   0  0  0  0  0  0  0  0  0  0  0  0
   56.6520   30.4230   42.7000 N   0  0  0  0  0  0  0  0  0  0  0  0
   56.5640   29.3030   43.4640 C   0  0  0  0  0  0  0  0  0  0  0  0
   56.1641   28.3709   43.0383 H   0  0  0  0  0  0  0  0  0  0  0  0
   56.9890   29.3460   44.8050 C   0  0  0  0  0  0  0  0  0  0  0  0
   56.9020   28.3220   45.6030 N   0  0  0  0  0  0  0  0  0  0  0  0
   57.9700   27.7780   46.4370 C   0  0  0  0  0  0  0  0  0  0  0  0
   57.9637   28.2856   47.4129 H   0  0  0  0  0  0  0  0  0  0  0  0
   58.9358   27.9408   45.9362 H   0  0  0  0  0  0  0  0  0  0  0  0
   57.7620   26.2790   46.6460 C   0  0  0  0  0  0  0  0  0  0  0  0
   58.4449   25.9253   47.4325 H   0  0  0  0  0  0  0  0  0  0  0  0
   57.9685   25.7567   45.7002 H   0  0  0  0  0  0  0  0  0  0  0  0
   56.3710   26.0000   47.0500 N   0  0  0  0  0  0  0  0  0  0  0  0
   55.7550   26.7150   46.5940 H   0  0  0  0  0  0  0  0  0  0  0  0
   55.9340   24.6750   46.5890 C   0  0  0  0  0  0  0  0  0  0  0  0
   55.6109   24.0791   47.4553 H   0  0  0  0  0  0  0  0  0  0  0  0
   56.7749   24.1810   46.0802 H   0  0  0  0  0  0  0  0  0  0  0  0
   54.7890   24.8030   45.6220 C   0  0  0  0  0  0  0  0  0  0  0  0
   54.0810   25.8440   45.6420 O   0  0  0  0  0  0  0  0  0  0  0  0
   54.5680   23.8300   44.5910 N   0  0  0  0  0  0  0  0  0  0  0  0
   55.4370   22.9570   44.1740 C   0  0  0  0  0  0  0  0  0  0  0  0
   55.5070   21.7120   44.6880 N   0  0  0  0  0  0  0  0  0  0  0  0
   56.5050   20.9870   44.1140 C   0  0  0  0  0  0  0  0  0  0  0  0
   56.7117   19.9435   44.3939 H   0  0  0  0  0  0  0  0  0  0  0  0
   57.2450   21.6600   43.1480 C   0  0  0  0  0  0  0  0  0  0  0  0
   58.0865   21.2455   42.5734 H   0  0  0  0  0  0  0  0  0  0  0  0
   56.6280   23.2190   43.0120 S   0  0  0  0  0  0  0  0  0  0  0  0
   57.4750   30.5150   45.2970 N   0  0  0  0  0  0  0  0  0  0  0  0
   57.5560   31.6410   44.5400 C   0  0  0  0  0  0  0  0  0  0  0  0
   58.0340   32.8640   45.1220 N   0  0  0  0  0  0  0  0  0  0  0  0
   57.8120   33.2320   46.3750 N   0  0  0  0  0  0  0  0  0  0  0  0
   58.4250   34.4170   46.5650 C   0  0  0  0  0  0  0  0  0  0  0  0
   58.4246   34.9874   47.5055 H   0  0  0  0  0  0  0  0  0  0  0  0
   59.0540   34.8060   45.3980 C   0  0  0  0  0  0  0  0  0  0  0  0
   59.6399   35.7205   45.2235 H   0  0  0  0  0  0  0  0  0  0  0  0
   58.7850   33.7950   44.5010 C   0  0  0  0  0  0  0  0  0  0  0  0
   59.1254   33.7547   43.4558 H   0  0  0  0  0  0  0  0  0  0  0  0
  1  2  1  0
  2  3  1  0
  3  4  2  0
  4  5  1  0
  4  6  1  0
  6  7  2  0
  7  8  1  0
  8  9  1  0
  8 10  1  0
  8 11  1  0
 11 12  1  0
 11 13  1  0
 11 14  1  0
 14 15  1  0
 14 16  1  0
 16 17  1  0
 16 18  1  0
 16 19  1  0
 19 20  2  0
 19 21  1  0
 21 22  2  0
 22 23  1  0
 23 24  1  0
 24 25  1  0
 24 26  2  0
 26 27  1  0
 26 28  1  0
  6 29  1  0
 29 30  1  0
 30 31  1  0
 31 32  1  0
 32 33  2  0
 33 34  1  0
 33 35  1  0
 35 36  1  0
 35 37  2  0
 37 38  1  0
 30  2  2  0
 37 31  1  0
 28 22  1  0
M  CHG  2  23  -1  29  -1
M  END
>  <UniqueID>  (40) 
38

>  <SMILES>  (40) 
O=C(CNCC/N=c1\cncc(-n2cccn2)[n-]1)/N=c1/[n-]ccs1

>  <Energy>  (40) 
104.65501658250896

>  <Genealogy>  (40) 
O=C(CNCCN=c1cncc(-n2cccn2)[n-]1)N=c1[n-]ccs1 (protonated)
O=C(CNCC/N=c1\cncc(-n2cccn2)[n-]1)/N=c1/[n-]ccs1 (cis-trans isomerization)
O=C(CNCC/N=c1\cncc(-n2cccn2)[n-]1)/N=c1/[n-]ccs1 (3D coordinates assigned)
O=C(CNCC/N=c1\cncc(-n2cccn2)[n-]1)/N=c1/[n-]ccs1 (optimized conformer: 104.65501658250896 kcal/mol)

>  <smiles>  (40) 
O=C(CNCCN=c1cncc(-n2cccn2)[nH]1)N=c1[nH]ccs1

>  <score_type>  (40) 
oracle

>  <origin>  (40) 
adg

>  <m_score__min__energy>  (40) 
-10.94

>  <m_primary>  (40) 
energy

$$$$
40:0
     RDKit          3D

 32 34  0  0  1  0  0  0  0  0999 V2000
   57.4680   32.0880   41.5330 C   0  0  0  0  0  0  0  0  0  0  0  0
   57.8060   31.9730   42.9790 C   0  0  0  0  0  0  0  0  0  0  0  0
   57.8130   33.0780   43.8140 C   0  0  0  0  0  0  0  0  0  0  0  0
   58.1230   32.9940   45.1550 C   0  0  0  0  0  0  0  0  0  0  0  0
   58.1100   34.0530   45.8710 N   0  0  0  0  0  0  0  0  0  0  0  0
   59.2490   34.9580   45.9220 C   0  0  0  0  0  0  0  0  0  0  0  0
   60.2170   34.3410   46.8770 C   0  0  0  0  0  0  0  0  0  0  0  0
   59.9300   34.2630   48.2380 C   0  0  0  0  0  0  0  0  0  0  0  0
   60.8600   33.6840   49.0760 C   0  0  0  0  0  0  0  0  0  0  0  0
   62.0550   33.1810   48.6180 C   0  0  0  0  0  0  0  0  0  0  0  0
   62.3540   33.2540   47.2530 C   0  0  0  0  0  0  0  0  0  0  0  0
   61.4260   33.8370   46.3860 C   0  0  0  0  0  0  0  0  0  0  0  0
   58.4320   31.7990   45.6780 N   0  0  0  0  0  0  0  0  0  0  0  0
   58.7650   31.4440   46.9170 N   0  0  0  0  0  0  0  0  0  0  0  0
   58.9810   30.1310   46.9370 C   0  0  0  0  0  0  0  0  0  0  0  0
   58.7840   29.6060   45.6610 C   0  0  0  0  0  0  0  0  0  0  0  0
   58.4310   30.7070   44.8750 C   0  0  0  0  0  0  0  0  0  0  0  0
   58.1250   30.7930   43.5570 N   0  0  0  0  0  0  0  0  0  0  0  0
   56.4316   32.4406   41.4256 H   0  0  0  0  0  0  0  0  0  0  0  0
   58.1507   32.8044   41.0527 H   0  0  0  0  0  0  0  0  0  0  0  0
   57.5721   31.1039   41.0527 H   0  0  0  0  0  0  0  0  0  0  0  0
   57.5613   34.0616   43.3906 H   0  0  0  0  0  0  0  0  0  0  0  0
   59.7044   35.0570   44.9256 H   0  0  0  0  0  0  0  0  0  0  0  0
   58.9503   35.9666   46.2436 H   0  0  0  0  0  0  0  0  0  0  0  0
   58.9822   34.6547   48.6357 H   0  0  0  0  0  0  0  0  0  0  0  0
   60.6373   33.6223   50.1515 H   0  0  0  0  0  0  0  0  0  0  0  0
   62.7699   32.7251   49.3188 H   0  0  0  0  0  0  0  0  0  0  0  0
   63.3055   32.8583   46.8681 H   0  0  0  0  0  0  0  0  0  0  0  0
   61.6477   33.9000   45.3104 H   0  0  0  0  0  0  0  0  0  0  0  0
   59.2706   29.5492   47.8245 H   0  0  0  0  0  0  0  0  0  0  0  0
   58.8841   28.5578   45.3429 H   0  0  0  0  0  0  0  0  0  0  0  0
   58.1410   29.9190   42.9890 H   0  0  0  0  0  0  0  0  0  0  0  0
  1  2  1  0
  2  3  2  0
  3  4  1  0
  4  5  2  0
  5  6  1  0
  6  7  1  0
  7  8  2  0
  8  9  1  0
  9 10  2  0
 10 11  1  0
 11 12  2  0
  4 13  1  0
 13 14  1  0
 14 15  2  0
 15 16  1  0
 16 17  2  0
 17 18  1  0
 18  2  1  0
 12  7  1  0
 17 13  1  0
  1 19  1  0
  1 20  1  0
  1 21  1  0
  3 22  1  0
  6 23  1  0
  6 24  1  0
  8 25  1  0
  9 26  1  0
 10 27  1  0
 11 28  1  0
 12 29  1  0
 15 30  1  0
 16 31  1  0
 18 32  1  0
M  END
>  <smiles>  (41) 
Cc1cc(=NCc2ccccc2)n2nccc2[nH]1

>  <score_type>  (41) 
oracle

>  <origin>  (41) 
adg

>  <m_score__min__energy>  (41) 
-6.4400000000000004

>  <m_primary>  (41) 
energy

$$$$
41:0
     RDKit          3D

 52 55  0  0  0  0  0  0  0  0999 V2000
   59.0490   32.9830   50.5870 C   0  0  0  0  0  0  0  0  0  0  0  0
   59.9600   32.2160   49.8080 O   0  0  0  0  0  0  0  0  0  0  0  0
   61.0030   32.7560   49.0380 C   0  0  0  0  0  0  0  0  0  0  0  0
   61.9600   33.6310   49.5930 C   0  0  0  0  0  0  0  0  0  0  0  0
   62.9690   34.1720   48.7920 C   0  0  0  0  0  0  0  0  0  0  0  0
   63.0370   33.8500   47.4370 C   0  0  0  0  0  0  0  0  0  0  0  0
   62.0980   32.9820   46.8770 C   0  0  0  0  0  0  0  0  0  0  0  0
   61.0820   32.4250   47.6700 C   0  0  0  0  0  0  0  0  0  0  0  0
   60.1330   31.5250   47.0710 N   0  0  0  0  0  0  0  0  0  0  0  0
   60.0510   30.1250   47.5070 C   0  0  0  0  0  0  0  0  0  0  0  0
   59.8690   29.2090   46.2940 C   0  0  0  0  0  0  0  0  0  0  0  0
   58.7940   29.7340   45.4440 N   0  0  0  0  0  0  0  0  0  0  0  0
   57.5160   29.0730   45.3930 C   0  0  0  0  0  0  0  0  0  0  0  0
   56.4660   29.7400   45.6050 O   0  0  0  0  0  0  0  0  0  0  0  0
   57.4100   27.6270   45.0830 C   0  0  0  0  0  0  0  0  0  0  0  0
   56.8280   26.7440   46.0070 C   0  0  0  0  0  0  0  0  0  0  0  0
   56.7110   25.3830   45.7120 C   0  0  0  0  0  0  0  0  0  0  0  0
   57.1680   24.8760   44.4830 C   0  0  0  0  0  0  0  0  0  0  0  0
   57.0410   23.4320   44.1620 C   0  0  0  0  0  0  0  0  0  0  0  0
   57.2480   22.4610   45.1580 C   0  0  0  0  0  0  0  0  0  0  0  0
   57.1330   21.1080   44.8350 C   0  0  0  0  0  0  0  0  0  0  0  0
   56.8120   20.7290   43.5330 C   0  0  0  0  0  0  0  0  0  0  0  0
   56.6090   21.7150   42.5670 C   0  0  0  0  0  0  0  0  0  0  0  0
   56.7270   23.0310   42.8930 N   0  0  0  0  0  0  0  0  0  0  0  0
   57.7400   25.7620   43.5540 C   0  0  0  0  0  0  0  0  0  0  0  0
   57.8560   27.1220   43.8490 C   0  0  0  0  0  0  0  0  0  0  0  0
   58.9310   31.1150   44.9740 C   0  0  0  0  0  0  0  0  0  0  0  0
   59.0940   32.0470   46.1760 C   0  0  0  0  0  0  0  0  0  0  0  0
   59.2486   32.8150   51.6556 H   0  0  0  0  0  0  0  0  0  0  0  0
   59.1756   34.0505   50.3538 H   0  0  0  0  0  0  0  0  0  0  0  0
   58.0187   32.6764   50.3538 H   0  0  0  0  0  0  0  0  0  0  0  0
   61.9118   33.8887   50.6613 H   0  0  0  0  0  0  0  0  0  0  0  0
   63.7118   34.8539   49.2316 H   0  0  0  0  0  0  0  0  0  0  0  0
   63.8310   34.2802   46.8090 H   0  0  0  0  0  0  0  0  0  0  0  0
   62.1545   32.7327   45.8071 H   0  0  0  0  0  0  0  0  0  0  0  0
   60.9776   29.8525   48.0335 H   0  0  0  0  0  0  0  0  0  0  0  0
   59.1902   30.0066   48.1815 H   0  0  0  0  0  0  0  0  0  0  0  0
   60.8060   29.1708   45.7191 H   0  0  0  0  0  0  0  0  0  0  0  0
   59.6072   28.1962   46.6342 H   0  0  0  0  0  0  0  0  0  0  0  0
   56.4612   27.1268   46.9708 H   0  0  0  0  0  0  0  0  0  0  0  0
   56.2574   24.7026   46.4478 H   0  0  0  0  0  0  0  0  0  0  0  0
   57.4989   22.7658   46.1847 H   0  0  0  0  0  0  0  0  0  0  0  0
   57.2956   20.3418   45.6073 H   0  0  0  0  0  0  0  0  0  0  0  0
   56.7197   19.6649   43.2699 H   0  0  0  0  0  0  0  0  0  0  0  0
   56.3523   21.4273   41.5368 H   0  0  0  0  0  0  0  0  0  0  0  0
   56.5470   23.7390   42.1460 H   0  0  0  0  0  0  0  0  0  0  0  0
   58.0993   25.3811   42.5866 H   0  0  0  0  0  0  0  0  0  0  0  0
   58.3003   27.8043   43.1093 H   0  0  0  0  0  0  0  0  0  0  0  0
   59.8151   31.1956   44.3245 H   0  0  0  0  0  0  0  0  0  0  0  0
   58.0330   31.4008   44.4066 H   0  0  0  0  0  0  0  0  0  0  0  0
   59.3834   33.0486   45.8252 H   0  0  0  0  0  0  0  0  0  0  0  0
   58.1407   32.1071   46.7215 H   0  0  0  0  0  0  0  0  0  0  0  0
  1  2  1  0
  2  3  1  0
  3  4  2  0
  4  5  1  0
  5  6  2  0
  6  7  1  0
  7  8  2  0
  8  9  1  0
  9 10  1  0
 10 11  1  0
 11 12  1  0
 12 13  1  0
 13 14  2  0
 13 15  1  0
 15 16  2  0
 16 17  1  0
 17 18  2  0
 18 19  1  0
 19 20  2  0
 20 21  1  0
 21 22  2  0
 22 23  1  0
 23 24  2  0
 18 25  1  0
 25 26  2  0
 12 27  1  0
 27 28  1  0
  8  3  1  0
 28  9  1  0
 26 15  1  0
 24 19  1  0
  1 29  1  0
  1 30  1  0
  1 31  1  0
  4 32  1  0
  5 33  1  0
  6 34  1  0
  7 35  1  0
 10 36  1  0
 10 37  1  0
 11 38  1  0
 11 39  1  0
 16 40  1  0
 17 41  1  0
 20 42  1  0
 21 43  1  0
 22 44  1  0
 23 45  1  0
 24 46  1  0
 25 47  1  0
 26 48  1  0
 27 49  1  0
 27 50  1  0
 28 51  1  0
 28 52  1  0
M  CHG  1  24   1
M  END
>  <UniqueID>  (42) 
39

>  <SMILES>  (42) 
COc1ccccc1N1CCN(C(=O)c2ccc(-c3cccc[nH+]3)cc2)CC1

>  <Energy>  (42) 
69.14744543367729

>  <Genealogy>  (42) 
COc1ccccc1N1CCN(C(=O)c2ccc(-c3cccc[nH+]3)cc2)CC1 (protonated)
COc1ccccc1N1CCN(C(=O)c2ccc(-c3cccc[nH+]3)cc2)CC1 (3D coordinates assigned)
COc1ccccc1N1CCN(C(=O)c2ccc(-c3cccc[nH+]3)cc2)CC1 (nonaromatic ring conformer: 69.14744543367729 kcal/mol)

>  <smiles>  (42) 
COc1ccccc1N1CCN(C(=O)c2ccc(-c3ccccn3)cc2)CC1

>  <score_type>  (42) 
oracle

>  <origin>  (42) 
adg

>  <m_score__min__energy>  (42) 
-6.2800000000000002

>  <m_primary>  (42) 
energy

$$$$
42:0
     RDKit          3D

 30 31  0  0  0  0  0  0  0  0999 V2000
   58.9360   28.8430   44.4730 C   0  0  0  0  0  0  0  0  0  0  0  0
   57.6170   28.9160   44.2740 C   0  0  0  0  0  0  0  0  0  0  0  0
   57.0170   29.9290   43.3410 C   0  0  0  0  0  0  0  0  0  0  0  0
   57.4450   31.2820   43.7100 N   0  0  0  0  0  0  0  0  0  0  0  0
   57.7570   32.3280   42.9030 C   0  0  0  0  0  0  0  0  0  0  0  0
   57.7510   32.2950   41.5710 C   0  0  0  0  0  0  0  0  0  0  0  0
   58.0710   33.4060   43.5930 O   0  0  0  0  0  0  0  0  0  0  0  0
   57.9610   33.1110   44.8700 C   0  0  0  0  0  0  0  0  0  0  0  0
   58.2160   33.9910   45.8500 C   0  0  0  0  0  0  0  0  0  0  0  0
   59.3700   33.9160   46.7670 C   0  0  0  0  0  0  0  0  0  0  0  0
   59.1990   34.0140   48.1570 C   0  0  0  0  0  0  0  0  0  0  0  0
   60.3070   33.9890   49.0070 C   0  0  0  0  0  0  0  0  0  0  0  0
   61.6000   33.8890   48.4780 C   0  0  0  0  0  0  0  0  0  0  0  0
   62.9710   33.8620   49.5790 Cl  0  0  0  0  0  0  0  0  0  0  0  0
   61.7810   33.8240   47.0860 C   0  0  0  0  0  0  0  0  0  0  0  0
   63.3860   33.7160   46.3800 Cl  0  0  0  0  0  0  0  0  0  0  0  0
   60.6670   33.8490   46.2370 C   0  0  0  0  0  0  0  0  0  0  0  0
   57.5750   31.7820   44.9540 C   0  0  0  0  0  0  0  0  0  0  0  0
   57.4040   31.1090   46.0070 O   0  0  0  0  0  0  0  0  0  0  0  0
   59.3474   28.0909   45.1622 H   0  0  0  0  0  0  0  0  0  0  0  0
   59.6106   29.5350   43.9476 H   0  0  0  0  0  0  0  0  0  0  0  0
   56.9544   28.2176   44.8061 H   0  0  0  0  0  0  0  0  0  0  0  0
   57.3441   29.7133   42.3132 H   0  0  0  0  0  0  0  0  0  0  0  0
   55.9207   29.8710   43.4094 H   0  0  0  0  0  0  0  0  0  0  0  0
   58.0190   33.1945   40.9973 H   0  0  0  0  0  0  0  0  0  0  0  0
   57.4781   31.3683   41.0450 H   0  0  0  0  0  0  0  0  0  0  0  0
   57.5147   34.8285   45.9794 H   0  0  0  0  0  0  0  0  0  0  0  0
   58.1877   34.1109   48.5787 H   0  0  0  0  0  0  0  0  0  0  0  0
   60.1636   34.0481   50.0960 H   0  0  0  0  0  0  0  0  0  0  0  0
   60.8104   33.8158   45.1469 H   0  0  0  0  0  0  0  0  0  0  0  0
  1  2  2  0
  2  3  1  0
  3  4  1  0
  4  5  1  0
  5  6  2  0
  5  7  1  0
  7  8  1  0
  8  9  2  3
  9 10  1  0
 10 11  2  0
 11 12  1  0
 12 13  2  0
 13 14  1  0
 13 15  1  0
 15 16  1  0
 15 17  2  0
  8 18  1  0
 18 19  2  0
 18  4  1  0
 17 10  1  0
  1 20  1  0
  1 21  1  0
  2 22  1  0
  3 23  1  0
  3 24  1  0
  6 25  1  0
  6 26  1  0
  9 27  1  0
 11 28  1  0
 12 29  1  0
 17 30  1  0
M  END
>  <UniqueID>  (43) 
40

>  <SMILES>  (43) 
C=CCn1c(=C)oc(=Cc2ccc(Cl)c(Cl)c2)c1=O

>  <Energy>  (43) 
70.14573407656154

>  <Genealogy>  (43) 
C=CCn1c(=C)oc(=Cc2ccc(Cl)c(Cl)c2)c1=O (3D coordinates assigned)
C=CCn1c(=C)oc(=Cc2ccc(Cl)c(Cl)c2)c1=O (optimized conformer: 70.14573407656154 kcal/mol)

>  <smiles>  (43) 
C=CCn1c(=C)oc(=Cc2ccc(Cl)c(Cl)c2)c1=O

>  <score_type>  (43) 
oracle

>  <origin>  (43) 
adg

>  <m_score__min__energy>  (43) 
-7.2599999999999998

>  <m_primary>  (43) 
energy

$$$$
43:0
     RDKit          3D

 37 39  0  0  0  0  0  0  0  0999 V2000
   59.6410   35.5900   45.9560 C   0  0  0  0  0  0  0  0  0  0  0  0
   59.0230   34.7270   46.9080 O   0  0  0  0  0  0  0  0  0  0  0  0
   59.4070   33.3970   47.1370 C   0  0  0  0  0  0  0  0  0  0  0  0
   58.5270   32.4350   47.6710 C   0  0  0  0  0  0  0  0  0  0  0  0
   58.9570   31.1180   47.8740 C   0  0  0  0  0  0  0  0  0  0  0  0
   60.2780   30.7510   47.5730 C   0  0  0  0  0  0  0  0  0  0  0  0
   60.7290   29.3240   47.7390 C   0  0  0  0  0  0  0  0  0  0  0  0
   60.4030   28.5520   46.5400 N   0  0  0  0  0  0  0  0  0  0  0  0
   59.0630   28.0950   46.3090 C   0  0  0  0  0  0  0  0  0  0  0  0
   58.6540   26.8900   46.8840 C   0  0  0  0  0  0  0  0  0  0  0  0
   57.3380   26.4610   46.7350 C   0  0  0  0  0  0  0  0  0  0  0  0
   56.4430   27.1990   46.0230 N   0  0  0  0  0  0  0  0  0  0  0  0
   55.1540   26.7260   45.9080 O   0  0  0  0  0  0  0  0  0  0  0  0
   56.8120   28.3690   45.4160 C   0  0  0  0  0  0  0  0  0  0  0  0
   55.8840   29.1170   44.6630 C   0  0  0  0  0  0  0  0  0  0  0  0
   56.2740   30.2980   44.0300 C   0  0  0  0  0  0  0  0  0  0  0  0
   57.5920   30.7440   44.1240 C   0  0  0  0  0  0  0  0  0  0  0  0
   58.1210   32.3510   43.2340 Br  0  0  0  0  0  0  0  0  0  0  0  0
   58.5260   30.0210   44.8700 C   0  0  0  0  0  0  0  0  0  0  0  0
   58.1460   28.8410   45.5390 C   0  0  0  0  0  0  0  0  0  0  0  0
   61.1510   31.7080   47.0330 C   0  0  0  0  0  0  0  0  0  0  0  0
   60.7190   33.0200   46.8210 C   0  0  0  0  0  0  0  0  0  0  0  0
   60.2031   36.3749   46.4832 H   0  0  0  0  0  0  0  0  0  0  0  0
   60.3286   35.0075   45.3252 H   0  0  0  0  0  0  0  0  0  0  0  0
   58.8681   36.0534   45.3252 H   0  0  0  0  0  0  0  0  0  0  0  0
   57.4966   32.7201   47.9298 H   0  0  0  0  0  0  0  0  0  0  0  0
   58.2569   30.3681   48.2709 H   0  0  0  0  0  0  0  0  0  0  0  0
   61.8168   29.3026   47.9011 H   0  0  0  0  0  0  0  0  0  0  0  0
   60.2133   28.8813   48.6039 H   0  0  0  0  0  0  0  0  0  0  0  0
   61.1810   28.0000   46.1110 H   0  0  0  0  0  0  0  0  0  0  0  0
   59.3707   26.2805   47.4540 H   0  0  0  0  0  0  0  0  0  0  0  0
   57.0181   25.5156   47.1976 H   0  0  0  0  0  0  0  0  0  0  0  0
   54.8449   28.7672   44.5738 H   0  0  0  0  0  0  0  0  0  0  0  0
   55.5387   30.8795   43.4545 H   0  0  0  0  0  0  0  0  0  0  0  0
   59.5652   30.3756   44.9354 H   0  0  0  0  0  0  0  0  0  0  0  0
   62.1818   31.4236   46.7750 H   0  0  0  0  0  0  0  0  0  0  0  0
   61.4144   33.7626   46.4028 H   0  0  0  0  0  0  0  0  0  0  0  0
  1  2  1  0
  2  3  1  0
  3  4  2  0
  4  5  1  0
  5  6  2  0
  6  7  1  0
  7  8  1  0
  8  9  1  0
  9 10  2  0
 10 11  1  0
 11 12  2  0
 12 13  1  0
 12 14  1  0
 14 15  2  0
 15 16  1  0
 16 17  2  0
 17 18  1  0
 17 19  1  0
 19 20  2  0
  6 21  1  0
 21 22  2  0
 22  3  1  0
 20  9  1  0
 20 14  1  0
  1 23  1  0
  1 24  1  0
  1 25  1  0
  4 26  1  0
  5 27  1  0
  7 28  1  0
  7 29  1  0
  8 30  1  0
 10 31  1  0
 11 32  1  0
 15 33  1  0
 16 34  1  0
 19 35  1  0
 21 36  1  0
 22 37  1  0
M  CHG  2  12   1  13  -1
M  END
>  <UniqueID>  (44) 
41

>  <SMILES>  (44) 
COc1ccc(CNc2cc[n+]([O-])c3ccc(Br)cc23)cc1

>  <Energy>  (44) 
47.536154687455856

>  <Genealogy>  (44) 
COc1ccc(CNc2cc[n+]([O-])c3ccc(Br)cc23)cc1 (3D coordinates assigned)
COc1ccc(CNc2cc[n+]([O-])c3ccc(Br)cc23)cc1 (optimized conformer: 47.536154687455856 kcal/mol)

>  <smiles>  (44) 
COc1ccc(CNc2cc[n+]([O-])c3ccc(Br)cc23)cc1

>  <score_type>  (44) 
oracle

>  <origin>  (44) 
adg

>  <m_score__min__energy>  (44) 
-7.7699999999999996

>  <m_primary>  (44) 
energy

$$$$
44:0
     RDKit          3D

 41 43  0  0  0  0  0  0  0  0999 V2000
   59.8880   28.5220   44.9070 C   0  0  0  0  0  0  0  0  0  0  0  0
   58.6970   28.8430   45.8100 C   0  0  0  0  0  0  0  0  0  0  0  0
   58.3040   30.3040   45.6970 C   0  0  0  0  0  0  0  0  0  0  0  0
   57.2190   30.7360   44.9970 C   0  0  0  0  0  0  0  0  0  0  0  0
   56.3300   29.7800   44.2850 C   0  0  0  0  0  0  0  0  0  0  0  0
   56.5940   29.4490   43.0990 O   0  0  0  0  0  0  0  0  0  0  0  0
   55.1690   29.2970   44.8770 O   0  0  0  0  0  0  0  0  0  0  0  0
   56.9010   32.1500   44.8390 N   0  0  2  0  0  0  0  0  0  0  0  0
   57.7510   32.8170   43.8510 C   0  0  0  0  0  0  0  0  0  0  0  0
   58.1020   32.6070   42.7000 O   0  0  0  0  0  0  0  0  0  0  0  0
   57.9540   33.9220   44.8920 C   0  0  2  0  0  0  0  0  0  0  0  0
   59.3650   34.1430   45.1840 N   0  0  0  0  0  0  0  0  0  0  0  0
   59.8310   35.1750   46.0570 C   0  0  0  0  0  0  0  0  0  0  0  0
   60.0160   36.3440   45.6210 O   0  0  0  0  0  0  0  0  0  0  0  0
   60.0590   34.8720   47.5060 C   0  0  0  0  0  0  0  0  0  0  0  0
   61.3540   34.2070   47.6900 N   0  0  0  0  0  0  0  0  0  0  0  0
   62.0830   33.8310   46.5950 C   0  0  0  0  0  0  0  0  0  0  0  0
   63.3030   33.1670   46.7480 C   0  0  0  0  0  0  0  0  0  0  0  0
   63.7690   32.8800   48.0310 C   0  0  0  0  0  0  0  0  0  0  0  0
   63.0140   33.2540   49.1420 C   0  0  0  0  0  0  0  0  0  0  0  0
   61.7990   33.9180   48.9530 C   0  0  0  0  0  0  0  0  0  0  0  0
   57.2040   33.1030   45.8930 C   0  0  2  0  0  0  0  0  0  0  0  0
   58.1690   32.4600   47.3290 S   0  0  0  0  0  0  0  0  0  0  0  0
   59.1880   31.2880   46.3910 C   0  0  0  0  0  0  0  0  0  0  0  0
   60.7652   28.2856   45.5272 H   0  0  0  0  0  0  0  0  0  0  0  0
   59.6442   27.6575   44.2720 H   0  0  0  0  0  0  0  0  0  0  0  0
   60.1116   29.3919   44.2720 H   0  0  0  0  0  0  0  0  0  0  0  0
   57.8424   28.2171   45.5135 H   0  0  0  0  0  0  0  0  0  0  0  0
   58.9834   28.6378   46.8521 H   0  0  0  0  0  0  0  0  0  0  0  0
   55.9010   32.2670   44.5440 H   0  0  0  0  0  0  0  0  0  0  0  0
   57.6434   34.9623   44.7150 H   0  0  0  0  0  0  0  0  0  0  0  0
   60.0487   35.8109   48.0790 H   0  0  0  0  0  0  0  0  0  0  0  0
   59.2604   34.2044   47.8617 H   0  0  0  0  0  0  0  0  0  0  0  0
   61.7057   34.0532   45.5859 H   0  0  0  0  0  0  0  0  0  0  0  0
   63.8901   32.8735   45.8653 H   0  0  0  0  0  0  0  0  0  0  0  0
   64.7290   32.3603   48.1659 H   0  0  0  0  0  0  0  0  0  0  0  0
   63.3714   33.0285   50.1576 H   0  0  0  0  0  0  0  0  0  0  0  0
   61.1955   34.2108   49.8248 H   0  0  0  0  0  0  0  0  0  0  0  0
   56.4028   33.5513   46.4989 H   0  0  0  0  0  0  0  0  0  0  0  0
   59.7839   31.8351   45.6456 H   0  0  0  0  0  0  0  0  0  0  0  0
   59.8609   30.7550   47.0788 H   0  0  0  0  0  0  0  0  0  0  0  0
  1  2  1  0
  2  3  1  0
  3  4  2  0
  4  5  1  0
  5  6  2  0
  5  7  1  0
  4  8  1  0
  8  9  1  0
  9 10  2  0
  9 11  1  0
 11 12  1  0
 12 13  1  0
 13 14  2  0
 13 15  1  0
 15 16  1  0
 16 17  2  0
 17 18  1  0
 18 19  2  0
 19 20  1  0
 20 21  2  0
 11 22  1  0
 22 23  1  0
 23 24  1  0
 24  3  1  0
 22  8  1  0
 21 16  1  0
  1 25  1  0
  1 26  1  0
  1 27  1  0
  2 28  1  0
  2 29  1  0
  8 30  1  6
 11 31  1  6
 15 32  1  0
 15 33  1  0
 17 34  1  0
 18 35  1  0
 19 36  1  0
 20 37  1  0
 21 38  1  0
 22 39  1  1
 24 40  1  0
 24 41  1  0
M  CHG  4   7  -1   8   1  12  -1  16   1
M  END
>  <UniqueID>  (45) 
42

>  <SMILES>  (45) 
CCC1=C(C(=O)[O-])[N@@H+]2C(=O)[C@H]([N-]C(=O)C[n+]3ccccc3)C2SC1

>  <Energy>  (45) 
104.8456647393586

>  <Genealogy>  (45) 
CCC1=C(C(=O)[O-])[NH+]2C(=O)C([N-]C(=O)C[n+]3ccccc3)C2SC1 (protonated)
CCC1=C(C(=O)[O-])[N@@H+]2C(=O)[C@H]([N-]C(=O)C[n+]3ccccc3)C2SC1 (chirality)
CCC1=C(C(=O)[O-])[N@@H+]2C(=O)[C@H]([N-]C(=O)C[n+]3ccccc3)C2SC1 (3D coordinates assigned)
CCC1=C(C(=O)[O-])[N@@H+]2C(=O)[C@H]([N-]C(=O)C[n+]3ccccc3)C2SC1 (nonaromatic ring conformer: 104.8456647393586 kcal/mol)

>  <smiles>  (45) 
CCC1=C(C(=O)[O-])N2C(=O)C(NC(=O)C[n+]3ccccc3)C2SC1

>  <score_type>  (45) 
oracle

>  <origin>  (45) 
adg

>  <m_score__min__energy>  (45) 
-8.7799999999999994

>  <m_primary>  (45) 
energy

$$$$
