0:0
     RDKit          3D

 29 30  0  0  0  0  0  0  0  0999 V2000
   56.8300   28.4860   45.2480 C   0  0  0  0  0  0  0  0  0  0  0  0
   56.2380   29.7370   44.9150 O   0  0  0  0  0  0  0  0  0  0  0  0
   56.8270   30.7030   44.0840 C   0  0  0  0  0  0  0  0  0  0  0  0
   56.6780   30.6680   42.6830 C   0  0  0  0  0  0  0  0  0  0  0  0
   57.2890   31.6350   41.8820 C   0  0  0  0  0  0  0  0  0  0  0  0
   58.0580   32.6420   42.4630 C   0  0  0  0  0  0  0  0  0  0  0  0
   58.2140   32.6920   43.8480 C   0  0  0  0  0  0  0  0  0  0  0  0
   57.5930   31.7350   44.6730 C   0  0  0  0  0  0  0  0  0  0  0  0
   57.7870   31.7870   46.1030 N   0  0  0  0  0  0  0  0  0  0  0  0
   57.7630   33.1820   46.5640 C   0  0  0  0  0  0  0  0  0  0  0  0
   59.1030   33.5770   47.1060 C   0  0  0  0  0  0  0  0  0  0  0  0
   59.3280   34.2970   48.2720 C   0  0  0  0  0  0  0  0  0  0  0  0
   60.6880   34.4480   48.5700 C   0  0  0  0  0  0  0  0  0  0  0  0
   61.5310   33.8370   47.6510 C   0  0  0  0  0  0  0  0  0  0  0  0
   60.5860   33.1050   46.4690 S   0  0  0  0  0  0  0  0  0  0  0  0
   56.8787   28.3831   46.3421 H   0  0  0  0  0  0  0  0  0  0  0  0
   56.2225   27.6699   44.8296 H   0  0  0  0  0  0  0  0  0  0  0  0
   57.8462   28.4383   44.8296 H   0  0  0  0  0  0  0  0  0  0  0  0
   56.0763   29.8736   42.2173 H   0  0  0  0  0  0  0  0  0  0  0  0
   57.1631   31.6020   40.7897 H   0  0  0  0  0  0  0  0  0  0  0  0
   58.5426   33.3984   41.8281 H   0  0  0  0  0  0  0  0  0  0  0  0
   58.8273   33.4857   44.2995 H   0  0  0  0  0  0  0  0  0  0  0  0
   57.0280   31.2470   46.5830 H   0  0  0  0  0  0  0  0  0  0  0  0
   58.6990   31.3410   46.3570 H   0  0  0  0  0  0  0  0  0  0  0  0
   57.5060   33.8383   45.7195 H   0  0  0  0  0  0  0  0  0  0  0  0
   57.0124   33.2808   47.3621 H   0  0  0  0  0  0  0  0  0  0  0  0
   58.5209   34.7066   48.8972 H   0  0  0  0  0  0  0  0  0  0  0  0
   61.0540   34.9987   49.4491 H   0  0  0  0  0  0  0  0  0  0  0  0
   62.6303   33.8327   47.6899 H   0  0  0  0  0  0  0  0  0  0  0  0
  1  2  1  0
  2  3  1  0
  3  4  2  0
  4  5  1  0
  5  6  2  0
  6  7  1  0
  7  8  2  0
  8  9  1  0
  9 10  1  0
 10 11  1  0
 11 12  2  0
 12 13  1  0
 13 14  2  0
 14 15  1  0
  8  3  1  0
 15 11  1  0
  1 16  1  0
  1 17  1  0
  1 18  1  0
  4 19  1  0
  5 20  1  0
  6 21  1  0
  7 22  1  0
  9 23  1  0
  9 24  1  0
 10 25  1  0
 10 26  1  0
 12 27  1  0
 13 28  1  0
 14 29  1  0
M  CHG  1   9   1
M  END
>  <UniqueID>  (1) 
1

>  <SMILES>  (1) 
COc1ccccc1[NH2+]Cc1cccs1

>  <Energy>  (1) 
54.23318208679268

>  <Genealogy>  (1) 
COc1ccccc1[NH2+]Cc1cccs1 (protonated)
COc1ccccc1[NH2+]Cc1cccs1 (3D coordinates assigned)
COc1ccccc1[NH2+]Cc1cccs1 (optimized conformer: 54.23318208679268 kcal/mol)

>  <smiles>  (1) 
COc1ccccc1NCc1cccs1

>  <score_type>  (1) 
oracle

>  <origin>  (1) 
adg

>  <m_score__min__energy>  (1) 
-4.3399999999999999

>  <m_primary>  (1) 
energy

$$$$
1:0
     RDKit          3D

 29 29  0  0  0  0  0  0  0  0999 V2000
   57.5329   30.1945   46.3944 H   0  0  0  0  0  0  0  0  0  0  0  0
   57.6400   30.9510   45.6030 C   0  0  0  0  0  0  0  0  0  0  0  0
   57.0050   30.7200   44.4360 C   0  0  0  0  0  0  0  0  0  0  0  0
   57.4040   31.3820   43.2140 C   0  0  0  0  0  0  0  0  0  0  0  0
   57.7230   31.9160   42.2380 N   0  0  0  0  0  0  0  0  0  0  0  0
   55.9150   29.7190   44.3550 C   0  0  0  0  0  0  0  0  0  0  0  0
   54.9890   29.8470   43.5080 O   0  0  0  0  0  0  0  0  0  0  0  0
   55.9160   28.5970   45.2470 N   0  0  0  0  0  0  0  0  0  0  0  0
   56.9930   27.6120   45.3340 C   0  0  2  0  0  0  0  0  0  0  0  0
   56.5652   26.5987   45.3160 H   0  0  0  0  0  0  0  0  0  0  0  0
   57.7550   27.8340   46.6410 C   0  0  0  0  0  0  0  0  0  0  0  0
   57.0867   27.6393   47.4927 H   0  0  0  0  0  0  0  0  0  0  0  0
   58.6145   27.1489   46.6853 H   0  0  0  0  0  0  0  0  0  0  0  0
   58.1120   28.8735   46.6853 H   0  0  0  0  0  0  0  0  0  0  0  0
   57.9490   27.7460   44.1340 C   0  0  0  0  0  0  0  0  0  0  0  0
   57.5352   28.4887   43.4360 H   0  0  0  0  0  0  0  0  0  0  0  0
   58.0373   26.7535   43.6679 H   0  0  0  0  0  0  0  0  0  0  0  0
   59.3520   28.1890   44.5430 C   0  0  0  0  0  0  0  0  0  0  0  0
   59.4240   28.2117   45.6404 H   0  0  0  0  0  0  0  0  0  0  0  0
   60.0917   27.4807   44.1416 H   0  0  0  0  0  0  0  0  0  0  0  0
   59.5509   29.1937   44.1416 H   0  0  0  0  0  0  0  0  0  0  0  0
   58.4680   32.1370   45.9060 C   0  0  0  0  0  0  0  0  0  0  0  0
   57.9950   33.7150   45.5700 S   0  0  0  0  0  0  0  0  0  0  0  0
   59.4200   34.4580   46.0610 C   0  0  0  0  0  0  0  0  0  0  0  0
   59.6218   35.5393   46.0546 H   0  0  0  0  0  0  0  0  0  0  0  0
   60.2970   33.4660   46.4760 C   0  0  0  0  0  0  0  0  0  0  0  0
   62.0670   33.8350   47.0840 Br  0  0  0  0  0  0  0  0  0  0  0  0
   59.7780   32.1690   46.3800 C   0  0  0  0  0  0  0  0  0  0  0  0
   60.3465   31.2672   46.6512 H   0  0  0  0  0  0  0  0  0  0  0  0
  1  2  1  0
  2  3  2  0
  3  4  1  0
  4  5  3  0
  3  6  1  0
  6  7  2  0
  6  8  1  0
  8  9  1  0
  9 10  1  1
  9 11  1  0
 11 12  1  0
 11 13  1  0
 11 14  1  0
  9 15  1  0
 15 16  1  0
 15 17  1  0
 15 18  1  0
 18 19  1  0
 18 20  1  0
 18 21  1  0
  2 22  1  0
 22 23  1  0
 23 24  1  0
 24 25  1  0
 24 26  2  0
 26 27  1  0
 26 28  1  0
 28 29  1  0
 28 22  2  0
M  CHG  1   8  -1
M  END
>  <UniqueID>  (2) 
2

>  <SMILES>  (2) 
CC[C@@H](C)[N-]C(=O)/C(C#N)=C/c1cc(Br)cs1

>  <Energy>  (2) 
49.235848986917425

>  <Genealogy>  (2) 
CCC(C)[N-]C(=O)C(C#N)=Cc1cc(Br)cs1 (protonated)
CC[C@@H](C)[N-]C(=O)C(C#N)=Cc1cc(Br)cs1 (chirality)
CC[C@@H](C)[N-]C(=O)/C(C#N)=C/c1cc(Br)cs1 (cis-trans isomerization)
CC[C@@H](C)[N-]C(=O)/C(C#N)=C/c1cc(Br)cs1 (3D coordinates assigned)
CC[C@@H](C)[N-]C(=O)/C(C#N)=C/c1cc(Br)cs1 (optimized conformer: 49.235848986917425 kcal/mol)

>  <smiles>  (2) 
CCC(C)NC(=O)C(C#N)=Cc1cc(Br)cs1

>  <score_type>  (2) 
oracle

>  <origin>  (2) 
adg

>  <m_score__min__energy>  (2) 
-8.5500000000000007

>  <m_primary>  (2) 
energy

$$$$
2:0
     RDKit          3D

 58 61  0  0  0  0  0  0  0  0999 V2000
   64.8870   33.0720   50.7140 C   0  0  0  0  0  0  0  0  0  0  0  0
   64.6970   31.9800   49.6530 C   0  0  0  0  0  0  0  0  0  0  0  0
   64.0450   32.4950   48.4230 N   0  0  0  0  0  0  0  0  0  0  0  0
   63.7640   33.9610   48.5140 C   0  0  0  0  0  0  0  0  0  0  0  0
   62.2910   34.2590   48.8220 C   0  0  0  0  0  0  0  0  0  0  0  0
   61.4150   33.7160   47.7610 N   0  0  0  0  0  0  0  0  0  0  0  0
   59.9740   33.7470   48.1040 C   0  0  0  0  0  0  0  0  0  0  0  0
   59.0800   33.0960   47.0670 C   0  0  0  0  0  0  0  0  0  0  0  0
   58.5110   33.8530   46.0330 C   0  0  0  0  0  0  0  0  0  0  0  0
   57.6900   33.2460   45.0830 C   0  0  0  0  0  0  0  0  0  0  0  0
   57.3970   31.8810   45.1640 C   0  0  0  0  0  0  0  0  0  0  0  0
   57.9650   31.1040   46.1920 C   0  0  0  0  0  0  0  0  0  0  0  0
   58.7920   31.7240   47.1440 C   0  0  0  0  0  0  0  0  0  0  0  0
   57.7820   29.6040   46.2260 C   0  0  0  0  0  0  0  0  0  0  0  0
   58.1840   28.9260   44.9760 N   0  0  0  0  0  0  0  0  0  0  0  0
   58.8040   27.5960   45.1590 C   0  0  0  0  0  0  0  0  0  0  0  0
   57.7480   26.5330   45.3040 C   0  0  0  0  0  0  0  0  0  0  0  0
   57.7520   25.3970   44.4800 C   0  0  0  0  0  0  0  0  0  0  0  0
   56.7490   24.4350   44.6130 C   0  0  0  0  0  0  0  0  0  0  0  0
   55.7520   24.6160   45.5730 C   0  0  0  0  0  0  0  0  0  0  0  0
   55.7600   25.7200   46.3650 N   0  0  0  0  0  0  0  0  0  0  0  0
   56.7260   26.6720   46.2530 C   0  0  0  0  0  0  0  0  0  0  0  0
   57.1440   28.9640   43.9270 C   0  0  0  0  0  0  0  0  0  0  0  0
   56.9650   30.3420   43.2780 C   0  0  0  0  0  0  0  0  0  0  0  0
   56.5380   31.3260   44.2150 O   0  0  0  0  0  0  0  0  0  0  0  0
   61.8820   32.4370   47.1760 C   0  0  0  0  0  0  0  0  0  0  0  0
   62.8310   31.6910   48.1240 C   0  0  0  0  0  0  0  0  0  0  0  0
   64.8095   32.6264   51.7167 H   0  0  0  0  0  0  0  0  0  0  0  0
   65.8787   33.5323   50.5930 H   0  0  0  0  0  0  0  0  0  0  0  0
   64.1090   33.8402   50.5930 H   0  0  0  0  0  0  0  0  0  0  0  0
   65.6827   31.5713   49.3859 H   0  0  0  0  0  0  0  0  0  0  0  0
   64.0429   31.2060   50.0810 H   0  0  0  0  0  0  0  0  0  0  0  0
   64.7040   32.3500   47.6200 H   0  0  0  0  0  0  0  0  0  0  0  0
   64.3854   34.3903   49.3137 H   0  0  0  0  0  0  0  0  0  0  0  0
   63.9979   34.4074   47.5362 H   0  0  0  0  0  0  0  0  0  0  0  0
   62.0225   33.7971   49.7835 H   0  0  0  0  0  0  0  0  0  0  0  0
   62.1534   35.3493   48.8708 H   0  0  0  0  0  0  0  0  0  0  0  0
   59.8345   33.2214   49.0602 H   0  0  0  0  0  0  0  0  0  0  0  0
   59.6818   34.8062   48.1568 H   0  0  0  0  0  0  0  0  0  0  0  0
   58.7134   34.9324   45.9707 H   0  0  0  0  0  0  0  0  0  0  0  0
   57.2692   33.8462   44.2628 H   0  0  0  0  0  0  0  0  0  0  0  0
   59.2201   31.1255   47.9617 H   0  0  0  0  0  0  0  0  0  0  0  0
   58.3875   29.1993   47.0503 H   0  0  0  0  0  0  0  0  0  0  0  0
   56.7068   29.4152   46.3616 H   0  0  0  0  0  0  0  0  0  0  0  0
   59.4304   27.3660   44.2845 H   0  0  0  0  0  0  0  0  0  0  0  0
   59.4164   27.6136   46.0726 H   0  0  0  0  0  0  0  0  0  0  0  0
   58.5452   25.2646   43.7295 H   0  0  0  0  0  0  0  0  0  0  0  0
   56.7445   23.5439   43.9681 H   0  0  0  0  0  0  0  0  0  0  0  0
   54.9582   23.8633   45.6886 H   0  0  0  0  0  0  0  0  0  0  0  0
   56.7046   27.5541   46.9099 H   0  0  0  0  0  0  0  0  0  0  0  0
   57.4181   28.2444   43.1415 H   0  0  0  0  0  0  0  0  0  0  0  0
   56.1900   28.7147   44.4145 H   0  0  0  0  0  0  0  0  0  0  0  0
   57.9260   30.6577   42.8458 H   0  0  0  0  0  0  0  0  0  0  0  0
   56.1884   30.2528   42.5041 H   0  0  0  0  0  0  0  0  0  0  0  0
   61.0094   31.7994   46.9709 H   0  0  0  0  0  0  0  0  0  0  0  0
   62.4312   32.6641   46.2504 H   0  0  0  0  0  0  0  0  0  0  0  0
   62.3023   31.4785   49.0649 H   0  0  0  0  0  0  0  0  0  0  0  0
   63.1467   30.7586   47.6332 H   0  0  0  0  0  0  0  0  0  0  0  0
  1  2  1  0
  2  3  1  0
  3  4  1  0
  4  5  1  0
  5  6  1  0
  6  7  1  0
  7  8  1  0
  8  9  2  0
  9 10  1  0
 10 11  2  0
 11 12  1  0
 12 13  2  0
 12 14  1  0
 14 15  1  0
 15 16  1  0
 16 17  1  0
 17 18  2  0
 18 19  1  0
 19 20  2  0
 20 21  1  0
 21 22  2  0
 15 23  1  0
 23 24  1  0
 24 25  1  0
  6 26  1  0
 26 27  1  0
 27  3  1  0
 13  8  1  0
 22 17  1  0
 25 11  1  0
  1 28  1  0
  1 29  1  0
  1 30  1  0
  2 31  1  0
  2 32  1  0
  3 33  1  0
  4 34  1  0
  4 35  1  0
  5 36  1  0
  5 37  1  0
  7 38  1  0
  7 39  1  0
  9 40  1  0
 10 41  1  0
 13 42  1  0
 14 43  1  0
 14 44  1  0
 16 45  1  0
 16 46  1  0
 18 47  1  0
 19 48  1  0
 20 49  1  0
 22 50  1  0
 23 51  1  0
 23 52  1  0
 24 53  1  0
 24 54  1  0
 26 55  1  0
 26 56  1  0
 27 57  1  0
 27 58  1  0
M  CHG  1   3   1
M  END
>  <UniqueID>  (3) 
3

>  <SMILES>  (3) 
CC[NH+]1CCN(Cc2ccc3c(c2)CN(Cc2cccnc2)CCO3)CC1

>  <Energy>  (3) 
87.65114121374884

>  <Genealogy>  (3) 
CC[NH+]1CCN(Cc2ccc3c(c2)CN(Cc2cccnc2)CCO3)CC1 (protonated)
CC[NH+]1CCN(Cc2ccc3c(c2)CN(Cc2cccnc2)CCO3)CC1 (3D coordinates assigned)
CC[NH+]1CCN(Cc2ccc3c(c2)CN(Cc2cccnc2)CCO3)CC1 (nonaromatic ring conformer: 87.65114121374884 kcal/mol)

>  <smiles>  (3) 
CCN1CCN(Cc2ccc3c(c2)CN(Cc2cccnc2)CCO3)CC1

>  <score_type>  (3) 
oracle

>  <origin>  (3) 
adg

>  <m_score__min__energy>  (3) 
-6.0300000000000002

>  <m_primary>  (3) 
energy

$$$$
3:0
     RDKit          3D

 29 30  0  0  0  0  0  0  0  0999 V2000
   57.6850   29.5930   45.2900 C   0  0  0  0  0  0  0  0  0  0  0  0
   56.6390   30.5380   44.8610 N   0  0  0  0  0  0  0  0  0  0  0  0
   55.6420   29.8290   44.0440 C   0  0  0  0  0  0  0  0  0  0  0  0
   57.2220   31.6540   44.0890 C   0  0  0  0  0  0  0  0  0  0  0  0
   57.9260   32.6130   45.0010 C   0  0  0  0  0  0  0  0  0  0  0  0
   57.4840   33.8670   45.3540 C   0  0  0  0  0  0  0  0  0  0  0  0
   58.3580   34.3670   46.1900 O   0  0  0  0  0  0  0  0  0  0  0  0
   59.3030   33.4650   46.3560 C   0  0  0  0  0  0  0  0  0  0  0  0
   60.4740   33.6580   47.2350 C   0  0  0  0  0  0  0  0  0  0  0  0
   60.3060   34.0340   48.5800 C   0  0  0  0  0  0  0  0  0  0  0  0
   61.4190   34.2160   49.4060 C   0  0  0  0  0  0  0  0  0  0  0  0
   62.7070   34.0250   48.8990 C   0  0  0  0  0  0  0  0  0  0  0  0
   62.8840   33.6520   47.5640 C   0  0  0  0  0  0  0  0  0  0  0  0
   64.1340   33.4680   47.0740 F   0  0  0  0  0  0  0  0  0  0  0  0
   61.7730   33.4690   46.7330 C   0  0  0  0  0  0  0  0  0  0  0  0
   59.0810   32.3430   45.6360 N   0  0  0  0  0  0  0  0  0  0  0  0
   57.7212   29.5603   46.3889 H   0  0  0  0  0  0  0  0  0  0  0  0
   57.4552   28.5902   44.9007 H   0  0  0  0  0  0  0  0  0  0  0  0
   58.6594   29.9231   44.9007 H   0  0  0  0  0  0  0  0  0  0  0  0
   54.9241   29.3185   44.7028 H   0  0  0  0  0  0  0  0  0  0  0  0
   55.1077   30.5511   43.4091 H   0  0  0  0  0  0  0  0  0  0  0  0
   56.1487   29.0872   43.4091 H   0  0  0  0  0  0  0  0  0  0  0  0
   57.9419   31.2528   43.3604 H   0  0  0  0  0  0  0  0  0  0  0  0
   56.4127   32.1873   43.5688 H   0  0  0  0  0  0  0  0  0  0  0  0
   56.5660   34.3584   44.9993 H   0  0  0  0  0  0  0  0  0  0  0  0
   59.2941   34.1855   48.9837 H   0  0  0  0  0  0  0  0  0  0  0  0
   61.2806   34.5101   50.4569 H   0  0  0  0  0  0  0  0  0  0  0  0
   63.5815   34.1682   49.5507 H   0  0  0  0  0  0  0  0  0  0  0  0
   61.9170   33.1760   45.6826 H   0  0  0  0  0  0  0  0  0  0  0  0
  1  2  1  0
  2  3  1  0
  2  4  1  0
  4  5  1  0
  5  6  2  0
  6  7  1  0
  7  8  1  0
  8  9  1  0
  9 10  2  0
 10 11  1  0
 11 12  2  0
 12 13  1  0
 13 14  1  0
 13 15  2  0
  8 16  2  0
 16  5  1  0
 15  9  1  0
  1 17  1  0
  1 18  1  0
  1 19  1  0
  3 20  1  0
  3 21  1  0
  3 22  1  0
  4 23  1  0
  4 24  1  0
  6 25  1  0
 10 26  1  0
 11 27  1  0
 12 28  1  0
 15 29  1  0
M  END
>  <UniqueID>  (4) 
4

>  <SMILES>  (4) 
CN(C)Cc1coc(-c2cccc(F)c2)n1

>  <Energy>  (4) 
57.81779186993702

>  <Genealogy>  (4) 
CN(C)Cc1coc(-c2cccc(F)c2)n1 (3D coordinates assigned)
CN(C)Cc1coc(-c2cccc(F)c2)n1 (optimized conformer: 57.81779186993702 kcal/mol)

>  <smiles>  (4) 
CN(C)Cc1coc(-c2cccc(F)c2)n1

>  <score_type>  (4) 
oracle

>  <origin>  (4) 
adg

>  <m_score__min__energy>  (4) 
-5.5800000000000001

>  <m_primary>  (4) 
energy

$$$$
4:0
     RDKit          3D

 39 40  0  0  0  0  0  0  0  0999 V2000
   53.9637   23.5823   45.4172 H   0  0  0  0  0  0  0  0  0  0  0  0
   54.9010   24.1330   45.2490 C   0  0  0  0  0  0  0  0  0  0  0  0
   55.1890   25.2310   45.9950 N   0  0  0  0  0  0  0  0  0  0  0  0
   56.3490   25.9230   45.8100 C   0  0  0  0  0  0  0  0  0  0  0  0
   56.6370   27.0680   46.5630 O   0  0  0  0  0  0  0  0  0  0  0  0
   57.9090   27.6450   46.6990 C   0  0  0  0  0  0  0  0  0  0  0  0
   58.8380   27.1570   47.6390 C   0  0  0  0  0  0  0  0  0  0  0  0
   58.5578   26.3267   48.3039 H   0  0  0  0  0  0  0  0  0  0  0  0
   60.1130   27.7210   47.7320 C   0  0  0  0  0  0  0  0  0  0  0  0
   60.8296   27.3400   48.4745 H   0  0  0  0  0  0  0  0  0  0  0  0
   60.4780   28.7670   46.8840 C   0  0  0  0  0  0  0  0  0  0  0  0
   61.4811   29.2118   46.9609 H   0  0  0  0  0  0  0  0  0  0  0  0
   59.5720   29.2500   45.9380 C   0  0  0  0  0  0  0  0  0  0  0  0
   59.8668   30.0710   45.2679 H   0  0  0  0  0  0  0  0  0  0  0  0
   58.2870   28.6940   45.8370 C   0  0  0  0  0  0  0  0  0  0  0  0
   57.3350   29.2330   44.8370 C   0  0  0  0  0  0  0  0  0  0  0  0
   56.4150   30.0810   45.1830 N   0  0  0  0  0  0  0  0  0  0  0  0
   56.3780   31.3650   44.6830 O   0  0  0  0  0  0  0  0  0  0  0  0
   57.2920   32.3280   45.1080 C   0  0  0  0  0  0  0  0  0  0  0  0
   57.4050   32.6050   46.3330 O   0  0  0  0  0  0  0  0  0  0  0  0
   58.1090   33.0650   44.0960 C   0  0  0  0  0  0  0  0  0  0  0  0
   59.1476   33.1353   44.4515 H   0  0  0  0  0  0  0  0  0  0  0  0
   57.6843   34.0707   43.9614 H   0  0  0  0  0  0  0  0  0  0  0  0
   58.0860   32.3390   42.7580 C   0  0  0  0  0  0  0  0  0  0  0  0
   58.0516   31.2532   42.9306 H   0  0  0  0  0  0  0  0  0  0  0  0
   57.1972   32.6481   42.1884 H   0  0  0  0  0  0  0  0  0  0  0  0
   58.9926   32.5912   42.1884 H   0  0  0  0  0  0  0  0  0  0  0  0
   57.3530   28.7130   43.4270 C   0  0  0  0  0  0  0  0  0  0  0  0
   58.3363   28.9177   42.9783 H   0  0  0  0  0  0  0  0  0  0  0  0
   57.1622   27.6298   43.4451 H   0  0  0  0  0  0  0  0  0  0  0  0
   56.2710   29.3900   42.5940 C   0  0  0  0  0  0  0  0  0  0  0  0
   55.5302   29.8535   43.2621 H   0  0  0  0  0  0  0  0  0  0  0  0
   56.7273   30.1639   41.9594 H   0  0  0  0  0  0  0  0  0  0  0  0
   55.7746   28.6412   41.9594 H   0  0  0  0  0  0  0  0  0  0  0  0
   57.2250   25.5210   44.8520 N   0  0  0  0  0  0  0  0  0  0  0  0
   56.9730   24.4290   44.0850 C   0  0  0  0  0  0  0  0  0  0  0  0
   57.6971   24.1155   43.3186 H   0  0  0  0  0  0  0  0  0  0  0  0
   55.7960   23.7060   44.2700 C   0  0  0  0  0  0  0  0  0  0  0  0
   55.5785   22.8187   43.6573 H   0  0  0  0  0  0  0  0  0  0  0  0
  1  2  1  0
  2  3  2  0
  3  4  1  0
  4  5  1  0
  5  6  1  0
  6  7  2  0
  7  8  1  0
  7  9  1  0
  9 10  1  0
  9 11  2  0
 11 12  1  0
 11 13  1  0
 13 14  1  0
 13 15  2  0
 15 16  1  0
 16 17  2  0
 17 18  1  0
 18 19  1  0
 19 20  2  0
 19 21  1  0
 21 22  1  0
 21 23  1  0
 21 24  1  0
 24 25  1  0
 24 26  1  0
 24 27  1  0
 16 28  1  0
 28 29  1  0
 28 30  1  0
 28 31  1  0
 31 32  1  0
 31 33  1  0
 31 34  1  0
  4 35  2  0
 35 36  1  0
 36 37  1  0
 36 38  2  0
 38 39  1  0
 38  2  1  0
 15  6  1  0
M  END
>  <UniqueID>  (5) 
5

>  <SMILES>  (5) 
CCC(=O)O/N=C(/CC)c1ccccc1Oc1ncccn1

>  <Energy>  (5) 
41.0812119975721

>  <Genealogy>  (5) 
CCC(=O)O/N=C(/CC)c1ccccc1Oc1ncccn1 (cis-trans isomerization)
CCC(=O)O/N=C(/CC)c1ccccc1Oc1ncccn1 (3D coordinates assigned)
CCC(=O)O/N=C(/CC)c1ccccc1Oc1ncccn1 (optimized conformer: 41.0812119975721 kcal/mol)

>  <smiles>  (5) 
CCC(=O)ON=C(CC)c1ccccc1Oc1ncccn1

>  <score_type>  (5) 
oracle

>  <origin>  (5) 
adg

>  <m_score__min__energy>  (5) 
-7.3499999999999996

>  <m_primary>  (5) 
energy

$$$$
5:0
     RDKit          3D

 43 45  0  0  0  0  0  0  0  0999 V2000
   56.4180   29.8000   43.2320 C   0  0  0  0  0  0  0  0  0  0  0  0
   56.3080   30.4600   44.4890 O   0  0  0  0  0  0  0  0  0  0  0  0
   57.2930   31.2990   45.0330 C   0  0  0  0  0  0  0  0  0  0  0  0
   58.3890   30.8030   45.7610 C   0  0  0  0  0  0  0  0  0  0  0  0
   59.3450   31.6780   46.2830 C   0  0  0  0  0  0  0  0  0  0  0  0
   59.2300   33.0670   46.0830 C   0  0  0  0  0  0  0  0  0  0  0  0
   60.2310   34.0210   46.6340 C   0  0  0  0  0  0  0  0  0  0  0  0
   60.0720   35.2570   46.4160 O   0  0  0  0  0  0  0  0  0  0  0  0
   61.3560   33.5760   47.4330 N   0  0  0  0  0  0  0  0  0  0  0  0
   62.6290   33.8150   46.7180 C   0  0  0  0  0  0  0  0  0  0  0  0
   63.7870   33.1300   47.4600 C   0  0  0  0  0  0  0  0  0  0  0  0
   63.5810   33.1970   48.9110 N   0  0  0  0  0  0  0  0  0  0  0  0
   64.3300   32.3300   49.7830 C   0  0  0  0  0  0  0  0  0  0  0  0
   65.7020   32.5480   49.9890 C   0  0  0  0  0  0  0  0  0  0  0  0
   66.4310   31.7030   50.8320 C   0  0  0  0  0  0  0  0  0  0  0  0
   65.7980   30.6330   51.4690 C   0  0  0  0  0  0  0  0  0  0  0  0
   64.4360   30.4030   51.2620 C   0  0  0  0  0  0  0  0  0  0  0  0
   63.7010   31.2450   50.4200 C   0  0  0  0  0  0  0  0  0  0  0  0
   62.3880   30.9830   50.2010 F   0  0  0  0  0  0  0  0  0  0  0  0
   62.7100   34.2380   49.4650 C   0  0  0  0  0  0  0  0  0  0  0  0
   61.3380   34.2520   48.7550 C   0  0  0  0  0  0  0  0  0  0  0  0
   58.1250   33.5560   45.3630 C   0  0  0  0  0  0  0  0  0  0  0  0
   57.1710   32.6780   44.8410 C   0  0  0  0  0  0  0  0  0  0  0  0
   56.5968   28.7270   43.3956 H   0  0  0  0  0  0  0  0  0  0  0  0
   55.4851   29.9339   42.6647 H   0  0  0  0  0  0  0  0  0  0  0  0
   57.2570   30.2292   42.6647 H   0  0  0  0  0  0  0  0  0  0  0  0
   58.4943   29.7197   45.9205 H   0  0  0  0  0  0  0  0  0  0  0  0
   60.1951   31.2782   46.8553 H   0  0  0  0  0  0  0  0  0  0  0  0
   61.2800   32.5420   47.5790 H   0  0  0  0  0  0  0  0  0  0  0  0
   62.5567   33.4059   45.6994 H   0  0  0  0  0  0  0  0  0  0  0  0
   62.8196   34.8974   46.6735 H   0  0  0  0  0  0  0  0  0  0  0  0
   63.8414   32.0758   47.1507 H   0  0  0  0  0  0  0  0  0  0  0  0
   64.7246   33.6483   47.2103 H   0  0  0  0  0  0  0  0  0  0  0  0
   66.2052   33.3866   49.4854 H   0  0  0  0  0  0  0  0  0  0  0  0
   67.5044   31.8812   50.9936 H   0  0  0  0  0  0  0  0  0  0  0  0
   66.3725   29.9713   52.1339 H   0  0  0  0  0  0  0  0  0  0  0  0
   63.9400   29.5580   51.7620 H   0  0  0  0  0  0  0  0  0  0  0  0
   62.5576   34.0456   50.5373 H   0  0  0  0  0  0  0  0  0  0  0  0
   63.1923   35.2147   49.3119 H   0  0  0  0  0  0  0  0  0  0  0  0
   60.6062   33.7417   49.3985 H   0  0  0  0  0  0  0  0  0  0  0  0
   61.0715   35.3048   48.5800 H   0  0  0  0  0  0  0  0  0  0  0  0
   58.0107   34.6392   45.2094 H   0  0  0  0  0  0  0  0  0  0  0  0
   56.3165   33.0759   44.2740 H   0  0  0  0  0  0  0  0  0  0  0  0
  1  2  1  0
  2  3  1  0
  3  4  2  0
  4  5  1  0
  5  6  2  0
  6  7  1  0
  7  8  2  0
  7  9  1  0
  9 10  1  0
 10 11  1  0
 11 12  1  0
 12 13  1  0
 13 14  2  0
 14 15  1  0
 15 16  2  0
 16 17  1  0
 17 18  2  0
 18 19  1  0
 12 20  1  0
 20 21  1  0
  6 22  1  0
 22 23  2  0
 23  3  1  0
 21  9  1  0
 18 13  1  0
  1 24  1  0
  1 25  1  0
  1 26  1  0
  4 27  1  0
  5 28  1  0
  9 29  1  0
 10 30  1  0
 10 31  1  0
 11 32  1  0
 11 33  1  0
 14 34  1  0
 15 35  1  0
 16 36  1  0
 17 37  1  0
 20 38  1  0
 20 39  1  0
 21 40  1  0
 21 41  1  0
 22 42  1  0
 23 43  1  0
M  CHG  1   9   1
M  END
>  <UniqueID>  (6) 
6

>  <SMILES>  (6) 
COc1ccc(C(=O)[NH+]2CCN(c3ccccc3F)CC2)cc1

>  <Energy>  (6) 
59.20801604413825

>  <Genealogy>  (6) 
COc1ccc(C(=O)[NH+]2CCN(c3ccccc3F)CC2)cc1 (protonated)
COc1ccc(C(=O)[NH+]2CCN(c3ccccc3F)CC2)cc1 (3D coordinates assigned)
COc1ccc(C(=O)[NH+]2CCN(c3ccccc3F)CC2)cc1 (nonaromatic ring conformer: 59.20801604413825 kcal/mol)

>  <smiles>  (6) 
COc1ccc(C(=O)N2CCN(c3ccccc3F)CC2)cc1

>  <score_type>  (6) 
oracle

>  <origin>  (6) 
adg

>  <m_score__min__energy>  (6) 
-5.79

>  <m_primary>  (6) 
energy

$$$$
6:0
     RDKit          3D

 17 18  0  0  0  0  0  0  0  0999 V2000
   58.1250   32.3390   41.6290 C   0  0  0  0  0  0  0  0  0  0  0  0
   57.7220   32.1170   43.0120 N   0  0  0  0  0  0  0  0  0  0  0  0
   57.0380   31.0580   43.5150 C   0  0  0  0  0  0  0  0  0  0  0  0
   56.9080   31.0970   44.8720 N   0  0  0  0  0  0  0  0  0  0  0  0
   57.5570   32.2290   45.2030 C   0  0  0  0  0  0  0  0  0  0  0  0
   57.7680   32.7680   46.4670 C   0  0  0  0  0  0  0  0  0  0  0  0
   58.5140   33.9610   46.5410 C   0  0  0  0  0  0  0  0  0  0  0  0
   59.0140   34.5520   45.3560 C   0  0  0  0  0  0  0  0  0  0  0  0
   58.7780   33.9770   44.1380 N   0  0  0  0  0  0  0  0  0  0  0  0
   58.0510   32.8320   44.0930 C   0  0  0  0  0  0  0  0  0  0  0  0
   59.0883   32.8697   41.6085 H   0  0  0  0  0  0  0  0  0  0  0  0
   58.2288   31.3708   41.1174 H   0  0  0  0  0  0  0  0  0  0  0  0
   57.3621   32.9441   41.1174 H   0  0  0  0  0  0  0  0  0  0  0  0
   56.6296   30.2496   42.8908 H   0  0  0  0  0  0  0  0  0  0  0  0
   57.3696   32.2838   47.3708 H   0  0  0  0  0  0  0  0  0  0  0  0
   58.7072   34.4315   47.5164 H   0  0  0  0  0  0  0  0  0  0  0  0
   59.5978   35.4824   45.4154 H   0  0  0  0  0  0  0  0  0  0  0  0
  1  2  1  0
  2  3  1  0
  3  4  2  0
  4  5  1  0
  5  6  2  0
  6  7  1  0
  7  8  2  0
  8  9  1  0
  9 10  2  0
 10  2  1  0
 10  5  1  0
  1 11  1  0
  1 12  1  0
  1 13  1  0
  3 14  1  0
  6 15  1  0
  7 16  1  0
  8 17  1  0
M  END
>  <UniqueID>  (7) 
7

>  <SMILES>  (7) 
Cn1cnc2cccnc21

>  <Energy>  (7) 
56.47513086028485

>  <Genealogy>  (7) 
Cn1cnc2cccnc21 (3D coordinates assigned)
Cn1cnc2cccnc21 (optimized conformer: 56.47513086028485 kcal/mol)

>  <smiles>  (7) 
Cn1cnc2cccnc21

>  <score_type>  (7) 
oracle

>  <origin>  (7) 
adg

>  <m_score__min__energy>  (7) 
-4.5899999999999999

>  <m_primary>  (7) 
energy

$$$$
7:0
     RDKit          3D

 58 61  0  0  0  0  0  0  0  0999 V2000
   65.7070   32.3080   50.1080 C   0  0  0  0  0  0  0  0  0  0  0  0
   64.6220   33.2160   50.2780 O   0  0  0  0  0  0  0  0  0  0  0  0
   63.6280   33.4530   49.3140 C   0  0  0  0  0  0  0  0  0  0  0  0
   63.9140   33.1550   47.9720 C   0  0  0  0  0  0  0  0  0  0  0  0
   62.9490   33.3550   46.9760 C   0  0  0  0  0  0  0  0  0  0  0  0
   61.6680   33.8360   47.3150 C   0  0  0  0  0  0  0  0  0  0  0  0
   60.5900   33.9750   46.2600 C   0  0  0  0  0  0  0  0  0  0  0  0
   59.2870   34.3770   46.8370 N   0  0  0  0  0  0  0  0  0  0  0  0
   58.1230   33.9890   46.0140 C   0  0  0  0  0  0  0  0  0  0  0  0
   58.1200   32.5210   45.6570 C   0  0  0  0  0  0  0  0  0  0  0  0
   57.7540   32.0970   44.3720 C   0  0  0  0  0  0  0  0  0  0  0  0
   57.6520   30.7330   44.0810 C   0  0  0  0  0  0  0  0  0  0  0  0
   57.9300   29.7710   45.0630 C   0  0  0  0  0  0  0  0  0  0  0  0
   57.7400   28.3240   44.7850 C   0  0  0  0  0  0  0  0  0  0  0  0
   58.0370   27.7910   43.5250 C   0  0  0  0  0  0  0  0  0  0  0  0
   57.8620   26.4270   43.2710 C   0  0  0  0  0  0  0  0  0  0  0  0
   57.3940   25.5560   44.2750 C   0  0  0  0  0  0  0  0  0  0  0  0
   57.2300   24.1350   44.0210 N   0  0  0  0  0  0  0  0  0  0  0  0
   56.2640   23.7000   42.9920 C   0  0  0  0  0  0  0  0  0  0  0  0
   56.3840   22.2110   42.6780 C   0  0  0  0  0  0  0  0  0  0  0  0
   56.4430   21.4760   43.8790 O   0  0  0  0  0  0  0  0  0  0  0  0
   57.6980   21.7010   44.4830 C   0  0  0  0  0  0  0  0  0  0  0  0
   57.8640   23.1630   44.9380 C   0  0  0  0  0  0  0  0  0  0  0  0
   57.0870   26.1050   45.5370 C   0  0  0  0  0  0  0  0  0  0  0  0
   57.2550   27.4670   45.7850 C   0  0  0  0  0  0  0  0  0  0  0  0
   58.3560   30.2000   46.3290 C   0  0  0  0  0  0  0  0  0  0  0  0
   58.4550   31.5620   46.6220 C   0  0  0  0  0  0  0  0  0  0  0  0
   61.3920   34.1730   48.6550 C   0  0  0  0  0  0  0  0  0  0  0  0
   62.3600   33.9790   49.6480 C   0  0  0  0  0  0  0  0  0  0  0  0
   66.0811   31.9950   51.0939 H   0  0  0  0  0  0  0  0  0  0  0  0
   65.3623   31.4253   49.5494 H   0  0  0  0  0  0  0  0  0  0  0  0
   66.5152   32.8028   49.5494 H   0  0  0  0  0  0  0  0  0  0  0  0
   64.9044   32.7610   47.7002 H   0  0  0  0  0  0  0  0  0  0  0  0
   63.1919   33.1359   45.9258 H   0  0  0  0  0  0  0  0  0  0  0  0
   60.9043   34.7368   45.5314 H   0  0  0  0  0  0  0  0  0  0  0  0
   60.4578   32.9928   45.7827 H   0  0  0  0  0  0  0  0  0  0  0  0
   59.2800   35.4210   46.9040 H   0  0  0  0  0  0  0  0  0  0  0  0
   59.1710   34.0190   47.8130 H   0  0  0  0  0  0  0  0  0  0  0  0
   57.2047   34.2158   46.5755 H   0  0  0  0  0  0  0  0  0  0  0  0
   58.1784   34.5577   45.0741 H   0  0  0  0  0  0  0  0  0  0  0  0
   57.5460   32.8408   43.5887 H   0  0  0  0  0  0  0  0  0  0  0  0
   57.3510   30.4117   43.0729 H   0  0  0  0  0  0  0  0  0  0  0  0
   58.4111   28.4506   42.7282 H   0  0  0  0  0  0  0  0  0  0  0  0
   58.0932   26.0280   42.2723 H   0  0  0  0  0  0  0  0  0  0  0  0
   55.2455   23.9043   43.3539 H   0  0  0  0  0  0  0  0  0  0  0  0
   56.4815   24.2574   42.0689 H   0  0  0  0  0  0  0  0  0  0  0  0
   55.5090   21.8886   42.0945 H   0  0  0  0  0  0  0  0  0  0  0  0
   57.3010   22.0338   42.0968 H   0  0  0  0  0  0  0  0  0  0  0  0
   57.7937   21.0430   45.3593 H   0  0  0  0  0  0  0  0  0  0  0  0
   58.4779   21.4859   43.7377 H   0  0  0  0  0  0  0  0  0  0  0  0
   57.4086   23.2731   45.9332 H   0  0  0  0  0  0  0  0  0  0  0  0
   58.9422   23.3808   44.9501 H   0  0  0  0  0  0  0  0  0  0  0  0
   56.7100   25.4503   46.3365 H   0  0  0  0  0  0  0  0  0  0  0  0
   57.0045   27.8743   46.7757 H   0  0  0  0  0  0  0  0  0  0  0  0
   58.6144   29.4569   47.0978 H   0  0  0  0  0  0  0  0  0  0  0  0
   58.7981   31.8837   47.6164 H   0  0  0  0  0  0  0  0  0  0  0  0
   60.4103   34.5910   48.9226 H   0  0  0  0  0  0  0  0  0  0  0  0
   62.1322   34.2373   50.6927 H   0  0  0  0  0  0  0  0  0  0  0  0
  1  2  1  0
  2  3  1  0
  3  4  2  0
  4  5  1  0
  5  6  2  0
  6  7  1  0
  7  8  1  0
  8  9  1  0
  9 10  1  0
 10 11  2  0
 11 12  1  0
 12 13  2  0
 13 14  1  0
 14 15  2  0
 15 16  1  0
 16 17  2  0
 17 18  1  0
 18 19  1  0
 19 20  1  0
 20 21  1  0
 21 22  1  0
 22 23  1  0
 17 24  1  0
 24 25  2  0
 13 26  1  0
 26 27  2  0
  6 28  1  0
 28 29  2  0
 29  3  1  0
 27 10  1  0
 25 14  1  0
 23 18  1  0
  1 30  1  0
  1 31  1  0
  1 32  1  0
  4 33  1  0
  5 34  1  0
  7 35  1  0
  7 36  1  0
  8 37  1  0
  8 38  1  0
  9 39  1  0
  9 40  1  0
 11 41  1  0
 12 42  1  0
 15 43  1  0
 16 44  1  0
 19 45  1  0
 19 46  1  0
 20 47  1  0
 20 48  1  0
 22 49  1  0
 22 50  1  0
 23 51  1  0
 23 52  1  0
 24 53  1  0
 25 54  1  0
 26 55  1  0
 27 56  1  0
 28 57  1  0
 29 58  1  0
M  CHG  1   8   1
M  END
>  <UniqueID>  (8) 
8

>  <SMILES>  (8) 
COc1ccc(C[NH2+]Cc2ccc(-c3ccc(N4CCOCC4)cc3)cc2)cc1

>  <Energy>  (8) 
72.32440823078238

>  <Genealogy>  (8) 
COc1ccc(C[NH2+]Cc2ccc(-c3ccc(N4CCOCC4)cc3)cc2)cc1 (protonated)
COc1ccc(C[NH2+]Cc2ccc(-c3ccc(N4CCOCC4)cc3)cc2)cc1 (3D coordinates assigned)
COc1ccc(C[NH2+]Cc2ccc(-c3ccc(N4CCOCC4)cc3)cc2)cc1 (nonaromatic ring conformer: 72.32440823078238 kcal/mol)

>  <smiles>  (8) 
COc1ccc(CNCc2ccc(-c3ccc(N4CCOCC4)cc3)cc2)cc1

>  <score_type>  (8) 
oracle

>  <origin>  (8) 
adg

>  <m_score__min__energy>  (8) 
-7.1500000000000004

>  <m_primary>  (8) 
energy

$$$$
8:0
     RDKit          3D

 41 42  0  0  0  0  0  0  0  0999 V2000
   58.1300   27.0880   42.7460 C   0  0  0  0  0  0  0  0  0  0  0  0
   58.1930   28.1580   43.7560 N   0  0  0  0  0  0  0  0  0  0  0  0
   58.3150   27.5870   45.1180 C   0  0  0  0  0  0  0  0  0  0  0  0
   56.9420   27.4690   45.7970 C   0  0  0  0  0  0  0  0  0  0  0  0
   56.7420   26.1200   46.4960 C   0  0  0  0  0  0  0  0  0  0  0  0
   55.4760   25.5240   46.0890 N   0  0  0  0  0  0  0  0  0  0  0  0
   55.3720   24.5430   45.0520 C   0  0  0  0  0  0  0  0  0  0  0  0
   54.4000   23.7420   45.0330 O   0  0  0  0  0  0  0  0  0  0  0  0
   56.4420   24.4280   44.0090 C   0  0  0  0  0  0  0  0  0  0  0  0
   56.6330   23.0370   43.6080 N   0  0  0  0  0  0  0  0  0  0  0  0
   57.4570   22.1300   44.1580 C   0  0  0  0  0  0  0  0  0  0  0  0
   57.2640   20.9490   43.5500 N   0  0  0  0  0  0  0  0  0  0  0  0
   56.3170   21.1410   42.6420 N   0  0  0  0  0  0  0  0  0  0  0  0
   55.9290   22.4080   42.6810 N   0  0  0  0  0  0  0  0  0  0  0  0
   57.0100   29.0360   43.6420 C   0  0  0  0  0  0  0  0  0  0  0  0
   57.4010   30.4660   43.9120 C   0  0  0  0  0  0  0  0  0  0  0  0
   57.4530   31.3870   42.8530 C   0  0  0  0  0  0  0  0  0  0  0  0
   57.8590   32.7040   43.0850 C   0  0  0  0  0  0  0  0  0  0  0  0
   58.2130   33.1120   44.3730 C   0  0  0  0  0  0  0  0  0  0  0  0
   58.1600   32.2020   45.4330 C   0  0  0  0  0  0  0  0  0  0  0  0
   57.7550   30.8830   45.2060 C   0  0  0  0  0  0  0  0  0  0  0  0
   58.0725   26.1116   43.2493 H   0  0  0  0  0  0  0  0  0  0  0  0
   57.2386   27.2294   42.1171 H   0  0  0  0  0  0  0  0  0  0  0  0
   59.0318   27.1238   42.1171 H   0  0  0  0  0  0  0  0  0  0  0  0
   58.7678   26.5869   45.0484 H   0  0  0  0  0  0  0  0  0  0  0  0
   58.9449   28.2574   45.7211 H   0  0  0  0  0  0  0  0  0  0  0  0
   56.8493   28.2701   46.5451 H   0  0  0  0  0  0  0  0  0  0  0  0
   56.1752   27.5539   45.0129 H   0  0  0  0  0  0  0  0  0  0  0  0
   57.5659   25.4441   46.2234 H   0  0  0  0  0  0  0  0  0  0  0  0
   56.7301   26.2785   47.5845 H   0  0  0  0  0  0  0  0  0  0  0  0
   56.1514   25.0198   43.1285 H   0  0  0  0  0  0  0  0  0  0  0  0
   57.3855   24.8042   44.4312 H   0  0  0  0  0  0  0  0  0  0  0  0
   58.1715   22.3230   44.9718 H   0  0  0  0  0  0  0  0  0  0  0  0
   57.7430   20.0430   43.7440 H   0  0  0  0  0  0  0  0  0  0  0  0
   56.5947   28.9575   42.6264 H   0  0  0  0  0  0  0  0  0  0  0  0
   56.2558   28.7228   44.3789 H   0  0  0  0  0  0  0  0  0  0  0  0
   57.1732   31.0706   41.8373 H   0  0  0  0  0  0  0  0  0  0  0  0
   57.8998   33.4207   42.2515 H   0  0  0  0  0  0  0  0  0  0  0  0
   58.5333   34.1488   44.5533 H   0  0  0  0  0  0  0  0  0  0  0  0
   58.4374   32.5242   46.4475 H   0  0  0  0  0  0  0  0  0  0  0  0
   57.7135   30.1701   46.0427 H   0  0  0  0  0  0  0  0  0  0  0  0
  1  2  1  0
  2  3  1  0
  3  4  1  0
  4  5  1  0
  5  6  1  0
  6  7  1  0
  7  8  2  0
  7  9  1  0
  9 10  1  0
 10 11  1  0
 11 12  2  0
 12 13  1  0
 13 14  2  0
  2 15  1  0
 15 16  1  0
 16 17  2  0
 17 18  1  0
 18 19  2  0
 19 20  1  0
 20 21  2  0
 14 10  1  0
 21 16  1  0
  1 22  1  0
  1 23  1  0
  1 24  1  0
  3 25  1  0
  3 26  1  0
  4 27  1  0
  4 28  1  0
  5 29  1  0
  5 30  1  0
  9 31  1  0
  9 32  1  0
 11 33  1  0
 12 34  1  0
 15 35  1  0
 15 36  1  0
 17 37  1  0
 18 38  1  0
 19 39  1  0
 20 40  1  0
 21 41  1  0
M  CHG  2   6  -1  12   1
M  END
>  <UniqueID>  (9) 
9

>  <SMILES>  (9) 
CN(CCC[N-]C(=O)Cn1c[nH+]nn1)Cc1ccccc1

>  <Energy>  (9) 
71.63933287302073

>  <Genealogy>  (9) 
CN(CCC[N-]C(=O)Cn1c[nH+]nn1)Cc1ccccc1 (protonated)
CN(CCC[N-]C(=O)Cn1c[nH+]nn1)Cc1ccccc1 (3D coordinates assigned)
CN(CCC[N-]C(=O)Cn1c[nH+]nn1)Cc1ccccc1 (optimized conformer: 71.63933287302073 kcal/mol)

>  <smiles>  (9) 
CN(CCCNC(=O)Cn1cnnn1)Cc1ccccc1

>  <score_type>  (9) 
oracle

>  <origin>  (9) 
adg

>  <m_score__min__energy>  (9) 
-8.9100000000000001

>  <m_primary>  (9) 
energy

$$$$
9:0
     RDKit          3D

 39 43  0  0  0  0  0  0  0  0999 V2000
   60.2800   33.8250   51.4750 C   0  0  0  0  0  0  0  0  0  0  0  0
   60.5110   33.6560   50.0440 N   0  0  0  0  0  0  0  0  0  0  0  0
   59.5600   33.5070   49.0920 C   0  0  0  0  0  0  0  0  0  0  0  0
   60.1500   33.3460   47.8410 C   0  0  0  0  0  0  0  0  0  0  0  0
   59.4320   33.1730   46.5600 C   0  0  0  0  0  0  0  0  0  0  0  0
   59.1520   34.2960   45.7440 C   0  0  0  0  0  0  0  0  0  0  0  0
   58.4590   34.1430   44.5330 C   0  0  0  0  0  0  0  0  0  0  0  0
   58.0920   32.8540   44.1620 C   0  0  0  0  0  0  0  0  0  0  0  0
   57.3940   32.4920   43.0740 N   0  0  0  0  0  0  0  0  0  0  0  0
   57.2440   31.1740   43.1200 N   0  0  0  0  0  0  0  0  0  0  0  0
   57.8700   30.7500   44.2450 C   0  0  0  0  0  0  0  0  0  0  0  0
   57.9340   29.3320   44.6380 C   0  0  0  0  0  0  0  0  0  0  0  0
   59.0140   28.4680   44.4860 C   0  0  0  0  0  0  0  0  0  0  0  0
   58.7350   27.1580   44.8960 C   0  0  0  0  0  0  0  0  0  0  0  0
   57.4370   26.9800   45.3530 C   0  0  0  0  0  0  0  0  0  0  0  0
   56.6330   28.4520   45.2400 S   0  0  0  0  0  0  0  0  0  0  0  0
   58.4010   31.7940   44.9200 N   0  0  0  0  0  0  0  0  0  0  0  0
   59.0400   31.8940   46.1150 C   0  0  0  0  0  0  0  0  0  0  0  0
   61.5190   33.3770   48.0650 C   0  0  0  0  0  0  0  0  0  0  0  0
   62.6050   33.1930   47.2040 C   0  0  0  0  0  0  0  0  0  0  0  0
   63.8990   33.2490   47.7510 C   0  0  0  0  0  0  0  0  0  0  0  0
   64.0820   33.4670   49.1330 C   0  0  0  0  0  0  0  0  0  0  0  0
   62.9740   33.6230   49.9830 C   0  0  0  0  0  0  0  0  0  0  0  0
   61.6980   33.5690   49.4140 C   0  0  0  0  0  0  0  0  0  0  0  0
   61.0427   33.2670   52.0379 H   0  0  0  0  0  0  0  0  0  0  0  0
   60.3419   34.8926   51.7328 H   0  0  0  0  0  0  0  0  0  0  0  0
   59.2813   33.4428   51.7328 H   0  0  0  0  0  0  0  0  0  0  0  0
   58.4762   33.5124   49.2799 H   0  0  0  0  0  0  0  0  0  0  0  0
   59.4803   35.2966   46.0618 H   0  0  0  0  0  0  0  0  0  0  0  0
   58.2154   35.0100   43.9013 H   0  0  0  0  0  0  0  0  0  0  0  0
   57.0190   33.1120   42.3220 H   0  0  0  0  0  0  0  0  0  0  0  0
   59.9887   28.7821   44.0843 H   0  0  0  0  0  0  0  0  0  0  0  0
   59.4760   26.3459   44.8591 H   0  0  0  0  0  0  0  0  0  0  0  0
   57.0080   26.0379   45.7251 H   0  0  0  0  0  0  0  0  0  0  0  0
   59.2464   30.9990   46.7203 H   0  0  0  0  0  0  0  0  0  0  0  0
   62.4516   33.0098   46.1303 H   0  0  0  0  0  0  0  0  0  0  0  0
   64.7745   33.1220   47.0973 H   0  0  0  0  0  0  0  0  0  0  0  0
   65.0996   33.5152   49.5481 H   0  0  0  0  0  0  0  0  0  0  0  0
   63.1065   33.7828   51.0632 H   0  0  0  0  0  0  0  0  0  0  0  0
  1  2  1  0
  2  3  1  0
  3  4  2  0
  4  5  1  0
  5  6  1  0
  6  7  2  0
  7  8  1  0
  8  9  2  0
  9 10  1  0
 10 11  2  0
 11 12  1  0
 12 13  2  0
 13 14  1  0
 14 15  2  0
 15 16  1  0
 11 17  1  0
 17 18  1  0
  4 19  1  0
 19 20  2  0
 20 21  1  0
 21 22  2  0
 22 23  1  0
 23 24  2  0
 24  2  1  0
 18  5  2  0
 24 19  1  0
 17  8  1  0
 16 12  1  0
  1 25  1  0
  1 26  1  0
  1 27  1  0
  3 28  1  0
  6 29  1  0
  7 30  1  0
  9 31  1  0
 13 32  1  0
 14 33  1  0
 15 34  1  0
 18 35  1  0
 20 36  1  0
 21 37  1  0
 22 38  1  0
 23 39  1  0
M  CHG  1   9   1
M  END
>  <UniqueID>  (10) 
10

>  <SMILES>  (10) 
Cn1cc(-c2ccc3[nH+]nc(-c4cccs4)n3c2)c2ccccc21

>  <Energy>  (10) 
153.90410221781397

>  <Genealogy>  (10) 
Cn1cc(-c2ccc3[nH+]nc(-c4cccs4)n3c2)c2ccccc21 (protonated)
Cn1cc(-c2ccc3[nH+]nc(-c4cccs4)n3c2)c2ccccc21 (3D coordinates assigned)
Cn1cc(-c2ccc3[nH+]nc(-c4cccs4)n3c2)c2ccccc21 (optimized conformer: 153.90410221781397 kcal/mol)

>  <smiles>  (10) 
Cn1cc(-c2ccc3nnc(-c4cccs4)n3c2)c2ccccc21

>  <score_type>  (10) 
oracle

>  <origin>  (10) 
adg

>  <m_score__min__energy>  (10) 
-6.9500000000000002

>  <m_primary>  (10) 
energy

$$$$
10:0
     RDKit          3D

 35 37  0  0  0  0  0  0  0  0999 V2000
   59.6460   35.4800   45.6260 C   0  0  0  0  0  0  0  0  0  0  0  0
   59.4820   34.0900   44.9970 C   0  0  0  0  0  0  0  0  0  0  0  0
   58.0780   33.6140   44.9230 N   0  0  0  0  0  0  0  0  0  0  0  0
   57.6300   32.9870   46.1850 C   0  0  0  0  0  0  0  0  0  0  0  0
   58.8170   32.6340   47.0330 C   0  0  0  0  0  0  0  0  0  0  0  0
   59.2530   33.4130   48.1170 C   0  0  0  0  0  0  0  0  0  0  0  0
   60.3840   32.9070   48.7420 C   0  0  0  0  0  0  0  0  0  0  0  0
   60.8380   31.5010   47.9420 S   0  0  0  0  0  0  0  0  0  0  0  0
   59.6070   31.5150   46.7980 C   0  0  0  0  0  0  0  0  0  0  0  0
   57.8030   32.7480   43.7550 C   0  0  0  0  0  0  0  0  0  0  0  0
   57.3590   31.3870   44.1900 C   0  0  0  0  0  0  0  0  0  0  0  0
   56.0880   31.0860   44.5200 N   0  0  0  0  0  0  0  0  0  0  0  0
   56.1260   29.8370   44.8720 O   0  0  0  0  0  0  0  0  0  0  0  0
   57.3540   29.3900   44.7750 C   0  0  0  0  0  0  0  0  0  0  0  0
   57.7650   27.9870   45.0870 C   0  0  0  0  0  0  0  0  0  0  0  0
   58.1900   27.1720   43.8760 C   0  0  0  0  0  0  0  0  0  0  0  0
   59.2370   27.6950   44.8440 C   0  0  0  0  0  0  0  0  0  0  0  0
   58.2000   30.3430   44.3380 N   0  0  0  0  0  0  0  0  0  0  0  0
   59.6354   35.3900   46.7223 H   0  0  0  0  0  0  0  0  0  0  0  0
   60.6021   35.9180   45.3033 H   0  0  0  0  0  0  0  0  0  0  0  0
   58.8181   36.1285   45.3033 H   0  0  0  0  0  0  0  0  0  0  0  0
   59.8883   34.1242   43.9754 H   0  0  0  0  0  0  0  0  0  0  0  0
   60.0195   33.3847   45.6479 H   0  0  0  0  0  0  0  0  0  0  0  0
   56.9872   33.6913   46.7334 H   0  0  0  0  0  0  0  0  0  0  0  0
   57.0671   32.0709   45.9529 H   0  0  0  0  0  0  0  0  0  0  0  0
   58.7470   34.3350   48.4395 H   0  0  0  0  0  0  0  0  0  0  0  0
   60.8945   33.3495   49.6101 H   0  0  0  0  0  0  0  0  0  0  0  0
   59.4536   30.7699   46.0034 H   0  0  0  0  0  0  0  0  0  0  0  0
   57.0109   33.2071   43.1452 H   0  0  0  0  0  0  0  0  0  0  0  0
   58.7285   32.6445   43.1695 H   0  0  0  0  0  0  0  0  0  0  0  0
   57.0666   27.8360   45.9233 H   0  0  0  0  0  0  0  0  0  0  0  0
   57.9699   26.0951   43.8331 H   0  0  0  0  0  0  0  0  0  0  0  0
   58.0269   27.2487   42.7909 H   0  0  0  0  0  0  0  0  0  0  0  0
   59.7751   26.9968   45.5021 H   0  0  0  0  0  0  0  0  0  0  0  0
   60.1460   28.3072   44.7501 H   0  0  0  0  0  0  0  0  0  0  0  0
  1  2  1  0
  2  3  1  0
  3  4  1  0
  4  5  1  0
  5  6  1  0
  6  7  2  0
  7  8  1  0
  8  9  1  0
  3 10  1  0
 10 11  1  0
 11 12  2  0
 12 13  1  0
 13 14  1  0
 14 15  1  0
 15 16  1  0
 16 17  1  0
 14 18  2  0
  9  5  2  0
 18 11  1  0
 17 15  1  0
  1 19  1  0
  1 20  1  0
  1 21  1  0
  2 22  1  0
  2 23  1  0
  4 24  1  0
  4 25  1  0
  6 26  1  0
  7 27  1  0
  9 28  1  0
 10 29  1  0
 10 30  1  0
 15 31  1  0
 16 32  1  0
 16 33  1  0
 17 34  1  0
 17 35  1  0
M  END
>  <UniqueID>  (11) 
11

>  <SMILES>  (11) 
CCN(Cc1ccsc1)Cc1noc(C2CC2)n1

>  <Energy>  (11) 
357.8768427439211

>  <Genealogy>  (11) 
CCN(Cc1ccsc1)Cc1noc(C2CC2)n1 (3D coordinates assigned)
CCN(Cc1ccsc1)Cc1noc(C2CC2)n1 (nonaromatic ring conformer: 357.8768427439211 kcal/mol)

>  <smiles>  (11) 
CCN(Cc1ccsc1)Cc1noc(C2CC2)n1

>  <score_type>  (11) 
oracle

>  <origin>  (11) 
adg

>  <m_score__min__energy>  (11) 
-6.9100000000000001

>  <m_primary>  (11) 
energy

$$$$
11:0
     RDKit          3D

 27 29  0  0  0  0  0  0  0  0999 V2000
   60.4890   31.1850   48.2120 C   0  0  0  0  0  0  0  0  0  0  0  0
   59.6500   31.4220   47.0420 N   0  0  0  0  0  0  0  0  0  0  0  0
   58.8930   30.5010   46.4000 C   0  0  0  0  0  0  0  0  0  0  0  0
   58.2120   31.1020   45.3480 C   0  0  0  0  0  0  0  0  0  0  0  0
   57.3260   30.4340   44.4370 N   0  0  0  0  0  0  0  0  0  0  0  0
   55.9790   30.4440   44.4660 C   0  0  0  0  0  0  0  0  0  0  0  0
   55.5110   29.7280   43.3810 C   0  0  0  0  0  0  0  0  0  0  0  0
   56.6460   29.3070   42.7130 C   0  0  0  0  0  0  0  0  0  0  0  0
   57.7280   29.7570   43.3740 N   0  0  0  0  0  0  0  0  0  0  0  0
   58.5570   32.4440   45.3710 C   0  0  0  0  0  0  0  0  0  0  0  0
   58.1250   33.5340   44.6110 C   0  0  0  0  0  0  0  0  0  0  0  0
   58.6490   34.8010   44.9200 C   0  0  0  0  0  0  0  0  0  0  0  0
   59.5700   34.9580   45.9780 C   0  0  0  0  0  0  0  0  0  0  0  0
   59.9670   33.8500   46.7460 C   0  0  0  0  0  0  0  0  0  0  0  0
   59.4370   32.6000   46.4180 C   0  0  0  0  0  0  0  0  0  0  0  0
   59.8995   31.3515   49.1257 H   0  0  0  0  0  0  0  0  0  0  0  0
   60.8558   30.1481   48.1962 H   0  0  0  0  0  0  0  0  0  0  0  0
   61.3441   31.8767   48.1962 H   0  0  0  0  0  0  0  0  0  0  0  0
   58.8269   29.4368   46.6705 H   0  0  0  0  0  0  0  0  0  0  0  0
   55.3565   30.9390   45.2259 H   0  0  0  0  0  0  0  0  0  0  0  0
   54.4631   29.5349   43.1079 H   0  0  0  0  0  0  0  0  0  0  0  0
   56.6617   28.7039   41.7932 H   0  0  0  0  0  0  0  0  0  0  0  0
   58.7230   29.5990   43.0990 H   0  0  0  0  0  0  0  0  0  0  0  0
   57.3974   33.4045   43.7962 H   0  0  0  0  0  0  0  0  0  0  0  0
   58.3387   35.6776   44.3324 H   0  0  0  0  0  0  0  0  0  0  0  0
   59.9796   35.9538   46.2028 H   0  0  0  0  0  0  0  0  0  0  0  0
   60.6742   33.9638   47.5808 H   0  0  0  0  0  0  0  0  0  0  0  0
  1  2  1  0
  2  3  1  0
  3  4  2  0
  4  5  1  0
  5  6  1  0
  6  7  2  0
  7  8  1  0
  8  9  2  0
  4 10  1  0
 10 11  2  0
 11 12  1  0
 12 13  2  0
 13 14  1  0
 14 15  2  0
 15  2  1  0
  9  5  1  0
 15 10  1  0
  1 16  1  0
  1 17  1  0
  1 18  1  0
  3 19  1  0
  6 20  1  0
  7 21  1  0
  8 22  1  0
  9 23  1  0
 11 24  1  0
 12 25  1  0
 13 26  1  0
 14 27  1  0
M  CHG  1   9   1
M  END
>  <UniqueID>  (12) 
12

>  <SMILES>  (12) 
Cn1cc(-n2ccc[nH+]2)c2ccccc21

>  <Energy>  (12) 
96.89725787734241

>  <Genealogy>  (12) 
Cn1cc(-n2ccc[nH+]2)c2ccccc21 (protonated)
Cn1cc(-n2ccc[nH+]2)c2ccccc21 (3D coordinates assigned)
Cn1cc(-n2ccc[nH+]2)c2ccccc21 (optimized conformer: 96.89725787734241 kcal/mol)

>  <smiles>  (12) 
Cn1cc(-n2cccn2)c2ccccc21

>  <score_type>  (12) 
oracle

>  <origin>  (12) 
adg

>  <m_score__min__energy>  (12) 
-4.3300000000000001

>  <m_primary>  (12) 
energy

$$$$
12:0
     RDKit          3D

 41 44  0  0  0  0  0  0  0  0999 V2000
   63.0420   31.5439   46.0766 H   0  0  0  0  0  0  0  0  0  0  0  0
   62.8170   31.7520   47.1330 C   0  0  0  0  0  0  0  0  0  0  0  0
   63.6960   32.5300   47.8920 C   0  0  0  0  0  0  0  0  0  0  0  0
   64.6211   32.9102   47.4342 H   0  0  0  0  0  0  0  0  0  0  0  0
   63.4100   32.8300   49.2300 C   0  0  0  0  0  0  0  0  0  0  0  0
   64.3330   33.6100   49.9450 O   0  0  0  0  0  0  0  0  0  0  0  0
   65.5790   33.1510   50.4700 C   0  0  0  0  0  0  0  0  0  0  0  0
   65.6906   33.5125   51.5029 H   0  0  0  0  0  0  0  0  0  0  0  0
   66.3925   33.5390   49.8394 H   0  0  0  0  0  0  0  0  0  0  0  0
   65.6390   31.6270   50.4640 C   0  0  0  0  0  0  0  0  0  0  0  0
   65.6536   31.2565   51.4996 H   0  0  0  0  0  0  0  0  0  0  0  0
   64.7559   31.2273   49.9440 H   0  0  0  0  0  0  0  0  0  0  0  0
   66.5508   31.2980   49.9440 H   0  0  0  0  0  0  0  0  0  0  0  0
   62.2200   32.3390   49.8030 C   0  0  0  0  0  0  0  0  0  0  0  0
   61.9817   32.5676   50.8523 H   0  0  0  0  0  0  0  0  0  0  0  0
   61.3410   31.5620   49.0420 C   0  0  0  0  0  0  0  0  0  0  0  0
   60.4013   31.2037   49.4876 H   0  0  0  0  0  0  0  0  0  0  0  0
   61.6520   31.2370   47.7120 C   0  0  0  0  0  0  0  0  0  0  0  0
   60.7350   30.4900   46.9030 N   0  0  0  0  0  0  0  0  0  0  0  0
   59.5830   30.8390   46.3820 C   0  0  0  0  0  0  0  0  0  0  0  0
   59.2750   32.1500   45.9030 C   0  0  0  0  0  0  0  0  0  0  0  0
   60.0070   33.3120   46.2420 C   0  0  0  0  0  0  0  0  0  0  0  0
   60.8501   33.2373   46.9446 H   0  0  0  0  0  0  0  0  0  0  0  0
   59.6720   34.5540   45.6950 C   0  0  0  0  0  0  0  0  0  0  0  0
   60.2762   35.4404   45.9382 H   0  0  0  0  0  0  0  0  0  0  0  0
   58.5760   34.6740   44.8430 C   0  0  0  0  0  0  0  0  0  0  0  0
   58.3397   35.6445   44.3822 H   0  0  0  0  0  0  0  0  0  0  0  0
   57.7800   33.5620   44.5760 C   0  0  0  0  0  0  0  0  0  0  0  0
   56.8987   33.6639   43.9257 H   0  0  0  0  0  0  0  0  0  0  0  0
   58.0950   32.3170   45.1300 C   0  0  0  0  0  0  0  0  0  0  0  0
   57.2550   31.3090   44.9470 O   0  0  0  0  0  0  0  0  0  0  0  0
   57.4390   30.1100   45.4800 C   0  0  0  0  0  0  0  0  0  0  0  0
   56.4730   29.1180   45.2760 C   0  0  0  0  0  0  0  0  0  0  0  0
   55.5739   29.3420   44.6832 H   0  0  0  0  0  0  0  0  0  0  0  0
   56.6470   27.8440   45.8230 C   0  0  0  0  0  0  0  0  0  0  0  0
   55.6830   26.8640   45.6200 O   0  0  0  0  0  0  0  0  0  0  0  0
   57.7890   27.5550   46.5710 C   0  0  0  0  0  0  0  0  0  0  0  0
   57.9223   26.5517   47.0018 H   0  0  0  0  0  0  0  0  0  0  0  0
   58.7640   28.5350   46.7750 C   0  0  0  0  0  0  0  0  0  0  0  0
   59.6659   28.2955   47.3574 H   0  0  0  0  0  0  0  0  0  0  0  0
   58.5990   29.8320   46.2380 C   0  0  0  0  0  0  0  0  0  0  0  0
  1  2  1  0
  2  3  2  0
  3  4  1  0
  3  5  1  0
  5  6  1  0
  6  7  1  0
  7  8  1  0
  7  9  1  0
  7 10  1  0
 10 11  1  0
 10 12  1  0
 10 13  1  0
  5 14  2  0
 14 15  1  0
 14 16  1  0
 16 17  1  0
 16 18  2  0
 18 19  1  0
 19 20  2  0
 20 21  1  0
 21 22  2  0
 22 23  1  0
 22 24  1  0
 24 25  1  0
 24 26  2  0
 26 27  1  0
 26 28  1  0
 28 29  1  0
 28 30  2  0
 30 31  1  0
 31 32  1  0
 32 33  2  0
 33 34  1  0
 33 35  1  0
 35 36  1  0
 35 37  2  0
 37 38  1  0
 37 39  1  0
 39 40  1  0
 39 41  2  0
 18  2  1  0
 41 20  1  0
 30 21  1  0
 41 32  1  0
M  CHG  1  36  -1
M  END
>  <UniqueID>  (13) 
13

>  <SMILES>  (13) 
CCOc1ccc(/N=c2\c3ccccc3oc3cc([O-])ccc23)cc1

>  <Energy>  (13) 
72.16111292939412

>  <Genealogy>  (13) 
CCOc1ccc(N=c2c3ccccc3oc3cc([O-])ccc23)cc1 (protonated)
CCOc1ccc(/N=c2\c3ccccc3oc3cc([O-])ccc23)cc1 (cis-trans isomerization)
CCOc1ccc(/N=c2\c3ccccc3oc3cc([O-])ccc23)cc1 (3D coordinates assigned)
CCOc1ccc(/N=c2\c3ccccc3oc3cc([O-])ccc23)cc1 (optimized conformer: 72.16111292939412 kcal/mol)

>  <smiles>  (13) 
CCOc1ccc(N=c2c3ccccc3oc3cc(O)ccc23)cc1

>  <score_type>  (13) 
oracle

>  <origin>  (13) 
adg

>  <m_score__min__energy>  (13) 
-10.1

>  <m_primary>  (13) 
energy

$$$$
13:0
     RDKit          3D

 48 51  0  0  0  0  0  0  0  0999 V2000
   50.4420   32.5410   52.8690 C   0  0  0  0  0  0  0  0  0  0  0  0
   51.1020   31.9860   51.7470 O   0  0  0  0  0  0  0  0  0  0  0  0
   52.2190   31.2080   52.0160 C   0  0  0  0  0  0  0  0  0  0  0  0
   53.4860   31.5960   51.6270 C   0  0  0  0  0  0  0  0  0  0  0  0
   54.5840   30.8120   51.9040 C   0  0  0  0  0  0  0  0  0  0  0  0
   55.8340   31.1980   51.5170 N   0  0  0  0  0  0  0  0  0  0  0  0
   56.9190   30.4430   51.7820 C   0  0  0  0  0  0  0  0  0  0  0  0
   58.2010   30.9190   51.3150 N   0  0  0  0  0  0  0  0  0  0  0  0
   59.0830   30.0060   50.6670 C   0  0  0  0  0  0  0  0  0  0  0  0
   59.7950   30.6590   49.5100 C   0  0  0  0  0  0  0  0  0  0  0  0
   60.3310   31.9270   49.9900 N   0  0  0  0  0  0  0  0  0  0  0  0
   61.7310   32.1310   49.9890 C   0  0  0  0  0  0  0  0  0  0  0  0
   62.3930   32.8950   49.0390 C   0  0  0  0  0  0  0  0  0  0  0  0
   63.7770   33.0730   49.0890 C   0  0  0  0  0  0  0  0  0  0  0  0
   64.5090   32.4940   50.0820 C   0  0  0  0  0  0  0  0  0  0  0  0
   66.4200   32.7110   50.1880 Br  0  0  0  0  0  0  0  0  0  0  0  0
   63.8200   31.7350   51.0180 C   0  0  0  0  0  0  0  0  0  0  0  0
   62.4870   31.5760   50.9510 N   0  0  0  0  0  0  0  0  0  0  0  0
   59.3600   32.8940   50.4490 C   0  0  0  0  0  0  0  0  0  0  0  0
   58.4840   32.3190   51.5410 C   0  0  0  0  0  0  0  0  0  0  0  0
   56.7950   29.2770   52.4420 N   0  0  0  0  0  0  0  0  0  0  0  0
   55.5850   28.8190   52.8620 C   0  0  0  0  0  0  0  0  0  0  0  0
   55.4290   27.7500   53.4730 O   0  0  0  0  0  0  0  0  0  0  0  0
   54.4800   29.6120   52.5790 C   0  0  0  0  0  0  0  0  0  0  0  0
   53.2060   29.2180   52.9720 C   0  0  0  0  0  0  0  0  0  0  0  0
   52.1040   30.0100   52.6900 C   0  0  0  0  0  0  0  0  0  0  0  0
   50.8090   29.6370   53.0750 O   0  0  0  0  0  0  0  0  0  0  0  0
   50.4320   28.2840   53.2270 C   0  0  0  0  0  0  0  0  0  0  0  0
   50.9003   32.1556   53.7917 H   0  0  0  0  0  0  0  0  0  0  0  0
   50.5344   33.6368   52.8437 H   0  0  0  0  0  0  0  0  0  0  0  0
   49.3783   32.2620   52.8437 H   0  0  0  0  0  0  0  0  0  0  0  0
   53.6203   32.5454   51.0879 H   0  0  0  0  0  0  0  0  0  0  0  0
   55.8950   32.1070   51.0080 H   0  0  0  0  0  0  0  0  0  0  0  0
   59.8295   29.6524   51.3934 H   0  0  0  0  0  0  0  0  0  0  0  0
   58.4886   29.1657   50.2789 H   0  0  0  0  0  0  0  0  0  0  0  0
   60.6134   30.0133   49.1589 H   0  0  0  0  0  0  0  0  0  0  0  0
   59.1041   30.8217   48.6696 H   0  0  0  0  0  0  0  0  0  0  0  0
   61.8167   33.3695   48.2311 H   0  0  0  0  0  0  0  0  0  0  0  0
   64.2786   33.6833   48.3235 H   0  0  0  0  0  0  0  0  0  0  0  0
   64.3781   31.2523   51.8338 H   0  0  0  0  0  0  0  0  0  0  0  0
   59.8895   33.7748   50.8411 H   0  0  0  0  0  0  0  0  0  0  0  0
   58.7184   33.1713   49.5996 H   0  0  0  0  0  0  0  0  0  0  0  0
   58.9997   32.4275   52.5065 H   0  0  0  0  0  0  0  0  0  0  0  0
   57.5302   32.8670   51.5411 H   0  0  0  0  0  0  0  0  0  0  0  0
   53.0713   28.2690   53.5117 H   0  0  0  0  0  0  0  0  0  0  0  0
   50.3641   28.0403   54.2975 H   0  0  0  0  0  0  0  0  0  0  0  0
   49.4540   28.1202   52.7509 H   0  0  0  0  0  0  0  0  0  0  0  0
   51.1844   27.6380   52.7509 H   0  0  0  0  0  0  0  0  0  0  0  0
  1  2  1  0
  2  3  1  0
  3  4  2  0
  4  5  1  0
  5  6  1  0
  6  7  1  0
  7  8  1  0
  8  9  1  0
  9 10  1  0
 10 11  1  0
 11 12  1  0
 12 13  2  0
 13 14  1  0
 14 15  2  0
 15 16  1  0
 15 17  1  0
 17 18  2  0
 11 19  1  0
 19 20  1  0
  7 21  2  0
 21 22  1  0
 22 23  2  0
 22 24  1  0
 24 25  1  0
 25 26  2  0
 26 27  1  0
 27 28  1  0
 26  3  1  0
 24  5  2  0
 20  8  1  0
 18 12  1  0
  1 29  1  0
  1 30  1  0
  1 31  1  0
  4 32  1  0
  6 33  1  0
  9 34  1  0
  9 35  1  0
 10 36  1  0
 10 37  1  0
 13 38  1  0
 14 39  1  0
 17 40  1  0
 19 41  1  0
 19 42  1  0
 20 43  1  0
 20 44  1  0
 25 45  1  0
 28 46  1  0
 28 47  1  0
 28 48  1  0
M  END
>  <smiles>  (14) 
COc1cc2[nH]c(N3CCN(c4ccc(Br)cn4)CC3)nc(=O)c2cc1OC

>  <score_type>  (14) 
oracle

>  <origin>  (14) 
adg

>  <m_score__min__energy>  (14) 
-7.0300000000000002

>  <m_primary>  (14) 
energy

$$$$
14:0
     RDKit          3D

 42 44  0  0  1  0  0  0  0  0999 V2000
   56.2610   29.7260   44.5260 C   0  0  0  0  0  0  0  0  0  0  0  0
   57.0180   30.8270   44.8700 O   0  0  0  0  0  0  0  0  0  0  0  0
   57.2230   31.7000   43.8490 C   0  0  0  0  0  0  0  0  0  0  0  0
   57.7690   33.0240   44.3400 C   0  0  0  0  0  0  0  0  0  0  0  0
   58.5670   32.8270   45.5510 N   0  0  0  0  0  0  0  0  0  0  0  0
   59.3060   33.8830   46.1660 C   0  0  0  0  0  0  0  0  0  0  0  0
   59.3270   35.0700   45.6820 O   0  0  0  0  0  0  0  0  0  0  0  0
   60.0080   33.6390   47.3190 N   0  0  0  0  0  0  0  0  0  0  0  0
   61.1340   33.1890   47.4980 C   0  0  0  0  0  0  0  0  0  0  0  0
   62.1100   34.0990   47.8550 N   0  0  0  0  0  0  0  0  0  0  0  0
   63.3940   33.7800   47.9830 C   0  0  0  0  0  0  0  0  0  0  0  0
   63.7540   32.5120   47.7530 N   0  0  0  0  0  0  0  0  0  0  0  0
   62.8470   31.6070   47.4110 C   0  0  0  0  0  0  0  0  0  0  0  0
   61.4710   31.9190   47.2720 C   0  0  0  0  0  0  0  0  0  0  0  0
   60.6310   30.7290   47.1310 C   0  0  0  0  0  0  0  0  0  0  0  0
   60.4250   30.1270   45.9170 C   0  0  0  0  0  0  0  0  0  0  0  0
   59.6280   29.0600   45.8580 C   0  0  0  0  0  0  0  0  0  0  0  0
   59.2840   28.2940   44.7070 C   0  0  0  0  0  0  0  0  0  0  0  0
   58.4510   27.2360   44.8430 C   0  0  0  0  0  0  0  0  0  0  0  0
   58.0980   26.4390   43.6170 C   0  0  0  0  0  0  0  0  0  0  0  0
   57.8810   26.8090   46.0220 C   0  0  0  0  0  0  0  0  0  0  0  0
   58.2070   27.5460   47.1530 C   0  0  0  0  0  0  0  0  0  0  0  0
   59.0580   28.6220   46.9990 C   0  0  0  0  0  0  0  0  0  0  0  0
   59.6910   29.7950   48.2410 S   0  0  0  0  0  0  0  0  0  0  0  0
   55.9133   29.2203   45.4389 H   0  0  0  0  0  0  0  0  0  0  0  0
   55.3930   30.0488   43.9324 H   0  0  0  0  0  0  0  0  0  0  0  0
   56.8732   29.0311   43.9324 H   0  0  0  0  0  0  0  0  0  0  0  0
   57.9416   31.2588   43.1426 H   0  0  0  0  0  0  0  0  0  0  0  0
   56.2547   31.8896   43.3627 H   0  0  0  0  0  0  0  0  0  0  0  0
   58.4012   33.4685   43.5572 H   0  0  0  0  0  0  0  0  0  0  0  0
   56.9279   33.6942   44.5710 H   0  0  0  0  0  0  0  0  0  0  0  0
   58.6200   31.8720   46.0200 H   0  0  0  0  0  0  0  0  0  0  0  0
   64.1392   34.5366   48.2698 H   0  0  0  0  0  0  0  0  0  0  0  0
   64.7600   32.2460   47.8460 H   0  0  0  0  0  0  0  0  0  0  0  0
   63.1753   30.5732   47.2279 H   0  0  0  0  0  0  0  0  0  0  0  0
   60.9080   30.5168   45.0088 H   0  0  0  0  0  0  0  0  0  0  0  0
   59.6905   28.5593   43.7199 H   0  0  0  0  0  0  0  0  0  0  0  0
   57.6697   25.4719   43.9191 H   0  0  0  0  0  0  0  0  0  0  0  0
   57.3619   26.9949   43.0177 H   0  0  0  0  0  0  0  0  0  0  0  0
   59.0043   26.2674   43.0177 H   0  0  0  0  0  0  0  0  0  0  0  0
   57.2096   25.9387   46.0650 H   0  0  0  0  0  0  0  0  0  0  0  0
   57.8001   27.2809   48.1400 H   0  0  0  0  0  0  0  0  0  0  0  0
  1  2  1  0
  2  3  1  0
  3  4  1  0
  4  5  1  0
  5  6  1  0
  6  7  2  0
  6  8  1  0
  8  9  2  0
  9 10  1  0
 10 11  2  0
 11 12  1  0
 12 13  1  0
 13 14  2  0
 14 15  1  0
 15 16  2  0
 16 17  1  0
 17 18  2  0
 18 19  1  0
 19 20  1  0
 19 21  2  0
 21 22  1  0
 22 23  2  0
 23 24  1  0
 14  9  1  0
 24 15  1  0
 23 17  1  0
  1 25  1  0
  1 26  1  0
  1 27  1  0
  3 28  1  0
  3 29  1  0
  4 30  1  0
  4 31  1  0
  5 32  1  0
 11 33  1  0
 12 34  1  0
 13 35  1  0
 16 36  1  0
 18 37  1  0
 20 38  1  0
 20 39  1  0
 20 40  1  0
 21 41  1  0
 22 42  1  0
M  END
>  <smiles>  (15) 
COCCNC(=O)N=c1nc[nH]cc1-c1cc2cc(C)ccc2s1

>  <score_type>  (15) 
oracle

>  <origin>  (15) 
adg

>  <m_score__min__energy>  (15) 
-7.5499999999999998

>  <m_primary>  (15) 
energy

$$$$
15:0
     RDKit          3D

 42 43  0  0  0  0  0  0  0  0999 V2000
   61.3450   30.8050   47.1060 C   0  0  0  0  0  0  0  0  0  0  0  0
   60.0220   30.2830   47.0620 O   0  0  0  0  0  0  0  0  0  0  0  0
   59.6970   28.9220   47.1760 C   0  0  0  0  0  0  0  0  0  0  0  0
   60.3780   28.0630   48.0610 C   0  0  0  0  0  0  0  0  0  0  0  0
   60.0210   26.7160   48.1530 C   0  0  0  0  0  0  0  0  0  0  0  0
   58.9880   26.2100   47.3630 C   0  0  0  0  0  0  0  0  0  0  0  0
   58.3050   27.0500   46.4820 C   0  0  0  0  0  0  0  0  0  0  0  0
   58.6450   28.4110   46.3900 C   0  0  0  0  0  0  0  0  0  0  0  0
   57.9610   29.2770   45.4690 N   0  0  0  0  0  0  0  0  0  0  0  0
   56.6440   29.0110   44.9610 C   0  0  0  0  0  0  0  0  0  0  0  0
   56.0440   27.9400   45.2480 O   0  0  0  0  0  0  0  0  0  0  0  0
   55.9520   30.0420   44.1260 C   0  0  0  0  0  0  0  0  0  0  0  0
   56.3530   31.3620   44.5830 N   0  0  0  0  0  0  0  0  0  0  0  0
   57.5400   32.0280   44.1470 C   0  0  0  0  0  0  0  0  0  0  0  0
   58.4070   31.4030   43.4780 O   0  0  0  0  0  0  0  0  0  0  0  0
   57.7550   33.4830   44.4840 C   0  0  0  0  0  0  0  0  0  0  0  0
   57.0380   33.8580   45.7980 C   0  0  0  0  0  0  0  0  0  0  0  0
   57.7440   33.3100   47.0560 C   0  0  0  0  0  0  0  0  0  0  0  0
   59.2830   33.3270   46.9680 C   0  0  0  0  0  0  0  0  0  0  0  0
   59.7970   34.2670   45.8750 C   0  0  0  0  0  0  0  0  0  0  0  0
   59.2660   33.8530   44.4930 C   0  0  0  0  0  0  0  0  0  0  0  0
   61.6561   30.9277   48.1539 H   0  0  0  0  0  0  0  0  0  0  0  0
   62.0305   30.1099   46.5990 H   0  0  0  0  0  0  0  0  0  0  0  0
   61.3712   31.7809   46.5990 H   0  0  0  0  0  0  0  0  0  0  0  0
   61.1957   28.4556   48.6832 H   0  0  0  0  0  0  0  0  0  0  0  0
   60.5550   26.0528   48.8494 H   0  0  0  0  0  0  0  0  0  0  0  0
   58.7116   25.1477   47.4346 H   0  0  0  0  0  0  0  0  0  0  0  0
   57.4962   26.6448   45.8562 H   0  0  0  0  0  0  0  0  0  0  0  0
   58.3700   30.2220   45.2880 H   0  0  0  0  0  0  0  0  0  0  0  0
   56.2356   29.9142   43.0709 H   0  0  0  0  0  0  0  0  0  0  0  0
   54.8619   29.9292   44.2209 H   0  0  0  0  0  0  0  0  0  0  0  0
   57.2980   34.0897   43.6884 H   0  0  0  0  0  0  0  0  0  0  0  0
   56.9948   34.9547   45.8716 H   0  0  0  0  0  0  0  0  0  0  0  0
   56.0360   33.4054   45.7633 H   0  0  0  0  0  0  0  0  0  0  0  0
   57.4399   33.9222   47.9178 H   0  0  0  0  0  0  0  0  0  0  0  0
   57.4423   32.2570   47.1574 H   0  0  0  0  0  0  0  0  0  0  0  0
   59.6881   33.6567   47.9361 H   0  0  0  0  0  0  0  0  0  0  0  0
   59.6148   32.3088   46.7165 H   0  0  0  0  0  0  0  0  0  0  0  0
   59.4627   35.2914   46.0960 H   0  0  0  0  0  0  0  0  0  0  0  0
   60.8956   34.2137   45.8571 H   0  0  0  0  0  0  0  0  0  0  0  0
   59.4218   34.6903   43.7969 H   0  0  0  0  0  0  0  0  0  0  0  0
   59.8181   32.9491   44.1961 H   0  0  0  0  0  0  0  0  0  0  0  0
  1  2  1  0
  2  3  1  0
  3  4  2  0
  4  5  1  0
  5  6  2  0
  6  7  1  0
  7  8  2  0
  8  9  1  0
  9 10  1  0
 10 11  2  0
 10 12  1  0
 12 13  1  0
 13 14  1  0
 14 15  2  0
 14 16  1  0
 16 17  1  0
 17 18  1  0
 18 19  1  0
 19 20  1  0
 20 21  1  0
  8  3  1  0
 21 16  1  0
  1 22  1  0
  1 23  1  0
  1 24  1  0
  4 25  1  0
  5 26  1  0
  6 27  1  0
  7 28  1  0
  9 29  1  0
 12 30  1  0
 12 31  1  0
 16 32  1  0
 17 33  1  0
 17 34  1  0
 18 35  1  0
 18 36  1  0
 19 37  1  0
 19 38  1  0
 20 39  1  0
 20 40  1  0
 21 41  1  0
 21 42  1  0
M  CHG  1  13  -1
M  END
>  <UniqueID>  (16) 
14

>  <SMILES>  (16) 
COc1ccccc1NC(=O)C[N-]C(=O)C1CCCCC1

>  <Energy>  (16) 
41.85891807256453

>  <Genealogy>  (16) 
COc1ccccc1NC(=O)C[N-]C(=O)C1CCCCC1 (protonated)
COc1ccccc1NC(=O)C[N-]C(=O)C1CCCCC1 (3D coordinates assigned)
COc1ccccc1NC(=O)C[N-]C(=O)C1CCCCC1 (nonaromatic ring conformer: 41.85891807256453 kcal/mol)

>  <smiles>  (16) 
COc1ccccc1NC(=O)CNC(=O)C1CCCCC1

>  <score_type>  (16) 
oracle

>  <origin>  (16) 
adg

>  <m_score__min__energy>  (16) 
-9.1400000000000006

>  <m_primary>  (16) 
energy

$$$$
16:0
     RDKit          3D

 34 35  0  0  0  0  0  0  0  0999 V2000
   59.2350   29.0260   47.6850 C   0  0  0  0  0  0  0  0  0  0  0  0
   59.3080   30.2570   46.9740 O   0  0  0  0  0  0  0  0  0  0  0  0
   58.5670   30.5550   45.8200 C   0  0  0  0  0  0  0  0  0  0  0  0
   58.2190   29.5650   44.8790 C   0  0  0  0  0  0  0  0  0  0  0  0
   57.4580   29.8980   43.7550 C   0  0  0  0  0  0  0  0  0  0  0  0
   57.0370   31.2140   43.5570 C   0  0  0  0  0  0  0  0  0  0  0  0
   57.3810   32.2040   44.4810 C   0  0  0  0  0  0  0  0  0  0  0  0
   58.1500   31.8820   45.6070 C   0  0  0  0  0  0  0  0  0  0  0  0
   58.5120   32.9120   46.5340 N   0  0  0  0  0  0  0  0  0  0  0  0
   57.7400   33.0810   47.7620 C   0  0  0  0  0  0  0  0  0  0  0  0
   59.8560   33.9540   46.1790 S   0  0  0  0  0  0  0  0  0  0  0  0
   59.9070   34.2080   44.6980 O   0  0  0  0  0  0  0  0  0  0  0  0
   59.6820   35.2750   46.8760 O   0  0  0  0  0  0  0  0  0  0  0  0
   61.3540   33.1980   46.7140 C   0  0  0  0  0  0  0  0  0  0  0  0
   62.5480   33.9280   46.6790 C   0  0  0  0  0  0  0  0  0  0  0  0
   63.7280   33.3350   47.1330 C   0  0  0  0  0  0  0  0  0  0  0  0
   63.7050   32.0260   47.6160 C   0  0  0  0  0  0  0  0  0  0  0  0
   62.4970   31.3280   47.6380 C   0  0  0  0  0  0  0  0  0  0  0  0
   61.3540   31.9200   47.1930 N   0  0  0  0  0  0  0  0  0  0  0  0
   59.2469   29.2260   48.7666 H   0  0  0  0  0  0  0  0  0  0  0  0
   58.3043   28.5035   47.4189 H   0  0  0  0  0  0  0  0  0  0  0  0
   60.0974   28.3972   47.4189 H   0  0  0  0  0  0  0  0  0  0  0  0
   58.5477   28.5261   45.0299 H   0  0  0  0  0  0  0  0  0  0  0  0
   57.1900   29.1207   43.0242 H   0  0  0  0  0  0  0  0  0  0  0  0
   56.4344   31.4717   42.6735 H   0  0  0  0  0  0  0  0  0  0  0  0
   57.0468   33.2401   44.3238 H   0  0  0  0  0  0  0  0  0  0  0  0
   58.3981   32.9369   48.6316 H   0  0  0  0  0  0  0  0  0  0  0  0
   57.3123   34.0941   47.7897 H   0  0  0  0  0  0  0  0  0  0  0  0
   56.9281   32.3393   47.7897 H   0  0  0  0  0  0  0  0  0  0  0  0
   62.5566   34.9596   46.2973 H   0  0  0  0  0  0  0  0  0  0  0  0
   64.6727   33.8980   47.1099 H   0  0  0  0  0  0  0  0  0  0  0  0
   64.6291   31.5496   47.9755 H   0  0  0  0  0  0  0  0  0  0  0  0
   62.4677   30.2955   48.0163 H   0  0  0  0  0  0  0  0  0  0  0  0
   60.4630   31.3760   47.2330 H   0  0  0  0  0  0  0  0  0  0  0  0
  1  2  1  0
  2  3  1  0
  3  4  2  0
  4  5  1  0
  5  6  2  0
  6  7  1  0
  7  8  2  0
  8  9  1  0
  9 10  1  0
  9 11  1  0
 11 12  2  0
 11 13  2  0
 11 14  1  0
 14 15  2  0
 15 16  1  0
 16 17  2  0
 17 18  1  0
 18 19  2  0
  8  3  1  0
 19 14  1  0
  1 20  1  0
  1 21  1  0
  1 22  1  0
  4 23  1  0
  5 24  1  0
  6 25  1  0
  7 26  1  0
 10 27  1  0
 10 28  1  0
 10 29  1  0
 15 30  1  0
 16 31  1  0
 17 32  1  0
 18 33  1  0
 19 34  1  0
M  CHG  1  19   1
M  END
>  <UniqueID>  (17) 
15

>  <SMILES>  (17) 
COc1ccccc1N(C)S(=O)(=O)c1cccc[nH+]1

>  <Energy>  (17) 
38.39443708469392

>  <Genealogy>  (17) 
COc1ccccc1N(C)S(=O)(=O)c1cccc[nH+]1 (protonated)
COc1ccccc1N(C)S(=O)(=O)c1cccc[nH+]1 (3D coordinates assigned)
COc1ccccc1N(C)S(=O)(=O)c1cccc[nH+]1 (optimized conformer: 38.39443708469392 kcal/mol)

>  <smiles>  (17) 
COc1ccccc1N(C)S(=O)(=O)c1ccccn1

>  <score_type>  (17) 
oracle

>  <origin>  (17) 
adg

>  <m_score__min__energy>  (17) 
-5.1600000000000001

>  <m_primary>  (17) 
energy

$$$$
17:0
     RDKit          3D

 40 41  0  0  0  0  0  0  0  0999 V2000
   57.9013   31.2080   42.3864 H   0  0  0  0  0  0  0  0  0  0  0  0
   57.7590   31.4670   43.4460 C   0  0  0  0  0  0  0  0  0  0  0  0
   57.5800   30.3540   44.3990 C   0  0  0  0  0  0  0  0  0  0  0  0
   56.4310   30.1580   44.8730 O   0  0  0  0  0  0  0  0  0  0  0  0
   58.7040   29.4350   44.7160 C   0  0  0  0  0  0  0  0  0  0  0  0
   58.6557   28.4176   44.3005 H   0  0  0  0  0  0  0  0  0  0  0  0
   59.7720   29.7420   45.4660 C   0  0  0  0  0  0  0  0  0  0  0  0
   60.7333   29.8914   44.9527 H   0  0  0  0  0  0  0  0  0  0  0  0
   59.7450   29.8930   46.9330 C   0  0  0  0  0  0  0  0  0  0  0  0
   60.5150   30.8950   47.5530 C   0  0  0  0  0  0  0  0  0  0  0  0
   61.3160   31.7270   46.7530 O   0  0  0  0  0  0  0  0  0  0  0  0
   62.3990   32.5140   47.2360 C   0  0  0  0  0  0  0  0  0  0  0  0
   62.3933   32.5098   48.3360 H   0  0  0  0  0  0  0  0  0  0  0  0
   63.3484   32.0936   46.8727 H   0  0  0  0  0  0  0  0  0  0  0  0
   62.2924   33.5468   46.8727 H   0  0  0  0  0  0  0  0  0  0  0  0
   60.4660   31.0350   48.9530 C   0  0  0  0  0  0  0  0  0  0  0  0
   61.0716   31.8087   49.4477 H   0  0  0  0  0  0  0  0  0  0  0  0
   59.6530   30.1970   49.7150 C   0  0  0  0  0  0  0  0  0  0  0  0
   59.6248   30.3092   50.8089 H   0  0  0  0  0  0  0  0  0  0  0  0
   58.8750   29.2170   49.0980 C   0  0  0  0  0  0  0  0  0  0  0  0
   58.2328   28.5640   49.7072 H   0  0  0  0  0  0  0  0  0  0  0  0
   58.9080   29.0600   47.7000 C   0  0  0  0  0  0  0  0  0  0  0  0
   58.1300   28.0910   47.0440 O   0  0  0  0  0  0  0  0  0  0  0  0
   58.4520   26.7050   46.9800 C   0  0  0  0  0  0  0  0  0  0  0  0
   58.5454   26.3028   47.9996 H   0  0  0  0  0  0  0  0  0  0  0  0
   57.6548   26.1677   46.4455 H   0  0  0  0  0  0  0  0  0  0  0  0
   59.4045   26.5741   46.4455 H   0  0  0  0  0  0  0  0  0  0  0  0
   57.7620   32.7700   43.7690 C   0  0  0  0  0  0  0  0  0  0  0  0
   57.3852   33.4783   43.0165 H   0  0  0  0  0  0  0  0  0  0  0  0
   58.2310   33.3300   45.0550 C   0  0  0  0  0  0  0  0  0  0  0  0
   59.1890   34.3610   45.1020 C   0  0  0  0  0  0  0  0  0  0  0  0
   59.5827   34.7866   44.1672 H   0  0  0  0  0  0  0  0  0  0  0  0
   59.6410   34.8450   46.3320 C   0  0  0  0  0  0  0  0  0  0  0  0
   60.3797   35.6595   46.3634 H   0  0  0  0  0  0  0  0  0  0  0  0
   59.1570   34.2970   47.5220 C   0  0  0  0  0  0  0  0  0  0  0  0
   59.5083   34.6860   48.4891 H   0  0  0  0  0  0  0  0  0  0  0  0
   58.2260   33.2540   47.4850 C   0  0  0  0  0  0  0  0  0  0  0  0
   57.7660   32.7150   48.6400 F   0  0  0  0  0  0  0  0  0  0  0  0
   57.7730   32.7650   46.2550 C   0  0  0  0  0  0  0  0  0  0  0  0
   57.0539   31.9331   46.2284 H   0  0  0  0  0  0  0  0  0  0  0  0
  1  2  1  0
  2  3  1  0
  3  4  2  0
  3  5  1  0
  5  6  1  0
  5  7  2  0
  7  8  1  0
  7  9  1  0
  9 10  2  0
 10 11  1  0
 11 12  1  0
 12 13  1  0
 12 14  1  0
 12 15  1  0
 10 16  1  0
 16 17  1  0
 16 18  2  0
 18 19  1  0
 18 20  1  0
 20 21  1  0
 20 22  2  0
 22 23  1  0
 23 24  1  0
 24 25  1  0
 24 26  1  0
 24 27  1  0
  2 28  2  3
 28 29  1  0
 28 30  1  0
 30 31  2  0
 31 32  1  0
 31 33  1  0
 33 34  1  0
 33 35  2  0
 35 36  1  0
 35 37  1  0
 37 38  1  0
 37 39  2  0
 39 40  1  0
 22  9  1  0
 39 30  1  0
M  END
>  <UniqueID>  (18) 
16

>  <SMILES>  (18) 
COc1cccc(OC)c1/C=C\C(=O)C=Cc1cccc(F)c1

>  <Energy>  (18) 
56.2929391783106

>  <Genealogy>  (18) 
COc1cccc(OC)c1/C=C\C(=O)C=Cc1cccc(F)c1 (cis-trans isomerization)
COc1cccc(OC)c1/C=C\C(=O)C=Cc1cccc(F)c1 (3D coordinates assigned)
COc1cccc(OC)c1/C=C\C(=O)C=Cc1cccc(F)c1 (optimized conformer: 56.2929391783106 kcal/mol)

>  <smiles>  (18) 
COc1cccc(OC)c1C=CC(=O)C=Cc1cccc(F)c1

>  <score_type>  (18) 
oracle

>  <origin>  (18) 
adg

>  <m_score__min__energy>  (18) 
-7.5700000000000003

>  <m_primary>  (18) 
energy

$$$$
18:0
     RDKit          3D

 38 40  0  0  1  0  0  0  0  0999 V2000
   57.0510   29.0540   44.1670 C   0  0  0  0  0  0  0  0  0  0  0  0
   56.7530   30.0670   45.1110 O   0  0  0  0  0  0  0  0  0  0  0  0
   57.3840   31.3010   44.9400 C   0  0  0  0  0  0  0  0  0  0  0  0
   57.6350   31.8490   43.7090 C   0  0  0  0  0  0  0  0  0  0  0  0
   58.2600   33.0740   43.5310 C   0  0  0  0  0  0  0  0  0  0  0  0
   58.6380   33.7560   44.6730 C   0  0  0  0  0  0  0  0  0  0  0  0
   59.2530   34.9550   44.5850 N   0  0  0  0  0  0  0  0  0  0  0  0
   59.6430   35.6660   45.6470 C   0  0  0  0  0  0  0  0  0  0  0  0
   59.4080   35.1530   46.8650 N   0  0  0  0  0  0  0  0  0  0  0  0
   58.8020   33.9660   47.0140 C   0  0  0  0  0  0  0  0  0  0  0  0
   58.6040   33.5260   48.1940 N   0  0  0  0  0  0  0  0  0  0  0  0
   59.5750   32.8990   49.0370 C   0  0  2  0  0  0  0  0  0  0  0  0
   59.6970   33.8270   50.2540 C   0  0  0  0  0  0  0  0  0  0  0  0
   60.9390   32.8440   48.4550 C   0  0  0  0  0  0  0  0  0  0  0  0
   61.3250   31.7060   47.7900 C   0  0  0  0  0  0  0  0  0  0  0  0
   62.6130   31.6610   47.2440 C   0  0  0  0  0  0  0  0  0  0  0  0
   63.4910   32.7140   47.3540 C   0  0  0  0  0  0  0  0  0  0  0  0
   63.1000   33.8590   48.0220 C   0  0  0  0  0  0  0  0  0  0  0  0
   61.8270   33.8800   48.5520 C   0  0  0  0  0  0  0  0  0  0  0  0
   58.4000   33.2340   45.9200 C   0  0  0  0  0  0  0  0  0  0  0  0
   57.7740   32.0090   46.0520 C   0  0  0  0  0  0  0  0  0  0  0  0
   57.3232   28.1286   44.6958 H   0  0  0  0  0  0  0  0  0  0  0  0
   56.1690   28.8698   43.5360 H   0  0  0  0  0  0  0  0  0  0  0  0
   57.8922   29.3768   43.5360 H   0  0  0  0  0  0  0  0  0  0  0  0
   57.3244   31.2877   42.8155 H   0  0  0  0  0  0  0  0  0  0  0  0
   58.4465   33.4843   42.5276 H   0  0  0  0  0  0  0  0  0  0  0  0
   60.1403   36.6398   45.5271 H   0  0  0  0  0  0  0  0  0  0  0  0
   59.7030   35.6870   47.7060 H   0  0  0  0  0  0  0  0  0  0  0  0
   59.2468   31.8671   49.2307 H   0  0  0  0  0  0  0  0  0  0  0  0
   59.6190   33.2336   51.1769 H   0  0  0  0  0  0  0  0  0  0  0  0
   60.6702   34.3391   50.2285 H   0  0  0  0  0  0  0  0  0  0  0  0
   58.8892   34.5732   50.2285 H   0  0  0  0  0  0  0  0  0  0  0  0
   60.6394   30.8517   47.6891 H   0  0  0  0  0  0  0  0  0  0  0  0
   62.9333   30.7544   46.7098 H   0  0  0  0  0  0  0  0  0  0  0  0
   64.4967   32.6454   46.9137 H   0  0  0  0  0  0  0  0  0  0  0  0
   63.7773   34.7194   48.1268 H   0  0  0  0  0  0  0  0  0  0  0  0
   61.5056   34.7864   49.0861 H   0  0  0  0  0  0  0  0  0  0  0  0
   57.5863   31.5973   47.0546 H   0  0  0  0  0  0  0  0  0  0  0  0
  1  2  1  0
  2  3  1  0
  3  4  2  0
  4  5  1  0
  5  6  2  0
  6  7  1  0
  7  8  2  0
  8  9  1  0
  9 10  1  0
 10 11  2  0
 11 12  1  0
 12 13  1  0
 12 14  1  0
 14 15  2  0
 15 16  1  0
 16 17  2  0
 17 18  1  0
 18 19  2  0
 10 20  1  0
 20 21  2  0
 21  3  1  0
 20  6  1  0
 19 14  1  0
  1 22  1  0
  1 23  1  0
  1 24  1  0
  4 25  1  0
  5 26  1  0
  8 27  1  0
  9 28  1  0
 12 29  1  1
 13 30  1  0
 13 31  1  0
 13 32  1  0
 15 33  1  0
 16 34  1  0
 17 35  1  0
 18 36  1  0
 19 37  1  0
 21 38  1  0
M  END
>  <smiles>  (19) 
COc1ccc2nc[nH]c(=NC(C)c3ccccc3)c2c1

>  <score_type>  (19) 
oracle

>  <origin>  (19) 
adg

>  <m_score__min__energy>  (19) 
-7.8700000000000001

>  <m_primary>  (19) 
energy

$$$$
19:0
     RDKit          3D

 42 44  0  0  0  0  0  0  0  0999 V2000
   64.7030   32.6270   49.8520 C   0  0  0  0  0  0  0  0  0  0  0  0
   64.3870   33.0920   48.5440 O   0  0  0  0  0  0  0  0  0  0  0  0
   63.1010   33.4700   48.1260 C   0  0  0  0  0  0  0  0  0  0  0  0
   62.1680   33.8420   49.1010 C   0  0  0  0  0  0  0  0  0  0  0  0
   60.8750   34.2250   48.7350 C   0  0  0  0  0  0  0  0  0  0  0  0
   60.4920   34.2410   47.3900 C   0  0  0  0  0  0  0  0  0  0  0  0
   59.1770   34.6290   47.0790 O   0  0  0  0  0  0  0  0  0  0  0  0
   58.5560   34.4800   45.8020 C   0  0  0  0  0  0  0  0  0  0  0  0
   58.2430   33.0440   45.5320 C   0  0  0  0  0  0  0  0  0  0  0  0
   57.1500   32.6370   44.8500 N   0  0  0  0  0  0  0  0  0  0  0  0
   57.2640   31.2950   44.8540 C   0  0  0  0  0  0  0  0  0  0  0  0
   56.2810   30.4240   44.2710 C   0  0  0  0  0  0  0  0  0  0  0  0
   55.4890   29.7240   43.7990 N   0  0  0  0  0  0  0  0  0  0  0  0
   58.4120   30.9420   45.5450 C   0  0  0  0  0  0  0  0  0  0  0  0
   58.9300   29.6230   45.8080 N   0  0  0  0  0  0  0  0  0  0  0  0
   59.6540   28.9170   44.7400 C   0  0  0  0  0  0  0  0  0  0  0  0
   60.7750   28.0620   45.3400 C   0  0  0  0  0  0  0  0  0  0  0  0
   60.2770   27.1030   46.4430 C   0  0  0  0  0  0  0  0  0  0  0  0
   58.8550   27.4100   46.9350 C   0  0  0  0  0  0  0  0  0  0  0  0
   58.6100   28.9180   47.0600 C   0  0  0  0  0  0  0  0  0  0  0  0
   58.9880   32.0450   45.9540 O   0  0  0  0  0  0  0  0  0  0  0  0
   61.4280   33.8720   46.4050 C   0  0  0  0  0  0  0  0  0  0  0  0
   62.7220   33.4880   46.7710 C   0  0  0  0  0  0  0  0  0  0  0  0
   64.2488   33.2953   50.5984 H   0  0  0  0  0  0  0  0  0  0  0  0
   64.3093   31.6084   49.9841 H   0  0  0  0  0  0  0  0  0  0  0  0
   65.7950   32.6180   49.9841 H   0  0  0  0  0  0  0  0  0  0  0  0
   62.4548   33.8327   50.1629 H   0  0  0  0  0  0  0  0  0  0  0  0
   60.1522   34.5164   49.5113 H   0  0  0  0  0  0  0  0  0  0  0  0
   57.6232   35.0626   45.7838 H   0  0  0  0  0  0  0  0  0  0  0  0
   59.2476   34.8432   45.0275 H   0  0  0  0  0  0  0  0  0  0  0  0
   58.9540   28.2678   44.1936 H   0  0  0  0  0  0  0  0  0  0  0  0
   60.0929   29.6558   44.0534 H   0  0  0  0  0  0  0  0  0  0  0  0
   61.2297   27.4652   44.5356 H   0  0  0  0  0  0  0  0  0  0  0  0
   61.5004   28.7475   45.8025 H   0  0  0  0  0  0  0  0  0  0  0  0
   60.2924   26.0779   46.0443 H   0  0  0  0  0  0  0  0  0  0  0  0
   60.9487   27.2294   47.3049 H   0  0  0  0  0  0  0  0  0  0  0  0
   58.1322   26.9897   46.2202 H   0  0  0  0  0  0  0  0  0  0  0  0
   58.7327   26.9596   47.9311 H   0  0  0  0  0  0  0  0  0  0  0  0
   57.5515   29.0888   47.3057 H   0  0  0  0  0  0  0  0  0  0  0  0
   59.2646   29.3091   47.8529 H   0  0  0  0  0  0  0  0  0  0  0  0
   61.1403   33.8858   45.3434 H   0  0  0  0  0  0  0  0  0  0  0  0
   63.4470   33.1987   45.9959 H   0  0  0  0  0  0  0  0  0  0  0  0
  1  2  1  0
  2  3  1  0
  3  4  2  0
  4  5  1  0
  5  6  2  0
  6  7  1  0
  7  8  1  0
  8  9  1  0
  9 10  2  0
 10 11  1  0
 11 12  1  0
 12 13  3  0
 11 14  2  0
 14 15  1  0
 15 16  1  0
 16 17  1  0
 17 18  1  0
 18 19  1  0
 19 20  1  0
 14 21  1  0
  6 22  1  0
 22 23  2  0
 23  3  1  0
 21  9  1  0
 20 15  1  0
  1 24  1  0
  1 25  1  0
  1 26  1  0
  4 27  1  0
  5 28  1  0
  8 29  1  0
  8 30  1  0
 16 31  1  0
 16 32  1  0
 17 33  1  0
 17 34  1  0
 18 35  1  0
 18 36  1  0
 19 37  1  0
 19 38  1  0
 20 39  1  0
 20 40  1  0
 22 41  1  0
 23 42  1  0
M  END
>  <UniqueID>  (20) 
17

>  <SMILES>  (20) 
COc1ccc(OCc2nc(C#N)c(N3CCCCC3)o2)cc1

>  <Energy>  (20) 
73.2943790620707

>  <Genealogy>  (20) 
COc1ccc(OCc2nc(C#N)c(N3CCCCC3)o2)cc1 (3D coordinates assigned)
COc1ccc(OCc2nc(C#N)c(N3CCCCC3)o2)cc1 (nonaromatic ring conformer: 73.2943790620707 kcal/mol)

>  <smiles>  (20) 
COc1ccc(OCc2nc(C#N)c(N3CCCCC3)o2)cc1

>  <score_type>  (20) 
oracle

>  <origin>  (20) 
adg

>  <m_score__min__energy>  (20) 
-7.1900000000000004

>  <m_primary>  (20) 
energy

$$$$
20:0
     RDKit          3D

 37 38  0  0  0  0  0  0  0  0999 V2000
   60.7640   33.8750   46.6710 C   0  0  0  0  0  0  0  0  0  0  0  0
   61.7380   33.1680   47.5100 N   0  0  0  0  0  0  0  0  0  0  0  0
   62.6330   33.9220   48.3910 C   0  0  0  0  0  0  0  0  0  0  0  0
   61.9330   31.7470   47.3620 C   0  0  0  0  0  0  0  0  0  0  0  0
   63.0750   31.2520   47.5690 O   0  0  0  0  0  0  0  0  0  0  0  0
   60.8310   30.8470   46.9630 C   0  0  0  0  0  0  0  0  0  0  0  0
   59.5500   31.0190   47.5120 C   0  0  0  0  0  0  0  0  0  0  0  0
   58.5000   30.1780   47.1300 C   0  0  0  0  0  0  0  0  0  0  0  0
   58.7140   29.1680   46.1820 C   0  0  0  0  0  0  0  0  0  0  0  0
   57.4040   28.0850   45.7160 S   0  0  0  0  0  0  0  0  0  0  0  0
   57.8450   27.1940   44.5880 O   0  0  0  0  0  0  0  0  0  0  0  0
   57.0420   27.2200   46.8910 O   0  0  0  0  0  0  0  0  0  0  0  0
   56.0090   28.9990   45.2280 N   0  0  0  0  0  0  0  0  0  0  0  0
   56.2640   29.6400   43.9370 C   0  0  0  0  0  0  0  0  0  0  0  0
   56.9080   30.9700   44.1560 C   0  0  0  0  0  0  0  0  0  0  0  0
   57.7010   31.6420   43.2490 C   0  0  0  0  0  0  0  0  0  0  0  0
   58.0420   32.8280   43.8630 C   0  0  0  0  0  0  0  0  0  0  0  0
   57.4330   32.8070   45.1020 C   0  0  0  0  0  0  0  0  0  0  0  0
   56.7620   31.6870   45.2460 O   0  0  0  0  0  0  0  0  0  0  0  0
   59.9860   29.0050   45.6200 C   0  0  0  0  0  0  0  0  0  0  0  0
   61.0370   29.8440   46.0020 C   0  0  0  0  0  0  0  0  0  0  0  0
   60.0406   34.4001   47.3121 H   0  0  0  0  0  0  0  0  0  0  0  0
   61.2882   34.6043   46.0359 H   0  0  0  0  0  0  0  0  0  0  0  0
   60.2330   33.1507   46.0359 H   0  0  0  0  0  0  0  0  0  0  0  0
   62.3800   33.7089   49.4401 H   0  0  0  0  0  0  0  0  0  0  0  0
   63.6742   33.6248   48.1973 H   0  0  0  0  0  0  0  0  0  0  0  0
   62.5169   34.9986   48.1973 H   0  0  0  0  0  0  0  0  0  0  0  0
   59.3717   31.8188   48.2458 H   0  0  0  0  0  0  0  0  0  0  0  0
   57.5027   30.3096   47.5751 H   0  0  0  0  0  0  0  0  0  0  0  0
   55.8740   29.7510   45.9440 H   0  0  0  0  0  0  0  0  0  0  0  0
   56.9324   29.0039   43.3382 H   0  0  0  0  0  0  0  0  0  0  0  0
   55.3119   29.7787   43.4038 H   0  0  0  0  0  0  0  0  0  0  0  0
   57.9988   31.3025   42.2460 H   0  0  0  0  0  0  0  0  0  0  0  0
   58.6720   33.6293   43.4495 H   0  0  0  0  0  0  0  0  0  0  0  0
   57.4996   33.6068   45.8543 H   0  0  0  0  0  0  0  0  0  0  0  0
   60.1590   28.2141   44.8753 H   0  0  0  0  0  0  0  0  0  0  0  0
   62.0307   29.7178   45.5473 H   0  0  0  0  0  0  0  0  0  0  0  0
  1  2  1  0
  2  3  1  0
  2  4  1  0
  4  5  2  0
  4  6  1  0
  6  7  2  0
  7  8  1  0
  8  9  2  0
  9 10  1  0
 10 11  2  0
 10 12  2  0
 10 13  1  0
 13 14  1  0
 14 15  1  0
 15 16  2  0
 16 17  1  0
 17 18  2  0
 18 19  1  0
  9 20  1  0
 20 21  2  0
 21  6  1  0
 19 15  1  0
  1 22  1  0
  1 23  1  0
  1 24  1  0
  3 25  1  0
  3 26  1  0
  3 27  1  0
  7 28  1  0
  8 29  1  0
 13 30  1  0
 14 31  1  0
 14 32  1  0
 16 33  1  0
 17 34  1  0
 18 35  1  0
 20 36  1  0
 21 37  1  0
M  END
>  <UniqueID>  (21) 
18

>  <SMILES>  (21) 
CN(C)C(=O)c1ccc(S(=O)(=O)NCc2ccco2)cc1

>  <Energy>  (21) 
62.22027648018345

>  <Genealogy>  (21) 
CN(C)C(=O)c1ccc(S(=O)(=O)NCc2ccco2)cc1 (3D coordinates assigned)
CN(C)C(=O)c1ccc(S(=O)(=O)NCc2ccco2)cc1 (optimized conformer: 62.22027648018345 kcal/mol)

>  <smiles>  (21) 
CN(C)C(=O)c1ccc(S(=O)(=O)NCc2ccco2)cc1

>  <score_type>  (21) 
oracle

>  <origin>  (21) 
adg

>  <m_score__min__energy>  (21) 
-7.21

>  <m_primary>  (21) 
energy

$$$$
21:0
     RDKit          3D

 40 42  0  0  0  0  0  0  0  0999 V2000
   60.8350   30.4400   47.1800 C   0  0  0  0  0  0  0  0  0  0  0  0
   59.7170   31.3030   47.3540 O   0  0  0  0  0  0  0  0  0  0  0  0
   59.5380   32.5180   46.6760 C   0  0  0  0  0  0  0  0  0  0  0  0
   58.6950   32.6320   45.5520 C   0  0  0  0  0  0  0  0  0  0  0  0
   58.5530   33.8590   44.8970 C   0  0  0  0  0  0  0  0  0  0  0  0
   59.2490   34.9800   45.3520 C   0  0  0  0  0  0  0  0  0  0  0  0
   60.0850   34.8790   46.4660 C   0  0  0  0  0  0  0  0  0  0  0  0
   60.2270   33.6550   47.1340 C   0  0  0  0  0  0  0  0  0  0  0  0
   61.0960   33.5650   48.2730 N   0  0  0  0  0  0  0  0  0  0  0  0
   60.7040   33.4900   49.5630 C   0  0  0  0  0  0  0  0  0  0  0  0
   59.2780   33.4650   50.0210 C   0  0  0  0  0  0  0  0  0  0  0  0
   61.8040   33.3840   50.3900 C   0  0  0  0  0  0  0  0  0  0  0  0
   62.9180   33.3940   49.5670 C   0  0  0  0  0  0  0  0  0  0  0  0
   64.3160   33.2740   50.0300 C   0  0  0  0  0  0  0  0  0  0  0  0
   65.2250   32.6540   49.3610 N   0  0  0  0  0  0  0  0  0  0  0  0
   66.5070   32.7220   50.0480 C   0  0  0  0  0  0  0  0  0  0  0  0
   66.2290   33.5650   51.3020 C   0  0  0  0  0  0  0  0  0  0  0  0
   64.8100   33.8610   51.2200 N   0  0  0  0  0  0  0  0  0  0  0  0
   62.4480   33.5250   48.2620 C   0  0  0  0  0  0  0  0  0  0  0  0
   63.2870   33.5590   47.0160 C   0  0  0  0  0  0  0  0  0  0  0  0
   61.2235   30.1401   48.1645 H   0  0  0  0  0  0  0  0  0  0  0  0
   60.5241   29.5454   46.6205 H   0  0  0  0  0  0  0  0  0  0  0  0
   61.6217   30.9673   46.6205 H   0  0  0  0  0  0  0  0  0  0  0  0
   58.1460   31.7509   45.1883 H   0  0  0  0  0  0  0  0  0  0  0  0
   57.8918   33.9410   44.0218 H   0  0  0  0  0  0  0  0  0  0  0  0
   59.1389   35.9435   44.8328 H   0  0  0  0  0  0  0  0  0  0  0  0
   60.6343   35.7636   46.8207 H   0  0  0  0  0  0  0  0  0  0  0  0
   59.2460   33.4644   51.1205 H   0  0  0  0  0  0  0  0  0  0  0  0
   58.7547   34.3541   49.6394 H   0  0  0  0  0  0  0  0  0  0  0  0
   58.7862   32.5581   49.6394 H   0  0  0  0  0  0  0  0  0  0  0  0
   61.7972   33.3067   51.4873 H   0  0  0  0  0  0  0  0  0  0  0  0
   65.0680   32.1540   48.4570 H   0  0  0  0  0  0  0  0  0  0  0  0
   66.8531   31.7154   50.3254 H   0  0  0  0  0  0  0  0  0  0  0  0
   67.2959   33.1584   49.4178 H   0  0  0  0  0  0  0  0  0  0  0  0
   66.4572   32.9949   52.2146 H   0  0  0  0  0  0  0  0  0  0  0  0
   66.8485   34.4728   51.3472 H   0  0  0  0  0  0  0  0  0  0  0  0
   64.3040   34.5260   51.8440 H   0  0  0  0  0  0  0  0  0  0  0  0
   64.3511   33.6021   47.2915 H   0  0  0  0  0  0  0  0  0  0  0  0
   63.0984   32.6525   46.4221 H   0  0  0  0  0  0  0  0  0  0  0  0
   63.0257   34.4473   46.4221 H   0  0  0  0  0  0  0  0  0  0  0  0
  1  2  1  0
  2  3  1  0
  3  4  2  0
  4  5  1  0
  5  6  2  0
  6  7  1  0
  7  8  2  0
  8  9  1  0
  9 10  1  0
 10 11  1  0
 10 12  2  0
 12 13  1  0
 13 14  1  0
 14 15  2  0
 15 16  1  0
 16 17  1  0
 17 18  1  0
 13 19  2  0
 19 20  1  0
  8  3  1  0
 19  9  1  0
 18 14  1  0
  1 21  1  0
  1 22  1  0
  1 23  1  0
  4 24  1  0
  5 25  1  0
  6 26  1  0
  7 27  1  0
 11 28  1  0
 11 29  1  0
 11 30  1  0
 12 31  1  0
 15 32  1  0
 16 33  1  0
 16 34  1  0
 17 35  1  0
 17 36  1  0
 18 37  1  0
 20 38  1  0
 20 39  1  0
 20 40  1  0
M  CHG  1  15   1
M  END
>  <UniqueID>  (22) 
19

>  <SMILES>  (22) 
COc1ccccc1-n1c(C)cc(C2=[NH+]CCN2)c1C

>  <Energy>  (22) 
85.16036636622313

>  <Genealogy>  (22) 
COc1ccccc1-n1c(C)cc(C2=[NH+]CCN2)c1C (protonated)
COc1ccccc1-n1c(C)cc(C2=[NH+]CCN2)c1C (3D coordinates assigned)
COc1ccccc1-n1c(C)cc(C2=[NH+]CCN2)c1C (nonaromatic ring conformer: 85.16036636622313 kcal/mol)

>  <smiles>  (22) 
COc1ccccc1-n1c(C)cc(C2=NCCN2)c1C

>  <score_type>  (22) 
oracle

>  <origin>  (22) 
adg

>  <m_score__min__energy>  (22) 
-5.0599999999999996

>  <m_primary>  (22) 
energy

$$$$
22:0
     RDKit          3D

 39 41  0  0  0  0  0  0  0  0999 V2000
   58.8940   21.6600   44.1030 C   0  0  0  0  0  0  0  0  0  0  0  0
   57.5410   21.1060   44.2510 N   0  0  0  0  0  0  0  0  0  0  0  0
   57.3700   20.5090   45.5820 C   0  0  0  0  0  0  0  0  0  0  0  0
   56.3510   22.3590   44.0060 S   0  0  0  0  0  0  0  0  0  0  0  0
   55.1510   22.1090   44.8780 O   0  0  0  0  0  0  0  0  0  0  0  0
   55.9060   22.3640   42.5690 O   0  0  0  0  0  0  0  0  0  0  0  0
   57.0490   23.9320   44.3850 C   0  0  0  0  0  0  0  0  0  0  0  0
   57.2840   24.2860   45.7200 C   0  0  0  0  0  0  0  0  0  0  0  0
   57.8180   25.5390   46.0320 C   0  0  0  0  0  0  0  0  0  0  0  0
   58.1180   26.4540   45.0120 C   0  0  0  0  0  0  0  0  0  0  0  0
   58.6650   27.7500   45.3340 N   0  0  0  0  0  0  0  0  0  0  0  0
   59.8510   27.8350   46.0220 C   0  0  0  0  0  0  0  0  0  0  0  0
   60.4610   26.7920   46.3850 O   0  0  0  0  0  0  0  0  0  0  0  0
   60.3960   29.0820   46.3440 C   0  0  0  0  0  0  0  0  0  0  0  0
   59.7330   30.2470   45.9690 C   0  0  0  0  0  0  0  0  0  0  0  0
   58.5280   30.1610   45.2680 C   0  0  0  0  0  0  0  0  0  0  0  0
   57.8370   31.3110   44.8670 C   0  0  0  0  0  0  0  0  0  0  0  0
   56.6410   31.1900   44.1580 C   0  0  0  0  0  0  0  0  0  0  0  0
   56.1490   29.9190   43.8560 C   0  0  0  0  0  0  0  0  0  0  0  0
   56.8290   28.8120   44.2520 N   0  0  0  0  0  0  0  0  0  0  0  0
   57.9990   28.8890   44.9520 C   0  0  0  0  0  0  0  0  0  0  0  0
   57.8790   26.1000   43.6750 C   0  0  0  0  0  0  0  0  0  0  0  0
   57.3450   24.8470   43.3640 C   0  0  0  0  0  0  0  0  0  0  0  0
   59.3283   21.8378   45.0979 H   0  0  0  0  0  0  0  0  0  0  0  0
   59.5236   20.9473   43.5502 H   0  0  0  0  0  0  0  0  0  0  0  0
   58.8429   22.6096   43.5502 H   0  0  0  0  0  0  0  0  0  0  0  0
   57.3970   20.3660   43.5260 H   0  0  0  0  0  0  0  0  0  0  0  0
   57.5861   21.2635   46.3528 H   0  0  0  0  0  0  0  0  0  0  0  0
   56.3345   20.1555   45.6950 H   0  0  0  0  0  0  0  0  0  0  0  0
   58.0613   19.6609   45.6950 H   0  0  0  0  0  0  0  0  0  0  0  0
   57.0473   23.5751   46.5254 H   0  0  0  0  0  0  0  0  0  0  0  0
   58.0039   25.8090   47.0820 H   0  0  0  0  0  0  0  0  0  0  0  0
   61.3474   29.1421   46.8929 H   0  0  0  0  0  0  0  0  0  0  0  0
   60.1558   31.2301   46.2234 H   0  0  0  0  0  0  0  0  0  0  0  0
   58.2357   32.3069   45.1101 H   0  0  0  0  0  0  0  0  0  0  0  0
   56.0910   32.0880   43.8400 H   0  0  0  0  0  0  0  0  0  0  0  0
   55.2082   29.8138   43.2959 H   0  0  0  0  0  0  0  0  0  0  0  0
   58.1129   26.8115   42.8693 H   0  0  0  0  0  0  0  0  0  0  0  0
   57.1560   24.5771   42.3145 H   0  0  0  0  0  0  0  0  0  0  0  0
  1  2  1  0
  2  3  1  0
  2  4  1  0
  4  5  2  0
  4  6  2  0
  4  7  1  0
  7  8  2  0
  8  9  1  0
  9 10  2  0
 10 11  1  0
 11 12  1  0
 12 13  2  0
 12 14  1  0
 14 15  2  0
 15 16  1  0
 16 17  2  0
 17 18  1  0
 18 19  2  0
 19 20  1  0
 20 21  2  0
 10 22  1  0
 22 23  2  0
 23  7  1  0
 21 11  1  0
 21 16  1  0
  1 24  1  0
  1 25  1  0
  1 26  1  0
  2 27  1  0
  3 28  1  0
  3 29  1  0
  3 30  1  0
  8 31  1  0
  9 32  1  0
 14 33  1  0
 15 34  1  0
 17 35  1  0
 18 36  1  0
 19 37  1  0
 22 38  1  0
 23 39  1  0
M  CHG  1   2   1
M  END
>  <UniqueID>  (23) 
20

>  <SMILES>  (23) 
C[NH+](C)S(=O)(=O)c1ccc(-n2c(=O)ccc3cccnc32)cc1

>  <Energy>  (23) 
52.38646931963614

>  <Genealogy>  (23) 
C[NH+](C)S(=O)(=O)c1ccc(-n2c(=O)ccc3cccnc32)cc1 (protonated)
C[NH+](C)S(=O)(=O)c1ccc(-n2c(=O)ccc3cccnc32)cc1 (3D coordinates assigned)
C[NH+](C)S(=O)(=O)c1ccc(-n2c(=O)ccc3cccnc32)cc1 (optimized conformer: 52.38646931963614 kcal/mol)

>  <smiles>  (23) 
CN(C)S(=O)(=O)c1ccc(-n2c(=O)ccc3cccnc32)cc1

>  <score_type>  (23) 
oracle

>  <origin>  (23) 
adg

>  <m_score__min__energy>  (23) 
-6.7699999999999996

>  <m_primary>  (23) 
energy

$$$$
23:0
     RDKit          3D

 48 50  0  0  0  0  0  0  0  0999 V2000
   67.0590   32.8700   50.5210 C   0  0  0  0  0  0  0  0  0  0  0  0
   65.8040   32.1980   50.5250 O   0  0  0  0  0  0  0  0  0  0  0  0
   64.6230   32.7240   49.9830 C   0  0  0  0  0  0  0  0  0  0  0  0
   63.8860   33.7420   50.6190 C   0  0  0  0  0  0  0  0  0  0  0  0
   62.7130   34.2310   50.0370 C   0  0  0  0  0  0  0  0  0  0  0  0
   62.2470   33.7070   48.8230 C   0  0  0  0  0  0  0  0  0  0  0  0
   61.0500   34.2460   48.2360 N   0  0  0  0  0  0  0  0  0  0  0  0
   59.8150   33.5190   48.1210 C   0  0  0  0  0  0  0  0  0  0  0  0
   59.6530   32.4360   48.7480 O   0  0  0  0  0  0  0  0  0  0  0  0
   58.7060   34.0460   47.2440 C   0  0  1  0  0  0  0  0  0  0  0  0
   59.3010   34.8880   46.0900 C   0  0  0  0  0  0  0  0  0  0  0  0
   58.3750   34.9000   44.8730 C   0  0  0  0  0  0  0  0  0  0  0  0
   58.2330   33.4790   44.3120 C   0  0  0  0  0  0  0  0  0  0  0  0
   58.1110   32.4820   45.3870 N   0  0  0  0  0  0  0  0  0  0  0  0
   57.9680   31.0980   45.0270 C   0  0  0  0  0  0  0  0  0  0  0  0
   56.8930   30.7110   44.2110 C   0  0  0  0  0  0  0  0  0  0  0  0
   56.7370   29.3770   43.8310 C   0  0  0  0  0  0  0  0  0  0  0  0
   57.6530   28.4160   44.2600 C   0  0  0  0  0  0  0  0  0  0  0  0
   58.7230   28.7860   45.0780 C   0  0  0  0  0  0  0  0  0  0  0  0
   58.8840   30.1220   45.4840 C   0  0  0  0  0  0  0  0  0  0  0  0
   60.0520   30.4770   46.3620 C   0  0  0  0  0  0  0  0  0  0  0  0
   57.7760   32.9060   46.7530 C   0  0  0  0  0  0  0  0  0  0  0  0
   62.9950   32.7080   48.1780 C   0  0  0  0  0  0  0  0  0  0  0  0
   64.1690   32.2180   48.7600 C   0  0  0  0  0  0  0  0  0  0  0  0
   67.3848   33.0445   51.5571 H   0  0  0  0  0  0  0  0  0  0  0  0
   67.8049   32.2506   50.0014 H   0  0  0  0  0  0  0  0  0  0  0  0
   66.9570   33.8342   50.0014 H   0  0  0  0  0  0  0  0  0  0  0  0
   64.2349   34.1538   51.5775 H   0  0  0  0  0  0  0  0  0  0  0  0
   62.1506   35.0340   50.5359 H   0  0  0  0  0  0  0  0  0  0  0  0
   61.0570   35.2510   47.9490 H   0  0  0  0  0  0  0  0  0  0  0  0
   58.0640   34.7131   47.8381 H   0  0  0  0  0  0  0  0  0  0  0  0
   59.4468   35.9209   46.4389 H   0  0  0  0  0  0  0  0  0  0  0  0
   60.2592   34.4379   45.7914 H   0  0  0  0  0  0  0  0  0  0  0  0
   57.3849   35.2751   45.1715 H   0  0  0  0  0  0  0  0  0  0  0  0
   58.8022   35.5544   44.0989 H   0  0  0  0  0  0  0  0  0  0  0  0
   57.3345   33.4332   43.6790 H   0  0  0  0  0  0  0  0  0  0  0  0
   59.1365   33.2474   43.7289 H   0  0  0  0  0  0  0  0  0  0  0  0
   56.1685   31.4646   43.8687 H   0  0  0  0  0  0  0  0  0  0  0  0
   55.8909   29.0830   43.1925 H   0  0  0  0  0  0  0  0  0  0  0  0
   57.5324   27.3664   43.9538 H   0  0  0  0  0  0  0  0  0  0  0  0
   59.4460   28.0252   45.4073 H   0  0  0  0  0  0  0  0  0  0  0  0
   59.7574   30.3875   47.4180 H   0  0  0  0  0  0  0  0  0  0  0  0
   60.8877   29.7923   46.1551 H   0  0  0  0  0  0  0  0  0  0  0  0
   60.3653   31.5109   46.1551 H   0  0  0  0  0  0  0  0  0  0  0  0
   56.7354   33.2623   46.7706 H   0  0  0  0  0  0  0  0  0  0  0  0
   57.9085   32.0431   47.4222 H   0  0  0  0  0  0  0  0  0  0  0  0
   62.6559   32.3091   47.2106 H   0  0  0  0  0  0  0  0  0  0  0  0
   64.7405   31.4276   48.2514 H   0  0  0  0  0  0  0  0  0  0  0  0
  1  2  1  0
  2  3  1  0
  3  4  2  0
  4  5  1  0
  5  6  2  0
  6  7  1  0
  7  8  1  0
  8  9  2  0
  8 10  1  0
 10 11  1  0
 11 12  1  0
 12 13  1  0
 13 14  1  0
 14 15  1  0
 15 16  2  0
 16 17  1  0
 17 18  2  0
 18 19  1  0
 19 20  2  0
 20 21  1  0
 14 22  1  0
  6 23  1  0
 23 24  2  0
 24  3  1  0
 22 10  1  0
 20 15  1  0
  1 25  1  0
  1 26  1  0
  1 27  1  0
  4 28  1  0
  5 29  1  0
  7 30  1  0
 10 31  1  1
 11 32  1  0
 11 33  1  0
 12 34  1  0
 12 35  1  0
 13 36  1  0
 13 37  1  0
 16 38  1  0
 17 39  1  0
 18 40  1  0
 19 41  1  0
 21 42  1  0
 21 43  1  0
 21 44  1  0
 22 45  1  0
 22 46  1  0
 23 47  1  0
 24 48  1  0
M  END
>  <UniqueID>  (24) 
21

>  <SMILES>  (24) 
COc1ccc(NC(=O)[C@H]2CCCN(c3ccccc3C)C2)cc1

>  <Energy>  (24) 
58.592679333331496

>  <Genealogy>  (24) 
COc1ccc(NC(=O)[C@H]2CCCN(c3ccccc3C)C2)cc1 (chirality)
COc1ccc(NC(=O)[C@H]2CCCN(c3ccccc3C)C2)cc1 (3D coordinates assigned)
COc1ccc(NC(=O)[C@H]2CCCN(c3ccccc3C)C2)cc1 (nonaromatic ring conformer: 58.592679333331496 kcal/mol)

>  <smiles>  (24) 
COc1ccc(NC(=O)C2CCCN(c3ccccc3C)C2)cc1

>  <score_type>  (24) 
oracle

>  <origin>  (24) 
adg

>  <m_score__min__energy>  (24) 
-7.6100000000000003

>  <m_primary>  (24) 
energy

$$$$
24:0
     RDKit          3D

 21 22  0  0  1  0  0  0  0  0999 V2000
   57.3680   32.5650   40.6590 C   0  0  0  0  0  0  0  0  0  0  0  0
   58.3170   32.3600   41.7420 N   0  0  0  0  0  0  0  0  0  0  0  0
   57.9830   31.9080   42.8840 C   0  0  0  0  0  0  0  0  0  0  0  0
   57.4980   30.6740   43.0090 N   0  0  0  0  0  0  0  0  0  0  0  0
   57.1360   30.1720   44.2170 C   0  0  0  0  0  0  0  0  0  0  0  0
   57.2640   30.9360   45.3390 N   0  0  0  0  0  0  0  0  0  0  0  0
   57.7530   32.1810   45.2210 C   0  0  0  0  0  0  0  0  0  0  0  0
   58.1220   32.6930   43.9870 C   0  0  0  0  0  0  0  0  0  0  0  0
   58.5740   33.9370   44.1230 N   0  0  0  0  0  0  0  0  0  0  0  0
   58.4860   34.2050   45.4490 C   0  0  0  0  0  0  0  0  0  0  0  0
   57.9890   33.1390   46.1030 N   0  0  0  0  0  0  0  0  0  0  0  0
   57.7630   33.0850   47.5470 C   0  0  0  0  0  0  0  0  0  0  0  0
   56.3740   32.7797   41.0783 H   0  0  0  0  0  0  0  0  0  0  0  0
   57.6958   33.4130   40.0398 H   0  0  0  0  0  0  0  0  0  0  0  0
   57.3165   31.6573   40.0398 H   0  0  0  0  0  0  0  0  0  0  0  0
   57.3860   30.0620   42.1710 H   0  0  0  0  0  0  0  0  0  0  0  0
   56.7393   29.1487   44.2908 H   0  0  0  0  0  0  0  0  0  0  0  0
   58.7780   35.1546   45.9212 H   0  0  0  0  0  0  0  0  0  0  0  0
   58.7022   33.3094   48.0738 H   0  0  0  0  0  0  0  0  0  0  0  0
   56.9997   33.8260   47.8266 H   0  0  0  0  0  0  0  0  0  0  0  0
   57.4171   32.0789   47.8266 H   0  0  0  0  0  0  0  0  0  0  0  0
  1  2  1  0
  2  3  2  0
  3  4  1  0
  4  5  1  0
  5  6  2  0
  6  7  1  0
  7  8  2  0
  8  9  1  0
  9 10  2  0
 10 11  1  0
 11 12  1  0
  8  3  1  0
 11  7  1  0
  1 13  1  0
  1 14  1  0
  1 15  1  0
  4 16  1  0
  5 17  1  0
 10 18  1  0
 12 19  1  0
 12 20  1  0
 12 21  1  0
M  END
>  <smiles>  (25) 
CN=c1[nH]cnc2c1ncn2C

>  <score_type>  (25) 
oracle

>  <origin>  (25) 
adg

>  <m_score__min__energy>  (25) 
-4.4800000000000004

>  <m_primary>  (25) 
energy

$$$$
25:0
     RDKit          3D

 25 26  0  0  0  0  0  0  0  0999 V2000
   57.1120   28.0370   45.2880 C   0  0  0  0  0  0  0  0  0  0  0  0
   56.3460   28.9780   44.3670 C   0  0  0  0  0  0  0  0  0  0  0  0
   57.0610   30.2870   44.2390 C   0  0  0  0  0  0  0  0  0  0  0  0
   57.3770   31.0640   45.2970 N   0  0  0  0  0  0  0  0  0  0  0  0
   58.0520   32.1000   44.7550 C   0  0  0  0  0  0  0  0  0  0  0  0
   58.6060   33.2250   45.5490 C   0  0  0  0  0  0  0  0  0  0  0  0
   58.6000   33.1580   46.9550 C   0  0  0  0  0  0  0  0  0  0  0  0
   59.1170   34.2090   47.7180 C   0  0  0  0  0  0  0  0  0  0  0  0
   59.6450   35.3380   47.0890 C   0  0  0  0  0  0  0  0  0  0  0  0
   59.6570   35.4180   45.6950 C   0  0  0  0  0  0  0  0  0  0  0  0
   59.1410   34.3700   44.9260 C   0  0  0  0  0  0  0  0  0  0  0  0
   58.1400   31.9220   43.3850 C   0  0  0  0  0  0  0  0  0  0  0  0
   57.5180   30.7760   43.0710 N   0  0  0  0  0  0  0  0  0  0  0  0
   56.9005   28.2968   46.3358 H   0  0  0  0  0  0  0  0  0  0  0  0
   56.7978   27.0004   45.0967 H   0  0  0  0  0  0  0  0  0  0  0  0
   58.1908   28.1344   45.0967 H   0  0  0  0  0  0  0  0  0  0  0  0
   56.2557   28.5165   43.3726 H   0  0  0  0  0  0  0  0  0  0  0  0
   55.3487   29.1588   44.7943 H   0  0  0  0  0  0  0  0  0  0  0  0
   58.1852   32.2716   47.4573 H   0  0  0  0  0  0  0  0  0  0  0  0
   59.1078   34.1464   48.8162 H   0  0  0  0  0  0  0  0  0  0  0  0
   60.0513   36.1640   47.6912 H   0  0  0  0  0  0  0  0  0  0  0  0
   60.0735   36.3078   45.2003 H   0  0  0  0  0  0  0  0  0  0  0  0
   59.1529   34.4400   43.8283 H   0  0  0  0  0  0  0  0  0  0  0  0
   58.6345   32.6027   42.6765 H   0  0  0  0  0  0  0  0  0  0  0  0
   57.4190   30.3510   42.1220 H   0  0  0  0  0  0  0  0  0  0  0  0
  1  2  1  0
  2  3  1  0
  3  4  2  0
  4  5  1  0
  5  6  1  0
  6  7  2  0
  7  8  1  0
  8  9  2  0
  9 10  1  0
 10 11  2  0
  5 12  2  0
 12 13  1  0
 13  3  1  0
 11  6  1  0
  1 14  1  0
  1 15  1  0
  1 16  1  0
  2 17  1  0
  2 18  1  0
  7 19  1  0
  8 20  1  0
  9 21  1  0
 10 22  1  0
 11 23  1  0
 12 24  1  0
 13 25  1  0
M  END
>  <UniqueID>  (26) 
22

>  <SMILES>  (26) 
CCc1nc(-c2ccccc2)c[nH]1

>  <Energy>  (26) 
51.13563608686742

>  <Genealogy>  (26) 
CCc1nc(-c2ccccc2)c[nH]1 (3D coordinates assigned)
CCc1nc(-c2ccccc2)c[nH]1 (optimized conformer: 51.13563608686742 kcal/mol)

>  <smiles>  (26) 
CCc1nc(-c2ccccc2)c[nH]1

>  <score_type>  (26) 
oracle

>  <origin>  (26) 
adg

>  <m_score__min__energy>  (26) 
-5.54

>  <m_primary>  (26) 
energy

$$$$
26:0
     RDKit          3D

 32 33  0  0  0  0  0  0  0  0999 V2000
   58.1420   27.5200   43.4690 C   0  0  0  0  0  0  0  0  0  0  0  0
   58.0570   27.8920   44.8410 O   0  0  0  0  0  0  0  0  0  0  0  0
   58.4940   29.1210   45.3610 C   0  0  0  0  0  0  0  0  0  0  0  0
   59.7950   29.2980   45.8630 C   0  0  0  0  0  0  0  0  0  0  0  0
   60.1980   30.5340   46.3730 C   0  0  0  0  0  0  0  0  0  0  0  0
   61.4570   30.6740   46.8630 N   0  0  0  0  0  0  0  0  0  0  0  0
   61.9070   31.8470   47.3780 C   0  0  0  0  0  0  0  0  0  0  0  0
   63.3010   31.9400   47.9110 C   0  0  0  0  0  0  0  0  0  0  0  0
   61.0620   32.9600   47.4140 C   0  0  0  0  0  0  0  0  0  0  0  0
   59.7540   32.8720   46.9090 C   0  0  0  0  0  0  0  0  0  0  0  0
   58.8760   34.1010   46.9700 C   0  0  0  0  0  0  0  0  0  0  0  0
   59.0960   34.9430   45.7890 C   0  0  0  0  0  0  0  0  0  0  0  0
   59.2680   35.6060   44.8570 N   0  0  0  0  0  0  0  0  0  0  0  0
   59.3020   31.6300   46.3870 C   0  0  0  0  0  0  0  0  0  0  0  0
   57.9970   31.4440   45.8860 C   0  0  0  0  0  0  0  0  0  0  0  0
   57.5930   30.1950   45.3750 C   0  0  0  0  0  0  0  0  0  0  0  0
   56.3000   29.9800   44.8710 O   0  0  0  0  0  0  0  0  0  0  0  0
   55.9370   30.0910   43.4970 C   0  0  0  0  0  0  0  0  0  0  0  0
   58.3864   26.4502   43.3936 H   0  0  0  0  0  0  0  0  0  0  0  0
   57.1770   27.7112   42.9768 H   0  0  0  0  0  0  0  0  0  0  0  0
   58.9282   28.1113   42.9768 H   0  0  0  0  0  0  0  0  0  0  0  0
   60.5020   28.4553   45.8540 H   0  0  0  0  0  0  0  0  0  0  0  0
   63.2740   31.9382   49.0107 H   0  0  0  0  0  0  0  0  0  0  0  0
   63.8870   31.0790   47.5572 H   0  0  0  0  0  0  0  0  0  0  0  0
   63.7675   32.8713   47.5572 H   0  0  0  0  0  0  0  0  0  0  0  0
   61.4226   33.9082   47.8393 H   0  0  0  0  0  0  0  0  0  0  0  0
   57.8209   33.7919   47.0038 H   0  0  0  0  0  0  0  0  0  0  0  0
   59.1290   34.6771   47.8723 H   0  0  0  0  0  0  0  0  0  0  0  0
   57.2865   32.2837   45.8943 H   0  0  0  0  0  0  0  0  0  0  0  0
   54.8877   30.4119   43.4197 H   0  0  0  0  0  0  0  0  0  0  0  0
   56.5842   30.8323   43.0055 H   0  0  0  0  0  0  0  0  0  0  0  0
   56.0590   29.1145   43.0055 H   0  0  0  0  0  0  0  0  0  0  0  0
  1  2  1  0
  2  3  1  0
  3  4  2  0
  4  5  1  0
  5  6  2  0
  6  7  1  0
  7  8  1  0
  7  9  2  0
  9 10  1  0
 10 11  1  0
 11 12  1  0
 12 13  3  0
 10 14  2  0
 14 15  1  0
 15 16  2  0
 16 17  1  0
 17 18  1  0
 16  3  1  0
 14  5  1  0
  1 19  1  0
  1 20  1  0
  1 21  1  0
  4 22  1  0
  8 23  1  0
  8 24  1  0
  8 25  1  0
  9 26  1  0
 11 27  1  0
 11 28  1  0
 15 29  1  0
 18 30  1  0
 18 31  1  0
 18 32  1  0
M  END
>  <UniqueID>  (27) 
23

>  <SMILES>  (27) 
COc1cc2nc(C)cc(CC#N)c2cc1OC

>  <Energy>  (27) 
33.769079533587536

>  <Genealogy>  (27) 
COc1cc2nc(C)cc(CC#N)c2cc1OC (3D coordinates assigned)
COc1cc2nc(C)cc(CC#N)c2cc1OC (optimized conformer: 33.769079533587536 kcal/mol)

>  <smiles>  (27) 
COc1cc2nc(C)cc(CC#N)c2cc1OC

>  <score_type>  (27) 
oracle

>  <origin>  (27) 
adg

>  <m_score__min__energy>  (27) 
-5.5899999999999999

>  <m_primary>  (27) 
energy

$$$$
27:0
     RDKit          3D

 25 27  0  0  0  0  0  0  0  0999 V2000
   56.7010   26.9000   45.7350 C   0  0  0  0  0  0  0  0  0  0  0  0
   56.6470   28.3470   45.3740 C   0  0  0  0  0  0  0  0  0  0  0  0
   55.5570   28.9640   44.8690 N   0  0  0  0  0  0  0  0  0  0  0  0
   55.8080   30.2650   44.7800 N   0  0  0  0  0  0  0  0  0  0  0  0
   57.0590   30.4700   45.2340 C   0  0  0  0  0  0  0  0  0  0  0  0
   57.6250   29.2880   45.6100 C   0  0  0  0  0  0  0  0  0  0  0  0
   58.9220   29.2010   46.3550 C   0  0  0  0  0  0  0  0  0  0  0  0
   59.8340   30.4000   45.9990 C   0  0  0  0  0  0  0  0  0  0  0  0
   59.0870   31.7230   45.8670 C   0  0  0  0  0  0  0  0  0  0  0  0
   59.7670   32.9350   46.0680 C   0  0  0  0  0  0  0  0  0  0  0  0
   59.1140   34.1530   45.8560 C   0  0  0  0  0  0  0  0  0  0  0  0
   57.7850   34.1740   45.4240 C   0  0  0  0  0  0  0  0  0  0  0  0
   57.0990   32.9760   45.2030 C   0  0  0  0  0  0  0  0  0  0  0  0
   57.7460   31.7520   45.4180 C   0  0  0  0  0  0  0  0  0  0  0  0
   56.7049   26.7952   46.8300 H   0  0  0  0  0  0  0  0  0  0  0  0
   55.8214   26.3856   45.3206 H   0  0  0  0  0  0  0  0  0  0  0  0
   57.6165   26.4526   45.3206 H   0  0  0  0  0  0  0  0  0  0  0  0
   58.7195   29.2089   47.4362 H   0  0  0  0  0  0  0  0  0  0  0  0
   59.4331   28.2691   46.0713 H   0  0  0  0  0  0  0  0  0  0  0  0
   60.5913   30.5066   46.7897 H   0  0  0  0  0  0  0  0  0  0  0  0
   60.2790   30.1837   45.0166 H   0  0  0  0  0  0  0  0  0  0  0  0
   60.8177   32.9262   46.3936 H   0  0  0  0  0  0  0  0  0  0  0  0
   59.6484   35.0986   46.0299 H   0  0  0  0  0  0  0  0  0  0  0  0
   57.2774   35.1356   45.2574 H   0  0  0  0  0  0  0  0  0  0  0  0
   56.0536   32.9944   44.8611 H   0  0  0  0  0  0  0  0  0  0  0  0
  1  2  1  0
  2  3  1  0
  3  4  1  0
  4  5  2  0
  5  6  1  0
  6  7  1  0
  7  8  1  0
  8  9  1  0
  9 10  2  0
 10 11  1  0
 11 12  2  0
 12 13  1  0
 13 14  2  0
  6  2  2  0
 14  9  1  0
 14  5  1  0
  1 15  1  0
  1 16  1  0
  1 17  1  0
  7 18  1  0
  7 19  1  0
  8 20  1  0
  8 21  1  0
 10 22  1  0
 11 23  1  0
 12 24  1  0
 13 25  1  0
M  CHG  1   3  -1
M  END
>  <UniqueID>  (28) 
24

>  <SMILES>  (28) 
Cc1[n-]nc2c1CCc1ccccc1-2

>  <Energy>  (28) 
61.679601316807016

>  <Genealogy>  (28) 
Cc1[n-]nc2c1CCc1ccccc1-2 (protonated)
Cc1[n-]nc2c1CCc1ccccc1-2 (3D coordinates assigned)
Cc1[n-]nc2c1CCc1ccccc1-2 (nonaromatic ring conformer: 61.679601316807016 kcal/mol)

>  <smiles>  (28) 
Cc1[nH]nc2c1CCc1ccccc1-2

>  <score_type>  (28) 
oracle

>  <origin>  (28) 
adg

>  <m_score__min__energy>  (28) 
-8.4900000000000002

>  <m_primary>  (28) 
energy

$$$$
28:0
     RDKit          3D

 53 55  0  0  0  0  0  0  0  0999 V2000
   54.8490   24.1790   45.4060 C   0  0  0  0  0  0  0  0  0  0  0  0
   55.1430   25.2110   46.3440 O   0  0  0  0  0  0  0  0  0  0  0  0
   56.3320   25.9590   46.3510 C   0  0  0  0  0  0  0  0  0  0  0  0
   57.4230   25.4600   47.0720 C   0  0  0  0  0  0  0  0  0  0  0  0
   58.6420   26.1400   47.0780 C   0  0  0  0  0  0  0  0  0  0  0  0
   58.7870   27.3390   46.3620 C   0  0  0  0  0  0  0  0  0  0  0  0
   60.1370   28.0200   46.2660 C   0  0  2  0  0  0  0  0  0  0  0  0
   60.2980   29.0480   47.4100 C   0  0  0  0  0  0  0  0  0  0  0  0
   60.3380   30.4180   46.8910 N   0  0  0  0  0  0  0  0  0  0  0  0
   59.4160   31.4280   47.3300 C   0  0  0  0  0  0  0  0  0  0  0  0
   58.8120   31.2800   48.4270 O   0  0  0  0  0  0  0  0  0  0  0  0
   59.1400   32.6230   46.4870 C   0  0  0  0  0  0  0  0  0  0  0  0
   57.9470   32.6870   45.7390 C   0  0  0  0  0  0  0  0  0  0  0  0
   57.6460   33.8160   44.9740 C   0  0  0  0  0  0  0  0  0  0  0  0
   58.5250   34.8970   44.9410 C   0  0  0  0  0  0  0  0  0  0  0  0
   59.7080   34.8530   45.6760 C   0  0  0  0  0  0  0  0  0  0  0  0
   60.0260   33.7280   46.4510 C   0  0  0  0  0  0  0  0  0  0  0  0
   61.2720   33.7020   47.1620 N   0  0  0  0  0  0  0  0  0  0  0  0
   61.2930   34.0920   48.5740 C   0  0  0  0  0  0  0  0  0  0  0  0
   62.5410   33.5130   49.2470 C   0  0  0  0  0  0  0  0  0  0  0  0
   63.7080   33.8530   48.5170 O   0  0  0  0  0  0  0  0  0  0  0  0
   63.6760   33.2280   47.2450 C   0  0  0  0  0  0  0  0  0  0  0  0
   62.5220   33.7740   46.3990 C   0  0  0  0  0  0  0  0  0  0  0  0
   60.2280   28.6780   45.0110 O   0  0  0  0  0  0  0  0  0  0  0  0
   61.5470   28.6230   44.5090 C   0  0  0  0  0  0  0  0  0  0  0  0
   57.6820   27.8530   45.6580 C   0  0  0  0  0  0  0  0  0  0  0  0
   56.4640   27.1740   45.6540 C   0  0  0  0  0  0  0  0  0  0  0  0
   54.5864   23.2571   45.9455 H   0  0  0  0  0  0  0  0  0  0  0  0
   54.0031   24.4878   44.7743 H   0  0  0  0  0  0  0  0  0  0  0  0
   55.7306   23.9956   44.7743 H   0  0  0  0  0  0  0  0  0  0  0  0
   57.3188   24.5233   47.6392 H   0  0  0  0  0  0  0  0  0  0  0  0
   59.4925   25.7349   47.6460 H   0  0  0  0  0  0  0  0  0  0  0  0
   60.9363   27.2696   46.3552 H   0  0  0  0  0  0  0  0  0  0  0  0
   59.4480   28.9511   48.1014 H   0  0  0  0  0  0  0  0  0  0  0  0
   61.2462   28.8449   47.9293 H   0  0  0  0  0  0  0  0  0  0  0  0
   61.0590   30.6530   46.1720 H   0  0  0  0  0  0  0  0  0  0  0  0
   57.2462   31.8394   45.7580 H   0  0  0  0  0  0  0  0  0  0  0  0
   56.7113   33.8522   44.3951 H   0  0  0  0  0  0  0  0  0  0  0  0
   58.2853   35.7836   44.3357 H   0  0  0  0  0  0  0  0  0  0  0  0
   60.3989   35.7085   45.6482 H   0  0  0  0  0  0  0  0  0  0  0  0
   61.3111   35.1892   48.6508 H   0  0  0  0  0  0  0  0  0  0  0  0
   60.3938   33.7033   49.0744 H   0  0  0  0  0  0  0  0  0  0  0  0
   62.6221   33.9180   50.2665 H   0  0  0  0  0  0  0  0  0  0  0  0
   62.4499   32.4172   49.2775 H   0  0  0  0  0  0  0  0  0  0  0  0
   64.6263   33.4197   46.7251 H   0  0  0  0  0  0  0  0  0  0  0  0
   63.5281   32.1473   47.3871 H   0  0  0  0  0  0  0  0  0  0  0  0
   62.7278   34.8212   46.1324 H   0  0  0  0  0  0  0  0  0  0  0  0
   62.4250   33.1717   45.4836 H   0  0  0  0  0  0  0  0  0  0  0  0
   62.2577   28.5934   45.3480 H   0  0  0  0  0  0  0  0  0  0  0  0
   61.6679   27.7190   43.8940 H   0  0  0  0  0  0  0  0  0  0  0  0
   61.7427   29.5138   43.8940 H   0  0  0  0  0  0  0  0  0  0  0  0
   57.7801   28.7992   45.1057 H   0  0  0  0  0  0  0  0  0  0  0  0
   55.6055   27.5887   45.1053 H   0  0  0  0  0  0  0  0  0  0  0  0
  1  2  1  0
  2  3  1  0
  3  4  2  0
  4  5  1  0
  5  6  2  0
  6  7  1  0
  7  8  1  0
  8  9  1  0
  9 10  1  0
 10 11  2  0
 10 12  1  0
 12 13  2  0
 13 14  1  0
 14 15  2  0
 15 16  1  0
 16 17  2  0
 17 18  1  0
 18 19  1  0
 19 20  1  0
 20 21  1  0
 21 22  1  0
 22 23  1  0
  7 24  1  0
 24 25  1  0
  6 26  1  0
 26 27  2  0
 27  3  1  0
 17 12  1  0
 23 18  1  0
  1 28  1  0
  1 29  1  0
  1 30  1  0
  4 31  1  0
  5 32  1  0
  7 33  1  6
  8 34  1  0
  8 35  1  0
  9 36  1  0
 13 37  1  0
 14 38  1  0
 15 39  1  0
 16 40  1  0
 19 41  1  0
 19 42  1  0
 20 43  1  0
 20 44  1  0
 22 45  1  0
 22 46  1  0
 23 47  1  0
 23 48  1  0
 25 49  1  0
 25 50  1  0
 25 51  1  0
 26 52  1  0
 27 53  1  0
M  END
>  <UniqueID>  (29) 
25

>  <SMILES>  (29) 
COc1ccc([C@H](CNC(=O)c2ccccc2N2CCOCC2)OC)cc1

>  <Energy>  (29) 
61.05500552619031

>  <Genealogy>  (29) 
COc1ccc([C@H](CNC(=O)c2ccccc2N2CCOCC2)OC)cc1 (chirality)
COc1ccc([C@H](CNC(=O)c2ccccc2N2CCOCC2)OC)cc1 (3D coordinates assigned)
COc1ccc([C@H](CNC(=O)c2ccccc2N2CCOCC2)OC)cc1 (nonaromatic ring conformer: 61.05500552619031 kcal/mol)

>  <smiles>  (29) 
COc1ccc(C(CNC(=O)c2ccccc2N2CCOCC2)OC)cc1

>  <score_type>  (29) 
oracle

>  <origin>  (29) 
adg

>  <m_score__min__energy>  (29) 
-7.7000000000000002

>  <m_primary>  (29) 
energy

$$$$
29:0
     RDKit          3D

 46 48  0  0  0  0  0  0  0  0999 V2000
   56.9990   21.7120   43.1480 C   0  0  0  0  0  0  0  0  0  0  0  0
   56.0070   22.8710   43.2300 C   0  0  0  0  0  0  0  0  0  0  0  0
   55.4190   23.0390   44.6360 C   0  0  0  0  0  0  0  0  0  0  0  0
   55.6190   24.4270   45.1600 C   0  0  0  0  0  0  0  0  0  0  0  0
   54.6300   25.1850   45.6710 N   0  0  0  0  0  0  0  0  0  0  0  0
   55.1750   26.3440   45.9970 N   0  0  0  0  0  0  0  0  0  0  0  0
   56.4780   26.2620   45.6720 C   0  0  0  0  0  0  0  0  0  0  0  0
   57.4580   27.3840   45.8690 C   0  0  1  0  0  0  0  0  0  0  0  0
   58.8220   27.0350   45.2420 C   0  0  0  0  0  0  0  0  0  0  0  0
   59.8060   28.2270   45.2040 C   0  0  0  0  0  0  0  0  0  0  0  0
   59.2460   29.5050   45.8430 C   0  0  0  0  0  0  0  0  0  0  0  0
   57.8930   29.7810   45.3320 N   0  0  0  0  0  0  0  0  0  0  0  0
   57.5210   31.1270   44.9650 C   0  0  0  0  0  0  0  0  0  0  0  0
   56.3620   31.3520   44.5160 O   0  0  0  0  0  0  0  0  0  0  0  0
   58.4690   32.2890   45.1890 C   0  0  0  0  0  0  0  0  0  0  0  0
   58.2970   33.4420   44.2030 C   0  0  0  0  0  0  0  0  0  0  0  0
   58.8800   34.6480   44.9220 C   0  0  0  0  0  0  0  0  0  0  0  0
   58.6710   34.3920   46.4130 C   0  0  0  0  0  0  0  0  0  0  0  0
   58.2720   32.9250   46.5630 C   0  0  0  0  0  0  0  0  0  0  0  0
   56.9030   28.6930   45.2800 C   0  0  0  0  0  0  0  0  0  0  0  0
   56.8020   25.0680   45.1320 N   0  0  0  0  0  0  0  0  0  0  0  0
   57.2733   21.3916   44.1639 H   0  0  0  0  0  0  0  0  0  0  0  0
   56.5366   20.8710   42.6105 H   0  0  0  0  0  0  0  0  0  0  0  0
   57.9013   22.0390   42.6105 H   0  0  0  0  0  0  0  0  0  0  0  0
   56.5254   23.8001   42.9506 H   0  0  0  0  0  0  0  0  0  0  0  0
   55.1764   22.6506   42.5433 H   0  0  0  0  0  0  0  0  0  0  0  0
   54.3408   22.8243   44.5990 H   0  0  0  0  0  0  0  0  0  0  0  0
   55.9382   22.3412   45.3094 H   0  0  0  0  0  0  0  0  0  0  0  0
   57.6079   27.5278   46.9492 H   0  0  0  0  0  0  0  0  0  0  0  0
   59.2786   26.2252   45.8300 H   0  0  0  0  0  0  0  0  0  0  0  0
   58.6328   26.7381   44.1999 H   0  0  0  0  0  0  0  0  0  0  0  0
   60.7209   27.9403   45.7433 H   0  0  0  0  0  0  0  0  0  0  0  0
   59.9989   28.4531   44.1449 H   0  0  0  0  0  0  0  0  0  0  0  0
   59.2024   29.3759   46.9345 H   0  0  0  0  0  0  0  0  0  0  0  0
   59.9035   30.3496   45.5895 H   0  0  0  0  0  0  0  0  0  0  0  0
   59.4593   31.8259   45.0675 H   0  0  0  0  0  0  0  0  0  0  0  0
   58.8462   33.2419   43.2712 H   0  0  0  0  0  0  0  0  0  0  0  0
   57.2459   33.5938   43.9162 H   0  0  0  0  0  0  0  0  0  0  0  0
   59.9525   34.7449   44.6977 H   0  0  0  0  0  0  0  0  0  0  0  0
   58.3938   35.5813   44.6018 H   0  0  0  0  0  0  0  0  0  0  0  0
   59.6025   34.5883   46.9642 H   0  0  0  0  0  0  0  0  0  0  0  0
   57.8922   35.0540   46.8194 H   0  0  0  0  0  0  0  0  0  0  0  0
   58.9120   32.4297   47.3081 H   0  0  0  0  0  0  0  0  0  0  0  0
   57.2317   32.8249   46.9063 H   0  0  0  0  0  0  0  0  0  0  0  0
   56.0143   28.9930   45.8547 H   0  0  0  0  0  0  0  0  0  0  0  0
   56.6502   28.5120   44.2248 H   0  0  0  0  0  0  0  0  0  0  0  0
  1  2  1  0
  2  3  1  0
  3  4  1  0
  4  5  2  0
  5  6  1  0
  6  7  1  0
  7  8  1  0
  8  9  1  0
  9 10  1  0
 10 11  1  0
 11 12  1  0
 12 13  1  0
 13 14  2  0
 13 15  1  0
 15 16  1  0
 16 17  1  0
 17 18  1  0
 18 19  1  0
 12 20  1  0
  7 21  2  0
 21  4  1  0
 20  8  1  0
 19 15  1  0
  1 22  1  0
  1 23  1  0
  1 24  1  0
  2 25  1  0
  2 26  1  0
  3 27  1  0
  3 28  1  0
  8 29  1  1
  9 30  1  0
  9 31  1  0
 10 32  1  0
 10 33  1  0
 11 34  1  0
 11 35  1  0
 15 36  1  0
 16 37  1  0
 16 38  1  0
 17 39  1  0
 17 40  1  0
 18 41  1  0
 18 42  1  0
 19 43  1  0
 19 44  1  0
 20 45  1  0
 20 46  1  0
M  CHG  1   6  -1
M  END
>  <UniqueID>  (30) 
26

>  <SMILES>  (30) 
CCCc1n[n-]c([C@H]2CCCN(C(=O)C3CCCC3)C2)n1

>  <Energy>  (30) 
74.20888552179063

>  <Genealogy>  (30) 
CCCc1n[n-]c(C2CCCN(C(=O)C3CCCC3)C2)n1 (protonated)
CCCc1n[n-]c([C@H]2CCCN(C(=O)C3CCCC3)C2)n1 (chirality)
CCCc1n[n-]c([C@H]2CCCN(C(=O)C3CCCC3)C2)n1 (3D coordinates assigned)
CCCc1n[n-]c([C@H]2CCCN(C(=O)C3CCCC3)C2)n1 (nonaromatic ring conformer: 74.20888552179063 kcal/mol)

>  <smiles>  (30) 
CCCc1n[nH]c(C2CCCN(C(=O)C3CCCC3)C2)n1

>  <score_type>  (30) 
oracle

>  <origin>  (30) 
adg

>  <m_score__min__energy>  (30) 
-10.49

>  <m_primary>  (30) 
energy

$$$$
30:0
     RDKit          3D

 27 26  0  0  0  0  0  0  0  0999 V2000
   58.4420   33.4550   47.4310 C   0  0  0  0  0  0  0  0  0  0  0  0
   58.5880   34.5800   46.4940 N   0  0  0  0  0  0  0  0  0  0  0  0
   60.0050   34.9720   46.4130 C   0  0  0  0  0  0  0  0  0  0  0  0
   58.0560   34.2130   45.1620 C   0  0  0  0  0  0  0  0  0  0  0  0
   57.0200   33.0810   45.2590 C   0  0  0  0  0  0  0  0  0  0  0  0
   57.4110   31.8400   44.4390 C   0  0  0  0  0  0  0  0  0  0  0  0
   56.6600   30.6400   44.8730 N   0  0  0  0  0  0  0  0  0  0  0  0
   55.8820   30.0680   43.7610 C   0  0  0  0  0  0  0  0  0  0  0  0
   57.5820   29.6220   45.4020 C   0  0  0  0  0  0  0  0  0  0  0  0
   58.4906   33.8296   48.4641 H   0  0  0  0  0  0  0  0  0  0  0  0
   57.4724   32.9628   47.2647 H   0  0  0  0  0  0  0  0  0  0  0  0
   59.2538   32.7316   47.2647 H   0  0  0  0  0  0  0  0  0  0  0  0
   60.4128   35.0848   47.4283 H   0  0  0  0  0  0  0  0  0  0  0  0
   60.5698   34.1964   45.8751 H   0  0  0  0  0  0  0  0  0  0  0  0
   60.0909   35.9276   45.8751 H   0  0  0  0  0  0  0  0  0  0  0  0
   57.5787   35.0962   44.7124 H   0  0  0  0  0  0  0  0  0  0  0  0
   58.8935   33.8609   44.5419 H   0  0  0  0  0  0  0  0  0  0  0  0
   56.9191   32.7870   46.3142 H   0  0  0  0  0  0  0  0  0  0  0  0
   56.0739   33.4633   44.8483 H   0  0  0  0  0  0  0  0  0  0  0  0
   57.1953   32.0313   43.3774 H   0  0  0  0  0  0  0  0  0  0  0  0
   58.4831   31.6492   44.5944 H   0  0  0  0  0  0  0  0  0  0  0  0
   55.0574   29.4618   44.1641 H   0  0  0  0  0  0  0  0  0  0  0  0
   55.4717   30.8811   43.1442 H   0  0  0  0  0  0  0  0  0  0  0  0
   56.5358   29.4339   43.1442 H   0  0  0  0  0  0  0  0  0  0  0  0
   57.5615   29.6447   46.5016 H   0  0  0  0  0  0  0  0  0  0  0  0
   57.2711   28.6273   45.0499 H   0  0  0  0  0  0  0  0  0  0  0  0
   58.6025   29.8332   45.0499 H   0  0  0  0  0  0  0  0  0  0  0  0
  1  2  1  0
  2  3  1  0
  2  4  1  0
  4  5  1  0
  5  6  1  0
  6  7  1  0
  7  8  1  0
  7  9  1  0
  1 10  1  0
  1 11  1  0
  1 12  1  0
  3 13  1  0
  3 14  1  0
  3 15  1  0
  4 16  1  0
  4 17  1  0
  5 18  1  0
  5 19  1  0
  6 20  1  0
  6 21  1  0
  8 22  1  0
  8 23  1  0
  8 24  1  0
  9 25  1  0
  9 26  1  0
  9 27  1  0
M  END
>  <UniqueID>  (31) 
27

>  <SMILES>  (31) 
CN(C)CCCN(C)C

>  <Energy>  (31) 
19.902751034470473

>  <Genealogy>  (31) 
CN(C)CCCN(C)C (3D coordinates assigned)
CN(C)CCCN(C)C (optimized conformer: 19.902751034470473 kcal/mol)

>  <smiles>  (31) 
CN(C)CCCN(C)C

>  <score_type>  (31) 
oracle

>  <origin>  (31) 
adg

>  <m_score__min__energy>  (31) 
-3.75

>  <m_primary>  (31) 
energy

$$$$
31:0
     RDKit          3D

 28 29  0  0  0  0  0  0  0  0999 V2000
   57.4060   32.1560   41.5100 C   0  0  0  0  0  0  0  0  0  0  0  0
   57.6920   31.6180   42.6970 C   0  0  0  0  0  0  0  0  0  0  0  0
   56.6670   30.8360   43.4690 C   0  0  0  0  0  0  0  0  0  0  0  0
   56.7320   31.1460   44.8610 O   0  0  0  0  0  0  0  0  0  0  0  0
   57.8420   31.7040   45.5170 C   0  0  0  0  0  0  0  0  0  0  0  0
   57.9610   33.0830   45.7720 C   0  0  0  0  0  0  0  0  0  0  0  0
   59.0890   33.5860   46.4270 C   0  0  0  0  0  0  0  0  0  0  0  0
   60.1190   32.7230   46.8430 C   0  0  0  0  0  0  0  0  0  0  0  0
   61.2830   33.2410   47.5190 N   0  0  0  0  0  0  0  0  0  0  0  0
   61.3070   33.8650   48.7170 C   0  0  0  0  0  0  0  0  0  0  0  0
   62.6020   34.2190   49.0390 C   0  0  0  0  0  0  0  0  0  0  0  0
   63.3980   33.7910   47.9950 C   0  0  0  0  0  0  0  0  0  0  0  0
   62.5580   33.1960   47.0770 C   0  0  0  0  0  0  0  0  0  0  0  0
   59.9920   31.3460   46.5880 C   0  0  0  0  0  0  0  0  0  0  0  0
   58.8650   30.8450   45.9320 C   0  0  0  0  0  0  0  0  0  0  0  0
   58.1737   32.7242   40.9643 H   0  0  0  0  0  0  0  0  0  0  0  0
   56.4025   32.0314   41.0771 H   0  0  0  0  0  0  0  0  0  0  0  0
   58.6991   31.7496   43.1193 H   0  0  0  0  0  0  0  0  0  0  0  0
   55.6644   31.0849   43.0910 H   0  0  0  0  0  0  0  0  0  0  0  0
   56.8716   29.7632   43.3380 H   0  0  0  0  0  0  0  0  0  0  0  0
   57.1619   33.7689   45.4541 H   0  0  0  0  0  0  0  0  0  0  0  0
   59.1718   34.6660   46.6187 H   0  0  0  0  0  0  0  0  0  0  0  0
   60.4247   34.0620   49.3436 H   0  0  0  0  0  0  0  0  0  0  0  0
   62.9346   34.7399   49.9490 H   0  0  0  0  0  0  0  0  0  0  0  0
   64.4891   33.9028   47.9117 H   0  0  0  0  0  0  0  0  0  0  0  0
   62.8797   32.7501   46.1243 H   0  0  0  0  0  0  0  0  0  0  0  0
   60.7875   30.6569   46.9080 H   0  0  0  0  0  0  0  0  0  0  0  0
   58.7813   29.7651   45.7400 H   0  0  0  0  0  0  0  0  0  0  0  0
  1  2  2  0
  2  3  1  0
  3  4  1  0
  4  5  1  0
  5  6  2  0
  6  7  1  0
  7  8  2  0
  8  9  1  0
  9 10  1  0
 10 11  2  0
 11 12  1  0
 12 13  2  0
  8 14  1  0
 14 15  2  0
 15  5  1  0
 13  9  1  0
  1 16  1  0
  1 17  1  0
  2 18  1  0
  3 19  1  0
  3 20  1  0
  6 21  1  0
  7 22  1  0
 10 23  1  0
 11 24  1  0
 12 25  1  0
 13 26  1  0
 14 27  1  0
 15 28  1  0
M  END
>  <UniqueID>  (32) 
28

>  <SMILES>  (32) 
C=CCOc1ccc(-n2cccc2)cc1

>  <Energy>  (32) 
54.62793276394652

>  <Genealogy>  (32) 
C=CCOc1ccc(-n2cccc2)cc1 (3D coordinates assigned)
C=CCOc1ccc(-n2cccc2)cc1 (optimized conformer: 54.62793276394652 kcal/mol)

>  <smiles>  (32) 
C=CCOc1ccc(-n2cccc2)cc1

>  <score_type>  (32) 
oracle

>  <origin>  (32) 
adg

>  <m_score__min__energy>  (32) 
-5.3899999999999997

>  <m_primary>  (32) 
energy

$$$$
32:0
     RDKit          3D

 50 54  0  0  0  0  0  0  0  0999 V2000
   57.3970   32.6540   40.3720 C   0  0  0  0  0  0  0  0  0  0  0  0
   57.3710   32.0030   41.7130 C   0  0  0  0  0  0  0  0  0  0  0  0
   57.9060   32.5220   42.8700 C   0  0  0  0  0  0  0  0  0  0  0  0
   57.6100   31.6800   43.8760 N   0  0  0  0  0  0  0  0  0  0  0  0
   57.9810   31.8520   45.2550 C   0  0  0  0  0  0  0  0  0  0  0  0
   58.7370   30.8650   45.9070 C   0  0  0  0  0  0  0  0  0  0  0  0
   59.1170   31.0310   47.2420 C   0  0  0  0  0  0  0  0  0  0  0  0
   58.7690   32.1980   47.9380 C   0  0  0  0  0  0  0  0  0  0  0  0
   59.1740   32.3580   49.3530 C   0  0  0  0  0  0  0  0  0  0  0  0
   58.2330   32.1540   50.3150 N   0  0  0  0  0  0  0  0  0  0  0  0
   58.5060   32.3320   51.6310 C   0  0  0  0  0  0  0  0  0  0  0  0
   57.5150   32.1160   52.5960 C   0  0  0  0  0  0  0  0  0  0  0  0
   57.8050   32.3120   53.9490 C   0  0  0  0  0  0  0  0  0  0  0  0
   59.0830   32.7240   54.3420 C   0  0  0  0  0  0  0  0  0  0  0  0
   60.0770   32.9410   53.3820 C   0  0  0  0  0  0  0  0  0  0  0  0
   59.7940   32.7480   52.0210 C   0  0  0  0  0  0  0  0  0  0  0  0
   60.7470   32.9430   51.0680 N   0  0  0  0  0  0  0  0  0  0  0  0
   60.4830   32.7430   49.7430 C   0  0  0  0  0  0  0  0  0  0  0  0
   61.5870   32.8880   48.7640 C   0  0  0  0  0  0  0  0  0  0  0  0
   62.8120   32.2270   48.9600 C   0  0  0  0  0  0  0  0  0  0  0  0
   63.8480   32.3700   48.0310 C   0  0  0  0  0  0  0  0  0  0  0  0
   63.6730   33.1820   46.9070 C   0  0  0  0  0  0  0  0  0  0  0  0
   62.4630   33.8550   46.7130 C   0  0  0  0  0  0  0  0  0  0  0  0
   61.4250   33.7130   47.6380 C   0  0  0  0  0  0  0  0  0  0  0  0
   58.0060   33.1820   47.2890 C   0  0  0  0  0  0  0  0  0  0  0  0
   57.6270   33.0160   45.9540 C   0  0  0  0  0  0  0  0  0  0  0  0
   56.9130   30.6680   43.3030 C   0  0  0  0  0  0  0  0  0  0  0  0
   56.3890   29.4660   44.0270 C   0  0  0  0  0  0  0  0  0  0  0  0
   56.7330   30.8450   41.9760 N   0  0  0  0  0  0  0  0  0  0  0  0
   57.4406   33.7462   40.4954 H   0  0  0  0  0  0  0  0  0  0  0  0
   58.2822   32.3122   39.8156 H   0  0  0  0  0  0  0  0  0  0  0  0
   56.4874   32.3839   39.8156 H   0  0  0  0  0  0  0  0  0  0  0  0
   58.4749   33.4595   42.9565 H   0  0  0  0  0  0  0  0  0  0  0  0
   59.0323   29.9551   45.3639 H   0  0  0  0  0  0  0  0  0  0  0  0
   59.6919   30.2423   47.7493 H   0  0  0  0  0  0  0  0  0  0  0  0
   56.5093   31.7924   52.2896 H   0  0  0  0  0  0  0  0  0  0  0  0
   57.0263   32.1419   54.7071 H   0  0  0  0  0  0  0  0  0  0  0  0
   59.3066   32.8776   55.4080 H   0  0  0  0  0  0  0  0  0  0  0  0
   61.0814   33.2632   53.6941 H   0  0  0  0  0  0  0  0  0  0  0  0
   61.7110   33.2250   51.3610 H   0  0  0  0  0  0  0  0  0  0  0  0
   62.9566   31.5943   49.8481 H   0  0  0  0  0  0  0  0  0  0  0  0
   64.8011   31.8430   48.1852 H   0  0  0  0  0  0  0  0  0  0  0  0
   64.4870   33.2915   46.1753 H   0  0  0  0  0  0  0  0  0  0  0  0
   62.3277   34.4976   45.8305 H   0  0  0  0  0  0  0  0  0  0  0  0
   60.4771   34.2494   47.4840 H   0  0  0  0  0  0  0  0  0  0  0  0
   57.7049   34.0886   47.8343 H   0  0  0  0  0  0  0  0  0  0  0  0
   57.0477   33.8026   45.4483 H   0  0  0  0  0  0  0  0  0  0  0  0
   56.4611   29.6313   45.1121 H   0  0  0  0  0  0  0  0  0  0  0  0
   55.3373   29.3009   43.7503 H   0  0  0  0  0  0  0  0  0  0  0  0
   56.9839   28.5831   43.7503 H   0  0  0  0  0  0  0  0  0  0  0  0
  1  2  1  0
  2  3  2  0
  3  4  1  0
  4  5  1  0
  5  6  2  0
  6  7  1  0
  7  8  2  0
  8  9  1  0
  9 10  2  0
 10 11  1  0
 11 12  2  0
 12 13  1  0
 13 14  2  0
 14 15  1  0
 15 16  2  0
 16 17  1  0
 17 18  2  0
 18 19  1  0
 19 20  2  0
 20 21  1  0
 21 22  2  0
 22 23  1  0
 23 24  2  0
  8 25  1  0
 25 26  2  0
  4 27  1  0
 27 28  1  0
 27 29  2  0
 29  2  1  0
 26  5  1  0
 18  9  1  0
 24 19  1  0
 16 11  1  0
  1 30  1  0
  1 31  1  0
  1 32  1  0
  3 33  1  0
  6 34  1  0
  7 35  1  0
 12 36  1  0
 13 37  1  0
 14 38  1  0
 15 39  1  0
 17 40  1  0
 20 41  1  0
 21 42  1  0
 22 43  1  0
 23 44  1  0
 24 45  1  0
 25 46  1  0
 26 47  1  0
 28 48  1  0
 28 49  1  0
 28 50  1  0
M  CHG  1  17   1
M  END
>  <UniqueID>  (33) 
29

>  <SMILES>  (33) 
Cc1cn(-c2ccc(-c3nc4ccccc4[nH+]c3-c3ccccc3)cc2)c(C)n1

>  <Energy>  (33) 
104.23690148170135

>  <Genealogy>  (33) 
Cc1cn(-c2ccc(-c3nc4ccccc4[nH+]c3-c3ccccc3)cc2)c(C)n1 (protonated)
Cc1cn(-c2ccc(-c3nc4ccccc4[nH+]c3-c3ccccc3)cc2)c(C)n1 (3D coordinates assigned)
Cc1cn(-c2ccc(-c3nc4ccccc4[nH+]c3-c3ccccc3)cc2)c(C)n1 (optimized conformer: 104.23690148170135 kcal/mol)

>  <smiles>  (33) 
Cc1cn(-c2ccc(-c3nc4ccccc4nc3-c3ccccc3)cc2)c(C)n1

>  <score_type>  (33) 
oracle

>  <origin>  (33) 
adg

>  <m_score__min__energy>  (33) 
-7.8799999999999999

>  <m_primary>  (33) 
energy

$$$$
33:0
     RDKit          3D

 31 33  0  0  0  0  0  0  0  0999 V2000
   58.8851   34.1149   43.5715 H   0  0  0  0  0  0  0  0  0  0  0  0
   58.4640   33.5990   44.4470 C   0  0  0  0  0  0  0  0  0  0  0  0
   58.5340   34.2330   45.6270 C   0  0  0  0  0  0  0  0  0  0  0  0
   57.6775   34.8597   45.9163 H   0  0  0  0  0  0  0  0  0  0  0  0
   59.6680   34.1570   46.5680 C   0  0  0  0  0  0  0  0  0  0  0  0
   59.4690   34.3060   47.9680 C   0  0  0  0  0  0  0  0  0  0  0  0
   58.4602   34.5109   48.3558 H   0  0  0  0  0  0  0  0  0  0  0  0
   60.5490   34.1940   48.8620 C   0  0  0  0  0  0  0  0  0  0  0  0
   60.4083   34.3234   49.9453 H   0  0  0  0  0  0  0  0  0  0  0  0
   61.8040   33.9130   48.3250 C   0  0  0  0  0  0  0  0  0  0  0  0
   61.9970   33.7370   46.9880 C   0  0  0  0  0  0  0  0  0  0  0  0
   63.2880   33.4480   46.7300 N   0  0  0  0  0  0  0  0  0  0  0  0
   63.8570   33.4610   47.9650 C   0  0  0  0  0  0  0  0  0  0  0  0
   64.9236   33.2590   48.1426 H   0  0  0  0  0  0  0  0  0  0  0  0
   62.9770   33.7480   48.9550 N   0  0  0  0  0  0  0  0  0  0  0  0
   63.2420   33.7910   50.3890 C   0  0  0  0  0  0  0  0  0  0  0  0
   62.3024   33.6385   50.9402 H   0  0  0  0  0  0  0  0  0  0  0  0
   63.9556   32.9969   50.6540 H   0  0  0  0  0  0  0  0  0  0  0  0
   63.6679   34.7700   50.6540 H   0  0  0  0  0  0  0  0  0  0  0  0
   60.9520   33.8400   46.0740 C   0  0  0  0  0  0  0  0  0  0  0  0
   61.1216   33.6792   44.9991 H   0  0  0  0  0  0  0  0  0  0  0  0
   57.8690   32.2670   44.2260 C   0  0  0  0  0  0  0  0  0  0  0  0
   57.4020   31.6020   42.7420 S   0  0  0  0  0  0  0  0  0  0  0  0
   57.0070   30.0950   43.3650 C   0  0  0  0  0  0  0  0  0  0  0  0
   56.5140   28.9990   42.5990 N   0  0  0  0  0  0  0  0  0  0  0  0
   56.7830   28.0190   42.8420 H   0  0  0  0  0  0  0  0  0  0  0  0
   55.8770   29.1670   41.7890 H   0  0  0  0  0  0  0  0  0  0  0  0
   57.2530   30.0710   44.7300 C   0  0  0  0  0  0  0  0  0  0  0  0
   57.0760   29.1914   45.3664 H   0  0  0  0  0  0  0  0  0  0  0  0
   57.7510   31.2880   45.2090 C   0  0  0  0  0  0  0  0  0  0  0  0
   58.0232   31.4552   46.2616 H   0  0  0  0  0  0  0  0  0  0  0  0
  1  2  1  0
  2  3  2  0
  3  4  1  0
  3  5  1  0
  5  6  2  0
  6  7  1  0
  6  8  1  0
  8  9  1  0
  8 10  2  0
 10 11  1  0
 11 12  1  0
 12 13  2  0
 13 14  1  0
 13 15  1  0
 15 16  1  0
 16 17  1  0
 16 18  1  0
 16 19  1  0
 11 20  2  0
 20 21  1  0
  2 22  1  0
 22 23  1  0
 23 24  1  0
 24 25  1  0
 25 26  1  0
 25 27  1  0
 24 28  2  0
 28 29  1  0
 28 30  1  0
 30 31  1  0
 20  5  1  0
 30 22  2  0
 15 10  1  0
M  END
>  <UniqueID>  (34) 
30

>  <SMILES>  (34) 
Cn1cnc2cc(/C=C\c3ccc(N)s3)ccc21

>  <Energy>  (34) 
103.68638778660831

>  <Genealogy>  (34) 
Cn1cnc2cc(/C=C\c3ccc(N)s3)ccc21 (cis-trans isomerization)
Cn1cnc2cc(/C=C\c3ccc(N)s3)ccc21 (3D coordinates assigned)
Cn1cnc2cc(/C=C\c3ccc(N)s3)ccc21 (optimized conformer: 103.68638778660831 kcal/mol)

>  <smiles>  (34) 
Cn1cnc2cc(C=Cc3ccc(N)s3)ccc21

>  <score_type>  (34) 
oracle

>  <origin>  (34) 
adg

>  <m_score__min__energy>  (34) 
-7.4699999999999998

>  <m_primary>  (34) 
energy

$$$$
34:0
     RDKit          3D

 56 60  0  0  0  0  0  0  0  0999 V2000
   55.9490   30.7460   52.9870 C   0  0  0  0  0  0  0  0  0  0  0  0
   57.1980   31.4330   52.5230 C   0  0  0  0  0  0  0  0  0  0  0  0
   57.7910   32.4380   53.3200 C   0  0  0  0  0  0  0  0  0  0  0  0
   58.9330   33.1200   52.8560 C   0  0  0  0  0  0  0  0  0  0  0  0
   59.5700   34.2010   53.6820 C   0  0  0  0  0  0  0  0  0  0  0  0
   59.4180   32.7900   51.6260 N   0  0  0  0  0  0  0  0  0  0  0  0
   60.4480   33.3380   50.9960 N   0  0  0  0  0  0  0  0  0  0  0  0
   60.5800   32.7330   49.7930 C   0  0  0  0  0  0  0  0  0  0  0  0
   61.6730   33.0270   48.8390 C   0  0  0  0  0  0  0  0  0  0  0  0
   61.4000   33.5720   47.5740 C   0  0  0  0  0  0  0  0  0  0  0  0
   62.4560   33.8300   46.6930 C   0  0  0  0  0  0  0  0  0  0  0  0
   63.7680   33.5510   47.0810 C   0  0  0  0  0  0  0  0  0  0  0  0
   64.0050   33.0170   48.3480 C   0  0  0  0  0  0  0  0  0  0  0  0
   62.9640   32.7730   49.1910 N   0  0  0  0  0  0  0  0  0  0  0  0
   59.5800   31.7610   49.6590 C   0  0  0  0  0  0  0  0  0  0  0  0
   59.2920   30.8870   48.5050 C   0  0  0  0  0  0  0  0  0  0  0  0
   58.7180   31.4050   47.3370 C   0  0  0  0  0  0  0  0  0  0  0  0
   58.4780   30.5410   46.2520 C   0  0  0  0  0  0  0  0  0  0  0  0
   57.9070   31.0220   45.0070 N   0  0  0  0  0  0  0  0  0  0  0  0
   57.6360   32.4620   44.8260 C   0  0  0  0  0  0  0  0  0  0  0  0
   57.8760   32.9270   43.3720 C   0  0  0  0  0  0  0  0  0  0  0  0
   57.8460   31.8220   42.3850 N   0  0  0  0  0  0  0  0  0  0  0  0
   57.5640   32.3380   41.0370 C   0  0  0  0  0  0  0  0  0  0  0  0
   56.8690   30.7910   42.7640 C   0  0  0  0  0  0  0  0  0  0  0  0
   57.3890   30.0700   44.0060 C   0  0  0  0  0  0  0  0  0  0  0  0
   58.7940   29.2230   46.3890 N   0  0  0  0  0  0  0  0  0  0  0  0
   59.3290   28.7300   47.5360 C   0  0  0  0  0  0  0  0  0  0  0  0
   59.5730   29.5590   48.5820 N   0  0  0  0  0  0  0  0  0  0  0  0
   58.8730   31.8370   50.8500 C   0  0  0  0  0  0  0  0  0  0  0  0
   57.7380   31.1350   51.2580 C   0  0  0  0  0  0  0  0  0  0  0  0
   55.9248   30.7327   54.0867 H   0  0  0  0  0  0  0  0  0  0  0  0
   55.0700   31.2876   52.6074 H   0  0  0  0  0  0  0  0  0  0  0  0
   55.9357   29.7137   52.6074 H   0  0  0  0  0  0  0  0  0  0  0  0
   57.3614   32.6875   54.3015 H   0  0  0  0  0  0  0  0  0  0  0  0
   59.4360   33.9736   54.7499 H   0  0  0  0  0  0  0  0  0  0  0  0
   60.6440   34.2545   53.4505 H   0  0  0  0  0  0  0  0  0  0  0  0
   59.0964   35.1665   53.4505 H   0  0  0  0  0  0  0  0  0  0  0  0
   61.0620   34.0890   51.3850 H   0  0  0  0  0  0  0  0  0  0  0  0
   60.3642   33.7943   47.2780 H   0  0  0  0  0  0  0  0  0  0  0  0
   62.2531   34.2515   45.6974 H   0  0  0  0  0  0  0  0  0  0  0  0
   64.6051   33.7499   46.3956 H   0  0  0  0  0  0  0  0  0  0  0  0
   65.0339   32.7929   48.6662 H   0  0  0  0  0  0  0  0  0  0  0  0
   58.4585   32.4718   47.2686 H   0  0  0  0  0  0  0  0  0  0  0  0
   56.5873   32.6605   45.0921 H   0  0  0  0  0  0  0  0  0  0  0  0
   58.3281   33.0183   45.4752 H   0  0  0  0  0  0  0  0  0  0  0  0
   57.0941   33.6533   43.1053 H   0  0  0  0  0  0  0  0  0  0  0  0
   58.8838   33.3662   43.3352 H   0  0  0  0  0  0  0  0  0  0  0  0
   57.0378   33.3008   41.1156 H   0  0  0  0  0  0  0  0  0  0  0  0
   58.5098   32.4803   40.4936 H   0  0  0  0  0  0  0  0  0  0  0  0
   56.9335   31.6189   40.4936 H   0  0  0  0  0  0  0  0  0  0  0  0
   55.8995   31.2610   42.9855 H   0  0  0  0  0  0  0  0  0  0  0  0
   56.7343   30.0756   41.9394 H   0  0  0  0  0  0  0  0  0  0  0  0
   56.5672   29.4921   44.4541 H   0  0  0  0  0  0  0  0  0  0  0  0
   58.2127   29.4078   43.7010 H   0  0  0  0  0  0  0  0  0  0  0  0
   59.5645   27.6585   47.6169 H   0  0  0  0  0  0  0  0  0  0  0  0
   57.2797   30.3725   50.6110 H   0  0  0  0  0  0  0  0  0  0  0  0
  1  2  1  0
  2  3  1  0
  3  4  2  0
  4  5  1  0
  4  6  1  0
  6  7  1  0
  7  8  2  0
  8  9  1  0
  9 10  2  0
 10 11  1  0
 11 12  2  0
 12 13  1  0
 13 14  2  0
  8 15  1  0
 15 16  1  0
 16 17  2  0
 17 18  1  0
 18 19  1  0
 19 20  1  0
 20 21  1  0
 21 22  1  0
 22 23  1  0
 22 24  1  0
 24 25  1  0
 18 26  2  0
 26 27  1  0
 27 28  2  0
 15 29  2  0
 29 30  1  0
 30  2  2  0
 29  6  1  0
 14  9  1  0
 28 16  1  0
 25 19  1  0
  1 31  1  0
  1 32  1  0
  1 33  1  0
  3 34  1  0
  5 35  1  0
  5 36  1  0
  5 37  1  0
  7 38  1  0
 10 39  1  0
 11 40  1  0
 12 41  1  0
 13 42  1  0
 17 43  1  0
 20 44  1  0
 20 45  1  0
 21 46  1  0
 21 47  1  0
 23 48  1  0
 23 49  1  0
 23 50  1  0
 24 51  1  0
 24 52  1  0
 25 53  1  0
 25 54  1  0
 27 55  1  0
 30 56  1  0
M  CHG  1   7   1
M  END
>  <UniqueID>  (35) 
31

>  <SMILES>  (35) 
Cc1cc(C)n2[nH+]c(-c3ccccn3)c(-c3cc(N4CCN(C)CC4)ncn3)c2c1

>  <Energy>  (35) 
111.43860443554595

>  <Genealogy>  (35) 
Cc1cc(C)n2[nH+]c(-c3ccccn3)c(-c3cc(N4CCN(C)CC4)ncn3)c2c1 (protonated)
Cc1cc(C)n2[nH+]c(-c3ccccn3)c(-c3cc(N4CCN(C)CC4)ncn3)c2c1 (3D coordinates assigned)
Cc1cc(C)n2[nH+]c(-c3ccccn3)c(-c3cc(N4CCN(C)CC4)ncn3)c2c1 (nonaromatic ring conformer: 111.43860443554595 kcal/mol)

>  <smiles>  (35) 
Cc1cc(C)n2nc(-c3ccccn3)c(-c3cc(N4CCN(C)CC4)ncn3)c2c1

>  <score_type>  (35) 
oracle

>  <origin>  (35) 
adg

>  <m_score__min__energy>  (35) 
-7.3899999999999997

>  <m_primary>  (35) 
energy

$$$$
35:0
     RDKit          3D

 35 38  0  0  0  0  0  0  0  0999 V2000
   57.3220   26.6580   46.7820 N   0  0  0  0  0  0  0  0  0  0  0  0
   57.3230   27.6570   46.1910 C   0  0  0  0  0  0  0  0  0  0  0  0
   57.3050   28.8950   45.4500 C   0  0  0  0  0  0  0  0  0  0  0  0
   57.8040   30.0260   45.9830 N   0  0  0  0  0  0  0  0  0  0  0  0
   57.8160   31.2010   45.3470 C   0  0  0  0  0  0  0  0  0  0  0  0
   58.3560   32.3690   45.9560 N   0  0  0  0  0  0  0  0  0  0  0  0
   59.1430   33.4690   45.4300 C   0  0  0  0  0  0  0  0  0  0  0  0
   59.2560   34.0280   46.8090 C   0  0  0  0  0  0  0  0  0  0  0  0
   60.6290   33.9610   47.4230 C   0  0  0  0  0  0  0  0  0  0  0  0
   61.7060   33.6310   46.6100 C   0  0  0  0  0  0  0  0  0  0  0  0
   62.9860   33.5570   47.1240 C   0  0  0  0  0  0  0  0  0  0  0  0
   63.1500   33.8210   48.4760 C   0  0  0  0  0  0  0  0  0  0  0  0
   62.0920   34.1500   49.3030 C   0  0  0  0  0  0  0  0  0  0  0  0
   60.8100   34.2180   48.7540 C   0  0  0  0  0  0  0  0  0  0  0  0
   62.5810   34.3570   50.6040 O   0  0  0  0  0  0  0  0  0  0  0  0
   63.7870   33.5910   50.6370 C   0  0  0  0  0  0  0  0  0  0  0  0
   64.2720   33.8410   49.3270 O   0  0  0  0  0  0  0  0  0  0  0  0
   58.3420   32.9160   47.2930 C   0  0  0  0  0  0  0  0  0  0  0  0
   57.2850   31.2640   44.0640 C   0  0  0  0  0  0  0  0  0  0  0  0
   56.7700   30.1150   43.5050 C   0  0  0  0  0  0  0  0  0  0  0  0
   56.2780   30.1820   42.3080 N   0  0  0  0  0  0  0  0  0  0  0  0
   56.7940   28.9660   44.2100 N   0  0  0  0  0  0  0  0  0  0  0  0
   60.1026   33.1656   44.9860 H   0  0  0  0  0  0  0  0  0  0  0  0
   58.7629   34.0866   44.6029 H   0  0  0  0  0  0  0  0  0  0  0  0
   59.0396   35.0910   46.9914 H   0  0  0  0  0  0  0  0  0  0  0  0
   61.5372   33.4259   45.5426 H   0  0  0  0  0  0  0  0  0  0  0  0
   63.8433   33.2984   46.4851 H   0  0  0  0  0  0  0  0  0  0  0  0
   59.9499   34.4770   49.3889 H   0  0  0  0  0  0  0  0  0  0  0  0
   64.4824   33.9569   51.4068 H   0  0  0  0  0  0  0  0  0  0  0  0
   63.6547   32.5281   50.8877 H   0  0  0  0  0  0  0  0  0  0  0  0
   58.7878   32.2614   48.0564 H   0  0  0  0  0  0  0  0  0  0  0  0
   57.3950   33.1409   47.8054 H   0  0  0  0  0  0  0  0  0  0  0  0
   57.2762   32.2121   43.5063 H   0  0  0  0  0  0  0  0  0  0  0  0
   55.7250   29.4230   41.8700 H   0  0  0  0  0  0  0  0  0  0  0  0
   56.3940   28.1050   43.7550 H   0  0  0  0  0  0  0  0  0  0  0  0
  1  2  3  0
  2  3  1  0
  3  4  2  0
  4  5  1  0
  5  6  1  0
  6  7  1  0
  7  8  1  0
  8  9  1  0
  9 10  2  0
 10 11  1  0
 11 12  2  0
 12 13  1  0
 13 14  2  0
 13 15  1  0
 15 16  1  0
 16 17  1  0
  8 18  1  0
  5 19  2  0
 19 20  1  0
 20 21  2  3
 20 22  1  0
 22  3  1  0
 18  6  1  0
 14  9  1  0
 17 12  1  0
  7 23  1  0
  7 24  1  0
  8 25  1  0
 10 26  1  0
 11 27  1  0
 14 28  1  0
 16 29  1  0
 16 30  1  0
 18 31  1  0
 18 32  1  0
 19 33  1  0
 21 34  1  0
 22 35  1  0
M  END
>  <smiles>  (36) 
N#Cc1nc(N2CC(c3ccc4c(c3)OCO4)C2)cc(=N)[nH]1

>  <score_type>  (36) 
oracle

>  <origin>  (36) 
adg

>  <m_score__min__energy>  (36) 
-7.4000000000000004

>  <m_primary>  (36) 
energy

$$$$
36:0
     RDKit          3D

 36 38  0  0  0  0  0  0  0  0999 V2000
   54.7600   26.2300   45.9690 O   0  0  0  0  0  0  0  0  0  0  0  0
   55.7160   25.4110   45.9400 C   0  0  0  0  0  0  0  0  0  0  0  0
   55.7810   24.3890   44.8440 C   0  0  0  0  0  0  0  0  0  0  0  0
   57.1420   24.4100   44.1390 C   0  0  0  0  0  0  0  0  0  0  0  0
   57.4890   25.7900   43.6700 C   0  0  0  0  0  0  0  0  0  0  0  0
   57.7700   26.1230   42.3990 N   0  0  0  0  0  0  0  0  0  0  0  0
   57.9510   27.4320   42.3630 N   0  0  0  0  0  0  0  0  0  0  0  0
   57.7670   27.8570   43.6300 C   0  0  0  0  0  0  0  0  0  0  0  0
   57.8370   29.2680   44.0580 C   0  0  0  0  0  0  0  0  0  0  0  0
   58.7730   29.6810   45.0200 C   0  0  0  0  0  0  0  0  0  0  0  0
   58.8470   31.0250   45.4020 C   0  0  0  0  0  0  0  0  0  0  0  0
   57.9890   31.9660   44.8250 C   0  0  0  0  0  0  0  0  0  0  0  0
   58.1000   33.8020   45.3390 Br  0  0  0  0  0  0  0  0  0  0  0  0
   57.0560   31.5630   43.8660 C   0  0  0  0  0  0  0  0  0  0  0  0
   56.9790   30.2200   43.4830 C   0  0  0  0  0  0  0  0  0  0  0  0
   57.4890   26.8540   44.4350 O   0  0  0  0  0  0  0  0  0  0  0  0
   56.6750   25.3560   47.0060 N   0  0  0  0  0  0  0  0  0  0  0  0
   57.9580   25.9950   47.0470 C   0  0  0  0  0  0  0  0  0  0  0  0
   58.1370   27.2930   47.5550 C   0  0  0  0  0  0  0  0  0  0  0  0
   59.4120   27.8640   47.5680 C   0  0  0  0  0  0  0  0  0  0  0  0
   60.4930   27.1380   47.0670 C   0  0  0  0  0  0  0  0  0  0  0  0
   60.3000   25.8920   46.5620 N   0  0  0  0  0  0  0  0  0  0  0  0
   59.0680   25.3150   46.5350 C   0  0  0  0  0  0  0  0  0  0  0  0
   55.6170   23.3906   45.2756 H   0  0  0  0  0  0  0  0  0  0  0  0
   55.0037   24.6266   44.1028 H   0  0  0  0  0  0  0  0  0  0  0  0
   57.9151   24.0649   44.8413 H   0  0  0  0  0  0  0  0  0  0  0  0
   57.0901   23.7474   43.2625 H   0  0  0  0  0  0  0  0  0  0  0  0
   57.8250   25.4870   41.5730 H   0  0  0  0  0  0  0  0  0  0  0  0
   59.4512   28.9444   45.4754 H   0  0  0  0  0  0  0  0  0  0  0  0
   59.5813   31.3417   46.1574 H   0  0  0  0  0  0  0  0  0  0  0  0
   56.3810   32.3032   43.4116 H   0  0  0  0  0  0  0  0  0  0  0  0
   56.2428   29.9077   42.7277 H   0  0  0  0  0  0  0  0  0  0  0  0
   57.2757   27.8578   47.9413 H   0  0  0  0  0  0  0  0  0  0  0  0
   59.5623   28.8770   47.9697 H   0  0  0  0  0  0  0  0  0  0  0  0
   61.5023   27.5751   47.0810 H   0  0  0  0  0  0  0  0  0  0  0  0
   58.9443   24.3087   46.1084 H   0  0  0  0  0  0  0  0  0  0  0  0
  1  2  2  0
  2  3  1  0
  3  4  1  0
  4  5  1  0
  5  6  2  0
  6  7  1  0
  7  8  2  0
  8  9  1  0
  9 10  2  0
 10 11  1  0
 11 12  2  0
 12 13  1  0
 12 14  1  0
 14 15  2  0
  8 16  1  0
  2 17  1  0
 17 18  1  0
 18 19  2  0
 19 20  1  0
 20 21  2  0
 21 22  1  0
 22 23  2  0
 16  5  1  0
 23 18  1  0
 15  9  1  0
  3 24  1  0
  3 25  1  0
  4 26  1  0
  4 27  1  0
  6 28  1  0
 10 29  1  0
 11 30  1  0
 14 31  1  0
 15 32  1  0
 19 33  1  0
 20 34  1  0
 21 35  1  0
 23 36  1  0
M  CHG  2   6   1  17  -1
M  END
>  <UniqueID>  (37) 
32

>  <SMILES>  (37) 
O=C(CCc1[nH+]nc(-c2ccc(Br)cc2)o1)[N-]c1cccnc1

>  <Energy>  (37) 
71.84835539809593

>  <Genealogy>  (37) 
O=C(CCc1[nH+]nc(-c2ccc(Br)cc2)o1)[N-]c1cccnc1 (protonated)
O=C(CCc1[nH+]nc(-c2ccc(Br)cc2)o1)[N-]c1cccnc1 (3D coordinates assigned)
O=C(CCc1[nH+]nc(-c2ccc(Br)cc2)o1)[N-]c1cccnc1 (optimized conformer: 71.84835539809593 kcal/mol)

>  <smiles>  (37) 
O=C(CCc1nnc(-c2ccc(Br)cc2)o1)Nc1cccnc1

>  <score_type>  (37) 
oracle

>  <origin>  (37) 
adg

>  <m_score__min__energy>  (37) 
-9.0999999999999996

>  <m_primary>  (37) 
energy

$$$$
37:0
     RDKit          3D

 36 38  0  0  0  0  0  0  0  0999 V2000
   57.5014   34.4894   46.7543 H   0  0  0  0  0  0  0  0  0  0  0  0
   57.8010   33.5180   46.3340 C   0  0  0  0  0  0  0  0  0  0  0  0
   57.8100   33.3280   44.9510 C   0  0  0  0  0  0  0  0  0  0  0  0
   57.5111   34.1487   44.2823 H   0  0  0  0  0  0  0  0  0  0  0  0
   58.1980   32.0970   44.4140 C   0  0  0  0  0  0  0  0  0  0  0  0
   58.1820   31.9470   43.3244 H   0  0  0  0  0  0  0  0  0  0  0  0
   58.6090   31.0480   45.2580 C   0  0  0  0  0  0  0  0  0  0  0  0
   58.9720   29.7090   44.6530 C   0  0  0  0  0  0  0  0  0  0  0  0
   60.0091   29.4709   44.9317 H   0  0  0  0  0  0  0  0  0  0  0  0
   58.8426   29.8004   43.5645 H   0  0  0  0  0  0  0  0  0  0  0  0
   58.0810   28.5770   45.1130 C   0  0  0  0  0  0  0  0  0  0  0  0
   58.7220   27.4020   45.3750 N   0  0  0  0  0  0  0  0  0  0  0  0
   58.0680   26.2750   45.7420 C   0  0  0  0  0  0  0  0  0  0  0  0
   58.7670   25.0920   46.0000 C   0  0  0  0  0  0  0  0  0  0  0  0
   59.8632   25.0684   45.9119 H   0  0  0  0  0  0  0  0  0  0  0  0
   58.0670   23.9370   46.3710 C   0  0  0  0  0  0  0  0  0  0  0  0
   58.6142   23.0054   46.5777 H   0  0  0  0  0  0  0  0  0  0  0  0
   56.6720   23.9670   46.4790 C   0  0  0  0  0  0  0  0  0  0  0  0
   56.1247   23.0580   46.7693 H   0  0  0  0  0  0  0  0  0  0  0  0
   55.9720   25.1490   46.2190 C   0  0  0  0  0  0  0  0  0  0  0  0
   54.8755   25.1711   46.3042 H   0  0  0  0  0  0  0  0  0  0  0  0
   56.6710   26.3040   45.8500 C   0  0  0  0  0  0  0  0  0  0  0  0
   56.0140   27.4610   45.5950 N   0  0  0  0  0  0  0  0  0  0  0  0
   56.6510   28.6090   45.2340 C   0  0  0  0  0  0  0  0  0  0  0  0
   55.8880   29.6520   45.0400 N   0  0  0  0  0  0  0  0  0  0  0  0
   55.5520   30.4100   43.8410 C   0  0  0  0  0  0  0  0  0  0  0  0
   55.8496   31.4606   43.9741 H   0  0  0  0  0  0  0  0  0  0  0  0
   54.4676   30.3602   43.6631 H   0  0  0  0  0  0  0  0  0  0  0  0
   56.2940   29.8170   42.6520 C   0  0  0  0  0  0  0  0  0  0  0  0
   57.1057   29.1683   43.0128 H   0  0  0  0  0  0  0  0  0  0  0  0
   55.5956   29.2254   42.0419 H   0  0  0  0  0  0  0  0  0  0  0  0
   56.7170   30.6287   42.0419 H   0  0  0  0  0  0  0  0  0  0  0  0
   58.5640   31.2410   46.6530 C   0  0  0  0  0  0  0  0  0  0  0  0
   58.8383   30.4170   47.3281 H   0  0  0  0  0  0  0  0  0  0  0  0
   58.1730   32.4730   47.1840 C   0  0  0  0  0  0  0  0  0  0  0  0
   58.1580   32.6206   48.2739 H   0  0  0  0  0  0  0  0  0  0  0  0
  1  2  1  0
  2  3  2  0
  3  4  1  0
  3  5  1  0
  5  6  1  0
  5  7  2  0
  7  8  1  0
  8  9  1  0
  8 10  1  0
  8 11  1  0
 11 12  2  0
 12 13  1  0
 13 14  2  0
 14 15  1  0
 14 16  1  0
 16 17  1  0
 16 18  2  0
 18 19  1  0
 18 20  1  0
 20 21  1  0
 20 22  2  0
 22 23  1  0
 23 24  1  0
 24 25  2  0
 25 26  1  0
 26 27  1  0
 26 28  1  0
 26 29  1  0
 29 30  1  0
 29 31  1  0
 29 32  1  0
  7 33  1  0
 33 34  1  0
 33 35  2  0
 35 36  1  0
 35  2  1  0
 24 11  1  0
 22 13  1  0
M  CHG  1  23  -1
M  END
>  <UniqueID>  (38) 
33

>  <SMILES>  (38) 
CC/N=c1/[n-]c2ccccc2nc1Cc1ccccc1

>  <Energy>  (38) 
50.77269095527101

>  <Genealogy>  (38) 
CCN=c1[n-]c2ccccc2nc1Cc1ccccc1 (protonated)
CC/N=c1/[n-]c2ccccc2nc1Cc1ccccc1 (cis-trans isomerization)
CC/N=c1/[n-]c2ccccc2nc1Cc1ccccc1 (3D coordinates assigned)
CC/N=c1/[n-]c2ccccc2nc1Cc1ccccc1 (optimized conformer: 50.77269095527101 kcal/mol)

>  <smiles>  (38) 
CCN=c1[nH]c2ccccc2nc1Cc1ccccc1

>  <score_type>  (38) 
oracle

>  <origin>  (38) 
adg

>  <m_score__min__energy>  (38) 
-8.8800000000000008

>  <m_primary>  (38) 
energy

$$$$
38:0
     RDKit          3D

 61 64  0  0  0  0  0  0  0  0999 V2000
   56.1410   23.2570   43.4710 C   0  0  0  0  0  0  0  0  0  0  0  0
   56.3110   21.8400   43.8420 N   0  0  0  0  0  0  0  0  0  0  0  0
   56.6480   21.0600   42.6400 C   0  0  0  0  0  0  0  0  0  0  0  0
   57.3580   21.6780   44.8770 C   0  0  0  0  0  0  0  0  0  0  0  0
   56.7440   21.7100   46.2830 C   0  0  0  0  0  0  0  0  0  0  0  0
   57.2200   22.8210   47.0430 O   0  0  0  0  0  0  0  0  0  0  0  0
   57.4220   24.1220   46.5510 C   0  0  0  0  0  0  0  0  0  0  0  0
   56.3340   24.9980   46.5370 C   0  0  0  0  0  0  0  0  0  0  0  0
   56.4730   26.3020   46.0550 C   0  0  0  0  0  0  0  0  0  0  0  0
   57.7190   26.7590   45.5830 C   0  0  0  0  0  0  0  0  0  0  0  0
   57.8890   28.1370   45.0550 C   0  0  0  0  0  0  0  0  0  0  0  0
   57.4330   28.5110   43.7810 C   0  0  0  0  0  0  0  0  0  0  0  0
   57.6040   29.7900   43.3530 N   0  0  0  0  0  0  0  0  0  0  0  0
   58.2110   30.7210   44.1350 C   0  0  0  0  0  0  0  0  0  0  0  0
   58.6730   30.3630   45.4110 C   0  0  0  0  0  0  0  0  0  0  0  0
   59.3320   31.3400   46.3160 C   0  0  0  0  0  0  0  0  0  0  0  0
   59.9720   30.9290   47.5000 C   0  0  0  0  0  0  0  0  0  0  0  0
   60.5830   31.8650   48.3400 C   0  0  0  0  0  0  0  0  0  0  0  0
   60.5780   33.2300   48.0110 C   0  0  0  0  0  0  0  0  0  0  0  0
   61.2540   34.2440   48.9160 C   0  0  0  0  0  0  0  0  0  0  0  0
   62.7320   34.3070   48.7800 N   0  0  0  0  0  0  0  0  0  0  0  0
   63.2340   33.8310   47.4850 C   0  0  0  0  0  0  0  0  0  0  0  0
   63.7700   32.4200   47.6800 C   0  0  0  0  0  0  0  0  0  0  0  0
   63.9170   32.2370   49.1810 C   0  0  0  0  0  0  0  0  0  0  0  0
   63.4580   33.5480   49.8050 C   0  0  0  0  0  0  0  0  0  0  0  0
   59.9010   33.6460   46.8530 C   0  0  0  0  0  0  0  0  0  0  0  0
   59.2900   32.7120   46.0130 C   0  0  0  0  0  0  0  0  0  0  0  0
   58.4880   29.0820   45.8310 N   0  0  0  0  0  0  0  0  0  0  0  0
   58.8110   25.8750   45.5920 C   0  0  0  0  0  0  0  0  0  0  0  0
   58.6690   24.5710   46.0760 C   0  0  0  0  0  0  0  0  0  0  0  0
   56.0676   23.8684   44.3825 H   0  0  0  0  0  0  0  0  0  0  0  0
   57.0060   23.5868   42.8769 H   0  0  0  0  0  0  0  0  0  0  0  0
   55.2225   23.3728   42.8769 H   0  0  0  0  0  0  0  0  0  0  0  0
   57.0678   20.0883   42.9392 H   0  0  0  0  0  0  0  0  0  0  0  0
   55.7395   20.8982   42.0413 H   0  0  0  0  0  0  0  0  0  0  0  0
   57.3885   21.6106   42.0413 H   0  0  0  0  0  0  0  0  0  0  0  0
   57.8668   20.7143   44.7275 H   0  0  0  0  0  0  0  0  0  0  0  0
   58.0747   22.5075   44.7863 H   0  0  0  0  0  0  0  0  0  0  0  0
   55.6501   21.7827   46.1925 H   0  0  0  0  0  0  0  0  0  0  0  0
   57.0364   20.7872   46.8055 H   0  0  0  0  0  0  0  0  0  0  0  0
   55.3567   24.6573   46.9097 H   0  0  0  0  0  0  0  0  0  0  0  0
   55.6038   26.9761   46.0440 H   0  0  0  0  0  0  0  0  0  0  0  0
   56.9396   27.7725   43.1320 H   0  0  0  0  0  0  0  0  0  0  0  0
   57.2510   30.0650   42.4100 H   0  0  0  0  0  0  0  0  0  0  0  0
   58.3397   31.7505   43.7696 H   0  0  0  0  0  0  0  0  0  0  0  0
   59.9918   29.8621   47.7670 H   0  0  0  0  0  0  0  0  0  0  0  0
   61.0718   31.5291   49.2665 H   0  0  0  0  0  0  0  0  0  0  0  0
   60.8454   35.2382   48.6824 H   0  0  0  0  0  0  0  0  0  0  0  0
   61.0496   33.9248   49.9486 H   0  0  0  0  0  0  0  0  0  0  0  0
   62.4173   33.8219   46.7482 H   0  0  0  0  0  0  0  0  0  0  0  0
   64.0293   34.4949   47.1153 H   0  0  0  0  0  0  0  0  0  0  0  0
   63.0639   31.6821   47.2715 H   0  0  0  0  0  0  0  0  0  0  0  0
   64.7277   32.2750   47.1587 H   0  0  0  0  0  0  0  0  0  0  0  0
   63.2866   31.4055   49.5292 H   0  0  0  0  0  0  0  0  0  0  0  0
   64.9534   31.9964   49.4602 H   0  0  0  0  0  0  0  0  0  0  0  0
   62.7946   33.3435   50.6582 H   0  0  0  0  0  0  0  0  0  0  0  0
   64.3231   34.1234   50.1662 H   0  0  0  0  0  0  0  0  0  0  0  0
   59.8515   34.7166   46.6053 H   0  0  0  0  0  0  0  0  0  0  0  0
   58.7708   33.0535   45.1054 H   0  0  0  0  0  0  0  0  0  0  0  0
   59.7876   26.2122   45.2144 H   0  0  0  0  0  0  0  0  0  0  0  0
   59.5352   23.8930   46.0857 H   0  0  0  0  0  0  0  0  0  0  0  0
  1  2  1  0
  2  3  1  0
  2  4  1  0
  4  5  1  0
  5  6  1  0
  6  7  1  0
  7  8  2  0
  8  9  1  0
  9 10  2  0
 10 11  1  0
 11 12  2  0
 12 13  1  0
 13 14  2  0
 14 15  1  0
 15 16  1  0
 16 17  2  0
 17 18  1  0
 18 19  2  0
 19 20  1  0
 20 21  1  0
 21 22  1  0
 22 23  1  0
 23 24  1  0
 24 25  1  0
 19 26  1  0
 26 27  2  0
 15 28  2  0
 10 29  1  0
 29 30  2  0
 30  7  1  0
 28 11  1  0
 27 16  1  0
 25 21  1  0
  1 31  1  0
  1 32  1  0
  1 33  1  0
  3 34  1  0
  3 35  1  0
  3 36  1  0
  4 37  1  0
  4 38  1  0
  5 39  1  0
  5 40  1  0
  8 41  1  0
  9 42  1  0
 12 43  1  0
 13 44  1  0
 14 45  1  0
 17 46  1  0
 18 47  1  0
 20 48  1  0
 20 49  1  0
 22 50  1  0
 22 51  1  0
 23 52  1  0
 23 53  1  0
 24 54  1  0
 24 55  1  0
 25 56  1  0
 25 57  1  0
 26 58  1  0
 27 59  1  0
 29 60  1  0
 30 61  1  0
M  CHG  1  13   1
M  END
>  <UniqueID>  (39) 
34

>  <SMILES>  (39) 
CN(C)CCOc1ccc(-c2c[nH+]cc(-c3ccc(CN4CCCC4)cc3)n2)cc1

>  <Energy>  (39) 
77.57934164522473

>  <Genealogy>  (39) 
CN(C)CCOc1ccc(-c2c[nH+]cc(-c3ccc(CN4CCCC4)cc3)n2)cc1 (protonated)
CN(C)CCOc1ccc(-c2c[nH+]cc(-c3ccc(CN4CCCC4)cc3)n2)cc1 (3D coordinates assigned)
CN(C)CCOc1ccc(-c2c[nH+]cc(-c3ccc(CN4CCCC4)cc3)n2)cc1 (nonaromatic ring conformer: 77.57934164522473 kcal/mol)

>  <smiles>  (39) 
CN(C)CCOc1ccc(-c2cncc(-c3ccc(CN4CCCC4)cc3)n2)cc1

>  <score_type>  (39) 
oracle

>  <origin>  (39) 
adg

>  <m_score__min__energy>  (39) 
-6.6100000000000003

>  <m_primary>  (39) 
energy

$$$$
39:0
     RDKit          3D

 28 29  0  0  0  0  0  0  0  0999 V2000
   59.6530   33.3460   48.8160 C   0  0  0  0  0  0  0  0  0  0  0  0
   58.8840   33.1990   47.5460 C   0  0  0  0  0  0  0  0  0  0  0  0
   58.3030   34.2240   46.8960 N   0  0  0  0  0  0  0  0  0  0  0  0
   57.7300   33.7380   45.8060 N   0  0  0  0  0  0  0  0  0  0  0  0
   56.9890   34.5760   44.8690 C   0  0  0  0  0  0  0  0  0  0  0  0
   57.9380   32.3990   45.7360 C   0  0  0  0  0  0  0  0  0  0  0  0
   57.4540   31.4950   44.6660 C   0  0  0  0  0  0  0  0  0  0  0  0
   58.1020   31.3970   43.5890 O   0  0  0  0  0  0  0  0  0  0  0  0
   56.2530   30.7370   44.8400 N   0  0  0  0  0  0  0  0  0  0  0  0
   56.0610   29.3940   44.3100 C   0  0  0  0  0  0  0  0  0  0  0  0
   57.1570   28.4910   44.7820 C   0  0  0  0  0  0  0  0  0  0  0  0
   58.4410   28.4320   44.2580 C   0  0  0  0  0  0  0  0  0  0  0  0
   59.2420   27.4630   44.8740 C   0  0  0  0  0  0  0  0  0  0  0  0
   58.5900   26.7560   45.8770 C   0  0  0  0  0  0  0  0  0  0  0  0
   57.0160   27.3360   45.9950 S   0  0  0  0  0  0  0  0  0  0  0  0
   58.6780   32.0240   46.8490 C   0  0  0  0  0  0  0  0  0  0  0  0
   59.3240   30.2860   47.3320 Br  0  0  0  0  0  0  0  0  0  0  0  0
   58.9749   33.2164   49.6724 H   0  0  0  0  0  0  0  0  0  0  0  0
   60.4442   32.5828   48.8560 H   0  0  0  0  0  0  0  0  0  0  0  0
   60.1069   34.3472   48.8560 H   0  0  0  0  0  0  0  0  0  0  0  0
   56.3617   35.2855   45.4286 H   0  0  0  0  0  0  0  0  0  0  0  0
   57.6962   35.1321   44.2360 H   0  0  0  0  0  0  0  0  0  0  0  0
   56.3505   33.9422   44.2360 H   0  0  0  0  0  0  0  0  0  0  0  0
   55.0930   29.0019   44.6554 H   0  0  0  0  0  0  0  0  0  0  0  0
   56.0785   29.4358   43.2109 H   0  0  0  0  0  0  0  0  0  0  0  0
   58.7932   29.0803   43.4421 H   0  0  0  0  0  0  0  0  0  0  0  0
   60.2888   27.2787   44.5907 H   0  0  0  0  0  0  0  0  0  0  0  0
   59.0285   25.9541   46.4891 H   0  0  0  0  0  0  0  0  0  0  0  0
  1  2  1  0
  2  3  2  0
  3  4  1  0
  4  5  1  0
  4  6  1  0
  6  7  1  0
  7  8  2  0
  7  9  1  0
  9 10  1  0
 10 11  1  0
 11 12  2  0
 12 13  1  0
 13 14  2  0
 14 15  1  0
  6 16  2  0
 16 17  1  0
 16  2  1  0
 15 11  1  0
  1 18  1  0
  1 19  1  0
  1 20  1  0
  5 21  1  0
  5 22  1  0
  5 23  1  0
 10 24  1  0
 10 25  1  0
 12 26  1  0
 13 27  1  0
 14 28  1  0
M  CHG  1   9  -1
M  END
>  <UniqueID>  (40) 
35

>  <SMILES>  (40) 
Cc1nn(C)c(C(=O)[N-]Cc2cccs2)c1Br

>  <Energy>  (40) 
81.1285732593699

>  <Genealogy>  (40) 
Cc1nn(C)c(C(=O)[N-]Cc2cccs2)c1Br (protonated)
Cc1nn(C)c(C(=O)[N-]Cc2cccs2)c1Br (3D coordinates assigned)
Cc1nn(C)c(C(=O)[N-]Cc2cccs2)c1Br (optimized conformer: 81.1285732593699 kcal/mol)

>  <smiles>  (40) 
Cc1nn(C)c(C(=O)NCc2cccs2)c1Br

>  <score_type>  (40) 
oracle

>  <origin>  (40) 
adg

>  <m_score__min__energy>  (40) 
-8.3399999999999999

>  <m_primary>  (40) 
energy

$$$$
40:0
     RDKit          3D

 44 46  0  0  0  0  0  0  0  0999 V2000
   55.5780   22.9240   46.1460 C   0  0  0  0  0  0  0  0  0  0  0  0
   56.0210   24.3350   45.9230 C   0  0  0  0  0  0  0  0  0  0  0  0
   57.2890   24.6110   45.4100 C   0  0  0  0  0  0  0  0  0  0  0  0
   57.6660   25.9360   45.2010 C   0  0  0  0  0  0  0  0  0  0  0  0
   56.7640   26.9700   45.5040 C   0  0  0  0  0  0  0  0  0  0  0  0
   57.1060   28.3610   45.3040 N   0  0  0  0  0  0  0  0  0  0  0  0
   57.7800   29.1200   46.3710 C   0  0  0  0  0  0  0  0  0  0  0  0
   58.2470   30.4850   45.8690 C   0  0  0  0  0  0  0  0  0  0  0  0
   57.1220   31.1650   45.2060 N   0  0  0  0  0  0  0  0  0  0  0  0
   57.3770   32.5980   44.9400 C   0  0  0  0  0  0  0  0  0  0  0  0
   58.2710   33.2480   45.9660 C   0  0  0  0  0  0  0  0  0  0  0  0
   57.7990   34.1340   46.7280 O   0  0  0  0  0  0  0  0  0  0  0  0
   59.6600   32.8830   46.0450 N   0  0  0  0  0  0  0  0  0  0  0  0
   60.5630   33.3660   47.0540 C   0  0  0  0  0  0  0  0  0  0  0  0
   61.9400   33.3980   46.7840 C   0  0  0  0  0  0  0  0  0  0  0  0
   62.8410   33.8420   47.7560 C   0  0  0  0  0  0  0  0  0  0  0  0
   62.3760   34.2460   49.0120 C   0  0  0  0  0  0  0  0  0  0  0  0
   63.2510   34.6740   49.9540 F   0  0  0  0  0  0  0  0  0  0  0  0
   61.0080   34.1960   49.2970 C   0  0  0  0  0  0  0  0  0  0  0  0
   60.1040   33.7510   48.3280 C   0  0  0  0  0  0  0  0  0  0  0  0
   56.5700   30.4380   44.0370 C   0  0  0  0  0  0  0  0  0  0  0  0
   56.9950   28.9580   43.9640 C   0  0  0  0  0  0  0  0  0  0  0  0
   55.5370   26.6340   45.9950 N   0  0  0  0  0  0  0  0  0  0  0  0
   55.1780   25.3650   46.1960 N   0  0  0  0  0  0  0  0  0  0  0  0
   55.5157   22.7256   47.2262 H   0  0  0  0  0  0  0  0  0  0  0  0
   54.5893   22.7733   45.6879 H   0  0  0  0  0  0  0  0  0  0  0  0
   56.3031   22.2353   45.6879 H   0  0  0  0  0  0  0  0  0  0  0  0
   57.9834   23.7914   45.1732 H   0  0  0  0  0  0  0  0  0  0  0  0
   58.6635   26.1711   44.8013 H   0  0  0  0  0  0  0  0  0  0  0  0
   57.0783   29.2657   47.2055 H   0  0  0  0  0  0  0  0  0  0  0  0
   58.6615   28.5500   46.6997 H   0  0  0  0  0  0  0  0  0  0  0  0
   58.5945   31.0909   46.7188 H   0  0  0  0  0  0  0  0  0  0  0  0
   59.0738   30.3544   45.1553 H   0  0  0  0  0  0  0  0  0  0  0  0
   57.8545   32.6899   43.9533 H   0  0  0  0  0  0  0  0  0  0  0  0
   56.4063   33.1137   44.9819 H   0  0  0  0  0  0  0  0  0  0  0  0
   60.0590   32.3070   45.2710 H   0  0  0  0  0  0  0  0  0  0  0  0
   62.3123   33.0717   45.8017 H   0  0  0  0  0  0  0  0  0  0  0  0
   63.9177   33.8738   47.5329 H   0  0  0  0  0  0  0  0  0  0  0  0
   60.6421   34.5077   50.2864 H   0  0  0  0  0  0  0  0  0  0  0  0
   59.0303   33.7015   48.5618 H   0  0  0  0  0  0  0  0  0  0  0  0
   55.4721   30.4808   44.0894 H   0  0  0  0  0  0  0  0  0  0  0  0
   56.9695   30.9296   43.1377 H   0  0  0  0  0  0  0  0  0  0  0  0
   56.2451   28.3991   43.3850 H   0  0  0  0  0  0  0  0  0  0  0  0
   57.9819   28.9063   43.4809 H   0  0  0  0  0  0  0  0  0  0  0  0
  1  2  1  0
  2  3  2  0
  3  4  1  0
  4  5  2  0
  5  6  1  0
  6  7  1  0
  7  8  1  0
  8  9  1  0
  9 10  1  0
 10 11  1  0
 11 12  2  0
 11 13  1  0
 13 14  1  0
 14 15  2  0
 15 16  1  0
 16 17  2  0
 17 18  1  0
 17 19  1  0
 19 20  2  0
  9 21  1  0
 21 22  1  0
  5 23  1  0
 23 24  2  0
 24  2  1  0
 22  6  1  0
 20 14  1  0
  1 25  1  0
  1 26  1  0
  1 27  1  0
  3 28  1  0
  4 29  1  0
  7 30  1  0
  7 31  1  0
  8 32  1  0
  8 33  1  0
 10 34  1  0
 10 35  1  0
 13 36  1  0
 15 37  1  0
 16 38  1  0
 19 39  1  0
 20 40  1  0
 21 41  1  0
 21 42  1  0
 22 43  1  0
 22 44  1  0
M  END
>  <UniqueID>  (41) 
36

>  <SMILES>  (41) 
Cc1ccc(N2CCN(CC(=O)Nc3ccc(F)cc3)CC2)nn1

>  <Energy>  (41) 
58.19032801613135

>  <Genealogy>  (41) 
Cc1ccc(N2CCN(CC(=O)Nc3ccc(F)cc3)CC2)nn1 (3D coordinates assigned)
Cc1ccc(N2CCN(CC(=O)Nc3ccc(F)cc3)CC2)nn1 (nonaromatic ring conformer: 58.19032801613135 kcal/mol)

>  <smiles>  (41) 
Cc1ccc(N2CCN(CC(=O)Nc3ccc(F)cc3)CC2)nn1

>  <score_type>  (41) 
oracle

>  <origin>  (41) 
adg

>  <m_score__min__energy>  (41) 
-8.0899999999999999

>  <m_primary>  (41) 
energy

$$$$
41:0
     RDKit          3D

 56 59  0  0  0  0  0  0  0  0999 V2000
   67.2550   33.0510   50.4730 C   0  0  0  0  0  0  0  0  0  0  0  0
   65.9280   33.5650   50.4150 O   0  0  0  0  0  0  0  0  0  0  0  0
   64.8250   32.8590   49.9140 C   0  0  0  0  0  0  0  0  0  0  0  0
   64.1270   31.9080   50.6830 C   0  0  0  0  0  0  0  0  0  0  0  0
   63.0310   31.2290   50.1400 C   0  0  0  0  0  0  0  0  0  0  0  0
   62.6130   31.4850   48.8230 C   0  0  0  0  0  0  0  0  0  0  0  0
   61.4790   30.7890   48.2670 N   0  0  0  0  0  0  0  0  0  0  0  0
   60.4610   30.2390   49.1720 C   0  0  0  0  0  0  0  0  0  0  0  0
   59.2830   29.6590   48.3830 C   0  0  0  0  0  0  0  0  0  0  0  0
   59.7850   28.7970   47.2930 N   0  0  0  0  0  0  0  0  0  0  0  0
   58.7080   28.0050   46.6480 C   0  0  0  0  0  0  0  0  0  0  0  0
   58.6860   28.0970   45.1060 C   0  0  0  0  0  0  0  0  0  0  0  0
   57.3160   28.2450   44.6280 N   0  0  0  0  0  0  0  0  0  0  0  0
   56.5660   29.4620   44.7370 C   0  0  0  0  0  0  0  0  0  0  0  0
   55.3080   29.4140   44.8310 O   0  0  0  0  0  0  0  0  0  0  0  0
   57.2610   30.7700   44.7310 C   0  0  0  0  0  0  0  0  0  0  0  0
   57.4310   31.4840   43.5300 C   0  0  0  0  0  0  0  0  0  0  0  0
   58.0860   32.7180   43.5200 C   0  0  0  0  0  0  0  0  0  0  0  0
   58.5850   33.2630   44.7100 C   0  0  0  0  0  0  0  0  0  0  0  0
   59.2440   34.5020   44.7080 C   0  0  0  0  0  0  0  0  0  0  0  0
   59.7360   35.0350   45.9030 C   0  0  0  0  0  0  0  0  0  0  0  0
   59.5760   34.3380   47.1030 C   0  0  0  0  0  0  0  0  0  0  0  0
   58.9220   33.1030   47.1170 C   0  0  0  0  0  0  0  0  0  0  0  0
   58.4220   32.5560   45.9250 C   0  0  0  0  0  0  0  0  0  0  0  0
   57.7630   31.3170   45.9270 C   0  0  0  0  0  0  0  0  0  0  0  0
   60.6120   29.5340   46.2960 C   0  0  0  0  0  0  0  0  0  0  0  0
   61.2050   30.8580   46.8240 C   0  0  0  0  0  0  0  0  0  0  0  0
   63.3150   32.4360   48.0600 C   0  0  0  0  0  0  0  0  0  0  0  0
   64.4090   33.1140   48.6040 C   0  0  0  0  0  0  0  0  0  0  0  0
   67.5572   32.9339   51.5242 H   0  0  0  0  0  0  0  0  0  0  0  0
   67.2919   32.0735   49.9698 H   0  0  0  0  0  0  0  0  0  0  0  0
   67.9407   33.7486   49.9698 H   0  0  0  0  0  0  0  0  0  0  0  0
   64.4449   31.6981   51.7150 H   0  0  0  0  0  0  0  0  0  0  0  0
   62.4919   30.4885   50.7491 H   0  0  0  0  0  0  0  0  0  0  0  0
   60.9133   29.4425   49.7811 H   0  0  0  0  0  0  0  0  0  0  0  0
   60.0878   31.0498   49.8149 H   0  0  0  0  0  0  0  0  0  0  0  0
   58.6501   29.0634   49.0573 H   0  0  0  0  0  0  0  0  0  0  0  0
   58.6944   30.4825   47.9523 H   0  0  0  0  0  0  0  0  0  0  0  0
   60.4180   28.0890   47.7400 H   0  0  0  0  0  0  0  0  0  0  0  0
   58.8419   26.9497   46.9280 H   0  0  0  0  0  0  0  0  0  0  0  0
   57.7545   28.4242   47.0017 H   0  0  0  0  0  0  0  0  0  0  0  0
   59.2782   28.9669   44.7858 H   0  0  0  0  0  0  0  0  0  0  0  0
   59.1142   27.1749   44.6860 H   0  0  0  0  0  0  0  0  0  0  0  0
   57.0439   31.0659   42.5891 H   0  0  0  0  0  0  0  0  0  0  0  0
   58.2104   33.2641   42.5733 H   0  0  0  0  0  0  0  0  0  0  0  0
   59.3735   35.0541   43.7655 H   0  0  0  0  0  0  0  0  0  0  0  0
   60.2511   36.0069   45.8984 H   0  0  0  0  0  0  0  0  0  0  0  0
   59.9660   34.7625   48.0398 H   0  0  0  0  0  0  0  0  0  0  0  0
   58.7988   32.5582   48.0646 H   0  0  0  0  0  0  0  0  0  0  0  0
   57.6375   30.7681   46.8720 H   0  0  0  0  0  0  0  0  0  0  0  0
   61.4427   28.8824   45.9871 H   0  0  0  0  0  0  0  0  0  0  0  0
   59.9444   29.7959   45.4619 H   0  0  0  0  0  0  0  0  0  0  0  0
   62.1447   31.0661   46.2914 H   0  0  0  0  0  0  0  0  0  0  0  0
   60.4705   31.6583   46.6504 H   0  0  0  0  0  0  0  0  0  0  0  0
   63.0003   32.6474   47.0274 H   0  0  0  0  0  0  0  0  0  0  0  0
   64.9479   33.8553   47.9957 H   0  0  0  0  0  0  0  0  0  0  0  0
  1  2  1  0
  2  3  1  0
  3  4  2  0
  4  5  1  0
  5  6  2  0
  6  7  1  0
  7  8  1  0
  8  9  1  0
  9 10  1  0
 10 11  1  0
 11 12  1  0
 12 13  1  0
 13 14  1  0
 14 15  2  0
 14 16  1  0
 16 17  2  0
 17 18  1  0
 18 19  2  0
 19 20  1  0
 20 21  2  0
 21 22  1  0
 22 23  2  0
 23 24  1  0
 24 25  2  0
 10 26  1  0
 26 27  1  0
  6 28  1  0
 28 29  2  0
 29  3  1  0
 27  7  1  0
 25 16  1  0
 24 19  1  0
  1 30  1  0
  1 31  1  0
  1 32  1  0
  4 33  1  0
  5 34  1  0
  8 35  1  0
  8 36  1  0
  9 37  1  0
  9 38  1  0
 10 39  1  0
 11 40  1  0
 11 41  1  0
 12 42  1  0
 12 43  1  0
 17 44  1  0
 18 45  1  0
 20 46  1  0
 21 47  1  0
 22 48  1  0
 23 49  1  0
 25 50  1  0
 26 51  1  0
 26 52  1  0
 27 53  1  0
 27 54  1  0
 28 55  1  0
 29 56  1  0
M  CHG  2  10   1  13  -1
M  END
>  <UniqueID>  (42) 
37

>  <SMILES>  (42) 
COc1ccc(N2CC[NH+](CC[N-]C(=O)c3ccc4ccccc4c3)CC2)cc1

>  <Energy>  (42) 
73.12906027815345

>  <Genealogy>  (42) 
COc1ccc(N2CC[NH+](CC[N-]C(=O)c3ccc4ccccc4c3)CC2)cc1 (protonated)
COc1ccc(N2CC[NH+](CC[N-]C(=O)c3ccc4ccccc4c3)CC2)cc1 (3D coordinates assigned)
COc1ccc(N2CC[NH+](CC[N-]C(=O)c3ccc4ccccc4c3)CC2)cc1 (nonaromatic ring conformer: 73.12906027815345 kcal/mol)

>  <smiles>  (42) 
COc1ccc(N2CCN(CCNC(=O)c3ccc4ccccc4c3)CC2)cc1

>  <score_type>  (42) 
oracle

>  <origin>  (42) 
adg

>  <m_score__min__energy>  (42) 
-8.4000000000000004

>  <m_primary>  (42) 
energy

$$$$
42:0
     RDKit          3D

 36 38  0  0  1  0  0  0  0  0999 V2000
   57.7530   31.9710   42.0120 C   0  0  0  0  0  0  0  0  0  0  0  0
   57.0610   30.9510   42.7200 O   0  0  0  0  0  0  0  0  0  0  0  0
   56.7640   31.0630   44.0740 C   0  0  0  0  0  0  0  0  0  0  0  0
   55.7910   30.4050   44.4950 O   0  0  0  0  0  0  0  0  0  0  0  0
   57.6010   31.9300   44.8890 C   0  0  0  0  0  0  0  0  0  0  0  0
   58.4380   31.4690   45.7990 C   0  0  0  0  0  0  0  0  0  0  0  0
   58.8850   30.0860   45.7970 C   0  0  0  0  0  0  0  0  0  0  0  0
   58.5140   29.3190   46.9030 C   0  0  0  0  0  0  0  0  0  0  0  0
   58.8940   28.0080   47.0560 C   0  0  0  0  0  0  0  0  0  0  0  0
   59.6620   27.4340   46.0910 C   0  0  0  0  0  0  0  0  0  0  0  0
   60.0300   26.1410   46.2590 F   0  0  0  0  0  0  0  0  0  0  0  0
   60.0460   28.1790   44.9770 C   0  0  0  0  0  0  0  0  0  0  0  0
   59.6510   29.4990   44.8440 C   0  0  0  0  0  0  0  0  0  0  0  0
   59.0060   32.3470   46.8740 C   0  0  0  0  0  0  0  0  0  0  0  0
   58.5140   33.7510   46.8520 C   0  0  1  0  0  0  0  0  0  0  0  0
   59.2780   34.6470   45.8690 C   0  0  0  0  0  0  0  0  0  0  0  0
   58.9440   33.9530   44.5670 C   0  0  0  0  0  0  0  0  0  0  0  0
   57.5520   33.4320   44.7650 C   0  0  2  0  0  0  0  0  0  0  0  0
   57.1560   33.8410   46.1960 C   0  0  0  0  0  0  0  0  0  0  0  0
   58.2215   32.6616   42.7287 H   0  0  0  0  0  0  0  0  0  0  0  0
   58.5297   31.5161   41.3797 H   0  0  0  0  0  0  0  0  0  0  0  0
   57.0433   32.5246   41.3797 H   0  0  0  0  0  0  0  0  0  0  0  0
   57.8926   29.7831   47.6830 H   0  0  0  0  0  0  0  0  0  0  0  0
   58.5835   27.4336   47.9413 H   0  0  0  0  0  0  0  0  0  0  0  0
   60.6677   27.7143   44.1976 H   0  0  0  0  0  0  0  0  0  0  0  0
   59.9603   30.0756   43.9598 H   0  0  0  0  0  0  0  0  0  0  0  0
   58.7463   31.9078   47.8485 H   0  0  0  0  0  0  0  0  0  0  0  0
   60.0906   32.3942   46.6970 H   0  0  0  0  0  0  0  0  0  0  0  0
   58.5838   34.0498   47.9083 H   0  0  0  0  0  0  0  0  0  0  0  0
   58.9065   35.6822   45.8868 H   0  0  0  0  0  0  0  0  0  0  0  0
   60.3533   34.7506   46.0762 H   0  0  0  0  0  0  0  0  0  0  0  0
   58.9774   34.6636   43.7280 H   0  0  0  0  0  0  0  0  0  0  0  0
   59.6591   33.1532   44.3241 H   0  0  0  0  0  0  0  0  0  0  0  0
   56.9013   33.7862   43.9519 H   0  0  0  0  0  0  0  0  0  0  0  0
   56.7460   34.8610   46.2349 H   0  0  0  0  0  0  0  0  0  0  0  0
   56.3653   33.2331   46.6600 H   0  0  0  0  0  0  0  0  0  0  0  0
  1  2  1  0
  2  3  1  0
  3  4  2  0
  3  5  1  0
  5  6  2  0
  6  7  1  0
  7  8  2  0
  8  9  1  0
  9 10  2  0
 10 11  1  0
 10 12  1  0
 12 13  2  0
  6 14  1  0
 14 15  1  0
 15 16  1  0
 16 17  1  0
 17 18  1  0
 18 19  1  0
 18  5  1  0
 13  7  1  0
 19 15  1  0
  1 20  1  0
  1 21  1  0
  1 22  1  0
  8 23  1  0
  9 24  1  0
 12 25  1  0
 13 26  1  0
 14 27  1  0
 14 28  1  0
 15 29  1  1
 16 30  1  0
 16 31  1  0
 17 32  1  0
 17 33  1  0
 18 34  1  6
 19 35  1  0
 19 36  1  0
M  END
>  <smiles>  (43) 
COC(=O)C1=C(c2ccc(F)cc2)CC2CCC1C2

>  <score_type>  (43) 
oracle

>  <origin>  (43) 
adg

>  <m_score__min__energy>  (43) 
-7.5599999999999996

>  <m_primary>  (43) 
energy

$$$$
43:0
     RDKit          3D

 33 35  0  0  1  0  0  0  0  0999 V2000
   55.6140   30.0770   44.0220 C   0  0  0  0  0  0  0  0  0  0  0  0
   56.2140   29.6180   45.2280 O   0  0  0  0  0  0  0  0  0  0  0  0
   57.5330   29.1790   45.1450 C   0  0  0  0  0  0  0  0  0  0  0  0
   57.9640   28.2720   44.1990 C   0  0  0  0  0  0  0  0  0  0  0  0
   59.2680   27.8320   44.1100 C   0  0  0  0  0  0  0  0  0  0  0  0
   60.1970   28.3210   45.0130 C   0  0  0  0  0  0  0  0  0  0  0  0
   59.7650   29.2290   45.9600 C   0  0  0  0  0  0  0  0  0  0  0  0
   58.4570   29.6670   46.0440 C   0  0  0  0  0  0  0  0  0  0  0  0
   58.1370   30.6040   47.0650 N   0  0  0  0  0  0  0  0  0  0  0  0
   58.5130   31.8180   47.0940 C   0  0  0  0  0  0  0  0  0  0  0  0
   59.1410   32.2990   48.2250 C   0  0  0  0  0  0  0  0  0  0  0  0
   59.5340   33.6150   48.2230 C   0  0  0  0  0  0  0  0  0  0  0  0
   60.2180   34.2030   49.4120 C   0  0  0  0  0  0  0  0  0  0  0  0
   59.3110   34.4160   47.1430 N   0  0  0  0  0  0  0  0  0  0  0  0
   58.6930   33.8870   46.0670 C   0  0  0  0  0  0  0  0  0  0  0  0
   58.3510   34.4750   44.8580 C   0  0  0  0  0  0  0  0  0  0  0  0
   57.7400   33.4570   44.1420 C   0  0  0  0  0  0  0  0  0  0  0  0
   57.7120   32.3280   44.8660 N   0  0  0  0  0  0  0  0  0  0  0  0
   58.2900   32.6070   46.0200 N   0  0  0  0  0  0  0  0  0  0  0  0
   54.7613   30.7293   44.2618 H   0  0  0  0  0  0  0  0  0  0  0  0
   56.3541   30.6416   43.4360 H   0  0  0  0  0  0  0  0  0  0  0  0
   55.2627   29.2149   43.4360 H   0  0  0  0  0  0  0  0  0  0  0  0
   57.2304   27.8799   43.4792 H   0  0  0  0  0  0  0  0  0  0  0  0
   59.5642   27.1073   43.3373 H   0  0  0  0  0  0  0  0  0  0  0  0
   61.2473   27.9961   44.9772 H   0  0  0  0  0  0  0  0  0  0  0  0
   60.4966   29.6220   46.6813 H   0  0  0  0  0  0  0  0  0  0  0  0
   59.3202   31.6519   49.0963 H   0  0  0  0  0  0  0  0  0  0  0  0
   59.7595   33.8088   50.3309 H   0  0  0  0  0  0  0  0  0  0  0  0
   61.2848   33.9357   49.3907 H   0  0  0  0  0  0  0  0  0  0  0  0
   60.1138   35.2978   49.3907 H   0  0  0  0  0  0  0  0  0  0  0  0
   59.6280   35.4180   47.1820 H   0  0  0  0  0  0  0  0  0  0  0  0
   58.5251   35.5134   44.5396 H   0  0  0  0  0  0  0  0  0  0  0  0
   57.3355   33.5605   43.1243 H   0  0  0  0  0  0  0  0  0  0  0  0
  1  2  1  0
  2  3  1  0
  3  4  2  0
  4  5  1  0
  5  6  2  0
  6  7  1  0
  7  8  2  0
  8  9  1  0
  9 10  2  0
 10 11  1  0
 11 12  2  0
 12 13  1  0
 12 14  1  0
 14 15  1  0
 15 16  2  0
 16 17  1  0
 17 18  2  0
 18 19  1  0
  8  3  1  0
 19 10  1  0
 19 15  1  0
  1 20  1  0
  1 21  1  0
  1 22  1  0
  4 23  1  0
  5 24  1  0
  6 25  1  0
  7 26  1  0
 11 27  1  0
 13 28  1  0
 13 29  1  0
 13 30  1  0
 14 31  1  0
 16 32  1  0
 17 33  1  0
M  END
>  <smiles>  (44) 
COc1ccccc1N=c1cc(C)[nH]c2ccnn12

>  <score_type>  (44) 
oracle

>  <origin>  (44) 
adg

>  <m_score__min__energy>  (44) 
-6.7800000000000002

>  <m_primary>  (44) 
energy

$$$$
44:0
     RDKit          3D

 32 33  0  0  0  0  0  0  0  0999 V2000
   58.7200   29.0780   46.1000 C   0  0  0  0  0  0  0  0  0  0  0  0
   57.3870   29.5730   46.1400 O   0  0  0  0  0  0  0  0  0  0  0  0
   56.6120   29.7520   44.9900 C   0  0  0  0  0  0  0  0  0  0  0  0
   55.5290   29.1200   44.8500 O   0  0  0  0  0  0  0  0  0  0  0  0
   57.0370   30.6980   43.9460 C   0  0  0  0  0  0  0  0  0  0  0  0
   56.6530   30.5450   42.3140 S   0  0  0  0  0  0  0  0  0  0  0  0
   57.3880   31.9660   41.8000 C   0  0  0  0  0  0  0  0  0  0  0  0
   57.9520   32.5870   42.9060 C   0  0  0  0  0  0  0  0  0  0  0  0
   57.7550   31.8870   44.1090 C   0  0  0  0  0  0  0  0  0  0  0  0
   58.3200   32.3070   45.3590 N   0  0  0  0  0  0  0  0  0  0  0  0
   58.6260   33.6750   45.6640 C   0  0  0  0  0  0  0  0  0  0  0  0
   58.3080   34.5980   44.8650 O   0  0  0  0  0  0  0  0  0  0  0  0
   59.2490   34.0260   46.9810 C   0  0  0  0  0  0  0  0  0  0  0  0
   60.6060   33.3860   47.0940 C   0  0  0  0  0  0  0  0  0  0  0  0
   61.7550   34.0800   46.6780 C   0  0  0  0  0  0  0  0  0  0  0  0
   63.0110   33.4690   46.7530 C   0  0  0  0  0  0  0  0  0  0  0  0
   63.1260   32.1610   47.2310 C   0  0  0  0  0  0  0  0  0  0  0  0
   61.9870   31.4610   47.6360 C   0  0  0  0  0  0  0  0  0  0  0  0
   60.7280   32.0680   47.5640 C   0  0  0  0  0  0  0  0  0  0  0  0
   59.0909   28.9403   47.1264 H   0  0  0  0  0  0  0  0  0  0  0  0
   58.7373   28.1135   45.5713 H   0  0  0  0  0  0  0  0  0  0  0  0
   59.3626   29.7974   45.5713 H   0  0  0  0  0  0  0  0  0  0  0  0
   57.4172   32.3396   40.7658 H   0  0  0  0  0  0  0  0  0  0  0  0
   58.5017   33.5380   42.8466 H   0  0  0  0  0  0  0  0  0  0  0  0
   58.4890   31.5870   46.0950 H   0  0  0  0  0  0  0  0  0  0  0  0
   59.3540   35.1185   47.0549 H   0  0  0  0  0  0  0  0  0  0  0  0
   58.6067   33.6576   47.7944 H   0  0  0  0  0  0  0  0  0  0  0  0
   61.6664   35.1064   46.2924 H   0  0  0  0  0  0  0  0  0  0  0  0
   63.9092   34.0188   46.4353 H   0  0  0  0  0  0  0  0  0  0  0  0
   64.1146   31.6820   47.2884 H   0  0  0  0  0  0  0  0  0  0  0  0
   62.0797   30.4314   48.0120 H   0  0  0  0  0  0  0  0  0  0  0  0
   59.8319   31.5116   47.8762 H   0  0  0  0  0  0  0  0  0  0  0  0
  1  2  1  0
  2  3  1  0
  3  4  2  0
  3  5  1  0
  5  6  1  0
  6  7  1  0
  7  8  2  0
  8  9  1  0
  9 10  1  0
 10 11  1  0
 11 12  2  0
 11 13  1  0
 13 14  1  0
 14 15  2  0
 15 16  1  0
 16 17  2  0
 17 18  1  0
 18 19  2  0
  9  5  2  0
 19 14  1  0
  1 20  1  0
  1 21  1  0
  1 22  1  0
  7 23  1  0
  8 24  1  0
 10 25  1  0
 13 26  1  0
 13 27  1  0
 15 28  1  0
 16 29  1  0
 17 30  1  0
 18 31  1  0
 19 32  1  0
M  END
>  <UniqueID>  (45) 
38

>  <SMILES>  (45) 
COC(=O)c1sccc1NC(=O)Cc1ccccc1

>  <Energy>  (45) 
56.08776038781893

>  <Genealogy>  (45) 
COC(=O)c1sccc1NC(=O)Cc1ccccc1 (3D coordinates assigned)
COC(=O)c1sccc1NC(=O)Cc1ccccc1 (optimized conformer: 56.08776038781893 kcal/mol)

>  <smiles>  (45) 
COC(=O)c1sccc1NC(=O)Cc1ccccc1

>  <score_type>  (45) 
oracle

>  <origin>  (45) 
adg

>  <m_score__min__energy>  (45) 
-6.6500000000000004

>  <m_primary>  (45) 
energy

$$$$
45:0
     RDKit          3D

 56 58  0  0  0  0  0  0  0  0999 V2000
   58.1190   23.7550   45.1980 C   0  0  0  0  0  0  0  0  0  0  0  0
   57.1190   24.8700   44.8700 C   0  0  0  0  0  0  0  0  0  0  0  0
   57.1780   26.1080   45.8190 C   0  0  1  0  0  0  0  0  0  0  0  0
   57.4300   25.6370   47.2720 C   0  0  0  0  0  0  0  0  0  0  0  0
   58.3600   27.0060   45.3450 C   0  0  0  0  0  0  0  0  0  0  0  0
   58.9630   27.8740   46.4290 C   0  0  0  0  0  0  0  0  0  0  0  0
   59.9450   27.3570   47.2890 C   0  0  0  0  0  0  0  0  0  0  0  0
   60.4600   28.1400   48.3250 C   0  0  0  0  0  0  0  0  0  0  0  0
   59.9830   29.4390   48.5390 C   0  0  0  0  0  0  0  0  0  0  0  0
   60.4500   30.1410   49.6620 O   0  0  0  0  0  0  0  0  0  0  0  0
   61.7980   30.1370   50.1400 C   0  0  0  0  0  0  0  0  0  0  0  0
   62.3390   31.5650   50.3150 C   0  0  0  0  0  0  0  0  0  0  0  0
   61.8690   32.4850   49.2260 C   0  0  0  0  0  0  0  0  0  0  0  0
   60.5820   32.6140   48.8540 N   0  0  0  0  0  0  0  0  0  0  0  0
   60.6230   33.3420   47.7160 C   0  0  0  0  0  0  0  0  0  0  0  0
   59.4520   33.6540   46.8640 C   0  0  0  0  0  0  0  0  0  0  0  0
   58.1620   33.1910   47.1850 C   0  0  0  0  0  0  0  0  0  0  0  0
   57.0850   33.4520   46.3320 C   0  0  0  0  0  0  0  0  0  0  0  0
   57.2810   34.1750   45.1550 C   0  0  0  0  0  0  0  0  0  0  0  0
   58.5550   34.6440   44.8290 C   0  0  0  0  0  0  0  0  0  0  0  0
   59.6350   34.3870   45.6770 C   0  0  0  0  0  0  0  0  0  0  0  0
   61.8570   33.6810   47.4010 O   0  0  0  0  0  0  0  0  0  0  0  0
   62.6500   33.1670   48.3130 C   0  0  0  0  0  0  0  0  0  0  0  0
   64.1380   33.2660   48.2890 C   0  0  0  0  0  0  0  0  0  0  0  0
   59.0400   29.9780   47.6440 C   0  0  0  0  0  0  0  0  0  0  0  0
   58.5270   29.1950   46.6050 C   0  0  0  0  0  0  0  0  0  0  0  0
   55.8800   26.8930   45.7260 C   0  0  0  0  0  0  0  0  0  0  0  0
   54.7850   26.3400   46.0140 O   0  0  0  0  0  0  0  0  0  0  0  0
   55.8710   28.2100   45.2800 O   0  0  0  0  0  0  0  0  0  0  0  0
   58.2100   23.6535   46.2895 H   0  0  0  0  0  0  0  0  0  0  0  0
   57.7636   22.8061   44.7699 H   0  0  0  0  0  0  0  0  0  0  0  0
   59.1008   24.0054   44.7699 H   0  0  0  0  0  0  0  0  0  0  0  0
   57.3175   25.2159   43.8448 H   0  0  0  0  0  0  0  0  0  0  0  0
   56.1177   24.4325   44.9966 H   0  0  0  0  0  0  0  0  0  0  0  0
   57.0305   26.3837   47.9740 H   0  0  0  0  0  0  0  0  0  0  0  0
   56.9274   24.6726   47.4372 H   0  0  0  0  0  0  0  0  0  0  0  0
   58.5112   25.5200   47.4372 H   0  0  0  0  0  0  0  0  0  0  0  0
   59.1509   26.3521   44.9489 H   0  0  0  0  0  0  0  0  0  0  0  0
   57.9489   27.6907   44.5886 H   0  0  0  0  0  0  0  0  0  0  0  0
   60.3110   26.3295   47.1462 H   0  0  0  0  0  0  0  0  0  0  0  0
   61.2463   27.7329   48.9777 H   0  0  0  0  0  0  0  0  0  0  0  0
   61.8312   29.6209   51.1109 H   0  0  0  0  0  0  0  0  0  0  0  0
   62.4249   29.6193   49.3991 H   0  0  0  0  0  0  0  0  0  0  0  0
   61.9962   31.9578   51.2836 H   0  0  0  0  0  0  0  0  0  0  0  0
   63.4371   31.5190   50.2687 H   0  0  0  0  0  0  0  0  0  0  0  0
   59.7590   32.1640   49.3090 H   0  0  0  0  0  0  0  0  0  0  0  0
   58.0002   32.6209   48.1117 H   0  0  0  0  0  0  0  0  0  0  0  0
   56.0802   33.0861   46.5898 H   0  0  0  0  0  0  0  0  0  0  0  0
   56.4324   34.3754   44.4843 H   0  0  0  0  0  0  0  0  0  0  0  0
   58.7086   35.2170   43.9027 H   0  0  0  0  0  0  0  0  0  0  0  0
   60.6359   34.7605   45.4148 H   0  0  0  0  0  0  0  0  0  0  0  0
   64.5205   33.2914   49.3201 H   0  0  0  0  0  0  0  0  0  0  0  0
   64.5551   32.3936   47.7646 H   0  0  0  0  0  0  0  0  0  0  0  0
   64.4359   34.1859   47.7646 H   0  0  0  0  0  0  0  0  0  0  0  0
   58.7052   31.0191   47.7622 H   0  0  0  0  0  0  0  0  0  0  0  0
   57.7764   29.6183   45.9213 H   0  0  0  0  0  0  0  0  0  0  0  0
  1  2  1  0
  3  2  1  6
  3  4  1  0
  3  5  1  0
  5  6  1  0
  6  7  2  0
  7  8  1  0
  8  9  2  0
  9 10  1  0
 10 11  1  0
 11 12  1  0
 12 13  1  0
 13 14  1  0
 14 15  2  0
 15 16  1  0
 16 17  2  0
 17 18  1  0
 18 19  2  0
 19 20  1  0
 20 21  2  0
 15 22  1  0
 22 23  1  0
 23 24  1  0
  9 25  1  0
 25 26  2  0
  3 27  1  0
 27 28  2  0
 27 29  1  0
 26  6  1  0
 23 13  2  0
 21 16  1  0
  1 30  1  0
  1 31  1  0
  1 32  1  0
  2 33  1  0
  2 34  1  0
  4 35  1  0
  4 36  1  0
  4 37  1  0
  5 38  1  0
  5 39  1  0
  7 40  1  0
  8 41  1  0
 11 42  1  0
 11 43  1  0
 12 44  1  0
 12 45  1  0
 14 46  1  0
 17 47  1  0
 18 48  1  0
 19 49  1  0
 20 50  1  0
 21 51  1  0
 24 52  1  0
 24 53  1  0
 24 54  1  0
 25 55  1  0
 26 56  1  0
M  CHG  2  14   1  29  -1
M  END
>  <UniqueID>  (46) 
39

>  <SMILES>  (46) 
CC[C@@](C)(Cc1ccc(OCCc2[nH+]c(-c3ccccc3)oc2C)cc1)C(=O)[O-]

>  <Energy>  (46) 
80.72426782478979

>  <Genealogy>  (46) 
CCC(C)(Cc1ccc(OCCc2[nH+]c(-c3ccccc3)oc2C)cc1)C(=O)[O-] (protonated)
CC[C@@](C)(Cc1ccc(OCCc2[nH+]c(-c3ccccc3)oc2C)cc1)C(=O)[O-] (chirality)
CC[C@@](C)(Cc1ccc(OCCc2[nH+]c(-c3ccccc3)oc2C)cc1)C(=O)[O-] (3D coordinates assigned)
CC[C@@](C)(Cc1ccc(OCCc2[nH+]c(-c3ccccc3)oc2C)cc1)C(=O)[O-] (optimized conformer: 80.72426782478979 kcal/mol)

>  <smiles>  (46) 
CCC(C)(Cc1ccc(OCCc2nc(-c3ccccc3)oc2C)cc1)C(=O)O

>  <score_type>  (46) 
oracle

>  <origin>  (46) 
adg

>  <m_score__min__energy>  (46) 
-9.9299999999999997

>  <m_primary>  (46) 
energy

$$$$
46:0
     RDKit          3D

 22 23  0  0  0  0  0  0  0  0999 V2000
   58.1390   32.7600   47.6190 C   0  0  0  0  0  0  0  0  0  0  0  0
   58.1990   32.1240   46.3030 N   0  0  0  0  0  0  0  0  0  0  0  0
   57.8740   32.6590   45.0910 C   0  0  0  0  0  0  0  0  0  0  0  0
   57.4220   34.2250   44.8790 S   0  0  0  0  0  0  0  0  0  0  0  0
   57.9620   31.7510   44.0780 N   0  0  0  0  0  0  0  0  0  0  0  0
   57.7670   31.9610   42.6450 C   0  0  0  0  0  0  0  0  0  0  0  0
   58.3620   30.6210   44.6910 C   0  0  0  0  0  0  0  0  0  0  0  0
   58.6130   29.4130   44.1200 N   0  0  0  0  0  0  0  0  0  0  0  0
   58.9940   28.3720   44.9220 C   0  0  0  0  0  0  0  0  0  0  0  0
   59.1240   28.5500   46.3190 C   0  0  0  0  0  0  0  0  0  0  0  0
   58.8670   29.8080   46.8920 C   0  0  0  0  0  0  0  0  0  0  0  0
   58.4890   30.8360   46.0310 C   0  0  0  0  0  0  0  0  0  0  0  0
   58.2116   31.9906   48.4017 H   0  0  0  0  0  0  0  0  0  0  0  0
   58.9743   33.4682   47.7224 H   0  0  0  0  0  0  0  0  0  0  0  0
   57.1860   33.2995   47.7224 H   0  0  0  0  0  0  0  0  0  0  0  0
   57.0261   32.7589   42.4888 H   0  0  0  0  0  0  0  0  0  0  0  0
   58.7222   32.2522   42.1838 H   0  0  0  0  0  0  0  0  0  0  0  0
   57.4059   31.0299   42.1838 H   0  0  0  0  0  0  0  0  0  0  0  0
   58.5190   29.2700   43.0910 H   0  0  0  0  0  0  0  0  0  0  0  0
   59.2010   27.3879   44.4763 H   0  0  0  0  0  0  0  0  0  0  0  0
   59.4257   27.7056   46.9562 H   0  0  0  0  0  0  0  0  0  0  0  0
   58.9605   29.9737   47.9754 H   0  0  0  0  0  0  0  0  0  0  0  0
  1  2  1  0
  2  3  1  0
  3  4  2  0
  3  5  1  0
  5  6  1  0
  5  7  1  0
  7  8  2  0
  8  9  1  0
  9 10  2  0
 10 11  1  0
 11 12  2  0
 12  2  1  0
 12  7  1  0
  1 13  1  0
  1 14  1  0
  1 15  1  0
  6 16  1  0
  6 17  1  0
  6 18  1  0
  8 19  1  0
  9 20  1  0
 10 21  1  0
 11 22  1  0
M  CHG  1   8   1
M  END
>  <UniqueID>  (47) 
40

>  <SMILES>  (47) 
Cn1c(=S)n(C)c2[nH+]cccc21

>  <Energy>  (47) 
65.37657405911911

>  <Genealogy>  (47) 
Cn1c(=S)n(C)c2[nH+]cccc21 (protonated)
Cn1c(=S)n(C)c2[nH+]cccc21 (3D coordinates assigned)
Cn1c(=S)n(C)c2[nH+]cccc21 (optimized conformer: 65.37657405911911 kcal/mol)

>  <smiles>  (47) 
Cn1c(=S)n(C)c2ncccc21

>  <score_type>  (47) 
oracle

>  <origin>  (47) 
adg

>  <m_score__min__energy>  (47) 
-3.3900000000000001

>  <m_primary>  (47) 
energy

$$$$
