0:0
     RDKit          3D

 65 68  0  0  1  0  0  0  0  0999 V2000
   56.4730   19.9290   45.3200 C   0  0  0  0  0  0  0  0  0  0  0  0
   56.1020   21.2020   44.7360 N   0  0  0  0  0  0  0  0  0  0  0  0
   55.3100   21.9240   45.7440 C   0  0  0  0  0  0  0  0  0  0  0  0
   54.5240   22.9640   44.9350 C   0  0  0  0  0  0  0  0  0  0  0  0
   55.1790   24.2990   45.0730 C   0  0  0  0  0  0  0  0  0  0  0  0
   56.4670   24.2460   44.4020 N   0  0  0  0  0  0  0  0  0  0  0  0
   57.2870   25.3750   44.5750 C   0  0  0  0  0  0  0  0  0  0  0  0
   57.6740   26.0500   43.4130 C   0  0  0  0  0  0  0  0  0  0  0  0
   58.4770   27.1690   43.4490 C   0  0  0  0  0  0  0  0  0  0  0  0
   58.9170   27.6460   44.6600 C   0  0  0  0  0  0  0  0  0  0  0  0
   59.7480   28.7920   44.8030 N   0  0  0  0  0  0  0  0  0  0  0  0
   59.3300   29.9950   44.9190 C   0  0  0  0  0  0  0  0  0  0  0  0
   58.4610   30.4460   43.9910 N   0  0  0  0  0  0  0  0  0  0  0  0
   57.9940   31.7110   44.0750 C   0  0  0  0  0  0  0  0  0  0  0  0
   58.4300   32.5150   45.1250 C   0  0  0  0  0  0  0  0  0  0  0  0
   57.8130   34.1370   45.1970 Cl  0  0  0  0  0  0  0  0  0  0  0  0
   59.3180   32.0460   46.0680 C   0  0  0  0  0  0  0  0  0  0  0  0
   59.7340   32.7920   47.0640 N   0  0  0  0  0  0  0  0  0  0  0  0
   61.1260   32.8270   47.3290 C   0  0  0  0  0  0  0  0  0  0  0  0
   61.8380   33.8610   46.7190 C   0  0  0  0  0  0  0  0  0  0  0  0
   63.1980   33.9780   46.8990 C   0  0  0  0  0  0  0  0  0  0  0  0
   63.8210   33.0440   47.6940 C   0  0  0  0  0  0  0  0  0  0  0  0
   63.1070   32.0280   48.2920 C   0  0  0  0  0  0  0  0  0  0  0  0
   61.7310   31.8850   48.1270 C   0  0  0  0  0  0  0  0  0  0  0  0
   60.8820   30.5890   48.9210 S   0  0  0  0  0  0  0  0  0  0  0  0
   60.7710   29.3960   47.9950 O   0  0  0  0  0  0  0  0  0  0  0  0
   61.7020   30.2000   50.1460 O   0  0  0  0  0  0  0  0  0  0  0  0
   59.3230   30.9970   49.4260 N   0  0  0  0  0  0  0  0  0  0  0  0
   58.5140   29.9590   49.9470 C   0  0  0  0  0  0  0  0  0  0  0  0
   59.1650   32.2420   50.0830 C   0  0  0  0  0  0  0  0  0  0  0  0
   59.7570   30.7700   45.9400 N   0  0  0  0  0  0  0  0  0  0  0  0
   58.5340   26.9770   45.8260 C   0  0  0  0  0  0  0  0  0  0  0  0
   57.7270   25.8530   45.7840 C   0  0  0  0  0  0  0  0  0  0  0  0
   57.2500   25.0210   47.2380 Cl  0  0  0  0  0  0  0  0  0  0  0  0
   57.0160   23.1880   43.5790 C   0  0  0  0  0  0  0  0  0  0  0  0
   57.2730   21.9550   44.4060 C   0  0  0  0  0  0  0  0  0  0  0  0
   56.4499   20.0082   46.4169 H   0  0  0  0  0  0  0  0  0  0  0  0
   55.7631   19.1549   44.9932 H   0  0  0  0  0  0  0  0  0  0  0  0
   57.4876   19.6575   44.9932 H   0  0  0  0  0  0  0  0  0  0  0  0
   54.6262   21.2387   46.2663 H   0  0  0  0  0  0  0  0  0  0  0  0
   55.9379   22.3835   46.5216 H   0  0  0  0  0  0  0  0  0  0  0  0
   54.5099   22.6701   43.8751 H   0  0  0  0  0  0  0  0  0  0  0  0
   53.4925   23.0202   45.3131 H   0  0  0  0  0  0  0  0  0  0  0  0
   54.5492   25.0722   44.6089 H   0  0  0  0  0  0  0  0  0  0  0  0
   55.3150   24.5467   46.1361 H   0  0  0  0  0  0  0  0  0  0  0  0
   57.3261   25.6755   42.4390 H   0  0  0  0  0  0  0  0  0  0  0  0
   58.7635   27.6763   42.5159 H   0  0  0  0  0  0  0  0  0  0  0  0
   58.1420   29.8290   43.2050 H   0  0  0  0  0  0  0  0  0  0  0  0
   57.2839   32.0979   43.3292 H   0  0  0  0  0  0  0  0  0  0  0  0
   61.3074   34.5895   46.0883 H   0  0  0  0  0  0  0  0  0  0  0  0
   63.7669   34.7905   46.4234 H   0  0  0  0  0  0  0  0  0  0  0  0
   64.9072   33.1091   47.8551 H   0  0  0  0  0  0  0  0  0  0  0  0
   63.6432   31.3035   48.9226 H   0  0  0  0  0  0  0  0  0  0  0  0
   58.5391   29.9912   51.0462 H   0  0  0  0  0  0  0  0  0  0  0  0
   57.4787   30.0917   49.5998 H   0  0  0  0  0  0  0  0  0  0  0  0
   58.8955   28.9874   49.5998 H   0  0  0  0  0  0  0  0  0  0  0  0
   59.1847   32.0871   51.1719 H   0  0  0  0  0  0  0  0  0  0  0  0
   59.9848   32.9159   49.7937 H   0  0  0  0  0  0  0  0  0  0  0  0
   58.2028   32.6898   49.7937 H   0  0  0  0  0  0  0  0  0  0  0  0
   60.4340   30.3540   46.6260 H   0  0  0  0  0  0  0  0  0  0  0  0
   58.8819   27.3524   46.7997 H   0  0  0  0  0  0  0  0  0  0  0  0
   56.3018   22.9445   42.7786 H   0  0  0  0  0  0  0  0  0  0  0  0
   57.9676   23.5311   43.1470 H   0  0  0  0  0  0  0  0  0  0  0  0
   57.9540   21.3002   43.8425 H   0  0  0  0  0  0  0  0  0  0  0  0
   57.6976   22.3030   45.3592 H   0  0  0  0  0  0  0  0  0  0  0  0
  1  2  1  0
  2  3  1  0
  3  4  1  0
  4  5  1  0
  5  6  1  0
  6  7  1  0
  7  8  2  0
  8  9  1  0
  9 10  2  0
 10 11  1  0
 11 12  2  0
 12 13  1  0
 13 14  1  0
 14 15  2  0
 15 16  1  0
 15 17  1  0
 17 18  2  0
 18 19  1  0
 19 20  2  0
 20 21  1  0
 21 22  2  0
 22 23  1  0
 23 24  2  0
 24 25  1  0
 25 26  2  0
 25 27  2  0
 25 28  1  0
 28 29  1  0
 28 30  1  0
 17 31  1  0
 10 32  1  0
 32 33  2  0
 33 34  1  0
  6 35  1  0
 35 36  1  0
 36  2  1  0
 33  7  1  0
 31 12  1  0
 24 19  1  0
  1 37  1  0
  1 38  1  0
  1 39  1  0
  3 40  1  0
  3 41  1  0
  4 42  1  0
  4 43  1  0
  5 44  1  0
  5 45  1  0
  8 46  1  0
  9 47  1  0
 13 48  1  0
 14 49  1  0
 20 50  1  0
 21 51  1  0
 22 52  1  0
 23 53  1  0
 29 54  1  0
 29 55  1  0
 29 56  1  0
 30 57  1  0
 30 58  1  0
 30 59  1  0
 31 60  1  0
 32 61  1  0
 35 62  1  0
 35 63  1  0
 36 64  1  0
 36 65  1  0
M  END
>  <smiles>  (1) 
CN1CCCN(c2ccc(N=c3[nH]cc(Cl)c(=Nc4ccccc4S(=O)(=O)N(C)C)[nH]3)cc2Cl)CC1

>  <score_type>  (1) 
oracle

>  <origin>  (1) 
adg

>  <m_score__min__energy>  (1) 
-7.75

>  <m_primary>  (1) 
energy

$$$$
1:0
     RDKit          3D

 57 61  0  0  0  0  0  0  0  0999 V2000
   59.8300   33.1040   49.6490 O   0  0  0  0  0  0  0  0  0  0  0  0
   60.3990   33.4430   48.5710 C   0  0  0  0  0  0  0  0  0  0  0  0
   59.5940   33.8300   47.4410 N   0  0  0  0  0  0  0  0  0  0  0  0
   59.5040   35.2540   47.0760 C   0  0  0  0  0  0  0  0  0  0  0  0
   59.6000   35.4150   45.5540 C   0  0  0  0  0  0  0  0  0  0  0  0
   58.4800   34.6260   44.8690 C   0  0  0  0  0  0  0  0  0  0  0  0
   58.4280   33.1910   45.3480 C   0  0  0  0  0  0  0  0  0  0  0  0
   57.7730   32.2300   44.5620 C   0  0  0  0  0  0  0  0  0  0  0  0
   57.5740   30.9270   45.0440 C   0  0  0  0  0  0  0  0  0  0  0  0
   56.6400   29.7650   44.1040 S   0  0  0  0  0  0  0  0  0  0  0  0
   55.3960   29.3610   44.8450 O   0  0  0  0  0  0  0  0  0  0  0  0
   56.2380   30.3970   42.8000 O   0  0  0  0  0  0  0  0  0  0  0  0
   57.6280   28.3760   43.7740 N   0  0  0  0  0  0  0  0  0  0  0  0
   58.4050   27.7340   44.7930 C   0  0  0  0  0  0  0  0  0  0  0  0
   59.7120   28.1860   45.0420 C   0  0  0  0  0  0  0  0  0  0  0  0
   60.4650   27.6280   46.0860 C   0  0  0  0  0  0  0  0  0  0  0  0
   59.9150   26.6190   46.8900 C   0  0  0  0  0  0  0  0  0  0  0  0
   58.6200   26.1540   46.6340 C   0  0  0  0  0  0  0  0  0  0  0  0
   57.8810   26.6770   45.5610 C   0  0  0  0  0  0  0  0  0  0  0  0
   56.6260   26.1260   45.2730 O   0  0  0  0  0  0  0  0  0  0  0  0
   56.1780   24.9140   45.8980 C   0  0  0  0  0  0  0  0  0  0  0  0
   56.6410   24.8760   47.3650 C   0  0  0  0  0  0  0  0  0  0  0  0
   58.0450   25.1660   47.4380 O   0  0  0  0  0  0  0  0  0  0  0  0
   58.0330   30.5830   46.3220 C   0  0  0  0  0  0  0  0  0  0  0  0
   58.6980   31.5260   47.1090 C   0  0  0  0  0  0  0  0  0  0  0  0
   58.9120   32.8370   46.6320 C   0  0  0  0  0  0  0  0  0  0  0  0
   61.8440   33.4610   48.4860 N   0  0  0  0  0  0  0  0  0  0  0  0
   62.4100   32.3150   49.2260 C   0  0  0  0  0  0  0  0  0  0  0  0
   63.9520   32.2710   49.0930 C   0  0  0  0  0  0  0  0  0  0  0  0
   64.4410   33.2550   48.1990 O   0  0  0  0  0  0  0  0  0  0  0  0
   63.7890   33.1290   46.9500 C   0  0  0  0  0  0  0  0  0  0  0  0
   62.2800   33.4470   47.0710 C   0  0  0  0  0  0  0  0  0  0  0  0
   58.5425   35.6589   47.4248 H   0  0  0  0  0  0  0  0  0  0  0  0
   60.3337   35.8000   47.5488 H   0  0  0  0  0  0  0  0  0  0  0  0
   59.5062   36.4798   45.2942 H   0  0  0  0  0  0  0  0  0  0  0  0
   60.5722   35.0303   45.2121 H   0  0  0  0  0  0  0  0  0  0  0  0
   57.5172   35.1100   45.0898 H   0  0  0  0  0  0  0  0  0  0  0  0
   58.6801   34.6180   43.7874 H   0  0  0  0  0  0  0  0  0  0  0  0
   57.4122   32.5007   43.5587 H   0  0  0  0  0  0  0  0  0  0  0  0
   60.1461   28.9798   44.4164 H   0  0  0  0  0  0  0  0  0  0  0  0
   61.4891   27.9827   46.2744 H   0  0  0  0  0  0  0  0  0  0  0  0
   60.4997   26.1944   47.7193 H   0  0  0  0  0  0  0  0  0  0  0  0
   55.0795   24.8698   45.8615 H   0  0  0  0  0  0  0  0  0  0  0  0
   56.6041   24.0528   45.3625 H   0  0  0  0  0  0  0  0  0  0  0  0
   56.0823   25.6260   47.9441 H   0  0  0  0  0  0  0  0  0  0  0  0
   56.4544   23.8744   47.7796 H   0  0  0  0  0  0  0  0  0  0  0  0
   57.8690   29.5659   46.7074 H   0  0  0  0  0  0  0  0  0  0  0  0
   59.0582   31.2444   48.1095 H   0  0  0  0  0  0  0  0  0  0  0  0
   62.1960   34.3440   48.9350 H   0  0  0  0  0  0  0  0  0  0  0  0
   62.1438   32.4074   50.2893 H   0  0  0  0  0  0  0  0  0  0  0  0
   61.9966   31.3877   48.8026 H   0  0  0  0  0  0  0  0  0  0  0  0
   64.3979   32.4402   50.0842 H   0  0  0  0  0  0  0  0  0  0  0  0
   64.2280   31.2844   48.6926 H   0  0  0  0  0  0  0  0  0  0  0  0
   64.2466   33.8280   46.2345 H   0  0  0  0  0  0  0  0  0  0  0  0
   63.8991   32.0909   46.6032 H   0  0  0  0  0  0  0  0  0  0  0  0
   62.0852   34.4341   46.6264 H   0  0  0  0  0  0  0  0  0  0  0  0
   61.7170   32.6637   46.5424 H   0  0  0  0  0  0  0  0  0  0  0  0
  1  2  2  0
  2  3  1  0
  3  4  1  0
  4  5  1  0
  5  6  1  0
  6  7  1  0
  7  8  2  0
  8  9  1  0
  9 10  1  0
 10 11  2  0
 10 12  2  0
 10 13  1  0
 13 14  1  0
 14 15  2  0
 15 16  1  0
 16 17  2  0
 17 18  1  0
 18 19  2  0
 19 20  1  0
 20 21  1  0
 21 22  1  0
 22 23  1  0
  9 24  2  0
 24 25  1  0
 25 26  2  0
  2 27  1  0
 27 28  1  0
 28 29  1  0
 29 30  1  0
 30 31  1  0
 31 32  1  0
 26  3  1  0
 32 27  1  0
 26  7  1  0
 19 14  1  0
 23 18  1  0
  4 33  1  0
  4 34  1  0
  5 35  1  0
  5 36  1  0
  6 37  1  0
  6 38  1  0
  8 39  1  0
 15 40  1  0
 16 41  1  0
 17 42  1  0
 21 43  1  0
 21 44  1  0
 22 45  1  0
 22 46  1  0
 24 47  1  0
 25 48  1  0
 27 49  1  0
 28 50  1  0
 28 51  1  0
 29 52  1  0
 29 53  1  0
 31 54  1  0
 31 55  1  0
 32 56  1  0
 32 57  1  0
M  CHG  2  13  -1  27   1
M  END
>  <UniqueID>  (2) 
1

>  <SMILES>  (2) 
O=C(N1CCCc2cc(S(=O)(=O)[N-]c3cccc4c3OCCO4)ccc21)[NH+]1CCOCC1

>  <Energy>  (2) 
84.89297362017604

>  <Genealogy>  (2) 
O=C(N1CCCc2cc(S(=O)(=O)[N-]c3cccc4c3OCCO4)ccc21)[NH+]1CCOCC1 (protonated)
O=C(N1CCCc2cc(S(=O)(=O)[N-]c3cccc4c3OCCO4)ccc21)[NH+]1CCOCC1 (3D coordinates assigned)
O=C(N1CCCc2cc(S(=O)(=O)[N-]c3cccc4c3OCCO4)ccc21)[NH+]1CCOCC1 (nonaromatic ring conformer: 84.89297362017604 kcal/mol)

>  <smiles>  (2) 
O=C(N1CCOCC1)N1CCCc2cc(S(=O)(=O)Nc3cccc4c3OCCO4)ccc21

>  <score_type>  (2) 
oracle

>  <origin>  (2) 
adg

>  <m_score__min__energy>  (2) 
-11.130000000000001

>  <m_primary>  (2) 
energy

$$$$
2:0
     RDKit          3D

 48 51  0  0  0  0  0  0  0  0999 V2000
   59.0301   35.9133   45.5313 H   0  0  0  0  0  0  0  0  0  0  0  0
   58.8540   34.8410   45.7020 C   0  0  0  0  0  0  0  0  0  0  0  0
   59.8320   34.0760   46.2750 N   0  0  0  0  0  0  0  0  0  0  0  0
   59.5940   32.7540   46.4710 C   0  0  0  0  0  0  0  0  0  0  0  0
   58.4200   32.1660   46.1300 C   0  0  0  0  0  0  0  0  0  0  0  0
   58.4360   30.8640   46.4610 N   0  0  0  0  0  0  0  0  0  0  0  0
   59.6730   30.7030   47.0050 C   0  0  0  0  0  0  0  0  0  0  0  0
   60.2230   29.1090   47.6290 S   0  0  0  0  0  0  0  0  0  0  0  0
   58.5330   28.4540   47.9070 C   0  0  0  0  0  0  0  0  0  0  0  0
   57.8180   29.2882   47.8543 H   0  0  0  0  0  0  0  0  0  0  0  0
   58.5191   27.9722   48.8958 H   0  0  0  0  0  0  0  0  0  0  0  0
   58.1420   27.4160   46.8850 C   0  0  0  0  0  0  0  0  0  0  0  0
   58.8220   26.3590   46.7800 O   0  0  0  0  0  0  0  0  0  0  0  0
   57.0170   27.5810   46.0040 N   0  0  0  0  0  0  0  0  0  0  0  0
   56.7740   28.5530   45.1760 C   0  0  0  0  0  0  0  0  0  0  0  0
   55.6990   29.3710   45.2380 N   0  0  0  0  0  0  0  0  0  0  0  0
   55.6820   30.2830   44.2670 N   0  0  0  0  0  0  0  0  0  0  0  0
   56.7360   30.1880   43.4260 C   0  0  0  0  0  0  0  0  0  0  0  0
   56.9780   31.1340   42.2940 C   0  0  0  0  0  0  0  0  0  0  0  0
   56.0712   31.7328   42.1232 H   0  0  0  0  0  0  0  0  0  0  0  0
   57.2258   30.5532   41.3933 H   0  0  0  0  0  0  0  0  0  0  0  0
   58.1410   32.0660   42.6130 C   0  0  0  0  0  0  0  0  0  0  0  0
   58.2514   32.1545   43.7039 H   0  0  0  0  0  0  0  0  0  0  0  0
   59.0671   31.6572   42.1827 H   0  0  0  0  0  0  0  0  0  0  0  0
   57.9438   33.0590   42.1827 H   0  0  0  0  0  0  0  0  0  0  0  0
   57.7770   28.9400   43.8820 S   0  0  0  0  0  0  0  0  0  0  0  0
   60.4160   31.8520   47.0290 N   0  0  0  0  0  0  0  0  0  0  0  0
   61.7340   32.1260   47.6270 C   0  0  0  0  0  0  0  0  0  0  0  0
   62.2986   31.1820   47.6311 H   0  0  0  0  0  0  0  0  0  0  0  0
   61.6160   32.5720   49.1050 C   0  0  0  0  0  0  0  0  0  0  0  0
   60.6658   33.1113   49.2326 H   0  0  0  0  0  0  0  0  0  0  0  0
   61.6626   31.6646   49.7250 H   0  0  0  0  0  0  0  0  0  0  0  0
   62.7670   33.4940   49.5550 C   0  0  0  0  0  0  0  0  0  0  0  0
   62.5027   34.5358   49.3211 H   0  0  0  0  0  0  0  0  0  0  0  0
   62.9132   33.3606   50.6370 H   0  0  0  0  0  0  0  0  0  0  0  0
   64.0780   33.1420   48.8460 C   0  0  0  0  0  0  0  0  0  0  0  0
   64.8727   33.8048   49.2191 H   0  0  0  0  0  0  0  0  0  0  0  0
   64.3073   32.0874   49.0589 H   0  0  0  0  0  0  0  0  0  0  0  0
   63.9690   33.3070   47.3150 C   0  0  0  0  0  0  0  0  0  0  0  0
   64.3190   34.3150   47.0478 H   0  0  0  0  0  0  0  0  0  0  0  0
   64.5846   32.5170   46.8602 H   0  0  0  0  0  0  0  0  0  0  0  0
   62.5350   33.1300   46.7770 C   0  0  0  0  0  0  0  0  0  0  0  0
   62.0231   34.1034   46.7965 H   0  0  0  0  0  0  0  0  0  0  0  0
   62.5969   32.7410   45.7499 H   0  0  0  0  0  0  0  0  0  0  0  0
   57.3900   32.8950   45.5470 C   0  0  0  0  0  0  0  0  0  0  0  0
   56.4372   32.4204   45.2696 H   0  0  0  0  0  0  0  0  0  0  0  0
   57.6180   34.2650   45.3270 C   0  0  0  0  0  0  0  0  0  0  0  0
   56.8373   34.8869   44.8646 H   0  0  0  0  0  0  0  0  0  0  0  0
  1  2  1  0
  2  3  2  0
  3  4  1  0
  4  5  2  0
  5  6  1  0
  6  7  2  0
  7  8  1  0
  8  9  1  0
  9 10  1  0
  9 11  1  0
  9 12  1  0
 12 13  2  0
 12 14  1  0
 14 15  2  0
 15 16  1  0
 16 17  1  0
 17 18  2  0
 18 19  1  0
 19 20  1  0
 19 21  1  0
 19 22  1  0
 22 23  1  0
 22 24  1  0
 22 25  1  0
 18 26  1  0
  7 27  1  0
 27 28  1  0
 28 29  1  0
 28 30  1  0
 30 31  1  0
 30 32  1  0
 30 33  1  0
 33 34  1  0
 33 35  1  0
 33 36  1  0
 36 37  1  0
 36 38  1  0
 36 39  1  0
 39 40  1  0
 39 41  1  0
 39 42  1  0
 42 43  1  0
 42 44  1  0
  5 45  1  0
 45 46  1  0
 45 47  2  0
 47 48  1  0
 47  2  1  0
 27  4  1  0
 42 28  1  0
 26 15  1  0
M  CHG  1  16  -1
M  END
>  <UniqueID>  (3) 
2

>  <SMILES>  (3) 
CCc1n[n-]/c(=N\C(=O)CSc2nc3cccnc3n2C2CCCCC2)s1

>  <Energy>  (3) 
125.36890632988323

>  <Genealogy>  (3) 
CCc1n[n-]c(=NC(=O)CSc2nc3cccnc3n2C2CCCCC2)s1 (protonated)
CCc1n[n-]/c(=N\C(=O)CSc2nc3cccnc3n2C2CCCCC2)s1 (cis-trans isomerization)
CCc1n[n-]/c(=N\C(=O)CSc2nc3cccnc3n2C2CCCCC2)s1 (3D coordinates assigned)
CCc1n[n-]/c(=N\C(=O)CSc2nc3cccnc3n2C2CCCCC2)s1 (nonaromatic ring conformer: 125.36890632988323 kcal/mol)

>  <smiles>  (3) 
CCc1n[nH]c(=NC(=O)CSc2nc3cccnc3n2C2CCCCC2)s1

>  <score_type>  (3) 
oracle

>  <origin>  (3) 
adg

>  <m_score__min__energy>  (3) 
-11.390000000000001

>  <m_primary>  (3) 
energy

$$$$
3:0
     RDKit          3D

 34 36  0  0  0  0  0  0  0  0999 V2000
   57.5090   26.2890   45.8620 C   0  0  0  0  0  0  0  0  0  0  0  0
   56.1420   26.9020   45.8130 C   0  0  0  0  0  0  0  0  0  0  0  0
   55.1630   26.2450   46.2540 O   0  0  0  0  0  0  0  0  0  0  0  0
   55.9070   28.1950   45.2410 N   0  0  0  0  0  0  0  0  0  0  0  0
   56.7600   29.3450   45.3440 C   0  0  0  0  0  0  0  0  0  0  0  0
   56.5120   30.4530   44.4990 C   0  0  0  0  0  0  0  0  0  0  0  0
   57.3030   31.6130   44.5820 C   0  0  0  0  0  0  0  0  0  0  0  0
   58.3210   31.6370   45.5360 C   0  0  0  0  0  0  0  0  0  0  0  0
   58.5460   30.5840   46.3720 C   0  0  0  0  0  0  0  0  0  0  0  0
   57.7840   29.4210   46.3160 C   0  0  0  0  0  0  0  0  0  0  0  0
   59.5570   30.8590   47.2150 N   0  0  0  0  0  0  0  0  0  0  0  0
   59.9280   32.1180   46.8580 C   0  0  0  0  0  0  0  0  0  0  0  0
   61.0160   32.8360   47.5530 C   0  0  0  0  0  0  0  0  0  0  0  0
   62.3370   32.7160   47.0880 C   0  0  0  0  0  0  0  0  0  0  0  0
   63.3820   33.3700   47.7470 C   0  0  0  0  0  0  0  0  0  0  0  0
   63.1190   34.1360   48.8860 C   0  0  0  0  0  0  0  0  0  0  0  0
   61.8120   34.2440   49.3700 C   0  0  0  0  0  0  0  0  0  0  0  0
   60.7650   33.5910   48.7120 C   0  0  0  0  0  0  0  0  0  0  0  0
   59.1990   32.6140   45.8170 N   0  0  0  0  0  0  0  0  0  0  0  0
   59.3360   33.9020   45.1340 C   0  0  0  0  0  0  0  0  0  0  0  0
   57.8125   26.1529   46.9105 H   0  0  0  0  0  0  0  0  0  0  0  0
   57.4914   25.3126   45.3557 H   0  0  0  0  0  0  0  0  0  0  0  0
   58.2264   26.9516   45.3557 H   0  0  0  0  0  0  0  0  0  0  0  0
   55.6908   30.4063   43.7686 H   0  0  0  0  0  0  0  0  0  0  0  0
   57.1253   32.4716   43.9178 H   0  0  0  0  0  0  0  0  0  0  0  0
   57.9726   28.5861   47.0070 H   0  0  0  0  0  0  0  0  0  0  0  0
   62.5499   32.1033   46.1996 H   0  0  0  0  0  0  0  0  0  0  0  0
   64.4113   33.2817   47.3691 H   0  0  0  0  0  0  0  0  0  0  0  0
   63.9408   34.6542   49.4019 H   0  0  0  0  0  0  0  0  0  0  0  0
   61.6069   34.8432   50.2694 H   0  0  0  0  0  0  0  0  0  0  0  0
   59.7399   33.6685   49.1033 H   0  0  0  0  0  0  0  0  0  0  0  0
   59.4215   34.7055   45.8803 H   0  0  0  0  0  0  0  0  0  0  0  0
   60.2378   33.8890   44.5043 H   0  0  0  0  0  0  0  0  0  0  0  0
   58.4516   34.0790   44.5043 H   0  0  0  0  0  0  0  0  0  0  0  0
  1  2  1  0
  2  3  2  0
  2  4  1  0
  4  5  1  0
  5  6  2  0
  6  7  1  0
  7  8  2  0
  8  9  1  0
  9 10  2  0
  9 11  1  0
 11 12  2  0
 12 13  1  0
 13 14  2  0
 14 15  1  0
 15 16  2  0
 16 17  1  0
 17 18  2  0
 12 19  1  0
 19 20  1  0
 10  5  1  0
 18 13  1  0
 19  8  1  0
  1 21  1  0
  1 22  1  0
  1 23  1  0
  6 24  1  0
  7 25  1  0
 10 26  1  0
 14 27  1  0
 15 28  1  0
 16 29  1  0
 17 30  1  0
 18 31  1  0
 20 32  1  0
 20 33  1  0
 20 34  1  0
M  CHG  1   4  -1
M  END
>  <UniqueID>  (4) 
3

>  <SMILES>  (4) 
CC(=O)[N-]c1ccc2c(c1)nc(-c1ccccc1)n2C

>  <Energy>  (4) 
81.77417672495862

>  <Genealogy>  (4) 
CC(=O)[N-]c1ccc2c(c1)nc(-c1ccccc1)n2C (protonated)
CC(=O)[N-]c1ccc2c(c1)nc(-c1ccccc1)n2C (3D coordinates assigned)
CC(=O)[N-]c1ccc2c(c1)nc(-c1ccccc1)n2C (optimized conformer: 81.77417672495862 kcal/mol)

>  <smiles>  (4) 
CC(=O)Nc1ccc2c(c1)nc(-c1ccccc1)n2C

>  <score_type>  (4) 
oracle

>  <origin>  (4) 
adg

>  <m_score__min__energy>  (4) 
-9.2400000000000002

>  <m_primary>  (4) 
energy

$$$$
4:0
     RDKit          3D

 35 36  0  0  0  0  0  0  0  0999 V2000
   60.6990   33.4260   50.1060 C   0  0  0  0  0  0  0  0  0  0  0  0
   61.5560   33.2450   48.8960 C   0  0  0  0  0  0  0  0  0  0  0  0
   62.7720   32.7570   48.9210 O   0  0  0  0  0  0  0  0  0  0  0  0
   63.2670   32.7520   47.7170 N   0  0  0  0  0  0  0  0  0  0  0  0
   62.3820   33.2370   46.8590 N   0  0  0  0  0  0  0  0  0  0  0  0
   61.2830   33.5450   47.5730 C   0  0  0  0  0  0  0  0  0  0  0  0
   60.0680   34.1340   46.9800 C   0  0  0  0  0  0  0  0  0  0  0  0
   59.1010   34.4210   47.7360 O   0  0  0  0  0  0  0  0  0  0  0  0
   59.9830   34.4170   45.5760 N   0  0  0  0  0  0  0  0  0  0  0  0
   58.7150   34.8130   44.9580 C   0  0  0  0  0  0  0  0  0  0  0  0
   57.6880   33.6600   44.8990 C   0  0  2  0  0  0  0  0  0  0  0  0
   57.3500   33.2190   46.2560 N   0  0  0  0  0  0  0  0  0  0  0  0
   58.1360   32.4650   44.0230 C   0  0  0  0  0  0  0  0  0  0  0  0
   57.4620   31.1790   44.4240 C   0  0  0  0  0  0  0  0  0  0  0  0
   58.0290   30.3630   45.4170 C   0  0  0  0  0  0  0  0  0  0  0  0
   57.3870   29.1840   45.8110 C   0  0  0  0  0  0  0  0  0  0  0  0
   56.1740   28.8140   45.2210 C   0  0  0  0  0  0  0  0  0  0  0  0
   55.5380   27.6430   45.6150 O   0  0  0  0  0  0  0  0  0  0  0  0
   55.6010   29.6240   44.2360 C   0  0  0  0  0  0  0  0  0  0  0  0
   56.2390   30.8030   43.8400 C   0  0  0  0  0  0  0  0  0  0  0  0
   61.3106   33.2968   51.0111 H   0  0  0  0  0  0  0  0  0  0  0  0
   60.2633   34.4360   50.0990 H   0  0  0  0  0  0  0  0  0  0  0  0
   59.8921   32.6785   50.0990 H   0  0  0  0  0  0  0  0  0  0  0  0
   60.8560   34.3880   45.0080 H   0  0  0  0  0  0  0  0  0  0  0  0
   58.2826   35.6385   45.5425 H   0  0  0  0  0  0  0  0  0  0  0  0
   58.9326   35.1141   43.9226 H   0  0  0  0  0  0  0  0  0  0  0  0
   56.7916   34.0646   44.4063 H   0  0  0  0  0  0  0  0  0  0  0  0
   57.1290   34.0460   46.8550 H   0  0  0  0  0  0  0  0  0  0  0  0
   58.1900   32.7550   46.6740 H   0  0  0  0  0  0  0  0  0  0  0  0
   57.8875   32.6826   42.9738 H   0  0  0  0  0  0  0  0  0  0  0  0
   59.2196   32.3344   44.1600 H   0  0  0  0  0  0  0  0  0  0  0  0
   58.9809   30.6520   45.8864 H   0  0  0  0  0  0  0  0  0  0  0  0
   57.8371   28.5467   46.5864 H   0  0  0  0  0  0  0  0  0  0  0  0
   54.6470   29.3331   43.7721 H   0  0  0  0  0  0  0  0  0  0  0  0
   55.7824   31.4398   43.0680 H   0  0  0  0  0  0  0  0  0  0  0  0
  1  2  1  0
  2  3  1  0
  3  4  1  0
  4  5  2  0
  5  6  1  0
  6  7  1  0
  7  8  2  0
  7  9  1  0
  9 10  1  0
 10 11  1  0
 11 12  1  0
 11 13  1  0
 13 14  1  0
 14 15  2  0
 15 16  1  0
 16 17  2  0
 17 18  1  0
 17 19  1  0
 19 20  2  0
  6  2  2  0
 20 14  1  0
  1 21  1  0
  1 22  1  0
  1 23  1  0
  9 24  1  0
 10 25  1  0
 10 26  1  0
 11 27  1  6
 12 28  1  0
 12 29  1  0
 13 30  1  0
 13 31  1  0
 15 32  1  0
 16 33  1  0
 19 34  1  0
 20 35  1  0
M  CHG  1  18  -1
M  END
>  <UniqueID>  (5) 
4

>  <SMILES>  (5) 
Cc1onnc1C(=O)NC[C@H](N)Cc1ccc([O-])cc1

>  <Energy>  (5) 
66.56549136862263

>  <Genealogy>  (5) 
Cc1onnc1C(=O)NCC(N)Cc1ccc([O-])cc1 (protonated)
Cc1onnc1C(=O)NC[C@H](N)Cc1ccc([O-])cc1 (chirality)
Cc1onnc1C(=O)NC[C@H](N)Cc1ccc([O-])cc1 (3D coordinates assigned)
Cc1onnc1C(=O)NC[C@H](N)Cc1ccc([O-])cc1 (optimized conformer: 66.56549136862263 kcal/mol)

>  <smiles>  (5) 
Cc1onnc1C(=O)NCC(N)Cc1ccc(O)cc1

>  <score_type>  (5) 
oracle

>  <origin>  (5) 
adg

>  <m_score__min__energy>  (5) 
-9.7699999999999996

>  <m_primary>  (5) 
energy

$$$$
5:0
     RDKit          3D

 38 41  0  0  1  0  0  0  0  0999 V2000
   57.1140   30.8690   42.7510 O   0  0  0  0  0  0  0  0  0  0  0  0
   57.4560   30.7000   44.2180 S   0  0  0  0  0  0  0  0  0  0  0  0
   56.1000   30.3550   44.8390 O   0  0  0  0  0  0  0  0  0  0  0  0
   58.4440   29.3580   44.5430 N   0  0  0  0  0  0  0  0  0  0  0  0
   58.1820   28.3770   45.3020 C   0  0  0  0  0  0  0  0  0  0  0  0
   57.0010   27.7570   45.1590 N   0  0  0  0  0  0  0  0  0  0  0  0
   56.6340   26.7140   45.9130 C   0  0  0  0  0  0  0  0  0  0  0  0
   55.5540   25.9220   45.9940 N   0  0  0  0  0  0  0  0  0  0  0  0
   55.7580   25.0430   46.9430 O   0  0  0  0  0  0  0  0  0  0  0  0
   56.9370   25.2460   47.4760 N   0  0  0  0  0  0  0  0  0  0  0  0
   57.5380   26.2860   46.8690 C   0  0  0  0  0  0  0  0  0  0  0  0
   58.7370   26.9060   47.0230 N   0  0  0  0  0  0  0  0  0  0  0  0
   59.0880   27.9570   46.2510 C   0  0  0  0  0  0  0  0  0  0  0  0
   60.2320   28.5320   46.4130 N   0  0  0  0  0  0  0  0  0  0  0  0
   60.3100   29.7230   47.1930 C   0  0  0  0  0  0  0  0  0  0  0  0
   59.4510   29.9550   48.2700 C   0  0  0  0  0  0  0  0  0  0  0  0
   59.5760   31.1140   48.9760 C   0  0  0  0  0  0  0  0  0  0  0  0
   60.5250   32.0570   48.6550 C   0  0  0  0  0  0  0  0  0  0  0  0
   60.7190   33.5580   49.5360 Cl  0  0  0  0  0  0  0  0  0  0  0  0
   61.3620   31.8160   47.5960 C   0  0  0  0  0  0  0  0  0  0  0  0
   62.5960   32.9840   47.1340 Cl  0  0  0  0  0  0  0  0  0  0  0  0
   61.2840   30.6660   46.8450 C   0  0  0  0  0  0  0  0  0  0  0  0
   57.9360   32.1840   44.9760 C   0  0  0  0  0  0  0  0  0  0  0  0
   58.5080   33.2420   44.2990 C   0  0  0  0  0  0  0  0  0  0  0  0
   58.8890   34.4190   44.9110 C   0  0  0  0  0  0  0  0  0  0  0  0
   58.7120   34.6000   46.2660 C   0  0  0  0  0  0  0  0  0  0  0  0
   58.1430   33.5590   46.9700 C   0  0  0  0  0  0  0  0  0  0  0  0
   57.7640   32.3850   46.3540 C   0  0  0  0  0  0  0  0  0  0  0  0
   56.3510   28.0930   44.4450 H   0  0  0  0  0  0  0  0  0  0  0  0
   59.3800   26.5240   47.7750 H   0  0  0  0  0  0  0  0  0  0  0  0
   58.6857   29.2138   48.5439 H   0  0  0  0  0  0  0  0  0  0  0  0
   58.9009   31.3003   49.8242 H   0  0  0  0  0  0  0  0  0  0  0  0
   61.9649   30.4932   45.9986 H   0  0  0  0  0  0  0  0  0  0  0  0
   58.6686   33.1420   43.2154 H   0  0  0  0  0  0  0  0  0  0  0  0
   59.3395   35.2226   44.3100 H   0  0  0  0  0  0  0  0  0  0  0  0
   59.0114   35.5339   46.7642 H   0  0  0  0  0  0  0  0  0  0  0  0
   57.9872   33.6686   48.0534 H   0  0  0  0  0  0  0  0  0  0  0  0
   57.3145   31.5841   46.9594 H   0  0  0  0  0  0  0  0  0  0  0  0
  1  2  2  0
  2  3  2  0
  2  4  1  0
  4  5  2  0
  5  6  1  0
  6  7  1  0
  7  8  2  0
  8  9  1  0
  9 10  1  0
 10 11  2  0
 11 12  1  0
 12 13  1  0
 13 14  2  0
 14 15  1  0
 15 16  2  0
 16 17  1  0
 17 18  2  0
 18 19  1  0
 18 20  1  0
 20 21  1  0
 20 22  2  0
  2 23  1  0
 23 24  2  0
 24 25  1  0
 25 26  2  0
 26 27  1  0
 27 28  2  0
 13  5  1  0
 22 15  1  0
 28 23  1  0
 11  7  1  0
  6 29  1  0
 12 30  1  0
 16 31  1  0
 17 32  1  0
 22 33  1  0
 24 34  1  0
 25 35  1  0
 26 36  1  0
 27 37  1  0
 28 38  1  0
M  END
>  <smiles>  (6) 
O=S(=O)(N=c1[nH]c2nonc2[nH]c1=Nc1ccc(Cl)c(Cl)c1)c1ccccc1

>  <score_type>  (6) 
oracle

>  <origin>  (6) 
adg

>  <m_score__min__energy>  (6) 
-10.32

>  <m_primary>  (6) 
energy

$$$$
6:0
     RDKit          3D

 46 48  0  0  0  0  0  0  0  0999 V2000
   64.4810   32.7310   49.1780 C   0  0  0  0  0  0  0  0  0  0  0  0
   63.5150   32.9940   48.1190 N   0  0  0  0  0  0  0  0  0  0  0  0
   62.2610   32.5100   48.0610 C   0  0  0  0  0  0  0  0  0  0  0  0
   61.6520   33.0480   46.9430 C   0  0  0  0  0  0  0  0  0  0  0  0
   60.2650   32.7790   46.4200 C   0  0  1  0  0  0  0  0  0  0  0  0
   59.5860   31.6610   47.2060 C   0  0  0  0  0  0  0  0  0  0  0  0
   58.7240   32.3600   48.2400 C   0  0  0  0  0  0  0  0  0  0  0  0
   58.5950   33.8070   47.7730 C   0  0  0  0  0  0  0  0  0  0  0  0
   59.4350   33.9830   46.5800 N   0  0  0  0  0  0  0  0  0  0  0  0
   58.7020   34.4150   45.3640 C   0  0  0  0  0  0  0  0  0  0  0  0
   58.5270   33.3550   44.2390 C   0  0  0  0  0  0  0  0  0  0  0  0
   57.4940   32.2480   44.5120 C   0  0  0  0  0  0  0  0  0  0  0  0
   57.8370   30.9850   43.8160 N   0  0  0  0  0  0  0  0  0  0  0  0
   58.2300   29.9010   44.7500 C   0  0  0  0  0  0  0  0  0  0  0  0
   57.0470   28.9860   45.1320 C   0  0  0  0  0  0  0  0  0  0  0  0
   55.8310   29.6970   45.0590 O   0  0  0  0  0  0  0  0  0  0  0  0
   55.5310   30.0130   43.7100 C   0  0  0  0  0  0  0  0  0  0  0  0
   56.7520   30.5380   42.9190 C   0  0  0  0  0  0  0  0  0  0  0  0
   62.6130   33.8590   46.3640 C   0  0  0  0  0  0  0  0  0  0  0  0
   63.7360   33.8190   47.1080 N   0  0  0  0  0  0  0  0  0  0  0  0
   63.9969   32.8628   50.1569 H   0  0  0  0  0  0  0  0  0  0  0  0
   64.8517   31.6992   49.0882 H   0  0  0  0  0  0  0  0  0  0  0  0
   65.3236   33.4324   49.0882 H   0  0  0  0  0  0  0  0  0  0  0  0
   61.8023   31.8109   48.7758 H   0  0  0  0  0  0  0  0  0  0  0  0
   60.3614   32.4911   45.3627 H   0  0  0  0  0  0  0  0  0  0  0  0
   58.9641   31.0452   46.5396 H   0  0  0  0  0  0  0  0  0  0  0  0
   60.3188   30.9868   47.6733 H   0  0  0  0  0  0  0  0  0  0  0  0
   57.7327   31.8863   48.2942 H   0  0  0  0  0  0  0  0  0  0  0  0
   59.1704   32.2993   49.2435 H   0  0  0  0  0  0  0  0  0  0  0  0
   57.5459   34.0257   47.5249 H   0  0  0  0  0  0  0  0  0  0  0  0
   58.9192   34.4929   48.5696 H   0  0  0  0  0  0  0  0  0  0  0  0
   57.6980   34.7373   45.6772 H   0  0  0  0  0  0  0  0  0  0  0  0
   59.3219   35.2077   44.9197 H   0  0  0  0  0  0  0  0  0  0  0  0
   58.2212   33.8827   43.3236 H   0  0  0  0  0  0  0  0  0  0  0  0
   59.4973   32.8430   44.1596 H   0  0  0  0  0  0  0  0  0  0  0  0
   57.4551   32.0577   45.5947 H   0  0  0  0  0  0  0  0  0  0  0  0
   56.5199   32.5911   44.1332 H   0  0  0  0  0  0  0  0  0  0  0  0
   59.0082   29.2886   44.2710 H   0  0  0  0  0  0  0  0  0  0  0  0
   58.5957   30.3742   45.6732 H   0  0  0  0  0  0  0  0  0  0  0  0
   57.0101   28.1330   44.4385 H   0  0  0  0  0  0  0  0  0  0  0  0
   57.1903   28.6297   46.1628 H   0  0  0  0  0  0  0  0  0  0  0  0
   55.1573   29.1054   43.2135 H   0  0  0  0  0  0  0  0  0  0  0  0
   54.7805   30.8171   43.7227 H   0  0  0  0  0  0  0  0  0  0  0  0
   57.1323   29.7315   42.2749 H   0  0  0  0  0  0  0  0  0  0  0  0
   56.4258   31.4017   42.3210 H   0  0  0  0  0  0  0  0  0  0  0  0
   62.4808   34.4440   45.4419 H   0  0  0  0  0  0  0  0  0  0  0  0
  1  2  1  0
  2  3  1  0
  3  4  2  0
  4  5  1  0
  5  6  1  0
  6  7  1  0
  7  8  1  0
  8  9  1  0
  9 10  1  0
 10 11  1  0
 11 12  1  0
 12 13  1  0
 13 14  1  0
 14 15  1  0
 15 16  1  0
 16 17  1  0
 17 18  1  0
  4 19  1  0
 19 20  2  0
 20  2  1  0
  9  5  1  0
 18 13  1  0
  1 21  1  0
  1 22  1  0
  1 23  1  0
  3 24  1  0
  5 25  1  6
  6 26  1  0
  6 27  1  0
  7 28  1  0
  7 29  1  0
  8 30  1  0
  8 31  1  0
 10 32  1  0
 10 33  1  0
 11 34  1  0
 11 35  1  0
 12 36  1  0
 12 37  1  0
 14 38  1  0
 14 39  1  0
 15 40  1  0
 15 41  1  0
 17 42  1  0
 17 43  1  0
 18 44  1  0
 18 45  1  0
 19 46  1  0
M  END
>  <UniqueID>  (7) 
5

>  <SMILES>  (7) 
Cn1cc([C@H]2CCCN2CCCN2CCOCC2)cn1

>  <Energy>  (7) 
93.83063121170346

>  <Genealogy>  (7) 
Cn1cc([C@H]2CCCN2CCCN2CCOCC2)cn1 (chirality)
Cn1cc([C@H]2CCCN2CCCN2CCOCC2)cn1 (3D coordinates assigned)
Cn1cc([C@H]2CCCN2CCCN2CCOCC2)cn1 (nonaromatic ring conformer: 93.83063121170346 kcal/mol)

>  <smiles>  (7) 
Cn1cc(C2CCCN2CCCN2CCOCC2)cn1

>  <score_type>  (7) 
oracle

>  <origin>  (7) 
adg

>  <m_score__min__energy>  (7) 
-7.4199999999999999

>  <m_primary>  (7) 
energy

$$$$
7:0
     RDKit          3D

 59 61  0  0  0  0  0  0  0  0999 V2000
   60.1490   25.8750   46.9208 H   0  0  0  0  0  0  0  0  0  0  0  0
   59.9150   26.9380   47.0800 C   0  0  0  0  0  0  0  0  0  0  0  0
   60.7460   27.6640   47.8420 C   0  0  0  0  0  0  0  0  0  0  0  0
   61.7917   27.3359   47.9356 H   0  0  0  0  0  0  0  0  0  0  0  0
   60.3250   28.8820   48.5610 C   0  0  0  0  0  0  0  0  0  0  0  0
   60.9650   30.0690   48.3890 N   0  0  0  0  0  0  0  0  0  0  0  0
   60.2780   30.8970   49.1980 C   0  0  0  0  0  0  0  0  0  0  0  0
   59.2790   30.2350   49.8170 C   0  0  0  0  0  0  0  0  0  0  0  0
   58.4290   30.8900   50.6890 C   0  0  0  0  0  0  0  0  0  0  0  0
   57.4970   30.2590   51.2610 O   0  0  0  0  0  0  0  0  0  0  0  0
   58.6300   32.2340   50.9100 N   0  0  0  0  0  0  0  0  0  0  0  0
   57.7510   32.9550   51.8550 C   0  0  0  0  0  0  0  0  0  0  0  0
   56.8247   32.3779   51.9925 H   0  0  0  0  0  0  0  0  0  0  0  0
   57.5355   33.9487   51.4353 H   0  0  0  0  0  0  0  0  0  0  0  0
   58.4270   33.1460   53.2210 C   0  0  0  0  0  0  0  0  0  0  0  0
   59.2923   32.4698   53.2843 H   0  0  0  0  0  0  0  0  0  0  0  0
   57.6813   32.9214   53.9978 H   0  0  0  0  0  0  0  0  0  0  0  0
   58.9080   34.5790   53.4390 C   0  0  0  0  0  0  0  0  0  0  0  0
   58.9764   34.7827   54.5178 H   0  0  0  0  0  0  0  0  0  0  0  0
   59.8985   34.7074   52.9781 H   0  0  0  0  0  0  0  0  0  0  0  0
   58.1956   35.2790   52.9781 H   0  0  0  0  0  0  0  0  0  0  0  0
   59.6640   32.8970   50.2640 C   0  0  0  0  0  0  0  0  0  0  0  0
   59.8480   34.1300   50.4730 O   0  0  0  0  0  0  0  0  0  0  0  0
   60.5010   32.2250   49.3960 N   0  0  0  0  0  0  0  0  0  0  0  0
   61.5880   32.9220   48.6830 C   0  0  0  0  0  0  0  0  0  0  0  0
   61.8229   33.8561   49.2143 H   0  0  0  0  0  0  0  0  0  0  0  0
   62.4643   32.2577   48.6542 H   0  0  0  0  0  0  0  0  0  0  0  0
   61.1880   33.2560   47.2390 C   0  0  0  0  0  0  0  0  0  0  0  0
   62.0476   33.7195   46.7328 H   0  0  0  0  0  0  0  0  0  0  0  0
   60.8886   32.3178   46.7490 H   0  0  0  0  0  0  0  0  0  0  0  0
   60.0020   34.2160   47.1690 C   0  0  0  0  0  0  0  0  0  0  0  0
   59.6804   34.4763   48.1882 H   0  0  0  0  0  0  0  0  0  0  0  0
   60.3008   35.1296   46.6342 H   0  0  0  0  0  0  0  0  0  0  0  0
   59.1707   33.7334   46.6342 H   0  0  0  0  0  0  0  0  0  0  0  0
   59.2820   28.9520   49.4320 N   0  0  0  0  0  0  0  0  0  0  0  0
   58.6210   28.2030   49.7340 H   0  0  0  0  0  0  0  0  0  0  0  0
   58.6960   27.4930   46.4400 C   0  0  0  0  0  0  0  0  0  0  0  0
   57.5580   26.6830   46.3510 C   0  0  0  0  0  0  0  0  0  0  0  0
   57.5933   25.6576   46.7476 H   0  0  0  0  0  0  0  0  0  0  0  0
   56.3680   27.1560   45.7630 C   0  0  0  0  0  0  0  0  0  0  0  0
   55.2340   26.3330   45.6690 O   0  0  0  0  0  0  0  0  0  0  0  0
   55.2570   24.9100   45.6360 C   0  0  0  0  0  0  0  0  0  0  0  0
   55.2633   24.5194   46.6643 H   0  0  0  0  0  0  0  0  0  0  0  0
   54.3647   24.5410   45.1091 H   0  0  0  0  0  0  0  0  0  0  0  0
   56.1608   24.5700   45.1091 H   0  0  0  0  0  0  0  0  0  0  0  0
   56.3240   28.4830   45.2640 C   0  0  0  0  0  0  0  0  0  0  0  0
   55.1880   29.0510   44.6540 O   0  0  0  0  0  0  0  0  0  0  0  0
   55.1420   29.7150   43.3960 C   0  0  0  0  0  0  0  0  0  0  0  0
   55.0668   30.8006   43.5569 H   0  0  0  0  0  0  0  0  0  0  0  0
   56.0578   29.4909   42.8294 H   0  0  0  0  0  0  0  0  0  0  0  0
   54.2658   29.3667   42.8294 H   0  0  0  0  0  0  0  0  0  0  0  0
   57.4580   29.3050   45.3700 C   0  0  0  0  0  0  0  0  0  0  0  0
   57.3720   30.6160   44.8740 O   0  0  0  0  0  0  0  0  0  0  0  0
   58.1820   31.7030   45.3110 C   0  0  0  0  0  0  0  0  0  0  0  0
   58.2004   31.7277   46.4106 H   0  0  0  0  0  0  0  0  0  0  0  0
   59.2058   31.5738   44.9300 H   0  0  0  0  0  0  0  0  0  0  0  0
   57.7654   32.6471   44.9300 H   0  0  0  0  0  0  0  0  0  0  0  0
   58.6340   28.8110   45.9610 C   0  0  0  0  0  0  0  0  0  0  0  0
   59.5148   29.4641   46.0490 H   0  0  0  0  0  0  0  0  0  0  0  0
  1  2  1  0
  2  3  2  0
  3  4  1  0
  3  5  1  0
  5  6  2  0
  6  7  1  0
  7  8  2  0
  8  9  1  0
  9 10  2  0
  9 11  1  0
 11 12  1  0
 12 13  1  0
 12 14  1  0
 12 15  1  0
 15 16  1  0
 15 17  1  0
 15 18  1  0
 18 19  1  0
 18 20  1  0
 18 21  1  0
 11 22  1  0
 22 23  2  0
 22 24  1  0
 24 25  1  0
 25 26  1  0
 25 27  1  0
 25 28  1  0
 28 29  1  0
 28 30  1  0
 28 31  1  0
 31 32  1  0
 31 33  1  0
 31 34  1  0
  8 35  1  0
 35 36  1  0
  2 37  1  0
 37 38  2  0
 38 39  1  0
 38 40  1  0
 40 41  1  0
 41 42  1  0
 42 43  1  0
 42 44  1  0
 42 45  1  0
 40 46  2  0
 46 47  1  0
 47 48  1  0
 48 49  1  0
 48 50  1  0
 48 51  1  0
 46 52  1  0
 52 53  1  0
 53 54  1  0
 54 55  1  0
 54 56  1  0
 54 57  1  0
 52 58  2  0
 58 59  1  0
 35  5  1  0
 58 37  1  0
 24  7  1  0
M  END
>  <UniqueID>  (8) 
6

>  <SMILES>  (8) 
CCCn1c(=O)c2[nH]c(/C=C/c3cc(OC)c(OC)c(OC)c3)nc2n(CCC)c1=O

>  <Energy>  (8) 
99.09731948243152

>  <Genealogy>  (8) 
CCCn1c(=O)c2[nH]c(/C=C/c3cc(OC)c(OC)c(OC)c3)nc2n(CCC)c1=O (cis-trans isomerization)
CCCn1c(=O)c2[nH]c(/C=C/c3cc(OC)c(OC)c(OC)c3)nc2n(CCC)c1=O (3D coordinates assigned)
CCCn1c(=O)c2[nH]c(/C=C/c3cc(OC)c(OC)c(OC)c3)nc2n(CCC)c1=O (optimized conformer: 99.09731948243152 kcal/mol)

>  <smiles>  (8) 
CCCn1c(=O)c2[nH]c(C=Cc3cc(OC)c(OC)c(OC)c3)nc2n(CCC)c1=O

>  <score_type>  (8) 
oracle

>  <origin>  (8) 
adg

>  <m_score__min__energy>  (8) 
-7.8099999999999996

>  <m_primary>  (8) 
energy

$$$$
8:0
     RDKit          3D

 40 42  0  0  0  0  0  0  0  0999 V2000
   58.5300   28.0800   44.6530 C   0  0  0  0  0  0  0  0  0  0  0  0
   57.8940   29.4280   44.6100 C   0  0  0  0  0  0  0  0  0  0  0  0
   56.5450   29.7180   44.6570 C   0  0  0  0  0  0  0  0  0  0  0  0
   56.3730   31.0450   44.4950 N   0  0  0  0  0  0  0  0  0  0  0  0
   57.5730   31.5930   44.3640 N   0  0  0  0  0  0  0  0  0  0  0  0
   57.7950   33.0010   44.0500 C   0  0  0  0  0  0  0  0  0  0  0  0
   57.7180   33.9460   45.2720 C   0  0  2  0  0  0  0  0  0  0  0  0
   59.0000   34.7880   45.5740 C   0  0  0  0  0  0  0  0  0  0  0  0
   59.8090   34.3350   46.7260 N   0  0  0  0  0  0  0  0  0  0  0  0
   60.9450   33.4620   46.3680 C   0  0  0  0  0  0  0  0  0  0  0  0
   61.9660   33.4620   47.4680 C   0  0  0  0  0  0  0  0  0  0  0  0
   63.1490   32.7150   47.3580 C   0  0  0  0  0  0  0  0  0  0  0  0
   64.0700   32.7330   48.4070 C   0  0  0  0  0  0  0  0  0  0  0  0
   63.8080   33.4900   49.5490 C   0  0  0  0  0  0  0  0  0  0  0  0
   62.6210   34.2210   49.6270 C   0  0  0  0  0  0  0  0  0  0  0  0
   61.7340   34.1910   48.5960 N   0  0  0  0  0  0  0  0  0  0  0  0
   58.9800   33.8030   47.8170 C   0  0  0  0  0  0  0  0  0  0  0  0
   57.9900   32.7680   47.2950 C   0  0  0  0  0  0  0  0  0  0  0  0
   57.0810   33.3490   46.3910 O   0  0  0  0  0  0  0  0  0  0  0  0
   58.5200   30.6360   44.3940 C   0  0  0  0  0  0  0  0  0  0  0  0
   58.6736   27.7756   45.7002 H   0  0  0  0  0  0  0  0  0  0  0  0
   57.8805   27.3518   44.1452 H   0  0  0  0  0  0  0  0  0  0  0  0
   59.5050   28.1182   44.1452 H   0  0  0  0  0  0  0  0  0  0  0  0
   55.7393   28.9835   44.8033 H   0  0  0  0  0  0  0  0  0  0  0  0
   58.7940   33.1002   43.6003 H   0  0  0  0  0  0  0  0  0  0  0  0
   56.9868   33.3025   43.3675 H   0  0  0  0  0  0  0  0  0  0  0  0
   57.0329   34.7482   44.9603 H   0  0  0  0  0  0  0  0  0  0  0  0
   59.6403   34.7608   44.6800 H   0  0  0  0  0  0  0  0  0  0  0  0
   58.6422   35.7945   45.8366 H   0  0  0  0  0  0  0  0  0  0  0  0
   60.5797   32.4363   46.2115 H   0  0  0  0  0  0  0  0  0  0  0  0
   61.4110   33.8397   45.4460 H   0  0  0  0  0  0  0  0  0  0  0  0
   63.3486   32.1210   46.4539 H   0  0  0  0  0  0  0  0  0  0  0  0
   65.0007   32.1513   48.3331 H   0  0  0  0  0  0  0  0  0  0  0  0
   64.5291   33.5108   50.3794 H   0  0  0  0  0  0  0  0  0  0  0  0
   62.4030   34.8214   50.5225 H   0  0  0  0  0  0  0  0  0  0  0  0
   59.6318   33.3313   48.5671 H   0  0  0  0  0  0  0  0  0  0  0  0
   58.4153   34.6336   48.2655 H   0  0  0  0  0  0  0  0  0  0  0  0
   58.5437   31.9670   46.7832 H   0  0  0  0  0  0  0  0  0  0  0  0
   57.4251   32.3629   48.1475 H   0  0  0  0  0  0  0  0  0  0  0  0
   59.6017   30.7913   44.2683 H   0  0  0  0  0  0  0  0  0  0  0  0
  1  2  1  0
  2  3  1  0
  3  4  2  0
  4  5  1  0
  5  6  1  0
  6  7  1  0
  7  8  1  0
  8  9  1  0
  9 10  1  0
 10 11  1  0
 11 12  2  0
 12 13  1  0
 13 14  2  0
 14 15  1  0
 15 16  2  0
  9 17  1  0
 17 18  1  0
 18 19  1  0
  5 20  1  0
 20  2  2  0
 19  7  1  0
 16 11  1  0
  1 21  1  0
  1 22  1  0
  1 23  1  0
  3 24  1  0
  6 25  1  0
  6 26  1  0
  7 27  1  6
  8 28  1  0
  8 29  1  0
 10 30  1  0
 10 31  1  0
 12 32  1  0
 13 33  1  0
 14 34  1  0
 15 35  1  0
 17 36  1  0
 17 37  1  0
 18 38  1  0
 18 39  1  0
 20 40  1  0
M  END
>  <UniqueID>  (9) 
7

>  <SMILES>  (9) 
Cc1cnn(C[C@@H]2CN(Cc3ccccn3)CCO2)c1

>  <Energy>  (9) 
85.42185908659678

>  <Genealogy>  (9) 
Cc1cnn(C[C@@H]2CN(Cc3ccccn3)CCO2)c1 (chirality)
Cc1cnn(C[C@@H]2CN(Cc3ccccn3)CCO2)c1 (3D coordinates assigned)
Cc1cnn(C[C@@H]2CN(Cc3ccccn3)CCO2)c1 (nonaromatic ring conformer: 85.42185908659678 kcal/mol)

>  <smiles>  (9) 
Cc1cnn(CC2CN(Cc3ccccn3)CCO2)c1

>  <score_type>  (9) 
oracle

>  <origin>  (9) 
adg

>  <m_score__min__energy>  (9) 
-7.3200000000000003

>  <m_primary>  (9) 
energy

$$$$
9:0
     RDKit          3D

 52 55  0  0  1  0  0  0  0  0999 V2000
   64.4510   32.8060   49.2550 C   0  0  0  0  0  0  0  0  0  0  0  0
   64.3110   33.5160   48.0570 O   0  0  0  0  0  0  0  0  0  0  0  0
   63.4260   32.8630   47.2020 C   0  0  1  0  0  0  0  0  0  0  0  0
   62.7970   31.7290   47.9620 C   0  0  0  0  0  0  0  0  0  0  0  0
   61.3410   31.6400   47.5110 C   0  0  0  0  0  0  0  0  0  0  0  0
   60.6210   32.7450   48.2390 C   0  0  2  0  0  0  0  0  0  0  0  0
   59.2420   32.9020   47.8310 N   0  0  0  0  0  0  0  0  0  0  0  0
   58.8300   33.1380   46.6530 C   0  0  0  0  0  0  0  0  0  0  0  0
   58.7530   34.4360   46.2600 N   0  0  0  0  0  0  0  0  0  0  0  0
   58.3220   34.7450   45.0240 C   0  0  0  0  0  0  0  0  0  0  0  0
   57.9720   33.7490   44.1930 N   0  0  0  0  0  0  0  0  0  0  0  0
   58.0300   32.4500   44.5330 C   0  0  0  0  0  0  0  0  0  0  0  0
   57.6570   31.4480   43.6360 C   0  0  0  0  0  0  0  0  0  0  0  0
   57.7440   30.1350   44.0620 C   0  0  0  0  0  0  0  0  0  0  0  0
   58.1860   29.8050   45.3320 C   0  0  0  0  0  0  0  0  0  0  0  0
   58.2360   28.3860   45.6680 C   0  0  0  0  0  0  0  0  0  0  0  0
   59.4530   27.7560   45.8370 C   0  0  0  0  0  0  0  0  0  0  0  0
   59.4900   26.3960   46.1610 C   0  0  0  0  0  0  0  0  0  0  0  0
   58.3420   25.6690   46.3170 C   0  0  0  0  0  0  0  0  0  0  0  0
   57.1130   26.2900   46.1510 C   0  0  0  0  0  0  0  0  0  0  0  0
   55.8620   25.4830   46.3250 C   0  0  0  0  0  0  0  0  0  0  0  0
   54.7880   26.3190   45.9970 O   0  0  0  0  0  0  0  0  0  0  0  0
   57.0960   27.6260   45.8320 C   0  0  0  0  0  0  0  0  0  0  0  0
   58.5560   30.7960   46.2210 C   0  0  0  0  0  0  0  0  0  0  0  0
   58.4730   32.1090   45.8060 C   0  0  0  0  0  0  0  0  0  0  0  0
   61.3120   34.0460   47.8270 C   0  0  0  0  0  0  0  0  0  0  0  0
   62.3380   33.8160   46.7280 C   0  0  0  0  0  0  0  0  0  0  0  0
   64.3159   33.4909   50.1051 H   0  0  0  0  0  0  0  0  0  0  0  0
   63.6924   32.0108   49.3007 H   0  0  0  0  0  0  0  0  0  0  0  0
   65.4547   32.3583   49.3007 H   0  0  0  0  0  0  0  0  0  0  0  0
   63.9693   32.4916   46.3206 H   0  0  0  0  0  0  0  0  0  0  0  0
   62.8459   31.9262   49.0431 H   0  0  0  0  0  0  0  0  0  0  0  0
   63.3262   30.7848   47.7659 H   0  0  0  0  0  0  0  0  0  0  0  0
   60.9151   30.6622   47.7802 H   0  0  0  0  0  0  0  0  0  0  0  0
   61.2467   31.7436   46.4200 H   0  0  0  0  0  0  0  0  0  0  0  0
   60.6455   32.5108   49.3135 H   0  0  0  0  0  0  0  0  0  0  0  0
   59.0270   35.2120   46.9110 H   0  0  0  0  0  0  0  0  0  0  0  0
   58.2572   35.7940   44.6994 H   0  0  0  0  0  0  0  0  0  0  0  0
   57.3053   31.6944   42.6233 H   0  0  0  0  0  0  0  0  0  0  0  0
   57.4535   29.3294   43.3717 H   0  0  0  0  0  0  0  0  0  0  0  0
   60.3891   28.3212   45.7174 H   0  0  0  0  0  0  0  0  0  0  0  0
   60.4631   25.9004   46.2932 H   0  0  0  0  0  0  0  0  0  0  0  0
   58.3931   24.6002   46.5721 H   0  0  0  0  0  0  0  0  0  0  0  0
   55.8793   24.6099   45.6561 H   0  0  0  0  0  0  0  0  0  0  0  0
   55.7723   25.1147   47.3576 H   0  0  0  0  0  0  0  0  0  0  0  0
   54.3790   26.7140   46.8220 H   0  0  0  0  0  0  0  0  0  0  0  0
   56.1204   28.1168   45.7001 H   0  0  0  0  0  0  0  0  0  0  0  0
   58.9074   30.5447   47.2326 H   0  0  0  0  0  0  0  0  0  0  0  0
   61.8196   34.4731   48.7045 H   0  0  0  0  0  0  0  0  0  0  0  0
   60.5451   34.7336   47.4409 H   0  0  0  0  0  0  0  0  0  0  0  0
   62.7948   34.7781   46.4528 H   0  0  0  0  0  0  0  0  0  0  0  0
   61.8322   33.3722   45.8578 H   0  0  0  0  0  0  0  0  0  0  0  0
  1  2  1  0
  2  3  1  0
  3  4  1  0
  4  5  1  0
  5  6  1  0
  6  7  1  0
  7  8  2  0
  8  9  1  0
  9 10  1  0
 10 11  2  0
 11 12  1  0
 12 13  2  0
 13 14  1  0
 14 15  2  0
 15 16  1  0
 16 17  2  0
 17 18  1  0
 18 19  2  0
 19 20  1  0
 20 21  1  0
 21 22  1  0
 20 23  2  0
 15 24  1  0
 24 25  2  0
  6 26  1  0
 26 27  1  0
 27  3  1  0
 25  8  1  0
 25 12  1  0
 23 16  1  0
  1 28  1  0
  1 29  1  0
  1 30  1  0
  3 31  1  6
  4 32  1  0
  4 33  1  0
  5 34  1  0
  5 35  1  0
  6 36  1  1
  9 37  1  0
 10 38  1  0
 13 39  1  0
 14 40  1  0
 17 41  1  0
 18 42  1  0
 19 43  1  0
 21 44  1  0
 21 45  1  0
 22 46  1  0
 23 47  1  0
 24 48  1  0
 26 49  1  0
 26 50  1  0
 27 51  1  0
 27 52  1  0
M  END
>  <smiles>  (10) 
COC1CCC(N=c2[nH]cnc3ccc(-c4cccc(CO)c4)cc23)CC1

>  <score_type>  (10) 
oracle

>  <origin>  (10) 
adg

>  <m_score__min__energy>  (10) 
-10.039999999999999

>  <m_primary>  (10) 
energy

$$$$
10:0
     RDKit          3D

 54 57  0  0  0  0  0  0  0  0999 V2000
   58.2440   27.0850   42.5800 C   0  0  0  0  0  0  0  0  0  0  0  0
   57.6050   26.8740   43.8270 O   0  0  0  0  0  0  0  0  0  0  0  0
   58.2480   27.3130   44.9760 C   0  0  0  0  0  0  0  0  0  0  0  0
   58.6860   28.6160   45.1150 C   0  0  0  0  0  0  0  0  0  0  0  0
   59.3330   29.0550   46.2760 C   0  0  0  0  0  0  0  0  0  0  0  0
   59.7260   30.4460   46.3540 C   0  0  0  0  0  0  0  0  0  0  0  0
   60.9480   30.7040   46.9790 C   0  0  0  0  0  0  0  0  0  0  0  0
   61.4600   31.9760   47.1040 C   0  0  0  0  0  0  0  0  0  0  0  0
   60.7110   33.0090   46.5810 C   0  0  0  0  0  0  0  0  0  0  0  0
   59.4860   32.7570   45.9540 C   0  0  0  0  0  0  0  0  0  0  0  0
   58.9790   31.4780   45.8320 C   0  0  0  0  0  0  0  0  0  0  0  0
   57.4450   31.2630   45.0620 S   0  0  0  0  0  0  0  0  0  0  0  0
   56.5740   32.4940   45.1830 O   0  0  0  0  0  0  0  0  0  0  0  0
   56.6990   30.0910   45.6250 O   0  0  0  0  0  0  0  0  0  0  0  0
   57.6160   30.9260   43.3710 N   0  0  0  0  0  0  0  0  0  0  0  0
   56.5740   30.0960   42.8490 C   0  0  0  0  0  0  0  0  0  0  0  0
   57.8940   32.0910   42.5860 C   0  0  0  0  0  0  0  0  0  0  0  0
   59.5030   28.1180   47.2590 C   0  0  0  0  0  0  0  0  0  0  0  0
   59.0710   26.8010   47.1380 C   0  0  0  0  0  0  0  0  0  0  0  0
   58.4350   26.3900   45.9850 C   0  0  0  0  0  0  0  0  0  0  0  0
   57.9930   25.0030   45.8870 C   0  0  0  0  0  0  0  0  0  0  0  0
   58.8880   23.9490   45.8040 C   0  0  0  0  0  0  0  0  0  0  0  0
   58.1860   22.7900   45.7260 N   0  0  0  0  0  0  0  0  0  0  0  0
   58.7740   21.4630   45.6260 C   0  0  0  0  0  0  0  0  0  0  0  0
   56.8620   23.0960   45.7590 C   0  0  0  0  0  0  0  0  0  0  0  0
   55.7580   22.3330   45.7130 N   0  0  0  0  0  0  0  0  0  0  0  0
   54.5570   22.9440   45.7670 C   0  0  0  0  0  0  0  0  0  0  0  0
   54.4140   24.2770   45.8640 N   0  0  0  0  0  0  0  0  0  0  0  0
   55.5100   25.0790   45.9130 C   0  0  0  0  0  0  0  0  0  0  0  0
   55.4350   26.3500   46.0050 N   0  0  0  0  0  0  0  0  0  0  0  0
   56.7320   24.4780   45.8590 C   0  0  0  0  0  0  0  0  0  0  0  0
   59.2760   27.4258   42.7498 H   0  0  0  0  0  0  0  0  0  0  0  0
   58.2576   26.1437   42.0111 H   0  0  0  0  0  0  0  0  0  0  0  0
   57.6944   27.8494   42.0111 H   0  0  0  0  0  0  0  0  0  0  0  0
   58.5220   29.3269   44.2918 H   0  0  0  0  0  0  0  0  0  0  0  0
   61.5229   29.8594   47.3866 H   0  0  0  0  0  0  0  0  0  0  0  0
   62.4246   32.1602   47.5995 H   0  0  0  0  0  0  0  0  0  0  0  0
   61.0807   34.0422   46.6576 H   0  0  0  0  0  0  0  0  0  0  0  0
   58.9104   33.6012   45.5467 H   0  0  0  0  0  0  0  0  0  0  0  0
   56.0110   29.6476   43.6808 H   0  0  0  0  0  0  0  0  0  0  0  0
   55.8954   30.7037   42.2324 H   0  0  0  0  0  0  0  0  0  0  0  0
   57.0145   29.2986   42.2324 H   0  0  0  0  0  0  0  0  0  0  0  0
   58.0971   32.9423   43.2524 H   0  0  0  0  0  0  0  0  0  0  0  0
   58.7728   31.9043   41.9513 H   0  0  0  0  0  0  0  0  0  0  0  0
   57.0256   32.3213   41.9513 H   0  0  0  0  0  0  0  0  0  0  0  0
   60.0054   28.4207   48.1896 H   0  0  0  0  0  0  0  0  0  0  0  0
   59.2363   26.0890   47.9600 H   0  0  0  0  0  0  0  0  0  0  0  0
   59.9845   24.0367   45.8017 H   0  0  0  0  0  0  0  0  0  0  0  0
   58.9511   21.0634   46.6354 H   0  0  0  0  0  0  0  0  0  0  0  0
   58.0866   20.7973   45.0835 H   0  0  0  0  0  0  0  0  0  0  0  0
   59.7289   21.5250   45.0835 H   0  0  0  0  0  0  0  0  0  0  0  0
   55.8560   21.2850   45.6360 H   0  0  0  0  0  0  0  0  0  0  0  0
   53.6508   22.3216   45.7299 H   0  0  0  0  0  0  0  0  0  0  0  0
   55.9050   27.0070   45.3270 H   0  0  0  0  0  0  0  0  0  0  0  0
  1  2  1  0
  2  3  1  0
  3  4  2  0
  4  5  1  0
  5  6  1  0
  6  7  2  0
  7  8  1  0
  8  9  2  0
  9 10  1  0
 10 11  2  0
 11 12  1  0
 12 13  2  0
 12 14  2  0
 12 15  1  0
 15 16  1  0
 15 17  1  0
  5 18  2  0
 18 19  1  0
 19 20  2  0
 20 21  1  0
 21 22  2  0
 22 23  1  0
 23 24  1  0
 23 25  1  0
 25 26  1  0
 26 27  1  0
 27 28  2  0
 28 29  1  0
 29 30  2  3
 29 31  1  0
 20  3  1  0
 31 21  1  0
 11  6  1  0
 31 25  2  0
  1 32  1  0
  1 33  1  0
  1 34  1  0
  4 35  1  0
  7 36  1  0
  8 37  1  0
  9 38  1  0
 10 39  1  0
 16 40  1  0
 16 41  1  0
 16 42  1  0
 17 43  1  0
 17 44  1  0
 17 45  1  0
 18 46  1  0
 19 47  1  0
 22 48  1  0
 24 49  1  0
 24 50  1  0
 24 51  1  0
 26 52  1  0
 27 53  1  0
 30 54  1  0
M  END
>  <smiles>  (11) 
COc1cc(-c2ccccc2S(=O)(=O)N(C)C)ccc1-c1cn(C)c2[nH]cnc(=N)c12

>  <score_type>  (11) 
oracle

>  <origin>  (11) 
adg

>  <m_score__min__energy>  (11) 
-9.1600000000000001

>  <m_primary>  (11) 
energy

$$$$
11:0
     RDKit          3D

 43 44  0  0  0  0  0  0  0  0999 V2000
   60.0310   26.6780   47.0860 C   0  0  0  0  0  0  0  0  0  0  0  0
   60.6270   27.6330   46.0580 C   0  0  0  0  0  0  0  0  0  0  0  0
   59.7220   28.7710   45.8360 N   0  0  0  0  0  0  0  0  0  0  0  0
   59.1340   29.0010   44.5050 C   0  0  0  0  0  0  0  0  0  0  0  0
   57.6740   29.3450   44.6130 C   0  0  0  0  0  0  0  0  0  0  0  0
   57.0320   30.5010   44.2060 C   0  0  0  0  0  0  0  0  0  0  0  0
   57.6560   31.6930   43.5540 C   0  0  0  0  0  0  0  0  0  0  0  0
   55.7190   30.4070   44.4970 N   0  0  0  0  0  0  0  0  0  0  0  0
   55.5360   29.2500   45.0660 O   0  0  0  0  0  0  0  0  0  0  0  0
   56.6620   28.5830   45.1650 C   0  0  0  0  0  0  0  0  0  0  0  0
   56.7830   27.2170   45.7570 C   0  0  0  0  0  0  0  0  0  0  0  0
   59.5040   29.7120   46.9060 C   0  0  0  0  0  0  0  0  0  0  0  0
   58.8240   29.3640   47.9110 O   0  0  0  0  0  0  0  0  0  0  0  0
   60.0640   31.0780   46.8570 C   0  0  0  0  0  0  0  0  0  0  0  0
   61.4110   31.3080   47.1790 C   0  0  0  0  0  0  0  0  0  0  0  0
   61.9430   32.6050   47.1320 C   0  0  0  0  0  0  0  0  0  0  0  0
   63.3670   32.8490   47.5350 C   0  0  0  0  0  0  0  0  0  0  0  0
   61.1160   33.6810   46.7760 C   0  0  0  0  0  0  0  0  0  0  0  0
   59.7700   33.4620   46.4440 C   0  0  0  0  0  0  0  0  0  0  0  0
   58.8950   34.6040   46.0170 C   0  0  0  0  0  0  0  0  0  0  0  0
   59.2560   32.1570   46.4640 C   0  0  0  0  0  0  0  0  0  0  0  0
   60.2579   27.0416   48.0991 H   0  0  0  0  0  0  0  0  0  0  0  0
   58.9406   26.6272   46.9503 H   0  0  0  0  0  0  0  0  0  0  0  0
   60.4645   25.6761   46.9503 H   0  0  0  0  0  0  0  0  0  0  0  0
   61.5947   28.0049   46.4259 H   0  0  0  0  0  0  0  0  0  0  0  0
   60.7671   27.0957   45.1084 H   0  0  0  0  0  0  0  0  0  0  0  0
   59.6641   29.8317   44.0162 H   0  0  0  0  0  0  0  0  0  0  0  0
   59.2340   28.0789   43.9136 H   0  0  0  0  0  0  0  0  0  0  0  0
   58.0188   32.3860   44.3274 H   0  0  0  0  0  0  0  0  0  0  0  0
   58.4999   31.3684   42.9275 H   0  0  0  0  0  0  0  0  0  0  0  0
   56.9084   32.2015   42.9275 H   0  0  0  0  0  0  0  0  0  0  0  0
   56.7764   27.2911   46.8545 H   0  0  0  0  0  0  0  0  0  0  0  0
   55.9362   26.5977   45.4262 H   0  0  0  0  0  0  0  0  0  0  0  0
   57.7255   26.7562   45.4262 H   0  0  0  0  0  0  0  0  0  0  0  0
   62.0542   30.4645   47.4704 H   0  0  0  0  0  0  0  0  0  0  0  0
   63.4405   32.8616   48.6325 H   0  0  0  0  0  0  0  0  0  0  0  0
   64.0041   32.0469   47.1340 H   0  0  0  0  0  0  0  0  0  0  0  0
   63.7008   33.8174   47.1340 H   0  0  0  0  0  0  0  0  0  0  0  0
   61.5248   34.7020   46.7570 H   0  0  0  0  0  0  0  0  0  0  0  0
   58.5017   35.1173   46.9069 H   0  0  0  0  0  0  0  0  0  0  0  0
   59.4839   35.3122   45.4156 H   0  0  0  0  0  0  0  0  0  0  0  0
   58.0580   34.2197   45.4156 H   0  0  0  0  0  0  0  0  0  0  0  0
   58.2115   31.9775   46.1694 H   0  0  0  0  0  0  0  0  0  0  0  0
  1  2  1  0
  2  3  1  0
  3  4  1  0
  4  5  1  0
  5  6  1  0
  6  7  1  0
  6  8  2  0
  8  9  1  0
  9 10  1  0
 10 11  1  0
  3 12  1  0
 12 13  2  0
 12 14  1  0
 14 15  2  0
 15 16  1  0
 16 17  1  0
 16 18  2  0
 18 19  1  0
 19 20  1  0
 19 21  2  0
 10  5  2  0
 21 14  1  0
  1 22  1  0
  1 23  1  0
  1 24  1  0
  2 25  1  0
  2 26  1  0
  4 27  1  0
  4 28  1  0
  7 29  1  0
  7 30  1  0
  7 31  1  0
 11 32  1  0
 11 33  1  0
 11 34  1  0
 15 35  1  0
 17 36  1  0
 17 37  1  0
 17 38  1  0
 18 39  1  0
 20 40  1  0
 20 41  1  0
 20 42  1  0
 21 43  1  0
M  END
>  <UniqueID>  (12) 
8

>  <SMILES>  (12) 
CCN(Cc1c(C)noc1C)C(=O)c1cc(C)cc(C)c1

>  <Energy>  (12) 
67.00942212935011

>  <Genealogy>  (12) 
CCN(Cc1c(C)noc1C)C(=O)c1cc(C)cc(C)c1 (3D coordinates assigned)
CCN(Cc1c(C)noc1C)C(=O)c1cc(C)cc(C)c1 (optimized conformer: 67.00942212935011 kcal/mol)

>  <smiles>  (12) 
CCN(Cc1c(C)noc1C)C(=O)c1cc(C)cc(C)c1

>  <score_type>  (12) 
oracle

>  <origin>  (12) 
adg

>  <m_score__min__energy>  (12) 
-8.0099999999999998

>  <m_primary>  (12) 
energy

$$$$
12:0
     RDKit          3D

 40 42  0  0  0  0  0  0  0  0999 V2000
   63.7920   32.8980   47.3620 N   0  0  0  0  0  0  0  0  0  0  0  0
   63.2360   33.8320   46.3860 C   0  0  0  0  0  0  0  0  0  0  0  0
   61.7780   34.1840   46.7180 C   0  0  0  0  0  0  0  0  0  0  0  0
   61.4700   33.9220   48.1690 C   0  0  0  0  0  0  0  0  0  0  0  0
   62.0780   34.5840   49.0500 O   0  0  0  0  0  0  0  0  0  0  0  0
   60.4160   33.0380   48.5780 N   0  0  0  0  0  0  0  0  0  0  0  0
   60.1850   31.7030   48.1120 C   0  0  0  0  0  0  0  0  0  0  0  0
   60.9440   30.6080   48.5980 C   0  0  0  0  0  0  0  0  0  0  0  0
   60.6820   29.3000   48.1550 C   0  0  0  0  0  0  0  0  0  0  0  0
   59.6470   29.1080   47.2440 C   0  0  0  0  0  0  0  0  0  0  0  0
   58.8850   30.1700   46.7880 C   0  0  0  0  0  0  0  0  0  0  0  0
   59.1250   31.4740   47.2140 C   0  0  0  0  0  0  0  0  0  0  0  0
   57.8770   29.6500   45.8690 C   0  0  0  0  0  0  0  0  0  0  0  0
   57.0010   30.3160   45.2550 O   0  0  0  0  0  0  0  0  0  0  0  0
   58.0840   28.2060   45.8010 C   0  0  0  0  0  0  0  0  0  0  0  0
   57.3990   27.2360   45.0750 C   0  0  0  0  0  0  0  0  0  0  0  0
   57.8090   25.8860   45.1950 C   0  0  0  0  0  0  0  0  0  0  0  0
   57.1500   24.8260   44.4760 N   0  0  0  0  0  0  0  0  0  0  0  0
   55.7400   24.4680   44.6390 C   0  0  0  0  0  0  0  0  0  0  0  0
   55.1990   25.0300   45.9150 C   0  0  0  0  0  0  0  0  0  0  0  0
   55.1520   24.3160   46.9520 O   0  0  0  0  0  0  0  0  0  0  0  0
   54.7290   26.3350   45.9580 O   0  0  0  0  0  0  0  0  0  0  0  0
   58.9000   25.5650   46.0420 C   0  0  0  0  0  0  0  0  0  0  0  0
   59.5740   26.5630   46.7640 C   0  0  0  0  0  0  0  0  0  0  0  0
   59.1450   27.8800   46.6260 C   0  0  0  0  0  0  0  0  0  0  0  0
   63.6720   33.2990   48.3210 H   0  0  0  0  0  0  0  0  0  0  0  0
   64.8190   32.7980   47.1860 H   0  0  0  0  0  0  0  0  0  0  0  0
   63.8367   34.7535   46.3893 H   0  0  0  0  0  0  0  0  0  0  0  0
   63.2610   33.3546   45.3953 H   0  0  0  0  0  0  0  0  0  0  0  0
   61.6082   35.2491   46.5020 H   0  0  0  0  0  0  0  0  0  0  0  0
   61.1192   33.5531   46.1032 H   0  0  0  0  0  0  0  0  0  0  0  0
   61.7464   30.7842   49.3295 H   0  0  0  0  0  0  0  0  0  0  0  0
   61.2790   28.4506   48.5185 H   0  0  0  0  0  0  0  0  0  0  0  0
   58.5006   32.3062   46.8570 H   0  0  0  0  0  0  0  0  0  0  0  0
   56.5576   27.5121   44.4224 H   0  0  0  0  0  0  0  0  0  0  0  0
   57.7060   24.2660   43.7910 H   0  0  0  0  0  0  0  0  0  0  0  0
   55.1643   24.8718   43.7932 H   0  0  0  0  0  0  0  0  0  0  0  0
   55.6533   23.3718   44.6691 H   0  0  0  0  0  0  0  0  0  0  0  0
   59.2234   24.5177   46.1349 H   0  0  0  0  0  0  0  0  0  0  0  0
   60.4190   26.3107   47.4215 H   0  0  0  0  0  0  0  0  0  0  0  0
  1  2  1  0
  2  3  1  0
  3  4  1  0
  4  5  2  0
  4  6  1  0
  6  7  1  0
  7  8  2  0
  8  9  1  0
  9 10  2  0
 10 11  1  0
 11 12  2  0
 11 13  1  0
 13 14  2  0
 13 15  1  0
 15 16  2  0
 16 17  1  0
 17 18  1  0
 18 19  1  0
 19 20  1  0
 20 21  2  0
 20 22  1  0
 17 23  2  0
 23 24  1  0
 24 25  2  0
 12  7  1  0
 25 15  1  0
 25 10  1  0
  1 26  1  0
  1 27  1  0
  2 28  1  0
  2 29  1  0
  3 30  1  0
  3 31  1  0
  8 32  1  0
  9 33  1  0
 12 34  1  0
 16 35  1  0
 18 36  1  0
 19 37  1  0
 19 38  1  0
 23 39  1  0
 24 40  1  0
M  CHG  2   6  -1  22  -1
M  END
>  <UniqueID>  (13) 
9

>  <SMILES>  (13) 
NCCC(=O)[N-]c1ccc2c(c1)C(=O)c1cc(NCC(=O)[O-])ccc1-2

>  <Energy>  (13) 
76.14256064770184

>  <Genealogy>  (13) 
NCCC(=O)[N-]c1ccc2c(c1)C(=O)c1cc(NCC(=O)[O-])ccc1-2 (protonated)
NCCC(=O)[N-]c1ccc2c(c1)C(=O)c1cc(NCC(=O)[O-])ccc1-2 (3D coordinates assigned)
NCCC(=O)[N-]c1ccc2c(c1)C(=O)c1cc(NCC(=O)[O-])ccc1-2 (nonaromatic ring conformer: 76.14256064770184 kcal/mol)

>  <smiles>  (13) 
NCCC(=O)Nc1ccc2c(c1)C(=O)c1cc(NCC(=O)O)ccc1-2

>  <score_type>  (13) 
oracle

>  <origin>  (13) 
adg

>  <m_score__min__energy>  (13) 
-10.369999999999999

>  <m_primary>  (13) 
energy

$$$$
13:0
     RDKit          3D

 34 35  0  0  0  0  0  0  0  0999 V2000
   55.6650   27.1430   45.6800 O   0  0  0  0  0  0  0  0  0  0  0  0
   56.5820   28.0060   45.5910 C   0  0  0  0  0  0  0  0  0  0  0  0
   56.2490   29.3540   45.2540 N   0  0  0  0  0  0  0  0  0  0  0  0
   55.4860   29.7150   44.0650 C   0  0  0  0  0  0  0  0  0  0  0  0
   56.4370   30.0720   42.9200 C   0  0  0  0  0  0  0  0  0  0  0  0
   57.6970   30.6320   43.4280 N   0  0  0  0  0  0  0  0  0  0  0  0
   57.7660   32.0840   43.2310 C   0  0  0  0  0  0  0  0  0  0  0  0
   57.7980   32.7630   44.5620 C   0  0  0  0  0  0  0  0  0  0  0  0
   58.3200   34.0160   44.8130 C   0  0  0  0  0  0  0  0  0  0  0  0
   58.1580   34.2180   46.1670 C   0  0  0  0  0  0  0  0  0  0  0  0
   57.5500   33.0790   46.6550 C   0  0  0  0  0  0  0  0  0  0  0  0
   57.3500   32.2280   45.6750 O   0  0  0  0  0  0  0  0  0  0  0  0
   57.9920   27.6150   45.8480 C   0  0  0  0  0  0  0  0  0  0  0  0
   58.3370   26.2510   45.8760 C   0  0  0  0  0  0  0  0  0  0  0  0
   59.6530   25.8520   46.1190 C   0  0  0  0  0  0  0  0  0  0  0  0
   60.6460   26.8070   46.3340 C   0  0  0  0  0  0  0  0  0  0  0  0
   60.3260   28.1650   46.3010 C   0  0  0  0  0  0  0  0  0  0  0  0
   59.0080   28.5800   46.0550 C   0  0  0  0  0  0  0  0  0  0  0  0
   58.7210   29.9440   46.0030 O   0  0  0  0  0  0  0  0  0  0  0  0
   54.8568   28.8644   43.7640 H   0  0  0  0  0  0  0  0  0  0  0  0
   54.8532   30.5854   44.2930 H   0  0  0  0  0  0  0  0  0  0  0  0
   56.6566   29.1635   42.3400 H   0  0  0  0  0  0  0  0  0  0  0  0
   55.9504   30.8291   42.2875 H   0  0  0  0  0  0  0  0  0  0  0  0
   57.7340   30.4500   44.4590 H   0  0  0  0  0  0  0  0  0  0  0  0
   58.6772   32.3354   42.6684 H   0  0  0  0  0  0  0  0  0  0  0  0
   56.8840   32.4213   42.6668 H   0  0  0  0  0  0  0  0  0  0  0  0
   58.7704   34.7076   44.0858 H   0  0  0  0  0  0  0  0  0  0  0  0
   58.4537   35.1076   46.7425 H   0  0  0  0  0  0  0  0  0  0  0  0
   57.2745   32.9096   47.7064 H   0  0  0  0  0  0  0  0  0  0  0  0
   57.5611   25.4903   45.7045 H   0  0  0  0  0  0  0  0  0  0  0  0
   59.9068   24.7819   46.1409 H   0  0  0  0  0  0  0  0  0  0  0  0
   61.6811   26.4902   46.5295 H   0  0  0  0  0  0  0  0  0  0  0  0
   61.1124   28.9155   46.4690 H   0  0  0  0  0  0  0  0  0  0  0  0
   57.8270   30.2890   45.6740 H   0  0  0  0  0  0  0  0  0  0  0  0
  1  2  2  0
  2  3  1  0
  3  4  1  0
  4  5  1  0
  5  6  1  0
  6  7  1  0
  7  8  1  0
  8  9  2  0
  9 10  1  0
 10 11  2  0
 11 12  1  0
  2 13  1  0
 13 14  2  0
 14 15  1  0
 15 16  2  0
 16 17  1  0
 17 18  2  0
 18 19  1  0
 12  8  1  0
 18 13  1  0
  4 20  1  0
  4 21  1  0
  5 22  1  0
  5 23  1  0
  6 24  1  0
  7 25  1  0
  7 26  1  0
  9 27  1  0
 10 28  1  0
 11 29  1  0
 14 30  1  0
 15 31  1  0
 16 32  1  0
 17 33  1  0
 19 34  1  0
M  CHG  1   3  -1
M  END
>  <UniqueID>  (14) 
10

>  <SMILES>  (14) 
O=C([N-]CCNCc1ccco1)c1ccccc1O

>  <Energy>  (14) 
56.13002317997441

>  <Genealogy>  (14) 
O=C([N-]CCNCc1ccco1)c1ccccc1O (protonated)
O=C([N-]CCNCc1ccco1)c1ccccc1O (3D coordinates assigned)
O=C([N-]CCNCc1ccco1)c1ccccc1O (optimized conformer: 56.13002317997441 kcal/mol)

>  <smiles>  (14) 
O=C(NCCNCc1ccco1)c1ccccc1O

>  <score_type>  (14) 
oracle

>  <origin>  (14) 
adg

>  <m_score__min__energy>  (14) 
-9.4299999999999997

>  <m_primary>  (14) 
energy

$$$$
14:0
     RDKit          3D

 42 43  0  0  0  0  0  0  0  0999 V2000
   57.2540   30.5657   42.2868 H   0  0  0  0  0  0  0  0  0  0  0  0
   57.3730   30.3560   43.3600 C   0  0  0  0  0  0  0  0  0  0  0  0
   57.1130   29.1040   43.7830 C   0  0  0  0  0  0  0  0  0  0  0  0
   57.7690   27.9570   43.2010 C   0  0  0  0  0  0  0  0  0  0  0  0
   58.2930   27.0360   42.7340 N   0  0  0  0  0  0  0  0  0  0  0  0
   56.1380   28.8980   44.8770 C   0  0  0  0  0  0  0  0  0  0  0  0
   55.3470   29.8340   45.1720 O   0  0  0  0  0  0  0  0  0  0  0  0
   56.0440   27.6670   45.6100 N   0  0  0  0  0  0  0  0  0  0  0  0
   57.0570   27.0910   46.4950 C   0  0  0  0  0  0  0  0  0  0  0  0
   56.5948   26.7556   47.4352 H   0  0  0  0  0  0  0  0  0  0  0  0
   57.6840   25.8620   45.7950 C   0  0  0  0  0  0  0  0  0  0  0  0
   57.0427   24.9855   45.9696 H   0  0  0  0  0  0  0  0  0  0  0  0
   57.7642   26.0809   44.7200 H   0  0  0  0  0  0  0  0  0  0  0  0
   59.0880   25.5660   46.3310 C   0  0  0  0  0  0  0  0  0  0  0  0
   59.0266   25.3912   47.4153 H   0  0  0  0  0  0  0  0  0  0  0  0
   59.4743   24.6771   45.8108 H   0  0  0  0  0  0  0  0  0  0  0  0
   60.0560   26.7380   46.0670 C   0  0  0  0  0  0  0  0  0  0  0  0
   60.7958   26.7692   46.8805 H   0  0  0  0  0  0  0  0  0  0  0  0
   60.5228   26.5592   45.0871 H   0  0  0  0  0  0  0  0  0  0  0  0
   59.3530   28.1080   45.9930 C   0  0  0  0  0  0  0  0  0  0  0  0
   60.0584   28.8888   46.3136 H   0  0  0  0  0  0  0  0  0  0  0  0
   59.0295   28.2725   44.9546 H   0  0  0  0  0  0  0  0  0  0  0  0
   58.1140   28.1570   46.8940 C   0  0  0  0  0  0  0  0  0  0  0  0
   58.4245   27.9764   47.9337 H   0  0  0  0  0  0  0  0  0  0  0  0
   57.6528   29.1492   46.7810 H   0  0  0  0  0  0  0  0  0  0  0  0
   57.8070   31.4710   44.2320 C   0  0  0  0  0  0  0  0  0  0  0  0
   58.2900   31.1830   45.5160 C   0  0  0  0  0  0  0  0  0  0  0  0
   58.3178   30.1414   45.8686 H   0  0  0  0  0  0  0  0  0  0  0  0
   58.7370   32.2120   46.3520 C   0  0  0  0  0  0  0  0  0  0  0  0
   59.1076   31.9757   47.3604 H   0  0  0  0  0  0  0  0  0  0  0  0
   58.7150   33.5430   45.9110 C   0  0  0  0  0  0  0  0  0  0  0  0
   59.2280   34.6460   46.7990 C   0  0  0  0  0  0  0  0  0  0  0  0
   58.4524   35.4197   46.8983 H   0  0  0  0  0  0  0  0  0  0  0  0
   60.1358   35.0711   46.3460 H   0  0  0  0  0  0  0  0  0  0  0  0
   59.5770   34.1070   48.1820 C   0  0  0  0  0  0  0  0  0  0  0  0
   59.1497   34.7670   48.9513 H   0  0  0  0  0  0  0  0  0  0  0  0
   59.1626   33.0944   48.2962 H   0  0  0  0  0  0  0  0  0  0  0  0
   60.6705   34.0707   48.2962 H   0  0  0  0  0  0  0  0  0  0  0  0
   58.2710   33.8290   44.6100 C   0  0  0  0  0  0  0  0  0  0  0  0
   58.2742   34.8671   44.2463 H   0  0  0  0  0  0  0  0  0  0  0  0
   57.8250   32.8010   43.7750 C   0  0  0  0  0  0  0  0  0  0  0  0
   57.4861   33.0333   42.7546 H   0  0  0  0  0  0  0  0  0  0  0  0
  1  2  1  0
  2  3  2  0
  3  4  1  0
  4  5  3  0
  3  6  1  0
  6  7  2  0
  6  8  1  0
  8  9  1  0
  9 10  1  0
  9 11  1  0
 11 12  1  0
 11 13  1  0
 11 14  1  0
 14 15  1  0
 14 16  1  0
 14 17  1  0
 17 18  1  0
 17 19  1  0
 17 20  1  0
 20 21  1  0
 20 22  1  0
 20 23  1  0
 23 24  1  0
 23 25  1  0
  2 26  1  0
 26 27  2  0
 27 28  1  0
 27 29  1  0
 29 30  1  0
 29 31  2  0
 31 32  1  0
 32 33  1  0
 32 34  1  0
 32 35  1  0
 35 36  1  0
 35 37  1  0
 35 38  1  0
 31 39  1  0
 39 40  1  0
 39 41  2  0
 41 42  1  0
 23  9  1  0
 41 26  1  0
M  CHG  1   8  -1
M  END
>  <UniqueID>  (15) 
11

>  <SMILES>  (15) 
CCc1ccc(/C=C(\C#N)C(=O)[N-]C2CCCCC2)cc1

>  <Energy>  (15) 
48.07528601665847

>  <Genealogy>  (15) 
CCc1ccc(C=C(C#N)C(=O)[N-]C2CCCCC2)cc1 (protonated)
CCc1ccc(/C=C(\C#N)C(=O)[N-]C2CCCCC2)cc1 (cis-trans isomerization)
CCc1ccc(/C=C(\C#N)C(=O)[N-]C2CCCCC2)cc1 (3D coordinates assigned)
CCc1ccc(/C=C(\C#N)C(=O)[N-]C2CCCCC2)cc1 (nonaromatic ring conformer: 48.07528601665847 kcal/mol)

>  <smiles>  (15) 
CCc1ccc(C=C(C#N)C(=O)NC2CCCCC2)cc1

>  <score_type>  (15) 
oracle

>  <origin>  (15) 
adg

>  <m_score__min__energy>  (15) 
-9.5700000000000003

>  <m_primary>  (15) 
energy

$$$$
15:0
     RDKit          3D

 44 46  0  0  0  0  0  0  0  0999 V2000
   65.1510   35.5750   52.6270 C   0  0  0  0  0  0  0  0  0  0  0  0
   65.5870   34.5940   51.6910 O   0  0  0  0  0  0  0  0  0  0  0  0
   64.7290   33.8540   50.8640 C   0  0  0  0  0  0  0  0  0  0  0  0
   63.3810   34.2270   50.7970 C   0  0  0  0  0  0  0  0  0  0  0  0
   62.4860   33.5200   49.9870 C   0  0  0  0  0  0  0  0  0  0  0  0
   62.9350   32.4280   49.2350 C   0  0  0  0  0  0  0  0  0  0  0  0
   62.0160   31.6990   48.4020 C   0  0  0  0  0  0  0  0  0  0  0  0
   61.2480   31.0830   47.7080 C   0  0  0  0  0  0  0  0  0  0  0  0
   60.3230   30.3470   46.8870 C   0  0  0  0  0  0  0  0  0  0  0  0
   60.7740   29.7040   45.7280 C   0  0  0  0  0  0  0  0  0  0  0  0
   59.8690   29.0290   44.9040 C   0  0  0  0  0  0  0  0  0  0  0  0
   58.5050   28.9840   45.2350 C   0  0  0  0  0  0  0  0  0  0  0  0
   57.5180   28.3880   44.2700 C   0  0  0  0  0  0  0  0  0  0  0  0
   57.0340   29.4360   43.3810 N   0  0  0  0  0  0  0  0  0  0  0  0
   56.6900   30.7420   43.8510 C   0  0  0  0  0  0  0  0  0  0  0  0
   55.8510   30.8840   44.7810 O   0  0  0  0  0  0  0  0  0  0  0  0
   57.4270   31.9290   43.3230 C   0  0  0  0  0  0  0  0  0  0  0  0
   57.9020   32.7550   44.4780 C   0  0  0  0  0  0  0  0  0  0  0  0
   59.0490   33.5390   44.4960 C   0  0  0  0  0  0  0  0  0  0  0  0
   59.1640   34.3240   45.6500 C   0  0  0  0  0  0  0  0  0  0  0  0
   58.1030   34.1720   46.5340 C   0  0  0  0  0  0  0  0  0  0  0  0
   57.0200   33.0670   45.8750 S   0  0  0  0  0  0  0  0  0  0  0  0
   58.0600   29.6260   46.4040 C   0  0  0  0  0  0  0  0  0  0  0  0
   58.9660   30.3010   47.2260 C   0  0  0  0  0  0  0  0  0  0  0  0
   64.2820   32.0470   49.2940 C   0  0  0  0  0  0  0  0  0  0  0  0
   65.1770   32.7540   50.1040 C   0  0  0  0  0  0  0  0  0  0  0  0
   65.3156   35.2047   53.6497 H   0  0  0  0  0  0  0  0  0  0  0  0
   65.7211   36.5037   52.4771 H   0  0  0  0  0  0  0  0  0  0  0  0
   64.0796   35.7742   52.4771 H   0  0  0  0  0  0  0  0  0  0  0  0
   63.0226   35.0837   51.3866 H   0  0  0  0  0  0  0  0  0  0  0  0
   61.4293   33.8222   49.9410 H   0  0  0  0  0  0  0  0  0  0  0  0
   61.8419   29.7301   45.4655 H   0  0  0  0  0  0  0  0  0  0  0  0
   60.2271   28.5303   43.9913 H   0  0  0  0  0  0  0  0  0  0  0  0
   58.0088   27.6005   43.6793 H   0  0  0  0  0  0  0  0  0  0  0  0
   56.6742   27.9502   44.8234 H   0  0  0  0  0  0  0  0  0  0  0  0
   58.2897   31.5941   42.7285 H   0  0  0  0  0  0  0  0  0  0  0  0
   56.7618   32.5280   42.6837 H   0  0  0  0  0  0  0  0  0  0  0  0
   59.7922   33.5427   43.6851 H   0  0  0  0  0  0  0  0  0  0  0  0
   60.0135   34.9969   45.8386 H   0  0  0  0  0  0  0  0  0  0  0  0
   57.9906   34.6864   47.4998 H   0  0  0  0  0  0  0  0  0  0  0  0
   56.9937   29.5967   46.6727 H   0  0  0  0  0  0  0  0  0  0  0  0
   58.6119   30.7973   48.1416 H   0  0  0  0  0  0  0  0  0  0  0  0
   64.6365   31.1902   48.7022 H   0  0  0  0  0  0  0  0  0  0  0  0
   66.2335   32.4509   50.1482 H   0  0  0  0  0  0  0  0  0  0  0  0
  1  2  1  0
  2  3  1  0
  3  4  2  0
  4  5  1  0
  5  6  2  0
  6  7  1  0
  7  8  3  0
  8  9  1  0
  9 10  2  0
 10 11  1  0
 11 12  2  0
 12 13  1  0
 13 14  1  0
 14 15  1  0
 15 16  2  0
 15 17  1  0
 17 18  1  0
 18 19  2  0
 19 20  1  0
 20 21  2  0
 21 22  1  0
 12 23  1  0
 23 24  2  0
  6 25  1  0
 25 26  2  0
 26  3  1  0
 24  9  1  0
 22 18  1  0
  1 27  1  0
  1 28  1  0
  1 29  1  0
  4 30  1  0
  5 31  1  0
 10 32  1  0
 11 33  1  0
 13 34  1  0
 13 35  1  0
 17 36  1  0
 17 37  1  0
 19 38  1  0
 20 39  1  0
 21 40  1  0
 23 41  1  0
 24 42  1  0
 25 43  1  0
 26 44  1  0
M  CHG  1  14  -1
M  END
>  <UniqueID>  (16) 
12

>  <SMILES>  (16) 
COc1ccc(C#Cc2ccc(C[N-]C(=O)Cc3cccs3)cc2)cc1

>  <Energy>  (16) 
60.93089174435521

>  <Genealogy>  (16) 
COc1ccc(C#Cc2ccc(C[N-]C(=O)Cc3cccs3)cc2)cc1 (protonated)
COc1ccc(C#Cc2ccc(C[N-]C(=O)Cc3cccs3)cc2)cc1 (3D coordinates assigned)
COc1ccc(C#Cc2ccc(C[N-]C(=O)Cc3cccs3)cc2)cc1 (optimized conformer: 60.93089174435521 kcal/mol)

>  <smiles>  (16) 
COc1ccc(C#Cc2ccc(CNC(=O)Cc3cccs3)cc2)cc1

>  <score_type>  (16) 
oracle

>  <origin>  (16) 
adg

>  <m_score__min__energy>  (16) 
-9.0600000000000005

>  <m_primary>  (16) 
energy

$$$$
16:0
     RDKit          3D

 50 55  0  0  0  0  0  0  0  0999 V2000
   60.0740   23.9380   46.0470 O   0  0  0  0  0  0  0  0  0  0  0  0
   59.5860   25.0570   46.0620 C   0  0  0  0  0  0  0  0  0  0  0  0
   58.0840   25.2250   46.3980 C   0  0  0  0  0  0  0  0  0  0  0  0
   57.7440   26.6450   45.9870 C   0  0  1  0  0  0  0  0  0  0  0  0
   56.4510   27.2420   45.8410 O   0  0  0  0  0  0  0  0  0  0  0  0
   56.7840   28.5840   45.5780 C   0  0  0  0  0  0  0  0  0  0  0  0
   56.0860   29.5480   44.8520 C   0  0  0  0  0  0  0  0  0  0  0  0
   54.7640   29.3420   44.4760 O   0  0  0  0  0  0  0  0  0  0  0  0
   56.7830   30.7170   44.4630 C   0  0  0  0  0  0  0  0  0  0  0  0
   58.1670   30.8660   44.7540 C   0  0  0  0  0  0  0  0  0  0  0  0
   58.8330   29.8850   45.5150 C   0  0  0  0  0  0  0  0  0  0  0  0
   58.0830   28.8240   45.9570 C   0  0  0  0  0  0  0  0  0  0  0  0
   58.5790   27.6880   46.7430 C   0  0  1  0  0  0  0  0  0  0  0  0
   58.2520   28.0290   48.2180 C   0  0  0  0  0  0  0  0  0  0  0  0
   59.0490   29.3160   48.6340 C   0  0  0  0  0  0  0  0  0  0  0  0
   60.4940   29.3170   48.2210 N   0  0  2  0  0  0  0  0  0  0  0  0
   61.2530   30.5480   48.6010 C   0  0  0  0  0  0  0  0  0  0  0  0
   60.7210   31.8740   48.0770 C   0  0  0  0  0  0  0  0  0  0  0  0
   61.4630   32.6280   47.1450 C   0  0  0  0  0  0  0  0  0  0  0  0
   60.9510   33.8200   46.6230 C   0  0  0  0  0  0  0  0  0  0  0  0
   59.6730   34.2500   46.9860 C   0  0  0  0  0  0  0  0  0  0  0  0
   59.1760   35.4030   46.4750 F   0  0  0  0  0  0  0  0  0  0  0  0
   58.8960   33.4750   47.8490 C   0  0  0  0  0  0  0  0  0  0  0  0
   59.4060   32.2830   48.3720 C   0  0  0  0  0  0  0  0  0  0  0  0
   60.7790   28.8000   46.8310 C   0  0  2  0  0  0  0  0  0  0  0  0
   60.3320   29.7810   45.6820 C   0  0  0  0  0  0  0  0  0  0  0  0
   60.0850   27.4130   46.7120 C   0  0  2  0  0  0  0  0  0  0  0  0
   60.4770   26.2890   45.7310 C   0  0  0  0  0  0  0  0  0  0  0  0
   57.4782   24.5031   45.8306 H   0  0  0  0  0  0  0  0  0  0  0  0
   57.8769   25.0432   47.4629 H   0  0  0  0  0  0  0  0  0  0  0  0
   57.9582   26.3909   44.9384 H   0  0  0  0  0  0  0  0  0  0  0  0
   56.2490   31.5178   43.9305 H   0  0  0  0  0  0  0  0  0  0  0  0
   58.7163   31.7451   44.3858 H   0  0  0  0  0  0  0  0  0  0  0  0
   57.1727   28.2135   48.3233 H   0  0  0  0  0  0  0  0  0  0  0  0
   58.5395   27.1881   48.8663 H   0  0  0  0  0  0  0  0  0  0  0  0
   58.5597   30.1867   48.1731 H   0  0  0  0  0  0  0  0  0  0  0  0
   59.0387   29.3476   49.7335 H   0  0  0  0  0  0  0  0  0  0  0  0
   60.9250   28.5980   48.8520 H   0  0  0  0  0  0  0  0  0  0  0  0
   61.2647   30.6054   49.6994 H   0  0  0  0  0  0  0  0  0  0  0  0
   62.2419   30.4309   48.1336 H   0  0  0  0  0  0  0  0  0  0  0  0
   62.4546   32.2751   46.8253 H   0  0  0  0  0  0  0  0  0  0  0  0
   61.5553   34.4192   45.9261 H   0  0  0  0  0  0  0  0  0  0  0  0
   57.8810   33.8028   48.1179 H   0  0  0  0  0  0  0  0  0  0  0  0
   58.7739   31.6584   49.0203 H   0  0  0  0  0  0  0  0  0  0  0  0
   61.8671   28.7132   46.6952 H   0  0  0  0  0  0  0  0  0  0  0  0
   60.7257   30.7827   45.9090 H   0  0  0  0  0  0  0  0  0  0  0  0
   60.7310   29.3741   44.7411 H   0  0  0  0  0  0  0  0  0  0  0  0
   60.5308   26.8737   47.5608 H   0  0  0  0  0  0  0  0  0  0  0  0
   60.3003   26.6144   44.6952 H   0  0  0  0  0  0  0  0  0  0  0  0
   61.5432   26.0377   45.8314 H   0  0  0  0  0  0  0  0  0  0  0  0
  1  2  2  0
  2  3  1  0
  3  4  1  0
  4  5  1  0
  5  6  1  0
  6  7  2  0
  7  8  1  0
  7  9  1  0
  9 10  2  0
 10 11  1  0
 11 12  2  0
 12 13  1  0
 13 14  1  1
 14 15  1  0
 15 16  1  0
 16 17  1  0
 17 18  1  0
 18 19  2  0
 19 20  1  0
 20 21  2  0
 21 22  1  0
 21 23  1  0
 23 24  2  0
 16 25  1  0
 25 26  1  0
 25 27  1  0
 27 28  1  0
 28  2  1  0
 13  4  1  0
 24 18  1  0
 12  6  1  0
 27 13  1  0
 26 11  1  0
  3 29  1  0
  3 30  1  0
  4 31  1  6
  9 32  1  0
 10 33  1  0
 14 34  1  0
 14 35  1  0
 15 36  1  0
 15 37  1  0
 16 38  1  1
 17 39  1  0
 17 40  1  0
 19 41  1  0
 20 42  1  0
 23 43  1  0
 24 44  1  0
 25 45  1  1
 26 46  1  0
 26 47  1  0
 27 48  1  1
 28 49  1  0
 28 50  1  0
M  CHG  2   8  -1  16   1
M  END
>  <UniqueID>  (17) 
13

>  <SMILES>  (17) 
O=C1CC2C3Cc4ccc([O-])c5c4[C@@]2(CC[NH+]3Cc2ccc(F)cc2)[C@@H](C1)O5

>  <Energy>  (17) 
170.05068589354906

>  <Genealogy>  (17) 
O=C1CC2Oc3c([O-])ccc4c3C23CC[NH+](Cc2ccc(F)cc2)C(C4)C3C1 (protonated)
O=C1CC2C3Cc4ccc([O-])c5c4[C@@]2(CC[NH+]3Cc2ccc(F)cc2)[C@@H](C1)O5 (chirality)
O=C1CC2C3Cc4ccc([O-])c5c4[C@@]2(CC[NH+]3Cc2ccc(F)cc2)[C@@H](C1)O5 (3D coordinates assigned)
O=C1CC2C3Cc4ccc([O-])c5c4[C@@]2(CC[NH+]3Cc2ccc(F)cc2)[C@@H](C1)O5 (nonaromatic ring conformer: 170.05068589354906 kcal/mol)

>  <smiles>  (17) 
O=C1CC2Oc3c(O)ccc4c3C23CCN(Cc2ccc(F)cc2)C(C4)C3C1

>  <score_type>  (17) 
oracle

>  <origin>  (17) 
adg

>  <m_score__min__energy>  (17) 
-9.4700000000000006

>  <m_primary>  (17) 
energy

$$$$
17:0
     RDKit          3D

 35 36  0  0  0  0  0  0  0  0999 V2000
   56.4480   26.3150   46.0190 C   0  0  0  0  0  0  0  0  0  0  0  0
   57.3940   25.8360   44.9180 C   0  0  0  0  0  0  0  0  0  0  0  0
   58.3860   26.8750   44.5510 N   0  0  0  0  0  0  0  0  0  0  0  0
   58.9180   27.5330   45.7690 C   0  0  0  0  0  0  0  0  0  0  0  0
   60.3880   27.9240   45.6210 C   0  0  0  0  0  0  0  0  0  0  0  0
   57.8720   27.8350   43.5370 C   0  0  0  0  0  0  0  0  0  0  0  0
   57.5340   29.1910   44.0970 C   0  0  0  0  0  0  0  0  0  0  0  0
   56.2740   29.6680   44.3760 C   0  0  0  0  0  0  0  0  0  0  0  0
   56.4130   30.8780   44.8530 O   0  0  0  0  0  0  0  0  0  0  0  0
   57.7010   31.1510   44.8760 C   0  0  0  0  0  0  0  0  0  0  0  0
   58.2500   32.4450   45.3530 C   0  0  0  0  0  0  0  0  0  0  0  0
   58.1850   33.5550   44.4910 C   0  0  0  0  0  0  0  0  0  0  0  0
   58.6940   34.7950   44.8810 C   0  0  0  0  0  0  0  0  0  0  0  0
   59.2720   34.9490   46.1400 C   0  0  0  0  0  0  0  0  0  0  0  0
   59.3400   33.8630   47.0140 C   0  0  0  0  0  0  0  0  0  0  0  0
   58.8330   32.6120   46.6370 C   0  0  0  0  0  0  0  0  0  0  0  0
   58.9260   31.3180   47.8300 Cl  0  0  0  0  0  0  0  0  0  0  0  0
   58.4480   30.1280   44.4060 N   0  0  0  0  0  0  0  0  0  0  0  0
   56.8875   26.0925   47.0025 H   0  0  0  0  0  0  0  0  0  0  0  0
   56.2936   27.3999   45.9234 H   0  0  0  0  0  0  0  0  0  0  0  0
   55.4821   25.7973   45.9234 H   0  0  0  0  0  0  0  0  0  0  0  0
   57.9292   24.9428   45.2726 H   0  0  0  0  0  0  0  0  0  0  0  0
   56.7918   25.6092   44.0258 H   0  0  0  0  0  0  0  0  0  0  0  0
   58.3287   28.4404   45.9671 H   0  0  0  0  0  0  0  0  0  0  0  0
   58.8422   26.8159   46.5997 H   0  0  0  0  0  0  0  0  0  0  0  0
   60.8377   28.0436   46.6177 H   0  0  0  0  0  0  0  0  0  0  0  0
   60.9230   27.1369   45.0694 H   0  0  0  0  0  0  0  0  0  0  0  0
   60.4613   28.8729   45.0694 H   0  0  0  0  0  0  0  0  0  0  0  0
   58.6403   27.9628   42.7603 H   0  0  0  0  0  0  0  0  0  0  0  0
   56.9374   27.4111   43.1409 H   0  0  0  0  0  0  0  0  0  0  0  0
   55.3256   29.1313   44.2258 H   0  0  0  0  0  0  0  0  0  0  0  0
   57.7272   33.4444   43.4969 H   0  0  0  0  0  0  0  0  0  0  0  0
   58.6388   35.6520   44.1936 H   0  0  0  0  0  0  0  0  0  0  0  0
   59.6745   35.9263   46.4447 H   0  0  0  0  0  0  0  0  0  0  0  0
   59.7954   33.9900   48.0072 H   0  0  0  0  0  0  0  0  0  0  0  0
  1  2  1  0
  2  3  1  0
  3  4  1  0
  4  5  1  0
  3  6  1  0
  6  7  1  0
  7  8  2  0
  8  9  1  0
  9 10  1  0
 10 11  1  0
 11 12  2  0
 12 13  1  0
 13 14  2  0
 14 15  1  0
 15 16  2  0
 16 17  1  0
 10 18  2  0
 18  7  1  0
 16 11  1  0
  1 19  1  0
  1 20  1  0
  1 21  1  0
  2 22  1  0
  2 23  1  0
  4 24  1  0
  4 25  1  0
  5 26  1  0
  5 27  1  0
  5 28  1  0
  6 29  1  0
  6 30  1  0
  8 31  1  0
 12 32  1  0
 13 33  1  0
 14 34  1  0
 15 35  1  0
M  END
>  <UniqueID>  (18) 
14

>  <SMILES>  (18) 
CCN(CC)Cc1coc(-c2ccccc2Cl)n1

>  <Energy>  (18) 
68.54683932000098

>  <Genealogy>  (18) 
CCN(CC)Cc1coc(-c2ccccc2Cl)n1 (3D coordinates assigned)
CCN(CC)Cc1coc(-c2ccccc2Cl)n1 (optimized conformer: 68.54683932000098 kcal/mol)

>  <smiles>  (18) 
CCN(CC)Cc1coc(-c2ccccc2Cl)n1

>  <score_type>  (18) 
oracle

>  <origin>  (18) 
adg

>  <m_score__min__energy>  (18) 
-6.5199999999999996

>  <m_primary>  (18) 
energy

$$$$
18:0
     RDKit          3D

 24 25  0  0  0  0  0  0  0  0999 V2000
   58.4220   27.8300   46.8860 O   0  0  0  0  0  0  0  0  0  0  0  0
   57.3900   27.5950   46.2020 C   0  0  0  0  0  0  0  0  0  0  0  0
   56.9230   28.5510   45.2370 N   0  0  0  0  0  0  0  0  0  0  0  0
   57.3860   29.9110   45.1620 C   0  0  0  0  0  0  0  0  0  0  0  0
   57.0340   30.6980   44.0570 C   0  0  0  0  0  0  0  0  0  0  0  0
   57.4530   32.0300   43.9700 C   0  0  0  0  0  0  0  0  0  0  0  0
   58.2360   32.5970   44.9890 C   0  0  0  0  0  0  0  0  0  0  0  0
   58.6450   34.0470   44.9220 C   0  0  0  0  0  0  0  0  0  0  0  0
   59.6590   34.2260   43.9980 F   0  0  0  0  0  0  0  0  0  0  0  0
   57.5730   34.8390   44.5460 F   0  0  0  0  0  0  0  0  0  0  0  0
   59.0900   34.4530   46.1660 F   0  0  0  0  0  0  0  0  0  0  0  0
   58.5460   31.8230   46.1210 C   0  0  0  0  0  0  0  0  0  0  0  0
   58.1280   30.4920   46.2060 C   0  0  0  0  0  0  0  0  0  0  0  0
   56.6950   26.3110   46.3730 C   0  0  0  0  0  0  0  0  0  0  0  0
   57.2670   25.2130   46.9170 N   0  0  0  0  0  0  0  0  0  0  0  0
   56.2480   24.3390   46.8420 C   0  0  0  0  0  0  0  0  0  0  0  0
   56.3200   23.1490   47.2430 O   0  0  0  0  0  0  0  0  0  0  0  0
   55.1770   24.8630   46.3050 O   0  0  0  0  0  0  0  0  0  0  0  0
   55.4170   26.1000   45.9960 N   0  0  0  0  0  0  0  0  0  0  0  0
   56.2730   28.2170   44.4880 H   0  0  0  0  0  0  0  0  0  0  0  0
   56.4231   30.2647   43.2513 H   0  0  0  0  0  0  0  0  0  0  0  0
   57.1675   32.6370   43.0982 H   0  0  0  0  0  0  0  0  0  0  0  0
   59.1217   32.2682   46.9458 H   0  0  0  0  0  0  0  0  0  0  0  0
   58.3809   29.8953   47.0948 H   0  0  0  0  0  0  0  0  0  0  0  0
  1  2  2  0
  2  3  1  0
  3  4  1  0
  4  5  2  0
  5  6  1  0
  6  7  2  0
  7  8  1  0
  8  9  1  0
  8 10  1  0
  8 11  1  0
  7 12  1  0
 12 13  2  0
  2 14  1  0
 14 15  2  0
 15 16  1  0
 16 17  2  0
 16 18  1  0
 18 19  1  0
 13  4  1  0
 19 14  1  0
  3 20  1  0
  5 21  1  0
  6 22  1  0
 12 23  1  0
 13 24  1  0
M  CHG  1  19  -1
M  END
>  <UniqueID>  (19) 
15

>  <SMILES>  (19) 
O=C(Nc1ccc(C(F)(F)F)cc1)c1nc(=O)o[n-]1

>  <Energy>  (19) 
61.4970563681595

>  <Genealogy>  (19) 
O=C(Nc1ccc(C(F)(F)F)cc1)c1nc(=O)o[n-]1 (protonated)
O=C(Nc1ccc(C(F)(F)F)cc1)c1nc(=O)o[n-]1 (3D coordinates assigned)
O=C(Nc1ccc(C(F)(F)F)cc1)c1nc(=O)o[n-]1 (optimized conformer: 61.4970563681595 kcal/mol)

>  <smiles>  (19) 
O=C(Nc1ccc(C(F)(F)F)cc1)c1nc(=O)o[nH]1

>  <score_type>  (19) 
oracle

>  <origin>  (19) 
adg

>  <m_score__min__energy>  (19) 
-8

>  <m_primary>  (19) 
energy

$$$$
19:0
     RDKit          3D

 62 66  0  0  0  0  0  0  0  0999 V2000
   54.7850   26.0650   45.9890 O   0  0  0  0  0  0  0  0  0  0  0  0
   55.7030   25.1330   45.4920 C   0  0  0  0  0  0  0  0  0  0  0  0
   57.1180   25.5590   45.8710 C   0  0  0  0  0  0  0  0  0  0  0  0
   57.0870   26.8710   46.4110 O   0  0  0  0  0  0  0  0  0  0  0  0
   58.2840   27.5770   46.1470 C   0  0  0  0  0  0  0  0  0  0  0  0
   57.9790   28.9340   45.5470 C   0  0  0  0  0  0  0  0  0  0  0  0
   57.1770   28.9770   44.3940 C   0  0  0  0  0  0  0  0  0  0  0  0
   56.9100   30.1890   43.7550 C   0  0  0  0  0  0  0  0  0  0  0  0
   57.4460   31.3760   44.2530 C   0  0  0  0  0  0  0  0  0  0  0  0
   58.2490   31.3560   45.3940 C   0  0  0  0  0  0  0  0  0  0  0  0
   58.5200   30.1460   46.0550 C   0  0  0  0  0  0  0  0  0  0  0  0
   59.3960   30.1800   47.2420 C   0  0  0  0  0  0  0  0  0  0  0  0
   58.8460   30.0010   48.5200 C   0  0  0  0  0  0  0  0  0  0  0  0
   59.6530   30.1170   49.6550 C   0  0  0  0  0  0  0  0  0  0  0  0
   61.0200   30.4030   49.5250 C   0  0  0  0  0  0  0  0  0  0  0  0
   61.8740   30.6260   50.7440 C   0  0  0  0  0  0  0  0  0  0  0  0
   62.7540   31.8340   50.5620 C   0  0  0  0  0  0  0  0  0  0  0  0
   62.3690   33.1590   50.3320 C   0  0  0  0  0  0  0  0  0  0  0  0
   60.9710   33.6710   50.1460 C   0  0  0  0  0  0  0  0  0  0  0  0
   60.6670   33.8360   48.6810 C   0  0  0  0  0  0  0  0  0  0  0  0
   59.3650   34.1690   48.2680 C   0  0  0  0  0  0  0  0  0  0  0  0
   59.0780   34.3450   46.9110 C   0  0  0  0  0  0  0  0  0  0  0  0
   60.0890   34.1950   45.9560 C   0  0  0  0  0  0  0  0  0  0  0  0
   61.3880   33.8640   46.3580 C   0  0  0  0  0  0  0  0  0  0  0  0
   61.6760   33.6850   47.7160 C   0  0  0  0  0  0  0  0  0  0  0  0
   63.4330   33.9390   50.2670 O   0  0  0  0  0  0  0  0  0  0  0  0
   64.4920   33.1900   50.4540 C   0  0  0  0  0  0  0  0  0  0  0  0
   65.8240   33.5960   50.4810 C   0  0  0  0  0  0  0  0  0  0  0  0
   66.8070   32.6160   50.7160 C   0  0  0  0  0  0  0  0  0  0  0  0
   66.4380   31.2670   50.9130 C   0  0  0  0  0  0  0  0  0  0  0  0
   65.0840   30.8860   50.8710 C   0  0  0  0  0  0  0  0  0  0  0  0
   64.1330   31.8810   50.6400 C   0  0  0  0  0  0  0  0  0  0  0  0
   61.5830   30.5050   48.2410 C   0  0  0  0  0  0  0  0  0  0  0  0
   60.7750   30.3930   47.1060 C   0  0  0  0  0  0  0  0  0  0  0  0
   55.1100   26.3320   46.8880 H   0  0  0  0  0  0  0  0  0  0  0  0
   55.4904   24.1436   45.9230 H   0  0  0  0  0  0  0  0  0  0  0  0
   55.6169   25.0827   44.3965 H   0  0  0  0  0  0  0  0  0  0  0  0
   57.5223   24.8631   46.6208 H   0  0  0  0  0  0  0  0  0  0  0  0
   57.7578   25.5451   44.9763 H   0  0  0  0  0  0  0  0  0  0  0  0
   58.8385   27.7134   47.0871 H   0  0  0  0  0  0  0  0  0  0  0  0
   58.8870   26.9992   45.4311 H   0  0  0  0  0  0  0  0  0  0  0  0
   56.7547   28.0449   43.9903 H   0  0  0  0  0  0  0  0  0  0  0  0
   56.2754   30.2077   42.8567 H   0  0  0  0  0  0  0  0  0  0  0  0
   57.2356   32.3292   43.7459 H   0  0  0  0  0  0  0  0  0  0  0  0
   58.6733   32.2950   45.7791 H   0  0  0  0  0  0  0  0  0  0  0  0
   57.7764   29.7686   48.6291 H   0  0  0  0  0  0  0  0  0  0  0  0
   59.2142   29.9834   50.6548 H   0  0  0  0  0  0  0  0  0  0  0  0
   61.2235   30.7811   51.6174 H   0  0  0  0  0  0  0  0  0  0  0  0
   62.5119   29.7428   50.8960 H   0  0  0  0  0  0  0  0  0  0  0  0
   60.2607   32.9555   50.5859 H   0  0  0  0  0  0  0  0  0  0  0  0
   60.8779   34.6476   50.6435 H   0  0  0  0  0  0  0  0  0  0  0  0
   58.5681   34.2917   49.0163 H   0  0  0  0  0  0  0  0  0  0  0  0
   58.0564   34.6016   46.5941 H   0  0  0  0  0  0  0  0  0  0  0  0
   59.8630   34.3372   44.8889 H   0  0  0  0  0  0  0  0  0  0  0  0
   62.1826   33.7445   45.6068 H   0  0  0  0  0  0  0  0  0  0  0  0
   62.6979   33.4247   48.0290 H   0  0  0  0  0  0  0  0  0  0  0  0
   66.0993   34.6493   50.3236 H   0  0  0  0  0  0  0  0  0  0  0  0
   67.8686   32.9026   50.7464 H   0  0  0  0  0  0  0  0  0  0  0  0
   67.2136   30.5098   51.1004 H   0  0  0  0  0  0  0  0  0  0  0  0
   64.7847   29.8374   51.0156 H   0  0  0  0  0  0  0  0  0  0  0  0
   62.6642   30.6737   48.1290 H   0  0  0  0  0  0  0  0  0  0  0  0
   61.2220   30.4721   46.1040 H   0  0  0  0  0  0  0  0  0  0  0  0
  1  2  1  0
  2  3  1  0
  3  4  1  0
  4  5  1  0
  5  6  1  0
  6  7  2  0
  7  8  1  0
  8  9  2  0
  9 10  1  0
 10 11  2  0
 11 12  1  0
 12 13  2  0
 13 14  1  0
 14 15  2  0
 15 16  1  0
 16 17  1  0
 17 18  2  0
 18 19  1  0
 19 20  1  0
 20 21  2  0
 21 22  1  0
 22 23  2  0
 23 24  1  0
 24 25  2  0
 18 26  1  0
 26 27  1  0
 27 28  2  0
 28 29  1  0
 29 30  2  0
 30 31  1  0
 31 32  2  0
 15 33  1  0
 33 34  2  0
 11  6  1  0
 34 12  1  0
 32 17  1  0
 25 20  1  0
 32 27  1  0
  1 35  1  0
  2 36  1  0
  2 37  1  0
  3 38  1  0
  3 39  1  0
  5 40  1  0
  5 41  1  0
  7 42  1  0
  8 43  1  0
  9 44  1  0
 10 45  1  0
 13 46  1  0
 14 47  1  0
 16 48  1  0
 16 49  1  0
 19 50  1  0
 19 51  1  0
 21 52  1  0
 22 53  1  0
 23 54  1  0
 24 55  1  0
 25 56  1  0
 28 57  1  0
 29 58  1  0
 30 59  1  0
 31 60  1  0
 33 61  1  0
 34 62  1  0
M  END
>  <UniqueID>  (20) 
16

>  <SMILES>  (20) 
OCCOCc1ccccc1-c1ccc(Cc2c(Cc3ccccc3)oc3ccccc23)cc1

>  <Energy>  (20) 
106.46939663530672

>  <Genealogy>  (20) 
OCCOCc1ccccc1-c1ccc(Cc2c(Cc3ccccc3)oc3ccccc23)cc1 (3D coordinates assigned)
OCCOCc1ccccc1-c1ccc(Cc2c(Cc3ccccc3)oc3ccccc23)cc1 (optimized conformer: 106.46939663530672 kcal/mol)

>  <smiles>  (20) 
OCCOCc1ccccc1-c1ccc(Cc2c(Cc3ccccc3)oc3ccccc23)cc1

>  <score_type>  (20) 
oracle

>  <origin>  (20) 
adg

>  <m_score__min__energy>  (20) 
-10.68

>  <m_primary>  (20) 
energy

$$$$
20:0
     RDKit          3D

 55 59  0  0  0  0  0  0  0  0999 V2000
   55.2020   26.3660   45.9880 O   0  0  0  0  0  0  0  0  0  0  0  0
   56.2980   26.1270   46.5650 C   0  0  0  0  0  0  0  0  0  0  0  0
   56.3640   25.1060   47.5640 N   0  0  0  0  0  0  0  0  0  0  0  0
   56.0510   23.4390   47.2160 S   0  0  0  0  0  0  0  0  0  0  0  0
   54.6530   23.1030   47.6580 O   0  0  0  0  0  0  0  0  0  0  0  0
   57.0220   22.5800   47.9760 O   0  0  0  0  0  0  0  0  0  0  0  0
   56.2490   23.1360   45.4900 C   0  0  0  0  0  0  0  0  0  0  0  0
   57.3910   22.4730   45.0150 C   0  0  0  0  0  0  0  0  0  0  0  0
   57.5460   22.2330   43.6470 C   0  0  0  0  0  0  0  0  0  0  0  0
   56.5650   22.6550   42.7450 C   0  0  0  0  0  0  0  0  0  0  0  0
   55.4270   23.3170   43.2120 C   0  0  0  0  0  0  0  0  0  0  0  0
   55.2660   23.5600   44.5800 C   0  0  0  0  0  0  0  0  0  0  0  0
   54.1560   24.2070   45.0140 F   0  0  0  0  0  0  0  0  0  0  0  0
   57.5100   26.9000   46.2060 C   0  0  0  0  0  0  0  0  0  0  0  0
   58.7600   26.2660   46.1130 C   0  0  0  0  0  0  0  0  0  0  0  0
   59.9020   26.9970   45.7780 C   0  0  0  0  0  0  0  0  0  0  0  0
   59.8120   28.3680   45.5320 C   0  0  0  0  0  0  0  0  0  0  0  0
   58.5730   29.0260   45.6140 C   0  0  0  0  0  0  0  0  0  0  0  0
   58.4750   30.4860   45.3490 C   0  0  0  0  0  0  0  0  0  0  0  0
   57.8760   30.9620   44.1520 C   0  0  0  0  0  0  0  0  0  0  0  0
   57.7780   32.3400   43.8920 C   0  0  0  0  0  0  0  0  0  0  0  0
   58.2810   33.2200   44.8440 C   0  0  0  0  0  0  0  0  0  0  0  0
   58.3010   34.5980   44.8620 C   0  0  0  0  0  0  0  0  0  0  0  0
   58.9000   34.9390   46.0700 C   0  0  0  0  0  0  0  0  0  0  0  0
   59.2460   33.8270   46.7620 N   0  0  0  0  0  0  0  0  0  0  0  0
   59.8140   33.7980   48.1110 C   0  0  0  0  0  0  0  0  0  0  0  0
   61.3010   33.5770   48.0420 C   0  0  0  0  0  0  0  0  0  0  0  0
   62.0130   33.2240   49.2010 C   0  0  0  0  0  0  0  0  0  0  0  0
   63.3880   32.9830   49.1370 C   0  0  0  0  0  0  0  0  0  0  0  0
   64.0630   33.0910   47.9180 C   0  0  0  0  0  0  0  0  0  0  0  0
   63.3630   33.4440   46.7610 C   0  0  0  0  0  0  0  0  0  0  0  0
   61.9870   33.6850   46.8210 C   0  0  0  0  0  0  0  0  0  0  0  0
   58.8570   32.7790   46.0070 C   0  0  0  0  0  0  0  0  0  0  0  0
   58.9750   31.4170   46.2920 C   0  0  0  0  0  0  0  0  0  0  0  0
   57.4260   28.2820   45.9510 C   0  0  0  0  0  0  0  0  0  0  0  0
   58.1663   22.1413   45.7214 H   0  0  0  0  0  0  0  0  0  0  0  0
   58.4417   21.7110   43.2793 H   0  0  0  0  0  0  0  0  0  0  0  0
   56.6890   22.4660   41.6685 H   0  0  0  0  0  0  0  0  0  0  0  0
   54.6551   23.6482   42.5017 H   0  0  0  0  0  0  0  0  0  0  0  0
   58.8400   25.1859   46.3054 H   0  0  0  0  0  0  0  0  0  0  0  0
   60.8759   26.4904   45.7078 H   0  0  0  0  0  0  0  0  0  0  0  0
   60.7168   28.9371   45.2723 H   0  0  0  0  0  0  0  0  0  0  0  0
   57.4835   30.2424   43.4185 H   0  0  0  0  0  0  0  0  0  0  0  0
   57.3177   32.7107   42.9643 H   0  0  0  0  0  0  0  0  0  0  0  0
   57.9240   35.2816   44.0870 H   0  0  0  0  0  0  0  0  0  0  0  0
   59.0694   35.9694   46.4158 H   0  0  0  0  0  0  0  0  0  0  0  0
   59.6116   34.7564   48.6116 H   0  0  0  0  0  0  0  0  0  0  0  0
   59.3539   32.9750   48.6775 H   0  0  0  0  0  0  0  0  0  0  0  0
   61.4858   33.1370   50.1625 H   0  0  0  0  0  0  0  0  0  0  0  0
   63.9401   32.7078   50.0477 H   0  0  0  0  0  0  0  0  0  0  0  0
   65.1449   32.8982   47.8692 H   0  0  0  0  0  0  0  0  0  0  0  0
   63.8950   33.5323   45.8023 H   0  0  0  0  0  0  0  0  0  0  0  0
   61.4391   33.9605   45.9078 H   0  0  0  0  0  0  0  0  0  0  0  0
   59.4448   31.0755   47.2262 H   0  0  0  0  0  0  0  0  0  0  0  0
   56.4512   28.7874   46.0159 H   0  0  0  0  0  0  0  0  0  0  0  0
  1  2  2  0
  2  3  1  0
  3  4  1  0
  4  5  2  0
  4  6  2  0
  4  7  1  0
  7  8  2  0
  8  9  1  0
  9 10  2  0
 10 11  1  0
 11 12  2  0
 12 13  1  0
  2 14  1  0
 14 15  2  0
 15 16  1  0
 16 17  2  0
 17 18  1  0
 18 19  1  0
 19 20  2  0
 20 21  1  0
 21 22  2  0
 22 23  1  0
 23 24  2  0
 24 25  1  0
 25 26  1  0
 26 27  1  0
 27 28  2  0
 28 29  1  0
 29 30  2  0
 30 31  1  0
 31 32  2  0
 25 33  1  0
 33 34  2  0
 18 35  2  0
 12  7  1  0
 35 14  1  0
 34 19  1  0
 33 22  1  0
 32 27  1  0
  8 36  1  0
  9 37  1  0
 10 38  1  0
 11 39  1  0
 15 40  1  0
 16 41  1  0
 17 42  1  0
 20 43  1  0
 21 44  1  0
 23 45  1  0
 24 46  1  0
 26 47  1  0
 26 48  1  0
 28 49  1  0
 29 50  1  0
 30 51  1  0
 31 52  1  0
 32 53  1  0
 34 54  1  0
 35 55  1  0
M  CHG  1   3  -1
M  END
>  <UniqueID>  (21) 
17

>  <SMILES>  (21) 
O=C([N-]S(=O)(=O)c1ccccc1F)c1cccc(-c2ccc3ccn(Cc4ccccc4)c3c2)c1

>  <Energy>  (21) 
101.63071840946019

>  <Genealogy>  (21) 
O=C([N-]S(=O)(=O)c1ccccc1F)c1cccc(-c2ccc3ccn(Cc4ccccc4)c3c2)c1 (protonated)
O=C([N-]S(=O)(=O)c1ccccc1F)c1cccc(-c2ccc3ccn(Cc4ccccc4)c3c2)c1 (3D coordinates assigned)
O=C([N-]S(=O)(=O)c1ccccc1F)c1cccc(-c2ccc3ccn(Cc4ccccc4)c3c2)c1 (optimized conformer: 101.63071840946019 kcal/mol)

>  <smiles>  (21) 
O=C(NS(=O)(=O)c1ccccc1F)c1cccc(-c2ccc3ccn(Cc4ccccc4)c3c2)c1

>  <score_type>  (21) 
oracle

>  <origin>  (21) 
adg

>  <m_score__min__energy>  (21) 
-13.59

>  <m_primary>  (21) 
energy

$$$$
21:0
     RDKit          3D

 42 44  0  0  0  0  0  0  0  0999 V2000
   59.1590   33.5040   51.8660 C   0  0  0  0  0  0  0  0  0  0  0  0
   57.9680   32.3130   51.1800 S   0  0  0  0  0  0  0  0  0  0  0  0
   58.7220   32.3350   49.5550 C   0  0  0  0  0  0  0  0  0  0  0  0
   59.1590   33.4530   49.0490 N   0  0  0  0  0  0  0  0  0  0  0  0
   59.8390   33.5160   47.7470 C   0  0  1  0  0  0  0  0  0  0  0  0
   61.3470   33.5360   47.9290 C   0  0  0  0  0  0  0  0  0  0  0  0
   62.1850   33.4760   46.8000 C   0  0  0  0  0  0  0  0  0  0  0  0
   63.5750   33.4540   46.9470 C   0  0  0  0  0  0  0  0  0  0  0  0
   64.1450   33.4820   48.2220 C   0  0  0  0  0  0  0  0  0  0  0  0
   63.3260   33.5270   49.3510 C   0  0  0  0  0  0  0  0  0  0  0  0
   61.9350   33.5470   49.2100 C   0  0  0  0  0  0  0  0  0  0  0  0
   59.3960   32.3580   46.8090 C   0  0  2  0  0  0  0  0  0  0  0  0
   58.0850   32.6950   46.1240 C   0  0  0  0  0  0  0  0  0  0  0  0
   57.2830   33.4770   46.7060 O   0  0  0  0  0  0  0  0  0  0  0  0
   57.7140   32.1490   44.7930 C   0  0  0  0  0  0  0  0  0  0  0  0
   58.1000   32.8390   43.6290 C   0  0  0  0  0  0  0  0  0  0  0  0
   57.7580   32.3480   42.3640 C   0  0  0  0  0  0  0  0  0  0  0  0
   57.0210   31.1690   42.2460 C   0  0  0  0  0  0  0  0  0  0  0  0
   56.6200   30.4810   43.3940 C   0  0  0  0  0  0  0  0  0  0  0  0
   56.9600   30.9650   44.6600 C   0  0  0  0  0  0  0  0  0  0  0  0
   59.2330   31.0730   47.5870 C   0  0  0  0  0  0  0  0  0  0  0  0
   59.3340   29.7530   46.8890 C   0  0  0  0  0  0  0  0  0  0  0  0
   58.8580   31.1050   48.8310 N   0  0  0  0  0  0  0  0  0  0  0  0
   59.1225   33.4675   52.9648 H   0  0  0  0  0  0  0  0  0  0  0  0
   60.1725   33.2473   51.5241 H   0  0  0  0  0  0  0  0  0  0  0  0
   58.9023   34.5175   51.5241 H   0  0  0  0  0  0  0  0  0  0  0  0
   59.0720   34.3340   49.6040 H   0  0  0  0  0  0  0  0  0  0  0  0
   59.5414   34.4559   47.2591 H   0  0  0  0  0  0  0  0  0  0  0  0
   61.7425   33.4462   45.7934 H   0  0  0  0  0  0  0  0  0  0  0  0
   64.2208   33.4146   46.0574 H   0  0  0  0  0  0  0  0  0  0  0  0
   65.2390   33.4686   48.3360 H   0  0  0  0  0  0  0  0  0  0  0  0
   63.7759   33.5468   50.3546 H   0  0  0  0  0  0  0  0  0  0  0  0
   61.2954   33.5715   50.1046 H   0  0  0  0  0  0  0  0  0  0  0  0
   60.1797   32.2251   46.0486 H   0  0  0  0  0  0  0  0  0  0  0  0
   58.6756   33.7725   43.7142 H   0  0  0  0  0  0  0  0  0  0  0  0
   58.0708   32.8925   41.4609 H   0  0  0  0  0  0  0  0  0  0  0  0
   56.7562   30.7820   41.2510 H   0  0  0  0  0  0  0  0  0  0  0  0
   56.0343   29.5546   43.3009 H   0  0  0  0  0  0  0  0  0  0  0  0
   56.6373   30.4188   45.5586 H   0  0  0  0  0  0  0  0  0  0  0  0
   59.3956   28.9473   47.6354 H   0  0  0  0  0  0  0  0  0  0  0  0
   58.4448   29.6022   46.2593 H   0  0  0  0  0  0  0  0  0  0  0  0
   60.2358   29.7393   46.2593 H   0  0  0  0  0  0  0  0  0  0  0  0
  1  2  1  0
  2  3  1  0
  3  4  2  0
  4  5  1  0
  5  6  1  0
  6  7  2  0
  7  8  1  0
  8  9  2  0
  9 10  1  0
 10 11  2  0
  5 12  1  0
 12 13  1  0
 13 14  2  0
 13 15  1  0
 15 16  2  0
 16 17  1  0
 17 18  2  0
 18 19  1  0
 19 20  2  0
 12 21  1  0
 21 22  1  0
 21 23  2  0
 23  3  1  0
 11  6  1  0
 20 15  1  0
  1 24  1  0
  1 25  1  0
  1 26  1  0
  4 27  1  0
  5 28  1  6
  7 29  1  0
  8 30  1  0
  9 31  1  0
 10 32  1  0
 11 33  1  0
 12 34  1  6
 16 35  1  0
 17 36  1  0
 18 37  1  0
 19 38  1  0
 20 39  1  0
 22 40  1  0
 22 41  1  0
 22 42  1  0
M  CHG  1   4   1
M  END
>  <UniqueID>  (22) 
18

>  <SMILES>  (22) 
CSC1=[NH+][C@@H](c2ccccc2)[C@H](C(=O)c2ccccc2)C(C)=N1

>  <Energy>  (22) 
43.19867509086819

>  <Genealogy>  (22) 
CSC1=[NH+]C(c2ccccc2)C(C(=O)c2ccccc2)C(C)=N1 (protonated)
CSC1=[NH+][C@@H](c2ccccc2)[C@H](C(=O)c2ccccc2)C(C)=N1 (chirality)
CSC1=[NH+][C@@H](c2ccccc2)[C@H](C(=O)c2ccccc2)C(C)=N1 (3D coordinates assigned)
CSC1=[NH+][C@@H](c2ccccc2)[C@H](C(=O)c2ccccc2)C(C)=N1 (nonaromatic ring conformer: 43.19867509086819 kcal/mol)

>  <smiles>  (22) 
CSC1=NC(c2ccccc2)C(C(=O)c2ccccc2)C(C)=N1

>  <score_type>  (22) 
oracle

>  <origin>  (22) 
adg

>  <m_score__min__energy>  (22) 
-6.7000000000000002

>  <m_primary>  (22) 
energy

$$$$
22:0
     RDKit          3D

 49 49  0  0  0  0  0  0  0  0999 V2000
   58.2288   25.6026   46.3503 H   0  0  0  0  0  0  0  0  0  0  0  0
   57.4560   26.3850   46.3260 C   0  0  0  0  0  0  0  0  0  0  0  0
   56.0490   25.9300   46.3690 C   0  0  0  0  0  0  0  0  0  0  0  0
   55.1430   26.7220   46.0030 O   0  0  0  0  0  0  0  0  0  0  0  0
   55.6880   24.6750   46.8400 O   0  0  0  0  0  0  0  0  0  0  0  0
   57.8890   27.6630   46.2600 C   0  0  0  0  0  0  0  0  0  0  0  0
   59.1910   27.9950   46.9400 C   0  0  0  0  0  0  0  0  0  0  0  0
   59.0542   27.9601   48.0309 H   0  0  0  0  0  0  0  0  0  0  0  0
   59.9568   27.2634   46.6429 H   0  0  0  0  0  0  0  0  0  0  0  0
   59.5130   29.0040   46.6429 H   0  0  0  0  0  0  0  0  0  0  0  0
   57.1390   28.7680   45.5490 C   0  0  0  0  0  0  0  0  0  0  0  0
   56.6751   28.3572   44.6402 H   0  0  0  0  0  0  0  0  0  0  0  0
   56.3756   29.1628   46.2355 H   0  0  0  0  0  0  0  0  0  0  0  0
   58.2530   30.1440   45.0780 S   0  0  0  0  0  0  0  0  0  0  0  0
   57.1100   31.0100   43.9270 C   0  0  2  0  0  0  0  0  0  0  0  0
   56.2934   31.4762   44.4978 H   0  0  0  0  0  0  0  0  0  0  0  0
   56.4780   29.9990   42.9670 C   0  0  0  0  0  0  0  0  0  0  0  0
   55.9818   29.2053   43.5448 H   0  0  0  0  0  0  0  0  0  0  0  0
   55.7374   30.5087   42.3331 H   0  0  0  0  0  0  0  0  0  0  0  0
   57.2606   29.5565   42.3331 H   0  0  0  0  0  0  0  0  0  0  0  0
   57.8380   32.1550   43.1950 C   0  0  0  0  0  0  0  0  0  0  0  0
   58.6484   31.7180   42.5931 H   0  0  0  0  0  0  0  0  0  0  0  0
   57.0804   32.6695   42.5856 H   0  0  0  0  0  0  0  0  0  0  0  0
   58.4500   33.2200   44.1270 C   0  0  0  0  0  0  0  0  0  0  0  0
   59.0922   32.7163   44.8645 H   0  0  0  0  0  0  0  0  0  0  0  0
   59.0238   33.9206   43.5026 H   0  0  0  0  0  0  0  0  0  0  0  0
   57.3800   34.0310   44.8770 C   0  0  0  0  0  0  0  0  0  0  0  0
   57.5457   35.0969   44.6616 H   0  0  0  0  0  0  0  0  0  0  0  0
   56.4069   33.6613   44.5214 H   0  0  0  0  0  0  0  0  0  0  0  0
   57.3800   33.8460   46.4070 C   0  0  0  0  0  0  0  0  0  0  0  0
   56.7024   34.5929   46.8463 H   0  0  0  0  0  0  0  0  0  0  0  0
   57.0550   32.8137   46.6040 H   0  0  0  0  0  0  0  0  0  0  0  0
   58.7720   34.0100   47.0570 C   0  0  0  0  0  0  0  0  0  0  0  0
   59.4225   34.5494   46.3528 H   0  0  0  0  0  0  0  0  0  0  0  0
   58.6241   34.5600   47.9981 H   0  0  0  0  0  0  0  0  0  0  0  0
   59.4480   32.6760   47.4180 C   0  0  0  0  0  0  0  0  0  0  0  0
   59.1818   32.4137   48.4526 H   0  0  0  0  0  0  0  0  0  0  0  0
   59.0932   31.9168   46.7055 H   0  0  0  0  0  0  0  0  0  0  0  0
   60.9510   32.7440   47.3070 C   0  0  0  0  0  0  0  0  0  0  0  0
   61.5700   33.8750   46.7500 C   0  0  0  0  0  0  0  0  0  0  0  0
   60.9555   34.7125   46.3882 H   0  0  0  0  0  0  0  0  0  0  0  0
   62.9630   33.9420   46.6530 C   0  0  0  0  0  0  0  0  0  0  0  0
   63.4415   34.8329   46.2201 H   0  0  0  0  0  0  0  0  0  0  0  0
   63.7490   32.8770   47.1060 C   0  0  0  0  0  0  0  0  0  0  0  0
   64.8451   32.9310   47.0307 H   0  0  0  0  0  0  0  0  0  0  0  0
   63.1410   31.7450   47.6540 C   0  0  0  0  0  0  0  0  0  0  0  0
   63.7594   30.9068   48.0076 H   0  0  0  0  0  0  0  0  0  0  0  0
   61.7490   31.6750   47.7540 C   0  0  0  0  0  0  0  0  0  0  0  0
   61.2751   30.7803   48.1840 H   0  0  0  0  0  0  0  0  0  0  0  0
  1  2  1  0
  2  3  1  0
  3  4  2  0
  3  5  1  0
  2  6  2  0
  6  7  1  0
  7  8  1  0
  7  9  1  0
  7 10  1  0
  6 11  1  0
 11 12  1  0
 11 13  1  0
 11 14  1  0
 14 15  1  0
 15 16  1  1
 15 17  1  0
 17 18  1  0
 17 19  1  0
 17 20  1  0
 15 21  1  0
 21 22  1  0
 21 23  1  0
 21 24  1  0
 24 25  1  0
 24 26  1  0
 24 27  1  0
 27 28  1  0
 27 29  1  0
 27 30  1  0
 30 31  1  0
 30 32  1  0
 30 33  1  0
 33 34  1  0
 33 35  1  0
 33 36  1  0
 36 37  1  0
 36 38  1  0
 36 39  1  0
 39 40  2  0
 40 41  1  0
 40 42  1  0
 42 43  1  0
 42 44  2  0
 44 45  1  0
 44 46  1  0
 46 47  1  0
 46 48  2  0
 48 49  1  0
 48 39  1  0
M  CHG  1   5  -1
M  END
>  <UniqueID>  (23) 
19

>  <SMILES>  (23) 
C/C(=C/C(=O)[O-])CS[C@H](C)CCCCCCc1ccccc1

>  <Energy>  (23) 
35.13841180398376

>  <Genealogy>  (23) 
CC(=CC(=O)[O-])CSC(C)CCCCCCc1ccccc1 (protonated)
CC(=CC(=O)[O-])CS[C@H](C)CCCCCCc1ccccc1 (chirality)
C/C(=C/C(=O)[O-])CS[C@H](C)CCCCCCc1ccccc1 (cis-trans isomerization)
C/C(=C/C(=O)[O-])CS[C@H](C)CCCCCCc1ccccc1 (3D coordinates assigned)
C/C(=C/C(=O)[O-])CS[C@H](C)CCCCCCc1ccccc1 (optimized conformer: 35.13841180398376 kcal/mol)

>  <smiles>  (23) 
CC(=CC(=O)O)CSC(C)CCCCCCc1ccccc1

>  <score_type>  (23) 
oracle

>  <origin>  (23) 
adg

>  <m_score__min__energy>  (23) 
-11.17

>  <m_primary>  (23) 
energy

$$$$
23:0
     RDKit          3D

 42 45  0  0  1  0  0  0  0  0999 V2000
   57.0000   29.9170   42.6350 N   0  0  0  0  0  0  0  0  0  0  0  0
   56.1780   29.9280   43.6340 C   0  0  0  0  0  0  0  0  0  0  0  0
   54.8290   29.5010   43.4770 N   0  0  0  0  0  0  0  0  0  0  0  0
   56.6450   30.3780   44.9200 N   0  0  0  0  0  0  0  0  0  0  0  0
   57.4950   29.6770   45.6020 C   0  0  0  0  0  0  0  0  0  0  0  0
   58.5440   30.2920   46.2950 C   0  0  0  0  0  0  0  0  0  0  0  0
   59.4610   29.5710   47.0280 C   0  0  0  0  0  0  0  0  0  0  0  0
   60.5330   30.2320   47.7340 C   0  0  0  0  0  0  0  0  0  0  0  0
   60.8390   29.9180   49.0530 C   0  0  0  0  0  0  0  0  0  0  0  0
   61.8740   30.5550   49.7350 C   0  0  0  0  0  0  0  0  0  0  0  0
   62.6450   31.5280   49.1380 C   0  0  0  0  0  0  0  0  0  0  0  0
   63.6500   32.1230   49.8560 C   0  0  0  0  0  0  0  0  0  0  0  0
   64.3980   33.0930   49.2160 C   0  0  0  0  0  0  0  0  0  0  0  0
   64.1370   33.4450   47.9070 C   0  0  0  0  0  0  0  0  0  0  0  0
   63.1100   32.8150   47.2230 C   0  0  0  0  0  0  0  0  0  0  0  0
   62.3470   31.8450   47.8310 C   0  0  0  0  0  0  0  0  0  0  0  0
   61.3090   31.2040   47.1480 C   0  0  0  0  0  0  0  0  0  0  0  0
   59.2980   28.2310   47.0450 N   0  0  0  0  0  0  0  0  0  0  0  0
   58.3000   27.6040   46.3880 C   0  0  0  0  0  0  0  0  0  0  0  0
   58.1120   26.1620   46.3970 C   0  0  0  0  0  0  0  0  0  0  0  0
   57.0680   25.5820   47.1270 C   0  0  0  0  0  0  0  0  0  0  0  0
   56.8850   24.2300   47.1400 C   0  0  0  0  0  0  0  0  0  0  0  0
   57.6730   23.3920   46.4700 N   0  0  0  0  0  0  0  0  0  0  0  0
   58.6940   23.9010   45.7480 C   0  0  0  0  0  0  0  0  0  0  0  0
   58.9150   25.2790   45.7100 C   0  0  0  0  0  0  0  0  0  0  0  0
   57.4290   28.3510   45.6860 N   0  0  0  0  0  0  0  0  0  0  0  0
   57.9680   29.5250   42.7040 H   0  0  0  0  0  0  0  0  0  0  0  0
   54.5820   28.9550   42.6190 H   0  0  0  0  0  0  0  0  0  0  0  0
   54.1290   29.7430   44.2190 H   0  0  0  0  0  0  0  0  0  0  0  0
   58.6394   31.3870   46.2530 H   0  0  0  0  0  0  0  0  0  0  0  0
   60.2495   29.1475   49.5715 H   0  0  0  0  0  0  0  0  0  0  0  0
   62.0808   30.2733   50.7780 H   0  0  0  0  0  0  0  0  0  0  0  0
   63.8528   31.8398   50.8994 H   0  0  0  0  0  0  0  0  0  0  0  0
   65.2143   33.5925   49.7583 H   0  0  0  0  0  0  0  0  0  0  0  0
   64.7398   34.2198   47.4107 H   0  0  0  0  0  0  0  0  0  0  0  0
   62.9018   33.0942   46.1796 H   0  0  0  0  0  0  0  0  0  0  0  0
   61.1060   31.4874   46.1047 H   0  0  0  0  0  0  0  0  0  0  0  0
   59.9470   27.6410   47.5710 H   0  0  0  0  0  0  0  0  0  0  0  0
   56.3843   26.2263   47.6992 H   0  0  0  0  0  0  0  0  0  0  0  0
   56.0527   23.8157   47.7279 H   0  0  0  0  0  0  0  0  0  0  0  0
   59.3560   23.2257   45.1861 H   0  0  0  0  0  0  0  0  0  0  0  0
   59.7535   25.6701   45.1150 H   0  0  0  0  0  0  0  0  0  0  0  0
  1  2  2  0
  2  3  1  0
  2  4  1  0
  4  5  2  0
  5  6  1  0
  6  7  2  0
  7  8  1  0
  8  9  2  0
  9 10  1  0
 10 11  2  0
 11 12  1  0
 12 13  2  0
 13 14  1  0
 14 15  2  0
 15 16  1  0
 16 17  2  0
  7 18  1  0
 18 19  1  0
 19 20  1  0
 20 21  2  0
 21 22  1  0
 22 23  2  0
 23 24  1  0
 24 25  2  0
 19 26  2  0
 26  5  1  0
 17  8  1  0
 25 20  1  0
 16 11  1  0
  1 27  1  0
  3 28  1  0
  3 29  1  0
  6 30  1  0
  9 31  1  0
 10 32  1  0
 12 33  1  0
 13 34  1  0
 14 35  1  0
 15 36  1  0
 17 37  1  0
 18 38  1  0
 21 39  1  0
 22 40  1  0
 24 41  1  0
 25 42  1  0
M  END
>  <smiles>  (24) 
N=C(N)N=c1cc(-c2ccc3ccccc3c2)[nH]c(-c2ccncc2)n1

>  <score_type>  (24) 
oracle

>  <origin>  (24) 
adg

>  <m_score__min__energy>  (24) 
-8.1999999999999993

>  <m_primary>  (24) 
energy

$$$$
24:0
     RDKit          3D

 25 26  0  0  0  0  0  0  0  0999 V2000
   55.1530   25.1950   45.6220 C   0  0  0  0  0  0  0  0  0  0  0  0
   55.4460   26.5540   45.9230 O   0  0  0  0  0  0  0  0  0  0  0  0
   56.7530   27.0350   46.0340 C   0  0  0  0  0  0  0  0  0  0  0  0
   57.3710   26.9730   47.1330 O   0  0  0  0  0  0  0  0  0  0  0  0
   57.4060   27.6690   44.8480 C   0  0  0  0  0  0  0  0  0  0  0  0
   57.3670   29.1640   44.9790 C   0  0  0  0  0  0  0  0  0  0  0  0
   58.4550   29.8170   45.4700 N   0  0  0  0  0  0  0  0  0  0  0  0
   58.4660   31.1710   45.5730 C   0  0  0  0  0  0  0  0  0  0  0  0
   59.5830   31.8420   46.0830 C   0  0  0  0  0  0  0  0  0  0  0  0
   59.5680   33.2380   46.1780 C   0  0  0  0  0  0  0  0  0  0  0  0
   58.4430   33.9620   45.7640 C   0  0  0  0  0  0  0  0  0  0  0  0
   57.3260   33.2920   45.2510 C   0  0  0  0  0  0  0  0  0  0  0  0
   57.3340   31.8970   45.1540 C   0  0  0  0  0  0  0  0  0  0  0  0
   56.2820   31.2470   44.6660 O   0  0  0  0  0  0  0  0  0  0  0  0
   56.2560   29.9220   44.5590 C   0  0  0  0  0  0  0  0  0  0  0  0
   55.2360   29.3590   44.0810 O   0  0  0  0  0  0  0  0  0  0  0  0
   55.0312   24.6302   46.5580 H   0  0  0  0  0  0  0  0  0  0  0  0
   54.2226   25.1412   45.0376 H   0  0  0  0  0  0  0  0  0  0  0  0
   55.9786   24.7627   45.0376 H   0  0  0  0  0  0  0  0  0  0  0  0
   58.4525   27.3358   44.7868 H   0  0  0  0  0  0  0  0  0  0  0  0
   56.8662   27.3720   43.9367 H   0  0  0  0  0  0  0  0  0  0  0  0
   60.4681   31.2751   46.4075 H   0  0  0  0  0  0  0  0  0  0  0  0
   60.4436   33.7690   46.5796 H   0  0  0  0  0  0  0  0  0  0  0  0
   58.4370   35.0592   45.8421 H   0  0  0  0  0  0  0  0  0  0  0  0
   56.4435   33.8619   44.9248 H   0  0  0  0  0  0  0  0  0  0  0  0
  1  2  1  0
  2  3  1  0
  3  4  2  0
  3  5  1  0
  5  6  1  0
  6  7  2  0
  7  8  1  0
  8  9  2  0
  9 10  1  0
 10 11  2  0
 11 12  1  0
 12 13  2  0
 13 14  1  0
 14 15  1  0
 15 16  2  0
 15  6  1  0
 13  8  1  0
  1 17  1  0
  1 18  1  0
  1 19  1  0
  5 20  1  0
  5 21  1  0
  9 22  1  0
 10 23  1  0
 11 24  1  0
 12 25  1  0
M  END
>  <UniqueID>  (25) 
20

>  <SMILES>  (25) 
COC(=O)Cc1nc2ccccc2oc1=O

>  <Energy>  (25) 
26.513439461006516

>  <Genealogy>  (25) 
COC(=O)Cc1nc2ccccc2oc1=O (3D coordinates assigned)
COC(=O)Cc1nc2ccccc2oc1=O (optimized conformer: 26.513439461006516 kcal/mol)

>  <smiles>  (25) 
COC(=O)Cc1nc2ccccc2oc1=O

>  <score_type>  (25) 
oracle

>  <origin>  (25) 
adg

>  <m_score__min__energy>  (25) 
-6.46

>  <m_primary>  (25) 
energy

$$$$
25:0
     RDKit          3D

 41 44  0  0  0  0  0  0  0  0999 V2000
   56.6520   31.0270   43.6310 C   0  0  0  0  0  0  0  0  0  0  0  0
   58.0390   31.1680   43.6800 C   0  0  0  0  0  0  0  0  0  0  0  0
   58.7890   30.3710   44.5460 C   0  0  0  0  0  0  0  0  0  0  0  0
   58.1370   29.4300   45.3610 C   0  0  0  0  0  0  0  0  0  0  0  0
   58.8980   28.5690   46.3010 C   0  0  0  0  0  0  0  0  0  0  0  0
   59.4560   27.3600   45.8430 C   0  0  0  0  0  0  0  0  0  0  0  0
   60.1970   26.5490   46.7040 C   0  0  0  0  0  0  0  0  0  0  0  0
   60.3910   26.9320   48.0300 C   0  0  0  0  0  0  0  0  0  0  0  0
   59.8460   28.1270   48.5010 C   0  0  0  0  0  0  0  0  0  0  0  0
   59.0980   28.9610   47.6460 C   0  0  0  0  0  0  0  0  0  0  0  0
   58.5180   30.1600   48.1010 O   0  0  0  0  0  0  0  0  0  0  0  0
   59.1690   31.1550   48.8940 C   0  0  0  0  0  0  0  0  0  0  0  0
   59.9210   32.1320   48.0150 C   0  0  0  0  0  0  0  0  0  0  0  0
   61.3150   32.2350   48.1640 C   0  0  0  0  0  0  0  0  0  0  0  0
   62.0600   33.0880   47.3500 C   0  0  0  0  0  0  0  0  0  0  0  0
   61.4290   33.8600   46.3770 C   0  0  0  0  0  0  0  0  0  0  0  0
   60.0390   33.7960   46.2160 C   0  0  0  0  0  0  0  0  0  0  0  0
   59.4100   34.5850   45.2390 C   0  0  0  0  0  0  0  0  0  0  0  0
   58.0250   34.5360   45.0800 C   0  0  0  0  0  0  0  0  0  0  0  0
   57.2550   33.7070   45.8960 C   0  0  0  0  0  0  0  0  0  0  0  0
   57.8650   32.9150   46.8720 C   0  0  0  0  0  0  0  0  0  0  0  0
   59.2660   32.9350   47.0430 C   0  0  0  0  0  0  0  0  0  0  0  0
   56.7800   29.3160   45.2890 N   0  0  0  0  0  0  0  0  0  0  0  0
   56.0330   30.0840   44.4520 C   0  0  0  0  0  0  0  0  0  0  0  0
   56.0530   31.6523   42.9526 H   0  0  0  0  0  0  0  0  0  0  0  0
   58.5407   31.9062   43.0371 H   0  0  0  0  0  0  0  0  0  0  0  0
   59.8828   30.4786   44.5903 H   0  0  0  0  0  0  0  0  0  0  0  0
   59.3066   27.0520   44.7976 H   0  0  0  0  0  0  0  0  0  0  0  0
   60.6283   25.6065   46.3356 H   0  0  0  0  0  0  0  0  0  0  0  0
   60.9750   26.2908   48.7066 H   0  0  0  0  0  0  0  0  0  0  0  0
   60.0017   28.4209   49.5495 H   0  0  0  0  0  0  0  0  0  0  0  0
   58.4143   31.7019   49.4782 H   0  0  0  0  0  0  0  0  0  0  0  0
   59.8856   30.6592   49.5654 H   0  0  0  0  0  0  0  0  0  0  0  0
   61.8247   31.6352   48.9324 H   0  0  0  0  0  0  0  0  0  0  0  0
   63.1508   33.1515   47.4768 H   0  0  0  0  0  0  0  0  0  0  0  0
   62.0250   34.5227   45.7323 H   0  0  0  0  0  0  0  0  0  0  0  0
   60.0121   35.2443   44.5965 H   0  0  0  0  0  0  0  0  0  0  0  0
   57.5389   35.1524   44.3095 H   0  0  0  0  0  0  0  0  0  0  0  0
   56.1626   33.6767   45.7704 H   0  0  0  0  0  0  0  0  0  0  0  0
   57.2473   32.2694   47.5136 H   0  0  0  0  0  0  0  0  0  0  0  0
   54.9402   29.9618   44.4221 H   0  0  0  0  0  0  0  0  0  0  0  0
  1  2  2  0
  2  3  1  0
  3  4  2  0
  4  5  1  0
  5  6  2  0
  6  7  1  0
  7  8  2  0
  8  9  1  0
  9 10  2  0
 10 11  1  0
 11 12  1  0
 12 13  1  0
 13 14  2  0
 14 15  1  0
 15 16  2  0
 16 17  1  0
 17 18  2  0
 18 19  1  0
 19 20  2  0
 20 21  1  0
 21 22  2  0
  4 23  1  0
 23 24  2  0
 24  1  1  0
 10  5  1  0
 22 13  1  0
 22 17  1  0
  1 25  1  0
  2 26  1  0
  3 27  1  0
  6 28  1  0
  7 29  1  0
  8 30  1  0
  9 31  1  0
 12 32  1  0
 12 33  1  0
 14 34  1  0
 15 35  1  0
 16 36  1  0
 18 37  1  0
 19 38  1  0
 20 39  1  0
 21 40  1  0
 24 41  1  0
M  END
>  <UniqueID>  (26) 
21

>  <SMILES>  (26) 
c1ccc(-c2ccccc2OCc2cccc3ccccc23)nc1

>  <Energy>  (26) 
56.080812100679815

>  <Genealogy>  (26) 
c1ccc(-c2ccccc2OCc2cccc3ccccc23)nc1 (3D coordinates assigned)
c1ccc(-c2ccccc2OCc2cccc3ccccc23)nc1 (optimized conformer: 56.080812100679815 kcal/mol)

>  <smiles>  (26) 
c1ccc(-c2ccccc2OCc2cccc3ccccc23)nc1

>  <score_type>  (26) 
oracle

>  <origin>  (26) 
adg

>  <m_score__min__energy>  (26) 
-8.4600000000000009

>  <m_primary>  (26) 
energy

$$$$
26:0
     RDKit          3D

 50 54  0  0  0  0  0  0  0  0999 V2000
   60.4664   29.1976   48.6345 H   0  0  0  0  0  0  0  0  0  0  0  0
   59.7990   28.6510   47.9520 C   0  0  0  0  0  0  0  0  0  0  0  0
   59.6090   27.3160   47.9490 N   0  0  0  0  0  0  0  0  0  0  0  0
   58.7490   27.0360   46.9830 N   0  0  0  0  0  0  0  0  0  0  0  0
   58.2490   25.6940   46.7040 C   0  0  0  0  0  0  0  0  0  0  0  0
   58.3732   25.0667   47.5990 H   0  0  0  0  0  0  0  0  0  0  0  0
   58.8168   25.2672   45.8641 H   0  0  0  0  0  0  0  0  0  0  0  0
   56.7730   25.7490   46.3290 C   0  0  0  0  0  0  0  0  0  0  0  0
   56.1628   25.7717   47.2440 H   0  0  0  0  0  0  0  0  0  0  0  0
   56.5788   26.6550   45.7362 H   0  0  0  0  0  0  0  0  0  0  0  0
   56.5119   24.8600   45.7362 H   0  0  0  0  0  0  0  0  0  0  0  0
   58.3600   28.1680   46.3650 C   0  0  0  0  0  0  0  0  0  0  0  0
   57.6430   28.2387   45.5338 H   0  0  0  0  0  0  0  0  0  0  0  0
   59.0220   29.2250   46.9610 C   0  0  0  0  0  0  0  0  0  0  0  0
   58.9290   30.6620   46.6400 C   0  0  0  0  0  0  0  0  0  0  0  0
   59.8400   31.5290   47.1840 N   0  0  0  0  0  0  0  0  0  0  0  0
   59.8220   32.8700   46.9220 C   0  0  0  0  0  0  0  0  0  0  0  0
   60.6790   33.6880   47.4650 N   0  0  0  0  0  0  0  0  0  0  0  0
   61.8990   33.3320   48.1370 C   0  0  0  0  0  0  0  0  0  0  0  0
   62.0560   33.6760   49.4790 C   0  0  0  0  0  0  0  0  0  0  0  0
   61.2432   34.1930   50.0102 H   0  0  0  0  0  0  0  0  0  0  0  0
   63.2380   33.3680   50.1510 C   0  0  0  0  0  0  0  0  0  0  0  0
   63.3511   33.6258   51.2144 H   0  0  0  0  0  0  0  0  0  0  0  0
   64.2850   32.7270   49.4660 C   0  0  0  0  0  0  0  0  0  0  0  0
   65.5190   32.3990   50.1460 N   0  0  0  0  0  0  0  0  0  0  0  0
   66.7010   33.2460   50.1320 C   0  0  0  0  0  0  0  0  0  0  0  0
   67.1290   33.2890   49.1196 H   0  0  0  0  0  0  0  0  0  0  0  0
   66.4619   34.2781   50.4278 H   0  0  0  0  0  0  0  0  0  0  0  0
   67.6870   32.6020   51.0970 C   0  0  0  0  0  0  0  0  0  0  0  0
   68.7002   32.6060   50.6688 H   0  0  0  0  0  0  0  0  0  0  0  0
   67.7360   33.1485   52.0504 H   0  0  0  0  0  0  0  0  0  0  0  0
   67.2000   31.1710   51.2950 C   0  0  0  0  0  0  0  0  0  0  0  0
   67.7581   30.4825   50.6435 H   0  0  0  0  0  0  0  0  0  0  0  0
   67.3513   30.8305   52.3300 H   0  0  0  0  0  0  0  0  0  0  0  0
   65.7250   31.1810   50.9170 C   0  0  0  0  0  0  0  0  0  0  0  0
   65.4797   30.2974   50.3094 H   0  0  0  0  0  0  0  0  0  0  0  0
   65.0796   31.1525   51.8073 H   0  0  0  0  0  0  0  0  0  0  0  0
   64.1240   32.4300   48.1400 N   0  0  0  0  0  0  0  0  0  0  0  0
   64.8890   31.9660   47.6030 H   0  0  0  0  0  0  0  0  0  0  0  0
   62.9750   32.7230   47.4700 C   0  0  0  0  0  0  0  0  0  0  0  0
   62.8890   32.4814   46.4003 H   0  0  0  0  0  0  0  0  0  0  0  0
   58.8190   33.3510   46.0820 C   0  0  0  0  0  0  0  0  0  0  0  0
   58.6220   34.6340   45.7140 N   0  0  0  0  0  0  0  0  0  0  0  0
   57.5370   34.5610   44.9040 C   0  0  0  0  0  0  0  0  0  0  0  0
   57.0682   35.4200   44.4017 H   0  0  0  0  0  0  0  0  0  0  0  0
   57.1040   33.2500   44.8000 C   0  0  0  0  0  0  0  0  0  0  0  0
   56.2475   32.8883   44.2121 H   0  0  0  0  0  0  0  0  0  0  0  0
   57.9260   32.5060   45.5510 N   0  0  0  0  0  0  0  0  0  0  0  0
   57.9300   31.1710   45.7870 C   0  0  0  0  0  0  0  0  0  0  0  0
   57.1803   30.5091   45.3290 H   0  0  0  0  0  0  0  0  0  0  0  0
  1  2  1  0
  2  3  2  0
  3  4  1  0
  4  5  1  0
  5  6  1  0
  5  7  1  0
  5  8  1  0
  8  9  1  0
  8 10  1  0
  8 11  1  0
  4 12  1  0
 12 13  1  0
 12 14  2  0
 14 15  1  0
 15 16  1  0
 16 17  1  0
 17 18  2  0
 18 19  1  0
 19 20  2  0
 20 21  1  0
 20 22  1  0
 22 23  1  0
 22 24  2  0
 24 25  1  0
 25 26  1  0
 26 27  1  0
 26 28  1  0
 26 29  1  0
 29 30  1  0
 29 31  1  0
 29 32  1  0
 32 33  1  0
 32 34  1  0
 32 35  1  0
 35 36  1  0
 35 37  1  0
 24 38  1  0
 38 39  1  0
 38 40  2  0
 40 41  1  0
 17 42  1  0
 42 43  2  0
 43 44  1  0
 44 45  1  0
 44 46  2  0
 46 47  1  0
 46 48  1  0
 48 49  1  0
 49 50  1  0
 14  2  1  0
 49 15  2  0
 40 19  1  0
 48 42  1  0
 35 25  1  0
M  CHG  2  16  -1  38   1
M  END
>  <UniqueID>  (27) 
22

>  <SMILES>  (27) 
CCn1cc(-c2cn3ccnc3/c(=N/c3ccc(N4CCCC4)[nH+]c3)[n-]2)cn1

>  <Energy>  (27) 
124.34835783199257

>  <Genealogy>  (27) 
CCn1cc(-c2cn3ccnc3c(=Nc3ccc(N4CCCC4)[nH+]c3)[n-]2)cn1 (protonated)
CCn1cc(-c2cn3ccnc3/c(=N/c3ccc(N4CCCC4)[nH+]c3)[n-]2)cn1 (cis-trans isomerization)
CCn1cc(-c2cn3ccnc3/c(=N/c3ccc(N4CCCC4)[nH+]c3)[n-]2)cn1 (3D coordinates assigned)
CCn1cc(-c2cn3ccnc3/c(=N/c3ccc(N4CCCC4)[nH+]c3)[n-]2)cn1 (nonaromatic ring conformer: 124.34835783199257 kcal/mol)

>  <smiles>  (27) 
CCn1cc(-c2cn3ccnc3c(=Nc3ccc(N4CCCC4)nc3)[nH]2)cn1

>  <score_type>  (27) 
oracle

>  <origin>  (27) 
adg

>  <m_score__min__energy>  (27) 
-7.1699999999999999

>  <m_primary>  (27) 
energy

$$$$
27:0
     RDKit          3D

 27 28  0  0  0  0  0  0  0  0999 V2000
   55.6780   27.0660   45.8410 F   0  0  0  0  0  0  0  0  0  0  0  0
   56.7910   26.2950   46.1180 C   0  0  0  0  0  0  0  0  0  0  0  0
   58.0820   27.0320   45.7500 C   0  0  0  0  0  0  0  0  0  0  0  0
   58.4950   28.0640   46.8070 C   0  0  0  0  0  0  0  0  0  0  0  0
   59.2710   29.5580   46.0790 S   0  0  0  0  0  0  0  0  0  0  0  0
   57.7320   30.2920   45.5000 C   0  0  0  0  0  0  0  0  0  0  0  0
   56.7720   29.5860   44.8760 N   0  0  0  0  0  0  0  0  0  0  0  0
   55.8720   30.4810   44.4950 N   0  0  0  0  0  0  0  0  0  0  0  0
   56.2670   31.6950   44.8470 N   0  0  0  0  0  0  0  0  0  0  0  0
   57.4240   31.6080   45.4810 N   0  0  0  0  0  0  0  0  0  0  0  0
   58.2140   32.7510   45.8590 C   0  0  0  0  0  0  0  0  0  0  0  0
   58.5380   33.7230   44.8950 C   0  0  0  0  0  0  0  0  0  0  0  0
   59.2950   34.8450   45.2430 C   0  0  0  0  0  0  0  0  0  0  0  0
   59.7300   35.0140   46.5600 C   0  0  0  0  0  0  0  0  0  0  0  0
   59.4000   34.0650   47.5300 C   0  0  0  0  0  0  0  0  0  0  0  0
   58.6430   32.9420   47.1840 C   0  0  0  0  0  0  0  0  0  0  0  0
   56.8061   26.0599   47.1925 H   0  0  0  0  0  0  0  0  0  0  0  0
   56.7337   25.3737   45.5197 H   0  0  0  0  0  0  0  0  0  0  0  0
   58.8907   26.2940   45.6436 H   0  0  0  0  0  0  0  0  0  0  0  0
   57.8997   27.5733   44.8099 H   0  0  0  0  0  0  0  0  0  0  0  0
   57.5993   28.3709   47.3669 H   0  0  0  0  0  0  0  0  0  0  0  0
   59.2419   27.5882   47.4595 H   0  0  0  0  0  0  0  0  0  0  0  0
   58.1924   33.5988   43.8581 H   0  0  0  0  0  0  0  0  0  0  0  0
   59.5485   35.5954   44.4797 H   0  0  0  0  0  0  0  0  0  0  0  0
   60.3317   35.8936   46.8325 H   0  0  0  0  0  0  0  0  0  0  0  0
   59.7365   34.2015   48.5683 H   0  0  0  0  0  0  0  0  0  0  0  0
   58.3809   32.2020   47.9545 H   0  0  0  0  0  0  0  0  0  0  0  0
  1  2  1  0
  2  3  1  0
  3  4  1  0
  4  5  1  0
  5  6  1  0
  6  7  2  0
  7  8  1  0
  8  9  2  0
  9 10  1  0
 10 11  1  0
 11 12  2  0
 12 13  1  0
 13 14  2  0
 14 15  1  0
 15 16  2  0
 10  6  1  0
 16 11  1  0
  2 17  1  0
  2 18  1  0
  3 19  1  0
  3 20  1  0
  4 21  1  0
  4 22  1  0
 12 23  1  0
 13 24  1  0
 14 25  1  0
 15 26  1  0
 16 27  1  0
M  END
>  <UniqueID>  (28) 
23

>  <SMILES>  (28) 
FCCCSc1nnnn1-c1ccccc1

>  <Energy>  (28) 
68.50623935586046

>  <Genealogy>  (28) 
FCCCSc1nnnn1-c1ccccc1 (3D coordinates assigned)
FCCCSc1nnnn1-c1ccccc1 (optimized conformer: 68.50623935586046 kcal/mol)

>  <smiles>  (28) 
FCCCSc1nnnn1-c1ccccc1

>  <score_type>  (28) 
oracle

>  <origin>  (28) 
adg

>  <m_score__min__energy>  (28) 
-6.9400000000000004

>  <m_primary>  (28) 
energy

$$$$
28:0
     RDKit          3D

 31 31  0  0  0  0  0  0  0  0999 V2000
   60.5330   25.9600   46.4160 C   0  0  0  0  0  0  0  0  0  0  0  0
   59.4350   26.8280   45.8760 C   0  0  0  0  0  0  0  0  0  0  0  0
   58.1180   26.6610   46.3220 C   0  0  0  0  0  0  0  0  0  0  0  0
   57.0980   27.4920   45.8480 C   0  0  0  0  0  0  0  0  0  0  0  0
   57.3790   28.5170   44.9220 C   0  0  0  0  0  0  0  0  0  0  0  0
   56.3130   29.4170   44.3940 C   0  0  0  0  0  0  0  0  0  0  0  0
   55.1460   29.3360   44.8670 O   0  0  0  0  0  0  0  0  0  0  0  0
   56.5700   30.4600   43.3380 C   0  0  0  0  0  0  0  0  0  0  0  0
   57.5070   31.5660   43.8480 C   0  0  0  0  0  0  0  0  0  0  0  0
   57.1660   31.9650   45.2320 N   0  0  0  0  0  0  0  0  0  0  0  0
   58.2040   31.5010   46.1670 C   0  0  0  0  0  0  0  0  0  0  0  0
   57.0250   33.4280   45.3440 C   0  0  0  0  0  0  0  0  0  0  0  0
   58.7110   28.6880   44.4950 C   0  0  0  0  0  0  0  0  0  0  0  0
   59.7280   27.8560   44.9720 C   0  0  0  0  0  0  0  0  0  0  0  0
   60.5085   25.9794   47.5156 H   0  0  0  0  0  0  0  0  0  0  0  0
   60.3908   24.9275   46.0642 H   0  0  0  0  0  0  0  0  0  0  0  0
   61.5048   26.3367   46.0642 H   0  0  0  0  0  0  0  0  0  0  0  0
   57.8842   25.8705   47.0504 H   0  0  0  0  0  0  0  0  0  0  0  0
   56.0667   27.3444   46.2011 H   0  0  0  0  0  0  0  0  0  0  0  0
   57.0315   29.9766   42.4643 H   0  0  0  0  0  0  0  0  0  0  0  0
   55.6080   30.9217   43.0706 H   0  0  0  0  0  0  0  0  0  0  0  0
   58.5427   31.1960   43.8268 H   0  0  0  0  0  0  0  0  0  0  0  0
   57.3938   32.4446   43.1959 H   0  0  0  0  0  0  0  0  0  0  0  0
   57.8612   31.6542   47.2009 H   0  0  0  0  0  0  0  0  0  0  0  0
   58.3967   30.4311   45.9994 H   0  0  0  0  0  0  0  0  0  0  0  0
   59.1298   32.0710   45.9994 H   0  0  0  0  0  0  0  0  0  0  0  0
   56.9975   33.7135   46.4060 H   0  0  0  0  0  0  0  0  0  0  0  0
   57.8802   33.9173   44.8548 H   0  0  0  0  0  0  0  0  0  0  0  0
   56.0921   33.7450   44.8548 H   0  0  0  0  0  0  0  0  0  0  0  0
   58.9534   29.4859   43.7776 H   0  0  0  0  0  0  0  0  0  0  0  0
   60.7638   28.0098   44.6353 H   0  0  0  0  0  0  0  0  0  0  0  0
  1  2  1  0
  2  3  2  0
  3  4  1  0
  4  5  2  0
  5  6  1  0
  6  7  2  0
  6  8  1  0
  8  9  1  0
  9 10  1  0
 10 11  1  0
 10 12  1  0
  5 13  1  0
 13 14  2  0
 14  2  1  0
  1 15  1  0
  1 16  1  0
  1 17  1  0
  3 18  1  0
  4 19  1  0
  8 20  1  0
  8 21  1  0
  9 22  1  0
  9 23  1  0
 11 24  1  0
 11 25  1  0
 11 26  1  0
 12 27  1  0
 12 28  1  0
 12 29  1  0
 13 30  1  0
 14 31  1  0
M  END
>  <UniqueID>  (29) 
24

>  <SMILES>  (29) 
Cc1ccc(C(=O)CCN(C)C)cc1

>  <Energy>  (29) 
28.142417394444216

>  <Genealogy>  (29) 
Cc1ccc(C(=O)CCN(C)C)cc1 (3D coordinates assigned)
Cc1ccc(C(=O)CCN(C)C)cc1 (optimized conformer: 28.142417394444216 kcal/mol)

>  <smiles>  (29) 
Cc1ccc(C(=O)CCN(C)C)cc1

>  <score_type>  (29) 
oracle

>  <origin>  (29) 
adg

>  <m_score__min__energy>  (29) 
-5.79

>  <m_primary>  (29) 
energy

$$$$
29:0
     RDKit          3D

 34 36  0  0  0  0  0  0  0  0999 V2000
   58.5560   22.2300   45.1940 C   0  0  0  0  0  0  0  0  0  0  0  0
   57.4840   22.3920   44.1620 C   0  0  0  0  0  0  0  0  0  0  0  0
   56.9480   21.3540   43.4920 N   0  0  0  0  0  0  0  0  0  0  0  0
   56.0150   21.8510   42.6910 N   0  0  0  0  0  0  0  0  0  0  0  0
   55.9950   23.1840   42.8830 C   0  0  0  0  0  0  0  0  0  0  0  0
   56.9140   23.5590   43.7930 N   0  0  0  0  0  0  0  0  0  0  0  0
   57.1780   24.8970   44.2520 C   0  0  0  0  0  0  0  0  0  0  0  0
   57.7540   25.8500   43.3980 C   0  0  0  0  0  0  0  0  0  0  0  0
   57.9940   27.1510   43.8490 C   0  0  0  0  0  0  0  0  0  0  0  0
   57.6710   27.5190   45.1600 C   0  0  0  0  0  0  0  0  0  0  0  0
   57.9160   28.8710   45.5750 N   0  0  0  0  0  0  0  0  0  0  0  0
   57.1660   30.0330   45.1920 C   0  0  0  0  0  0  0  0  0  0  0  0
   55.9550   29.9140   44.8630 O   0  0  0  0  0  0  0  0  0  0  0  0
   57.7960   31.3800   45.2400 C   0  0  0  0  0  0  0  0  0  0  0  0
   58.3350   31.8810   46.4490 C   0  0  0  0  0  0  0  0  0  0  0  0
   58.3070   31.1450   47.5890 F   0  0  0  0  0  0  0  0  0  0  0  0
   58.9270   33.1470   46.4900 C   0  0  0  0  0  0  0  0  0  0  0  0
   58.9900   33.9330   45.3400 C   0  0  0  0  0  0  0  0  0  0  0  0
   58.4600   33.4560   44.1410 C   0  0  0  0  0  0  0  0  0  0  0  0
   57.8660   32.1910   44.0840 C   0  0  0  0  0  0  0  0  0  0  0  0
   57.3460   31.7780   42.9000 F   0  0  0  0  0  0  0  0  0  0  0  0
   57.0590   26.5780   46.0060 C   0  0  0  0  0  0  0  0  0  0  0  0
   56.8160   25.2780   45.5550 C   0  0  0  0  0  0  0  0  0  0  0  0
   58.1116   22.2972   46.1980 H   0  0  0  0  0  0  0  0  0  0  0  0
   59.0379   21.2488   45.0712 H   0  0  0  0  0  0  0  0  0  0  0  0
   59.3063   23.0250   45.0712 H   0  0  0  0  0  0  0  0  0  0  0  0
   55.3161   23.8765   42.3638 H   0  0  0  0  0  0  0  0  0  0  0  0
   58.0183   25.5714   42.3672 H   0  0  0  0  0  0  0  0  0  0  0  0
   58.4401   27.8911   43.1684 H   0  0  0  0  0  0  0  0  0  0  0  0
   59.3453   33.5250   47.4345 H   0  0  0  0  0  0  0  0  0  0  0  0
   59.4571   34.9281   45.3782 H   0  0  0  0  0  0  0  0  0  0  0  0
   58.5095   34.0783   43.2353 H   0  0  0  0  0  0  0  0  0  0  0  0
   56.7701   26.8662   47.0275 H   0  0  0  0  0  0  0  0  0  0  0  0
   56.3380   24.5479   46.2247 H   0  0  0  0  0  0  0  0  0  0  0  0
  1  2  1  0
  2  3  2  0
  3  4  1  0
  4  5  2  0
  5  6  1  0
  6  7  1  0
  7  8  2  0
  8  9  1  0
  9 10  2  0
 10 11  1  0
 11 12  1  0
 12 13  2  0
 12 14  1  0
 14 15  2  0
 15 16  1  0
 15 17  1  0
 17 18  2  0
 18 19  1  0
 19 20  2  0
 20 21  1  0
 10 22  1  0
 22 23  2  0
  6  2  1  0
 23  7  1  0
 20 14  1  0
  1 24  1  0
  1 25  1  0
  1 26  1  0
  5 27  1  0
  8 28  1  0
  9 29  1  0
 17 30  1  0
 18 31  1  0
 19 32  1  0
 22 33  1  0
 23 34  1  0
M  CHG  1  11  -1
M  END
>  <UniqueID>  (30) 
25

>  <SMILES>  (30) 
Cc1nncn1-c1ccc([N-]C(=O)c2c(F)cccc2F)cc1

>  <Energy>  (30) 
82.40350740093098

>  <Genealogy>  (30) 
Cc1nncn1-c1ccc([N-]C(=O)c2c(F)cccc2F)cc1 (protonated)
Cc1nncn1-c1ccc([N-]C(=O)c2c(F)cccc2F)cc1 (3D coordinates assigned)
Cc1nncn1-c1ccc([N-]C(=O)c2c(F)cccc2F)cc1 (optimized conformer: 82.40350740093098 kcal/mol)

>  <smiles>  (30) 
Cc1nncn1-c1ccc(NC(=O)c2c(F)cccc2F)cc1

>  <score_type>  (30) 
oracle

>  <origin>  (30) 
adg

>  <m_score__min__energy>  (30) 
-8.7799999999999994

>  <m_primary>  (30) 
energy

$$$$
30:0
     RDKit          3D

 33 35  0  0  0  0  0  0  0  0999 V2000
   59.5168   35.3330   43.9382 H   0  0  0  0  0  0  0  0  0  0  0  0
   59.2450   34.6590   44.7640 C   0  0  0  0  0  0  0  0  0  0  0  0
   59.6020   34.9680   46.0380 N   0  0  0  0  0  0  0  0  0  0  0  0
   59.2870   34.1610   47.0870 C   0  0  0  0  0  0  0  0  0  0  0  0
   59.6700   34.5640   48.4760 C   0  0  0  0  0  0  0  0  0  0  0  0
   59.1006   33.9648   49.2018 H   0  0  0  0  0  0  0  0  0  0  0  0
   60.7465   34.3930   48.6237 H   0  0  0  0  0  0  0  0  0  0  0  0
   59.4445   35.6304   48.6237 H   0  0  0  0  0  0  0  0  0  0  0  0
   58.5660   32.9790   46.8650 C   0  0  0  0  0  0  0  0  0  0  0  0
   58.2890   32.3330   47.7111 H   0  0  0  0  0  0  0  0  0  0  0  0
   58.2000   32.6250   45.5580 C   0  0  0  0  0  0  0  0  0  0  0  0
   57.4330   31.3920   45.2840 C   0  0  0  0  0  0  0  0  0  0  0  0
   56.2880   31.3670   44.5610 N   0  0  0  0  0  0  0  0  0  0  0  0
   55.8390   30.1160   44.4940 N   0  0  0  0  0  0  0  0  0  0  0  0
   56.7050   29.3450   45.1700 C   0  0  0  0  0  0  0  0  0  0  0  0
   56.6600   27.9660   45.3430 C   0  0  0  0  0  0  0  0  0  0  0  0
   55.8290   27.3659   44.9438 H   0  0  0  0  0  0  0  0  0  0  0  0
   57.7230   27.3680   46.0510 C   0  0  0  0  0  0  0  0  0  0  0  0
   57.7030   26.0830   46.2560 N   0  0  0  0  0  0  0  0  0  0  0  0
   56.6880   25.1640   45.8240 C   0  0  0  0  0  0  0  0  0  0  0  0
   55.5450   25.2350   46.3470 O   0  0  0  0  0  0  0  0  0  0  0  0
   56.9320   24.2230   44.7670 N   0  0  0  0  0  0  0  0  0  0  0  0
   57.7840   24.3180   44.1710 H   0  0  0  0  0  0  0  0  0  0  0  0
   55.9730   23.1750   44.4410 C   0  0  0  0  0  0  0  0  0  0  0  0
   55.5751   22.7402   45.3698 H   0  0  0  0  0  0  0  0  0  0  0  0
   55.1474   23.6032   43.8536 H   0  0  0  0  0  0  0  0  0  0  0  0
   56.4726   22.3906   43.8536 H   0  0  0  0  0  0  0  0  0  0  0  0
   58.7430   28.1500   46.5380 N   0  0  0  0  0  0  0  0  0  0  0  0
   58.7770   29.5050   46.3610 C   0  0  0  0  0  0  0  0  0  0  0  0
   59.6129   30.1068   46.7472 H   0  0  0  0  0  0  0  0  0  0  0  0
   57.7210   30.0990   45.6770 C   0  0  0  0  0  0  0  0  0  0  0  0
   58.5330   33.4860   44.5020 C   0  0  0  0  0  0  0  0  0  0  0  0
   58.2349   33.2388   43.4724 H   0  0  0  0  0  0  0  0  0  0  0  0
  1  2  1  0
  2  3  2  0
  3  4  1  0
  4  5  1  0
  5  6  1  0
  5  7  1  0
  5  8  1  0
  4  9  2  0
  9 10  1  0
  9 11  1  0
 11 12  1  0
 12 13  2  0
 13 14  1  0
 14 15  1  0
 15 16  2  0
 16 17  1  0
 16 18  1  0
 18 19  2  0
 19 20  1  0
 20 21  2  0
 20 22  1  0
 22 23  1  0
 22 24  1  0
 24 25  1  0
 24 26  1  0
 24 27  1  0
 18 28  1  0
 28 29  1  0
 29 30  1  0
 29 31  2  0
 11 32  2  0
 32 33  1  0
 32  2  1  0
 31 12  1  0
 31 15  1  0
M  CHG  2  14  -1  28  -1
M  END
>  <UniqueID>  (31) 
26

>  <SMILES>  (31) 
CNC(=O)/N=c1/cc2[n-]nc(-c3ccnc(C)c3)c2c[n-]1

>  <Energy>  (31) 
80.48771304570569

>  <Genealogy>  (31) 
CNC(=O)N=c1cc2[n-]nc(-c3ccnc(C)c3)c2c[n-]1 (protonated)
CNC(=O)/N=c1/cc2[n-]nc(-c3ccnc(C)c3)c2c[n-]1 (cis-trans isomerization)
CNC(=O)/N=c1/cc2[n-]nc(-c3ccnc(C)c3)c2c[n-]1 (3D coordinates assigned)
CNC(=O)/N=c1/cc2[n-]nc(-c3ccnc(C)c3)c2c[n-]1 (optimized conformer: 80.48771304570569 kcal/mol)

>  <smiles>  (31) 
CNC(=O)N=c1cc2[nH]nc(-c3ccnc(C)c3)c2c[nH]1

>  <score_type>  (31) 
oracle

>  <origin>  (31) 
adg

>  <m_score__min__energy>  (31) 
-10.52

>  <m_primary>  (31) 
energy

$$$$
31:0
     RDKit          3D

 28 30  0  0  1  0  0  0  0  0999 V2000
   56.2810   29.4030   42.6280 S   0  0  0  0  0  0  0  0  0  0  0  0
   57.0330   30.8080   43.0280 C   0  0  0  0  0  0  0  0  0  0  0  0
   57.4640   31.7560   42.1710 N   0  0  0  0  0  0  0  0  0  0  0  0
   58.0090   32.7190   42.8940 N   0  0  0  0  0  0  0  0  0  0  0  0
   57.9400   32.4160   44.2100 C   0  0  0  0  0  0  0  0  0  0  0  0
   58.4310   33.2250   45.3210 C   0  0  0  0  0  0  0  0  0  0  0  0
   59.1490   34.3720   44.9630 C   0  0  0  0  0  0  0  0  0  0  0  0
   59.6680   35.2230   45.9170 C   0  0  0  0  0  0  0  0  0  0  0  0
   59.4660   34.9200   47.2050 N   0  0  0  0  0  0  0  0  0  0  0  0
   58.7820   33.8260   47.5660 C   0  0  0  0  0  0  0  0  0  0  0  0
   58.2390   32.9380   46.6330 C   0  0  0  0  0  0  0  0  0  0  0  0
   57.3290   31.2200   44.2900 N   0  0  0  0  0  0  0  0  0  0  0  0
   57.0250   30.4840   45.4400 N   0  0  0  0  0  0  0  0  0  0  0  0
   57.8540   29.5770   45.8640 C   0  0  0  0  0  0  0  0  0  0  0  0
   57.6790   28.1600   45.6420 C   0  0  0  0  0  0  0  0  0  0  0  0
   58.5710   27.2920   45.0510 C   0  0  0  0  0  0  0  0  0  0  0  0
   57.9470   26.0500   45.0700 C   0  0  0  0  0  0  0  0  0  0  0  0
   56.7120   26.2290   45.6700 C   0  0  0  0  0  0  0  0  0  0  0  0
   56.5880   27.4810   45.9940 O   0  0  0  0  0  0  0  0  0  0  0  0
   57.3710   31.7110   41.1310 H   0  0  0  0  0  0  0  0  0  0  0  0
   59.3028   34.5999   43.8979 H   0  0  0  0  0  0  0  0  0  0  0  0
   60.2306   36.1230   45.6279 H   0  0  0  0  0  0  0  0  0  0  0  0
   58.6424   33.6187   48.6372 H   0  0  0  0  0  0  0  0  0  0  0  0
   57.6800   32.0449   46.9490 H   0  0  0  0  0  0  0  0  0  0  0  0
   58.7408   29.9076   46.4247 H   0  0  0  0  0  0  0  0  0  0  0  0
   59.5666   27.5313   44.6491 H   0  0  0  0  0  0  0  0  0  0  0  0
   58.3562   25.1054   44.6824 H   0  0  0  0  0  0  0  0  0  0  0  0
   55.9620   25.4432   45.8432 H   0  0  0  0  0  0  0  0  0  0  0  0
  1  2  2  0
  2  3  1  0
  3  4  1  0
  4  5  2  0
  5  6  1  0
  6  7  2  0
  7  8  1  0
  8  9  2  0
  9 10  1  0
 10 11  2  0
  5 12  1  0
 12 13  1  0
 13 14  2  0
 14 15  1  0
 15 16  2  0
 16 17  1  0
 17 18  2  0
 18 19  1  0
 12  2  1  0
 19 15  1  0
 11  6  1  0
  3 20  1  0
  7 21  1  0
  8 22  1  0
 10 23  1  0
 11 24  1  0
 14 25  1  0
 16 26  1  0
 17 27  1  0
 18 28  1  0
M  END
>  <smiles>  (32) 
S=c1[nH]nc(-c2ccncc2)n1N=Cc1ccco1

>  <score_type>  (32) 
oracle

>  <origin>  (32) 
adg

>  <m_score__min__energy>  (32) 
-6.75

>  <m_primary>  (32) 
energy

$$$$
32:0
     RDKit          3D

 50 52  0  0  0  0  0  0  0  0999 V2000
   57.0110   28.0400   45.2880 C   0  0  0  0  0  0  0  0  0  0  0  0
   57.2400   29.3260   44.5380 C   0  0  0  0  0  0  0  0  0  0  0  0
   56.5620   29.5270   43.3230 C   0  0  0  0  0  0  0  0  0  0  0  0
   56.7120   30.7190   42.6130 C   0  0  0  0  0  0  0  0  0  0  0  0
   57.5450   31.7240   43.1020 C   0  0  0  0  0  0  0  0  0  0  0  0
   58.2450   31.5350   44.2950 C   0  0  0  0  0  0  0  0  0  0  0  0
   58.1200   30.3340   45.0140 C   0  0  0  0  0  0  0  0  0  0  0  0
   58.9080   30.1790   46.2560 C   0  0  0  0  0  0  0  0  0  0  0  0
   59.5960   28.9970   46.5400 C   0  0  0  0  0  0  0  0  0  0  0  0
   60.3520   28.9100   47.7060 C   0  0  0  0  0  0  0  0  0  0  0  0
   60.4260   30.0160   48.5620 C   0  0  0  0  0  0  0  0  0  0  0  0
   61.2130   29.9600   49.7690 N   0  0  0  0  0  0  0  0  0  0  0  0
   61.3170   28.6980   50.5050 C   0  0  0  0  0  0  0  0  0  0  0  0
   61.8430   31.1730   50.3120 C   0  0  0  0  0  0  0  0  0  0  0  0
   63.0360   31.6230   49.4500 C   0  0  0  0  0  0  0  0  0  0  0  0
   62.6110   32.1770   48.0660 C   0  0  2  0  0  0  0  0  0  0  0  0
   63.7520   32.8240   47.2850 C   0  0  0  0  0  0  0  0  0  0  0  0
   63.0710   33.8400   46.3840 C   0  0  0  0  0  0  0  0  0  0  0  0
   61.6040   33.8470   46.8080 C   0  0  0  0  0  0  0  0  0  0  0  0
   61.5010   33.1540   48.1020 N   0  0  0  0  0  0  0  0  0  0  0  0
   61.6070   34.1310   49.2050 C   0  0  0  0  0  0  0  0  0  0  0  0
   59.7400   31.1490   48.2340 N   0  0  0  0  0  0  0  0  0  0  0  0
   59.0180   31.2270   47.1160 N   0  0  0  0  0  0  0  0  0  0  0  0
   57.0458   28.2354   46.3700 H   0  0  0  0  0  0  0  0  0  0  0  0
   56.0258   27.6302   45.0209 H   0  0  0  0  0  0  0  0  0  0  0  0
   57.7942   27.3153   45.0209 H   0  0  0  0  0  0  0  0  0  0  0  0
   55.9067   28.7368   42.9280 H   0  0  0  0  0  0  0  0  0  0  0  0
   56.1720   30.8657   41.6660 H   0  0  0  0  0  0  0  0  0  0  0  0
   57.6510   32.6677   42.5469 H   0  0  0  0  0  0  0  0  0  0  0  0
   58.8999   32.3328   44.6754 H   0  0  0  0  0  0  0  0  0  0  0  0
   59.5411   28.1429   45.8490 H   0  0  0  0  0  0  0  0  0  0  0  0
   60.8864   27.9807   47.9527 H   0  0  0  0  0  0  0  0  0  0  0  0
   61.3002   28.9015   51.5859 H   0  0  0  0  0  0  0  0  0  0  0  0
   60.4693   28.0486   50.2409 H   0  0  0  0  0  0  0  0  0  0  0  0
   62.2595   28.1961   50.2409 H   0  0  0  0  0  0  0  0  0  0  0  0
   61.0973   31.9812   50.3401 H   0  0  0  0  0  0  0  0  0  0  0  0
   62.2133   30.9467   51.3228 H   0  0  0  0  0  0  0  0  0  0  0  0
   63.5809   32.4111   49.9903 H   0  0  0  0  0  0  0  0  0  0  0  0
   63.6636   30.7376   49.2704 H   0  0  0  0  0  0  0  0  0  0  0  0
   62.2703   31.2636   47.5564 H   0  0  0  0  0  0  0  0  0  0  0  0
   64.4570   33.3211   47.9675 H   0  0  0  0  0  0  0  0  0  0  0  0
   64.3381   32.0877   46.7155 H   0  0  0  0  0  0  0  0  0  0  0  0
   63.5158   34.8363   46.5239 H   0  0  0  0  0  0  0  0  0  0  0  0
   63.1861   33.5827   45.3207 H   0  0  0  0  0  0  0  0  0  0  0  0
   61.2500   34.8834   46.9105 H   0  0  0  0  0  0  0  0  0  0  0  0
   60.9857   33.3398   46.0528 H   0  0  0  0  0  0  0  0  0  0  0  0
   61.5498   33.6037   50.1687 H   0  0  0  0  0  0  0  0  0  0  0  0
   62.5680   34.6615   49.1338 H   0  0  0  0  0  0  0  0  0  0  0  0
   60.7822   34.8553   49.1338 H   0  0  0  0  0  0  0  0  0  0  0  0
   59.7940   31.9920   48.8470 H   0  0  0  0  0  0  0  0  0  0  0  0
  1  2  1  0
  2  3  2  0
  3  4  1  0
  4  5  2  0
  5  6  1  0
  6  7  2  0
  7  8  1  0
  8  9  2  0
  9 10  1  0
 10 11  2  0
 11 12  1  0
 12 13  1  0
 12 14  1  0
 14 15  1  0
 15 16  1  0
 16 17  1  0
 17 18  1  0
 18 19  1  0
 19 20  1  0
 20 21  1  0
 11 22  1  0
 22 23  2  0
  7  2  1  0
 23  8  1  0
 20 16  1  0
  1 24  1  0
  1 25  1  0
  1 26  1  0
  3 27  1  0
  4 28  1  0
  5 29  1  0
  6 30  1  0
  9 31  1  0
 10 32  1  0
 13 33  1  0
 13 34  1  0
 13 35  1  0
 14 36  1  0
 14 37  1  0
 15 38  1  0
 15 39  1  0
 16 40  1  6
 17 41  1  0
 17 42  1  0
 18 43  1  0
 18 44  1  0
 19 45  1  0
 19 46  1  0
 21 47  1  0
 21 48  1  0
 21 49  1  0
 22 50  1  0
M  CHG  1  22   1
M  END
>  <UniqueID>  (33) 
27

>  <SMILES>  (33) 
Cc1ccccc1-c1ccc(N(C)CC[C@@H]2CCCN2C)[nH+]n1

>  <Energy>  (33) 
63.40554508814609

>  <Genealogy>  (33) 
Cc1ccccc1-c1ccc(N(C)CCC2CCCN2C)[nH+]n1 (protonated)
Cc1ccccc1-c1ccc(N(C)CC[C@@H]2CCCN2C)[nH+]n1 (chirality)
Cc1ccccc1-c1ccc(N(C)CC[C@@H]2CCCN2C)[nH+]n1 (3D coordinates assigned)
Cc1ccccc1-c1ccc(N(C)CC[C@@H]2CCCN2C)[nH+]n1 (nonaromatic ring conformer: 63.40554508814609 kcal/mol)

>  <smiles>  (33) 
Cc1ccccc1-c1ccc(N(C)CCC2CCCN2C)nn1

>  <score_type>  (33) 
oracle

>  <origin>  (33) 
adg

>  <m_score__min__energy>  (33) 
-6.1100000000000003

>  <m_primary>  (33) 
energy

$$$$
33:0
     RDKit          3D

 40 42  0  0  0  0  0  0  0  0999 V2000
   55.4290   29.7190   43.5400 C   0  0  0  0  0  0  0  0  0  0  0  0
   55.7480   29.3150   44.8680 O   0  0  0  0  0  0  0  0  0  0  0  0
   56.9570   28.7110   45.2490 C   0  0  0  0  0  0  0  0  0  0  0  0
   57.0120   27.3740   45.6920 C   0  0  0  0  0  0  0  0  0  0  0  0
   58.2300   26.8040   46.0690 C   0  0  0  0  0  0  0  0  0  0  0  0
   59.4060   27.5510   45.9970 C   0  0  0  0  0  0  0  0  0  0  0  0
   59.3660   28.8760   45.5580 C   0  0  0  0  0  0  0  0  0  0  0  0
   58.1460   29.4700   45.1920 C   0  0  0  0  0  0  0  0  0  0  0  0
   58.1090   30.9270   44.7970 C   0  0  0  0  0  0  0  0  0  0  0  0
   57.0510   31.6410   45.5340 N   0  0  0  0  0  0  0  0  0  0  0  0
   57.0660   33.0930   45.2890 C   0  0  0  0  0  0  0  0  0  0  0  0
   58.3590   33.7020   45.7390 C   0  0  0  0  0  0  0  0  0  0  0  0
   58.9090   34.8750   45.2780 C   0  0  0  0  0  0  0  0  0  0  0  0
   60.0680   35.0200   45.8690 O   0  0  0  0  0  0  0  0  0  0  0  0
   60.2380   33.9880   46.6700 C   0  0  0  0  0  0  0  0  0  0  0  0
   61.4700   33.7740   47.4700 C   0  0  0  0  0  0  0  0  0  0  0  0
   62.6950   33.6590   46.7840 C   0  0  0  0  0  0  0  0  0  0  0  0
   63.8840   33.4230   47.4780 C   0  0  0  0  0  0  0  0  0  0  0  0
   63.8700   33.2970   48.8650 C   0  0  0  0  0  0  0  0  0  0  0  0
   65.0260   33.0660   49.5350 F   0  0  0  0  0  0  0  0  0  0  0  0
   62.6680   33.4120   49.5650 C   0  0  0  0  0  0  0  0  0  0  0  0
   61.4670   33.6500   48.8840 C   0  0  0  0  0  0  0  0  0  0  0  0
   60.0120   33.8040   49.8650 Cl  0  0  0  0  0  0  0  0  0  0  0  0
   59.1900   33.1370   46.6360 N   0  0  0  0  0  0  0  0  0  0  0  0
   54.7476   30.5819   43.5729 H   0  0  0  0  0  0  0  0  0  0  0  0
   56.3514   30.0001   43.0107 H   0  0  0  0  0  0  0  0  0  0  0  0
   54.9416   28.8870   43.0107 H   0  0  0  0  0  0  0  0  0  0  0  0
   56.0901   26.7760   45.7411 H   0  0  0  0  0  0  0  0  0  0  0  0
   58.2621   25.7632   46.4237 H   0  0  0  0  0  0  0  0  0  0  0  0
   60.3649   27.0962   46.2861 H   0  0  0  0  0  0  0  0  0  0  0  0
   60.2966   29.4594   45.4982 H   0  0  0  0  0  0  0  0  0  0  0  0
   59.0815   31.3876   45.0252 H   0  0  0  0  0  0  0  0  0  0  0  0
   57.8969   30.9956   43.7198 H   0  0  0  0  0  0  0  0  0  0  0  0
   56.1310   31.2820   45.1850 H   0  0  0  0  0  0  0  0  0  0  0  0
   56.9376   33.2771   44.2121 H   0  0  0  0  0  0  0  0  0  0  0  0
   56.2457   33.5524   45.8600 H   0  0  0  0  0  0  0  0  0  0  0  0
   58.4586   35.5637   44.5480 H   0  0  0  0  0  0  0  0  0  0  0  0
   62.7154   33.7562   45.6885 H   0  0  0  0  0  0  0  0  0  0  0  0
   64.8328   33.3365   46.9283 H   0  0  0  0  0  0  0  0  0  0  0  0
   62.6636   33.3149   50.6607 H   0  0  0  0  0  0  0  0  0  0  0  0
  1  2  1  0
  2  3  1  0
  3  4  2  0
  4  5  1  0
  5  6  2  0
  6  7  1  0
  7  8  2  0
  8  9  1  0
  9 10  1  0
 10 11  1  0
 11 12  1  0
 12 13  2  0
 13 14  1  0
 14 15  1  0
 15 16  1  0
 16 17  2  0
 17 18  1  0
 18 19  2  0
 19 20  1  0
 19 21  1  0
 21 22  2  0
 22 23  1  0
 15 24  2  0
  8  3  1  0
 24 12  1  0
 22 16  1  0
  1 25  1  0
  1 26  1  0
  1 27  1  0
  4 28  1  0
  5 29  1  0
  6 30  1  0
  7 31  1  0
  9 32  1  0
  9 33  1  0
 10 34  1  0
 11 35  1  0
 11 36  1  0
 13 37  1  0
 17 38  1  0
 18 39  1  0
 21 40  1  0
M  END
>  <UniqueID>  (34) 
28

>  <SMILES>  (34) 
COc1ccccc1CNCc1coc(-c2ccc(F)cc2Cl)n1

>  <Energy>  (34) 
70.32245703576424

>  <Genealogy>  (34) 
COc1ccccc1CNCc1coc(-c2ccc(F)cc2Cl)n1 (3D coordinates assigned)
COc1ccccc1CNCc1coc(-c2ccc(F)cc2Cl)n1 (optimized conformer: 70.32245703576424 kcal/mol)

>  <smiles>  (34) 
COc1ccccc1CNCc1coc(-c2ccc(F)cc2Cl)n1

>  <score_type>  (34) 
oracle

>  <origin>  (34) 
adg

>  <m_score__min__energy>  (34) 
-8.0600000000000005

>  <m_primary>  (34) 
energy

$$$$
34:0
     RDKit          3D

 51 54  0  0  0  0  0  0  0  0999 V2000
   64.6150   32.5500   49.2400 C   0  0  0  0  0  0  0  0  0  0  0  0
   63.4100   33.1140   48.5490 C   0  0  0  0  0  0  0  0  0  0  0  0
   63.2920   33.0260   47.1530 C   0  0  0  0  0  0  0  0  0  0  0  0
   62.1520   33.5160   46.5090 C   0  0  0  0  0  0  0  0  0  0  0  0
   61.1140   34.0920   47.2550 C   0  0  0  0  0  0  0  0  0  0  0  0
   59.6600   34.6930   46.4580 S   0  0  0  0  0  0  0  0  0  0  0  0
   58.7100   35.1480   47.5280 O   0  0  0  0  0  0  0  0  0  0  0  0
   60.0110   35.8680   45.5880 O   0  0  0  0  0  0  0  0  0  0  0  0
   58.9200   33.4330   45.4570 C   0  0  0  0  0  0  0  0  0  0  0  0
   58.5850   33.7220   44.1270 C   0  0  0  0  0  0  0  0  0  0  0  0
   57.9780   32.7930   43.3480 N   0  0  0  0  0  0  0  0  0  0  0  0
   57.6550   31.5610   43.8170 C   0  0  0  0  0  0  0  0  0  0  0  0
   57.0160   30.6450   42.9740 C   0  0  0  0  0  0  0  0  0  0  0  0
   56.6550   29.3840   43.4520 C   0  0  0  0  0  0  0  0  0  0  0  0
   56.9260   29.0340   44.7760 C   0  0  0  0  0  0  0  0  0  0  0  0
   56.5630   27.8120   45.2390 F   0  0  0  0  0  0  0  0  0  0  0  0
   57.5660   29.9410   45.6270 C   0  0  0  0  0  0  0  0  0  0  0  0
   57.9510   31.2130   45.1550 C   0  0  0  0  0  0  0  0  0  0  0  0
   58.6080   32.1560   45.9780 C   0  0  0  0  0  0  0  0  0  0  0  0
   58.9440   31.8290   47.3380 N   0  0  0  0  0  0  0  0  0  0  0  0
   58.2140   32.4900   48.4310 C   0  0  0  0  0  0  0  0  0  0  0  0
   58.7960   32.1180   49.7980 C   0  0  0  0  0  0  0  0  0  0  0  0
   59.0060   30.5960   49.8870 C   0  0  0  0  0  0  0  0  0  0  0  0
   59.5250   30.2040   51.2760 C   0  0  0  0  0  0  0  0  0  0  0  0
   59.9460   30.0650   48.7690 C   0  0  0  0  0  0  0  0  0  0  0  0
   60.1590   31.0530   47.6080 C   0  0  0  0  0  0  0  0  0  0  0  0
   61.2200   34.1600   48.6510 C   0  0  0  0  0  0  0  0  0  0  0  0
   62.3600   33.6690   49.2940 C   0  0  0  0  0  0  0  0  0  0  0  0
   64.4768   32.6147   50.3294 H   0  0  0  0  0  0  0  0  0  0  0  0
   64.7454   31.4973   48.9488 H   0  0  0  0  0  0  0  0  0  0  0  0
   65.5069   33.1242   48.9488 H   0  0  0  0  0  0  0  0  0  0  0  0
   64.1003   32.5694   46.5630 H   0  0  0  0  0  0  0  0  0  0  0  0
   62.0692   33.4495   45.4141 H   0  0  0  0  0  0  0  0  0  0  0  0
   58.8171   34.7134   43.7107 H   0  0  0  0  0  0  0  0  0  0  0  0
   56.7974   30.9194   41.9314 H   0  0  0  0  0  0  0  0  0  0  0  0
   56.1565   28.6655   42.7847 H   0  0  0  0  0  0  0  0  0  0  0  0
   57.7703   29.6604   46.6708 H   0  0  0  0  0  0  0  0  0  0  0  0
   58.2811   33.5799   48.2982 H   0  0  0  0  0  0  0  0  0  0  0  0
   57.1664   32.1562   48.3987 H   0  0  0  0  0  0  0  0  0  0  0  0
   59.7618   32.6270   49.9330 H   0  0  0  0  0  0  0  0  0  0  0  0
   58.0945   32.4313   50.5853 H   0  0  0  0  0  0  0  0  0  0  0  0
   58.0265   30.1204   49.7310 H   0  0  0  0  0  0  0  0  0  0  0  0
   58.8996   30.6764   52.0479 H   0  0  0  0  0  0  0  0  0  0  0  0
   59.4825   29.1106   51.3882 H   0  0  0  0  0  0  0  0  0  0  0  0
   60.5651   30.5439   51.3882 H   0  0  0  0  0  0  0  0  0  0  0  0
   60.9254   29.8421   49.2175 H   0  0  0  0  0  0  0  0  0  0  0  0
   59.4621   29.1736   48.3434 H   0  0  0  0  0  0  0  0  0  0  0  0
   60.9741   31.7435   47.8702 H   0  0  0  0  0  0  0  0  0  0  0  0
   60.4111   30.4778   46.7049 H   0  0  0  0  0  0  0  0  0  0  0  0
   60.4039   34.6009   49.2422 H   0  0  0  0  0  0  0  0  0  0  0  0
   62.4336   33.7184   50.3904 H   0  0  0  0  0  0  0  0  0  0  0  0
  1  2  1  0
  2  3  2  0
  3  4  1  0
  4  5  2  0
  5  6  1  0
  6  7  2  0
  6  8  2  0
  6  9  1  0
  9 10  2  0
 10 11  1  0
 11 12  2  0
 12 13  1  0
 13 14  2  0
 14 15  1  0
 15 16  1  0
 15 17  2  0
 17 18  1  0
 18 19  2  0
 19 20  1  0
 20 21  1  0
 21 22  1  0
 22 23  1  0
 23 24  1  0
 23 25  1  0
 25 26  1  0
  5 27  1  0
 27 28  2  0
 28  2  1  0
 19  9  1  0
 26 20  1  0
 18 12  1  0
  1 29  1  0
  1 30  1  0
  1 31  1  0
  3 32  1  0
  4 33  1  0
 10 34  1  0
 13 35  1  0
 14 36  1  0
 17 37  1  0
 21 38  1  0
 21 39  1  0
 22 40  1  0
 22 41  1  0
 23 42  1  0
 24 43  1  0
 24 44  1  0
 24 45  1  0
 25 46  1  0
 25 47  1  0
 26 48  1  0
 26 49  1  0
 27 50  1  0
 28 51  1  0
M  END
>  <UniqueID>  (35) 
29

>  <SMILES>  (35) 
Cc1ccc(S(=O)(=O)c2cnc3ccc(F)cc3c2N2CCC(C)CC2)cc1

>  <Energy>  (35) 
65.37238971890257

>  <Genealogy>  (35) 
Cc1ccc(S(=O)(=O)c2cnc3ccc(F)cc3c2N2CCC(C)CC2)cc1 (3D coordinates assigned)
Cc1ccc(S(=O)(=O)c2cnc3ccc(F)cc3c2N2CCC(C)CC2)cc1 (nonaromatic ring conformer: 65.37238971890257 kcal/mol)

>  <smiles>  (35) 
Cc1ccc(S(=O)(=O)c2cnc3ccc(F)cc3c2N2CCC(C)CC2)cc1

>  <score_type>  (35) 
oracle

>  <origin>  (35) 
adg

>  <m_score__min__energy>  (35) 
-9.2799999999999994

>  <m_primary>  (35) 
energy

$$$$
35:0
     RDKit          3D

 42 43  0  0  0  0  0  0  0  0999 V2000
   55.1880   30.3680   44.8320 O   0  0  0  0  0  0  0  0  0  0  0  0
   55.9290   29.4140   44.4770 C   0  0  0  0  0  0  0  0  0  0  0  0
   56.8140   29.5910   43.2710 C   0  0  0  0  0  0  0  0  0  0  0  0
   58.0420   30.4640   43.5780 C   0  0  0  0  0  0  0  0  0  0  0  0
   57.6810   31.8810   44.0470 C   0  0  0  0  0  0  0  0  0  0  0  0
   57.4160   31.9020   45.4880 N   0  0  0  0  0  0  0  0  0  0  0  0
   58.1250   33.3170   46.2030 S   0  0  0  0  0  0  0  0  0  0  0  0
   57.3870   33.6780   47.4630 O   0  0  0  0  0  0  0  0  0  0  0  0
   58.0100   34.4660   45.2410 O   0  0  0  0  0  0  0  0  0  0  0  0
   59.8270   33.0340   46.5620 C   0  0  0  0  0  0  0  0  0  0  0  0
   60.2520   31.7600   46.9660 C   0  0  0  0  0  0  0  0  0  0  0  0
   61.5980   31.5330   47.2690 C   0  0  0  0  0  0  0  0  0  0  0  0
   62.5230   32.5760   47.1740 C   0  0  0  0  0  0  0  0  0  0  0  0
   62.1030   33.8490   46.7780 C   0  0  0  0  0  0  0  0  0  0  0  0
   60.7570   34.0800   46.4740 C   0  0  0  0  0  0  0  0  0  0  0  0
   55.9220   28.2120   45.2540 N   0  0  0  0  0  0  0  0  0  0  0  0
   57.0590   27.6970   46.0120 C   0  0  0  0  0  0  0  0  0  0  0  0
   57.9900   28.8400   46.4080 C   0  0  0  0  0  0  0  0  0  0  0  0
   58.9850   28.4010   47.4400 C   0  0  0  0  0  0  0  0  0  0  0  0
   59.8870   27.3530   47.3080 C   0  0  0  0  0  0  0  0  0  0  0  0
   60.7410   27.2200   48.4090 C   0  0  0  0  0  0  0  0  0  0  0  0
   60.5220   28.1670   49.4010 C   0  0  0  0  0  0  0  0  0  0  0  0
   59.2670   29.1730   48.9060 S   0  0  0  0  0  0  0  0  0  0  0  0
   57.1573   28.6015   42.9347 H   0  0  0  0  0  0  0  0  0  0  0  0
   56.2260   30.0959   42.4904 H   0  0  0  0  0  0  0  0  0  0  0  0
   58.6293   29.9741   44.3686 H   0  0  0  0  0  0  0  0  0  0  0  0
   58.6098   30.5667   42.6415 H   0  0  0  0  0  0  0  0  0  0  0  0
   58.5186   32.5585   43.8247 H   0  0  0  0  0  0  0  0  0  0  0  0
   56.7734   32.2065   43.5175 H   0  0  0  0  0  0  0  0  0  0  0  0
   56.3820   31.9770   45.6290 H   0  0  0  0  0  0  0  0  0  0  0  0
   59.5253   30.9380   47.0446 H   0  0  0  0  0  0  0  0  0  0  0  0
   61.9292   30.5320   47.5826 H   0  0  0  0  0  0  0  0  0  0  0  0
   63.5819   32.3952   47.4109 H   0  0  0  0  0  0  0  0  0  0  0  0
   62.8315   34.6700   46.7053 H   0  0  0  0  0  0  0  0  0  0  0  0
   60.4278   35.0833   46.1656 H   0  0  0  0  0  0  0  0  0  0  0  0
   56.6931   27.1953   46.9200 H   0  0  0  0  0  0  0  0  0  0  0  0
   57.6138   26.9828   45.3859 H   0  0  0  0  0  0  0  0  0  0  0  0
   58.5300   29.1878   45.5150 H   0  0  0  0  0  0  0  0  0  0  0  0
   57.3815   29.6504   46.8357 H   0  0  0  0  0  0  0  0  0  0  0  0
   59.9262   26.6945   46.4277 H   0  0  0  0  0  0  0  0  0  0  0  0
   61.5125   26.4393   48.4817 H   0  0  0  0  0  0  0  0  0  0  0  0
   61.0747   28.2460   50.3488 H   0  0  0  0  0  0  0  0  0  0  0  0
  1  2  2  0
  2  3  1  0
  3  4  1  0
  4  5  1  0
  5  6  1  0
  6  7  1  0
  7  8  2  0
  7  9  2  0
  7 10  1  0
 10 11  2  0
 11 12  1  0
 12 13  2  0
 13 14  1  0
 14 15  2  0
  2 16  1  0
 16 17  1  0
 17 18  1  0
 18 19  1  0
 19 20  2  0
 20 21  1  0
 21 22  2  0
 22 23  1  0
 15 10  1  0
 23 19  1  0
  3 24  1  0
  3 25  1  0
  4 26  1  0
  4 27  1  0
  5 28  1  0
  5 29  1  0
  6 30  1  0
 11 31  1  0
 12 32  1  0
 13 33  1  0
 14 34  1  0
 15 35  1  0
 17 36  1  0
 17 37  1  0
 18 38  1  0
 18 39  1  0
 20 40  1  0
 21 41  1  0
 22 42  1  0
M  CHG  1  16  -1
M  END
>  <UniqueID>  (36) 
30

>  <SMILES>  (36) 
O=C(CCCNS(=O)(=O)c1ccccc1)[N-]CCc1cccs1

>  <Energy>  (36) 
55.08037993160402

>  <Genealogy>  (36) 
O=C(CCCNS(=O)(=O)c1ccccc1)[N-]CCc1cccs1 (protonated)
O=C(CCCNS(=O)(=O)c1ccccc1)[N-]CCc1cccs1 (3D coordinates assigned)
O=C(CCCNS(=O)(=O)c1ccccc1)[N-]CCc1cccs1 (optimized conformer: 55.08037993160402 kcal/mol)

>  <smiles>  (36) 
O=C(CCCNS(=O)(=O)c1ccccc1)NCCc1cccs1

>  <score_type>  (36) 
oracle

>  <origin>  (36) 
adg

>  <m_score__min__energy>  (36) 
-10.68

>  <m_primary>  (36) 
energy

$$$$
36:0
     RDKit          3D

 25 27  0  0  0  0  0  0  0  0999 V2000
   56.2670   30.0660   43.4370 C   0  0  0  0  0  0  0  0  0  0  0  0
   56.2650   29.8810   44.8490 O   0  0  0  0  0  0  0  0  0  0  0  0
   57.2890   29.2450   45.5690 C   0  0  0  0  0  0  0  0  0  0  0  0
   58.4840   29.9040   45.9080 C   0  0  0  0  0  0  0  0  0  0  0  0
   59.4800   29.2390   46.6250 C   0  0  0  0  0  0  0  0  0  0  0  0
   59.3090   27.9090   47.0200 C   0  0  0  0  0  0  0  0  0  0  0  0
   60.7390   27.0860   48.0030 Br  0  0  0  0  0  0  0  0  0  0  0  0
   58.1170   27.2290   46.6890 C   0  0  0  0  0  0  0  0  0  0  0  0
   57.8930   25.8910   47.0610 C   0  0  0  0  0  0  0  0  0  0  0  0
   56.6910   25.2560   46.7100 C   0  0  0  0  0  0  0  0  0  0  0  0
   56.4060   23.9220   47.0500 C   0  0  0  0  0  0  0  0  0  0  0  0
   57.2340   23.2260   47.6980 O   0  0  0  0  0  0  0  0  0  0  0  0
   55.2210   23.3720   46.6760 N   0  0  0  0  0  0  0  0  0  0  0  0
   54.3020   24.0880   45.9780 C   0  0  0  0  0  0  0  0  0  0  0  0
   54.5540   25.3770   45.6380 N   0  0  0  0  0  0  0  0  0  0  0  0
   55.7230   25.9740   45.9860 C   0  0  0  0  0  0  0  0  0  0  0  0
   55.9530   27.2650   45.6350 N   0  0  0  0  0  0  0  0  0  0  0  0
   57.1080   27.9090   45.9600 C   0  0  0  0  0  0  0  0  0  0  0  0
   56.2786   31.1419   43.2082 H   0  0  0  0  0  0  0  0  0  0  0  0
   57.1601   29.5898   43.0061 H   0  0  0  0  0  0  0  0  0  0  0  0
   55.3639   29.6092   43.0061 H   0  0  0  0  0  0  0  0  0  0  0  0
   58.6350   30.9509   45.6060 H   0  0  0  0  0  0  0  0  0  0  0  0
   60.4099   29.7674   46.8821 H   0  0  0  0  0  0  0  0  0  0  0  0
   58.6599   25.3420   47.6271 H   0  0  0  0  0  0  0  0  0  0  0  0
   53.3495   23.6209   45.6872 H   0  0  0  0  0  0  0  0  0  0  0  0
  1  2  1  0
  2  3  1  0
  3  4  2  0
  4  5  1  0
  5  6  2  0
  6  7  1  0
  6  8  1  0
  8  9  2  0
  9 10  1  0
 10 11  1  0
 11 12  2  0
 11 13  1  0
 13 14  1  0
 14 15  2  0
 15 16  1  0
 16 17  1  0
 17 18  2  0
 18  3  1  0
 18  8  1  0
 16 10  2  0
  1 19  1  0
  1 20  1  0
  1 21  1  0
  4 22  1  0
  5 23  1  0
  9 24  1  0
 14 25  1  0
M  CHG  1  13  -1
M  END
>  <UniqueID>  (37) 
31

>  <SMILES>  (37) 
COc1ccc(Br)c2cc3c(=O)[n-]cnc3nc12

>  <Energy>  (37) 
37.48245872910196

>  <Genealogy>  (37) 
COc1ccc(Br)c2cc3c(=O)[n-]cnc3nc12 (protonated)
COc1ccc(Br)c2cc3c(=O)[n-]cnc3nc12 (3D coordinates assigned)
COc1ccc(Br)c2cc3c(=O)[n-]cnc3nc12 (optimized conformer: 37.48245872910196 kcal/mol)

>  <smiles>  (37) 
COc1ccc(Br)c2cc3c(=O)[nH]cnc3nc12

>  <score_type>  (37) 
oracle

>  <origin>  (37) 
adg

>  <m_score__min__energy>  (37) 
-8.4800000000000004

>  <m_primary>  (37) 
energy

$$$$
37:0
     RDKit          3D

 31 34  0  0  0  0  0  0  0  0999 V2000
   59.2760   35.5500   45.1260 N   0  0  0  0  0  0  0  0  0  0  0  0
   59.0410   34.4170   45.1790 C   0  0  0  0  0  0  0  0  0  0  0  0
   58.7490   33.0100   45.2450 C   0  0  0  0  0  0  0  0  0  0  0  0
   57.9030   32.4170   44.3040 C   0  0  0  0  0  0  0  0  0  0  0  0
   57.6310   31.0490   44.3780 C   0  0  0  0  0  0  0  0  0  0  0  0
   58.2010   30.2860   45.4090 C   0  0  0  0  0  0  0  0  0  0  0  0
   57.9630   28.8300   45.5060 C   0  0  0  0  0  0  0  0  0  0  0  0
   56.6300   28.3710   45.6120 C   0  0  0  0  0  0  0  0  0  0  0  0
   56.4140   27.0010   45.7150 C   0  0  0  0  0  0  0  0  0  0  0  0
   55.2390   26.3640   45.8330 N   0  0  0  0  0  0  0  0  0  0  0  0
   55.6190   25.0600   45.8910 C   0  0  0  0  0  0  0  0  0  0  0  0
   54.6560   23.9580   46.0230 C   0  0  0  0  0  0  0  0  0  0  0  0
   54.5670   23.0640   47.0680 C   0  0  0  0  0  0  0  0  0  0  0  0
   53.5200   22.2240   46.7450 C   0  0  0  0  0  0  0  0  0  0  0  0
   53.0070   22.5780   45.5880 O   0  0  0  0  0  0  0  0  0  0  0  0
   53.6650   23.6160   45.1270 C   0  0  0  0  0  0  0  0  0  0  0  0
   56.9610   24.8580   45.8150 N   0  0  0  0  0  0  0  0  0  0  0  0
   57.4360   26.1080   45.7070 C   0  0  0  0  0  0  0  0  0  0  0  0
   58.7620   26.5050   45.5860 C   0  0  0  0  0  0  0  0  0  0  0  0
   59.0330   27.8840   45.4780 C   0  0  0  0  0  0  0  0  0  0  0  0
   60.7060   28.3740   45.2280 Cl  0  0  0  0  0  0  0  0  0  0  0  0
   59.0380   30.8860   46.3010 N   0  0  0  0  0  0  0  0  0  0  0  0
   59.3180   32.2160   46.2460 C   0  0  0  0  0  0  0  0  0  0  0  0
   57.4523   33.0263   43.5067 H   0  0  0  0  0  0  0  0  0  0  0  0
   56.9751   30.5733   43.6340 H   0  0  0  0  0  0  0  0  0  0  0  0
   55.7871   29.0778   45.6130 H   0  0  0  0  0  0  0  0  0  0  0  0
   55.1970   23.0274   47.9690 H   0  0  0  0  0  0  0  0  0  0  0  0
   53.1682   21.3848   47.3630 H   0  0  0  0  0  0  0  0  0  0  0  0
   53.4588   24.1311   44.1772 H   0  0  0  0  0  0  0  0  0  0  0  0
   59.5760   25.7652   45.5748 H   0  0  0  0  0  0  0  0  0  0  0  0
   59.9921   32.6672   46.9890 H   0  0  0  0  0  0  0  0  0  0  0  0
  1  2  3  0
  2  3  1  0
  3  4  2  0
  4  5  1  0
  5  6  2  0
  6  7  1  0
  7  8  2  0
  8  9  1  0
  9 10  1  0
 10 11  2  0
 11 12  1  0
 12 13  1  0
 13 14  2  0
 14 15  1  0
 15 16  1  0
 11 17  1  0
 17 18  1  0
 18 19  1  0
 19 20  2  0
 20 21  1  0
  6 22  1  0
 22 23  2  0
 23  3  1  0
 20  7  1  0
 18  9  2  0
 16 12  2  0
  4 24  1  0
  5 25  1  0
  8 26  1  0
 13 27  1  0
 14 28  1  0
 16 29  1  0
 19 30  1  0
 23 31  1  0
M  CHG  1  17  -1
M  END
>  <UniqueID>  (38) 
32

>  <SMILES>  (38) 
N#Cc1ccc(-c2cc3nc(-c4ccoc4)[n-]c3cc2Cl)nc1

>  <Energy>  (38) 
103.13939637512314

>  <Genealogy>  (38) 
N#Cc1ccc(-c2cc3nc(-c4ccoc4)[n-]c3cc2Cl)nc1 (protonated)
N#Cc1ccc(-c2cc3nc(-c4ccoc4)[n-]c3cc2Cl)nc1 (3D coordinates assigned)
N#Cc1ccc(-c2cc3nc(-c4ccoc4)[n-]c3cc2Cl)nc1 (optimized conformer: 103.13939637512314 kcal/mol)

>  <smiles>  (38) 
N#Cc1ccc(-c2cc3nc(-c4ccoc4)[nH]c3cc2Cl)nc1

>  <score_type>  (38) 
oracle

>  <origin>  (38) 
adg

>  <m_score__min__energy>  (38) 
-8.9100000000000001

>  <m_primary>  (38) 
energy

$$$$
38:0
     RDKit          3D

 55 58  0  0  0  0  0  0  0  0999 V2000
   57.3090   25.0190   47.1580 O   0  0  0  0  0  0  0  0  0  0  0  0
   56.2720   25.3710   46.5350 C   0  0  0  0  0  0  0  0  0  0  0  0
   56.1580   26.6910   45.9870 N   0  0  0  0  0  0  0  0  0  0  0  0
   57.2020   27.5640   45.5300 C   0  0  0  0  0  0  0  0  0  0  0  0
   58.5460   27.1590   45.4290 C   0  0  0  0  0  0  0  0  0  0  0  0
   59.5190   28.0660   44.9970 C   0  0  0  0  0  0  0  0  0  0  0  0
   59.1670   29.3800   44.6780 C   0  0  0  0  0  0  0  0  0  0  0  0
   57.8320   29.8030   44.7880 C   0  0  0  0  0  0  0  0  0  0  0  0
   57.4550   31.2060   44.4860 C   0  0  0  0  0  0  0  0  0  0  0  0
   56.6520   31.4510   43.5440 O   0  0  0  0  0  0  0  0  0  0  0  0
   58.0210   32.2990   45.2260 N   0  0  0  0  0  0  0  0  0  0  0  0
   57.8580   32.3720   46.6830 C   0  0  0  0  0  0  0  0  0  0  0  0
   59.1820   32.7510   47.3850 C   0  0  0  0  0  0  0  0  0  0  0  0
   60.2680   33.3060   46.4160 C   0  0  0  0  0  0  0  0  0  0  0  0
   61.3790   34.0270   47.1080 N   0  0  0  0  0  0  0  0  0  0  0  0
   61.5140   33.7440   48.5600 C   0  0  0  0  0  0  0  0  0  0  0  0
   61.9950   32.3050   48.8420 C   0  0  0  0  0  0  0  0  0  0  0  0
   63.0460   31.8250   47.8300 C   0  0  0  0  0  0  0  0  0  0  0  0
   63.7270   33.0040   47.1360 C   0  0  0  0  0  0  0  0  0  0  0  0
   62.6870   33.8770   46.3980 C   0  0  0  0  0  0  0  0  0  0  0  0
   59.5510   34.2430   45.4110 C   0  0  0  0  0  0  0  0  0  0  0  0
   58.6180   33.4250   44.5010 C   0  0  0  0  0  0  0  0  0  0  0  0
   56.8640   28.8870   45.2310 C   0  0  0  0  0  0  0  0  0  0  0  0
   55.1870   24.3950   46.3250 C   0  0  0  0  0  0  0  0  0  0  0  0
   54.5510   24.2590   45.0800 C   0  0  0  0  0  0  0  0  0  0  0  0
   53.5620   23.3400   44.9280 N   0  0  0  0  0  0  0  0  0  0  0  0
   53.1710   22.5490   45.9620 C   0  0  0  0  0  0  0  0  0  0  0  0
   53.7990   22.6810   47.2020 C   0  0  0  0  0  0  0  0  0  0  0  0
   54.7900   23.5970   47.3540 N   0  0  0  0  0  0  0  0  0  0  0  0
   58.8312   26.1291   45.6898 H   0  0  0  0  0  0  0  0  0  0  0  0
   60.5668   27.7432   44.9079 H   0  0  0  0  0  0  0  0  0  0  0  0
   59.9389   30.0866   44.3391 H   0  0  0  0  0  0  0  0  0  0  0  0
   57.0983   33.1315   46.9197 H   0  0  0  0  0  0  0  0  0  0  0  0
   57.5481   31.3805   47.0448 H   0  0  0  0  0  0  0  0  0  0  0  0
   58.9662   33.5197   48.1417 H   0  0  0  0  0  0  0  0  0  0  0  0
   59.5868   31.8287   47.8272 H   0  0  0  0  0  0  0  0  0  0  0  0
   60.7513   32.4578   45.9091 H   0  0  0  0  0  0  0  0  0  0  0  0
   62.2405   34.4490   48.9903 H   0  0  0  0  0  0  0  0  0  0  0  0
   60.5193   33.8580   49.0155 H   0  0  0  0  0  0  0  0  0  0  0  0
   62.4350   32.2716   49.8496 H   0  0  0  0  0  0  0  0  0  0  0  0
   61.1231   31.6396   48.7580 H   0  0  0  0  0  0  0  0  0  0  0  0
   63.8070   31.2316   48.3579 H   0  0  0  0  0  0  0  0  0  0  0  0
   62.5400   31.2170   47.0656 H   0  0  0  0  0  0  0  0  0  0  0  0
   64.2440   33.6169   47.8890 H   0  0  0  0  0  0  0  0  0  0  0  0
   64.4474   32.6146   46.4016 H   0  0  0  0  0  0  0  0  0  0  0  0
   63.1182   34.8794   46.2590 H   0  0  0  0  0  0  0  0  0  0  0  0
   62.4683   33.3641   45.4498 H   0  0  0  0  0  0  0  0  0  0  0  0
   58.9592   34.9866   45.9650 H   0  0  0  0  0  0  0  0  0  0  0  0
   60.3043   34.7515   44.7914 H   0  0  0  0  0  0  0  0  0  0  0  0
   57.8149   34.0790   44.1303 H   0  0  0  0  0  0  0  0  0  0  0  0
   59.2107   33.0252   43.6650 H   0  0  0  0  0  0  0  0  0  0  0  0
   55.8207   29.2167   45.3448 H   0  0  0  0  0  0  0  0  0  0  0  0
   54.8520   24.8929   44.2329 H   0  0  0  0  0  0  0  0  0  0  0  0
   52.3669   21.8114   45.8230 H   0  0  0  0  0  0  0  0  0  0  0  0
   53.4937   22.0485   48.0486 H   0  0  0  0  0  0  0  0  0  0  0  0
  1  2  2  0
  2  3  1  0
  3  4  1  0
  4  5  2  0
  5  6  1  0
  6  7  2  0
  7  8  1  0
  8  9  1  0
  9 10  2  0
  9 11  1  0
 11 12  1  0
 12 13  1  0
 13 14  1  0
 14 15  1  0
 15 16  1  0
 16 17  1  0
 17 18  1  0
 18 19  1  0
 19 20  1  0
 14 21  1  0
 21 22  1  0
  8 23  2  0
  2 24  1  0
 24 25  2  0
 25 26  1  0
 26 27  2  0
 27 28  1  0
 28 29  2  0
 23  4  1  0
 29 24  1  0
 22 11  1  0
 20 15  1  0
  5 30  1  0
  6 31  1  0
  7 32  1  0
 12 33  1  0
 12 34  1  0
 13 35  1  0
 13 36  1  0
 14 37  1  0
 16 38  1  0
 16 39  1  0
 17 40  1  0
 17 41  1  0
 18 42  1  0
 18 43  1  0
 19 44  1  0
 19 45  1  0
 20 46  1  0
 20 47  1  0
 21 48  1  0
 21 49  1  0
 22 50  1  0
 22 51  1  0
 23 52  1  0
 25 53  1  0
 27 54  1  0
 28 55  1  0
M  CHG  1   3  -1
M  END
>  <UniqueID>  (39) 
33

>  <SMILES>  (39) 
O=C([N-]c1cccc(C(=O)N2CCC(N3CCCCC3)CC2)c1)c1cnccn1

>  <Energy>  (39) 
83.55024764583

>  <Genealogy>  (39) 
O=C([N-]c1cccc(C(=O)N2CCC(N3CCCCC3)CC2)c1)c1cnccn1 (protonated)
O=C([N-]c1cccc(C(=O)N2CCC(N3CCCCC3)CC2)c1)c1cnccn1 (3D coordinates assigned)
O=C([N-]c1cccc(C(=O)N2CCC(N3CCCCC3)CC2)c1)c1cnccn1 (nonaromatic ring conformer: 83.55024764583 kcal/mol)

>  <smiles>  (39) 
O=C(Nc1cccc(C(=O)N2CCC(N3CCCCC3)CC2)c1)c1cnccn1

>  <score_type>  (39) 
oracle

>  <origin>  (39) 
adg

>  <m_score__min__energy>  (39) 
-11.98

>  <m_primary>  (39) 
energy

$$$$
39:0
     RDKit          3D

 28 29  0  0  0  0  0  0  0  0999 V2000
   55.1550   30.4740   44.4850 O   0  0  0  0  0  0  0  0  0  0  0  0
   56.1300   29.6910   44.6440 C   0  0  0  0  0  0  0  0  0  0  0  0
   57.4950   30.1080   44.2000 C   0  0  0  0  0  0  0  0  0  0  0  0
   57.8380   31.4490   44.7880 C   0  0  0  0  0  0  0  0  0  0  0  0
   58.1760   31.5600   46.1480 C   0  0  0  0  0  0  0  0  0  0  0  0
   58.4590   32.8110   46.7030 C   0  0  0  0  0  0  0  0  0  0  0  0
   58.3990   33.9600   45.9080 C   0  0  0  0  0  0  0  0  0  0  0  0
   58.0490   33.8590   44.5590 C   0  0  0  0  0  0  0  0  0  0  0  0
   57.7640   32.6090   44.0000 C   0  0  0  0  0  0  0  0  0  0  0  0
   55.9480   28.4020   45.2430 N   0  0  0  0  0  0  0  0  0  0  0  0
   56.9770   27.5600   45.7810 C   0  0  0  0  0  0  0  0  0  0  0  0
   57.0120   26.2120   45.3970 C   0  0  0  0  0  0  0  0  0  0  0  0
   58.0120   25.3640   45.8810 C   0  0  0  0  0  0  0  0  0  0  0  0
   58.9950   25.8600   46.7410 C   0  0  0  0  0  0  0  0  0  0  0  0
   58.9830   27.2070   47.1100 C   0  0  0  0  0  0  0  0  0  0  0  0
   57.9840   28.0590   46.6290 C   0  0  0  0  0  0  0  0  0  0  0  0
   58.2312   29.3632   44.5366 H   0  0  0  0  0  0  0  0  0  0  0  0
   57.5125   30.1790   43.1024 H   0  0  0  0  0  0  0  0  0  0  0  0
   58.2179   30.6590   46.7776 H   0  0  0  0  0  0  0  0  0  0  0  0
   58.7292   32.8920   47.7662 H   0  0  0  0  0  0  0  0  0  0  0  0
   58.6274   34.9434   46.3447 H   0  0  0  0  0  0  0  0  0  0  0  0
   57.9975   34.7639   43.9357 H   0  0  0  0  0  0  0  0  0  0  0  0
   57.4810   32.5343   42.9397 H   0  0  0  0  0  0  0  0  0  0  0  0
   56.2475   25.8193   44.7104 H   0  0  0  0  0  0  0  0  0  0  0  0
   58.0251   24.3048   45.5845 H   0  0  0  0  0  0  0  0  0  0  0  0
   59.7776   25.1903   47.1271 H   0  0  0  0  0  0  0  0  0  0  0  0
   59.7617   27.5988   47.7809 H   0  0  0  0  0  0  0  0  0  0  0  0
   57.9849   29.1215   46.9138 H   0  0  0  0  0  0  0  0  0  0  0  0
  1  2  2  0
  2  3  1  0
  3  4  1  0
  4  5  2  0
  5  6  1  0
  6  7  2  0
  7  8  1  0
  8  9  2  0
  2 10  1  0
 10 11  1  0
 11 12  2  0
 12 13  1  0
 13 14  2  0
 14 15  1  0
 15 16  2  0
  9  4  1  0
 16 11  1  0
  3 17  1  0
  3 18  1  0
  5 19  1  0
  6 20  1  0
  7 21  1  0
  8 22  1  0
  9 23  1  0
 12 24  1  0
 13 25  1  0
 14 26  1  0
 15 27  1  0
 16 28  1  0
M  CHG  1  10  -1
M  END
>  <UniqueID>  (40) 
34

>  <SMILES>  (40) 
O=C(Cc1ccccc1)[N-]c1ccccc1

>  <Energy>  (40) 
29.969460023782187

>  <Genealogy>  (40) 
O=C(Cc1ccccc1)[N-]c1ccccc1 (protonated)
O=C(Cc1ccccc1)[N-]c1ccccc1 (3D coordinates assigned)
O=C(Cc1ccccc1)[N-]c1ccccc1 (optimized conformer: 29.969460023782187 kcal/mol)

>  <smiles>  (40) 
O=C(Cc1ccccc1)Nc1ccccc1

>  <score_type>  (40) 
oracle

>  <origin>  (40) 
adg

>  <m_score__min__energy>  (40) 
-8.2300000000000004

>  <m_primary>  (40) 
energy

$$$$
40:0
     RDKit          3D

 33 35  0  0  0  0  0  0  0  0999 V2000
   52.7660   30.5490   55.3970 O   0  0  0  0  0  0  0  0  0  0  0  0
   53.2300   30.5510   54.2260 C   0  0  0  0  0  0  0  0  0  0  0  0
   54.5720   30.4670   54.0400 N   0  0  0  0  0  0  0  0  0  0  0  0
   55.1190   30.4790   52.7950 C   0  0  0  0  0  0  0  0  0  0  0  0
   56.5490   30.3970   52.6230 N   0  0  0  0  0  0  0  0  0  0  0  0
   57.2090   31.2060   51.5880 C   0  0  0  0  0  0  0  0  0  0  0  0
   58.5560   30.5890   51.2020 C   0  0  0  0  0  0  0  0  0  0  0  0
   59.3370   30.3280   52.3510 O   0  0  0  0  0  0  0  0  0  0  0  0
   58.7130   29.3250   53.1270 C   0  0  0  0  0  0  0  0  0  0  0  0
   57.3800   29.8250   53.6920 C   0  0  0  0  0  0  0  0  0  0  0  0
   54.3000   30.5700   51.7120 N   0  0  0  0  0  0  0  0  0  0  0  0
   52.9480   30.6450   51.8370 C   0  0  0  0  0  0  0  0  0  0  0  0
   52.1310   30.7290   50.6080 C   0  0  0  0  0  0  0  0  0  0  0  0
   52.1470   29.6770   49.6760 C   0  0  0  0  0  0  0  0  0  0  0  0
   51.4010   29.7680   48.4970 C   0  0  0  0  0  0  0  0  0  0  0  0
   50.6430   30.9110   48.2340 C   0  0  0  0  0  0  0  0  0  0  0  0
   50.6330   31.9690   49.1460 C   0  0  0  0  0  0  0  0  0  0  0  0
   51.3760   31.8860   50.3300 C   0  0  0  0  0  0  0  0  0  0  0  0
   51.3520   32.9480   51.2260 O   0  0  0  0  0  0  0  0  0  0  0  0
   52.3740   30.6480   53.1230 C   0  0  0  0  0  0  0  0  0  0  0  0
   50.4820   30.8610   53.4030 Br  0  0  0  0  0  0  0  0  0  0  0  0
   56.5637   31.2518   50.6983 H   0  0  0  0  0  0  0  0  0  0  0  0
   57.3818   32.2176   51.9840 H   0  0  0  0  0  0  0  0  0  0  0  0
   58.3796   29.6458   50.6641 H   0  0  0  0  0  0  0  0  0  0  0  0
   59.0984   31.2999   50.5613 H   0  0  0  0  0  0  0  0  0  0  0  0
   58.5291   28.4430   52.4959 H   0  0  0  0  0  0  0  0  0  0  0  0
   59.3758   29.0645   53.9654 H   0  0  0  0  0  0  0  0  0  0  0  0
   56.8447   28.9830   54.1551 H   0  0  0  0  0  0  0  0  0  0  0  0
   57.5817   30.6048   54.4412 H   0  0  0  0  0  0  0  0  0  0  0  0
   52.7491   28.7782   49.8751 H   0  0  0  0  0  0  0  0  0  0  0  0
   51.4112   28.9379   47.7754 H   0  0  0  0  0  0  0  0  0  0  0  0
   50.0533   30.9782   47.3079 H   0  0  0  0  0  0  0  0  0  0  0  0
   50.0395   32.8704   48.9334 H   0  0  0  0  0  0  0  0  0  0  0  0
  1  2  2  0
  2  3  1  0
  3  4  2  0
  4  5  1  0
  5  6  1  0
  6  7  1  0
  7  8  1  0
  8  9  1  0
  9 10  1  0
  4 11  1  0
 11 12  1  0
 12 13  1  0
 13 14  2  0
 14 15  1  0
 15 16  2  0
 16 17  1  0
 17 18  2  0
 18 19  1  0
 12 20  2  0
 20 21  1  0
 20  2  1  0
 10  5  1  0
 18 13  1  0
  6 22  1  0
  6 23  1  0
  7 24  1  0
  7 25  1  0
  9 26  1  0
  9 27  1  0
 10 28  1  0
 10 29  1  0
 14 30  1  0
 15 31  1  0
 16 32  1  0
 17 33  1  0
M  CHG  2  11  -1  19  -1
M  END
>  <UniqueID>  (41) 
35

>  <SMILES>  (41) 
O=c1nc(N2CCOCC2)[n-]c(-c2ccccc2[O-])c1Br

>  <Energy>  (41) 
45.93522412222093

>  <Genealogy>  (41) 
O=c1nc(N2CCOCC2)[n-]c(-c2ccccc2[O-])c1Br (protonated)
O=c1nc(N2CCOCC2)[n-]c(-c2ccccc2[O-])c1Br (3D coordinates assigned)
O=c1nc(N2CCOCC2)[n-]c(-c2ccccc2[O-])c1Br (nonaromatic ring conformer: 45.93522412222093 kcal/mol)

>  <smiles>  (41) 
O=c1nc(N2CCOCC2)[nH]c(-c2ccccc2O)c1Br

>  <score_type>  (41) 
oracle

>  <origin>  (41) 
adg

>  <m_score__min__energy>  (41) 
-11.84

>  <m_primary>  (41) 
energy

$$$$
41:0
     RDKit          3D

 26 27  0  0  0  0  0  0  0  0999 V2000
   54.8154   30.7112   43.9048 H   0  0  0  0  0  0  0  0  0  0  0  0
   55.6920   30.1110   44.1900 C   0  0  0  0  0  0  0  0  0  0  0  0
   55.5260   28.9440   44.8680 N   0  0  0  0  0  0  0  0  0  0  0  0
   56.5840   28.1710   45.2470 C   0  0  0  0  0  0  0  0  0  0  0  0
   56.4080   27.0430   45.8740 N   0  0  0  0  0  0  0  0  0  0  0  0
   56.3140   25.7340   45.2880 C   0  0  0  0  0  0  0  0  0  0  0  0
   57.2620   25.2610   44.3610 C   0  0  0  0  0  0  0  0  0  0  0  0
   58.1221   25.8897   44.0874 H   0  0  0  0  0  0  0  0  0  0  0  0
   57.1140   23.9950   43.7870 C   0  0  0  0  0  0  0  0  0  0  0  0
   57.8683   23.6275   43.0757 H   0  0  0  0  0  0  0  0  0  0  0  0
   56.0150   23.1910   44.1090 C   0  0  0  0  0  0  0  0  0  0  0  0
   55.9150   21.9270   43.5070 O   0  0  0  0  0  0  0  0  0  0  0  0
   57.0240   21.1800   43.0190 C   0  0  0  0  0  0  0  0  0  0  0  0
   57.6046   20.7889   43.8675 H   0  0  0  0  0  0  0  0  0  0  0  0
   56.6605   20.3420   42.4062 H   0  0  0  0  0  0  0  0  0  0  0  0
   57.6640   21.8318   42.4062 H   0  0  0  0  0  0  0  0  0  0  0  0
   55.0500   23.6770   45.0120 C   0  0  0  0  0  0  0  0  0  0  0  0
   54.1770   23.0583   45.2672 H   0  0  0  0  0  0  0  0  0  0  0  0
   55.1980   24.9430   45.5850 C   0  0  0  0  0  0  0  0  0  0  0  0
   54.4303   25.3215   46.2759 H   0  0  0  0  0  0  0  0  0  0  0  0
   57.8840   28.5740   44.9150 C   0  0  0  0  0  0  0  0  0  0  0  0
   58.7460   27.9528   45.1997 H   0  0  0  0  0  0  0  0  0  0  0  0
   58.0780   29.7700   44.2200 C   0  0  0  0  0  0  0  0  0  0  0  0
   59.0951   30.0987   43.9603 H   0  0  0  0  0  0  0  0  0  0  0  0
   56.9760   30.5470   43.8560 C   0  0  0  0  0  0  0  0  0  0  0  0
   57.1179   31.4924   43.3120 H   0  0  0  0  0  0  0  0  0  0  0  0
  1  2  1  0
  2  3  1  0
  3  4  1  0
  4  5  2  0
  5  6  1  0
  6  7  2  0
  7  8  1  0
  7  9  1  0
  9 10  1  0
  9 11  2  0
 11 12  1  0
 12 13  1  0
 13 14  1  0
 13 15  1  0
 13 16  1  0
 11 17  1  0
 17 18  1  0
 17 19  2  0
 19 20  1  0
  4 21  1  0
 21 22  1  0
 21 23  2  0
 23 24  1  0
 23 25  1  0
 25 26  1  0
 25  2  2  0
 19  6  1  0
M  CHG  1   3  -1
M  END
>  <UniqueID>  (42) 
36

>  <SMILES>  (42) 
COc1ccc(/N=c2/cccc[n-]2)cc1

>  <Energy>  (42) 
33.15697666780917

>  <Genealogy>  (42) 
COc1ccc(N=c2cccc[n-]2)cc1 (protonated)
COc1ccc(/N=c2/cccc[n-]2)cc1 (cis-trans isomerization)
COc1ccc(/N=c2/cccc[n-]2)cc1 (3D coordinates assigned)
COc1ccc(/N=c2/cccc[n-]2)cc1 (optimized conformer: 33.15697666780917 kcal/mol)

>  <smiles>  (42) 
COc1ccc(N=c2cccc[nH]2)cc1

>  <score_type>  (42) 
oracle

>  <origin>  (42) 
adg

>  <m_score__min__energy>  (42) 
-7.5599999999999996

>  <m_primary>  (42) 
energy

$$$$
42:0
     RDKit          3D

 39 41  0  0  0  0  0  0  0  0999 V2000
   57.9900   27.1160   46.9140 C   0  0  0  0  0  0  0  0  0  0  0  0
   57.0690   26.7770   45.7470 C   0  0  0  0  0  0  0  0  0  0  0  0
   56.0440   27.7590   45.6170 O   0  0  0  0  0  0  0  0  0  0  0  0
   56.2290   28.9820   44.9640 C   0  0  0  0  0  0  0  0  0  0  0  0
   55.2870   29.8170   44.8760 O   0  0  0  0  0  0  0  0  0  0  0  0
   57.5720   29.3130   44.3960 C   0  0  0  0  0  0  0  0  0  0  0  0
   57.7950   30.7680   44.4500 N   0  0  0  0  0  0  0  0  0  0  0  0
   57.5080   31.5720   43.3720 C   0  0  0  0  0  0  0  0  0  0  0  0
   57.0140   31.0860   42.3190 O   0  0  0  0  0  0  0  0  0  0  0  0
   57.7600   32.9130   43.4220 N   0  0  0  0  0  0  0  0  0  0  0  0
   58.3050   33.5040   44.5180 C   0  0  0  0  0  0  0  0  0  0  0  0
   58.5250   34.7440   44.5130 O   0  0  0  0  0  0  0  0  0  0  0  0
   58.6170   32.7120   45.6260 C   0  0  0  0  0  0  0  0  0  0  0  0
   59.1950   33.0970   46.8510 C   0  0  0  0  0  0  0  0  0  0  0  0
   59.4200   32.0140   47.6920 C   0  0  0  0  0  0  0  0  0  0  0  0
   58.8580   30.5940   46.9760 S   0  0  0  0  0  0  0  0  0  0  0  0
   58.3580   31.3500   45.5510 C   0  0  0  0  0  0  0  0  0  0  0  0
   59.9890   32.1430   49.0730 C   0  0  0  0  0  0  0  0  0  0  0  0
   60.7430   33.4080   49.2350 N   0  0  1  0  0  0  0  0  0  0  0  0
   62.0830   33.3260   48.6220 C   0  0  0  0  0  0  0  0  0  0  0  0
   59.9740   34.5760   48.7370 C   0  0  0  0  0  0  0  0  0  0  0  0
   59.6330   34.4840   47.2320 C   0  0  0  0  0  0  0  0  0  0  0  0
   57.4666   26.9233   47.8621 H   0  0  0  0  0  0  0  0  0  0  0  0
   58.8941   26.4917   46.8609 H   0  0  0  0  0  0  0  0  0  0  0  0
   58.2737   28.1775   46.8609 H   0  0  0  0  0  0  0  0  0  0  0  0
   57.6583   26.7441   44.8188 H   0  0  0  0  0  0  0  0  0  0  0  0
   56.6022   25.7989   45.9353 H   0  0  0  0  0  0  0  0  0  0  0  0
   58.3512   28.8027   44.9812 H   0  0  0  0  0  0  0  0  0  0  0  0
   57.6144   28.9790   43.3488 H   0  0  0  0  0  0  0  0  0  0  0  0
   59.1655   32.1221   49.8020 H   0  0  0  0  0  0  0  0  0  0  0  0
   60.6819   31.3051   49.2398 H   0  0  0  0  0  0  0  0  0  0  0  0
   60.8910   33.5520   50.2640 H   0  0  0  0  0  0  0  0  0  0  0  0
   62.8459   33.2793   49.4131 H   0  0  0  0  0  0  0  0  0  0  0  0
   62.1461   32.4223   47.9980 H   0  0  0  0  0  0  0  0  0  0  0  0
   62.2558   34.2153   47.9980 H   0  0  0  0  0  0  0  0  0  0  0  0
   59.0343   34.6437   49.3048 H   0  0  0  0  0  0  0  0  0  0  0  0
   60.6055   35.4660   48.8752 H   0  0  0  0  0  0  0  0  0  0  0  0
   58.8208   35.1904   47.0055 H   0  0  0  0  0  0  0  0  0  0  0  0
   60.5377   34.7309   46.6570 H   0  0  0  0  0  0  0  0  0  0  0  0
  1  2  1  0
  2  3  1  0
  3  4  1  0
  4  5  2  0
  4  6  1  0
  6  7  1  0
  7  8  1  0
  8  9  2  0
  8 10  1  0
 10 11  1  0
 11 12  2  0
 11 13  1  0
 13 14  1  0
 14 15  2  0
 15 16  1  0
 16 17  1  0
 15 18  1  0
 18 19  1  0
 19 20  1  0
 19 21  1  0
 21 22  1  0
 17  7  1  0
 17 13  2  0
 22 14  1  0
  1 23  1  0
  1 24  1  0
  1 25  1  0
  2 26  1  0
  2 27  1  0
  6 28  1  0
  6 29  1  0
 18 30  1  0
 18 31  1  0
 19 32  1  1
 20 33  1  0
 20 34  1  0
 20 35  1  0
 21 36  1  0
 21 37  1  0
 22 38  1  0
 22 39  1  0
M  CHG  2  10  -1  19   1
M  END
>  <UniqueID>  (43) 
37

>  <SMILES>  (43) 
CCOC(=O)Cn1c(=O)[n-]c(=O)c2c3c(sc21)C[N@@H+](C)CC3

>  <Energy>  (43) 
76.1722674438991

>  <Genealogy>  (43) 
CCOC(=O)Cn1c(=O)[n-]c(=O)c2c3c(sc21)C[NH+](C)CC3 (protonated)
CCOC(=O)Cn1c(=O)[n-]c(=O)c2c3c(sc21)C[N@@H+](C)CC3 (chirality)
CCOC(=O)Cn1c(=O)[n-]c(=O)c2c3c(sc21)C[N@@H+](C)CC3 (3D coordinates assigned)
CCOC(=O)Cn1c(=O)[n-]c(=O)c2c3c(sc21)C[N@@H+](C)CC3 (nonaromatic ring conformer: 76.1722674438991 kcal/mol)

>  <smiles>  (43) 
CCOC(=O)Cn1c(=O)[nH]c(=O)c2c3c(sc21)CN(C)CC3

>  <score_type>  (43) 
oracle

>  <origin>  (43) 
adg

>  <m_score__min__energy>  (43) 
-7.04

>  <m_primary>  (43) 
energy

$$$$
43:0
     RDKit          3D

 32 33  0  0  0  0  0  0  0  0999 V2000
   56.2590   20.0380   43.7230 C   0  0  0  0  0  0  0  0  0  0  0  0
   56.0430   21.3890   43.3260 O   0  0  0  0  0  0  0  0  0  0  0  0
   56.5340   22.5060   44.0180 C   0  0  0  0  0  0  0  0  0  0  0  0
   56.8750   23.7070   43.3680 C   0  0  0  0  0  0  0  0  0  0  0  0
   57.3590   24.7940   44.1030 C   0  0  0  0  0  0  0  0  0  0  0  0
   57.4980   24.7050   45.4990 C   0  0  0  0  0  0  0  0  0  0  0  0
   58.0220   25.7950   46.2790 N   0  0  0  0  0  0  0  0  0  0  0  0
   57.4890   27.1300   46.2710 C   0  0  0  0  0  0  0  0  0  0  0  0
   56.3790   27.3770   45.7270 O   0  0  0  0  0  0  0  0  0  0  0  0
   58.2280   28.2340   46.9630 C   0  0  0  0  0  0  0  0  0  0  0  0
   59.2620   29.1760   45.7890 S   0  0  0  0  0  0  0  0  0  0  0  0
   57.8750   29.9680   44.9700 C   0  0  0  0  0  0  0  0  0  0  0  0
   57.3870   31.1740   45.3130 N   0  0  0  0  0  0  0  0  0  0  0  0
   56.3760   31.4300   44.4900 N   0  0  0  0  0  0  0  0  0  0  0  0
   56.2630   30.3770   43.6530 C   0  0  0  0  0  0  0  0  0  0  0  0
   57.1920   29.4530   43.9370 N   0  0  0  0  0  0  0  0  0  0  0  0
   57.4220   28.2460   43.2600 N   0  0  0  0  0  0  0  0  0  0  0  0
   57.1770   23.4990   46.1390 C   0  0  0  0  0  0  0  0  0  0  0  0
   56.6920   22.4130   45.4050 C   0  0  0  0  0  0  0  0  0  0  0  0
   56.2690   19.9757   44.8212 H   0  0  0  0  0  0  0  0  0  0  0  0
   55.4505   19.4058   43.3272 H   0  0  0  0  0  0  0  0  0  0  0  0
   57.2243   19.6894   43.3272 H   0  0  0  0  0  0  0  0  0  0  0  0
   56.7603   23.7910   42.2772 H   0  0  0  0  0  0  0  0  0  0  0  0
   57.6328   25.7250   43.5851 H   0  0  0  0  0  0  0  0  0  0  0  0
   58.7930   25.5890   46.9530 H   0  0  0  0  0  0  0  0  0  0  0  0
   57.5007   28.9161   47.4275 H   0  0  0  0  0  0  0  0  0  0  0  0
   58.8847   27.7887   47.7249 H   0  0  0  0  0  0  0  0  0  0  0  0
   55.5147   30.2894   42.8515 H   0  0  0  0  0  0  0  0  0  0  0  0
   57.0090   27.3550   43.6170 H   0  0  0  0  0  0  0  0  0  0  0  0
   58.0080   28.2210   42.3970 H   0  0  0  0  0  0  0  0  0  0  0  0
   57.3080   23.4071   47.2273 H   0  0  0  0  0  0  0  0  0  0  0  0
   56.4324   21.4775   45.9221 H   0  0  0  0  0  0  0  0  0  0  0  0
  1  2  1  0
  2  3  1  0
  3  4  2  0
  4  5  1  0
  5  6  2  0
  6  7  1  0
  7  8  1  0
  8  9  2  0
  8 10  1  0
 10 11  1  0
 11 12  1  0
 12 13  2  0
 13 14  1  0
 14 15  2  0
 15 16  1  0
 16 17  1  0
  6 18  1  0
 18 19  2  0
 19  3  1  0
 16 12  1  0
  1 20  1  0
  1 21  1  0
  1 22  1  0
  4 23  1  0
  5 24  1  0
  7 25  1  0
 10 26  1  0
 10 27  1  0
 15 28  1  0
 17 29  1  0
 17 30  1  0
 18 31  1  0
 19 32  1  0
M  END
>  <UniqueID>  (44) 
38

>  <SMILES>  (44) 
COc1ccc(NC(=O)CSc2nncn2N)cc1

>  <Energy>  (44) 
64.22864370926511

>  <Genealogy>  (44) 
COc1ccc(NC(=O)CSc2nncn2N)cc1 (3D coordinates assigned)
COc1ccc(NC(=O)CSc2nncn2N)cc1 (optimized conformer: 64.22864370926511 kcal/mol)

>  <smiles>  (44) 
COc1ccc(NC(=O)CSc2nncn2N)cc1

>  <score_type>  (44) 
oracle

>  <origin>  (44) 
adg

>  <m_score__min__energy>  (44) 
-6.4400000000000004

>  <m_primary>  (44) 
energy

$$$$
44:0
     RDKit          3D

 20 21  0  0  0  0  0  0  0  0999 V2000
   60.1360   28.2770   45.2790 C   0  0  0  0  0  0  0  0  0  0  0  0
   58.8110   28.8140   44.8570 C   0  0  0  0  0  0  0  0  0  0  0  0
   57.7930   28.1390   44.2500 C   0  0  0  0  0  0  0  0  0  0  0  0
   57.7690   26.7810   43.8860 O   0  0  0  0  0  0  0  0  0  0  0  0
   56.7580   28.9730   44.0290 N   0  0  0  0  0  0  0  0  0  0  0  0
   57.1150   30.1970   44.4990 C   0  0  0  0  0  0  0  0  0  0  0  0
   56.4140   31.3470   44.5020 N   0  0  0  0  0  0  0  0  0  0  0  0
   57.0150   32.4270   45.0370 C   0  0  0  0  0  0  0  0  0  0  0  0
   58.2890   32.3980   45.5700 C   0  0  0  0  0  0  0  0  0  0  0  0
   58.8600   33.5950   46.1240 C   0  0  0  0  0  0  0  0  0  0  0  0
   59.3080   34.5810   46.5730 N   0  0  0  0  0  0  0  0  0  0  0  0
   59.0070   31.2150   45.5650 C   0  0  0  0  0  0  0  0  0  0  0  0
   58.3810   30.1160   45.0140 C   0  0  0  0  0  0  0  0  0  0  0  0
   60.1898   28.2552   46.3775 H   0  0  0  0  0  0  0  0  0  0  0  0
   60.2606   27.2574   44.8855 H   0  0  0  0  0  0  0  0  0  0  0  0
   60.9353   28.9222   44.8855 H   0  0  0  0  0  0  0  0  0  0  0  0
   57.0120   26.3930   43.3420 H   0  0  0  0  0  0  0  0  0  0  0  0
   55.8450   28.7250   43.5770 H   0  0  0  0  0  0  0  0  0  0  0  0
   56.4642   33.3791   45.0502 H   0  0  0  0  0  0  0  0  0  0  0  0
   60.0243   31.1541   45.9790 H   0  0  0  0  0  0  0  0  0  0  0  0
  1  2  1  0
  2  3  2  0
  3  4  1  0
  3  5  1  0
  5  6  1  0
  6  7  2  0
  7  8  1  0
  8  9  2  0
  9 10  1  0
 10 11  3  0
  9 12  1  0
 12 13  2  0
 13  2  1  0
 13  6  1  0
  1 14  1  0
  1 15  1  0
  1 16  1  0
  4 17  1  0
  5 18  1  0
  8 19  1  0
 12 20  1  0
M  END
>  <smiles>  (45) 
Cc1c(O)[nH]c2ncc(C#N)cc12

>  <score_type>  (45) 
oracle

>  <origin>  (45) 
adg

>  <m_score__min__energy>  (45) 
-5.3600000000000003

>  <m_primary>  (45) 
energy

$$$$
45:0
     RDKit          3D

 46 48  0  0  0  0  0  0  0  0999 V2000
   54.7650   27.0490   46.4890 H   0  0  0  0  0  0  0  0  0  0  0  0
   54.9840   26.1540   45.9950 N   0  0  0  0  0  0  0  0  0  0  0  0
   56.7000   26.0930   45.8040 S   0  0  0  0  0  0  0  0  0  0  0  0
   57.3010   25.2760   46.9120 O   0  0  0  0  0  0  0  0  0  0  0  0
   57.0320   25.4420   44.4900 O   0  0  0  0  0  0  0  0  0  0  0  0
   57.3550   27.7270   45.8440 C   0  0  0  0  0  0  0  0  0  0  0  0
   56.7250   28.7580   45.1360 C   0  0  0  0  0  0  0  0  0  0  0  0
   55.8224   28.5445   44.5446 H   0  0  0  0  0  0  0  0  0  0  0  0
   57.2390   30.0580   45.1780 C   0  0  0  0  0  0  0  0  0  0  0  0
   56.7421   30.8604   44.6131 H   0  0  0  0  0  0  0  0  0  0  0  0
   58.3860   30.3460   45.9370 C   0  0  0  0  0  0  0  0  0  0  0  0
   58.9140   31.6850   45.9690 N   0  0  0  0  0  0  0  0  0  0  0  0
   59.8520   32.1780   46.8040 C   0  0  0  0  0  0  0  0  0  0  0  0
   60.4100   31.5120   47.7180 O   0  0  0  0  0  0  0  0  0  0  0  0
   60.0910   33.5130   46.5190 C   0  0  0  0  0  0  0  0  0  0  0  0
   60.9950   34.2860   47.1540 C   0  0  0  0  0  0  0  0  0  0  0  0
   60.9706   35.3662   46.9478 H   0  0  0  0  0  0  0  0  0  0  0  0
   62.0130   33.8000   48.1020 C   0  0  0  0  0  0  0  0  0  0  0  0
   63.3070   33.5420   47.6350 C   0  0  0  0  0  0  0  0  0  0  0  0
   63.5402   33.6793   46.5688 H   0  0  0  0  0  0  0  0  0  0  0  0
   64.3030   33.1120   48.5120 C   0  0  0  0  0  0  0  0  0  0  0  0
   65.3125   32.8972   48.1314 H   0  0  0  0  0  0  0  0  0  0  0  0
   64.0220   32.9520   49.8800 C   0  0  0  0  0  0  0  0  0  0  0  0
   64.9880   32.5180   50.8010 O   0  0  0  0  0  0  0  0  0  0  0  0
   66.3680   32.3430   50.4950 C   0  0  0  0  0  0  0  0  0  0  0  0
   66.9443   32.2699   51.4291 H   0  0  0  0  0  0  0  0  0  0  0  0
   66.4997   31.4210   49.9098 H   0  0  0  0  0  0  0  0  0  0  0  0
   66.7257   33.2030   49.9098 H   0  0  0  0  0  0  0  0  0  0  0  0
   62.7350   33.2350   50.3530 C   0  0  0  0  0  0  0  0  0  0  0  0
   62.5109   33.1144   51.4232 H   0  0  0  0  0  0  0  0  0  0  0  0
   61.7240   33.6720   49.4760 C   0  0  0  0  0  0  0  0  0  0  0  0
   60.4320   33.9860   49.9290 O   0  0  0  0  0  0  0  0  0  0  0  0
   59.8880   33.5650   51.1760 C   0  0  0  0  0  0  0  0  0  0  0  0
   60.4661   34.0124   51.9980 H   0  0  0  0  0  0  0  0  0  0  0  0
   58.8392   33.8890   51.2466 H   0  0  0  0  0  0  0  0  0  0  0  0
   59.9386   32.4684   51.2466 H   0  0  0  0  0  0  0  0  0  0  0  0
   59.1940   33.7910   45.4730 C   0  0  0  0  0  0  0  0  0  0  0  0
   58.9270   34.9630   44.8870 C   0  0  0  0  0  0  0  0  0  0  0  0
   59.5007   35.8598   45.1640 H   0  0  0  0  0  0  0  0  0  0  0  0
   58.1337   35.0303   44.1280 H   0  0  0  0  0  0  0  0  0  0  0  0
   58.5190   32.6630   45.1680 N   0  0  0  0  0  0  0  0  0  0  0  0
   57.7880   32.5650   44.4260 H   0  0  0  0  0  0  0  0  0  0  0  0
   59.0130   29.3070   46.6460 C   0  0  0  0  0  0  0  0  0  0  0  0
   59.9147   29.5177   47.2398 H   0  0  0  0  0  0  0  0  0  0  0  0
   58.4990   28.0080   46.6020 C   0  0  0  0  0  0  0  0  0  0  0  0
   58.9947   27.2033   47.1647 H   0  0  0  0  0  0  0  0  0  0  0  0
  1  2  1  0
  2  3  1  0
  3  4  2  0
  3  5  2  0
  3  6  1  0
  6  7  2  0
  7  8  1  0
  7  9  1  0
  9 10  1  0
  9 11  2  0
 11 12  1  0
 12 13  1  0
 13 14  2  0
 13 15  1  0
 15 16  2  0
 16 17  1  0
 16 18  1  0
 18 19  2  0
 19 20  1  0
 19 21  1  0
 21 22  1  0
 21 23  2  0
 23 24  1  0
 24 25  1  0
 25 26  1  0
 25 27  1  0
 25 28  1  0
 23 29  1  0
 29 30  1  0
 29 31  2  0
 31 32  1  0
 32 33  1  0
 33 34  1  0
 33 35  1  0
 33 36  1  0
 15 37  1  0
 37 38  2  0
 38 39  1  0
 38 40  1  0
 37 41  1  0
 41 42  1  0
 11 43  1  0
 43 44  1  0
 43 45  2  0
 45 46  1  0
 45  6  1  0
 41 12  1  0
 31 18  1  0
M  CHG  1   2  -1
M  END
>  <UniqueID>  (46) 
39

>  <SMILES>  (46) 
C=c1[nH]n(-c2ccc(S([NH-])(=O)=O)cc2)c(=O)/c1=C/c1ccc(OC)cc1OC

>  <Energy>  (46) 
97.55801894589301

>  <Genealogy>  (46) 
C=c1[nH]n(-c2ccc(S([NH-])(=O)=O)cc2)c(=O)c1=Cc1ccc(OC)cc1OC (protonated)
C=c1[nH]n(-c2ccc(S([NH-])(=O)=O)cc2)c(=O)/c1=C/c1ccc(OC)cc1OC (cis-trans isomerization)
C=c1[nH]n(-c2ccc(S([NH-])(=O)=O)cc2)c(=O)/c1=C/c1ccc(OC)cc1OC (3D coordinates assigned)
C=c1[nH]n(-c2ccc(S([NH-])(=O)=O)cc2)c(=O)/c1=C/c1ccc(OC)cc1OC (optimized conformer: 97.55801894589301 kcal/mol)

>  <smiles>  (46) 
C=c1[nH]n(-c2ccc(S(N)(=O)=O)cc2)c(=O)c1=Cc1ccc(OC)cc1OC

>  <score_type>  (46) 
oracle

>  <origin>  (46) 
adg

>  <m_score__min__energy>  (46) 
-10.59

>  <m_primary>  (46) 
energy

$$$$
46:0
     RDKit          3D

 42 45  0  0  0  0  0  0  0  0999 V2000
   61.8420   32.8410   47.4560 C   0  0  0  0  0  0  0  0  0  0  0  0
   60.6660   32.1610   46.8360 C   0  0  0  0  0  0  0  0  0  0  0  0
   60.4400   30.7880   46.7640 C   0  0  0  0  0  0  0  0  0  0  0  0
   59.2290   30.5360   46.2030 N   0  0  0  0  0  0  0  0  0  0  0  0
   58.6440   29.2400   45.9780 C   0  0  0  0  0  0  0  0  0  0  0  0
   58.3330   28.8190   44.6730 C   0  0  0  0  0  0  0  0  0  0  0  0
   57.7620   27.5630   44.4490 C   0  0  0  0  0  0  0  0  0  0  0  0
   57.4820   26.7110   45.5270 C   0  0  0  0  0  0  0  0  0  0  0  0
   56.9070   25.4120   45.3020 N   0  0  0  0  0  0  0  0  0  0  0  0
   57.7110   24.4170   44.5780 C   0  0  0  0  0  0  0  0  0  0  0  0
   57.1920   22.9940   44.7950 C   0  0  0  0  0  0  0  0  0  0  0  0
   55.6970   22.9270   44.4860 C   0  0  0  0  0  0  0  0  0  0  0  0
   54.9090   23.8110   45.4520 C   0  0  0  0  0  0  0  0  0  0  0  0
   55.5040   25.1850   45.5660 C   0  0  0  0  0  0  0  0  0  0  0  0
   54.7780   26.1240   45.9930 O   0  0  0  0  0  0  0  0  0  0  0  0
   57.7870   27.1270   46.8310 C   0  0  0  0  0  0  0  0  0  0  0  0
   58.3590   28.3830   47.0550 C   0  0  0  0  0  0  0  0  0  0  0  0
   58.6900   31.7460   45.9440 C   0  0  0  0  0  0  0  0  0  0  0  0
   57.4520   31.9940   45.4460 N   0  0  0  0  0  0  0  0  0  0  0  0
   57.0400   33.2880   45.2920 C   0  0  0  0  0  0  0  0  0  0  0  0
   57.8850   34.3580   45.6620 C   0  0  0  0  0  0  0  0  0  0  0  0
   59.1570   34.0920   46.1940 C   0  0  0  0  0  0  0  0  0  0  0  0
   59.5310   32.7560   46.3230 C   0  0  0  0  0  0  0  0  0  0  0  0
   61.7580   32.7924   48.5517 H   0  0  0  0  0  0  0  0  0  0  0  0
   62.7667   32.3382   47.1365 H   0  0  0  0  0  0  0  0  0  0  0  0
   61.8676   33.8933   47.1365 H   0  0  0  0  0  0  0  0  0  0  0  0
   61.1431   30.0170   47.1123 H   0  0  0  0  0  0  0  0  0  0  0  0
   58.5408   29.4835   43.8214 H   0  0  0  0  0  0  0  0  0  0  0  0
   57.5313   27.2415   43.4226 H   0  0  0  0  0  0  0  0  0  0  0  0
   57.6774   24.6473   43.5029 H   0  0  0  0  0  0  0  0  0  0  0  0
   58.7402   24.4660   44.9631 H   0  0  0  0  0  0  0  0  0  0  0  0
   57.7322   22.3044   44.1297 H   0  0  0  0  0  0  0  0  0  0  0  0
   57.3558   22.7074   45.8443 H   0  0  0  0  0  0  0  0  0  0  0  0
   55.5246   23.2733   43.4563 H   0  0  0  0  0  0  0  0  0  0  0  0
   55.3573   21.8869   44.5990 H   0  0  0  0  0  0  0  0  0  0  0  0
   53.8745   23.9005   45.0889 H   0  0  0  0  0  0  0  0  0  0  0  0
   54.9411   23.3421   46.4465 H   0  0  0  0  0  0  0  0  0  0  0  0
   57.5753   26.4622   47.6814 H   0  0  0  0  0  0  0  0  0  0  0  0
   58.5878   28.7030   48.0823 H   0  0  0  0  0  0  0  0  0  0  0  0
   56.0432   33.4979   44.8769 H   0  0  0  0  0  0  0  0  0  0  0  0
   57.5473   35.3970   45.5337 H   0  0  0  0  0  0  0  0  0  0  0  0
   59.8316   34.9063   46.4970 H   0  0  0  0  0  0  0  0  0  0  0  0
  1  2  1  0
  2  3  2  0
  3  4  1  0
  4  5  1  0
  5  6  2  0
  6  7  1  0
  7  8  2  0
  8  9  1  0
  9 10  1  0
 10 11  1  0
 11 12  1  0
 12 13  1  0
 13 14  1  0
 14 15  2  0
  8 16  1  0
 16 17  2  0
  4 18  1  0
 18 19  2  0
 19 20  1  0
 20 21  2  0
 21 22  1  0
 22 23  2  0
 23  2  1  0
 17  5  1  0
 23 18  1  0
 14  9  1  0
  1 24  1  0
  1 25  1  0
  1 26  1  0
  3 27  1  0
  6 28  1  0
  7 29  1  0
 10 30  1  0
 10 31  1  0
 11 32  1  0
 11 33  1  0
 12 34  1  0
 12 35  1  0
 13 36  1  0
 13 37  1  0
 16 38  1  0
 17 39  1  0
 20 40  1  0
 21 41  1  0
 22 42  1  0
M  END
>  <UniqueID>  (47) 
40

>  <SMILES>  (47) 
Cc1cn(-c2ccc(N3CCCCC3=O)cc2)c2ncccc12

>  <Energy>  (47) 
88.33549339250806

>  <Genealogy>  (47) 
Cc1cn(-c2ccc(N3CCCCC3=O)cc2)c2ncccc12 (3D coordinates assigned)
Cc1cn(-c2ccc(N3CCCCC3=O)cc2)c2ncccc12 (nonaromatic ring conformer: 88.33549339250806 kcal/mol)

>  <smiles>  (47) 
Cc1cn(-c2ccc(N3CCCCC3=O)cc2)c2ncccc12

>  <score_type>  (47) 
oracle

>  <origin>  (47) 
adg

>  <m_score__min__energy>  (47) 
-8.1799999999999997

>  <m_primary>  (47) 
energy

$$$$
