0:0
     RDKit          3D

 35 37  0  0  0  0  0  0  0  0999 V2000
   57.0210   34.1390   45.5380 C   0  0  0  0  0  0  0  0  0  0  0  0
   57.6940   32.8020   45.4470 C   0  0  0  0  0  0  0  0  0  0  0  0
   57.0180   31.7690   44.8760 N   0  0  0  0  0  0  0  0  0  0  0  0
   57.5630   30.5300   44.7700 C   0  0  0  0  0  0  0  0  0  0  0  0
   56.8500   29.4830   44.1750 C   0  0  0  0  0  0  0  0  0  0  0  0
   57.4320   28.2140   44.0720 C   0  0  0  0  0  0  0  0  0  0  0  0
   58.7240   27.9910   44.5620 C   0  0  0  0  0  0  0  0  0  0  0  0
   59.4400   29.0350   45.1580 C   0  0  0  0  0  0  0  0  0  0  0  0
   58.8610   30.3050   45.2640 C   0  0  0  0  0  0  0  0  0  0  0  0
   59.5390   31.3300   45.8390 N   0  0  0  0  0  0  0  0  0  0  0  0
   58.9940   32.5720   45.9590 C   0  0  0  0  0  0  0  0  0  0  0  0
   59.8300   33.6630   46.5790 C   0  0  0  0  0  0  0  0  0  0  0  0
   61.2520   33.4600   46.2690 N   0  0  0  0  0  0  0  0  0  0  0  0
   62.0330   33.5100   47.4790 C   0  0  0  0  0  0  0  0  0  0  0  0
   63.3460   33.0050   47.5010 C   0  0  0  0  0  0  0  0  0  0  0  0
   64.1120   33.0810   48.6680 C   0  0  0  0  0  0  0  0  0  0  0  0
   63.5810   33.6710   49.8200 C   0  0  0  0  0  0  0  0  0  0  0  0
   64.5470   33.7680   51.2810 Cl  0  0  0  0  0  0  0  0  0  0  0  0
   62.2820   34.1880   49.8040 C   0  0  0  0  0  0  0  0  0  0  0  0
   61.5120   34.1130   48.6390 C   0  0  0  0  0  0  0  0  0  0  0  0
   56.8847   34.4097   46.5954 H   0  0  0  0  0  0  0  0  0  0  0  0
   57.6445   34.8978   45.0427 H   0  0  0  0  0  0  0  0  0  0  0  0
   56.0401   34.0902   45.0427 H   0  0  0  0  0  0  0  0  0  0  0  0
   55.8347   29.6568   43.7892 H   0  0  0  0  0  0  0  0  0  0  0  0
   56.8726   27.3901   43.6048 H   0  0  0  0  0  0  0  0  0  0  0  0
   59.1777   26.9924   44.4783 H   0  0  0  0  0  0  0  0  0  0  0  0
   60.4554   28.8582   45.5423 H   0  0  0  0  0  0  0  0  0  0  0  0
   59.5080   34.6365   46.1808 H   0  0  0  0  0  0  0  0  0  0  0  0
   59.6964   33.6371   47.6705 H   0  0  0  0  0  0  0  0  0  0  0  0
   61.3820   32.5310   45.8030 H   0  0  0  0  0  0  0  0  0  0  0  0
   61.5850   34.2000   45.6070 H   0  0  0  0  0  0  0  0  0  0  0  0
   63.7719   32.5481   46.5955 H   0  0  0  0  0  0  0  0  0  0  0  0
   65.1346   32.6759   48.6805 H   0  0  0  0  0  0  0  0  0  0  0  0
   61.8652   34.6543   50.7089 H   0  0  0  0  0  0  0  0  0  0  0  0
   60.4932   34.5277   48.6293 H   0  0  0  0  0  0  0  0  0  0  0  0
  1  2  1  0
  2  3  2  0
  3  4  1  0
  4  5  2  0
  5  6  1  0
  6  7  2  0
  7  8  1  0
  8  9  2  0
  9 10  1  0
 10 11  2  0
 11 12  1  0
 12 13  1  0
 13 14  1  0
 14 15  2  0
 15 16  1  0
 16 17  2  0
 17 18  1  0
 17 19  1  0
 19 20  2  0
 11  2  1  0
 20 14  1  0
  9  4  1  0
  1 21  1  0
  1 22  1  0
  1 23  1  0
  5 24  1  0
  6 25  1  0
  7 26  1  0
  8 27  1  0
 12 28  1  0
 12 29  1  0
 13 30  1  0
 13 31  1  0
 15 32  1  0
 16 33  1  0
 19 34  1  0
 20 35  1  0
M  CHG  1  13   1
M  END
>  <UniqueID>  (1) 
1

>  <SMILES>  (1) 
Cc1nc2ccccc2nc1C[NH2+]c1ccc(Cl)cc1

>  <Energy>  (1) 
40.96332375123773

>  <Genealogy>  (1) 
Cc1nc2ccccc2nc1C[NH2+]c1ccc(Cl)cc1 (protonated)
Cc1nc2ccccc2nc1C[NH2+]c1ccc(Cl)cc1 (3D coordinates assigned)
Cc1nc2ccccc2nc1C[NH2+]c1ccc(Cl)cc1 (optimized conformer: 40.96332375123773 kcal/mol)

>  <smiles>  (1) 
Cc1nc2ccccc2nc1CNc1ccc(Cl)cc1

>  <score_type>  (1) 
oracle

>  <origin>  (1) 
adg

>  <m_score__min__energy>  (1) 
-7.2800000000000002

>  <m_primary>  (1) 
energy

$$$$
1:0
     RDKit          3D

 52 54  0  0  0  0  0  0  0  0999 V2000
   55.6090   29.8170   44.1300 C   0  0  0  0  0  0  0  0  0  0  0  0
   56.6280   29.5640   43.0160 C   0  0  0  0  0  0  0  0  0  0  0  0
   57.4430   28.3770   43.3220 N   0  0  0  0  0  0  0  0  0  0  0  0
   57.8330   28.3210   44.7520 C   0  0  1  0  0  0  0  0  0  0  0  0
   58.0800   26.8700   45.1880 C   0  0  0  0  0  0  0  0  0  0  0  0
   59.1180   29.1520   44.9580 C   0  0  0  0  0  0  0  0  0  0  0  0
   58.8920   30.3370   45.8680 C   0  0  0  0  0  0  0  0  0  0  0  0
   59.0320   30.3820   47.2550 C   0  0  0  0  0  0  0  0  0  0  0  0
   59.4260   29.1990   48.0980 C   0  0  0  0  0  0  0  0  0  0  0  0
   58.7720   31.6390   47.7140 N   0  0  0  0  0  0  0  0  0  0  0  0
   58.8870   32.1460   49.0930 C   0  0  0  0  0  0  0  0  0  0  0  0
   59.7860   33.3890   49.1700 C   0  0  0  0  0  0  0  0  0  0  0  0
   61.0970   33.1830   48.4620 C   0  0  0  0  0  0  0  0  0  0  0  0
   61.3920   33.9000   47.2900 C   0  0  0  0  0  0  0  0  0  0  0  0
   62.6060   33.6940   46.6240 C   0  0  0  0  0  0  0  0  0  0  0  0
   63.5320   32.7700   47.1190 C   0  0  0  0  0  0  0  0  0  0  0  0
   63.2430   32.0520   48.2850 C   0  0  0  0  0  0  0  0  0  0  0  0
   62.0290   32.2520   48.9530 C   0  0  0  0  0  0  0  0  0  0  0  0
   58.4220   32.3660   46.6280 C   0  0  0  0  0  0  0  0  0  0  0  0
   58.0270   33.7080   46.5750 C   0  0  0  0  0  0  0  0  0  0  0  0
   57.6860   34.2530   45.3250 C   0  0  0  0  0  0  0  0  0  0  0  0
   57.7460   33.4610   44.1590 C   0  0  0  0  0  0  0  0  0  0  0  0
   58.1540   32.1230   44.2340 C   0  0  0  0  0  0  0  0  0  0  0  0
   58.4830   31.6030   45.4890 C   0  0  0  0  0  0  0  0  0  0  0  0
   56.0974   29.6957   45.1081 H   0  0  0  0  0  0  0  0  0  0  0  0
   55.2151   30.8402   44.0412 H   0  0  0  0  0  0  0  0  0  0  0  0
   54.7823   29.0969   44.0412 H   0  0  0  0  0  0  0  0  0  0  0  0
   56.0947   29.4022   42.0676 H   0  0  0  0  0  0  0  0  0  0  0  0
   57.2902   30.4386   42.9345 H   0  0  0  0  0  0  0  0  0  0  0  0
   56.9280   27.5190   43.0280 H   0  0  0  0  0  0  0  0  0  0  0  0
   57.0168   28.7338   45.3631 H   0  0  0  0  0  0  0  0  0  0  0  0
   58.0896   26.8138   46.2865 H   0  0  0  0  0  0  0  0  0  0  0  0
   57.2783   26.2275   44.7950 H   0  0  0  0  0  0  0  0  0  0  0  0
   59.0491   26.5289   44.7950 H   0  0  0  0  0  0  0  0  0  0  0  0
   59.8899   28.5064   45.4023 H   0  0  0  0  0  0  0  0  0  0  0  0
   59.4330   29.5355   43.9763 H   0  0  0  0  0  0  0  0  0  0  0  0
   59.3384   29.4619   49.1625 H   0  0  0  0  0  0  0  0  0  0  0  0
   58.7616   28.3515   47.8738 H   0  0  0  0  0  0  0  0  0  0  0  0
   60.4659   28.9191   47.8738 H   0  0  0  0  0  0  0  0  0  0  0  0
   57.8841   32.4085   49.4608 H   0  0  0  0  0  0  0  0  0  0  0  0
   59.3404   31.3570   49.7109 H   0  0  0  0  0  0  0  0  0  0  0  0
   59.2608   34.2361   48.7047 H   0  0  0  0  0  0  0  0  0  0  0  0
   60.0008   33.5869   50.2305 H   0  0  0  0  0  0  0  0  0  0  0  0
   60.6663   34.6258   46.8944 H   0  0  0  0  0  0  0  0  0  0  0  0
   62.8323   34.2605   45.7087 H   0  0  0  0  0  0  0  0  0  0  0  0
   64.4846   32.6081   46.5934 H   0  0  0  0  0  0  0  0  0  0  0  0
   63.9721   31.3281   48.6779 H   0  0  0  0  0  0  0  0  0  0  0  0
   61.8037   31.6791   49.8646 H   0  0  0  0  0  0  0  0  0  0  0  0
   57.9846   34.3202   47.4879 H   0  0  0  0  0  0  0  0  0  0  0  0
   57.3702   35.3044   45.2554 H   0  0  0  0  0  0  0  0  0  0  0  0
   57.4712   33.8960   43.1868 H   0  0  0  0  0  0  0  0  0  0  0  0
   58.2138   31.4988   43.3302 H   0  0  0  0  0  0  0  0  0  0  0  0
  1  2  1  0
  2  3  1  0
  3  4  1  0
  4  5  1  0
  4  6  1  0
  6  7  1  0
  7  8  2  0
  8  9  1  0
  8 10  1  0
 10 11  1  0
 11 12  1  0
 12 13  1  0
 13 14  2  0
 14 15  1  0
 15 16  2  0
 16 17  1  0
 17 18  2  0
 10 19  1  0
 19 20  2  0
 20 21  1  0
 21 22  2  0
 22 23  1  0
 23 24  2  0
 24  7  1  0
 18 13  1  0
 24 19  1  0
  1 25  1  0
  1 26  1  0
  1 27  1  0
  2 28  1  0
  2 29  1  0
  3 30  1  0
  4 31  1  1
  5 32  1  0
  5 33  1  0
  5 34  1  0
  6 35  1  0
  6 36  1  0
  9 37  1  0
  9 38  1  0
  9 39  1  0
 11 40  1  0
 11 41  1  0
 12 42  1  0
 12 43  1  0
 14 44  1  0
 15 45  1  0
 16 46  1  0
 17 47  1  0
 18 48  1  0
 20 49  1  0
 21 50  1  0
 22 51  1  0
 23 52  1  0
M  END
>  <UniqueID>  (2) 
2

>  <SMILES>  (2) 
CCN[C@@H](C)Cc1c(C)n(CCc2ccccc2)c2ccccc12

>  <Energy>  (2) 
75.63851789214428

>  <Genealogy>  (2) 
CCN[C@@H](C)Cc1c(C)n(CCc2ccccc2)c2ccccc12 (chirality)
CCN[C@@H](C)Cc1c(C)n(CCc2ccccc2)c2ccccc12 (3D coordinates assigned)
CCN[C@@H](C)Cc1c(C)n(CCc2ccccc2)c2ccccc12 (optimized conformer: 75.63851789214428 kcal/mol)

>  <smiles>  (2) 
CCNC(C)Cc1c(C)n(CCc2ccccc2)c2ccccc12

>  <score_type>  (2) 
oracle

>  <origin>  (2) 
adg

>  <m_score__min__energy>  (2) 
-8.3599999999999994

>  <m_primary>  (2) 
energy

$$$$
2:0
     RDKit          3D

 48 50  0  0  0  0  0  0  0  0999 V2000
   57.8900   25.5570   46.3370 C   0  0  0  0  0  0  0  0  0  0  0  0
   56.6600   26.4520   46.2250 C   0  0  0  0  0  0  0  0  0  0  0  0
   56.9330   27.5720   45.3190 N   0  0  0  0  0  0  0  0  0  0  0  0
   58.3150   27.5100   44.8260 C   0  0  0  0  0  0  0  0  0  0  0  0
   59.1960   28.5460   45.5400 C   0  0  0  0  0  0  0  0  0  0  0  0
   58.4320   29.3300   46.5330 N   0  0  0  0  0  0  0  0  0  0  0  0
   59.0960   30.5890   46.8350 C   0  0  0  0  0  0  0  0  0  0  0  0
   60.0970   30.6250   47.8470 C   0  0  0  0  0  0  0  0  0  0  0  0
   60.3190   29.5310   48.7250 C   0  0  0  0  0  0  0  0  0  0  0  0
   61.2730   29.5980   49.7360 C   0  0  0  0  0  0  0  0  0  0  0  0
   62.0240   30.7510   49.9100 C   0  0  0  0  0  0  0  0  0  0  0  0
   63.2990   30.8530   51.3300 Br  0  0  0  0  0  0  0  0  0  0  0  0
   61.8430   31.8340   49.0540 C   0  0  0  0  0  0  0  0  0  0  0  0
   60.9070   31.7810   47.9900 C   0  0  0  0  0  0  0  0  0  0  0  0
   60.7770   32.8270   47.1050 N   0  0  0  0  0  0  0  0  0  0  0  0
   61.8520   33.8410   47.0040 C   0  0  0  0  0  0  0  0  0  0  0  0
   59.6570   32.9220   46.3050 C   0  0  0  0  0  0  0  0  0  0  0  0
   59.3480   34.1420   45.6580 C   0  0  0  0  0  0  0  0  0  0  0  0
   58.2600   34.2540   44.8110 C   0  0  0  0  0  0  0  0  0  0  0  0
   57.4250   33.1730   44.6060 C   0  0  0  0  0  0  0  0  0  0  0  0
   57.6450   31.9510   45.2660 C   0  0  0  0  0  0  0  0  0  0  0  0
   56.7200   30.9090   45.0890 O   0  0  0  0  0  0  0  0  0  0  0  0
   56.2870   30.3830   43.8370 C   0  0  0  0  0  0  0  0  0  0  0  0
   58.7850   31.8000   46.1300 C   0  0  0  0  0  0  0  0  0  0  0  0
   58.1241   25.3867   47.3982 H   0  0  0  0  0  0  0  0  0  0  0  0
   57.6880   24.5932   45.8468 H   0  0  0  0  0  0  0  0  0  0  0  0
   58.7449   26.0457   45.8468 H   0  0  0  0  0  0  0  0  0  0  0  0
   55.8168   25.8642   45.8332 H   0  0  0  0  0  0  0  0  0  0  0  0
   56.4101   26.8469   47.2208 H   0  0  0  0  0  0  0  0  0  0  0  0
   56.2930   27.4700   44.4970 H   0  0  0  0  0  0  0  0  0  0  0  0
   58.7192   26.5039   45.0114 H   0  0  0  0  0  0  0  0  0  0  0  0
   58.3150   27.7301   43.7483 H   0  0  0  0  0  0  0  0  0  0  0  0
   60.0148   28.0219   46.0547 H   0  0  0  0  0  0  0  0  0  0  0  0
   59.5845   29.2425   44.7824 H   0  0  0  0  0  0  0  0  0  0  0  0
   58.2420   28.7930   47.4040 H   0  0  0  0  0  0  0  0  0  0  0  0
   57.4680   29.5100   46.1740 H   0  0  0  0  0  0  0  0  0  0  0  0
   59.7254   28.6129   48.6036 H   0  0  0  0  0  0  0  0  0  0  0  0
   61.4318   28.7345   50.3987 H   0  0  0  0  0  0  0  0  0  0  0  0
   62.4368   32.7474   49.2058 H   0  0  0  0  0  0  0  0  0  0  0  0
   62.1695   34.1405   48.0137 H   0  0  0  0  0  0  0  0  0  0  0  0
   62.7087   33.4144   46.4617 H   0  0  0  0  0  0  0  0  0  0  0  0
   61.4761   34.7211   46.4617 H   0  0  0  0  0  0  0  0  0  0  0  0
   59.9868   35.0204   45.8324 H   0  0  0  0  0  0  0  0  0  0  0  0
   58.0592   35.2068   44.2992 H   0  0  0  0  0  0  0  0  0  0  0  0
   56.5743   33.2696   43.9154 H   0  0  0  0  0  0  0  0  0  0  0  0
   55.5967   29.5444   44.0106 H   0  0  0  0  0  0  0  0  0  0  0  0
   55.7717   31.1702   43.2671 H   0  0  0  0  0  0  0  0  0  0  0  0
   57.1585   30.0285   43.2671 H   0  0  0  0  0  0  0  0  0  0  0  0
  1  2  1  0
  2  3  1  0
  3  4  1  0
  4  5  1  0
  5  6  1  0
  6  7  1  0
  7  8  2  0
  8  9  1  0
  9 10  2  0
 10 11  1  0
 11 12  1  0
 11 13  2  0
 13 14  1  0
 14 15  2  0
 15 16  1  0
 15 17  1  0
 17 18  2  0
 18 19  1  0
 19 20  2  0
 20 21  1  0
 21 22  1  0
 22 23  1  0
 21 24  2  0
 24  7  1  0
 14  8  1  0
 24 17  1  0
  1 25  1  0
  1 26  1  0
  1 27  1  0
  2 28  1  0
  2 29  1  0
  3 30  1  0
  4 31  1  0
  4 32  1  0
  5 33  1  0
  5 34  1  0
  6 35  1  0
  6 36  1  0
  9 37  1  0
 10 38  1  0
 13 39  1  0
 16 40  1  0
 16 41  1  0
 16 42  1  0
 18 43  1  0
 19 44  1  0
 20 45  1  0
 23 46  1  0
 23 47  1  0
 23 48  1  0
M  CHG  2   6   1  15   1
M  END
>  <UniqueID>  (3) 
3

>  <SMILES>  (3) 
CCNCC[NH2+]c1c2ccc(Br)cc2[n+](C)c2cccc(OC)c12

>  <Energy>  (3) 
77.45721339384568

>  <Genealogy>  (3) 
CCNCC[NH2+]c1c2ccc(Br)cc2[n+](C)c2cccc(OC)c12 (protonated)
CCNCC[NH2+]c1c2ccc(Br)cc2[n+](C)c2cccc(OC)c12 (3D coordinates assigned)
CCNCC[NH2+]c1c2ccc(Br)cc2[n+](C)c2cccc(OC)c12 (optimized conformer: 77.45721339384568 kcal/mol)

>  <smiles>  (3) 
CCNCCNc1c2ccc(Br)cc2[n+](C)c2cccc(OC)c12

>  <score_type>  (3) 
oracle

>  <origin>  (3) 
adg

>  <m_score__min__energy>  (3) 
-3.8599999999999999

>  <m_primary>  (3) 
energy

$$$$
3:0
     RDKit          3D

 64 66  0  0  0  0  0  0  0  0999 V2000
   61.7310   31.8790   52.1290 C   0  0  0  0  0  0  0  0  0  0  0  0
   61.4940   33.2370   51.4500 C   0  0  0  0  0  0  0  0  0  0  0  0
   59.9830   33.4960   51.3270 C   0  0  0  0  0  0  0  0  0  0  0  0
   62.1630   33.2700   50.1290 N   0  0  0  0  0  0  0  0  0  0  0  0
   63.2930   32.3160   50.0210 C   0  0  0  0  0  0  0  0  0  0  0  0
   63.7790   32.1260   48.5690 C   0  0  0  0  0  0  0  0  0  0  0  0
   63.7320   33.4170   47.7320 C   0  0  0  0  0  0  0  0  0  0  0  0
   62.4460   34.0070   47.7530 O   0  0  0  0  0  0  0  0  0  0  0  0
   61.5960   33.4390   46.7740 C   0  0  0  0  0  0  0  0  0  0  0  0
   60.3390   34.3040   46.6050 C   0  0  0  0  0  0  0  0  0  0  0  0
   59.5730   34.5020   47.9250 C   0  0  0  0  0  0  0  0  0  0  0  0
   58.8990   33.2760   48.3700 N   0  0  0  0  0  0  0  0  0  0  0  0
   58.7670   32.1130   47.5350 C   0  0  0  0  0  0  0  0  0  0  0  0
   58.1100   32.1940   46.2980 C   0  0  0  0  0  0  0  0  0  0  0  0
   58.1570   31.1060   45.4100 C   0  0  0  0  0  0  0  0  0  0  0  0
   58.6500   29.8860   45.8240 N   0  0  0  0  0  0  0  0  0  0  0  0
   58.4280   28.6860   44.9910 C   0  0  0  0  0  0  0  0  0  0  0  0
   59.3350   29.7900   47.0210 C   0  0  0  0  0  0  0  0  0  0  0  0
   60.0330   28.6110   47.3890 C   0  0  0  0  0  0  0  0  0  0  0  0
   60.7070   28.5250   48.6070 C   0  0  0  0  0  0  0  0  0  0  0  0
   60.7140   29.6050   49.4820 C   0  0  0  0  0  0  0  0  0  0  0  0
   60.0640   30.7870   49.1380 C   0  0  0  0  0  0  0  0  0  0  0  0
   59.3830   30.9030   47.9070 C   0  0  0  0  0  0  0  0  0  0  0  0
   57.6290   31.3460   44.0020 C   0  0  0  0  0  0  0  0  0  0  0  0
   58.0200   32.7500   43.5070 C   0  0  0  0  0  0  0  0  0  0  0  0
   57.6580   33.8840   44.4960 C   0  0  0  0  0  0  0  0  0  0  0  0
   57.2690   33.3840   45.8960 C   0  0  0  0  0  0  0  0  0  0  0  0
   61.7088   32.0064   53.2214 H   0  0  0  0  0  0  0  0  0  0  0  0
   60.9422   31.1748   51.8258 H   0  0  0  0  0  0  0  0  0  0  0  0
   62.7117   31.4837   51.8258 H   0  0  0  0  0  0  0  0  0  0  0  0
   61.9299   34.0392   52.0635 H   0  0  0  0  0  0  0  0  0  0  0  0
   59.5410   33.5718   52.3314 H   0  0  0  0  0  0  0  0  0  0  0  0
   59.8154   34.4360   50.7808 H   0  0  0  0  0  0  0  0  0  0  0  0
   59.5119   32.6655   50.7808 H   0  0  0  0  0  0  0  0  0  0  0  0
   62.4600   34.2510   49.9170 H   0  0  0  0  0  0  0  0  0  0  0  0
   61.4590   33.0050   49.3980 H   0  0  0  0  0  0  0  0  0  0  0  0
   64.1308   32.6939   50.6254 H   0  0  0  0  0  0  0  0  0  0  0  0
   62.9373   31.3395   50.3814 H   0  0  0  0  0  0  0  0  0  0  0  0
   64.8177   31.7648   48.5939 H   0  0  0  0  0  0  0  0  0  0  0  0
   63.0983   31.4058   48.0915 H   0  0  0  0  0  0  0  0  0  0  0  0
   64.4598   34.1335   48.1405 H   0  0  0  0  0  0  0  0  0  0  0  0
   63.9746   33.1598   46.6904 H   0  0  0  0  0  0  0  0  0  0  0  0
   62.1315   33.3831   45.8148 H   0  0  0  0  0  0  0  0  0  0  0  0
   61.2994   32.4295   47.0949 H   0  0  0  0  0  0  0  0  0  0  0  0
   60.6393   35.2901   46.2210 H   0  0  0  0  0  0  0  0  0  0  0  0
   59.6682   33.7827   45.9063 H   0  0  0  0  0  0  0  0  0  0  0  0
   60.2846   34.8161   48.7027 H   0  0  0  0  0  0  0  0  0  0  0  0
   58.8005   35.2661   47.7533 H   0  0  0  0  0  0  0  0  0  0  0  0
   58.6070   33.2030   49.3700 H   0  0  0  0  0  0  0  0  0  0  0  0
   58.2665   27.8133   45.6409 H   0  0  0  0  0  0  0  0  0  0  0  0
   57.5429   28.8391   44.3560 H   0  0  0  0  0  0  0  0  0  0  0  0
   59.3092   28.5123   44.3560 H   0  0  0  0  0  0  0  0  0  0  0  0
   60.0428   27.7512   46.7030 H   0  0  0  0  0  0  0  0  0  0  0  0
   61.2353   27.5985   48.8763 H   0  0  0  0  0  0  0  0  0  0  0  0
   61.2341   29.5256   50.4480 H   0  0  0  0  0  0  0  0  0  0  0  0
   60.0813   31.6396   49.8328 H   0  0  0  0  0  0  0  0  0  0  0  0
   58.0546   30.5922   43.3233 H   0  0  0  0  0  0  0  0  0  0  0  0
   56.5318   31.2690   44.0175 H   0  0  0  0  0  0  0  0  0  0  0  0
   59.1072   32.7688   43.3406 H   0  0  0  0  0  0  0  0  0  0  0  0
   57.4498   32.9350   42.5847 H   0  0  0  0  0  0  0  0  0  0  0  0
   58.5284   34.5494   44.5946 H   0  0  0  0  0  0  0  0  0  0  0  0
   56.7785   34.4004   44.0839 H   0  0  0  0  0  0  0  0  0  0  0  0
   57.4220   34.1950   46.6232 H   0  0  0  0  0  0  0  0  0  0  0  0
   56.2128   33.0773   45.8782 H   0  0  0  0  0  0  0  0  0  0  0  0
  1  2  1  0
  2  3  1  0
  2  4  1  0
  4  5  1  0
  5  6  1  0
  6  7  1  0
  7  8  1  0
  8  9  1  0
  9 10  1  0
 10 11  1  0
 11 12  1  0
 12 13  1  0
 13 14  2  0
 14 15  1  0
 15 16  2  0
 16 17  1  0
 16 18  1  0
 18 19  2  0
 19 20  1  0
 20 21  2  0
 21 22  1  0
 22 23  2  0
 15 24  1  0
 24 25  1  0
 25 26  1  0
 26 27  1  0
 23 13  1  0
 27 14  1  0
 23 18  1  0
  1 28  1  0
  1 29  1  0
  1 30  1  0
  2 31  1  0
  3 32  1  0
  3 33  1  0
  3 34  1  0
  4 35  1  0
  4 36  1  0
  5 37  1  0
  5 38  1  0
  6 39  1  0
  6 40  1  0
  7 41  1  0
  7 42  1  0
  9 43  1  0
  9 44  1  0
 10 45  1  0
 10 46  1  0
 11 47  1  0
 11 48  1  0
 12 49  1  0
 17 50  1  0
 17 51  1  0
 17 52  1  0
 19 53  1  0
 20 54  1  0
 21 55  1  0
 22 56  1  0
 24 57  1  0
 24 58  1  0
 25 59  1  0
 25 60  1  0
 26 61  1  0
 26 62  1  0
 27 63  1  0
 27 64  1  0
M  CHG  2   4   1  16   1
M  END
>  <UniqueID>  (4) 
4

>  <SMILES>  (4) 
CC(C)[NH2+]CCCOCCCNc1c2c([n+](C)c3ccccc13)CCCC2

>  <Energy>  (4) 
87.09441018331981

>  <Genealogy>  (4) 
CC(C)[NH2+]CCCOCCCNc1c2c([n+](C)c3ccccc13)CCCC2 (protonated)
CC(C)[NH2+]CCCOCCCNc1c2c([n+](C)c3ccccc13)CCCC2 (3D coordinates assigned)
CC(C)[NH2+]CCCOCCCNc1c2c([n+](C)c3ccccc13)CCCC2 (nonaromatic ring conformer: 87.09441018331981 kcal/mol)

>  <smiles>  (4) 
CC(C)NCCCOCCCNc1c2c([n+](C)c3ccccc13)CCCC2

>  <score_type>  (4) 
oracle

>  <origin>  (4) 
adg

>  <m_score__min__energy>  (4) 
-4.71

>  <m_primary>  (4) 
energy

$$$$
4:0
     RDKit          3D

 56 58  0  0  0  0  0  0  0  0999 V2000
   65.0830   32.7870   49.7760 C   0  0  0  0  0  0  0  0  0  0  0  0
   63.7150   33.4700   49.8520 C   0  0  0  0  0  0  0  0  0  0  0  0
   62.7430   32.8930   48.9110 N   0  0  0  0  0  0  0  0  0  0  0  0
   63.3930   32.2360   47.7680 C   0  0  0  0  0  0  0  0  0  0  0  0
   62.4460   31.2140   47.1320 C   0  0  0  0  0  0  0  0  0  0  0  0
   61.1170   31.2590   47.7430 N   0  0  0  0  0  0  0  0  0  0  0  0
   59.9500   31.3360   46.9110 C   0  0  0  0  0  0  0  0  0  0  0  0
   59.3000   30.1460   46.5410 C   0  0  0  0  0  0  0  0  0  0  0  0
   59.5830   28.9300   47.1990 C   0  0  0  0  0  0  0  0  0  0  0  0
   58.8890   27.7670   46.8720 C   0  0  0  0  0  0  0  0  0  0  0  0
   57.9020   27.7980   45.8940 C   0  0  0  0  0  0  0  0  0  0  0  0
   57.6330   28.9810   45.2070 C   0  0  0  0  0  0  0  0  0  0  0  0
   58.3580   30.1690   45.4850 C   0  0  0  0  0  0  0  0  0  0  0  0
   58.1870   31.3190   44.7420 N   0  0  0  0  0  0  0  0  0  0  0  0
   57.5170   31.2480   43.4240 C   0  0  0  0  0  0  0  0  0  0  0  0
   58.6650   32.5280   45.2180 C   0  0  0  0  0  0  0  0  0  0  0  0
   58.3270   33.7460   44.5830 C   0  0  0  0  0  0  0  0  0  0  0  0
   58.8630   34.9500   45.0110 C   0  0  0  0  0  0  0  0  0  0  0  0
   59.6540   35.0010   46.1470 C   0  0  0  0  0  0  0  0  0  0  0  0
   59.8970   33.8430   46.9140 C   0  0  0  0  0  0  0  0  0  0  0  0
   60.5270   33.9510   48.2250 N   0  0  0  0  0  0  0  0  0  0  0  0
   59.6840   34.5330   49.2990 C   0  0  0  0  0  0  0  0  0  0  0  0
   59.6240   33.6330   50.5420 C   0  0  0  0  0  0  0  0  0  0  0  0
   60.1440   32.3600   50.2220 O   0  0  0  0  0  0  0  0  0  0  0  0
   59.1550   31.3790   50.4420 C   0  0  0  0  0  0  0  0  0  0  0  0
   59.5160   32.5700   46.3650 C   0  0  0  0  0  0  0  0  0  0  0  0
   65.4567   32.6004   50.7936 H   0  0  0  0  0  0  0  0  0  0  0  0
   64.9864   31.8314   49.2399 H   0  0  0  0  0  0  0  0  0  0  0  0
   65.7888   33.4385   49.2399 H   0  0  0  0  0  0  0  0  0  0  0  0
   63.3232   33.3617   50.8741 H   0  0  0  0  0  0  0  0  0  0  0  0
   63.8543   34.5271   49.5815 H   0  0  0  0  0  0  0  0  0  0  0  0
   62.1500   32.1960   49.4190 H   0  0  0  0  0  0  0  0  0  0  0  0
   63.6634   32.9950   47.0191 H   0  0  0  0  0  0  0  0  0  0  0  0
   64.2956   31.7156   48.1208 H   0  0  0  0  0  0  0  0  0  0  0  0
   62.3529   31.4333   46.0581 H   0  0  0  0  0  0  0  0  0  0  0  0
   62.8650   30.2097   47.2926 H   0  0  0  0  0  0  0  0  0  0  0  0
   60.9960   31.0260   48.7550 H   0  0  0  0  0  0  0  0  0  0  0  0
   60.3593   28.9001   47.9778 H   0  0  0  0  0  0  0  0  0  0  0  0
   59.1223   26.8240   47.3880 H   0  0  0  0  0  0  0  0  0  0  0  0
   57.3315   26.8867   45.6613 H   0  0  0  0  0  0  0  0  0  0  0  0
   56.8468   28.9938   44.4377 H   0  0  0  0  0  0  0  0  0  0  0  0
   56.4327   31.1331   43.5696 H   0  0  0  0  0  0  0  0  0  0  0  0
   57.7155   32.1722   42.8615 H   0  0  0  0  0  0  0  0  0  0  0  0
   57.9048   30.3859   42.8615 H   0  0  0  0  0  0  0  0  0  0  0  0
   57.6266   33.7372   43.7348 H   0  0  0  0  0  0  0  0  0  0  0  0
   58.6591   35.8710   44.4451 H   0  0  0  0  0  0  0  0  0  0  0  0
   60.0990   35.9586   46.4552 H   0  0  0  0  0  0  0  0  0  0  0  0
   60.7520   32.9870   48.5600 H   0  0  0  0  0  0  0  0  0  0  0  0
   61.4160   34.4890   48.1220 H   0  0  0  0  0  0  0  0  0  0  0  0
   60.1021   35.5085   49.5880 H   0  0  0  0  0  0  0  0  0  0  0  0
   58.6613   34.6357   48.9070 H   0  0  0  0  0  0  0  0  0  0  0  0
   60.2213   34.0815   51.3495 H   0  0  0  0  0  0  0  0  0  0  0  0
   58.5801   33.5318   50.8736 H   0  0  0  0  0  0  0  0  0  0  0  0
   59.0127   31.2379   51.5236 H   0  0  0  0  0  0  0  0  0  0  0  0
   58.2079   31.7046   49.9870 H   0  0  0  0  0  0  0  0  0  0  0  0
   59.4729   30.4293   49.9870 H   0  0  0  0  0  0  0  0  0  0  0  0
  1  2  1  0
  2  3  1  0
  3  4  1  0
  4  5  1  0
  5  6  1  0
  6  7  1  0
  7  8  2  0
  8  9  1  0
  9 10  2  0
 10 11  1  0
 11 12  2  0
 12 13  1  0
 13 14  2  0
 14 15  1  0
 14 16  1  0
 16 17  2  0
 17 18  1  0
 18 19  2  0
 19 20  1  0
 20 21  1  0
 21 22  1  0
 22 23  1  0
 23 24  1  0
 24 25  1  0
 20 26  2  0
 26  7  1  0
 13  8  1  0
 26 16  1  0
  1 27  1  0
  1 28  1  0
  1 29  1  0
  2 30  1  0
  2 31  1  0
  3 32  1  0
  4 33  1  0
  4 34  1  0
  5 35  1  0
  5 36  1  0
  6 37  1  0
  9 38  1  0
 10 39  1  0
 11 40  1  0
 12 41  1  0
 15 42  1  0
 15 43  1  0
 15 44  1  0
 17 45  1  0
 18 46  1  0
 19 47  1  0
 21 48  1  0
 21 49  1  0
 22 50  1  0
 22 51  1  0
 23 52  1  0
 23 53  1  0
 25 54  1  0
 25 55  1  0
 25 56  1  0
M  CHG  2  14   1  21   1
M  END
>  <UniqueID>  (5) 
5

>  <SMILES>  (5) 
CCNCCNc1c2ccccc2[n+](C)c2cccc([NH2+]CCOC)c12

>  <Energy>  (5) 
95.23890379221434

>  <Genealogy>  (5) 
CCNCCNc1c2ccccc2[n+](C)c2cccc([NH2+]CCOC)c12 (protonated)
CCNCCNc1c2ccccc2[n+](C)c2cccc([NH2+]CCOC)c12 (3D coordinates assigned)
CCNCCNc1c2ccccc2[n+](C)c2cccc([NH2+]CCOC)c12 (optimized conformer: 95.23890379221434 kcal/mol)

>  <smiles>  (5) 
CCNCCNc1c2ccccc2[n+](C)c2cccc(NCCOC)c12

>  <score_type>  (5) 
oracle

>  <origin>  (5) 
adg

>  <m_score__min__energy>  (5) 
-2.5800000000000001

>  <m_primary>  (5) 
energy

$$$$
5:0
     RDKit          3D

 16 15  0  0  0  0  0  0  0  0999 V2000
   56.3000   29.7550   42.6690 C   0  0  0  0  0  0  0  0  0  0  0  0
   55.5310   29.9760   43.9650 C   0  0  0  0  0  0  0  0  0  0  0  0
   56.2990   29.4420   45.0950 N   0  0  0  0  0  0  0  0  0  0  0  0
   57.6930   29.9150   45.1060 C   0  0  0  0  0  0  0  0  0  0  0  0
   57.8680   31.2730   45.8070 C   0  0  0  0  0  0  0  0  0  0  0  0
   57.8070   32.7510   44.5490 Br  0  0  0  0  0  0  0  0  0  0  0  0
   57.3333   29.4581   42.9018 H   0  0  0  0  0  0  0  0  0  0  0  0
   55.8130   28.9605   42.0846 H   0  0  0  0  0  0  0  0  0  0  0  0
   56.3091   30.6869   42.0846 H   0  0  0  0  0  0  0  0  0  0  0  0
   55.3655   31.0534   44.1124 H   0  0  0  0  0  0  0  0  0  0  0  0
   54.5628   29.4573   43.9061 H   0  0  0  0  0  0  0  0  0  0  0  0
   55.8300   29.7170   45.9900 H   0  0  0  0  0  0  0  0  0  0  0  0
   58.3106   29.1698   45.6287 H   0  0  0  0  0  0  0  0  0  0  0  0
   58.0012   30.0465   44.0583 H   0  0  0  0  0  0  0  0  0  0  0  0
   57.0609   31.3995   46.5436 H   0  0  0  0  0  0  0  0  0  0  0  0
   58.8543   31.2805   46.2939 H   0  0  0  0  0  0  0  0  0  0  0  0
  1  2  1  0
  2  3  1  0
  3  4  1  0
  4  5  1  0
  5  6  1  0
  1  7  1  0
  1  8  1  0
  1  9  1  0
  2 10  1  0
  2 11  1  0
  3 12  1  0
  4 13  1  0
  4 14  1  0
  5 15  1  0
  5 16  1  0
M  END
>  <UniqueID>  (6) 
6

>  <SMILES>  (6) 
CCNCCBr

>  <Energy>  (6) 
8.469728840502164

>  <Genealogy>  (6) 
CCNCCBr (3D coordinates assigned)
CCNCCBr (optimized conformer: 8.469728840502164 kcal/mol)

>  <smiles>  (6) 
CCNCCBr

>  <score_type>  (6) 
oracle

>  <origin>  (6) 
adg

>  <m_score__min__energy>  (6) 
-3.5299999999999998

>  <m_primary>  (6) 
energy

$$$$
6:0
     RDKit          3D

 82 85  0  0  0  0  0  0  0  0999 V2000
   63.3170   31.6710   47.6210 C   0  0  0  0  0  0  0  0  0  0  0  0
   63.0820   33.1610   47.9040 C   0  0  0  0  0  0  0  0  0  0  0  0
   62.6430   33.8670   46.6160 C   0  0  0  0  0  0  0  0  0  0  0  0
   62.0450   33.3400   48.9430 N   0  0  0  0  0  0  0  0  0  0  0  0
   61.0940   34.4160   48.6200 C   0  0  0  0  0  0  0  0  0  0  0  0
   59.6760   34.1000   49.1260 C   0  0  0  0  0  0  0  0  0  0  0  0
   59.0790   32.8920   48.3870 C   0  0  0  0  0  0  0  0  0  0  0  0
   60.1250   32.0480   47.7790 N   0  0  0  0  0  0  0  0  0  0  0  0
   59.5640   31.0860   46.8310 C   0  0  0  0  0  0  0  0  0  0  0  0
   58.9140   31.5880   45.6600 C   0  0  0  0  0  0  0  0  0  0  0  0
   58.8890   32.9750   45.3380 C   0  0  0  0  0  0  0  0  0  0  0  0
   58.3640   33.4290   44.1320 C   0  0  0  0  0  0  0  0  0  0  0  0
   57.8410   32.5310   43.2180 C   0  0  0  0  0  0  0  0  0  0  0  0
   57.7780   31.1790   43.5370 C   0  0  0  0  0  0  0  0  0  0  0  0
   58.2510   30.6940   44.7840 C   0  0  0  0  0  0  0  0  0  0  0  0
   58.0490   29.3880   45.1550 N   0  0  0  0  0  0  0  0  0  0  0  0
   57.0010   28.5900   44.4720 C   0  0  0  0  0  0  0  0  0  0  0  0
   58.7830   28.8340   46.1820 C   0  0  0  0  0  0  0  0  0  0  0  0
   58.7710   27.4310   46.3760 C   0  0  0  0  0  0  0  0  0  0  0  0
   59.4260   26.8410   47.4360 C   0  0  0  0  0  0  0  0  0  0  0  0
   60.1730   27.6110   48.2990 C   0  0  0  0  0  0  0  0  0  0  0  0
   60.3180   28.9950   48.1030 C   0  0  0  0  0  0  0  0  0  0  0  0
   61.2120   29.6970   48.9240 O   0  0  0  0  0  0  0  0  0  0  0  0
   61.1730   29.8280   50.3490 C   0  0  0  0  0  0  0  0  0  0  0  0
   62.4940   29.3650   51.0200 C   0  0  0  0  0  0  0  0  0  0  0  0
   63.1550   30.3600   51.9280 N   0  0  0  0  0  0  0  0  0  0  0  0
   62.2280   30.7230   53.0330 C   0  0  0  0  0  0  0  0  0  0  0  0
   63.4340   31.6070   51.1340 C   0  0  0  0  0  0  0  0  0  0  0  0
   64.8320   31.5940   50.4880 C   0  0  0  0  0  0  0  0  0  0  0  0
   65.9250   31.5560   51.5120 N   0  0  0  0  0  0  0  0  0  0  0  0
   67.0980   30.8500   50.9400 C   0  0  0  0  0  0  0  0  0  0  0  0
   66.3440   32.9410   51.8440 C   0  0  0  0  0  0  0  0  0  0  0  0
   65.4880   30.8680   52.7680 C   0  0  0  0  0  0  0  0  0  0  0  0
   64.4210   29.7890   52.4980 C   0  0  0  0  0  0  0  0  0  0  0  0
   59.5740   29.6560   47.0560 C   0  0  0  0  0  0  0  0  0  0  0  0
   63.4029   31.1261   48.5727 H   0  0  0  0  0  0  0  0  0  0  0  0
   62.4711   31.2695   47.0437 H   0  0  0  0  0  0  0  0  0  0  0  0
   64.2454   31.5494   47.0437 H   0  0  0  0  0  0  0  0  0  0  0  0
   64.0230   33.6000   48.2671 H   0  0  0  0  0  0  0  0  0  0  0  0
   62.0779   34.7758   46.8704 H   0  0  0  0  0  0  0  0  0  0  0  0
   63.5308   34.1402   46.0267 H   0  0  0  0  0  0  0  0  0  0  0  0
   62.0053   33.1916   46.0267 H   0  0  0  0  0  0  0  0  0  0  0  0
   62.4740   33.5320   49.8790 H   0  0  0  0  0  0  0  0  0  0  0  0
   61.4395   35.3487   49.0898 H   0  0  0  0  0  0  0  0  0  0  0  0
   61.0509   34.5153   47.5253 H   0  0  0  0  0  0  0  0  0  0  0  0
   59.7205   33.8763   50.2021 H   0  0  0  0  0  0  0  0  0  0  0  0
   59.0359   34.9746   48.9380 H   0  0  0  0  0  0  0  0  0  0  0  0
   58.5041   32.2858   49.1026 H   0  0  0  0  0  0  0  0  0  0  0  0
   58.4341   33.2703   47.5802 H   0  0  0  0  0  0  0  0  0  0  0  0
   60.7320   31.6590   48.5140 H   0  0  0  0  0  0  0  0  0  0  0  0
   60.8250   32.6540   47.3050 H   0  0  0  0  0  0  0  0  0  0  0  0
   59.2930   33.7024   46.0575 H   0  0  0  0  0  0  0  0  0  0  0  0
   58.3647   34.5052   43.9043 H   0  0  0  0  0  0  0  0  0  0  0  0
   57.4764   32.8855   42.2426 H   0  0  0  0  0  0  0  0  0  0  0  0
   57.3535   30.4720   42.8090 H   0  0  0  0  0  0  0  0  0  0  0  0
   56.3622   28.1036   45.2239 H   0  0  0  0  0  0  0  0  0  0  0  0
   56.3878   29.2520   43.8429 H   0  0  0  0  0  0  0  0  0  0  0  0
   57.4760   27.8228   43.8429 H   0  0  0  0  0  0  0  0  0  0  0  0
   58.2252   26.7960   45.6627 H   0  0  0  0  0  0  0  0  0  0  0  0
   59.3518   25.7547   47.5923 H   0  0  0  0  0  0  0  0  0  0  0  0
   60.6659   27.1335   49.1587 H   0  0  0  0  0  0  0  0  0  0  0  0
   60.9989   30.8841   50.6024 H   0  0  0  0  0  0  0  0  0  0  0  0
   60.3624   29.1858   50.7237 H   0  0  0  0  0  0  0  0  0  0  0  0
   62.2732   28.4644   51.6117 H   0  0  0  0  0  0  0  0  0  0  0  0
   63.2031   29.1995   50.1955 H   0  0  0  0  0  0  0  0  0  0  0  0
   62.7169   30.5315   53.9996 H   0  0  0  0  0  0  0  0  0  0  0  0
   61.9682   31.7893   52.9583 H   0  0  0  0  0  0  0  0  0  0  0  0
   61.3133   30.1167   52.9583 H   0  0  0  0  0  0  0  0  0  0  0  0
   62.6788   31.6955   50.3391 H   0  0  0  0  0  0  0  0  0  0  0  0
   63.3937   32.4605   51.8267 H   0  0  0  0  0  0  0  0  0  0  0  0
   64.9174   30.7058   49.8448 H   0  0  0  0  0  0  0  0  0  0  0  0
   64.9450   32.5204   49.9057 H   0  0  0  0  0  0  0  0  0  0  0  0
   67.7304   30.4694   51.7556 H   0  0  0  0  0  0  0  0  0  0  0  0
   66.7534   30.0091   50.3202 H   0  0  0  0  0  0  0  0  0  0  0  0
   67.6798   31.5481   50.3202 H   0  0  0  0  0  0  0  0  0  0  0  0
   66.3803   33.0611   52.9368 H   0  0  0  0  0  0  0  0  0  0  0  0
   67.3407   33.1340   51.4206 H   0  0  0  0  0  0  0  0  0  0  0  0
   65.6214   33.6541   51.4206 H   0  0  0  0  0  0  0  0  0  0  0  0
   66.3632   30.3922   53.2345 H   0  0  0  0  0  0  0  0  0  0  0  0
   65.0436   31.6247   53.4312 H   0  0  0  0  0  0  0  0  0  0  0  0
   64.8308   29.0588   51.7846 H   0  0  0  0  0  0  0  0  0  0  0  0
   64.1711   29.3189   53.4606 H   0  0  0  0  0  0  0  0  0  0  0  0
  1  2  1  0
  2  3  1  0
  2  4  1  0
  4  5  1  0
  5  6  1  0
  6  7  1  0
  7  8  1  0
  8  9  1  0
  9 10  2  0
 10 11  1  0
 11 12  2  0
 12 13  1  0
 13 14  2  0
 14 15  1  0
 15 16  2  0
 16 17  1  0
 16 18  1  0
 18 19  2  0
 19 20  1  0
 20 21  2  0
 21 22  1  0
 22 23  1  0
 23 24  1  0
 24 25  1  0
 25 26  1  0
 26 27  1  0
 26 28  1  0
 28 29  1  0
 29 30  1  0
 30 31  1  0
 30 32  1  0
 30 33  1  0
 33 34  1  0
 22 35  2  0
 35  9  1  0
 15 10  1  0
 35 18  1  0
 34 26  1  0
  1 36  1  0
  1 37  1  0
  1 38  1  0
  2 39  1  0
  3 40  1  0
  3 41  1  0
  3 42  1  0
  4 43  1  0
  5 44  1  0
  5 45  1  0
  6 46  1  0
  6 47  1  0
  7 48  1  0
  7 49  1  0
  8 50  1  0
  8 51  1  0
 11 52  1  0
 12 53  1  0
 13 54  1  0
 14 55  1  0
 17 56  1  0
 17 57  1  0
 17 58  1  0
 19 59  1  0
 20 60  1  0
 21 61  1  0
 24 62  1  0
 24 63  1  0
 25 64  1  0
 25 65  1  0
 27 66  1  0
 27 67  1  0
 27 68  1  0
 28 69  1  0
 28 70  1  0
 29 71  1  0
 29 72  1  0
 31 73  1  0
 31 74  1  0
 31 75  1  0
 32 76  1  0
 32 77  1  0
 32 78  1  0
 33 79  1  0
 33 80  1  0
 34 81  1  0
 34 82  1  0
M  CHG  4   8   1  16   1  26   1  30   1
M  END
>  <UniqueID>  (7) 
7

>  <SMILES>  (7) 
CC(C)NCCC[NH2+]c1c2ccccc2[n+](C)c2cccc(OCC[N+]3(C)CC[N+](C)(C)CC3)c12

>  <Energy>  (7) 
145.14928189213563

>  <Genealogy>  (7) 
CC(C)NCCC[NH2+]c1c2ccccc2[n+](C)c2cccc(OCC[N+]3(C)CC[N+](C)(C)CC3)c12 (protonated)
CC(C)NCCC[NH2+]c1c2ccccc2[n+](C)c2cccc(OCC[N+]3(C)CC[N+](C)(C)CC3)c12 (3D coordinates assigned)
CC(C)NCCC[NH2+]c1c2ccccc2[n+](C)c2cccc(OCC[N+]3(C)CC[N+](C)(C)CC3)c12 (nonaromatic ring conformer: 145.14928189213563 kcal/mol)

>  <smiles>  (7) 
CC(C)NCCCNc1c2ccccc2[n+](C)c2cccc(OCC[N+]3(C)CC[N+](C)(C)CC3)c12

>  <score_type>  (7) 
oracle

>  <origin>  (7) 
adg

>  <m_score__min__energy>  (7) 
-2.5299999999999998

>  <m_primary>  (7) 
energy

$$$$
7:0
     RDKit          3D

 70 74  0  0  0  0  0  0  0  0999 V2000
   55.3070   29.7370   43.7890 C   0  0  0  0  0  0  0  0  0  0  0  0
   56.6910   29.4540   44.3670 C   0  0  0  0  0  0  0  0  0  0  0  0
   57.6840   30.3560   43.7680 N   0  0  0  0  0  0  0  0  0  0  0  0
   57.0840   31.1970   42.7190 C   0  0  0  0  0  0  0  0  0  0  0  0
   57.8350   32.5320   42.6060 C   0  0  0  0  0  0  0  0  0  0  0  0
   58.5030   32.9310   43.9300 C   0  0  0  0  0  0  0  0  0  0  0  0
   57.9900   34.1420   44.4560 O   0  0  0  0  0  0  0  0  0  0  0  0
   57.3680   33.9370   45.7120 C   0  0  0  0  0  0  0  0  0  0  0  0
   57.7120   32.5380   46.2170 C   0  0  0  0  0  0  0  0  0  0  0  0
   58.6530   32.6130   47.2740 O   0  0  0  0  0  0  0  0  0  0  0  0
   59.3720   33.8340   47.2390 C   0  0  0  0  0  0  0  0  0  0  0  0
   60.5880   33.7220   46.3150 C   0  0  0  0  0  0  0  0  0  0  0  0
   61.5900   32.8120   46.8700 N   0  0  0  0  0  0  0  0  0  0  0  0
   61.2080   31.8270   47.8340 C   0  0  0  0  0  0  0  0  0  0  0  0
   60.7080   30.6060   47.4070 C   0  0  0  0  0  0  0  0  0  0  0  0
   60.2920   29.6590   48.3140 C   0  0  0  0  0  0  0  0  0  0  0  0
   60.3980   29.8310   49.6700 N   0  0  0  0  0  0  0  0  0  0  0  0
   60.0640   28.7240   50.5810 C   0  0  0  0  0  0  0  0  0  0  0  0
   60.8290   31.0650   50.1410 C   0  0  0  0  0  0  0  0  0  0  0  0
   60.8280   31.3760   51.5200 C   0  0  0  0  0  0  0  0  0  0  0  0
   61.3070   32.6040   51.9800 C   0  0  0  0  0  0  0  0  0  0  0  0
   61.7880   33.5540   51.0840 C   0  0  0  0  0  0  0  0  0  0  0  0
   61.7700   33.2950   49.7140 C   0  0  0  0  0  0  0  0  0  0  0  0
   61.2740   32.0730   49.2230 C   0  0  0  0  0  0  0  0  0  0  0  0
   59.7330   28.5680   47.5260 C   0  0  0  0  0  0  0  0  0  0  0  0
   59.0780   27.4680   47.9720 N   0  0  0  0  0  0  0  0  0  0  0  0
   58.5560   26.5850   47.0760 C   0  0  0  0  0  0  0  0  0  0  0  0
   57.8870   25.4440   47.5320 C   0  0  0  0  0  0  0  0  0  0  0  0
   57.3420   24.5370   46.6170 C   0  0  0  0  0  0  0  0  0  0  0  0
   57.4660   24.7650   45.2420 C   0  0  0  0  0  0  0  0  0  0  0  0
   58.1280   25.9030   44.7720 C   0  0  0  0  0  0  0  0  0  0  0  0
   58.6760   26.8240   45.6810 C   0  0  0  0  0  0  0  0  0  0  0  0
   59.3350   27.9960   45.2610 C   0  0  0  0  0  0  0  0  0  0  0  0
   59.4550   28.2770   44.0370 O   0  0  0  0  0  0  0  0  0  0  0  0
   59.8350   28.8350   46.2070 N   0  0  0  0  0  0  0  0  0  0  0  0
   60.4710   30.1360   45.9990 C   0  0  0  0  0  0  0  0  0  0  0  0
   54.5897   29.8837   44.6100 H   0  0  0  0  0  0  0  0  0  0  0  0
   55.3468   30.6456   43.1702 H   0  0  0  0  0  0  0  0  0  0  0  0
   54.9870   28.8857   43.1702 H   0  0  0  0  0  0  0  0  0  0  0  0
   56.6690   29.6092   45.4558 H   0  0  0  0  0  0  0  0  0  0  0  0
   56.9686   28.4137   44.1420 H   0  0  0  0  0  0  0  0  0  0  0  0
   58.4170   29.7610   43.3140 H   0  0  0  0  0  0  0  0  0  0  0  0
   57.1382   30.6683   41.7559 H   0  0  0  0  0  0  0  0  0  0  0  0
   56.0351   31.3995   42.9814 H   0  0  0  0  0  0  0  0  0  0  0  0
   58.6102   32.4387   41.8312 H   0  0  0  0  0  0  0  0  0  0  0  0
   57.1040   33.3118   42.3461 H   0  0  0  0  0  0  0  0  0  0  0  0
   58.3360   32.1293   44.6644 H   0  0  0  0  0  0  0  0  0  0  0  0
   59.5742   33.0819   43.7304 H   0  0  0  0  0  0  0  0  0  0  0  0
   57.7310   34.6874   46.4297 H   0  0  0  0  0  0  0  0  0  0  0  0
   56.2775   34.0352   45.6061 H   0  0  0  0  0  0  0  0  0  0  0  0
   56.7965   32.0484   46.5805 H   0  0  0  0  0  0  0  0  0  0  0  0
   58.1481   31.9571   45.3909 H   0  0  0  0  0  0  0  0  0  0  0  0
   58.7106   34.6316   46.8698 H   0  0  0  0  0  0  0  0  0  0  0  0
   59.7216   34.0669   48.2556 H   0  0  0  0  0  0  0  0  0  0  0  0
   60.2612   33.3422   45.3357 H   0  0  0  0  0  0  0  0  0  0  0  0
   61.0410   34.7191   46.2118 H   0  0  0  0  0  0  0  0  0  0  0  0
   62.5270   32.7210   46.4180 H   0  0  0  0  0  0  0  0  0  0  0  0
   60.1662   29.0627   51.6225 H   0  0  0  0  0  0  0  0  0  0  0  0
   59.0282   28.4005   50.4006 H   0  0  0  0  0  0  0  0  0  0  0  0
   60.7480   27.8816   50.4006 H   0  0  0  0  0  0  0  0  0  0  0  0
   60.4441   30.6395   52.2413 H   0  0  0  0  0  0  0  0  0  0  0  0
   61.3042   32.8222   53.0581 H   0  0  0  0  0  0  0  0  0  0  0  0
   62.1829   34.5105   51.4570 H   0  0  0  0  0  0  0  0  0  0  0  0
   62.1468   34.0524   49.0109 H   0  0  0  0  0  0  0  0  0  0  0  0
   57.7894   25.2598   48.6121 H   0  0  0  0  0  0  0  0  0  0  0  0
   56.8146   23.6423   46.9793 H   0  0  0  0  0  0  0  0  0  0  0  0
   57.0404   24.0452   44.5273 H   0  0  0  0  0  0  0  0  0  0  0  0
   58.2200   26.0777   43.6899 H   0  0  0  0  0  0  0  0  0  0  0  0
   61.4179   30.0330   45.4488 H   0  0  0  0  0  0  0  0  0  0  0  0
   59.8655   30.8311   45.3988 H   0  0  0  0  0  0  0  0  0  0  0  0
  1  2  1  0
  2  3  1  0
  3  4  1  0
  4  5  1  0
  5  6  1  0
  6  7  1  0
  7  8  1  0
  8  9  1  0
  9 10  1  0
 10 11  1  0
 11 12  1  0
 12 13  1  0
 13 14  1  0
 14 15  2  0
 15 16  1  0
 16 17  2  0
 17 18  1  0
 17 19  1  0
 19 20  2  0
 20 21  1  0
 21 22  2  0
 22 23  1  0
 23 24  2  0
 16 25  1  0
 25 26  2  0
 26 27  1  0
 27 28  2  0
 28 29  1  0
 29 30  2  0
 30 31  1  0
 31 32  2  0
 32 33  1  0
 33 34  2  0
 33 35  1  0
 35 36  1  0
 24 14  1  0
 35 25  1  0
 36 15  1  0
 24 19  1  0
 32 27  1  0
  1 37  1  0
  1 38  1  0
  1 39  1  0
  2 40  1  0
  2 41  1  0
  3 42  1  0
  4 43  1  0
  4 44  1  0
  5 45  1  0
  5 46  1  0
  6 47  1  0
  6 48  1  0
  8 49  1  0
  8 50  1  0
  9 51  1  0
  9 52  1  0
 11 53  1  0
 11 54  1  0
 12 55  1  0
 12 56  1  0
 13 57  1  0
 18 58  1  0
 18 59  1  0
 18 60  1  0
 20 61  1  0
 21 62  1  0
 22 63  1  0
 23 64  1  0
 28 65  1  0
 29 66  1  0
 30 67  1  0
 31 68  1  0
 36 69  1  0
 36 70  1  0
M  CHG  1  17   1
M  END
>  <UniqueID>  (8) 
8

>  <SMILES>  (8) 
CCNCCCOCCOCCNc1c2c([n+](C)c3ccccc13)-c1nc3ccccc3c(=O)n1C2

>  <Energy>  (8) 
118.33495364488351

>  <Genealogy>  (8) 
CCNCCCOCCOCCNc1c2c([n+](C)c3ccccc13)-c1nc3ccccc3c(=O)n1C2 (3D coordinates assigned)
CCNCCCOCCOCCNc1c2c([n+](C)c3ccccc13)-c1nc3ccccc3c(=O)n1C2 (nonaromatic ring conformer: 118.33495364488351 kcal/mol)

>  <smiles>  (8) 
CCNCCCOCCOCCNc1c2c([n+](C)c3ccccc13)-c1nc3ccccc3c(=O)n1C2

>  <score_type>  (8) 
oracle

>  <origin>  (8) 
adg

>  <m_score__min__energy>  (8) 
-6.5499999999999998

>  <m_primary>  (8) 
energy

$$$$
8:0
     RDKit          3D

 66 69  0  0  0  0  0  0  0  0999 V2000
   55.9090   23.7020   43.7600 C   0  0  0  0  0  0  0  0  0  0  0  0
   55.5150   24.4330   45.0410 C   0  0  0  0  0  0  0  0  0  0  0  0
   56.5610   25.4100   45.4200 N   0  0  0  0  0  0  0  0  0  0  0  0
   56.9790   25.2280   46.8290 C   0  0  0  0  0  0  0  0  0  0  0  0
   56.2730   24.0190   47.4370 C   0  0  0  0  0  0  0  0  0  0  0  0
   57.7240   25.3270   44.5060 C   0  0  0  0  0  0  0  0  0  0  0  0
   58.1460   26.7290   44.0570 C   0  0  0  0  0  0  0  0  0  0  0  0
   57.3180   27.7490   44.6980 N   0  0  0  0  0  0  0  0  0  0  0  0
   57.8810   29.0120   45.0790 C   0  0  0  0  0  0  0  0  0  0  0  0
   57.7220   30.1350   44.2510 C   0  0  0  0  0  0  0  0  0  0  0  0
   57.0200   30.0390   43.0310 C   0  0  0  0  0  0  0  0  0  0  0  0
   56.9200   31.1370   42.1800 C   0  0  0  0  0  0  0  0  0  0  0  0
   57.5220   32.3400   42.5250 C   0  0  0  0  0  0  0  0  0  0  0  0
   58.1980   32.4670   43.7390 C   0  0  0  0  0  0  0  0  0  0  0  0
   58.2790   31.3800   44.6480 C   0  0  0  0  0  0  0  0  0  0  0  0
   58.8870   31.5060   45.8830 N   0  0  0  0  0  0  0  0  0  0  0  0
   59.1990   32.8500   46.4200 C   0  0  0  0  0  0  0  0  0  0  0  0
   59.1710   30.3790   46.6340 C   0  0  0  0  0  0  0  0  0  0  0  0
   59.9990   30.4340   47.7840 C   0  0  0  0  0  0  0  0  0  0  0  0
   60.2180   29.3110   48.5840 C   0  0  0  0  0  0  0  0  0  0  0  0
   60.9940   29.4670   49.7450 O   0  0  0  0  0  0  0  0  0  0  0  0
   61.0390   30.6320   50.5740 C   0  0  0  0  0  0  0  0  0  0  0  0
   62.3960   31.3410   50.4680 C   0  0  0  0  0  0  0  0  0  0  0  0
   62.4800   32.1750   49.2610 N   0  0  0  0  0  0  0  0  0  0  0  0
   63.4010   31.8760   48.2950 C   0  0  0  0  0  0  0  0  0  0  0  0
   63.5330   32.6860   47.1640 C   0  0  0  0  0  0  0  0  0  0  0  0
   62.7110   33.8030   47.0240 C   0  0  0  0  0  0  0  0  0  0  0  0
   61.7660   34.0940   48.0050 C   0  0  0  0  0  0  0  0  0  0  0  0
   61.6590   33.2610   49.1220 C   0  0  0  0  0  0  0  0  0  0  0  0
   59.6580   28.0820   48.2080 C   0  0  0  0  0  0  0  0  0  0  0  0
   58.8750   27.9890   47.0620 C   0  0  0  0  0  0  0  0  0  0  0  0
   58.6340   29.1210   46.2580 C   0  0  0  0  0  0  0  0  0  0  0  0
   56.4165   22.7604   44.0165 H   0  0  0  0  0  0  0  0  0  0  0  0
   55.0066   23.4833   43.1703 H   0  0  0  0  0  0  0  0  0  0  0  0
   56.5878   24.3356   43.1703 H   0  0  0  0  0  0  0  0  0  0  0  0
   54.5653   24.9636   44.8781 H   0  0  0  0  0  0  0  0  0  0  0  0
   55.4029   23.6977   45.8514 H   0  0  0  0  0  0  0  0  0  0  0  0
   58.0670   25.0707   46.8677 H   0  0  0  0  0  0  0  0  0  0  0  0
   56.7086   26.1270   47.4023 H   0  0  0  0  0  0  0  0  0  0  0  0
   56.3117   24.0853   48.5343 H   0  0  0  0  0  0  0  0  0  0  0  0
   55.2237   24.0031   47.1074 H   0  0  0  0  0  0  0  0  0  0  0  0
   56.7748   23.0973   47.1074 H   0  0  0  0  0  0  0  0  0  0  0  0
   58.5632   24.8451   45.0289 H   0  0  0  0  0  0  0  0  0  0  0  0
   57.4434   24.7365   43.6214 H   0  0  0  0  0  0  0  0  0  0  0  0
   59.1985   26.8941   44.3308 H   0  0  0  0  0  0  0  0  0  0  0  0
   58.0183   26.8042   42.9670 H   0  0  0  0  0  0  0  0  0  0  0  0
   56.3440   27.5300   45.0100 H   0  0  0  0  0  0  0  0  0  0  0  0
   56.5467   29.0870   42.7489 H   0  0  0  0  0  0  0  0  0  0  0  0
   56.3642   31.0513   41.2346 H   0  0  0  0  0  0  0  0  0  0  0  0
   57.4656   33.1970   41.8378 H   0  0  0  0  0  0  0  0  0  0  0  0
   58.6755   33.4242   43.9955 H   0  0  0  0  0  0  0  0  0  0  0  0
   59.1912   32.8164   47.5195 H   0  0  0  0  0  0  0  0  0  0  0  0
   60.1937   33.1630   46.0698 H   0  0  0  0  0  0  0  0  0  0  0  0
   58.4439   33.5692   46.0698 H   0  0  0  0  0  0  0  0  0  0  0  0
   60.4809   31.3857   48.0525 H   0  0  0  0  0  0  0  0  0  0  0  0
   60.2464   31.3266   50.2589 H   0  0  0  0  0  0  0  0  0  0  0  0
   60.8913   30.3202   51.6185 H   0  0  0  0  0  0  0  0  0  0  0  0
   62.5349   31.9794   51.3529 H   0  0  0  0  0  0  0  0  0  0  0  0
   63.1810   30.5726   50.4095 H   0  0  0  0  0  0  0  0  0  0  0  0
   64.0433   30.9903   48.4094 H   0  0  0  0  0  0  0  0  0  0  0  0
   64.2782   32.4445   46.3918 H   0  0  0  0  0  0  0  0  0  0  0  0
   62.8083   34.4526   46.1416 H   0  0  0  0  0  0  0  0  0  0  0  0
   61.1102   34.9711   47.9015 H   0  0  0  0  0  0  0  0  0  0  0  0
   60.9086   33.4801   49.8959 H   0  0  0  0  0  0  0  0  0  0  0  0
   59.8386   27.1873   48.8219 H   0  0  0  0  0  0  0  0  0  0  0  0
   58.4384   27.0196   46.7798 H   0  0  0  0  0  0  0  0  0  0  0  0
  1  2  1  0
  2  3  1  0
  3  4  1  0
  4  5  1  0
  3  6  1  0
  6  7  1  0
  7  8  1  0
  8  9  1  0
  9 10  2  0
 10 11  1  0
 11 12  2  0
 12 13  1  0
 13 14  2  0
 14 15  1  0
 15 16  2  0
 16 17  1  0
 16 18  1  0
 18 19  2  0
 19 20  1  0
 20 21  1  0
 21 22  1  0
 22 23  1  0
 23 24  1  0
 24 25  2  0
 25 26  1  0
 26 27  2  0
 27 28  1  0
 28 29  2  0
 20 30  2  0
 30 31  1  0
 31 32  2  0
 32  9  1  0
 15 10  1  0
 32 18  1  0
 29 24  1  0
  1 33  1  0
  1 34  1  0
  1 35  1  0
  2 36  1  0
  2 37  1  0
  4 38  1  0
  4 39  1  0
  5 40  1  0
  5 41  1  0
  5 42  1  0
  6 43  1  0
  6 44  1  0
  7 45  1  0
  7 46  1  0
  8 47  1  0
 11 48  1  0
 12 49  1  0
 13 50  1  0
 14 51  1  0
 17 52  1  0
 17 53  1  0
 17 54  1  0
 19 55  1  0
 22 56  1  0
 22 57  1  0
 23 58  1  0
 23 59  1  0
 25 60  1  0
 26 61  1  0
 27 62  1  0
 28 63  1  0
 29 64  1  0
 30 65  1  0
 31 66  1  0
M  CHG  2  16   1  24   1
M  END
>  <UniqueID>  (9) 
9

>  <SMILES>  (9) 
CCN(CC)CCNc1c2ccccc2[n+](C)c2cc(OCC[n+]3ccccc3)ccc12

>  <Energy>  (9) 
90.80608377760693

>  <Genealogy>  (9) 
CCN(CC)CCNc1c2ccccc2[n+](C)c2cc(OCC[n+]3ccccc3)ccc12 (3D coordinates assigned)
CCN(CC)CCNc1c2ccccc2[n+](C)c2cc(OCC[n+]3ccccc3)ccc12 (optimized conformer: 90.80608377760693 kcal/mol)

>  <smiles>  (9) 
CCN(CC)CCNc1c2ccccc2[n+](C)c2cc(OCC[n+]3ccccc3)ccc12

>  <score_type>  (9) 
oracle

>  <origin>  (9) 
adg

>  <m_score__min__energy>  (9) 
-4.8700000000000001

>  <m_primary>  (9) 
energy

$$$$
9:0
     RDKit          3D

 47 48  0  0  0  0  0  0  0  0999 V2000
   58.4490   29.7480   46.2680 C   0  0  0  0  0  0  0  0  0  0  0  0
   57.3340   29.1260   45.4330 C   0  0  0  0  0  0  0  0  0  0  0  0
   56.2950   30.0630   45.2220 O   0  0  0  0  0  0  0  0  0  0  0  0
   55.5710   29.7760   44.0390 C   0  0  0  0  0  0  0  0  0  0  0  0
   56.5040   29.8370   42.8210 C   0  0  0  0  0  0  0  0  0  0  0  0
   57.0410   31.2530   42.5780 C   0  0  0  0  0  0  0  0  0  0  0  0
   58.0160   31.6350   43.6110 N   0  0  0  0  0  0  0  0  0  0  0  0
   58.2000   33.0940   43.6660 C   0  0  0  0  0  0  0  0  0  0  0  0
   57.6640   33.6550   44.9940 C   0  0  1  0  0  0  0  0  0  0  0  0
   56.5550   32.9050   45.4170 O   0  0  0  0  0  0  0  0  0  0  0  0
   58.7260   33.6230   46.0720 C   0  0  0  0  0  0  0  0  0  0  0  0
   58.3610   33.5040   47.4210 C   0  0  0  0  0  0  0  0  0  0  0  0
   59.3320   33.4950   48.4240 C   0  0  0  0  0  0  0  0  0  0  0  0
   60.6970   33.6120   48.1000 C   0  0  0  0  0  0  0  0  0  0  0  0
   61.7020   33.6030   49.0960 C   0  0  0  0  0  0  0  0  0  0  0  0
   61.3030   33.4370   50.8090 Cl  0  0  0  0  0  0  0  0  0  0  0  0
   63.0550   33.7280   48.7370 C   0  0  0  0  0  0  0  0  0  0  0  0
   64.0260   33.7110   49.7520 O   0  0  0  0  0  0  0  0  0  0  0  0
   65.1680   32.8590   49.7660 C   0  0  0  0  0  0  0  0  0  0  0  0
   63.4040   33.8630   47.3810 C   0  0  0  0  0  0  0  0  0  0  0  0
   62.4200   33.8700   46.3940 C   0  0  0  0  0  0  0  0  0  0  0  0
   61.0690   33.7440   46.7390 C   0  0  0  0  0  0  0  0  0  0  0  0
   60.0840   33.7500   45.7390 C   0  0  0  0  0  0  0  0  0  0  0  0
   58.2213   29.6210   47.3366 H   0  0  0  0  0  0  0  0  0  0  0  0
   59.4024   29.2514   46.0347 H   0  0  0  0  0  0  0  0  0  0  0  0
   58.5273   30.8201   46.0347 H   0  0  0  0  0  0  0  0  0  0  0  0
   57.7415   28.8115   44.4609 H   0  0  0  0  0  0  0  0  0  0  0  0
   56.9273   28.2571   45.9711 H   0  0  0  0  0  0  0  0  0  0  0  0
   55.1362   28.7684   44.1141 H   0  0  0  0  0  0  0  0  0  0  0  0
   54.7709   30.5210   43.9171 H   0  0  0  0  0  0  0  0  0  0  0  0
   57.3537   29.1593   42.9904 H   0  0  0  0  0  0  0  0  0  0  0  0
   55.9255   29.5366   41.9349 H   0  0  0  0  0  0  0  0  0  0  0  0
   57.5293   31.2877   41.5929 H   0  0  0  0  0  0  0  0  0  0  0  0
   56.1972   31.9577   42.6168 H   0  0  0  0  0  0  0  0  0  0  0  0
   57.6330   31.3280   44.5350 H   0  0  0  0  0  0  0  0  0  0  0  0
   59.2716   33.3272   43.5808 H   0  0  0  0  0  0  0  0  0  0  0  0
   57.6445   33.5541   42.8355 H   0  0  0  0  0  0  0  0  0  0  0  0
   57.3682   34.7007   44.8235 H   0  0  0  0  0  0  0  0  0  0  0  0
   56.4580   32.1470   44.7810 H   0  0  0  0  0  0  0  0  0  0  0  0
   57.2984   33.4168   47.6916 H   0  0  0  0  0  0  0  0  0  0  0  0
   59.0279   33.3956   49.4765 H   0  0  0  0  0  0  0  0  0  0  0  0
   65.4537   32.6458   50.8066 H   0  0  0  0  0  0  0  0  0  0  0  0
   64.9289   31.9168   49.2511 H   0  0  0  0  0  0  0  0  0  0  0  0
   66.0030   33.3566   49.2511 H   0  0  0  0  0  0  0  0  0  0  0  0
   64.4620   33.9638   47.0974 H   0  0  0  0  0  0  0  0  0  0  0  0
   62.7067   33.9752   45.3372 H   0  0  0  0  0  0  0  0  0  0  0  0
   60.3788   33.8552   44.6845 H   0  0  0  0  0  0  0  0  0  0  0  0
  1  2  1  0
  2  3  1  0
  3  4  1  0
  4  5  1  0
  5  6  1  0
  6  7  1  0
  7  8  1  0
  8  9  1  0
  9 10  1  0
  9 11  1  0
 11 12  2  0
 12 13  1  0
 13 14  2  0
 14 15  1  0
 15 16  1  0
 15 17  2  0
 17 18  1  0
 18 19  1  0
 17 20  1  0
 20 21  2  0
 21 22  1  0
 22 23  2  0
 23 11  1  0
 22 14  1  0
  1 24  1  0
  1 25  1  0
  1 26  1  0
  2 27  1  0
  2 28  1  0
  4 29  1  0
  4 30  1  0
  5 31  1  0
  5 32  1  0
  6 33  1  0
  6 34  1  0
  7 35  1  0
  8 36  1  0
  8 37  1  0
  9 38  1  6
 10 39  1  0
 12 40  1  0
 13 41  1  0
 19 42  1  0
 19 43  1  0
 19 44  1  0
 20 45  1  0
 21 46  1  0
 23 47  1  0
M  END
>  <UniqueID>  (10) 
10

>  <SMILES>  (10) 
CCOCCCNC[C@@H](O)c1ccc2c(Cl)c(OC)ccc2c1

>  <Energy>  (10) 
46.80578968821645

>  <Genealogy>  (10) 
CCOCCCNC[C@@H](O)c1ccc2c(Cl)c(OC)ccc2c1 (chirality)
CCOCCCNC[C@@H](O)c1ccc2c(Cl)c(OC)ccc2c1 (3D coordinates assigned)
CCOCCCNC[C@@H](O)c1ccc2c(Cl)c(OC)ccc2c1 (optimized conformer: 46.80578968821645 kcal/mol)

>  <smiles>  (10) 
CCOCCCNCC(O)c1ccc2c(Cl)c(OC)ccc2c1

>  <score_type>  (10) 
oracle

>  <origin>  (10) 
adg

>  <m_score__min__energy>  (10) 
-7.7400000000000002

>  <m_primary>  (10) 
energy

$$$$
10:0
     RDKit          3D

 51 55  0  0  0  0  0  0  0  0999 V2000
   59.2590   24.9080   45.9950 C   0  0  0  0  0  0  0  0  0  0  0  0
   57.8490   25.2590   46.1660 N   0  0  0  0  0  0  0  0  0  0  0  0
   56.7980   24.4220   46.1630 C   0  0  0  0  0  0  0  0  0  0  0  0
   55.6380   25.0980   46.2970 N   0  0  0  0  0  0  0  0  0  0  0  0
   55.9420   26.3860   46.3850 N   0  0  0  0  0  0  0  0  0  0  0  0
   57.2870   26.4780   46.3180 C   0  0  0  0  0  0  0  0  0  0  0  0
   58.0130   27.7630   46.3350 C   0  0  0  0  0  0  0  0  0  0  0  0
   58.1460   28.4710   47.5390 C   0  0  0  0  0  0  0  0  0  0  0  0
   58.7940   29.7130   47.5610 C   0  0  0  0  0  0  0  0  0  0  0  0
   59.3380   30.2460   46.3830 C   0  0  0  0  0  0  0  0  0  0  0  0
   59.9380   31.5520   46.3880 N   0  0  0  0  0  0  0  0  0  0  0  0
   59.3920   32.7060   45.9170 C   0  0  0  0  0  0  0  0  0  0  0  0
   58.0480   32.8250   45.2450 C   0  0  0  0  0  0  0  0  0  0  0  0
   57.8370   31.7510   44.2520 N   0  0  0  0  0  0  0  0  0  0  0  0
   56.4930   31.1560   44.3650 C   0  0  0  0  0  0  0  0  0  0  0  0
   56.2950   30.0980   43.2640 C   0  0  0  0  0  0  0  0  0  0  0  0
   56.6330   30.5160   41.9430 O   0  0  0  0  0  0  0  0  0  0  0  0
   57.0260   31.8760   41.8650 C   0  0  0  0  0  0  0  0  0  0  0  0
   58.1400   32.2130   42.8750 C   0  0  0  0  0  0  0  0  0  0  0  0
   60.2580   33.7770   46.1210 C   0  0  0  0  0  0  0  0  0  0  0  0
   61.3590   33.2390   46.7490 C   0  0  0  0  0  0  0  0  0  0  0  0
   62.5360   33.8500   47.1800 C   0  0  0  0  0  0  0  0  0  0  0  0
   63.5130   33.0370   47.7810 C   0  0  0  0  0  0  0  0  0  0  0  0
   63.2940   31.6500   47.9350 C   0  0  0  0  0  0  0  0  0  0  0  0
   62.0970   31.0610   47.4870 C   0  0  0  0  0  0  0  0  0  0  0  0
   61.1380   31.8930   46.9020 C   0  0  0  0  0  0  0  0  0  0  0  0
   59.2480   29.5150   45.1880 C   0  0  0  0  0  0  0  0  0  0  0  0
   58.5880   28.2830   45.1620 C   0  0  0  0  0  0  0  0  0  0  0  0
   59.7300   24.7908   46.9821 H   0  0  0  0  0  0  0  0  0  0  0  0
   59.3366   23.9631   45.4372 H   0  0  0  0  0  0  0  0  0  0  0  0
   59.7705   25.7062   45.4372 H   0  0  0  0  0  0  0  0  0  0  0  0
   56.8733   23.3290   46.0643 H   0  0  0  0  0  0  0  0  0  0  0  0
   57.7396   28.0490   48.4700 H   0  0  0  0  0  0  0  0  0  0  0  0
   58.8764   30.2718   48.5049 H   0  0  0  0  0  0  0  0  0  0  0  0
   57.2601   32.7631   46.0101 H   0  0  0  0  0  0  0  0  0  0  0  0
   58.0115   33.7905   44.7192 H   0  0  0  0  0  0  0  0  0  0  0  0
   56.3861   30.6807   45.3512 H   0  0  0  0  0  0  0  0  0  0  0  0
   55.7360   31.9457   44.2493 H   0  0  0  0  0  0  0  0  0  0  0  0
   56.9193   29.2276   43.5142 H   0  0  0  0  0  0  0  0  0  0  0  0
   55.2170   29.8798   43.2452 H   0  0  0  0  0  0  0  0  0  0  0  0
   57.3935   32.0819   40.8489 H   0  0  0  0  0  0  0  0  0  0  0  0
   56.1504   32.4973   42.1045 H   0  0  0  0  0  0  0  0  0  0  0  0
   59.0717   31.7325   42.5417 H   0  0  0  0  0  0  0  0  0  0  0  0
   58.2308   33.3087   42.9094 H   0  0  0  0  0  0  0  0  0  0  0  0
   60.0970   34.8284   45.8404 H   0  0  0  0  0  0  0  0  0  0  0  0
   62.6947   34.9312   47.0541 H   0  0  0  0  0  0  0  0  0  0  0  0
   64.4542   33.4840   48.1336 H   0  0  0  0  0  0  0  0  0  0  0  0
   64.0654   31.0252   48.4090 H   0  0  0  0  0  0  0  0  0  0  0  0
   61.9216   29.9803   47.5938 H   0  0  0  0  0  0  0  0  0  0  0  0
   59.6991   29.9137   44.2674 H   0  0  0  0  0  0  0  0  0  0  0  0
   58.5182   27.7184   44.2205 H   0  0  0  0  0  0  0  0  0  0  0  0
  1  2  1  0
  2  3  1  0
  3  4  2  0
  4  5  1  0
  5  6  2  0
  6  7  1  0
  7  8  2  0
  8  9  1  0
  9 10  2  0
 10 11  1  0
 11 12  1  0
 12 13  1  0
 13 14  1  0
 14 15  1  0
 15 16  1  0
 16 17  1  0
 17 18  1  0
 18 19  1  0
 12 20  2  0
 20 21  1  0
 21 22  2  0
 22 23  1  0
 23 24  2  0
 24 25  1  0
 25 26  2  0
 10 27  1  0
 27 28  2  0
  6  2  1  0
 28  7  1  0
 26 11  1  0
 19 14  1  0
 26 21  1  0
  1 29  1  0
  1 30  1  0
  1 31  1  0
  3 32  1  0
  8 33  1  0
  9 34  1  0
 13 35  1  0
 13 36  1  0
 15 37  1  0
 15 38  1  0
 16 39  1  0
 16 40  1  0
 18 41  1  0
 18 42  1  0
 19 43  1  0
 19 44  1  0
 20 45  1  0
 22 46  1  0
 23 47  1  0
 24 48  1  0
 25 49  1  0
 27 50  1  0
 28 51  1  0
M  END
>  <UniqueID>  (11) 
11

>  <SMILES>  (11) 
Cn1cnnc1-c1ccc(-n2c(CN3CCOCC3)cc3ccccc32)cc1

>  <Energy>  (11) 
145.84622401863456

>  <Genealogy>  (11) 
Cn1cnnc1-c1ccc(-n2c(CN3CCOCC3)cc3ccccc32)cc1 (3D coordinates assigned)
Cn1cnnc1-c1ccc(-n2c(CN3CCOCC3)cc3ccccc32)cc1 (nonaromatic ring conformer: 145.84622401863456 kcal/mol)

>  <smiles>  (11) 
Cn1cnnc1-c1ccc(-n2c(CN3CCOCC3)cc3ccccc32)cc1

>  <score_type>  (11) 
oracle

>  <origin>  (11) 
adg

>  <m_score__min__energy>  (11) 
-8.7899999999999991

>  <m_primary>  (11) 
energy

$$$$
11:0
     RDKit          3D

 54 56  0  0  0  0  0  0  0  0999 V2000
   58.8560   34.4070   46.2970 C   0  0  0  0  0  0  0  0  0  0  0  0
   57.5370   33.6610   46.0740 C   0  0  0  0  0  0  0  0  0  0  0  0
   57.7370   32.2240   45.8190 N   0  0  0  0  0  0  0  0  0  0  0  0
   57.5740   31.8880   44.3990 C   0  0  0  0  0  0  0  0  0  0  0  0
   56.8190   30.5660   44.2410 C   0  0  0  0  0  0  0  0  0  0  0  0
   57.5400   29.3980   44.9190 C   0  0  0  0  0  0  0  0  0  0  0  0
   57.6330   29.6160   46.3180 O   0  0  0  0  0  0  0  0  0  0  0  0
   58.6500   28.8160   46.8870 C   0  0  0  0  0  0  0  0  0  0  0  0
   59.5800   29.6820   47.7470 C   0  0  0  0  0  0  0  0  0  0  0  0
   59.2800   31.1250   47.6750 N   0  0  0  0  0  0  0  0  0  0  0  0
   59.9770   31.8980   48.6980 C   0  0  0  0  0  0  0  0  0  0  0  0
   61.2220   32.5220   48.3950 C   0  0  0  0  0  0  0  0  0  0  0  0
   61.8100   32.4310   47.1050 C   0  0  0  0  0  0  0  0  0  0  0  0
   63.0060   33.0790   46.8090 C   0  0  0  0  0  0  0  0  0  0  0  0
   63.6420   33.8440   47.7740 C   0  0  0  0  0  0  0  0  0  0  0  0
   63.0990   33.9440   49.0510 C   0  0  0  0  0  0  0  0  0  0  0  0
   61.9030   33.2630   49.4010 C   0  0  0  0  0  0  0  0  0  0  0  0
   61.3970   33.3280   50.6800 N   0  0  0  0  0  0  0  0  0  0  0  0
   62.2530   33.8120   51.7890 C   0  0  0  0  0  0  0  0  0  0  0  0
   60.1100   32.9090   50.9380 C   0  0  0  0  0  0  0  0  0  0  0  0
   59.4650   33.2430   52.1560 C   0  0  0  0  0  0  0  0  0  0  0  0
   58.2120   32.7320   52.4760 C   0  0  0  0  0  0  0  0  0  0  0  0
   57.5660   31.8810   51.5930 C   0  0  0  0  0  0  0  0  0  0  0  0
   56.0110   31.1930   52.0270 Cl  0  0  0  0  0  0  0  0  0  0  0  0
   58.1450   31.5770   50.3620 C   0  0  0  0  0  0  0  0  0  0  0  0
   59.4020   32.1200   49.9840 C   0  0  0  0  0  0  0  0  0  0  0  0
   59.0403   34.5113   47.3764 H   0  0  0  0  0  0  0  0  0  0  0  0
   59.6796   33.8410   45.8374 H   0  0  0  0  0  0  0  0  0  0  0  0
   58.7953   35.4045   45.8374 H   0  0  0  0  0  0  0  0  0  0  0  0
   56.9107   33.7762   46.9710 H   0  0  0  0  0  0  0  0  0  0  0  0
   57.0547   34.0939   45.1852 H   0  0  0  0  0  0  0  0  0  0  0  0
   57.0440   31.6760   46.3820 H   0  0  0  0  0  0  0  0  0  0  0  0
   57.0083   32.6891   43.9007 H   0  0  0  0  0  0  0  0  0  0  0  0
   58.5695   31.7843   43.9428 H   0  0  0  0  0  0  0  0  0  0  0  0
   55.8206   30.6735   44.6900 H   0  0  0  0  0  0  0  0  0  0  0  0
   56.7553   30.3424   43.1659 H   0  0  0  0  0  0  0  0  0  0  0  0
   56.9793   28.4699   44.7338 H   0  0  0  0  0  0  0  0  0  0  0  0
   58.5552   29.3172   44.5033 H   0  0  0  0  0  0  0  0  0  0  0  0
   58.1924   28.0379   47.5156 H   0  0  0  0  0  0  0  0  0  0  0  0
   59.2349   28.3487   46.0811 H   0  0  0  0  0  0  0  0  0  0  0  0
   59.4853   29.3593   48.7943 H   0  0  0  0  0  0  0  0  0  0  0  0
   60.5993   29.5453   47.3567 H   0  0  0  0  0  0  0  0  0  0  0  0
   59.5510   31.4820   46.7320 H   0  0  0  0  0  0  0  0  0  0  0  0
   58.2510   31.2710   47.6600 H   0  0  0  0  0  0  0  0  0  0  0  0
   61.3107   31.8372   46.3252 H   0  0  0  0  0  0  0  0  0  0  0  0
   63.4477   32.9836   45.8061 H   0  0  0  0  0  0  0  0  0  0  0  0
   64.5758   34.3719   47.5303 H   0  0  0  0  0  0  0  0  0  0  0  0
   63.6066   34.5634   49.8051 H   0  0  0  0  0  0  0  0  0  0  0  0
   61.7893   33.5498   52.7514 H   0  0  0  0  0  0  0  0  0  0  0  0
   63.2446   33.3409   51.7193 H   0  0  0  0  0  0  0  0  0  0  0  0
   62.3604   34.9045   51.7193 H   0  0  0  0  0  0  0  0  0  0  0  0
   59.9665   33.9207   52.8626 H   0  0  0  0  0  0  0  0  0  0  0  0
   57.7339   33.0028   53.4289 H   0  0  0  0  0  0  0  0  0  0  0  0
   57.6183   30.9036   49.6699 H   0  0  0  0  0  0  0  0  0  0  0  0
  1  2  1  0
  2  3  1  0
  3  4  1  0
  4  5  1  0
  5  6  1  0
  6  7  1  0
  7  8  1  0
  8  9  1  0
  9 10  1  0
 10 11  1  0
 11 12  2  0
 12 13  1  0
 13 14  2  0
 14 15  1  0
 15 16  2  0
 16 17  1  0
 17 18  2  0
 18 19  1  0
 18 20  1  0
 20 21  2  0
 21 22  1  0
 22 23  2  0
 23 24  1  0
 23 25  1  0
 25 26  2  0
 26 11  1  0
 17 12  1  0
 26 20  1  0
  1 27  1  0
  1 28  1  0
  1 29  1  0
  2 30  1  0
  2 31  1  0
  3 32  1  0
  4 33  1  0
  4 34  1  0
  5 35  1  0
  5 36  1  0
  6 37  1  0
  6 38  1  0
  8 39  1  0
  8 40  1  0
  9 41  1  0
  9 42  1  0
 10 43  1  0
 10 44  1  0
 13 45  1  0
 14 46  1  0
 15 47  1  0
 16 48  1  0
 19 49  1  0
 19 50  1  0
 19 51  1  0
 21 52  1  0
 22 53  1  0
 25 54  1  0
M  CHG  2  10   1  18   1
M  END
>  <UniqueID>  (12) 
12

>  <SMILES>  (12) 
CCNCCCOCC[NH2+]c1c2ccccc2[n+](C)c2ccc(Cl)cc12

>  <Energy>  (12) 
76.47976969538117

>  <Genealogy>  (12) 
CCNCCCOCC[NH2+]c1c2ccccc2[n+](C)c2ccc(Cl)cc12 (protonated)
CCNCCCOCC[NH2+]c1c2ccccc2[n+](C)c2ccc(Cl)cc12 (3D coordinates assigned)
CCNCCCOCC[NH2+]c1c2ccccc2[n+](C)c2ccc(Cl)cc12 (optimized conformer: 76.47976969538117 kcal/mol)

>  <smiles>  (12) 
CCNCCCOCCNc1c2ccccc2[n+](C)c2ccc(Cl)cc12

>  <score_type>  (12) 
oracle

>  <origin>  (12) 
adg

>  <m_score__min__energy>  (12) 
-4.9900000000000002

>  <m_primary>  (12) 
energy

$$$$
13:0
     RDKit          3D

 46 49  0  0  0  0  0  0  0  0999 V2000
   58.7090   27.4730   44.8870 C   0  0  0  0  0  0  0  0  0  0  0  0
   58.6960   28.7740   45.6310 C   0  0  0  0  0  0  0  0  0  0  0  0
   59.2880   29.0340   46.8490 C   0  0  0  0  0  0  0  0  0  0  0  0
   59.1100   30.3640   47.0640 C   0  0  0  0  0  0  0  0  0  0  0  0
   58.4670   30.9270   46.0230 N   0  0  0  0  0  0  0  0  0  0  0  0
   58.2180   29.9510   45.1570 N   0  0  0  0  0  0  0  0  0  0  0  0
   57.5560   30.1680   43.8760 C   0  0  0  0  0  0  0  0  0  0  0  0
   59.6970   31.0540   48.2680 C   0  0  2  0  0  0  0  0  0  0  0  0
   60.9850   31.8380   48.0030 C   0  0  0  0  0  0  0  0  0  0  0  0
   62.0770   31.2270   47.3460 C   0  0  0  0  0  0  0  0  0  0  0  0
   63.2700   31.9170   47.1390 C   0  0  0  0  0  0  0  0  0  0  0  0
   63.4120   33.2200   47.6000 C   0  0  0  0  0  0  0  0  0  0  0  0
   62.3620   33.8420   48.2700 C   0  0  0  0  0  0  0  0  0  0  0  0
   61.1350   33.1770   48.4680 C   0  0  0  0  0  0  0  0  0  0  0  0
   60.0600   33.8990   49.2600 C   0  0  0  0  0  0  0  0  0  0  0  0
   59.2850   34.7590   48.4220 O   0  0  0  0  0  0  0  0  0  0  0  0
   58.9010   34.4710   47.1030 C   0  0  0  0  0  0  0  0  0  0  0  0
   57.6720   33.8320   46.8950 C   0  0  0  0  0  0  0  0  0  0  0  0
   57.2400   33.5270   45.6000 C   0  0  0  0  0  0  0  0  0  0  0  0
   58.0360   33.8590   44.5020 C   0  0  0  0  0  0  0  0  0  0  0  0
   59.2640   34.4960   44.6950 C   0  0  0  0  0  0  0  0  0  0  0  0
   59.6990   34.8010   45.9890 C   0  0  0  0  0  0  0  0  0  0  0  0
   59.8800   30.1150   49.3350 O   0  0  0  0  0  0  0  0  0  0  0  0
   60.6670   28.9820   48.9550 C   0  0  0  0  0  0  0  0  0  0  0  0
   60.0560   28.2360   47.7930 C   0  0  0  0  0  0  0  0  0  0  0  0
   60.2640   27.0060   47.6150 O   0  0  0  0  0  0  0  0  0  0  0  0
   58.7173   26.6399   45.6053 H   0  0  0  0  0  0  0  0  0  0  0  0
   57.8115   27.4031   44.2548 H   0  0  0  0  0  0  0  0  0  0  0  0
   59.6077   27.4211   44.2548 H   0  0  0  0  0  0  0  0  0  0  0  0
   56.5238   30.5064   44.0494 H   0  0  0  0  0  0  0  0  0  0  0  0
   58.1022   30.9341   43.3061 H   0  0  0  0  0  0  0  0  0  0  0  0
   57.5427   29.2272   43.3061 H   0  0  0  0  0  0  0  0  0  0  0  0
   58.9605   31.8181   48.5573 H   0  0  0  0  0  0  0  0  0  0  0  0
   61.9837   30.1896   46.9922 H   0  0  0  0  0  0  0  0  0  0  0  0
   64.1013   31.4288   46.6093 H   0  0  0  0  0  0  0  0  0  0  0  0
   64.3555   33.7610   47.4353 H   0  0  0  0  0  0  0  0  0  0  0  0
   62.4916   34.8661   48.6500 H   0  0  0  0  0  0  0  0  0  0  0  0
   59.3948   33.1546   49.7219 H   0  0  0  0  0  0  0  0  0  0  0  0
   60.5503   34.5142   50.0289 H   0  0  0  0  0  0  0  0  0  0  0  0
   57.0416   33.5679   47.7569 H   0  0  0  0  0  0  0  0  0  0  0  0
   56.2730   33.0255   45.4467 H   0  0  0  0  0  0  0  0  0  0  0  0
   57.6957   33.6187   43.4839 H   0  0  0  0  0  0  0  0  0  0  0  0
   59.8894   34.7580   43.8288 H   0  0  0  0  0  0  0  0  0  0  0  0
   60.6677   35.3004   46.1378 H   0  0  0  0  0  0  0  0  0  0  0  0
   61.6712   29.3269   48.6676 H   0  0  0  0  0  0  0  0  0  0  0  0
   60.7138   28.2961   49.8137 H   0  0  0  0  0  0  0  0  0  0  0  0
  1  2  1  0
  2  3  2  0
  3  4  1  0
  4  5  2  0
  5  6  1  0
  6  7  1  0
  4  8  1  0
  8  9  1  0
  9 10  2  0
 10 11  1  0
 11 12  2  0
 12 13  1  0
 13 14  2  0
 14 15  1  0
 15 16  1  0
 16 17  1  0
 17 18  2  0
 18 19  1  0
 19 20  2  0
 20 21  1  0
 21 22  2  0
  8 23  1  0
 23 24  1  0
 24 25  1  0
 25 26  2  0
  6  2  1  0
 14  9  1  0
 22 17  1  0
 25  3  1  0
  1 27  1  0
  1 28  1  0
  1 29  1  0
  7 30  1  0
  7 31  1  0
  7 32  1  0
  8 33  1  1
 10 34  1  0
 11 35  1  0
 12 36  1  0
 13 37  1  0
 15 38  1  0
 15 39  1  0
 18 40  1  0
 19 41  1  0
 20 42  1  0
 21 43  1  0
 22 44  1  0
 24 45  1  0
 24 46  1  0
M  END
>  <UniqueID>  (13) 
13

>  <SMILES>  (13) 
Cc1c2c(nn1C)[C@H](c1ccccc1COc1ccccc1)OCC2=O

>  <Energy>  (13) 
96.47777215432575

>  <Genealogy>  (13) 
Cc1c2c(nn1C)[C@H](c1ccccc1COc1ccccc1)OCC2=O (chirality)
Cc1c2c(nn1C)[C@H](c1ccccc1COc1ccccc1)OCC2=O (3D coordinates assigned)
Cc1c2c(nn1C)[C@H](c1ccccc1COc1ccccc1)OCC2=O (nonaromatic ring conformer: 96.47777215432575 kcal/mol)

>  <smiles>  (13) 
Cc1c2c(nn1C)C(c1ccccc1COc1ccccc1)OCC2=O

>  <score_type>  (13) 
oracle

>  <origin>  (13) 
adg

>  <m_score__min__energy>  (13) 
-8.0199999999999996

>  <m_primary>  (13) 
energy

$$$$
14:0
     RDKit          3D

 47 48  0  0  0  0  0  0  0  0999 V2000
   62.9320   33.8520   46.4500 C   0  0  0  0  0  0  0  0  0  0  0  0
   63.7550   32.7400   47.0830 C   0  0  0  0  0  0  0  0  0  0  0  0
   63.2220   32.4400   48.3540 O   0  0  0  0  0  0  0  0  0  0  0  0
   63.8080   33.2800   49.3290 C   0  0  0  0  0  0  0  0  0  0  0  0
   62.7070   34.0430   50.0680 C   0  0  0  0  0  0  0  0  0  0  0  0
   61.4580   33.9390   49.4070 O   0  0  0  0  0  0  0  0  0  0  0  0
   60.5020   33.2150   50.1660 C   0  0  0  0  0  0  0  0  0  0  0  0
   60.1660   31.8700   49.4970 C   0  0  0  0  0  0  0  0  0  0  0  0
   60.8290   31.7250   48.1880 N   0  0  0  0  0  0  0  0  0  0  0  0
   59.9690   31.3140   47.0830 C   0  0  0  0  0  0  0  0  0  0  0  0
   59.8320   29.9660   46.7000 C   0  0  0  0  0  0  0  0  0  0  0  0
   59.0370   29.6140   45.6180 C   0  0  0  0  0  0  0  0  0  0  0  0
   58.3460   30.5500   44.9030 N   0  0  0  0  0  0  0  0  0  0  0  0
   57.5410   30.0610   43.7640 C   0  0  0  0  0  0  0  0  0  0  0  0
   56.0580   30.0250   44.1270 C   0  0  0  0  0  0  0  0  0  0  0  0
   58.4400   31.8870   45.2380 C   0  0  0  0  0  0  0  0  0  0  0  0
   57.7630   32.8900   44.4980 C   0  0  0  0  0  0  0  0  0  0  0  0
   57.8450   34.2320   44.8640 C   0  0  0  0  0  0  0  0  0  0  0  0
   58.5970   34.6110   45.9680 C   0  0  0  0  0  0  0  0  0  0  0  0
   59.2870   33.6560   46.7080 C   0  0  0  0  0  0  0  0  0  0  0  0
   59.2370   32.2880   46.3540 C   0  0  0  0  0  0  0  0  0  0  0  0
   62.4769   34.4668   47.2405 H   0  0  0  0  0  0  0  0  0  0  0  0
   63.5839   34.4809   45.8259 H   0  0  0  0  0  0  0  0  0  0  0  0
   62.1401   33.4123   45.8259 H   0  0  0  0  0  0  0  0  0  0  0  0
   63.7159   31.8441   46.4460 H   0  0  0  0  0  0  0  0  0  0  0  0
   64.8009   33.0647   47.1861 H   0  0  0  0  0  0  0  0  0  0  0  0
   64.3765   32.6695   50.0460 H   0  0  0  0  0  0  0  0  0  0  0  0
   64.4862   33.9945   48.8396 H   0  0  0  0  0  0  0  0  0  0  0  0
   62.6079   33.6304   51.0828 H   0  0  0  0  0  0  0  0  0  0  0  0
   62.9896   35.1056   50.0982 H   0  0  0  0  0  0  0  0  0  0  0  0
   60.9097   33.0249   51.1698 H   0  0  0  0  0  0  0  0  0  0  0  0
   59.5810   33.8131   50.2294 H   0  0  0  0  0  0  0  0  0  0  0  0
   60.4967   31.0532   50.1553 H   0  0  0  0  0  0  0  0  0  0  0  0
   59.0788   31.8331   49.3339 H   0  0  0  0  0  0  0  0  0  0  0  0
   61.5710   30.9940   48.2900 H   0  0  0  0  0  0  0  0  0  0  0  0
   61.2730   32.6400   47.9390 H   0  0  0  0  0  0  0  0  0  0  0  0
   60.3606   29.1836   47.2642 H   0  0  0  0  0  0  0  0  0  0  0  0
   58.9617   28.5552   45.3294 H   0  0  0  0  0  0  0  0  0  0  0  0
   57.6862   30.7322   42.9047 H   0  0  0  0  0  0  0  0  0  0  0  0
   57.8681   29.0415   43.5116 H   0  0  0  0  0  0  0  0  0  0  0  0
   55.9484   30.0223   45.2215 H   0  0  0  0  0  0  0  0  0  0  0  0
   55.5569   30.9112   43.7105 H   0  0  0  0  0  0  0  0  0  0  0  0
   55.6005   29.1155   43.7105 H   0  0  0  0  0  0  0  0  0  0  0  0
   57.1636   32.6038   43.6211 H   0  0  0  0  0  0  0  0  0  0  0  0
   57.3121   34.9939   44.2762 H   0  0  0  0  0  0  0  0  0  0  0  0
   58.6474   35.6707   46.2587 H   0  0  0  0  0  0  0  0  0  0  0  0
   59.8794   33.9694   47.5802 H   0  0  0  0  0  0  0  0  0  0  0  0
  1  2  1  0
  2  3  1  0
  3  4  1  0
  4  5  1  0
  5  6  1  0
  6  7  1  0
  7  8  1  0
  8  9  1  0
  9 10  1  0
 10 11  2  0
 11 12  1  0
 12 13  2  0
 13 14  1  0
 14 15  1  0
 13 16  1  0
 16 17  2  0
 17 18  1  0
 18 19  2  0
 19 20  1  0
 20 21  2  0
 21 10  1  0
 21 16  1  0
  1 22  1  0
  1 23  1  0
  1 24  1  0
  2 25  1  0
  2 26  1  0
  4 27  1  0
  4 28  1  0
  5 29  1  0
  5 30  1  0
  7 31  1  0
  7 32  1  0
  8 33  1  0
  8 34  1  0
  9 35  1  0
  9 36  1  0
 11 37  1  0
 12 38  1  0
 14 39  1  0
 14 40  1  0
 15 41  1  0
 15 42  1  0
 15 43  1  0
 17 44  1  0
 18 45  1  0
 19 46  1  0
 20 47  1  0
M  CHG  2   9   1  13   1
M  END
>  <UniqueID>  (14) 
14

>  <SMILES>  (14) 
CCOCCOCC[NH2+]c1cc[n+](CC)c2ccccc12

>  <Energy>  (14) 
57.82710157894765

>  <Genealogy>  (14) 
CCOCCOCC[NH2+]c1cc[n+](CC)c2ccccc12 (protonated)
CCOCCOCC[NH2+]c1cc[n+](CC)c2ccccc12 (3D coordinates assigned)
CCOCCOCC[NH2+]c1cc[n+](CC)c2ccccc12 (optimized conformer: 57.82710157894765 kcal/mol)

>  <smiles>  (14) 
CCOCCOCCNc1cc[n+](CC)c2ccccc12

>  <score_type>  (14) 
oracle

>  <origin>  (14) 
adg

>  <m_score__min__energy>  (14) 
-3.0299999999999998

>  <m_primary>  (14) 
energy

$$$$
15:0
     RDKit          3D

 62 64  0  0  0  0  0  0  0  0999 V2000
   63.4480   33.4850   46.7250 C   0  0  0  0  0  0  0  0  0  0  0  0
   63.2590   32.3220   47.6900 C   0  0  0  0  0  0  0  0  0  0  0  0
   62.6720   32.8060   48.9460 N   0  0  0  0  0  0  0  0  0  0  0  0
   63.4980   33.8430   49.5850 C   0  0  0  0  0  0  0  0  0  0  0  0
   63.8240   33.5150   51.0520 C   0  0  0  0  0  0  0  0  0  0  0  0
   62.5570   33.5620   51.9160 C   0  0  0  0  0  0  0  0  0  0  0  0
   61.6040   32.5040   51.5410 N   0  0  0  0  0  0  0  0  0  0  0  0
   60.2490   32.6790   52.0980 C   0  0  0  0  0  0  0  0  0  0  0  0
   59.1300   32.1740   51.1580 C   0  0  0  0  0  0  0  0  0  0  0  0
   59.0640   32.9890   49.8530 C   0  0  0  0  0  0  0  0  0  0  0  0
   60.1510   32.6680   48.9070 N   0  0  0  0  0  0  0  0  0  0  0  0
   59.7100   31.7720   47.8420 C   0  0  0  0  0  0  0  0  0  0  0  0
   58.9880   32.3200   46.7350 C   0  0  0  0  0  0  0  0  0  0  0  0
   58.6550   33.7000   46.6590 C   0  0  0  0  0  0  0  0  0  0  0  0
   57.9250   34.2140   45.5910 C   0  0  0  0  0  0  0  0  0  0  0  0
   57.4990   33.3790   44.5730 C   0  0  0  0  0  0  0  0  0  0  0  0
   57.8140   32.0270   44.6090 C   0  0  0  0  0  0  0  0  0  0  0  0
   58.5830   31.4750   45.6680 C   0  0  0  0  0  0  0  0  0  0  0  0
   58.9100   30.1410   45.6790 N   0  0  0  0  0  0  0  0  0  0  0  0
   58.7820   29.3390   44.4390 C   0  0  0  0  0  0  0  0  0  0  0  0
   59.3830   29.5510   46.8300 C   0  0  0  0  0  0  0  0  0  0  0  0
   59.3420   28.1440   46.9710 C   0  0  0  0  0  0  0  0  0  0  0  0
   59.9010   27.5120   48.0640 C   0  0  0  0  0  0  0  0  0  0  0  0
   60.5520   28.2520   49.0300 C   0  0  0  0  0  0  0  0  0  0  0  0
   60.6040   29.6560   48.9580 C   0  0  0  0  0  0  0  0  0  0  0  0
   61.3750   30.3490   49.9040 O   0  0  0  0  0  0  0  0  0  0  0  0
   62.2570   29.7630   50.8560 C   0  0  0  0  0  0  0  0  0  0  0  0
   59.9110   30.3450   47.8980 C   0  0  0  0  0  0  0  0  0  0  0  0
   63.5989   34.4136   47.2950 H   0  0  0  0  0  0  0  0  0  0  0  0
   64.3273   33.2966   46.0915 H   0  0  0  0  0  0  0  0  0  0  0  0
   62.5543   33.5848   46.0915 H   0  0  0  0  0  0  0  0  0  0  0  0
   62.5882   31.5772   47.2369 H   0  0  0  0  0  0  0  0  0  0  0  0
   64.2362   31.8627   47.8999 H   0  0  0  0  0  0  0  0  0  0  0  0
   62.5570   31.9980   49.6050 H   0  0  0  0  0  0  0  0  0  0  0  0
   64.4410   33.9367   49.0265 H   0  0  0  0  0  0  0  0  0  0  0  0
   62.9252   34.7820   49.5717 H   0  0  0  0  0  0  0  0  0  0  0  0
   64.2610   32.5071   51.1075 H   0  0  0  0  0  0  0  0  0  0  0  0
   64.5364   34.2629   51.4303 H   0  0  0  0  0  0  0  0  0  0  0  0
   62.8395   33.4301   52.9709 H   0  0  0  0  0  0  0  0  0  0  0  0
   62.0694   34.5353   51.7579 H   0  0  0  0  0  0  0  0  0  0  0  0
   61.5310   32.4820   50.4970 H   0  0  0  0  0  0  0  0  0  0  0  0
   60.1866   32.1229   53.0450 H   0  0  0  0  0  0  0  0  0  0  0  0
   60.0924   33.7586   52.2394 H   0  0  0  0  0  0  0  0  0  0  0  0
   59.3232   31.1200   50.9095 H   0  0  0  0  0  0  0  0  0  0  0  0
   58.1688   32.2889   51.6803 H   0  0  0  0  0  0  0  0  0  0  0  0
   58.1016   32.7833   49.3615 H   0  0  0  0  0  0  0  0  0  0  0  0
   59.1727   34.0491   50.1257 H   0  0  0  0  0  0  0  0  0  0  0  0
   60.6350   33.5240   48.5850 H   0  0  0  0  0  0  0  0  0  0  0  0
   60.9310   32.2160   49.4330 H   0  0  0  0  0  0  0  0  0  0  0  0
   58.9816   34.3769   47.4623 H   0  0  0  0  0  0  0  0  0  0  0  0
   57.6860   35.2872   45.5561 H   0  0  0  0  0  0  0  0  0  0  0  0
   56.9117   33.7856   43.7365 H   0  0  0  0  0  0  0  0  0  0  0  0
   57.4607   31.3699   43.8007 H   0  0  0  0  0  0  0  0  0  0  0  0
   58.6136   28.2839   44.7005 H   0  0  0  0  0  0  0  0  0  0  0  0
   57.9318   29.7105   43.8482 H   0  0  0  0  0  0  0  0  0  0  0  0
   59.7056   29.4274   43.8482 H   0  0  0  0  0  0  0  0  0  0  0  0
   58.8537   27.5397   46.1923 H   0  0  0  0  0  0  0  0  0  0  0  0
   59.8275   26.4191   48.1647 H   0  0  0  0  0  0  0  0  0  0  0  0
   61.0384   27.7353   49.8705 H   0  0  0  0  0  0  0  0  0  0  0  0
   61.9066   29.9958   51.8724 H   0  0  0  0  0  0  0  0  0  0  0  0
   62.2758   28.6722   50.7155 H   0  0  0  0  0  0  0  0  0  0  0  0
   63.2699   30.1683   50.7155 H   0  0  0  0  0  0  0  0  0  0  0  0
  1  2  1  0
  2  3  1  0
  3  4  1  0
  4  5  1  0
  5  6  1  0
  6  7  1  0
  7  8  1  0
  8  9  1  0
  9 10  1  0
 10 11  1  0
 11 12  1  0
 12 13  2  0
 13 14  1  0
 14 15  2  0
 15 16  1  0
 16 17  2  0
 17 18  1  0
 18 19  2  0
 19 20  1  0
 19 21  1  0
 21 22  2  0
 22 23  1  0
 23 24  2  0
 24 25  1  0
 25 26  1  0
 26 27  1  0
 25 28  2  0
 28 12  1  0
 18 13  1  0
 28 21  1  0
  1 29  1  0
  1 30  1  0
  1 31  1  0
  2 32  1  0
  2 33  1  0
  3 34  1  0
  4 35  1  0
  4 36  1  0
  5 37  1  0
  5 38  1  0
  6 39  1  0
  6 40  1  0
  7 41  1  0
  8 42  1  0
  8 43  1  0
  9 44  1  0
  9 45  1  0
 10 46  1  0
 10 47  1  0
 11 48  1  0
 11 49  1  0
 14 50  1  0
 15 51  1  0
 16 52  1  0
 17 53  1  0
 20 54  1  0
 20 55  1  0
 20 56  1  0
 22 57  1  0
 23 58  1  0
 24 59  1  0
 27 60  1  0
 27 61  1  0
 27 62  1  0
M  CHG  2  11   1  19   1
M  END
>  <UniqueID>  (15) 
15

>  <SMILES>  (15) 
CCNCCCNCCC[NH2+]c1c2ccccc2[n+](C)c2cccc(OC)c12

>  <Energy>  (15) 
93.96715618454036

>  <Genealogy>  (15) 
CCNCCCNCCC[NH2+]c1c2ccccc2[n+](C)c2cccc(OC)c12 (protonated)
CCNCCCNCCC[NH2+]c1c2ccccc2[n+](C)c2cccc(OC)c12 (3D coordinates assigned)
CCNCCCNCCC[NH2+]c1c2ccccc2[n+](C)c2cccc(OC)c12 (optimized conformer: 93.96715618454036 kcal/mol)

>  <smiles>  (15) 
CCNCCCNCCCNc1c2ccccc2[n+](C)c2cccc(OC)c12

>  <score_type>  (15) 
oracle

>  <origin>  (15) 
adg

>  <m_score__min__energy>  (15) 
-2.5099999999999998

>  <m_primary>  (15) 
energy

$$$$
16:0
     RDKit          3D

 73 76  0  0  0  0  0  0  0  0999 V2000
   57.7600   33.0910   52.0700 C   0  0  0  0  0  0  0  0  0  0  0  0
   58.6110   32.0360   51.4970 N   0  0  0  0  0  0  0  0  0  0  0  0
   57.8090   30.8810   51.0650 C   0  0  0  0  0  0  0  0  0  0  0  0
   59.7380   31.6570   52.3790 C   0  0  0  0  0  0  0  0  0  0  0  0
   61.1340   31.8820   51.7650 C   0  0  0  0  0  0  0  0  0  0  0  0
   61.1570   31.3630   50.3910 N   0  0  0  0  0  0  0  0  0  0  0  0
   60.9640   29.9090   50.3900 C   0  0  0  0  0  0  0  0  0  0  0  0
   60.3140   29.4620   49.0800 C   0  0  0  0  0  0  0  0  0  0  0  0
   60.4380   30.5040   48.0620 N   0  0  0  0  0  0  0  0  0  0  0  0
   59.4790   30.5960   47.0000 C   0  0  0  0  0  0  0  0  0  0  0  0
   59.2600   29.4640   46.1920 C   0  0  0  0  0  0  0  0  0  0  0  0
   59.8410   28.2190   46.5220 C   0  0  0  0  0  0  0  0  0  0  0  0
   59.6590   27.1060   45.7060 C   0  0  0  0  0  0  0  0  0  0  0  0
   58.9110   27.2160   44.5410 C   0  0  0  0  0  0  0  0  0  0  0  0
   58.3290   28.4340   44.1910 C   0  0  0  0  0  0  0  0  0  0  0  0
   58.4700   29.5790   45.0190 C   0  0  0  0  0  0  0  0  0  0  0  0
   57.9040   30.7920   44.6820 N   0  0  0  0  0  0  0  0  0  0  0  0
   56.9080   30.8640   43.5910 C   0  0  0  0  0  0  0  0  0  0  0  0
   58.2470   31.9340   45.3800 C   0  0  0  0  0  0  0  0  0  0  0  0
   57.9880   33.2190   44.8480 C   0  0  0  0  0  0  0  0  0  0  0  0
   58.2890   34.3660   45.5660 C   0  0  0  0  0  0  0  0  0  0  0  0
   58.7750   34.2730   46.8600 C   0  0  0  0  0  0  0  0  0  0  0  0
   59.0050   33.0180   47.4630 C   0  0  0  0  0  0  0  0  0  0  0  0
   59.3350   32.9310   48.8800 N   0  0  0  0  0  0  0  0  0  0  0  0
   59.6570   34.2250   49.5130 C   0  0  0  0  0  0  0  0  0  0  0  0
   61.1560   34.5650   49.3340 C   0  0  0  0  0  0  0  0  0  0  0  0
   62.0020   33.4270   48.9090 N   0  0  0  0  0  0  0  0  0  0  0  0
   63.2630   33.3230   49.6670 C   0  0  0  0  0  0  0  0  0  0  0  0
   64.1650   32.2230   49.0720 C   0  0  0  0  0  0  0  0  0  0  0  0
   63.4090   31.3350   48.2700 O   0  0  0  0  0  0  0  0  0  0  0  0
   62.9290   32.0120   47.1170 C   0  0  0  0  0  0  0  0  0  0  0  0
   62.2380   33.3490   47.4580 C   0  0  0  0  0  0  0  0  0  0  0  0
   58.9110   31.8440   46.6370 C   0  0  0  0  0  0  0  0  0  0  0  0
   57.8015   33.0396   53.1680 H   0  0  0  0  0  0  0  0  0  0  0  0
   58.1203   34.0749   51.7351 H   0  0  0  0  0  0  0  0  0  0  0  0
   56.7221   32.9471   51.7351 H   0  0  0  0  0  0  0  0  0  0  0  0
   57.4354   30.3429   51.9487 H   0  0  0  0  0  0  0  0  0  0  0  0
   56.9582   31.2305   50.4616 H   0  0  0  0  0  0  0  0  0  0  0  0
   58.4337   30.2059   50.4616 H   0  0  0  0  0  0  0  0  0  0  0  0
   59.6681   32.2528   53.3010 H   0  0  0  0  0  0  0  0  0  0  0  0
   59.6454   30.5756   52.5576 H   0  0  0  0  0  0  0  0  0  0  0  0
   61.3598   32.9585   51.7536 H   0  0  0  0  0  0  0  0  0  0  0  0
   61.8878   31.3542   52.3677 H   0  0  0  0  0  0  0  0  0  0  0  0
   62.1060   31.5620   49.9940 H   0  0  0  0  0  0  0  0  0  0  0  0
   61.9398   29.4131   50.4988 H   0  0  0  0  0  0  0  0  0  0  0  0
   60.3067   29.6342   51.2282 H   0  0  0  0  0  0  0  0  0  0  0  0
   60.8107   28.5475   48.7236 H   0  0  0  0  0  0  0  0  0  0  0  0
   59.2464   29.2691   49.2617 H   0  0  0  0  0  0  0  0  0  0  0  0
   61.0910   31.3070   48.2120 H   0  0  0  0  0  0  0  0  0  0  0  0
   60.4456   28.1280   47.4365 H   0  0  0  0  0  0  0  0  0  0  0  0
   60.1071   26.1405   45.9836 H   0  0  0  0  0  0  0  0  0  0  0  0
   58.7770   26.3384   43.8914 H   0  0  0  0  0  0  0  0  0  0  0  0
   57.7511   28.5090   43.2580 H   0  0  0  0  0  0  0  0  0  0  0  0
   55.8981   30.9370   44.0208 H   0  0  0  0  0  0  0  0  0  0  0  0
   57.1073   31.7501   42.9704 H   0  0  0  0  0  0  0  0  0  0  0  0
   56.9778   29.9585   42.9704 H   0  0  0  0  0  0  0  0  0  0  0  0
   57.5401   33.3096   43.8474 H   0  0  0  0  0  0  0  0  0  0  0  0
   58.1413   35.3543   45.1063 H   0  0  0  0  0  0  0  0  0  0  0  0
   58.9850   35.1922   47.4266 H   0  0  0  0  0  0  0  0  0  0  0  0
   58.4990   32.5650   49.3910 H   0  0  0  0  0  0  0  0  0  0  0  0
   60.1480   32.2870   49.0030 H   0  0  0  0  0  0  0  0  0  0  0  0
   59.0497   35.0154   49.0477 H   0  0  0  0  0  0  0  0  0  0  0  0
   59.4364   34.1566   50.5885 H   0  0  0  0  0  0  0  0  0  0  0  0
   61.2395   35.3564   48.5746 H   0  0  0  0  0  0  0  0  0  0  0  0
   61.5248   34.8738   50.3233 H   0  0  0  0  0  0  0  0  0  0  0  0
   63.7915   34.2867   49.6233 H   0  0  0  0  0  0  0  0  0  0  0  0
   63.0292   33.0640   50.7102 H   0  0  0  0  0  0  0  0  0  0  0  0
   64.9458   32.6912   48.4547 H   0  0  0  0  0  0  0  0  0  0  0  0
   64.6198   31.6545   49.8966 H   0  0  0  0  0  0  0  0  0  0  0  0
   63.7787   32.2151   46.4486 H   0  0  0  0  0  0  0  0  0  0  0  0
   62.1811   31.3635   46.6373 H   0  0  0  0  0  0  0  0  0  0  0  0
   62.8826   34.1841   47.1466 H   0  0  0  0  0  0  0  0  0  0  0  0
   61.2761   33.4087   46.9277 H   0  0  0  0  0  0  0  0  0  0  0  0
  1  2  1  0
  2  3  1  0
  2  4  1  0
  4  5  1  0
  5  6  1  0
  6  7  1  0
  7  8  1  0
  8  9  1  0
  9 10  1  0
 10 11  2  0
 11 12  1  0
 12 13  2  0
 13 14  1  0
 14 15  2  0
 15 16  1  0
 16 17  2  0
 17 18  1  0
 17 19  1  0
 19 20  2  0
 20 21  1  0
 21 22  2  0
 22 23  1  0
 23 24  1  0
 24 25  1  0
 25 26  1  0
 26 27  1  0
 27 28  1  0
 28 29  1  0
 29 30  1  0
 30 31  1  0
 31 32  1  0
 23 33  2  0
 33 10  1  0
 16 11  1  0
 33 19  1  0
 32 27  1  0
  1 34  1  0
  1 35  1  0
  1 36  1  0
  3 37  1  0
  3 38  1  0
  3 39  1  0
  4 40  1  0
  4 41  1  0
  5 42  1  0
  5 43  1  0
  6 44  1  0
  7 45  1  0
  7 46  1  0
  8 47  1  0
  8 48  1  0
  9 49  1  0
 12 50  1  0
 13 51  1  0
 14 52  1  0
 15 53  1  0
 18 54  1  0
 18 55  1  0
 18 56  1  0
 20 57  1  0
 21 58  1  0
 22 59  1  0
 24 60  1  0
 24 61  1  0
 25 62  1  0
 25 63  1  0
 26 64  1  0
 26 65  1  0
 28 66  1  0
 28 67  1  0
 29 68  1  0
 29 69  1  0
 31 70  1  0
 31 71  1  0
 32 72  1  0
 32 73  1  0
M  CHG  2  17   1  24   1
M  END
>  <UniqueID>  (16) 
16

>  <SMILES>  (16) 
CN(C)CCNCCNc1c2ccccc2[n+](C)c2cccc([NH2+]CCN3CCOCC3)c12

>  <Energy>  (16) 
125.05302038607084

>  <Genealogy>  (16) 
CN(C)CCNCCNc1c2ccccc2[n+](C)c2cccc([NH2+]CCN3CCOCC3)c12 (protonated)
CN(C)CCNCCNc1c2ccccc2[n+](C)c2cccc([NH2+]CCN3CCOCC3)c12 (3D coordinates assigned)
CN(C)CCNCCNc1c2ccccc2[n+](C)c2cccc([NH2+]CCN3CCOCC3)c12 (nonaromatic ring conformer: 125.05302038607084 kcal/mol)

>  <smiles>  (16) 
CN(C)CCNCCNc1c2ccccc2[n+](C)c2cccc(NCCN3CCOCC3)c12

>  <score_type>  (16) 
oracle

>  <origin>  (16) 
adg

>  <m_score__min__energy>  (16) 
-4.2999999999999998

>  <m_primary>  (16) 
energy

$$$$
17:0
     RDKit          3D

 55 58  0  0  0  0  0  0  0  0999 V2000
   59.7770   33.8080   50.8530 C   0  0  0  0  0  0  0  0  0  0  0  0
   58.5720   33.4720   51.7330 C   0  0  0  0  0  0  0  0  0  0  0  0
   58.0390   32.1240   51.4660 N   0  0  0  0  0  0  0  0  0  0  0  0
   56.6980   31.9190   52.0370 C   0  0  0  0  0  0  0  0  0  0  0  0
   56.5040   30.4560   52.4270 C   0  0  0  0  0  0  0  0  0  0  0  0
   57.3780   29.6530   51.6600 O   0  0  0  0  0  0  0  0  0  0  0  0
   58.4380   29.1640   52.4620 C   0  0  0  0  0  0  0  0  0  0  0  0
   59.7970   29.3300   51.7490 C   0  0  0  0  0  0  0  0  0  0  0  0
   59.7150   30.3120   50.6520 N   0  0  0  0  0  0  0  0  0  0  0  0
   60.6430   29.9870   49.5540 C   0  0  0  0  0  0  0  0  0  0  0  0
   59.9130   29.5860   48.2920 C   0  0  0  0  0  0  0  0  0  0  0  0
   59.5130   28.2730   48.0730 C   0  0  0  0  0  0  0  0  0  0  0  0
   58.7450   28.1980   46.9300 C   0  0  0  0  0  0  0  0  0  0  0  0
   58.6470   29.4740   46.4100 C   0  0  0  0  0  0  0  0  0  0  0  0
   57.9680   29.9240   45.2850 C   0  0  0  0  0  0  0  0  0  0  0  0
   57.2600   29.0330   44.4560 C   0  0  0  0  0  0  0  0  0  0  0  0
   56.6260   29.4930   43.3070 C   0  0  0  0  0  0  0  0  0  0  0  0
   56.7060   30.8350   42.9610 C   0  0  0  0  0  0  0  0  0  0  0  0
   57.3950   31.7360   43.7740 C   0  0  0  0  0  0  0  0  0  0  0  0
   58.0150   31.3190   44.9880 C   0  0  0  0  0  0  0  0  0  0  0  0
   58.6720   32.2080   45.8430 N   0  0  0  0  0  0  0  0  0  0  0  0
   58.5640   33.5730   45.6560 C   0  0  0  0  0  0  0  0  0  0  0  0
   59.2890   34.4800   46.4230 C   0  0  0  0  0  0  0  0  0  0  0  0
   60.1340   34.0170   47.4120 C   0  0  0  0  0  0  0  0  0  0  0  0
   60.2050   32.6570   47.6690 C   0  0  0  0  0  0  0  0  0  0  0  0
   59.4260   31.7470   46.9250 C   0  0  0  0  0  0  0  0  0  0  0  0
   59.3970   30.3730   47.2450 C   0  0  0  0  0  0  0  0  0  0  0  0
   60.6406   34.0488   51.4903 H   0  0  0  0  0  0  0  0  0  0  0  0
   60.0197   32.9433   50.2179 H   0  0  0  0  0  0  0  0  0  0  0  0
   59.5373   34.6736   50.2179 H   0  0  0  0  0  0  0  0  0  0  0  0
   58.8786   33.5280   52.7879 H   0  0  0  0  0  0  0  0  0  0  0  0
   57.7776   34.1978   51.5048 H   0  0  0  0  0  0  0  0  0  0  0  0
   58.6910   31.4040   51.8580 H   0  0  0  0  0  0  0  0  0  0  0  0
   56.5840   32.5505   52.9304 H   0  0  0  0  0  0  0  0  0  0  0  0
   55.9439   32.1906   51.2836 H   0  0  0  0  0  0  0  0  0  0  0  0
   56.7282   30.3270   53.4961 H   0  0  0  0  0  0  0  0  0  0  0  0
   55.4628   30.1567   52.2365 H   0  0  0  0  0  0  0  0  0  0  0  0
   58.4588   29.7226   53.4094 H   0  0  0  0  0  0  0  0  0  0  0  0
   58.2698   28.0930   52.6481 H   0  0  0  0  0  0  0  0  0  0  0  0
   60.5447   29.6720   52.4798 H   0  0  0  0  0  0  0  0  0  0  0  0
   60.0836   28.3579   51.3215 H   0  0  0  0  0  0  0  0  0  0  0  0
   59.9700   31.2550   51.0290 H   0  0  0  0  0  0  0  0  0  0  0  0
   58.7380   30.3650   50.2900 H   0  0  0  0  0  0  0  0  0  0  0  0
   61.2624   30.8705   49.3399 H   0  0  0  0  0  0  0  0  0  0  0  0
   61.2604   29.1345   49.8735 H   0  0  0  0  0  0  0  0  0  0  0  0
   59.7711   27.4192   48.7168 H   0  0  0  0  0  0  0  0  0  0  0  0
   58.2928   27.2879   46.5091 H   0  0  0  0  0  0  0  0  0  0  0  0
   57.2080   27.9661   44.7189 H   0  0  0  0  0  0  0  0  0  0  0  0
   56.0614   28.7939   42.6726 H   0  0  0  0  0  0  0  0  0  0  0  0
   56.2227   31.1908   42.0391 H   0  0  0  0  0  0  0  0  0  0  0  0
   57.4611   32.7915   43.4713 H   0  0  0  0  0  0  0  0  0  0  0  0
   57.8854   33.9535   44.8784 H   0  0  0  0  0  0  0  0  0  0  0  0
   59.1894   35.5605   46.2423 H   0  0  0  0  0  0  0  0  0  0  0  0
   60.7467   34.7228   47.9920 H   0  0  0  0  0  0  0  0  0  0  0  0
   60.8738   32.2847   48.4590 H   0  0  0  0  0  0  0  0  0  0  0  0
  1  2  1  0
  2  3  1  0
  3  4  1  0
  4  5  1  0
  5  6  1  0
  6  7  1  0
  7  8  1  0
  8  9  1  0
  9 10  1  0
 10 11  1  0
 11 12  2  0
 12 13  1  0
 13 14  2  0
 14 15  1  0
 15 16  2  0
 16 17  1  0
 17 18  2  0
 18 19  1  0
 19 20  2  0
 20 21  1  0
 21 22  1  0
 22 23  2  0
 23 24  1  0
 24 25  2  0
 25 26  1  0
 26 27  2  0
 27 11  1  0
 27 14  1  0
 20 15  1  0
 26 21  1  0
  1 28  1  0
  1 29  1  0
  1 30  1  0
  2 31  1  0
  2 32  1  0
  3 33  1  0
  4 34  1  0
  4 35  1  0
  5 36  1  0
  5 37  1  0
  7 38  1  0
  7 39  1  0
  8 40  1  0
  8 41  1  0
  9 42  1  0
  9 43  1  0
 10 44  1  0
 10 45  1  0
 12 46  1  0
 13 47  1  0
 16 48  1  0
 17 49  1  0
 18 50  1  0
 19 51  1  0
 22 52  1  0
 23 53  1  0
 24 54  1  0
 25 55  1  0
M  CHG  1   9   1
M  END
>  <UniqueID>  (17) 
17

>  <SMILES>  (17) 
CCNCCOCC[NH2+]Cc1ccc2c3ccccc3n3ccccc3c1-2

>  <Energy>  (17) 
104.69078416344584

>  <Genealogy>  (17) 
CCNCCOCC[NH2+]Cc1ccc2c3ccccc3n3ccccc3c1-2 (protonated)
CCNCCOCC[NH2+]Cc1ccc2c3ccccc3n3ccccc3c1-2 (3D coordinates assigned)
CCNCCOCC[NH2+]Cc1ccc2c3ccccc3n3ccccc3c1-2 (optimized conformer: 104.69078416344584 kcal/mol)

>  <smiles>  (17) 
CCNCCOCCNCc1ccc2c3ccccc3n3ccccc3c1-2

>  <score_type>  (17) 
oracle

>  <origin>  (17) 
adg

>  <m_score__min__energy>  (17) 
-5.71

>  <m_primary>  (17) 
energy

$$$$
18:0
     RDKit          3D

 54 56  0  0  0  0  0  0  0  0999 V2000
   63.3990   33.8380   46.3760 C   0  0  0  0  0  0  0  0  0  0  0  0
   63.4970   33.1160   47.7290 C   0  0  0  0  0  0  0  0  0  0  0  0
   62.2160   33.0210   48.4690 N   0  0  0  0  0  0  0  0  0  0  0  0
   61.9430   34.2010   49.3040 C   0  0  0  0  0  0  0  0  0  0  0  0
   62.0570   31.7580   49.2240 C   0  0  0  0  0  0  0  0  0  0  0  0
   61.1130   30.7980   48.4860 C   0  0  0  0  0  0  0  0  0  0  0  0
   61.2600   30.9170   47.0240 N   0  0  0  0  0  0  0  0  0  0  0  0
   59.9620   30.9090   46.3740 C   0  0  0  0  0  0  0  0  0  0  0  0
   59.2980   29.6870   46.1070 C   0  0  0  0  0  0  0  0  0  0  0  0
   58.1230   29.6820   45.3260 C   0  0  0  0  0  0  0  0  0  0  0  0
   57.6200   30.8550   44.7980 N   0  0  0  0  0  0  0  0  0  0  0  0
   56.5440   30.8030   43.7770 C   0  0  0  0  0  0  0  0  0  0  0  0
   57.0640   31.2200   42.4010 C   0  0  0  0  0  0  0  0  0  0  0  0
   58.1350   32.0710   45.2110 C   0  0  0  0  0  0  0  0  0  0  0  0
   57.5030   33.3010   44.8800 C   0  0  0  0  0  0  0  0  0  0  0  0
   58.0270   34.5210   45.2950 C   0  0  0  0  0  0  0  0  0  0  0  0
   59.1780   34.5590   46.0650 C   0  0  0  0  0  0  0  0  0  0  0  0
   59.8150   33.3770   46.4280 C   0  0  0  0  0  0  0  0  0  0  0  0
   59.3180   32.1190   46.0070 C   0  0  0  0  0  0  0  0  0  0  0  0
   57.4310   28.3280   45.1690 C   0  0  0  0  0  0  0  0  0  0  0  0
   58.4410   27.2470   44.7560 C   0  0  0  0  0  0  0  0  0  0  0  0
   59.7440   27.2680   45.5890 C   0  0  0  0  0  0  0  0  0  0  0  0
   59.7560   28.3510   46.6770 C   0  0  0  0  0  0  0  0  0  0  0  0
   63.2528   34.9151   46.5449 H   0  0  0  0  0  0  0  0  0  0  0  0
   64.3270   33.6787   45.8073 H   0  0  0  0  0  0  0  0  0  0  0  0
   62.5470   33.4371   45.8073 H   0  0  0  0  0  0  0  0  0  0  0  0
   63.8658   32.0956   47.5480 H   0  0  0  0  0  0  0  0  0  0  0  0
   64.1761   33.7141   48.3544 H   0  0  0  0  0  0  0  0  0  0  0  0
   62.0076   33.9216   50.3660 H   0  0  0  0  0  0  0  0  0  0  0  0
   62.6836   34.9843   49.0852 H   0  0  0  0  0  0  0  0  0  0  0  0
   60.9336   34.5794   49.0852 H   0  0  0  0  0  0  0  0  0  0  0  0
   63.0409   31.2797   49.3383 H   0  0  0  0  0  0  0  0  0  0  0  0
   61.6267   31.9878   50.2099 H   0  0  0  0  0  0  0  0  0  0  0  0
   61.3459   29.7657   48.7863 H   0  0  0  0  0  0  0  0  0  0  0  0
   60.0778   31.0578   48.7521 H   0  0  0  0  0  0  0  0  0  0  0  0
   61.7970   31.7790   46.7840 H   0  0  0  0  0  0  0  0  0  0  0  0
   61.8590   30.1530   46.6420 H   0  0  0  0  0  0  0  0  0  0  0  0
   56.1560   29.7754   43.7172 H   0  0  0  0  0  0  0  0  0  0  0  0
   55.7487   31.5023   44.0744 H   0  0  0  0  0  0  0  0  0  0  0  0
   57.9168   31.9039   42.5231 H   0  0  0  0  0  0  0  0  0  0  0  0
   57.3865   30.3274   41.8449 H   0  0  0  0  0  0  0  0  0  0  0  0
   56.2627   31.7287   41.8449 H   0  0  0  0  0  0  0  0  0  0  0  0
   56.5794   33.2875   44.2827 H   0  0  0  0  0  0  0  0  0  0  0  0
   57.5260   35.4582   45.0109 H   0  0  0  0  0  0  0  0  0  0  0  0
   59.5891   35.5261   46.3901 H   0  0  0  0  0  0  0  0  0  0  0  0
   60.7197   33.4198   47.0523 H   0  0  0  0  0  0  0  0  0  0  0  0
   56.9703   28.0447   46.1268 H   0  0  0  0  0  0  0  0  0  0  0  0
   56.6628   28.4120   44.3862 H   0  0  0  0  0  0  0  0  0  0  0  0
   57.9660   26.2623   44.8777 H   0  0  0  0  0  0  0  0  0  0  0  0
   58.7218   27.4492   43.7118 H   0  0  0  0  0  0  0  0  0  0  0  0
   59.8645   26.2872   46.0723 H   0  0  0  0  0  0  0  0  0  0  0  0
   60.5679   27.4950   44.8965 H   0  0  0  0  0  0  0  0  0  0  0  0
   59.0784   28.0536   47.4909 H   0  0  0  0  0  0  0  0  0  0  0  0
   60.7822   28.4604   47.0578 H   0  0  0  0  0  0  0  0  0  0  0  0
  1  2  1  0
  2  3  1  0
  3  4  1  0
  3  5  1  0
  5  6  1  0
  6  7  1  0
  7  8  1  0
  8  9  2  0
  9 10  1  0
 10 11  2  0
 11 12  1  0
 12 13  1  0
 11 14  1  0
 14 15  2  0
 15 16  1  0
 16 17  2  0
 17 18  1  0
 18 19  2  0
 10 20  1  0
 20 21  1  0
 21 22  1  0
 22 23  1  0
 19  8  1  0
 23  9  1  0
 19 14  1  0
  1 24  1  0
  1 25  1  0
  1 26  1  0
  2 27  1  0
  2 28  1  0
  4 29  1  0
  4 30  1  0
  4 31  1  0
  5 32  1  0
  5 33  1  0
  6 34  1  0
  6 35  1  0
  7 36  1  0
  7 37  1  0
 12 38  1  0
 12 39  1  0
 13 40  1  0
 13 41  1  0
 13 42  1  0
 15 43  1  0
 16 44  1  0
 17 45  1  0
 18 46  1  0
 20 47  1  0
 20 48  1  0
 21 49  1  0
 21 50  1  0
 22 51  1  0
 22 52  1  0
 23 53  1  0
 23 54  1  0
M  CHG  2   7   1  11   1
M  END
>  <UniqueID>  (18) 
18

>  <SMILES>  (18) 
CCN(C)CC[NH2+]c1c2c([n+](CC)c3ccccc13)CCCC2

>  <Energy>  (18) 
81.87903981327233

>  <Genealogy>  (18) 
CCN(C)CC[NH2+]c1c2c([n+](CC)c3ccccc13)CCCC2 (protonated)
CCN(C)CC[NH2+]c1c2c([n+](CC)c3ccccc13)CCCC2 (3D coordinates assigned)
CCN(C)CC[NH2+]c1c2c([n+](CC)c3ccccc13)CCCC2 (nonaromatic ring conformer: 81.87903981327233 kcal/mol)

>  <smiles>  (18) 
CCN(C)CCNc1c2c([n+](CC)c3ccccc13)CCCC2

>  <score_type>  (18) 
oracle

>  <origin>  (18) 
adg

>  <m_score__min__energy>  (18) 
-4.21

>  <m_primary>  (18) 
energy

$$$$
19:0
     RDKit          3D

 54 55  0  0  0  0  0  0  0  0999 V2000
   60.4240   26.6840   46.6010 C   0  0  0  0  0  0  0  0  0  0  0  0
   58.9170   26.8070   46.3880 C   0  0  0  0  0  0  0  0  0  0  0  0
   58.6050   27.9300   45.4880 N   0  0  0  0  0  0  0  0  0  0  0  0
   57.3900   27.8860   44.6650 C   0  0  0  0  0  0  0  0  0  0  0  0
   56.8820   29.2720   44.4020 C   0  0  0  0  0  0  0  0  0  0  0  0
   55.7740   29.6270   44.8900 O   0  0  0  0  0  0  0  0  0  0  0  0
   57.6670   30.1970   43.6350 N   0  0  0  0  0  0  0  0  0  0  0  0
   57.2570   31.5890   43.4250 C   0  0  0  0  0  0  0  0  0  0  0  0
   57.3550   32.3710   44.7380 C   0  0  0  0  0  0  0  0  0  0  0  0
   58.1310   32.2430   42.3490 C   0  0  0  0  0  0  0  0  0  0  0  0
   59.4150   29.1210   45.4970 C   0  0  0  0  0  0  0  0  0  0  0  0
   60.1900   29.3490   44.5290 O   0  0  0  0  0  0  0  0  0  0  0  0
   59.3560   30.0870   46.6160 C   0  0  0  0  0  0  0  0  0  0  0  0
   58.9380   29.6780   47.8930 C   0  0  0  0  0  0  0  0  0  0  0  0
   58.8960   30.5940   48.9480 C   0  0  0  0  0  0  0  0  0  0  0  0
   59.2870   31.9180   48.7440 C   0  0  0  0  0  0  0  0  0  0  0  0
   59.7370   32.3350   47.4830 C   0  0  0  0  0  0  0  0  0  0  0  0
   60.2740   33.9980   47.2360 S   0  0  0  0  0  0  0  0  0  0  0  0
   59.4330   34.9210   48.0740 O   0  0  0  0  0  0  0  0  0  0  0  0
   60.0790   34.3740   45.7930 O   0  0  0  0  0  0  0  0  0  0  0  0
   61.9600   34.2000   47.6600 N   0  0  0  0  0  0  0  0  0  0  0  0
   62.8490   33.4620   46.7350 C   0  0  0  0  0  0  0  0  0  0  0  0
   63.4140   32.1820   47.3760 C   0  0  0  0  0  0  0  0  0  0  0  0
   64.1530   32.4290   48.5650 O   0  0  0  0  0  0  0  0  0  0  0  0
   63.6610   33.5230   49.3300 C   0  0  0  0  0  0  0  0  0  0  0  0
   62.1800   33.8510   49.0760 C   0  0  0  0  0  0  0  0  0  0  0  0
   59.7650   31.4180   46.4210 C   0  0  0  0  0  0  0  0  0  0  0  0
   60.6417   26.6662   47.6791 H   0  0  0  0  0  0  0  0  0  0  0  0
   60.7849   25.7534   46.1387 H   0  0  0  0  0  0  0  0  0  0  0  0
   60.9310   27.5437   46.1387 H   0  0  0  0  0  0  0  0  0  0  0  0
   58.5383   25.8741   45.9450 H   0  0  0  0  0  0  0  0  0  0  0  0
   58.4378   26.9917   47.3608 H   0  0  0  0  0  0  0  0  0  0  0  0
   57.6196   27.3970   43.7068 H   0  0  0  0  0  0  0  0  0  0  0  0
   56.6159   27.3203   45.2043 H   0  0  0  0  0  0  0  0  0  0  0  0
   58.5400   29.8450   43.1810 H   0  0  0  0  0  0  0  0  0  0  0  0
   56.2115   31.6028   43.0833 H   0  0  0  0  0  0  0  0  0  0  0  0
   57.2679   31.6759   45.5861 H   0  0  0  0  0  0  0  0  0  0  0  0
   58.3249   32.8877   44.7855 H   0  0  0  0  0  0  0  0  0  0  0  0
   56.5426   33.1111   44.7855 H   0  0  0  0  0  0  0  0  0  0  0  0
   58.9230   32.8356   42.8302 H   0  0  0  0  0  0  0  0  0  0  0  0
   58.5867   31.4623   41.7223 H   0  0  0  0  0  0  0  0  0  0  0  0
   57.5105   32.9005   41.7223 H   0  0  0  0  0  0  0  0  0  0  0  0
   58.6424   28.6323   48.0636 H   0  0  0  0  0  0  0  0  0  0  0  0
   58.5537   30.2703   49.9420 H   0  0  0  0  0  0  0  0  0  0  0  0
   59.2421   32.6370   49.5752 H   0  0  0  0  0  0  0  0  0  0  0  0
   62.2769   33.1865   45.8368 H   0  0  0  0  0  0  0  0  0  0  0  0
   63.6955   34.1174   46.4824 H   0  0  0  0  0  0  0  0  0  0  0  0
   62.5751   31.5131   47.6186 H   0  0  0  0  0  0  0  0  0  0  0  0
   64.1059   31.7311   46.6494 H   0  0  0  0  0  0  0  0  0  0  0  0
   63.7835   33.2818   50.3962 H   0  0  0  0  0  0  0  0  0  0  0  0
   64.2387   34.4082   49.0257 H   0  0  0  0  0  0  0  0  0  0  0  0
   61.5668   32.9743   49.3315 H   0  0  0  0  0  0  0  0  0  0  0  0
   61.8953   34.7103   49.7009 H   0  0  0  0  0  0  0  0  0  0  0  0
   60.1096   31.7431   45.4283 H   0  0  0  0  0  0  0  0  0  0  0  0
  1  2  1  0
  2  3  1  0
  3  4  1  0
  4  5  1  0
  5  6  2  0
  5  7  1  0
  7  8  1  0
  8  9  1  0
  8 10  1  0
  3 11  1  0
 11 12  2  0
 11 13  1  0
 13 14  2  0
 14 15  1  0
 15 16  2  0
 16 17  1  0
 17 18  1  0
 18 19  2  0
 18 20  2  0
 18 21  1  0
 21 22  1  0
 22 23  1  0
 23 24  1  0
 24 25  1  0
 25 26  1  0
 17 27  2  0
 27 13  1  0
 26 21  1  0
  1 28  1  0
  1 29  1  0
  1 30  1  0
  2 31  1  0
  2 32  1  0
  4 33  1  0
  4 34  1  0
  7 35  1  0
  8 36  1  0
  9 37  1  0
  9 38  1  0
  9 39  1  0
 10 40  1  0
 10 41  1  0
 10 42  1  0
 14 43  1  0
 15 44  1  0
 16 45  1  0
 22 46  1  0
 22 47  1  0
 23 48  1  0
 23 49  1  0
 25 50  1  0
 25 51  1  0
 26 52  1  0
 26 53  1  0
 27 54  1  0
M  END
>  <UniqueID>  (19) 
19

>  <SMILES>  (19) 
CCN(CC(=O)NC(C)C)C(=O)c1cccc(S(=O)(=O)N2CCOCC2)c1

>  <Energy>  (19) 
56.98697096391233

>  <Genealogy>  (19) 
CCN(CC(=O)NC(C)C)C(=O)c1cccc(S(=O)(=O)N2CCOCC2)c1 (3D coordinates assigned)
CCN(CC(=O)NC(C)C)C(=O)c1cccc(S(=O)(=O)N2CCOCC2)c1 (nonaromatic ring conformer: 56.98697096391233 kcal/mol)

>  <smiles>  (19) 
CCN(CC(=O)NC(C)C)C(=O)c1cccc(S(=O)(=O)N2CCOCC2)c1

>  <score_type>  (19) 
oracle

>  <origin>  (19) 
adg

>  <m_score__min__energy>  (19) 
-9.3300000000000001

>  <m_primary>  (19) 
energy

$$$$
20:0
     RDKit          3D

 79 83  0  0  0  0  0  0  0  0999 V2000
   59.2660   34.7730   45.8030 C   0  0  0  0  0  0  0  0  0  0  0  0
   58.1230   34.3020   44.9040 C   0  0  0  0  0  0  0  0  0  0  0  0
   58.3060   32.8870   44.5550 N   0  0  0  0  0  0  0  0  0  0  0  0
   57.0360   32.1630   44.7110 C   0  0  0  0  0  0  0  0  0  0  0  0
   57.0950   30.7850   44.0310 C   0  0  0  0  0  0  0  0  0  0  0  0
   58.4770   30.2800   43.8660 N   0  0  0  0  0  0  0  0  0  0  0  0
   58.9040   29.4730   44.9930 C   0  0  0  0  0  0  0  0  0  0  0  0
   58.6940   28.0650   45.0630 C   0  0  0  0  0  0  0  0  0  0  0  0
   58.0430   27.3680   44.0210 C   0  0  0  0  0  0  0  0  0  0  0  0
   57.7680   26.0070   44.1330 C   0  0  0  0  0  0  0  0  0  0  0  0
   58.1330   25.3120   45.2770 C   0  0  0  0  0  0  0  0  0  0  0  0
   58.8030   25.9600   46.3130 C   0  0  0  0  0  0  0  0  0  0  0  0
   59.1360   27.3350   46.2220 C   0  0  0  0  0  0  0  0  0  0  0  0
   59.8440   27.9760   47.2270 N   0  0  0  0  0  0  0  0  0  0  0  0
   60.5520   27.2260   48.2790 C   0  0  0  0  0  0  0  0  0  0  0  0
   59.9340   29.3420   47.1780 C   0  0  0  0  0  0  0  0  0  0  0  0
   59.5110   30.0740   46.0910 C   0  0  0  0  0  0  0  0  0  0  0  0
   59.7550   31.3590   46.2560 O   0  0  0  0  0  0  0  0  0  0  0  0
   60.2990   31.4960   47.4430 C   0  0  0  0  0  0  0  0  0  0  0  0
   60.6770   32.6890   48.0510 C   0  0  0  0  0  0  0  0  0  0  0  0
   61.1650   32.6360   49.3680 C   0  0  0  0  0  0  0  0  0  0  0  0
   61.2620   31.3940   50.0550 C   0  0  0  0  0  0  0  0  0  0  0  0
   61.7120   31.3070   51.3810 O   0  0  0  0  0  0  0  0  0  0  0  0
   62.9650   31.8050   51.8410 C   0  0  0  0  0  0  0  0  0  0  0  0
   64.0710   31.3580   50.8600 C   0  0  0  0  0  0  0  0  0  0  0  0
   64.9970   32.4390   50.3760 N   0  0  0  0  0  0  0  0  0  0  0  0
   64.4710   33.0330   49.1180 C   0  0  0  0  0  0  0  0  0  0  0  0
   65.0270   33.5140   51.4270 C   0  0  0  0  0  0  0  0  0  0  0  0
   66.3640   34.2840   51.4510 C   0  0  0  0  0  0  0  0  0  0  0  0
   67.5200   33.3940   51.7950 N   0  0  0  0  0  0  0  0  0  0  0  0
   67.7430   33.4170   53.2610 C   0  0  0  0  0  0  0  0  0  0  0  0
   68.7450   33.9210   51.1420 C   0  0  0  0  0  0  0  0  0  0  0  0
   67.2850   31.9790   51.3620 C   0  0  0  0  0  0  0  0  0  0  0  0
   66.3750   31.8950   50.1220 C   0  0  0  0  0  0  0  0  0  0  0  0
   60.8890   30.2020   49.4030 C   0  0  0  0  0  0  0  0  0  0  0  0
   60.4300   30.2770   48.0820 C   0  0  0  0  0  0  0  0  0  0  0  0
   58.9762   34.6536   46.8574 H   0  0  0  0  0  0  0  0  0  0  0  0
   60.1643   34.1718   45.5993 H   0  0  0  0  0  0  0  0  0  0  0  0
   59.4800   35.8326   45.5993 H   0  0  0  0  0  0  0  0  0  0  0  0
   57.1677   34.4251   45.4353 H   0  0  0  0  0  0  0  0  0  0  0  0
   58.1187   34.9026   43.9825 H   0  0  0  0  0  0  0  0  0  0  0  0
   59.0020   32.4730   45.2220 H   0  0  0  0  0  0  0  0  0  0  0  0
   56.8304   32.0258   45.7829 H   0  0  0  0  0  0  0  0  0  0  0  0
   56.2381   32.7524   44.2357 H   0  0  0  0  0  0  0  0  0  0  0  0
   56.5303   30.0671   44.6440 H   0  0  0  0  0  0  0  0  0  0  0  0
   56.6628   30.8955   43.0255 H   0  0  0  0  0  0  0  0  0  0  0  0
   59.1380   31.0770   43.7100 H   0  0  0  0  0  0  0  0  0  0  0  0
   58.5390   29.7030   42.9960 H   0  0  0  0  0  0  0  0  0  0  0  0
   57.7491   27.9074   43.1085 H   0  0  0  0  0  0  0  0  0  0  0  0
   57.2595   25.4813   43.3113 H   0  0  0  0  0  0  0  0  0  0  0  0
   57.8920   24.2425   45.3668 H   0  0  0  0  0  0  0  0  0  0  0  0
   59.0780   25.3954   47.2161 H   0  0  0  0  0  0  0  0  0  0  0  0
   60.2199   27.5779   49.2669 H   0  0  0  0  0  0  0  0  0  0  0  0
   60.3293   26.1535   48.1778 H   0  0  0  0  0  0  0  0  0  0  0  0
   61.6355   27.3866   48.1778 H   0  0  0  0  0  0  0  0  0  0  0  0
   60.5962   33.6467   47.5160 H   0  0  0  0  0  0  0  0  0  0  0  0
   61.4748   33.5633   49.8721 H   0  0  0  0  0  0  0  0  0  0  0  0
   62.9322   32.9036   51.8849 H   0  0  0  0  0  0  0  0  0  0  0  0
   63.1765   31.4112   52.8461 H   0  0  0  0  0  0  0  0  0  0  0  0
   64.6802   30.5937   51.3648 H   0  0  0  0  0  0  0  0  0  0  0  0
   63.5451   30.9944   49.9649 H   0  0  0  0  0  0  0  0  0  0  0  0
   63.7598   33.8362   49.3611 H   0  0  0  0  0  0  0  0  0  0  0  0
   65.3045   33.4465   48.5312 H   0  0  0  0  0  0  0  0  0  0  0  0
   63.9597   32.2557   48.5312 H   0  0  0  0  0  0  0  0  0  0  0  0
   64.2137   34.2266   51.2252 H   0  0  0  0  0  0  0  0  0  0  0  0
   64.9060   33.0264   52.4056 H   0  0  0  0  0  0  0  0  0  0  0  0
   66.5380   34.7239   50.4579 H   0  0  0  0  0  0  0  0  0  0  0  0
   66.2932   35.0624   52.2250 H   0  0  0  0  0  0  0  0  0  0  0  0
   66.7784   33.3175   53.7802 H   0  0  0  0  0  0  0  0  0  0  0  0
   68.4002   32.5819   53.5451 H   0  0  0  0  0  0  0  0  0  0  0  0
   68.2159   34.3687   53.5451 H   0  0  0  0  0  0  0  0  0  0  0  0
   69.4665   34.2314   51.9122 H   0  0  0  0  0  0  0  0  0  0  0  0
   69.1930   33.1360   50.5150 H   0  0  0  0  0  0  0  0  0  0  0  0
   68.4831   34.7861   50.5150 H   0  0  0  0  0  0  0  0  0  0  0  0
   68.2537   31.5159   51.1229 H   0  0  0  0  0  0  0  0  0  0  0  0
   66.7828   31.4518   52.1866 H   0  0  0  0  0  0  0  0  0  0  0  0
   66.8365   32.4720   49.3071 H   0  0  0  0  0  0  0  0  0  0  0  0
   66.2694   30.8322   49.8587 H   0  0  0  0  0  0  0  0  0  0  0  0
   60.9568   29.2336   49.9203 H   0  0  0  0  0  0  0  0  0  0  0  0
  1  2  1  0
  2  3  1  0
  3  4  1  0
  4  5  1  0
  5  6  1  0
  6  7  1  0
  7  8  2  0
  8  9  1  0
  9 10  2  0
 10 11  1  0
 11 12  2  0
 12 13  1  0
 13 14  2  0
 14 15  1  0
 14 16  1  0
 16 17  2  0
 17 18  1  0
 18 19  1  0
 19 20  2  0
 20 21  1  0
 21 22  2  0
 22 23  1  0
 23 24  1  0
 24 25  1  0
 25 26  1  0
 26 27  1  0
 26 28  1  0
 28 29  1  0
 29 30  1  0
 30 31  1  0
 30 32  1  0
 30 33  1  0
 33 34  1  0
 22 35  1  0
 35 36  2  0
 17  7  1  0
 36 19  1  0
 13  8  1  0
 36 16  1  0
 34 26  1  0
  1 37  1  0
  1 38  1  0
  1 39  1  0
  2 40  1  0
  2 41  1  0
  3 42  1  0
  4 43  1  0
  4 44  1  0
  5 45  1  0
  5 46  1  0
  6 47  1  0
  6 48  1  0
  9 49  1  0
 10 50  1  0
 11 51  1  0
 12 52  1  0
 15 53  1  0
 15 54  1  0
 15 55  1  0
 20 56  1  0
 21 57  1  0
 24 58  1  0
 24 59  1  0
 25 60  1  0
 25 61  1  0
 27 62  1  0
 27 63  1  0
 27 64  1  0
 28 65  1  0
 28 66  1  0
 29 67  1  0
 29 68  1  0
 31 69  1  0
 31 70  1  0
 31 71  1  0
 32 72  1  0
 32 73  1  0
 32 74  1  0
 33 75  1  0
 33 76  1  0
 34 77  1  0
 34 78  1  0
 35 79  1  0
M  CHG  4   6   1  14   1  26   1  30   1
M  END
>  <UniqueID>  (20) 
20

>  <SMILES>  (20) 
CCNCC[NH2+]c1c2ccccc2[n+](C)c2c1oc1ccc(OCC[N+]3(C)CC[N+](C)(C)CC3)cc12

>  <Energy>  (20) 
162.18019552189074

>  <Genealogy>  (20) 
CCNCC[NH2+]c1c2ccccc2[n+](C)c2c1oc1ccc(OCC[N+]3(C)CC[N+](C)(C)CC3)cc12 (protonated)
CCNCC[NH2+]c1c2ccccc2[n+](C)c2c1oc1ccc(OCC[N+]3(C)CC[N+](C)(C)CC3)cc12 (3D coordinates assigned)
CCNCC[NH2+]c1c2ccccc2[n+](C)c2c1oc1ccc(OCC[N+]3(C)CC[N+](C)(C)CC3)cc12 (nonaromatic ring conformer: 162.18019552189074 kcal/mol)

>  <smiles>  (20) 
CCNCCNc1c2ccccc2[n+](C)c2c1oc1ccc(OCC[N+]3(C)CC[N+](C)(C)CC3)cc12

>  <score_type>  (20) 
oracle

>  <origin>  (20) 
adg

>  <m_score__min__energy>  (20) 
-2.9399999999999999

>  <m_primary>  (20) 
energy

$$$$
21:0
     RDKit          3D

 57 59  0  0  0  0  0  0  0  0999 V2000
   60.7800   29.5200   48.9960 C   0  0  0  0  0  0  0  0  0  0  0  0
   59.3590   29.3190   48.4590 C   0  0  0  0  0  0  0  0  0  0  0  0
   59.1080   30.0510   47.2030 N   0  0  0  0  0  0  0  0  0  0  0  0
   59.9440   29.5770   46.0980 C   0  0  0  0  0  0  0  0  0  0  0  0
   59.1190   28.7060   45.1440 C   0  0  0  0  0  0  0  0  0  0  0  0
   58.2930   29.5440   44.1390 C   0  0  0  0  0  0  0  0  0  0  0  0
   57.0320   30.1560   44.7630 C   0  0  0  0  0  0  0  0  0  0  0  0
   57.3680   31.3140   45.4960 O   0  0  0  0  0  0  0  0  0  0  0  0
   57.6990   32.3860   44.6350 C   0  0  0  0  0  0  0  0  0  0  0  0
   57.5410   33.7620   45.3150 C   0  0  0  0  0  0  0  0  0  0  0  0
   58.1310   33.8380   46.7370 C   0  0  0  0  0  0  0  0  0  0  0  0
   58.7770   32.5800   47.1510 N   0  0  0  0  0  0  0  0  0  0  0  0
   59.7350   32.8240   48.2110 C   0  0  0  0  0  0  0  0  0  0  0  0
   61.0680   33.2620   47.9530 C   0  0  0  0  0  0  0  0  0  0  0  0
   61.5180   33.5430   46.6370 C   0  0  0  0  0  0  0  0  0  0  0  0
   62.8590   33.8200   46.3810 C   0  0  0  0  0  0  0  0  0  0  0  0
   63.7720   33.8560   47.4280 C   0  0  0  0  0  0  0  0  0  0  0  0
   63.3470   33.6740   48.7450 C   0  0  0  0  0  0  0  0  0  0  0  0
   61.9840   33.4040   49.0500 C   0  0  0  0  0  0  0  0  0  0  0  0
   61.5410   33.2620   50.3630 N   0  0  0  0  0  0  0  0  0  0  0  0
   62.4430   33.5520   51.4990 C   0  0  0  0  0  0  0  0  0  0  0  0
   60.2500   32.8330   50.5950 C   0  0  0  0  0  0  0  0  0  0  0  0
   59.6710   32.5370   51.8540 C   0  0  0  0  0  0  0  0  0  0  0  0
   58.3440   32.1320   51.7730 C   0  0  0  0  0  0  0  0  0  0  0  0
   57.8840   32.1260   50.1550 S   0  0  0  0  0  0  0  0  0  0  0  0
   59.3670   32.6350   49.5460 C   0  0  0  0  0  0  0  0  0  0  0  0
   60.7602   29.5172   50.0958 H   0  0  0  0  0  0  0  0  0  0  0  0
   61.4258   28.7043   48.6388 H   0  0  0  0  0  0  0  0  0  0  0  0
   61.1742   30.4828   48.6388 H   0  0  0  0  0  0  0  0  0  0  0  0
   59.2019   28.2457   48.2765 H   0  0  0  0  0  0  0  0  0  0  0  0
   58.6632   29.7135   49.2142 H   0  0  0  0  0  0  0  0  0  0  0  0
   58.1000   29.9570   46.9440 H   0  0  0  0  0  0  0  0  0  0  0  0
   60.3424   30.4418   45.5472 H   0  0  0  0  0  0  0  0  0  0  0  0
   60.7710   28.9773   46.5060 H   0  0  0  0  0  0  0  0  0  0  0  0
   59.8032   28.0542   44.5810 H   0  0  0  0  0  0  0  0  0  0  0  0
   58.4121   28.1224   45.7520 H   0  0  0  0  0  0  0  0  0  0  0  0
   58.9264   30.3587   43.7579 H   0  0  0  0  0  0  0  0  0  0  0  0
   57.9673   28.8671   43.3355 H   0  0  0  0  0  0  0  0  0  0  0  0
   56.3238   30.4231   43.9648 H   0  0  0  0  0  0  0  0  0  0  0  0
   56.5720   29.4214   45.4404 H   0  0  0  0  0  0  0  0  0  0  0  0
   58.7444   32.2698   44.3131 H   0  0  0  0  0  0  0  0  0  0  0  0
   57.0064   32.3543   43.7810 H   0  0  0  0  0  0  0  0  0  0  0  0
   58.0463   34.5144   44.6917 H   0  0  0  0  0  0  0  0  0  0  0  0
   56.4604   33.9433   45.4121 H   0  0  0  0  0  0  0  0  0  0  0  0
   58.8790   34.6440   46.7653 H   0  0  0  0  0  0  0  0  0  0  0  0
   57.3005   34.0303   47.4322 H   0  0  0  0  0  0  0  0  0  0  0  0
   59.2180   32.0720   46.3550 H   0  0  0  0  0  0  0  0  0  0  0  0
   58.0400   31.9300   47.5010 H   0  0  0  0  0  0  0  0  0  0  0  0
   60.7970   33.5421   45.8063 H   0  0  0  0  0  0  0  0  0  0  0  0
   63.1949   34.0101   45.3509 H   0  0  0  0  0  0  0  0  0  0  0  0
   64.8376   34.0292   47.2173 H   0  0  0  0  0  0  0  0  0  0  0  0
   64.0799   33.7406   49.5626 H   0  0  0  0  0  0  0  0  0  0  0  0
   61.9084   33.3801   52.4448 H   0  0  0  0  0  0  0  0  0  0  0  0
   63.3206   32.8907   51.4485 H   0  0  0  0  0  0  0  0  0  0  0  0
   62.7708   34.6008   51.4485 H   0  0  0  0  0  0  0  0  0  0  0  0
   60.2191   32.6198   52.8041 H   0  0  0  0  0  0  0  0  0  0  0  0
   57.7022   31.8609   52.6242 H   0  0  0  0  0  0  0  0  0  0  0  0
  1  2  1  0
  2  3  1  0
  3  4  1  0
  4  5  1  0
  5  6  1  0
  6  7  1  0
  7  8  1  0
  8  9  1  0
  9 10  1  0
 10 11  1  0
 11 12  1  0
 12 13  1  0
 13 14  2  0
 14 15  1  0
 15 16  2  0
 16 17  1  0
 17 18  2  0
 18 19  1  0
 19 20  2  0
 20 21  1  0
 20 22  1  0
 22 23  1  0
 23 24  2  0
 24 25  1  0
 25 26  1  0
 26 13  1  0
 19 14  1  0
 26 22  2  0
  1 27  1  0
  1 28  1  0
  1 29  1  0
  2 30  1  0
  2 31  1  0
  3 32  1  0
  4 33  1  0
  4 34  1  0
  5 35  1  0
  5 36  1  0
  6 37  1  0
  6 38  1  0
  7 39  1  0
  7 40  1  0
  9 41  1  0
  9 42  1  0
 10 43  1  0
 10 44  1  0
 11 45  1  0
 11 46  1  0
 12 47  1  0
 12 48  1  0
 15 49  1  0
 16 50  1  0
 17 51  1  0
 18 52  1  0
 21 53  1  0
 21 54  1  0
 21 55  1  0
 23 56  1  0
 24 57  1  0
M  CHG  2  12   1  20   1
M  END
>  <UniqueID>  (21) 
21

>  <SMILES>  (21) 
CCNCCCCOCCC[NH2+]c1c2ccccc2[n+](C)c2ccsc12

>  <Energy>  (21) 
99.28473775920118

>  <Genealogy>  (21) 
CCNCCCCOCCC[NH2+]c1c2ccccc2[n+](C)c2ccsc12 (protonated)
CCNCCCCOCCC[NH2+]c1c2ccccc2[n+](C)c2ccsc12 (3D coordinates assigned)
CCNCCCCOCCC[NH2+]c1c2ccccc2[n+](C)c2ccsc12 (optimized conformer: 99.28473775920118 kcal/mol)

>  <smiles>  (21) 
CCNCCCCOCCCNc1c2ccccc2[n+](C)c2ccsc12

>  <score_type>  (21) 
oracle

>  <origin>  (21) 
adg

>  <m_score__min__energy>  (21) 
-3.8900000000000001

>  <m_primary>  (21) 
energy

$$$$
22:0
     RDKit          3D

 50 52  0  0  0  0  0  0  0  0999 V2000
   56.5690   23.3360   43.2600 C   0  0  0  0  0  0  0  0  0  0  0  0
   55.8980   23.8690   44.5200 C   0  0  0  0  0  0  0  0  0  0  0  0
   56.3500   25.2290   44.8090 N   0  0  0  0  0  0  0  0  0  0  0  0
   56.4850   25.7300   46.1460 C   0  0  0  0  0  0  0  0  0  0  0  0
   56.2250   24.9910   47.1330 O   0  0  0  0  0  0  0  0  0  0  0  0
   56.9800   27.1310   46.3790 C   0  0  0  0  0  0  0  0  0  0  0  0
   56.7650   27.9930   45.2070 N   0  0  0  0  0  0  0  0  0  0  0  0
   57.9990   28.1750   44.4310 C   0  0  0  0  0  0  0  0  0  0  0  0
   58.5200   29.6020   44.6070 C   0  0  0  0  0  0  0  0  0  0  0  0
   57.8720   30.2560   45.7420 N   0  0  0  0  0  0  0  0  0  0  0  0
   58.6310   31.0940   46.6240 C   0  0  0  0  0  0  0  0  0  0  0  0
   58.8140   32.4520   46.3210 C   0  0  0  0  0  0  0  0  0  0  0  0
   58.3040   32.9990   45.1250 C   0  0  0  0  0  0  0  0  0  0  0  0
   58.5290   34.3350   44.8030 C   0  0  0  0  0  0  0  0  0  0  0  0
   59.2750   35.1400   45.6550 C   0  0  0  0  0  0  0  0  0  0  0  0
   59.7830   34.6230   46.8470 C   0  0  0  0  0  0  0  0  0  0  0  0
   59.5370   33.2770   47.2240 C   0  0  0  0  0  0  0  0  0  0  0  0
   59.9970   32.7590   48.4210 N   0  0  0  0  0  0  0  0  0  0  0  0
   60.4930   33.6690   49.4790 C   0  0  0  0  0  0  0  0  0  0  0  0
   59.9700   31.3940   48.6390 C   0  0  0  0  0  0  0  0  0  0  0  0
   60.6610   30.7950   49.7250 C   0  0  0  0  0  0  0  0  0  0  0  0
   60.5820   29.4210   49.9600 C   0  0  0  0  0  0  0  0  0  0  0  0
   61.5190   28.6490   51.4350 Br  0  0  0  0  0  0  0  0  0  0  0  0
   59.8290   28.6100   49.1170 C   0  0  0  0  0  0  0  0  0  0  0  0
   59.1740   29.1620   48.0190 C   0  0  0  0  0  0  0  0  0  0  0  0
   59.2510   30.5460   47.7560 C   0  0  0  0  0  0  0  0  0  0  0  0
   57.4020   22.6744   43.5400 H   0  0  0  0  0  0  0  0  0  0  0  0
   55.8361   22.7712   42.6652 H   0  0  0  0  0  0  0  0  0  0  0  0
   56.9534   24.1777   42.6652 H   0  0  0  0  0  0  0  0  0  0  0  0
   54.8077   23.8739   44.3742 H   0  0  0  0  0  0  0  0  0  0  0  0
   56.1664   23.2193   45.3661 H   0  0  0  0  0  0  0  0  0  0  0  0
   56.6390   25.8360   44.0090 H   0  0  0  0  0  0  0  0  0  0  0  0
   56.4429   27.5592   47.2382 H   0  0  0  0  0  0  0  0  0  0  0  0
   58.0620   27.0817   46.5708 H   0  0  0  0  0  0  0  0  0  0  0  0
   56.0370   27.5600   44.5910 H   0  0  0  0  0  0  0  0  0  0  0  0
   58.7598   27.4631   44.7837 H   0  0  0  0  0  0  0  0  0  0  0  0
   57.7867   27.9961   43.3666 H   0  0  0  0  0  0  0  0  0  0  0  0
   59.6057   29.5704   44.7810 H   0  0  0  0  0  0  0  0  0  0  0  0
   58.2942   30.1742   43.6951 H   0  0  0  0  0  0  0  0  0  0  0  0
   56.8440   30.1600   45.9030 H   0  0  0  0  0  0  0  0  0  0  0  0
   57.7229   32.3641   44.4400 H   0  0  0  0  0  0  0  0  0  0  0  0
   58.1158   34.7533   43.8734 H   0  0  0  0  0  0  0  0  0  0  0  0
   59.4660   36.1900   45.3884 H   0  0  0  0  0  0  0  0  0  0  0  0
   60.3835   35.2685   47.5048 H   0  0  0  0  0  0  0  0  0  0  0  0
   60.2612   33.2438   50.4667 H   0  0  0  0  0  0  0  0  0  0  0  0
   61.5817   33.7897   49.3781 H   0  0  0  0  0  0  0  0  0  0  0  0
   60.0045   34.6494   49.3781 H   0  0  0  0  0  0  0  0  0  0  0  0
   61.2687   31.4238   50.3923 H   0  0  0  0  0  0  0  0  0  0  0  0
   59.7509   27.5313   49.3180 H   0  0  0  0  0  0  0  0  0  0  0  0
   58.5906   28.5123   47.3499 H   0  0  0  0  0  0  0  0  0  0  0  0
  1  2  1  0
  2  3  1  0
  3  4  1  0
  4  5  2  0
  4  6  1  0
  6  7  1  0
  7  8  1  0
  8  9  1  0
  9 10  1  0
 10 11  1  0
 11 12  2  0
 12 13  1  0
 13 14  2  0
 14 15  1  0
 15 16  2  0
 16 17  1  0
 17 18  2  0
 18 19  1  0
 18 20  1  0
 20 21  2  0
 21 22  1  0
 22 23  1  0
 22 24  2  0
 24 25  1  0
 25 26  2  0
 26 11  1  0
 17 12  1  0
 26 20  1  0
  1 27  1  0
  1 28  1  0
  1 29  1  0
  2 30  1  0
  2 31  1  0
  3 32  1  0
  6 33  1  0
  6 34  1  0
  7 35  1  0
  8 36  1  0
  8 37  1  0
  9 38  1  0
  9 39  1  0
 10 40  1  0
 13 41  1  0
 14 42  1  0
 15 43  1  0
 16 44  1  0
 19 45  1  0
 19 46  1  0
 19 47  1  0
 21 48  1  0
 24 49  1  0
 25 50  1  0
M  CHG  1  18   1
M  END
>  <UniqueID>  (22) 
22

>  <SMILES>  (22) 
CCNC(=O)CNCCNc1c2ccccc2[n+](C)c2cc(Br)ccc12

>  <Energy>  (22) 
69.11995248297669

>  <Genealogy>  (22) 
CCNC(=O)CNCCNc1c2ccccc2[n+](C)c2cc(Br)ccc12 (3D coordinates assigned)
CCNC(=O)CNCCNc1c2ccccc2[n+](C)c2cc(Br)ccc12 (optimized conformer: 69.11995248297669 kcal/mol)

>  <smiles>  (22) 
CCNC(=O)CNCCNc1c2ccccc2[n+](C)c2cc(Br)ccc12

>  <score_type>  (22) 
oracle

>  <origin>  (22) 
adg

>  <m_score__min__energy>  (22) 
-6.5300000000000002

>  <m_primary>  (22) 
energy

$$$$
23:0
     RDKit          3D

 55 58  0  0  0  0  0  0  0  0999 V2000
   57.4000   31.5890   42.3020 C   0  0  0  0  0  0  0  0  0  0  0  0
   56.7810   31.1540   43.6280 C   0  0  0  0  0  0  0  0  0  0  0  0
   56.2460   29.7220   43.5480 C   0  0  0  0  0  0  0  0  0  0  0  0
   55.9010   29.2360   44.8930 N   0  0  0  0  0  0  0  0  0  0  0  0
   56.8520   28.2280   45.3940 C   0  0  0  0  0  0  0  0  0  0  0  0
   58.2520   28.3940   44.7690 C   0  0  0  0  0  0  0  0  0  0  0  0
   59.3590   28.5280   45.8240 C   0  0  0  0  0  0  0  0  0  0  0  0
   58.9840   27.8780   47.1620 C   0  0  0  0  0  0  0  0  0  0  0  0
   58.6080   28.9070   48.1300 N   0  0  0  0  0  0  0  0  0  0  0  0
   59.5000   29.9880   48.4380 C   0  0  0  0  0  0  0  0  0  0  0  0
   59.3990   31.1950   47.7570 C   0  0  0  0  0  0  0  0  0  0  0  0
   60.2180   32.2650   48.0710 C   0  0  0  0  0  0  0  0  0  0  0  0
   61.1400   32.2100   49.0830 N   0  0  0  0  0  0  0  0  0  0  0  0
   61.8740   33.4260   49.4790 C   0  0  0  0  0  0  0  0  0  0  0  0
   61.3610   30.9900   49.7060 C   0  0  0  0  0  0  0  0  0  0  0  0
   62.4210   30.8070   50.6280 C   0  0  0  0  0  0  0  0  0  0  0  0
   62.6260   29.5760   51.2520 C   0  0  0  0  0  0  0  0  0  0  0  0
   61.8010   28.4940   50.9630 C   0  0  0  0  0  0  0  0  0  0  0  0
   60.7670   28.6280   50.0410 C   0  0  0  0  0  0  0  0  0  0  0  0
   60.5260   29.8610   49.4040 C   0  0  0  0  0  0  0  0  0  0  0  0
   59.8740   33.3690   47.1550 C   0  0  0  0  0  0  0  0  0  0  0  0
   60.4720   34.5780   46.9990 N   0  0  0  0  0  0  0  0  0  0  0  0
   60.0230   35.4360   46.0360 C   0  0  0  0  0  0  0  0  0  0  0  0
   58.9600   35.0650   45.1850 C   0  0  0  0  0  0  0  0  0  0  0  0
   58.3630   33.8020   45.3260 C   0  0  0  0  0  0  0  0  0  0  0  0
   58.8470   32.9660   46.3280 C   0  0  0  0  0  0  0  0  0  0  0  0
   58.4970   31.5970   46.6720 C   0  0  0  0  0  0  0  0  0  0  0  0
   57.6040   30.8960   46.1270 O   0  0  0  0  0  0  0  0  0  0  0  0
   58.2857   32.2114   42.4975 H   0  0  0  0  0  0  0  0  0  0  0  0
   57.6966   30.6997   41.7265 H   0  0  0  0  0  0  0  0  0  0  0  0
   56.6638   32.1694   41.7265 H   0  0  0  0  0  0  0  0  0  0  0  0
   57.5470   31.2070   44.4157 H   0  0  0  0  0  0  0  0  0  0  0  0
   55.9411   31.8265   43.8566 H   0  0  0  0  0  0  0  0  0  0  0  0
   55.3479   29.7040   42.9131 H   0  0  0  0  0  0  0  0  0  0  0  0
   57.0214   29.0712   43.1176 H   0  0  0  0  0  0  0  0  0  0  0  0
   55.8660   30.0480   45.5550 H   0  0  0  0  0  0  0  0  0  0  0  0
   56.9361   28.3308   46.4860 H   0  0  0  0  0  0  0  0  0  0  0  0
   56.4714   27.2340   45.1162 H   0  0  0  0  0  0  0  0  0  0  0  0
   58.4654   27.5138   44.1447 H   0  0  0  0  0  0  0  0  0  0  0  0
   58.2437   29.3205   44.1762 H   0  0  0  0  0  0  0  0  0  0  0  0
   60.2701   28.0449   45.4413 H   0  0  0  0  0  0  0  0  0  0  0  0
   59.5141   29.6013   46.0081 H   0  0  0  0  0  0  0  0  0  0  0  0
   58.1361   27.1940   47.0097 H   0  0  0  0  0  0  0  0  0  0  0  0
   59.8497   27.3192   47.5471 H   0  0  0  0  0  0  0  0  0  0  0  0
   57.8660   28.6660   48.8240 H   0  0  0  0  0  0  0  0  0  0  0  0
   61.9126   33.4899   50.5765 H   0  0  0  0  0  0  0  0  0  0  0  0
   62.8974   33.3835   49.0780 H   0  0  0  0  0  0  0  0  0  0  0  0
   61.3596   34.3117   49.0780 H   0  0  0  0  0  0  0  0  0  0  0  0
   63.0925   31.6481   50.8553 H   0  0  0  0  0  0  0  0  0  0  0  0
   63.4451   29.4604   51.9770 H   0  0  0  0  0  0  0  0  0  0  0  0
   61.9663   27.5292   51.4648 H   0  0  0  0  0  0  0  0  0  0  0  0
   60.1310   27.7615   49.8072 H   0  0  0  0  0  0  0  0  0  0  0  0
   60.4935   36.4238   45.9228 H   0  0  0  0  0  0  0  0  0  0  0  0
   58.6006   35.7626   44.4142 H   0  0  0  0  0  0  0  0  0  0  0  0
   57.5413   33.4843   44.6674 H   0  0  0  0  0  0  0  0  0  0  0  0
  1  2  1  0
  2  3  1  0
  3  4  1  0
  4  5  1  0
  5  6  1  0
  6  7  1  0
  7  8  1  0
  8  9  1  0
  9 10  1  0
 10 11  2  0
 11 12  1  0
 12 13  2  0
 13 14  1  0
 13 15  1  0
 15 16  2  0
 16 17  1  0
 17 18  2  0
 18 19  1  0
 19 20  2  0
 12 21  1  0
 21 22  2  0
 22 23  1  0
 23 24  2  0
 24 25  1  0
 25 26  2  0
 26 27  1  0
 27 28  2  0
 20 10  1  0
 26 21  1  0
 27 11  1  0
 20 15  1  0
  1 29  1  0
  1 30  1  0
  1 31  1  0
  2 32  1  0
  2 33  1  0
  3 34  1  0
  3 35  1  0
  4 36  1  0
  5 37  1  0
  5 38  1  0
  6 39  1  0
  6 40  1  0
  7 41  1  0
  7 42  1  0
  8 43  1  0
  8 44  1  0
  9 45  1  0
 14 46  1  0
 14 47  1  0
 14 48  1  0
 16 49  1  0
 17 50  1  0
 18 51  1  0
 19 52  1  0
 23 53  1  0
 24 54  1  0
 25 55  1  0
M  CHG  1  13   1
M  END
>  <UniqueID>  (23) 
23

>  <SMILES>  (23) 
CCCNCCCCNc1c2c([n+](C)c3ccccc13)-c1ncccc1C2=O

>  <Energy>  (23) 
103.01572606506556

>  <Genealogy>  (23) 
CCCNCCCCNc1c2c([n+](C)c3ccccc13)-c1ncccc1C2=O (3D coordinates assigned)
CCCNCCCCNc1c2c([n+](C)c3ccccc13)-c1ncccc1C2=O (nonaromatic ring conformer: 103.01572606506556 kcal/mol)

>  <smiles>  (23) 
CCCNCCCCNc1c2c([n+](C)c3ccccc13)-c1ncccc1C2=O

>  <score_type>  (23) 
oracle

>  <origin>  (23) 
adg

>  <m_score__min__energy>  (23) 
-6.9800000000000004

>  <m_primary>  (23) 
energy

$$$$
24:0
     RDKit          3D

 73 75  0  0  0  0  0  0  0  0999 V2000
   60.3100   30.0220   47.4570 C   0  0  0  0  0  0  0  0  0  0  0  0
   59.0630   29.9680   48.3400 C   0  0  0  0  0  0  0  0  0  0  0  0
   59.4090   30.1890   49.7630 N   0  0  0  0  0  0  0  0  0  0  0  0
   60.6780   29.5170   50.1290 C   0  0  0  0  0  0  0  0  0  0  0  0
   60.8320   29.2360   51.6350 C   0  0  0  0  0  0  0  0  0  0  0  0
   58.2690   29.8650   50.6540 C   0  0  0  0  0  0  0  0  0  0  0  0
   58.1090   30.8720   51.7160 N   0  0  0  0  0  0  0  0  0  0  0  0
   56.7980   30.7380   52.3760 C   0  0  0  0  0  0  0  0  0  0  0  0
   56.8750   31.1570   53.8490 C   0  0  0  0  0  0  0  0  0  0  0  0
   57.6780   30.2630   54.6030 O   0  0  0  0  0  0  0  0  0  0  0  0
   59.0360   30.6710   54.5940 C   0  0  0  0  0  0  0  0  0  0  0  0
   59.1000   32.1700   54.3490 C   0  0  0  0  0  0  0  0  0  0  0  0
   59.8660   32.4120   53.1920 O   0  0  0  0  0  0  0  0  0  0  0  0
   59.7680   33.7690   52.8260 C   0  0  0  0  0  0  0  0  0  0  0  0
   59.2820   33.8670   51.3740 C   0  0  0  0  0  0  0  0  0  0  0  0
   59.6120   32.6630   50.5750 N   0  0  0  0  0  0  0  0  0  0  0  0
   60.5260   32.9730   49.4780 C   0  0  0  0  0  0  0  0  0  0  0  0
   61.9300   32.8790   49.6790 C   0  0  0  0  0  0  0  0  0  0  0  0
   62.8170   33.1820   48.6010 C   0  0  0  0  0  0  0  0  0  0  0  0
   62.3190   33.7160   47.4260 N   0  0  0  0  0  0  0  0  0  0  0  0
   63.2400   34.1870   46.3600 C   0  0  0  0  0  0  0  0  0  0  0  0
   60.9560   33.7990   47.2090 C   0  0  0  0  0  0  0  0  0  0  0  0
   60.4300   34.3130   45.9910 C   0  0  0  0  0  0  0  0  0  0  0  0
   59.0660   34.3050   45.7200 C   0  0  0  0  0  0  0  0  0  0  0  0
   58.1810   33.8040   46.6570 C   0  0  0  0  0  0  0  0  0  0  0  0
   58.6510   33.3490   47.8850 C   0  0  0  0  0  0  0  0  0  0  0  0
   60.0350   33.3670   48.2030 C   0  0  0  0  0  0  0  0  0  0  0  0
   64.3280   32.9970   48.7810 C   0  0  0  0  0  0  0  0  0  0  0  0
   64.7560   32.2310   50.0300 C   0  0  0  0  0  0  0  0  0  0  0  0
   63.9520   32.6980   51.2220 C   0  0  0  0  0  0  0  0  0  0  0  0
   62.4870   32.3480   51.0040 C   0  0  0  0  0  0  0  0  0  0  0  0
   61.2074   30.0609   48.0919 H   0  0  0  0  0  0  0  0  0  0  0  0
   60.3487   29.1247   46.8219 H   0  0  0  0  0  0  0  0  0  0  0  0
   60.2710   30.9193   46.8219 H   0  0  0  0  0  0  0  0  0  0  0  0
   58.3589   30.7484   48.0158 H   0  0  0  0  0  0  0  0  0  0  0  0
   58.6071   28.9718   48.2413 H   0  0  0  0  0  0  0  0  0  0  0  0
   60.7278   28.5581   49.5923 H   0  0  0  0  0  0  0  0  0  0  0  0
   61.4910   30.2038   49.8509 H   0  0  0  0  0  0  0  0  0  0  0  0
   60.3812   30.0586   52.2095 H   0  0  0  0  0  0  0  0  0  0  0  0
   60.3248   28.2927   51.8857 H   0  0  0  0  0  0  0  0  0  0  0  0
   61.9001   29.1560   51.8857 H   0  0  0  0  0  0  0  0  0  0  0  0
   57.3470   29.8279   50.0552 H   0  0  0  0  0  0  0  0  0  0  0  0
   58.4682   28.8928   51.1284 H   0  0  0  0  0  0  0  0  0  0  0  0
   58.8420   30.6830   52.4400 H   0  0  0  0  0  0  0  0  0  0  0  0
   56.0683   31.3779   51.8583 H   0  0  0  0  0  0  0  0  0  0  0  0
   56.4898   29.6831   52.3289 H   0  0  0  0  0  0  0  0  0  0  0  0
   57.3086   32.1660   53.9113 H   0  0  0  0  0  0  0  0  0  0  0  0
   55.8571   31.1415   54.2657 H   0  0  0  0  0  0  0  0  0  0  0  0
   59.4984   30.4356   55.5640 H   0  0  0  0  0  0  0  0  0  0  0  0
   59.5785   30.1404   53.7976 H   0  0  0  0  0  0  0  0  0  0  0  0
   58.0830   32.5646   54.2075 H   0  0  0  0  0  0  0  0  0  0  0  0
   59.5631   32.6689   55.2131 H   0  0  0  0  0  0  0  0  0  0  0  0
   59.0523   34.2778   53.4885 H   0  0  0  0  0  0  0  0  0  0  0  0
   60.7537   34.2485   52.9186 H   0  0  0  0  0  0  0  0  0  0  0  0
   58.1899   33.9982   51.3771 H   0  0  0  0  0  0  0  0  0  0  0  0
   59.7946   34.7227   50.9104 H   0  0  0  0  0  0  0  0  0  0  0  0
   58.7360   32.2450   50.1890 H   0  0  0  0  0  0  0  0  0  0  0  0
   59.9520   31.8770   51.1690 H   0  0  0  0  0  0  0  0  0  0  0  0
   64.1300   34.6421   46.8191 H   0  0  0  0  0  0  0  0  0  0  0  0
   63.5450   33.3342   45.7357 H   0  0  0  0  0  0  0  0  0  0  0  0
   62.7271   34.9335   45.7357 H   0  0  0  0  0  0  0  0  0  0  0  0
   61.1214   34.7282   45.2430 H   0  0  0  0  0  0  0  0  0  0  0  0
   58.6919   34.6963   44.7624 H   0  0  0  0  0  0  0  0  0  0  0  0
   57.1051   33.7652   46.4314 H   0  0  0  0  0  0  0  0  0  0  0  0
   57.9342   32.9666   48.6265 H   0  0  0  0  0  0  0  0  0  0  0  0
   64.7090   32.4534   47.9038 H   0  0  0  0  0  0  0  0  0  0  0  0
   64.7432   34.0095   48.8927 H   0  0  0  0  0  0  0  0  0  0  0  0
   64.5858   31.1555   49.8742 H   0  0  0  0  0  0  0  0  0  0  0  0
   65.8238   32.4154   50.2192 H   0  0  0  0  0  0  0  0  0  0  0  0
   64.3183   32.1992   52.1314 H   0  0  0  0  0  0  0  0  0  0  0  0
   64.0593   33.7867   51.3372 H   0  0  0  0  0  0  0  0  0  0  0  0
   62.3842   31.2528   51.0126 H   0  0  0  0  0  0  0  0  0  0  0  0
   61.9135   32.8233   51.8135 H   0  0  0  0  0  0  0  0  0  0  0  0
  1  2  1  0
  2  3  1  0
  3  4  1  0
  4  5  1  0
  3  6  1  0
  6  7  1  0
  7  8  1  0
  8  9  1  0
  9 10  1  0
 10 11  1  0
 11 12  1  0
 12 13  1  0
 13 14  1  0
 14 15  1  0
 15 16  1  0
 16 17  1  0
 17 18  2  0
 18 19  1  0
 19 20  2  0
 20 21  1  0
 20 22  1  0
 22 23  2  0
 23 24  1  0
 24 25  2  0
 25 26  1  0
 26 27  2  0
 19 28  1  0
 28 29  1  0
 29 30  1  0
 30 31  1  0
 27 17  1  0
 31 18  1  0
 27 22  1  0
  1 32  1  0
  1 33  1  0
  1 34  1  0
  2 35  1  0
  2 36  1  0
  4 37  1  0
  4 38  1  0
  5 39  1  0
  5 40  1  0
  5 41  1  0
  6 42  1  0
  6 43  1  0
  7 44  1  0
  8 45  1  0
  8 46  1  0
  9 47  1  0
  9 48  1  0
 11 49  1  0
 11 50  1  0
 12 51  1  0
 12 52  1  0
 14 53  1  0
 14 54  1  0
 15 55  1  0
 15 56  1  0
 16 57  1  0
 16 58  1  0
 21 59  1  0
 21 60  1  0
 21 61  1  0
 23 62  1  0
 24 63  1  0
 25 64  1  0
 26 65  1  0
 28 66  1  0
 28 67  1  0
 29 68  1  0
 29 69  1  0
 30 70  1  0
 30 71  1  0
 31 72  1  0
 31 73  1  0
M  CHG  2  16   1  20   1
M  END
>  <UniqueID>  (24) 
24

>  <SMILES>  (24) 
CCN(CC)CNCCOCCOCC[NH2+]c1c2c([n+](C)c3ccccc13)CCCC2

>  <Energy>  (24) 
96.08558017775414

>  <Genealogy>  (24) 
CCN(CC)CNCCOCCOCC[NH2+]c1c2c([n+](C)c3ccccc13)CCCC2 (protonated)
CCN(CC)CNCCOCCOCC[NH2+]c1c2c([n+](C)c3ccccc13)CCCC2 (3D coordinates assigned)
CCN(CC)CNCCOCCOCC[NH2+]c1c2c([n+](C)c3ccccc13)CCCC2 (nonaromatic ring conformer: 96.08558017775414 kcal/mol)

>  <smiles>  (24) 
CCN(CC)CNCCOCCOCCNc1c2c([n+](C)c3ccccc13)CCCC2

>  <score_type>  (24) 
oracle

>  <origin>  (24) 
adg

>  <m_score__min__energy>  (24) 
-3.25

>  <m_primary>  (24) 
energy

$$$$
25:0
     RDKit          3D

 45 47  0  0  0  0  0  0  0  0999 V2000
   58.0330   32.3310   41.3580 C   0  0  0  0  0  0  0  0  0  0  0  0
   57.3880   31.7420   42.6160 C   0  0  0  0  0  0  0  0  0  0  0  0
   56.8240   30.4020   42.3790 N   0  0  0  0  0  0  0  0  0  0  0  0
   56.0440   29.9020   43.5220 C   0  0  0  0  0  0  0  0  0  0  0  0
   56.9740   29.2610   44.5560 C   0  0  0  0  0  0  0  0  0  0  0  0
   58.3610   29.6610   44.3290 N   0  0  0  0  0  0  0  0  0  0  0  0
   59.2610   29.8190   45.4320 C   0  0  0  0  0  0  0  0  0  0  0  0
   59.9040   30.9300   45.7050 O   0  0  0  0  0  0  0  0  0  0  0  0
   60.5840   30.7200   46.8130 C   0  0  0  0  0  0  0  0  0  0  0  0
   61.4450   31.7500   47.4430 C   0  0  0  0  0  0  0  0  0  0  0  0
   62.8430   31.5890   47.4240 C   0  0  0  0  0  0  0  0  0  0  0  0
   63.6750   32.5460   48.0110 C   0  0  0  0  0  0  0  0  0  0  0  0
   63.1240   33.6740   48.6220 C   0  0  0  0  0  0  0  0  0  0  0  0
   61.7380   33.8470   48.6470 C   0  0  0  0  0  0  0  0  0  0  0  0
   60.9010   32.8920   48.0610 C   0  0  0  0  0  0  0  0  0  0  0  0
   60.3980   29.4660   47.2840 N   0  0  0  0  0  0  0  0  0  0  0  0
   59.5640   28.8820   46.4030 C   0  0  0  0  0  0  0  0  0  0  0  0
   59.1140   27.4770   46.4930 C   0  0  0  0  0  0  0  0  0  0  0  0
   59.9450   26.4450   46.0250 C   0  0  0  0  0  0  0  0  0  0  0  0
   59.5200   25.1140   46.0890 C   0  0  0  0  0  0  0  0  0  0  0  0
   58.2610   24.8040   46.6070 C   0  0  0  0  0  0  0  0  0  0  0  0
   57.4200   25.8250   47.0560 C   0  0  0  0  0  0  0  0  0  0  0  0
   57.8410   27.1580   46.9950 C   0  0  0  0  0  0  0  0  0  0  0  0
   58.8165   33.0465   41.6483 H   0  0  0  0  0  0  0  0  0  0  0  0
   58.4785   31.5216   40.7611 H   0  0  0  0  0  0  0  0  0  0  0  0
   57.2673   32.8480   40.7611 H   0  0  0  0  0  0  0  0  0  0  0  0
   58.1514   31.6702   43.4047 H   0  0  0  0  0  0  0  0  0  0  0  0
   56.5638   32.4064   42.9146 H   0  0  0  0  0  0  0  0  0  0  0  0
   57.5960   29.7270   42.1670 H   0  0  0  0  0  0  0  0  0  0  0  0
   55.5045   30.7396   43.9882 H   0  0  0  0  0  0  0  0  0  0  0  0
   55.3282   29.1467   43.1655 H   0  0  0  0  0  0  0  0  0  0  0  0
   56.6674   29.5802   45.5630 H   0  0  0  0  0  0  0  0  0  0  0  0
   56.9038   28.1673   44.4615 H   0  0  0  0  0  0  0  0  0  0  0  0
   58.7140   29.7920   43.3560 H   0  0  0  0  0  0  0  0  0  0  0  0
   63.2840   30.7032   46.9435 H   0  0  0  0  0  0  0  0  0  0  0  0
   64.7664   32.4103   47.9917 H   0  0  0  0  0  0  0  0  0  0  0  0
   63.7809   34.4261   49.0834 H   0  0  0  0  0  0  0  0  0  0  0  0
   61.3042   34.7359   49.1284 H   0  0  0  0  0  0  0  0  0  0  0  0
   59.8104   33.0341   48.0831 H   0  0  0  0  0  0  0  0  0  0  0  0
   60.8230   29.0190   48.1260 H   0  0  0  0  0  0  0  0  0  0  0  0
   60.9337   26.6849   45.6067 H   0  0  0  0  0  0  0  0  0  0  0  0
   60.1791   24.3096   45.7304 H   0  0  0  0  0  0  0  0  0  0  0  0
   57.9314   23.7559   46.6615 H   0  0  0  0  0  0  0  0  0  0  0  0
   56.4256   25.5808   47.4580 H   0  0  0  0  0  0  0  0  0  0  0  0
   57.1724   27.9598   47.3416 H   0  0  0  0  0  0  0  0  0  0  0  0
  1  2  1  0
  2  3  1  0
  3  4  1  0
  4  5  1  0
  5  6  1  0
  6  7  1  0
  7  8  1  0
  8  9  1  0
  9 10  1  0
 10 11  2  0
 11 12  1  0
 12 13  2  0
 13 14  1  0
 14 15  2  0
  9 16  2  0
 16 17  1  0
 17 18  1  0
 18 19  2  0
 19 20  1  0
 20 21  2  0
 21 22  1  0
 22 23  2  0
 17  7  2  0
 23 18  1  0
 15 10  1  0
  1 24  1  0
  1 25  1  0
  1 26  1  0
  2 27  1  0
  2 28  1  0
  3 29  1  0
  4 30  1  0
  4 31  1  0
  5 32  1  0
  5 33  1  0
  6 34  1  0
 11 35  1  0
 12 36  1  0
 13 37  1  0
 14 38  1  0
 15 39  1  0
 16 40  1  0
 19 41  1  0
 20 42  1  0
 21 43  1  0
 22 44  1  0
 23 45  1  0
M  CHG  1  16   1
M  END
>  <UniqueID>  (25) 
25

>  <SMILES>  (25) 
CCNCCNc1oc(-c2ccccc2)[nH+]c1-c1ccccc1

>  <Energy>  (25) 
78.98639189736262

>  <Genealogy>  (25) 
CCNCCNc1oc(-c2ccccc2)[nH+]c1-c1ccccc1 (protonated)
CCNCCNc1oc(-c2ccccc2)[nH+]c1-c1ccccc1 (3D coordinates assigned)
CCNCCNc1oc(-c2ccccc2)[nH+]c1-c1ccccc1 (optimized conformer: 78.98639189736262 kcal/mol)

>  <smiles>  (25) 
CCNCCNc1oc(-c2ccccc2)nc1-c1ccccc1

>  <score_type>  (25) 
oracle

>  <origin>  (25) 
adg

>  <m_score__min__energy>  (25) 
-5.3899999999999997

>  <m_primary>  (25) 
energy

$$$$
