0:0
     RDKit          3D

 46 48  0  0  0  0  0  0  0  0999 V2000
   63.0640   33.8340   46.7250 C   0  0  0  0  0  0  0  0  0  0  0  0
   63.2840   32.5590   47.5350 C   0  0  0  0  0  0  0  0  0  0  0  0
   62.2490   31.4870   47.1740 C   0  0  0  0  0  0  0  0  0  0  0  0
   61.1450   31.4410   48.2120 C   0  0  0  0  0  0  0  0  0  0  0  0
   60.9900   32.5320   49.0140 N   0  0  0  0  0  0  0  0  0  0  0  0
   60.0240   32.5890   49.9660 C   0  0  0  0  0  0  0  0  0  0  0  0
   59.8940   33.7230   50.7860 C   0  0  0  0  0  0  0  0  0  0  0  0
   58.9020   33.7720   51.7670 C   0  0  0  0  0  0  0  0  0  0  0  0
   58.0330   32.6920   51.9400 C   0  0  0  0  0  0  0  0  0  0  0  0
   58.1510   31.5610   51.1290 C   0  0  0  0  0  0  0  0  0  0  0  0
   59.1480   31.5020   50.1350 C   0  0  0  0  0  0  0  0  0  0  0  0
   59.2990   30.3880   49.2950 C   0  0  0  0  0  0  0  0  0  0  0  0
   58.5280   29.3970   49.4380 O   0  0  0  0  0  0  0  0  0  0  0  0
   60.2790   30.3700   48.3270 N   0  0  0  0  0  0  0  0  0  0  0  0
   60.4030   29.1690   47.4720 C   0  0  0  0  0  0  0  0  0  0  0  0
   59.7190   29.4010   46.1200 C   0  0  0  0  0  0  0  0  0  0  0  0
   58.3510   29.8810   46.3060 N   0  0  0  0  0  0  0  0  0  0  0  0
   57.7670   31.0090   45.6390 C   0  0  0  0  0  0  0  0  0  0  0  0
   56.7810   30.8210   44.8790 O   0  0  0  0  0  0  0  0  0  0  0  0
   58.2990   32.3760   45.7980 C   0  0  0  0  0  0  0  0  0  0  0  0
   58.3850   32.9500   47.0770 C   0  0  0  0  0  0  0  0  0  0  0  0
   58.8830   34.2470   47.2340 C   0  0  0  0  0  0  0  0  0  0  0  0
   59.3130   34.9730   46.1200 C   0  0  0  0  0  0  0  0  0  0  0  0
   59.7940   36.2310   46.2740 F   0  0  0  0  0  0  0  0  0  0  0  0
   59.2530   34.3990   44.8470 C   0  0  0  0  0  0  0  0  0  0  0  0
   58.7550   33.1020   44.6850 C   0  0  0  0  0  0  0  0  0  0  0  0
   62.9176   34.6826   47.4095 H   0  0  0  0  0  0  0  0  0  0  0  0
   63.9430   34.0218   46.0909 H   0  0  0  0  0  0  0  0  0  0  0  0
   62.1729   33.7164   46.0909 H   0  0  0  0  0  0  0  0  0  0  0  0
   64.2914   32.1701   47.3253 H   0  0  0  0  0  0  0  0  0  0  0  0
   63.1762   32.8016   48.6025 H   0  0  0  0  0  0  0  0  0  0  0  0
   61.8125   31.7219   46.1920 H   0  0  0  0  0  0  0  0  0  0  0  0
   62.7485   30.5074   47.1436 H   0  0  0  0  0  0  0  0  0  0  0  0
   61.6340   33.3490   48.8970 H   0  0  0  0  0  0  0  0  0  0  0  0
   60.5767   34.5754   50.6543 H   0  0  0  0  0  0  0  0  0  0  0  0
   58.8044   34.6627   52.4050 H   0  0  0  0  0  0  0  0  0  0  0  0
   57.2546   32.7324   52.7162 H   0  0  0  0  0  0  0  0  0  0  0  0
   57.4634   30.7135   51.2667 H   0  0  0  0  0  0  0  0  0  0  0  0
   61.4683   28.9508   47.3062 H   0  0  0  0  0  0  0  0  0  0  0  0
   59.9168   28.3209   47.9763 H   0  0  0  0  0  0  0  0  0  0  0  0
   60.2896   30.1497   45.5509 H   0  0  0  0  0  0  0  0  0  0  0  0
   59.6867   28.4472   45.5729 H   0  0  0  0  0  0  0  0  0  0  0  0
   58.0595   32.3773   47.9580 H   0  0  0  0  0  0  0  0  0  0  0  0
   58.9364   34.6969   48.2364 H   0  0  0  0  0  0  0  0  0  0  0  0
   59.5980   34.9681   43.9712 H   0  0  0  0  0  0  0  0  0  0  0  0
   58.7203   32.6491   43.6832 H   0  0  0  0  0  0  0  0  0  0  0  0
  1  2  1  0
  2  3  1  0
  3  4  1  0
  4  5  2  0
  5  6  1  0
  6  7  2  0
  7  8  1  0
  8  9  2  0
  9 10  1  0
 10 11  2  0
 11 12  1  0
 12 13  2  0
 12 14  1  0
 14 15  1  0
 15 16  1  0
 16 17  1  0
 17 18  1  0
 18 19  2  0
 18 20  1  0
 20 21  2  0
 21 22  1  0
 22 23  2  0
 23 24  1  0
 23 25  1  0
 25 26  2  0
 14  4  1  0
 26 20  1  0
 11  6  1  0
  1 27  1  0
  1 28  1  0
  1 29  1  0
  2 30  1  0
  2 31  1  0
  3 32  1  0
  3 33  1  0
  5 34  1  0
  7 35  1  0
  8 36  1  0
  9 37  1  0
 10 38  1  0
 15 39  1  0
 15 40  1  0
 16 41  1  0
 16 42  1  0
 21 43  1  0
 22 44  1  0
 25 45  1  0
 26 46  1  0
M  CHG  2   5   1  17  -1
M  END
>  <UniqueID>  (1) 
1

>  <SMILES>  (1) 
CCCc1[nH+]c2ccccc2c(=O)n1CC[N-]C(=O)c1ccc(F)cc1

>  <Energy>  (1) 
54.02569792304441

>  <Genealogy>  (1) 
CCCc1[nH+]c2ccccc2c(=O)n1CC[N-]C(=O)c1ccc(F)cc1 (protonated)
CCCc1[nH+]c2ccccc2c(=O)n1CC[N-]C(=O)c1ccc(F)cc1 (3D coordinates assigned)
CCCc1[nH+]c2ccccc2c(=O)n1CC[N-]C(=O)c1ccc(F)cc1 (optimized conformer: 54.02569792304441 kcal/mol)

>  <smiles>  (1) 
CCCc1nc2ccccc2c(=O)n1CCNC(=O)c1ccc(F)cc1

>  <score_type>  (1) 
oracle

>  <origin>  (1) 
adg

>  <m_score__min__energy>  (1) 
-8.6099999999999994

>  <m_primary>  (1) 
energy

$$$$
1:0
     RDKit          3D

 59 61  0  0  0  0  0  0  0  0999 V2000
   59.6270   35.3990   45.6310 C   0  0  0  0  0  0  0  0  0  0  0  0
   59.4320   33.9150   45.6290 C   0  0  0  0  0  0  0  0  0  0  0  0
   58.4340   33.2560   44.9430 C   0  0  0  0  0  0  0  0  0  0  0  0
   58.6280   31.9250   45.2550 C   0  0  0  0  0  0  0  0  0  0  0  0
   57.7370   30.7830   44.8480 C   0  0  0  0  0  0  0  0  0  0  0  0
   58.4410   29.6620   44.1750 N   0  0  0  0  0  0  0  0  0  0  0  0
   59.5690   29.1160   44.9670 C   0  0  0  0  0  0  0  0  0  0  0  0
   59.1550   28.0610   46.0180 C   0  0  0  0  0  0  0  0  0  0  0  0
   57.9280   27.3030   45.6690 N   0  0  0  0  0  0  0  0  0  0  0  0
   57.9740   25.9270   46.2180 C   0  0  0  0  0  0  0  0  0  0  0  0
   56.7010   25.5330   46.9770 C   0  0  0  0  0  0  0  0  0  0  0  0
   55.5650   25.6510   46.1330 O   0  0  0  0  0  0  0  0  0  0  0  0
   55.1380   24.4250   45.5380 C   0  0  0  0  0  0  0  0  0  0  0  0
   55.4300   23.3170   46.5610 C   0  0  0  0  0  0  0  0  0  0  0  0
   53.6150   24.4360   45.2750 C   0  0  0  0  0  0  0  0  0  0  0  0
   55.9240   24.0780   44.2480 C   0  0  0  0  0  0  0  0  0  0  0  0
   57.7560   27.2260   44.2080 C   0  0  0  0  0  0  0  0  0  0  0  0
   57.5290   28.6230   43.6160 C   0  0  0  0  0  0  0  0  0  0  0  0
   59.6660   31.8000   46.1040 N   0  0  0  0  0  0  0  0  0  0  0  0
   60.1570   33.0080   46.3250 N   0  0  0  0  0  0  0  0  0  0  0  0
   61.2360   33.2520   47.2430 C   0  0  0  0  0  0  0  0  0  0  0  0
   62.5440   33.4300   46.7610 C   0  0  0  0  0  0  0  0  0  0  0  0
   63.5930   33.7050   47.6430 C   0  0  0  0  0  0  0  0  0  0  0  0
   63.3470   33.8110   49.0120 C   0  0  0  0  0  0  0  0  0  0  0  0
   62.0490   33.6520   49.5010 C   0  0  0  0  0  0  0  0  0  0  0  0
   60.9900   33.3840   48.6270 C   0  0  0  0  0  0  0  0  0  0  0  0
   59.3820   33.1570   49.3030 Cl  0  0  0  0  0  0  0  0  0  0  0  0
   59.6746   35.7612   46.6686 H   0  0  0  0  0  0  0  0  0  0  0  0
   60.5653   35.6462   45.1129 H   0  0  0  0  0  0  0  0  0  0  0  0
   58.7844   35.8802   45.1129 H   0  0  0  0  0  0  0  0  0  0  0  0
   57.6594   33.6915   44.2946 H   0  0  0  0  0  0  0  0  0  0  0  0
   57.2490   30.3891   45.7517 H   0  0  0  0  0  0  0  0  0  0  0  0
   57.0234   31.1887   44.1158 H   0  0  0  0  0  0  0  0  0  0  0  0
   58.8980   30.1150   43.3460 H   0  0  0  0  0  0  0  0  0  0  0  0
   60.2834   28.6492   44.2729 H   0  0  0  0  0  0  0  0  0  0  0  0
   60.0028   29.9608   45.5220 H   0  0  0  0  0  0  0  0  0  0  0  0
   59.9821   27.3448   46.1321 H   0  0  0  0  0  0  0  0  0  0  0  0
   58.9345   28.6091   46.9459 H   0  0  0  0  0  0  0  0  0  0  0  0
   58.1153   25.2232   45.3845 H   0  0  0  0  0  0  0  0  0  0  0  0
   58.8058   25.8911   46.9369 H   0  0  0  0  0  0  0  0  0  0  0  0
   56.7911   24.4917   47.3200 H   0  0  0  0  0  0  0  0  0  0  0  0
   56.5768   26.2054   47.8387 H   0  0  0  0  0  0  0  0  0  0  0  0
   55.3237   23.7204   47.5788 H   0  0  0  0  0  0  0  0  0  0  0  0
   54.7192   22.4897   46.4184 H   0  0  0  0  0  0  0  0  0  0  0  0
   56.4562   22.9474   46.4184 H   0  0  0  0  0  0  0  0  0  0  0  0
   53.0772   24.4399   46.2346 H   0  0  0  0  0  0  0  0  0  0  0  0
   53.3484   25.3361   44.7016 H   0  0  0  0  0  0  0  0  0  0  0  0
   53.3354   23.5399   44.7016 H   0  0  0  0  0  0  0  0  0  0  0  0
   56.8996   23.6473   44.5177 H   0  0  0  0  0  0  0  0  0  0  0  0
   55.3524   23.3486   43.6554 H   0  0  0  0  0  0  0  0  0  0  0  0
   56.0779   24.9918   43.6554 H   0  0  0  0  0  0  0  0  0  0  0  0
   58.6595   26.7863   43.7604 H   0  0  0  0  0  0  0  0  0  0  0  0
   56.8785   26.6006   43.9870 H   0  0  0  0  0  0  0  0  0  0  0  0
   57.6867   28.5701   42.5286 H   0  0  0  0  0  0  0  0  0  0  0  0
   56.5023   28.9209   43.8750 H   0  0  0  0  0  0  0  0  0  0  0  0
   62.7437   33.3524   45.6821 H   0  0  0  0  0  0  0  0  0  0  0  0
   64.6144   33.8381   47.2568 H   0  0  0  0  0  0  0  0  0  0  0  0
   64.1749   34.0197   49.7056 H   0  0  0  0  0  0  0  0  0  0  0  0
   61.8577   33.7380   50.5808 H   0  0  0  0  0  0  0  0  0  0  0  0
  1  2  1  0
  2  3  2  0
  3  4  1  0
  4  5  1  0
  5  6  1  0
  6  7  1  0
  7  8  1  0
  8  9  1  0
  9 10  1  0
 10 11  1  0
 11 12  1  0
 12 13  1  0
 13 14  1  0
 13 15  1  0
 13 16  1  0
  9 17  1  0
 17 18  1  0
  4 19  2  0
 19 20  1  0
 20 21  1  0
 21 22  2  0
 22 23  1  0
 23 24  2  0
 24 25  1  0
 25 26  2  0
 26 27  1  0
 20  2  1  0
 26 21  1  0
 18  6  1  0
  1 28  1  0
  1 29  1  0
  1 30  1  0
  3 31  1  0
  5 32  1  0
  5 33  1  0
  6 34  1  0
  7 35  1  0
  7 36  1  0
  8 37  1  0
  8 38  1  0
 10 39  1  0
 10 40  1  0
 11 41  1  0
 11 42  1  0
 14 43  1  0
 14 44  1  0
 14 45  1  0
 15 46  1  0
 15 47  1  0
 15 48  1  0
 16 49  1  0
 16 50  1  0
 16 51  1  0
 17 52  1  0
 17 53  1  0
 18 54  1  0
 18 55  1  0
 22 56  1  0
 23 57  1  0
 24 58  1  0
 25 59  1  0
M  CHG  1   6   1
M  END
>  <UniqueID>  (2) 
2

>  <SMILES>  (2) 
Cc1cc(C[NH+]2CCN(CCOC(C)(C)C)CC2)nn1-c1ccccc1Cl

>  <Energy>  (2) 
108.84662187708379

>  <Genealogy>  (2) 
Cc1cc(C[NH+]2CCN(CCOC(C)(C)C)CC2)nn1-c1ccccc1Cl (protonated)
Cc1cc(C[NH+]2CCN(CCOC(C)(C)C)CC2)nn1-c1ccccc1Cl (3D coordinates assigned)
Cc1cc(C[NH+]2CCN(CCOC(C)(C)C)CC2)nn1-c1ccccc1Cl (nonaromatic ring conformer: 108.84662187708379 kcal/mol)

>  <smiles>  (2) 
Cc1cc(CN2CCN(CCOC(C)(C)C)CC2)nn1-c1ccccc1Cl

>  <score_type>  (2) 
oracle

>  <origin>  (2) 
adg

>  <m_score__min__energy>  (2) 
-7

>  <m_primary>  (2) 
energy

$$$$
2:0
     RDKit          3D

 47 48  0  0  0  0  0  0  0  0999 V2000
   57.7660   27.7790   44.1760 C   0  0  0  0  0  0  0  0  0  0  0  0
   56.8370   28.2880   45.2740 C   0  0  0  0  0  0  0  0  0  0  0  0
   56.1320   29.4500   44.8390 O   0  0  0  0  0  0  0  0  0  0  0  0
   56.6760   30.4820   44.0580 C   0  0  0  0  0  0  0  0  0  0  0  0
   56.6470   30.4960   42.6420 C   0  0  0  0  0  0  0  0  0  0  0  0
   57.2250   31.5780   41.9360 C   0  0  0  0  0  0  0  0  0  0  0  0
   57.8120   32.6130   42.6080 N   0  0  0  0  0  0  0  0  0  0  0  0
   57.8270   32.5870   43.9630 C   0  0  0  0  0  0  0  0  0  0  0  0
   58.3620   33.4920   44.8440 C   0  0  0  0  0  0  0  0  0  0  0  0
   58.0990   32.9260   46.0910 C   0  0  0  0  0  0  0  0  0  0  0  0
   58.5050   33.5120   47.4100 C   0  0  0  0  0  0  0  0  0  0  0  0
   58.4080   32.5270   48.5020 N   0  0  0  0  0  0  0  0  0  0  0  0
   59.6910   32.3060   49.2070 C   0  0  0  0  0  0  0  0  0  0  0  0
   60.3600   30.9820   48.8000 C   0  0  0  0  0  0  0  0  0  0  0  0
   59.6570   30.4130   47.6200 N   0  0  0  0  0  0  0  0  0  0  0  0
   59.2140   29.0210   47.8620 C   0  0  0  0  0  0  0  0  0  0  0  0
   60.0230   28.3760   48.9860 C   0  0  0  0  0  0  0  0  0  0  0  0
   60.4870   30.4860   46.3970 C   0  0  0  0  0  0  0  0  0  0  0  0
   60.3750   29.2010   45.5750 C   0  0  0  0  0  0  0  0  0  0  0  0
   57.4470   31.7810   45.9650 O   0  0  0  0  0  0  0  0  0  0  0  0
   57.2840   31.5650   44.6840 C   0  0  0  0  0  0  0  0  0  0  0  0
   58.6438   27.2980   44.6322 H   0  0  0  0  0  0  0  0  0  0  0  0
   57.2304   27.0483   43.5521 H   0  0  0  0  0  0  0  0  0  0  0  0
   58.0935   28.6237   43.5521 H   0  0  0  0  0  0  0  0  0  0  0  0
   56.1127   27.5002   45.5283 H   0  0  0  0  0  0  0  0  0  0  0  0
   57.4409   28.5497   46.1554 H   0  0  0  0  0  0  0  0  0  0  0  0
   56.1763   29.6677   42.0921 H   0  0  0  0  0  0  0  0  0  0  0  0
   57.2015   31.5859   40.8363 H   0  0  0  0  0  0  0  0  0  0  0  0
   58.8759   34.4385   44.6202 H   0  0  0  0  0  0  0  0  0  0  0  0
   59.5453   33.8624   47.3384 H   0  0  0  0  0  0  0  0  0  0  0  0
   57.8216   34.3431   47.6387 H   0  0  0  0  0  0  0  0  0  0  0  0
   58.0070   31.6310   48.1350 H   0  0  0  0  0  0  0  0  0  0  0  0
   57.7170   32.9030   49.1930 H   0  0  0  0  0  0  0  0  0  0  0  0
   60.3733   33.1352   48.9682 H   0  0  0  0  0  0  0  0  0  0  0  0
   59.4787   32.2583   50.2853 H   0  0  0  0  0  0  0  0  0  0  0  0
   61.4138   31.1671   48.5447 H   0  0  0  0  0  0  0  0  0  0  0  0
   60.3047   30.2709   49.6375 H   0  0  0  0  0  0  0  0  0  0  0  0
   58.1501   29.0256   48.1416 H   0  0  0  0  0  0  0  0  0  0  0  0
   59.3682   28.4393   46.9412 H   0  0  0  0  0  0  0  0  0  0  0  0
   59.6205   28.6969   49.9581 H   0  0  0  0  0  0  0  0  0  0  0  0
   59.9556   27.2811   48.9046 H   0  0  0  0  0  0  0  0  0  0  0  0
   61.0754   28.6856   48.9046 H   0  0  0  0  0  0  0  0  0  0  0  0
   60.1490   31.3346   45.7841 H   0  0  0  0  0  0  0  0  0  0  0  0
   61.5373   30.6177   46.6962 H   0  0  0  0  0  0  0  0  0  0  0  0
   60.2998   28.3377   46.2525 H   0  0  0  0  0  0  0  0  0  0  0  0
   59.4776   29.2486   44.9406 H   0  0  0  0  0  0  0  0  0  0  0  0
   61.2671   29.0926   44.9406 H   0  0  0  0  0  0  0  0  0  0  0  0
  1  2  1  0
  2  3  1  0
  3  4  1  0
  4  5  2  0
  5  6  1  0
  6  7  2  0
  7  8  1  0
  8  9  1  0
  9 10  2  0
 10 11  1  0
 11 12  1  0
 12 13  1  0
 13 14  1  0
 14 15  1  0
 15 16  1  0
 16 17  1  0
 15 18  1  0
 18 19  1  0
 10 20  1  0
 20 21  1  0
 21  4  1  0
 21  8  2  0
  1 22  1  0
  1 23  1  0
  1 24  1  0
  2 25  1  0
  2 26  1  0
  5 27  1  0
  6 28  1  0
  9 29  1  0
 11 30  1  0
 11 31  1  0
 12 32  1  0
 12 33  1  0
 13 34  1  0
 13 35  1  0
 14 36  1  0
 14 37  1  0
 16 38  1  0
 16 39  1  0
 17 40  1  0
 17 41  1  0
 17 42  1  0
 18 43  1  0
 18 44  1  0
 19 45  1  0
 19 46  1  0
 19 47  1  0
M  CHG  1  12   1
M  END
>  <UniqueID>  (3) 
3

>  <SMILES>  (3) 
CCOc1ccnc2cc(C[NH2+]CCN(CC)CC)oc12

>  <Energy>  (3) 
77.89527366194072

>  <Genealogy>  (3) 
CCOc1ccnc2cc(C[NH2+]CCN(CC)CC)oc12 (protonated)
CCOc1ccnc2cc(C[NH2+]CCN(CC)CC)oc12 (3D coordinates assigned)
CCOc1ccnc2cc(C[NH2+]CCN(CC)CC)oc12 (optimized conformer: 77.89527366194072 kcal/mol)

>  <smiles>  (3) 
CCOc1ccnc2cc(CNCCN(CC)CC)oc12

>  <score_type>  (3) 
oracle

>  <origin>  (3) 
adg

>  <m_score__min__energy>  (3) 
-4.1500000000000004

>  <m_primary>  (3) 
energy

$$$$
3:0
     RDKit          3D

 54 57  0  0  0  0  0  0  0  0999 V2000
   61.1390   26.4280   50.8560 C   0  0  0  0  0  0  0  0  0  0  0  0
   60.6550   27.7570   50.7020 O   0  0  0  0  0  0  0  0  0  0  0  0
   60.1580   28.2840   49.5000 C   0  0  0  0  0  0  0  0  0  0  0  0
   60.4740   27.6280   48.3040 C   0  0  0  0  0  0  0  0  0  0  0  0
   59.9980   28.1100   47.0820 C   0  0  0  0  0  0  0  0  0  0  0  0
   59.1830   29.2530   47.0400 C   0  0  0  0  0  0  0  0  0  0  0  0
   58.6650   29.7600   45.7510 C   0  0  0  0  0  0  0  0  0  0  0  0
   58.1520   29.0460   44.6560 C   0  0  0  0  0  0  0  0  0  0  0  0
   57.8800   27.5950   44.5770 C   0  0  0  0  0  0  0  0  0  0  0  0
   58.0040   26.9250   43.3500 C   0  0  0  0  0  0  0  0  0  0  0  0
   57.7500   25.5540   43.2620 C   0  0  0  0  0  0  0  0  0  0  0  0
   57.3630   24.8240   44.4010 C   0  0  0  0  0  0  0  0  0  0  0  0
   57.0870   23.3340   44.3230 C   0  0  0  0  0  0  0  0  0  0  0  0
   56.3840   22.9770   43.0080 C   0  0  0  0  0  0  0  0  0  0  0  0
   58.3740   22.5190   44.4990 C   0  0  0  0  0  0  0  0  0  0  0  0
   57.2150   25.5030   45.6240 C   0  0  0  0  0  0  0  0  0  0  0  0
   57.4670   26.8750   45.7090 C   0  0  0  0  0  0  0  0  0  0  0  0
   57.8800   29.9110   43.6480 N   0  0  0  0  0  0  0  0  0  0  0  0
   58.1930   31.1310   44.0580 N   0  0  0  0  0  0  0  0  0  0  0  0
   58.0980   32.2990   43.3680 C   0  0  0  0  0  0  0  0  0  0  0  0
   57.5640   32.3350   41.9670 C   0  0  0  0  0  0  0  0  0  0  0  0
   58.5260   33.4720   44.0150 C   0  0  0  0  0  0  0  0  0  0  0  0
   59.0320   33.3840   45.3310 C   0  0  0  0  0  0  0  0  0  0  0  0
   59.5310   34.6100   46.0270 C   0  0  0  0  0  0  0  0  0  0  0  0
   59.1000   32.1750   45.9600 N   0  0  0  0  0  0  0  0  0  0  0  0
   58.6630   31.0700   45.3100 C   0  0  0  0  0  0  0  0  0  0  0  0
   58.8750   29.9210   48.2350 C   0  0  0  0  0  0  0  0  0  0  0  0
   59.3550   29.4400   49.4580 C   0  0  0  0  0  0  0  0  0  0  0  0
   61.2253   26.1910   51.9267 H   0  0  0  0  0  0  0  0  0  0  0  0
   60.4390   25.7254   50.3802 H   0  0  0  0  0  0  0  0  0  0  0  0
   62.1269   26.3401   50.3802 H   0  0  0  0  0  0  0  0  0  0  0  0
   61.1024   26.7254   48.3267 H   0  0  0  0  0  0  0  0  0  0  0  0
   60.2628   27.5918   46.1485 H   0  0  0  0  0  0  0  0  0  0  0  0
   58.3034   27.4835   42.4509 H   0  0  0  0  0  0  0  0  0  0  0  0
   57.8534   25.0410   42.2944 H   0  0  0  0  0  0  0  0  0  0  0  0
   56.4125   23.0731   45.1519 H   0  0  0  0  0  0  0  0  0  0  0  0
   55.4228   22.4889   43.2268 H   0  0  0  0  0  0  0  0  0  0  0  0
   56.2057   23.8938   42.4269 H   0  0  0  0  0  0  0  0  0  0  0  0
   57.0191   22.2922   42.4269 H   0  0  0  0  0  0  0  0  0  0  0  0
   58.5812   22.3878   45.5713 H   0  0  0  0  0  0  0  0  0  0  0  0
   58.2515   21.5335   44.0260 H   0  0  0  0  0  0  0  0  0  0  0  0
   59.2125   23.0511   44.0260 H   0  0  0  0  0  0  0  0  0  0  0  0
   56.8984   24.9497   46.5205 H   0  0  0  0  0  0  0  0  0  0  0  0
   57.3407   27.3946   46.6703 H   0  0  0  0  0  0  0  0  0  0  0  0
   57.4740   29.6730   42.7160 H   0  0  0  0  0  0  0  0  0  0  0  0
   56.4668   32.4090   41.9946 H   0  0  0  0  0  0  0  0  0  0  0  0
   57.9772   33.2073   41.4394 H   0  0  0  0  0  0  0  0  0  0  0  0
   57.8563   31.4151   41.4394 H   0  0  0  0  0  0  0  0  0  0  0  0
   58.4676   34.4442   43.5036 H   0  0  0  0  0  0  0  0  0  0  0  0
   59.4714   34.4635   47.1156 H   0  0  0  0  0  0  0  0  0  0  0  0
   60.5762   34.7955   45.7387 H   0  0  0  0  0  0  0  0  0  0  0  0
   58.9124   35.4727   45.7387 H   0  0  0  0  0  0  0  0  0  0  0  0
   58.2528   30.8278   48.2101 H   0  0  0  0  0  0  0  0  0  0  0  0
   59.1041   29.9669   50.3904 H   0  0  0  0  0  0  0  0  0  0  0  0
  1  2  1  0
  2  3  1  0
  3  4  2  0
  4  5  1  0
  5  6  2  0
  6  7  1  0
  7  8  1  0
  8  9  1  0
  9 10  2  0
 10 11  1  0
 11 12  2  0
 12 13  1  0
 13 14  1  0
 13 15  1  0
 12 16  1  0
 16 17  2  0
  8 18  2  0
 18 19  1  0
 19 20  1  0
 20 21  1  0
 20 22  2  0
 22 23  1  0
 23 24  1  0
 23 25  2  0
 25 26  1  0
  6 27  1  0
 27 28  2  0
 28  3  1  0
 26  7  2  0
 17  9  1  0
 26 19  1  0
  1 29  1  0
  1 30  1  0
  1 31  1  0
  4 32  1  0
  5 33  1  0
 10 34  1  0
 11 35  1  0
 13 36  1  0
 14 37  1  0
 14 38  1  0
 14 39  1  0
 15 40  1  0
 15 41  1  0
 15 42  1  0
 16 43  1  0
 17 44  1  0
 18 45  1  0
 21 46  1  0
 21 47  1  0
 21 48  1  0
 22 49  1  0
 24 50  1  0
 24 51  1  0
 24 52  1  0
 27 53  1  0
 28 54  1  0
M  CHG  1  18   1
M  END
>  <UniqueID>  (4) 
4

>  <SMILES>  (4) 
COc1ccc(-c2c(-c3ccc(C(C)C)cc3)[nH+]n3c(C)cc(C)nc23)cc1

>  <Energy>  (4) 
97.89604071397746

>  <Genealogy>  (4) 
COc1ccc(-c2c(-c3ccc(C(C)C)cc3)[nH+]n3c(C)cc(C)nc23)cc1 (protonated)
COc1ccc(-c2c(-c3ccc(C(C)C)cc3)[nH+]n3c(C)cc(C)nc23)cc1 (3D coordinates assigned)
COc1ccc(-c2c(-c3ccc(C(C)C)cc3)[nH+]n3c(C)cc(C)nc23)cc1 (optimized conformer: 97.89604071397746 kcal/mol)

>  <smiles>  (4) 
COc1ccc(-c2c(-c3ccc(C(C)C)cc3)nn3c(C)cc(C)nc23)cc1

>  <score_type>  (4) 
oracle

>  <origin>  (4) 
adg

>  <m_score__min__energy>  (4) 
-7.1299999999999999

>  <m_primary>  (4) 
energy

$$$$
4:0
     RDKit          3D

 54 58  0  0  0  0  0  0  0  0999 V2000
   56.6710   29.2650   44.5970 C   0  0  0  0  0  0  0  0  0  0  0  0
   56.4770   28.2330   45.5590 O   0  0  0  0  0  0  0  0  0  0  0  0
   57.2900   27.0940   45.6940 C   0  0  0  0  0  0  0  0  0  0  0  0
   56.9940   25.8980   45.0090 C   0  0  0  0  0  0  0  0  0  0  0  0
   57.8150   24.7670   45.1390 C   0  0  0  0  0  0  0  0  0  0  0  0
   57.4940   23.5130   44.4100 C   0  0  0  0  0  0  0  0  0  0  0  0
   58.0790   22.2920   44.7950 C   0  0  0  0  0  0  0  0  0  0  0  0
   57.7740   21.1130   44.1070 C   0  0  0  0  0  0  0  0  0  0  0  0
   56.8860   21.1400   43.0300 C   0  0  0  0  0  0  0  0  0  0  0  0
   56.2990   22.3450   42.6390 C   0  0  0  0  0  0  0  0  0  0  0  0
   56.5980   23.5260   43.3230 C   0  0  0  0  0  0  0  0  0  0  0  0
   58.9420   24.8390   45.9690 C   0  0  0  0  0  0  0  0  0  0  0  0
   59.2450   26.0150   46.6540 C   0  0  0  0  0  0  0  0  0  0  0  0
   58.4300   27.1550   46.5280 C   0  0  0  0  0  0  0  0  0  0  0  0
   58.7660   28.3990   47.2700 C   0  0  0  0  0  0  0  0  0  0  0  0
   59.3590   29.5480   46.7370 C   0  0  0  0  0  0  0  0  0  0  0  0
   59.4620   30.4110   47.8020 C   0  0  0  0  0  0  0  0  0  0  0  0
   59.9670   31.7060   47.8820 C   0  0  0  0  0  0  0  0  0  0  0  0
   59.9290   32.3570   49.1360 C   0  0  0  0  0  0  0  0  0  0  0  0
   60.4660   33.7570   49.2720 C   0  0  0  0  0  0  0  0  0  0  0  0
   59.5990   34.7140   48.5840 N   0  0  0  0  0  0  0  0  0  0  0  0
   59.0260   34.5010   47.2790 C   0  0  0  0  0  0  0  0  0  0  0  0
   57.8170   33.8050   47.0960 C   0  0  0  0  0  0  0  0  0  0  0  0
   57.3060   33.6210   45.8120 C   0  0  0  0  0  0  0  0  0  0  0  0
   57.9980   34.1370   44.7160 C   0  0  0  0  0  0  0  0  0  0  0  0
   59.1630   34.8130   44.9020 N   0  0  0  0  0  0  0  0  0  0  0  0
   59.6830   35.0050   46.1460 C   0  0  0  0  0  0  0  0  0  0  0  0
   59.4030   31.6760   50.2650 C   0  0  0  0  0  0  0  0  0  0  0  0
   58.9010   30.3670   50.1450 C   0  0  0  0  0  0  0  0  0  0  0  0
   58.9460   29.7660   48.8910 C   0  0  0  0  0  0  0  0  0  0  0  0
   58.5350   28.5680   48.5620 O   0  0  0  0  0  0  0  0  0  0  0  0
   56.8504   30.2192   45.1140 H   0  0  0  0  0  0  0  0  0  0  0  0
   57.5389   29.0205   43.9670 H   0  0  0  0  0  0  0  0  0  0  0  0
   55.7736   29.3524   43.9670 H   0  0  0  0  0  0  0  0  0  0  0  0
   56.1055   25.8504   44.3623 H   0  0  0  0  0  0  0  0  0  0  0  0
   58.7803   22.2649   45.6420 H   0  0  0  0  0  0  0  0  0  0  0  0
   58.2346   20.1628   44.4151 H   0  0  0  0  0  0  0  0  0  0  0  0
   56.6488   20.2118   42.4894 H   0  0  0  0  0  0  0  0  0  0  0  0
   55.5994   22.3646   41.7904 H   0  0  0  0  0  0  0  0  0  0  0  0
   56.1309   24.4717   43.0109 H   0  0  0  0  0  0  0  0  0  0  0  0
   59.5934   23.9597   46.0810 H   0  0  0  0  0  0  0  0  0  0  0  0
   60.1333   26.0520   47.3017 H   0  0  0  0  0  0  0  0  0  0  0  0
   59.6730   29.7223   45.6973 H   0  0  0  0  0  0  0  0  0  0  0  0
   60.3831   32.2075   46.9958 H   0  0  0  0  0  0  0  0  0  0  0  0
   60.5198   34.0208   50.3385 H   0  0  0  0  0  0  0  0  0  0  0  0
   61.4668   33.7970   48.8173 H   0  0  0  0  0  0  0  0  0  0  0  0
   59.4220   35.6270   49.0630 H   0  0  0  0  0  0  0  0  0  0  0  0
   57.2750   33.4060   47.9661 H   0  0  0  0  0  0  0  0  0  0  0  0
   56.3638   33.0728   45.6641 H   0  0  0  0  0  0  0  0  0  0  0  0
   57.6006   33.9968   43.6999 H   0  0  0  0  0  0  0  0  0  0  0  0
   59.6700   35.1950   44.0730 H   0  0  0  0  0  0  0  0  0  0  0  0
   60.6256   35.5596   46.2636 H   0  0  0  0  0  0  0  0  0  0  0  0
   59.3877   32.1770   51.2442 H   0  0  0  0  0  0  0  0  0  0  0  0
   58.4864   29.8360   51.0145 H   0  0  0  0  0  0  0  0  0  0  0  0
  1  2  1  0
  2  3  1  0
  3  4  2  0
  4  5  1  0
  5  6  1  0
  6  7  2  0
  7  8  1  0
  8  9  2  0
  9 10  1  0
 10 11  2  0
  5 12  2  0
 12 13  1  0
 13 14  2  0
 14 15  1  0
 15 16  2  0
 16 17  1  0
 17 18  2  0
 18 19  1  0
 19 20  1  0
 20 21  1  0
 21 22  1  0
 22 23  2  0
 23 24  1  0
 24 25  2  0
 25 26  1  0
 26 27  2  0
 19 28  2  0
 28 29  1  0
 29 30  2  0
 30 31  1  0
 14  3  1  0
 31 15  1  0
 11  6  1  0
 30 17  1  0
 27 22  1  0
  1 32  1  0
  1 33  1  0
  1 34  1  0
  4 35  1  0
  7 36  1  0
  8 37  1  0
  9 38  1  0
 10 39  1  0
 11 40  1  0
 12 41  1  0
 13 42  1  0
 16 43  1  0
 18 44  1  0
 20 45  1  0
 20 46  1  0
 21 47  1  0
 23 48  1  0
 24 49  1  0
 25 50  1  0
 26 51  1  0
 27 52  1  0
 28 53  1  0
 29 54  1  0
M  CHG  1  26   1
M  END
>  <UniqueID>  (5) 
5

>  <SMILES>  (5) 
COc1cc(-c2ccccc2)ccc1-c1cc2cc(CNc3ccc[nH+]c3)ccc2o1

>  <Energy>  (5) 
100.73341710780885

>  <Genealogy>  (5) 
COc1cc(-c2ccccc2)ccc1-c1cc2cc(CNc3ccc[nH+]c3)ccc2o1 (protonated)
COc1cc(-c2ccccc2)ccc1-c1cc2cc(CNc3ccc[nH+]c3)ccc2o1 (3D coordinates assigned)
COc1cc(-c2ccccc2)ccc1-c1cc2cc(CNc3ccc[nH+]c3)ccc2o1 (optimized conformer: 100.73341710780885 kcal/mol)

>  <smiles>  (5) 
COc1cc(-c2ccccc2)ccc1-c1cc2cc(CNc3cccnc3)ccc2o1

>  <score_type>  (5) 
oracle

>  <origin>  (5) 
adg

>  <m_score__min__energy>  (5) 
-8.5099999999999998

>  <m_primary>  (5) 
energy

$$$$
5:0
     RDKit          3D

 47 50  0  0  0  0  0  0  0  0999 V2000
   56.3240   30.0350   43.0200 C   0  0  0  0  0  0  0  0  0  0  0  0
   56.3270   30.1060   44.4420 O   0  0  0  0  0  0  0  0  0  0  0  0
   57.3000   29.5160   45.2620 C   0  0  0  0  0  0  0  0  0  0  0  0
   57.1300   28.2440   45.8410 C   0  0  0  0  0  0  0  0  0  0  0  0
   58.1290   27.6990   46.6530 C   0  0  0  0  0  0  0  0  0  0  0  0
   59.3110   28.4140   46.8970 C   0  0  0  0  0  0  0  0  0  0  0  0
   60.3700   27.8540   47.8090 C   0  0  0  0  0  0  0  0  0  0  0  0
   59.9170   27.8740   49.2080 N   0  0  0  0  0  0  0  0  0  0  0  0
   61.0170   28.1250   50.1580 C   0  0  0  0  0  0  0  0  0  0  0  0
   60.8080   29.4630   50.8730 C   0  0  0  0  0  0  0  0  0  0  0  0
   60.7370   30.5700   49.9050 N   0  0  0  0  0  0  0  0  0  0  0  0
   61.9480   31.1410   49.3710 C   0  0  0  0  0  0  0  0  0  0  0  0
   63.0720   30.7380   49.7800 O   0  0  0  0  0  0  0  0  0  0  0  0
   61.8740   32.2020   48.3390 C   0  0  0  0  0  0  0  0  0  0  0  0
   63.0480   32.7660   47.8110 C   0  0  0  0  0  0  0  0  0  0  0  0
   62.9790   33.7630   46.8370 C   0  0  0  0  0  0  0  0  0  0  0  0
   61.7430   34.2120   46.3750 C   0  0  0  0  0  0  0  0  0  0  0  0
   60.5570   33.6640   46.8860 C   0  0  0  0  0  0  0  0  0  0  0  0
   59.3140   34.1150   46.4210 C   0  0  0  0  0  0  0  0  0  0  0  0
   58.1350   33.5710   46.9300 C   0  0  0  0  0  0  0  0  0  0  0  0
   58.1830   32.5740   47.9040 C   0  0  0  0  0  0  0  0  0  0  0  0
   59.4170   32.1050   48.3870 C   0  0  0  0  0  0  0  0  0  0  0  0
   60.6170   32.6500   47.8770 C   0  0  0  0  0  0  0  0  0  0  0  0
   59.4670   31.0470   49.4220 C   0  0  0  0  0  0  0  0  0  0  0  0
   58.3940   30.5690   49.8820 O   0  0  0  0  0  0  0  0  0  0  0  0
   59.4790   29.6820   46.3220 C   0  0  0  0  0  0  0  0  0  0  0  0
   58.4810   30.2260   45.5100 C   0  0  0  0  0  0  0  0  0  0  0  0
   56.2795   28.9818   42.7056 H   0  0  0  0  0  0  0  0  0  0  0  0
   55.4477   30.5720   42.6279 H   0  0  0  0  0  0  0  0  0  0  0  0
   57.2424   30.4963   42.6279 H   0  0  0  0  0  0  0  0  0  0  0  0
   56.2067   27.6763   45.6536 H   0  0  0  0  0  0  0  0  0  0  0  0
   57.9876   26.7051   47.1026 H   0  0  0  0  0  0  0  0  0  0  0  0
   60.5876   26.8166   47.5150 H   0  0  0  0  0  0  0  0  0  0  0  0
   61.2745   28.4739   47.7220 H   0  0  0  0  0  0  0  0  0  0  0  0
   59.2230   28.6520   49.3010 H   0  0  0  0  0  0  0  0  0  0  0  0
   61.0446   27.3161   50.9029 H   0  0  0  0  0  0  0  0  0  0  0  0
   61.9667   28.1603   49.6040 H   0  0  0  0  0  0  0  0  0  0  0  0
   59.8689   29.4233   51.4443 H   0  0  0  0  0  0  0  0  0  0  0  0
   61.6599   29.6387   51.5463 H   0  0  0  0  0  0  0  0  0  0  0  0
   64.0288   32.4189   48.1682 H   0  0  0  0  0  0  0  0  0  0  0  0
   63.9050   34.1969   46.4317 H   0  0  0  0  0  0  0  0  0  0  0  0
   61.6974   34.9985   45.6073 H   0  0  0  0  0  0  0  0  0  0  0  0
   59.2683   34.9004   45.6522 H   0  0  0  0  0  0  0  0  0  0  0  0
   57.1627   33.9300   46.5615 H   0  0  0  0  0  0  0  0  0  0  0  0
   57.2470   32.1509   48.2977 H   0  0  0  0  0  0  0  0  0  0  0  0
   60.4012   30.2510   46.5113 H   0  0  0  0  0  0  0  0  0  0  0  0
   58.6241   31.2203   45.0618 H   0  0  0  0  0  0  0  0  0  0  0  0
  1  2  1  0
  2  3  1  0
  3  4  2  0
  4  5  1  0
  5  6  2  0
  6  7  1  0
  7  8  1  0
  8  9  1  0
  9 10  1  0
 10 11  1  0
 11 12  1  0
 12 13  2  0
 12 14  1  0
 14 15  2  0
 15 16  1  0
 16 17  2  0
 17 18  1  0
 18 19  2  0
 19 20  1  0
 20 21  2  0
 21 22  1  0
 22 23  2  0
 22 24  1  0
 24 25  2  0
  6 26  1  0
 26 27  2  0
 27  3  1  0
 24 11  1  0
 23 14  1  0
 23 18  1  0
  1 28  1  0
  1 29  1  0
  1 30  1  0
  4 31  1  0
  5 32  1  0
  7 33  1  0
  7 34  1  0
  8 35  1  0
  9 36  1  0
  9 37  1  0
 10 38  1  0
 10 39  1  0
 15 40  1  0
 16 41  1  0
 17 42  1  0
 19 43  1  0
 20 44  1  0
 21 45  1  0
 26 46  1  0
 27 47  1  0
M  END
>  <UniqueID>  (6) 
6

>  <SMILES>  (6) 
COc1ccc(CNCCN2C(=O)c3cccc4cccc(c34)C2=O)cc1

>  <Energy>  (6) 
54.00790188797412

>  <Genealogy>  (6) 
COc1ccc(CNCCN2C(=O)c3cccc4cccc(c34)C2=O)cc1 (3D coordinates assigned)
COc1ccc(CNCCN2C(=O)c3cccc4cccc(c34)C2=O)cc1 (nonaromatic ring conformer: 54.00790188797412 kcal/mol)

>  <smiles>  (6) 
COc1ccc(CNCCN2C(=O)c3cccc4cccc(c34)C2=O)cc1

>  <score_type>  (6) 
oracle

>  <origin>  (6) 
adg

>  <m_score__min__energy>  (6) 
-8.3100000000000005

>  <m_primary>  (6) 
energy

$$$$
6:0
     RDKit          3D

 44 47  0  0  0  0  0  0  0  0999 V2000
   57.9260   32.3440   42.7060 C   0  0  0  0  0  0  0  0  0  0  0  0
   58.1330   32.0420   44.1640 C   0  0  0  0  0  0  0  0  0  0  0  0
   57.8860   30.7970   44.7680 C   0  0  0  0  0  0  0  0  0  0  0  0
   57.4460   29.5570   44.1050 C   0  0  0  0  0  0  0  0  0  0  0  0
   56.3920   29.5810   43.4140 O   0  0  0  0  0  0  0  0  0  0  0  0
   58.1630   28.3210   44.2740 N   0  0  0  0  0  0  0  0  0  0  0  0
   58.7240   27.9810   45.5930 C   0  0  0  0  0  0  0  0  0  0  0  0
   59.2820   26.5550   45.6100 C   0  0  0  0  0  0  0  0  0  0  0  0
   58.3210   25.6430   44.9760 N   0  0  0  0  0  0  0  0  0  0  0  0
   57.8560   24.4690   45.6690 C   0  0  0  0  0  0  0  0  0  0  0  0
   57.1100   24.5910   46.8540 C   0  0  0  0  0  0  0  0  0  0  0  0
   56.6480   23.4510   47.5180 C   0  0  0  0  0  0  0  0  0  0  0  0
   56.9220   22.1800   47.0060 C   0  0  0  0  0  0  0  0  0  0  0  0
   56.4730   21.0760   47.6520 F   0  0  0  0  0  0  0  0  0  0  0  0
   57.6590   22.0490   45.8250 C   0  0  0  0  0  0  0  0  0  0  0  0
   58.1210   23.1860   45.1560 C   0  0  0  0  0  0  0  0  0  0  0  0
   57.7670   25.9710   43.6520 C   0  0  0  0  0  0  0  0  0  0  0  0
   58.2360   27.3520   43.1730 C   0  0  0  0  0  0  0  0  0  0  0  0
   58.1350   30.9200   46.4350 S   0  0  0  0  0  0  0  0  0  0  0  0
   58.5960   32.5310   46.4030 C   0  0  0  0  0  0  0  0  0  0  0  0
   58.9730   33.3350   47.4770 C   0  0  0  0  0  0  0  0  0  0  0  0
   59.3180   34.6700   47.2170 C   0  0  0  0  0  0  0  0  0  0  0  0
   59.2790   35.1710   45.9020 C   0  0  0  0  0  0  0  0  0  0  0  0
   58.8930   34.3430   44.8360 C   0  0  0  0  0  0  0  0  0  0  0  0
   58.5510   33.0090   45.1000 C   0  0  0  0  0  0  0  0  0  0  0  0
   57.3068   33.2473   42.6030 H   0  0  0  0  0  0  0  0  0  0  0  0
   58.9007   32.5106   42.2241 H   0  0  0  0  0  0  0  0  0  0  0  0
   57.4190   31.4950   42.2241 H   0  0  0  0  0  0  0  0  0  0  0  0
   59.5347   28.6858   45.8300 H   0  0  0  0  0  0  0  0  0  0  0  0
   57.9193   28.0477   46.3400 H   0  0  0  0  0  0  0  0  0  0  0  0
   60.2327   26.5272   45.0574 H   0  0  0  0  0  0  0  0  0  0  0  0
   59.4520   26.2413   46.6505 H   0  0  0  0  0  0  0  0  0  0  0  0
   56.8886   25.5887   47.2609 H   0  0  0  0  0  0  0  0  0  0  0  0
   56.0670   23.5547   48.4463 H   0  0  0  0  0  0  0  0  0  0  0  0
   57.8757   21.0489   45.4215 H   0  0  0  0  0  0  0  0  0  0  0  0
   58.6946   23.0771   44.2238 H   0  0  0  0  0  0  0  0  0  0  0  0
   58.0962   25.2108   42.9283 H   0  0  0  0  0  0  0  0  0  0  0  0
   56.6700   25.9870   43.7309 H   0  0  0  0  0  0  0  0  0  0  0  0
   59.2753   27.2807   42.8197 H   0  0  0  0  0  0  0  0  0  0  0  0
   57.5838   27.6889   42.3538 H   0  0  0  0  0  0  0  0  0  0  0  0
   58.9994   32.9339   48.5009 H   0  0  0  0  0  0  0  0  0  0  0  0
   59.6204   35.3283   48.0448 H   0  0  0  0  0  0  0  0  0  0  0  0
   59.5529   36.2186   45.7084 H   0  0  0  0  0  0  0  0  0  0  0  0
   58.8593   34.7350   43.8088 H   0  0  0  0  0  0  0  0  0  0  0  0
  1  2  1  0
  2  3  2  0
  3  4  1  0
  4  5  2  0
  4  6  1  0
  6  7  1  0
  7  8  1  0
  8  9  1  0
  9 10  1  0
 10 11  2  0
 11 12  1  0
 12 13  2  0
 13 14  1  0
 13 15  1  0
 15 16  2  0
  9 17  1  0
 17 18  1  0
  3 19  1  0
 19 20  1  0
 20 21  2  0
 21 22  1  0
 22 23  2  0
 23 24  1  0
 24 25  2  0
 25  2  1  0
 18  6  1  0
 25 20  1  0
 16 10  1  0
  1 26  1  0
  1 27  1  0
  1 28  1  0
  7 29  1  0
  7 30  1  0
  8 31  1  0
  8 32  1  0
 11 33  1  0
 12 34  1  0
 15 35  1  0
 16 36  1  0
 17 37  1  0
 17 38  1  0
 18 39  1  0
 18 40  1  0
 21 41  1  0
 22 42  1  0
 23 43  1  0
 24 44  1  0
M  END
>  <UniqueID>  (7) 
7

>  <SMILES>  (7) 
Cc1c(C(=O)N2CCN(c3ccc(F)cc3)CC2)sc2ccccc12

>  <Energy>  (7) 
88.70484297318515

>  <Genealogy>  (7) 
Cc1c(C(=O)N2CCN(c3ccc(F)cc3)CC2)sc2ccccc12 (3D coordinates assigned)
Cc1c(C(=O)N2CCN(c3ccc(F)cc3)CC2)sc2ccccc12 (nonaromatic ring conformer: 88.70484297318515 kcal/mol)

>  <smiles>  (7) 
Cc1c(C(=O)N2CCN(c3ccc(F)cc3)CC2)sc2ccccc12

>  <score_type>  (7) 
oracle

>  <origin>  (7) 
adg

>  <m_score__min__energy>  (7) 
-7.7300000000000004

>  <m_primary>  (7) 
energy

$$$$
7:0
     RDKit          3D

 49 51  0  0  0  0  0  0  0  0999 V2000
   56.4970   29.8820   42.7370 C   0  0  0  0  0  0  0  0  0  0  0  0
   55.9370   30.2150   44.1180 C   0  0  0  0  0  0  0  0  0  0  0  0
   56.9860   30.8360   44.9610 N   0  0  0  0  0  0  0  0  0  0  0  0
   58.1390   29.9240   45.1350 C   0  0  0  0  0  0  0  0  0  0  0  0
   59.1530   30.5330   46.1000 C   0  0  0  0  0  0  0  0  0  0  0  0
   57.4170   32.1380   44.4030 C   0  0  0  0  0  0  0  0  0  0  0  0
   56.9930   33.2780   45.3340 C   0  0  0  0  0  0  0  0  0  0  0  0
   58.0410   34.2400   45.4620 O   0  0  0  0  0  0  0  0  0  0  0  0
   59.1770   34.1050   46.2780 C   0  0  0  0  0  0  0  0  0  0  0  0
   60.4620   33.8740   45.7620 C   0  0  0  0  0  0  0  0  0  0  0  0
   61.5550   33.7500   46.6200 C   0  0  0  0  0  0  0  0  0  0  0  0
   61.3930   33.8520   48.0120 C   0  0  0  0  0  0  0  0  0  0  0  0
   62.5690   33.7120   48.9090 C   0  0  0  0  0  0  0  0  0  0  0  0
   62.6160   34.1710   50.1910 N   0  0  0  0  0  0  0  0  0  0  0  0
   63.8450   33.8200   50.5910 C   0  0  0  0  0  0  0  0  0  0  0  0
   64.4070   34.0370   51.8060 N   0  0  0  0  0  0  0  0  0  0  0  0
   65.6830   33.5930   52.0220 C   0  0  0  0  0  0  0  0  0  0  0  0
   66.3970   32.9230   50.9990 C   0  0  0  0  0  0  0  0  0  0  0  0
   65.7890   32.7070   49.7470 C   0  0  0  0  0  0  0  0  0  0  0  0
   64.4930   33.1810   49.5870 C   0  0  0  0  0  0  0  0  0  0  0  0
   63.7000   33.1150   48.5480 O   0  0  0  0  0  0  0  0  0  0  0  0
   60.1030   34.0780   48.5410 C   0  0  0  0  0  0  0  0  0  0  0  0
   59.9390   34.1870   49.9330 O   0  0  0  0  0  0  0  0  0  0  0  0
   59.3160   33.2070   50.7570 C   0  0  0  0  0  0  0  0  0  0  0  0
   59.0070   34.1980   47.6630 C   0  0  0  0  0  0  0  0  0  0  0  0
   57.4377   29.3226   42.8479 H   0  0  0  0  0  0  0  0  0  0  0  0
   55.7693   29.2698   42.1841 H   0  0  0  0  0  0  0  0  0  0  0  0
   56.6874   30.8137   42.1841 H   0  0  0  0  0  0  0  0  0  0  0  0
   55.0962   30.9159   44.0095 H   0  0  0  0  0  0  0  0  0  0  0  0
   55.5936   29.2871   44.5987 H   0  0  0  0  0  0  0  0  0  0  0  0
   57.7850   28.9638   45.5384 H   0  0  0  0  0  0  0  0  0  0  0  0
   58.6221   29.7667   44.1594 H   0  0  0  0  0  0  0  0  0  0  0  0
   58.8345   30.3417   47.1354 H   0  0  0  0  0  0  0  0  0  0  0  0
   60.1400   30.0781   45.9300 H   0  0  0  0  0  0  0  0  0  0  0  0
   59.2151   31.6180   45.9300 H   0  0  0  0  0  0  0  0  0  0  0  0
   58.5119   32.1435   44.2969 H   0  0  0  0  0  0  0  0  0  0  0  0
   56.9441   32.2819   43.4203 H   0  0  0  0  0  0  0  0  0  0  0  0
   56.1001   33.7693   44.9202 H   0  0  0  0  0  0  0  0  0  0  0  0
   56.7722   32.8605   46.3274 H   0  0  0  0  0  0  0  0  0  0  0  0
   60.6079   33.7903   44.6749 H   0  0  0  0  0  0  0  0  0  0  0  0
   62.5563   33.5701   46.2015 H   0  0  0  0  0  0  0  0  0  0  0  0
   61.8810   34.6560   50.7520 H   0  0  0  0  0  0  0  0  0  0  0  0
   66.1589   33.7581   52.9999 H   0  0  0  0  0  0  0  0  0  0  0  0
   67.4235   32.5723   51.1816 H   0  0  0  0  0  0  0  0  0  0  0  0
   66.3160   32.1870   48.9335 H   0  0  0  0  0  0  0  0  0  0  0  0
   59.4776   33.4611   51.8150 H   0  0  0  0  0  0  0  0  0  0  0  0
   58.2366   33.1832   50.5463 H   0  0  0  0  0  0  0  0  0  0  0  0
   59.7525   32.2196   50.5463 H   0  0  0  0  0  0  0  0  0  0  0  0
   58.0009   34.3677   48.0741 H   0  0  0  0  0  0  0  0  0  0  0  0
  1  2  1  0
  2  3  1  0
  3  4  1  0
  4  5  1  0
  3  6  1  0
  6  7  1  0
  7  8  1  0
  8  9  1  0
  9 10  2  0
 10 11  1  0
 11 12  2  0
 12 13  1  0
 13 14  2  0
 14 15  1  0
 15 16  2  0
 16 17  1  0
 17 18  2  0
 18 19  1  0
 19 20  2  0
 20 21  1  0
 12 22  1  0
 22 23  1  0
 23 24  1  0
 22 25  2  0
 25  9  1  0
 21 13  1  0
 20 15  1  0
  1 26  1  0
  1 27  1  0
  1 28  1  0
  2 29  1  0
  2 30  1  0
  4 31  1  0
  4 32  1  0
  5 33  1  0
  5 34  1  0
  5 35  1  0
  6 36  1  0
  6 37  1  0
  7 38  1  0
  7 39  1  0
 10 40  1  0
 11 41  1  0
 14 42  1  0
 17 43  1  0
 18 44  1  0
 19 45  1  0
 24 46  1  0
 24 47  1  0
 24 48  1  0
 25 49  1  0
M  CHG  1  14   1
M  END
>  <UniqueID>  (8) 
8

>  <SMILES>  (8) 
CCN(CC)CCOc1ccc(-c2[nH+]c3ncccc3o2)c(OC)c1

>  <Energy>  (8) 
91.97181904469191

>  <Genealogy>  (8) 
CCN(CC)CCOc1ccc(-c2[nH+]c3ncccc3o2)c(OC)c1 (protonated)
CCN(CC)CCOc1ccc(-c2[nH+]c3ncccc3o2)c(OC)c1 (3D coordinates assigned)
CCN(CC)CCOc1ccc(-c2[nH+]c3ncccc3o2)c(OC)c1 (optimized conformer: 91.97181904469191 kcal/mol)

>  <smiles>  (8) 
CCN(CC)CCOc1ccc(-c2nc3ncccc3o2)c(OC)c1

>  <score_type>  (8) 
oracle

>  <origin>  (8) 
adg

>  <m_score__min__energy>  (8) 
-5.25

>  <m_primary>  (8) 
energy

$$$$
8:0
     RDKit          3D

 49 50  0  0  0  0  0  0  0  0999 V2000
   63.2670   33.8240   46.4090 C   0  0  0  0  0  0  0  0  0  0  0  0
   63.7710   32.7760   47.4090 C   0  0  0  0  0  0  0  0  0  0  0  0
   63.0330   32.7900   48.7000 N   0  0  0  0  0  0  0  0  0  0  0  0
   63.0500   34.1680   49.2590 C   0  0  0  0  0  0  0  0  0  0  0  0
   63.0910   34.2070   50.7930 C   0  0  0  0  0  0  0  0  0  0  0  0
   63.4850   31.7410   49.6640 C   0  0  0  0  0  0  0  0  0  0  0  0
   62.4050   30.7370   50.1100 C   0  0  0  0  0  0  0  0  0  0  0  0
   61.1290   31.1260   49.6150 O   0  0  0  0  0  0  0  0  0  0  0  0
   60.7460   30.9690   48.2820 C   0  0  0  0  0  0  0  0  0  0  0  0
   61.6010   30.7060   47.3930 O   0  0  0  0  0  0  0  0  0  0  0  0
   59.3060   31.1460   47.9110 C   0  0  0  0  0  0  0  0  0  0  0  0
   59.1450   32.2070   46.8340 C   0  0  0  0  0  0  0  0  0  0  0  0
   59.6630   33.5050   47.0640 C   0  0  0  0  0  0  0  0  0  0  0  0
   60.3160   33.7770   48.2810 O   0  0  0  0  0  0  0  0  0  0  0  0
   59.6630   34.1690   49.4850 C   0  0  0  0  0  0  0  0  0  0  0  0
   59.5230   34.4980   46.0770 C   0  0  0  0  0  0  0  0  0  0  0  0
   58.8960   34.2170   44.8670 C   0  0  0  0  0  0  0  0  0  0  0  0
   58.3970   32.9360   44.6080 C   0  0  0  0  0  0  0  0  0  0  0  0
   57.7860   32.6650   43.3700 C   0  0  0  0  0  0  0  0  0  0  0  0
   57.2990   31.3880   43.0920 C   0  0  0  0  0  0  0  0  0  0  0  0
   57.4070   30.3760   44.0440 C   0  0  0  0  0  0  0  0  0  0  0  0
   58.0060   30.6310   45.2810 C   0  0  0  0  0  0  0  0  0  0  0  0
   58.5150   31.9140   45.5890 C   0  0  0  0  0  0  0  0  0  0  0  0
   62.8534   34.6839   46.9563 H   0  0  0  0  0  0  0  0  0  0  0  0
   64.1024   34.1591   45.7768 H   0  0  0  0  0  0  0  0  0  0  0  0
   62.4836   33.3806   45.7768 H   0  0  0  0  0  0  0  0  0  0  0  0
   63.6615   31.7799   46.9553 H   0  0  0  0  0  0  0  0  0  0  0  0
   64.8207   33.0177   47.6319 H   0  0  0  0  0  0  0  0  0  0  0  0
   62.0310   32.5740   48.4730 H   0  0  0  0  0  0  0  0  0  0  0  0
   63.9390   34.6889   48.8738 H   0  0  0  0  0  0  0  0  0  0  0  0
   62.1136   34.6543   48.9483 H   0  0  0  0  0  0  0  0  0  0  0  0
   62.3499   33.5020   51.1976 H   0  0  0  0  0  0  0  0  0  0  0  0
   64.0953   33.9227   51.1403 H   0  0  0  0  0  0  0  0  0  0  0  0
   62.8572   35.2242   51.1403 H   0  0  0  0  0  0  0  0  0  0  0  0
   64.2992   31.1736   49.1895 H   0  0  0  0  0  0  0  0  0  0  0  0
   63.7894   32.2794   50.5737 H   0  0  0  0  0  0  0  0  0  0  0  0
   62.6555   29.7391   49.7209 H   0  0  0  0  0  0  0  0  0  0  0  0
   62.3695   30.7172   51.2092 H   0  0  0  0  0  0  0  0  0  0  0  0
   58.9116   30.1902   47.5356 H   0  0  0  0  0  0  0  0  0  0  0  0
   58.7519   31.4684   48.8049 H   0  0  0  0  0  0  0  0  0  0  0  0
   60.2464   33.8188   50.3493 H   0  0  0  0  0  0  0  0  0  0  0  0
   59.5815   35.2655   49.5177 H   0  0  0  0  0  0  0  0  0  0  0  0
   58.6569   33.7254   49.5177 H   0  0  0  0  0  0  0  0  0  0  0  0
   59.9141   35.5089   46.2642 H   0  0  0  0  0  0  0  0  0  0  0  0
   58.7920   35.0074   44.1091 H   0  0  0  0  0  0  0  0  0  0  0  0
   57.6921   33.4630   42.6188 H   0  0  0  0  0  0  0  0  0  0  0  0
   56.8289   31.1793   42.1197 H   0  0  0  0  0  0  0  0  0  0  0  0
   57.0188   29.3712   43.8208 H   0  0  0  0  0  0  0  0  0  0  0  0
   58.0824   29.8236   46.0242 H   0  0  0  0  0  0  0  0  0  0  0  0
  1  2  1  0
  2  3  1  0
  3  4  1  0
  4  5  1  0
  3  6  1  0
  6  7  1  0
  7  8  1  0
  8  9  1  0
  9 10  2  0
  9 11  1  0
 11 12  1  0
 12 13  2  0
 13 14  1  0
 14 15  1  0
 13 16  1  0
 16 17  2  0
 17 18  1  0
 18 19  2  0
 19 20  1  0
 20 21  2  0
 21 22  1  0
 22 23  2  0
 23 12  1  0
 23 18  1  0
  1 24  1  0
  1 25  1  0
  1 26  1  0
  2 27  1  0
  2 28  1  0
  3 29  1  0
  4 30  1  0
  4 31  1  0
  5 32  1  0
  5 33  1  0
  5 34  1  0
  6 35  1  0
  6 36  1  0
  7 37  1  0
  7 38  1  0
 11 39  1  0
 11 40  1  0
 15 41  1  0
 15 42  1  0
 15 43  1  0
 16 44  1  0
 17 45  1  0
 19 46  1  0
 20 47  1  0
 21 48  1  0
 22 49  1  0
M  CHG  1   3   1
M  END
>  <UniqueID>  (9) 
9

>  <SMILES>  (9) 
CC[NH+](CC)CCOC(=O)Cc1c(OC)ccc2ccccc12

>  <Energy>  (9) 
54.71264960267267

>  <Genealogy>  (9) 
CC[NH+](CC)CCOC(=O)Cc1c(OC)ccc2ccccc12 (protonated)
CC[NH+](CC)CCOC(=O)Cc1c(OC)ccc2ccccc12 (3D coordinates assigned)
CC[NH+](CC)CCOC(=O)Cc1c(OC)ccc2ccccc12 (optimized conformer: 54.71264960267267 kcal/mol)

>  <smiles>  (9) 
CCN(CC)CCOC(=O)Cc1c(OC)ccc2ccccc12

>  <score_type>  (9) 
oracle

>  <origin>  (9) 
adg

>  <m_score__min__energy>  (9) 
-4.2300000000000004

>  <m_primary>  (9) 
energy

$$$$
9:0
     RDKit          3D

 71 74  0  0  0  0  0  0  0  0999 V2000
   51.1940   24.1140   44.0340 C   0  0  0  0  0  0  0  0  0  0  0  0
   51.6920   23.3650   45.2830 C   0  0  0  0  0  0  0  0  0  0  0  0
   53.1180   22.9630   45.2370 N   0  0  0  0  0  0  0  0  0  0  0  0
   53.6180   22.2510   46.4380 C   0  0  0  0  0  0  0  0  0  0  0  0
   54.7280   22.9890   47.1900 C   0  0  0  0  0  0  0  0  0  0  0  0
   54.0550   23.9460   44.6520 C   0  0  0  0  0  0  0  0  0  0  0  0
   54.7900   23.3530   43.4440 C   0  0  0  0  0  0  0  0  0  0  0  0
   55.9020   22.5660   43.8690 O   0  0  0  0  0  0  0  0  0  0  0  0
   57.0810   23.1040   44.4020 C   0  0  0  0  0  0  0  0  0  0  0  0
   57.9940   22.3400   44.8200 O   0  0  0  0  0  0  0  0  0  0  0  0
   57.2470   24.5720   44.4830 C   0  0  0  0  0  0  0  0  0  0  0  0
   57.7120   25.2950   43.3710 C   0  0  0  0  0  0  0  0  0  0  0  0
   57.8670   26.6820   43.4420 C   0  0  0  0  0  0  0  0  0  0  0  0
   57.5610   27.3710   44.6240 C   0  0  0  0  0  0  0  0  0  0  0  0
   57.7030   28.7980   44.6950 N   0  0  0  0  0  0  0  0  0  0  0  0
   57.1440   29.6480   43.6380 C   0  0  0  0  0  0  0  0  0  0  0  0
   56.4880   30.8860   44.2610 C   0  0  0  0  0  0  0  0  0  0  0  0
   57.3440   31.5640   45.2710 N   0  0  0  0  0  0  0  0  0  0  0  0
   57.4680   33.0220   45.0460 C   0  0  0  0  0  0  0  0  0  0  0  0
   57.5950   33.8390   46.3490 C   0  0  0  0  0  0  0  0  0  0  0  0
   58.8890   33.5740   46.9990 N   0  0  0  0  0  0  0  0  0  0  0  0
   58.8990   33.0370   48.2550 C   0  0  0  0  0  0  0  0  0  0  0  0
   60.0720   32.7830   48.8940 N   0  0  0  0  0  0  0  0  0  0  0  0
   61.2670   33.0460   48.3000 C   0  0  0  0  0  0  0  0  0  0  0  0
   62.4720   32.7870   48.9740 C   0  0  0  0  0  0  0  0  0  0  0  0
   63.6970   33.0570   48.3550 C   0  0  0  0  0  0  0  0  0  0  0  0
   63.7290   33.5800   47.0610 C   0  0  0  0  0  0  0  0  0  0  0  0
   62.5370   33.8390   46.3780 C   0  0  0  0  0  0  0  0  0  0  0  0
   61.2970   33.5780   46.9940 C   0  0  0  0  0  0  0  0  0  0  0  0
   60.0720   33.8310   46.3510 C   0  0  0  0  0  0  0  0  0  0  0  0
   60.0630   34.2950   45.1750 O   0  0  0  0  0  0  0  0  0  0  0  0
   58.6380   30.9100   45.5610 C   0  0  0  0  0  0  0  0  0  0  0  0
   58.4480   29.4100   45.8020 C   0  0  0  0  0  0  0  0  0  0  0  0
   57.1030   26.6530   45.7380 C   0  0  0  0  0  0  0  0  0  0  0  0
   56.9470   25.2650   45.6710 C   0  0  0  0  0  0  0  0  0  0  0  0
   50.6094   24.9932   44.3425 H   0  0  0  0  0  0  0  0  0  0  0  0
   52.0563   24.4393   43.4334 H   0  0  0  0  0  0  0  0  0  0  0  0
   50.5604   23.4447   43.4334 H   0  0  0  0  0  0  0  0  0  0  0  0
   51.5487   24.0199   46.1551 H   0  0  0  0  0  0  0  0  0  0  0  0
   51.1086   22.4342   45.3401 H   0  0  0  0  0  0  0  0  0  0  0  0
   52.7738   22.1034   47.1276 H   0  0  0  0  0  0  0  0  0  0  0  0
   54.0519   21.3038   46.0852 H   0  0  0  0  0  0  0  0  0  0  0  0
   54.5696   22.8837   48.2734 H   0  0  0  0  0  0  0  0  0  0  0  0
   55.7034   22.5590   46.9185 H   0  0  0  0  0  0  0  0  0  0  0  0
   54.7088   24.0548   46.9185 H   0  0  0  0  0  0  0  0  0  0  0  0
   53.4905   24.8333   44.3296 H   0  0  0  0  0  0  0  0  0  0  0  0
   54.7985   24.2187   45.4154 H   0  0  0  0  0  0  0  0  0  0  0  0
   54.0952   22.7188   42.8738 H   0  0  0  0  0  0  0  0  0  0  0  0
   55.1584   24.1761   42.8141 H   0  0  0  0  0  0  0  0  0  0  0  0
   57.9556   24.7653   42.4382 H   0  0  0  0  0  0  0  0  0  0  0  0
   58.2314   27.2367   42.5648 H   0  0  0  0  0  0  0  0  0  0  0  0
   57.9496   29.9641   42.9590 H   0  0  0  0  0  0  0  0  0  0  0  0
   56.3880   29.0798   43.0762 H   0  0  0  0  0  0  0  0  0  0  0  0
   56.2628   31.6027   43.4575 H   0  0  0  0  0  0  0  0  0  0  0  0
   55.5806   30.5452   44.7811 H   0  0  0  0  0  0  0  0  0  0  0  0
   58.3626   33.2045   44.4324 H   0  0  0  0  0  0  0  0  0  0  0  0
   56.5446   33.3514   44.5472 H   0  0  0  0  0  0  0  0  0  0  0  0
   57.5211   34.9108   46.1130 H   0  0  0  0  0  0  0  0  0  0  0  0
   56.7858   33.5451   47.0338 H   0  0  0  0  0  0  0  0  0  0  0  0
   57.9467   32.8073   48.7554 H   0  0  0  0  0  0  0  0  0  0  0  0
   60.0380   32.3800   49.8580 H   0  0  0  0  0  0  0  0  0  0  0  0
   62.4522   32.3705   49.9919 H   0  0  0  0  0  0  0  0  0  0  0  0
   64.6375   32.8567   48.8892 H   0  0  0  0  0  0  0  0  0  0  0  0
   64.6947   33.7889   46.5775 H   0  0  0  0  0  0  0  0  0  0  0  0
   62.5673   34.2476   45.3571 H   0  0  0  0  0  0  0  0  0  0  0  0
   59.3148   31.0549   44.7060 H   0  0  0  0  0  0  0  0  0  0  0  0
   59.0652   31.3613   46.4687 H   0  0  0  0  0  0  0  0  0  0  0  0
   59.4341   28.9294   45.8832 H   0  0  0  0  0  0  0  0  0  0  0  0
   57.8781   29.2702   46.7324 H   0  0  0  0  0  0  0  0  0  0  0  0
   56.8649   27.1852   46.6708 H   0  0  0  0  0  0  0  0  0  0  0  0
   56.5879   24.7117   46.5513 H   0  0  0  0  0  0  0  0  0  0  0  0
  1  2  1  0
  2  3  1  0
  3  4  1  0
  4  5  1  0
  3  6  1  0
  6  7  1  0
  7  8  1  0
  8  9  1  0
  9 10  2  0
  9 11  1  0
 11 12  2  0
 12 13  1  0
 13 14  2  0
 14 15  1  0
 15 16  1  0
 16 17  1  0
 17 18  1  0
 18 19  1  0
 19 20  1  0
 20 21  1  0
 21 22  1  0
 22 23  2  0
 23 24  1  0
 24 25  2  0
 25 26  1  0
 26 27  2  0
 27 28  1  0
 28 29  2  0
 29 30  1  0
 30 31  2  0
 18 32  1  0
 32 33  1  0
 14 34  1  0
 34 35  2  0
 35 11  1  0
 33 15  1  0
 30 21  1  0
 29 24  1  0
  1 36  1  0
  1 37  1  0
  1 38  1  0
  2 39  1  0
  2 40  1  0
  4 41  1  0
  4 42  1  0
  5 43  1  0
  5 44  1  0
  5 45  1  0
  6 46  1  0
  6 47  1  0
  7 48  1  0
  7 49  1  0
 12 50  1  0
 13 51  1  0
 16 52  1  0
 16 53  1  0
 17 54  1  0
 17 55  1  0
 19 56  1  0
 19 57  1  0
 20 58  1  0
 20 59  1  0
 22 60  1  0
 23 61  1  0
 25 62  1  0
 26 63  1  0
 27 64  1  0
 28 65  1  0
 32 66  1  0
 32 67  1  0
 33 68  1  0
 33 69  1  0
 34 70  1  0
 35 71  1  0
M  CHG  1  23   1
M  END
>  <UniqueID>  (10) 
10

>  <SMILES>  (10) 
CCN(CC)CCOC(=O)c1ccc(N2CCN(CCn3c[nH+]c4ccccc4c3=O)CC2)cc1

>  <Energy>  (10) 
96.98318737012845

>  <Genealogy>  (10) 
CCN(CC)CCOC(=O)c1ccc(N2CCN(CCn3c[nH+]c4ccccc4c3=O)CC2)cc1 (protonated)
CCN(CC)CCOC(=O)c1ccc(N2CCN(CCn3c[nH+]c4ccccc4c3=O)CC2)cc1 (3D coordinates assigned)
CCN(CC)CCOC(=O)c1ccc(N2CCN(CCn3c[nH+]c4ccccc4c3=O)CC2)cc1 (nonaromatic ring conformer: 96.98318737012845 kcal/mol)

>  <smiles>  (10) 
CCN(CC)CCOC(=O)c1ccc(N2CCN(CCn3cnc4ccccc4c3=O)CC2)cc1

>  <score_type>  (10) 
oracle

>  <origin>  (10) 
adg

>  <m_score__min__energy>  (10) 
-7.5700000000000003

>  <m_primary>  (10) 
energy

$$$$
10:0
     RDKit          3D

 30 31  0  0  0  0  0  0  0  0999 V2000
   54.8060   26.3290   45.9410 N   0  0  0  0  0  0  0  0  0  0  0  0
   56.2020   26.1040   46.3090 C   0  0  0  0  0  0  0  0  0  0  0  0
   57.1430   26.5920   45.2010 C   0  0  0  0  0  0  0  0  0  0  0  0
   57.4740   28.0550   45.3520 C   0  0  0  0  0  0  0  0  0  0  0  0
   56.9850   28.9870   44.4250 C   0  0  0  0  0  0  0  0  0  0  0  0
   57.3100   30.3410   44.5460 C   0  0  0  0  0  0  0  0  0  0  0  0
   58.1370   30.7860   45.5940 C   0  0  0  0  0  0  0  0  0  0  0  0
   58.4830   32.2240   45.7220 C   0  0  0  0  0  0  0  0  0  0  0  0
   58.0110   33.1620   44.7830 C   0  0  0  0  0  0  0  0  0  0  0  0
   58.3390   34.5150   44.9060 C   0  0  0  0  0  0  0  0  0  0  0  0
   59.1390   34.9500   45.9650 C   0  0  0  0  0  0  0  0  0  0  0  0
   59.6130   34.0300   46.9030 C   0  0  0  0  0  0  0  0  0  0  0  0
   59.2880   32.6750   46.7860 C   0  0  0  0  0  0  0  0  0  0  0  0
   58.6310   29.8460   46.5150 C   0  0  0  0  0  0  0  0  0  0  0  0
   58.3050   28.4920   46.3930 C   0  0  0  0  0  0  0  0  0  0  0  0
   54.3170   26.7200   46.7780 H   0  0  0  0  0  0  0  0  0  0  0  0
   54.7740   27.0760   45.2100 H   0  0  0  0  0  0  0  0  0  0  0  0
   56.4230   26.6517   47.2370 H   0  0  0  0  0  0  0  0  0  0  0  0
   56.3586   25.0250   46.4545 H   0  0  0  0  0  0  0  0  0  0  0  0
   58.0753   26.0097   45.2435 H   0  0  0  0  0  0  0  0  0  0  0  0
   56.6347   26.4542   44.2353 H   0  0  0  0  0  0  0  0  0  0  0  0
   56.3422   28.6505   43.5982 H   0  0  0  0  0  0  0  0  0  0  0  0
   56.9164   31.0642   43.8166 H   0  0  0  0  0  0  0  0  0  0  0  0
   57.3796   32.8271   43.9468 H   0  0  0  0  0  0  0  0  0  0  0  0
   57.9661   35.2392   44.1668 H   0  0  0  0  0  0  0  0  0  0  0  0
   59.3954   36.0155   46.0602 H   0  0  0  0  0  0  0  0  0  0  0  0
   60.2440   34.3725   47.7364 H   0  0  0  0  0  0  0  0  0  0  0  0
   59.6635   31.9568   47.5297 H   0  0  0  0  0  0  0  0  0  0  0  0
   59.2796   30.1786   47.3388 H   0  0  0  0  0  0  0  0  0  0  0  0
   58.7025   27.7659   47.1174 H   0  0  0  0  0  0  0  0  0  0  0  0
  1  2  1  0
  2  3  1  0
  3  4  1  0
  4  5  2  0
  5  6  1  0
  6  7  2  0
  7  8  1  0
  8  9  2  0
  9 10  1  0
 10 11  2  0
 11 12  1  0
 12 13  2  0
  7 14  1  0
 14 15  2  0
 15  4  1  0
 13  8  1  0
  1 16  1  0
  1 17  1  0
  2 18  1  0
  2 19  1  0
  3 20  1  0
  3 21  1  0
  5 22  1  0
  6 23  1  0
  9 24  1  0
 10 25  1  0
 11 26  1  0
 12 27  1  0
 13 28  1  0
 14 29  1  0
 15 30  1  0
M  END
>  <UniqueID>  (11) 
11

>  <SMILES>  (11) 
NCCc1ccc(-c2ccccc2)cc1

>  <Energy>  (11) 
31.908511910336628

>  <Genealogy>  (11) 
NCCc1ccc(-c2ccccc2)cc1 (3D coordinates assigned)
NCCc1ccc(-c2ccccc2)cc1 (optimized conformer: 31.908511910336628 kcal/mol)

>  <smiles>  (11) 
NCCc1ccc(-c2ccccc2)cc1

>  <score_type>  (11) 
oracle

>  <origin>  (11) 
adg

>  <m_score__min__energy>  (11) 
-7.1600000000000001

>  <m_primary>  (11) 
energy

$$$$
11:0
     RDKit          3D

 38 40  0  0  0  0  0  0  0  0999 V2000
   65.6720   32.7270   50.1250 C   0  0  0  0  0  0  0  0  0  0  0  0
   64.9990   33.0620   48.9150 O   0  0  0  0  0  0  0  0  0  0  0  0
   63.6260   33.3340   48.8240 C   0  0  0  0  0  0  0  0  0  0  0  0
   62.9560   32.9870   47.6440 C   0  0  0  0  0  0  0  0  0  0  0  0
   61.5890   33.2380   47.5030 C   0  0  0  0  0  0  0  0  0  0  0  0
   60.8680   33.8400   48.5450 C   0  0  0  0  0  0  0  0  0  0  0  0
   59.4010   34.1290   48.3770 C   0  0  0  0  0  0  0  0  0  0  0  0
   59.0000   33.9220   46.9870 N   0  0  0  0  0  0  0  0  0  0  0  0
   58.3920   32.8250   46.5650 N   0  0  0  0  0  0  0  0  0  0  0  0
   58.2350   32.9280   45.2290 C   0  0  0  0  0  0  0  0  0  0  0  0
   57.5980   31.8790   44.4090 C   0  0  0  0  0  0  0  0  0  0  0  0
   57.6450   31.9050   43.0040 C   0  0  0  0  0  0  0  0  0  0  0  0
   57.0250   30.8850   42.2790 C   0  0  0  0  0  0  0  0  0  0  0  0
   56.3680   29.8540   42.9490 C   0  0  0  0  0  0  0  0  0  0  0  0
   56.3380   29.8580   44.3450 C   0  0  0  0  0  0  0  0  0  0  0  0
   56.9470   30.8580   45.0350 N   0  0  0  0  0  0  0  0  0  0  0  0
   58.7740   34.1280   44.7870 C   0  0  0  0  0  0  0  0  0  0  0  0
   59.2460   34.7320   45.9350 C   0  0  0  0  0  0  0  0  0  0  0  0
   60.0000   36.0250   45.9870 C   0  0  0  0  0  0  0  0  0  0  0  0
   61.5350   34.1910   49.7280 C   0  0  0  0  0  0  0  0  0  0  0  0
   62.9030   33.9400   49.8690 C   0  0  0  0  0  0  0  0  0  0  0  0
   65.0566   33.0333   50.9838 H   0  0  0  0  0  0  0  0  0  0  0  0
   65.8393   31.6405   50.1628 H   0  0  0  0  0  0  0  0  0  0  0  0
   66.6398   33.2485   50.1628 H   0  0  0  0  0  0  0  0  0  0  0  0
   63.5110   32.5127   46.8212 H   0  0  0  0  0  0  0  0  0  0  0  0
   61.0754   32.9622   46.5702 H   0  0  0  0  0  0  0  0  0  0  0  0
   58.8217   33.4558   49.0260 H   0  0  0  0  0  0  0  0  0  0  0  0
   59.2083   35.1762   48.6532 H   0  0  0  0  0  0  0  0  0  0  0  0
   58.1651   32.7209   42.4808 H   0  0  0  0  0  0  0  0  0  0  0  0
   57.0551   30.8951   41.1795 H   0  0  0  0  0  0  0  0  0  0  0  0
   55.8788   29.0466   42.3844 H   0  0  0  0  0  0  0  0  0  0  0  0
   55.8214   29.0517   44.8863 H   0  0  0  0  0  0  0  0  0  0  0  0
   58.8156   34.5107   43.7566 H   0  0  0  0  0  0  0  0  0  0  0  0
   60.1665   36.3104   47.0362 H   0  0  0  0  0  0  0  0  0  0  0  0
   60.9695   35.9047   45.4815 H   0  0  0  0  0  0  0  0  0  0  0  0
   59.4178   36.8095   45.4815 H   0  0  0  0  0  0  0  0  0  0  0  0
   60.9786   34.6664   50.5493 H   0  0  0  0  0  0  0  0  0  0  0  0
   63.4171   34.2174   50.8011 H   0  0  0  0  0  0  0  0  0  0  0  0
  1  2  1  0
  2  3  1  0
  3  4  2  0
  4  5  1  0
  5  6  2  0
  6  7  1  0
  7  8  1  0
  8  9  1  0
  9 10  2  0
 10 11  1  0
 11 12  2  0
 12 13  1  0
 13 14  2  0
 14 15  1  0
 15 16  2  0
 10 17  1  0
 17 18  2  0
 18 19  1  0
  6 20  1  0
 20 21  2  0
 21  3  1  0
 18  8  1  0
 16 11  1  0
  1 22  1  0
  1 23  1  0
  1 24  1  0
  4 25  1  0
  5 26  1  0
  7 27  1  0
  7 28  1  0
 12 29  1  0
 13 30  1  0
 14 31  1  0
 15 32  1  0
 17 33  1  0
 19 34  1  0
 19 35  1  0
 19 36  1  0
 20 37  1  0
 21 38  1  0
M  END
>  <UniqueID>  (12) 
12

>  <SMILES>  (12) 
COc1ccc(Cn2nc(-c3ccccn3)cc2C)cc1

>  <Energy>  (12) 
68.04402857030504

>  <Genealogy>  (12) 
COc1ccc(Cn2nc(-c3ccccn3)cc2C)cc1 (3D coordinates assigned)
COc1ccc(Cn2nc(-c3ccccn3)cc2C)cc1 (optimized conformer: 68.04402857030504 kcal/mol)

>  <smiles>  (12) 
COc1ccc(Cn2nc(-c3ccccn3)cc2C)cc1

>  <score_type>  (12) 
oracle

>  <origin>  (12) 
adg

>  <m_score__min__energy>  (12) 
-7.4900000000000002

>  <m_primary>  (12) 
energy

$$$$
12:0
     RDKit          3D

 56 59  0  0  0  0  0  0  0  0999 V2000
   62.2050   34.2360   49.6960 C   0  0  0  0  0  0  0  0  0  0  0  0
   63.5150   33.8550   49.0110 C   0  0  0  0  0  0  0  0  0  0  0  0
   63.4440   32.4930   48.4240 N   0  0  0  0  0  0  0  0  0  0  0  0
   62.6610   32.5540   47.1640 C   0  0  0  0  0  0  0  0  0  0  0  0
   62.9080   33.8440   46.3840 C   0  0  0  0  0  0  0  0  0  0  0  0
   62.8520   31.5290   49.3930 C   0  0  0  0  0  0  0  0  0  0  0  0
   61.5730   30.8670   48.8430 C   0  0  0  0  0  0  0  0  0  0  0  0
   60.2740   31.4310   49.4400 C   0  0  0  0  0  0  0  0  0  0  0  0
   59.0950   30.9120   48.7440 N   0  0  0  0  0  0  0  0  0  0  0  0
   58.9440   31.0740   47.3220 C   0  0  0  0  0  0  0  0  0  0  0  0
   58.9630   32.3840   46.7940 C   0  0  0  0  0  0  0  0  0  0  0  0
   59.2810   33.4960   47.5990 C   0  0  0  0  0  0  0  0  0  0  0  0
   59.2860   34.7820   47.0600 C   0  0  0  0  0  0  0  0  0  0  0  0
   58.9700   34.9580   45.7170 C   0  0  0  0  0  0  0  0  0  0  0  0
   58.6610   33.8830   44.9480 N   0  0  0  0  0  0  0  0  0  0  0  0
   58.6470   32.6100   45.4380 C   0  0  0  0  0  0  0  0  0  0  0  0
   58.3040   31.5340   44.6020 C   0  0  0  0  0  0  0  0  0  0  0  0
   57.9300   31.7730   43.1530 C   0  0  0  0  0  0  0  0  0  0  0  0
   58.3410   30.2190   45.1200 C   0  0  0  0  0  0  0  0  0  0  0  0
   57.9510   28.9080   44.1250 S   0  0  0  0  0  0  0  0  0  0  0  0
   58.0750   27.4290   44.8990 C   0  0  0  0  0  0  0  0  0  0  0  0
   57.7690   26.2490   44.2120 C   0  0  0  0  0  0  0  0  0  0  0  0
   57.8950   25.0180   44.8540 C   0  0  0  0  0  0  0  0  0  0  0  0
   58.3310   24.9670   46.1770 C   0  0  0  0  0  0  0  0  0  0  0  0
   58.6400   26.1450   46.8630 C   0  0  0  0  0  0  0  0  0  0  0  0
   58.5160   27.4110   46.2380 C   0  0  0  0  0  0  0  0  0  0  0  0
   58.8440   28.6010   46.9630 C   0  0  0  0  0  0  0  0  0  0  0  0
   59.3230   28.4360   48.1180 O   0  0  0  0  0  0  0  0  0  0  0  0
   58.7010   29.9510   46.4700 C   0  0  0  0  0  0  0  0  0  0  0  0
   62.3372   34.1976   50.7873 H   0  0  0  0  0  0  0  0  0  0  0  0
   61.9178   35.2549   49.3971 H   0  0  0  0  0  0  0  0  0  0  0  0
   61.4161   33.5301   49.3971 H   0  0  0  0  0  0  0  0  0  0  0  0
   63.7237   34.5794   48.2099 H   0  0  0  0  0  0  0  0  0  0  0  0
   64.3155   33.8653   49.7653 H   0  0  0  0  0  0  0  0  0  0  0  0
   62.9434   31.6996   46.5314 H   0  0  0  0  0  0  0  0  0  0  0  0
   61.5944   32.5239   47.4314 H   0  0  0  0  0  0  0  0  0  0  0  0
   63.0669   34.6737   47.0885 H   0  0  0  0  0  0  0  0  0  0  0  0
   63.7996   33.7247   45.7509 H   0  0  0  0  0  0  0  0  0  0  0  0
   62.0354   34.0625   45.7509 H   0  0  0  0  0  0  0  0  0  0  0  0
   63.5921   30.7448   49.6105 H   0  0  0  0  0  0  0  0  0  0  0  0
   62.5817   32.0853   50.3026 H   0  0  0  0  0  0  0  0  0  0  0  0
   61.5468   31.0161   47.7535 H   0  0  0  0  0  0  0  0  0  0  0  0
   61.6179   29.8041   49.1227 H   0  0  0  0  0  0  0  0  0  0  0  0
   60.2160   31.1482   50.5014 H   0  0  0  0  0  0  0  0  0  0  0  0
   60.2883   32.5251   49.3269 H   0  0  0  0  0  0  0  0  0  0  0  0
   58.3440   30.4150   49.2710 H   0  0  0  0  0  0  0  0  0  0  0  0
   59.5272   33.3484   48.6609 H   0  0  0  0  0  0  0  0  0  0  0  0
   59.5371   35.6479   47.6901 H   0  0  0  0  0  0  0  0  0  0  0  0
   58.9705   35.9669   45.2787 H   0  0  0  0  0  0  0  0  0  0  0  0
   57.0039   32.3648   43.1062 H   0  0  0  0  0  0  0  0  0  0  0  0
   58.7409   32.3207   42.6505 H   0  0  0  0  0  0  0  0  0  0  0  0
   57.7737   30.8070   42.6505 H   0  0  0  0  0  0  0  0  0  0  0  0
   57.4294   26.2927   43.1666 H   0  0  0  0  0  0  0  0  0  0  0  0
   57.6509   24.0891   44.3178 H   0  0  0  0  0  0  0  0  0  0  0  0
   58.4323   23.9957   46.6833 H   0  0  0  0  0  0  0  0  0  0  0  0
   58.9853   26.0885   47.9059 H   0  0  0  0  0  0  0  0  0  0  0  0
  1  2  1  0
  2  3  1  0
  3  4  1  0
  4  5  1  0
  3  6  1  0
  6  7  1  0
  7  8  1  0
  8  9  1  0
  9 10  1  0
 10 11  2  0
 11 12  1  0
 12 13  2  0
 13 14  1  0
 14 15  2  0
 15 16  1  0
 16 17  2  0
 17 18  1  0
 17 19  1  0
 19 20  1  0
 20 21  1  0
 21 22  2  0
 22 23  1  0
 23 24  2  0
 24 25  1  0
 25 26  2  0
 26 27  1  0
 27 28  2  0
 27 29  1  0
 29 10  1  0
 16 11  1  0
 29 19  2  0
 26 21  1  0
  1 30  1  0
  1 31  1  0
  1 32  1  0
  2 33  1  0
  2 34  1  0
  4 35  1  0
  4 36  1  0
  5 37  1  0
  5 38  1  0
  5 39  1  0
  6 40  1  0
  6 41  1  0
  7 42  1  0
  7 43  1  0
  8 44  1  0
  8 45  1  0
  9 46  1  0
 12 47  1  0
 13 48  1  0
 14 49  1  0
 18 50  1  0
 18 51  1  0
 18 52  1  0
 22 53  1  0
 23 54  1  0
 24 55  1  0
 25 56  1  0
M  END
>  <UniqueID>  (13) 
13

>  <SMILES>  (13) 
CCN(CC)CCCNc1c2cccnc2c(C)c2sc3ccccc3c(=O)c12

>  <Energy>  (13) 
88.4523072798662

>  <Genealogy>  (13) 
CCN(CC)CCCNc1c2cccnc2c(C)c2sc3ccccc3c(=O)c12 (3D coordinates assigned)
CCN(CC)CCCNc1c2cccnc2c(C)c2sc3ccccc3c(=O)c12 (optimized conformer: 88.4523072798662 kcal/mol)

>  <smiles>  (13) 
CCN(CC)CCCNc1c2cccnc2c(C)c2sc3ccccc3c(=O)c12

>  <score_type>  (13) 
oracle

>  <origin>  (13) 
adg

>  <m_score__min__energy>  (13) 
-8.2100000000000009

>  <m_primary>  (13) 
energy

$$$$
13:0
     RDKit          3D

 59 63  0  0  1  0  0  0  0  0999 V2000
   61.0530   26.1110   46.3880 C   0  0  0  0  0  0  0  0  0  0  0  0
   59.7210   25.7540   46.6880 O   0  0  0  0  0  0  0  0  0  0  0  0
   58.6400   26.5500   46.3270 C   0  0  0  0  0  0  0  0  0  0  0  0
   57.3580   26.0570   46.2100 C   0  0  0  0  0  0  0  0  0  0  0  0
   56.2760   26.8370   45.8520 C   0  0  0  0  0  0  0  0  0  0  0  0
   54.9960   26.3270   45.7380 O   0  0  0  0  0  0  0  0  0  0  0  0
   56.5510   28.1790   45.6070 C   0  0  0  0  0  0  0  0  0  0  0  0
   57.8230   28.6940   45.7180 C   0  0  0  0  0  0  0  0  0  0  0  0
   58.0430   30.0970   45.4510 C   0  0  0  0  0  0  0  0  0  0  0  0
   57.5770   30.6810   44.3140 C   0  0  0  0  0  0  0  0  0  0  0  0
   57.7350   32.0010   43.9730 C   0  0  0  0  0  0  0  0  0  0  0  0
   58.4180   32.8000   44.8430 C   0  0  0  0  0  0  0  0  0  0  0  0
   58.5730   34.0920   44.5100 N   0  0  0  0  0  0  0  0  0  0  0  0
   59.2340   34.9230   45.3270 C   0  0  0  0  0  0  0  0  0  0  0  0
   59.7210   34.4220   46.4630 N   0  0  0  0  0  0  0  0  0  0  0  0
   59.5840   33.1230   46.8340 C   0  0  0  0  0  0  0  0  0  0  0  0
   60.0700   32.7600   47.8970 N   0  0  0  0  0  0  0  0  0  0  0  0
   61.3290   32.6990   48.4070 C   0  0  0  0  0  0  0  0  0  0  0  0
   61.9690   33.8080   49.0170 C   0  0  0  0  0  0  0  0  0  0  0  0
   63.2040   33.5930   49.5970 C   0  0  0  0  0  0  0  0  0  0  0  0
   63.8330   32.3690   49.6100 C   0  0  0  0  0  0  0  0  0  0  0  0
   65.0940   32.1220   50.1950 N   0  0  0  0  0  0  0  0  0  0  0  0
   65.2280   31.1780   51.3300 C   0  0  0  0  0  0  0  0  0  0  0  0
   66.2160   31.7790   52.3190 C   0  0  0  0  0  0  0  0  0  0  0  0
   66.3210   33.2090   52.1420 N   0  0  0  0  0  0  0  0  0  0  0  0
   67.0780   33.7510   53.2570 C   0  0  0  0  0  0  0  0  0  0  0  0
   66.8150   33.6380   50.8800 C   0  0  0  0  0  0  0  0  0  0  0  0
   66.3330   32.7330   49.7740 C   0  0  0  0  0  0  0  0  0  0  0  0
   63.1920   31.3440   49.0200 N   0  0  0  0  0  0  0  0  0  0  0  0
   61.9890   31.4460   48.4280 C   0  0  0  0  0  0  0  0  0  0  0  0
   58.9150   32.2530   46.0200 C   0  0  0  0  0  0  0  0  0  0  0  0
   58.7430   30.9370   46.3360 C   0  0  0  0  0  0  0  0  0  0  0  0
   58.8930   27.8860   46.0800 C   0  0  0  0  0  0  0  0  0  0  0  0
   61.6120   26.2608   47.3234 H   0  0  0  0  0  0  0  0  0  0  0  0
   61.5251   25.3077   45.8034 H   0  0  0  0  0  0  0  0  0  0  0  0
   61.0601   27.0427   45.8034 H   0  0  0  0  0  0  0  0  0  0  0  0
   57.1884   24.9891   46.4118 H   0  0  0  0  0  0  0  0  0  0  0  0
   54.4000   26.7190   45.0130 H   0  0  0  0  0  0  0  0  0  0  0  0
   55.7278   28.8481   45.3161 H   0  0  0  0  0  0  0  0  0  0  0  0
   57.0270   30.0411   43.6083 H   0  0  0  0  0  0  0  0  0  0  0  0
   57.3261   32.4001   43.0330 H   0  0  0  0  0  0  0  0  0  0  0  0
   58.1860   34.4800   43.6120 H   0  0  0  0  0  0  0  0  0  0  0  0
   59.3705   35.9836   45.0693 H   0  0  0  0  0  0  0  0  0  0  0  0
   61.4992   34.8026   49.0278 H   0  0  0  0  0  0  0  0  0  0  0  0
   63.7114   34.4448   50.0735 H   0  0  0  0  0  0  0  0  0  0  0  0
   64.2515   31.0357   51.8159 H   0  0  0  0  0  0  0  0  0  0  0  0
   65.5846   30.1993   50.9764 H   0  0  0  0  0  0  0  0  0  0  0  0
   65.8738   31.5675   53.3428 H   0  0  0  0  0  0  0  0  0  0  0  0
   67.2049   31.3306   52.1427 H   0  0  0  0  0  0  0  0  0  0  0  0
   66.6218   33.4244   54.2032 H   0  0  0  0  0  0  0  0  0  0  0  0
   68.1156   33.3893   53.2061 H   0  0  0  0  0  0  0  0  0  0  0  0
   67.0699   34.8498   53.2061 H   0  0  0  0  0  0  0  0  0  0  0  0
   66.4636   34.6621   50.6855 H   0  0  0  0  0  0  0  0  0  0  0  0
   67.9142   33.6056   50.9049 H   0  0  0  0  0  0  0  0  0  0  0  0
   66.1659   33.3204   48.8591 H   0  0  0  0  0  0  0  0  0  0  0  0
   67.0851   31.9583   49.5636 H   0  0  0  0  0  0  0  0  0  0  0  0
   61.5219   30.5646   47.9644 H   0  0  0  0  0  0  0  0  0  0  0  0
   59.1489   30.5356   47.2763 H   0  0  0  0  0  0  0  0  0  0  0  0
   59.9098   28.2965   46.1674 H   0  0  0  0  0  0  0  0  0  0  0  0
  1  2  1  0
  2  3  1  0
  3  4  2  0
  4  5  1  0
  5  6  1  0
  5  7  2  0
  7  8  1  0
  8  9  1  0
  9 10  2  0
 10 11  1  0
 11 12  2  0
 12 13  1  0
 13 14  1  0
 14 15  2  0
 15 16  1  0
 16 17  2  0
 17 18  1  0
 18 19  2  0
 19 20  1  0
 20 21  2  0
 21 22  1  0
 22 23  1  0
 23 24  1  0
 24 25  1  0
 25 26  1  0
 25 27  1  0
 27 28  1  0
 21 29  1  0
 29 30  2  0
 16 31  1  0
 31 32  2  0
  8 33  2  0
 33  3  1  0
 32  9  1  0
 31 12  1  0
 30 18  1  0
 28 22  1  0
  1 34  1  0
  1 35  1  0
  1 36  1  0
  4 37  1  0
  6 38  1  0
  7 39  1  0
 10 40  1  0
 11 41  1  0
 13 42  1  0
 14 43  1  0
 19 44  1  0
 20 45  1  0
 23 46  1  0
 23 47  1  0
 24 48  1  0
 24 49  1  0
 26 50  1  0
 26 51  1  0
 26 52  1  0
 27 53  1  0
 27 54  1  0
 28 55  1  0
 28 56  1  0
 30 57  1  0
 32 58  1  0
 33 59  1  0
M  END
>  <smiles>  (14) 
COc1cc(O)cc(-c2ccc3[nH]cnc(=Nc4ccc(N5CCN(C)CC5)nc4)c3c2)c1

>  <score_type>  (14) 
oracle

>  <origin>  (14) 
adg

>  <m_score__min__energy>  (14) 
-8.9499999999999993

>  <m_primary>  (14) 
energy

$$$$
14:0
     RDKit          3D

 58 60  0  0  0  0  0  0  0  0999 V2000
   58.6990   33.8810   47.6260 C   0  0  0  0  0  0  0  0  0  0  0  0
   58.3850   33.3110   46.2670 C   0  0  0  0  0  0  0  0  0  0  0  0
   57.7450   32.0660   46.1780 C   0  0  0  0  0  0  0  0  0  0  0  0
   57.4530   31.4820   44.9320 C   0  0  0  0  0  0  0  0  0  0  0  0
   57.7530   32.1920   43.7430 C   0  0  0  0  0  0  0  0  0  0  0  0
   58.4160   33.4320   43.8400 C   0  0  0  0  0  0  0  0  0  0  0  0
   58.7470   33.9890   45.0840 C   0  0  0  0  0  0  0  0  0  0  0  0
   59.4500   35.3210   45.1330 C   0  0  0  0  0  0  0  0  0  0  0  0
   57.3940   31.6320   42.4510 N   0  0  0  0  0  0  0  0  0  0  0  0
   57.6480   32.3640   41.2040 C   0  0  0  0  0  0  0  0  0  0  0  0
   56.6280   30.3800   42.3710 C   0  0  0  0  0  0  0  0  0  0  0  0
   56.9860   29.4540   43.5290 C   0  0  0  0  0  0  0  0  0  0  0  0
   56.7220   30.1520   44.8630 C   0  0  1  0  0  0  0  0  0  0  0  0
   57.1470   29.2530   45.9390 N   0  0  0  0  0  0  0  0  0  0  0  0
   57.5940   27.8970   45.7900 C   0  0  0  0  0  0  0  0  0  0  0  0
   56.7590   27.0200   45.4460 O   0  0  0  0  0  0  0  0  0  0  0  0
   59.0110   27.4790   46.0790 C   0  0  0  0  0  0  0  0  0  0  0  0
   59.5670   28.2600   47.2850 C   0  0  0  0  0  0  0  0  0  0  0  0
   59.3410   29.7280   47.1890 N   0  0  1  0  0  0  0  0  0  0  0  0
   59.0090   30.3600   48.4900 C   0  0  0  0  0  0  0  0  0  0  0  0
   60.1770   30.3150   49.4960 C   0  0  0  0  0  0  0  0  0  0  0  0
   61.5560   30.5020   48.8200 C   0  0  2  0  0  0  0  0  0  0  0  0
   62.5190   31.2710   49.7330 C   0  0  0  0  0  0  0  0  0  0  0  0
   61.4130   31.2050   47.4640 C   0  0  0  0  0  0  0  0  0  0  0  0
   60.4840   30.4160   46.5140 C   0  0  0  0  0  0  0  0  0  0  0  0
   58.3241   33.2004   48.4046 H   0  0  0  0  0  0  0  0  0  0  0  0
   59.7878   33.9960   47.7328 H   0  0  0  0  0  0  0  0  0  0  0  0
   58.2144   34.8627   47.7328 H   0  0  0  0  0  0  0  0  0  0  0  0
   57.4660   31.5360   47.1006 H   0  0  0  0  0  0  0  0  0  0  0  0
   58.6796   33.9747   42.9202 H   0  0  0  0  0  0  0  0  0  0  0  0
   59.6053   35.6153   46.1815 H   0  0  0  0  0  0  0  0  0  0  0  0
   60.4232   35.2408   44.6267 H   0  0  0  0  0  0  0  0  0  0  0  0
   58.8346   36.0792   44.6267 H   0  0  0  0  0  0  0  0  0  0  0  0
   58.0002   33.3790   41.4399 H   0  0  0  0  0  0  0  0  0  0  0  0
   58.4156   31.8363   40.6189 H   0  0  0  0  0  0  0  0  0  0  0  0
   56.7185   32.4251   40.6189 H   0  0  0  0  0  0  0  0  0  0  0  0
   55.5533   30.6109   42.4123 H   0  0  0  0  0  0  0  0  0  0  0  0
   56.8737   29.8749   41.4252 H   0  0  0  0  0  0  0  0  0  0  0  0
   56.3734   28.5424   43.4682 H   0  0  0  0  0  0  0  0  0  0  0  0
   58.0529   29.1940   43.4645 H   0  0  0  0  0  0  0  0  0  0  0  0
   55.6497   30.3733   44.9685 H   0  0  0  0  0  0  0  0  0  0  0  0
   59.0325   26.4024   46.3035 H   0  0  0  0  0  0  0  0  0  0  0  0
   59.6329   27.6943   45.1976 H   0  0  0  0  0  0  0  0  0  0  0  0
   59.0763   27.8899   48.1973 H   0  0  0  0  0  0  0  0  0  0  0  0
   60.6548   28.0979   47.3054 H   0  0  0  0  0  0  0  0  0  0  0  0
   58.5040   29.8610   46.5710 H   0  0  0  0  0  0  0  0  0  0  0  0
   58.1490   29.8317   48.9272 H   0  0  0  0  0  0  0  0  0  0  0  0
   58.7835   31.4187   48.2940 H   0  0  0  0  0  0  0  0  0  0  0  0
   60.1646   29.3405   50.0061 H   0  0  0  0  0  0  0  0  0  0  0  0
   60.0384   31.1464   50.2028 H   0  0  0  0  0  0  0  0  0  0  0  0
   61.9809   29.5029   48.6433 H   0  0  0  0  0  0  0  0  0  0  0  0
   62.2668   31.0696   50.7846 H   0  0  0  0  0  0  0  0  0  0  0  0
   63.5509   30.9456   49.5346 H   0  0  0  0  0  0  0  0  0  0  0  0
   62.4300   32.3493   49.5346 H   0  0  0  0  0  0  0  0  0  0  0  0
   62.4066   31.2937   47.0005 H   0  0  0  0  0  0  0  0  0  0  0  0
   60.9710   32.1978   47.6341 H   0  0  0  0  0  0  0  0  0  0  0  0
   61.0874   29.6538   45.9993 H   0  0  0  0  0  0  0  0  0  0  0  0
   60.0421   31.1532   45.8276 H   0  0  0  0  0  0  0  0  0  0  0  0
  1  2  1  0
  2  3  2  0
  3  4  1  0
  4  5  2  0
  5  6  1  0
  6  7  2  0
  7  8  1  0
  5  9  1  0
  9 10  1  0
  9 11  1  0
 11 12  1  0
 12 13  1  0
 13 14  1  0
 14 15  1  0
 15 16  2  0
 15 17  1  0
 17 18  1  0
 18 19  1  0
 19 20  1  0
 20 21  1  0
 21 22  1  0
 22 23  1  0
 22 24  1  0
 24 25  1  0
  7  2  1  0
 25 19  1  0
 13  4  1  0
  1 26  1  0
  1 27  1  0
  1 28  1  0
  3 29  1  0
  6 30  1  0
  8 31  1  0
  8 32  1  0
  8 33  1  0
 10 34  1  0
 10 35  1  0
 10 36  1  0
 11 37  1  0
 11 38  1  0
 12 39  1  0
 12 40  1  0
 13 41  1  1
 17 42  1  0
 17 43  1  0
 18 44  1  0
 18 45  1  0
 19 46  1  6
 20 47  1  0
 20 48  1  0
 21 49  1  0
 21 50  1  0
 22 51  1  6
 23 52  1  0
 23 53  1  0
 23 54  1  0
 24 55  1  0
 24 56  1  0
 25 57  1  0
 25 58  1  0
M  CHG  2  14  -1  19   1
M  END
>  <UniqueID>  (15) 
14

>  <SMILES>  (15) 
Cc1cc2c(cc1C)N(C)CC[C@H]2[N-]C(=O)CC[NH+]1CCC(C)CC1

>  <Energy>  (15) 
65.41609681616288

>  <Genealogy>  (15) 
Cc1cc2c(cc1C)N(C)CCC2[N-]C(=O)CC[NH+]1CCC(C)CC1 (protonated)
Cc1cc2c(cc1C)N(C)CC[C@H]2[N-]C(=O)CC[NH+]1CCC(C)CC1 (chirality)
Cc1cc2c(cc1C)N(C)CC[C@H]2[N-]C(=O)CC[NH+]1CCC(C)CC1 (3D coordinates assigned)
Cc1cc2c(cc1C)N(C)CC[C@H]2[N-]C(=O)CC[NH+]1CCC(C)CC1 (nonaromatic ring conformer: 65.41609681616288 kcal/mol)

>  <smiles>  (15) 
Cc1cc2c(cc1C)N(C)CCC2NC(=O)CCN1CCC(C)CC1

>  <score_type>  (15) 
oracle

>  <origin>  (15) 
adg

>  <m_score__min__energy>  (15) 
-8.5899999999999999

>  <m_primary>  (15) 
energy

$$$$
15:0
     RDKit          3D

 54 56  0  0  0  0  0  0  0  0999 V2000
   58.8680   24.8480   45.9780 C   0  0  0  0  0  0  0  0  0  0  0  0
   59.9630   25.8450   46.3590 C   0  0  0  0  0  0  0  0  0  0  0  0
   59.4430   27.2320   46.4060 N   0  0  0  0  0  0  0  0  0  0  0  0
   58.2850   27.4190   45.4910 C   0  0  0  0  0  0  0  0  0  0  0  0
   58.7770   27.7900   44.0970 C   0  0  0  0  0  0  0  0  0  0  0  0
   59.1040   27.6070   47.7990 C   0  0  0  0  0  0  0  0  0  0  0  0
   59.6560   28.9950   48.1550 C   0  0  0  0  0  0  0  0  0  0  0  0
   60.3710   29.5850   47.0220 N   0  0  0  0  0  0  0  0  0  0  0  0
   60.3390   30.9980   46.7570 C   0  0  0  0  0  0  0  0  0  0  0  0
   61.4340   31.8090   47.0940 C   0  0  0  0  0  0  0  0  0  0  0  0
   62.6380   31.2420   47.5630 C   0  0  0  0  0  0  0  0  0  0  0  0
   63.7300   32.0470   47.8730 C   0  0  0  0  0  0  0  0  0  0  0  0
   63.6490   33.4250   47.7040 C   0  0  0  0  0  0  0  0  0  0  0  0
   62.4720   34.0070   47.2380 C   0  0  0  0  0  0  0  0  0  0  0  0
   61.3300   33.2190   46.9470 C   0  0  0  0  0  0  0  0  0  0  0  0
   60.1440   33.7830   46.5180 N   0  0  0  0  0  0  0  0  0  0  0  0
   59.9260   35.2400   46.6530 C   0  0  0  0  0  0  0  0  0  0  0  0
   59.1530   32.9820   45.9820 C   0  0  0  0  0  0  0  0  0  0  0  0
   58.0490   33.5280   45.2840 C   0  0  0  0  0  0  0  0  0  0  0  0
   57.0230   32.7130   44.8060 C   0  0  0  0  0  0  0  0  0  0  0  0
   57.0670   31.3300   44.9870 C   0  0  0  0  0  0  0  0  0  0  0  0
   55.9790   30.5220   44.4990 N   0  0  0  0  0  0  0  0  0  0  0  0
   56.0280   29.7660   43.2510 C   0  0  0  0  0  0  0  0  0  0  0  0
   58.1770   30.7640   45.6310 C   0  0  0  0  0  0  0  0  0  0  0  0
   59.2250   31.5710   46.1190 C   0  0  0  0  0  0  0  0  0  0  0  0
   58.4144   24.4350   46.8910 H   0  0  0  0  0  0  0  0  0  0  0  0
   58.0963   25.3600   45.3844 H   0  0  0  0  0  0  0  0  0  0  0  0
   59.3056   24.0318   45.3844 H   0  0  0  0  0  0  0  0  0  0  0  0
   60.3600   25.5785   47.3496 H   0  0  0  0  0  0  0  0  0  0  0  0
   60.7529   25.7985   45.5948 H   0  0  0  0  0  0  0  0  0  0  0  0
   57.7086   26.4837   45.4370 H   0  0  0  0  0  0  0  0  0  0  0  0
   57.6473   28.2283   45.8762 H   0  0  0  0  0  0  0  0  0  0  0  0
   59.6527   28.4504   44.1809 H   0  0  0  0  0  0  0  0  0  0  0  0
   59.0574   26.8766   43.5520 H   0  0  0  0  0  0  0  0  0  0  0  0
   57.9759   28.3108   43.5520 H   0  0  0  0  0  0  0  0  0  0  0  0
   58.0097   27.6174   47.9107 H   0  0  0  0  0  0  0  0  0  0  0  0
   59.5582   26.8692   48.4767 H   0  0  0  0  0  0  0  0  0  0  0  0
   58.8200   29.6532   48.4342 H   0  0  0  0  0  0  0  0  0  0  0  0
   60.3596   28.8863   48.9935 H   0  0  0  0  0  0  0  0  0  0  0  0
   60.8930   28.9610   46.3680 H   0  0  0  0  0  0  0  0  0  0  0  0
   62.7143   30.1514   47.6849 H   0  0  0  0  0  0  0  0  0  0  0  0
   64.6576   31.5932   48.2519 H   0  0  0  0  0  0  0  0  0  0  0  0
   64.5175   34.0579   47.9391 H   0  0  0  0  0  0  0  0  0  0  0  0
   62.4281   35.0966   47.0934 H   0  0  0  0  0  0  0  0  0  0  0  0
   59.8860   35.5075   47.7192 H   0  0  0  0  0  0  0  0  0  0  0  0
   60.7532   35.7808   46.1701 H   0  0  0  0  0  0  0  0  0  0  0  0
   58.9767   35.5150   46.1701 H   0  0  0  0  0  0  0  0  0  0  0  0
   57.9995   34.6139   45.1157 H   0  0  0  0  0  0  0  0  0  0  0  0
   56.1693   33.1656   44.2803 H   0  0  0  0  0  0  0  0  0  0  0  0
   55.1060   30.4530   45.0700 H   0  0  0  0  0  0  0  0  0  0  0  0
   56.0976   28.6915   43.4757 H   0  0  0  0  0  0  0  0  0  0  0  0
   55.1154   29.9604   42.6685 H   0  0  0  0  0  0  0  0  0  0  0  0
   56.9079   30.0766   42.6685 H   0  0  0  0  0  0  0  0  0  0  0  0
   58.2308   29.6726   45.7574 H   0  0  0  0  0  0  0  0  0  0  0  0
  1  2  1  0
  2  3  1  0
  3  4  1  0
  4  5  1  0
  3  6  1  0
  6  7  1  0
  7  8  1  0
  8  9  1  0
  9 10  2  0
 10 11  1  0
 11 12  2  0
 12 13  1  0
 13 14  2  0
 14 15  1  0
 15 16  2  0
 16 17  1  0
 16 18  1  0
 18 19  2  0
 19 20  1  0
 20 21  2  0
 21 22  1  0
 22 23  1  0
 21 24  1  0
 24 25  2  0
 25  9  1  0
 15 10  1  0
 25 18  1  0
  1 26  1  0
  1 27  1  0
  1 28  1  0
  2 29  1  0
  2 30  1  0
  4 31  1  0
  4 32  1  0
  5 33  1  0
  5 34  1  0
  5 35  1  0
  6 36  1  0
  6 37  1  0
  7 38  1  0
  7 39  1  0
  8 40  1  0
 11 41  1  0
 12 42  1  0
 13 43  1  0
 14 44  1  0
 17 45  1  0
 17 46  1  0
 17 47  1  0
 19 48  1  0
 20 49  1  0
 22 50  1  0
 23 51  1  0
 23 52  1  0
 23 53  1  0
 24 54  1  0
M  CHG  1  16   1
M  END
>  <UniqueID>  (16) 
15

>  <SMILES>  (16) 
CCN(CC)CCNc1c2ccccc2[n+](C)c2ccc(NC)cc12

>  <Energy>  (16) 
72.72467715997772

>  <Genealogy>  (16) 
CCN(CC)CCNc1c2ccccc2[n+](C)c2ccc(NC)cc12 (3D coordinates assigned)
CCN(CC)CCNc1c2ccccc2[n+](C)c2ccc(NC)cc12 (optimized conformer: 72.72467715997772 kcal/mol)

>  <smiles>  (16) 
CCN(CC)CCNc1c2ccccc2[n+](C)c2ccc(NC)cc12

>  <score_type>  (16) 
oracle

>  <origin>  (16) 
adg

>  <m_score__min__energy>  (16) 
-5.5999999999999996

>  <m_primary>  (16) 
energy

$$$$
16:0
     RDKit          3D

 34 36  0  0  0  0  0  0  0  0999 V2000
   58.6330   26.5040   45.3410 C   0  0  0  0  0  0  0  0  0  0  0  0
   58.5800   27.9980   45.3890 C   0  0  0  0  0  0  0  0  0  0  0  0
   59.6980   28.7330   45.8370 C   0  0  0  0  0  0  0  0  0  0  0  0
   59.6300   30.1310   45.8460 C   0  0  0  0  0  0  0  0  0  0  0  0
   58.4760   30.7170   45.4330 N   0  0  0  0  0  0  0  0  0  0  0  0
   58.1160   32.0060   45.2920 C   0  0  0  0  0  0  0  0  0  0  0  0
   58.9110   33.1910   45.6600 C   0  0  0  0  0  0  0  0  0  0  0  0
   59.1740   34.0500   44.7750 O   0  0  0  0  0  0  0  0  0  0  0  0
   59.3350   33.4020   47.0150 N   0  0  0  0  0  0  0  0  0  0  0  0
   60.2130   34.5050   47.3970 C   0  0  0  0  0  0  0  0  0  0  0  0
   61.5780   33.9860   47.7550 C   0  0  0  0  0  0  0  0  0  0  0  0
   61.9850   33.9480   49.0980 C   0  0  0  0  0  0  0  0  0  0  0  0
   63.2600   33.4840   49.4350 C   0  0  0  0  0  0  0  0  0  0  0  0
   64.1390   33.0600   48.4350 C   0  0  0  0  0  0  0  0  0  0  0  0
   63.7430   33.1000   47.0950 C   0  0  0  0  0  0  0  0  0  0  0  0
   62.4680   33.5630   46.7530 C   0  0  0  0  0  0  0  0  0  0  0  0
   56.8490   32.0250   44.7250 C   0  0  0  0  0  0  0  0  0  0  0  0
   56.4100   30.7590   44.5290 N   0  0  0  0  0  0  0  0  0  0  0  0
   57.4340   30.0060   44.9760 C   0  0  0  0  0  0  0  0  0  0  0  0
   57.4640   28.6500   44.9460 N   0  0  0  0  0  0  0  0  0  0  0  0
   58.6472   26.1045   46.3658 H   0  0  0  0  0  0  0  0  0  0  0  0
   57.7478   26.1225   44.8110 H   0  0  0  0  0  0  0  0  0  0  0  0
   59.5430   26.1862   44.8110 H   0  0  0  0  0  0  0  0  0  0  0  0
   60.6084   28.2156   46.1738 H   0  0  0  0  0  0  0  0  0  0  0  0
   60.4857   30.7374   46.1777 H   0  0  0  0  0  0  0  0  0  0  0  0
   58.9390   32.8040   47.7740 H   0  0  0  0  0  0  0  0  0  0  0  0
   60.3012   35.2070   46.5547 H   0  0  0  0  0  0  0  0  0  0  0  0
   59.7844   35.0170   48.2712 H   0  0  0  0  0  0  0  0  0  0  0  0
   61.2980   34.2847   49.8883 H   0  0  0  0  0  0  0  0  0  0  0  0
   63.5718   33.4526   50.4894 H   0  0  0  0  0  0  0  0  0  0  0  0
   65.1418   32.6950   48.7020 H   0  0  0  0  0  0  0  0  0  0  0  0
   64.4353   32.7667   46.3079 H   0  0  0  0  0  0  0  0  0  0  0  0
   62.1613   33.5961   45.6971 H   0  0  0  0  0  0  0  0  0  0  0  0
   56.2846   32.9347   44.4721 H   0  0  0  0  0  0  0  0  0  0  0  0
  1  2  1  0
  2  3  1  0
  3  4  2  0
  4  5  1  0
  5  6  1  0
  6  7  1  0
  7  8  2  0
  7  9  1  0
  9 10  1  0
 10 11  1  0
 11 12  2  0
 12 13  1  0
 13 14  2  0
 14 15  1  0
 15 16  2  0
  6 17  2  0
 17 18  1  0
 18 19  2  0
 19 20  1  0
 20  2  2  0
 19  5  1  0
 16 11  1  0
  1 21  1  0
  1 22  1  0
  1 23  1  0
  3 24  1  0
  4 25  1  0
  9 26  1  0
 10 27  1  0
 10 28  1  0
 12 29  1  0
 13 30  1  0
 14 31  1  0
 15 32  1  0
 16 33  1  0
 17 34  1  0
M  END
>  <UniqueID>  (17) 
16

>  <SMILES>  (17) 
Cc1ccn2c(C(=O)NCc3ccccc3)cnc2n1

>  <Energy>  (17) 
72.4509306643345

>  <Genealogy>  (17) 
Cc1ccn2c(C(=O)NCc3ccccc3)cnc2n1 (3D coordinates assigned)
Cc1ccn2c(C(=O)NCc3ccccc3)cnc2n1 (optimized conformer: 72.4509306643345 kcal/mol)

>  <smiles>  (17) 
Cc1ccn2c(C(=O)NCc3ccccc3)cnc2n1

>  <score_type>  (17) 
oracle

>  <origin>  (17) 
adg

>  <m_score__min__energy>  (17) 
-6.8200000000000003

>  <m_primary>  (17) 
energy

$$$$
17:0
     RDKit          3D

 32 34  0  0  0  0  0  0  0  0999 V2000
   56.7200   30.2980   43.5280 C   0  0  0  0  0  0  0  0  0  0  0  0
   56.7740   30.7670   44.8720 O   0  0  0  0  0  0  0  0  0  0  0  0
   57.7270   31.6760   45.3550 C   0  0  0  0  0  0  0  0  0  0  0  0
   57.6620   33.0030   44.9170 C   0  0  0  0  0  0  0  0  0  0  0  0
   58.5880   33.9470   45.3690 C   0  0  0  0  0  0  0  0  0  0  0  0
   59.6010   33.5730   46.2660 C   0  0  0  0  0  0  0  0  0  0  0  0
   60.5780   34.5890   46.7860 C   0  0  0  0  0  0  0  0  0  0  0  0
   61.8290   33.9340   47.1580 N   0  0  0  0  0  0  0  0  0  0  0  0
   62.7200   33.4660   46.2880 N   0  0  0  0  0  0  0  0  0  0  0  0
   63.7120   32.8530   46.9290 N   0  0  0  0  0  0  0  0  0  0  0  0
   63.4350   32.9260   48.2410 C   0  0  0  0  0  0  0  0  0  0  0  0
   64.1460   32.4220   49.3250 C   0  0  0  0  0  0  0  0  0  0  0  0
   63.6010   32.6290   50.6070 C   0  0  0  0  0  0  0  0  0  0  0  0
   62.3760   33.3250   50.7640 C   0  0  0  0  0  0  0  0  0  0  0  0
   61.8650   33.5160   52.0050 F   0  0  0  0  0  0  0  0  0  0  0  0
   61.6850   33.8200   49.6400 C   0  0  0  0  0  0  0  0  0  0  0  0
   62.2580   33.5960   48.3880 C   0  0  0  0  0  0  0  0  0  0  0  0
   59.6640   32.2440   46.7140 C   0  0  0  0  0  0  0  0  0  0  0  0
   58.7380   31.3000   46.2610 C   0  0  0  0  0  0  0  0  0  0  0  0
   56.5942   29.2052   43.5258 H   0  0  0  0  0  0  0  0  0  0  0  0
   55.8698   30.7660   43.0102 H   0  0  0  0  0  0  0  0  0  0  0  0
   57.6543   30.5606   43.0102 H   0  0  0  0  0  0  0  0  0  0  0  0
   56.8751   33.3060   44.2106 H   0  0  0  0  0  0  0  0  0  0  0  0
   58.5228   34.9882   45.0202 H   0  0  0  0  0  0  0  0  0  0  0  0
   60.7768   35.3367   46.0041 H   0  0  0  0  0  0  0  0  0  0  0  0
   60.1504   35.0807   47.6722 H   0  0  0  0  0  0  0  0  0  0  0  0
   64.5350   32.3990   46.4730 H   0  0  0  0  0  0  0  0  0  0  0  0
   65.0953   31.8837   49.1866 H   0  0  0  0  0  0  0  0  0  0  0  0
   64.1298   32.2478   51.4931 H   0  0  0  0  0  0  0  0  0  0  0  0
   60.7329   34.3608   49.7455 H   0  0  0  0  0  0  0  0  0  0  0  0
   60.4469   31.9437   47.4259 H   0  0  0  0  0  0  0  0  0  0  0  0
   58.7990   30.2597   46.6133 H   0  0  0  0  0  0  0  0  0  0  0  0
  1  2  1  0
  2  3  1  0
  3  4  2  0
  4  5  1  0
  5  6  2  0
  6  7  1  0
  7  8  1  0
  8  9  1  0
  9 10  2  0
 10 11  1  0
 11 12  2  0
 12 13  1  0
 13 14  2  0
 14 15  1  0
 14 16  1  0
 16 17  2  0
  6 18  1  0
 18 19  2  0
 19  3  1  0
 17  8  1  0
 17 11  1  0
  1 20  1  0
  1 21  1  0
  1 22  1  0
  4 23  1  0
  5 24  1  0
  7 25  1  0
  7 26  1  0
 10 27  1  0
 12 28  1  0
 13 29  1  0
 16 30  1  0
 18 31  1  0
 19 32  1  0
M  CHG  1  10   1
M  END
>  <UniqueID>  (18) 
17

>  <SMILES>  (18) 
COc1ccc(Cn2n[nH+]c3ccc(F)cc32)cc1

>  <Energy>  (18) 
77.68771555366835

>  <Genealogy>  (18) 
COc1ccc(Cn2n[nH+]c3ccc(F)cc32)cc1 (protonated)
COc1ccc(Cn2n[nH+]c3ccc(F)cc32)cc1 (3D coordinates assigned)
COc1ccc(Cn2n[nH+]c3ccc(F)cc32)cc1 (optimized conformer: 77.68771555366835 kcal/mol)

>  <smiles>  (18) 
COc1ccc(Cn2nnc3ccc(F)cc32)cc1

>  <score_type>  (18) 
oracle

>  <origin>  (18) 
adg

>  <m_score__min__energy>  (18) 
-5.96

>  <m_primary>  (18) 
energy

$$$$
18:0
     RDKit          3D

 43 46  0  0  0  0  0  0  0  0999 V2000
   53.7660   24.7610   45.5530 C   0  0  0  0  0  0  0  0  0  0  0  0
   54.5400   25.9060   45.8990 O   0  0  0  0  0  0  0  0  0  0  0  0
   55.9310   25.8940   46.0830 C   0  0  0  0  0  0  0  0  0  0  0  0
   56.6330   24.7340   46.4480 C   0  0  0  0  0  0  0  0  0  0  0  0
   58.0160   24.7760   46.6250 C   0  0  0  0  0  0  0  0  0  0  0  0
   58.7300   25.9750   46.4390 C   0  0  0  0  0  0  0  0  0  0  0  0
   60.1220   26.0370   46.6290 O   0  0  0  0  0  0  0  0  0  0  0  0
   60.7630   26.7040   47.7110 C   0  0  0  0  0  0  0  0  0  0  0  0
   58.0330   27.1420   46.0560 C   0  0  0  0  0  0  0  0  0  0  0  0
   58.7640   28.4650   45.8650 C   0  0  2  0  0  0  0  0  0  0  0  0
   58.8420   29.2240   47.2010 C   0  0  0  0  0  0  0  0  0  0  0  0
   59.3800   30.5320   47.0110 O   0  0  0  0  0  0  0  0  0  0  0  0
   58.9500   31.3630   45.9690 C   0  0  0  0  0  0  0  0  0  0  0  0
   58.2800   30.8010   44.8650 C   0  0  0  0  0  0  0  0  0  0  0  0
   57.8220   31.6310   43.8300 C   0  0  0  0  0  0  0  0  0  0  0  0
   58.0420   33.0090   43.8810 C   0  0  0  0  0  0  0  0  0  0  0  0
   58.7280   33.5730   44.9650 C   0  0  0  0  0  0  0  0  0  0  0  0
   58.9640   34.9530   45.0250 C   0  0  0  0  0  0  0  0  0  0  0  0
   59.6480   35.4920   46.1140 C   0  0  0  0  0  0  0  0  0  0  0  0
   60.0890   34.6500   47.1350 C   0  0  0  0  0  0  0  0  0  0  0  0
   59.8560   33.3110   47.0730 N   0  0  0  0  0  0  0  0  0  0  0  0
   59.1910   32.7500   46.0180 C   0  0  0  0  0  0  0  0  0  0  0  0
   58.1210   29.3310   44.8030 C   0  0  0  0  0  0  0  0  0  0  0  0
   57.5410   28.7970   43.8170 O   0  0  0  0  0  0  0  0  0  0  0  0
   56.6340   27.0870   45.8950 C   0  0  0  0  0  0  0  0  0  0  0  0
   53.4258   24.2577   46.4700 H   0  0  0  0  0  0  0  0  0  0  0  0
   52.8932   25.0736   44.9609 H   0  0  0  0  0  0  0  0  0  0  0  0
   54.3814   24.0677   44.9609 H   0  0  0  0  0  0  0  0  0  0  0  0
   56.0903   23.7886   46.5949 H   0  0  0  0  0  0  0  0  0  0  0  0
   58.5551   23.8615   46.9133 H   0  0  0  0  0  0  0  0  0  0  0  0
   60.3819   26.3074   48.6636 H   0  0  0  0  0  0  0  0  0  0  0  0
   61.8488   26.5376   47.6527 H   0  0  0  0  0  0  0  0  0  0  0  0
   60.5536   27.7823   47.6527 H   0  0  0  0  0  0  0  0  0  0  0  0
   59.7808   28.2303   45.5171 H   0  0  0  0  0  0  0  0  0  0  0  0
   57.8314   29.3083   47.6272 H   0  0  0  0  0  0  0  0  0  0  0  0
   59.5010   28.6679   47.8840 H   0  0  0  0  0  0  0  0  0  0  0  0
   57.2869   31.1937   42.9742 H   0  0  0  0  0  0  0  0  0  0  0  0
   57.6759   33.6534   43.0682 H   0  0  0  0  0  0  0  0  0  0  0  0
   58.6108   35.6089   44.2157 H   0  0  0  0  0  0  0  0  0  0  0  0
   59.8386   36.5740   46.1676 H   0  0  0  0  0  0  0  0  0  0  0  0
   60.6287   35.0714   47.9959 H   0  0  0  0  0  0  0  0  0  0  0  0
   60.2020   32.7170   47.8600 H   0  0  0  0  0  0  0  0  0  0  0  0
   56.0858   27.9991   45.6165 H   0  0  0  0  0  0  0  0  0  0  0  0
  1  2  1  0
  2  3  1  0
  3  4  2  0
  4  5  1  0
  5  6  2  0
  6  7  1  0
  7  8  1  0
  6  9  1  0
  9 10  1  0
 10 11  1  0
 11 12  1  0
 12 13  1  0
 13 14  2  0
 14 15  1  0
 15 16  2  0
 16 17  1  0
 17 18  2  0
 18 19  1  0
 19 20  2  0
 20 21  1  0
 21 22  2  0
 14 23  1  0
 23 24  2  0
  9 25  2  0
 25  3  1  0
 23 10  1  0
 22 13  1  0
 22 17  1  0
  1 26  1  0
  1 27  1  0
  1 28  1  0
  4 29  1  0
  5 30  1  0
  8 31  1  0
  8 32  1  0
  8 33  1  0
 10 34  1  6
 11 35  1  0
 11 36  1  0
 15 37  1  0
 16 38  1  0
 18 39  1  0
 19 40  1  0
 20 41  1  0
 21 42  1  0
 25 43  1  0
M  CHG  1  21   1
M  END
>  <UniqueID>  (19) 
18

>  <SMILES>  (19) 
COc1ccc(OC)c([C@@H]2COc3c(ccc4ccc[nH+]c34)C2=O)c1

>  <Energy>  (19) 
53.677484679840596

>  <Genealogy>  (19) 
COc1ccc(OC)c(C2COc3c(ccc4ccc[nH+]c34)C2=O)c1 (protonated)
COc1ccc(OC)c([C@@H]2COc3c(ccc4ccc[nH+]c34)C2=O)c1 (chirality)
COc1ccc(OC)c([C@@H]2COc3c(ccc4ccc[nH+]c34)C2=O)c1 (3D coordinates assigned)
COc1ccc(OC)c([C@@H]2COc3c(ccc4ccc[nH+]c34)C2=O)c1 (nonaromatic ring conformer: 53.677484679840596 kcal/mol)

>  <smiles>  (19) 
COc1ccc(OC)c(C2COc3c(ccc4cccnc34)C2=O)c1

>  <score_type>  (19) 
oracle

>  <origin>  (19) 
adg

>  <m_score__min__energy>  (19) 
-6.4400000000000004

>  <m_primary>  (19) 
energy

$$$$
19:0
     RDKit          3D

 42 44  0  0  0  0  0  0  0  0999 V2000
   61.5070   34.2460   49.1980 C   0  0  0  0  0  0  0  0  0  0  0  0
   60.0660   33.8950   48.9780 C   0  0  0  0  0  0  0  0  0  0  0  0
   59.3420   33.6850   49.9890 O   0  0  0  0  0  0  0  0  0  0  0  0
   59.4930   33.8180   47.6520 N   0  0  0  0  0  0  0  0  0  0  0  0
   60.2620   34.2200   46.4680 C   0  0  0  0  0  0  0  0  0  0  0  0
   59.3440   34.8360   45.4050 C   0  0  0  0  0  0  0  0  0  0  0  0
   58.1200   34.0470   45.1620 N   0  0  0  0  0  0  0  0  0  0  0  0
   58.1670   33.0800   44.0460 C   0  0  0  0  0  0  0  0  0  0  0  0
   57.5940   31.7400   44.3890 C   0  0  0  0  0  0  0  0  0  0  0  0
   56.2780   31.5150   44.5740 N   0  0  0  0  0  0  0  0  0  0  0  0
   56.1920   30.2470   44.8320 O   0  0  0  0  0  0  0  0  0  0  0  0
   57.3870   29.7050   44.8030 C   0  0  0  0  0  0  0  0  0  0  0  0
   57.6590   28.2790   45.0610 C   0  0  0  0  0  0  0  0  0  0  0  0
   57.7460   27.7940   46.3770 C   0  0  0  0  0  0  0  0  0  0  0  0
   58.0000   26.4400   46.6160 C   0  0  0  0  0  0  0  0  0  0  0  0
   58.1590   25.5500   45.5440 C   0  0  0  0  0  0  0  0  0  0  0  0
   58.4710   24.1050   45.8010 C   0  0  0  0  0  0  0  0  0  0  0  0
   58.0910   26.0350   44.2300 C   0  0  0  0  0  0  0  0  0  0  0  0
   57.8360   27.3880   43.9900 C   0  0  0  0  0  0  0  0  0  0  0  0
   58.3340   30.6190   44.5130 N   0  0  0  0  0  0  0  0  0  0  0  0
   57.3930   33.6230   46.3730 C   0  0  0  0  0  0  0  0  0  0  0  0
   58.3070   32.9870   47.4260 C   0  0  0  0  0  0  0  0  0  0  0  0
   61.7115   34.2958   50.2777 H   0  0  0  0  0  0  0  0  0  0  0  0
   62.1459   33.4772   48.7389 H   0  0  0  0  0  0  0  0  0  0  0  0
   61.7208   35.2225   48.7389 H   0  0  0  0  0  0  0  0  0  0  0  0
   61.0188   34.9613   46.7642 H   0  0  0  0  0  0  0  0  0  0  0  0
   60.7453   33.3283   46.0423 H   0  0  0  0  0  0  0  0  0  0  0  0
   59.0503   35.8423   45.7382 H   0  0  0  0  0  0  0  0  0  0  0  0
   59.9087   34.8601   44.4613 H   0  0  0  0  0  0  0  0  0  0  0  0
   57.5978   33.4957   43.2015 H   0  0  0  0  0  0  0  0  0  0  0  0
   59.2275   32.9236   43.7994 H   0  0  0  0  0  0  0  0  0  0  0  0
   57.6135   28.4834   47.2238 H   0  0  0  0  0  0  0  0  0  0  0  0
   58.0755   26.0712   47.6496 H   0  0  0  0  0  0  0  0  0  0  0  0
   58.5098   23.9255   46.8856 H   0  0  0  0  0  0  0  0  0  0  0  0
   57.6881   23.4755   45.3529 H   0  0  0  0  0  0  0  0  0  0  0  0
   59.4439   23.8546   45.3529 H   0  0  0  0  0  0  0  0  0  0  0  0
   58.2390   25.3474   43.3843 H   0  0  0  0  0  0  0  0  0  0  0  0
   57.7735   27.7573   42.9557 H   0  0  0  0  0  0  0  0  0  0  0  0
   56.9066   34.5042   46.8168 H   0  0  0  0  0  0  0  0  0  0  0  0
   56.6607   32.8608   46.0682 H   0  0  0  0  0  0  0  0  0  0  0  0
   57.7528   32.8841   48.3706 H   0  0  0  0  0  0  0  0  0  0  0  0
   58.6304   31.9999   47.0640 H   0  0  0  0  0  0  0  0  0  0  0  0
  1  2  1  0
  2  3  2  0
  2  4  1  0
  4  5  1  0
  5  6  1  0
  6  7  1  0
  7  8  1  0
  8  9  1  0
  9 10  2  0
 10 11  1  0
 11 12  1  0
 12 13  1  0
 13 14  2  0
 14 15  1  0
 15 16  2  0
 16 17  1  0
 16 18  1  0
 18 19  2  0
 12 20  2  0
  7 21  1  0
 21 22  1  0
 22  4  1  0
 20  9  1  0
 19 13  1  0
  1 23  1  0
  1 24  1  0
  1 25  1  0
  5 26  1  0
  5 27  1  0
  6 28  1  0
  6 29  1  0
  8 30  1  0
  8 31  1  0
 14 32  1  0
 15 33  1  0
 17 34  1  0
 17 35  1  0
 17 36  1  0
 18 37  1  0
 19 38  1  0
 21 39  1  0
 21 40  1  0
 22 41  1  0
 22 42  1  0
M  END
>  <UniqueID>  (20) 
19

>  <SMILES>  (20) 
CC(=O)N1CCN(Cc2noc(-c3ccc(C)cc3)n2)CC1

>  <Energy>  (20) 
82.80738732464172

>  <Genealogy>  (20) 
CC(=O)N1CCN(Cc2noc(-c3ccc(C)cc3)n2)CC1 (3D coordinates assigned)
CC(=O)N1CCN(Cc2noc(-c3ccc(C)cc3)n2)CC1 (nonaromatic ring conformer: 82.80738732464172 kcal/mol)

>  <smiles>  (20) 
CC(=O)N1CCN(Cc2noc(-c3ccc(C)cc3)n2)CC1

>  <score_type>  (20) 
oracle

>  <origin>  (20) 
adg

>  <m_score__min__energy>  (20) 
-8.1799999999999997

>  <m_primary>  (20) 
energy

$$$$
20:0
     RDKit          3D

 59 60  0  0  0  0  0  0  0  0999 V2000
   59.4870   26.8770   46.6370 C   0  0  0  0  0  0  0  0  0  0  0  0
   57.9850   26.5870   46.5860 C   0  0  0  0  0  0  0  0  0  0  0  0
   57.3130   26.9370   45.2390 C   0  0  2  0  0  0  0  0  0  0  0  0
   58.0770   26.3650   44.0340 C   0  0  0  0  0  0  0  0  0  0  0  0
   57.0790   28.4240   45.1070 C   0  0  0  0  0  0  0  0  0  0  0  0
   55.9110   28.8910   45.2240 O   0  0  0  0  0  0  0  0  0  0  0  0
   58.1730   29.2870   44.7550 N   0  0  0  0  0  0  0  0  0  0  0  0
   58.0590   30.7150   44.6390 C   0  0  0  0  0  0  0  0  0  0  0  0
   57.8740   31.3380   43.3930 C   0  0  0  0  0  0  0  0  0  0  0  0
   57.7730   32.7280   43.3080 C   0  0  0  0  0  0  0  0  0  0  0  0
   57.8450   33.5090   44.4630 C   0  0  0  0  0  0  0  0  0  0  0  0
   57.9950   32.9020   45.7180 C   0  0  0  0  0  0  0  0  0  0  0  0
   58.1100   33.7510   46.9590 C   0  0  0  0  0  0  0  0  0  0  0  0
   59.4620   34.3430   47.0710 N   0  0  0  0  0  0  0  0  0  0  0  0
   59.8270   34.6030   48.4900 C   0  0  0  0  0  0  0  0  0  0  0  0
   60.7430   33.5170   49.0720 C   0  0  0  0  0  0  0  0  0  0  0  0
   62.0790   33.4570   48.2910 C   0  0  0  0  0  0  0  0  0  0  0  0
   62.7420   32.1030   48.4370 C   0  0  0  0  0  0  0  0  0  0  0  0
   64.0000   32.0210   48.3750 O   0  0  0  0  0  0  0  0  0  0  0  0
   61.9690   30.9080   48.6700 N   0  0  0  0  0  0  0  0  0  0  0  0
   61.8840   30.3840   50.0370 C   0  0  0  0  0  0  0  0  0  0  0  0
   61.1010   30.3420   47.6280 C   0  0  0  0  0  0  0  0  0  0  0  0
   59.7530   29.9420   48.2200 C   0  0  0  0  0  0  0  0  0  0  0  0
   61.8960   33.8240   46.7990 C   0  0  0  0  0  0  0  0  0  0  0  0
   60.4660   33.5380   46.3270 C   0  0  0  0  0  0  0  0  0  0  0  0
   58.0950   31.5040   45.7990 C   0  0  0  0  0  0  0  0  0  0  0  0
   59.8129   26.9399   47.6857 H   0  0  0  0  0  0  0  0  0  0  0  0
   60.0341   26.0679   46.1310 H   0  0  0  0  0  0  0  0  0  0  0  0
   59.6935   27.8316   46.1310 H   0  0  0  0  0  0  0  0  0  0  0  0
   57.8350   25.5141   46.7769 H   0  0  0  0  0  0  0  0  0  0  0  0
   57.5154   27.2275   47.3471 H   0  0  0  0  0  0  0  0  0  0  0  0
   56.3276   26.4481   45.2386 H   0  0  0  0  0  0  0  0  0  0  0  0
   58.9100   25.7413   44.3905 H   0  0  0  0  0  0  0  0  0  0  0  0
   57.3956   25.7532   43.4246 H   0  0  0  0  0  0  0  0  0  0  0  0
   58.4721   27.1911   43.4246 H   0  0  0  0  0  0  0  0  0  0  0  0
   59.0600   28.8390   44.4340 H   0  0  0  0  0  0  0  0  0  0  0  0
   57.8084   30.7276   42.4802 H   0  0  0  0  0  0  0  0  0  0  0  0
   57.6363   33.2091   42.3283 H   0  0  0  0  0  0  0  0  0  0  0  0
   57.7838   34.6047   44.3882 H   0  0  0  0  0  0  0  0  0  0  0  0
   57.3656   34.5595   46.9124 H   0  0  0  0  0  0  0  0  0  0  0  0
   57.9314   33.1143   47.8380 H   0  0  0  0  0  0  0  0  0  0  0  0
   60.3465   35.5708   48.5486 H   0  0  0  0  0  0  0  0  0  0  0  0
   58.8975   34.6055   49.0782 H   0  0  0  0  0  0  0  0  0  0  0  0
   60.9509   33.7465   50.1275 H   0  0  0  0  0  0  0  0  0  0  0  0
   60.2380   32.5434   48.9875 H   0  0  0  0  0  0  0  0  0  0  0  0
   62.7433   34.2127   48.7356 H   0  0  0  0  0  0  0  0  0  0  0  0
   62.0175   31.2073   50.7542 H   0  0  0  0  0  0  0  0  0  0  0  0
   60.8988   29.9197   50.1911 H   0  0  0  0  0  0  0  0  0  0  0  0
   62.6719   29.6320   50.1911 H   0  0  0  0  0  0  0  0  0  0  0  0
   60.9426   31.0933   46.8403 H   0  0  0  0  0  0  0  0  0  0  0  0
   61.5851   29.4490   47.2058 H   0  0  0  0  0  0  0  0  0  0  0  0
   59.8148   29.9603   49.3181 H   0  0  0  0  0  0  0  0  0  0  0  0
   58.9806   30.6497   47.8844 H   0  0  0  0  0  0  0  0  0  0  0  0
   59.4916   28.9276   47.8844 H   0  0  0  0  0  0  0  0  0  0  0  0
   62.1106   34.8944   46.6643 H   0  0  0  0  0  0  0  0  0  0  0  0
   62.5878   33.2107   46.2030 H   0  0  0  0  0  0  0  0  0  0  0  0
   60.3908   33.7783   45.2562 H   0  0  0  0  0  0  0  0  0  0  0  0
   60.2535   32.4747   46.5123 H   0  0  0  0  0  0  0  0  0  0  0  0
   58.2027   31.0221   46.7819 H   0  0  0  0  0  0  0  0  0  0  0  0
  1  2  1  0
  2  3  1  0
  3  4  1  0
  3  5  1  0
  5  6  2  0
  5  7  1  0
  7  8  1  0
  8  9  2  0
  9 10  1  0
 10 11  2  0
 11 12  1  0
 12 13  1  0
 13 14  1  0
 14 15  1  0
 15 16  1  0
 16 17  1  0
 17 18  1  0
 18 19  2  0
 18 20  1  0
 20 21  1  0
 20 22  1  0
 22 23  1  0
 17 24  1  0
 24 25  1  0
 12 26  2  0
 26  8  1  0
 25 14  1  0
  1 27  1  0
  1 28  1  0
  1 29  1  0
  2 30  1  0
  2 31  1  0
  3 32  1  1
  4 33  1  0
  4 34  1  0
  4 35  1  0
  7 36  1  0
  9 37  1  0
 10 38  1  0
 11 39  1  0
 13 40  1  0
 13 41  1  0
 15 42  1  0
 15 43  1  0
 16 44  1  0
 16 45  1  0
 17 46  1  0
 21 47  1  0
 21 48  1  0
 21 49  1  0
 22 50  1  0
 22 51  1  0
 23 52  1  0
 23 53  1  0
 23 54  1  0
 24 55  1  0
 24 56  1  0
 25 57  1  0
 25 58  1  0
 26 59  1  0
M  END
>  <UniqueID>  (21) 
20

>  <SMILES>  (21) 
CC[C@H](C)C(=O)Nc1cccc(CN2CCC(C(=O)N(C)CC)CC2)c1

>  <Energy>  (21) 
61.97111437779251

>  <Genealogy>  (21) 
CC[C@H](C)C(=O)Nc1cccc(CN2CCC(C(=O)N(C)CC)CC2)c1 (chirality)
CC[C@H](C)C(=O)Nc1cccc(CN2CCC(C(=O)N(C)CC)CC2)c1 (3D coordinates assigned)
CC[C@H](C)C(=O)Nc1cccc(CN2CCC(C(=O)N(C)CC)CC2)c1 (nonaromatic ring conformer: 61.97111437779251 kcal/mol)

>  <smiles>  (21) 
CCC(C)C(=O)Nc1cccc(CN2CCC(C(=O)N(C)CC)CC2)c1

>  <score_type>  (21) 
oracle

>  <origin>  (21) 
adg

>  <m_score__min__energy>  (21) 
-8.5

>  <m_primary>  (21) 
energy

$$$$
21:0
     RDKit          3D

 57 60  0  0  0  0  0  0  0  0999 V2000
   62.4500   33.7040   50.3390 C   0  0  0  0  0  0  0  0  0  0  0  0
   62.3780   34.3440   49.0680 O   0  0  0  0  0  0  0  0  0  0  0  0
   61.2770   34.2700   48.1990 C   0  0  0  0  0  0  0  0  0  0  0  0
   59.9680   34.5620   48.6260 C   0  0  0  0  0  0  0  0  0  0  0  0
   58.8960   34.4660   47.7370 C   0  0  0  0  0  0  0  0  0  0  0  0
   59.1120   34.0950   46.4020 C   0  0  0  0  0  0  0  0  0  0  0  0
   57.9450   33.9360   45.4590 C   0  0  0  0  0  0  0  0  0  0  0  0
   58.1500   32.7370   44.5260 C   0  0  0  0  0  0  0  0  0  0  0  0
   57.4250   31.5670   45.0390 N   0  0  0  0  0  0  0  0  0  0  0  0
   56.7420   30.8580   43.9510 C   0  0  0  0  0  0  0  0  0  0  0  0
   56.7120   29.3920   44.2570 C   0  0  0  0  0  0  0  0  0  0  0  0
   55.7230   28.9100   44.8760 O   0  0  0  0  0  0  0  0  0  0  0  0
   57.8220   28.5570   43.8900 N   0  0  0  0  0  0  0  0  0  0  0  0
   57.9650   27.2030   44.3490 C   0  0  0  0  0  0  0  0  0  0  0  0
   57.7200   26.1440   43.4560 C   0  0  0  0  0  0  0  0  0  0  0  0
   57.7590   24.8200   43.8970 C   0  0  0  0  0  0  0  0  0  0  0  0
   58.0260   24.5370   45.2380 C   0  0  0  0  0  0  0  0  0  0  0  0
   58.2690   25.5750   46.1390 C   0  0  0  0  0  0  0  0  0  0  0  0
   58.2520   26.9170   45.7110 C   0  0  0  0  0  0  0  0  0  0  0  0
   58.5900   27.9830   46.6860 C   0  0  0  0  0  0  0  0  0  0  0  0
   59.1120   29.1880   46.3240 N   0  0  0  0  0  0  0  0  0  0  0  0
   59.3070   29.7940   47.5040 C   0  0  0  0  0  0  0  0  0  0  0  0
   59.8440   31.0580   47.7340 C   0  0  0  0  0  0  0  0  0  0  0  0
   59.9780   31.4740   49.0740 C   0  0  0  0  0  0  0  0  0  0  0  0
   59.5760   30.6240   50.1330 C   0  0  0  0  0  0  0  0  0  0  0  0
   59.0400   29.3510   49.8590 C   0  0  0  0  0  0  0  0  0  0  0  0
   58.9230   28.9750   48.5210 C   0  0  0  0  0  0  0  0  0  0  0  0
   58.4680   27.8120   48.0340 N   0  0  0  0  0  0  0  0  0  0  0  0
   60.4150   33.8020   45.9720 C   0  0  0  0  0  0  0  0  0  0  0  0
   61.5010   33.8840   46.8670 C   0  0  0  0  0  0  0  0  0  0  0  0
   62.8150   33.5820   46.4710 O   0  0  0  0  0  0  0  0  0  0  0  0
   63.6640   32.6470   47.1340 C   0  0  0  0  0  0  0  0  0  0  0  0
   62.3651   34.4586   51.1348 H   0  0  0  0  0  0  0  0  0  0  0  0
   61.6277   32.9792   50.4317 H   0  0  0  0  0  0  0  0  0  0  0  0
   63.4128   33.1801   50.4317 H   0  0  0  0  0  0  0  0  0  0  0  0
   59.7885   34.8679   49.6672 H   0  0  0  0  0  0  0  0  0  0  0  0
   57.8755   34.6827   48.0858 H   0  0  0  0  0  0  0  0  0  0  0  0
   57.0273   33.7822   46.0456 H   0  0  0  0  0  0  0  0  0  0  0  0
   57.8638   34.8460   44.8464 H   0  0  0  0  0  0  0  0  0  0  0  0
   57.7728   32.9877   43.5235 H   0  0  0  0  0  0  0  0  0  0  0  0
   59.2231   32.5008   44.4745 H   0  0  0  0  0  0  0  0  0  0  0  0
   58.1320   30.9130   45.4600 H   0  0  0  0  0  0  0  0  0  0  0  0
   55.7128   31.2346   43.8562 H   0  0  0  0  0  0  0  0  0  0  0  0
   57.2805   31.0262   43.0067 H   0  0  0  0  0  0  0  0  0  0  0  0
   58.5640   28.9510   43.2700 H   0  0  0  0  0  0  0  0  0  0  0  0
   57.4958   26.3610   42.4012 H   0  0  0  0  0  0  0  0  0  0  0  0
   57.5792   23.9990   43.1874 H   0  0  0  0  0  0  0  0  0  0  0  0
   58.0449   23.4934   45.5853 H   0  0  0  0  0  0  0  0  0  0  0  0
   58.4759   25.3427   47.1941 H   0  0  0  0  0  0  0  0  0  0  0  0
   60.1520   31.7074   46.9013 H   0  0  0  0  0  0  0  0  0  0  0  0
   60.3977   32.4656   49.2988 H   0  0  0  0  0  0  0  0  0  0  0  0
   59.6830   30.9599   51.1750 H   0  0  0  0  0  0  0  0  0  0  0  0
   58.7252   28.6780   50.6702 H   0  0  0  0  0  0  0  0  0  0  0  0
   60.5907   33.5057   44.9273 H   0  0  0  0  0  0  0  0  0  0  0  0
   63.5582   32.7635   48.2227 H   0  0  0  0  0  0  0  0  0  0  0  0
   63.3793   31.6244   46.8453 H   0  0  0  0  0  0  0  0  0  0  0  0
   64.7092   32.8320   46.8453 H   0  0  0  0  0  0  0  0  0  0  0  0
  1  2  1  0
  2  3  1  0
  3  4  2  0
  4  5  1  0
  5  6  2  0
  6  7  1  0
  7  8  1  0
  8  9  1  0
  9 10  1  0
 10 11  1  0
 11 12  2  0
 11 13  1  0
 13 14  1  0
 14 15  2  0
 15 16  1  0
 16 17  2  0
 17 18  1  0
 18 19  2  0
 19 20  1  0
 20 21  2  0
 21 22  1  0
 22 23  2  0
 23 24  1  0
 24 25  2  0
 25 26  1  0
 26 27  2  0
 27 28  1  0
  6 29  1  0
 29 30  2  0
 30 31  1  0
 31 32  1  0
 30  3  1  0
 19 14  1  0
 28 20  1  0
 27 22  1  0
  1 33  1  0
  1 34  1  0
  1 35  1  0
  4 36  1  0
  5 37  1  0
  7 38  1  0
  7 39  1  0
  8 40  1  0
  8 41  1  0
  9 42  1  0
 10 43  1  0
 10 44  1  0
 13 45  1  0
 15 46  1  0
 16 47  1  0
 17 48  1  0
 18 49  1  0
 23 50  1  0
 24 51  1  0
 25 52  1  0
 26 53  1  0
 29 54  1  0
 32 55  1  0
 32 56  1  0
 32 57  1  0
M  CHG  1  28  -1
M  END
>  <UniqueID>  (22) 
21

>  <SMILES>  (22) 
COc1ccc(CCNCC(=O)Nc2ccccc2-c2nc3ccccc3[n-]2)cc1OC

>  <Energy>  (22) 
96.72559696657322

>  <Genealogy>  (22) 
COc1ccc(CCNCC(=O)Nc2ccccc2-c2nc3ccccc3[n-]2)cc1OC (protonated)
COc1ccc(CCNCC(=O)Nc2ccccc2-c2nc3ccccc3[n-]2)cc1OC (3D coordinates assigned)
COc1ccc(CCNCC(=O)Nc2ccccc2-c2nc3ccccc3[n-]2)cc1OC (optimized conformer: 96.72559696657322 kcal/mol)

>  <smiles>  (22) 
COc1ccc(CCNCC(=O)Nc2ccccc2-c2nc3ccccc3[nH]2)cc1OC

>  <score_type>  (22) 
oracle

>  <origin>  (22) 
adg

>  <m_score__min__energy>  (22) 
-10.1

>  <m_primary>  (22) 
energy

$$$$
22:0
     RDKit          3D

 53 55  0  0  0  0  0  0  0  0999 V2000
   62.8400   33.5470   46.7680 C   0  0  0  0  0  0  0  0  0  0  0  0
   61.3910   33.3310   47.0930 C   0  0  0  0  0  0  0  0  0  0  0  0
   60.5710   34.4220   47.4160 C   0  0  0  0  0  0  0  0  0  0  0  0
   59.2290   34.2190   47.7470 C   0  0  0  0  0  0  0  0  0  0  0  0
   58.7000   32.9270   47.7750 C   0  0  0  0  0  0  0  0  0  0  0  0
   59.5170   31.8230   47.4830 C   0  0  0  0  0  0  0  0  0  0  0  0
   58.9400   30.4310   47.4800 C   0  0  0  0  0  0  0  0  0  0  0  0
   59.9550   29.4060   48.0020 C   0  0  0  0  0  0  0  0  0  0  0  0
   60.3760   28.4830   46.9220 N   0  0  0  0  0  0  0  0  0  0  0  0
   60.2840   27.0650   47.3260 C   0  0  0  0  0  0  0  0  0  0  0  0
   58.8240   26.5920   47.4820 C   0  0  0  0  0  0  0  0  0  0  0  0
   57.8700   27.2440   46.4640 C   0  0  0  0  0  0  0  0  0  0  0  0
   58.6300   27.7340   45.2260 C   0  0  1  0  0  0  0  0  0  0  0  0
   57.7170   28.2760   44.2040 N   0  0  0  0  0  0  0  0  0  0  0  0
   57.7690   27.7360   42.8430 C   0  0  0  0  0  0  0  0  0  0  0  0
   56.8020   29.3470   44.4980 C   0  0  0  0  0  0  0  0  0  0  0  0
   55.6400   29.0870   44.9080 O   0  0  0  0  0  0  0  0  0  0  0  0
   57.2040   30.7510   44.3220 C   0  0  0  0  0  0  0  0  0  0  0  0
   58.1030   31.2330   43.3860 C   0  0  0  0  0  0  0  0  0  0  0  0
   58.1770   32.5930   43.6030 C   0  0  0  0  0  0  0  0  0  0  0  0
   57.3220   32.8500   44.6570 C   0  0  0  0  0  0  0  0  0  0  0  0
   57.0630   34.1900   45.2560 C   0  0  0  0  0  0  0  0  0  0  0  0
   56.7580   31.7370   45.0670 O   0  0  0  0  0  0  0  0  0  0  0  0
   59.7180   28.7680   45.6190 C   0  0  0  0  0  0  0  0  0  0  0  0
   60.8630   32.0310   47.1400 C   0  0  0  0  0  0  0  0  0  0  0  0
   63.4162   33.6329   47.7011 H   0  0  0  0  0  0  0  0  0  0  0  0
   63.2154   32.6949   46.1824 H   0  0  0  0  0  0  0  0  0  0  0  0
   62.9506   34.4716   46.1824 H   0  0  0  0  0  0  0  0  0  0  0  0
   60.9858   35.4408   47.4087 H   0  0  0  0  0  0  0  0  0  0  0  0
   58.5871   35.0796   47.9863 H   0  0  0  0  0  0  0  0  0  0  0  0
   57.6402   32.7737   48.0265 H   0  0  0  0  0  0  0  0  0  0  0  0
   58.0479   30.4115   48.1232 H   0  0  0  0  0  0  0  0  0  0  0  0
   58.6792   30.1654   46.4449 H   0  0  0  0  0  0  0  0  0  0  0  0
   60.8381   29.9371   48.3867 H   0  0  0  0  0  0  0  0  0  0  0  0
   59.4818   28.8184   48.8025 H   0  0  0  0  0  0  0  0  0  0  0  0
   60.7758   26.4469   46.5605 H   0  0  0  0  0  0  0  0  0  0  0  0
   60.7764   26.9621   48.3042 H   0  0  0  0  0  0  0  0  0  0  0  0
   58.7920   25.5011   47.3441 H   0  0  0  0  0  0  0  0  0  0  0  0
   58.4870   26.8881   48.4863 H   0  0  0  0  0  0  0  0  0  0  0  0
   57.1171   26.5046   46.1534 H   0  0  0  0  0  0  0  0  0  0  0  0
   57.3892   28.1099   46.9426 H   0  0  0  0  0  0  0  0  0  0  0  0
   59.1339   26.8644   44.7790 H   0  0  0  0  0  0  0  0  0  0  0  0
   57.8744   26.6419   42.8864 H   0  0  0  0  0  0  0  0  0  0  0  0
   56.8418   27.9942   42.3104 H   0  0  0  0  0  0  0  0  0  0  0  0
   58.6299   28.1664   42.3104 H   0  0  0  0  0  0  0  0  0  0  0  0
   58.6460   30.6515   42.6263 H   0  0  0  0  0  0  0  0  0  0  0  0
   58.7895   33.3215   43.0515 H   0  0  0  0  0  0  0  0  0  0  0  0
   57.0784   34.1104   46.3530 H   0  0  0  0  0  0  0  0  0  0  0  0
   57.8416   34.8947   44.9285 H   0  0  0  0  0  0  0  0  0  0  0  0
   56.0779   34.5538   44.9285 H   0  0  0  0  0  0  0  0  0  0  0  0
   60.4896   28.7740   44.8351 H   0  0  0  0  0  0  0  0  0  0  0  0
   59.2133   29.7400   45.7214 H   0  0  0  0  0  0  0  0  0  0  0  0
   61.5072   31.1704   46.9068 H   0  0  0  0  0  0  0  0  0  0  0  0
  1  2  1  0
  2  3  2  0
  3  4  1  0
  4  5  2  0
  5  6  1  0
  6  7  1  0
  7  8  1  0
  8  9  1  0
  9 10  1  0
 10 11  1  0
 11 12  1  0
 12 13  1  0
 13 14  1  0
 14 15  1  0
 14 16  1  0
 16 17  2  0
 16 18  1  0
 18 19  2  0
 19 20  1  0
 20 21  2  0
 21 22  1  0
 21 23  1  0
 13 24  1  0
  6 25  2  0
 25  2  1  0
 24  9  1  0
 23 18  1  0
  1 26  1  0
  1 27  1  0
  1 28  1  0
  3 29  1  0
  4 30  1  0
  5 31  1  0
  7 32  1  0
  7 33  1  0
  8 34  1  0
  8 35  1  0
 10 36  1  0
 10 37  1  0
 11 38  1  0
 11 39  1  0
 12 40  1  0
 12 41  1  0
 13 42  1  6
 15 43  1  0
 15 44  1  0
 15 45  1  0
 19 46  1  0
 20 47  1  0
 22 48  1  0
 22 49  1  0
 22 50  1  0
 24 51  1  0
 24 52  1  0
 25 53  1  0
M  END
>  <UniqueID>  (23) 
22

>  <SMILES>  (23) 
Cc1cccc(CCN2CCC[C@@H](N(C)C(=O)c3ccc(C)o3)C2)c1

>  <Energy>  (23) 
86.9628397252839

>  <Genealogy>  (23) 
Cc1cccc(CCN2CCC[C@@H](N(C)C(=O)c3ccc(C)o3)C2)c1 (chirality)
Cc1cccc(CCN2CCC[C@@H](N(C)C(=O)c3ccc(C)o3)C2)c1 (3D coordinates assigned)
Cc1cccc(CCN2CCC[C@@H](N(C)C(=O)c3ccc(C)o3)C2)c1 (nonaromatic ring conformer: 86.9628397252839 kcal/mol)

>  <smiles>  (23) 
Cc1cccc(CCN2CCCC(N(C)C(=O)c3ccc(C)o3)C2)c1

>  <score_type>  (23) 
oracle

>  <origin>  (23) 
adg

>  <m_score__min__energy>  (23) 
-8.9600000000000009

>  <m_primary>  (23) 
energy

$$$$
23:0
     RDKit          3D

 92 96  0  0  0  0  0  0  0  0999 V2000
   62.6420   27.2990   52.7470 C   0  0  0  0  0  0  0  0  0  0  0  0
   61.5660   28.1690   52.1640 C   0  0  0  0  0  0  0  0  0  0  0  0
   61.8030   28.8700   50.9750 C   0  0  0  0  0  0  0  0  0  0  0  0
   60.8180   29.7020   50.4100 C   0  0  0  0  0  0  0  0  0  0  0  0
   61.1730   30.4670   49.1460 C   0  0  0  0  0  0  0  0  0  0  0  0
   60.8400   29.6700   47.8660 C   0  0  1  0  0  0  0  0  0  0  0  0
   60.6350   28.1630   48.1680 C   0  0  0  0  0  0  0  0  0  0  0  0
   59.7870   27.5640   47.1380 N   0  0  0  0  0  0  0  0  0  0  0  0
   58.4150   28.0980   47.2120 C   0  0  0  0  0  0  0  0  0  0  0  0
   58.3870   29.6000   47.5690 C   0  0  0  0  0  0  0  0  0  0  0  0
   59.6490   30.2790   47.2040 N   0  0  0  0  0  0  0  0  0  0  0  0
   59.7920   30.4730   45.7370 C   0  0  0  0  0  0  0  0  0  0  0  0
   58.8490   31.5940   45.2480 C   0  0  1  0  0  0  0  0  0  0  0  0
   57.4350   31.0430   44.8870 C   0  0  0  0  0  0  0  0  0  0  0  0
   57.2840   30.4730   43.4530 C   0  0  0  0  0  0  0  0  0  0  0  0
   55.9400   29.7440   43.3260 C   0  0  0  0  0  0  0  0  0  0  0  0
   57.3790   31.5730   42.3840 C   0  0  0  0  0  0  0  0  0  0  0  0
   58.7970   32.6310   46.3050 N   0  0  0  0  0  0  0  0  0  0  0  0
   59.6960   33.7950   46.1580 C   0  0  0  0  0  0  0  0  0  0  0  0
   60.6360   34.0410   47.3720 C   0  0  2  0  0  0  0  0  0  0  0  0
   62.1070   33.7640   47.0030 C   0  0  0  0  0  0  0  0  0  0  0  0
   62.9300   33.4560   48.2280 C   0  0  0  0  0  0  0  0  0  0  0  0
   63.7120   32.2890   48.2790 C   0  0  0  0  0  0  0  0  0  0  0  0
   64.5140   32.0300   49.3960 C   0  0  0  0  0  0  0  0  0  0  0  0
   64.5540   32.9380   50.4570 C   0  0  0  0  0  0  0  0  0  0  0  0
   63.7890   34.1070   50.4070 C   0  0  0  0  0  0  0  0  0  0  0  0
   62.9790   34.3650   49.2980 C   0  0  0  0  0  0  0  0  0  0  0  0
   60.2600   33.1720   48.5060 N   0  0  0  0  0  0  0  0  0  0  0  0
   59.2710   33.7950   49.3960 C   0  0  0  0  0  0  0  0  0  0  0  0
   59.6450   33.5250   50.8270 C   0  0  0  0  0  0  0  0  0  0  0  0
   60.8970   32.9570   51.1250 C   0  0  0  0  0  0  0  0  0  0  0  0
   61.2570   32.7110   52.4540 C   0  0  0  0  0  0  0  0  0  0  0  0
   60.3790   33.0320   53.4900 C   0  0  0  0  0  0  0  0  0  0  0  0
   59.1340   33.5980   53.2000 C   0  0  0  0  0  0  0  0  0  0  0  0
   58.7660   33.8450   51.8730 C   0  0  0  0  0  0  0  0  0  0  0  0
   59.5630   29.8410   51.0710 C   0  0  0  0  0  0  0  0  0  0  0  0
   58.5210   30.6400   50.5520 C   0  0  0  0  0  0  0  0  0  0  0  0
   57.3200   30.7840   51.2470 C   0  0  0  0  0  0  0  0  0  0  0  0
   57.1230   30.1250   52.4610 C   0  0  0  0  0  0  0  0  0  0  0  0
   58.1310   29.3140   52.9850 C   0  0  0  0  0  0  0  0  0  0  0  0
   59.3480   29.1610   52.3000 C   0  0  0  0  0  0  0  0  0  0  0  0
   60.3490   28.3390   52.8350 C   0  0  0  0  0  0  0  0  0  0  0  0
   62.5916   27.3397   53.8451 H   0  0  0  0  0  0  0  0  0  0  0  0
   62.4966   26.2615   52.4115 H   0  0  0  0  0  0  0  0  0  0  0  0
   63.6260   27.6584   52.4115 H   0  0  0  0  0  0  0  0  0  0  0  0
   62.7767   28.7686   50.4734 H   0  0  0  0  0  0  0  0  0  0  0  0
   60.6073   31.4103   49.1327 H   0  0  0  0  0  0  0  0  0  0  0  0
   62.2577   30.6494   49.1563 H   0  0  0  0  0  0  0  0  0  0  0  0
   61.6928   29.7270   47.1736 H   0  0  0  0  0  0  0  0  0  0  0  0
   61.6112   27.6561   48.1780 H   0  0  0  0  0  0  0  0  0  0  0  0
   60.1502   28.0511   49.1490 H   0  0  0  0  0  0  0  0  0  0  0  0
   59.7420   26.5310   47.3090 H   0  0  0  0  0  0  0  0  0  0  0  0
   57.9281   27.9577   46.2357 H   0  0  0  0  0  0  0  0  0  0  0  0
   57.8856   27.5539   48.0080 H   0  0  0  0  0  0  0  0  0  0  0  0
   57.5570   30.0783   47.0283 H   0  0  0  0  0  0  0  0  0  0  0  0
   58.2557   29.6885   48.6575 H   0  0  0  0  0  0  0  0  0  0  0  0
   60.8320   30.7483   45.5074 H   0  0  0  0  0  0  0  0  0  0  0  0
   59.5275   29.5357   45.2256 H   0  0  0  0  0  0  0  0  0  0  0  0
   59.2346   32.0359   44.3174 H   0  0  0  0  0  0  0  0  0  0  0  0
   57.1935   30.2391   45.5979 H   0  0  0  0  0  0  0  0  0  0  0  0
   56.7534   31.9047   44.9416 H   0  0  0  0  0  0  0  0  0  0  0  0
   58.1127   29.7698   43.2836 H   0  0  0  0  0  0  0  0  0  0  0  0
   55.5433   29.5288   44.3292 H   0  0  0  0  0  0  0  0  0  0  0  0
   55.2283   30.3797   42.7789 H   0  0  0  0  0  0  0  0  0  0  0  0
   56.0848   28.8008   42.7789 H   0  0  0  0  0  0  0  0  0  0  0  0
   57.4637   32.5542   42.8740 H   0  0  0  0  0  0  0  0  0  0  0  0
   58.2654   31.3988   41.7564 H   0  0  0  0  0  0  0  0  0  0  0  0
   56.4758   31.5534   41.7564 H   0  0  0  0  0  0  0  0  0  0  0  0
   58.9900   32.1770   47.2270 H   0  0  0  0  0  0  0  0  0  0  0  0
   60.3205   33.6364   45.2665 H   0  0  0  0  0  0  0  0  0  0  0  0
   59.0496   34.6814   46.0781 H   0  0  0  0  0  0  0  0  0  0  0  0
   60.5275   35.0971   47.6599 H   0  0  0  0  0  0  0  0  0  0  0  0
   62.1489   32.9046   46.3177 H   0  0  0  0  0  0  0  0  0  0  0  0
   62.5203   34.6639   46.5241 H   0  0  0  0  0  0  0  0  0  0  0  0
   63.6934   31.5784   47.4396 H   0  0  0  0  0  0  0  0  0  0  0  0
   65.1144   31.1093   49.4388 H   0  0  0  0  0  0  0  0  0  0  0  0
   65.1879   32.7330   51.3323 H   0  0  0  0  0  0  0  0  0  0  0  0
   63.8247   34.8237   51.2407 H   0  0  0  0  0  0  0  0  0  0  0  0
   62.3766   35.2847   49.2626 H   0  0  0  0  0  0  0  0  0  0  0  0
   59.8890   32.2560   48.1600 H   0  0  0  0  0  0  0  0  0  0  0  0
   59.2521   34.8807   49.2204 H   0  0  0  0  0  0  0  0  0  0  0  0
   58.2759   33.3733   49.1910 H   0  0  0  0  0  0  0  0  0  0  0  0
   61.5938   32.7060   50.3117 H   0  0  0  0  0  0  0  0  0  0  0  0
   62.2352   32.2631   52.6832 H   0  0  0  0  0  0  0  0  0  0  0  0
   60.6663   32.8398   54.5343 H   0  0  0  0  0  0  0  0  0  0  0  0
   58.4420   33.8498   54.0172 H   0  0  0  0  0  0  0  0  0  0  0  0
   57.7857   34.2909   51.6492 H   0  0  0  0  0  0  0  0  0  0  0  0
   58.6577   31.1544   49.5894 H   0  0  0  0  0  0  0  0  0  0  0  0
   56.5233   31.4211   50.8354 H   0  0  0  0  0  0  0  0  0  0  0  0
   56.1742   30.2445   53.0046 H   0  0  0  0  0  0  0  0  0  0  0  0
   57.9716   28.7916   53.9398 H   0  0  0  0  0  0  0  0  0  0  0  0
   60.1770   27.8226   53.7909 H   0  0  0  0  0  0  0  0  0  0  0  0
  1  2  1  0
  2  3  2  0
  3  4  1  0
  4  5  1  0
  5  6  1  0
  6  7  1  0
  7  8  1  0
  8  9  1  0
  9 10  1  0
 10 11  1  0
 11 12  1  0
 12 13  1  0
 13 14  1  0
 14 15  1  0
 15 16  1  0
 15 17  1  0
 13 18  1  0
 18 19  1  0
 19 20  1  0
 20 21  1  0
 21 22  1  0
 22 23  2  0
 23 24  1  0
 24 25  2  0
 25 26  1  0
 26 27  2  0
 20 28  1  0
 28 29  1  0
 29 30  1  0
 30 31  2  0
 31 32  1  0
 32 33  2  0
 33 34  1  0
 34 35  2  0
  4 36  2  0
 36 37  1  0
 37 38  2  0
 38 39  1  0
 39 40  2  0
 40 41  1  0
 41 42  2  0
 42  2  1  0
 11  6  1  0
 27 22  1  0
 35 30  1  0
 41 36  1  0
  1 43  1  0
  1 44  1  0
  1 45  1  0
  3 46  1  0
  5 47  1  0
  5 48  1  0
  6 49  1  6
  7 50  1  0
  7 51  1  0
  8 52  1  0
  9 53  1  0
  9 54  1  0
 10 55  1  0
 10 56  1  0
 12 57  1  0
 12 58  1  0
 13 59  1  6
 14 60  1  0
 14 61  1  0
 15 62  1  0
 16 63  1  0
 16 64  1  0
 16 65  1  0
 17 66  1  0
 17 67  1  0
 17 68  1  0
 18 69  1  0
 19 70  1  0
 19 71  1  0
 20 72  1  1
 21 73  1  0
 21 74  1  0
 23 75  1  0
 24 76  1  0
 25 77  1  0
 26 78  1  0
 27 79  1  0
 28 80  1  0
 29 81  1  0
 29 82  1  0
 31 83  1  0
 32 84  1  0
 33 85  1  0
 34 86  1  0
 35 87  1  0
 37 88  1  0
 38 89  1  0
 39 90  1  0
 40 91  1  0
 42 92  1  0
M  END
>  <UniqueID>  (24) 
23

>  <SMILES>  (24) 
Cc1cc(C[C@H]2CNCCN2C[C@@H](CC(C)C)NCC(Cc2ccccc2)NCc2ccccc2)c2ccccc2c1

>  <Energy>  (24) 
105.5391701035154

>  <Genealogy>  (24) 
Cc1cc(C[C@H]2CNCCN2C[C@@H](CC(C)C)NCC(Cc2ccccc2)NCc2ccccc2)c2ccccc2c1 (chirality)
Cc1cc(C[C@H]2CNCCN2C[C@@H](CC(C)C)NCC(Cc2ccccc2)NCc2ccccc2)c2ccccc2c1 (3D coordinates assigned)
Cc1cc(C[C@H]2CNCCN2C[C@@H](CC(C)C)NCC(Cc2ccccc2)NCc2ccccc2)c2ccccc2c1 (nonaromatic ring conformer: 105.5391701035154 kcal/mol)

>  <smiles>  (24) 
Cc1cc(CC2CNCCN2CC(CC(C)C)NCC(Cc2ccccc2)NCc2ccccc2)c2ccccc2c1

>  <score_type>  (24) 
oracle

>  <origin>  (24) 
adg

>  <m_score__min__energy>  (24) 
-9.6699999999999999

>  <m_primary>  (24) 
energy

$$$$
24:0
     RDKit          3D

 42 44  0  0  0  0  0  0  0  0999 V2000
   62.8750   31.6440   47.4360 C   0  0  0  0  0  0  0  0  0  0  0  0
   63.7410   32.8300   47.5200 N   0  0  0  0  0  0  0  0  0  0  0  0
   63.4440   33.7730   46.4300 C   0  0  0  0  0  0  0  0  0  0  0  0
   63.5730   33.4810   48.8050 C   0  0  0  0  0  0  0  0  0  0  0  0
   64.2760   33.1610   49.7560 O   0  0  0  0  0  0  0  0  0  0  0  0
   62.5330   34.5530   49.0020 C   0  0  0  0  0  0  0  0  0  0  0  0
   61.1980   33.9560   49.0330 N   0  0  0  0  0  0  0  0  0  0  0  0
   60.6340   33.3260   50.0910 C   0  0  0  0  0  0  0  0  0  0  0  0
   59.3900   32.8100   49.7460 C   0  0  0  0  0  0  0  0  0  0  0  0
   59.2140   33.1400   48.4200 C   0  0  0  0  0  0  0  0  0  0  0  0
   58.1560   32.8650   47.5560 C   0  0  0  0  0  0  0  0  0  0  0  0
   58.2560   33.3120   46.2200 C   0  0  0  0  0  0  0  0  0  0  0  0
   57.1230   33.0770   45.2600 C   0  0  0  0  0  0  0  0  0  0  0  0
   57.1550   31.6630   44.7620 C   0  0  0  0  0  0  0  0  0  0  0  0
   58.3730   30.9820   44.6150 C   0  0  0  0  0  0  0  0  0  0  0  0
   58.3670   29.6510   44.1870 C   0  0  0  0  0  0  0  0  0  0  0  0
   57.1540   29.0150   43.9170 C   0  0  0  0  0  0  0  0  0  0  0  0
   55.9600   29.7200   44.0830 C   0  0  0  0  0  0  0  0  0  0  0  0
   55.9860   31.0140   44.5020 N   0  0  0  0  0  0  0  0  0  0  0  0
   59.4030   34.0320   45.8030 C   0  0  0  0  0  0  0  0  0  0  0  0
   60.4540   34.2930   46.7000 C   0  0  0  0  0  0  0  0  0  0  0  0
   60.3260   33.8290   48.0110 C   0  0  0  0  0  0  0  0  0  0  0  0
   62.6242   31.3005   48.4505 H   0  0  0  0  0  0  0  0  0  0  0  0
   61.9512   31.9019   46.8974 H   0  0  0  0  0  0  0  0  0  0  0  0
   63.4019   30.8426   46.8974 H   0  0  0  0  0  0  0  0  0  0  0  0
   64.7320   32.5120   47.4080 H   0  0  0  0  0  0  0  0  0  0  0  0
   63.1392   34.7407   46.8552 H   0  0  0  0  0  0  0  0  0  0  0  0
   64.3420   33.9114   45.8100 H   0  0  0  0  0  0  0  0  0  0  0  0
   62.6287   33.3718   45.8100 H   0  0  0  0  0  0  0  0  0  0  0  0
   62.7216   35.0730   49.9528 H   0  0  0  0  0  0  0  0  0  0  0  0
   62.5893   35.2679   48.1679 H   0  0  0  0  0  0  0  0  0  0  0  0
   61.0960   33.2352   51.0851 H   0  0  0  0  0  0  0  0  0  0  0  0
   58.6944   32.2562   50.3937 H   0  0  0  0  0  0  0  0  0  0  0  0
   57.2688   32.3158   47.9043 H   0  0  0  0  0  0  0  0  0  0  0  0
   56.1674   33.2606   45.7729 H   0  0  0  0  0  0  0  0  0  0  0  0
   57.2267   33.7622   44.4057 H   0  0  0  0  0  0  0  0  0  0  0  0
   59.3234   31.4904   44.8344 H   0  0  0  0  0  0  0  0  0  0  0  0
   59.3149   29.1068   44.0634 H   0  0  0  0  0  0  0  0  0  0  0  0
   57.1388   27.9690   43.5769 H   0  0  0  0  0  0  0  0  0  0  0  0
   54.9980   29.2288   43.8749 H   0  0  0  0  0  0  0  0  0  0  0  0
   59.4720   34.3909   44.7655 H   0  0  0  0  0  0  0  0  0  0  0  0
   61.3493   34.8456   46.3790 H   0  0  0  0  0  0  0  0  0  0  0  0
  1  2  1  0
  2  3  1  0
  2  4  1  0
  4  5  2  0
  4  6  1  0
  6  7  1  0
  7  8  1  0
  8  9  2  0
  9 10  1  0
 10 11  2  0
 11 12  1  0
 12 13  1  0
 13 14  1  0
 14 15  2  0
 15 16  1  0
 16 17  2  0
 17 18  1  0
 18 19  2  0
 12 20  2  0
 20 21  1  0
 21 22  2  0
 22  7  1  0
 22 10  1  0
 19 14  1  0
  1 23  1  0
  1 24  1  0
  1 25  1  0
  2 26  1  0
  3 27  1  0
  3 28  1  0
  3 29  1  0
  6 30  1  0
  6 31  1  0
  8 32  1  0
  9 33  1  0
 11 34  1  0
 13 35  1  0
 13 36  1  0
 15 37  1  0
 16 38  1  0
 17 39  1  0
 18 40  1  0
 20 41  1  0
 21 42  1  0
M  CHG  1   2   1
M  END
>  <UniqueID>  (25) 
24

>  <SMILES>  (25) 
C[NH+](C)C(=O)Cn1ccc2cc(Cc3ccccn3)ccc21

>  <Energy>  (25) 
72.96175740513613

>  <Genealogy>  (25) 
C[NH+](C)C(=O)Cn1ccc2cc(Cc3ccccn3)ccc21 (protonated)
C[NH+](C)C(=O)Cn1ccc2cc(Cc3ccccn3)ccc21 (3D coordinates assigned)
C[NH+](C)C(=O)Cn1ccc2cc(Cc3ccccn3)ccc21 (optimized conformer: 72.96175740513613 kcal/mol)

>  <smiles>  (25) 
CN(C)C(=O)Cn1ccc2cc(Cc3ccccn3)ccc21

>  <score_type>  (25) 
oracle

>  <origin>  (25) 
adg

>  <m_score__min__energy>  (25) 
-6.8700000000000001

>  <m_primary>  (25) 
energy

$$$$
25:0
     RDKit          3D

 42 44  0  0  1  0  0  0  0  0999 V2000
   57.8920   27.9280   44.4710 C   0  0  0  0  0  0  0  0  0  0  0  0
   56.6410   28.1160   45.2700 C   0  0  0  0  0  0  0  0  0  0  0  0
   55.8230   29.2070   44.8010 N   0  0  0  0  0  0  0  0  0  0  0  0
   56.4230   30.2090   44.2480 C   0  0  0  0  0  0  0  0  0  0  0  0
   57.0350   31.1820   44.9520 N   0  0  0  0  0  0  0  0  0  0  0  0
   57.6620   32.2300   44.3520 C   0  0  0  0  0  0  0  0  0  0  0  0
   58.2960   33.2380   45.0890 N   0  0  0  0  0  0  0  0  0  0  0  0
   59.0440   34.3400   44.5160 C   0  0  0  0  0  0  0  0  0  0  0  0
   59.6530   35.1050   45.6440 C   0  0  0  0  0  0  0  0  0  0  0  0
   58.7390   34.7950   46.7960 C   0  0  2  0  0  0  0  0  0  0  0  0
   59.5060   34.9260   48.0190 N   0  0  0  0  0  0  0  0  0  0  0  0
   59.9760   33.5960   48.3690 C   0  0  0  0  0  0  0  0  0  0  0  0
   61.3670   33.3550   48.1350 C   0  0  0  0  0  0  0  0  0  0  0  0
   62.0860   32.7420   47.1000 C   0  0  0  0  0  0  0  0  0  0  0  0
   63.3950   32.6720   47.1620 C   0  0  0  0  0  0  0  0  0  0  0  0
   64.0970   33.1970   48.2400 C   0  0  0  0  0  0  0  0  0  0  0  0
   62.7300   33.8870   49.3220 S   0  0  0  0  0  0  0  0  0  0  0  0
   58.3270   33.3710   46.5250 C   0  0  0  0  0  0  0  0  0  0  0  0
   57.6340   32.2380   42.9720 C   0  0  0  0  0  0  0  0  0  0  0  0
   57.0200   31.2610   42.2450 C   0  0  0  0  0  0  0  0  0  0  0  0
   56.4200   30.2560   42.8860 N   0  0  0  0  0  0  0  0  0  0  0  0
   58.7462   27.7996   45.1520 H   0  0  0  0  0  0  0  0  0  0  0  0
   57.7913   27.0349   43.8368 H   0  0  0  0  0  0  0  0  0  0  0  0
   58.0582   28.8113   43.8368 H   0  0  0  0  0  0  0  0  0  0  0  0
   56.0506   27.1893   45.2174 H   0  0  0  0  0  0  0  0  0  0  0  0
   56.9451   28.3560   46.2995 H   0  0  0  0  0  0  0  0  0  0  0  0
   59.8337   33.9540   43.8547 H   0  0  0  0  0  0  0  0  0  0  0  0
   58.3836   34.9880   43.9210 H   0  0  0  0  0  0  0  0  0  0  0  0
   60.6773   34.7598   45.8482 H   0  0  0  0  0  0  0  0  0  0  0  0
   59.7416   36.1821   45.4390 H   0  0  0  0  0  0  0  0  0  0  0  0
   57.8631   35.4523   46.9001 H   0  0  0  0  0  0  0  0  0  0  0  0
   58.8950   35.2530   48.8010 H   0  0  0  0  0  0  0  0  0  0  0  0
   59.7796   33.4376   49.4397 H   0  0  0  0  0  0  0  0  0  0  0  0
   59.4333   32.9003   47.7122 H   0  0  0  0  0  0  0  0  0  0  0  0
   61.5531   32.3194   46.2355 H   0  0  0  0  0  0  0  0  0  0  0  0
   63.9479   32.1877   46.3436 H   0  0  0  0  0  0  0  0  0  0  0  0
   65.1830   33.2057   48.4149 H   0  0  0  0  0  0  0  0  0  0  0  0
   59.0569   32.6718   46.9589 H   0  0  0  0  0  0  0  0  0  0  0  0
   57.3501   33.1394   46.9745 H   0  0  0  0  0  0  0  0  0  0  0  0
   58.1259   33.0643   42.4380 H   0  0  0  0  0  0  0  0  0  0  0  0
   57.0194   31.3008   41.1457 H   0  0  0  0  0  0  0  0  0  0  0  0
   55.9470   29.5020   42.3600 H   0  0  0  0  0  0  0  0  0  0  0  0
  1  2  1  0
  2  3  1  0
  3  4  2  0
  4  5  1  0
  5  6  2  0
  6  7  1  0
  7  8  1  0
  8  9  1  0
  9 10  1  0
 10 11  1  0
 11 12  1  0
 12 13  1  0
 13 14  2  0
 14 15  1  0
 15 16  2  0
 16 17  1  0
 10 18  1  0
  6 19  1  0
 19 20  2  0
 20 21  1  0
 21  4  1  0
 18  7  1  0
 17 13  1  0
  1 22  1  0
  1 23  1  0
  1 24  1  0
  2 25  1  0
  2 26  1  0
  8 27  1  0
  8 28  1  0
  9 29  1  0
  9 30  1  0
 10 31  1  1
 11 32  1  0
 12 33  1  0
 12 34  1  0
 14 35  1  0
 15 36  1  0
 16 37  1  0
 18 38  1  0
 18 39  1  0
 19 40  1  0
 20 41  1  0
 21 42  1  0
M  END
>  <smiles>  (26) 
CCN=c1nc(N2CCC(NCc3cccs3)C2)cc[nH]1

>  <score_type>  (26) 
oracle

>  <origin>  (26) 
adg

>  <m_score__min__energy>  (26) 
-7.8399999999999999

>  <m_primary>  (26) 
energy

$$$$
26:0
     RDKit          3D

 32 33  0  0  0  0  0  0  0  0999 V2000
   56.6040   29.3950   42.7200 C   0  0  0  0  0  0  0  0  0  0  0  0
   56.9420   30.5710   43.5720 C   0  0  0  0  0  0  0  0  0  0  0  0
   57.7840   31.6070   43.2340 C   0  0  0  0  0  0  0  0  0  0  0  0
   57.7260   32.4340   44.3360 C   0  0  0  0  0  0  0  0  0  0  0  0
   58.4100   33.7570   44.4820 C   0  0  0  0  0  0  0  0  0  0  0  0
   57.9990   34.4210   45.7280 N   0  0  0  0  0  0  0  0  0  0  0  0
   59.1240   34.6530   46.6540 C   0  0  0  0  0  0  0  0  0  0  0  0
   59.2890   33.4770   47.6290 C   0  0  0  0  0  0  0  0  0  0  0  0
   60.1910   32.3600   47.0840 C   0  0  0  0  0  0  0  0  0  0  0  0
   61.6010   32.7470   47.1180 N   0  0  0  0  0  0  0  0  0  0  0  0
   62.6000   32.1050   47.7450 C   0  0  0  0  0  0  0  0  0  0  0  0
   63.7630   32.8050   47.5100 C   0  0  0  0  0  0  0  0  0  0  0  0
   63.4950   33.8830   46.7450 N   0  0  0  0  0  0  0  0  0  0  0  0
   62.1650   33.8170   46.5250 C   0  0  0  0  0  0  0  0  0  0  0  0
   56.8900   31.9150   45.2550 N   0  0  0  0  0  0  0  0  0  0  0  0
   56.4390   30.7970   44.7640 O   0  0  0  0  0  0  0  0  0  0  0  0
   56.3572   28.5362   43.3616 H   0  0  0  0  0  0  0  0  0  0  0  0
   55.7395   29.6387   42.0849 H   0  0  0  0  0  0  0  0  0  0  0  0
   57.4659   29.1425   42.0849 H   0  0  0  0  0  0  0  0  0  0  0  0
   58.3630   31.7422   42.3085 H   0  0  0  0  0  0  0  0  0  0  0  0
   59.4987   33.6005   44.4986 H   0  0  0  0  0  0  0  0  0  0  0  0
   58.1286   34.3958   43.6319 H   0  0  0  0  0  0  0  0  0  0  0  0
   57.3160   33.7860   46.2030 H   0  0  0  0  0  0  0  0  0  0  0  0
   60.0501   34.7699   46.0721 H   0  0  0  0  0  0  0  0  0  0  0  0
   58.9157   35.5629   47.2359 H   0  0  0  0  0  0  0  0  0  0  0  0
   59.7286   33.8566   48.5631 H   0  0  0  0  0  0  0  0  0  0  0  0
   58.2911   33.0424   47.7881 H   0  0  0  0  0  0  0  0  0  0  0  0
   60.0529   31.4574   47.6974 H   0  0  0  0  0  0  0  0  0  0  0  0
   59.9102   32.1683   46.0379 H   0  0  0  0  0  0  0  0  0  0  0  0
   62.5064   31.1845   48.3400 H   0  0  0  0  0  0  0  0  0  0  0  0
   64.7579   32.5273   47.8883 H   0  0  0  0  0  0  0  0  0  0  0  0
   61.6053   34.5531   45.9293 H   0  0  0  0  0  0  0  0  0  0  0  0
  1  2  1  0
  2  3  2  0
  3  4  1  0
  4  5  1  0
  5  6  1  0
  6  7  1  0
  7  8  1  0
  8  9  1  0
  9 10  1  0
 10 11  1  0
 11 12  2  0
 12 13  1  0
 13 14  2  0
  4 15  2  0
 15 16  1  0
 16  2  1  0
 14 10  1  0
  1 17  1  0
  1 18  1  0
  1 19  1  0
  3 20  1  0
  5 21  1  0
  5 22  1  0
  6 23  1  0
  7 24  1  0
  7 25  1  0
  8 26  1  0
  8 27  1  0
  9 28  1  0
  9 29  1  0
 11 30  1  0
 12 31  1  0
 14 32  1  0
M  END
>  <UniqueID>  (27) 
25

>  <SMILES>  (27) 
Cc1cc(CNCCCn2ccnc2)no1

>  <Energy>  (27) 
83.74808432802404

>  <Genealogy>  (27) 
Cc1cc(CNCCCn2ccnc2)no1 (3D coordinates assigned)
Cc1cc(CNCCCn2ccnc2)no1 (optimized conformer: 83.74808432802404 kcal/mol)

>  <smiles>  (27) 
Cc1cc(CNCCCn2ccnc2)no1

>  <score_type>  (27) 
oracle

>  <origin>  (27) 
adg

>  <m_score__min__energy>  (27) 
-6.54

>  <m_primary>  (27) 
energy

$$$$
27:0
     RDKit          3D

 59 60  0  0  0  0  0  0  0  0999 V2000
   57.7720   33.0760   47.4730 C   0  0  0  0  0  0  0  0  0  0  0  0
   57.5790   32.8600   45.9780 C   0  0  0  0  0  0  0  0  0  0  0  0
   58.7310   33.4320   45.2410 N   0  0  0  0  0  0  0  0  0  0  0  0
   58.5060   33.4610   43.7740 C   0  0  0  0  0  0  0  0  0  0  0  0
   57.7860   32.2220   43.2200 C   0  0  0  0  0  0  0  0  0  0  0  0
   59.1990   34.7080   45.8280 C   0  0  0  0  0  0  0  0  0  0  0  0
   60.5850   34.5660   46.4750 C   0  0  0  0  0  0  0  0  0  0  0  0
   60.9070   33.1560   46.7000 N   0  0  0  0  0  0  0  0  0  0  0  0
   61.7800   32.6780   47.7440 C   0  0  0  0  0  0  0  0  0  0  0  0
   62.7380   33.5180   48.3380 C   0  0  0  0  0  0  0  0  0  0  0  0
   63.5370   33.0460   49.3780 C   0  0  0  0  0  0  0  0  0  0  0  0
   63.3760   31.7370   49.8260 C   0  0  0  0  0  0  0  0  0  0  0  0
   62.4510   30.9260   49.2480 N   0  0  0  0  0  0  0  0  0  0  0  0
   61.6610   31.3550   48.2220 C   0  0  0  0  0  0  0  0  0  0  0  0
   60.7310   30.4410   47.6260 N   0  0  0  0  0  0  0  0  0  0  0  0
   61.0250   29.8620   46.3140 C   0  0  0  0  0  0  0  0  0  0  0  0
   59.7590   29.8410   45.4530 C   0  0  0  0  0  0  0  0  0  0  0  0
   58.6120   29.2640   46.1770 N   0  0  0  0  0  0  0  0  0  0  0  0
   57.4460   28.8040   45.4570 C   0  0  0  0  0  0  0  0  0  0  0  0
   56.6920   27.9410   45.9860 O   0  0  0  0  0  0  0  0  0  0  0  0
   57.1120   29.3040   44.0670 C   0  0  0  0  0  0  0  0  0  0  0  0
   55.6450   29.7440   43.9900 C   0  0  0  0  0  0  0  0  0  0  0  0
   57.4060   28.2170   43.0280 C   0  0  0  0  0  0  0  0  0  0  0  0
   58.7140   29.0010   47.6210 C   0  0  0  0  0  0  0  0  0  0  0  0
   59.4800   30.1260   48.3260 C   0  0  0  0  0  0  0  0  0  0  0  0
   57.1401   32.3688   48.0302 H   0  0  0  0  0  0  0  0  0  0  0  0
   58.8274   32.9092   47.7343 H   0  0  0  0  0  0  0  0  0  0  0  0
   57.4879   34.1061   47.7343 H   0  0  0  0  0  0  0  0  0  0  0  0
   57.5096   31.7821   45.7696 H   0  0  0  0  0  0  0  0  0  0  0  0
   56.6534   33.3578   45.6531 H   0  0  0  0  0  0  0  0  0  0  0  0
   57.8993   34.3471   43.5360 H   0  0  0  0  0  0  0  0  0  0  0  0
   59.5000   33.4843   43.3033 H   0  0  0  0  0  0  0  0  0  0  0  0
   57.4263   31.6030   44.0551 H   0  0  0  0  0  0  0  0  0  0  0  0
   56.9316   32.5392   42.6041 H   0  0  0  0  0  0  0  0  0  0  0  0
   58.4847   31.6367   42.6041 H   0  0  0  0  0  0  0  0  0  0  0  0
   59.2535   35.4664   45.0331 H   0  0  0  0  0  0  0  0  0  0  0  0
   58.4858   35.0052   46.6110 H   0  0  0  0  0  0  0  0  0  0  0  0
   61.3414   35.0078   45.8097 H   0  0  0  0  0  0  0  0  0  0  0  0
   60.5790   35.0871   47.4437 H   0  0  0  0  0  0  0  0  0  0  0  0
   60.4960   32.4640   46.0330 H   0  0  0  0  0  0  0  0  0  0  0  0
   62.8575   34.5515   47.9808 H   0  0  0  0  0  0  0  0  0  0  0  0
   64.2887   33.7020   49.8412 H   0  0  0  0  0  0  0  0  0  0  0  0
   63.9991   31.3586   50.6497 H   0  0  0  0  0  0  0  0  0  0  0  0
   62.3550   29.9450   49.5940 H   0  0  0  0  0  0  0  0  0  0  0  0
   61.7954   30.4670   45.8136 H   0  0  0  0  0  0  0  0  0  0  0  0
   61.3868   28.8318   46.4478 H   0  0  0  0  0  0  0  0  0  0  0  0
   59.5119   30.8717   45.1587 H   0  0  0  0  0  0  0  0  0  0  0  0
   59.9565   29.2136   44.5713 H   0  0  0  0  0  0  0  0  0  0  0  0
   57.7435   30.1774   43.8471 H   0  0  0  0  0  0  0  0  0  0  0  0
   55.2444   29.8642   45.0074 H   0  0  0  0  0  0  0  0  0  0  0  0
   55.5772   30.7020   43.4537 H   0  0  0  0  0  0  0  0  0  0  0  0
   55.0611   28.9814   43.4537 H   0  0  0  0  0  0  0  0  0  0  0  0
   57.6600   27.2780   43.5416 H   0  0  0  0  0  0  0  0  0  0  0  0
   56.5176   28.0618   42.3982 H   0  0  0  0  0  0  0  0  0  0  0  0
   58.2515   28.5308   42.3982 H   0  0  0  0  0  0  0  0  0  0  0  0
   57.7024   28.9312   48.0473 H   0  0  0  0  0  0  0  0  0  0  0  0
   59.2580   28.0566   47.7700 H   0  0  0  0  0  0  0  0  0  0  0  0
   58.8487   31.0264   48.3538 H   0  0  0  0  0  0  0  0  0  0  0  0
   59.7273   29.7918   49.3444 H   0  0  0  0  0  0  0  0  0  0  0  0
  1  2  1  0
  2  3  1  0
  3  4  1  0
  4  5  1  0
  3  6  1  0
  6  7  1  0
  7  8  1  0
  8  9  1  0
  9 10  2  0
 10 11  1  0
 11 12  2  0
 12 13  1  0
 13 14  2  0
 14 15  1  0
 15 16  1  0
 16 17  1  0
 17 18  1  0
 18 19  1  0
 19 20  2  0
 19 21  1  0
 21 22  1  0
 21 23  1  0
 18 24  1  0
 24 25  1  0
 14  9  1  0
 25 15  1  0
  1 26  1  0
  1 27  1  0
  1 28  1  0
  2 29  1  0
  2 30  1  0
  4 31  1  0
  4 32  1  0
  5 33  1  0
  5 34  1  0
  5 35  1  0
  6 36  1  0
  6 37  1  0
  7 38  1  0
  7 39  1  0
  8 40  1  0
 10 41  1  0
 11 42  1  0
 12 43  1  0
 13 44  1  0
 16 45  1  0
 16 46  1  0
 17 47  1  0
 17 48  1  0
 21 49  1  0
 22 50  1  0
 22 51  1  0
 22 52  1  0
 23 53  1  0
 23 54  1  0
 23 55  1  0
 24 56  1  0
 24 57  1  0
 25 58  1  0
 25 59  1  0
M  CHG  1  13   1
M  END
>  <UniqueID>  (28) 
26

>  <SMILES>  (28) 
CCN(CC)CCNc1ccc[nH+]c1N1CCN(C(=O)C(C)C)CC1

>  <Energy>  (28) 
60.26692460542599

>  <Genealogy>  (28) 
CCN(CC)CCNc1ccc[nH+]c1N1CCN(C(=O)C(C)C)CC1 (protonated)
CCN(CC)CCNc1ccc[nH+]c1N1CCN(C(=O)C(C)C)CC1 (3D coordinates assigned)
CCN(CC)CCNc1ccc[nH+]c1N1CCN(C(=O)C(C)C)CC1 (nonaromatic ring conformer: 60.26692460542599 kcal/mol)

>  <smiles>  (28) 
CCN(CC)CCNc1cccnc1N1CCN(C(=O)C(C)C)CC1

>  <score_type>  (28) 
oracle

>  <origin>  (28) 
adg

>  <m_score__min__energy>  (28) 
-5.0599999999999996

>  <m_primary>  (28) 
energy

$$$$
28:0
     RDKit          3D

 32 33  0  0  0  0  0  0  0  0999 V2000
   60.2940   34.4830   48.8540 O   0  0  0  0  0  0  0  0  0  0  0  0
   60.1220   33.3170   48.4110 C   0  0  0  0  0  0  0  0  0  0  0  0
   59.3090   33.0520   47.2050 C   0  0  0  0  0  0  0  0  0  0  0  0
   58.9960   31.7130   46.9130 C   0  0  0  0  0  0  0  0  0  0  0  0
   58.1660   31.3800   45.8270 C   0  0  0  0  0  0  0  0  0  0  0  0
   57.8180   29.9340   45.5170 C   0  0  2  0  0  0  0  0  0  0  0  0
   58.9890   28.9700   45.7650 C   0  0  0  0  0  0  0  0  0  0  0  0
   59.0750   28.0560   44.5440 C   0  0  0  0  0  0  0  0  0  0  0  0
   57.8030   28.2870   43.7440 C   0  0  0  0  0  0  0  0  0  0  0  0
   57.3930   29.7220   44.0540 C   0  0  1  0  0  0  0  0  0  0  0  0
   55.8910   29.9530   43.8180 C   0  0  0  0  0  0  0  0  0  0  0  0
   55.1520   29.3850   44.8640 O   0  0  0  0  0  0  0  0  0  0  0  0
   57.6510   32.4100   45.0260 C   0  0  0  0  0  0  0  0  0  0  0  0
   57.9730   33.7400   45.2910 C   0  0  0  0  0  0  0  0  0  0  0  0
   58.8140   34.0760   46.3570 C   0  0  0  0  0  0  0  0  0  0  0  0
   59.1560   35.4210   46.5130 O   0  0  0  0  0  0  0  0  0  0  0  0
   60.5900   32.4714   48.9363 H   0  0  0  0  0  0  0  0  0  0  0  0
   59.4072   30.9117   47.5446 H   0  0  0  0  0  0  0  0  0  0  0  0
   56.9841   29.7161   46.2004 H   0  0  0  0  0  0  0  0  0  0  0  0
   59.9258   29.5345   45.8821 H   0  0  0  0  0  0  0  0  0  0  0  0
   58.8319   28.3866   46.6842 H   0  0  0  0  0  0  0  0  0  0  0  0
   59.9569   28.3121   43.9385 H   0  0  0  0  0  0  0  0  0  0  0  0
   59.1728   27.0015   44.8415 H   0  0  0  0  0  0  0  0  0  0  0  0
   57.9961   28.1646   42.6680 H   0  0  0  0  0  0  0  0  0  0  0  0
   57.0142   27.5672   44.0078 H   0  0  0  0  0  0  0  0  0  0  0  0
   57.8758   30.4532   43.3889 H   0  0  0  0  0  0  0  0  0  0  0  0
   55.6904   31.0337   43.7744 H   0  0  0  0  0  0  0  0  0  0  0  0
   55.5965   29.4820   42.8686 H   0  0  0  0  0  0  0  0  0  0  0  0
   54.7670   28.5440   44.5060 H   0  0  0  0  0  0  0  0  0  0  0  0
   56.9882   32.1663   44.1826 H   0  0  0  0  0  0  0  0  0  0  0  0
   57.5603   34.5358   44.6535 H   0  0  0  0  0  0  0  0  0  0  0  0
   59.4140   35.8340   47.3980 H   0  0  0  0  0  0  0  0  0  0  0  0
  1  2  2  0
  2  3  1  0
  3  4  2  0
  4  5  1  0
  5  6  1  0
  6  7  1  0
  7  8  1  0
  8  9  1  0
  9 10  1  0
 10 11  1  0
 11 12  1  0
  5 13  2  0
 13 14  1  0
 14 15  2  0
 15 16  1  0
 15  3  1  0
 10  6  1  0
  2 17  1  0
  4 18  1  0
  6 19  1  1
  7 20  1  0
  7 21  1  0
  8 22  1  0
  8 23  1  0
  9 24  1  0
  9 25  1  0
 10 26  1  6
 11 27  1  0
 11 28  1  0
 12 29  1  0
 13 30  1  0
 14 31  1  0
 16 32  1  0
M  END
>  <UniqueID>  (29) 
27

>  <SMILES>  (29) 
O=Cc1cc([C@@H]2CCC[C@H]2CO)ccc1O

>  <Energy>  (29) 
36.09279592262387

>  <Genealogy>  (29) 
O=Cc1cc([C@@H]2CCC[C@H]2CO)ccc1O (chirality)
O=Cc1cc([C@@H]2CCC[C@H]2CO)ccc1O (3D coordinates assigned)
O=Cc1cc([C@@H]2CCC[C@H]2CO)ccc1O (nonaromatic ring conformer: 36.09279592262387 kcal/mol)

>  <smiles>  (29) 
O=Cc1cc(C2CCCC2CO)ccc1O

>  <score_type>  (29) 
oracle

>  <origin>  (29) 
adg

>  <m_score__min__energy>  (29) 
-7.0099999999999998

>  <m_primary>  (29) 
energy

$$$$
29:0
     RDKit          3D

 40 43  0  0  0  0  0  0  0  0999 V2000
   54.0628   24.1659   45.7554 H   0  0  0  0  0  0  0  0  0  0  0  0
   54.9940   24.7290   45.5950 C   0  0  0  0  0  0  0  0  0  0  0  0
   55.1550   26.0100   46.0240 N   0  0  0  0  0  0  0  0  0  0  0  0
   56.3820   26.4820   45.7090 C   0  0  0  0  0  0  0  0  0  0  0  0
   56.7960   27.6750   46.0010 N   0  0  0  0  0  0  0  0  0  0  0  0
   56.6990   29.0080   44.8970 S   0  0  0  0  0  0  0  0  0  0  0  0
   55.2800   29.4910   44.7950 O   0  0  0  0  0  0  0  0  0  0  0  0
   57.1780   28.5650   43.5430 O   0  0  0  0  0  0  0  0  0  0  0  0
   57.7100   30.3210   45.4990 C   0  0  0  0  0  0  0  0  0  0  0  0
   57.6600   31.5880   44.9020 C   0  0  0  0  0  0  0  0  0  0  0  0
   56.9884   31.7655   44.0491 H   0  0  0  0  0  0  0  0  0  0  0  0
   58.4600   32.6270   45.3860 C   0  0  0  0  0  0  0  0  0  0  0  0
   59.3250   32.4120   46.4740 C   0  0  0  0  0  0  0  0  0  0  0  0
   59.3860   31.1340   47.0590 C   0  0  0  0  0  0  0  0  0  0  0  0
   60.0731   30.9486   47.8978 H   0  0  0  0  0  0  0  0  0  0  0  0
   58.5780   30.0980   46.5800 C   0  0  0  0  0  0  0  0  0  0  0  0
   58.6500   28.8750   47.1640 F   0  0  0  0  0  0  0  0  0  0  0  0
   60.1680   33.5020   46.9150 N   0  0  0  0  0  0  0  0  0  0  0  0
   60.8360   33.4850   48.1910 C   0  0  0  0  0  0  0  0  0  0  0  0
   60.1020   33.6410   49.3770 C   0  0  0  0  0  0  0  0  0  0  0  0
   59.0126   33.7866   49.3324 H   0  0  0  0  0  0  0  0  0  0  0  0
   60.7510   33.6120   50.6150 C   0  0  0  0  0  0  0  0  0  0  0  0
   60.1713   33.7408   51.5410 H   0  0  0  0  0  0  0  0  0  0  0  0
   62.1330   33.4200   50.6800 C   0  0  0  0  0  0  0  0  0  0  0  0
   62.6399   33.3977   51.6560 H   0  0  0  0  0  0  0  0  0  0  0  0
   62.8730   33.2560   49.5030 C   0  0  0  0  0  0  0  0  0  0  0  0
   64.2970   33.0520   49.5690 C   0  0  0  0  0  0  0  0  0  0  0  0
   65.4410   32.8880   49.6230 N   0  0  0  0  0  0  0  0  0  0  0  0
   62.2250   33.2830   48.2610 C   0  0  0  0  0  0  0  0  0  0  0  0
   62.8058   33.1455   47.3370 H   0  0  0  0  0  0  0  0  0  0  0  0
   60.3690   34.6400   46.0080 C   0  0  0  0  0  0  0  0  0  0  0  0
   60.7598   35.4962   46.5775 H   0  0  0  0  0  0  0  0  0  0  0  0
   61.0871   34.3571   45.2242 H   0  0  0  0  0  0  0  0  0  0  0  0
   59.0380   35.0270   45.3580 C   0  0  0  0  0  0  0  0  0  0  0  0
   58.3711   35.4504   46.1235 H   0  0  0  0  0  0  0  0  0  0  0  0
   59.2302   35.7693   44.5693 H   0  0  0  0  0  0  0  0  0  0  0  0
   58.4150   33.8830   44.7730 O   0  0  0  0  0  0  0  0  0  0  0  0
   57.3090   25.3460   44.8950 S   0  0  0  0  0  0  0  0  0  0  0  0
   56.0920   24.1830   44.9390 C   0  0  0  0  0  0  0  0  0  0  0  0
   56.1546   23.1674   44.5212 H   0  0  0  0  0  0  0  0  0  0  0  0
  1  2  1  0
  2  3  1  0
  3  4  1  0
  4  5  2  0
  5  6  1  0
  6  7  2  0
  6  8  2  0
  6  9  1  0
  9 10  2  0
 10 11  1  0
 10 12  1  0
 12 13  2  0
 13 14  1  0
 14 15  1  0
 14 16  2  0
 16 17  1  0
 13 18  1  0
 18 19  1  0
 19 20  2  0
 20 21  1  0
 20 22  1  0
 22 23  1  0
 22 24  2  0
 24 25  1  0
 24 26  1  0
 26 27  1  0
 27 28  3  0
 26 29  2  0
 29 30  1  0
 18 31  1  0
 31 32  1  0
 31 33  1  0
 31 34  1  0
 34 35  1  0
 34 36  1  0
 34 37  1  0
  4 38  1  0
 38 39  1  0
 39 40  1  0
 39  2  2  0
 16  9  1  0
 29 19  1  0
 37 12  1  0
M  CHG  1   3  -1
M  END
>  <UniqueID>  (30) 
28

>  <SMILES>  (30) 
N#Cc1cccc(N2CCOc3cc(S(=O)(=O)/N=c4\[n-]ccs4)c(F)cc32)c1

>  <Energy>  (30) 
84.79648275898764

>  <Genealogy>  (30) 
N#Cc1cccc(N2CCOc3cc(S(=O)(=O)N=c4[n-]ccs4)c(F)cc32)c1 (protonated)
N#Cc1cccc(N2CCOc3cc(S(=O)(=O)/N=c4\[n-]ccs4)c(F)cc32)c1 (cis-trans isomerization)
N#Cc1cccc(N2CCOc3cc(S(=O)(=O)/N=c4\[n-]ccs4)c(F)cc32)c1 (3D coordinates assigned)
N#Cc1cccc(N2CCOc3cc(S(=O)(=O)/N=c4\[n-]ccs4)c(F)cc32)c1 (nonaromatic ring conformer: 84.79648275898764 kcal/mol)

>  <smiles>  (30) 
N#Cc1cccc(N2CCOc3cc(S(=O)(=O)N=c4[nH]ccs4)c(F)cc32)c1

>  <score_type>  (30) 
oracle

>  <origin>  (30) 
adg

>  <m_score__min__energy>  (30) 
-10.460000000000001

>  <m_primary>  (30) 
energy

$$$$
30:0
     RDKit          3D

 42 44  0  0  0  0  0  0  0  0999 V2000
   56.6930   24.3340   46.6900 C   0  0  0  0  0  0  0  0  0  0  0  0
   56.2900   25.6980   46.6480 O   0  0  0  0  0  0  0  0  0  0  0  0
   57.1750   26.7860   46.5910 C   0  0  0  0  0  0  0  0  0  0  0  0
   58.1330   27.0290   47.5920 C   0  0  0  0  0  0  0  0  0  0  0  0
   58.9870   28.1280   47.4930 C   0  0  0  0  0  0  0  0  0  0  0  0
   58.8950   28.9940   46.3970 C   0  0  0  0  0  0  0  0  0  0  0  0
   57.9520   28.7630   45.3820 C   0  0  0  0  0  0  0  0  0  0  0  0
   57.0940   27.6500   45.4910 C   0  0  0  0  0  0  0  0  0  0  0  0
   58.0070   29.6910   44.1710 C   0  0  1  0  0  0  0  0  0  0  0  0
   56.8050   29.5840   43.1940 C   0  0  0  0  0  0  0  0  0  0  0  0
   55.4930   30.1200   43.7890 C   0  0  0  0  0  0  0  0  0  0  0  0
   55.1650   29.4210   44.9610 O   0  0  0  0  0  0  0  0  0  0  0  0
   58.2170   31.1770   44.6080 C   0  0  0  0  0  0  0  0  0  0  0  0
   58.8800   31.3540   45.9280 N   0  0  0  0  0  0  0  0  0  0  0  0
   59.6000   32.6430   45.9980 C   0  0  0  0  0  0  0  0  0  0  0  0
   58.6430   33.7640   46.4330 C   0  0  0  0  0  0  0  0  0  0  0  0
   57.6170   34.1970   45.3960 C   0  0  0  0  0  0  0  0  0  0  0  0
   57.1880   33.3460   46.5810 C   0  0  0  0  0  0  0  0  0  0  0  0
   59.7510   30.2200   46.2900 C   0  0  0  0  0  0  0  0  0  0  0  0
   56.7882   24.0119   47.7375 H   0  0  0  0  0  0  0  0  0  0  0  0
   55.9398   23.7133   46.1825 H   0  0  0  0  0  0  0  0  0  0  0  0
   57.6625   24.2223   46.1825 H   0  0  0  0  0  0  0  0  0  0  0  0
   58.2091   26.3510   48.4549 H   0  0  0  0  0  0  0  0  0  0  0  0
   59.7345   28.3144   48.2782 H   0  0  0  0  0  0  0  0  0  0  0  0
   56.3515   27.4573   44.7026 H   0  0  0  0  0  0  0  0  0  0  0  0
   58.8780   29.3380   43.5994 H   0  0  0  0  0  0  0  0  0  0  0  0
   57.0391   30.1606   42.2869 H   0  0  0  0  0  0  0  0  0  0  0  0
   56.6538   28.5163   42.9766 H   0  0  0  0  0  0  0  0  0  0  0  0
   55.6119   31.1877   44.0252 H   0  0  0  0  0  0  0  0  0  0  0  0
   54.6860   29.9826   43.0543 H   0  0  0  0  0  0  0  0  0  0  0  0
   55.1800   30.0780   45.7050 H   0  0  0  0  0  0  0  0  0  0  0  0
   58.8356   31.6732   43.8457 H   0  0  0  0  0  0  0  0  0  0  0  0
   57.2126   31.6146   44.7061 H   0  0  0  0  0  0  0  0  0  0  0  0
   60.4196   32.5620   46.7271 H   0  0  0  0  0  0  0  0  0  0  0  0
   60.0038   32.8824   45.0032 H   0  0  0  0  0  0  0  0  0  0  0  0
   59.3764   34.2876   47.0639 H   0  0  0  0  0  0  0  0  0  0  0  0
   57.3077   35.2508   45.3350 H   0  0  0  0  0  0  0  0  0  0  0  0
   57.5307   34.1084   44.3030 H   0  0  0  0  0  0  0  0  0  0  0  0
   56.5682   33.7843   47.3771 H   0  0  0  0  0  0  0  0  0  0  0  0
   56.6627   32.3869   46.6999 H   0  0  0  0  0  0  0  0  0  0  0  0
   60.5163   30.0743   45.5134 H   0  0  0  0  0  0  0  0  0  0  0  0
   60.2573   30.4172   47.2465 H   0  0  0  0  0  0  0  0  0  0  0  0
  1  2  1  0
  2  3  1  0
  3  4  2  0
  4  5  1  0
  5  6  2  0
  6  7  1  0
  7  8  2  0
  7  9  1  0
  9 10  1  0
 10 11  1  0
 11 12  1  0
  9 13  1  0
 13 14  1  0
 14 15  1  0
 15 16  1  0
 16 17  1  0
 17 18  1  0
 14 19  1  0
  8  3  1  0
 18 16  1  0
 19  6  1  0
  1 20  1  0
  1 21  1  0
  1 22  1  0
  4 23  1  0
  5 24  1  0
  8 25  1  0
  9 26  1  6
 10 27  1  0
 10 28  1  0
 11 29  1  0
 11 30  1  0
 12 31  1  0
 13 32  1  0
 13 33  1  0
 15 34  1  0
 15 35  1  0
 16 36  1  0
 17 37  1  0
 17 38  1  0
 18 39  1  0
 18 40  1  0
 19 41  1  0
 19 42  1  0
M  END
>  <UniqueID>  (31) 
29

>  <SMILES>  (31) 
COc1ccc2c(c1)[C@@H](CCO)CN(CC1CC1)C2

>  <Energy>  (31) 
318.60681692146534

>  <Genealogy>  (31) 
COc1ccc2c(c1)[C@@H](CCO)CN(CC1CC1)C2 (chirality)
COc1ccc2c(c1)[C@@H](CCO)CN(CC1CC1)C2 (3D coordinates assigned)
COc1ccc2c(c1)[C@@H](CCO)CN(CC1CC1)C2 (nonaromatic ring conformer: 318.60681692146534 kcal/mol)

>  <smiles>  (31) 
COc1ccc2c(c1)C(CCO)CN(CC1CC1)C2

>  <score_type>  (31) 
oracle

>  <origin>  (31) 
adg

>  <m_score__min__energy>  (31) 
-7.7199999999999998

>  <m_primary>  (31) 
energy

$$$$
31:0
     RDKit          3D

 38 40  0  0  0  0  0  0  0  0999 V2000
   58.5020   27.4680   43.4090 C   0  0  0  0  0  0  0  0  0  0  0  0
   58.1030   26.8790   44.7360 C   0  0  0  0  0  0  0  0  0  0  0  0
   57.0880   25.9640   44.7700 N   0  0  0  0  0  0  0  0  0  0  0  0
   56.6900   25.3710   45.9260 C   0  0  0  0  0  0  0  0  0  0  0  0
   57.3240   25.6800   47.1270 C   0  0  0  0  0  0  0  0  0  0  0  0
   58.3720   26.5950   47.1300 C   0  0  0  0  0  0  0  0  0  0  0  0
   58.7860   27.2080   45.9370 C   0  0  0  0  0  0  0  0  0  0  0  0
   59.9450   28.1830   45.9800 C   0  0  0  0  0  0  0  0  0  0  0  0
   59.4750   29.5720   45.9000 N   0  0  0  0  0  0  0  0  0  0  0  0
   58.3010   29.8060   45.3110 N   0  0  0  0  0  0  0  0  0  0  0  0
   57.7740   31.0490   45.1710 C   0  0  0  0  0  0  0  0  0  0  0  0
   56.4350   31.1690   44.4890 C   0  0  0  0  0  0  0  0  0  0  0  0
   55.9470   29.8250   44.0420 C   0  0  0  0  0  0  0  0  0  0  0  0
   56.2560   29.3870   42.9030 O   0  0  0  0  0  0  0  0  0  0  0  0
   55.1550   29.0550   44.8840 O   0  0  0  0  0  0  0  0  0  0  0  0
   58.4820   32.1550   45.6920 C   0  0  0  0  0  0  0  0  0  0  0  0
   57.9970   33.4780   45.6020 C   0  0  0  0  0  0  0  0  0  0  0  0
   58.7320   34.5400   46.1340 C   0  0  0  0  0  0  0  0  0  0  0  0
   59.9550   34.3040   46.7600 C   0  0  0  0  0  0  0  0  0  0  0  0
   60.4500   33.0030   46.8620 C   0  0  0  0  0  0  0  0  0  0  0  0
   59.7220   31.9190   46.3320 C   0  0  0  0  0  0  0  0  0  0  0  0
   60.2050   30.6020   46.4290 C   0  0  0  0  0  0  0  0  0  0  0  0
   61.3040   30.3700   47.0080 O   0  0  0  0  0  0  0  0  0  0  0  0
   59.1118   28.3682   43.5759 H   0  0  0  0  0  0  0  0  0  0  0  0
   59.0864   26.7293   42.8408 H   0  0  0  0  0  0  0  0  0  0  0  0
   57.5993   27.7368   42.8408 H   0  0  0  0  0  0  0  0  0  0  0  0
   56.5940   25.6990   43.8890 H   0  0  0  0  0  0  0  0  0  0  0  0
   55.8642   24.6444   45.9132 H   0  0  0  0  0  0  0  0  0  0  0  0
   56.9991   25.2050   48.0645 H   0  0  0  0  0  0  0  0  0  0  0  0
   58.8800   26.8399   48.0744 H   0  0  0  0  0  0  0  0  0  0  0  0
   60.4955   28.0444   46.9222 H   0  0  0  0  0  0  0  0  0  0  0  0
   60.5974   27.9862   45.1165 H   0  0  0  0  0  0  0  0  0  0  0  0
   55.7086   31.6013   45.1928 H   0  0  0  0  0  0  0  0  0  0  0  0
   56.5437   31.8174   43.6071 H   0  0  0  0  0  0  0  0  0  0  0  0
   57.0332   33.6738   45.1093 H   0  0  0  0  0  0  0  0  0  0  0  0
   58.3442   35.5666   46.0587 H   0  0  0  0  0  0  0  0  0  0  0  0
   60.5309   35.1446   47.1743 H   0  0  0  0  0  0  0  0  0  0  0  0
   61.4145   32.8226   47.3592 H   0  0  0  0  0  0  0  0  0  0  0  0
  1  2  1  0
  2  3  2  0
  3  4  1  0
  4  5  2  0
  5  6  1  0
  6  7  2  0
  7  8  1  0
  8  9  1  0
  9 10  1  0
 10 11  2  0
 11 12  1  0
 12 13  1  0
 13 14  2  0
 13 15  1  0
 11 16  1  0
 16 17  2  0
 17 18  1  0
 18 19  2  0
 19 20  1  0
 20 21  2  0
 21 22  1  0
 22 23  2  0
  7  2  1  0
 22  9  1  0
 21 16  1  0
  1 24  1  0
  1 25  1  0
  1 26  1  0
  3 27  1  0
  4 28  1  0
  5 29  1  0
  6 30  1  0
  8 31  1  0
  8 32  1  0
 12 33  1  0
 12 34  1  0
 17 35  1  0
 18 36  1  0
 19 37  1  0
 20 38  1  0
M  CHG  2   3   1  15  -1
M  END
>  <UniqueID>  (32) 
30

>  <SMILES>  (32) 
Cc1[nH+]cccc1Cn1nc(CC(=O)[O-])c2ccccc2c1=O

>  <Energy>  (32) 
47.562682418583684

>  <Genealogy>  (32) 
Cc1[nH+]cccc1Cn1nc(CC(=O)[O-])c2ccccc2c1=O (protonated)
Cc1[nH+]cccc1Cn1nc(CC(=O)[O-])c2ccccc2c1=O (3D coordinates assigned)
Cc1[nH+]cccc1Cn1nc(CC(=O)[O-])c2ccccc2c1=O (optimized conformer: 47.562682418583684 kcal/mol)

>  <smiles>  (32) 
Cc1ncccc1Cn1nc(CC(=O)O)c2ccccc2c1=O

>  <score_type>  (32) 
oracle

>  <origin>  (32) 
adg

>  <m_score__min__energy>  (32) 
-8.8300000000000001

>  <m_primary>  (32) 
energy

$$$$
32:0
     RDKit          3D

 53 54  0  0  0  0  0  0  0  0999 V2000
   60.6040   28.9630   45.2330 C   0  0  0  0  0  0  0  0  0  0  0  0
   59.9300   28.0380   46.2430 C   0  0  0  0  0  0  0  0  0  0  0  0
   58.5630   28.5670   46.6970 C   0  0  0  0  0  0  0  0  0  0  0  0
   57.5190   28.2820   45.7000 N   0  0  0  0  0  0  0  0  0  0  0  0
   57.0300   26.9070   45.5350 C   0  0  0  0  0  0  0  0  0  0  0  0
   57.8850   26.1620   44.5040 C   0  0  0  0  0  0  0  0  0  0  0  0
   58.1440   27.0270   43.2750 C   0  0  0  0  0  0  0  0  0  0  0  0
   56.8830   29.3510   44.9740 C   0  0  0  0  0  0  0  0  0  0  0  0
   55.6270   29.3660   44.8720 O   0  0  0  0  0  0  0  0  0  0  0  0
   57.7070   30.4690   44.3710 C   0  0  0  0  0  0  0  0  0  0  0  0
   57.5640   31.7750   45.0510 N   0  0  0  0  0  0  0  0  0  0  0  0
   57.8650   32.9300   44.1810 C   0  0  0  0  0  0  0  0  0  0  0  0
   58.1080   34.2020   45.0120 C   0  0  0  0  0  0  0  0  0  0  0  0
   57.3480   34.1760   46.2060 O   0  0  0  0  0  0  0  0  0  0  0  0
   57.7790   33.1410   47.0860 C   0  0  2  0  0  0  0  0  0  0  0  0
   58.8380   33.6800   48.0630 C   0  0  0  0  0  0  0  0  0  0  0  0
   60.1860   33.4820   47.5360 N   0  0  0  0  0  0  0  0  0  0  0  0
   61.0460   32.5150   47.9080 C   0  0  0  0  0  0  0  0  0  0  0  0
   62.2030   32.6800   47.1800 C   0  0  0  0  0  0  0  0  0  0  0  0
   63.3990   31.7870   47.1710 C   0  0  0  0  0  0  0  0  0  0  0  0
   61.9730   33.7710   46.3640 C   0  0  0  0  0  0  0  0  0  0  0  0
   60.7350   34.2470   46.6040 N   0  0  0  0  0  0  0  0  0  0  0  0
   58.2490   31.8600   46.3500 C   0  0  0  0  0  0  0  0  0  0  0  0
   61.1700   29.7398   45.7680 H   0  0  0  0  0  0  0  0  0  0  0  0
   61.2897   28.3790   44.6016 H   0  0  0  0  0  0  0  0  0  0  0  0
   59.8380   29.4368   44.6016 H   0  0  0  0  0  0  0  0  0  0  0  0
   59.7907   27.0501   45.7796 H   0  0  0  0  0  0  0  0  0  0  0  0
   60.5787   27.9787   47.1294 H   0  0  0  0  0  0  0  0  0  0  0  0
   58.2908   28.0856   47.6479 H   0  0  0  0  0  0  0  0  0  0  0  0
   58.6369   29.6577   46.8188 H   0  0  0  0  0  0  0  0  0  0  0  0
   57.0861   26.3830   46.5005 H   0  0  0  0  0  0  0  0  0  0  0  0
   55.9880   26.9361   45.1838 H   0  0  0  0  0  0  0  0  0  0  0  0
   58.8478   25.8932   44.9631 H   0  0  0  0  0  0  0  0  0  0  0  0
   57.3415   25.2597   44.1870 H   0  0  0  0  0  0  0  0  0  0  0  0
   58.4460   28.0356   43.5936 H   0  0  0  0  0  0  0  0  0  0  0  0
   58.9468   26.5770   42.6725 H   0  0  0  0  0  0  0  0  0  0  0  0
   57.2260   27.0923   42.6725 H   0  0  0  0  0  0  0  0  0  0  0  0
   58.7662   30.1750   44.4118 H   0  0  0  0  0  0  0  0  0  0  0  0
   57.3377   30.6098   43.3445 H   0  0  0  0  0  0  0  0  0  0  0  0
   58.7663   32.7094   43.5902 H   0  0  0  0  0  0  0  0  0  0  0  0
   57.0025   33.1038   43.5208 H   0  0  0  0  0  0  0  0  0  0  0  0
   59.1762   34.2681   45.2660 H   0  0  0  0  0  0  0  0  0  0  0  0
   57.8006   35.0751   44.4177 H   0  0  0  0  0  0  0  0  0  0  0  0
   56.9016   32.8223   47.6679 H   0  0  0  0  0  0  0  0  0  0  0  0
   58.6678   34.7553   48.2206 H   0  0  0  0  0  0  0  0  0  0  0  0
   58.7493   33.1323   49.0128 H   0  0  0  0  0  0  0  0  0  0  0  0
   60.8580   31.7334   48.6588 H   0  0  0  0  0  0  0  0  0  0  0  0
   63.6978   31.5639   48.2059 H   0  0  0  0  0  0  0  0  0  0  0  0
   63.1529   30.8498   46.6503 H   0  0  0  0  0  0  0  0  0  0  0  0
   64.2276   32.2892   46.6503 H   0  0  0  0  0  0  0  0  0  0  0  0
   62.6858   34.1847   45.6354 H   0  0  0  0  0  0  0  0  0  0  0  0
   59.3366   31.9040   46.1912 H   0  0  0  0  0  0  0  0  0  0  0  0
   58.0080   30.9740   46.9557 H   0  0  0  0  0  0  0  0  0  0  0  0
  1  2  1  0
  2  3  1  0
  3  4  1  0
  4  5  1  0
  5  6  1  0
  6  7  1  0
  4  8  1  0
  8  9  2  0
  8 10  1  0
 10 11  1  0
 11 12  1  0
 12 13  1  0
 13 14  1  0
 14 15  1  0
 15 16  1  0
 16 17  1  0
 17 18  1  0
 18 19  2  0
 19 20  1  0
 19 21  1  0
 21 22  2  0
 15 23  1  0
 23 11  1  0
 22 17  1  0
  1 24  1  0
  1 25  1  0
  1 26  1  0
  2 27  1  0
  2 28  1  0
  3 29  1  0
  3 30  1  0
  5 31  1  0
  5 32  1  0
  6 33  1  0
  6 34  1  0
  7 35  1  0
  7 36  1  0
  7 37  1  0
 10 38  1  0
 10 39  1  0
 12 40  1  0
 12 41  1  0
 13 42  1  0
 13 43  1  0
 15 44  1  1
 16 45  1  0
 16 46  1  0
 18 47  1  0
 20 48  1  0
 20 49  1  0
 20 50  1  0
 21 51  1  0
 23 52  1  0
 23 53  1  0
M  END
>  <UniqueID>  (33) 
31

>  <SMILES>  (33) 
CCCN(CCC)C(=O)CN1CCO[C@H](Cn2cc(C)cn2)C1

>  <Energy>  (33) 
81.00736187378311

>  <Genealogy>  (33) 
CCCN(CCC)C(=O)CN1CCO[C@H](Cn2cc(C)cn2)C1 (chirality)
CCCN(CCC)C(=O)CN1CCO[C@H](Cn2cc(C)cn2)C1 (3D coordinates assigned)
CCCN(CCC)C(=O)CN1CCO[C@H](Cn2cc(C)cn2)C1 (nonaromatic ring conformer: 81.00736187378311 kcal/mol)

>  <smiles>  (33) 
CCCN(CCC)C(=O)CN1CCOC(Cn2cc(C)cn2)C1

>  <score_type>  (33) 
oracle

>  <origin>  (33) 
adg

>  <m_score__min__energy>  (33) 
-7.1399999999999997

>  <m_primary>  (33) 
energy

$$$$
33:0
     RDKit          3D

 50 54  0  0  0  0  0  0  0  0999 V2000
   59.3540   22.2760   44.9200 C   0  0  0  0  0  0  0  0  0  0  0  0
   59.2660   23.3080   45.8980 O   0  0  0  0  0  0  0  0  0  0  0  0
   58.9240   24.6390   45.6150 C   0  0  0  0  0  0  0  0  0  0  0  0
   59.4650   25.6490   46.4180 C   0  0  0  0  0  0  0  0  0  0  0  0
   59.1560   26.9910   46.1790 C   0  0  0  0  0  0  0  0  0  0  0  0
   58.2960   27.3470   45.1260 C   0  0  0  0  0  0  0  0  0  0  0  0
   57.9680   28.7730   44.8740 C   0  0  0  0  0  0  0  0  0  0  0  0
   57.0250   29.1150   43.8960 C   0  0  0  0  0  0  0  0  0  0  0  0
   56.7360   30.4550   43.6620 C   0  0  0  0  0  0  0  0  0  0  0  0
   57.3800   31.4450   44.3960 C   0  0  0  0  0  0  0  0  0  0  0  0
   58.3280   31.0950   45.3800 C   0  0  0  0  0  0  0  0  0  0  0  0
   59.0330   32.2070   46.1840 C   0  0  1  0  0  0  0  0  0  0  0  0
   58.2080   32.6870   47.4200 C   0  0  0  0  0  0  0  0  0  0  0  0
   58.9590   33.7970   48.1860 C   0  0  2  0  0  0  0  0  0  0  0  0
   59.1920   35.0000   47.2510 C   0  0  0  0  0  0  0  0  0  0  0  0
   60.0320   34.5500   46.0380 C   0  0  1  0  0  0  0  0  0  0  0  0
   61.3900   34.0030   46.5250 C   0  0  0  0  0  0  0  0  0  0  0  0
   61.1560   32.8010   47.4670 C   0  0  1  0  0  0  0  0  0  0  0  0
   60.3160   33.2530   48.6780 C   0  0  0  0  0  0  0  0  0  0  0  0
   60.4070   31.6870   46.7050 C   0  0  0  0  0  0  0  0  0  0  0  0
   59.2760   33.4440   45.2670 C   0  0  0  0  0  0  0  0  0  0  0  0
   58.5900   29.7620   45.5880 N   0  0  0  0  0  0  0  0  0  0  0  0
   57.7540   26.3320   44.3170 C   0  0  0  0  0  0  0  0  0  0  0  0
   58.0640   24.9900   44.5590 C   0  0  0  0  0  0  0  0  0  0  0  0
   59.4371   21.3009   45.4223 H   0  0  0  0  0  0  0  0  0  0  0  0
   58.4515   22.2888   44.2912 H   0  0  0  0  0  0  0  0  0  0  0  0
   60.2413   22.4414   44.2912 H   0  0  0  0  0  0  0  0  0  0  0  0
   60.1400   25.3844   47.2453 H   0  0  0  0  0  0  0  0  0  0  0  0
   59.5888   27.7737   46.8193 H   0  0  0  0  0  0  0  0  0  0  0  0
   56.5169   28.3294   43.3175 H   0  0  0  0  0  0  0  0  0  0  0  0
   55.9972   30.7321   42.8955 H   0  0  0  0  0  0  0  0  0  0  0  0
   57.1495   32.5041   44.2087 H   0  0  0  0  0  0  0  0  0  0  0  0
   58.0403   31.8342   48.0943 H   0  0  0  0  0  0  0  0  0  0  0  0
   57.2482   33.0916   47.0663 H   0  0  0  0  0  0  0  0  0  0  0  0
   58.3589   34.1181   49.0502 H   0  0  0  0  0  0  0  0  0  0  0  0
   59.7287   35.7903   47.7963 H   0  0  0  0  0  0  0  0  0  0  0  0
   58.2234   35.3888   46.9037 H   0  0  0  0  0  0  0  0  0  0  0  0
   60.2014   35.4091   45.3722 H   0  0  0  0  0  0  0  0  0  0  0  0
   61.9301   34.7933   47.0670 H   0  0  0  0  0  0  0  0  0  0  0  0
   61.9852   33.6782   45.6588 H   0  0  0  0  0  0  0  0  0  0  0  0
   62.1249   32.4156   47.8174 H   0  0  0  0  0  0  0  0  0  0  0  0
   60.8529   34.0439   49.2223 H   0  0  0  0  0  0  0  0  0  0  0  0
   60.1475   32.3972   49.3483 H   0  0  0  0  0  0  0  0  0  0  0  0
   60.2386   30.8364   47.3818 H   0  0  0  0  0  0  0  0  0  0  0  0
   61.0170   31.3739   45.8448 H   0  0  0  0  0  0  0  0  0  0  0  0
   58.3071   33.8379   44.9265 H   0  0  0  0  0  0  0  0  0  0  0  0
   59.8836   33.1332   44.4044 H   0  0  0  0  0  0  0  0  0  0  0  0
   59.2640   29.4620   46.3230 H   0  0  0  0  0  0  0  0  0  0  0  0
   57.0812   26.5958   43.4877 H   0  0  0  0  0  0  0  0  0  0  0  0
   57.6330   24.2050   43.9202 H   0  0  0  0  0  0  0  0  0  0  0  0
  1  2  1  0
  2  3  1  0
  3  4  2  0
  4  5  1  0
  5  6  2  0
  6  7  1  0
  7  8  2  0
  8  9  1  0
  9 10  2  0
 10 11  1  0
 12 11  1  6
 12 13  1  0
 13 14  1  0
 14 15  1  0
 15 16  1  0
 16 17  1  0
 17 18  1  0
 18 19  1  0
 18 20  1  0
 16 21  1  0
 11 22  2  0
  6 23  1  0
 23 24  2  0
 24  3  1  0
 22  7  1  0
 20 12  1  0
 21 12  1  0
 19 14  1  0
  1 25  1  0
  1 26  1  0
  1 27  1  0
  4 28  1  0
  5 29  1  0
  8 30  1  0
  9 31  1  0
 10 32  1  0
 13 33  1  0
 13 34  1  0
 14 35  1  1
 15 36  1  0
 15 37  1  0
 16 38  1  6
 17 39  1  0
 17 40  1  0
 18 41  1  1
 19 42  1  0
 19 43  1  0
 20 44  1  0
 20 45  1  0
 21 46  1  0
 21 47  1  0
 22 48  1  0
 23 49  1  0
 24 50  1  0
M  CHG  1  22   1
M  END
>  <UniqueID>  (34) 
32

>  <SMILES>  (34) 
COc1ccc(-c2cccc(C34CC5CC(CC(C5)C3)C4)[nH+]2)cc1

>  <Energy>  (34) 
61.88424760162437

>  <Genealogy>  (34) 
COc1ccc(-c2cccc(C34CC5CC(CC(C5)C3)C4)[nH+]2)cc1 (protonated)
COc1ccc(-c2cccc(C34CC5CC(CC(C5)C3)C4)[nH+]2)cc1 (3D coordinates assigned)
COc1ccc(-c2cccc(C34CC5CC(CC(C5)C3)C4)[nH+]2)cc1 (nonaromatic ring conformer: 61.88424760162437 kcal/mol)

>  <smiles>  (34) 
COc1ccc(-c2cccc(C34CC5CC(CC(C5)C3)C4)n2)cc1

>  <score_type>  (34) 
oracle

>  <origin>  (34) 
adg

>  <m_score__min__energy>  (34) 
-6.8600000000000003

>  <m_primary>  (34) 
energy

$$$$
34:0
     RDKit          3D

 65 69  0  0  0  0  0  0  0  0999 V2000
   56.0960   26.2360   46.0430 C   0  0  0  0  0  0  0  0  0  0  0  0
   55.8930   27.5780   45.6130 O   0  0  0  0  0  0  0  0  0  0  0  0
   56.9140   28.5320   45.4810 C   0  0  0  0  0  0  0  0  0  0  0  0
   56.8000   29.6430   44.6270 C   0  0  0  0  0  0  0  0  0  0  0  0
   57.8550   30.5630   44.5090 C   0  0  0  0  0  0  0  0  0  0  0  0
   57.7510   31.7400   43.5630 C   0  0  0  0  0  0  0  0  0  0  0  0
   57.6620   33.0460   44.2520 N   0  0  0  0  0  0  0  0  0  0  0  0
   56.8950   33.0610   45.5170 C   0  0  0  0  0  0  0  0  0  0  0  0
   57.7750   32.8570   46.7670 C   0  0  0  0  0  0  0  0  0  0  0  0
   59.1470   33.5770   46.6840 C   0  0  0  0  0  0  0  0  0  0  0  0
   59.6030   34.1180   47.9970 N   0  0  0  0  0  0  0  0  0  0  0  0
   61.0710   34.2280   48.2280 C   0  0  1  0  0  0  0  0  0  0  0  0
   61.5400   33.7370   49.6330 C   0  0  2  0  0  0  0  0  0  0  0  0
   63.0410   34.0790   49.7970 C   0  0  0  0  0  0  0  0  0  0  0  0
   63.8680   33.3560   48.7100 C   0  0  1  0  0  0  0  0  0  0  0  0
   63.6810   31.8310   48.8570 C   0  0  0  0  0  0  0  0  0  0  0  0
   62.1860   31.4770   48.6910 C   0  0  1  0  0  0  0  0  0  0  0  0
   61.3670   32.2030   49.7780 C   0  0  0  0  0  0  0  0  0  0  0  0
   61.7050   31.9240   47.2940 C   0  0  0  0  0  0  0  0  0  0  0  0
   61.8840   33.4550   47.1440 C   0  0  2  0  0  0  0  0  0  0  0  0
   63.3850   33.7960   47.3080 C   0  0  0  0  0  0  0  0  0  0  0  0
   59.1970   34.5890   45.5220 C   0  0  0  0  0  0  0  0  0  0  0  0
   58.8900   33.8750   44.1990 C   0  0  0  0  0  0  0  0  0  0  0  0
   59.0110   30.3850   45.2860 C   0  0  0  0  0  0  0  0  0  0  0  0
   59.1330   29.2780   46.1450 C   0  0  0  0  0  0  0  0  0  0  0  0
   60.2780   29.0510   46.9230 O   0  0  0  0  0  0  0  0  0  0  0  0
   60.2750   28.3880   48.1840 C   0  0  0  0  0  0  0  0  0  0  0  0
   58.0810   28.3610   46.2320 C   0  0  0  0  0  0  0  0  0  0  0  0
   56.1014   26.2001   47.1424 H   0  0  0  0  0  0  0  0  0  0  0  0
   55.2837   25.6012   45.6594 H   0  0  0  0  0  0  0  0  0  0  0  0
   57.0597   25.8699   45.6594 H   0  0  0  0  0  0  0  0  0  0  0  0
   55.8776   29.7930   44.0468 H   0  0  0  0  0  0  0  0  0  0  0  0
   58.6415   31.7472   42.9173 H   0  0  0  0  0  0  0  0  0  0  0  0
   56.8206   31.6129   42.9901 H   0  0  0  0  0  0  0  0  0  0  0  0
   56.3844   34.0314   45.6041 H   0  0  0  0  0  0  0  0  0  0  0  0
   56.1856   32.2212   45.4776 H   0  0  0  0  0  0  0  0  0  0  0  0
   57.2316   33.2435   47.6419 H   0  0  0  0  0  0  0  0  0  0  0  0
   57.9801   31.7791   46.8451 H   0  0  0  0  0  0  0  0  0  0  0  0
   59.8985   32.8130   46.4361 H   0  0  0  0  0  0  0  0  0  0  0  0
   59.1270   35.0310   48.1710 H   0  0  0  0  0  0  0  0  0  0  0  0
   59.2290   33.4680   48.7290 H   0  0  0  0  0  0  0  0  0  0  0  0
   61.2707   35.3080   48.1663 H   0  0  0  0  0  0  0  0  0  0  0  0
   60.9293   34.2342   50.4010 H   0  0  0  0  0  0  0  0  0  0  0  0
   63.1802   35.1657   49.6984 H   0  0  0  0  0  0  0  0  0  0  0  0
   63.3809   33.7487   50.7896 H   0  0  0  0  0  0  0  0  0  0  0  0
   64.9306   33.6146   48.8282 H   0  0  0  0  0  0  0  0  0  0  0  0
   64.2684   31.3134   48.0843 H   0  0  0  0  0  0  0  0  0  0  0  0
   64.0246   31.5137   49.8526 H   0  0  0  0  0  0  0  0  0  0  0  0
   62.0488   30.3904   48.7930 H   0  0  0  0  0  0  0  0  0  0  0  0
   60.3037   31.9438   49.6675 H   0  0  0  0  0  0  0  0  0  0  0  0
   61.7248   31.8905   50.7701 H   0  0  0  0  0  0  0  0  0  0  0  0
   62.2962   31.4096   46.5221 H   0  0  0  0  0  0  0  0  0  0  0  0
   60.6414   31.6689   47.1767 H   0  0  0  0  0  0  0  0  0  0  0  0
   61.5161   33.7564   46.1521 H   0  0  0  0  0  0  0  0  0  0  0  0
   63.9665   33.2676   46.5382 H   0  0  0  0  0  0  0  0  0  0  0  0
   63.5268   34.8812   47.1972 H   0  0  0  0  0  0  0  0  0  0  0  0
   58.4505   35.3787   45.6928 H   0  0  0  0  0  0  0  0  0  0  0  0
   60.2015   35.0343   45.4704 H   0  0  0  0  0  0  0  0  0  0  0  0
   58.7651   34.6344   43.4131 H   0  0  0  0  0  0  0  0  0  0  0  0
   59.7317   33.1981   43.9908 H   0  0  0  0  0  0  0  0  0  0  0  0
   59.8287   31.1181   45.2223 H   0  0  0  0  0  0  0  0  0  0  0  0
   60.2784   29.1353   48.9912 H   0  0  0  0  0  0  0  0  0  0  0  0
   59.3740   27.7625   48.2672 H   0  0  0  0  0  0  0  0  0  0  0  0
   61.1703   27.7543   48.2672 H   0  0  0  0  0  0  0  0  0  0  0  0
   58.1728   27.4926   46.9009 H   0  0  0  0  0  0  0  0  0  0  0  0
  1  2  1  0
  2  3  1  0
  3  4  2  0
  4  5  1  0
  5  6  1  0
  6  7  1  0
  7  8  1  0
  8  9  1  0
  9 10  1  0
 10 11  1  0
 11 12  1  0
 12 13  1  0
 13 14  1  0
 14 15  1  0
 15 16  1  0
 16 17  1  0
 17 18  1  0
 17 19  1  0
 19 20  1  0
 20 21  1  0
 10 22  1  0
 22 23  1  0
  5 24  2  0
 24 25  1  0
 25 26  1  0
 26 27  1  0
 25 28  2  0
 28  3  1  0
 23  7  1  0
 20 12  1  0
 18 13  1  0
 21 15  1  0
  1 29  1  0
  1 30  1  0
  1 31  1  0
  4 32  1  0
  6 33  1  0
  6 34  1  0
  8 35  1  0
  8 36  1  0
  9 37  1  0
  9 38  1  0
 10 39  1  0
 11 40  1  0
 11 41  1  0
 12 42  1  1
 13 43  1  1
 14 44  1  0
 14 45  1  0
 15 46  1  1
 16 47  1  0
 16 48  1  0
 17 49  1  6
 18 50  1  0
 18 51  1  0
 19 52  1  0
 19 53  1  0
 20 54  1  6
 21 55  1  0
 21 56  1  0
 22 57  1  0
 22 58  1  0
 23 59  1  0
 23 60  1  0
 24 61  1  0
 27 62  1  0
 27 63  1  0
 27 64  1  0
 28 65  1  0
M  CHG  1  11   1
M  END
>  <UniqueID>  (35) 
33

>  <SMILES>  (35) 
COc1cc(CN2CCC([NH2+]C3C4CC5CC(C4)CC3C5)CC2)cc(OC)c1

>  <Energy>  (35) 
87.14199184437928

>  <Genealogy>  (35) 
COc1cc(CN2CCC([NH2+]C3C4CC5CC(C4)CC3C5)CC2)cc(OC)c1 (protonated)
COc1cc(CN2CCC([NH2+]C3C4CC5CC(C4)CC3C5)CC2)cc(OC)c1 (3D coordinates assigned)
COc1cc(CN2CCC([NH2+]C3C4CC5CC(C4)CC3C5)CC2)cc(OC)c1 (nonaromatic ring conformer: 87.14199184437928 kcal/mol)

>  <smiles>  (35) 
COc1cc(CN2CCC(NC3C4CC5CC(C4)CC3C5)CC2)cc(OC)c1

>  <score_type>  (35) 
oracle

>  <origin>  (35) 
adg

>  <m_score__min__energy>  (35) 
-7.7300000000000004

>  <m_primary>  (35) 
energy

$$$$
35:0
     RDKit          3D

 36 36  0  0  0  0  0  0  0  0999 V2000
   59.6270   33.8450   49.4450 C   0  0  0  0  0  0  0  0  0  0  0  0
   60.8360   34.2110   48.5710 C   0  0  0  0  0  0  0  0  0  0  0  0
   60.6240   33.9960   47.1190 N   0  0  0  0  0  0  0  0  0  0  0  0
   61.8970   33.8440   46.3790 C   0  0  0  0  0  0  0  0  0  0  0  0
   63.0230   33.4660   47.3370 C   0  0  0  0  0  0  0  0  0  0  0  0
   59.7350   34.9970   46.4850 C   0  0  0  0  0  0  0  0  0  0  0  0
   58.6610   34.3250   45.6180 C   0  0  0  0  0  0  0  0  0  0  0  0
   58.6540   32.8770   45.8320 N   0  0  0  0  0  0  0  0  0  0  0  0
   58.0580   31.9180   44.9340 C   0  0  0  0  0  0  0  0  0  0  0  0
   57.7600   30.6320   45.4100 C   0  0  0  0  0  0  0  0  0  0  0  0
   57.1830   29.6770   44.5660 C   0  0  0  0  0  0  0  0  0  0  0  0
   56.8970   29.9940   43.2330 C   0  0  0  0  0  0  0  0  0  0  0  0
   56.3070   29.0170   42.3710 N   0  0  0  0  0  0  0  0  0  0  0  0
   57.1950   31.2740   42.7480 C   0  0  0  0  0  0  0  0  0  0  0  0
   57.7730   32.2300   43.5900 C   0  0  0  0  0  0  0  0  0  0  0  0
   59.9032   33.9286   50.5065 H   0  0  0  0  0  0  0  0  0  0  0  0
   58.7958   34.5318   49.2272 H   0  0  0  0  0  0  0  0  0  0  0  0
   59.3162   32.8125   49.2272 H   0  0  0  0  0  0  0  0  0  0  0  0
   61.0688   35.2740   48.7319 H   0  0  0  0  0  0  0  0  0  0  0  0
   61.6573   33.5443   48.8726 H   0  0  0  0  0  0  0  0  0  0  0  0
   61.7845   33.0545   45.6213 H   0  0  0  0  0  0  0  0  0  0  0  0
   62.1453   34.7991   45.8931 H   0  0  0  0  0  0  0  0  0  0  0  0
   62.6763   33.5824   48.3744 H   0  0  0  0  0  0  0  0  0  0  0  0
   63.3163   32.4201   47.1636 H   0  0  0  0  0  0  0  0  0  0  0  0
   63.8880   34.1230   47.1636 H   0  0  0  0  0  0  0  0  0  0  0  0
   59.2420   35.5868   47.2718 H   0  0  0  0  0  0  0  0  0  0  0  0
   60.3473   35.6425   45.8381 H   0  0  0  0  0  0  0  0  0  0  0  0
   57.6749   34.7339   45.8834 H   0  0  0  0  0  0  0  0  0  0  0  0
   58.8851   34.5248   44.5598 H   0  0  0  0  0  0  0  0  0  0  0  0
   59.1480   32.5200   46.6830 H   0  0  0  0  0  0  0  0  0  0  0  0
   57.9820   30.3726   46.4557 H   0  0  0  0  0  0  0  0  0  0  0  0
   56.9531   28.6728   44.9516 H   0  0  0  0  0  0  0  0  0  0  0  0
   55.6700   29.3050   41.5940 H   0  0  0  0  0  0  0  0  0  0  0  0
   56.5010   28.0000   42.5040 H   0  0  0  0  0  0  0  0  0  0  0  0
   56.9736   31.5284   41.7010 H   0  0  0  0  0  0  0  0  0  0  0  0
   58.0065   33.2318   43.2002 H   0  0  0  0  0  0  0  0  0  0  0  0
  1  2  1  0
  2  3  1  0
  3  4  1  0
  4  5  1  0
  3  6  1  0
  6  7  1  0
  7  8  1  0
  8  9  1  0
  9 10  2  0
 10 11  1  0
 11 12  2  0
 12 13  1  0
 12 14  1  0
 14 15  2  0
 15  9  1  0
  1 16  1  0
  1 17  1  0
  1 18  1  0
  2 19  1  0
  2 20  1  0
  4 21  1  0
  4 22  1  0
  5 23  1  0
  5 24  1  0
  5 25  1  0
  6 26  1  0
  6 27  1  0
  7 28  1  0
  7 29  1  0
  8 30  1  0
 10 31  1  0
 11 32  1  0
 13 33  1  0
 13 34  1  0
 14 35  1  0
 15 36  1  0
M  END
>  <UniqueID>  (36) 
34

>  <SMILES>  (36) 
CCN(CC)CCNc1ccc(N)cc1

>  <Energy>  (36) 
32.20480136450825

>  <Genealogy>  (36) 
CCN(CC)CCNc1ccc(N)cc1 (3D coordinates assigned)
CCN(CC)CCNc1ccc(N)cc1 (optimized conformer: 32.20480136450825 kcal/mol)

>  <smiles>  (36) 
CCN(CC)CCNc1ccc(N)cc1

>  <score_type>  (36) 
oracle

>  <origin>  (36) 
adg

>  <m_score__min__energy>  (36) 
-5.0499999999999998

>  <m_primary>  (36) 
energy

$$$$
36:0
     RDKit          3D

 52 54  0  0  0  0  0  0  0  0999 V2000
   58.7560   34.3920   46.5850 C   0  0  0  0  0  0  0  0  0  0  0  0
   59.7680   33.3110   46.2190 C   0  0  0  0  0  0  0  0  0  0  0  0
   59.2850   31.9630   46.5870 N   0  0  0  0  0  0  0  0  0  0  0  0
   58.3930   31.3380   45.6460 C   0  0  0  0  0  0  0  0  0  0  0  0
   57.3470   31.9380   45.2740 O   0  0  0  0  0  0  0  0  0  0  0  0
   58.7330   30.0490   45.0980 N   0  0  0  0  0  0  0  0  0  0  0  0
   57.7840   29.3340   44.2340 C   0  0  0  0  0  0  0  0  0  0  0  0
   56.7550   28.5810   45.0760 C   0  0  0  0  0  0  0  0  0  0  0  0
   55.4770   29.1490   44.8780 O   0  0  0  0  0  0  0  0  0  0  0  0
   55.5180   30.0160   43.7680 C   0  0  0  0  0  0  0  0  0  0  0  0
   59.9780   29.4360   45.4970 C   0  0  0  0  0  0  0  0  0  0  0  0
   60.3520   28.3510   44.9760 O   0  0  0  0  0  0  0  0  0  0  0  0
   60.8650   30.0970   46.5240 C   0  0  0  0  0  0  0  0  0  0  0  0
   60.0550   31.0380   47.4580 C   0  0  2  0  0  0  0  0  0  0  0  0
   59.0850   30.1650   48.3070 C   0  0  0  0  0  0  0  0  0  0  0  0
   60.9890   31.7940   48.4170 C   0  0  0  0  0  0  0  0  0  0  0  0
   62.6770   31.6680   48.4250 S   0  0  0  0  0  0  0  0  0  0  0  0
   62.9100   32.7940   49.6470 C   0  0  0  0  0  0  0  0  0  0  0  0
   64.2120   33.2120   50.2120 C   0  0  0  0  0  0  0  0  0  0  0  0
   65.4150   32.6680   49.7290 C   0  0  0  0  0  0  0  0  0  0  0  0
   66.6280   33.0800   50.2800 C   0  0  0  0  0  0  0  0  0  0  0  0
   66.6420   34.0270   51.3010 C   0  0  0  0  0  0  0  0  0  0  0  0
   65.4330   34.5520   51.7610 C   0  0  0  0  0  0  0  0  0  0  0  0
   64.2550   34.1410   51.2160 N   0  0  0  0  0  0  0  0  0  0  0  0
   61.7240   33.2860   50.0650 N   0  0  0  0  0  0  0  0  0  0  0  0
   60.6610   32.7600   49.3930 C   0  0  0  0  0  0  0  0  0  0  0  0
   59.2720   33.1690   49.7770 C   0  0  0  0  0  0  0  0  0  0  0  0
   58.6828   34.4702   47.6798 H   0  0  0  0  0  0  0  0  0  0  0  0
   59.0834   35.3565   46.1696 H   0  0  0  0  0  0  0  0  0  0  0  0
   57.7720   34.1289   46.1696 H   0  0  0  0  0  0  0  0  0  0  0  0
   59.9461   33.3420   45.1340 H   0  0  0  0  0  0  0  0  0  0  0  0
   60.6959   33.5069   46.7764 H   0  0  0  0  0  0  0  0  0  0  0  0
   57.2641   30.0586   43.5901 H   0  0  0  0  0  0  0  0  0  0  0  0
   58.3389   28.6098   43.6195 H   0  0  0  0  0  0  0  0  0  0  0  0
   56.7370   27.5236   44.7735 H   0  0  0  0  0  0  0  0  0  0  0  0
   57.0276   28.6540   46.1392 H   0  0  0  0  0  0  0  0  0  0  0  0
   55.5673   31.0577   44.1180 H   0  0  0  0  0  0  0  0  0  0  0  0
   56.4065   29.7912   43.1597 H   0  0  0  0  0  0  0  0  0  0  0  0
   54.6122   29.8760   43.1597 H   0  0  0  0  0  0  0  0  0  0  0  0
   61.3476   29.3184   47.1330 H   0  0  0  0  0  0  0  0  0  0  0  0
   61.6151   30.7014   45.9930 H   0  0  0  0  0  0  0  0  0  0  0  0
   59.2769   30.3377   49.3763 H   0  0  0  0  0  0  0  0  0  0  0  0
   58.0455   30.4378   48.0723 H   0  0  0  0  0  0  0  0  0  0  0  0
   59.2472   29.1026   48.0723 H   0  0  0  0  0  0  0  0  0  0  0  0
   65.3996   31.9216   48.9211 H   0  0  0  0  0  0  0  0  0  0  0  0
   67.5731   32.6573   49.9084 H   0  0  0  0  0  0  0  0  0  0  0  0
   67.5949   34.3576   51.7400 H   0  0  0  0  0  0  0  0  0  0  0  0
   65.4321   35.3006   52.5669 H   0  0  0  0  0  0  0  0  0  0  0  0
   63.3720   34.5570   51.5870 H   0  0  0  0  0  0  0  0  0  0  0  0
   59.1870   33.1940   50.8734 H   0  0  0  0  0  0  0  0  0  0  0  0
   59.0582   34.1682   49.3698 H   0  0  0  0  0  0  0  0  0  0  0  0
   58.5508   32.4451   49.3698 H   0  0  0  0  0  0  0  0  0  0  0  0
  1  2  1  0
  2  3  1  0
  3  4  1  0
  4  5  2  0
  4  6  1  0
  6  7  1  0
  7  8  1  0
  8  9  1  0
  9 10  1  0
  6 11  1  0
 11 12  2  0
 11 13  1  0
 13 14  1  0
 14 15  1  1
 14 16  1  0
 16 17  1  0
 17 18  1  0
 18 19  1  0
 19 20  2  0
 20 21  1  0
 21 22  2  0
 22 23  1  0
 23 24  2  0
 18 25  2  0
 25 26  1  0
 26 27  1  0
 14  3  1  0
 26 16  2  0
 24 19  1  0
  1 28  1  0
  1 29  1  0
  1 30  1  0
  2 31  1  0
  2 32  1  0
  7 33  1  0
  7 34  1  0
  8 35  1  0
  8 36  1  0
 10 37  1  0
 10 38  1  0
 10 39  1  0
 13 40  1  0
 13 41  1  0
 15 42  1  0
 15 43  1  0
 15 44  1  0
 20 45  1  0
 21 46  1  0
 22 47  1  0
 23 48  1  0
 24 49  1  0
 27 50  1  0
 27 51  1  0
 27 52  1  0
M  CHG  1  24   1
M  END
>  <UniqueID>  (37) 
35

>  <SMILES>  (37) 
CCN1C(=O)N(CCOC)C(=O)C[C@@]1(C)c1sc(-c2cccc[nH+]2)nc1C

>  <Energy>  (37) 
90.54941915713385

>  <Genealogy>  (37) 
CCN1C(=O)N(CCOC)C(=O)CC1(C)c1sc(-c2cccc[nH+]2)nc1C (protonated)
CCN1C(=O)N(CCOC)C(=O)C[C@@]1(C)c1sc(-c2cccc[nH+]2)nc1C (chirality)
CCN1C(=O)N(CCOC)C(=O)C[C@@]1(C)c1sc(-c2cccc[nH+]2)nc1C (3D coordinates assigned)
CCN1C(=O)N(CCOC)C(=O)C[C@@]1(C)c1sc(-c2cccc[nH+]2)nc1C (nonaromatic ring conformer: 90.54941915713385 kcal/mol)

>  <smiles>  (37) 
CCN1C(=O)N(CCOC)C(=O)CC1(C)c1sc(-c2ccccn2)nc1C

>  <score_type>  (37) 
oracle

>  <origin>  (37) 
adg

>  <m_score__min__energy>  (37) 
-6.3899999999999997

>  <m_primary>  (37) 
energy

$$$$
37:0
     RDKit          3D

 32 33  0  0  0  0  0  0  0  0999 V2000
   58.6280   34.6440   45.2760 C   0  0  0  0  0  0  0  0  0  0  0  0
   57.6750   33.7400   44.4980 C   0  0  0  0  0  0  0  0  0  0  0  0
   57.0020   32.6880   45.3910 C   0  0  0  0  0  0  0  0  0  0  0  0
   57.7730   31.4370   45.4200 N   0  0  0  0  0  0  0  0  0  0  0  0
   57.4390   30.2380   44.8630 C   0  0  0  0  0  0  0  0  0  0  0  0
   56.2070   29.9920   44.0370 C   0  0  0  0  0  0  0  0  0  0  0  0
   55.1940   29.4860   44.8600 O   0  0  0  0  0  0  0  0  0  0  0  0
   58.4470   29.2940   45.0960 C   0  0  0  0  0  0  0  0  0  0  0  0
   58.4660   27.8570   44.6720 C   0  0  0  0  0  0  0  0  0  0  0  0
   59.3880   29.9550   45.8570 C   0  0  0  0  0  0  0  0  0  0  0  0
   60.5580   29.5000   46.3800 N   0  0  0  0  0  0  0  0  0  0  0  0
   61.3430   30.3580   47.0980 C   0  0  0  0  0  0  0  0  0  0  0  0
   60.9480   31.7000   47.2910 C   0  0  0  0  0  0  0  0  0  0  0  0
   59.7370   32.1570   46.7470 C   0  0  0  0  0  0  0  0  0  0  0  0
   58.9640   31.2430   46.0280 C   0  0  0  0  0  0  0  0  0  0  0  0
   58.4734   34.4974   46.3552 H   0  0  0  0  0  0  0  0  0  0  0  0
   59.6667   34.3914   45.0167 H   0  0  0  0  0  0  0  0  0  0  0  0
   58.4305   35.6946   45.0167 H   0  0  0  0  0  0  0  0  0  0  0  0
   56.8944   34.3634   44.0376 H   0  0  0  0  0  0  0  0  0  0  0  0
   58.2657   33.2058   43.7393 H   0  0  0  0  0  0  0  0  0  0  0  0
   56.9240   33.0841   46.4142 H   0  0  0  0  0  0  0  0  0  0  0  0
   56.0052   32.4710   44.9795 H   0  0  0  0  0  0  0  0  0  0  0  0
   55.8741   30.9368   43.5826 H   0  0  0  0  0  0  0  0  0  0  0  0
   56.4341   29.2664   43.2421 H   0  0  0  0  0  0  0  0  0  0  0  0
   55.1460   30.0950   45.6420 H   0  0  0  0  0  0  0  0  0  0  0  0
   58.4745   27.2119   45.5629 H   0  0  0  0  0  0  0  0  0  0  0  0
   57.5706   27.6402   44.0709 H   0  0  0  0  0  0  0  0  0  0  0  0
   59.3668   27.6639   44.0709 H   0  0  0  0  0  0  0  0  0  0  0  0
   60.8620   28.5100   46.2450 H   0  0  0  0  0  0  0  0  0  0  0  0
   62.2898   30.0004   47.5289 H   0  0  0  0  0  0  0  0  0  0  0  0
   61.5876   32.3857   47.8662 H   0  0  0  0  0  0  0  0  0  0  0  0
   59.4088   33.1981   46.8824 H   0  0  0  0  0  0  0  0  0  0  0  0
  1  2  1  0
  2  3  1  0
  3  4  1  0
  4  5  1  0
  5  6  1  0
  6  7  1  0
  5  8  2  0
  8  9  1  0
  8 10  1  0
 10 11  2  0
 11 12  1  0
 12 13  2  0
 13 14  1  0
 14 15  2  0
 15  4  1  0
 15 10  1  0
  1 16  1  0
  1 17  1  0
  1 18  1  0
  2 19  1  0
  2 20  1  0
  3 21  1  0
  3 22  1  0
  6 23  1  0
  6 24  1  0
  7 25  1  0
  9 26  1  0
  9 27  1  0
  9 28  1  0
 11 29  1  0
 12 30  1  0
 13 31  1  0
 14 32  1  0
M  CHG  1  11   1
M  END
>  <UniqueID>  (38) 
36

>  <SMILES>  (38) 
CCCn1c(CO)c(C)c2[nH+]cccc21

>  <Energy>  (38) 
60.810939571000354

>  <Genealogy>  (38) 
CCCn1c(CO)c(C)c2[nH+]cccc21 (protonated)
CCCn1c(CO)c(C)c2[nH+]cccc21 (3D coordinates assigned)
CCCn1c(CO)c(C)c2[nH+]cccc21 (optimized conformer: 60.810939571000354 kcal/mol)

>  <smiles>  (38) 
CCCn1c(CO)c(C)c2ncccc21

>  <score_type>  (38) 
oracle

>  <origin>  (38) 
adg

>  <m_score__min__energy>  (38) 
-4.6299999999999999

>  <m_primary>  (38) 
energy

$$$$
38:0
     RDKit          3D

 36 38  0  0  0  0  0  0  0  0999 V2000
   56.6290   23.6290   43.3660 C   0  0  0  0  0  0  0  0  0  0  0  0
   57.6150   24.0260   44.4600 C   0  0  0  0  0  0  0  0  0  0  0  0
   57.6500   25.5220   44.6260 C   0  0  0  0  0  0  0  0  0  0  0  0
   58.1320   26.3390   43.5910 C   0  0  0  0  0  0  0  0  0  0  0  0
   58.1340   27.7300   43.7330 C   0  0  0  0  0  0  0  0  0  0  0  0
   57.6420   28.3200   44.9050 C   0  0  0  0  0  0  0  0  0  0  0  0
   57.6420   29.7520   45.0510 N   0  0  0  0  0  0  0  0  0  0  0  0
   56.6370   30.5100   44.4970 C   0  0  0  0  0  0  0  0  0  0  0  0
   55.5050   29.8830   43.7310 C   0  0  0  0  0  0  0  0  0  0  0  0
   56.6520   31.8610   44.6330 N   0  0  0  0  0  0  0  0  0  0  0  0
   57.6350   32.4970   45.3140 C   0  0  0  0  0  0  0  0  0  0  0  0
   57.6150   33.8920   45.4330 C   0  0  0  0  0  0  0  0  0  0  0  0
   58.6280   34.5490   46.1380 C   0  0  0  0  0  0  0  0  0  0  0  0
   59.6620   33.8150   46.7260 C   0  0  0  0  0  0  0  0  0  0  0  0
   59.6890   32.4220   46.6110 C   0  0  0  0  0  0  0  0  0  0  0  0
   58.6740   31.7520   45.9030 C   0  0  0  0  0  0  0  0  0  0  0  0
   58.6540   30.3540   45.7540 C   0  0  0  0  0  0  0  0  0  0  0  0
   59.5750   29.6560   46.2640 O   0  0  0  0  0  0  0  0  0  0  0  0
   57.1530   27.5070   45.9370 C   0  0  0  0  0  0  0  0  0  0  0  0
   57.1500   26.1170   45.7970 C   0  0  0  0  0  0  0  0  0  0  0  0
   55.7020   23.2558   43.8257 H   0  0  0  0  0  0  0  0  0  0  0  0
   56.4015   24.5056   42.7417 H   0  0  0  0  0  0  0  0  0  0  0  0
   57.0724   22.8393   42.7417 H   0  0  0  0  0  0  0  0  0  0  0  0
   57.3064   23.5642   45.4095 H   0  0  0  0  0  0  0  0  0  0  0  0
   58.6188   23.6777   44.1754 H   0  0  0  0  0  0  0  0  0  0  0  0
   58.5098   25.8827   42.6641 H   0  0  0  0  0  0  0  0  0  0  0  0
   58.5231   28.3633   42.9221 H   0  0  0  0  0  0  0  0  0  0  0  0
   54.7669   29.4742   44.4367 H   0  0  0  0  0  0  0  0  0  0  0  0
   55.0249   30.6438   43.0980 H   0  0  0  0  0  0  0  0  0  0  0  0
   55.8952   29.0724   43.0980 H   0  0  0  0  0  0  0  0  0  0  0  0
   56.8018   34.4714   44.9715 H   0  0  0  0  0  0  0  0  0  0  0  0
   58.6112   35.6450   46.2300 H   0  0  0  0  0  0  0  0  0  0  0  0
   60.4568   34.3349   47.2809 H   0  0  0  0  0  0  0  0  0  0  0  0
   60.5051   31.8486   47.0748 H   0  0  0  0  0  0  0  0  0  0  0  0
   56.7701   27.9653   46.8607 H   0  0  0  0  0  0  0  0  0  0  0  0
   56.7547   25.4857   46.6065 H   0  0  0  0  0  0  0  0  0  0  0  0
  1  2  1  0
  2  3  1  0
  3  4  2  0
  4  5  1  0
  5  6  2  0
  6  7  1  0
  7  8  1  0
  8  9  1  0
  8 10  2  0
 10 11  1  0
 11 12  2  0
 12 13  1  0
 13 14  2  0
 14 15  1  0
 15 16  2  0
 16 17  1  0
 17 18  2  0
  6 19  1  0
 19 20  2  0
 20  3  1  0
 17  7  1  0
 16 11  1  0
  1 21  1  0
  1 22  1  0
  1 23  1  0
  2 24  1  0
  2 25  1  0
  4 26  1  0
  5 27  1  0
  9 28  1  0
  9 29  1  0
  9 30  1  0
 12 31  1  0
 13 32  1  0
 14 33  1  0
 15 34  1  0
 19 35  1  0
 20 36  1  0
M  END
>  <UniqueID>  (39) 
37

>  <SMILES>  (39) 
CCc1ccc(-n2c(C)nc3ccccc3c2=O)cc1

>  <Energy>  (39) 
48.73565211370836

>  <Genealogy>  (39) 
CCc1ccc(-n2c(C)nc3ccccc3c2=O)cc1 (3D coordinates assigned)
CCc1ccc(-n2c(C)nc3ccccc3c2=O)cc1 (optimized conformer: 48.73565211370836 kcal/mol)

>  <smiles>  (39) 
CCc1ccc(-n2c(C)nc3ccccc3c2=O)cc1

>  <score_type>  (39) 
oracle

>  <origin>  (39) 
adg

>  <m_score__min__energy>  (39) 
-7.2400000000000002

>  <m_primary>  (39) 
energy

$$$$
39:0
     RDKit          3D

 71 73  0  0  0  0  0  0  0  0999 V2000
   60.7840   30.0880   47.3860 C   0  0  0  0  0  0  0  0  0  0  0  0
   61.3520   31.4850   47.1070 C   0  0  0  0  0  0  0  0  0  0  0  0
   62.3510   31.9200   48.1200 N   0  0  0  0  0  0  0  0  0  0  0  0
   63.5090   32.6070   47.4880 C   0  0  0  0  0  0  0  0  0  0  0  0
   63.1140   33.8360   46.6580 C   0  0  0  0  0  0  0  0  0  0  0  0
   61.7100   32.6830   49.2310 C   0  0  0  0  0  0  0  0  0  0  0  0
   60.1650   32.8210   49.1940 C   0  0  0  0  0  0  0  0  0  0  0  0
   59.6350   34.2280   49.4960 C   0  0  0  0  0  0  0  0  0  0  0  0
   59.3710   34.9350   48.2830 O   0  0  0  0  0  0  0  0  0  0  0  0
   58.9830   34.3520   47.0650 C   0  0  0  0  0  0  0  0  0  0  0  0
   57.7770   33.6420   47.0310 C   0  0  0  0  0  0  0  0  0  0  0  0
   57.3370   33.0420   45.8480 C   0  0  0  0  0  0  0  0  0  0  0  0
   58.1010   33.1460   44.6750 C   0  0  0  0  0  0  0  0  0  0  0  0
   57.6520   32.4690   43.4050 C   0  0  0  0  0  0  0  0  0  0  0  0
   57.9340   31.0170   43.4510 N   0  0  0  0  0  0  0  0  0  0  0  0
   58.6580   30.6430   44.6960 C   0  0  0  0  0  0  0  0  0  0  0  0
   58.4220   29.1820   45.0900 C   0  0  0  0  0  0  0  0  0  0  0  0
   56.9330   28.9510   45.4120 C   0  0  0  0  0  0  0  0  0  0  0  0
   56.6320   27.5260   45.2740 N   0  0  0  0  0  0  0  0  0  0  0  0
   57.5510   26.5740   44.7290 C   0  0  0  0  0  0  0  0  0  0  0  0
   58.0800   26.7670   43.6000 O   0  0  0  0  0  0  0  0  0  0  0  0
   57.9270   25.3690   45.5310 C   0  0  0  0  0  0  0  0  0  0  0  0
   57.6380   24.1220   44.7420 C   0  0  0  0  0  0  0  0  0  0  0  0
   56.6110   24.1120   43.7830 C   0  0  0  0  0  0  0  0  0  0  0  0
   56.3640   22.9610   43.0280 C   0  0  0  0  0  0  0  0  0  0  0  0
   57.1470   21.8190   43.2170 C   0  0  0  0  0  0  0  0  0  0  0  0
   58.1810   21.8260   44.1570 C   0  0  0  0  0  0  0  0  0  0  0  0
   58.4300   22.9750   44.9150 C   0  0  0  0  0  0  0  0  0  0  0  0
   56.0050   29.7960   44.5040 C   0  0  0  0  0  0  0  0  0  0  0  0
   56.7050   30.2170   43.2040 C   0  0  0  0  0  0  0  0  0  0  0  0
   59.3090   33.8560   44.7040 C   0  0  0  0  0  0  0  0  0  0  0  0
   59.7450   34.4630   45.8860 C   0  0  0  0  0  0  0  0  0  0  0  0
   60.7193   29.9288   48.4725 H   0  0  0  0  0  0  0  0  0  0  0  0
   59.7807   30.0049   46.9428 H   0  0  0  0  0  0  0  0  0  0  0  0
   61.4447   29.3283   46.9428 H   0  0  0  0  0  0  0  0  0  0  0  0
   61.8359   31.4757   46.1192 H   0  0  0  0  0  0  0  0  0  0  0  0
   60.5128   32.1951   47.1469 H   0  0  0  0  0  0  0  0  0  0  0  0
   62.7320   31.0510   48.5660 H   0  0  0  0  0  0  0  0  0  0  0  0
   64.1978   32.9302   48.2824 H   0  0  0  0  0  0  0  0  0  0  0  0
   63.9749   31.8875   46.7986 H   0  0  0  0  0  0  0  0  0  0  0  0
   62.8480   34.6636   47.3320 H   0  0  0  0  0  0  0  0  0  0  0  0
   63.9605   34.1375   46.0235 H   0  0  0  0  0  0  0  0  0  0  0  0
   62.2504   33.5878   46.0235 H   0  0  0  0  0  0  0  0  0  0  0  0
   61.9755   32.1818   50.1735 H   0  0  0  0  0  0  0  0  0  0  0  0
   62.0901   33.7100   49.1274 H   0  0  0  0  0  0  0  0  0  0  0  0
   59.8203   32.5343   48.1895 H   0  0  0  0  0  0  0  0  0  0  0  0
   59.7778   32.1680   49.9901 H   0  0  0  0  0  0  0  0  0  0  0  0
   58.7048   34.1472   50.0775 H   0  0  0  0  0  0  0  0  0  0  0  0
   60.3949   34.7784   50.0701 H   0  0  0  0  0  0  0  0  0  0  0  0
   57.1699   33.5555   47.9442 H   0  0  0  0  0  0  0  0  0  0  0  0
   56.3880   32.4859   45.8360 H   0  0  0  0  0  0  0  0  0  0  0  0
   56.5700   32.6217   43.2789 H   0  0  0  0  0  0  0  0  0  0  0  0
   58.2035   32.9070   42.5600 H   0  0  0  0  0  0  0  0  0  0  0  0
   59.7357   30.7970   44.5382 H   0  0  0  0  0  0  0  0  0  0  0  0
   58.2762   31.2766   45.5101 H   0  0  0  0  0  0  0  0  0  0  0  0
   58.7190   28.5285   44.2565 H   0  0  0  0  0  0  0  0  0  0  0  0
   59.0221   28.9496   45.9821 H   0  0  0  0  0  0  0  0  0  0  0  0
   56.7451   29.2750   46.4463 H   0  0  0  0  0  0  0  0  0  0  0  0
   59.0000   25.4096   45.7700 H   0  0  0  0  0  0  0  0  0  0  0  0
   57.3405   25.3543   46.4615 H   0  0  0  0  0  0  0  0  0  0  0  0
   55.9992   25.0125   43.6256 H   0  0  0  0  0  0  0  0  0  0  0  0
   55.5529   22.9546   42.2850 H   0  0  0  0  0  0  0  0  0  0  0  0
   56.9491   20.9133   42.6250 H   0  0  0  0  0  0  0  0  0  0  0  0
   58.7993   20.9277   44.3009 H   0  0  0  0  0  0  0  0  0  0  0  0
   59.2491   22.9803   45.6492 H   0  0  0  0  0  0  0  0  0  0  0  0
   55.1153   29.2002   44.2520 H   0  0  0  0  0  0  0  0  0  0  0  0
   55.7288   30.7081   45.0534 H   0  0  0  0  0  0  0  0  0  0  0  0
   56.9804   29.3119   42.6428 H   0  0  0  0  0  0  0  0  0  0  0  0
   56.0046   30.8477   42.6369 H   0  0  0  0  0  0  0  0  0  0  0  0
   59.9179   33.9363   43.7914 H   0  0  0  0  0  0  0  0  0  0  0  0
   60.6877   35.0299   45.8948 H   0  0  0  0  0  0  0  0  0  0  0  0
  1  2  1  0
  2  3  1  0
  3  4  1  0
  4  5  1  0
  3  6  1  0
  6  7  1  0
  7  8  1  0
  8  9  1  0
  9 10  1  0
 10 11  2  0
 11 12  1  0
 12 13  2  0
 13 14  1  0
 14 15  1  0
 15 16  1  0
 16 17  1  0
 17 18  1  0
 18 19  1  0
 19 20  1  0
 20 21  2  0
 20 22  1  0
 22 23  1  0
 23 24  2  0
 24 25  1  0
 25 26  2  0
 26 27  1  0
 27 28  2  0
 18 29  1  0
 29 30  1  0
 13 31  1  0
 31 32  2  0
 32 10  1  0
 30 15  1  0
 28 23  1  0
  1 33  1  0
  1 34  1  0
  1 35  1  0
  2 36  1  0
  2 37  1  0
  3 38  1  0
  4 39  1  0
  4 40  1  0
  5 41  1  0
  5 42  1  0
  5 43  1  0
  6 44  1  0
  6 45  1  0
  7 46  1  0
  7 47  1  0
  8 48  1  0
  8 49  1  0
 11 50  1  0
 12 51  1  0
 14 52  1  0
 14 53  1  0
 16 54  1  0
 16 55  1  0
 17 56  1  0
 17 57  1  0
 18 58  1  0
 22 59  1  0
 22 60  1  0
 24 61  1  0
 25 62  1  0
 26 63  1  0
 27 64  1  0
 28 65  1  0
 29 66  1  0
 29 67  1  0
 30 68  1  0
 30 69  1  0
 31 70  1  0
 32 71  1  0
M  CHG  2   3   1  19  -1
M  END
>  <UniqueID>  (40) 
38

>  <SMILES>  (40) 
CC[NH+](CC)CCCOc1ccc(CN2CCC([N-]C(=O)Cc3ccccc3)CC2)cc1

>  <Energy>  (40) 
81.3238574941653

>  <Genealogy>  (40) 
CC[NH+](CC)CCCOc1ccc(CN2CCC([N-]C(=O)Cc3ccccc3)CC2)cc1 (protonated)
CC[NH+](CC)CCCOc1ccc(CN2CCC([N-]C(=O)Cc3ccccc3)CC2)cc1 (3D coordinates assigned)
CC[NH+](CC)CCCOc1ccc(CN2CCC([N-]C(=O)Cc3ccccc3)CC2)cc1 (nonaromatic ring conformer: 81.3238574941653 kcal/mol)

>  <smiles>  (40) 
CCN(CC)CCCOc1ccc(CN2CCC(NC(=O)Cc3ccccc3)CC2)cc1

>  <score_type>  (40) 
oracle

>  <origin>  (40) 
adg

>  <m_score__min__energy>  (40) 
-8.8000000000000007

>  <m_primary>  (40) 
energy

$$$$
40:0
     RDKit          3D

 44 45  0  0  0  0  0  0  0  0999 V2000
   56.8670   30.4180   43.3870 C   0  0  0  0  0  0  0  0  0  0  0  0
   56.4820   31.1710   44.5350 O   0  0  0  0  0  0  0  0  0  0  0  0
   57.3490   31.9980   45.2640 C   0  0  0  0  0  0  0  0  0  0  0  0
   57.5620   33.3490   44.9320 C   0  0  0  0  0  0  0  0  0  0  0  0
   58.4390   34.1300   45.6890 C   0  0  0  0  0  0  0  0  0  0  0  0
   59.1070   33.5750   46.7830 C   0  0  0  0  0  0  0  0  0  0  0  0
   58.8970   32.2330   47.1330 C   0  0  0  0  0  0  0  0  0  0  0  0
   59.5870   31.6530   48.2540 N   0  0  0  0  0  0  0  0  0  0  0  0
   60.4550   30.4960   48.0210 C   0  0  0  0  0  0  0  0  0  0  0  0
   59.3400   32.1460   49.5900 C   0  0  0  0  0  0  0  0  0  0  0  0
   58.3230   31.7580   50.2270 O   0  0  0  0  0  0  0  0  0  0  0  0
   60.2370   33.1210   50.2450 C   0  0  0  0  0  0  0  0  0  0  0  0
   59.7390   33.8450   51.1510 O   0  0  0  0  0  0  0  0  0  0  0  0
   61.6170   33.3280   49.8140 N   0  0  0  0  0  0  0  0  0  0  0  0
   61.7390   34.1900   48.6100 C   0  0  0  0  0  0  0  0  0  0  0  0
   62.6580   33.6160   47.5040 C   0  0  0  0  0  0  0  0  0  0  0  0
   64.1130   33.4090   47.9450 C   0  0  0  0  0  0  0  0  0  0  0  0
   64.3180   32.8030   49.3470 C   0  0  0  0  0  0  0  0  0  0  0  0
   64.0250   33.7530   50.5180 C   0  0  0  0  0  0  0  0  0  0  0  0
   62.5330   33.7540   50.9010 C   0  0  0  0  0  0  0  0  0  0  0  0
   58.0230   31.4500   46.3620 C   0  0  0  0  0  0  0  0  0  0  0  0
   57.3461   29.4809   43.7069 H   0  0  0  0  0  0  0  0  0  0  0  0
   55.9763   30.1872   42.7842 H   0  0  0  0  0  0  0  0  0  0  0  0
   57.5756   31.0050   42.7842 H   0  0  0  0  0  0  0  0  0  0  0  0
   57.0360   33.7917   44.0733 H   0  0  0  0  0  0  0  0  0  0  0  0
   58.6038   35.1845   45.4228 H   0  0  0  0  0  0  0  0  0  0  0  0
   59.8005   34.1928   47.3724 H   0  0  0  0  0  0  0  0  0  0  0  0
   60.7712   30.0745   48.9866 H   0  0  0  0  0  0  0  0  0  0  0  0
   59.9043   29.7334   47.4507 H   0  0  0  0  0  0  0  0  0  0  0  0
   61.3412   30.8114   47.4507 H   0  0  0  0  0  0  0  0  0  0  0  0
   61.9560   32.3850   49.5100 H   0  0  0  0  0  0  0  0  0  0  0  0
   60.7346   34.3307   48.1842 H   0  0  0  0  0  0  0  0  0  0  0  0
   62.1988   35.1321   48.9432 H   0  0  0  0  0  0  0  0  0  0  0  0
   62.2515   32.6444   47.1866 H   0  0  0  0  0  0  0  0  0  0  0  0
   62.6750   34.3553   46.6897 H   0  0  0  0  0  0  0  0  0  0  0  0
   64.5928   32.7392   47.2162 H   0  0  0  0  0  0  0  0  0  0  0  0
   64.5532   34.4160   47.9917 H   0  0  0  0  0  0  0  0  0  0  0  0
   63.6541   31.9311   49.4415 H   0  0  0  0  0  0  0  0  0  0  0  0
   65.3863   32.5507   49.4179 H   0  0  0  0  0  0  0  0  0  0  0  0
   64.6152   33.4345   51.3899 H   0  0  0  0  0  0  0  0  0  0  0  0
   64.2960   34.7720   50.2047 H   0  0  0  0  0  0  0  0  0  0  0  0
   62.3966   33.0709   51.7523 H   0  0  0  0  0  0  0  0  0  0  0  0
   62.2723   34.7959   51.1386 H   0  0  0  0  0  0  0  0  0  0  0  0
   57.8659   30.3932   46.6238 H   0  0  0  0  0  0  0  0  0  0  0  0
  1  2  1  0
  2  3  1  0
  3  4  2  0
  4  5  1  0
  5  6  2  0
  6  7  1  0
  7  8  1  0
  8  9  1  0
  8 10  1  0
 10 11  2  0
 10 12  1  0
 12 13  2  0
 12 14  1  0
 14 15  1  0
 15 16  1  0
 16 17  1  0
 17 18  1  0
 18 19  1  0
 19 20  1  0
  7 21  2  0
 21  3  1  0
 20 14  1  0
  1 22  1  0
  1 23  1  0
  1 24  1  0
  4 25  1  0
  5 26  1  0
  6 27  1  0
  9 28  1  0
  9 29  1  0
  9 30  1  0
 14 31  1  0
 15 32  1  0
 15 33  1  0
 16 34  1  0
 16 35  1  0
 17 36  1  0
 17 37  1  0
 18 38  1  0
 18 39  1  0
 19 40  1  0
 19 41  1  0
 20 42  1  0
 20 43  1  0
 21 44  1  0
M  CHG  1  14   1
M  END
>  <UniqueID>  (41) 
39

>  <SMILES>  (41) 
COc1cccc(N(C)C(=O)C(=O)[NH+]2CCCCCC2)c1

>  <Energy>  (41) 
67.73063811539713

>  <Genealogy>  (41) 
COc1cccc(N(C)C(=O)C(=O)[NH+]2CCCCCC2)c1 (protonated)
COc1cccc(N(C)C(=O)C(=O)[NH+]2CCCCCC2)c1 (3D coordinates assigned)
COc1cccc(N(C)C(=O)C(=O)[NH+]2CCCCCC2)c1 (nonaromatic ring conformer: 67.73063811539713 kcal/mol)

>  <smiles>  (41) 
COc1cccc(N(C)C(=O)C(=O)N2CCCCCC2)c1

>  <score_type>  (41) 
oracle

>  <origin>  (41) 
adg

>  <m_score__min__energy>  (41) 
-4.2300000000000004

>  <m_primary>  (41) 
energy

$$$$
41:0
     RDKit          3D

 52 55  0  0  0  0  0  0  0  0999 V2000
   57.0480   33.2210   39.6910 C   0  0  0  0  0  0  0  0  0  0  0  0
   57.0300   31.9740   40.3780 O   0  0  0  0  0  0  0  0  0  0  0  0
   57.3120   31.8180   41.7430 C   0  0  0  0  0  0  0  0  0  0  0  0
   56.7320   30.8000   42.5240 C   0  0  0  0  0  0  0  0  0  0  0  0
   57.0450   30.6880   43.8820 C   0  0  0  0  0  0  0  0  0  0  0  0
   57.9400   31.5880   44.4810 C   0  0  0  0  0  0  0  0  0  0  0  0
   58.2560   31.4790   45.8810 N   0  0  0  0  0  0  0  0  0  0  0  0
   58.4040   30.3560   46.6270 C   0  0  0  0  0  0  0  0  0  0  0  0
   58.4800   28.9780   46.0990 C   0  0  0  0  0  0  0  0  0  0  0  0
   59.7260   28.3310   46.0430 C   0  0  0  0  0  0  0  0  0  0  0  0
   59.8210   27.0220   45.5640 C   0  0  0  0  0  0  0  0  0  0  0  0
   58.6780   26.3510   45.1260 C   0  0  0  0  0  0  0  0  0  0  0  0
   57.4370   26.9930   45.1550 C   0  0  0  0  0  0  0  0  0  0  0  0
   57.3340   28.3060   45.6280 C   0  0  0  0  0  0  0  0  0  0  0  0
   56.0960   28.9400   45.5980 O   0  0  0  0  0  0  0  0  0  0  0  0
   58.4570   30.6410   47.9460 N   0  0  0  0  0  0  0  0  0  0  0  0
   58.3470   31.9560   48.0450 N   0  0  0  0  0  0  0  0  0  0  0  0
   58.2240   32.4600   46.8070 C   0  0  0  0  0  0  0  0  0  0  0  0
   57.9340   34.1990   46.4680 S   0  0  0  0  0  0  0  0  0  0  0  0
   59.6950   34.6540   46.6390 C   0  0  0  0  0  0  0  0  0  0  0  0
   60.2250   34.2290   47.9790 C   0  0  0  0  0  0  0  0  0  0  0  0
   59.4810   34.3210   48.9950 O   0  0  0  0  0  0  0  0  0  0  0  0
   61.5560   33.6930   48.1160 N   0  0  0  0  0  0  0  0  0  0  0  0
   62.2330   33.7770   49.4140 C   0  0  0  0  0  0  0  0  0  0  0  0
   63.7520   33.7490   49.2110 C   0  0  0  0  0  0  0  0  0  0  0  0
   64.1340   32.6390   48.4230 O   0  0  0  0  0  0  0  0  0  0  0  0
   63.6010   32.7720   47.1180 C   0  0  0  0  0  0  0  0  0  0  0  0
   62.0690   32.7150   47.1480 C   0  0  0  0  0  0  0  0  0  0  0  0
   58.5180   32.6010   43.7010 C   0  0  0  0  0  0  0  0  0  0  0  0
   58.2050   32.7130   42.3440 C   0  0  0  0  0  0  0  0  0  0  0  0
   57.0599   34.0425   40.4225 H   0  0  0  0  0  0  0  0  0  0  0  0
   57.9471   33.2790   39.0599 H   0  0  0  0  0  0  0  0  0  0  0  0
   56.1510   33.3049   39.0599 H   0  0  0  0  0  0  0  0  0  0  0  0
   56.0295   30.0897   42.0636 H   0  0  0  0  0  0  0  0  0  0  0  0
   56.5871   29.8897   44.4846 H   0  0  0  0  0  0  0  0  0  0  0  0
   60.6316   28.8579   46.3781 H   0  0  0  0  0  0  0  0  0  0  0  0
   60.7987   26.5190   45.5319 H   0  0  0  0  0  0  0  0  0  0  0  0
   58.7541   25.3171   44.7581 H   0  0  0  0  0  0  0  0  0  0  0  0
   56.5381   26.4644   44.8048 H   0  0  0  0  0  0  0  0  0  0  0  0
   58.3350   32.4860   48.9450 H   0  0  0  0  0  0  0  0  0  0  0  0
   60.2749   34.1573   45.8471 H   0  0  0  0  0  0  0  0  0  0  0  0
   59.7883   35.7466   46.5518 H   0  0  0  0  0  0  0  0  0  0  0  0
   61.9488   34.7147   49.9140 H   0  0  0  0  0  0  0  0  0  0  0  0
   61.9341   32.9199   50.0353 H   0  0  0  0  0  0  0  0  0  0  0  0
   64.0652   34.6745   48.7057 H   0  0  0  0  0  0  0  0  0  0  0  0
   64.2372   33.6660   50.1947 H   0  0  0  0  0  0  0  0  0  0  0  0
   63.9179   33.7369   46.6955 H   0  0  0  0  0  0  0  0  0  0  0  0
   63.9730   31.9425   46.4986 H   0  0  0  0  0  0  0  0  0  0  0  0
   61.6748   32.9489   46.1481 H   0  0  0  0  0  0  0  0  0  0  0  0
   61.7478   31.7057   47.4450 H   0  0  0  0  0  0  0  0  0  0  0  0
   59.2215   33.3109   44.1605 H   0  0  0  0  0  0  0  0  0  0  0  0
   58.6643   33.5114   41.7426 H   0  0  0  0  0  0  0  0  0  0  0  0
  1  2  1  0
  2  3  1  0
  3  4  2  0
  4  5  1  0
  5  6  2  0
  6  7  1  0
  7  8  1  0
  8  9  1  0
  9 10  2  0
 10 11  1  0
 11 12  2  0
 12 13  1  0
 13 14  2  0
 14 15  1  0
  8 16  2  0
 16 17  1  0
 17 18  2  0
 18 19  1  0
 19 20  1  0
 20 21  1  0
 21 22  2  0
 21 23  1  0
 23 24  1  0
 24 25  1  0
 25 26  1  0
 26 27  1  0
 27 28  1  0
  6 29  1  0
 29 30  2  0
 30  3  1  0
 18  7  1  0
 28 23  1  0
 14  9  1  0
  1 31  1  0
  1 32  1  0
  1 33  1  0
  4 34  1  0
  5 35  1  0
 10 36  1  0
 11 37  1  0
 12 38  1  0
 13 39  1  0
 17 40  1  0
 20 41  1  0
 20 42  1  0
 24 43  1  0
 24 44  1  0
 25 45  1  0
 25 46  1  0
 27 47  1  0
 27 48  1  0
 28 49  1  0
 28 50  1  0
 29 51  1  0
 30 52  1  0
M  CHG  2  15  -1  17   1
M  END
>  <UniqueID>  (42) 
40

>  <SMILES>  (42) 
COc1ccc(-n2c(-c3ccccc3[O-])n[nH+]c2SCC(=O)N2CCOCC2)cc1

>  <Energy>  (42) 
100.07908565334816

>  <Genealogy>  (42) 
COc1ccc(-n2c(-c3ccccc3[O-])n[nH+]c2SCC(=O)N2CCOCC2)cc1 (protonated)
COc1ccc(-n2c(-c3ccccc3[O-])n[nH+]c2SCC(=O)N2CCOCC2)cc1 (3D coordinates assigned)
COc1ccc(-n2c(-c3ccccc3[O-])n[nH+]c2SCC(=O)N2CCOCC2)cc1 (nonaromatic ring conformer: 100.07908565334816 kcal/mol)

>  <smiles>  (42) 
COc1ccc(-n2c(SCC(=O)N3CCOCC3)nnc2-c2ccccc2O)cc1

>  <score_type>  (42) 
oracle

>  <origin>  (42) 
adg

>  <m_score__min__energy>  (42) 
-10.359999999999999

>  <m_primary>  (42) 
energy

$$$$
42:0
     RDKit          3D

 21 22  0  0  0  0  0  0  0  0999 V2000
   55.3520   29.4200   44.7040 N   0  0  0  0  0  0  0  0  0  0  0  0
   56.2900   29.6050   43.6030 C   0  0  0  0  0  0  0  0  0  0  0  0
   57.0910   30.8580   43.8180 C   0  0  0  0  0  0  0  0  0  0  0  0
   57.5110   31.6400   42.7100 C   0  0  0  0  0  0  0  0  0  0  0  0
   58.2110   32.8000   42.9010 N   0  0  0  0  0  0  0  0  0  0  0  0
   58.4910   33.2000   44.1670 C   0  0  0  0  0  0  0  0  0  0  0  0
   59.1580   34.3090   44.5220 N   0  0  0  0  0  0  0  0  0  0  0  0
   59.1850   34.2950   45.8750 C   0  0  0  0  0  0  0  0  0  0  0  0
   58.5290   33.1700   46.3740 C   0  0  0  0  0  0  0  0  0  0  0  0
   58.0950   32.4870   45.2590 C   0  0  0  0  0  0  0  0  0  0  0  0
   57.3810   31.3010   45.1250 C   0  0  0  0  0  0  0  0  0  0  0  0
   54.7780   28.5710   44.4930 H   0  0  0  0  0  0  0  0  0  0  0  0
   54.6910   30.2310   44.7100 H   0  0  0  0  0  0  0  0  0  0  0  0
   56.9698   28.7416   43.5541 H   0  0  0  0  0  0  0  0  0  0  0  0
   55.7294   29.6910   42.6605 H   0  0  0  0  0  0  0  0  0  0  0  0
   57.2714   31.3102   41.6883 H   0  0  0  0  0  0  0  0  0  0  0  0
   58.5200   33.3700   42.0820 H   0  0  0  0  0  0  0  0  0  0  0  0
   59.5690   35.0330   43.8910 H   0  0  0  0  0  0  0  0  0  0  0  0
   59.6605   35.0672   46.4975 H   0  0  0  0  0  0  0  0  0  0  0  0
   58.3887   32.8891   47.4282 H   0  0  0  0  0  0  0  0  0  0  0  0
   57.0544   30.7295   46.0063 H   0  0  0  0  0  0  0  0  0  0  0  0
  1  2  1  0
  2  3  1  0
  3  4  2  0
  4  5  1  0
  5  6  2  0
  6  7  1  0
  7  8  1  0
  8  9  2  0
  9 10  1  0
 10 11  2  0
 11  3  1  0
 10  6  1  0
  1 12  1  0
  1 13  1  0
  2 14  1  0
  2 15  1  0
  4 16  1  0
  5 17  1  0
  7 18  1  0
  8 19  1  0
  9 20  1  0
 11 21  1  0
M  CHG  1   5   1
M  END
>  <UniqueID>  (43) 
41

>  <SMILES>  (43) 
NCc1c[nH+]c2[nH]ccc2c1

>  <Energy>  (43) 
52.86536304258695

>  <Genealogy>  (43) 
NCc1c[nH+]c2[nH]ccc2c1 (protonated)
NCc1c[nH+]c2[nH]ccc2c1 (3D coordinates assigned)
NCc1c[nH+]c2[nH]ccc2c1 (optimized conformer: 52.86536304258695 kcal/mol)

>  <smiles>  (43) 
NCc1cnc2[nH]ccc2c1

>  <score_type>  (43) 
oracle

>  <origin>  (43) 
adg

>  <m_score__min__energy>  (43) 
-3.9100000000000001

>  <m_primary>  (43) 
energy

$$$$
43:0
     RDKit          3D

 50 52  0  0  0  0  0  0  0  0999 V2000
   57.8116   31.6392   42.6251 H   0  0  0  0  0  0  0  0  0  0  0  0
   57.7150   31.5360   43.7160 C   0  0  0  0  0  0  0  0  0  0  0  0
   57.3990   32.6330   44.4230 C   0  0  0  0  0  0  0  0  0  0  0  0
   56.3929   33.0577   44.2914 H   0  0  0  0  0  0  0  0  0  0  0  0
   58.3160   33.3070   45.3670 C   0  0  0  0  0  0  0  0  0  0  0  0
   58.7790   34.6120   45.0970 C   0  0  0  0  0  0  0  0  0  0  0  0
   58.4213   35.1431   44.2026 H   0  0  0  0  0  0  0  0  0  0  0  0
   59.6980   35.2430   45.9650 C   0  0  0  0  0  0  0  0  0  0  0  0
   60.0597   36.2558   45.7337 H   0  0  0  0  0  0  0  0  0  0  0  0
   60.1540   34.5870   47.1220 C   0  0  0  0  0  0  0  0  0  0  0  0
   60.8837   35.0604   47.7953 H   0  0  0  0  0  0  0  0  0  0  0  0
   59.6480   33.3150   47.3850 C   0  0  0  0  0  0  0  0  0  0  0  0
   58.7590   32.7000   46.5510 C   0  0  0  0  0  0  0  0  0  0  0  0
   58.4290   31.4850   47.0330 N   0  0  0  0  0  0  0  0  0  0  0  0
   59.1570   31.3920   48.1740 C   0  0  0  0  0  0  0  0  0  0  0  0
   59.1440   30.5101   48.8314 H   0  0  0  0  0  0  0  0  0  0  0  0
   59.9020   32.4970   48.4210 N   0  0  0  0  0  0  0  0  0  0  0  0
   60.8680   32.6720   49.5040 C   0  0  0  0  0  0  0  0  0  0  0  0
   60.4003   32.3891   50.4586 H   0  0  0  0  0  0  0  0  0  0  0  0
   61.1826   33.7254   49.5406 H   0  0  0  0  0  0  0  0  0  0  0  0
   62.0950   31.7890   49.2590 C   0  0  0  0  0  0  0  0  0  0  0  0
   61.8430   31.0162   48.5178 H   0  0  0  0  0  0  0  0  0  0  0  0
   62.3920   31.3201   50.2087 H   0  0  0  0  0  0  0  0  0  0  0  0
   63.2230   32.6010   48.7520 N   0  0  0  0  0  0  0  0  0  0  0  0
   63.0190   34.0180   49.1030 C   0  0  0  0  0  0  0  0  0  0  0  0
   63.0034   34.1260   50.1976 H   0  0  0  0  0  0  0  0  0  0  0  0
   63.8396   34.6207   48.6867 H   0  0  0  0  0  0  0  0  0  0  0  0
   62.0617   34.3647   48.6867 H   0  0  0  0  0  0  0  0  0  0  0  0
   63.3840   32.4480   47.2870 C   0  0  0  0  0  0  0  0  0  0  0  0
   62.5515   31.8476   46.8913 H   0  0  0  0  0  0  0  0  0  0  0  0
   64.3413   31.9461   47.0830 H   0  0  0  0  0  0  0  0  0  0  0  0
   63.3860   33.8150   46.6080 C   0  0  0  0  0  0  0  0  0  0  0  0
   63.3872   34.6047   47.3737 H   0  0  0  0  0  0  0  0  0  0  0  0
   64.2843   33.9114   45.9805 H   0  0  0  0  0  0  0  0  0  0  0  0
   62.4880   33.9140   45.9805 H   0  0  0  0  0  0  0  0  0  0  0  0
   57.9420   30.1980   44.3050 C   0  0  0  0  0  0  0  0  0  0  0  0
   59.2420   29.7050   44.5220 C   0  0  0  0  0  0  0  0  0  0  0  0
   60.1129   30.3038   44.2172 H   0  0  0  0  0  0  0  0  0  0  0  0
   59.4310   28.4580   45.1230 C   0  0  0  0  0  0  0  0  0  0  0  0
   60.4497   28.0805   45.2952 H   0  0  0  0  0  0  0  0  0  0  0  0
   58.3280   27.6890   45.5060 C   0  0  0  0  0  0  0  0  0  0  0  0
   58.5730   26.1090   46.3170 S   0  0  0  0  0  0  0  0  0  0  0  0
   59.8310   26.7590   47.4620 C   0  0  0  0  0  0  0  0  0  0  0  0
   59.5050   26.5905   48.4990 H   0  0  0  0  0  0  0  0  0  0  0  0
   60.7863   26.2416   47.2893 H   0  0  0  0  0  0  0  0  0  0  0  0
   59.9617   27.8375   47.2893 H   0  0  0  0  0  0  0  0  0  0  0  0
   57.0320   28.1550   45.2540 C   0  0  0  0  0  0  0  0  0  0  0  0
   56.1632   27.5415   45.5348 H   0  0  0  0  0  0  0  0  0  0  0  0
   56.8410   29.3990   44.6460 C   0  0  0  0  0  0  0  0  0  0  0  0
   55.8215   29.7533   44.4338 H   0  0  0  0  0  0  0  0  0  0  0  0
  1  2  1  0
  2  3  2  0
  3  4  1  0
  3  5  1  0
  5  6  2  0
  6  7  1  0
  6  8  1  0
  8  9  1  0
  8 10  2  0
 10 11  1  0
 10 12  1  0
 12 13  2  0
 13 14  1  0
 14 15  2  0
 15 16  1  0
 15 17  1  0
 17 18  1  0
 18 19  1  0
 18 20  1  0
 18 21  1  0
 21 22  1  0
 21 23  1  0
 21 24  1  0
 24 25  1  0
 25 26  1  0
 25 27  1  0
 25 28  1  0
 24 29  1  0
 29 30  1  0
 29 31  1  0
 29 32  1  0
 32 33  1  0
 32 34  1  0
 32 35  1  0
  2 36  1  0
 36 37  2  0
 37 38  1  0
 37 39  1  0
 39 40  1  0
 39 41  2  0
 41 42  1  0
 42 43  1  0
 43 44  1  0
 43 45  1  0
 43 46  1  0
 41 47  1  0
 47 48  1  0
 47 49  2  0
 49 50  1  0
 13  5  1  0
 49 36  1  0
 17 12  1  0
M  END
>  <UniqueID>  (44) 
42

>  <SMILES>  (44) 
CCN(C)CCn1cnc2c(/C=C\c3ccc(SC)cc3)cccc21

>  <Energy>  (44) 
89.87155914536406

>  <Genealogy>  (44) 
CCN(C)CCn1cnc2c(/C=C\c3ccc(SC)cc3)cccc21 (cis-trans isomerization)
CCN(C)CCn1cnc2c(/C=C\c3ccc(SC)cc3)cccc21 (3D coordinates assigned)
CCN(C)CCn1cnc2c(/C=C\c3ccc(SC)cc3)cccc21 (optimized conformer: 89.87155914536406 kcal/mol)

>  <smiles>  (44) 
CCN(C)CCn1cnc2c(C=Cc3ccc(SC)cc3)cccc21

>  <score_type>  (44) 
oracle

>  <origin>  (44) 
adg

>  <m_score__min__energy>  (44) 
-7.6299999999999999

>  <m_primary>  (44) 
energy

$$$$
44:0
     RDKit          3D

 43 45  0  0  0  0  0  0  0  0999 V2000
   60.6130   30.6390   46.6330 C   0  0  0  0  0  0  0  0  0  0  0  0
   59.6170   31.3120   45.8700 O   0  0  0  0  0  0  0  0  0  0  0  0
   58.5240   30.6860   45.2520 C   0  0  0  0  0  0  0  0  0  0  0  0
   58.1280   29.3800   45.6060 C   0  0  0  0  0  0  0  0  0  0  0  0
   57.0190   28.7860   45.0010 C   0  0  0  0  0  0  0  0  0  0  0  0
   56.2820   29.4900   44.0510 C   0  0  0  0  0  0  0  0  0  0  0  0
   56.6620   30.7810   43.6870 C   0  0  0  0  0  0  0  0  0  0  0  0
   57.7990   31.3820   44.2560 C   0  0  0  0  0  0  0  0  0  0  0  0
   58.2140   32.7660   43.7960 C   0  0  0  0  0  0  0  0  0  0  0  0
   57.9110   33.8370   44.7750 N   0  0  0  0  0  0  0  0  0  0  0  0
   58.8800   34.9470   44.8670 C   0  0  0  0  0  0  0  0  0  0  0  0
   59.9220   34.7700   45.9990 C   0  0  0  0  0  0  0  0  0  0  0  0
   59.5210   33.7630   47.0080 N   0  0  0  0  0  0  0  0  0  0  0  0
   60.2710   33.9140   48.2380 C   0  0  0  0  0  0  0  0  0  0  0  0
   59.6850   34.2590   49.3030 O   0  0  0  0  0  0  0  0  0  0  0  0
   61.7190   33.6160   48.2980 C   0  0  0  0  0  0  0  0  0  0  0  0
   62.5050   33.4880   49.4410 C   0  0  0  0  0  0  0  0  0  0  0  0
   63.8490   33.2150   49.1620 C   0  0  0  0  0  0  0  0  0  0  0  0
   64.1330   33.1320   47.8060 C   0  0  0  0  0  0  0  0  0  0  0  0
   62.7090   33.4020   46.9550 S   0  0  0  0  0  0  0  0  0  0  0  0
   58.0780   33.8360   47.2850 C   0  0  0  0  0  0  0  0  0  0  0  0
   57.2740   33.4200   46.0430 C   0  0  0  0  0  0  0  0  0  0  0  0
   60.4090   30.7768   47.7051 H   0  0  0  0  0  0  0  0  0  0  0  0
   60.5969   29.5659   46.3917 H   0  0  0  0  0  0  0  0  0  0  0  0
   61.6026   31.0543   46.3917 H   0  0  0  0  0  0  0  0  0  0  0  0
   58.6978   28.8244   46.3654 H   0  0  0  0  0  0  0  0  0  0  0  0
   56.7268   27.7614   45.2745 H   0  0  0  0  0  0  0  0  0  0  0  0
   55.3988   29.0264   43.5874 H   0  0  0  0  0  0  0  0  0  0  0  0
   56.0662   31.3354   42.9469 H   0  0  0  0  0  0  0  0  0  0  0  0
   59.2986   32.7600   43.6129 H   0  0  0  0  0  0  0  0  0  0  0  0
   57.6353   32.9889   42.8875 H   0  0  0  0  0  0  0  0  0  0  0  0
   59.4163   35.0204   43.9094 H   0  0  0  0  0  0  0  0  0  0  0  0
   58.3063   35.8570   45.0969 H   0  0  0  0  0  0  0  0  0  0  0  0
   60.8757   34.4550   45.5504 H   0  0  0  0  0  0  0  0  0  0  0  0
   60.0089   35.7362   46.5176 H   0  0  0  0  0  0  0  0  0  0  0  0
   59.7380   32.8240   46.6100 H   0  0  0  0  0  0  0  0  0  0  0  0
   62.1085   33.5913   50.4619 H   0  0  0  0  0  0  0  0  0  0  0  0
   64.6097   33.0788   49.9448 H   0  0  0  0  0  0  0  0  0  0  0  0
   65.1192   32.9253   47.3647 H   0  0  0  0  0  0  0  0  0  0  0  0
   57.8339   33.1605   48.1181 H   0  0  0  0  0  0  0  0  0  0  0  0
   57.8167   34.8712   47.5498 H   0  0  0  0  0  0  0  0  0  0  0  0
   57.1739   32.3246   46.0411 H   0  0  0  0  0  0  0  0  0  0  0  0
   56.2969   33.9219   46.1006 H   0  0  0  0  0  0  0  0  0  0  0  0
  1  2  1  0
  2  3  1  0
  3  4  2  0
  4  5  1  0
  5  6  2  0
  6  7  1  0
  7  8  2  0
  8  9  1  0
  9 10  1  0
 10 11  1  0
 11 12  1  0
 12 13  1  0
 13 14  1  0
 14 15  2  0
 14 16  1  0
 16 17  2  0
 17 18  1  0
 18 19  2  0
 19 20  1  0
 13 21  1  0
 21 22  1  0
  8  3  1  0
 22 10  1  0
 20 16  1  0
  1 23  1  0
  1 24  1  0
  1 25  1  0
  4 26  1  0
  5 27  1  0
  6 28  1  0
  7 29  1  0
  9 30  1  0
  9 31  1  0
 11 32  1  0
 11 33  1  0
 12 34  1  0
 12 35  1  0
 13 36  1  0
 17 37  1  0
 18 38  1  0
 19 39  1  0
 21 40  1  0
 21 41  1  0
 22 42  1  0
 22 43  1  0
M  CHG  1  13   1
M  END
>  <UniqueID>  (45) 
43

>  <SMILES>  (45) 
COc1ccccc1CN1CC[NH+](C(=O)c2cccs2)CC1

>  <Energy>  (45) 
87.45160775403073

>  <Genealogy>  (45) 
COc1ccccc1CN1CC[NH+](C(=O)c2cccs2)CC1 (protonated)
COc1ccccc1CN1CC[NH+](C(=O)c2cccs2)CC1 (3D coordinates assigned)
COc1ccccc1CN1CC[NH+](C(=O)c2cccs2)CC1 (nonaromatic ring conformer: 87.45160775403073 kcal/mol)

>  <smiles>  (45) 
COc1ccccc1CN1CCN(C(=O)c2cccs2)CC1

>  <score_type>  (45) 
oracle

>  <origin>  (45) 
adg

>  <m_score__min__energy>  (45) 
-5.9100000000000001

>  <m_primary>  (45) 
energy

$$$$
45:0
     RDKit          3D

 48 50  0  0  0  0  0  0  0  0999 V2000
   58.9350   32.6330   49.9830 C   0  0  0  0  0  0  0  0  0  0  0  0
   58.7630   32.0730   48.5770 C   0  0  0  0  0  0  0  0  0  0  0  0
   59.6130   32.8010   47.6290 N   0  0  0  0  0  0  0  0  0  0  0  0
   59.2100   33.6490   46.6430 C   0  0  0  0  0  0  0  0  0  0  0  0
   57.7800   33.9270   46.2770 C   0  0  0  0  0  0  0  0  0  0  0  0
   57.1970   32.7750   45.5920 N   0  0  0  0  0  0  0  0  0  0  0  0
   57.7240   32.2610   44.3610 C   0  0  0  0  0  0  0  0  0  0  0  0
   58.7130   32.8170   43.8100 O   0  0  0  0  0  0  0  0  0  0  0  0
   57.0830   31.0760   43.6980 C   0  0  0  0  0  0  0  0  0  0  0  0
   57.0060   29.8530   44.6430 C   0  0  0  0  0  0  0  0  0  0  0  0
   57.3870   28.5380   43.9010 C   0  0  0  0  0  0  0  0  0  0  0  0
   58.7580   27.9610   44.3040 C   0  0  0  0  0  0  0  0  0  0  0  0
   59.7870   29.0710   44.5220 C   0  0  0  0  0  0  0  0  0  0  0  0
   59.3690   30.0390   45.6470 C   0  0  0  0  0  0  0  0  0  0  0  0
   57.8520   30.0440   45.9240 C   0  0  0  0  0  0  0  0  0  0  0  0
   60.3070   34.1990   45.9840 C   0  0  0  0  0  0  0  0  0  0  0  0
   61.4090   33.6720   46.6200 C   0  0  0  0  0  0  0  0  0  0  0  0
   62.7670   33.8870   46.3900 C   0  0  0  0  0  0  0  0  0  0  0  0
   63.6870   33.2180   47.2150 C   0  0  0  0  0  0  0  0  0  0  0  0
   63.2340   32.3610   48.2430 C   0  0  0  0  0  0  0  0  0  0  0  0
   61.8570   32.1640   48.4510 C   0  0  0  0  0  0  0  0  0  0  0  0
   60.9620   32.8370   47.6120 C   0  0  0  0  0  0  0  0  0  0  0  0
   58.6953   31.8527   50.7203 H   0  0  0  0  0  0  0  0  0  0  0  0
   59.9755   32.9617   50.1220 H   0  0  0  0  0  0  0  0  0  0  0  0
   58.2584   33.4891   50.1220 H   0  0  0  0  0  0  0  0  0  0  0  0
   59.0445   31.0096   48.5735 H   0  0  0  0  0  0  0  0  0  0  0  0
   57.7118   32.1868   48.2738 H   0  0  0  0  0  0  0  0  0  0  0  0
   57.2052   34.1340   47.1918 H   0  0  0  0  0  0  0  0  0  0  0  0
   57.7460   34.7970   45.6048 H   0  0  0  0  0  0  0  0  0  0  0  0
   56.3430   32.3360   46.0020 H   0  0  0  0  0  0  0  0  0  0  0  0
   56.0636   31.3505   43.3890 H   0  0  0  0  0  0  0  0  0  0  0  0
   57.7004   30.7969   42.8315 H   0  0  0  0  0  0  0  0  0  0  0  0
   55.9580   29.7666   44.9658 H   0  0  0  0  0  0  0  0  0  0  0  0
   56.6172   27.7831   44.1191 H   0  0  0  0  0  0  0  0  0  0  0  0
   57.4497   28.7851   42.8309 H   0  0  0  0  0  0  0  0  0  0  0  0
   58.6455   27.3888   45.2367 H   0  0  0  0  0  0  0  0  0  0  0  0
   59.1143   27.3130   43.4897 H   0  0  0  0  0  0  0  0  0  0  0  0
   60.7511   28.6132   44.7884 H   0  0  0  0  0  0  0  0  0  0  0  0
   59.8630   29.6493   43.5894 H   0  0  0  0  0  0  0  0  0  0  0  0
   59.8903   29.7454   46.5701 H   0  0  0  0  0  0  0  0  0  0  0  0
   59.6406   31.0529   45.3181 H   0  0  0  0  0  0  0  0  0  0  0  0
   57.6201   29.2269   46.6230 H   0  0  0  0  0  0  0  0  0  0  0  0
   57.5964   31.0275   46.3451 H   0  0  0  0  0  0  0  0  0  0  0  0
   60.2956   34.9023   45.1383 H   0  0  0  0  0  0  0  0  0  0  0  0
   63.1075   34.5589   45.5883 H   0  0  0  0  0  0  0  0  0  0  0  0
   64.7664   33.3624   47.0596 H   0  0  0  0  0  0  0  0  0  0  0  0
   63.9630   31.8446   48.8848 H   0  0  0  0  0  0  0  0  0  0  0  0
   61.4943   31.5004   49.2498 H   0  0  0  0  0  0  0  0  0  0  0  0
  1  2  1  0
  2  3  1  0
  3  4  1  0
  4  5  1  0
  5  6  1  0
  6  7  1  0
  7  8  2  0
  7  9  1  0
  9 10  1  0
 10 11  1  0
 11 12  1  0
 12 13  1  0
 13 14  1  0
 14 15  1  0
  4 16  2  0
 16 17  1  0
 17 18  2  0
 18 19  1  0
 19 20  2  0
 20 21  1  0
 21 22  2  0
 22  3  1  0
 15 10  1  0
 22 17  1  0
  1 23  1  0
  1 24  1  0
  1 25  1  0
  2 26  1  0
  2 27  1  0
  5 28  1  0
  5 29  1  0
  6 30  1  0
  9 31  1  0
  9 32  1  0
 10 33  1  0
 11 34  1  0
 11 35  1  0
 12 36  1  0
 12 37  1  0
 13 38  1  0
 13 39  1  0
 14 40  1  0
 14 41  1  0
 15 42  1  0
 15 43  1  0
 16 44  1  0
 18 45  1  0
 19 46  1  0
 20 47  1  0
 21 48  1  0
M  END
>  <UniqueID>  (46) 
44

>  <SMILES>  (46) 
CCn1c(CNC(=O)CC2CCCCC2)cc2ccccc21

>  <Energy>  (46) 
76.23459451374826

>  <Genealogy>  (46) 
CCn1c(CNC(=O)CC2CCCCC2)cc2ccccc21 (3D coordinates assigned)
CCn1c(CNC(=O)CC2CCCCC2)cc2ccccc21 (nonaromatic ring conformer: 76.23459451374826 kcal/mol)

>  <smiles>  (46) 
CCn1c(CNC(=O)CC2CCCCC2)cc2ccccc21

>  <score_type>  (46) 
oracle

>  <origin>  (46) 
adg

>  <m_score__min__energy>  (46) 
-7.5700000000000003

>  <m_primary>  (46) 
energy

$$$$
46:0
     RDKit          3D

 54 57  0  0  0  0  0  0  0  0999 V2000
   57.7680   32.1910   42.0300 C   0  0  0  0  0  0  0  0  0  0  0  0
   57.4010   32.1520   43.4570 N   0  0  0  0  0  0  0  0  0  0  0  0
   58.0590   31.0070   44.1060 C   0  0  0  0  0  0  0  0  0  0  0  0
   57.7570   33.4170   44.1350 C   0  0  0  0  0  0  0  0  0  0  0  0
   56.7400   33.7630   45.2310 C   0  0  0  0  0  0  0  0  0  0  0  0
   57.3830   33.8280   46.5460 N   0  0  0  0  0  0  0  0  0  0  0  0
   58.7530   33.4730   46.8150 C   0  0  0  0  0  0  0  0  0  0  0  0
   59.7100   34.5060   46.9790 C   0  0  0  0  0  0  0  0  0  0  0  0
   61.0650   34.2100   47.2090 C   0  0  0  0  0  0  0  0  0  0  0  0
   61.4320   32.8670   47.2830 C   0  0  0  0  0  0  0  0  0  0  0  0
   60.5130   31.8620   47.1650 C   0  0  0  0  0  0  0  0  0  0  0  0
   59.1640   32.1220   46.9230 C   0  0  0  0  0  0  0  0  0  0  0  0
   61.2440   30.6870   47.2630 C   0  0  0  0  0  0  0  0  0  0  0  0
   60.7490   29.2980   47.1750 C   0  0  0  0  0  0  0  0  0  0  0  0
   60.3620   28.7410   45.9440 C   0  0  0  0  0  0  0  0  0  0  0  0
   59.8970   27.4240   45.8820 C   0  0  0  0  0  0  0  0  0  0  0  0
   59.8010   26.6580   47.0460 C   0  0  0  0  0  0  0  0  0  0  0  0
   60.1620   27.2120   48.2770 C   0  0  0  0  0  0  0  0  0  0  0  0
   60.6280   28.5280   48.3440 C   0  0  0  0  0  0  0  0  0  0  0  0
   62.5520   31.0060   47.4250 N   0  0  0  0  0  0  0  0  0  0  0  0
   62.6590   32.3300   47.4360 N   0  0  0  0  0  0  0  0  0  0  0  0
   63.9200   33.0360   47.6530 C   0  0  0  0  0  0  0  0  0  0  0  0
   64.1580   33.2240   49.1270 C   0  0  0  0  0  0  0  0  0  0  0  0
   63.2410   33.9580   49.8970 C   0  0  0  0  0  0  0  0  0  0  0  0
   63.4710   34.1610   51.2610 C   0  0  0  0  0  0  0  0  0  0  0  0
   64.6170   33.6350   51.8650 C   0  0  0  0  0  0  0  0  0  0  0  0
   65.5360   32.9080   51.1030 C   0  0  0  0  0  0  0  0  0  0  0  0
   65.3100   32.7030   49.7390 C   0  0  0  0  0  0  0  0  0  0  0  0
   58.8577   32.3068   41.9347 H   0  0  0  0  0  0  0  0  0  0  0  0
   57.4550   31.2545   41.5452 H   0  0  0  0  0  0  0  0  0  0  0  0
   57.2652   33.0408   41.5452 H   0  0  0  0  0  0  0  0  0  0  0  0
   57.9950   31.1183   45.1985 H   0  0  0  0  0  0  0  0  0  0  0  0
   57.5582   30.0759   43.8023 H   0  0  0  0  0  0  0  0  0  0  0  0
   59.1156   30.9709   43.8023 H   0  0  0  0  0  0  0  0  0  0  0  0
   58.7532   33.3127   44.5896 H   0  0  0  0  0  0  0  0  0  0  0  0
   57.7545   34.2254   43.3890 H   0  0  0  0  0  0  0  0  0  0  0  0
   56.2859   34.7390   45.0045 H   0  0  0  0  0  0  0  0  0  0  0  0
   55.9722   32.9757   45.2562 H   0  0  0  0  0  0  0  0  0  0  0  0
   56.8110   34.2120   47.3330 H   0  0  0  0  0  0  0  0  0  0  0  0
   59.3871   35.5562   46.9254 H   0  0  0  0  0  0  0  0  0  0  0  0
   61.8101   35.0106   47.3265 H   0  0  0  0  0  0  0  0  0  0  0  0
   58.4397   31.3007   46.8190 H   0  0  0  0  0  0  0  0  0  0  0  0
   60.4252   29.3436   45.0259 H   0  0  0  0  0  0  0  0  0  0  0  0
   59.6060   26.9899   44.9141 H   0  0  0  0  0  0  0  0  0  0  0  0
   59.4416   25.6197   46.9937 H   0  0  0  0  0  0  0  0  0  0  0  0
   60.0793   26.6114   49.1948 H   0  0  0  0  0  0  0  0  0  0  0  0
   60.9013   28.9630   49.3167 H   0  0  0  0  0  0  0  0  0  0  0  0
   64.7448   32.4489   47.2229 H   0  0  0  0  0  0  0  0  0  0  0  0
   63.8702   34.0215   47.1669 H   0  0  0  0  0  0  0  0  0  0  0  0
   62.3388   34.3746   49.4253 H   0  0  0  0  0  0  0  0  0  0  0  0
   62.7491   34.7355   51.8600 H   0  0  0  0  0  0  0  0  0  0  0  0
   64.7952   33.7931   52.9389 H   0  0  0  0  0  0  0  0  0  0  0  0
   66.4389   32.4964   51.5777 H   0  0  0  0  0  0  0  0  0  0  0  0
   66.0367   32.1317   49.1428 H   0  0  0  0  0  0  0  0  0  0  0  0
  1  2  1  0
  2  3  1  0
  2  4  1  0
  4  5  1  0
  5  6  1  0
  6  7  1  0
  7  8  2  0
  8  9  1  0
  9 10  2  0
 10 11  1  0
 11 12  2  0
 11 13  1  0
 13 14  1  0
 14 15  2  0
 15 16  1  0
 16 17  2  0
 17 18  1  0
 18 19  2  0
 13 20  2  0
 20 21  1  0
 21 22  1  0
 22 23  1  0
 23 24  2  0
 24 25  1  0
 25 26  2  0
 26 27  1  0
 27 28  2  0
 12  7  1  0
 19 14  1  0
 28 23  1  0
 21 10  1  0
  1 29  1  0
  1 30  1  0
  1 31  1  0
  3 32  1  0
  3 33  1  0
  3 34  1  0
  4 35  1  0
  4 36  1  0
  5 37  1  0
  5 38  1  0
  6 39  1  0
  8 40  1  0
  9 41  1  0
 12 42  1  0
 15 43  1  0
 16 44  1  0
 17 45  1  0
 18 46  1  0
 19 47  1  0
 22 48  1  0
 22 49  1  0
 24 50  1  0
 25 51  1  0
 26 52  1  0
 27 53  1  0
 28 54  1  0
M  END
>  <UniqueID>  (47) 
45

>  <SMILES>  (47) 
CN(C)CCNc1ccc2c(c1)c(-c1ccccc1)nn2Cc1ccccc1

>  <Energy>  (47) 
97.45171217450802

>  <Genealogy>  (47) 
CN(C)CCNc1ccc2c(c1)c(-c1ccccc1)nn2Cc1ccccc1 (3D coordinates assigned)
CN(C)CCNc1ccc2c(c1)c(-c1ccccc1)nn2Cc1ccccc1 (optimized conformer: 97.45171217450802 kcal/mol)

>  <smiles>  (47) 
CN(C)CCNc1ccc2c(c1)c(-c1ccccc1)nn2Cc1ccccc1

>  <score_type>  (47) 
oracle

>  <origin>  (47) 
adg

>  <m_score__min__energy>  (47) 
-8.2300000000000004

>  <m_primary>  (47) 
energy

$$$$
47:0
     RDKit          3D

 48 51  0  0  0  0  0  0  0  0999 V2000
   55.9240   29.7440   43.1160 C   0  0  0  0  0  0  0  0  0  0  0  0
   55.8920   30.7180   44.1550 O   0  0  0  0  0  0  0  0  0  0  0  0
   57.0260   31.1940   44.8300 C   0  0  0  0  0  0  0  0  0  0  0  0
   57.3650   32.5590   44.8640 C   0  0  0  0  0  0  0  0  0  0  0  0
   58.5020   32.9880   45.5530 C   0  0  0  0  0  0  0  0  0  0  0  0
   59.3180   32.0620   46.2170 C   0  0  0  0  0  0  0  0  0  0  0  0
   60.4520   32.4880   46.9140 C   0  0  0  0  0  0  0  0  0  0  0  0
   61.2590   31.5500   47.5770 C   0  0  0  0  0  0  0  0  0  0  0  0
   62.4700   31.9900   48.3150 C   0  0  0  0  0  0  0  0  0  0  0  0
   63.2730   33.0280   47.8070 C   0  0  0  0  0  0  0  0  0  0  0  0
   64.4150   33.4430   48.5000 C   0  0  0  0  0  0  0  0  0  0  0  0
   64.7680   32.8280   49.7030 C   0  0  0  0  0  0  0  0  0  0  0  0
   65.8760   33.2310   50.3720 F   0  0  0  0  0  0  0  0  0  0  0  0
   63.9780   31.7950   50.2170 C   0  0  0  0  0  0  0  0  0  0  0  0
   62.8350   31.3780   49.5280 C   0  0  0  0  0  0  0  0  0  0  0  0
   60.9270   30.2270   47.5280 N   0  0  0  0  0  0  0  0  0  0  0  0
   59.8320   29.7750   46.8540 C   0  0  0  0  0  0  0  0  0  0  0  0
   59.5540   28.3710   46.8340 N   0  0  0  0  0  0  0  0  0  0  0  0
   60.3220   27.4340   46.0400 C   0  0  0  0  0  0  0  0  0  0  0  0
   59.6440   26.0870   46.2470 C   0  0  0  0  0  0  0  0  0  0  0  0
   58.2270   26.4010   46.7550 C   0  0  2  0  0  0  0  0  0  0  0  0
   57.2010   26.3370   45.6110 C   0  0  0  0  0  0  0  0  0  0  0  0
   56.3600   27.4560   45.6610 O   0  0  0  0  0  0  0  0  0  0  0  0
   58.3220   27.8110   47.3560 C   0  0  0  0  0  0  0  0  0  0  0  0
   58.9930   30.6880   46.1830 C   0  0  0  0  0  0  0  0  0  0  0  0
   57.8410   30.2680   45.4910 C   0  0  0  0  0  0  0  0  0  0  0  0
   55.9571   28.7373   43.5581 H   0  0  0  0  0  0  0  0  0  0  0  0
   55.0222   29.8418   42.4938 H   0  0  0  0  0  0  0  0  0  0  0  0
   56.8175   29.9008   42.4938 H   0  0  0  0  0  0  0  0  0  0  0  0
   56.7310   33.2929   44.3449 H   0  0  0  0  0  0  0  0  0  0  0  0
   58.7580   34.0576   45.5745 H   0  0  0  0  0  0  0  0  0  0  0  0
   60.7117   33.5565   46.9430 H   0  0  0  0  0  0  0  0  0  0  0  0
   63.0010   33.5159   46.8594 H   0  0  0  0  0  0  0  0  0  0  0  0
   65.0366   34.2558   48.0963 H   0  0  0  0  0  0  0  0  0  0  0  0
   64.2560   31.3100   51.1643 H   0  0  0  0  0  0  0  0  0  0  0  0
   62.2167   30.5655   49.9374 H   0  0  0  0  0  0  0  0  0  0  0  0
   61.5180   29.5270   48.0320 H   0  0  0  0  0  0  0  0  0  0  0  0
   60.2986   27.7185   44.9777 H   0  0  0  0  0  0  0  0  0  0  0  0
   61.3804   27.4121   46.3390 H   0  0  0  0  0  0  0  0  0  0  0  0
   59.5960   25.5331   45.2978 H   0  0  0  0  0  0  0  0  0  0  0  0
   60.1993   25.4613   46.9613 H   0  0  0  0  0  0  0  0  0  0  0  0
   57.8822   25.6681   47.4993 H   0  0  0  0  0  0  0  0  0  0  0  0
   57.7304   26.3215   44.6469 H   0  0  0  0  0  0  0  0  0  0  0  0
   56.5960   25.4245   45.7181 H   0  0  0  0  0  0  0  0  0  0  0  0
   56.2630   27.7690   44.7240 H   0  0  0  0  0  0  0  0  0  0  0  0
   57.4605   28.4204   47.0454 H   0  0  0  0  0  0  0  0  0  0  0  0
   58.3174   27.7877   48.4557 H   0  0  0  0  0  0  0  0  0  0  0  0
   57.5786   29.2000   45.4697 H   0  0  0  0  0  0  0  0  0  0  0  0
  1  2  1  0
  2  3  1  0
  3  4  2  0
  4  5  1  0
  5  6  2  0
  6  7  1  0
  7  8  2  0
  8  9  1  0
  9 10  2  0
 10 11  1  0
 11 12  2  0
 12 13  1  0
 12 14  1  0
 14 15  2  0
  8 16  1  0
 16 17  2  0
 17 18  1  0
 18 19  1  0
 19 20  1  0
 20 21  1  0
 21 22  1  0
 22 23  1  0
 21 24  1  0
 17 25  1  0
 25 26  2  0
 26  3  1  0
 25  6  1  0
 15  9  1  0
 24 18  1  0
  1 27  1  0
  1 28  1  0
  1 29  1  0
  4 30  1  0
  5 31  1  0
  7 32  1  0
 10 33  1  0
 11 34  1  0
 14 35  1  0
 15 36  1  0
 16 37  1  0
 19 38  1  0
 19 39  1  0
 20 40  1  0
 20 41  1  0
 21 42  1  1
 22 43  1  0
 22 44  1  0
 23 45  1  0
 24 46  1  0
 24 47  1  0
 26 48  1  0
M  CHG  1  16   1
M  END
>  <UniqueID>  (48) 
46

>  <SMILES>  (48) 
COc1ccc2cc(-c3ccc(F)cc3)[nH+]c(N3CC[C@H](CO)C3)c2c1

>  <Energy>  (48) 
64.4286638957748

>  <Genealogy>  (48) 
COc1ccc2cc(-c3ccc(F)cc3)[nH+]c(N3CCC(CO)C3)c2c1 (protonated)
COc1ccc2cc(-c3ccc(F)cc3)[nH+]c(N3CC[C@H](CO)C3)c2c1 (chirality)
COc1ccc2cc(-c3ccc(F)cc3)[nH+]c(N3CC[C@H](CO)C3)c2c1 (3D coordinates assigned)
COc1ccc2cc(-c3ccc(F)cc3)[nH+]c(N3CC[C@H](CO)C3)c2c1 (nonaromatic ring conformer: 64.4286638957748 kcal/mol)

>  <smiles>  (48) 
COc1ccc2cc(-c3ccc(F)cc3)nc(N3CCC(CO)C3)c2c1

>  <score_type>  (48) 
oracle

>  <origin>  (48) 
adg

>  <m_score__min__energy>  (48) 
-6.9199999999999999

>  <m_primary>  (48) 
energy

$$$$
48:0
     RDKit          3D

 36 37  0  0  0  0  0  0  0  0999 V2000
   57.8940   32.6500   44.3370 C   0  0  0  0  0  0  0  0  0  0  0  0
   57.0790   31.6540   44.9450 O   0  0  0  0  0  0  0  0  0  0  0  0
   57.3910   30.2870   44.9770 C   0  0  0  0  0  0  0  0  0  0  0  0
   57.7870   29.7220   46.1950 C   0  0  0  0  0  0  0  0  0  0  0  0
   58.1080   28.3640   46.2790 C   0  0  0  0  0  0  0  0  0  0  0  0
   58.0260   27.5530   45.1410 C   0  0  0  0  0  0  0  0  0  0  0  0
   58.4470   25.8110   45.2500 S   0  0  0  0  0  0  0  0  0  0  0  0
   56.8460   25.1930   44.5920 C   0  0  1  0  0  0  0  0  0  0  0  0
   57.0410   23.9020   43.7540 C   0  0  0  0  0  0  0  0  0  0  0  0
   56.8660   22.6580   44.5320 N   0  0  0  0  0  0  0  0  0  0  0  0
   58.0020   22.3870   45.4280 C   0  0  0  0  0  0  0  0  0  0  0  0
   55.5530   22.5510   45.2200 C   0  0  0  0  0  0  0  0  0  0  0  0
   54.8390   23.9010   45.4250 C   0  0  0  0  0  0  0  0  0  0  0  0
   55.8460   25.0020   45.7570 C   0  0  2  0  0  0  0  0  0  0  0  0
   55.1510   26.1990   46.0000 O   0  0  0  0  0  0  0  0  0  0  0  0
   57.6430   28.1110   43.9160 C   0  0  0  0  0  0  0  0  0  0  0  0
   57.3220   29.4690   43.8320 C   0  0  0  0  0  0  0  0  0  0  0  0
   58.3845   33.2494   45.1181 H   0  0  0  0  0  0  0  0  0  0  0  0
   58.6588   32.1664   43.7115 H   0  0  0  0  0  0  0  0  0  0  0  0
   57.2686   33.3039   43.7115 H   0  0  0  0  0  0  0  0  0  0  0  0
   57.8461   30.3525   47.0944 H   0  0  0  0  0  0  0  0  0  0  0  0
   58.4252   27.9325   47.2398 H   0  0  0  0  0  0  0  0  0  0  0  0
   56.4235   25.9398   43.9037 H   0  0  0  0  0  0  0  0  0  0  0  0
   56.3072   23.9055   42.9346 H   0  0  0  0  0  0  0  0  0  0  0  0
   58.0782   23.9095   43.3878 H   0  0  0  0  0  0  0  0  0  0  0  0
   57.6709   22.4660   46.4740 H   0  0  0  0  0  0  0  0  0  0  0  0
   58.3836   21.3726   45.2398 H   0  0  0  0  0  0  0  0  0  0  0  0
   58.8004   23.1199   45.2398 H   0  0  0  0  0  0  0  0  0  0  0  0
   54.8994   21.9023   44.6183 H   0  0  0  0  0  0  0  0  0  0  0  0
   55.7518   22.1417   46.2215 H   0  0  0  0  0  0  0  0  0  0  0  0
   54.3024   24.1690   44.5029 H   0  0  0  0  0  0  0  0  0  0  0  0
   54.1337   23.8034   46.2635 H   0  0  0  0  0  0  0  0  0  0  0  0
   56.4159   24.7154   46.6532 H   0  0  0  0  0  0  0  0  0  0  0  0
   55.1600   26.3390   46.9830 H   0  0  0  0  0  0  0  0  0  0  0  0
   57.5944   27.4793   43.0168 H   0  0  0  0  0  0  0  0  0  0  0  0
   57.0143   29.9006   42.8681 H   0  0  0  0  0  0  0  0  0  0  0  0
  1  2  1  0
  2  3  1  0
  3  4  2  0
  4  5  1  0
  5  6  2  0
  6  7  1  0
  7  8  1  0
  8  9  1  0
  9 10  1  0
 10 11  1  0
 10 12  1  0
 12 13  1  0
 13 14  1  0
 14 15  1  0
  6 16  1  0
 16 17  2  0
 17  3  1  0
 14  8  1  0
  1 18  1  0
  1 19  1  0
  1 20  1  0
  4 21  1  0
  5 22  1  0
  8 23  1  6
  9 24  1  0
  9 25  1  0
 11 26  1  0
 11 27  1  0
 11 28  1  0
 12 29  1  0
 12 30  1  0
 13 31  1  0
 13 32  1  0
 14 33  1  1
 15 34  1  0
 16 35  1  0
 17 36  1  0
M  END
>  <UniqueID>  (49) 
47

>  <SMILES>  (49) 
COc1ccc(S[C@H]2CN(C)CC[C@@H]2O)cc1

>  <Energy>  (49) 
40.46307437371266

>  <Genealogy>  (49) 
COc1ccc(S[C@H]2CN(C)CC[C@@H]2O)cc1 (chirality)
COc1ccc(S[C@H]2CN(C)CC[C@@H]2O)cc1 (3D coordinates assigned)
COc1ccc(S[C@H]2CN(C)CC[C@@H]2O)cc1 (nonaromatic ring conformer: 40.46307437371266 kcal/mol)

>  <smiles>  (49) 
COc1ccc(SC2CN(C)CCC2O)cc1

>  <score_type>  (49) 
oracle

>  <origin>  (49) 
adg

>  <m_score__min__energy>  (49) 
-6.5300000000000002

>  <m_primary>  (49) 
energy

$$$$
