0:0
     RDKit          3D

 43 47  0  0  0  0  0  0  0  0999 V2000
   59.0916   25.2708   47.0040 H   0  0  0  0  0  0  0  0  0  0  0  0
   58.3600   25.9980   46.6220 C   0  0  0  0  0  0  0  0  0  0  0  0
   56.9850   25.6550   46.5530 C   0  0  0  0  0  0  0  0  0  0  0  0
   56.5280   24.3010   46.9930 C   0  0  0  0  0  0  0  0  0  0  0  0
   56.5135   24.2581   48.0921 H   0  0  0  0  0  0  0  0  0  0  0  0
   55.5162   24.1116   46.6053 H   0  0  0  0  0  0  0  0  0  0  0  0
   57.2181   23.5372   46.6053 H   0  0  0  0  0  0  0  0  0  0  0  0
   56.0730   26.5570   46.0720 N   0  0  0  0  0  0  0  0  0  0  0  0
   56.5070   27.7780   45.6710 C   0  0  0  0  0  0  0  0  0  0  0  0
   55.7520   28.7680   45.1750 N   0  0  0  0  0  0  0  0  0  0  0  0
   56.6830   29.7300   44.9320 C   0  0  0  0  0  0  0  0  0  0  0  0
   56.3540   30.8890   44.4440 N   0  0  0  0  0  0  0  0  0  0  0  0
   57.2620   31.9450   44.0930 C   0  0  0  0  0  0  0  0  0  0  0  0
   57.4160   32.2250   42.8760 O   0  0  0  0  0  0  0  0  0  0  0  0
   58.0760   32.6490   45.1110 C   0  0  0  0  0  0  0  0  0  0  0  0
   58.3040   32.0550   46.3240 N   0  0  0  0  0  0  0  0  0  0  0  0
   59.0510   32.6970   47.2560 C   0  0  0  0  0  0  0  0  0  0  0  0
   59.6060   33.9190   47.0220 C   0  0  0  0  0  0  0  0  0  0  0  0
   59.4260   34.5690   45.8080 C   0  0  0  0  0  0  0  0  0  0  0  0
   59.8757   35.5544   45.6161 H   0  0  0  0  0  0  0  0  0  0  0  0
   58.6470   33.9200   44.8330 C   0  0  0  0  0  0  0  0  0  0  0  0
   58.4799   34.3963   43.8557 H   0  0  0  0  0  0  0  0  0  0  0  0
   60.2850   34.2880   48.1630 C   0  0  0  0  0  0  0  0  0  0  0  0
   60.8567   35.2127   48.3308 H   0  0  0  0  0  0  0  0  0  0  0  0
   60.0910   33.2340   49.0620 C   0  0  0  0  0  0  0  0  0  0  0  0
   59.3350   32.2570   48.4950 N   0  0  0  0  0  0  0  0  0  0  0  0
   58.9150   30.9890   49.0910 C   0  0  0  0  0  0  0  0  0  0  0  0
   58.1331   31.1800   49.8407 H   0  0  0  0  0  0  0  0  0  0  0  0
   58.5219   30.3313   48.3018 H   0  0  0  0  0  0  0  0  0  0  0  0
   60.1080   30.3080   49.7650 C   0  0  0  0  0  0  0  0  0  0  0  0
   59.9364   29.2215   49.7710 H   0  0  0  0  0  0  0  0  0  0  0  0
   61.0097   30.5729   49.1934 H   0  0  0  0  0  0  0  0  0  0  0  0
   60.3170   30.7790   51.2050 C   0  0  0  0  0  0  0  0  0  0  0  0
   59.5746   30.2764   51.8423 H   0  0  0  0  0  0  0  0  0  0  0  0
   61.3536   30.5245   51.4707 H   0  0  0  0  0  0  0  0  0  0  0  0
   60.1800   32.2270   51.3960 N   0  0  0  0  0  0  0  0  0  0  0  0
   60.1260   32.5380   52.3920 H   0  0  0  0  0  0  0  0  0  0  0  0
   60.5940   33.2220   50.4500 C   0  0  0  0  0  0  0  0  0  0  0  0
   61.3280   34.1670   50.8440 O   0  0  0  0  0  0  0  0  0  0  0  0
   57.9610   29.3920   45.2670 N   0  0  0  0  0  0  0  0  0  0  0  0
   57.8100   28.1420   45.7260 C   0  0  0  0  0  0  0  0  0  0  0  0
   58.7850   27.2720   46.2000 C   0  0  0  0  0  0  0  0  0  0  0  0
   59.8439   27.5666   46.2435 H   0  0  0  0  0  0  0  0  0  0  0  0
  1  2  1  0
  2  3  2  0
  3  4  1  0
  4  5  1  0
  4  6  1  0
  4  7  1  0
  3  8  1  0
  8  9  2  0
  9 10  1  0
 10 11  1  0
 11 12  2  0
 12 13  1  0
 13 14  2  0
 13 15  1  0
 15 16  2  0
 16 17  1  0
 17 18  2  0
 18 19  1  0
 19 20  1  0
 19 21  2  0
 21 22  1  0
 18 23  1  0
 23 24  1  0
 23 25  2  0
 25 26  1  0
 26 27  1  0
 27 28  1  0
 27 29  1  0
 27 30  1  0
 30 31  1  0
 30 32  1  0
 30 33  1  0
 33 34  1  0
 33 35  1  0
 33 36  1  0
 36 37  1  0
 36 38  1  0
 38 39  2  0
 11 40  1  0
 40 41  1  0
 41 42  2  0
 42 43  1  0
 42  2  1  0
 41  9  1  0
 21 15  1  0
 38 25  1  0
 26 17  1  0
M  CHG  2  10  -1  40  -1
M  END
>  <UniqueID>  (1) 
1

>  <SMILES>  (1) 
Cc1ccc2[n-]/c(=N\C(=O)c3ccc4cc5n(c4n3)CCCNC5=O)[n-]c2n1

>  <Energy>  (1) 
131.82026447154138

>  <Genealogy>  (1) 
Cc1ccc2[n-]c(=NC(=O)c3ccc4cc5n(c4n3)CCCNC5=O)[n-]c2n1 (protonated)
Cc1ccc2[n-]/c(=N\C(=O)c3ccc4cc5n(c4n3)CCCNC5=O)[n-]c2n1 (cis-trans isomerization)
Cc1ccc2[n-]/c(=N\C(=O)c3ccc4cc5n(c4n3)CCCNC5=O)[n-]c2n1 (3D coordinates assigned)
Cc1ccc2[n-]/c(=N\C(=O)c3ccc4cc5n(c4n3)CCCNC5=O)[n-]c2n1 (nonaromatic ring conformer: 131.82026447154138 kcal/mol)

>  <smiles>  (1) 
Cc1ccc2[nH]c(=NC(=O)c3ccc4cc5n(c4n3)CCCNC5=O)[nH]c2n1

>  <score_type>  (1) 
oracle

>  <origin>  (1) 
adg

>  <m_score__min__energy>  (1) 
-10.890000000000001

>  <m_primary>  (1) 
energy

$$$$
1:0
     RDKit          3D

 32 34  0  0  0  0  0  0  0  0999 V2000
   60.8131   31.6357   47.4241 H   0  0  0  0  0  0  0  0  0  0  0  0
   60.1920   32.3980   46.9310 C   0  0  0  0  0  0  0  0  0  0  0  0
   59.0280   32.0200   46.2530 C   0  0  0  0  0  0  0  0  0  0  0  0
   58.7404   30.9592   46.2084 H   0  0  0  0  0  0  0  0  0  0  0  0
   58.2250   32.9890   45.6290 C   0  0  0  0  0  0  0  0  0  0  0  0
   56.9950   32.5810   44.8690 C   0  0  0  0  0  0  0  0  0  0  0  0
   56.8725   33.2378   43.9951 H   0  0  0  0  0  0  0  0  0  0  0  0
   56.1186   32.6683   45.5279 H   0  0  0  0  0  0  0  0  0  0  0  0
   57.1230   31.1640   44.4090 C   0  0  0  0  0  0  0  0  0  0  0  0
   57.9380   30.8700   43.4920 O   0  0  0  0  0  0  0  0  0  0  0  0
   56.2860   30.1580   44.9820 N   0  0  0  0  0  0  0  0  0  0  0  0
   56.3030   28.9620   44.5520 N   0  0  0  0  0  0  0  0  0  0  0  0
   56.8480   27.8980   45.3350 C   0  0  0  0  0  0  0  0  0  0  0  0
   56.1680   26.8810   45.9920 C   0  0  0  0  0  0  0  0  0  0  0  0
   54.7890   26.7150   46.0010 O   0  0  0  0  0  0  0  0  0  0  0  0
   57.0170   26.0440   46.6350 N   0  0  0  0  0  0  0  0  0  0  0  0
   58.2410   26.5510   46.3740 C   0  0  0  0  0  0  0  0  0  0  0  0
   59.4630   26.0440   46.8140 C   0  0  0  0  0  0  0  0  0  0  0  0
   59.5091   25.1424   47.4425 H   0  0  0  0  0  0  0  0  0  0  0  0
   60.6350   26.7200   46.4300 C   0  0  0  0  0  0  0  0  0  0  0  0
   61.6146   26.3454   46.7618 H   0  0  0  0  0  0  0  0  0  0  0  0
   60.5640   27.8770   45.6210 C   0  0  0  0  0  0  0  0  0  0  0  0
   61.4882   28.3964   45.3276 H   0  0  0  0  0  0  0  0  0  0  0  0
   59.3190   28.3680   45.1890 C   0  0  0  0  0  0  0  0  0  0  0  0
   59.2492   29.2669   44.5589 H   0  0  0  0  0  0  0  0  0  0  0  0
   58.1770   27.6760   45.5870 C   0  0  0  0  0  0  0  0  0  0  0  0
   58.6160   34.3390   45.6740 C   0  0  0  0  0  0  0  0  0  0  0  0
   58.0036   35.1033   45.1732 H   0  0  0  0  0  0  0  0  0  0  0  0
   59.7790   34.7140   46.3520 C   0  0  0  0  0  0  0  0  0  0  0  0
   60.0758   35.7725   46.3904 H   0  0  0  0  0  0  0  0  0  0  0  0
   60.5660   33.7440   46.9820 C   0  0  0  0  0  0  0  0  0  0  0  0
   61.7230   34.1180   47.6550 O   0  0  0  0  0  0  0  0  0  0  0  0
  1  2  1  0
  2  3  2  0
  3  4  1  0
  3  5  1  0
  5  6  1  0
  6  7  1  0
  6  8  1  0
  6  9  1  0
  9 10  2  0
  9 11  1  0
 11 12  2  0
 12 13  1  0
 13 14  2  0
 14 15  1  0
 14 16  1  0
 16 17  1  0
 17 18  2  0
 18 19  1  0
 18 20  1  0
 20 21  1  0
 20 22  2  0
 22 23  1  0
 22 24  1  0
 24 25  1  0
 24 26  2  0
  5 27  2  0
 27 28  1  0
 27 29  1  0
 29 30  1  0
 29 31  2  0
 31 32  1  0
 31  2  1  0
 26 13  1  0
 26 17  1  0
M  CHG  3  15  -1  16  -1  32  -1
M  END
>  <UniqueID>  (2) 
2

>  <SMILES>  (2) 
O=C(Cc1ccc([O-])cc1)/N=N/c1c([O-])[n-]c2ccccc12

>  <Energy>  (2) 
65.77043174543608

>  <Genealogy>  (2) 
O=C(Cc1ccc([O-])cc1)N=Nc1c([O-])[n-]c2ccccc12 (protonated)
O=C(Cc1ccc([O-])cc1)/N=N/c1c([O-])[n-]c2ccccc12 (cis-trans isomerization)
O=C(Cc1ccc([O-])cc1)/N=N/c1c([O-])[n-]c2ccccc12 (3D coordinates assigned)
O=C(Cc1ccc([O-])cc1)/N=N/c1c([O-])[n-]c2ccccc12 (optimized conformer: 65.77043174543608 kcal/mol)

>  <smiles>  (2) 
O=C(Cc1ccc(O)cc1)N=Nc1c(O)[nH]c2ccccc12

>  <score_type>  (2) 
oracle

>  <origin>  (2) 
adg

>  <m_score__min__energy>  (2) 
-14.25

>  <m_primary>  (2) 
energy

$$$$
2:0
     RDKit          3D

 59 61  0  0  0  0  0  0  0  0999 V2000
   60.3920   29.4900   47.0770 C   0  0  0  0  0  0  0  0  0  0  0  0
   60.6910   29.2910   45.5910 C   0  0  0  0  0  0  0  0  0  0  0  0
   59.4160   29.1360   44.7490 C   0  0  0  0  0  0  0  0  0  0  0  0
   58.5490   27.9970   45.2340 C   0  0  0  0  0  0  0  0  0  0  0  0
   59.1380   26.7480   45.4900 C   0  0  0  0  0  0  0  0  0  0  0  0
   58.3660   25.6820   45.9580 C   0  0  0  0  0  0  0  0  0  0  0  0
   57.0000   25.8550   46.1800 C   0  0  0  0  0  0  0  0  0  0  0  0
   56.4010   27.0940   45.9410 C   0  0  0  0  0  0  0  0  0  0  0  0
   57.1680   28.1800   45.4700 C   0  0  0  0  0  0  0  0  0  0  0  0
   56.5970   29.4410   45.2380 O   0  0  0  0  0  0  0  0  0  0  0  0
   55.9460   29.8270   44.0300 C   0  0  0  0  0  0  0  0  0  0  0  0
   56.9380   30.5340   43.1000 C   0  0  0  0  0  0  0  0  0  0  0  0
   57.6160   31.7750   43.7260 C   0  0  0  0  0  0  0  0  0  0  0  0
   57.1610   32.1230   45.1010 N   0  0  0  0  0  0  0  0  0  0  0  0
   58.1630   31.6540   46.1070 C   0  0  0  0  0  0  0  0  0  0  0  0
   58.5820   32.7380   47.1180 C   0  0  0  0  0  0  0  0  0  0  0  0
   59.0250   33.9730   46.4410 N   0  0  0  0  0  0  0  0  0  0  0  0
   60.4130   33.8580   45.9390 C   0  0  0  0  0  0  0  0  0  0  0  0
   61.3840   33.7820   47.0880 C   0  0  0  0  0  0  0  0  0  0  0  0
   61.0090   34.2100   48.3740 C   0  0  0  0  0  0  0  0  0  0  0  0
   61.9130   34.1220   49.4370 C   0  0  0  0  0  0  0  0  0  0  0  0
   63.1950   33.6060   49.2260 C   0  0  0  0  0  0  0  0  0  0  0  0
   63.5740   33.1750   47.9520 C   0  0  0  0  0  0  0  0  0  0  0  0
   62.6720   33.2610   46.8860 C   0  0  0  0  0  0  0  0  0  0  0  0
   58.0840   34.4400   45.3880 C   0  0  0  0  0  0  0  0  0  0  0  0
   56.8280   33.5620   45.2540 C   0  0  0  0  0  0  0  0  0  0  0  0
   61.1595   28.9792   47.6771 H   0  0  0  0  0  0  0  0  0  0  0  0
   60.3983   30.5647   47.3116 H   0  0  0  0  0  0  0  0  0  0  0  0
   59.4031   29.0693   47.3116 H   0  0  0  0  0  0  0  0  0  0  0  0
   61.2518   30.1634   45.2243 H   0  0  0  0  0  0  0  0  0  0  0  0
   61.2731   28.3633   45.4890 H   0  0  0  0  0  0  0  0  0  0  0  0
   58.8382   30.0703   44.8051 H   0  0  0  0  0  0  0  0  0  0  0  0
   59.7181   28.9149   43.7147 H   0  0  0  0  0  0  0  0  0  0  0  0
   60.2158   26.6081   45.3206 H   0  0  0  0  0  0  0  0  0  0  0  0
   58.8354   24.7062   46.1514 H   0  0  0  0  0  0  0  0  0  0  0  0
   56.3926   25.0133   46.5443 H   0  0  0  0  0  0  0  0  0  0  0  0
   55.3237   27.2237   46.1214 H   0  0  0  0  0  0  0  0  0  0  0  0
   55.5508   28.9318   43.5275 H   0  0  0  0  0  0  0  0  0  0  0  0
   55.1226   30.5161   44.2690 H   0  0  0  0  0  0  0  0  0  0  0  0
   57.7228   29.8153   42.8215 H   0  0  0  0  0  0  0  0  0  0  0  0
   56.3616   30.8907   42.2337 H   0  0  0  0  0  0  0  0  0  0  0  0
   58.6993   31.5877   43.7637 H   0  0  0  0  0  0  0  0  0  0  0  0
   57.3381   32.6274   43.0887 H   0  0  0  0  0  0  0  0  0  0  0  0
   56.2820   31.5880   45.2890 H   0  0  0  0  0  0  0  0  0  0  0  0
   57.7277   30.8106   46.6631 H   0  0  0  0  0  0  0  0  0  0  0  0
   59.0674   31.3684   45.5498 H   0  0  0  0  0  0  0  0  0  0  0  0
   57.7237   32.9738   47.7643 H   0  0  0  0  0  0  0  0  0  0  0  0
   59.4246   32.3492   47.7087 H   0  0  0  0  0  0  0  0  0  0  0  0
   60.5029   32.9477   45.3281 H   0  0  0  0  0  0  0  0  0  0  0  0
   60.6472   34.7456   45.3329 H   0  0  0  0  0  0  0  0  0  0  0  0
   60.0007   34.6155   48.5443 H   0  0  0  0  0  0  0  0  0  0  0  0
   61.6150   34.4593   50.4407 H   0  0  0  0  0  0  0  0  0  0  0  0
   63.9055   33.5393   50.0631 H   0  0  0  0  0  0  0  0  0  0  0  0
   64.5824   32.7677   47.7871 H   0  0  0  0  0  0  0  0  0  0  0  0
   62.9733   32.9188   45.8849 H   0  0  0  0  0  0  0  0  0  0  0  0
   57.7679   35.4647   45.6331 H   0  0  0  0  0  0  0  0  0  0  0  0
   58.6197   34.3868   44.4287 H   0  0  0  0  0  0  0  0  0  0  0  0
   56.2101   33.6884   46.1552 H   0  0  0  0  0  0  0  0  0  0  0  0
   56.2889   33.8810   44.3498 H   0  0  0  0  0  0  0  0  0  0  0  0
  1  2  1  0
  2  3  1  0
  3  4  1  0
  4  5  2  0
  5  6  1  0
  6  7  2  0
  7  8  1  0
  8  9  2  0
  9 10  1  0
 10 11  1  0
 11 12  1  0
 12 13  1  0
 13 14  1  0
 14 15  1  0
 15 16  1  0
 16 17  1  0
 17 18  1  0
 18 19  1  0
 19 20  2  0
 20 21  1  0
 21 22  2  0
 22 23  1  0
 23 24  2  0
 17 25  1  0
 25 26  1  0
  9  4  1  0
 26 14  1  0
 24 19  1  0
  1 27  1  0
  1 28  1  0
  1 29  1  0
  2 30  1  0
  2 31  1  0
  3 32  1  0
  3 33  1  0
  5 34  1  0
  6 35  1  0
  7 36  1  0
  8 37  1  0
 11 38  1  0
 11 39  1  0
 12 40  1  0
 12 41  1  0
 13 42  1  0
 13 43  1  0
 14 44  1  0
 15 45  1  0
 15 46  1  0
 16 47  1  0
 16 48  1  0
 18 49  1  0
 18 50  1  0
 20 51  1  0
 21 52  1  0
 22 53  1  0
 23 54  1  0
 24 55  1  0
 25 56  1  0
 25 57  1  0
 26 58  1  0
 26 59  1  0
M  CHG  1  14   1
M  END
>  <UniqueID>  (3) 
3

>  <SMILES>  (3) 
CCCc1ccccc1OCCC[NH+]1CCN(Cc2ccccc2)CC1

>  <Energy>  (3) 
68.94280578259337

>  <Genealogy>  (3) 
CCCc1ccccc1OCCC[NH+]1CCN(Cc2ccccc2)CC1 (protonated)
CCCc1ccccc1OCCC[NH+]1CCN(Cc2ccccc2)CC1 (3D coordinates assigned)
CCCc1ccccc1OCCC[NH+]1CCN(Cc2ccccc2)CC1 (nonaromatic ring conformer: 68.94280578259337 kcal/mol)

>  <smiles>  (3) 
CCCc1ccccc1OCCCN1CCN(Cc2ccccc2)CC1

>  <score_type>  (3) 
oracle

>  <origin>  (3) 
adg

>  <m_score__min__energy>  (3) 
-6.3799999999999999

>  <m_primary>  (3) 
energy

$$$$
3:0
     RDKit          3D

 34 36  0  0  1  0  0  0  0  0999 V2000
   62.3530   33.7700   49.0160 C   0  0  0  0  0  0  0  0  0  0  0  0
   61.2490   33.9050   48.0330 C   0  0  0  0  0  0  0  0  0  0  0  0
   59.9630   34.1130   48.4820 C   0  0  0  0  0  0  0  0  0  0  0  0
   58.9040   34.2460   47.6210 C   0  0  0  0  0  0  0  0  0  0  0  0
   59.0590   34.1790   46.2300 C   0  0  0  0  0  0  0  0  0  0  0  0
   57.8570   34.2240   45.4520 C   0  0  0  0  0  0  0  0  0  0  0  0
   57.4520   33.3960   44.5470 C   0  0  0  0  0  0  0  0  0  0  0  0
   57.3880   31.9550   44.6520 C   0  0  0  0  0  0  0  0  0  0  0  0
   56.2990   31.1920   44.5410 N   0  0  0  0  0  0  0  0  0  0  0  0
   56.2300   29.8690   44.6100 C   0  0  0  0  0  0  0  0  0  0  0  0
   55.1470   29.2300   44.4920 O   0  0  0  0  0  0  0  0  0  0  0  0
   57.4180   29.1870   44.8180 C   0  0  0  0  0  0  0  0  0  0  0  0
   57.4660   27.8200   44.9040 C   0  0  0  0  0  0  0  0  0  0  0  0
   58.6800   27.1890   45.1130 C   0  0  0  0  0  0  0  0  0  0  0  0
   59.8200   27.9810   45.2280 C   0  0  0  0  0  0  0  0  0  0  0  0
   59.7640   29.3540   45.1410 C   0  0  0  0  0  0  0  0  0  0  0  0
   58.5480   29.9680   44.9340 C   0  0  0  0  0  0  0  0  0  0  0  0
   58.5470   31.3070   44.8550 N   0  0  0  0  0  0  0  0  0  0  0  0
   60.3410   33.9670   45.7930 C   0  0  0  0  0  0  0  0  0  0  0  0
   61.4240   33.8330   46.6720 C   0  0  0  0  0  0  0  0  0  0  0  0
   61.9440   33.8200   50.0359 H   0  0  0  0  0  0  0  0  0  0  0  0
   62.8576   32.8035   48.8703 H   0  0  0  0  0  0  0  0  0  0  0  0
   63.0756   34.5865   48.8703 H   0  0  0  0  0  0  0  0  0  0  0  0
   59.7801   34.1743   49.5650 H   0  0  0  0  0  0  0  0  0  0  0  0
   57.8989   34.4109   48.0364 H   0  0  0  0  0  0  0  0  0  0  0  0
   57.1908   35.0763   45.6516 H   0  0  0  0  0  0  0  0  0  0  0  0
   57.1201   33.8340   43.5941 H   0  0  0  0  0  0  0  0  0  0  0  0
   56.5444   27.2273   44.8074 H   0  0  0  0  0  0  0  0  0  0  0  0
   58.7428   26.0932   45.1862 H   0  0  0  0  0  0  0  0  0  0  0  0
   60.7932   27.4955   45.3931 H   0  0  0  0  0  0  0  0  0  0  0  0
   60.6807   29.9546   45.2358 H   0  0  0  0  0  0  0  0  0  0  0  0
   59.4660   31.8350   44.9550 H   0  0  0  0  0  0  0  0  0  0  0  0
   60.5266   33.8995   44.7109 H   0  0  0  0  0  0  0  0  0  0  0  0
   62.4325   33.6672   46.2652 H   0  0  0  0  0  0  0  0  0  0  0  0
  1  2  1  0
  2  3  2  0
  3  4  1  0
  4  5  2  0
  5  6  1  0
  6  7  2  0
  7  8  1  0
  8  9  2  0
  9 10  1  0
 10 11  2  0
 10 12  1  0
 12 13  2  0
 13 14  1  0
 14 15  2  0
 15 16  1  0
 16 17  2  0
 17 18  1  0
  5 19  1  0
 19 20  2  0
 20  2  1  0
 18  8  1  0
 17 12  1  0
  1 21  1  0
  1 22  1  0
  1 23  1  0
  3 24  1  0
  4 25  1  0
  6 26  1  0
  7 27  1  0
 13 28  1  0
 14 29  1  0
 15 30  1  0
 16 31  1  0
 18 32  1  0
 19 33  1  0
 20 34  1  0
M  END
>  <smiles>  (4) 
Cc1ccc(C=Cc2nc(=O)c3ccccc3[nH]2)cc1

>  <score_type>  (4) 
oracle

>  <origin>  (4) 
adg

>  <m_score__min__energy>  (4) 
-8.3000000000000007

>  <m_primary>  (4) 
energy

$$$$
4:0
     RDKit          3D

 37 39  0  0  0  0  0  0  0  0999 V2000
   57.4250   30.6800   45.9440 O   0  0  0  0  0  0  0  0  0  0  0  0
   58.4290   31.2510   46.4570 C   0  0  0  0  0  0  0  0  0  0  0  0
   58.7150   32.5780   46.1180 C   0  0  0  0  0  0  0  0  0  0  0  0
   57.8930   33.2880   45.2180 C   0  0  0  0  0  0  0  0  0  0  0  0
   58.1750   34.6140   44.8980 C   0  0  0  0  0  0  0  0  0  0  0  0
   59.2710   35.2490   45.4710 C   0  0  0  0  0  0  0  0  0  0  0  0
   60.0970   34.5610   46.3610 C   0  0  0  0  0  0  0  0  0  0  0  0
   59.8450   33.2050   46.6960 C   0  0  0  0  0  0  0  0  0  0  0  0
   60.6530   32.4910   47.5600 N   0  0  0  0  0  0  0  0  0  0  0  0
   61.8720   33.0820   48.1670 C   0  0  0  0  0  0  0  0  0  0  0  0
   63.1110   32.8250   47.3020 C   0  0  0  0  0  0  0  0  0  0  0  0
   63.0350   33.5920   46.1540 F   0  0  0  0  0  0  0  0  0  0  0  0
   63.1720   31.4910   46.9420 F   0  0  0  0  0  0  0  0  0  0  0  0
   64.2660   33.1590   47.9850 F   0  0  0  0  0  0  0  0  0  0  0  0
   60.3240   31.1930   47.8880 C   0  0  0  0  0  0  0  0  0  0  0  0
   61.0450   30.5540   48.7080 O   0  0  0  0  0  0  0  0  0  0  0  0
   59.2250   30.5780   47.3420 N   0  0  0  0  0  0  0  0  0  0  0  0
   58.9280   29.1690   47.6820 C   0  0  0  0  0  0  0  0  0  0  0  0
   58.6740   28.3660   46.4320 C   0  0  0  0  0  0  0  0  0  0  0  0
   57.6170   27.4400   46.3860 C   0  0  0  0  0  0  0  0  0  0  0  0
   57.3630   26.7180   45.2160 C   0  0  0  0  0  0  0  0  0  0  0  0
   58.1580   26.9140   44.0840 C   0  0  0  0  0  0  0  0  0  0  0  0
   59.2090   27.8340   44.1200 C   0  0  0  0  0  0  0  0  0  0  0  0
   59.4670   28.5590   45.2880 C   0  0  0  0  0  0  0  0  0  0  0  0
   57.0225   32.7906   44.7654 H   0  0  0  0  0  0  0  0  0  0  0  0
   57.5307   35.1586   44.1921 H   0  0  0  0  0  0  0  0  0  0  0  0
   59.4881   36.2982   45.2218 H   0  0  0  0  0  0  0  0  0  0  0  0
   60.9576   35.0782   46.8103 H   0  0  0  0  0  0  0  0  0  0  0  0
   61.7286   34.1675   48.2725 H   0  0  0  0  0  0  0  0  0  0  0  0
   62.0322   32.6112   49.1481 H   0  0  0  0  0  0  0  0  0  0  0  0
   59.7849   28.7384   48.2209 H   0  0  0  0  0  0  0  0  0  0  0  0
   58.0279   29.1378   48.3136 H   0  0  0  0  0  0  0  0  0  0  0  0
   56.9873   27.2829   47.2742 H   0  0  0  0  0  0  0  0  0  0  0  0
   56.5354   25.9940   45.1867 H   0  0  0  0  0  0  0  0  0  0  0  0
   57.9566   26.3443   43.1648 H   0  0  0  0  0  0  0  0  0  0  0  0
   59.8345   27.9884   43.2284 H   0  0  0  0  0  0  0  0  0  0  0  0
   60.2944   29.2835   45.3112 H   0  0  0  0  0  0  0  0  0  0  0  0
  1  2  2  0
  2  3  1  0
  3  4  2  0
  4  5  1  0
  5  6  2  0
  6  7  1  0
  7  8  2  0
  8  9  1  0
  9 10  1  0
 10 11  1  0
 11 12  1  0
 11 13  1  0
 11 14  1  0
  9 15  1  0
 15 16  2  0
 15 17  1  0
 17 18  1  0
 18 19  1  0
 19 20  2  0
 20 21  1  0
 21 22  2  0
 22 23  1  0
 23 24  2  0
 17  2  1  0
 24 19  1  0
  8  3  1  0
  4 25  1  0
  5 26  1  0
  6 27  1  0
  7 28  1  0
 10 29  1  0
 10 30  1  0
 18 31  1  0
 18 32  1  0
 20 33  1  0
 21 34  1  0
 22 35  1  0
 23 36  1  0
 24 37  1  0
M  END
>  <UniqueID>  (5) 
4

>  <SMILES>  (5) 
O=c1c2ccccc2n(CC(F)(F)F)c(=O)n1Cc1ccccc1

>  <Energy>  (5) 
53.807611251601784

>  <Genealogy>  (5) 
O=c1c2ccccc2n(CC(F)(F)F)c(=O)n1Cc1ccccc1 (3D coordinates assigned)
O=c1c2ccccc2n(CC(F)(F)F)c(=O)n1Cc1ccccc1 (optimized conformer: 53.807611251601784 kcal/mol)

>  <smiles>  (5) 
O=c1c2ccccc2n(CC(F)(F)F)c(=O)n1Cc1ccccc1

>  <score_type>  (5) 
oracle

>  <origin>  (5) 
adg

>  <m_score__min__energy>  (5) 
-6.5499999999999998

>  <m_primary>  (5) 
energy

$$$$
5:0
     RDKit          3D

 32 34  0  0  0  0  0  0  0  0999 V2000
   55.4420   29.3220   44.8800 O   0  0  0  0  0  0  0  0  0  0  0  0
   56.1810   30.0240   44.1390 C   0  0  0  0  0  0  0  0  0  0  0  0
   55.9740   30.1740   42.7540 N   0  0  0  0  0  0  0  0  0  0  0  0
   57.0100   31.0600   42.2390 C   0  0  0  0  0  0  0  0  0  0  0  0
   57.8810   31.4530   43.4610 C   0  0  0  0  0  0  0  0  0  0  0  0
   57.2970   30.7530   44.5990 N   0  0  0  0  0  0  0  0  0  0  0  0
   57.7810   30.8200   45.9760 C   0  0  0  0  0  0  0  0  0  0  0  0
   58.4530   32.1440   46.2230 C   0  0  0  0  0  0  0  0  0  0  0  0
   57.8450   33.3280   45.7860 C   0  0  0  0  0  0  0  0  0  0  0  0
   58.4800   34.5550   45.9770 C   0  0  0  0  0  0  0  0  0  0  0  0
   59.7300   34.6110   46.6000 C   0  0  0  0  0  0  0  0  0  0  0  0
   60.3620   33.4340   47.0420 C   0  0  0  0  0  0  0  0  0  0  0  0
   61.6950   33.5010   47.6960 C   0  0  0  0  0  0  0  0  0  0  0  0
   61.9660   33.8740   49.0140 C   0  0  0  0  0  0  0  0  0  0  0  0
   63.3280   33.8410   49.3390 C   0  0  0  0  0  0  0  0  0  0  0  0
   64.1450   33.4460   48.2900 C   0  0  0  0  0  0  0  0  0  0  0  0
   63.1690   33.1410   46.9590 S   0  0  0  0  0  0  0  0  0  0  0  0
   59.7130   32.2000   46.8420 C   0  0  0  0  0  0  0  0  0  0  0  0
   55.2130   29.7280   42.1950 H   0  0  0  0  0  0  0  0  0  0  0  0
   57.6198   30.5385   41.4866 H   0  0  0  0  0  0  0  0  0  0  0  0
   56.5773   31.9455   41.7505 H   0  0  0  0  0  0  0  0  0  0  0  0
   58.9230   31.1353   43.3081 H   0  0  0  0  0  0  0  0  0  0  0  0
   57.8967   32.5418   43.6168 H   0  0  0  0  0  0  0  0  0  0  0  0
   56.9318   30.7084   46.6662 H   0  0  0  0  0  0  0  0  0  0  0  0
   58.5070   30.0106   46.1428 H   0  0  0  0  0  0  0  0  0  0  0  0
   56.8636   33.2898   45.2906 H   0  0  0  0  0  0  0  0  0  0  0  0
   57.9954   35.4818   45.6362 H   0  0  0  0  0  0  0  0  0  0  0  0
   60.2237   35.5831   46.7460 H   0  0  0  0  0  0  0  0  0  0  0  0
   61.1835   34.1663   49.7297 H   0  0  0  0  0  0  0  0  0  0  0  0
   63.7143   34.1042   50.3348 H   0  0  0  0  0  0  0  0  0  0  0  0
   65.2402   33.3496   48.3244 H   0  0  0  0  0  0  0  0  0  0  0  0
   60.1979   31.2701   47.1740 H   0  0  0  0  0  0  0  0  0  0  0  0
  1  2  2  0
  2  3  1  0
  3  4  1  0
  4  5  1  0
  5  6  1  0
  6  7  1  0
  7  8  1  0
  8  9  2  0
  9 10  1  0
 10 11  2  0
 11 12  1  0
 12 13  1  0
 13 14  2  0
 14 15  1  0
 15 16  2  0
 16 17  1  0
 12 18  2  0
  6  2  1  0
 18  8  1  0
 17 13  1  0
  3 19  1  0
  4 20  1  0
  4 21  1  0
  5 22  1  0
  5 23  1  0
  7 24  1  0
  7 25  1  0
  9 26  1  0
 10 27  1  0
 11 28  1  0
 14 29  1  0
 15 30  1  0
 16 31  1  0
 18 32  1  0
M  END
>  <UniqueID>  (6) 
5

>  <SMILES>  (6) 
O=C1NCCN1Cc1cccc(-c2cccs2)c1

>  <Energy>  (6) 
71.85352301827594

>  <Genealogy>  (6) 
O=C1NCCN1Cc1cccc(-c2cccs2)c1 (3D coordinates assigned)
O=C1NCCN1Cc1cccc(-c2cccs2)c1 (nonaromatic ring conformer: 71.85352301827594 kcal/mol)

>  <smiles>  (6) 
O=C1NCCN1Cc1cccc(-c2cccs2)c1

>  <score_type>  (6) 
oracle

>  <origin>  (6) 
adg

>  <m_score__min__energy>  (6) 
-7.6600000000000001

>  <m_primary>  (6) 
energy

$$$$
6:0
     RDKit          3D

 34 36  0  0  0  0  0  0  0  0999 V2000
   58.4339   34.2535   43.5456 H   0  0  0  0  0  0  0  0  0  0  0  0
   58.1470   33.3370   44.0820 C   0  0  0  0  0  0  0  0  0  0  0  0
   57.8500   32.2510   43.3390 C   0  0  0  0  0  0  0  0  0  0  0  0
   57.7920   32.3170   41.8950 C   0  0  0  0  0  0  0  0  0  0  0  0
   57.7380   32.3690   40.7410 N   0  0  0  0  0  0  0  0  0  0  0  0
   57.6250   30.9320   43.9840 C   0  0  0  0  0  0  0  0  0  0  0  0
   58.7140   30.2040   44.4990 C   0  0  0  0  0  0  0  0  0  0  0  0
   59.7314   30.6140   44.4170 H   0  0  0  0  0  0  0  0  0  0  0  0
   58.5140   28.9640   45.1140 C   0  0  0  0  0  0  0  0  0  0  0  0
   59.3759   28.3978   45.4969 H   0  0  0  0  0  0  0  0  0  0  0  0
   57.2210   28.4390   45.2450 C   0  0  0  0  0  0  0  0  0  0  0  0
   57.0130   27.0920   45.8710 C   0  0  0  0  0  0  0  0  0  0  0  0
   57.0282   27.1905   46.9665 H   0  0  0  0  0  0  0  0  0  0  0  0
   56.0415   26.6859   45.5528 H   0  0  0  0  0  0  0  0  0  0  0  0
   57.8167   26.4117   45.5528 H   0  0  0  0  0  0  0  0  0  0  0  0
   56.1320   29.1550   44.7290 C   0  0  0  0  0  0  0  0  0  0  0  0
   55.1164   28.7403   44.8105 H   0  0  0  0  0  0  0  0  0  0  0  0
   56.3300   30.3940   44.1110 C   0  0  0  0  0  0  0  0  0  0  0  0
   55.4666   30.9529   43.7208 H   0  0  0  0  0  0  0  0  0  0  0  0
   58.1180   33.3950   45.5610 C   0  0  0  0  0  0  0  0  0  0  0  0
   57.0380   33.1760   46.4190 C   0  0  0  0  0  0  0  0  0  0  0  0
   56.0056   32.9841   46.0914 H   0  0  0  0  0  0  0  0  0  0  0  0
   57.4400   33.2330   47.7100 N   0  0  0  0  0  0  0  0  0  0  0  0
   56.8430   33.0920   48.5560 H   0  0  0  0  0  0  0  0  0  0  0  0
   58.7610   33.4690   47.6790 C   0  0  0  0  0  0  0  0  0  0  0  0
   59.6220   33.5920   48.7690 C   0  0  0  0  0  0  0  0  0  0  0  0
   59.2476   33.5101   49.8001 H   0  0  0  0  0  0  0  0  0  0  0  0
   60.9840   33.8240   48.5080 C   0  0  0  0  0  0  0  0  0  0  0  0
   61.6907   33.9276   49.3446 H   0  0  0  0  0  0  0  0  0  0  0  0
   61.4510   33.9250   47.1780 C   0  0  0  0  0  0  0  0  0  0  0  0
   62.5185   34.1080   46.9860 H   0  0  0  0  0  0  0  0  0  0  0  0
   60.5590   33.7930   46.0980 C   0  0  0  0  0  0  0  0  0  0  0  0
   60.9111   33.8671   45.0585 H   0  0  0  0  0  0  0  0  0  0  0  0
   59.2130   33.5650   46.3880 C   0  0  0  0  0  0  0  0  0  0  0  0
  1  2  1  0
  2  3  2  0
  3  4  1  0
  4  5  3  0
  3  6  1  0
  6  7  2  0
  7  8  1  0
  7  9  1  0
  9 10  1  0
  9 11  2  0
 11 12  1  0
 12 13  1  0
 12 14  1  0
 12 15  1  0
 11 16  1  0
 16 17  1  0
 16 18  2  0
 18 19  1  0
  2 20  1  0
 20 21  2  0
 21 22  1  0
 21 23  1  0
 23 24  1  0
 23 25  1  0
 25 26  2  0
 26 27  1  0
 26 28  1  0
 28 29  1  0
 28 30  2  0
 30 31  1  0
 30 32  1  0
 32 33  1  0
 32 34  2  0
 18  6  1  0
 34 20  1  0
 34 25  1  0
M  END
>  <UniqueID>  (7) 
6

>  <SMILES>  (7) 
Cc1ccc(/C(C#N)=C/c2c[nH]c3ccccc23)cc1

>  <Energy>  (7) 
77.36901405645986

>  <Genealogy>  (7) 
Cc1ccc(/C(C#N)=C/c2c[nH]c3ccccc23)cc1 (cis-trans isomerization)
Cc1ccc(/C(C#N)=C/c2c[nH]c3ccccc23)cc1 (3D coordinates assigned)
Cc1ccc(/C(C#N)=C/c2c[nH]c3ccccc23)cc1 (optimized conformer: 77.36901405645986 kcal/mol)

>  <smiles>  (7) 
Cc1ccc(C(C#N)=Cc2c[nH]c3ccccc23)cc1

>  <score_type>  (7) 
oracle

>  <origin>  (7) 
adg

>  <m_score__min__energy>  (7) 
-7.79

>  <m_primary>  (7) 
energy

$$$$
7:0
     RDKit          3D

 24 26  0  0  0  0  0  0  0  0999 V2000
   58.9770   23.0860   45.2390 C   0  0  0  0  0  0  0  0  0  0  0  0
   59.1650   24.2780   45.9940 O   0  0  0  0  0  0  0  0  0  0  0  0
   58.4130   25.4490   45.8240 C   0  0  0  0  0  0  0  0  0  0  0  0
   57.0010   25.4800   46.0140 C   0  0  0  0  0  0  0  0  0  0  0  0
   56.2790   26.6730   45.8270 C   0  0  0  0  0  0  0  0  0  0  0  0
   54.9000   26.7090   45.9870 O   0  0  0  0  0  0  0  0  0  0  0  0
   56.9980   27.8140   45.4860 C   0  0  0  0  0  0  0  0  0  0  0  0
   58.3540   27.7930   45.2790 C   0  0  0  0  0  0  0  0  0  0  0  0
   59.0920   26.6240   45.4370 C   0  0  0  0  0  0  0  0  0  0  0  0
   58.7810   28.9710   44.7610 N   0  0  0  0  0  0  0  0  0  0  0  0
   57.6320   29.6930   44.7540 C   0  0  0  0  0  0  0  0  0  0  0  0
   56.5580   29.0410   45.1880 N   0  0  0  0  0  0  0  0  0  0  0  0
   55.3550   29.5630   44.5640 C   0  0  0  0  0  0  0  0  0  0  0  0
   55.9160   30.7060   43.7430 C   0  0  0  0  0  0  0  0  0  0  0  0
   57.2470   30.7570   43.8580 C   0  0  0  0  0  0  0  0  0  0  0  0
   58.3170   31.8260   42.9730 Cl  0  0  0  0  0  0  0  0  0  0  0  0
   58.8429   22.2356   45.9237 H   0  0  0  0  0  0  0  0  0  0  0  0
   58.0842   23.1906   44.6049 H   0  0  0  0  0  0  0  0  0  0  0  0
   59.8586   22.9107   44.6049 H   0  0  0  0  0  0  0  0  0  0  0  0
   56.4707   24.5627   46.3096 H   0  0  0  0  0  0  0  0  0  0  0  0
   60.1783   26.6160   45.2644 H   0  0  0  0  0  0  0  0  0  0  0  0
   54.8727   28.8080   43.9258 H   0  0  0  0  0  0  0  0  0  0  0  0
   54.5726   29.8629   45.2767 H   0  0  0  0  0  0  0  0  0  0  0  0
   55.3124   31.3975   43.1368 H   0  0  0  0  0  0  0  0  0  0  0  0
  1  2  1  0
  2  3  1  0
  3  4  2  0
  4  5  1  0
  5  6  1  0
  5  7  2  0
  7  8  1  0
  8  9  2  0
  8 10  1  0
 10 11  2  0
 11 12  1  0
 12 13  1  0
 13 14  1  0
 14 15  2  0
 15 16  1  0
  9  3  1  0
 15 11  1  0
 12  7  1  0
  1 17  1  0
  1 18  1  0
  1 19  1  0
  4 20  1  0
  9 21  1  0
 13 22  1  0
 13 23  1  0
 14 24  1  0
M  CHG  1   6  -1
M  END
>  <UniqueID>  (8) 
7

>  <SMILES>  (8) 
COc1cc([O-])c2c(c1)nc1n2CC=C1Cl

>  <Energy>  (8) 
99.88236361303125

>  <Genealogy>  (8) 
COc1cc([O-])c2c(c1)nc1n2CC=C1Cl (protonated)
COc1cc([O-])c2c(c1)nc1n2CC=C1Cl (3D coordinates assigned)
COc1cc([O-])c2c(c1)nc1n2CC=C1Cl (nonaromatic ring conformer: 99.88236361303125 kcal/mol)

>  <smiles>  (8) 
COc1cc(O)c2c(c1)nc1n2CC=C1Cl

>  <score_type>  (8) 
oracle

>  <origin>  (8) 
adg

>  <m_score__min__energy>  (8) 
-8.9900000000000002

>  <m_primary>  (8) 
energy

$$$$
8:0
     RDKit          3D

 40 43  0  0  0  0  0  0  0  0999 V2000
   60.6790   26.6720   47.5430 C   0  0  0  0  0  0  0  0  0  0  0  0
   59.9220   27.3780   46.4970 N   0  0  0  0  0  0  0  0  0  0  0  0
   58.5750   27.7720   46.9750 C   0  0  0  0  0  0  0  0  0  0  0  0
   58.5340   29.2140   47.5180 C   0  0  0  0  0  0  0  0  0  0  0  0
   59.0530   30.2110   46.5490 N   0  0  0  0  0  0  0  0  0  0  0  0
   58.0580   31.2430   46.1600 C   0  0  0  0  0  0  0  0  0  0  0  0
   58.6470   32.6260   46.2570 C   0  0  0  0  0  0  0  0  0  0  0  0
   59.1670   33.2570   47.3900 C   0  0  0  0  0  0  0  0  0  0  0  0
   59.6840   34.5570   47.2580 C   0  0  0  0  0  0  0  0  0  0  0  0
   59.6720   35.2050   46.0070 C   0  0  0  0  0  0  0  0  0  0  0  0
   59.1440   34.5590   44.8770 C   0  0  0  0  0  0  0  0  0  0  0  0
   58.6380   33.2680   45.0320 C   0  0  0  0  0  0  0  0  0  0  0  0
   58.0290   32.3860   44.0590 C   0  0  0  0  0  0  0  0  0  0  0  0
   57.7560   32.6030   42.7080 C   0  0  0  0  0  0  0  0  0  0  0  0
   57.0930   31.5940   41.9950 C   0  0  0  0  0  0  0  0  0  0  0  0
   56.7010   30.4050   42.6400 C   0  0  0  0  0  0  0  0  0  0  0  0
   56.9800   30.2110   44.0040 C   0  0  0  0  0  0  0  0  0  0  0  0
   57.6700   31.2100   44.6970 C   0  0  0  0  0  0  0  0  0  0  0  0
   59.8220   29.6280   45.4260 C   0  0  0  0  0  0  0  0  0  0  0  0
   60.7170   28.4980   45.9390 C   0  0  0  0  0  0  0  0  0  0  0  0
   60.3285   26.9989   48.5331 H   0  0  0  0  0  0  0  0  0  0  0  0
   60.5246   25.5879   47.4389 H   0  0  0  0  0  0  0  0  0  0  0  0
   61.7497   26.9015   47.4389 H   0  0  0  0  0  0  0  0  0  0  0  0
   57.8669   27.6913   46.1371 H   0  0  0  0  0  0  0  0  0  0  0  0
   58.3059   27.0982   47.8018 H   0  0  0  0  0  0  0  0  0  0  0  0
   57.4914   29.4687   47.7592 H   0  0  0  0  0  0  0  0  0  0  0  0
   59.1805   29.2504   48.4072 H   0  0  0  0  0  0  0  0  0  0  0  0
   57.2132   31.0314   46.8320 H   0  0  0  0  0  0  0  0  0  0  0  0
   59.1716   32.7470   48.3646 H   0  0  0  0  0  0  0  0  0  0  0  0
   60.1005   35.0717   48.1364 H   0  0  0  0  0  0  0  0  0  0  0  0
   60.0786   36.2229   45.9147 H   0  0  0  0  0  0  0  0  0  0  0  0
   59.1298   35.0574   43.8965 H   0  0  0  0  0  0  0  0  0  0  0  0
   58.0530   33.5406   42.2154 H   0  0  0  0  0  0  0  0  0  0  0  0
   56.8777   31.7320   40.9251 H   0  0  0  0  0  0  0  0  0  0  0  0
   56.1735   29.6237   42.0732 H   0  0  0  0  0  0  0  0  0  0  0  0
   56.6616   29.2910   44.5161 H   0  0  0  0  0  0  0  0  0  0  0  0
   59.1246   29.2286   44.6749 H   0  0  0  0  0  0  0  0  0  0  0  0
   60.4494   30.4094   44.9724 H   0  0  0  0  0  0  0  0  0  0  0  0
   61.3277   28.1208   45.1055 H   0  0  0  0  0  0  0  0  0  0  0  0
   61.3513   28.9012   46.7421 H   0  0  0  0  0  0  0  0  0  0  0  0
  1  2  1  0
  2  3  1  0
  3  4  1  0
  4  5  1  0
  5  6  1  0
  6  7  1  0
  7  8  2  0
  8  9  1  0
  9 10  2  0
 10 11  1  0
 11 12  2  0
 12 13  1  0
 13 14  2  0
 14 15  1  0
 15 16  2  0
 16 17  1  0
 17 18  2  0
  5 19  1  0
 19 20  1  0
 20  2  1  0
 18  6  1  0
 12  7  1  0
 18 13  1  0
  1 21  1  0
  1 22  1  0
  1 23  1  0
  3 24  1  0
  3 25  1  0
  4 26  1  0
  4 27  1  0
  6 28  1  0
  8 29  1  0
  9 30  1  0
 10 31  1  0
 11 32  1  0
 14 33  1  0
 15 34  1  0
 16 35  1  0
 17 36  1  0
 19 37  1  0
 19 38  1  0
 20 39  1  0
 20 40  1  0
M  END
>  <UniqueID>  (9) 
8

>  <SMILES>  (9) 
CN1CCN(C2c3ccccc3-c3ccccc32)CC1

>  <Energy>  (9) 
81.3289832403044

>  <Genealogy>  (9) 
CN1CCN(C2c3ccccc3-c3ccccc32)CC1 (3D coordinates assigned)
CN1CCN(C2c3ccccc3-c3ccccc32)CC1 (nonaromatic ring conformer: 81.3289832403044 kcal/mol)

>  <smiles>  (9) 
CN1CCN(C2c3ccccc3-c3ccccc32)CC1

>  <score_type>  (9) 
oracle

>  <origin>  (9) 
adg

>  <m_score__min__energy>  (9) 
-7.5999999999999996

>  <m_primary>  (9) 
energy

$$$$
9:0
     RDKit          3D

 37 39  0  0  0  0  0  0  0  0999 V2000
   57.5380   32.2230   41.6810 C   0  0  0  0  0  0  0  0  0  0  0  0
   57.7040   32.0690   43.1230 N   0  0  0  0  0  0  0  0  0  0  0  0
   58.3990   32.8860   43.9380 C   0  0  0  0  0  0  0  0  0  0  0  0
   58.1980   32.4660   45.2440 C   0  0  0  0  0  0  0  0  0  0  0  0
   58.7230   33.1130   46.4690 C   0  0  0  0  0  0  0  0  0  0  0  0
   59.3610   34.3660   46.4000 C   0  0  0  0  0  0  0  0  0  0  0  0
   59.8490   34.9770   47.5600 C   0  0  0  0  0  0  0  0  0  0  0  0
   59.7030   34.3490   48.7990 C   0  0  0  0  0  0  0  0  0  0  0  0
   59.0690   33.1080   48.8800 C   0  0  0  0  0  0  0  0  0  0  0  0
   58.5810   32.4900   47.7240 C   0  0  0  0  0  0  0  0  0  0  0  0
   57.3800   31.3930   45.2290 N   0  0  0  0  0  0  0  0  0  0  0  0
   57.0820   31.1880   43.9330 C   0  0  0  0  0  0  0  0  0  0  0  0
   55.9100   29.9410   43.3830 S   0  0  0  0  0  0  0  0  0  0  0  0
   57.1470   28.5960   43.2950 C   0  0  0  0  0  0  0  0  0  0  0  0
   57.9740   28.5340   44.5510 C   0  0  0  0  0  0  0  0  0  0  0  0
   59.3480   28.8280   44.5140 C   0  0  0  0  0  0  0  0  0  0  0  0
   60.1250   28.7080   45.6690 C   0  0  0  0  0  0  0  0  0  0  0  0
   59.5370   28.2980   46.8700 C   0  0  0  0  0  0  0  0  0  0  0  0
   58.1710   28.0080   46.9150 C   0  0  0  0  0  0  0  0  0  0  0  0
   57.3910   28.1230   45.7610 C   0  0  0  0  0  0  0  0  0  0  0  0
   56.7452   32.9585   41.4797 H   0  0  0  0  0  0  0  0  0  0  0  0
   58.4827   32.5717   41.2383 H   0  0  0  0  0  0  0  0  0  0  0  0
   57.2610   31.2548   41.2383 H   0  0  0  0  0  0  0  0  0  0  0  0
   59.0184   33.7384   43.6222 H   0  0  0  0  0  0  0  0  0  0  0  0
   59.4765   34.8678   45.4279 H   0  0  0  0  0  0  0  0  0  0  0  0
   60.3491   35.9547   47.4962 H   0  0  0  0  0  0  0  0  0  0  0  0
   60.0871   34.8317   49.7098 H   0  0  0  0  0  0  0  0  0  0  0  0
   58.9528   32.6145   49.8562 H   0  0  0  0  0  0  0  0  0  0  0  0
   58.0834   31.5116   47.7956 H   0  0  0  0  0  0  0  0  0  0  0  0
   57.0200   30.8460   46.0420 H   0  0  0  0  0  0  0  0  0  0  0  0
   56.6253   27.6369   43.1612 H   0  0  0  0  0  0  0  0  0  0  0  0
   57.8176   28.7945   42.4459 H   0  0  0  0  0  0  0  0  0  0  0  0
   59.8134   29.1538   43.5720 H   0  0  0  0  0  0  0  0  0  0  0  0
   61.2005   28.9363   45.6337 H   0  0  0  0  0  0  0  0  0  0  0  0
   60.1497   28.2039   47.7787 H   0  0  0  0  0  0  0  0  0  0  0  0
   57.7085   27.6885   47.8606 H   0  0  0  0  0  0  0  0  0  0  0  0
   56.3165   27.8908   45.8005 H   0  0  0  0  0  0  0  0  0  0  0  0
  1  2  1  0
  2  3  1  0
  3  4  2  0
  4  5  1  0
  5  6  2  0
  6  7  1  0
  7  8  2  0
  8  9  1  0
  9 10  2  0
  4 11  1  0
 11 12  2  0
 12 13  1  0
 13 14  1  0
 14 15  1  0
 15 16  2  0
 16 17  1  0
 17 18  2  0
 18 19  1  0
 19 20  2  0
 12  2  1  0
 20 15  1  0
 10  5  1  0
  1 21  1  0
  1 22  1  0
  1 23  1  0
  3 24  1  0
  6 25  1  0
  7 26  1  0
  8 27  1  0
  9 28  1  0
 10 29  1  0
 11 30  1  0
 14 31  1  0
 14 32  1  0
 16 33  1  0
 17 34  1  0
 18 35  1  0
 19 36  1  0
 20 37  1  0
M  CHG  1  11   1
M  END
>  <UniqueID>  (10) 
9

>  <SMILES>  (10) 
Cn1cc(-c2ccccc2)[nH+]c1SCc1ccccc1

>  <Energy>  (10) 
65.1187023417186

>  <Genealogy>  (10) 
Cn1cc(-c2ccccc2)[nH+]c1SCc1ccccc1 (protonated)
Cn1cc(-c2ccccc2)[nH+]c1SCc1ccccc1 (3D coordinates assigned)
Cn1cc(-c2ccccc2)[nH+]c1SCc1ccccc1 (optimized conformer: 65.1187023417186 kcal/mol)

>  <smiles>  (10) 
Cn1cc(-c2ccccc2)nc1SCc1ccccc1

>  <score_type>  (10) 
oracle

>  <origin>  (10) 
adg

>  <m_score__min__energy>  (10) 
-5.6900000000000004

>  <m_primary>  (10) 
energy

$$$$
10:0
     RDKit          3D

 46 49  0  0  1  0  0  0  0  0999 V2000
   50.6340   32.9490   53.4260 C   0  0  0  0  0  0  0  0  0  0  0  0
   50.6460   32.9330   52.0130 O   0  0  0  0  0  0  0  0  0  0  0  0
   51.4100   31.9420   51.3840 C   0  0  0  0  0  0  0  0  0  0  0  0
   52.5950   31.6070   52.0270 C   0  0  0  0  0  0  0  0  0  0  0  0
   53.3830   30.6200   51.4260 C   0  0  0  0  0  0  0  0  0  0  0  0
   54.6410   30.2150   52.0460 C   0  0  0  0  0  0  0  0  0  0  0  0
   54.7630   29.4950   53.2150 C   0  0  0  0  0  0  0  0  0  0  0  0
   56.0670   29.2920   53.5040 N   0  0  0  0  0  0  0  0  0  0  0  0
   56.7720   29.8840   52.5180 C   0  0  0  0  0  0  0  0  0  0  0  0
   58.1820   29.9660   52.3400 N   0  0  0  0  0  0  0  0  0  0  0  0
   58.7370   30.7050   51.4360 C   0  0  0  0  0  0  0  0  0  0  0  0
   59.9190   30.3260   50.8170 C   0  0  0  0  0  0  0  0  0  0  0  0
   60.4900   31.1520   49.8430 C   0  0  0  0  0  0  0  0  0  0  0  0
   59.8790   32.3400   49.5010 C   0  0  0  0  0  0  0  0  0  0  0  0
   60.4930   33.1450   48.5090 N   0  0  0  0  0  0  0  0  0  0  0  0
   59.8000   33.2960   47.2480 C   0  0  0  0  0  0  0  0  0  0  0  0
   60.6720   34.2390   46.4130 C   0  0  0  0  0  0  0  0  0  0  0  0
   61.9470   33.7170   46.2750 O   0  0  0  0  0  0  0  0  0  0  0  0
   62.6020   33.4610   47.4510 C   0  0  0  0  0  0  0  0  0  0  0  0
   61.7590   33.8230   48.6760 C   0  0  0  0  0  0  0  0  0  0  0  0
   58.7070   32.6680   50.1460 C   0  0  0  0  0  0  0  0  0  0  0  0
   58.1520   31.8690   51.0910 N   0  0  0  0  0  0  0  0  0  0  0  0
   55.9050   30.4470   51.6300 N   0  0  0  0  0  0  0  0  0  0  0  0
   52.9660   30.0330   50.2490 C   0  0  0  0  0  0  0  0  0  0  0  0
   51.7770   30.4140   49.6620 C   0  0  0  0  0  0  0  0  0  0  0  0
   51.0200   31.3590   50.2340 N   0  0  0  0  0  0  0  0  0  0  0  0
   51.2530   32.1235   53.8073 H   0  0  0  0  0  0  0  0  0  0  0  0
   51.0383   33.9068   53.7853 H   0  0  0  0  0  0  0  0  0  0  0  0
   49.6013   32.8291   53.7853 H   0  0  0  0  0  0  0  0  0  0  0  0
   52.8993   32.0950   52.9647 H   0  0  0  0  0  0  0  0  0  0  0  0
   53.9202   29.1373   53.8247 H   0  0  0  0  0  0  0  0  0  0  0  0
   56.4910   28.7840   54.3200 H   0  0  0  0  0  0  0  0  0  0  0  0
   60.4060   29.3786   51.0912 H   0  0  0  0  0  0  0  0  0  0  0  0
   61.4268   30.8537   49.3497 H   0  0  0  0  0  0  0  0  0  0  0  0
   59.6973   32.3223   46.7466 H   0  0  0  0  0  0  0  0  0  0  0  0
   58.7838   33.6940   47.3856 H   0  0  0  0  0  0  0  0  0  0  0  0
   60.2212   34.3641   45.4174 H   0  0  0  0  0  0  0  0  0  0  0  0
   60.7364   35.2120   46.9219 H   0  0  0  0  0  0  0  0  0  0  0  0
   62.8463   32.3893   47.4938 H   0  0  0  0  0  0  0  0  0  0  0  0
   63.5102   34.0812   47.4723 H   0  0  0  0  0  0  0  0  0  0  0  0
   62.2563   33.4811   49.5957 H   0  0  0  0  0  0  0  0  0  0  0  0
   61.6228   34.9112   48.7615 H   0  0  0  0  0  0  0  0  0  0  0  0
   58.2036   33.6108   49.8856 H   0  0  0  0  0  0  0  0  0  0  0  0
   57.2550   32.1290   51.5780 H   0  0  0  0  0  0  0  0  0  0  0  0
   53.5852   29.2567   49.7759 H   0  0  0  0  0  0  0  0  0  0  0  0
   51.4507   29.9414   48.7238 H   0  0  0  0  0  0  0  0  0  0  0  0
  1  2  1  0
  2  3  1  0
  3  4  2  0
  4  5  1  0
  5  6  1  0
  6  7  2  0
  7  8  1  0
  8  9  1  0
  9 10  1  0
 10 11  2  0
 11 12  1  0
 12 13  2  0
 13 14  1  0
 14 15  1  0
 15 16  1  0
 16 17  1  0
 17 18  1  0
 18 19  1  0
 19 20  1  0
 14 21  2  0
 21 22  1  0
  9 23  2  0
  5 24  2  0
 24 25  1  0
 25 26  2  0
 26  3  1  0
 23  6  1  0
 22 11  1  0
 20 15  1  0
  1 27  1  0
  1 28  1  0
  1 29  1  0
  4 30  1  0
  7 31  1  0
  8 32  1  0
 12 33  1  0
 13 34  1  0
 16 35  1  0
 16 36  1  0
 17 37  1  0
 17 38  1  0
 19 39  1  0
 19 40  1  0
 20 41  1  0
 20 42  1  0
 21 43  1  0
 22 44  1  0
 24 45  1  0
 25 46  1  0
M  END
>  <smiles>  (11) 
COc1cc(-c2c[nH]c(N=c3ccc(N4CCOCC4)c[nH]3)n2)ccn1

>  <score_type>  (11) 
oracle

>  <origin>  (11) 
adg

>  <m_score__min__energy>  (11) 
-7.4800000000000004

>  <m_primary>  (11) 
energy

$$$$
11:0
     RDKit          3D

 70 75  0  0  0  0  0  0  0  0999 V2000
   62.4170   33.4880   47.1910 C   0  0  0  0  0  0  0  0  0  0  0  0
   61.5460   33.6560   48.3530 N   0  0  0  0  0  0  0  0  0  0  0  0
   60.2160   33.9120   48.3850 C   0  0  0  0  0  0  0  0  0  0  0  0
   59.2970   33.8620   47.2250 C   0  0  0  0  0  0  0  0  0  0  0  0
   58.0990   33.1270   47.2620 C   0  0  0  0  0  0  0  0  0  0  0  0
   57.2430   33.1170   46.1560 C   0  0  0  0  0  0  0  0  0  0  0  0
   57.5810   33.8270   45.0010 C   0  0  0  0  0  0  0  0  0  0  0  0
   58.7800   34.5380   44.9450 C   0  0  0  0  0  0  0  0  0  0  0  0
   59.6370   34.5530   46.0500 C   0  0  0  0  0  0  0  0  0  0  0  0
   59.7760   34.0680   49.6520 N   0  0  0  0  0  0  0  0  0  0  0  0
   60.8350   33.9310   50.4340 N   0  0  0  0  0  0  0  0  0  0  0  0
   61.8950   33.6540   49.6580 C   0  0  0  0  0  0  0  0  0  0  0  0
   63.5080   33.1820   50.3050 S   0  0  0  0  0  0  0  0  0  0  0  0
   63.2940   31.3720   50.0510 C   0  0  0  0  0  0  0  0  0  0  0  0
   63.3050   30.5640   51.3560 C   0  0  0  0  0  0  0  0  0  0  0  0
   62.7860   29.1270   51.1740 C   0  0  0  0  0  0  0  0  0  0  0  0
   61.3440   28.9940   51.4770 N   0  0  0  0  0  0  0  0  0  0  0  0
   60.7420   30.3290   51.6450 C   0  0  0  0  0  0  0  0  0  0  0  0
   60.1480   30.7590   50.2840 C   0  0  2  0  0  0  0  0  0  0  0  0
   58.6930   31.0170   50.1680 N   0  0  0  0  0  0  0  0  0  0  0  0
   57.7330   31.1710   51.6250 S   0  0  0  0  0  0  0  0  0  0  0  0
   57.7030   29.8840   52.4050 O   0  0  0  0  0  0  0  0  0  0  0  0
   56.3260   31.5320   51.2410 O   0  0  0  0  0  0  0  0  0  0  0  0
   58.3860   32.4660   52.6120 C   0  0  0  0  0  0  0  0  0  0  0  0
   58.2330   33.8250   52.3830 C   0  0  0  0  0  0  0  0  0  0  0  0
   58.8480   34.6140   53.3610 C   0  0  0  0  0  0  0  0  0  0  0  0
   59.4810   33.8780   54.3560 C   0  0  0  0  0  0  0  0  0  0  0  0
   59.2720   32.2430   54.0220 S   0  0  0  0  0  0  0  0  0  0  0  0
   58.5360   29.7220   49.4980 C   0  0  0  0  0  0  0  0  0  0  0  0
   60.0530   29.4810   49.4700 C   0  0  1  0  0  0  0  0  0  0  0  0
   60.7220   29.4980   48.0620 C   0  0  0  0  0  0  0  0  0  0  0  0
   59.7830   29.3840   46.8790 C   0  0  0  0  0  0  0  0  0  0  0  0
   59.1120   28.1760   46.6130 C   0  0  0  0  0  0  0  0  0  0  0  0
   58.2600   28.0690   45.5100 C   0  0  0  0  0  0  0  0  0  0  0  0
   58.0810   29.1570   44.6540 C   0  0  0  0  0  0  0  0  0  0  0  0
   58.7630   30.3530   44.8920 C   0  0  0  0  0  0  0  0  0  0  0  0
   59.6170   30.4640   45.9940 C   0  0  0  0  0  0  0  0  0  0  0  0
   60.5810   28.3660   50.3840 C   0  0  0  0  0  0  0  0  0  0  0  0
   63.4449   33.2897   47.5288 H   0  0  0  0  0  0  0  0  0  0  0  0
   62.0606   32.6420   46.5849 H   0  0  0  0  0  0  0  0  0  0  0  0
   62.4008   34.4058   46.5849 H   0  0  0  0  0  0  0  0  0  0  0  0
   57.8338   32.5573   48.1648 H   0  0  0  0  0  0  0  0  0  0  0  0
   56.3018   32.5491   46.1955 H   0  0  0  0  0  0  0  0  0  0  0  0
   56.9017   33.8253   44.1358 H   0  0  0  0  0  0  0  0  0  0  0  0
   59.0514   35.0870   44.0313 H   0  0  0  0  0  0  0  0  0  0  0  0
   60.5842   35.1099   45.9988 H   0  0  0  0  0  0  0  0  0  0  0  0
   60.8120   33.9730   51.4760 H   0  0  0  0  0  0  0  0  0  0  0  0
   62.3319   31.2029   49.5452 H   0  0  0  0  0  0  0  0  0  0  0  0
   64.1483   31.0268   49.4501 H   0  0  0  0  0  0  0  0  0  0  0  0
   64.3375   30.5193   51.7326 H   0  0  0  0  0  0  0  0  0  0  0  0
   62.6329   31.0708   52.0641 H   0  0  0  0  0  0  0  0  0  0  0  0
   62.9552   28.8220   50.1308 H   0  0  0  0  0  0  0  0  0  0  0  0
   63.3328   28.4860   51.8812 H   0  0  0  0  0  0  0  0  0  0  0  0
   59.9462   30.2871   52.4033 H   0  0  0  0  0  0  0  0  0  0  0  0
   61.5017   31.0522   51.9764 H   0  0  0  0  0  0  0  0  0  0  0  0
   60.7613   31.6381   50.0369 H   0  0  0  0  0  0  0  0  0  0  0  0
   57.6859   34.2390   51.5232 H   0  0  0  0  0  0  0  0  0  0  0  0
   58.8321   35.7138   53.3442 H   0  0  0  0  0  0  0  0  0  0  0  0
   60.0261   34.2944   55.2159 H   0  0  0  0  0  0  0  0  0  0  0  0
   57.9841   28.9817   50.0958 H   0  0  0  0  0  0  0  0  0  0  0  0
   57.9682   29.6711   48.5573 H   0  0  0  0  0  0  0  0  0  0  0  0
   61.2743   30.4442   47.9633 H   0  0  0  0  0  0  0  0  0  0  0  0
   61.3565   28.6002   48.0244 H   0  0  0  0  0  0  0  0  0  0  0  0
   59.2588   27.3112   47.2767 H   0  0  0  0  0  0  0  0  0  0  0  0
   57.7293   27.1252   45.3161 H   0  0  0  0  0  0  0  0  0  0  0  0
   57.4029   29.0728   43.7920 H   0  0  0  0  0  0  0  0  0  0  0  0
   58.6282   31.2075   44.2125 H   0  0  0  0  0  0  0  0  0  0  0  0
   60.1627   31.4028   46.1696 H   0  0  0  0  0  0  0  0  0  0  0  0
   59.7384   27.7932   50.7985 H   0  0  0  0  0  0  0  0  0  0  0  0
   61.2248   27.6792   49.8150 H   0  0  0  0  0  0  0  0  0  0  0  0
  1  2  1  0
  2  3  1  0
  3  4  1  0
  4  5  2  0
  5  6  1  0
  6  7  2  0
  7  8  1  0
  8  9  2  0
  3 10  2  0
 10 11  1  0
 11 12  2  0
 12 13  1  0
 13 14  1  0
 14 15  1  0
 15 16  1  0
 16 17  1  0
 17 18  1  0
 18 19  1  0
 19 20  1  0
 20 21  1  0
 21 22  2  0
 21 23  2  0
 21 24  1  0
 24 25  2  0
 25 26  1  0
 26 27  2  0
 27 28  1  0
 20 29  1  0
 29 30  1  0
 30 31  1  6
 31 32  1  0
 32 33  2  0
 33 34  1  0
 34 35  2  0
 35 36  1  0
 36 37  2  0
 30 38  1  0
 12  2  1  0
 38 17  1  0
  9  4  1  0
 30 19  1  0
 37 32  1  0
 28 24  1  0
  1 39  1  0
  1 40  1  0
  1 41  1  0
  5 42  1  0
  6 43  1  0
  7 44  1  0
  8 45  1  0
  9 46  1  0
 11 47  1  0
 14 48  1  0
 14 49  1  0
 15 50  1  0
 15 51  1  0
 16 52  1  0
 16 53  1  0
 18 54  1  0
 18 55  1  0
 19 56  1  6
 25 57  1  0
 26 58  1  0
 27 59  1  0
 29 60  1  0
 29 61  1  0
 31 62  1  0
 31 63  1  0
 33 64  1  0
 34 65  1  0
 35 66  1  0
 36 67  1  0
 37 68  1  0
 38 69  1  0
 38 70  1  0
M  CHG  1  11   1
M  END
>  <UniqueID>  (12) 
10

>  <SMILES>  (12) 
Cn1c(-c2ccccc2)n[nH+]c1SCCCN1C[C@@H]2N(S(=O)(=O)c3cccs3)C[C@]2(Cc2ccccc2)C1

>  <Energy>  (12) 
226.40922433434866

>  <Genealogy>  (12) 
Cn1c(-c2ccccc2)n[nH+]c1SCCCN1CC2N(S(=O)(=O)c3cccs3)CC2(Cc2ccccc2)C1 (protonated)
Cn1c(-c2ccccc2)n[nH+]c1SCCCN1C[C@@H]2N(S(=O)(=O)c3cccs3)C[C@]2(Cc2ccccc2)C1 (chirality)
Cn1c(-c2ccccc2)n[nH+]c1SCCCN1C[C@@H]2N(S(=O)(=O)c3cccs3)C[C@]2(Cc2ccccc2)C1 (3D coordinates assigned)
Cn1c(-c2ccccc2)n[nH+]c1SCCCN1C[C@@H]2N(S(=O)(=O)c3cccs3)C[C@]2(Cc2ccccc2)C1 (nonaromatic ring conformer: 226.40922433434866 kcal/mol)

>  <smiles>  (12) 
Cn1c(SCCCN2CC3N(S(=O)(=O)c4cccs4)CC3(Cc3ccccc3)C2)nnc1-c1ccccc1

>  <score_type>  (12) 
oracle

>  <origin>  (12) 
adg

>  <m_score__min__energy>  (12) 
-9.9600000000000009

>  <m_primary>  (12) 
energy

$$$$
12:0
     RDKit          3D

 47 51  0  0  0  0  0  0  0  0999 V2000
   60.2200   24.5640   45.9900 O   0  0  0  0  0  0  0  0  0  0  0  0
   59.0960   25.0230   45.6430 C   0  0  0  0  0  0  0  0  0  0  0  0
   58.1990   24.2160   44.9240 C   0  0  0  0  0  0  0  0  0  0  0  0
   58.4990   22.8910   44.5610 C   0  0  0  0  0  0  0  0  0  0  0  0
   57.5680   22.1330   43.8440 C   0  0  0  0  0  0  0  0  0  0  0  0
   56.3360   22.6890   43.4840 C   0  0  0  0  0  0  0  0  0  0  0  0
   56.0300   24.0050   43.8410 C   0  0  0  0  0  0  0  0  0  0  0  0
   56.9570   24.7700   44.5590 C   0  0  0  0  0  0  0  0  0  0  0  0
   56.6600   26.0440   44.9070 N   0  0  0  0  0  0  0  0  0  0  0  0
   57.5320   26.8160   45.6080 C   0  0  0  0  0  0  0  0  0  0  0  0
   57.1020   28.2170   45.9630 C   0  0  0  0  0  0  0  0  0  0  0  0
   57.0690   29.0440   44.7610 N   0  0  0  0  0  0  0  0  0  0  0  0
   56.8880   28.6010   43.5190 N   0  0  0  0  0  0  0  0  0  0  0  0
   57.0130   29.5760   42.6170 N   0  0  0  0  0  0  0  0  0  0  0  0
   57.2920   30.6820   43.3340 C   0  0  0  0  0  0  0  0  0  0  0  0
   57.5550   31.9760   42.9060 C   0  0  0  0  0  0  0  0  0  0  0  0
   57.8630   32.9240   43.9020 C   0  0  0  0  0  0  0  0  0  0  0  0
   57.9000   32.5340   45.2640 C   0  0  0  0  0  0  0  0  0  0  0  0
   57.6370   31.2400   45.6260 N   0  0  0  0  0  0  0  0  0  0  0  0
   57.3320   30.3520   44.6480 C   0  0  0  0  0  0  0  0  0  0  0  0
   58.7540   26.3070   45.9720 N   0  0  0  0  0  0  0  0  0  0  0  0
   59.6790   27.0980   46.6810 N   0  0  0  0  0  0  0  0  0  0  0  0
   60.5400   28.0370   45.9570 C   0  0  0  0  0  0  0  0  0  0  0  0
   60.4700   29.4240   46.6090 C   0  0  0  0  0  0  0  0  0  0  0  0
   60.5770   29.3880   48.1520 C   0  0  0  0  0  0  0  0  0  0  0  0
   60.7660   27.9740   48.7250 C   0  0  0  0  0  0  0  0  0  0  0  0
   59.7290   27.0070   48.1440 C   0  0  0  0  0  0  0  0  0  0  0  0
   59.4671   22.4503   44.8414 H   0  0  0  0  0  0  0  0  0  0  0  0
   57.8052   21.0965   43.5623 H   0  0  0  0  0  0  0  0  0  0  0  0
   55.6070   22.0895   42.9191 H   0  0  0  0  0  0  0  0  0  0  0  0
   55.0602   24.4401   43.5577 H   0  0  0  0  0  0  0  0  0  0  0  0
   56.0990   28.1879   46.4138 H   0  0  0  0  0  0  0  0  0  0  0  0
   57.8182   28.6460   46.6792 H   0  0  0  0  0  0  0  0  0  0  0  0
   56.6870   27.6070   43.2710 H   0  0  0  0  0  0  0  0  0  0  0  0
   57.5245   32.2483   41.8407 H   0  0  0  0  0  0  0  0  0  0  0  0
   58.0747   33.9666   43.6224 H   0  0  0  0  0  0  0  0  0  0  0  0
   58.1422   33.2777   46.0374 H   0  0  0  0  0  0  0  0  0  0  0  0
   61.5780   27.6740   45.9838 H   0  0  0  0  0  0  0  0  0  0  0  0
   60.1969   28.1107   44.9145 H   0  0  0  0  0  0  0  0  0  0  0  0
   61.2966   30.0348   46.2171 H   0  0  0  0  0  0  0  0  0  0  0  0
   59.4848   29.8471   46.3633 H   0  0  0  0  0  0  0  0  0  0  0  0
   61.4369   30.0034   48.4550 H   0  0  0  0  0  0  0  0  0  0  0  0
   59.6258   29.7717   48.5495 H   0  0  0  0  0  0  0  0  0  0  0  0
   61.7747   27.6148   48.4729 H   0  0  0  0  0  0  0  0  0  0  0  0
   60.6355   28.0161   49.8164 H   0  0  0  0  0  0  0  0  0  0  0  0
   59.9968   25.9793   48.4305 H   0  0  0  0  0  0  0  0  0  0  0  0
   58.7400   27.2761   48.5434 H   0  0  0  0  0  0  0  0  0  0  0  0
  1  2  2  0
  2  3  1  0
  3  4  2  0
  4  5  1  0
  5  6  2  0
  6  7  1  0
  7  8  2  0
  8  9  1  0
  9 10  2  0
 10 11  1  0
 11 12  1  0
 12 13  1  0
 13 14  2  0
 14 15  1  0
 15 16  2  0
 16 17  1  0
 17 18  2  0
 18 19  1  0
 19 20  2  0
 10 21  1  0
 21 22  1  0
 22 23  1  0
 23 24  1  0
 24 25  1  0
 25 26  1  0
 26 27  1  0
 21  2  1  0
 27 22  1  0
  8  3  1  0
 20 12  1  0
 20 15  1  0
  4 28  1  0
  5 29  1  0
  6 30  1  0
  7 31  1  0
 11 32  1  0
 11 33  1  0
 13 34  1  0
 16 35  1  0
 17 36  1  0
 18 37  1  0
 23 38  1  0
 23 39  1  0
 24 40  1  0
 24 41  1  0
 25 42  1  0
 25 43  1  0
 26 44  1  0
 26 45  1  0
 27 46  1  0
 27 47  1  0
M  CHG  1  13   1
M  END
>  <UniqueID>  (13) 
11

>  <SMILES>  (13) 
O=c1c2ccccc2nc(Cn2[nH+]nc3cccnc32)n1N1CCCCC1

>  <Energy>  (13) 
110.01178790836131

>  <Genealogy>  (13) 
O=c1c2ccccc2nc(Cn2[nH+]nc3cccnc32)n1N1CCCCC1 (protonated)
O=c1c2ccccc2nc(Cn2[nH+]nc3cccnc32)n1N1CCCCC1 (3D coordinates assigned)
O=c1c2ccccc2nc(Cn2[nH+]nc3cccnc32)n1N1CCCCC1 (nonaromatic ring conformer: 110.01178790836131 kcal/mol)

>  <smiles>  (13) 
O=c1c2ccccc2nc(Cn2nnc3cccnc32)n1N1CCCCC1

>  <score_type>  (13) 
oracle

>  <origin>  (13) 
adg

>  <m_score__min__energy>  (13) 
-6.9299999999999997

>  <m_primary>  (13) 
energy

$$$$
13:0
     RDKit          3D

 40 43  0  0  0  0  0  0  0  0999 V2000
   59.9941   30.6714   48.7808 H   0  0  0  0  0  0  0  0  0  0  0  0
   60.2520   30.7450   47.7140 C   0  0  0  0  0  0  0  0  0  0  0  0
   59.5660   29.9800   46.8510 C   0  0  0  0  0  0  0  0  0  0  0  0
   59.5710   28.5170   46.8350 C   0  0  0  0  0  0  0  0  0  0  0  0
   60.1970   27.7840   47.6470 O   0  0  0  0  0  0  0  0  0  0  0  0
   58.8000   28.0120   45.7450 N   0  0  0  0  0  0  0  0  0  0  0  0
   58.8940   26.6610   45.1910 C   0  0  0  0  0  0  0  0  0  0  0  0
   59.2088   26.7208   44.1387 H   0  0  0  0  0  0  0  0  0  0  0  0
   59.6305   26.0855   45.7711 H   0  0  0  0  0  0  0  0  0  0  0  0
   57.5580   25.9720   45.2720 C   0  0  0  0  0  0  0  0  0  0  0  0
   56.4990   26.5430   45.9920 C   0  0  0  0  0  0  0  0  0  0  0  0
   56.6502   27.4891   46.5324 H   0  0  0  0  0  0  0  0  0  0  0  0
   55.2850   25.9300   46.0240 N   0  0  0  0  0  0  0  0  0  0  0  0
   55.0550   24.7630   45.3680 C   0  0  0  0  0  0  0  0  0  0  0  0
   53.4700   24.0210   45.4450 Cl  0  0  0  0  0  0  0  0  0  0  0  0
   56.0790   24.1610   44.6320 C   0  0  0  0  0  0  0  0  0  0  0  0
   55.8983   23.2169   44.0971 H   0  0  0  0  0  0  0  0  0  0  0  0
   57.3340   24.7710   44.5830 C   0  0  0  0  0  0  0  0  0  0  0  0
   58.1474   24.3095   44.0038 H   0  0  0  0  0  0  0  0  0  0  0  0
   58.3000   29.1760   45.0840 C   0  0  0  0  0  0  0  0  0  0  0  0
   57.4310   29.2030   43.9900 C   0  0  0  0  0  0  0  0  0  0  0  0
   57.1222   28.2706   43.4948 H   0  0  0  0  0  0  0  0  0  0  0  0
   56.9610   30.4440   43.5370 C   0  0  0  0  0  0  0  0  0  0  0  0
   56.2964   30.4910   42.6617 H   0  0  0  0  0  0  0  0  0  0  0  0
   57.3350   31.6290   44.1960 C   0  0  0  0  0  0  0  0  0  0  0  0
   56.9495   32.5961   43.8408 H   0  0  0  0  0  0  0  0  0  0  0  0
   58.1960   31.5870   45.3030 C   0  0  0  0  0  0  0  0  0  0  0  0
   58.4673   32.5090   45.8381 H   0  0  0  0  0  0  0  0  0  0  0  0
   58.7030   30.3480   45.7130 C   0  0  0  0  0  0  0  0  0  0  0  0
   61.3260   31.6760   47.3310 C   0  0  0  0  0  0  0  0  0  0  0  0
   61.0090   32.9630   46.8830 C   0  0  0  0  0  0  0  0  0  0  0  0
   59.9568   33.2655   46.7767 H   0  0  0  0  0  0  0  0  0  0  0  0
   62.0300   33.8630   46.5710 C   0  0  0  0  0  0  0  0  0  0  0  0
   61.7887   34.8699   46.1997 H   0  0  0  0  0  0  0  0  0  0  0  0
   63.3600   33.4720   46.7350 C   0  0  0  0  0  0  0  0  0  0  0  0
   64.1719   34.1712   46.4861 H   0  0  0  0  0  0  0  0  0  0  0  0
   63.6550   32.2280   47.2020 N   0  0  0  0  0  0  0  0  0  0  0  0
   64.6550   31.9540   47.3310 H   0  0  0  0  0  0  0  0  0  0  0  0
   62.6750   31.3350   47.5120 C   0  0  0  0  0  0  0  0  0  0  0  0
   62.9417   30.3431   47.9056 H   0  0  0  0  0  0  0  0  0  0  0  0
  1  2  1  0
  2  3  2  0
  3  4  1  0
  4  5  2  0
  4  6  1  0
  6  7  1  0
  7  8  1  0
  7  9  1  0
  7 10  1  0
 10 11  2  0
 11 12  1  0
 11 13  1  0
 13 14  2  0
 14 15  1  0
 14 16  1  0
 16 17  1  0
 16 18  2  0
 18 19  1  0
  6 20  1  0
 20 21  2  0
 21 22  1  0
 21 23  1  0
 23 24  1  0
 23 25  2  0
 25 26  1  0
 25 27  1  0
 27 28  1  0
 27 29  2  0
  2 30  1  0
 30 31  2  0
 31 32  1  0
 31 33  1  0
 33 34  1  0
 33 35  2  0
 35 36  1  0
 35 37  1  0
 37 38  1  0
 37 39  2  0
 39 40  1  0
 29  3  1  0
 39 30  1  0
 18 10  1  0
 29 20  1  0
M  CHG  1  37   1
M  END
>  <UniqueID>  (14) 
12

>  <SMILES>  (14) 
O=C1/C(=C/c2ccc[nH+]c2)c2ccccc2N1Cc1ccc(Cl)nc1

>  <Energy>  (14) 
82.22571746677623

>  <Genealogy>  (14) 
O=C1C(=Cc2ccc[nH+]c2)c2ccccc2N1Cc1ccc(Cl)nc1 (protonated)
O=C1/C(=C/c2ccc[nH+]c2)c2ccccc2N1Cc1ccc(Cl)nc1 (cis-trans isomerization)
O=C1/C(=C/c2ccc[nH+]c2)c2ccccc2N1Cc1ccc(Cl)nc1 (3D coordinates assigned)
O=C1/C(=C/c2ccc[nH+]c2)c2ccccc2N1Cc1ccc(Cl)nc1 (nonaromatic ring conformer: 82.22571746677623 kcal/mol)

>  <smiles>  (14) 
O=C1C(=Cc2cccnc2)c2ccccc2N1Cc1ccc(Cl)nc1

>  <score_type>  (14) 
oracle

>  <origin>  (14) 
adg

>  <m_score__min__energy>  (14) 
-7.5300000000000002

>  <m_primary>  (14) 
energy

$$$$
14:0
     RDKit          3D

 48 50  0  0  0  0  0  0  0  0999 V2000
   59.6570   29.0940   45.4900 C   0  0  0  0  0  0  0  0  0  0  0  0
   60.7560   29.8520   45.9420 O   0  0  0  0  0  0  0  0  0  0  0  0
   60.7170   29.9930   47.3540 C   0  0  2  0  0  0  0  0  0  0  0  0
   59.2530   30.1220   47.8120 C   0  0  0  0  0  0  0  0  0  0  0  0
   59.0000   31.6070   48.1220 C   0  0  0  0  0  0  0  0  0  0  0  0
   60.2210   32.3380   47.5590 C   0  0  2  0  0  0  0  0  0  0  0  0
   61.3360   31.3220   47.7700 C   0  0  2  0  0  0  0  0  0  0  0  0
   62.4970   31.6730   47.0420 O   0  0  0  0  0  0  0  0  0  0  0  0
   62.8090   33.0620   47.1780 C   0  0  0  0  0  0  0  0  0  0  0  0
   62.0410   33.8160   48.3050 C   0  0  0  0  0  0  0  0  0  0  0  0
   60.5580   33.6430   48.2040 N   0  0  1  0  0  0  0  0  0  0  0  0
   59.9750   34.7990   47.4760 C   0  0  0  0  0  0  0  0  0  0  0  0
   58.6560   34.4580   46.7530 C   0  0  0  0  0  0  0  0  0  0  0  0
   58.8190   34.4060   45.2260 C   0  0  0  0  0  0  0  0  0  0  0  0
   58.1880   33.1730   44.6280 C   0  0  0  0  0  0  0  0  0  0  0  0
   58.3500   32.8710   43.2670 C   0  0  0  0  0  0  0  0  0  0  0  0
   57.7440   31.7360   42.7270 C   0  0  0  0  0  0  0  0  0  0  0  0
   56.9770   30.9060   43.5530 C   0  0  0  0  0  0  0  0  0  0  0  0
   56.3100   29.6900   42.9940 C   0  0  0  0  0  0  0  0  0  0  0  0
   56.8270   31.2170   44.8700 N   0  0  0  0  0  0  0  0  0  0  0  0
   57.4060   32.3180   45.4190 C   0  0  0  0  0  0  0  0  0  0  0  0
   59.0973   28.7080   46.3547 H   0  0  0  0  0  0  0  0  0  0  0  0
   58.9981   29.7306   44.8813 H   0  0  0  0  0  0  0  0  0  0  0  0
   60.0179   28.2519   44.8813 H   0  0  0  0  0  0  0  0  0  0  0  0
   61.2406   29.1261   47.7833 H   0  0  0  0  0  0  0  0  0  0  0  0
   58.5773   29.7839   47.0126 H   0  0  0  0  0  0  0  0  0  0  0  0
   59.0669   29.5014   48.7009 H   0  0  0  0  0  0  0  0  0  0  0  0
   58.0796   31.9542   47.6297 H   0  0  0  0  0  0  0  0  0  0  0  0
   58.8670   31.7894   49.1986 H   0  0  0  0  0  0  0  0  0  0  0  0
   60.0434   32.6396   46.5162 H   0  0  0  0  0  0  0  0  0  0  0  0
   61.6924   31.2736   48.8096 H   0  0  0  0  0  0  0  0  0  0  0  0
   63.8858   33.1485   47.3856 H   0  0  0  0  0  0  0  0  0  0  0  0
   62.4994   33.5344   46.2341 H   0  0  0  0  0  0  0  0  0  0  0  0
   62.3755   33.4295   49.2790 H   0  0  0  0  0  0  0  0  0  0  0  0
   62.2599   34.8887   48.1981 H   0  0  0  0  0  0  0  0  0  0  0  0
   60.1820   33.6610   49.1830 H   0  0  0  0  0  0  0  0  0  0  0  0
   59.7795   35.6049   48.1987 H   0  0  0  0  0  0  0  0  0  0  0  0
   60.7011   35.1014   46.7070 H   0  0  0  0  0  0  0  0  0  0  0  0
   58.3048   33.4765   47.1040 H   0  0  0  0  0  0  0  0  0  0  0  0
   57.9321   35.2530   46.9852 H   0  0  0  0  0  0  0  0  0  0  0  0
   58.3427   35.2957   44.7882 H   0  0  0  0  0  0  0  0  0  0  0  0
   59.8955   34.3775   45.0017 H   0  0  0  0  0  0  0  0  0  0  0  0
   58.9548   33.5292   42.6259 H   0  0  0  0  0  0  0  0  0  0  0  0
   57.8680   31.4954   41.6608 H   0  0  0  0  0  0  0  0  0  0  0  0
   55.9600   29.0519   43.8188 H   0  0  0  0  0  0  0  0  0  0  0  0
   55.4522   29.9937   42.3760 H   0  0  0  0  0  0  0  0  0  0  0  0
   57.0271   29.1298   42.3760 H   0  0  0  0  0  0  0  0  0  0  0  0
   57.2608   32.5390   46.4867 H   0  0  0  0  0  0  0  0  0  0  0  0
  1  2  1  0
  2  3  1  0
  3  4  1  0
  4  5  1  0
  5  6  1  0
  6  7  1  0
  7  8  1  0
  8  9  1  0
  9 10  1  0
 10 11  1  0
 11 12  1  0
 12 13  1  0
 13 14  1  0
 14 15  1  0
 15 16  2  0
 16 17  1  0
 17 18  2  0
 18 19  1  0
 18 20  1  0
 20 21  2  0
  7  3  1  0
 21 15  1  0
 11  6  1  0
  1 22  1  0
  1 23  1  0
  1 24  1  0
  3 25  1  1
  4 26  1  0
  4 27  1  0
  5 28  1  0
  5 29  1  0
  6 30  1  6
  7 31  1  1
  9 32  1  0
  9 33  1  0
 10 34  1  0
 10 35  1  0
 11 36  1  1
 12 37  1  0
 12 38  1  0
 13 39  1  0
 13 40  1  0
 14 41  1  0
 14 42  1  0
 16 43  1  0
 17 44  1  0
 19 45  1  0
 19 46  1  0
 19 47  1  0
 21 48  1  0
M  CHG  1  11   1
M  END
>  <UniqueID>  (15) 
13

>  <SMILES>  (15) 
CO[C@@H]1CC[C@@H]2C1OCC[NH+]2CCCc1ccc(C)nc1

>  <Energy>  (15) 
70.96602053521153

>  <Genealogy>  (15) 
COC1CCC2C1OCC[NH+]2CCCc1ccc(C)nc1 (protonated)
CO[C@@H]1CC[C@@H]2C1OCC[NH+]2CCCc1ccc(C)nc1 (chirality)
CO[C@@H]1CC[C@@H]2C1OCC[NH+]2CCCc1ccc(C)nc1 (3D coordinates assigned)
CO[C@@H]1CC[C@@H]2C1OCC[NH+]2CCCc1ccc(C)nc1 (nonaromatic ring conformer: 70.96602053521153 kcal/mol)

>  <smiles>  (15) 
COC1CCC2C1OCCN2CCCc1ccc(C)nc1

>  <score_type>  (15) 
oracle

>  <origin>  (15) 
adg

>  <m_score__min__energy>  (15) 
-6.2599999999999998

>  <m_primary>  (15) 
energy

$$$$
15:0
     RDKit          3D

 30 31  0  0  0  0  0  0  0  0999 V2000
   63.1920   33.4730   46.7420 C   0  0  0  0  0  0  0  0  0  0  0  0
   61.9380   33.8400   48.0090 S   0  0  0  0  0  0  0  0  0  0  0  0
   60.5920   33.1060   47.0560 C   0  0  0  0  0  0  0  0  0  0  0  0
   60.4860   31.7500   47.0400 N   0  0  0  0  0  0  0  0  0  0  0  0
   59.4890   31.1150   46.3670 C   0  0  0  0  0  0  0  0  0  0  0  0
   59.4350   29.6340   46.3910 C   0  0  0  0  0  0  0  0  0  0  0  0
   59.2060   28.9590   47.6030 C   0  0  0  0  0  0  0  0  0  0  0  0
   59.1720   27.5620   47.6370 C   0  0  0  0  0  0  0  0  0  0  0  0
   59.3740   26.8270   46.4660 C   0  0  0  0  0  0  0  0  0  0  0  0
   59.3420   25.4720   46.5010 F   0  0  0  0  0  0  0  0  0  0  0  0
   59.6160   27.4880   45.2580 C   0  0  0  0  0  0  0  0  0  0  0  0
   59.6510   28.8860   45.2200 C   0  0  0  0  0  0  0  0  0  0  0  0
   58.5240   31.8840   45.6910 C   0  0  0  0  0  0  0  0  0  0  0  0
   57.3930   31.2660   45.0330 C   0  0  0  0  0  0  0  0  0  0  0  0
   56.4880   30.7710   44.5070 N   0  0  0  0  0  0  0  0  0  0  0  0
   58.6480   33.2810   45.7060 C   0  0  0  0  0  0  0  0  0  0  0  0
   57.7810   33.9830   45.1130 O   0  0  0  0  0  0  0  0  0  0  0  0
   59.6930   33.8800   46.3660 N   0  0  0  0  0  0  0  0  0  0  0  0
   59.8270   35.3470   46.3750 C   0  0  0  0  0  0  0  0  0  0  0  0
   64.1375   33.1963   47.2313 H   0  0  0  0  0  0  0  0  0  0  0  0
   62.8459   32.6385   46.1145 H   0  0  0  0  0  0  0  0  0  0  0  0
   63.3505   34.3624   46.1145 H   0  0  0  0  0  0  0  0  0  0  0  0
   61.2000   31.1850   47.5550 H   0  0  0  0  0  0  0  0  0  0  0  0
   59.0529   29.5330   48.5288 H   0  0  0  0  0  0  0  0  0  0  0  0
   58.9859   27.0403   48.5874 H   0  0  0  0  0  0  0  0  0  0  0  0
   59.7789   26.9087   44.3372 H   0  0  0  0  0  0  0  0  0  0  0  0
   59.8485   29.4028   44.2692 H   0  0  0  0  0  0  0  0  0  0  0  0
   59.8598   35.7058   47.4143 H   0  0  0  0  0  0  0  0  0  0  0  0
   60.7551   35.6336   45.8587 H   0  0  0  0  0  0  0  0  0  0  0  0
   58.9662   35.7970   45.8587 H   0  0  0  0  0  0  0  0  0  0  0  0
  1  2  1  0
  2  3  1  0
  3  4  2  0
  4  5  1  0
  5  6  1  0
  6  7  2  0
  7  8  1  0
  8  9  2  0
  9 10  1  0
  9 11  1  0
 11 12  2  0
  5 13  2  0
 13 14  1  0
 14 15  3  0
 13 16  1  0
 16 17  2  0
 16 18  1  0
 18 19  1  0
 18  3  1  0
 12  6  1  0
  1 20  1  0
  1 21  1  0
  1 22  1  0
  4 23  1  0
  7 24  1  0
  8 25  1  0
 11 26  1  0
 12 27  1  0
 19 28  1  0
 19 29  1  0
 19 30  1  0
M  CHG  1   4   1
M  END
>  <UniqueID>  (16) 
14

>  <SMILES>  (16) 
CSc1[nH+]c(-c2ccc(F)cc2)c(C#N)c(=O)n1C

>  <Energy>  (16) 
38.17910778777681

>  <Genealogy>  (16) 
CSc1[nH+]c(-c2ccc(F)cc2)c(C#N)c(=O)n1C (protonated)
CSc1[nH+]c(-c2ccc(F)cc2)c(C#N)c(=O)n1C (3D coordinates assigned)
CSc1[nH+]c(-c2ccc(F)cc2)c(C#N)c(=O)n1C (optimized conformer: 38.17910778777681 kcal/mol)

>  <smiles>  (16) 
CSc1nc(-c2ccc(F)cc2)c(C#N)c(=O)n1C

>  <score_type>  (16) 
oracle

>  <origin>  (16) 
adg

>  <m_score__min__energy>  (16) 
-4.79

>  <m_primary>  (16) 
energy

$$$$
16:0
     RDKit          3D

 32 34  0  0  0  0  0  0  0  0999 V2000
   59.5770   33.2880   49.1700 C   0  0  0  0  0  0  0  0  0  0  0  0
   58.5930   32.3450   48.8170 C   0  0  0  0  0  0  0  0  0  0  0  0
   58.0630   32.3340   47.5600 N   0  0  0  0  0  0  0  0  0  0  0  0
   58.5040   33.2460   46.6560 C   0  0  0  0  0  0  0  0  0  0  0  0
   58.0930   33.4080   45.3510 C   0  0  0  0  0  0  0  0  0  0  0  0
   57.0200   32.6480   44.6270 C   0  0  0  0  0  0  0  0  0  0  0  0
   57.0530   31.2160   44.9870 N   0  0  0  0  0  0  0  0  0  0  0  0
   55.9170   30.4760   44.3800 C   0  0  0  0  0  0  0  0  0  0  0  0
   56.3290   29.7030   43.1160 C   0  0  0  0  0  0  0  0  0  0  0  0
   57.3940   28.7200   43.3890 N   0  0  0  0  0  0  0  0  0  0  0  0
   58.2720   29.0890   44.5150 C   0  0  0  0  0  0  0  0  0  0  0  0
   58.3750   30.6100   44.6790 C   0  0  0  0  0  0  0  0  0  0  0  0
   58.8190   34.4900   44.8620 C   0  0  0  0  0  0  0  0  0  0  0  0
   59.6470   34.9240   45.8930 C   0  0  0  0  0  0  0  0  0  0  0  0
   59.4370   34.1530   46.9750 N   0  0  0  0  0  0  0  0  0  0  0  0
   60.0000   34.2160   48.2070 C   0  0  0  0  0  0  0  0  0  0  0  0
   60.0063   33.2969   50.1827 H   0  0  0  0  0  0  0  0  0  0  0  0
   58.2488   31.6112   49.5607 H   0  0  0  0  0  0  0  0  0  0  0  0
   56.0386   33.0647   44.8976 H   0  0  0  0  0  0  0  0  0  0  0  0
   57.1925   32.7420   43.5447 H   0  0  0  0  0  0  0  0  0  0  0  0
   55.5256   29.7615   45.1191 H   0  0  0  0  0  0  0  0  0  0  0  0
   55.1542   31.2130   44.0885 H   0  0  0  0  0  0  0  0  0  0  0  0
   55.4494   29.1727   42.7221 H   0  0  0  0  0  0  0  0  0  0  0  0
   56.7172   30.4291   42.3865 H   0  0  0  0  0  0  0  0  0  0  0  0
   56.9490   27.7990   43.6150 H   0  0  0  0  0  0  0  0  0  0  0  0
   57.8645   28.6574   45.4411 H   0  0  0  0  0  0  0  0  0  0  0  0
   59.2788   28.6975   44.3073 H   0  0  0  0  0  0  0  0  0  0  0  0
   59.0711   30.8345   45.5006 H   0  0  0  0  0  0  0  0  0  0  0  0
   58.7370   31.0354   43.7314 H   0  0  0  0  0  0  0  0  0  0  0  0
   58.7512   34.9206   43.8520 H   0  0  0  0  0  0  0  0  0  0  0  0
   60.3577   35.7614   45.8328 H   0  0  0  0  0  0  0  0  0  0  0  0
   60.7642   34.9709   48.4437 H   0  0  0  0  0  0  0  0  0  0  0  0
  1  2  1  0
  2  3  2  0
  3  4  1  0
  4  5  2  0
  5  6  1  0
  6  7  1  0
  7  8  1  0
  8  9  1  0
  9 10  1  0
 10 11  1  0
 11 12  1  0
  5 13  1  0
 13 14  2  0
 14 15  1  0
 15 16  1  0
 16  1  2  0
 15  4  1  0
 12  7  1  0
  1 17  1  0
  2 18  1  0
  6 19  1  0
  6 20  1  0
  8 21  1  0
  8 22  1  0
  9 23  1  0
  9 24  1  0
 10 25  1  0
 11 26  1  0
 11 27  1  0
 12 28  1  0
 12 29  1  0
 13 30  1  0
 14 31  1  0
 16 32  1  0
M  END
>  <UniqueID>  (17) 
15

>  <SMILES>  (17) 
c1cnc2c(CN3CCNCC3)ccn2c1

>  <Energy>  (17) 
75.81722287850532

>  <Genealogy>  (17) 
c1cnc2c(CN3CCNCC3)ccn2c1 (3D coordinates assigned)
c1cnc2c(CN3CCNCC3)ccn2c1 (nonaromatic ring conformer: 75.81722287850532 kcal/mol)

>  <smiles>  (17) 
c1cnc2c(CN3CCNCC3)ccn2c1

>  <score_type>  (17) 
oracle

>  <origin>  (17) 
adg

>  <m_score__min__energy>  (17) 
-6.4400000000000004

>  <m_primary>  (17) 
energy

$$$$
17:0
     RDKit          3D

 56 60  0  0  0  0  0  0  0  0999 V2000
   58.5952   35.2113   47.4443 H   0  0  0  0  0  0  0  0  0  0  0  0
   59.2580   34.3910   47.7570 C   0  0  0  0  0  0  0  0  0  0  0  0
   60.4400   34.5330   48.3890 N   0  0  0  0  0  0  0  0  0  0  0  0
   60.9350   33.3220   48.6070 N   0  0  0  0  0  0  0  0  0  0  0  0
   62.2200   33.0850   49.2740 C   0  0  0  0  0  0  0  0  0  0  0  0
   62.2673   32.0220   49.5528 H   0  0  0  0  0  0  0  0  0  0  0  0
   63.3940   33.3750   48.3270 C   0  0  0  0  0  0  0  0  0  0  0  0
   63.2982   32.7419   47.4326 H   0  0  0  0  0  0  0  0  0  0  0  0
   63.3657   34.4401   48.0535 H   0  0  0  0  0  0  0  0  0  0  0  0
   64.7500   33.0810   49.0100 C   0  0  0  0  0  0  0  0  0  0  0  0
   65.0695   32.0676   48.7255 H   0  0  0  0  0  0  0  0  0  0  0  0
   65.4549   33.8544   48.6708 H   0  0  0  0  0  0  0  0  0  0  0  0
   64.7020   33.1580   50.4840 N   0  0  0  0  0  0  0  0  0  0  0  0
   64.3740   32.2400   50.8660 H   0  0  0  0  0  0  0  0  0  0  0  0
   63.7970   34.2170   50.9490 C   0  0  0  0  0  0  0  0  0  0  0  0
   63.8715   34.2944   52.0437 H   0  0  0  0  0  0  0  0  0  0  0  0
   64.0949   35.1594   50.4661 H   0  0  0  0  0  0  0  0  0  0  0  0
   62.3310   33.9230   50.5670 C   0  0  0  0  0  0  0  0  0  0  0  0
   61.8551   33.3692   51.3897 H   0  0  0  0  0  0  0  0  0  0  0  0
   61.8296   34.8857   50.3887 H   0  0  0  0  0  0  0  0  0  0  0  0
   60.0890   32.3880   48.1250 C   0  0  0  0  0  0  0  0  0  0  0  0
   60.2318   31.2983   48.1705 H   0  0  0  0  0  0  0  0  0  0  0  0
   59.0170   33.0420   47.5670 C   0  0  0  0  0  0  0  0  0  0  0  0
   57.8610   32.3960   47.0090 N   0  0  0  0  0  0  0  0  0  0  0  0
   57.7470   31.8410   45.8380 C   0  0  0  0  0  0  0  0  0  0  0  0
   57.7430   30.4880   45.6870 N   0  0  0  0  0  0  0  0  0  0  0  0
   57.5920   29.9030   44.4650 C   0  0  0  0  0  0  0  0  0  0  0  0
   57.5920   28.4220   44.3570 C   0  0  0  0  0  0  0  0  0  0  0  0
   58.1120   27.7760   43.2210 C   0  0  0  0  0  0  0  0  0  0  0  0
   58.5339   28.3731   42.3992 H   0  0  0  0  0  0  0  0  0  0  0  0
   58.0970   26.3830   43.1280 C   0  0  0  0  0  0  0  0  0  0  0  0
   58.5096   25.8921   42.2342 H   0  0  0  0  0  0  0  0  0  0  0  0
   57.5610   25.6040   44.1630 C   0  0  0  0  0  0  0  0  0  0  0  0
   57.5650   24.1720   44.0480 N   0  0  0  0  0  0  0  0  0  0  0  0
   58.4000   23.3120   44.8670 C   0  0  0  0  0  0  0  0  0  0  0  0
   59.4640   23.5335   44.6973 H   0  0  0  0  0  0  0  0  0  0  0  0
   58.2108   23.4595   45.9405 H   0  0  0  0  0  0  0  0  0  0  0  0
   58.0740   21.8930   44.4240 C   0  0  0  0  0  0  0  0  0  0  0  0
   58.8459   21.5193   43.7351 H   0  0  0  0  0  0  0  0  0  0  0  0
   58.0395   21.1990   45.2768 H   0  0  0  0  0  0  0  0  0  0  0  0
   56.7240   21.9820   43.7140 C   0  0  0  0  0  0  0  0  0  0  0  0
   56.7048   21.3121   42.8418 H   0  0  0  0  0  0  0  0  0  0  0  0
   55.8981   21.6777   44.3738 H   0  0  0  0  0  0  0  0  0  0  0  0
   56.5840   23.4330   43.2720 C   0  0  0  0  0  0  0  0  0  0  0  0
   56.7933   23.5290   42.1964 H   0  0  0  0  0  0  0  0  0  0  0  0
   55.5646   23.8127   43.4355 H   0  0  0  0  0  0  0  0  0  0  0  0
   57.0220   26.2440   45.2970 C   0  0  0  0  0  0  0  0  0  0  0  0
   56.3980   25.4880   46.3560 C   0  0  0  0  0  0  0  0  0  0  0  0
   55.8990   24.8780   47.2030 N   0  0  0  0  0  0  0  0  0  0  0  0
   57.0420   27.6420   45.3870 C   0  0  0  0  0  0  0  0  0  0  0  0
   56.6215   28.1349   46.2759 H   0  0  0  0  0  0  0  0  0  0  0  0
   57.4460   30.7220   43.3360 C   0  0  0  0  0  0  0  0  0  0  0  0
   57.3320   30.2808   42.3348 H   0  0  0  0  0  0  0  0  0  0  0  0
   57.4480   32.1050   43.5060 C   0  0  0  0  0  0  0  0  0  0  0  0
   57.3321   32.7668   42.6350 H   0  0  0  0  0  0  0  0  0  0  0  0
   57.5930   32.6350   44.7470 N   0  0  0  0  0  0  0  0  0  0  0  0
  1  2  1  0
  2  3  2  0
  3  4  1  0
  4  5  1  0
  5  6  1  0
  5  7  1  0
  7  8  1  0
  7  9  1  0
  7 10  1  0
 10 11  1  0
 10 12  1  0
 10 13  1  0
 13 14  1  0
 13 15  1  0
 15 16  1  0
 15 17  1  0
 15 18  1  0
 18 19  1  0
 18 20  1  0
  4 21  1  0
 21 22  1  0
 21 23  2  0
 23 24  1  0
 24 25  2  0
 25 26  1  0
 26 27  2  0
 27 28  1  0
 28 29  2  0
 29 30  1  0
 29 31  1  0
 31 32  1  0
 31 33  2  0
 33 34  1  0
 34 35  1  0
 35 36  1  0
 35 37  1  0
 35 38  1  0
 38 39  1  0
 38 40  1  0
 38 41  1  0
 41 42  1  0
 41 43  1  0
 41 44  1  0
 44 45  1  0
 44 46  1  0
 33 47  1  0
 47 48  1  0
 48 49  3  0
 47 50  2  0
 50 51  1  0
 27 52  1  0
 52 53  1  0
 52 54  2  0
 54 55  1  0
 54 56  1  0
 23  2  1  0
 56 25  1  0
 18  5  1  0
 50 28  1  0
 44 34  1  0
M  CHG  1  56  -1
M  END
>  <UniqueID>  (18) 
16

>  <SMILES>  (18) 
N#Cc1cc(-c2cc[n-]/c(=N/c3cnn(C4CCNCC4)c3)n2)ccc1N1CCCC1

>  <Energy>  (18) 
109.33205471955347

>  <Genealogy>  (18) 
N#Cc1cc(-c2cc[n-]c(=Nc3cnn(C4CCNCC4)c3)n2)ccc1N1CCCC1 (protonated)
N#Cc1cc(-c2cc[n-]/c(=N/c3cnn(C4CCNCC4)c3)n2)ccc1N1CCCC1 (cis-trans isomerization)
N#Cc1cc(-c2cc[n-]/c(=N/c3cnn(C4CCNCC4)c3)n2)ccc1N1CCCC1 (3D coordinates assigned)
N#Cc1cc(-c2cc[n-]/c(=N/c3cnn(C4CCNCC4)c3)n2)ccc1N1CCCC1 (nonaromatic ring conformer: 109.33205471955347 kcal/mol)

>  <smiles>  (18) 
N#Cc1cc(-c2cc[nH]c(=Nc3cnn(C4CCNCC4)c3)n2)ccc1N1CCCC1

>  <score_type>  (18) 
oracle

>  <origin>  (18) 
adg

>  <m_score__min__energy>  (18) 
-9.9900000000000002

>  <m_primary>  (18) 
energy

$$$$
18:0
     RDKit          3D

 54 56  0  0  1  0  0  0  0  0999 V2000
   56.5320   20.9620   48.8020 C   0  0  0  0  0  0  0  0  0  0  0  0
   57.3740   21.6650   47.9400 O   0  0  0  0  0  0  0  0  0  0  0  0
   56.9120   22.4550   46.9090 C   0  0  0  0  0  0  0  0  0  0  0  0
   56.6620   23.8020   46.9960 C   0  0  0  0  0  0  0  0  0  0  0  0
   56.1940   24.5470   45.9160 C   0  0  0  0  0  0  0  0  0  0  0  0
   55.9540   26.0040   46.1210 C   0  0  0  0  0  0  0  0  0  0  0  0
   54.7650   26.3410   45.9960 O   0  0  0  0  0  0  0  0  0  0  0  0
   57.0870   26.7580   46.4190 N   0  0  0  0  0  0  0  0  0  0  0  0
   57.6050   27.6950   45.7760 C   0  0  0  0  0  0  0  0  0  0  0  0
   58.8310   27.5360   45.2060 N   0  0  0  0  0  0  0  0  0  0  0  0
   59.3870   28.5380   44.5100 C   0  0  0  0  0  0  0  0  0  0  0  0
   58.6840   29.7310   44.3890 C   0  0  0  0  0  0  0  0  0  0  0  0
   57.4500   29.8870   44.9640 C   0  0  0  0  0  0  0  0  0  0  0  0
   56.8320   30.9860   44.8250 N   0  0  0  0  0  0  0  0  0  0  0  0
   57.2850   32.2540   45.3010 C   0  0  0  0  0  0  0  0  0  0  0  0
   58.1630   33.0120   44.3430 C   0  0  0  0  0  0  0  0  0  0  0  0
   58.2860   34.4230   44.8860 C   0  0  0  0  0  0  0  0  0  0  0  0
   58.7760   34.4800   46.2930 C   0  0  0  0  0  0  0  0  0  0  0  0
   58.2760   33.4090   47.2000 C   0  0  0  0  0  0  0  0  0  0  0  0
   58.1820   32.0360   46.5350 C   0  0  0  0  0  0  0  0  0  0  0  0
   56.9470   28.8510   45.6460 N   0  0  0  0  0  0  0  0  0  0  0  0
   55.9580   23.9500   44.6960 C   0  0  0  0  0  0  0  0  0  0  0  0
   56.2130   22.5820   44.6100 C   0  0  0  0  0  0  0  0  0  0  0  0
   55.9860   21.9400   43.3830 O   0  0  0  0  0  0  0  0  0  0  0  0
   57.0490   21.2800   42.7480 C   0  0  0  0  0  0  0  0  0  0  0  0
   56.6730   21.8560   45.6750 C   0  0  0  0  0  0  0  0  0  0  0  0
   56.9100   20.4950   45.5380 O   0  0  0  0  0  0  0  0  0  0  0  0
   55.9290   19.4960   45.5470 C   0  0  0  0  0  0  0  0  0  0  0  0
   56.8026   21.1879   49.8440 H   0  0  0  0  0  0  0  0  0  0  0  0
   55.4891   21.2613   48.6208 H   0  0  0  0  0  0  0  0  0  0  0  0
   56.6404   19.8824   48.6208 H   0  0  0  0  0  0  0  0  0  0  0  0
   56.8378   24.3122   47.9545 H   0  0  0  0  0  0  0  0  0  0  0  0
   59.3720   26.6450   45.2870 H   0  0  0  0  0  0  0  0  0  0  0  0
   60.3769   28.4187   44.0453 H   0  0  0  0  0  0  0  0  0  0  0  0
   59.1257   30.5638   43.8222 H   0  0  0  0  0  0  0  0  0  0  0  0
   56.3630   32.8250   45.4850 H   0  0  0  0  0  0  0  0  0  0  0  0
   59.1552   32.5407   44.2844 H   0  0  0  0  0  0  0  0  0  0  0  0
   57.7334   33.0143   43.3304 H   0  0  0  0  0  0  0  0  0  0  0  0
   58.9893   34.9804   44.2499 H   0  0  0  0  0  0  0  0  0  0  0  0
   57.2771   34.8612   44.8776 H   0  0  0  0  0  0  0  0  0  0  0  0
   59.8740   34.4171   46.2703 H   0  0  0  0  0  0  0  0  0  0  0  0
   58.3890   35.4237   46.7050 H   0  0  0  0  0  0  0  0  0  0  0  0
   58.9599   33.3333   48.0582 H   0  0  0  0  0  0  0  0  0  0  0  0
   57.2562   33.6917   47.5001 H   0  0  0  0  0  0  0  0  0  0  0  0
   59.1789   31.6839   46.2315 H   0  0  0  0  0  0  0  0  0  0  0  0
   57.7734   31.2737   47.2146 H   0  0  0  0  0  0  0  0  0  0  0  0
   56.0160   28.9730   46.0790 H   0  0  0  0  0  0  0  0  0  0  0  0
   55.5872   24.5240   43.8340 H   0  0  0  0  0  0  0  0  0  0  0  0
   57.7255   20.8600   43.5069 H   0  0  0  0  0  0  0  0  0  0  0  0
   56.6537   20.4683   42.1197 H   0  0  0  0  0  0  0  0  0  0  0  0
   57.6012   21.9943   42.1197 H   0  0  0  0  0  0  0  0  0  0  0  0
   55.6768   19.2391   46.5864 H   0  0  0  0  0  0  0  0  0  0  0  0
   55.0289   19.8613   45.0308 H   0  0  0  0  0  0  0  0  0  0  0  0
   56.3106   18.6027   45.0308 H   0  0  0  0  0  0  0  0  0  0  0  0
  1  2  1  0
  2  3  1  0
  3  4  2  0
  4  5  1  0
  5  6  1  0
  6  7  2  0
  6  8  1  0
  8  9  2  0
  9 10  1  0
 10 11  1  0
 11 12  2  0
 12 13  1  0
 13 14  2  0
 14 15  1  0
 15 16  1  0
 16 17  1  0
 17 18  1  0
 18 19  1  0
 19 20  1  0
 13 21  1  0
  5 22  2  0
 22 23  1  0
 23 24  1  0
 24 25  1  0
 23 26  2  0
 26 27  1  0
 27 28  1  0
 26  3  1  0
 21  9  1  0
 20 15  1  0
  1 29  1  0
  1 30  1  0
  1 31  1  0
  4 32  1  0
 10 33  1  0
 11 34  1  0
 12 35  1  0
 15 36  1  0
 16 37  1  0
 16 38  1  0
 17 39  1  0
 17 40  1  0
 18 41  1  0
 18 42  1  0
 19 43  1  0
 19 44  1  0
 20 45  1  0
 20 46  1  0
 21 47  1  0
 22 48  1  0
 25 49  1  0
 25 50  1  0
 25 51  1  0
 28 52  1  0
 28 53  1  0
 28 54  1  0
M  END
>  <smiles>  (19) 
COc1cc(C(=O)N=c2[nH]ccc(=NC3CCCCC3)[nH]2)cc(OC)c1OC

>  <score_type>  (19) 
oracle

>  <origin>  (19) 
adg

>  <m_score__min__energy>  (19) 
-8.5600000000000005

>  <m_primary>  (19) 
energy

$$$$
19:0
     RDKit          3D

 66 69  0  0  0  0  0  0  0  0999 V2000
   59.6350   35.2990   45.9830 C   0  0  0  0  0  0  0  0  0  0  0  0
   59.3120   34.7780   44.6960 O   0  0  0  0  0  0  0  0  0  0  0  0
   58.6270   33.5720   44.4790 C   0  0  0  0  0  0  0  0  0  0  0  0
   58.4500   33.0270   43.1930 C   0  0  0  0  0  0  0  0  0  0  0  0
   57.7650   31.8180   43.0280 C   0  0  0  0  0  0  0  0  0  0  0  0
   57.2550   31.1380   44.1420 C   0  0  0  0  0  0  0  0  0  0  0  0
   56.3480   29.6450   43.9230 S   0  0  0  0  0  0  0  0  0  0  0  0
   55.3610   29.4890   45.0460 O   0  0  0  0  0  0  0  0  0  0  0  0
   55.5880   29.6760   42.6270 O   0  0  0  0  0  0  0  0  0  0  0  0
   57.4530   28.3100   43.9480 N   0  0  0  0  0  0  0  0  0  0  0  0
   58.1950   27.9980   45.1340 C   0  0  0  0  0  0  0  0  0  0  0  0
   58.5870   29.0200   46.0100 C   0  0  0  0  0  0  0  0  0  0  0  0
   59.3080   28.7300   47.1810 C   0  0  0  0  0  0  0  0  0  0  0  0
   59.7380   29.8230   48.0890 C   0  0  0  0  0  0  0  0  0  0  0  0
   59.2670   31.1370   47.9030 C   0  0  0  0  0  0  0  0  0  0  0  0
   59.6930   32.1690   48.7450 C   0  0  0  0  0  0  0  0  0  0  0  0
   60.5830   31.9050   49.7960 C   0  0  0  0  0  0  0  0  0  0  0  0
   61.0740   33.0240   50.6760 C   0  0  0  0  0  0  0  0  0  0  0  0
   61.5830   34.2000   49.8090 C   0  0  0  0  0  0  0  0  0  0  0  0
   62.8150   33.9190   49.0340 N   0  0  0  0  0  0  0  0  0  0  0  0
   63.9220   33.3740   49.8350 C   0  0  0  0  0  0  0  0  0  0  0  0
   64.2150   31.9790   49.3130 C   0  0  0  0  0  0  0  0  0  0  0  0
   63.7550   32.0180   47.8730 C   0  0  0  0  0  0  0  0  0  0  0  0
   62.6240   33.0470   47.8620 C   0  0  2  0  0  0  0  0  0  0  0  0
   62.6370   33.8860   46.5820 C   0  0  0  0  0  0  0  0  0  0  0  0
   61.0610   30.5990   49.9810 C   0  0  0  0  0  0  0  0  0  0  0  0
   60.6390   29.5660   49.1380 C   0  0  0  0  0  0  0  0  0  0  0  0
   59.6280   27.3930   47.4690 C   0  0  0  0  0  0  0  0  0  0  0  0
   59.2410   26.3690   46.6010 C   0  0  0  0  0  0  0  0  0  0  0  0
   58.5260   26.6620   45.4240 C   0  0  0  0  0  0  0  0  0  0  0  0
   58.1160   25.6550   44.5350 O   0  0  0  0  0  0  0  0  0  0  0  0
   56.9550   24.8490   44.7070 C   0  0  0  0  0  0  0  0  0  0  0  0
   57.4200   31.6850   45.4220 C   0  0  0  0  0  0  0  0  0  0  0  0
   58.1040   32.8930   45.5870 C   0  0  0  0  0  0  0  0  0  0  0  0
   59.2247   34.6372   46.7600 H   0  0  0  0  0  0  0  0  0  0  0  0
   60.7281   35.3577   46.0911 H   0  0  0  0  0  0  0  0  0  0  0  0
   59.2014   36.3041   46.0911 H   0  0  0  0  0  0  0  0  0  0  0  0
   58.8517   33.5535   42.3147 H   0  0  0  0  0  0  0  0  0  0  0  0
   57.6264   31.3999   42.0201 H   0  0  0  0  0  0  0  0  0  0  0  0
   57.3140   27.5680   43.2270 H   0  0  0  0  0  0  0  0  0  0  0  0
   58.3267   30.0632   45.7776 H   0  0  0  0  0  0  0  0  0  0  0  0
   58.5589   31.3532   47.0895 H   0  0  0  0  0  0  0  0  0  0  0  0
   59.3279   33.1937   48.5820 H   0  0  0  0  0  0  0  0  0  0  0  0
   60.2490   33.3733   51.3142 H   0  0  0  0  0  0  0  0  0  0  0  0
   61.9004   32.6539   51.3005 H   0  0  0  0  0  0  0  0  0  0  0  0
   60.7873   34.4701   49.0991 H   0  0  0  0  0  0  0  0  0  0  0  0
   61.8375   35.0101   50.5083 H   0  0  0  0  0  0  0  0  0  0  0  0
   64.8127   34.0105   49.7278 H   0  0  0  0  0  0  0  0  0  0  0  0
   63.6515   33.3414   50.9007 H   0  0  0  0  0  0  0  0  0  0  0  0
   65.2909   31.7579   49.3731 H   0  0  0  0  0  0  0  0  0  0  0  0
   63.7086   31.1958   49.8962 H   0  0  0  0  0  0  0  0  0  0  0  0
   64.5748   32.3338   47.2110 H   0  0  0  0  0  0  0  0  0  0  0  0
   63.4281   31.0322   47.5107 H   0  0  0  0  0  0  0  0  0  0  0  0
   61.6535   32.5305   47.8991 H   0  0  0  0  0  0  0  0  0  0  0  0
   62.6536   34.9542   46.8439 H   0  0  0  0  0  0  0  0  0  0  0  0
   63.5314   33.6395   45.9911 H   0  0  0  0  0  0  0  0  0  0  0  0
   61.7354   33.6673   45.9911 H   0  0  0  0  0  0  0  0  0  0  0  0
   61.7715   30.3864   50.7934 H   0  0  0  0  0  0  0  0  0  0  0  0
   61.0147   28.5444   49.2966 H   0  0  0  0  0  0  0  0  0  0  0  0
   60.1873   27.1505   48.3846 H   0  0  0  0  0  0  0  0  0  0  0  0
   59.4968   25.3259   46.8389 H   0  0  0  0  0  0  0  0  0  0  0  0
   56.7589   24.7129   45.7808 H   0  0  0  0  0  0  0  0  0  0  0  0
   56.0924   25.3435   44.2365 H   0  0  0  0  0  0  0  0  0  0  0  0
   57.1167   23.8679   44.2365 H   0  0  0  0  0  0  0  0  0  0  0  0
   57.0102   31.1624   46.2989 H   0  0  0  0  0  0  0  0  0  0  0  0
   58.2326   33.3138   46.5952 H   0  0  0  0  0  0  0  0  0  0  0  0
  1  2  1  0
  2  3  1  0
  3  4  2  0
  4  5  1  0
  5  6  2  0
  6  7  1  0
  7  8  2  0
  7  9  2  0
  7 10  1  0
 10 11  1  0
 11 12  2  0
 12 13  1  0
 13 14  1  0
 14 15  2  0
 15 16  1  0
 16 17  2  0
 17 18  1  0
 18 19  1  0
 19 20  1  0
 20 21  1  0
 21 22  1  0
 22 23  1  0
 23 24  1  0
 24 25  1  0
 17 26  1  0
 26 27  2  0
 13 28  2  0
 28 29  1  0
 29 30  2  0
 30 31  1  0
 31 32  1  0
  6 33  1  0
 33 34  2  0
 34  3  1  0
 30 11  1  0
 27 14  1  0
 24 20  1  0
  1 35  1  0
  1 36  1  0
  1 37  1  0
  4 38  1  0
  5 39  1  0
 10 40  1  0
 12 41  1  0
 15 42  1  0
 16 43  1  0
 18 44  1  0
 18 45  1  0
 19 46  1  0
 19 47  1  0
 21 48  1  0
 21 49  1  0
 22 50  1  0
 22 51  1  0
 23 52  1  0
 23 53  1  0
 24 54  1  1
 25 55  1  0
 25 56  1  0
 25 57  1  0
 26 58  1  0
 27 59  1  0
 28 60  1  0
 29 61  1  0
 32 62  1  0
 32 63  1  0
 32 64  1  0
 33 65  1  0
 34 66  1  0
M  END
>  <UniqueID>  (20) 
17

>  <SMILES>  (20) 
COc1ccc(S(=O)(=O)Nc2cc(-c3ccc(CCN4CCC[C@@H]4C)cc3)ccc2OC)cc1

>  <Energy>  (20) 
79.97013182790582

>  <Genealogy>  (20) 
COc1ccc(S(=O)(=O)Nc2cc(-c3ccc(CCN4CCC[C@@H]4C)cc3)ccc2OC)cc1 (chirality)
COc1ccc(S(=O)(=O)Nc2cc(-c3ccc(CCN4CCC[C@@H]4C)cc3)ccc2OC)cc1 (3D coordinates assigned)
COc1ccc(S(=O)(=O)Nc2cc(-c3ccc(CCN4CCC[C@@H]4C)cc3)ccc2OC)cc1 (nonaromatic ring conformer: 79.97013182790582 kcal/mol)

>  <smiles>  (20) 
COc1ccc(S(=O)(=O)Nc2cc(-c3ccc(CCN4CCCC4C)cc3)ccc2OC)cc1

>  <score_type>  (20) 
oracle

>  <origin>  (20) 
adg

>  <m_score__min__energy>  (20) 
-9.5999999999999996

>  <m_primary>  (20) 
energy

$$$$
20:0
     RDKit          3D

 44 47  0  0  0  0  0  0  0  0999 V2000
   60.7430   28.6600   44.8570 C   0  0  0  0  0  0  0  0  0  0  0  0
   59.8350   29.2480   45.8860 C   0  0  0  0  0  0  0  0  0  0  0  0
   60.0990   29.2860   47.2170 N   0  0  0  0  0  0  0  0  0  0  0  0
   59.2560   30.1580   47.7730 N   0  0  0  0  0  0  0  0  0  0  0  0
   59.4100   30.7300   49.1050 C   0  0  0  0  0  0  0  0  0  0  0  0
   58.5030   30.6400   46.7690 C   0  0  0  0  0  0  0  0  0  0  0  0
   57.9710   31.8720   46.6590 N   0  0  0  0  0  0  0  0  0  0  0  0
   57.9310   32.0380   45.3050 C   0  0  0  0  0  0  0  0  0  0  0  0
   57.5230   33.3180   44.6480 C   0  0  0  0  0  0  0  0  0  0  0  0
   58.0160   34.4800   45.4040 N   0  0  0  0  0  0  0  0  0  0  0  0
   59.4860   34.5600   45.4270 C   0  0  0  0  0  0  0  0  0  0  0  0
   60.0110   34.2920   46.8070 C   0  0  0  0  0  0  0  0  0  0  0  0
   59.2800   34.3190   47.9910 C   0  0  0  0  0  0  0  0  0  0  0  0
   60.0610   33.9450   49.0310 N   0  0  0  0  0  0  0  0  0  0  0  0
   59.6550   33.8490   50.4300 C   0  0  0  0  0  0  0  0  0  0  0  0
   61.2790   33.6800   48.5190 C   0  0  0  0  0  0  0  0  0  0  0  0
   62.4190   33.2400   49.1970 C   0  0  0  0  0  0  0  0  0  0  0  0
   63.5830   33.0030   48.4440 C   0  0  0  0  0  0  0  0  0  0  0  0
   63.5840   33.2040   47.0460 C   0  0  0  0  0  0  0  0  0  0  0  0
   62.4210   33.6420   46.3870 C   0  0  0  0  0  0  0  0  0  0  0  0
   61.2830   33.8750   47.1610 C   0  0  0  0  0  0  0  0  0  0  0  0
   58.5130   30.9500   44.6500 C   0  0  0  0  0  0  0  0  0  0  0  0
   58.8180   30.0850   45.6190 N   0  0  0  0  0  0  0  0  0  0  0  0
   61.5660   28.1271   45.3557 H   0  0  0  0  0  0  0  0  0  0  0  0
   60.1778   27.9560   44.2286 H   0  0  0  0  0  0  0  0  0  0  0  0
   61.1542   29.4637   44.2286 H   0  0  0  0  0  0  0  0  0  0  0  0
   60.9090   28.8430   47.7050 H   0  0  0  0  0  0  0  0  0  0  0  0
   59.2024   29.9588   49.8614 H   0  0  0  0  0  0  0  0  0  0  0  0
   60.4392   31.0979   49.2293 H   0  0  0  0  0  0  0  0  0  0  0  0
   58.7046   31.5649   49.2293 H   0  0  0  0  0  0  0  0  0  0  0  0
   57.9391   33.3483   43.6302 H   0  0  0  0  0  0  0  0  0  0  0  0
   56.4243   33.3610   44.6170 H   0  0  0  0  0  0  0  0  0  0  0  0
   57.6610   35.3350   44.9140 H   0  0  0  0  0  0  0  0  0  0  0  0
   59.8990   33.8137   44.7324 H   0  0  0  0  0  0  0  0  0  0  0  0
   59.7895   35.5730   45.1240 H   0  0  0  0  0  0  0  0  0  0  0  0
   58.2203   34.6033   48.0701 H   0  0  0  0  0  0  0  0  0  0  0  0
   60.5202   34.0536   51.0777 H   0  0  0  0  0  0  0  0  0  0  0  0
   58.8628   34.5846   50.6332 H   0  0  0  0  0  0  0  0  0  0  0  0
   59.2761   32.8365   50.6332 H   0  0  0  0  0  0  0  0  0  0  0  0
   62.4064   33.0839   50.2858 H   0  0  0  0  0  0  0  0  0  0  0  0
   64.4986   32.6588   48.9472 H   0  0  0  0  0  0  0  0  0  0  0  0
   64.5011   33.0166   46.4682 H   0  0  0  0  0  0  0  0  0  0  0  0
   62.4087   33.7958   45.2979 H   0  0  0  0  0  0  0  0  0  0  0  0
   58.6830   30.8320   43.5696 H   0  0  0  0  0  0  0  0  0  0  0  0
  1  2  1  0
  2  3  2  0
  3  4  1  0
  4  5  1  0
  4  6  1  0
  6  7  2  0
  7  8  1  0
  8  9  1  0
  9 10  1  0
 10 11  1  0
 11 12  1  0
 12 13  2  0
 13 14  1  0
 14 15  1  0
 14 16  1  0
 16 17  2  0
 17 18  1  0
 18 19  2  0
 19 20  1  0
 20 21  2  0
  8 22  2  0
 22 23  1  0
 23  2  1  0
 23  6  1  0
 21 12  1  0
 21 16  1  0
  1 24  1  0
  1 25  1  0
  1 26  1  0
  3 27  1  0
  5 28  1  0
  5 29  1  0
  5 30  1  0
  9 31  1  0
  9 32  1  0
 10 33  1  0
 11 34  1  0
 11 35  1  0
 13 36  1  0
 15 37  1  0
 15 38  1  0
 15 39  1  0
 17 40  1  0
 18 41  1  0
 19 42  1  0
 20 43  1  0
 22 44  1  0
M  CHG  1   3   1
M  END
>  <UniqueID>  (21) 
18

>  <SMILES>  (21) 
Cc1[nH+]n(C)c2nc(CNCc3cn(C)c4ccccc34)cn12

>  <Energy>  (21) 
166.9512815987788

>  <Genealogy>  (21) 
Cc1[nH+]n(C)c2nc(CNCc3cn(C)c4ccccc34)cn12 (protonated)
Cc1[nH+]n(C)c2nc(CNCc3cn(C)c4ccccc34)cn12 (3D coordinates assigned)
Cc1[nH+]n(C)c2nc(CNCc3cn(C)c4ccccc34)cn12 (optimized conformer: 166.9512815987788 kcal/mol)

>  <smiles>  (21) 
Cc1nn(C)c2nc(CNCc3cn(C)c4ccccc34)cn12

>  <score_type>  (21) 
oracle

>  <origin>  (21) 
adg

>  <m_score__min__energy>  (21) 
-6.4199999999999999

>  <m_primary>  (21) 
energy

$$$$
21:0
     RDKit          3D

 62 66  0  0  0  0  0  0  0  0999 V2000
   64.9460   32.0290   50.4650 C   0  0  0  0  0  0  0  0  0  0  0  0
   64.6950   32.4620   49.1330 O   0  0  0  0  0  0  0  0  0  0  0  0
   63.4430   32.4070   48.5020 C   0  0  0  0  0  0  0  0  0  0  0  0
   62.7170   31.2150   48.5700 C   0  0  0  0  0  0  0  0  0  0  0  0
   61.4740   31.0940   47.9460 C   0  0  0  0  0  0  0  0  0  0  0  0
   60.9430   32.1560   47.1900 C   0  0  0  0  0  0  0  0  0  0  0  0
   61.6330   33.4060   47.2080 C   0  0  0  0  0  0  0  0  0  0  0  0
   61.0420   34.5600   46.6420 C   0  0  0  0  0  0  0  0  0  0  0  0
   59.7620   34.5040   46.0840 C   0  0  0  0  0  0  0  0  0  0  0  0
   59.1210   33.2690   46.0340 C   0  0  0  0  0  0  0  0  0  0  0  0
   59.7050   32.1070   46.4940 C   0  0  0  0  0  0  0  0  0  0  0  0
   58.8960   31.0580   46.1550 N   0  0  0  0  0  0  0  0  0  0  0  0
   59.1700   29.6050   46.1750 C   0  0  2  0  0  0  0  0  0  0  0  0
   59.1600   28.9800   44.7500 C   0  0  0  0  0  0  0  0  0  0  0  0
   58.0360   27.9480   44.5770 C   0  0  0  0  0  0  0  0  0  0  0  0
   58.1370   26.8690   45.5940 N   0  0  2  0  0  0  0  0  0  0  0  0
   56.9670   26.0060   45.4980 C   0  0  0  0  0  0  0  0  0  0  0  0
   56.1310   26.0560   46.3900 O   0  0  0  0  0  0  0  0  0  0  0  0
   56.6840   25.0090   44.3690 C   0  0  0  0  0  0  0  0  0  0  0  0
   56.8720   23.5620   44.6010 N   0  0  0  0  0  0  0  0  0  0  0  0
   56.8240   22.6800   43.4250 C   0  0  0  0  0  0  0  0  0  0  0  0
   57.7620   21.4670   43.6270 C   0  0  0  0  0  0  0  0  0  0  0  0
   58.8970   21.8320   44.5830 C   0  0  0  0  0  0  0  0  0  0  0  0
   58.2210   23.1110   45.5800 S   0  0  0  0  0  0  0  0  0  0  0  0
   57.7430   22.5630   46.8950 O   0  0  0  0  0  0  0  0  0  0  0  0
   59.1880   24.2380   45.8080 O   0  0  0  0  0  0  0  0  0  0  0  0
   58.3060   27.3740   46.9920 C   0  0  0  0  0  0  0  0  0  0  0  0
   58.1860   28.9010   47.1260 C   0  0  0  0  0  0  0  0  0  0  0  0
   57.8050   31.6550   45.5960 C   0  0  0  0  0  0  0  0  0  0  0  0
   56.7950   31.0210   45.1870 O   0  0  0  0  0  0  0  0  0  0  0  0
   57.9170   32.9970   45.5020 N   0  0  0  0  0  0  0  0  0  0  0  0
   56.9860   33.9330   44.8760 C   0  0  0  0  0  0  0  0  0  0  0  0
   62.8880   33.5090   47.8300 C   0  0  0  0  0  0  0  0  0  0  0  0
   64.5238   32.7573   51.1730 H   0  0  0  0  0  0  0  0  0  0  0  0
   64.4771   31.0470   50.6258 H   0  0  0  0  0  0  0  0  0  0  0  0
   66.0311   31.9479   50.6258 H   0  0  0  0  0  0  0  0  0  0  0  0
   63.1310   30.3593   49.1234 H   0  0  0  0  0  0  0  0  0  0  0  0
   60.9035   30.1588   48.0462 H   0  0  0  0  0  0  0  0  0  0  0  0
   61.5954   35.5107   46.6411 H   0  0  0  0  0  0  0  0  0  0  0  0
   59.2745   35.4102   45.6952 H   0  0  0  0  0  0  0  0  0  0  0  0
   60.1903   29.4534   46.5572 H   0  0  0  0  0  0  0  0  0  0  0  0
   59.0200   29.7834   44.0118 H   0  0  0  0  0  0  0  0  0  0  0  0
   60.1193   28.4626   44.6015 H   0  0  0  0  0  0  0  0  0  0  0  0
   57.0649   28.4534   44.6850 H   0  0  0  0  0  0  0  0  0  0  0  0
   58.1285   27.4958   43.5785 H   0  0  0  0  0  0  0  0  0  0  0  0
   58.9920   26.3270   45.3660 H   0  0  0  0  0  0  0  0  0  0  0  0
   55.6333   25.1503   44.0756 H   0  0  0  0  0  0  0  0  0  0  0  0
   57.4528   25.2484   43.6196 H   0  0  0  0  0  0  0  0  0  0  0  0
   55.7938   22.3224   43.2811 H   0  0  0  0  0  0  0  0  0  0  0  0
   57.1533   23.2443   42.5401 H   0  0  0  0  0  0  0  0  0  0  0  0
   57.1871   20.6292   44.0483 H   0  0  0  0  0  0  0  0  0  0  0  0
   58.1895   21.1777   42.6556 H   0  0  0  0  0  0  0  0  0  0  0  0
   59.1828   20.9664   45.1987 H   0  0  0  0  0  0  0  0  0  0  0  0
   59.8099   22.1453   44.0552 H   0  0  0  0  0  0  0  0  0  0  0  0
   57.5335   26.9100   47.6228 H   0  0  0  0  0  0  0  0  0  0  0  0
   59.3262   27.1071   47.3048 H   0  0  0  0  0  0  0  0  0  0  0  0
   57.1594   29.2067   46.8757 H   0  0  0  0  0  0  0  0  0  0  0  0
   58.4255   29.1870   48.1608 H   0  0  0  0  0  0  0  0  0  0  0  0
   56.4390   34.4829   45.6560 H   0  0  0  0  0  0  0  0  0  0  0  0
   57.5458   34.6438   44.2504 H   0  0  0  0  0  0  0  0  0  0  0  0
   56.2723   33.3770   44.2504 H   0  0  0  0  0  0  0  0  0  0  0  0
   63.4405   34.4594   47.7908 H   0  0  0  0  0  0  0  0  0  0  0  0
  1  2  1  0
  2  3  1  0
  3  4  2  0
  4  5  1  0
  5  6  2  0
  6  7  1  0
  7  8  1  0
  8  9  2  0
  9 10  1  0
 10 11  2  0
 11 12  1  0
 12 13  1  0
 13 14  1  0
 14 15  1  0
 15 16  1  0
 16 17  1  0
 17 18  2  0
 17 19  1  0
 19 20  1  0
 20 21  1  0
 21 22  1  0
 22 23  1  0
 23 24  1  0
 24 25  2  0
 24 26  2  0
 16 27  1  0
 27 28  1  0
 12 29  1  0
 29 30  2  0
 29 31  1  0
 31 32  1  0
  7 33  2  0
 33  3  1  0
 11  6  1  0
 28 13  1  0
 31 10  1  0
 24 20  1  0
  1 34  1  0
  1 35  1  0
  1 36  1  0
  4 37  1  0
  5 38  1  0
  8 39  1  0
  9 40  1  0
 13 41  1  1
 14 42  1  0
 14 43  1  0
 15 44  1  0
 15 45  1  0
 16 46  1  6
 19 47  1  0
 19 48  1  0
 21 49  1  0
 21 50  1  0
 22 51  1  0
 22 52  1  0
 23 53  1  0
 23 54  1  0
 27 55  1  0
 27 56  1  0
 28 57  1  0
 28 58  1  0
 32 59  1  0
 32 60  1  0
 32 61  1  0
 33 62  1  0
M  CHG  1  16   1
M  END
>  <UniqueID>  (22) 
19

>  <SMILES>  (22) 
COc1ccc2c(ccc3c2n(C2CC[NH+](C(=O)CN4CCCS4(=O)=O)CC2)c(=O)n3C)c1

>  <Energy>  (22) 
142.38623017288117

>  <Genealogy>  (22) 
COc1ccc2c(ccc3c2n(C2CC[NH+](C(=O)CN4CCCS4(=O)=O)CC2)c(=O)n3C)c1 (protonated)
COc1ccc2c(ccc3c2n(C2CC[NH+](C(=O)CN4CCCS4(=O)=O)CC2)c(=O)n3C)c1 (3D coordinates assigned)
COc1ccc2c(ccc3c2n(C2CC[NH+](C(=O)CN4CCCS4(=O)=O)CC2)c(=O)n3C)c1 (nonaromatic ring conformer: 142.38623017288117 kcal/mol)

>  <smiles>  (22) 
COc1ccc2c(ccc3c2n(C2CCN(C(=O)CN4CCCS4(=O)=O)CC2)c(=O)n3C)c1

>  <score_type>  (22) 
oracle

>  <origin>  (22) 
adg

>  <m_score__min__energy>  (22) 
-8.6500000000000004

>  <m_primary>  (22) 
energy

$$$$
22:0
     RDKit          3D

 37 39  0  0  0  0  0  0  0  0999 V2000
   55.4232   29.4424   45.7453 H   0  0  0  0  0  0  0  0  0  0  0  0
   56.1570   28.9570   45.0850 C   0  0  0  0  0  0  0  0  0  0  0  0
   56.3530   29.4250   43.8930 N   0  0  0  0  0  0  0  0  0  0  0  0
   56.2620   30.8460   43.5780 C   0  0  0  0  0  0  0  0  0  0  0  0
   55.6886   30.9768   42.6484 H   0  0  0  0  0  0  0  0  0  0  0  0
   55.7572   31.3670   44.4049 H   0  0  0  0  0  0  0  0  0  0  0  0
   57.6610   31.4330   43.3960 C   0  0  0  0  0  0  0  0  0  0  0  0
   58.3925   30.6120   43.3669 H   0  0  0  0  0  0  0  0  0  0  0  0
   57.6770   32.0039   42.4559 H   0  0  0  0  0  0  0  0  0  0  0  0
   58.0170   32.3670   44.5240 C   0  0  0  0  0  0  0  0  0  0  0  0
   57.8180   31.9760   45.8590 C   0  0  0  0  0  0  0  0  0  0  0  0
   57.4283   30.9721   46.0833 H   0  0  0  0  0  0  0  0  0  0  0  0
   58.1130   32.8570   46.9030 C   0  0  0  0  0  0  0  0  0  0  0  0
   57.9611   32.5430   47.9462 H   0  0  0  0  0  0  0  0  0  0  0  0
   58.6010   34.1370   46.6230 C   0  0  0  0  0  0  0  0  0  0  0  0
   58.8345   34.8289   47.4457 H   0  0  0  0  0  0  0  0  0  0  0  0
   58.7920   34.5370   45.2980 C   0  0  0  0  0  0  0  0  0  0  0  0
   59.1752   35.5445   45.0786 H   0  0  0  0  0  0  0  0  0  0  0  0
   58.4970   33.6590   44.2500 C   0  0  0  0  0  0  0  0  0  0  0  0
   58.6412   33.9808   43.2081 H   0  0  0  0  0  0  0  0  0  0  0  0
   56.9090   27.7760   45.5700 C   0  0  0  0  0  0  0  0  0  0  0  0
   56.1660   26.6880   46.0720 C   0  0  0  0  0  0  0  0  0  0  0  0
   54.7740   26.7100   46.0490 O   0  0  0  0  0  0  0  0  0  0  0  0
   56.8090   25.5790   46.6210 C   0  0  0  0  0  0  0  0  0  0  0  0
   56.2137   24.7366   47.0032 H   0  0  0  0  0  0  0  0  0  0  0  0
   58.1980   25.5300   46.6890 C   0  0  0  0  0  0  0  0  0  0  0  0
   58.6933   24.6629   47.1504 H   0  0  0  0  0  0  0  0  0  0  0  0
   58.9680   26.5790   46.1730 C   0  0  0  0  0  0  0  0  0  0  0  0
   60.3700   26.5020   46.2230 C   0  0  0  0  0  0  0  0  0  0  0  0
   60.8544   25.6352   46.6963 H   0  0  0  0  0  0  0  0  0  0  0  0
   61.1500   27.5200   45.6750 C   0  0  0  0  0  0  0  0  0  0  0  0
   62.2471   27.4608   45.7292 H   0  0  0  0  0  0  0  0  0  0  0  0
   60.5420   28.6120   45.0590 C   0  0  0  0  0  0  0  0  0  0  0  0
   61.1622   29.4046   44.6150 H   0  0  0  0  0  0  0  0  0  0  0  0
   59.1500   28.7060   45.0020 C   0  0  0  0  0  0  0  0  0  0  0  0
   58.6832   29.5648   44.4974 H   0  0  0  0  0  0  0  0  0  0  0  0
   58.3330   27.7090   45.5860 C   0  0  0  0  0  0  0  0  0  0  0  0
  1  2  1  0
  2  3  2  0
  3  4  1  0
  4  5  1  0
  4  6  1  0
  4  7  1  0
  7  8  1  0
  7  9  1  0
  7 10  1  0
 10 11  2  0
 11 12  1  0
 11 13  1  0
 13 14  1  0
 13 15  2  0
 15 16  1  0
 15 17  1  0
 17 18  1  0
 17 19  2  0
 19 20  1  0
  2 21  1  0
 21 22  2  0
 22 23  1  0
 22 24  1  0
 24 25  1  0
 24 26  2  0
 26 27  1  0
 26 28  1  0
 28 29  2  0
 29 30  1  0
 29 31  1  0
 31 32  1  0
 31 33  2  0
 33 34  1  0
 33 35  1  0
 35 36  1  0
 35 37  2  0
 19 10  1  0
 37 21  1  0
 37 28  1  0
M  CHG  1  23  -1
M  END
>  <UniqueID>  (23) 
20

>  <SMILES>  (23) 
[O-]c1ccc2ccccc2c1/C=N/CCc1ccccc1

>  <Energy>  (23) 
44.805603053456615

>  <Genealogy>  (23) 
[O-]c1ccc2ccccc2c1C=NCCc1ccccc1 (protonated)
[O-]c1ccc2ccccc2c1/C=N/CCc1ccccc1 (cis-trans isomerization)
[O-]c1ccc2ccccc2c1/C=N/CCc1ccccc1 (3D coordinates assigned)
[O-]c1ccc2ccccc2c1/C=N/CCc1ccccc1 (optimized conformer: 44.805603053456615 kcal/mol)

>  <smiles>  (23) 
Oc1ccc2ccccc2c1C=NCCc1ccccc1

>  <score_type>  (23) 
oracle

>  <origin>  (23) 
adg

>  <m_score__min__energy>  (23) 
-11.74

>  <m_primary>  (23) 
energy

$$$$
23:0
     RDKit          3D

 26 28  0  0  0  0  0  0  0  0999 V2000
   57.3830   23.2770   47.1840 N   0  0  0  0  0  0  0  0  0  0  0  0
   57.4630   24.3070   46.6630 C   0  0  0  0  0  0  0  0  0  0  0  0
   57.5620   25.5850   46.0160 C   0  0  0  0  0  0  0  0  0  0  0  0
   57.9820   25.7970   44.7100 C   0  0  0  0  0  0  0  0  0  0  0  0
   57.9780   27.1500   44.3490 C   0  0  0  0  0  0  0  0  0  0  0  0
   57.5550   27.9910   45.3750 C   0  0  0  0  0  0  0  0  0  0  0  0
   57.4430   29.4540   45.3110 C   0  0  0  0  0  0  0  0  0  0  0  0
   58.3540   30.3190   45.7910 N   0  0  0  0  0  0  0  0  0  0  0  0
   57.8070   31.5160   45.4950 C   0  0  0  0  0  0  0  0  0  0  0  0
   58.4410   32.8220   45.7770 C   0  0  0  0  0  0  0  0  0  0  0  0
   58.5980   33.7510   44.7290 C   0  0  0  0  0  0  0  0  0  0  0  0
   58.1880   33.4530   43.4700 F   0  0  0  0  0  0  0  0  0  0  0  0
   59.2080   34.9870   44.9640 C   0  0  0  0  0  0  0  0  0  0  0  0
   59.6580   35.3140   46.2430 C   0  0  0  0  0  0  0  0  0  0  0  0
   59.4940   34.4110   47.2940 C   0  0  0  0  0  0  0  0  0  0  0  0
   58.8850   33.1690   47.0740 C   0  0  0  0  0  0  0  0  0  0  0  0
   58.6230   32.1250   48.4680 Cl  0  0  0  0  0  0  0  0  0  0  0  0
   56.6280   31.3770   44.8550 N   0  0  0  0  0  0  0  0  0  0  0  0
   56.4360   30.0930   44.7660 O   0  0  0  0  0  0  0  0  0  0  0  0
   57.1870   27.0590   46.7280 S   0  0  0  0  0  0  0  0  0  0  0  0
   58.2860   24.9874   44.0302 H   0  0  0  0  0  0  0  0  0  0  0  0
   58.2788   27.5121   43.3548 H   0  0  0  0  0  0  0  0  0  0  0  0
   59.2750   30.1150   46.2370 H   0  0  0  0  0  0  0  0  0  0  0  0
   59.3333   35.7030   44.1384 H   0  0  0  0  0  0  0  0  0  0  0  0
   60.1427   36.2848   46.4234 H   0  0  0  0  0  0  0  0  0  0  0  0
   59.8453   34.6763   48.3021 H   0  0  0  0  0  0  0  0  0  0  0  0
  1  2  3  0
  2  3  1  0
  3  4  2  0
  4  5  1  0
  5  6  2  0
  6  7  1  0
  7  8  2  0
  8  9  1  0
  9 10  1  0
 10 11  2  0
 11 12  1  0
 11 13  1  0
 13 14  2  0
 14 15  1  0
 15 16  2  0
 16 17  1  0
  9 18  2  0
 18 19  1  0
  6 20  1  0
 20  3  1  0
 19  7  1  0
 16 10  1  0
  4 21  1  0
  5 22  1  0
  8 23  1  0
 13 24  1  0
 14 25  1  0
 15 26  1  0
M  CHG  1   8   1
M  END
>  <UniqueID>  (24) 
21

>  <SMILES>  (24) 
N#Cc1ccc(-c2[nH+]c(-c3c(F)cccc3Cl)no2)s1

>  <Energy>  (24) 
94.73310569443979

>  <Genealogy>  (24) 
N#Cc1ccc(-c2[nH+]c(-c3c(F)cccc3Cl)no2)s1 (protonated)
N#Cc1ccc(-c2[nH+]c(-c3c(F)cccc3Cl)no2)s1 (3D coordinates assigned)
N#Cc1ccc(-c2[nH+]c(-c3c(F)cccc3Cl)no2)s1 (optimized conformer: 94.73310569443979 kcal/mol)

>  <smiles>  (24) 
N#Cc1ccc(-c2nc(-c3c(F)cccc3Cl)no2)s1

>  <score_type>  (24) 
oracle

>  <origin>  (24) 
adg

>  <m_score__min__energy>  (24) 
-5.7800000000000002

>  <m_primary>  (24) 
energy

$$$$
24:0
     RDKit          3D

 88 92  0  0  0  0  0  0  0  0999 V2000
   57.7730   27.7310   43.3210 C   0  0  0  0  0  0  0  0  0  0  0  0
   59.0710   27.9980   44.0780 C   0  0  0  0  0  0  0  0  0  0  0  0
   58.8850   29.1130   45.1000 C   0  0  0  0  0  0  0  0  0  0  0  0
   59.0720   28.9070   46.4910 C   0  0  0  0  0  0  0  0  0  0  0  0
   59.4570   27.5300   47.0420 C   0  0  0  0  0  0  0  0  0  0  0  0
   58.5360   26.4920   46.5620 N   0  0  0  0  0  0  0  0  0  0  0  0
   57.1290   26.7040   46.4490 C   0  0  0  0  0  0  0  0  0  0  0  0
   56.6740   27.8530   46.1930 O   0  0  0  0  0  0  0  0  0  0  0  0
   56.2370   25.6180   46.7030 N   0  0  0  0  0  0  0  0  0  0  0  0
   55.4510   24.9790   45.6520 C   0  0  0  0  0  0  0  0  0  0  0  0
   56.2570   23.8790   45.0150 C   0  0  0  0  0  0  0  0  0  0  0  0
   57.4840   23.4790   45.5740 C   0  0  0  0  0  0  0  0  0  0  0  0
   58.2620   22.5070   44.9410 C   0  0  0  0  0  0  0  0  0  0  0  0
   57.8200   21.9240   43.7490 C   0  0  0  0  0  0  0  0  0  0  0  0
   56.6120   22.3310   43.1760 C   0  0  0  0  0  0  0  0  0  0  0  0
   55.8350   23.3100   43.8010 C   0  0  0  0  0  0  0  0  0  0  0  0
   58.8750   30.0050   47.3770 C   0  0  0  0  0  0  0  0  0  0  0  0
   59.0280   29.8570   48.7780 C   0  0  0  0  0  0  0  0  0  0  0  0
   58.8300   30.9240   49.6670 C   0  0  0  0  0  0  0  0  0  0  0  0
   58.9430   30.6800   51.1730 C   0  0  0  0  0  0  0  0  0  0  0  0
   59.6220   31.8310   51.9640 C   0  0  0  0  0  0  0  0  0  0  0  0
   58.6690   32.9190   52.4880 C   0  0  0  0  0  0  0  0  0  0  0  0
   57.4250   32.3290   53.1540 C   0  0  0  0  0  0  0  0  0  0  0  0
   56.6930   31.3740   52.2090 C   0  0  0  0  0  0  0  0  0  0  0  0
   57.6060   30.2160   51.7960 C   0  0  0  0  0  0  0  0  0  0  0  0
   58.4860   32.1680   49.1380 C   0  0  0  0  0  0  0  0  0  0  0  0
   58.3560   32.3520   47.7660 C   0  0  0  0  0  0  0  0  0  0  0  0
   58.5180   31.2810   46.8530 C   0  0  0  0  0  0  0  0  0  0  0  0
   58.3490   31.4510   45.4880 N   0  0  0  0  0  0  0  0  0  0  0  0
   57.9340   32.7460   44.8880 C   0  0  0  0  0  0  0  0  0  0  0  0
   59.0700   33.7880   44.8870 C   0  0  0  0  0  0  0  0  0  0  0  0
   58.8390   34.9640   45.8510 C   0  0  0  0  0  0  0  0  0  0  0  0
   60.0280   35.2730   46.6690 N   0  0  0  0  0  0  0  0  0  0  0  0
   60.8250   34.1400   47.1990 C   0  0  0  0  0  0  0  0  0  0  0  0
   62.0890   33.8230   46.3460 C   0  0  0  0  0  0  0  0  0  0  0  0
   63.3810   33.7180   47.1720 C   0  0  0  0  0  0  0  0  0  0  0  0
   63.2320   32.8150   48.4110 C   0  0  0  0  0  0  0  0  0  0  0  0
   61.8850   32.9720   49.1540 C   0  0  0  0  0  0  0  0  0  0  0  0
   61.1180   34.2240   48.7130 C   0  0  0  0  0  0  0  0  0  0  0  0
   58.5650   30.4010   44.6280 C   0  0  0  0  0  0  0  0  0  0  0  0
   58.4740   30.5870   43.3830 O   0  0  0  0  0  0  0  0  0  0  0  0
   56.9573   27.5632   44.0396 H   0  0  0  0  0  0  0  0  0  0  0  0
   57.5321   28.5984   42.6889 H   0  0  0  0  0  0  0  0  0  0  0  0
   57.8940   26.8389   42.6889 H   0  0  0  0  0  0  0  0  0  0  0  0
   59.3795   27.0797   44.5990 H   0  0  0  0  0  0  0  0  0  0  0  0
   59.8414   28.3076   43.3564 H   0  0  0  0  0  0  0  0  0  0  0  0
   60.4777   27.2843   46.7137 H   0  0  0  0  0  0  0  0  0  0  0  0
   59.4019   27.5653   48.1401 H   0  0  0  0  0  0  0  0  0  0  0  0
   58.8940   25.5140   46.4780 H   0  0  0  0  0  0  0  0  0  0  0  0
   54.5338   24.5555   46.0873 H   0  0  0  0  0  0  0  0  0  0  0  0
   55.1864   25.7260   44.8891 H   0  0  0  0  0  0  0  0  0  0  0  0
   57.8323   23.9334   46.5133 H   0  0  0  0  0  0  0  0  0  0  0  0
   59.2227   22.1999   45.3801 H   0  0  0  0  0  0  0  0  0  0  0  0
   58.4239   21.1442   43.2619 H   0  0  0  0  0  0  0  0  0  0  0  0
   56.2724   21.8801   42.2319 H   0  0  0  0  0  0  0  0  0  0  0  0
   54.8903   23.6363   43.3415 H   0  0  0  0  0  0  0  0  0  0  0  0
   59.3112   28.8736   49.1815 H   0  0  0  0  0  0  0  0  0  0  0  0
   59.6449   29.8391   51.2740 H   0  0  0  0  0  0  0  0  0  0  0  0
   60.1418   31.3898   52.8272 H   0  0  0  0  0  0  0  0  0  0  0  0
   60.2957   32.3326   51.2537 H   0  0  0  0  0  0  0  0  0  0  0  0
   59.2060   33.5350   53.2243 H   0  0  0  0  0  0  0  0  0  0  0  0
   58.3377   33.5191   51.6277 H   0  0  0  0  0  0  0  0  0  0  0  0
   57.7281   31.7785   54.0568 H   0  0  0  0  0  0  0  0  0  0  0  0
   56.7441   33.1531   53.4132 H   0  0  0  0  0  0  0  0  0  0  0  0
   55.8061   30.9703   52.7193 H   0  0  0  0  0  0  0  0  0  0  0  0
   56.3948   31.9284   51.3069 H   0  0  0  0  0  0  0  0  0  0  0  0
   57.8281   29.6119   52.6880 H   0  0  0  0  0  0  0  0  0  0  0  0
   57.0717   29.6400   51.0261 H   0  0  0  0  0  0  0  0  0  0  0  0
   58.3149   33.0165   49.8168 H   0  0  0  0  0  0  0  0  0  0  0  0
   58.1214   33.3548   47.3796 H   0  0  0  0  0  0  0  0  0  0  0  0
   57.6177   32.5682   43.8496 H   0  0  0  0  0  0  0  0  0  0  0  0
   57.1121   33.1486   45.4983 H   0  0  0  0  0  0  0  0  0  0  0  0
   60.0036   33.2826   45.1750 H   0  0  0  0  0  0  0  0  0  0  0  0
   59.1138   34.2111   43.8726 H   0  0  0  0  0  0  0  0  0  0  0  0
   58.5759   35.8551   45.2621 H   0  0  0  0  0  0  0  0  0  0  0  0
   58.0294   34.6761   46.5378 H   0  0  0  0  0  0  0  0  0  0  0  0
   59.7680   35.9260   47.4450 H   0  0  0  0  0  0  0  0  0  0  0  0
   60.1655   33.2661   47.0919 H   0  0  0  0  0  0  0  0  0  0  0  0
   61.9282   32.8652   45.8294 H   0  0  0  0  0  0  0  0  0  0  0  0
   62.2224   34.6604   45.6453 H   0  0  0  0  0  0  0  0  0  0  0  0
   64.1742   33.3055   46.5311 H   0  0  0  0  0  0  0  0  0  0  0  0
   63.6259   34.7291   47.5295 H   0  0  0  0  0  0  0  0  0  0  0  0
   63.3272   31.7679   48.0877 H   0  0  0  0  0  0  0  0  0  0  0  0
   64.0189   33.1172   49.1177 H   0  0  0  0  0  0  0  0  0  0  0  0
   61.2640   32.0871   48.9507 H   0  0  0  0  0  0  0  0  0  0  0  0
   62.1033   33.0726   50.2274 H   0  0  0  0  0  0  0  0  0  0  0  0
   60.1699   34.2877   49.2672 H   0  0  0  0  0  0  0  0  0  0  0  0
   61.7242   35.1181   48.9207 H   0  0  0  0  0  0  0  0  0  0  0  0
  1  2  1  0
  2  3  1  0
  3  4  2  0
  4  5  1  0
  5  6  1  0
  6  7  1  0
  7  8  2  0
  7  9  1  0
  9 10  1  0
 10 11  1  0
 11 12  2  0
 12 13  1  0
 13 14  2  0
 14 15  1  0
 15 16  2  0
  4 17  1  0
 17 18  2  0
 18 19  1  0
 19 20  1  0
 20 21  1  0
 21 22  1  0
 22 23  1  0
 23 24  1  0
 24 25  1  0
 19 26  2  0
 26 27  1  0
 27 28  2  0
 28 29  1  0
 29 30  1  0
 30 31  1  0
 31 32  1  0
 32 33  1  0
 33 34  1  0
 34 35  1  0
 35 36  1  0
 36 37  1  0
 37 38  1  0
 38 39  1  0
 29 40  1  0
 40 41  2  0
 40  3  1  0
 16 11  1  0
 28 17  1  0
 39 34  1  0
 25 20  1  0
  1 42  1  0
  1 43  1  0
  1 44  1  0
  2 45  1  0
  2 46  1  0
  5 47  1  0
  5 48  1  0
  6 49  1  0
 10 50  1  0
 10 51  1  0
 12 52  1  0
 13 53  1  0
 14 54  1  0
 15 55  1  0
 16 56  1  0
 18 57  1  0
 20 58  1  0
 21 59  1  0
 21 60  1  0
 22 61  1  0
 22 62  1  0
 23 63  1  0
 23 64  1  0
 24 65  1  0
 24 66  1  0
 25 67  1  0
 25 68  1  0
 26 69  1  0
 27 70  1  0
 30 71  1  0
 30 72  1  0
 31 73  1  0
 31 74  1  0
 32 75  1  0
 32 76  1  0
 33 77  1  0
 34 78  1  0
 35 79  1  0
 35 80  1  0
 36 81  1  0
 36 82  1  0
 37 83  1  0
 37 84  1  0
 38 85  1  0
 38 86  1  0
 39 87  1  0
 39 88  1  0
M  CHG  1   9  -1
M  END
>  <UniqueID>  (25) 
22

>  <SMILES>  (25) 
CCc1c(CNC(=O)[N-]Cc2ccccc2)c2cc(C3CCCCC3)ccc2n(CCCNC2CCCCC2)c1=O

>  <Energy>  (25) 
108.89892761396257

>  <Genealogy>  (25) 
CCc1c(CNC(=O)[N-]Cc2ccccc2)c2cc(C3CCCCC3)ccc2n(CCCNC2CCCCC2)c1=O (protonated)
CCc1c(CNC(=O)[N-]Cc2ccccc2)c2cc(C3CCCCC3)ccc2n(CCCNC2CCCCC2)c1=O (3D coordinates assigned)
CCc1c(CNC(=O)[N-]Cc2ccccc2)c2cc(C3CCCCC3)ccc2n(CCCNC2CCCCC2)c1=O (nonaromatic ring conformer: 108.89892761396257 kcal/mol)

>  <smiles>  (25) 
CCc1c(CNC(=O)NCc2ccccc2)c2cc(C3CCCCC3)ccc2n(CCCNC2CCCCC2)c1=O

>  <score_type>  (25) 
oracle

>  <origin>  (25) 
adg

>  <m_score__min__energy>  (25) 
-12.789999999999999

>  <m_primary>  (25) 
energy

$$$$
25:0
     RDKit          3D

 42 45  0  0  0  0  0  0  0  0999 V2000
   56.8580   30.4060   43.9890 C   0  0  0  0  0  0  0  0  0  0  0  0
   56.9710   31.1090   45.2220 O   0  0  0  0  0  0  0  0  0  0  0  0
   57.7550   32.2570   45.4110 C   0  0  0  0  0  0  0  0  0  0  0  0
   57.3950   33.4260   44.7300 C   0  0  0  0  0  0  0  0  0  0  0  0
   58.1430   34.5940   44.8860 C   0  0  0  0  0  0  0  0  0  0  0  0
   59.2530   34.6090   45.7320 C   0  0  0  0  0  0  0  0  0  0  0  0
   59.6220   33.4530   46.4360 C   0  0  0  0  0  0  0  0  0  0  0  0
   60.7870   33.4860   47.3470 C   0  0  0  0  0  0  0  0  0  0  0  0
   62.0420   33.1430   46.9710 N   0  0  0  0  0  0  0  0  0  0  0  0
   62.7790   33.2320   48.0950 C   0  0  0  0  0  0  0  0  0  0  0  0
   64.1430   32.9640   48.2120 C   0  0  0  0  0  0  0  0  0  0  0  0
   64.7320   33.1240   49.4760 C   0  0  0  0  0  0  0  0  0  0  0  0
   63.9570   33.5430   50.5750 C   0  0  0  0  0  0  0  0  0  0  0  0
   62.5880   33.7960   50.4000 C   0  0  0  0  0  0  0  0  0  0  0  0
   62.0570   33.6220   49.1610 N   0  0  0  0  0  0  0  0  0  0  0  0
   60.8040   33.8010   48.7080 C   0  0  0  0  0  0  0  0  0  0  0  0
   59.7110   34.2580   49.5200 N   0  0  0  0  0  0  0  0  0  0  0  0
   59.0440   33.4450   50.5000 C   0  0  0  0  0  0  0  0  0  0  0  0
   58.5040   32.1890   50.1660 C   0  0  0  0  0  0  0  0  0  0  0  0
   57.8800   31.4080   51.1430 C   0  0  0  0  0  0  0  0  0  0  0  0
   57.7760   31.8780   52.4550 C   0  0  0  0  0  0  0  0  0  0  0  0
   58.2870   33.1350   52.7880 C   0  0  0  0  0  0  0  0  0  0  0  0
   58.9110   33.9200   51.8140 C   0  0  0  0  0  0  0  0  0  0  0  0
   58.8820   32.2720   46.2540 C   0  0  0  0  0  0  0  0  0  0  0  0
   56.6864   29.3382   44.1901 H   0  0  0  0  0  0  0  0  0  0  0  0
   56.0134   30.8109   43.4122 H   0  0  0  0  0  0  0  0  0  0  0  0
   57.7869   30.5258   43.4122 H   0  0  0  0  0  0  0  0  0  0  0  0
   56.5168   33.4240   44.0676 H   0  0  0  0  0  0  0  0  0  0  0  0
   57.8569   35.5054   44.3406 H   0  0  0  0  0  0  0  0  0  0  0  0
   59.8411   35.5314   45.8473 H   0  0  0  0  0  0  0  0  0  0  0  0
   62.3650   32.8390   46.0260 H   0  0  0  0  0  0  0  0  0  0  0  0
   64.7360   32.6388   47.3444 H   0  0  0  0  0  0  0  0  0  0  0  0
   65.8049   32.9210   49.6091 H   0  0  0  0  0  0  0  0  0  0  0  0
   64.4218   33.6710   51.5637 H   0  0  0  0  0  0  0  0  0  0  0  0
   61.9619   34.1260   51.2421 H   0  0  0  0  0  0  0  0  0  0  0  0
   59.3650   35.2320   49.3660 H   0  0  0  0  0  0  0  0  0  0  0  0
   58.5733   31.8204   49.1319 H   0  0  0  0  0  0  0  0  0  0  0  0
   57.4702   30.4220   50.8788 H   0  0  0  0  0  0  0  0  0  0  0  0
   57.2923   31.2588   53.2248 H   0  0  0  0  0  0  0  0  0  0  0  0
   58.1981   33.5079   53.8191 H   0  0  0  0  0  0  0  0  0  0  0  0
   59.2995   34.9145   52.0786 H   0  0  0  0  0  0  0  0  0  0  0  0
   59.1861   31.3520   46.7746 H   0  0  0  0  0  0  0  0  0  0  0  0
  1  2  1  0
  2  3  1  0
  3  4  2  0
  4  5  1  0
  5  6  2  0
  6  7  1  0
  7  8  1  0
  8  9  1  0
  9 10  2  0
 10 11  1  0
 11 12  2  0
 12 13  1  0
 13 14  2  0
 14 15  1  0
 15 16  1  0
 16 17  1  0
 17 18  1  0
 18 19  2  0
 19 20  1  0
 20 21  2  0
 21 22  1  0
 22 23  2  0
  7 24  2  0
 24  3  1  0
 16  8  2  0
 23 18  1  0
 15 10  1  0
  1 25  1  0
  1 26  1  0
  1 27  1  0
  4 28  1  0
  5 29  1  0
  6 30  1  0
  9 31  1  0
 11 32  1  0
 12 33  1  0
 13 34  1  0
 14 35  1  0
 17 36  1  0
 19 37  1  0
 20 38  1  0
 21 39  1  0
 22 40  1  0
 23 41  1  0
 24 42  1  0
M  CHG  1   9   1
M  END
>  <UniqueID>  (26) 
23

>  <SMILES>  (26) 
COc1cccc(-c2[nH+]c3ccccn3c2Nc2ccccc2)c1

>  <Energy>  (26) 
90.17259566350722

>  <Genealogy>  (26) 
COc1cccc(-c2[nH+]c3ccccn3c2Nc2ccccc2)c1 (protonated)
COc1cccc(-c2[nH+]c3ccccn3c2Nc2ccccc2)c1 (3D coordinates assigned)
COc1cccc(-c2[nH+]c3ccccn3c2Nc2ccccc2)c1 (optimized conformer: 90.17259566350722 kcal/mol)

>  <smiles>  (26) 
COc1cccc(-c2nc3ccccn3c2Nc2ccccc2)c1

>  <score_type>  (26) 
oracle

>  <origin>  (26) 
adg

>  <m_score__min__energy>  (26) 
-6.3899999999999997

>  <m_primary>  (26) 
energy

$$$$
26:0
     RDKit          3D

 40 42  0  0  0  0  0  0  0  0999 V2000
   62.2540   33.8350   46.7960 C   0  0  0  0  0  0  0  0  0  0  0  0
   60.7860   33.5990   46.9560 C   0  0  0  0  0  0  0  0  0  0  0  0
   60.1770   33.4090   48.1930 C   0  0  0  0  0  0  0  0  0  0  0  0
   58.5410   33.1190   47.9340 S   0  0  0  0  0  0  0  0  0  0  0  0
   58.6000   33.2110   46.2570 C   0  0  0  0  0  0  0  0  0  0  0  0
   57.4210   33.0680   45.3380 C   0  0  0  0  0  0  0  0  0  0  0  0
   57.2150   31.6710   44.9210 N   0  0  0  0  0  0  0  0  0  0  0  0
   57.3790   31.5030   43.4650 C   0  0  0  0  0  0  0  0  0  0  0  0
   56.8700   30.1320   42.9810 C   0  0  0  0  0  0  0  0  0  0  0  0
   55.4650   29.7790   43.4810 C   0  0  0  0  0  0  0  0  0  0  0  0
   55.5110   29.3520   44.8770 N   0  0  0  0  0  0  0  0  0  0  0  0
   56.5670   28.8460   45.4390 C   0  0  0  0  0  0  0  0  0  0  0  0
   56.8680   27.5200   45.3980 N   0  0  0  0  0  0  0  0  0  0  0  0
   58.0130   27.4700   46.0950 C   0  0  0  0  0  0  0  0  0  0  0  0
   58.7880   26.3480   46.3810 C   0  0  0  0  0  0  0  0  0  0  0  0
   59.9600   26.5390   47.1370 C   0  0  0  0  0  0  0  0  0  0  0  0
   60.3210   27.8320   47.5810 C   0  0  0  0  0  0  0  0  0  0  0  0
   59.5130   28.9420   47.2720 C   0  0  0  0  0  0  0  0  0  0  0  0
   58.3610   28.7150   46.5230 C   0  0  0  0  0  0  0  0  0  0  0  0
   57.4550   29.6170   46.1180 N   0  0  0  0  0  0  0  0  0  0  0  0
   59.9060   33.4790   45.8700 C   0  0  0  0  0  0  0  0  0  0  0  0
   62.7235   33.9105   47.7879 H   0  0  0  0  0  0  0  0  0  0  0  0
   62.7017   32.9973   46.2412 H   0  0  0  0  0  0  0  0  0  0  0  0
   62.4166   34.7708   46.2412 H   0  0  0  0  0  0  0  0  0  0  0  0
   60.6791   33.4427   49.1711 H   0  0  0  0  0  0  0  0  0  0  0  0
   56.5189   33.4199   45.8598 H   0  0  0  0  0  0  0  0  0  0  0  0
   57.6173   33.6670   44.4365 H   0  0  0  0  0  0  0  0  0  0  0  0
   57.9310   31.0890   45.4140 H   0  0  0  0  0  0  0  0  0  0  0  0
   56.2640   31.3470   45.2190 H   0  0  0  0  0  0  0  0  0  0  0  0
   56.8133   32.2937   42.9504 H   0  0  0  0  0  0  0  0  0  0  0  0
   58.4527   31.5674   43.2345 H   0  0  0  0  0  0  0  0  0  0  0  0
   56.8551   30.1368   41.8811 H   0  0  0  0  0  0  0  0  0  0  0  0
   57.5543   29.3746   43.3910 H   0  0  0  0  0  0  0  0  0  0  0  0
   54.8170   30.6636   43.3942 H   0  0  0  0  0  0  0  0  0  0  0  0
   55.0665   28.9556   42.8701 H   0  0  0  0  0  0  0  0  0  0  0  0
   58.4944   25.3482   46.0285 H   0  0  0  0  0  0  0  0  0  0  0  0
   60.5984   25.6778   47.3836 H   0  0  0  0  0  0  0  0  0  0  0  0
   61.2387   27.9711   48.1713 H   0  0  0  0  0  0  0  0  0  0  0  0
   59.7819   29.9536   47.6102 H   0  0  0  0  0  0  0  0  0  0  0  0
   60.2184   33.5861   44.8208 H   0  0  0  0  0  0  0  0  0  0  0  0
  1  2  1  0
  2  3  2  0
  3  4  1  0
  4  5  1  0
  5  6  1  0
  6  7  1  0
  7  8  1  0
  8  9  1  0
  9 10  1  0
 10 11  1  0
 11 12  2  3
 12 13  1  0
 13 14  1  0
 14 15  2  0
 15 16  1  0
 16 17  2  0
 17 18  1  0
 18 19  2  0
 19 20  1  0
  5 21  2  0
 21  2  1  0
 20 12  1  0
 19 14  1  0
  1 22  1  0
  1 23  1  0
  1 24  1  0
  3 25  1  0
  6 26  1  0
  6 27  1  0
  7 28  1  0
  7 29  1  0
  8 30  1  0
  8 31  1  0
  9 32  1  0
  9 33  1  0
 10 34  1  0
 10 35  1  0
 15 36  1  0
 16 37  1  0
 17 38  1  0
 18 39  1  0
 21 40  1  0
M  CHG  3   7   1  13  -1  20  -1
M  END
>  <UniqueID>  (27) 
24

>  <SMILES>  (27) 
Cc1csc(C[NH2+]CCCN=c2[n-]c3ccccc3[n-]2)c1

>  <Energy>  (27) 
96.28433266696956

>  <Genealogy>  (27) 
Cc1csc(C[NH2+]CCCN=c2[n-]c3ccccc3[n-]2)c1 (protonated)
Cc1csc(C[NH2+]CCCN=c2[n-]c3ccccc3[n-]2)c1 (3D coordinates assigned)
Cc1csc(C[NH2+]CCCN=c2[n-]c3ccccc3[n-]2)c1 (optimized conformer: 96.28433266696956 kcal/mol)

>  <smiles>  (27) 
Cc1csc(CNCCCN=c2[nH]c3ccccc3[nH]2)c1

>  <score_type>  (27) 
oracle

>  <origin>  (27) 
adg

>  <m_score__min__energy>  (27) 
-8.7899999999999991

>  <m_primary>  (27) 
energy

$$$$
27:0
     RDKit          3D

 44 46  0  0  0  0  0  0  0  0999 V2000
   57.4320   31.6850   43.1850 C   0  0  0  0  0  0  0  0  0  0  0  0
   57.9070   32.4460   44.3950 C   0  0  0  0  0  0  0  0  0  0  0  0
   57.7080   33.8330   44.4590 C   0  0  0  0  0  0  0  0  0  0  0  0
   58.1400   34.5640   45.5670 C   0  0  0  0  0  0  0  0  0  0  0  0
   58.7940   33.9220   46.6330 C   0  0  0  0  0  0  0  0  0  0  0  0
   59.2600   34.6500   47.7850 N   0  0  0  0  0  0  0  0  0  0  0  0
   59.9810   34.0220   48.8940 C   0  0  0  0  0  0  0  0  0  0  0  0
   61.4240   33.7980   48.5310 C   0  0  0  0  0  0  0  0  0  0  0  0
   62.3620   33.4740   49.5260 C   0  0  0  0  0  0  0  0  0  0  0  0
   63.6950   33.2280   49.1830 C   0  0  0  0  0  0  0  0  0  0  0  0
   64.0970   33.2920   47.8460 C   0  0  0  0  0  0  0  0  0  0  0  0
   63.1660   33.5990   46.8490 C   0  0  0  0  0  0  0  0  0  0  0  0
   61.8330   33.8450   47.1880 C   0  0  0  0  0  0  0  0  0  0  0  0
   59.0040   32.5360   46.5650 C   0  0  0  0  0  0  0  0  0  0  0  0
   58.5610   31.7870   45.4600 C   0  0  0  0  0  0  0  0  0  0  0  0
   58.8210   30.3730   45.3980 N   0  0  0  0  0  0  0  0  0  0  0  0
   57.7840   29.3780   45.4300 C   0  0  0  0  0  0  0  0  0  0  0  0
   56.5840   29.7170   45.2490 O   0  0  0  0  0  0  0  0  0  0  0  0
   58.1220   27.9530   45.6670 C   0  0  0  0  0  0  0  0  0  0  0  0
   57.7510   26.9940   44.7060 C   0  0  0  0  0  0  0  0  0  0  0  0
   58.0680   25.6460   44.8860 C   0  0  0  0  0  0  0  0  0  0  0  0
   58.7570   25.2350   46.0270 C   0  0  0  0  0  0  0  0  0  0  0  0
   59.1290   26.1710   46.9920 C   0  0  0  0  0  0  0  0  0  0  0  0
   58.8170   27.5270   46.8250 C   0  0  0  0  0  0  0  0  0  0  0  0
   59.2660   28.6350   48.1190 Cl  0  0  0  0  0  0  0  0  0  0  0  0
   56.8752   30.7930   43.5081 H   0  0  0  0  0  0  0  0  0  0  0  0
   56.7750   32.3287   42.5816 H   0  0  0  0  0  0  0  0  0  0  0  0
   58.2988   31.3775   42.5816 H   0  0  0  0  0  0  0  0  0  0  0  0
   57.2064   34.3499   43.6276 H   0  0  0  0  0  0  0  0  0  0  0  0
   57.9675   35.6497   45.6062 H   0  0  0  0  0  0  0  0  0  0  0  0
   59.0740   35.6790   47.8260 H   0  0  0  0  0  0  0  0  0  0  0  0
   59.9280   34.6770   49.7762 H   0  0  0  0  0  0  0  0  0  0  0  0
   59.5161   33.0493   49.1125 H   0  0  0  0  0  0  0  0  0  0  0  0
   62.0465   33.4137   50.5781 H   0  0  0  0  0  0  0  0  0  0  0  0
   64.4279   32.9839   49.9661 H   0  0  0  0  0  0  0  0  0  0  0  0
   65.1465   33.1007   47.5779 H   0  0  0  0  0  0  0  0  0  0  0  0
   63.4833   33.6469   45.7968 H   0  0  0  0  0  0  0  0  0  0  0  0
   61.1010   34.0764   46.4001 H   0  0  0  0  0  0  0  0  0  0  0  0
   59.5239   32.0268   47.3899 H   0  0  0  0  0  0  0  0  0  0  0  0
   59.8030   30.0520   45.2470 H   0  0  0  0  0  0  0  0  0  0  0  0
   57.2059   27.3095   43.8041 H   0  0  0  0  0  0  0  0  0  0  0  0
   57.7737   24.9068   44.1264 H   0  0  0  0  0  0  0  0  0  0  0  0
   59.0070   24.1728   46.1658 H   0  0  0  0  0  0  0  0  0  0  0  0
   59.6713   25.8423   47.8908 H   0  0  0  0  0  0  0  0  0  0  0  0
  1  2  1  0
  2  3  2  0
  3  4  1  0
  4  5  2  0
  5  6  1  0
  6  7  1  0
  7  8  1  0
  8  9  2  0
  9 10  1  0
 10 11  2  0
 11 12  1  0
 12 13  2  0
  5 14  1  0
 14 15  2  0
 15 16  1  0
 16 17  1  0
 17 18  2  0
 17 19  1  0
 19 20  2  0
 20 21  1  0
 21 22  2  0
 22 23  1  0
 23 24  2  0
 24 25  1  0
 15  2  1  0
 24 19  1  0
 13  8  1  0
  1 26  1  0
  1 27  1  0
  1 28  1  0
  3 29  1  0
  4 30  1  0
  6 31  1  0
  7 32  1  0
  7 33  1  0
  9 34  1  0
 10 35  1  0
 11 36  1  0
 12 37  1  0
 13 38  1  0
 14 39  1  0
 16 40  1  0
 20 41  1  0
 21 42  1  0
 22 43  1  0
 23 44  1  0
M  END
>  <UniqueID>  (28) 
25

>  <SMILES>  (28) 
Cc1ccc(NCc2ccccc2)cc1NC(=O)c1ccccc1Cl

>  <Energy>  (28) 
55.1636497797672

>  <Genealogy>  (28) 
Cc1ccc(NCc2ccccc2)cc1NC(=O)c1ccccc1Cl (3D coordinates assigned)
Cc1ccc(NCc2ccccc2)cc1NC(=O)c1ccccc1Cl (optimized conformer: 55.1636497797672 kcal/mol)

>  <smiles>  (28) 
Cc1ccc(NCc2ccccc2)cc1NC(=O)c1ccccc1Cl

>  <score_type>  (28) 
oracle

>  <origin>  (28) 
adg

>  <m_score__min__energy>  (28) 
-8.7799999999999994

>  <m_primary>  (28) 
energy

$$$$
28:0
     RDKit          3D

 43 47  0  0  1  0  0  0  0  0999 V2000
   61.6260   32.1270   49.5000 C   0  0  0  0  0  0  0  0  0  0  0  0
   60.9540   30.9700   48.9460 N   0  0  0  0  0  0  0  0  0  0  0  0
   61.2010   29.7420   49.3050 N   0  0  0  0  0  0  0  0  0  0  0  0
   60.4160   28.8890   48.6100 C   0  0  0  0  0  0  0  0  0  0  0  0
   59.6580   29.6830   47.7860 C   0  0  0  0  0  0  0  0  0  0  0  0
   59.9950   30.9980   47.9930 C   0  0  0  0  0  0  0  0  0  0  0  0
   59.5230   32.2190   47.3710 C   0  0  0  0  0  0  0  0  0  0  0  0
   60.4220   33.0320   46.6720 C   0  0  0  0  0  0  0  0  0  0  0  0
   60.0180   34.1940   46.0470 C   0  0  0  0  0  0  0  0  0  0  0  0
   58.7040   34.6030   46.0860 C   0  0  0  0  0  0  0  0  0  0  0  0
   57.7970   33.8200   46.7700 C   0  0  0  0  0  0  0  0  0  0  0  0
   58.2180   32.6550   47.3930 C   0  0  0  0  0  0  0  0  0  0  0  0
   58.6900   29.0480   46.9110 C   0  0  0  0  0  0  0  0  0  0  0  0
   57.9290   29.8070   46.1060 N   0  0  0  0  0  0  0  0  0  0  0  0
   57.0310   29.2030   45.3120 C   0  0  0  0  0  0  0  0  0  0  0  0
   56.2590   29.8730   44.5070 N   0  0  0  0  0  0  0  0  0  0  0  0
   56.6510   31.1940   44.0570 C   0  0  0  0  0  0  0  0  0  0  0  0
   58.0690   31.3740   43.6650 C   0  0  0  0  0  0  0  0  0  0  0  0
   57.0270   31.2060   42.5670 C   0  0  0  0  0  0  0  0  0  0  0  0
   56.8760   27.8700   45.3040 N   0  0  0  0  0  0  0  0  0  0  0  0
   57.6330   27.0990   46.1050 C   0  0  0  0  0  0  0  0  0  0  0  0
   58.5790   27.6830   46.9450 C   0  0  0  0  0  0  0  0  0  0  0  0
   59.3670   26.7730   47.7920 C   0  0  0  0  0  0  0  0  0  0  0  0
   60.3520   27.4260   48.6840 C   0  0  0  0  0  0  0  0  0  0  0  0
   61.5969   32.0769   50.5985 H   0  0  0  0  0  0  0  0  0  0  0  0
   62.6724   32.1404   49.1612 H   0  0  0  0  0  0  0  0  0  0  0  0
   61.1191   33.0426   49.1612 H   0  0  0  0  0  0  0  0  0  0  0  0
   61.4803   32.7366   46.6192 H   0  0  0  0  0  0  0  0  0  0  0  0
   60.7583   34.8038   45.5085 H   0  0  0  0  0  0  0  0  0  0  0  0
   58.3858   35.5293   45.5852 H   0  0  0  0  0  0  0  0  0  0  0  0
   56.7399   34.1199   46.8211 H   0  0  0  0  0  0  0  0  0  0  0  0
   57.4730   32.0502   47.9307 H   0  0  0  0  0  0  0  0  0  0  0  0
   55.9803   31.7574   44.7224 H   0  0  0  0  0  0  0  0  0  0  0  0
   58.5560   32.3495   43.8107 H   0  0  0  0  0  0  0  0  0  0  0  0
   59.0081   30.8606   43.9189 H   0  0  0  0  0  0  0  0  0  0  0  0
   56.7482   32.0587   41.9305 H   0  0  0  0  0  0  0  0  0  0  0  0
   56.8838   30.5302   41.7109 H   0  0  0  0  0  0  0  0  0  0  0  0
   56.1710   27.4180   44.6800 H   0  0  0  0  0  0  0  0  0  0  0  0
   57.5052   26.0065   46.0969 H   0  0  0  0  0  0  0  0  0  0  0  0
   58.6667   26.2028   48.4200 H   0  0  0  0  0  0  0  0  0  0  0  0
   59.9523   26.1482   47.1014 H   0  0  0  0  0  0  0  0  0  0  0  0
   60.1016   27.1521   49.7195 H   0  0  0  0  0  0  0  0  0  0  0  0
   61.3372   27.0690   48.3494 H   0  0  0  0  0  0  0  0  0  0  0  0
  1  2  1  0
  2  3  1  0
  3  4  2  0
  4  5  1  0
  5  6  2  0
  6  7  1  0
  7  8  2  0
  8  9  1  0
  9 10  2  0
 10 11  1  0
 11 12  2  0
  5 13  1  0
 13 14  2  0
 14 15  1  0
 15 16  2  0
 16 17  1  0
 17 18  1  0
 18 19  1  0
 15 20  1  0
 20 21  1  0
 21 22  2  0
 22 23  1  0
 23 24  1  0
  6  2  1  0
 12  7  1  0
 22 13  1  0
 24  4  1  0
 19 17  1  0
  1 25  1  0
  1 26  1  0
  1 27  1  0
  8 28  1  0
  9 29  1  0
 10 30  1  0
 11 31  1  0
 12 32  1  0
 17 33  1  0
 18 34  1  0
 18 35  1  0
 19 36  1  0
 19 37  1  0
 20 38  1  0
 21 39  1  0
 23 40  1  0
 23 41  1  0
 24 42  1  0
 24 43  1  0
M  END
>  <smiles>  (29) 
Cn1nc2c(c1-c1ccccc1)-c1nc(=NC3CC3)[nH]cc1CC2

>  <score_type>  (29) 
oracle

>  <origin>  (29) 
adg

>  <m_score__min__energy>  (29) 
-8.1699999999999999

>  <m_primary>  (29) 
energy

$$$$
29:0
     RDKit          3D

 48 50  0  0  0  0  0  0  0  0999 V2000
   55.4840   26.1880   46.3020 O   0  0  0  0  0  0  0  0  0  0  0  0
   56.3310   27.0570   45.9640 C   0  0  0  0  0  0  0  0  0  0  0  0
   55.8850   28.2120   45.2410 N   0  0  0  0  0  0  0  0  0  0  0  0
   56.6060   29.4430   45.0930 C   0  0  0  0  0  0  0  0  0  0  0  0
   57.5790   29.7780   46.0400 C   0  0  0  0  0  0  0  0  0  0  0  0
   58.2980   30.9710   45.9230 C   0  0  0  0  0  0  0  0  0  0  0  0
   58.0650   31.8420   44.8520 C   0  0  0  0  0  0  0  0  0  0  0  0
   58.8040   33.0360   44.7960 O   0  0  0  0  0  0  0  0  0  0  0  0
   58.5010   34.2380   45.5080 C   0  0  2  0  0  0  0  0  0  0  0  0
   59.3880   35.2430   45.1010 O   0  0  0  0  0  0  0  0  0  0  0  0
   58.6610   34.0080   47.0200 C   0  0  0  0  0  0  0  0  0  0  0  0
   60.0770   34.3500   47.5000 C   0  0  0  0  0  0  0  0  0  0  0  0
   60.6530   33.2010   48.2380 N   0  0  0  0  0  0  0  0  0  0  0  0
   61.6270   33.6080   49.2750 C   0  0  0  0  0  0  0  0  0  0  0  0
   62.9520   34.1330   48.6810 C   0  0  0  0  0  0  0  0  0  0  0  0
   63.2710   33.5270   47.3070 C   0  0  0  0  0  0  0  0  0  0  0  0
   62.7000   32.1170   47.1840 C   0  0  0  0  0  0  0  0  0  0  0  0
   61.1660   32.1100   47.3670 C   0  0  0  0  0  0  0  0  0  0  0  0
   57.1110   31.4870   43.8780 C   0  0  0  0  0  0  0  0  0  0  0  0
   56.3930   30.2930   43.9950 C   0  0  0  0  0  0  0  0  0  0  0  0
   57.7550   26.8280   46.2740 C   0  0  0  0  0  0  0  0  0  0  0  0
   58.3290   26.7460   47.5390 C   0  0  0  0  0  0  0  0  0  0  0  0
   59.7160   26.5520   47.5060 C   0  0  0  0  0  0  0  0  0  0  0  0
   60.2420   26.4940   46.2220 C   0  0  0  0  0  0  0  0  0  0  0  0
   58.9800   26.6860   45.1280 S   0  0  0  0  0  0  0  0  0  0  0  0
   57.7796   29.0988   46.8817 H   0  0  0  0  0  0  0  0  0  0  0  0
   59.0540   31.2279   46.6796 H   0  0  0  0  0  0  0  0  0  0  0  0
   57.4638   34.5363   45.2953 H   0  0  0  0  0  0  0  0  0  0  0  0
   60.2560   34.7940   44.9200 H   0  0  0  0  0  0  0  0  0  0  0  0
   57.9401   34.6434   47.5553 H   0  0  0  0  0  0  0  0  0  0  0  0
   58.4774   32.9431   47.2258 H   0  0  0  0  0  0  0  0  0  0  0  0
   60.7109   34.5794   46.6308 H   0  0  0  0  0  0  0  0  0  0  0  0
   60.0310   35.2223   48.1686 H   0  0  0  0  0  0  0  0  0  0  0  0
   61.1767   34.4038   49.8866 H   0  0  0  0  0  0  0  0  0  0  0  0
   61.8639   32.7163   49.8739 H   0  0  0  0  0  0  0  0  0  0  0  0
   62.8808   35.2256   48.5750 H   0  0  0  0  0  0  0  0  0  0  0  0
   63.7606   33.8407   49.3670 H   0  0  0  0  0  0  0  0  0  0  0  0
   62.8323   34.1622   46.5233 H   0  0  0  0  0  0  0  0  0  0  0  0
   64.3638   33.4732   47.1934 H   0  0  0  0  0  0  0  0  0  0  0  0
   62.9431   31.7185   46.1880 H   0  0  0  0  0  0  0  0  0  0  0  0
   63.1449   31.4941   47.9740 H   0  0  0  0  0  0  0  0  0  0  0  0
   60.6995   32.2110   46.3760 H   0  0  0  0  0  0  0  0  0  0  0  0
   60.9102   31.1619   47.8626 H   0  0  0  0  0  0  0  0  0  0  0  0
   56.9301   32.1526   43.0211 H   0  0  0  0  0  0  0  0  0  0  0  0
   55.6582   30.0180   43.2240 H   0  0  0  0  0  0  0  0  0  0  0  0
   57.7513   26.8256   48.4717 H   0  0  0  0  0  0  0  0  0  0  0  0
   60.3312   26.4547   48.4127 H   0  0  0  0  0  0  0  0  0  0  0  0
   61.3015   26.3477   45.9651 H   0  0  0  0  0  0  0  0  0  0  0  0
  1  2  2  0
  2  3  1  0
  3  4  1  0
  4  5  2  0
  5  6  1  0
  6  7  2  0
  7  8  1  0
  8  9  1  0
  9 10  1  0
  9 11  1  0
 11 12  1  0
 12 13  1  0
 13 14  1  0
 14 15  1  0
 15 16  1  0
 16 17  1  0
 17 18  1  0
  7 19  1  0
 19 20  2  0
  2 21  1  0
 21 22  2  0
 22 23  1  0
 23 24  2  0
 24 25  1  0
 20  4  1  0
 25 21  1  0
 18 13  1  0
  5 26  1  0
  6 27  1  0
  9 28  1  1
 10 29  1  0
 11 30  1  0
 11 31  1  0
 12 32  1  0
 12 33  1  0
 14 34  1  0
 14 35  1  0
 15 36  1  0
 15 37  1  0
 16 38  1  0
 16 39  1  0
 17 40  1  0
 17 41  1  0
 18 42  1  0
 18 43  1  0
 19 44  1  0
 20 45  1  0
 22 46  1  0
 23 47  1  0
 24 48  1  0
M  CHG  1   3  -1
M  END
>  <UniqueID>  (30) 
26

>  <SMILES>  (30) 
O=C([N-]c1ccc(O[C@H](O)CCN2CCCCC2)cc1)c1cccs1

>  <Energy>  (30) 
86.70177705242506

>  <Genealogy>  (30) 
O=C([N-]c1ccc(OC(O)CCN2CCCCC2)cc1)c1cccs1 (protonated)
O=C([N-]c1ccc(O[C@H](O)CCN2CCCCC2)cc1)c1cccs1 (chirality)
O=C([N-]c1ccc(O[C@H](O)CCN2CCCCC2)cc1)c1cccs1 (3D coordinates assigned)
O=C([N-]c1ccc(O[C@H](O)CCN2CCCCC2)cc1)c1cccs1 (nonaromatic ring conformer: 86.70177705242506 kcal/mol)

>  <smiles>  (30) 
O=C(Nc1ccc(OC(O)CCN2CCCCC2)cc1)c1cccs1

>  <score_type>  (30) 
oracle

>  <origin>  (30) 
adg

>  <m_score__min__energy>  (30) 
-9.2899999999999991

>  <m_primary>  (30) 
energy

$$$$
30:0
     RDKit          3D

 38 41  0  0  0  0  0  0  0  0999 V2000
   56.9370   30.2900   44.0180 C   0  0  0  0  0  0  0  0  0  0  0  0
   57.0330   31.0420   45.2230 O   0  0  0  0  0  0  0  0  0  0  0  0
   57.7900   32.2150   45.3670 C   0  0  0  0  0  0  0  0  0  0  0  0
   57.3700   33.4520   44.8430 C   0  0  0  0  0  0  0  0  0  0  0  0
   58.1590   34.5920   45.0170 C   0  0  0  0  0  0  0  0  0  0  0  0
   59.3700   34.5090   45.7060 C   0  0  0  0  0  0  0  0  0  0  0  0
   59.8110   33.2790   46.2190 C   0  0  0  0  0  0  0  0  0  0  0  0
   61.0870   33.1810   46.9590 C   0  0  0  0  0  0  0  0  0  0  0  0
   62.5440   33.8240   46.4120 S   0  0  0  0  0  0  0  0  0  0  0  0
   63.4480   33.1800   47.6710 C   0  0  0  0  0  0  0  0  0  0  0  0
   62.6640   32.4800   48.5190 N   0  0  0  0  0  0  0  0  0  0  0  0
   61.3530   32.4760   48.1450 C   0  0  0  0  0  0  0  0  0  0  0  0
   60.3340   31.8190   48.9920 C   0  0  0  0  0  0  0  0  0  0  0  0
   60.1070   30.4320   48.9090 C   0  0  0  0  0  0  0  0  0  0  0  0
   59.1270   29.8270   49.7010 C   0  0  0  0  0  0  0  0  0  0  0  0
   58.3540   30.6040   50.5670 C   0  0  0  0  0  0  0  0  0  0  0  0
   58.5770   31.9830   50.6610 C   0  0  0  0  0  0  0  0  0  0  0  0
   59.5470   32.5940   49.8610 C   0  0  0  0  0  0  0  0  0  0  0  0
   57.8160   32.7350   51.5620 O   0  0  0  0  0  0  0  0  0  0  0  0
   57.0290   32.0990   52.5730 C   0  0  0  0  0  0  0  0  0  0  0  0
   56.3750   30.8280   52.0160 C   0  0  0  0  0  0  0  0  0  0  0  0
   57.3480   30.0230   51.3470 O   0  0  0  0  0  0  0  0  0  0  0  0
   59.0060   32.1400   46.0570 C   0  0  0  0  0  0  0  0  0  0  0  0
   56.8011   29.2256   44.2599 H   0  0  0  0  0  0  0  0  0  0  0  0
   56.0769   30.6454   43.4315 H   0  0  0  0  0  0  0  0  0  0  0  0
   57.8588   30.4180   43.4315 H   0  0  0  0  0  0  0  0  0  0  0  0
   56.4186   33.5214   44.2953 H   0  0  0  0  0  0  0  0  0  0  0  0
   57.8248   35.5577   44.6098 H   0  0  0  0  0  0  0  0  0  0  0  0
   59.9819   35.4120   45.8477 H   0  0  0  0  0  0  0  0  0  0  0  0
   64.5338   33.3106   47.7895 H   0  0  0  0  0  0  0  0  0  0  0  0
   60.7045   29.8207   48.2167 H   0  0  0  0  0  0  0  0  0  0  0  0
   58.9647   28.7406   49.6424 H   0  0  0  0  0  0  0  0  0  0  0  0
   59.6945   33.6829   49.9117 H   0  0  0  0  0  0  0  0  0  0  0  0
   57.6754   31.8325   53.4222 H   0  0  0  0  0  0  0  0  0  0  0  0
   56.2412   32.7923   52.9028 H   0  0  0  0  0  0  0  0  0  0  0  0
   55.9355   30.2529   52.8443 H   0  0  0  0  0  0  0  0  0  0  0  0
   55.5915   31.1132   51.2985 H   0  0  0  0  0  0  0  0  0  0  0  0
   59.3344   31.1778   46.4770 H   0  0  0  0  0  0  0  0  0  0  0  0
  1  2  1  0
  2  3  1  0
  3  4  2  0
  4  5  1  0
  5  6  2  0
  6  7  1  0
  7  8  1  0
  8  9  1  0
  9 10  1  0
 10 11  2  0
 11 12  1  0
 12 13  1  0
 13 14  2  0
 14 15  1  0
 15 16  2  0
 16 17  1  0
 17 18  2  0
 17 19  1  0
 19 20  1  0
 20 21  1  0
 21 22  1  0
  7 23  2  0
 23  3  1  0
 12  8  2  0
 18 13  1  0
 22 16  1  0
  1 24  1  0
  1 25  1  0
  1 26  1  0
  4 27  1  0
  5 28  1  0
  6 29  1  0
 10 30  1  0
 14 31  1  0
 15 32  1  0
 18 33  1  0
 20 34  1  0
 20 35  1  0
 21 36  1  0
 21 37  1  0
 23 38  1  0
M  END
>  <UniqueID>  (31) 
27

>  <SMILES>  (31) 
COc1cccc(-c2scnc2-c2ccc3c(c2)OCCO3)c1

>  <Energy>  (31) 
80.54545526551735

>  <Genealogy>  (31) 
COc1cccc(-c2scnc2-c2ccc3c(c2)OCCO3)c1 (3D coordinates assigned)
COc1cccc(-c2scnc2-c2ccc3c(c2)OCCO3)c1 (nonaromatic ring conformer: 80.54545526551735 kcal/mol)

>  <smiles>  (31) 
COc1cccc(-c2scnc2-c2ccc3c(c2)OCCO3)c1

>  <score_type>  (31) 
oracle

>  <origin>  (31) 
adg

>  <m_score__min__energy>  (31) 
-7.6399999999999997

>  <m_primary>  (31) 
energy

$$$$
31:0
     RDKit          3D

 33 35  0  0  0  0  0  0  0  0999 V2000
   57.5700   32.4100   41.1300 N   0  0  0  0  0  0  0  0  0  0  0  0
   57.7570   32.3240   42.2690 C   0  0  0  0  0  0  0  0  0  0  0  0
   57.9880   32.2170   43.6870 C   0  0  0  0  0  0  0  0  0  0  0  0
   58.6370   33.2660   44.3550 C   0  0  0  0  0  0  0  0  0  0  0  0
   58.8730   33.1870   45.7350 C   0  0  0  0  0  0  0  0  0  0  0  0
   59.7120   34.4940   46.5610 S   0  0  0  0  0  0  0  0  0  0  0  0
   59.9340   35.6420   45.6160 O   0  0  0  0  0  0  0  0  0  0  0  0
   58.8870   34.9870   47.7160 O   0  0  0  0  0  0  0  0  0  0  0  0
   61.2540   33.9060   47.1470 C   0  0  0  0  0  0  0  0  0  0  0  0
   62.4020   33.7570   46.3880 C   0  0  0  0  0  0  0  0  0  0  0  0
   63.4750   33.2230   47.1130 C   0  0  0  0  0  0  0  0  0  0  0  0
   63.1660   32.9470   48.4480 C   0  0  0  0  0  0  0  0  0  0  0  0
   64.0750   32.3720   49.4730 C   0  0  0  0  0  0  0  0  0  0  0  0
   63.5660   31.6340   50.5590 C   0  0  0  0  0  0  0  0  0  0  0  0
   64.4420   31.1030   51.5050 C   0  0  0  0  0  0  0  0  0  0  0  0
   65.8150   31.3030   51.3710 C   0  0  0  0  0  0  0  0  0  0  0  0
   66.2930   32.0340   50.2850 C   0  0  0  0  0  0  0  0  0  0  0  0
   65.4290   32.5480   49.3680 N   0  0  0  0  0  0  0  0  0  0  0  0
   61.5520   33.3670   48.7070 S   0  0  0  0  0  0  0  0  0  0  0  0
   58.4700   32.0480   46.4430 C   0  0  0  0  0  0  0  0  0  0  0  0
   57.8220   31.0020   45.7820 C   0  0  0  0  0  0  0  0  0  0  0  0
   57.5780   31.0800   44.4060 C   0  0  0  0  0  0  0  0  0  0  0  0
   56.7610   29.7380   43.6120 Cl  0  0  0  0  0  0  0  0  0  0  0  0
   58.9622   34.1544   43.7938 H   0  0  0  0  0  0  0  0  0  0  0  0
   62.4652   34.0300   45.3243 H   0  0  0  0  0  0  0  0  0  0  0  0
   64.4664   33.0384   46.6736 H   0  0  0  0  0  0  0  0  0  0  0  0
   62.4820   31.4771   50.6606 H   0  0  0  0  0  0  0  0  0  0  0  0
   64.0500   30.5269   52.3561 H   0  0  0  0  0  0  0  0  0  0  0  0
   66.5129   30.8888   52.1136 H   0  0  0  0  0  0  0  0  0  0  0  0
   67.3747   32.1964   50.1685 H   0  0  0  0  0  0  0  0  0  0  0  0
   65.8330   33.0940   48.5750 H   0  0  0  0  0  0  0  0  0  0  0  0
   58.6644   31.9768   47.5233 H   0  0  0  0  0  0  0  0  0  0  0  0
   57.5020   30.1130   46.3453 H   0  0  0  0  0  0  0  0  0  0  0  0
  1  2  3  0
  2  3  1  0
  3  4  2  0
  4  5  1  0
  5  6  1  0
  6  7  2  0
  6  8  2  0
  6  9  1  0
  9 10  2  0
 10 11  1  0
 11 12  2  0
 12 13  1  0
 13 14  2  0
 14 15  1  0
 15 16  2  0
 16 17  1  0
 17 18  2  0
 12 19  1  0
  5 20  2  0
 20 21  1  0
 21 22  2  0
 22 23  1  0
 22  3  1  0
 19  9  1  0
 18 13  1  0
  4 24  1  0
 10 25  1  0
 11 26  1  0
 14 27  1  0
 15 28  1  0
 16 29  1  0
 17 30  1  0
 18 31  1  0
 20 32  1  0
 21 33  1  0
M  CHG  1  18   1
M  END
>  <UniqueID>  (32) 
28

>  <SMILES>  (32) 
N#Cc1cc(S(=O)(=O)c2ccc(-c3cccc[nH+]3)s2)ccc1Cl

>  <Energy>  (32) 
66.31812929780382

>  <Genealogy>  (32) 
N#Cc1cc(S(=O)(=O)c2ccc(-c3cccc[nH+]3)s2)ccc1Cl (protonated)
N#Cc1cc(S(=O)(=O)c2ccc(-c3cccc[nH+]3)s2)ccc1Cl (3D coordinates assigned)
N#Cc1cc(S(=O)(=O)c2ccc(-c3cccc[nH+]3)s2)ccc1Cl (optimized conformer: 66.31812929780382 kcal/mol)

>  <smiles>  (32) 
N#Cc1cc(S(=O)(=O)c2ccc(-c3ccccn3)s2)ccc1Cl

>  <score_type>  (32) 
oracle

>  <origin>  (32) 
adg

>  <m_score__min__energy>  (32) 
-7.5199999999999996

>  <m_primary>  (32) 
energy

$$$$
32:0
     RDKit          3D

 28 30  0  0  1  0  0  0  0  0999 V2000
   55.0540   25.8600   45.8990 O   0  0  0  0  0  0  0  0  0  0  0  0
   56.2580   25.6870   45.6400 C   0  0  0  0  0  0  0  0  0  0  0  0
   57.2500   26.6250   45.9550 N   0  0  0  0  0  0  0  0  0  0  0  0
   57.0910   27.8690   45.7470 C   0  0  0  0  0  0  0  0  0  0  0  0
   55.9900   28.4210   45.2090 N   0  0  0  0  0  0  0  0  0  0  0  0
   56.1810   29.7270   45.1450 N   0  0  0  0  0  0  0  0  0  0  0  0
   57.3970   29.9960   45.6440 C   0  0  0  0  0  0  0  0  0  0  0  0
   57.9990   31.3160   45.7570 C   0  0  0  0  0  0  0  0  0  0  0  0
   59.1990   31.5080   46.4010 C   0  0  0  0  0  0  0  0  0  0  0  0
   59.7000   32.7890   46.4660 C   0  0  0  0  0  0  0  0  0  0  0  0
   59.0870   33.8880   45.9340 C   0  0  0  0  0  0  0  0  0  0  0  0
   59.7700   35.6490   46.0190 Br  0  0  0  0  0  0  0  0  0  0  0  0
   57.8750   33.6950   45.2840 C   0  0  0  0  0  0  0  0  0  0  0  0
   57.3680   32.4160   45.2160 C   0  0  0  0  0  0  0  0  0  0  0  0
   57.9250   28.8510   46.0000 O   0  0  0  0  0  0  0  0  0  0  0  0
   56.6770   24.4510   44.9720 C   0  0  0  0  0  0  0  0  0  0  0  0
   56.1280   23.8170   43.9160 C   0  0  0  0  0  0  0  0  0  0  0  0
   56.6920   22.6830   43.4690 C   0  0  0  0  0  0  0  0  0  0  0  0
   57.8030   22.2350   44.1230 C   0  0  0  0  0  0  0  0  0  0  0  0
   58.0840   23.4810   45.4520 S   0  0  0  0  0  0  0  0  0  0  0  0
   55.1460   27.9010   44.8990 H   0  0  0  0  0  0  0  0  0  0  0  0
   59.7422   30.6637   46.8506 H   0  0  0  0  0  0  0  0  0  0  0  0
   60.6601   32.9377   46.9819 H   0  0  0  0  0  0  0  0  0  0  0  0
   57.3341   34.5412   44.8353 H   0  0  0  0  0  0  0  0  0  0  0  0
   56.4074   32.2640   44.7021 H   0  0  0  0  0  0  0  0  0  0  0  0
   55.2302   24.2232   43.4272 H   0  0  0  0  0  0  0  0  0  0  0  0
   56.2751   22.1370   42.6099 H   0  0  0  0  0  0  0  0  0  0  0  0
   58.3963   21.3345   43.9062 H   0  0  0  0  0  0  0  0  0  0  0  0
  1  2  2  0
  2  3  1  0
  3  4  2  0
  4  5  1  0
  5  6  1  0
  6  7  2  0
  7  8  1  0
  8  9  2  0
  9 10  1  0
 10 11  2  0
 11 12  1  0
 11 13  1  0
 13 14  2  0
  7 15  1  0
  2 16  1  0
 16 17  2  0
 17 18  1  0
 18 19  2  0
 19 20  1  0
 15  4  1  0
 20 16  1  0
 14  8  1  0
  5 21  1  0
  9 22  1  0
 10 23  1  0
 13 24  1  0
 14 25  1  0
 17 26  1  0
 18 27  1  0
 19 28  1  0
M  END
>  <smiles>  (33) 
O=C(N=c1[nH]nc(-c2ccc(Br)cc2)o1)c1cccs1

>  <score_type>  (33) 
oracle

>  <origin>  (33) 
adg

>  <m_score__min__energy>  (33) 
-7.8899999999999997

>  <m_primary>  (33) 
energy

$$$$
33:0
     RDKit          3D

 46 48  0  0  0  0  0  0  0  0999 V2000
   56.9990   20.8370   42.9630 C   0  0  0  0  0  0  0  0  0  0  0  0
   55.9820   21.8350   42.9660 O   0  0  0  0  0  0  0  0  0  0  0  0
   55.9460   22.9230   43.8520 C   0  0  0  0  0  0  0  0  0  0  0  0
   54.8390   23.1890   44.6800 C   0  0  0  0  0  0  0  0  0  0  0  0
   54.8540   24.2890   45.5460 C   0  0  0  0  0  0  0  0  0  0  0  0
   55.9640   25.1480   45.5810 C   0  0  0  0  0  0  0  0  0  0  0  0
   55.9490   26.3820   46.4400 C   0  0  0  0  0  0  0  0  0  0  0  0
   55.9650   27.5820   45.6060 N   0  0  0  0  0  0  0  0  0  0  0  0
   57.0030   28.5730   45.6250 C   0  0  0  0  0  0  0  0  0  0  0  0
   57.8870   28.5230   46.5220 O   0  0  0  0  0  0  0  0  0  0  0  0
   57.0790   29.6300   44.6030 C   0  0  0  0  0  0  0  0  0  0  0  0
   56.5290   29.4160   43.3330 C   0  0  0  0  0  0  0  0  0  0  0  0
   56.6430   30.3990   42.3520 C   0  0  0  0  0  0  0  0  0  0  0  0
   57.3030   31.5890   42.6510 C   0  0  0  0  0  0  0  0  0  0  0  0
   57.8350   31.7900   43.8890 N   0  0  0  0  0  0  0  0  0  0  0  0
   57.7330   30.8460   44.8740 C   0  0  0  0  0  0  0  0  0  0  0  0
   58.3350   31.0340   46.1300 O   0  0  0  0  0  0  0  0  0  0  0  0
   59.0230   32.1840   46.5430 C   0  0  0  0  0  0  0  0  0  0  0  0
   58.3040   33.3760   46.7180 C   0  0  0  0  0  0  0  0  0  0  0  0
   58.9600   34.5450   47.1210 C   0  0  0  0  0  0  0  0  0  0  0  0
   60.3390   34.5310   47.3590 C   0  0  0  0  0  0  0  0  0  0  0  0
   61.0750   33.3460   47.1750 C   0  0  0  0  0  0  0  0  0  0  0  0
   62.5630   33.3330   47.3750 C   0  0  0  0  0  0  0  0  0  0  0  0
   60.4190   32.1810   46.7390 C   0  0  0  0  0  0  0  0  0  0  0  0
   57.0670   24.8790   44.7570 C   0  0  0  0  0  0  0  0  0  0  0  0
   57.0570   23.7710   43.9020 C   0  0  0  0  0  0  0  0  0  0  0  0
   57.2623   20.5787   43.9993 H   0  0  0  0  0  0  0  0  0  0  0  0
   56.6309   19.9399   42.4437 H   0  0  0  0  0  0  0  0  0  0  0  0
   57.8890   21.2220   42.4437 H   0  0  0  0  0  0  0  0  0  0  0  0
   53.9588   22.5301   44.6465 H   0  0  0  0  0  0  0  0  0  0  0  0
   53.9922   24.4811   46.2020 H   0  0  0  0  0  0  0  0  0  0  0  0
   55.0394   26.3823   47.0585 H   0  0  0  0  0  0  0  0  0  0  0  0
   56.8420   26.3812   47.0822 H   0  0  0  0  0  0  0  0  0  0  0  0
   56.0078   28.4733   43.1102 H   0  0  0  0  0  0  0  0  0  0  0  0
   56.2161   30.2370   41.3513 H   0  0  0  0  0  0  0  0  0  0  0  0
   57.3951   32.3710   41.8829 H   0  0  0  0  0  0  0  0  0  0  0  0
   58.3600   32.6780   44.0540 H   0  0  0  0  0  0  0  0  0  0  0  0
   57.2190   33.3920   46.5375 H   0  0  0  0  0  0  0  0  0  0  0  0
   58.3902   35.4769   47.2509 H   0  0  0  0  0  0  0  0  0  0  0  0
   60.8484   35.4479   47.6905 H   0  0  0  0  0  0  0  0  0  0  0  0
   62.7882   33.3310   48.4517 H   0  0  0  0  0  0  0  0  0  0  0  0
   62.9876   32.4311   46.9099 H   0  0  0  0  0  0  0  0  0  0  0  0
   63.0033   34.2273   46.9099 H   0  0  0  0  0  0  0  0  0  0  0  0
   60.9971   31.2644   46.5503 H   0  0  0  0  0  0  0  0  0  0  0  0
   57.9442   25.5422   44.7830 H   0  0  0  0  0  0  0  0  0  0  0  0
   57.9296   23.5656   43.2645 H   0  0  0  0  0  0  0  0  0  0  0  0
  1  2  1  0
  2  3  1  0
  3  4  2  0
  4  5  1  0
  5  6  2  0
  6  7  1  0
  7  8  1  0
  8  9  1  0
  9 10  2  0
  9 11  1  0
 11 12  2  0
 12 13  1  0
 13 14  2  0
 14 15  1  0
 15 16  2  0
 16 17  1  0
 17 18  1  0
 18 19  2  0
 19 20  1  0
 20 21  2  0
 21 22  1  0
 22 23  1  0
 22 24  2  0
  6 25  1  0
 25 26  2  0
 26  3  1  0
 16 11  1  0
 24 18  1  0
  1 27  1  0
  1 28  1  0
  1 29  1  0
  4 30  1  0
  5 31  1  0
  7 32  1  0
  7 33  1  0
 12 34  1  0
 13 35  1  0
 14 36  1  0
 15 37  1  0
 19 38  1  0
 20 39  1  0
 21 40  1  0
 23 41  1  0
 23 42  1  0
 23 43  1  0
 24 44  1  0
 25 45  1  0
 26 46  1  0
M  CHG  2   8  -1  15   1
M  END
>  <UniqueID>  (34) 
29

>  <SMILES>  (34) 
COc1ccc(C[N-]C(=O)c2ccc[nH+]c2Oc2cccc(C)c2)cc1

>  <Energy>  (34) 
54.19347124329037

>  <Genealogy>  (34) 
COc1ccc(C[N-]C(=O)c2ccc[nH+]c2Oc2cccc(C)c2)cc1 (protonated)
COc1ccc(C[N-]C(=O)c2ccc[nH+]c2Oc2cccc(C)c2)cc1 (3D coordinates assigned)
COc1ccc(C[N-]C(=O)c2ccc[nH+]c2Oc2cccc(C)c2)cc1 (optimized conformer: 54.19347124329037 kcal/mol)

>  <smiles>  (34) 
COc1ccc(CNC(=O)c2cccnc2Oc2cccc(C)c2)cc1

>  <score_type>  (34) 
oracle

>  <origin>  (34) 
adg

>  <m_score__min__energy>  (34) 
-9.4399999999999995

>  <m_primary>  (34) 
energy

$$$$
34:0
     RDKit          3D

 47 48  0  0  0  0  0  0  0  0999 V2000
   59.9630   30.2520   50.3090 C   0  0  0  0  0  0  0  0  0  0  0  0
   59.9690   30.0300   48.8250 C   0  0  0  0  0  0  0  0  0  0  0  0
   61.0450   30.4760   48.0460 C   0  0  0  0  0  0  0  0  0  0  0  0
   61.0320   30.2990   46.6620 C   0  0  0  0  0  0  0  0  0  0  0  0
   59.9380   29.6900   46.0410 C   0  0  0  0  0  0  0  0  0  0  0  0
   58.8390   29.2580   46.8070 C   0  0  0  0  0  0  0  0  0  0  0  0
   57.7090   28.6490   46.2410 O   0  0  0  0  0  0  0  0  0  0  0  0
   57.4990   28.4070   44.8480 C   0  0  0  0  0  0  0  0  0  0  0  0
   56.6010   29.4850   44.2170 C   0  0  1  0  0  0  0  0  0  0  0  0
   55.5090   29.7270   45.0650 O   0  0  0  0  0  0  0  0  0  0  0  0
   57.3600   30.8030   43.9210 C   0  0  0  0  0  0  0  0  0  0  0  0
   56.9490   31.9320   44.7930 N   0  0  0  0  0  0  0  0  0  0  0  0
   58.1000   32.7010   45.3250 C   0  0  0  0  0  0  0  0  0  0  0  0
   58.0420   34.1800   44.8970 C   0  0  0  0  0  0  0  0  0  0  0  0
   59.3000   34.9310   45.3790 C   0  0  0  0  0  0  0  0  0  0  0  0
   59.7530   34.5460   46.7410 N   0  0  0  0  0  0  0  0  0  0  0  0
   61.0180   33.7940   46.7270 C   0  0  0  0  0  0  0  0  0  0  0  0
   58.7150   33.8710   47.5480 C   0  0  0  0  0  0  0  0  0  0  0  0
   58.1590   32.6000   46.8710 C   0  0  0  0  0  0  0  0  0  0  0  0
   58.8630   29.4330   48.1970 C   0  0  0  0  0  0  0  0  0  0  0  0
   59.9892   29.2810   50.8251 H   0  0  0  0  0  0  0  0  0  0  0  0
   60.8455   30.8432   50.5949 H   0  0  0  0  0  0  0  0  0  0  0  0
   59.0499   30.7946   50.5949 H   0  0  0  0  0  0  0  0  0  0  0  0
   61.9033   30.9676   48.5274 H   0  0  0  0  0  0  0  0  0  0  0  0
   61.8856   30.6399   46.0577 H   0  0  0  0  0  0  0  0  0  0  0  0
   59.9358   29.5479   44.9502 H   0  0  0  0  0  0  0  0  0  0  0  0
   58.4719   28.4070   44.3347 H   0  0  0  0  0  0  0  0  0  0  0  0
   56.9983   27.4337   44.7387 H   0  0  0  0  0  0  0  0  0  0  0  0
   56.2522   29.1047   43.2455 H   0  0  0  0  0  0  0  0  0  0  0  0
   55.8570   29.7160   45.9950 H   0  0  0  0  0  0  0  0  0  0  0  0
   58.4359   30.6252   44.0656 H   0  0  0  0  0  0  0  0  0  0  0  0
   57.1197   31.0893   42.8864 H   0  0  0  0  0  0  0  0  0  0  0  0
   56.3320   32.5780   44.2440 H   0  0  0  0  0  0  0  0  0  0  0  0
   56.3660   31.5790   45.5860 H   0  0  0  0  0  0  0  0  0  0  0  0
   59.0131   32.2582   44.9005 H   0  0  0  0  0  0  0  0  0  0  0  0
   57.9840   34.2375   43.8000 H   0  0  0  0  0  0  0  0  0  0  0  0
   57.1540   34.6467   45.3484 H   0  0  0  0  0  0  0  0  0  0  0  0
   60.1172   34.7248   44.6722 H   0  0  0  0  0  0  0  0  0  0  0  0
   59.0347   35.9976   45.4231 H   0  0  0  0  0  0  0  0  0  0  0  0
   61.3416   33.6016   47.7606 H   0  0  0  0  0  0  0  0  0  0  0  0
   60.8700   32.8371   46.2050 H   0  0  0  0  0  0  0  0  0  0  0  0
   61.7879   34.3812   46.2050 H   0  0  0  0  0  0  0  0  0  0  0  0
   59.1521   33.5896   48.5174 H   0  0  0  0  0  0  0  0  0  0  0  0
   57.8782   34.5754   47.6649 H   0  0  0  0  0  0  0  0  0  0  0  0
   58.8042   31.7508   47.1405 H   0  0  0  0  0  0  0  0  0  0  0  0
   57.1267   32.4676   47.2272 H   0  0  0  0  0  0  0  0  0  0  0  0
   58.0074   29.0996   48.8026 H   0  0  0  0  0  0  0  0  0  0  0  0
  1  2  1  0
  2  3  2  0
  3  4  1  0
  4  5  2  0
  5  6  1  0
  6  7  1  0
  7  8  1  0
  8  9  1  0
  9 10  1  0
  9 11  1  0
 11 12  1  0
 12 13  1  0
 13 14  1  0
 14 15  1  0
 15 16  1  0
 16 17  1  0
 16 18  1  0
 18 19  1  0
  6 20  2  0
 20  2  1  0
 19 13  1  0
  1 21  1  0
  1 22  1  0
  1 23  1  0
  3 24  1  0
  4 25  1  0
  5 26  1  0
  8 27  1  0
  8 28  1  0
  9 29  1  6
 10 30  1  0
 11 31  1  0
 11 32  1  0
 12 33  1  0
 12 34  1  0
 13 35  1  0
 14 36  1  0
 14 37  1  0
 15 38  1  0
 15 39  1  0
 17 40  1  0
 17 41  1  0
 17 42  1  0
 18 43  1  0
 18 44  1  0
 19 45  1  0
 19 46  1  0
 20 47  1  0
M  CHG  1  12   1
M  END
>  <UniqueID>  (35) 
30

>  <SMILES>  (35) 
Cc1cccc(OC[C@@H](O)C[NH2+]C2CCN(C)CC2)c1

>  <Energy>  (35) 
55.35651999974208

>  <Genealogy>  (35) 
Cc1cccc(OCC(O)C[NH2+]C2CCN(C)CC2)c1 (protonated)
Cc1cccc(OC[C@@H](O)C[NH2+]C2CCN(C)CC2)c1 (chirality)
Cc1cccc(OC[C@@H](O)C[NH2+]C2CCN(C)CC2)c1 (3D coordinates assigned)
Cc1cccc(OC[C@@H](O)C[NH2+]C2CCN(C)CC2)c1 (nonaromatic ring conformer: 55.35651999974208 kcal/mol)

>  <smiles>  (35) 
Cc1cccc(OCC(O)CNC2CCN(C)CC2)c1

>  <score_type>  (35) 
oracle

>  <origin>  (35) 
adg

>  <m_score__min__energy>  (35) 
-6.3499999999999996

>  <m_primary>  (35) 
energy

$$$$
35:0
     RDKit          3D

 55 56  0  0  0  0  0  0  0  0999 V2000
   59.3940   33.1890   48.9860 C   0  0  0  0  0  0  0  0  0  0  0  0
   58.1740   32.6570   48.2420 C   0  0  0  0  0  0  0  0  0  0  0  0
   58.3180   32.8730   46.7530 C   0  0  0  0  0  0  0  0  0  0  0  0
   58.5920   34.1680   46.2840 C   0  0  0  0  0  0  0  0  0  0  0  0
   58.6400   34.4330   44.9170 C   0  0  0  0  0  0  0  0  0  0  0  0
   58.3980   33.4150   43.9970 C   0  0  0  0  0  0  0  0  0  0  0  0
   58.1190   32.1100   44.4340 C   0  0  0  0  0  0  0  0  0  0  0  0
   57.8120   31.0480   43.4060 C   0  0  0  0  0  0  0  0  0  0  0  0
   56.3190   30.7430   43.3680 C   0  0  0  0  0  0  0  0  0  0  0  0
   58.0840   31.8310   45.8210 C   0  0  0  0  0  0  0  0  0  0  0  0
   57.7770   30.5050   46.2750 N   0  0  0  0  0  0  0  0  0  0  0  0
   58.7820   29.6290   46.8070 C   0  0  0  0  0  0  0  0  0  0  0  0
   59.9820   30.0110   46.8700 O   0  0  0  0  0  0  0  0  0  0  0  0
   58.3990   28.2690   47.3370 C   0  0  0  0  0  0  0  0  0  0  0  0
   58.6050   27.1580   46.3770 N   0  0  0  0  0  0  0  0  0  0  0  0
   60.0240   26.9790   46.0250 C   0  0  0  0  0  0  0  0  0  0  0  0
   57.7670   27.2420   45.1610 C   0  0  0  0  0  0  0  0  0  0  0  0
   56.3390   27.5860   45.4940 C   0  0  0  0  0  0  0  0  0  0  0  0
   55.9130   28.7450   45.2470 O   0  0  0  0  0  0  0  0  0  0  0  0
   55.4180   26.6070   45.9960 N   0  0  0  0  0  0  0  0  0  0  0  0
   55.5840   25.1850   45.9560 C   0  0  0  0  0  0  0  0  0  0  0  0
   56.6300   24.5490   46.6430 C   0  0  0  0  0  0  0  0  0  0  0  0
   56.7530   23.1580   46.6090 C   0  0  0  0  0  0  0  0  0  0  0  0
   55.8290   22.3840   45.8890 C   0  0  0  0  0  0  0  0  0  0  0  0
   55.9370   20.8880   45.8810 C   0  0  0  0  0  0  0  0  0  0  0  0
   54.7560   23.0170   45.2440 C   0  0  0  0  0  0  0  0  0  0  0  0
   54.6330   24.4090   45.2840 C   0  0  0  0  0  0  0  0  0  0  0  0
   59.2235   33.1147   50.0702 H   0  0  0  0  0  0  0  0  0  0  0  0
   60.2783   32.5948   48.7123 H   0  0  0  0  0  0  0  0  0  0  0  0
   59.5603   34.2413   48.7123 H   0  0  0  0  0  0  0  0  0  0  0  0
   58.0706   31.5803   48.4420 H   0  0  0  0  0  0  0  0  0  0  0  0
   57.2830   33.1985   48.5926 H   0  0  0  0  0  0  0  0  0  0  0  0
   58.7705   34.9812   47.0030 H   0  0  0  0  0  0  0  0  0  0  0  0
   58.8696   35.4489   44.5630 H   0  0  0  0  0  0  0  0  0  0  0  0
   58.4257   33.6354   42.9197 H   0  0  0  0  0  0  0  0  0  0  0  0
   58.1325   31.4025   42.4152 H   0  0  0  0  0  0  0  0  0  0  0  0
   58.3516   30.1289   43.6783 H   0  0  0  0  0  0  0  0  0  0  0  0
   55.9345   30.6645   44.3956 H   0  0  0  0  0  0  0  0  0  0  0  0
   55.7928   31.5522   42.8405 H   0  0  0  0  0  0  0  0  0  0  0  0
   56.1523   29.7922   42.8405 H   0  0  0  0  0  0  0  0  0  0  0  0
   56.8150   30.1360   46.1070 H   0  0  0  0  0  0  0  0  0  0  0  0
   59.0037   28.0661   48.2332 H   0  0  0  0  0  0  0  0  0  0  0  0
   57.3200   28.3063   47.5476 H   0  0  0  0  0  0  0  0  0  0  0  0
   60.6231   26.9034   46.9444 H   0  0  0  0  0  0  0  0  0  0  0  0
   60.1419   26.0589   45.4339 H   0  0  0  0  0  0  0  0  0  0  0  0
   60.3667   27.8410   45.4339 H   0  0  0  0  0  0  0  0  0  0  0  0
   58.1761   28.0190   44.4986 H   0  0  0  0  0  0  0  0  0  0  0  0
   57.7778   26.2591   44.6673 H   0  0  0  0  0  0  0  0  0  0  0  0
   57.3563   25.1490   47.2109 H   0  0  0  0  0  0  0  0  0  0  0  0
   57.5767   22.6673   47.1482 H   0  0  0  0  0  0  0  0  0  0  0  0
   55.9638   20.5168   46.9161 H   0  0  0  0  0  0  0  0  0  0  0  0
   55.0674   20.4604   45.3605 H   0  0  0  0  0  0  0  0  0  0  0  0
   56.8590   20.5897   45.3605 H   0  0  0  0  0  0  0  0  0  0  0  0
   54.0089   22.4160   44.7049 H   0  0  0  0  0  0  0  0  0  0  0  0
   53.7834   24.8973   44.7842 H   0  0  0  0  0  0  0  0  0  0  0  0
  1  2  1  0
  2  3  1  0
  3  4  2  0
  4  5  1  0
  5  6  2  0
  6  7  1  0
  7  8  1  0
  8  9  1  0
  7 10  2  0
 10 11  1  0
 11 12  1  0
 12 13  2  0
 12 14  1  0
 14 15  1  0
 15 16  1  0
 15 17  1  0
 17 18  1  0
 18 19  2  0
 18 20  1  0
 20 21  1  0
 21 22  2  0
 22 23  1  0
 23 24  2  0
 24 25  1  0
 24 26  1  0
 26 27  2  0
 10  3  1  0
 27 21  1  0
  1 28  1  0
  1 29  1  0
  1 30  1  0
  2 31  1  0
  2 32  1  0
  4 33  1  0
  5 34  1  0
  6 35  1  0
  8 36  1  0
  8 37  1  0
  9 38  1  0
  9 39  1  0
  9 40  1  0
 11 41  1  0
 14 42  1  0
 14 43  1  0
 16 44  1  0
 16 45  1  0
 16 46  1  0
 17 47  1  0
 17 48  1  0
 22 49  1  0
 23 50  1  0
 25 51  1  0
 25 52  1  0
 25 53  1  0
 26 54  1  0
 27 55  1  0
M  CHG  1  20  -1
M  END
>  <UniqueID>  (36) 
31

>  <SMILES>  (36) 
CCc1cccc(CC)c1NC(=O)CN(C)CC(=O)[N-]c1ccc(C)cc1

>  <Energy>  (36) 
61.98264379242859

>  <Genealogy>  (36) 
CCc1cccc(CC)c1NC(=O)CN(C)CC(=O)[N-]c1ccc(C)cc1 (protonated)
CCc1cccc(CC)c1NC(=O)CN(C)CC(=O)[N-]c1ccc(C)cc1 (3D coordinates assigned)
CCc1cccc(CC)c1NC(=O)CN(C)CC(=O)[N-]c1ccc(C)cc1 (optimized conformer: 61.98264379242859 kcal/mol)

>  <smiles>  (36) 
CCc1cccc(CC)c1NC(=O)CN(C)CC(=O)Nc1ccc(C)cc1

>  <score_type>  (36) 
oracle

>  <origin>  (36) 
adg

>  <m_score__min__energy>  (36) 
-9.7300000000000004

>  <m_primary>  (36) 
energy

$$$$
36:0
     RDKit          3D

 38 40  0  0  0  0  0  0  0  0999 V2000
   56.2490   25.0910   46.3330 C   0  0  0  0  0  0  0  0  0  0  0  0
   57.2460   26.1570   45.9870 C   0  0  0  0  0  0  0  0  0  0  0  0
   58.6150   25.8690   45.9870 C   0  0  0  0  0  0  0  0  0  0  0  0
   59.5410   26.8500   45.6340 C   0  0  0  0  0  0  0  0  0  0  0  0
   59.1160   28.1380   45.2670 C   0  0  0  0  0  0  0  0  0  0  0  0
   60.1490   29.1650   44.8830 C   0  0  0  0  0  0  0  0  0  0  0  0
   57.7290   28.4280   45.2340 C   0  0  0  0  0  0  0  0  0  0  0  0
   57.1210   30.0220   44.7580 S   0  0  0  0  0  0  0  0  0  0  0  0
   57.8300   30.4660   43.5080 O   0  0  0  0  0  0  0  0  0  0  0  0
   55.6430   29.9540   44.4950 O   0  0  0  0  0  0  0  0  0  0  0  0
   57.4010   31.1800   46.0190 N   0  0  0  0  0  0  0  0  0  0  0  0
   58.1800   32.3610   45.8120 C   0  0  0  0  0  0  0  0  0  0  0  0
   57.6200   33.4060   45.0660 C   0  0  0  0  0  0  0  0  0  0  0  0
   58.3220   34.5980   44.8760 C   0  0  0  0  0  0  0  0  0  0  0  0
   59.5980   34.7560   45.4180 C   0  0  0  0  0  0  0  0  0  0  0  0
   60.1890   33.7110   46.1410 C   0  0  0  0  0  0  0  0  0  0  0  0
   61.4780   33.8480   46.6700 C   0  0  0  0  0  0  0  0  0  0  0  0
   62.0610   32.7890   47.3610 C   0  0  0  0  0  0  0  0  0  0  0  0
   61.3560   31.5950   47.5110 C   0  0  0  0  0  0  0  0  0  0  0  0
   60.1030   31.4650   46.9960 N   0  0  0  0  0  0  0  0  0  0  0  0
   59.4880   32.4940   46.3340 C   0  0  0  0  0  0  0  0  0  0  0  0
   56.8090   27.4290   45.5940 C   0  0  0  0  0  0  0  0  0  0  0  0
   56.1687   25.0051   47.4267 H   0  0  0  0  0  0  0  0  0  0  0  0
   55.2676   25.3566   45.9130 H   0  0  0  0  0  0  0  0  0  0  0  0
   56.5796   24.1296   45.9130 H   0  0  0  0  0  0  0  0  0  0  0  0
   58.9627   24.8636   46.2669 H   0  0  0  0  0  0  0  0  0  0  0  0
   60.6152   26.6131   45.6429 H   0  0  0  0  0  0  0  0  0  0  0  0
   60.5879   29.6014   45.7924 H   0  0  0  0  0  0  0  0  0  0  0  0
   60.9399   28.6849   44.2881 H   0  0  0  0  0  0  0  0  0  0  0  0
   59.6735   29.9587   44.2881 H   0  0  0  0  0  0  0  0  0  0  0  0
   56.6188   33.2866   44.6262 H   0  0  0  0  0  0  0  0  0  0  0  0
   57.8675   35.4154   44.2970 H   0  0  0  0  0  0  0  0  0  0  0  0
   60.1409   35.7023   45.2776 H   0  0  0  0  0  0  0  0  0  0  0  0
   62.0294   34.7909   46.5399 H   0  0  0  0  0  0  0  0  0  0  0  0
   63.0704   32.8934   47.7855 H   0  0  0  0  0  0  0  0  0  0  0  0
   61.8157   30.7529   48.0491 H   0  0  0  0  0  0  0  0  0  0  0  0
   59.6290   30.5440   47.1120 H   0  0  0  0  0  0  0  0  0  0  0  0
   55.7314   27.6483   45.5670 H   0  0  0  0  0  0  0  0  0  0  0  0
  1  2  1  0
  2  3  2  0
  3  4  1  0
  4  5  2  0
  5  6  1  0
  5  7  1  0
  7  8  1  0
  8  9  2  0
  8 10  2  0
  8 11  1  0
 11 12  1  0
 12 13  2  0
 13 14  1  0
 14 15  2  0
 15 16  1  0
 16 17  2  0
 17 18  1  0
 18 19  2  0
 19 20  1  0
 20 21  2  0
  7 22  2  0
 22  2  1  0
 21 12  1  0
 21 16  1  0
  1 23  1  0
  1 24  1  0
  1 25  1  0
  3 26  1  0
  4 27  1  0
  6 28  1  0
  6 29  1  0
  6 30  1  0
 13 31  1  0
 14 32  1  0
 15 33  1  0
 17 34  1  0
 18 35  1  0
 19 36  1  0
 20 37  1  0
 22 38  1  0
M  CHG  2  11  -1  20   1
M  END
>  <UniqueID>  (37) 
32

>  <SMILES>  (37) 
Cc1ccc(C)c(S(=O)(=O)[N-]c2cccc3ccc[nH+]c23)c1

>  <Energy>  (37) 
55.013250858521275

>  <Genealogy>  (37) 
Cc1ccc(C)c(S(=O)(=O)[N-]c2cccc3ccc[nH+]c23)c1 (protonated)
Cc1ccc(C)c(S(=O)(=O)[N-]c2cccc3ccc[nH+]c23)c1 (3D coordinates assigned)
Cc1ccc(C)c(S(=O)(=O)[N-]c2cccc3ccc[nH+]c23)c1 (optimized conformer: 55.013250858521275 kcal/mol)

>  <smiles>  (37) 
Cc1ccc(C)c(S(=O)(=O)Nc2cccc3cccnc23)c1

>  <score_type>  (37) 
oracle

>  <origin>  (37) 
adg

>  <m_score__min__energy>  (37) 
-8.2100000000000009

>  <m_primary>  (37) 
energy

$$$$
37:0
     RDKit          3D

 52 54  0  0  0  0  0  0  0  0999 V2000
   60.3800   29.8480   47.4110 C   0  0  0  0  0  0  0  0  0  0  0  0
   60.6820   31.2090   47.1120 O   0  0  0  0  0  0  0  0  0  0  0  0
   61.8150   31.8930   47.5800 C   0  0  0  0  0  0  0  0  0  0  0  0
   62.6790   31.3170   48.5340 C   0  0  0  0  0  0  0  0  0  0  0  0
   63.8260   31.9930   48.9520 C   0  0  0  0  0  0  0  0  0  0  0  0
   64.1330   33.2440   48.4220 C   0  0  0  0  0  0  0  0  0  0  0  0
   63.2850   33.8300   47.4820 C   0  0  0  0  0  0  0  0  0  0  0  0
   62.1070   33.1780   47.0680 C   0  0  0  0  0  0  0  0  0  0  0  0
   61.1980   33.8700   46.0590 C   0  0  0  0  0  0  0  0  0  0  0  0
   59.7400   33.6370   46.2670 N   0  0  1  0  0  0  0  0  0  0  0  0
   59.1900   34.4150   47.4080 C   0  0  0  0  0  0  0  0  0  0  0  0
   59.2560   33.6390   48.7070 C   0  0  0  0  0  0  0  0  0  0  0  0
   58.5270   32.4560   48.8790 C   0  0  0  0  0  0  0  0  0  0  0  0
   58.5880   31.7510   50.0850 C   0  0  0  0  0  0  0  0  0  0  0  0
   59.3890   32.2100   51.1510 C   0  0  0  0  0  0  0  0  0  0  0  0
   59.4520   31.4810   52.4040 N   0  0  0  0  0  0  0  0  0  0  0  0
   60.4300   30.4010   52.5900 C   0  0  0  0  0  0  0  0  0  0  0  0
   58.5400   31.8090   53.5080 C   0  0  0  0  0  0  0  0  0  0  0  0
   60.1290   33.3960   50.9650 C   0  0  0  0  0  0  0  0  0  0  0  0
   60.0640   34.0980   49.7570 C   0  0  0  0  0  0  0  0  0  0  0  0
   58.9710   33.8650   45.0560 C   0  0  0  0  0  0  0  0  0  0  0  0
   58.9190   35.0210   44.5460 O   0  0  0  0  0  0  0  0  0  0  0  0
   58.2920   32.7580   44.3500 C   0  0  0  0  0  0  0  0  0  0  0  0
   58.1070   32.6210   42.9760 C   0  0  0  0  0  0  0  0  0  0  0  0
   57.3940   31.4680   42.6250 C   0  0  0  0  0  0  0  0  0  0  0  0
   57.0110   30.6940   43.7100 C   0  0  0  0  0  0  0  0  0  0  0  0
   57.5570   31.4480   45.1090 S   0  0  0  0  0  0  0  0  0  0  0  0
   60.3495   29.7103   48.5019 H   0  0  0  0  0  0  0  0  0  0  0  0
   59.4020   29.5864   46.9809 H   0  0  0  0  0  0  0  0  0  0  0  0
   61.1556   29.1973   46.9809 H   0  0  0  0  0  0  0  0  0  0  0  0
   62.4469   30.3264   48.9522 H   0  0  0  0  0  0  0  0  0  0  0  0
   64.4892   31.5369   49.7018 H   0  0  0  0  0  0  0  0  0  0  0  0
   65.0438   33.7697   48.7446 H   0  0  0  0  0  0  0  0  0  0  0  0
   63.5393   34.8131   47.0590 H   0  0  0  0  0  0  0  0  0  0  0  0
   61.3832   34.9527   46.1180 H   0  0  0  0  0  0  0  0  0  0  0  0
   61.4428   33.4403   45.0765 H   0  0  0  0  0  0  0  0  0  0  0  0
   59.6240   32.6260   46.5090 H   0  0  0  0  0  0  0  0  0  0  0  0
   59.7708   35.3426   47.5184 H   0  0  0  0  0  0  0  0  0  0  0  0
   58.1328   34.6311   47.1942 H   0  0  0  0  0  0  0  0  0  0  0  0
   57.9005   32.0777   48.0578 H   0  0  0  0  0  0  0  0  0  0  0  0
   58.0037   30.8266   50.2037 H   0  0  0  0  0  0  0  0  0  0  0  0
   60.5860   30.2287   53.6652 H   0  0  0  0  0  0  0  0  0  0  0  0
   60.0525   29.4799   52.1221 H   0  0  0  0  0  0  0  0  0  0  0  0
   61.3840   30.6856   52.1221 H   0  0  0  0  0  0  0  0  0  0  0  0
   59.0458   31.6271   54.4677 H   0  0  0  0  0  0  0  0  0  0  0  0
   58.2496   32.8679   53.4414 H   0  0  0  0  0  0  0  0  0  0  0  0
   57.6417   31.1776   53.4414 H   0  0  0  0  0  0  0  0  0  0  0  0
   60.7648   33.7734   51.7795 H   0  0  0  0  0  0  0  0  0  0  0  0
   60.6522   35.0187   49.6295 H   0  0  0  0  0  0  0  0  0  0  0  0
   58.4836   33.3465   42.2399 H   0  0  0  0  0  0  0  0  0  0  0  0
   57.1593   31.2008   41.5841 H   0  0  0  0  0  0  0  0  0  0  0  0
   56.4476   29.7504   43.6630 H   0  0  0  0  0  0  0  0  0  0  0  0
  1  2  1  0
  2  3  1  0
  3  4  2  0
  4  5  1  0
  5  6  2  0
  6  7  1  0
  7  8  2  0
  8  9  1  0
  9 10  1  0
 10 11  1  0
 11 12  1  0
 12 13  2  0
 13 14  1  0
 14 15  2  0
 15 16  1  0
 16 17  1  0
 16 18  1  0
 15 19  1  0
 19 20  2  0
 10 21  1  0
 21 22  2  0
 21 23  1  0
 23 24  2  0
 24 25  1  0
 25 26  2  0
 26 27  1  0
  8  3  1  0
 20 12  1  0
 27 23  1  0
  1 28  1  0
  1 29  1  0
  1 30  1  0
  4 31  1  0
  5 32  1  0
  6 33  1  0
  7 34  1  0
  9 35  1  0
  9 36  1  0
 10 37  1  1
 11 38  1  0
 11 39  1  0
 13 40  1  0
 14 41  1  0
 17 42  1  0
 17 43  1  0
 17 44  1  0
 18 45  1  0
 18 46  1  0
 18 47  1  0
 19 48  1  0
 20 49  1  0
 24 50  1  0
 25 51  1  0
 26 52  1  0
M  CHG  1  10   1
M  END
>  <UniqueID>  (38) 
33

>  <SMILES>  (38) 
COc1ccccc1C[N@@H+](Cc1ccc(N(C)C)cc1)C(=O)c1cccs1

>  <Energy>  (38) 
88.7110836306206

>  <Genealogy>  (38) 
COc1ccccc1C[NH+](Cc1ccc(N(C)C)cc1)C(=O)c1cccs1 (protonated)
COc1ccccc1C[N@@H+](Cc1ccc(N(C)C)cc1)C(=O)c1cccs1 (chirality)
COc1ccccc1C[N@@H+](Cc1ccc(N(C)C)cc1)C(=O)c1cccs1 (3D coordinates assigned)
COc1ccccc1C[N@@H+](Cc1ccc(N(C)C)cc1)C(=O)c1cccs1 (optimized conformer: 88.7110836306206 kcal/mol)

>  <smiles>  (38) 
COc1ccccc1CN(Cc1ccc(N(C)C)cc1)C(=O)c1cccs1

>  <score_type>  (38) 
oracle

>  <origin>  (38) 
adg

>  <m_score__min__energy>  (38) 
-5.6900000000000004

>  <m_primary>  (38) 
energy

$$$$
38:0
     RDKit          3D

 34 37  0  0  0  0  0  0  0  0999 V2000
   56.0860   24.0480   47.2280 O   0  0  0  0  0  0  0  0  0  0  0  0
   56.3790   25.2170   46.8640 C   0  0  0  0  0  0  0  0  0  0  0  0
   55.5730   25.9590   46.0590 N   0  0  0  0  0  0  0  0  0  0  0  0
   56.2750   27.0990   45.9460 C   0  0  0  0  0  0  0  0  0  0  0  0
   55.9160   28.1980   45.2370 N   0  0  0  0  0  0  0  0  0  0  0  0
   56.7530   29.2810   45.2270 C   0  0  0  0  0  0  0  0  0  0  0  0
   56.4050   30.4250   44.5050 C   0  0  0  0  0  0  0  0  0  0  0  0
   57.2550   31.5340   44.4940 C   0  0  0  0  0  0  0  0  0  0  0  0
   58.4620   31.5220   45.2050 C   0  0  0  0  0  0  0  0  0  0  0  0
   59.2660   32.6740   45.1580 O   0  0  0  0  0  0  0  0  0  0  0  0
   59.5700   33.5150   46.2710 C   0  0  0  0  0  0  0  0  0  0  0  0
   60.9230   33.1810   46.8420 C   0  0  0  0  0  0  0  0  0  0  0  0
   61.0600   32.1780   47.8170 C   0  0  0  0  0  0  0  0  0  0  0  0
   62.3200   31.8690   48.3360 C   0  0  0  0  0  0  0  0  0  0  0  0
   63.4530   32.5500   47.8800 C   0  0  0  0  0  0  0  0  0  0  0  0
   63.3260   33.5400   46.9020 C   0  0  0  0  0  0  0  0  0  0  0  0
   62.0670   33.8530   46.3800 C   0  0  0  0  0  0  0  0  0  0  0  0
   58.8270   30.3720   45.9320 C   0  0  0  0  0  0  0  0  0  0  0  0
   57.9840   29.2520   45.9540 C   0  0  0  0  0  0  0  0  0  0  0  0
   58.3320   28.0950   46.6820 C   0  0  0  0  0  0  0  0  0  0  0  0
   57.4370   27.0330   46.6490 C   0  0  0  0  0  0  0  0  0  0  0  0
   57.5230   25.8380   47.2430 N   0  0  0  0  0  0  0  0  0  0  0  0
   55.4594   30.4529   43.9437 H   0  0  0  0  0  0  0  0  0  0  0  0
   56.9726   32.4284   43.9193 H   0  0  0  0  0  0  0  0  0  0  0  0
   59.5672   34.5644   45.9411 H   0  0  0  0  0  0  0  0  0  0  0  0
   58.8101   33.3557   47.0503 H   0  0  0  0  0  0  0  0  0  0  0  0
   60.1723   31.6344   48.1727 H   0  0  0  0  0  0  0  0  0  0  0  0
   62.4208   31.0886   49.1047 H   0  0  0  0  0  0  0  0  0  0  0  0
   64.4439   32.3065   48.2910 H   0  0  0  0  0  0  0  0  0  0  0  0
   64.2178   34.0740   46.5422 H   0  0  0  0  0  0  0  0  0  0  0  0
   61.9721   34.6279   45.6051 H   0  0  0  0  0  0  0  0  0  0  0  0
   59.7777   30.3526   46.4849 H   0  0  0  0  0  0  0  0  0  0  0  0
   59.2714   28.0362   47.2512 H   0  0  0  0  0  0  0  0  0  0  0  0
   58.2890   25.4720   47.8530 H   0  0  0  0  0  0  0  0  0  0  0  0
  1  2  2  0
  2  3  1  0
  3  4  1  0
  4  5  2  0
  5  6  1  0
  6  7  2  0
  7  8  1  0
  8  9  2  0
  9 10  1  0
 10 11  1  0
 11 12  1  0
 12 13  2  0
 13 14  1  0
 14 15  2  0
 15 16  1  0
 16 17  2  0
  9 18  1  0
 18 19  2  0
 19 20  1  0
 20 21  2  0
 21 22  1  0
 22  2  1  0
 21  4  1  0
 19  6  1  0
 17 12  1  0
  7 23  1  0
  8 24  1  0
 11 25  1  0
 11 26  1  0
 13 27  1  0
 14 28  1  0
 15 29  1  0
 16 30  1  0
 17 31  1  0
 18 32  1  0
 20 33  1  0
 22 34  1  0
M  CHG  1   3  -1
M  END
>  <UniqueID>  (39) 
34

>  <SMILES>  (39) 
O=c1[n-]c2nc3ccc(OCc4ccccc4)cc3cc2[nH]1

>  <Energy>  (39) 
79.90866878379524

>  <Genealogy>  (39) 
O=c1[n-]c2nc3ccc(OCc4ccccc4)cc3cc2[nH]1 (protonated)
O=c1[n-]c2nc3ccc(OCc4ccccc4)cc3cc2[nH]1 (3D coordinates assigned)
O=c1[n-]c2nc3ccc(OCc4ccccc4)cc3cc2[nH]1 (optimized conformer: 79.90866878379524 kcal/mol)

>  <smiles>  (39) 
O=c1[nH]c2cc3cc(OCc4ccccc4)ccc3nc2[nH]1

>  <score_type>  (39) 
oracle

>  <origin>  (39) 
adg

>  <m_score__min__energy>  (39) 
-9.6999999999999993

>  <m_primary>  (39) 
energy

$$$$
39:0
     RDKit          3D

 38 40  0  0  0  0  0  0  0  0999 V2000
   59.6920   26.3350   46.2100 C   0  0  0  0  0  0  0  0  0  0  0  0
   58.5640   26.6450   45.2190 C   0  0  2  0  0  0  0  0  0  0  0  0
   58.2010   28.1160   45.2450 C   0  0  0  0  0  0  0  0  0  0  0  0
   57.5060   28.6890   44.1660 C   0  0  0  0  0  0  0  0  0  0  0  0
   57.1690   30.0460   44.1800 C   0  0  0  0  0  0  0  0  0  0  0  0
   57.5080   30.8510   45.2730 C   0  0  0  0  0  0  0  0  0  0  0  0
   57.1640   32.2090   45.2410 O   0  0  0  0  0  0  0  0  0  0  0  0
   58.0010   33.2690   45.6200 C   0  0  0  0  0  0  0  0  0  0  0  0
   58.3260   33.5180   46.9660 C   0  0  0  0  0  0  0  0  0  0  0  0
   59.1510   34.5960   47.3030 C   0  0  0  0  0  0  0  0  0  0  0  0
   59.6470   35.4380   46.3040 C   0  0  0  0  0  0  0  0  0  0  0  0
   59.3120   35.2070   44.9660 C   0  0  0  0  0  0  0  0  0  0  0  0
   58.4870   34.1300   44.6260 C   0  0  0  0  0  0  0  0  0  0  0  0
   58.2240   30.2890   46.3440 C   0  0  0  0  0  0  0  0  0  0  0  0
   58.5630   28.9330   46.3320 C   0  0  0  0  0  0  0  0  0  0  0  0
   57.3490   25.7960   45.4740 C   0  0  0  0  0  0  0  0  0  0  0  0
   56.2010   26.2390   46.0300 N   0  0  0  0  0  0  0  0  0  0  0  0
   55.3860   25.1980   46.0090 N   0  0  0  0  0  0  0  0  0  0  0  0
   56.0120   24.1780   45.4460 N   0  0  0  0  0  0  0  0  0  0  0  0
   55.4410   22.8480   45.2910 C   0  0  0  0  0  0  0  0  0  0  0  0
   55.8790   22.2640   44.0210 C   0  0  0  0  0  0  0  0  0  0  0  0
   56.2250   21.8030   43.0170 N   0  0  0  0  0  0  0  0  0  0  0  0
   57.2440   24.5060   45.0970 N   0  0  0  0  0  0  0  0  0  0  0  0
   59.3154   26.4385   47.2383 H   0  0  0  0  0  0  0  0  0  0  0  0
   60.0470   25.3060   46.0513 H   0  0  0  0  0  0  0  0  0  0  0  0
   60.5230   27.0381   46.0513 H   0  0  0  0  0  0  0  0  0  0  0  0
   58.9397   26.3990   44.2148 H   0  0  0  0  0  0  0  0  0  0  0  0
   57.2252   28.0655   43.3044 H   0  0  0  0  0  0  0  0  0  0  0  0
   56.6332   30.4841   43.3250 H   0  0  0  0  0  0  0  0  0  0  0  0
   57.9300   32.8628   47.7559 H   0  0  0  0  0  0  0  0  0  0  0  0
   59.4098   34.7813   48.3559 H   0  0  0  0  0  0  0  0  0  0  0  0
   60.3005   36.2819   46.5699 H   0  0  0  0  0  0  0  0  0  0  0  0
   59.6978   35.8731   44.1802 H   0  0  0  0  0  0  0  0  0  0  0  0
   58.2181   33.9576   43.5734 H   0  0  0  0  0  0  0  0  0  0  0  0
   58.5190   30.9194   47.1958 H   0  0  0  0  0  0  0  0  0  0  0  0
   59.1169   28.5013   47.1786 H   0  0  0  0  0  0  0  0  0  0  0  0
   55.7749   22.2084   46.1213 H   0  0  0  0  0  0  0  0  0  0  0  0
   54.3435   22.9213   45.2973 H   0  0  0  0  0  0  0  0  0  0  0  0
  1  2  1  0
  2  3  1  0
  3  4  2  0
  4  5  1  0
  5  6  2  0
  6  7  1  0
  7  8  1  0
  8  9  2  0
  9 10  1  0
 10 11  2  0
 11 12  1  0
 12 13  2  0
  6 14  1  0
 14 15  2  0
  2 16  1  0
 16 17  1  0
 17 18  2  0
 18 19  1  0
 19 20  1  0
 20 21  1  0
 21 22  3  0
 19 23  1  0
 15  3  1  0
 23 16  2  0
 13  8  1  0
  1 24  1  0
  1 25  1  0
  1 26  1  0
  2 27  1  6
  4 28  1  0
  5 29  1  0
  9 30  1  0
 10 31  1  0
 11 32  1  0
 12 33  1  0
 13 34  1  0
 14 35  1  0
 15 36  1  0
 20 37  1  0
 20 38  1  0
M  END
>  <UniqueID>  (40) 
35

>  <SMILES>  (40) 
C[C@H](c1ccc(Oc2ccccc2)cc1)c1nnn(CC#N)n1

>  <Energy>  (40) 
80.91791946972711

>  <Genealogy>  (40) 
C[C@H](c1ccc(Oc2ccccc2)cc1)c1nnn(CC#N)n1 (chirality)
C[C@H](c1ccc(Oc2ccccc2)cc1)c1nnn(CC#N)n1 (3D coordinates assigned)
C[C@H](c1ccc(Oc2ccccc2)cc1)c1nnn(CC#N)n1 (optimized conformer: 80.91791946972711 kcal/mol)

>  <smiles>  (40) 
CC(c1ccc(Oc2ccccc2)cc1)c1nnn(CC#N)n1

>  <score_type>  (40) 
oracle

>  <origin>  (40) 
adg

>  <m_score__min__energy>  (40) 
-8.9399999999999995

>  <m_primary>  (40) 
energy

$$$$
40:0
     RDKit          3D

 14 15  0  0  0  0  0  0  0  0999 V2000
   50.5020   32.3840   48.6200 S   0  0  0  0  0  0  0  0  0  0  0  0
   51.0250   31.7400   50.0260 C   0  0  0  0  0  0  0  0  0  0  0  0
   50.8130   32.3380   51.2250 N   0  0  0  0  0  0  0  0  0  0  0  0
   51.3970   31.4830   52.0770 C   0  0  0  0  0  0  0  0  0  0  0  0
   51.4890   31.5880   53.4630 C   0  0  0  0  0  0  0  0  0  0  0  0
   52.1560   30.5580   54.1530 C   0  0  0  0  0  0  0  0  0  0  0  0
   52.7060   29.4640   53.4480 C   0  0  0  0  0  0  0  0  0  0  0  0
   52.5940   29.3920   52.0460 C   0  0  0  0  0  0  0  0  0  0  0  0
   51.9280   30.4290   51.3970 C   0  0  0  0  0  0  0  0  0  0  0  0
   51.7050   30.5650   50.0810 N   0  0  0  0  0  0  0  0  0  0  0  0
   51.0559   32.4452   53.9993 H   0  0  0  0  0  0  0  0  0  0  0  0
   52.2496   30.6052   55.2480 H   0  0  0  0  0  0  0  0  0  0  0  0
   53.2245   28.6642   53.9972 H   0  0  0  0  0  0  0  0  0  0  0  0
   53.0174   28.5469   51.4835 H   0  0  0  0  0  0  0  0  0  0  0  0
  1  2  2  0
  2  3  1  0
  3  4  1  0
  4  5  2  0
  5  6  1  0
  6  7  2  0
  7  8  1  0
  8  9  2  0
  9 10  1  0
 10  2  1  0
  9  4  1  0
  5 11  1  0
  6 12  1  0
  7 13  1  0
  8 14  1  0
M  CHG  2   3  -1  10  -1
M  END
>  <UniqueID>  (41) 
36

>  <SMILES>  (41) 
S=c1[n-]c2ccccc2[n-]1

>  <Energy>  (41) 
49.55331132897982

>  <Genealogy>  (41) 
S=c1[n-]c2ccccc2[n-]1 (protonated)
S=c1[n-]c2ccccc2[n-]1 (3D coordinates assigned)
S=c1[n-]c2ccccc2[n-]1 (optimized conformer: 49.55331132897982 kcal/mol)

>  <smiles>  (41) 
S=c1[nH]c2ccccc2[nH]1

>  <score_type>  (41) 
oracle

>  <origin>  (41) 
adg

>  <m_score__min__energy>  (41) 
-9.3200000000000003

>  <m_primary>  (41) 
energy

$$$$
41:0
     RDKit          3D

 33 35  0  0  0  0  0  0  0  0999 V2000
   55.9460   19.6880   44.4860 C   0  0  0  0  0  0  0  0  0  0  0  0
   55.9650   20.7950   43.5920 O   0  0  0  0  0  0  0  0  0  0  0  0
   56.4190   22.0790   43.9300 C   0  0  0  0  0  0  0  0  0  0  0  0
   56.4690   23.1330   43.0000 C   0  0  0  0  0  0  0  0  0  0  0  0
   56.9310   24.3940   43.3870 C   0  0  0  0  0  0  0  0  0  0  0  0
   57.3490   24.6300   44.7080 C   0  0  0  0  0  0  0  0  0  0  0  0
   57.8360   25.9760   45.0990 C   0  0  0  0  0  0  0  0  0  0  0  0
   59.0300   26.2770   45.7450 C   0  0  0  0  0  0  0  0  0  0  0  0
   59.0640   27.6060   45.9080 N   0  0  0  0  0  0  0  0  0  0  0  0
   60.0010   28.3770   46.5120 C   0  0  0  0  0  0  0  0  0  0  0  0
   59.7730   29.7560   46.5860 C   0  0  0  0  0  0  0  0  0  0  0  0
   58.5950   30.2960   46.0370 C   0  0  0  0  0  0  0  0  0  0  0  0
   57.6480   29.4640   45.4010 C   0  0  0  0  0  0  0  0  0  0  0  0
   56.4090   30.0410   44.8280 C   0  0  0  0  0  0  0  0  0  0  0  0
   55.2070   29.2750   44.7250 N   0  0  0  0  0  0  0  0  0  0  0  0
   56.4190   31.2260   44.3960 O   0  0  0  0  0  0  0  0  0  0  0  0
   57.9310   28.0890   45.3700 C   0  0  0  0  0  0  0  0  0  0  0  0
   57.1400   27.1180   44.8690 N   0  0  0  0  0  0  0  0  0  0  0  0
   57.2970   23.5720   45.6330 C   0  0  0  0  0  0  0  0  0  0  0  0
   56.8360   22.3110   45.2450 C   0  0  0  0  0  0  0  0  0  0  0  0
   55.9523   20.0542   45.5232 H   0  0  0  0  0  0  0  0  0  0  0  0
   55.0375   19.0925   44.3129 H   0  0  0  0  0  0  0  0  0  0  0  0
   56.8335   19.0616   44.3129 H   0  0  0  0  0  0  0  0  0  0  0  0
   56.1429   22.9640   41.9631 H   0  0  0  0  0  0  0  0  0  0  0  0
   56.9678   25.2100   42.6503 H   0  0  0  0  0  0  0  0  0  0  0  0
   59.8009   25.5593   46.0622 H   0  0  0  0  0  0  0  0  0  0  0  0
   60.9148   27.9315   46.9322 H   0  0  0  0  0  0  0  0  0  0  0  0
   60.5099   30.4136   47.0702 H   0  0  0  0  0  0  0  0  0  0  0  0
   58.4100   31.3783   46.1041 H   0  0  0  0  0  0  0  0  0  0  0  0
   55.2030   28.2440   44.8860 H   0  0  0  0  0  0  0  0  0  0  0  0
   54.3310   29.7240   44.3780 H   0  0  0  0  0  0  0  0  0  0  0  0
   57.6219   23.7384   46.6707 H   0  0  0  0  0  0  0  0  0  0  0  0
   56.8007   21.4936   45.9802 H   0  0  0  0  0  0  0  0  0  0  0  0
  1  2  1  0
  2  3  1  0
  3  4  2  0
  4  5  1  0
  5  6  2  0
  6  7  1  0
  7  8  2  0
  8  9  1  0
  9 10  1  0
 10 11  2  0
 11 12  1  0
 12 13  2  0
 13 14  1  0
 14 15  1  0
 14 16  2  0
 13 17  1  0
 17 18  2  0
  6 19  1  0
 19 20  2  0
 20  3  1  0
 18  7  1  0
 17  9  1  0
  1 21  1  0
  1 22  1  0
  1 23  1  0
  4 24  1  0
  5 25  1  0
  8 26  1  0
 10 27  1  0
 11 28  1  0
 12 29  1  0
 15 30  1  0
 15 31  1  0
 19 32  1  0
 20 33  1  0
M  END
>  <UniqueID>  (42) 
37

>  <SMILES>  (42) 
COc1ccc(-c2cn3cccc(C(N)=O)c3n2)cc1

>  <Energy>  (42) 
72.98450595281749

>  <Genealogy>  (42) 
COc1ccc(-c2cn3cccc(C(N)=O)c3n2)cc1 (3D coordinates assigned)
COc1ccc(-c2cn3cccc(C(N)=O)c3n2)cc1 (optimized conformer: 72.98450595281749 kcal/mol)

>  <smiles>  (42) 
COc1ccc(-c2cn3cccc(C(N)=O)c3n2)cc1

>  <score_type>  (42) 
oracle

>  <origin>  (42) 
adg

>  <m_score__min__energy>  (42) 
-6.8200000000000003

>  <m_primary>  (42) 
energy

$$$$
42:0
     RDKit          3D

 67 72  0  0  0  0  0  0  0  0999 V2000
   56.2968   27.0048   46.1402 H   0  0  0  0  0  0  0  0  0  0  0  0
   57.3400   26.9780   46.4880 C   0  0  0  0  0  0  0  0  0  0  0  0
   57.7790   27.9010   47.3840 N   0  0  0  0  0  0  0  0  0  0  0  0
   59.0530   27.9060   47.8600 C   0  0  0  0  0  0  0  0  0  0  0  0
   59.3780   28.8120   48.7410 N   0  0  0  0  0  0  0  0  0  0  0  0
   59.2820   30.2730   48.6040 C   0  0  0  0  0  0  0  0  0  0  0  0
   58.2991   30.5353   48.1856 H   0  0  0  0  0  0  0  0  0  0  0  0
   60.3910   30.7700   47.6500 C   0  0  0  0  0  0  0  0  0  0  0  0
   60.6173   29.9707   46.9290 H   0  0  0  0  0  0  0  0  0  0  0  0
   60.0157   31.6769   47.1533 H   0  0  0  0  0  0  0  0  0  0  0  0
   61.6900   31.1510   48.3840 C   0  0  0  0  0  0  0  0  0  0  0  0
   62.5484   30.9551   47.7247 H   0  0  0  0  0  0  0  0  0  0  0  0
   61.6482   32.2181   48.6477 H   0  0  0  0  0  0  0  0  0  0  0  0
   61.8380   30.3650   49.6150 N   0  0  0  0  0  0  0  0  0  0  0  0
   62.7730   30.5840   50.0310 H   0  0  0  0  0  0  0  0  0  0  0  0
   60.8090   30.7270   50.6070 C   0  0  0  0  0  0  0  0  0  0  0  0
   60.7348   29.9157   51.3461 H   0  0  0  0  0  0  0  0  0  0  0  0
   61.1178   31.6773   51.0670 H   0  0  0  0  0  0  0  0  0  0  0  0
   59.4130   30.9510   49.9810 C   0  0  0  0  0  0  0  0  0  0  0  0
   58.6504   30.5348   50.6557 H   0  0  0  0  0  0  0  0  0  0  0  0
   59.2731   32.0331   49.8414 H   0  0  0  0  0  0  0  0  0  0  0  0
   59.9580   26.9230   47.4070 C   0  0  0  0  0  0  0  0  0  0  0  0
   60.9957   26.9140   47.7717 H   0  0  0  0  0  0  0  0  0  0  0  0
   59.5250   25.9620   46.4920 C   0  0  0  0  0  0  0  0  0  0  0  0
   60.2173   25.1780   46.1514 H   0  0  0  0  0  0  0  0  0  0  0  0
   58.2110   25.9930   46.0060 C   0  0  0  0  0  0  0  0  0  0  0  0
   57.7340   24.9660   45.0490 C   0  0  0  0  0  0  0  0  0  0  0  0
   57.3910   23.7120   45.5790 C   0  0  0  0  0  0  0  0  0  0  0  0
   57.6312   23.4838   46.6279 H   0  0  0  0  0  0  0  0  0  0  0  0
   56.7480   22.7470   44.7940 C   0  0  0  0  0  0  0  0  0  0  0  0
   56.3140   21.4310   45.3910 C   0  0  0  0  0  0  0  0  0  0  0  0
   55.2670   21.6490   46.2670 F   0  0  0  0  0  0  0  0  0  0  0  0
   57.3610   20.8370   46.0770 F   0  0  0  0  0  0  0  0  0  0  0  0
   55.9000   20.5610   44.3970 F   0  0  0  0  0  0  0  0  0  0  0  0
   56.4010   23.0840   43.4820 C   0  0  0  0  0  0  0  0  0  0  0  0
   55.8305   22.3727   42.8667 H   0  0  0  0  0  0  0  0  0  0  0  0
   56.7650   24.2850   42.9640 N   0  0  0  0  0  0  0  0  0  0  0  0
   57.4500   25.2220   43.6730 C   0  0  0  0  0  0  0  0  0  0  0  0
   57.8130   26.3020   43.0320 N   0  0  0  0  0  0  0  0  0  0  0  0
   58.1060   27.6030   43.5550 C   0  0  0  0  0  0  0  0  0  0  0  0
   59.4030   27.8750   44.0590 C   0  0  0  0  0  0  0  0  0  0  0  0
   60.1685   27.0852   44.0465 H   0  0  0  0  0  0  0  0  0  0  0  0
   59.7210   29.1450   44.5750 C   0  0  0  0  0  0  0  0  0  0  0  0
   60.7300   29.3720   44.9495 H   0  0  0  0  0  0  0  0  0  0  0  0
   58.7120   30.1030   44.5940 C   0  0  0  0  0  0  0  0  0  0  0  0
   57.4470   29.8330   44.1480 C   0  0  0  0  0  0  0  0  0  0  0  0
   57.0950   28.5890   43.6360 C   0  0  0  0  0  0  0  0  0  0  0  0
   56.0670   28.3791   43.3057 H   0  0  0  0  0  0  0  0  0  0  0  0
   56.7200   30.9860   44.3500 C   0  0  0  0  0  0  0  0  0  0  0  0
   55.6573   31.1390   44.1107 H   0  0  0  0  0  0  0  0  0  0  0  0
   57.5610   31.8960   44.8990 N   0  0  0  0  0  0  0  0  0  0  0  0
   57.1950   33.2380   45.3460 C   0  0  0  0  0  0  0  0  0  0  0  0
   56.2304   33.1979   45.8732 H   0  0  0  0  0  0  0  0  0  0  0  0
   57.1107   33.9032   44.4740 H   0  0  0  0  0  0  0  0  0  0  0  0
   58.2530   33.7660   46.2770 C   0  0  0  0  0  0  0  0  0  0  0  0
   58.2290   33.3990   47.6320 C   0  0  0  0  0  0  0  0  0  0  0  0
   57.4053   32.7801   48.0173 H   0  0  0  0  0  0  0  0  0  0  0  0
   59.2480   33.8170   48.4940 C   0  0  0  0  0  0  0  0  0  0  0  0
   59.2178   33.5356   49.5570 H   0  0  0  0  0  0  0  0  0  0  0  0
   60.3050   34.5920   48.0070 C   0  0  0  0  0  0  0  0  0  0  0  0
   61.1086   34.9141   48.6856 H   0  0  0  0  0  0  0  0  0  0  0  0
   60.3410   34.9570   46.6610 C   0  0  0  0  0  0  0  0  0  0  0  0
   61.1703   35.5720   46.2816 H   0  0  0  0  0  0  0  0  0  0  0  0
   59.3250   34.5430   45.7920 C   0  0  0  0  0  0  0  0  0  0  0  0
   59.3900   34.8930   44.4830 F   0  0  0  0  0  0  0  0  0  0  0  0
   58.7680   31.3610   45.0550 N   0  0  0  0  0  0  0  0  0  0  0  0
   59.5950   31.8390   45.4810 H   0  0  0  0  0  0  0  0  0  0  0  0
  1  2  1  0
  2  3  1  0
  3  4  1  0
  4  5  2  0
  5  6  1  0
  6  7  1  0
  6  8  1  0
  8  9  1  0
  8 10  1  0
  8 11  1  0
 11 12  1  0
 11 13  1  0
 11 14  1  0
 14 15  1  0
 14 16  1  0
 16 17  1  0
 16 18  1  0
 16 19  1  0
 19 20  1  0
 19 21  1  0
  4 22  1  0
 22 23  1  0
 22 24  2  0
 24 25  1  0
 24 26  1  0
 26 27  1  0
 27 28  2  0
 28 29  1  0
 28 30  1  0
 30 31  1  0
 31 32  1  0
 31 33  1  0
 31 34  1  0
 30 35  2  0
 35 36  1  0
 35 37  1  0
 37 38  1  0
 38 39  2  0
 39 40  1  0
 40 41  1  0
 41 42  1  0
 41 43  2  0
 43 44  1  0
 43 45  1  0
 45 46  1  0
 46 47  1  0
 47 48  1  0
 46 49  2  0
 49 50  1  0
 49 51  1  0
 51 52  1  0
 52 53  1  0
 52 54  1  0
 52 55  1  0
 55 56  2  0
 56 57  1  0
 56 58  1  0
 58 59  1  0
 58 60  2  0
 60 61  1  0
 60 62  1  0
 62 63  1  0
 62 64  2  0
 64 65  1  0
 51 66  1  0
 66 67  1  0
 26  2  2  0
 38 27  1  0
 47 40  2  0
 64 55  1  0
 19  6  1  0
 66 45  2  0
M  CHG  3   3  -1  37  -1  66   1
M  END
>  <UniqueID>  (43) 
38

>  <SMILES>  (43) 
Fc1ccccc1Cn1cc2cc(/N=c3/[n-]cc(C(F)(F)F)cc3-c3cc/c(=N\C4CCNCC4)[n-]c3)ccc2[nH+]1

>  <Energy>  (43) 
137.194094840994

>  <Genealogy>  (43) 
Fc1ccccc1Cn1cc2cc(N=c3[n-]cc(C(F)(F)F)cc3-c3ccc(=NC4CCNCC4)[n-]c3)ccc2[nH+]1 (protonated)
Fc1ccccc1Cn1cc2cc(/N=c3/[n-]cc(C(F)(F)F)cc3-c3cc/c(=N\C4CCNCC4)[n-]c3)ccc2[nH+]1 (cis-trans isomerization)
Fc1ccccc1Cn1cc2cc(/N=c3/[n-]cc(C(F)(F)F)cc3-c3cc/c(=N\C4CCNCC4)[n-]c3)ccc2[nH+]1 (3D coordinates assigned)
Fc1ccccc1Cn1cc2cc(/N=c3/[n-]cc(C(F)(F)F)cc3-c3cc/c(=N\C4CCNCC4)[n-]c3)ccc2[nH+]1 (nonaromatic ring conformer: 137.194094840994 kcal/mol)

>  <smiles>  (43) 
Fc1ccccc1Cn1cc2cc(N=c3[nH]cc(C(F)(F)F)cc3-c3ccc(=NC4CCNCC4)[nH]c3)ccc2n1

>  <score_type>  (43) 
oracle

>  <origin>  (43) 
adg

>  <m_score__min__energy>  (43) 
-11.279999999999999

>  <m_primary>  (43) 
energy

$$$$
43:0
     RDKit          3D

 48 51  0  0  0  0  0  0  0  0999 V2000
   55.3050   26.7040   45.9520 O   0  0  0  0  0  0  0  0  0  0  0  0
   56.5550   26.8670   45.9330 C   0  0  0  0  0  0  0  0  0  0  0  0
   57.4280   26.0020   46.5060 N   0  0  0  0  0  0  0  0  0  0  0  0
   57.1180   24.7260   47.1530 C   0  0  0  0  0  0  0  0  0  0  0  0
   56.7280   23.6840   46.1020 C   0  0  0  0  0  0  0  0  0  0  0  0
   57.6990   23.7010   44.9850 N   0  0  0  0  0  0  0  0  0  0  0  0
   58.2770   22.3630   44.7150 C   0  0  0  0  0  0  0  0  0  0  0  0
   57.4840   21.5810   43.6480 C   0  0  0  0  0  0  0  0  0  0  0  0
   56.1400   22.0100   43.6120 O   0  0  0  0  0  0  0  0  0  0  0  0
   56.0670   23.3390   43.1230 C   0  0  0  0  0  0  0  0  0  0  0  0
   57.1210   24.2790   43.7560 C   0  0  0  0  0  0  0  0  0  0  0  0
   58.6410   26.5150   46.2120 C   0  0  0  0  0  0  0  0  0  0  0  0
   59.9040   26.0000   46.5050 C   0  0  0  0  0  0  0  0  0  0  0  0
   61.0260   26.7200   46.0550 C   0  0  0  0  0  0  0  0  0  0  0  0
   60.8620   27.9190   45.3260 C   0  0  0  0  0  0  0  0  0  0  0  0
   59.5750   28.4100   45.0360 C   0  0  0  0  0  0  0  0  0  0  0  0
   58.4810   27.6750   45.4980 C   0  0  0  0  0  0  0  0  0  0  0  0
   57.1640   27.9140   45.3220 N   0  0  0  0  0  0  0  0  0  0  0  0
   56.5350   28.9710   44.5270 C   0  0  0  0  0  0  0  0  0  0  0  0
   57.2200   30.2880   44.7780 C   0  0  0  0  0  0  0  0  0  0  0  0
   57.7920   30.5690   46.0310 C   0  0  0  0  0  0  0  0  0  0  0  0
   58.4540   31.7820   46.2470 C   0  0  0  0  0  0  0  0  0  0  0  0
   58.5530   32.7190   45.2160 C   0  0  0  0  0  0  0  0  0  0  0  0
   57.9890   32.4470   43.9670 C   0  0  0  0  0  0  0  0  0  0  0  0
   57.3250   31.2360   43.7470 C   0  0  0  0  0  0  0  0  0  0  0  0
   58.0022   24.3734   47.7042 H   0  0  0  0  0  0  0  0  0  0  0  0
   56.2767   24.8694   47.8470 H   0  0  0  0  0  0  0  0  0  0  0  0
   56.7221   22.6857   46.5639 H   0  0  0  0  0  0  0  0  0  0  0  0
   55.7270   23.9219   45.7129 H   0  0  0  0  0  0  0  0  0  0  0  0
   59.3113   22.4901   44.3629 H   0  0  0  0  0  0  0  0  0  0  0  0
   58.2361   21.7864   45.6509 H   0  0  0  0  0  0  0  0  0  0  0  0
   57.9430   21.7480   42.6624 H   0  0  0  0  0  0  0  0  0  0  0  0
   57.5073   20.5113   43.9032 H   0  0  0  0  0  0  0  0  0  0  0  0
   56.2238   23.3203   42.0344 H   0  0  0  0  0  0  0  0  0  0  0  0
   55.0751   23.7322   43.3903 H   0  0  0  0  0  0  0  0  0  0  0  0
   57.9283   24.4507   43.0288 H   0  0  0  0  0  0  0  0  0  0  0  0
   56.6232   25.2231   44.0220 H   0  0  0  0  0  0  0  0  0  0  0  0
   60.0188   25.0625   47.0689 H   0  0  0  0  0  0  0  0  0  0  0  0
   62.0377   26.3468   46.2723 H   0  0  0  0  0  0  0  0  0  0  0  0
   61.7475   28.4736   44.9821 H   0  0  0  0  0  0  0  0  0  0  0  0
   59.4358   29.3401   44.4654 H   0  0  0  0  0  0  0  0  0  0  0  0
   56.6137   28.7182   43.4593 H   0  0  0  0  0  0  0  0  0  0  0  0
   55.4770   29.0560   44.8159 H   0  0  0  0  0  0  0  0  0  0  0  0
   57.7187   29.8322   46.8445 H   0  0  0  0  0  0  0  0  0  0  0  0
   58.8973   31.9983   47.2302 H   0  0  0  0  0  0  0  0  0  0  0  0
   59.0754   33.6718   45.3875 H   0  0  0  0  0  0  0  0  0  0  0  0
   58.0673   33.1860   43.1560 H   0  0  0  0  0  0  0  0  0  0  0  0
   56.8830   31.0250   42.7621 H   0  0  0  0  0  0  0  0  0  0  0  0
  1  2  2  0
  2  3  1  0
  3  4  1  0
  4  5  1  0
  5  6  1  0
  6  7  1  0
  7  8  1  0
  8  9  1  0
  9 10  1  0
 10 11  1  0
  3 12  1  0
 12 13  2  0
 13 14  1  0
 14 15  2  0
 15 16  1  0
 16 17  2  0
 17 18  1  0
 18 19  1  0
 19 20  1  0
 20 21  2  0
 21 22  1  0
 22 23  2  0
 23 24  1  0
 24 25  2  0
 18  2  1  0
 25 20  1  0
 11  6  1  0
 17 12  1  0
  4 26  1  0
  4 27  1  0
  5 28  1  0
  5 29  1  0
  7 30  1  0
  7 31  1  0
  8 32  1  0
  8 33  1  0
 10 34  1  0
 10 35  1  0
 11 36  1  0
 11 37  1  0
 13 38  1  0
 14 39  1  0
 15 40  1  0
 16 41  1  0
 19 42  1  0
 19 43  1  0
 21 44  1  0
 22 45  1  0
 23 46  1  0
 24 47  1  0
 25 48  1  0
M  END
>  <UniqueID>  (44) 
39

>  <SMILES>  (44) 
O=c1n(CCN2CCOCC2)c2ccccc2n1Cc1ccccc1

>  <Energy>  (44) 
100.4606243783032

>  <Genealogy>  (44) 
O=c1n(CCN2CCOCC2)c2ccccc2n1Cc1ccccc1 (3D coordinates assigned)
O=c1n(CCN2CCOCC2)c2ccccc2n1Cc1ccccc1 (nonaromatic ring conformer: 100.4606243783032 kcal/mol)

>  <smiles>  (44) 
O=c1n(CCN2CCOCC2)c2ccccc2n1Cc1ccccc1

>  <score_type>  (44) 
oracle

>  <origin>  (44) 
adg

>  <m_score__min__energy>  (44) 
-7.8300000000000001

>  <m_primary>  (44) 
energy

$$$$
44:0
     RDKit          3D

 32 34  0  0  0  0  0  0  0  0999 V2000
   57.0150   31.5690   44.5600 C   0  0  0  0  0  0  0  0  0  0  0  0
   56.4420   30.3070   44.8220 O   0  0  0  0  0  0  0  0  0  0  0  0
   56.5760   29.4590   43.6960 C   0  0  0  0  0  0  0  0  0  0  0  0
   57.5770   28.3330   43.9800 C   0  0  0  0  0  0  0  0  0  0  0  0
   57.8300   28.2080   45.4220 N   0  0  0  0  0  0  0  0  0  0  0  0
   57.4000   27.2360   46.2790 C   0  0  0  0  0  0  0  0  0  0  0  0
   56.4400   26.1680   45.9490 C   0  0  0  0  0  0  0  0  0  0  0  0
   56.7310   24.8930   45.5020 C   0  0  0  0  0  0  0  0  0  0  0  0
   55.5110   24.2840   45.2970 C   0  0  0  0  0  0  0  0  0  0  0  0
   54.5540   25.2230   45.6200 C   0  0  0  0  0  0  0  0  0  0  0  0
   55.1380   26.3370   45.9980 O   0  0  0  0  0  0  0  0  0  0  0  0
   58.0060   27.2810   47.4940 N   0  0  0  0  0  0  0  0  0  0  0  0
   58.8370   28.3300   47.3840 C   0  0  0  0  0  0  0  0  0  0  0  0
   59.7290   28.8060   48.3430 C   0  0  0  0  0  0  0  0  0  0  0  0
   60.5490   29.8940   47.9930 C   0  0  0  0  0  0  0  0  0  0  0  0
   60.4660   30.4650   46.7040 C   0  0  0  0  0  0  0  0  0  0  0  0
   59.5590   29.9570   45.7560 C   0  0  0  0  0  0  0  0  0  0  0  0
   58.7460   28.8860   46.1400 C   0  0  0  0  0  0  0  0  0  0  0  0
   57.2436   32.0725   45.5109 H   0  0  0  0  0  0  0  0  0  0  0  0
   57.9419   31.4380   43.9824 H   0  0  0  0  0  0  0  0  0  0  0  0
   56.3063   32.1807   43.9824 H   0  0  0  0  0  0  0  0  0  0  0  0
   55.5965   29.0192   43.4568 H   0  0  0  0  0  0  0  0  0  0  0  0
   56.9453   30.0541   42.8478 H   0  0  0  0  0  0  0  0  0  0  0  0
   57.1684   27.3841   43.6024 H   0  0  0  0  0  0  0  0  0  0  0  0
   58.5255   28.5704   43.4760 H   0  0  0  0  0  0  0  0  0  0  0  0
   57.7276   24.4555   45.3430 H   0  0  0  0  0  0  0  0  0  0  0  0
   55.3363   23.2561   44.9464 H   0  0  0  0  0  0  0  0  0  0  0  0
   53.4669   25.0632   45.5688 H   0  0  0  0  0  0  0  0  0  0  0  0
   59.7898   28.3462   49.3405 H   0  0  0  0  0  0  0  0  0  0  0  0
   61.2589   30.3023   48.7274 H   0  0  0  0  0  0  0  0  0  0  0  0
   61.1150   31.3128   46.4394 H   0  0  0  0  0  0  0  0  0  0  0  0
   59.4916   30.3880   44.7462 H   0  0  0  0  0  0  0  0  0  0  0  0
  1  2  1  0
  2  3  1  0
  3  4  1  0
  4  5  1  0
  5  6  1  0
  6  7  1  0
  7  8  2  0
  8  9  1  0
  9 10  2  0
 10 11  1  0
  6 12  2  0
 12 13  1  0
 13 14  2  0
 14 15  1  0
 15 16  2  0
 16 17  1  0
 17 18  2  0
 18  5  1  0
 11  7  1  0
 18 13  1  0
  1 19  1  0
  1 20  1  0
  1 21  1  0
  3 22  1  0
  3 23  1  0
  4 24  1  0
  4 25  1  0
  8 26  1  0
  9 27  1  0
 10 28  1  0
 14 29  1  0
 15 30  1  0
 16 31  1  0
 17 32  1  0
M  END
>  <UniqueID>  (45) 
40

>  <SMILES>  (45) 
COCCn1c(-c2ccco2)nc2ccccc21

>  <Energy>  (45) 
101.25704863777146

>  <Genealogy>  (45) 
COCCn1c(-c2ccco2)nc2ccccc21 (3D coordinates assigned)
COCCn1c(-c2ccco2)nc2ccccc21 (optimized conformer: 101.25704863777146 kcal/mol)

>  <smiles>  (45) 
COCCn1c(-c2ccco2)nc2ccccc21

>  <score_type>  (45) 
oracle

>  <origin>  (45) 
adg

>  <m_score__min__energy>  (45) 
-6.04

>  <m_primary>  (45) 
energy

$$$$
45:0
     RDKit          3D

 33 35  0  0  0  0  0  0  0  0999 V2000
   58.1650   26.8110   47.3020 C   0  0  0  0  0  0  0  0  0  0  0  0
   59.0910   27.9810   47.0930 C   0  0  0  0  0  0  0  0  0  0  0  0
   59.7880   28.5090   48.1940 C   0  0  0  0  0  0  0  0  0  0  0  0
   60.6520   29.5940   48.0350 C   0  0  0  0  0  0  0  0  0  0  0  0
   60.8300   30.1670   46.7770 C   0  0  0  0  0  0  0  0  0  0  0  0
   60.1440   29.6590   45.6730 C   0  0  0  0  0  0  0  0  0  0  0  0
   59.2660   28.5700   45.8130 C   0  0  0  0  0  0  0  0  0  0  0  0
   58.5590   28.0370   44.5880 C   0  0  0  0  0  0  0  0  0  0  0  0
   57.1130   28.1230   44.7550 N   0  0  0  0  0  0  0  0  0  0  0  0
   56.3760   29.3470   44.6800 C   0  0  0  0  0  0  0  0  0  0  0  0
   55.1290   29.3300   44.5020 O   0  0  0  0  0  0  0  0  0  0  0  0
   57.0750   30.6290   44.8100 C   0  0  0  0  0  0  0  0  0  0  0  0
   57.4070   31.1760   46.0060 N   0  0  0  0  0  0  0  0  0  0  0  0
   58.0500   32.3600   45.8380 C   0  0  0  0  0  0  0  0  0  0  0  0
   58.5160   33.1600   46.8830 C   0  0  0  0  0  0  0  0  0  0  0  0
   59.1670   34.3660   46.5710 C   0  0  0  0  0  0  0  0  0  0  0  0
   59.3450   34.7550   45.2280 C   0  0  0  0  0  0  0  0  0  0  0  0
   58.8720   33.9420   44.1850 C   0  0  0  0  0  0  0  0  0  0  0  0
   58.2300   32.7530   44.5210 C   0  0  0  0  0  0  0  0  0  0  0  0
   57.5680   31.5930   43.5050 S   0  0  0  0  0  0  0  0  0  0  0  0
   58.0289   26.6391   48.3799 H   0  0  0  0  0  0  0  0  0  0  0  0
   57.1907   27.0273   46.8393 H   0  0  0  0  0  0  0  0  0  0  0  0
   58.5993   25.9125   46.8393 H   0  0  0  0  0  0  0  0  0  0  0  0
   59.6512   28.0629   49.1902 H   0  0  0  0  0  0  0  0  0  0  0  0
   61.1930   29.9972   48.9037 H   0  0  0  0  0  0  0  0  0  0  0  0
   61.5123   31.0210   46.6542 H   0  0  0  0  0  0  0  0  0  0  0  0
   60.2918   30.1153   44.6831 H   0  0  0  0  0  0  0  0  0  0  0  0
   58.8580   28.6297   43.7109 H   0  0  0  0  0  0  0  0  0  0  0  0
   58.8387   26.9826   44.4464 H   0  0  0  0  0  0  0  0  0  0  0  0
   58.3764   32.8525   47.9299 H   0  0  0  0  0  0  0  0  0  0  0  0
   59.5401   35.0106   47.3805 H   0  0  0  0  0  0  0  0  0  0  0  0
   59.8571   35.7004   44.9955 H   0  0  0  0  0  0  0  0  0  0  0  0
   59.0048   34.2360   43.1334 H   0  0  0  0  0  0  0  0  0  0  0  0
  1  2  1  0
  2  3  2  0
  3  4  1  0
  4  5  2  0
  5  6  1  0
  6  7  2  0
  7  8  1  0
  8  9  1  0
  9 10  1  0
 10 11  2  0
 10 12  1  0
 12 13  2  0
 13 14  1  0
 14 15  2  0
 15 16  1  0
 16 17  2  0
 17 18  1  0
 18 19  2  0
 19 20  1  0
  7  2  1  0
 20 12  1  0
 19 14  1  0
  1 21  1  0
  1 22  1  0
  1 23  1  0
  3 24  1  0
  4 25  1  0
  5 26  1  0
  6 27  1  0
  8 28  1  0
  8 29  1  0
 15 30  1  0
 16 31  1  0
 17 32  1  0
 18 33  1  0
M  CHG  1   9  -1
M  END
>  <UniqueID>  (46) 
41

>  <SMILES>  (46) 
Cc1ccccc1C[N-]C(=O)c1nc2ccccc2s1

>  <Energy>  (46) 
67.23588962700775

>  <Genealogy>  (46) 
Cc1ccccc1C[N-]C(=O)c1nc2ccccc2s1 (protonated)
Cc1ccccc1C[N-]C(=O)c1nc2ccccc2s1 (3D coordinates assigned)
Cc1ccccc1C[N-]C(=O)c1nc2ccccc2s1 (optimized conformer: 67.23588962700775 kcal/mol)

>  <smiles>  (46) 
Cc1ccccc1CNC(=O)c1nc2ccccc2s1

>  <score_type>  (46) 
oracle

>  <origin>  (46) 
adg

>  <m_score__min__energy>  (46) 
-9.9000000000000004

>  <m_primary>  (46) 
energy

$$$$
46:0
     RDKit          3D

 27 29  0  0  0  0  0  0  0  0999 V2000
   53.6120   25.9590   46.3620 H   0  0  0  0  0  0  0  0  0  0  0  0
   54.4090   25.8980   45.6900 N   0  0  0  0  0  0  0  0  0  0  0  0
   55.5890   26.3160   46.0120 C   0  0  0  0  0  0  0  0  0  0  0  0
   56.4550   25.5880   46.7650 N   0  0  0  0  0  0  0  0  0  0  0  0
   57.5010   26.4320   46.8120 C   0  0  0  0  0  0  0  0  0  0  0  0
   58.6800   26.1900   47.4320 N   0  0  0  0  0  0  0  0  0  0  0  0
   59.6590   27.1380   47.3710 C   0  0  0  0  0  0  0  0  0  0  0  0
   60.6219   26.9595   47.8719 H   0  0  0  0  0  0  0  0  0  0  0  0
   59.4490   28.3430   46.6730 C   0  0  0  0  0  0  0  0  0  0  0  0
   60.4260   29.2860   46.6470 F   0  0  0  0  0  0  0  0  0  0  0  0
   58.2070   28.5580   46.0380 C   0  0  0  0  0  0  0  0  0  0  0  0
   57.9220   29.8060   45.2910 C   0  0  0  0  0  0  0  0  0  0  0  0
   57.4190   29.7480   43.9820 C   0  0  0  0  0  0  0  0  0  0  0  0
   57.2268   28.7721   43.5122 H   0  0  0  0  0  0  0  0  0  0  0  0
   57.1610   30.9250   43.2720 C   0  0  0  0  0  0  0  0  0  0  0  0
   56.7719   30.8718   42.2445 H   0  0  0  0  0  0  0  0  0  0  0  0
   57.3960   32.1670   43.8640 C   0  0  0  0  0  0  0  0  0  0  0  0
   57.1994   33.0897   43.2982 H   0  0  0  0  0  0  0  0  0  0  0  0
   57.8820   32.2430   45.1780 C   0  0  0  0  0  0  0  0  0  0  0  0
   58.1760   33.5770   45.7980 C   0  0  0  0  0  0  0  0  0  0  0  0
   58.1556   33.4845   46.8939 H   0  0  0  0  0  0  0  0  0  0  0  0
   59.1711   33.9191   45.4774 H   0  0  0  0  0  0  0  0  0  0  0  0
   57.4169   34.3057   45.4774 H   0  0  0  0  0  0  0  0  0  0  0  0
   58.1580   31.0600   45.8820 C   0  0  0  0  0  0  0  0  0  0  0  0
   58.5619   31.1145   46.9037 H   0  0  0  0  0  0  0  0  0  0  0  0
   57.2790   27.5700   46.1470 N   0  0  0  0  0  0  0  0  0  0  0  0
   56.0700   27.5190   45.6220 N   0  0  0  0  0  0  0  0  0  0  0  0
  1  2  1  0
  2  3  2  0
  3  4  1  0
  4  5  2  0
  5  6  1  0
  6  7  2  0
  7  8  1  0
  7  9  1  0
  9 10  1  0
  9 11  2  0
 11 12  1  0
 12 13  2  0
 13 14  1  0
 13 15  1  0
 15 16  1  0
 15 17  2  0
 17 18  1  0
 17 19  1  0
 19 20  1  0
 20 21  1  0
 20 22  1  0
 20 23  1  0
 19 24  2  0
 24 25  1  0
 11 26  1  0
 26 27  1  0
 27  3  1  0
 26  5  1  0
 24 12  1  0
M  CHG  1  27  -1
M  END
>  <UniqueID>  (47) 
42

>  <SMILES>  (47) 
[H]/N=c1\nc2ncc(F)c(-c3cccc(C)c3)n2[n-]1

>  <Energy>  (47) 
75.07860892429585

>  <Genealogy>  (47) 
Cc1cccc(-c2c(F)cnc3nc(=N)[n-]n23)c1 (protonated)
[H]/N=c1\nc2ncc(F)c(-c3cccc(C)c3)n2[n-]1 (cis-trans isomerization)
[H]/N=c1\nc2ncc(F)c(-c3cccc(C)c3)n2[n-]1 (3D coordinates assigned)
[H]/N=c1\nc2ncc(F)c(-c3cccc(C)c3)n2[n-]1 (optimized conformer: 75.07860892429585 kcal/mol)

>  <smiles>  (47) 
Cc1cccc(-c2c(F)cnc3nc(=N)[nH]n23)c1

>  <score_type>  (47) 
oracle

>  <origin>  (47) 
adg

>  <m_score__min__energy>  (47) 
-8.9100000000000001

>  <m_primary>  (47) 
energy

$$$$
47:0
     RDKit          3D

 56 60  0  0  0  0  0  0  0  0999 V2000
   57.0360   24.0750   48.2350 C   0  0  0  0  0  0  0  0  0  0  0  0
   56.4950   24.0440   46.8310 C   0  0  0  0  0  0  0  0  0  0  0  0
   55.2630   23.4270   46.5750 C   0  0  0  0  0  0  0  0  0  0  0  0
   54.7590   23.3650   45.2760 C   0  0  0  0  0  0  0  0  0  0  0  0
   55.4690   23.9380   44.2230 C   0  0  0  0  0  0  0  0  0  0  0  0
   56.7000   24.5720   44.4520 C   0  0  0  0  0  0  0  0  0  0  0  0
   57.3930   25.2360   43.2900 C   0  0  0  0  0  0  0  0  0  0  0  0
   57.2450   24.5780   45.7600 C   0  0  0  0  0  0  0  0  0  0  0  0
   58.5340   25.1520   46.0350 N   0  0  0  0  0  0  0  0  0  0  0  0
   58.7840   26.2710   46.8980 C   0  0  0  0  0  0  0  0  0  0  0  0
   59.2070   26.0490   48.0630 O   0  0  0  0  0  0  0  0  0  0  0  0
   58.5830   27.6680   46.4520 C   0  0  0  0  0  0  0  0  0  0  0  0
   58.0320   27.9530   45.1720 C   0  0  0  0  0  0  0  0  0  0  0  0
   57.8410   29.2800   44.7490 C   0  0  0  0  0  0  0  0  0  0  0  0
   58.2130   30.2960   45.6260 C   0  0  0  0  0  0  0  0  0  0  0  0
   58.7600   30.0360   46.8510 C   0  0  0  0  0  0  0  0  0  0  0  0
   58.9680   28.7350   47.2980 C   0  0  0  0  0  0  0  0  0  0  0  0
   59.0620   31.1830   47.4930 N   0  0  0  0  0  0  0  0  0  0  0  0
   58.6720   32.1280   46.5980 C   0  0  0  0  0  0  0  0  0  0  0  0
   58.1410   31.6230   45.4660 N   0  0  0  0  0  0  0  0  0  0  0  0
   57.7390   32.4130   44.3050 C   0  0  0  0  0  0  0  0  0  0  0  0
   57.4290   33.8550   44.7410 C   0  0  0  0  0  0  0  0  0  0  0  0
   58.5430   34.4230   45.6430 C   0  0  0  0  0  0  0  0  0  0  0  0
   58.8040   33.5440   46.7950 N   0  0  0  0  0  0  0  0  0  0  0  0
   59.4560   34.0860   47.9920 C   0  0  0  0  0  0  0  0  0  0  0  0
   60.9480   33.8990   47.9040 C   0  0  0  0  0  0  0  0  0  0  0  0
   61.7130   33.7310   49.0710 C   0  0  0  0  0  0  0  0  0  0  0  0
   63.0910   33.5150   48.9820 C   0  0  0  0  0  0  0  0  0  0  0  0
   63.7150   33.4570   47.7320 C   0  0  0  0  0  0  0  0  0  0  0  0
   62.9590   33.6130   46.5670 C   0  0  0  0  0  0  0  0  0  0  0  0
   61.5800   33.8300   46.6500 C   0  0  0  0  0  0  0  0  0  0  0  0
   56.2019   24.0272   48.9505 H   0  0  0  0  0  0  0  0  0  0  0  0
   57.7022   23.2136   48.3904 H   0  0  0  0  0  0  0  0  0  0  0  0
   57.5994   25.0069   48.3904 H   0  0  0  0  0  0  0  0  0  0  0  0
   54.6893   22.9884   47.4047 H   0  0  0  0  0  0  0  0  0  0  0  0
   53.7995   22.8630   45.0826 H   0  0  0  0  0  0  0  0  0  0  0  0
   55.0609   23.8930   43.2025 H   0  0  0  0  0  0  0  0  0  0  0  0
   58.1390   25.9507   43.6677 H   0  0  0  0  0  0  0  0  0  0  0  0
   57.8943   24.4724   42.6771 H   0  0  0  0  0  0  0  0  0  0  0  0
   56.6516   25.7695   42.6771 H   0  0  0  0  0  0  0  0  0  0  0  0
   57.7518   27.1246   44.5047 H   0  0  0  0  0  0  0  0  0  0  0  0
   57.4134   29.5076   43.7614 H   0  0  0  0  0  0  0  0  0  0  0  0
   59.4194   28.5411   48.2822 H   0  0  0  0  0  0  0  0  0  0  0  0
   58.5556   32.4214   43.5680 H   0  0  0  0  0  0  0  0  0  0  0  0
   56.8396   31.9673   43.8550 H   0  0  0  0  0  0  0  0  0  0  0  0
   57.3365   34.4873   43.8457 H   0  0  0  0  0  0  0  0  0  0  0  0
   56.4899   33.8487   45.3138 H   0  0  0  0  0  0  0  0  0  0  0  0
   59.4657   34.5219   45.0524 H   0  0  0  0  0  0  0  0  0  0  0  0
   58.2148   35.4018   46.0226 H   0  0  0  0  0  0  0  0  0  0  0  0
   59.2289   35.1591   48.0746 H   0  0  0  0  0  0  0  0  0  0  0  0
   59.0799   33.5523   48.8773 H   0  0  0  0  0  0  0  0  0  0  0  0
   61.2261   33.7696   50.0566 H   0  0  0  0  0  0  0  0  0  0  0  0
   63.6866   33.3902   49.8983 H   0  0  0  0  0  0  0  0  0  0  0  0
   64.8000   33.2887   47.6657 H   0  0  0  0  0  0  0  0  0  0  0  0
   63.4493   33.5650   45.5835 H   0  0  0  0  0  0  0  0  0  0  0  0
   60.9875   33.9472   45.7307 H   0  0  0  0  0  0  0  0  0  0  0  0
  1  2  1  0
  2  3  2  0
  3  4  1  0
  4  5  2  0
  5  6  1  0
  6  7  1  0
  6  8  2  0
  8  9  1  0
  9 10  1  0
 10 11  2  0
 10 12  1  0
 12 13  2  0
 13 14  1  0
 14 15  2  0
 15 16  1  0
 16 17  2  0
 16 18  1  0
 18 19  2  0
 19 20  1  0
 20 21  1  0
 21 22  1  0
 22 23  1  0
 23 24  1  0
 24 25  1  0
 25 26  1  0
 26 27  2  0
 27 28  1  0
 28 29  2  0
 29 30  1  0
 30 31  2  0
  8  2  1  0
 17 12  1  0
 24 19  1  0
 31 26  1  0
 20 15  1  0
  1 32  1  0
  1 33  1  0
  1 34  1  0
  3 35  1  0
  4 36  1  0
  5 37  1  0
  7 38  1  0
  7 39  1  0
  7 40  1  0
 13 41  1  0
 14 42  1  0
 17 43  1  0
 21 44  1  0
 21 45  1  0
 22 46  1  0
 22 47  1  0
 23 48  1  0
 23 49  1  0
 25 50  1  0
 25 51  1  0
 27 52  1  0
 28 53  1  0
 29 54  1  0
 30 55  1  0
 31 56  1  0
M  CHG  1   9  -1
M  END
>  <UniqueID>  (48) 
43

>  <SMILES>  (48) 
Cc1cccc(C)c1[N-]C(=O)c1ccc2c(c1)nc1n2CCCN1Cc1ccccc1

>  <Energy>  (48) 
106.26490993314592

>  <Genealogy>  (48) 
Cc1cccc(C)c1[N-]C(=O)c1ccc2c(c1)nc1n2CCCN1Cc1ccccc1 (protonated)
Cc1cccc(C)c1[N-]C(=O)c1ccc2c(c1)nc1n2CCCN1Cc1ccccc1 (3D coordinates assigned)
Cc1cccc(C)c1[N-]C(=O)c1ccc2c(c1)nc1n2CCCN1Cc1ccccc1 (nonaromatic ring conformer: 106.26490993314592 kcal/mol)

>  <smiles>  (48) 
Cc1cccc(C)c1NC(=O)c1ccc2c(c1)nc1n2CCCN1Cc1ccccc1

>  <score_type>  (48) 
oracle

>  <origin>  (48) 
adg

>  <m_score__min__energy>  (48) 
-10.58

>  <m_primary>  (48) 
energy

$$$$
48:0
     RDKit          3D

 89 93  0  0  0  0  0  0  0  0999 V2000
   67.5250   26.7250   49.9150 C   0  0  0  0  0  0  0  0  0  0  0  0
   67.4770   26.9920   51.4190 C   0  0  0  0  0  0  0  0  0  0  0  0
   66.0500   27.3070   51.8760 C   0  0  0  0  0  0  0  0  0  0  0  0
   65.7320   28.7660   51.6630 C   0  0  0  0  0  0  0  0  0  0  0  0
   66.7790   29.6710   51.4210 C   0  0  0  0  0  0  0  0  0  0  0  0
   66.5120   31.0200   51.1730 C   0  0  0  0  0  0  0  0  0  0  0  0
   65.1880   31.4990   51.2170 C   0  0  0  0  0  0  0  0  0  0  0  0
   64.1370   30.5870   51.4180 C   0  0  0  0  0  0  0  0  0  0  0  0
   64.3970   29.2170   51.6250 C   0  0  0  0  0  0  0  0  0  0  0  0
   63.3560   28.2860   51.7800 O   0  0  0  0  0  0  0  0  0  0  0  0
   62.7800   27.9180   53.0330 C   0  0  0  0  0  0  0  0  0  0  0  0
   64.8980   32.9560   50.9030 C   0  0  1  0  0  0  0  0  0  0  0  0
   63.7730   33.4400   51.7330 N   0  0  0  0  0  0  0  0  0  0  0  0
   62.7250   34.1180   50.9550 C   0  0  0  0  0  0  0  0  0  0  0  0
   61.8550   33.0690   50.2360 C   0  0  2  0  0  0  0  0  0  0  0  0
   62.5970   32.4030   49.2430 O   0  0  0  0  0  0  0  0  0  0  0  0
   60.5570   33.6910   49.6550 C   0  0  2  0  0  0  0  0  0  0  0  0
   59.4060   32.6590   49.5530 C   0  0  0  0  0  0  0  0  0  0  0  0
   59.8330   31.2310   49.8150 C   0  0  0  0  0  0  0  0  0  0  0  0
   60.3710   30.4500   48.7770 C   0  0  0  0  0  0  0  0  0  0  0  0
   60.7260   29.1160   49.0080 C   0  0  0  0  0  0  0  0  0  0  0  0
   60.5650   28.5590   50.2800 C   0  0  0  0  0  0  0  0  0  0  0  0
   60.0520   29.3340   51.3230 C   0  0  0  0  0  0  0  0  0  0  0  0
   59.6930   30.6660   51.0950 C   0  0  0  0  0  0  0  0  0  0  0  0
   60.8420   34.3100   48.3600 N   0  0  0  0  0  0  0  0  0  0  0  0
   61.0180   33.6040   47.1280 C   0  0  0  0  0  0  0  0  0  0  0  0
   62.1710   33.4260   46.6510 O   0  0  0  0  0  0  0  0  0  0  0  0
   59.8340   33.1290   46.3950 C   0  0  0  0  0  0  0  0  0  0  0  0
   58.8280   34.0360   46.0190 C   0  0  0  0  0  0  0  0  0  0  0  0
   57.7110   33.5960   45.2980 C   0  0  0  0  0  0  0  0  0  0  0  0
   56.6560   34.5780   44.8710 C   0  0  0  0  0  0  0  0  0  0  0  0
   57.6290   32.2530   44.9010 C   0  0  0  0  0  0  0  0  0  0  0  0
   58.6350   31.3420   45.2560 C   0  0  0  0  0  0  0  0  0  0  0  0
   58.5740   29.9910   44.7700 N   0  0  0  0  0  0  0  0  0  0  0  0
   59.7330   29.1070   44.8750 C   0  0  0  0  0  0  0  0  0  0  0  0
   59.5620   28.0820   46.0220 C   0  0  0  0  0  0  0  0  0  0  0  0
   58.1010   27.7230   46.3870 C   0  0  0  0  0  0  0  0  0  0  0  0
   57.1680   27.6200   45.1740 C   0  0  0  0  0  0  0  0  0  0  0  0
   57.0770   29.2130   44.3810 S   0  0  0  0  0  0  0  0  0  0  0  0
   56.9530   29.0510   42.8910 O   0  0  0  0  0  0  0  0  0  0  0  0
   55.8990   29.9860   44.9030 O   0  0  0  0  0  0  0  0  0  0  0  0
   59.7320   31.7830   46.0100 C   0  0  0  0  0  0  0  0  0  0  0  0
   66.1520   33.8350   51.1040 C   0  0  0  0  0  0  0  0  0  0  0  0
   67.3550   33.2090   50.3990 C   0  0  0  0  0  0  0  0  0  0  0  0
   67.5720   31.8880   50.8870 O   0  0  0  0  0  0  0  0  0  0  0  0
   67.7171   25.6564   49.7383 H   0  0  0  0  0  0  0  0  0  0  0  0
   66.5622   27.0043   49.4621 H   0  0  0  0  0  0  0  0  0  0  0  0
   68.3302   27.3221   49.4621 H   0  0  0  0  0  0  0  0  0  0  0  0
   67.8375   26.1010   51.9540 H   0  0  0  0  0  0  0  0  0  0  0  0
   68.1153   27.8599   51.6410 H   0  0  0  0  0  0  0  0  0  0  0  0
   65.3422   26.6950   51.2977 H   0  0  0  0  0  0  0  0  0  0  0  0
   65.9637   27.0791   52.9487 H   0  0  0  0  0  0  0  0  0  0  0  0
   67.8195   29.3140   51.4268 H   0  0  0  0  0  0  0  0  0  0  0  0
   63.0977   30.9474   51.4137 H   0  0  0  0  0  0  0  0  0  0  0  0
   63.3993   28.3136   53.8515 H   0  0  0  0  0  0  0  0  0  0  0  0
   61.7649   28.3352   53.1066 H   0  0  0  0  0  0  0  0  0  0  0  0
   62.7320   26.8215   53.1066 H   0  0  0  0  0  0  0  0  0  0  0  0
   64.6119   33.0307   49.8435 H   0  0  0  0  0  0  0  0  0  0  0  0
   64.1140   34.0720   52.4920 H   0  0  0  0  0  0  0  0  0  0  0  0
   62.0952   34.7147   51.6312 H   0  0  0  0  0  0  0  0  0  0  0  0
   63.1926   34.7779   50.2095 H   0  0  0  0  0  0  0  0  0  0  0  0
   61.5428   32.3263   50.9850 H   0  0  0  0  0  0  0  0  0  0  0  0
   62.5700   32.9500   48.4160 H   0  0  0  0  0  0  0  0  0  0  0  0
   60.2091   34.4685   50.3511 H   0  0  0  0  0  0  0  0  0  0  0  0
   58.6334   32.9291   50.2879 H   0  0  0  0  0  0  0  0  0  0  0  0
   59.0375   32.6955   48.5172 H   0  0  0  0  0  0  0  0  0  0  0  0
   60.5136   30.8894   47.7787 H   0  0  0  0  0  0  0  0  0  0  0  0
   61.1320   28.5054   48.1880 H   0  0  0  0  0  0  0  0  0  0  0  0
   60.8424   27.5098   50.4598 H   0  0  0  0  0  0  0  0  0  0  0  0
   59.9304   28.8959   52.3246 H   0  0  0  0  0  0  0  0  0  0  0  0
   59.2988   31.2753   51.9216 H   0  0  0  0  0  0  0  0  0  0  0  0
   58.9187   35.0975   46.2927 H   0  0  0  0  0  0  0  0  0  0  0  0
   56.1830   35.0182   45.7612 H   0  0  0  0  0  0  0  0  0  0  0  0
   57.1184   35.3746   44.2697 H   0  0  0  0  0  0  0  0  0  0  0  0
   55.8945   34.0597   44.2697 H   0  0  0  0  0  0  0  0  0  0  0  0
   56.7688   31.9115   44.3065 H   0  0  0  0  0  0  0  0  0  0  0  0
   59.8559   28.5644   43.9261 H   0  0  0  0  0  0  0  0  0  0  0  0
   60.6185   29.7228   45.0913 H   0  0  0  0  0  0  0  0  0  0  0  0
   60.0744   27.1547   45.7262 H   0  0  0  0  0  0  0  0  0  0  0  0
   59.9869   28.5592   46.9174 H   0  0  0  0  0  0  0  0  0  0  0  0
   58.1016   26.7540   46.9075 H   0  0  0  0  0  0  0  0  0  0  0  0
   57.7182   28.5390   47.0176 H   0  0  0  0  0  0  0  0  0  0  0  0
   57.5632   26.8768   44.4659 H   0  0  0  0  0  0  0  0  0  0  0  0
   56.1650   27.3075   45.5000 H   0  0  0  0  0  0  0  0  0  0  0  0
   60.5172   31.0699   46.3015 H   0  0  0  0  0  0  0  0  0  0  0  0
   65.9655   34.8350   50.6853 H   0  0  0  0  0  0  0  0  0  0  0  0
   66.3671   33.9121   52.1800 H   0  0  0  0  0  0  0  0  0  0  0  0
   67.1636   33.1707   49.3165 H   0  0  0  0  0  0  0  0  0  0  0  0
   68.2483   33.8191   50.5982 H   0  0  0  0  0  0  0  0  0  0  0  0
  1  2  1  0
  2  3  1  0
  3  4  1  0
  4  5  2  0
  5  6  1  0
  6  7  2  0
  7  8  1  0
  8  9  2  0
  9 10  1  0
 10 11  1  0
  7 12  1  0
 12 13  1  0
 13 14  1  0
 14 15  1  0
 15 16  1  0
 15 17  1  0
 17 18  1  0
 18 19  1  0
 19 20  2  0
 20 21  1  0
 21 22  2  0
 22 23  1  0
 23 24  2  0
 17 25  1  0
 25 26  1  0
 26 27  2  0
 26 28  1  0
 28 29  2  0
 29 30  1  0
 30 31  1  0
 30 32  2  0
 32 33  1  0
 33 34  1  0
 34 35  1  0
 35 36  1  0
 36 37  1  0
 37 38  1  0
 38 39  1  0
 39 40  2  0
 39 41  2  0
 33 42  2  0
 12 43  1  0
 43 44  1  0
 44 45  1  0
  9  4  1  0
 24 19  1  0
 42 28  1  0
 45  6  1  0
 39 34  1  0
  1 46  1  0
  1 47  1  0
  1 48  1  0
  2 49  1  0
  2 50  1  0
  3 51  1  0
  3 52  1  0
  5 53  1  0
  8 54  1  0
 11 55  1  0
 11 56  1  0
 11 57  1  0
 12 58  1  6
 13 59  1  0
 14 60  1  0
 14 61  1  0
 15 62  1  1
 16 63  1  0
 17 64  1  1
 18 65  1  0
 18 66  1  0
 20 67  1  0
 21 68  1  0
 22 69  1  0
 23 70  1  0
 24 71  1  0
 29 72  1  0
 31 73  1  0
 31 74  1  0
 31 75  1  0
 32 76  1  0
 35 77  1  0
 35 78  1  0
 36 79  1  0
 36 80  1  0
 37 81  1  0
 37 82  1  0
 38 83  1  0
 38 84  1  0
 42 85  1  0
 43 86  1  0
 43 87  1  0
 44 88  1  0
 44 89  1  0
M  CHG  1  25  -1
M  END
>  <UniqueID>  (49) 
44

>  <SMILES>  (49) 
CCCc1cc2c(cc1OC)[C@@H](NC[C@H](O)C(Cc1ccccc1)[N-]C(=O)c1cc(C)cc(N3CCCCS3(=O)=O)c1)CCO2

>  <Energy>  (49) 
93.8361458807267

>  <Genealogy>  (49) 
CCCc1cc2c(cc1OC)C(NCC(O)C(Cc1ccccc1)[N-]C(=O)c1cc(C)cc(N3CCCCS3(=O)=O)c1)CCO2 (protonated)
CCCc1cc2c(cc1OC)[C@@H](NC[C@H](O)C(Cc1ccccc1)[N-]C(=O)c1cc(C)cc(N3CCCCS3(=O)=O)c1)CCO2 (chirality)
CCCc1cc2c(cc1OC)[C@@H](NC[C@H](O)C(Cc1ccccc1)[N-]C(=O)c1cc(C)cc(N3CCCCS3(=O)=O)c1)CCO2 (3D coordinates assigned)
CCCc1cc2c(cc1OC)[C@@H](NC[C@H](O)C(Cc1ccccc1)[N-]C(=O)c1cc(C)cc(N3CCCCS3(=O)=O)c1)CCO2 (nonaromatic ring conformer: 93.8361458807267 kcal/mol)

>  <smiles>  (49) 
CCCc1cc2c(cc1OC)C(NCC(O)C(Cc1ccccc1)NC(=O)c1cc(C)cc(N3CCCCS3(=O)=O)c1)CCO2

>  <score_type>  (49) 
oracle

>  <origin>  (49) 
adg

>  <m_score__min__energy>  (49) 
-12.16

>  <m_primary>  (49) 
energy

$$$$
49:0
     RDKit          3D

 28 29  0  0  0  0  0  0  0  0999 V2000
   60.9040   26.5610   46.3780 C   0  0  0  0  0  0  0  0  0  0  0  0
   59.7350   27.4260   46.0060 C   0  0  0  0  0  0  0  0  0  0  0  0
   58.4680   27.1750   46.5530 C   0  0  0  0  0  0  0  0  0  0  0  0
   57.3720   27.9570   46.1810 C   0  0  0  0  0  0  0  0  0  0  0  0
   57.5250   29.0030   45.2530 C   0  0  0  0  0  0  0  0  0  0  0  0
   56.3670   29.8370   44.8500 C   0  0  0  0  0  0  0  0  0  0  0  0
   55.2090   29.3430   44.8810 O   0  0  0  0  0  0  0  0  0  0  0  0
   56.5150   31.2130   44.4730 N   0  0  0  0  0  0  0  0  0  0  0  0
   57.4560   32.1460   45.0250 C   0  0  0  0  0  0  0  0  0  0  0  0
   57.9890   33.1980   44.2590 C   0  0  0  0  0  0  0  0  0  0  0  0
   58.8930   34.0970   44.8330 C   0  0  0  0  0  0  0  0  0  0  0  0
   59.2590   33.9640   46.1750 C   0  0  0  0  0  0  0  0  0  0  0  0
   58.7150   32.9330   46.9480 C   0  0  0  0  0  0  0  0  0  0  0  0
   59.1650   32.7720   48.6360 Cl  0  0  0  0  0  0  0  0  0  0  0  0
   57.8110   32.0310   46.3750 C   0  0  0  0  0  0  0  0  0  0  0  0
   58.7890   29.2290   44.6820 C   0  0  0  0  0  0  0  0  0  0  0  0
   59.8850   28.4450   45.0550 C   0  0  0  0  0  0  0  0  0  0  0  0
   60.9829   26.5026   47.4736 H   0  0  0  0  0  0  0  0  0  0  0  0
   60.7586   25.5513   45.9665 H   0  0  0  0  0  0  0  0  0  0  0  0
   61.8271   26.9952   45.9665 H   0  0  0  0  0  0  0  0  0  0  0  0
   58.3369   26.3585   47.2783 H   0  0  0  0  0  0  0  0  0  0  0  0
   56.3827   27.7535   46.6166 H   0  0  0  0  0  0  0  0  0  0  0  0
   57.6940   33.3139   43.2057 H   0  0  0  0  0  0  0  0  0  0  0  0
   59.3171   34.9109   44.2267 H   0  0  0  0  0  0  0  0  0  0  0  0
   59.9742   34.6694   46.6231 H   0  0  0  0  0  0  0  0  0  0  0  0
   57.3770   31.2275   46.9882 H   0  0  0  0  0  0  0  0  0  0  0  0
   58.9170   30.0279   43.9368 H   0  0  0  0  0  0  0  0  0  0  0  0
   60.8696   28.6286   44.6001 H   0  0  0  0  0  0  0  0  0  0  0  0
  1  2  1  0
  2  3  2  0
  3  4  1  0
  4  5  2  0
  5  6  1  0
  6  7  2  0
  6  8  1  0
  8  9  1  0
  9 10  2  0
 10 11  1  0
 11 12  2  0
 12 13  1  0
 13 14  1  0
 13 15  2  0
  5 16  1  0
 16 17  2  0
 17  2  1  0
 15  9  1  0
  1 18  1  0
  1 19  1  0
  1 20  1  0
  3 21  1  0
  4 22  1  0
 10 23  1  0
 11 24  1  0
 12 25  1  0
 15 26  1  0
 16 27  1  0
 17 28  1  0
M  CHG  1   8  -1
M  END
>  <UniqueID>  (50) 
45

>  <SMILES>  (50) 
Cc1ccc(C(=O)[N-]c2cccc(Cl)c2)cc1

>  <Energy>  (50) 
34.61038165557433

>  <Genealogy>  (50) 
Cc1ccc(C(=O)[N-]c2cccc(Cl)c2)cc1 (protonated)
Cc1ccc(C(=O)[N-]c2cccc(Cl)c2)cc1 (3D coordinates assigned)
Cc1ccc(C(=O)[N-]c2cccc(Cl)c2)cc1 (optimized conformer: 34.61038165557433 kcal/mol)

>  <smiles>  (50) 
Cc1ccc(C(=O)Nc2cccc(Cl)c2)cc1

>  <score_type>  (50) 
oracle

>  <origin>  (50) 
adg

>  <m_score__min__energy>  (50) 
-8.4100000000000001

>  <m_primary>  (50) 
energy

$$$$
