0:0
     RDKit          3D

 30 32  0  0  0  0  0  0  0  0999 V2000
   60.5170   26.7530   47.0660 C   0  0  0  0  0  0  0  0  0  0  0  0
   59.9430   27.7440   48.4780 S   0  0  0  0  0  0  0  0  0  0  0  0
   59.2620   29.0340   47.4380 C   0  0  0  0  0  0  0  0  0  0  0  0
   59.6930   30.3190   47.4420 N   0  0  0  0  0  0  0  0  0  0  0  0
   58.9620   31.0050   46.5650 N   0  0  0  0  0  0  0  0  0  0  0  0
   59.1280   32.4130   46.3170 C   0  0  0  0  0  0  0  0  0  0  0  0
   58.2890   33.1000   45.4190 C   0  0  0  0  0  0  0  0  0  0  0  0
   58.4740   34.4660   45.1830 C   0  0  0  0  0  0  0  0  0  0  0  0
   59.4970   35.1590   45.8350 C   0  0  0  0  0  0  0  0  0  0  0  0
   60.3440   34.4840   46.7160 C   0  0  0  0  0  0  0  0  0  0  0  0
   60.1650   33.1180   46.9540 C   0  0  0  0  0  0  0  0  0  0  0  0
   58.0670   30.1580   46.0180 C   0  0  0  0  0  0  0  0  0  0  0  0
   57.0830   30.4470   45.1310 N   0  0  0  0  0  0  0  0  0  0  0  0
   56.2530   29.4360   44.7270 C   0  0  0  0  0  0  0  0  0  0  0  0
   55.1440   29.7250   43.7720 C   0  0  0  0  0  0  0  0  0  0  0  0
   56.3990   28.1730   45.2430 N   0  0  0  0  0  0  0  0  0  0  0  0
   57.3760   27.8840   46.1510 C   0  0  0  0  0  0  0  0  0  0  0  0
   57.4920   26.7220   46.6200 O   0  0  0  0  0  0  0  0  0  0  0  0
   58.2220   28.9140   46.5400 C   0  0  0  0  0  0  0  0  0  0  0  0
   61.0365   25.8561   47.4345 H   0  0  0  0  0  0  0  0  0  0  0  0
   59.6537   26.4515   46.4546 H   0  0  0  0  0  0  0  0  0  0  0  0
   61.2081   27.3518   46.4546 H   0  0  0  0  0  0  0  0  0  0  0  0
   57.4836   32.5594   44.9002 H   0  0  0  0  0  0  0  0  0  0  0  0
   57.8123   34.9962   44.4822 H   0  0  0  0  0  0  0  0  0  0  0  0
   59.6350   36.2353   45.6544 H   0  0  0  0  0  0  0  0  0  0  0  0
   61.1539   35.0281   47.2240 H   0  0  0  0  0  0  0  0  0  0  0  0
   60.8400   32.5909   47.6443 H   0  0  0  0  0  0  0  0  0  0  0  0
   54.2290   29.9635   44.3340 H   0  0  0  0  0  0  0  0  0  0  0  0
   55.4191   30.5814   43.1389 H   0  0  0  0  0  0  0  0  0  0  0  0
   54.9662   28.8432   43.1389 H   0  0  0  0  0  0  0  0  0  0  0  0
  1  2  1  0
  2  3  1  0
  3  4  2  0
  4  5  1  0
  5  6  1  0
  6  7  2  0
  7  8  1  0
  8  9  2  0
  9 10  1  0
 10 11  2  0
  5 12  1  0
 12 13  1  0
 13 14  1  0
 14 15  1  0
 14 16  2  0
 16 17  1  0
 17 18  2  0
 17 19  1  0
 19  3  1  0
 11  6  1  0
 19 12  2  0
  1 20  1  0
  1 21  1  0
  1 22  1  0
  7 23  1  0
  8 24  1  0
  9 25  1  0
 10 26  1  0
 11 27  1  0
 15 28  1  0
 15 29  1  0
 15 30  1  0
M  CHG  1  13  -1
M  END
>  <UniqueID>  (1) 
1

>  <SMILES>  (1) 
CSc1nn(-c2ccccc2)c2[n-]c(C)nc(=O)c12

>  <Energy>  (1) 
74.19151989048159

>  <Genealogy>  (1) 
CSc1nn(-c2ccccc2)c2[n-]c(C)nc(=O)c12 (protonated)
CSc1nn(-c2ccccc2)c2[n-]c(C)nc(=O)c12 (3D coordinates assigned)
CSc1nn(-c2ccccc2)c2[n-]c(C)nc(=O)c12 (optimized conformer: 74.19151989048159 kcal/mol)

>  <smiles>  (1) 
CSc1nn(-c2ccccc2)c2[nH]c(C)nc(=O)c12

>  <score_type>  (1) 
oracle

>  <origin>  (1) 
adg

>  <m_score__min__energy>  (1) 
-7.9900000000000002

>  <m_primary>  (1) 
energy

$$$$
1:0
     RDKit          3D

 75 79  0  0  0  0  0  0  0  0999 V2000
   56.8110   21.6740   43.0410 C   0  0  0  0  0  0  0  0  0  0  0  0
   56.5970   23.1760   43.2190 C   0  0  0  0  0  0  0  0  0  0  0  0
   55.1630   23.4810   43.6770 C   0  0  0  0  0  0  0  0  0  0  0  0
   55.1190   23.8850   45.0910 N   0  0  0  0  0  0  0  0  0  0  0  0
   54.2150   23.1490   45.9940 C   0  0  0  0  0  0  0  0  0  0  0  0
   54.9900   22.2460   46.9640 C   0  0  0  0  0  0  0  0  0  0  0  0
   55.8360   23.0460   47.9530 C   0  0  0  0  0  0  0  0  0  0  0  0
   55.5190   25.2230   45.4790 C   0  0  0  0  0  0  0  0  0  0  0  0
   54.6550   25.9820   45.9960 O   0  0  0  0  0  0  0  0  0  0  0  0
   56.8700   25.7320   45.3110 N   0  0  0  0  0  0  0  0  0  0  0  0
   57.1330   27.0570   45.9430 C   0  0  0  0  0  0  0  0  0  0  0  0
   58.1260   26.9930   47.1220 C   0  0  0  0  0  0  0  0  0  0  0  0
   59.3870   26.2990   46.7730 N   0  0  0  0  0  0  0  0  0  0  0  0
   60.5730   27.1740   46.6600 C   0  0  0  0  0  0  0  0  0  0  0  0
   60.2940   28.6240   46.9960 C   0  0  0  0  0  0  0  0  0  0  0  0
   60.7190   29.1590   48.2390 C   0  0  0  0  0  0  0  0  0  0  0  0
   60.4930   30.5080   48.5620 C   0  0  0  0  0  0  0  0  0  0  0  0
   59.8270   31.3090   47.6300 C   0  0  0  0  0  0  0  0  0  0  0  0
   59.3940   30.7810   46.4310 C   0  0  0  0  0  0  0  0  0  0  0  0
   59.5960   29.4470   46.0870 C   0  0  0  0  0  0  0  0  0  0  0  0
   58.7960   31.8120   45.7460 C   0  0  0  0  0  0  0  0  0  0  0  0
   58.2100   31.8600   44.4820 C   0  0  0  0  0  0  0  0  0  0  0  0
   57.7050   33.0970   44.0430 C   0  0  0  0  0  0  0  0  0  0  0  0
   57.7970   34.2410   44.8650 C   0  0  0  0  0  0  0  0  0  0  0  0
   58.3920   34.1620   46.1370 C   0  0  0  0  0  0  0  0  0  0  0  0
   58.8910   32.9250   46.5560 C   0  0  0  0  0  0  0  0  0  0  0  0
   59.5170   32.6300   47.7240 N   0  0  0  0  0  0  0  0  0  0  0  0
   59.8650   33.5620   48.8010 C   0  0  0  0  0  0  0  0  0  0  0  0
   61.3350   33.4730   49.1150 C   0  0  0  0  0  0  0  0  0  0  0  0
   62.2890   33.4950   48.0830 C   0  0  0  0  0  0  0  0  0  0  0  0
   63.6510   33.3790   48.3770 C   0  0  0  0  0  0  0  0  0  0  0  0
   64.0730   33.2450   49.7030 C   0  0  0  0  0  0  0  0  0  0  0  0
   65.7820   33.0940   50.0690 Cl  0  0  0  0  0  0  0  0  0  0  0  0
   63.1310   33.2260   50.7370 C   0  0  0  0  0  0  0  0  0  0  0  0
   61.7680   33.3380   50.4450 C   0  0  0  0  0  0  0  0  0  0  0  0
   59.2740   25.2910   45.6990 C   0  0  0  0  0  0  0  0  0  0  0  0
   57.8640   24.6920   45.6570 C   0  0  0  0  0  0  0  0  0  0  0  0
   56.8794   21.1938   44.0283 H   0  0  0  0  0  0  0  0  0  0  0  0
   55.9647   21.2466   42.4833 H   0  0  0  0  0  0  0  0  0  0  0  0
   57.7430   21.5000   42.4833 H   0  0  0  0  0  0  0  0  0  0  0  0
   57.3028   23.5522   43.9742 H   0  0  0  0  0  0  0  0  0  0  0  0
   56.7664   23.6697   42.2507 H   0  0  0  0  0  0  0  0  0  0  0  0
   54.7574   24.2965   43.0602 H   0  0  0  0  0  0  0  0  0  0  0  0
   54.5639   22.5656   43.5625 H   0  0  0  0  0  0  0  0  0  0  0  0
   53.6254   23.8731   46.5754 H   0  0  0  0  0  0  0  0  0  0  0  0
   53.5627   22.5109   45.3796 H   0  0  0  0  0  0  0  0  0  0  0  0
   54.2709   21.6340   47.5282 H   0  0  0  0  0  0  0  0  0  0  0  0
   55.6712   21.6203   46.3687 H   0  0  0  0  0  0  0  0  0  0  0  0
   55.5512   22.7767   48.9808 H   0  0  0  0  0  0  0  0  0  0  0  0
   56.9001   22.8161   47.7952 H   0  0  0  0  0  0  0  0  0  0  0  0
   55.6659   24.1212   47.7952 H   0  0  0  0  0  0  0  0  0  0  0  0
   56.9730   25.8900   44.2770 H   0  0  0  0  0  0  0  0  0  0  0  0
   57.5447   27.7316   45.1779 H   0  0  0  0  0  0  0  0  0  0  0  0
   56.1754   27.4173   46.3471 H   0  0  0  0  0  0  0  0  0  0  0  0
   58.3652   28.0197   47.4362 H   0  0  0  0  0  0  0  0  0  0  0  0
   57.6454   26.4208   47.9292 H   0  0  0  0  0  0  0  0  0  0  0  0
   61.3466   26.8009   47.3473 H   0  0  0  0  0  0  0  0  0  0  0  0
   60.8956   27.1440   45.6088 H   0  0  0  0  0  0  0  0  0  0  0  0
   61.2334   28.5080   48.9613 H   0  0  0  0  0  0  0  0  0  0  0  0
   60.8314   30.9226   49.5231 H   0  0  0  0  0  0  0  0  0  0  0  0
   59.2220   29.0460   45.1334 H   0  0  0  0  0  0  0  0  0  0  0  0
   58.1449   30.9619   43.8502 H   0  0  0  0  0  0  0  0  0  0  0  0
   57.2347   33.1737   43.0516 H   0  0  0  0  0  0  0  0  0  0  0  0
   57.3999   35.2025   44.5076 H   0  0  0  0  0  0  0  0  0  0  0  0
   58.4628   35.0487   46.7841 H   0  0  0  0  0  0  0  0  0  0  0  0
   59.6228   34.5876   48.4856 H   0  0  0  0  0  0  0  0  0  0  0  0
   59.2904   33.2988   49.7013 H   0  0  0  0  0  0  0  0  0  0  0  0
   61.9623   33.6041   47.0383 H   0  0  0  0  0  0  0  0  0  0  0  0
   64.3916   33.3932   47.5637 H   0  0  0  0  0  0  0  0  0  0  0  0
   63.4627   33.1229   51.7807 H   0  0  0  0  0  0  0  0  0  0  0  0
   61.0306   33.3203   51.2611 H   0  0  0  0  0  0  0  0  0  0  0  0
   59.4912   25.7689   44.7323 H   0  0  0  0  0  0  0  0  0  0  0  0
   59.9932   24.4829   45.8985 H   0  0  0  0  0  0  0  0  0  0  0  0
   57.8318   23.8943   44.9003 H   0  0  0  0  0  0  0  0  0  0  0  0
   57.6211   24.2833   46.6489 H   0  0  0  0  0  0  0  0  0  0  0  0
  1  2  1  0
  2  3  1  0
  3  4  1  0
  4  5  1  0
  5  6  1  0
  6  7  1  0
  4  8  1  0
  8  9  2  0
  8 10  1  0
 10 11  1  0
 11 12  1  0
 12 13  1  0
 13 14  1  0
 14 15  1  0
 15 16  2  0
 16 17  1  0
 17 18  2  0
 18 19  1  0
 19 20  2  0
 19 21  1  0
 21 22  2  0
 22 23  1  0
 23 24  2  0
 24 25  1  0
 25 26  2  0
 26 27  1  0
 27 28  1  0
 28 29  1  0
 29 30  2  0
 30 31  1  0
 31 32  2  0
 32 33  1  0
 32 34  1  0
 34 35  2  0
 13 36  1  0
 36 37  1  0
 37 10  1  0
 20 15  1  0
 26 21  1  0
 35 29  1  0
 27 18  1  0
  1 38  1  0
  1 39  1  0
  1 40  1  0
  2 41  1  0
  2 42  1  0
  3 43  1  0
  3 44  1  0
  5 45  1  0
  5 46  1  0
  6 47  1  0
  6 48  1  0
  7 49  1  0
  7 50  1  0
  7 51  1  0
 10 52  1  0
 11 53  1  0
 11 54  1  0
 12 55  1  0
 12 56  1  0
 14 57  1  0
 14 58  1  0
 16 59  1  0
 17 60  1  0
 20 61  1  0
 22 62  1  0
 23 63  1  0
 24 64  1  0
 25 65  1  0
 28 66  1  0
 28 67  1  0
 30 68  1  0
 31 69  1  0
 34 70  1  0
 35 71  1  0
 36 72  1  0
 36 73  1  0
 37 74  1  0
 37 75  1  0
M  CHG  1  10   1
M  END
>  <UniqueID>  (2) 
2

>  <SMILES>  (2) 
CCCN(CCC)C(=O)[NH+]1CCN(Cc2ccc3c(c2)c2ccccc2n3Cc2ccc(Cl)cc2)CC1

>  <Energy>  (2) 
133.72857454237865

>  <Genealogy>  (2) 
CCCN(CCC)C(=O)[NH+]1CCN(Cc2ccc3c(c2)c2ccccc2n3Cc2ccc(Cl)cc2)CC1 (protonated)
CCCN(CCC)C(=O)[NH+]1CCN(Cc2ccc3c(c2)c2ccccc2n3Cc2ccc(Cl)cc2)CC1 (3D coordinates assigned)
CCCN(CCC)C(=O)[NH+]1CCN(Cc2ccc3c(c2)c2ccccc2n3Cc2ccc(Cl)cc2)CC1 (nonaromatic ring conformer: 133.72857454237865 kcal/mol)

>  <smiles>  (2) 
CCCN(CCC)C(=O)N1CCN(Cc2ccc3c(c2)c2ccccc2n3Cc2ccc(Cl)cc2)CC1

>  <score_type>  (2) 
oracle

>  <origin>  (2) 
adg

>  <m_score__min__energy>  (2) 
-8.4100000000000001

>  <m_primary>  (2) 
energy

$$$$
2:0
     RDKit          3D

 49 50  0  0  0  0  0  0  0  0999 V2000
   62.9860   34.2420   50.1170 C   0  0  0  0  0  0  0  0  0  0  0  0
   62.3610   32.8740   49.8530 C   0  0  0  0  0  0  0  0  0  0  0  0
   61.9590   32.7390   48.4260 N   0  0  0  0  0  0  0  0  0  0  0  0
   63.1210   32.4950   47.5350 C   0  0  0  0  0  0  0  0  0  0  0  0
   63.3880   33.6620   46.5860 C   0  0  0  0  0  0  0  0  0  0  0  0
   61.1870   33.9200   47.9500 C   0  0  0  0  0  0  0  0  0  0  0  0
   59.7010   33.5750   47.7680 C   0  0  0  0  0  0  0  0  0  0  0  0
   59.4940   32.2560   47.0510 C   0  0  0  0  0  0  0  0  0  0  0  0
   59.9530   31.1420   47.7030 N   0  0  0  0  0  0  0  0  0  0  0  0
   59.8790   29.9000   47.1560 C   0  0  0  0  0  0  0  0  0  0  0  0
   60.3750   28.7760   47.8370 C   0  0  0  0  0  0  0  0  0  0  0  0
   60.2880   27.5090   47.2500 C   0  0  0  0  0  0  0  0  0  0  0  0
   59.7080   27.3600   45.9860 C   0  0  0  0  0  0  0  0  0  0  0  0
   59.2120   28.4770   45.3060 C   0  0  0  0  0  0  0  0  0  0  0  0
   59.2990   29.7450   45.8930 C   0  0  0  0  0  0  0  0  0  0  0  0
   58.8160   30.8330   45.2530 N   0  0  0  0  0  0  0  0  0  0  0  0
   58.8750   32.0980   45.7630 C   0  0  0  0  0  0  0  0  0  0  0  0
   58.2270   33.2200   44.9100 C   0  0  0  0  0  0  0  0  0  0  0  0
   59.2440   34.3760   44.6940 C   0  0  0  0  0  0  0  0  0  0  0  0
   57.0060   33.8550   45.6140 C   0  0  0  0  0  0  0  0  0  0  0  0
   57.8600   32.7000   43.4990 C   0  0  0  0  0  0  0  0  0  0  0  0
   63.0616   34.4074   51.2019 H   0  0  0  0  0  0  0  0  0  0  0  0
   63.9903   34.2788   49.6697 H   0  0  0  0  0  0  0  0  0  0  0  0
   62.3564   35.0253   49.6697 H   0  0  0  0  0  0  0  0  0  0  0  0
   63.0938   32.0905   50.0962 H   0  0  0  0  0  0  0  0  0  0  0  0
   61.4642   32.7706   50.4816 H   0  0  0  0  0  0  0  0  0  0  0  0
   64.0143   32.3348   48.1566 H   0  0  0  0  0  0  0  0  0  0  0  0
   62.8907   31.6118   46.9210 H   0  0  0  0  0  0  0  0  0  0  0  0
   63.5958   34.5701   47.1709 H   0  0  0  0  0  0  0  0  0  0  0  0
   64.2558   33.4278   45.9519 H   0  0  0  0  0  0  0  0  0  0  0  0
   62.5047   33.8284   45.9519 H   0  0  0  0  0  0  0  0  0  0  0  0
   61.2795   34.7305   48.6880 H   0  0  0  0  0  0  0  0  0  0  0  0
   61.5938   34.2333   46.9772 H   0  0  0  0  0  0  0  0  0  0  0  0
   59.2289   33.5151   48.7597 H   0  0  0  0  0  0  0  0  0  0  0  0
   59.2481   34.3650   47.1510 H   0  0  0  0  0  0  0  0  0  0  0  0
   60.3830   31.2440   48.6510 H   0  0  0  0  0  0  0  0  0  0  0  0
   60.8315   28.8919   48.8311 H   0  0  0  0  0  0  0  0  0  0  0  0
   60.6763   26.6288   47.7833 H   0  0  0  0  0  0  0  0  0  0  0  0
   59.6419   26.3629   45.5261 H   0  0  0  0  0  0  0  0  0  0  0  0
   58.7547   28.3595   44.3125 H   0  0  0  0  0  0  0  0  0  0  0  0
   59.5790   34.7568   45.6701 H   0  0  0  0  0  0  0  0  0  0  0  0
   60.1106   34.0013   44.1295 H   0  0  0  0  0  0  0  0  0  0  0  0
   58.7619   35.1878   44.1295 H   0  0  0  0  0  0  0  0  0  0  0  0
   57.1354   33.7877   46.7043 H   0  0  0  0  0  0  0  0  0  0  0  0
   56.9213   34.9114   45.3193 H   0  0  0  0  0  0  0  0  0  0  0  0
   56.0925   33.3177   45.3193 H   0  0  0  0  0  0  0  0  0  0  0  0
   57.2279   31.8045   43.5912 H   0  0  0  0  0  0  0  0  0  0  0  0
   57.3118   33.4809   42.9515 H   0  0  0  0  0  0  0  0  0  0  0  0
   58.7794   32.4451   42.9515 H   0  0  0  0  0  0  0  0  0  0  0  0
  1  2  1  0
  2  3  1  0
  3  4  1  0
  4  5  1  0
  3  6  1  0
  6  7  1  0
  7  8  1  0
  8  9  2  0
  9 10  1  0
 10 11  2  0
 11 12  1  0
 12 13  2  0
 13 14  1  0
 14 15  2  0
 15 16  1  0
 16 17  2  0
 17 18  1  0
 18 19  1  0
 18 20  1  0
 18 21  1  0
 17  8  1  0
 15 10  1  0
  1 22  1  0
  1 23  1  0
  1 24  1  0
  2 25  1  0
  2 26  1  0
  4 27  1  0
  4 28  1  0
  5 29  1  0
  5 30  1  0
  5 31  1  0
  6 32  1  0
  6 33  1  0
  7 34  1  0
  7 35  1  0
  9 36  1  0
 11 37  1  0
 12 38  1  0
 13 39  1  0
 14 40  1  0
 19 41  1  0
 19 42  1  0
 19 43  1  0
 20 44  1  0
 20 45  1  0
 20 46  1  0
 21 47  1  0
 21 48  1  0
 21 49  1  0
M  CHG  1   9   1
M  END
>  <UniqueID>  (3) 
3

>  <SMILES>  (3) 
CCN(CC)CCc1[nH+]c2ccccc2nc1C(C)(C)C

>  <Energy>  (3) 
59.62131030774988

>  <Genealogy>  (3) 
CCN(CC)CCc1[nH+]c2ccccc2nc1C(C)(C)C (protonated)
CCN(CC)CCc1[nH+]c2ccccc2nc1C(C)(C)C (3D coordinates assigned)
CCN(CC)CCc1[nH+]c2ccccc2nc1C(C)(C)C (optimized conformer: 59.62131030774988 kcal/mol)

>  <smiles>  (3) 
CCN(CC)CCc1nc2ccccc2nc1C(C)(C)C

>  <score_type>  (3) 
oracle

>  <origin>  (3) 
adg

>  <m_score__min__energy>  (3) 
-5.8399999999999999

>  <m_primary>  (3) 
energy

$$$$
3:0
     RDKit          3D

 38 40  0  0  0  0  0  0  0  0999 V2000
   57.8140   27.4670   44.0160 C   0  0  0  0  0  0  0  0  0  0  0  0
   57.4490   27.8230   45.3450 O   0  0  0  0  0  0  0  0  0  0  0  0
   58.3280   28.3640   46.2970 C   0  0  0  0  0  0  0  0  0  0  0  0
   58.6330   27.6850   47.4910 C   0  0  0  0  0  0  0  0  0  0  0  0
   59.5500   28.2170   48.3980 C   0  0  0  0  0  0  0  0  0  0  0  0
   60.1850   29.4350   48.1280 C   0  0  0  0  0  0  0  0  0  0  0  0
   61.1170   29.9650   49.0340 C   0  0  0  0  0  0  0  0  0  0  0  0
   61.7460   31.1820   48.7640 C   0  0  0  0  0  0  0  0  0  0  0  0
   61.4500   31.8800   47.5910 C   0  0  0  0  0  0  0  0  0  0  0  0
   60.5250   31.3640   46.6800 C   0  0  0  0  0  0  0  0  0  0  0  0
   59.8830   30.1360   46.9350 C   0  0  0  0  0  0  0  0  0  0  0  0
   58.9390   29.6080   46.0310 C   0  0  0  0  0  0  0  0  0  0  0  0
   58.6460   30.3150   44.8560 O   0  0  0  0  0  0  0  0  0  0  0  0
   57.4270   30.9560   44.6060 C   0  0  0  0  0  0  0  0  0  0  0  0
   56.3310   30.3810   44.8500 O   0  0  0  0  0  0  0  0  0  0  0  0
   57.4350   32.3750   44.1430 C   0  0  0  0  0  0  0  0  0  0  0  0
   58.0700   33.2480   45.1890 C   0  0  0  0  0  0  0  0  0  0  0  0
   57.7780   33.0520   46.5490 C   0  0  0  0  0  0  0  0  0  0  0  0
   58.4050   33.8360   47.5230 C   0  0  0  0  0  0  0  0  0  0  0  0
   59.3340   34.8110   47.1480 C   0  0  0  0  0  0  0  0  0  0  0  0
   59.6400   35.0010   45.7970 C   0  0  0  0  0  0  0  0  0  0  0  0
   59.0140   34.2210   44.8200 C   0  0  0  0  0  0  0  0  0  0  0  0
   58.6012   26.6992   44.0451 H   0  0  0  0  0  0  0  0  0  0  0  0
   56.9343   27.0704   43.4879 H   0  0  0  0  0  0  0  0  0  0  0  0
   58.1885   28.3563   43.4879 H   0  0  0  0  0  0  0  0  0  0  0  0
   58.1435   26.7249   47.7116 H   0  0  0  0  0  0  0  0  0  0  0  0
   59.7750   27.6769   49.3295 H   0  0  0  0  0  0  0  0  0  0  0  0
   61.3526   29.4197   49.9598 H   0  0  0  0  0  0  0  0  0  0  0  0
   62.4765   31.5921   49.4769 H   0  0  0  0  0  0  0  0  0  0  0  0
   61.9469   32.8393   47.3838 H   0  0  0  0  0  0  0  0  0  0  0  0
   60.2966   31.9195   45.7585 H   0  0  0  0  0  0  0  0  0  0  0  0
   58.0081   32.4506   43.2071 H   0  0  0  0  0  0  0  0  0  0  0  0
   56.4004   32.7071   43.9718 H   0  0  0  0  0  0  0  0  0  0  0  0
   57.0542   32.2798   46.8488 H   0  0  0  0  0  0  0  0  0  0  0  0
   58.1666   33.6851   48.5862 H   0  0  0  0  0  0  0  0  0  0  0  0
   59.8240   35.4283   47.9153 H   0  0  0  0  0  0  0  0  0  0  0  0
   60.3743   35.7652   45.5024 H   0  0  0  0  0  0  0  0  0  0  0  0
   59.2615   34.3697   43.7586 H   0  0  0  0  0  0  0  0  0  0  0  0
  1  2  1  0
  2  3  1  0
  3  4  2  0
  4  5  1  0
  5  6  2  0
  6  7  1  0
  7  8  2  0
  8  9  1  0
  9 10  2  0
 10 11  1  0
 11 12  2  0
 12 13  1  0
 13 14  1  0
 14 15  2  0
 14 16  1  0
 16 17  1  0
 17 18  2  0
 18 19  1  0
 19 20  2  0
 20 21  1  0
 21 22  2  0
 12  3  1  0
 22 17  1  0
 11  6  1  0
  1 23  1  0
  1 24  1  0
  1 25  1  0
  4 26  1  0
  5 27  1  0
  7 28  1  0
  8 29  1  0
  9 30  1  0
 10 31  1  0
 16 32  1  0
 16 33  1  0
 18 34  1  0
 19 35  1  0
 20 36  1  0
 21 37  1  0
 22 38  1  0
M  END
>  <UniqueID>  (4) 
4

>  <SMILES>  (4) 
COc1ccc2ccccc2c1OC(=O)Cc1ccccc1

>  <Energy>  (4) 
47.43459581049281

>  <Genealogy>  (4) 
COc1ccc2ccccc2c1OC(=O)Cc1ccccc1 (3D coordinates assigned)
COc1ccc2ccccc2c1OC(=O)Cc1ccccc1 (optimized conformer: 47.43459581049281 kcal/mol)

>  <smiles>  (4) 
COc1ccc2ccccc2c1OC(=O)Cc1ccccc1

>  <score_type>  (4) 
oracle

>  <origin>  (4) 
adg

>  <m_score__min__energy>  (4) 
-7.75

>  <m_primary>  (4) 
energy

$$$$
4:0
     RDKit          3D

 40 42  0  0  0  0  0  0  0  0999 V2000
   59.2580   22.2170   44.5490 C   0  0  0  0  0  0  0  0  0  0  0  0
   58.9530   22.9860   45.7080 O   0  0  0  0  0  0  0  0  0  0  0  0
   58.3120   24.2330   45.6820 C   0  0  0  0  0  0  0  0  0  0  0  0
   57.9760   24.8390   46.8930 C   0  0  0  0  0  0  0  0  0  0  0  0
   57.3380   26.0790   46.9090 C   0  0  0  0  0  0  0  0  0  0  0  0
   57.0300   26.7190   45.6920 C   0  0  0  0  0  0  0  0  0  0  0  0
   56.4280   27.8750   45.6450 N   0  0  0  0  0  0  0  0  0  0  0  0
   56.8860   29.2460   44.6800 S   0  0  0  0  0  0  0  0  0  0  0  0
   55.7010   30.1580   44.5340 O   0  0  0  0  0  0  0  0  0  0  0  0
   57.3050   28.7710   43.3160 O   0  0  0  0  0  0  0  0  0  0  0  0
   58.1920   30.1320   45.4620 C   0  0  0  0  0  0  0  0  0  0  0  0
   58.0700   31.5090   45.6810 C   0  0  0  0  0  0  0  0  0  0  0  0
   59.0980   32.2150   46.3110 C   0  0  0  0  0  0  0  0  0  0  0  0
   60.2670   31.5540   46.7290 C   0  0  0  0  0  0  0  0  0  0  0  0
   61.3600   32.3020   47.4010 C   0  0  0  0  0  0  0  0  0  0  0  0
   62.6960   31.8710   47.2910 C   0  0  0  0  0  0  0  0  0  0  0  0
   63.7230   32.5780   47.9240 C   0  0  0  0  0  0  0  0  0  0  0  0
   63.4290   33.7190   48.6740 C   0  0  0  0  0  0  0  0  0  0  0  0
   62.1090   34.1560   48.7920 C   0  0  0  0  0  0  0  0  0  0  0  0
   61.0770   33.4540   48.1600 C   0  0  0  0  0  0  0  0  0  0  0  0
   60.3850   30.1710   46.4980 C   0  0  0  0  0  0  0  0  0  0  0  0
   59.3550   29.4660   45.8680 C   0  0  0  0  0  0  0  0  0  0  0  0
   57.3710   26.1090   44.5200 N   0  0  0  0  0  0  0  0  0  0  0  0
   57.9940   24.9010   44.4870 C   0  0  0  0  0  0  0  0  0  0  0  0
   59.6477   21.2343   44.8531 H   0  0  0  0  0  0  0  0  0  0  0  0
   58.3461   22.0802   43.9493 H   0  0  0  0  0  0  0  0  0  0  0  0
   60.0158   22.7424   43.9493 H   0  0  0  0  0  0  0  0  0  0  0  0
   58.2158   24.3355   47.8411 H   0  0  0  0  0  0  0  0  0  0  0  0
   57.0768   26.5546   47.8659 H   0  0  0  0  0  0  0  0  0  0  0  0
   57.1615   32.0373   45.3560 H   0  0  0  0  0  0  0  0  0  0  0  0
   58.9922   33.2966   46.4815 H   0  0  0  0  0  0  0  0  0  0  0  0
   62.9334   30.9721   46.7031 H   0  0  0  0  0  0  0  0  0  0  0  0
   64.7640   32.2350   47.8311 H   0  0  0  0  0  0  0  0  0  0  0  0
   64.2383   34.2733   49.1718 H   0  0  0  0  0  0  0  0  0  0  0  0
   61.8793   35.0546   49.3834 H   0  0  0  0  0  0  0  0  0  0  0  0
   60.0386   33.8039   48.2565 H   0  0  0  0  0  0  0  0  0  0  0  0
   61.2947   29.6404   46.8156 H   0  0  0  0  0  0  0  0  0  0  0  0
   59.4585   28.3853   45.6908 H   0  0  0  0  0  0  0  0  0  0  0  0
   57.1480   26.5780   43.6120 H   0  0  0  0  0  0  0  0  0  0  0  0
   58.2505   24.4440   43.5199 H   0  0  0  0  0  0  0  0  0  0  0  0
  1  2  1  0
  2  3  1  0
  3  4  1  0
  4  5  2  0
  5  6  1  0
  6  7  2  3
  7  8  1  0
  8  9  2  0
  8 10  2  0
  8 11  1  0
 11 12  2  0
 12 13  1  0
 13 14  2  0
 14 15  1  0
 15 16  2  0
 16 17  1  0
 17 18  2  0
 18 19  1  0
 19 20  2  0
 14 21  1  0
 21 22  2  0
  6 23  1  0
 23 24  1  0
 24  3  2  0
 22 11  1  0
 20 15  1  0
  1 25  1  0
  1 26  1  0
  1 27  1  0
  4 28  1  0
  5 29  1  0
 12 30  1  0
 13 31  1  0
 16 32  1  0
 17 33  1  0
 18 34  1  0
 19 35  1  0
 20 36  1  0
 21 37  1  0
 22 38  1  0
 23 39  1  0
 24 40  1  0
M  END
>  <UniqueID>  (5) 
5

>  <SMILES>  (5) 
COc1ccc(=NS(=O)(=O)c2ccc(-c3ccccc3)cc2)[nH]c1

>  <Energy>  (5) 
52.92111381359491

>  <Genealogy>  (5) 
COc1ccc(=NS(=O)(=O)c2ccc(-c3ccccc3)cc2)[nH]c1 (3D coordinates assigned)
COc1ccc(=NS(=O)(=O)c2ccc(-c3ccccc3)cc2)[nH]c1 (optimized conformer: 52.92111381359491 kcal/mol)

>  <smiles>  (5) 
COc1ccc(=NS(=O)(=O)c2ccc(-c3ccccc3)cc2)[nH]c1

>  <score_type>  (5) 
oracle

>  <origin>  (5) 
adg

>  <m_score__min__energy>  (5) 
-7.7300000000000004

>  <m_primary>  (5) 
energy

$$$$
5:0
     RDKit          3D

 78 83  0  0  0  0  0  0  0  0999 V2000
   63.3800   34.2160   52.1800 C   0  0  0  0  0  0  0  0  0  0  0  0
   63.5950   34.1430   50.7740 O   0  0  0  0  0  0  0  0  0  0  0  0
   62.6470   33.6880   49.8430 C   0  0  0  0  0  0  0  0  0  0  0  0
   61.8600   34.5780   49.0940 C   0  0  0  0  0  0  0  0  0  0  0  0
   60.9050   34.1020   48.1910 C   0  0  0  0  0  0  0  0  0  0  0  0
   60.2190   35.0000   47.4230 N   0  0  0  0  0  0  0  0  0  0  0  0
   59.3040   34.6130   46.4960 C   0  0  0  0  0  0  0  0  0  0  0  0
   59.0370   33.2560   46.3600 C   0  0  0  0  0  0  0  0  0  0  0  0
   59.6570   32.3060   47.1390 C   0  0  0  0  0  0  0  0  0  0  0  0
   60.6770   32.7000   48.0530 C   0  0  0  0  0  0  0  0  0  0  0  0
   61.5210   31.8210   48.7580 C   0  0  0  0  0  0  0  0  0  0  0  0
   62.4860   32.3040   49.6560 C   0  0  0  0  0  0  0  0  0  0  0  0
   63.3470   31.3360   50.3710 C   0  0  0  0  0  0  0  0  0  0  0  0
   64.7190   31.5850   50.5140 C   0  0  0  0  0  0  0  0  0  0  0  0
   65.5300   30.6980   51.2270 C   0  0  0  0  0  0  0  0  0  0  0  0
   64.9700   29.5570   51.8350 C   0  0  0  0  0  0  0  0  0  0  0  0
   65.7240   28.6510   52.5970 O   0  0  0  0  0  0  0  0  0  0  0  0
   65.1990   27.5670   53.3650 C   0  0  0  0  0  0  0  0  0  0  0  0
   65.4710   26.2120   52.6980 C   0  0  0  0  0  0  0  0  0  0  0  0
   66.3150   26.3520   51.4150 C   0  0  0  0  0  0  0  0  0  0  0  0
   67.4870   27.2460   51.6210 N   0  0  0  0  0  0  0  0  0  0  0  0
   68.6150   26.5170   52.2500 C   0  0  0  0  0  0  0  0  0  0  0  0
   69.2320   25.4610   51.3140 C   0  0  0  0  0  0  0  0  0  0  0  0
   69.3230   25.9390   49.8550 C   0  0  0  0  0  0  0  0  0  0  0  0
   69.2070   27.4580   49.7480 C   0  0  0  0  0  0  0  0  0  0  0  0
   67.8860   27.9550   50.3670 C   0  0  0  0  0  0  0  0  0  0  0  0
   63.6010   29.3060   51.6800 C   0  0  0  0  0  0  0  0  0  0  0  0
   62.7940   30.1850   50.9520 C   0  0  0  0  0  0  0  0  0  0  0  0
   59.1080   31.0850   46.8450 N   0  0  0  0  0  0  0  0  0  0  0  0
   59.3300   29.7770   47.5060 C   0  0  0  0  0  0  0  0  0  0  0  0
   60.6680   29.1580   47.0500 C   0  0  0  0  0  0  0  0  0  0  0  0
   60.5640   28.4250   45.6920 C   0  0  0  0  0  0  0  0  0  0  0  0
   59.2460   28.0610   45.3110 O   0  0  0  0  0  0  0  0  0  0  0  0
   58.5060   27.6050   46.4200 C   0  0  0  0  0  0  0  0  0  0  0  0
   58.1510   28.7780   47.3440 C   0  0  0  0  0  0  0  0  0  0  0  0
   58.2360   31.3600   45.8300 C   0  0  0  0  0  0  0  0  0  0  0  0
   57.5570   30.4870   45.2280 O   0  0  0  0  0  0  0  0  0  0  0  0
   58.1600   32.6740   45.5280 N   0  0  0  0  0  0  0  0  0  0  0  0
   57.3210   33.3200   44.5210 C   0  0  0  0  0  0  0  0  0  0  0  0
   64.2941   33.9056   52.7073 H   0  0  0  0  0  0  0  0  0  0  0  0
   63.1287   35.2498   52.4593 H   0  0  0  0  0  0  0  0  0  0  0  0
   62.5512   33.5489   52.4593 H   0  0  0  0  0  0  0  0  0  0  0  0
   61.9967   35.6622   49.2194 H   0  0  0  0  0  0  0  0  0  0  0  0
   58.7877   35.3550   45.8691 H   0  0  0  0  0  0  0  0  0  0  0  0
   61.4226   30.7365   48.6025 H   0  0  0  0  0  0  0  0  0  0  0  0
   65.1605   32.4852   50.0617 H   0  0  0  0  0  0  0  0  0  0  0  0
   66.6094   30.8913   51.3139 H   0  0  0  0  0  0  0  0  0  0  0  0
   65.6687   27.5750   54.3596 H   0  0  0  0  0  0  0  0  0  0  0  0
   64.1095   27.6981   53.4413 H   0  0  0  0  0  0  0  0  0  0  0  0
   66.0113   25.5696   53.4089 H   0  0  0  0  0  0  0  0  0  0  0  0
   64.5019   25.7734   52.4179 H   0  0  0  0  0  0  0  0  0  0  0  0
   66.6745   25.3567   51.1146 H   0  0  0  0  0  0  0  0  0  0  0  0
   65.6797   26.7945   50.6336 H   0  0  0  0  0  0  0  0  0  0  0  0
   67.2060   27.9780   52.3190 H   0  0  0  0  0  0  0  0  0  0  0  0
   69.3944   27.2430   52.5247 H   0  0  0  0  0  0  0  0  0  0  0  0
   68.2216   25.9913   53.1326 H   0  0  0  0  0  0  0  0  0  0  0  0
   70.2455   25.2246   51.6703 H   0  0  0  0  0  0  0  0  0  0  0  0
   68.5766   24.5777   51.3331 H   0  0  0  0  0  0  0  0  0  0  0  0
   70.2911   25.6255   49.4372 H   0  0  0  0  0  0  0  0  0  0  0  0
   68.4879   25.4919   49.2958 H   0  0  0  0  0  0  0  0  0  0  0  0
   70.0507   27.9217   50.2801 H   0  0  0  0  0  0  0  0  0  0  0  0
   69.2228   27.7370   48.6841 H   0  0  0  0  0  0  0  0  0  0  0  0
   67.9947   29.0253   50.5965 H   0  0  0  0  0  0  0  0  0  0  0  0
   67.0971   27.7533   49.6275 H   0  0  0  0  0  0  0  0  0  0  0  0
   63.1566   28.4087   52.1354 H   0  0  0  0  0  0  0  0  0  0  0  0
   61.7210   29.9734   50.8342 H   0  0  0  0  0  0  0  0  0  0  0  0
   59.3830   29.9832   48.5852 H   0  0  0  0  0  0  0  0  0  0  0  0
   61.4128   29.9622   46.9579 H   0  0  0  0  0  0  0  0  0  0  0  0
   60.9593   28.4124   47.8045 H   0  0  0  0  0  0  0  0  0  0  0  0
   60.9748   29.0856   44.9143 H   0  0  0  0  0  0  0  0  0  0  0  0
   61.1245   27.4851   45.8039 H   0  0  0  0  0  0  0  0  0  0  0  0
   57.5797   27.1285   46.0667 H   0  0  0  0  0  0  0  0  0  0  0  0
   59.1135   26.8796   46.9810 H   0  0  0  0  0  0  0  0  0  0  0  0
   57.2887   29.3138   46.9205 H   0  0  0  0  0  0  0  0  0  0  0  0
   57.9190   28.3664   48.3374 H   0  0  0  0  0  0  0  0  0  0  0  0
   56.5442   33.9181   45.0198 H   0  0  0  0  0  0  0  0  0  0  0  0
   57.9415   33.9757   43.8926 H   0  0  0  0  0  0  0  0  0  0  0  0
   56.8457   32.5525   43.8926 H   0  0  0  0  0  0  0  0  0  0  0  0
  1  2  1  0
  2  3  1  0
  3  4  2  0
  4  5  1  0
  5  6  2  0
  6  7  1  0
  7  8  2  0
  8  9  1  0
  9 10  2  0
 10 11  1  0
 11 12  2  0
 12 13  1  0
 13 14  2  0
 14 15  1  0
 15 16  2  0
 16 17  1  0
 17 18  1  0
 18 19  1  0
 19 20  1  0
 20 21  1  0
 21 22  1  0
 22 23  1  0
 23 24  1  0
 24 25  1  0
 25 26  1  0
 16 27  1  0
 27 28  2  0
  9 29  1  0
 29 30  1  0
 30 31  1  0
 31 32  1  0
 32 33  1  0
 33 34  1  0
 34 35  1  0
 29 36  1  0
 36 37  2  0
 36 38  1  0
 38 39  1  0
 12  3  1  0
 28 13  1  0
 35 30  1  0
 10  5  1  0
 26 21  1  0
 38  8  1  0
  1 40  1  0
  1 41  1  0
  1 42  1  0
  4 43  1  0
  7 44  1  0
 11 45  1  0
 14 46  1  0
 15 47  1  0
 18 48  1  0
 18 49  1  0
 19 50  1  0
 19 51  1  0
 20 52  1  0
 20 53  1  0
 21 54  1  0
 22 55  1  0
 22 56  1  0
 23 57  1  0
 23 58  1  0
 24 59  1  0
 24 60  1  0
 25 61  1  0
 25 62  1  0
 26 63  1  0
 26 64  1  0
 27 65  1  0
 28 66  1  0
 30 67  1  0
 31 68  1  0
 31 69  1  0
 32 70  1  0
 32 71  1  0
 34 72  1  0
 34 73  1  0
 35 74  1  0
 35 75  1  0
 39 76  1  0
 39 77  1  0
 39 78  1  0
M  CHG  1  21   1
M  END
>  <UniqueID>  (6) 
6

>  <SMILES>  (6) 
COc1cc2ncc3c(c2cc1-c1ccc(OCCC[NH+]2CCCCC2)cc1)n(C1CCOCC1)c(=O)n3C

>  <Energy>  (6) 
161.01642425189834

>  <Genealogy>  (6) 
COc1cc2ncc3c(c2cc1-c1ccc(OCCC[NH+]2CCCCC2)cc1)n(C1CCOCC1)c(=O)n3C (protonated)
COc1cc2ncc3c(c2cc1-c1ccc(OCCC[NH+]2CCCCC2)cc1)n(C1CCOCC1)c(=O)n3C (3D coordinates assigned)
COc1cc2ncc3c(c2cc1-c1ccc(OCCC[NH+]2CCCCC2)cc1)n(C1CCOCC1)c(=O)n3C (nonaromatic ring conformer: 161.01642425189834 kcal/mol)

>  <smiles>  (6) 
COc1cc2ncc3c(c2cc1-c1ccc(OCCCN2CCCCC2)cc1)n(C1CCOCC1)c(=O)n3C

>  <score_type>  (6) 
oracle

>  <origin>  (6) 
adg

>  <m_score__min__energy>  (6) 
-7.3399999999999999

>  <m_primary>  (6) 
energy

$$$$
6:0
     RDKit          3D

 62 65  0  0  0  0  0  0  0  0999 V2000
   60.7220   27.4500   49.8080 C   0  0  0  0  0  0  0  0  0  0  0  0
   60.8830   28.1520   48.5780 O   0  0  0  0  0  0  0  0  0  0  0  0
   59.8600   28.8570   47.9220 C   0  0  0  0  0  0  0  0  0  0  0  0
   58.9580   28.2180   47.0530 C   0  0  0  0  0  0  0  0  0  0  0  0
   57.9160   28.9490   46.4600 C   0  0  0  0  0  0  0  0  0  0  0  0
   56.9690   28.2830   45.5390 C   0  0  0  0  0  0  0  0  0  0  0  0
   57.0750   27.0470   45.3070 O   0  0  0  0  0  0  0  0  0  0  0  0
   55.9350   29.0430   44.9030 N   0  0  0  0  0  0  0  0  0  0  0  0
   56.1640   30.0110   43.8360 C   0  0  0  0  0  0  0  0  0  0  0  0
   56.3450   31.4340   44.3840 C   0  0  0  0  0  0  0  0  0  0  0  0
   57.7880   31.9370   44.2370 C   0  0  0  0  0  0  0  0  0  0  0  0
   57.8040   33.4170   44.2240 N   0  0  0  0  0  0  0  0  0  0  0  0
   59.1790   33.9870   44.2110 C   0  0  0  0  0  0  0  0  0  0  0  0
   59.6390   34.5610   45.5670 C   0  0  0  0  0  0  0  0  0  0  0  0
   59.0370   33.7790   46.7370 C   0  0  0  0  0  0  0  0  0  0  0  0
   57.5010   33.7960   46.6930 C   0  0  0  0  0  0  0  0  0  0  0  0
   56.9420   34.0080   45.2700 C   0  0  0  0  0  0  0  0  0  0  0  0
   57.7850   30.2780   46.7420 N   0  0  0  0  0  0  0  0  0  0  0  0
   58.6460   30.9220   47.5730 C   0  0  0  0  0  0  0  0  0  0  0  0
   59.7220   30.2370   48.1570 C   0  0  0  0  0  0  0  0  0  0  0  0
   60.6780   30.9780   49.0200 C   0  0  0  0  0  0  0  0  0  0  0  0
   61.7970   31.5820   48.4210 C   0  0  0  0  0  0  0  0  0  0  0  0
   62.7010   32.3250   49.1850 C   0  0  0  0  0  0  0  0  0  0  0  0
   64.0870   33.0790   48.4190 Cl  0  0  0  0  0  0  0  0  0  0  0  0
   62.4940   32.4780   50.5580 C   0  0  0  0  0  0  0  0  0  0  0  0
   61.3910   31.8810   51.1740 C   0  0  0  0  0  0  0  0  0  0  0  0
   61.2270   32.0270   52.5150 F   0  0  0  0  0  0  0  0  0  0  0  0
   60.4850   31.1110   50.4220 C   0  0  0  0  0  0  0  0  0  0  0  0
   59.3550   30.4680   51.1270 C   0  0  0  0  0  0  0  0  0  0  0  0
   58.0640   30.6860   50.8060 N   0  0  0  0  0  0  0  0  0  0  0  0
   57.3270   29.9580   51.6340 N   0  0  0  0  0  0  0  0  0  0  0  0
   58.1780   29.3120   52.4550 C   0  0  0  0  0  0  0  0  0  0  0  0
   59.4570   29.6260   52.1740 N   0  0  0  0  0  0  0  0  0  0  0  0
   60.6460   29.1260   52.8560 C   0  0  0  0  0  0  0  0  0  0  0  0
   60.8806   28.1417   50.6484 H   0  0  0  0  0  0  0  0  0  0  0  0
   59.7051   27.0340   49.8624 H   0  0  0  0  0  0  0  0  0  0  0  0
   61.4560   26.6325   49.8624 H   0  0  0  0  0  0  0  0  0  0  0  0
   59.0687   27.1450   46.8376 H   0  0  0  0  0  0  0  0  0  0  0  0
   57.0713   29.7242   43.2842 H   0  0  0  0  0  0  0  0  0  0  0  0
   55.2826   30.0083   43.1779 H   0  0  0  0  0  0  0  0  0  0  0  0
   55.6764   32.1124   43.8338 H   0  0  0  0  0  0  0  0  0  0  0  0
   56.1038   31.4141   45.4570 H   0  0  0  0  0  0  0  0  0  0  0  0
   58.3897   31.5727   45.0827 H   0  0  0  0  0  0  0  0  0  0  0  0
   58.2094   31.5608   43.2931 H   0  0  0  0  0  0  0  0  0  0  0  0
   59.8795   33.1911   43.9179 H   0  0  0  0  0  0  0  0  0  0  0  0
   59.1661   34.8267   43.5006 H   0  0  0  0  0  0  0  0  0  0  0  0
   60.7360   34.5051   45.6258 H   0  0  0  0  0  0  0  0  0  0  0  0
   59.2973   35.6044   45.6354 H   0  0  0  0  0  0  0  0  0  0  0  0
   59.3847   32.7366   46.6872 H   0  0  0  0  0  0  0  0  0  0  0  0
   59.3613   34.2549   47.6742 H   0  0  0  0  0  0  0  0  0  0  0  0
   57.1284   32.8347   47.0766 H   0  0  0  0  0  0  0  0  0  0  0  0
   57.1630   34.6421   47.3093 H   0  0  0  0  0  0  0  0  0  0  0  0
   55.9469   33.5431   45.2100 H   0  0  0  0  0  0  0  0  0  0  0  0
   56.8963   35.0921   45.0893 H   0  0  0  0  0  0  0  0  0  0  0  0
   57.0140   30.8360   46.3110 H   0  0  0  0  0  0  0  0  0  0  0  0
   58.4979   31.9902   47.7897 H   0  0  0  0  0  0  0  0  0  0  0  0
   61.9629   31.4686   47.3395 H   0  0  0  0  0  0  0  0  0  0  0  0
   63.2018   33.0705   51.1563 H   0  0  0  0  0  0  0  0  0  0  0  0
   57.8684   28.6187   53.2509 H   0  0  0  0  0  0  0  0  0  0  0  0
   60.4979   29.1883   53.9442 H   0  0  0  0  0  0  0  0  0  0  0  0
   60.8201   28.0785   52.5690 H   0  0  0  0  0  0  0  0  0  0  0  0
   61.5164   29.7343   52.5690 H   0  0  0  0  0  0  0  0  0  0  0  0
  1  2  1  0
  2  3  1  0
  3  4  2  0
  4  5  1  0
  5  6  1  0
  6  7  2  0
  6  8  1  0
  8  9  1  0
  9 10  1  0
 10 11  1  0
 11 12  1  0
 12 13  1  0
 13 14  1  0
 14 15  1  0
 15 16  1  0
 16 17  1  0
  5 18  2  0
 18 19  1  0
 19 20  2  0
 20 21  1  0
 21 22  2  0
 22 23  1  0
 23 24  1  0
 23 25  2  0
 25 26  1  0
 26 27  1  0
 26 28  2  0
 28 29  1  0
 29 30  2  0
 30 31  1  0
 31 32  2  0
 32 33  1  0
 33 34  1  0
 20  3  1  0
 28 21  1  0
 33 29  1  0
 17 12  1  0
  1 35  1  0
  1 36  1  0
  1 37  1  0
  4 38  1  0
  9 39  1  0
  9 40  1  0
 10 41  1  0
 10 42  1  0
 11 43  1  0
 11 44  1  0
 13 45  1  0
 13 46  1  0
 14 47  1  0
 14 48  1  0
 15 49  1  0
 15 50  1  0
 16 51  1  0
 16 52  1  0
 17 53  1  0
 17 54  1  0
 18 55  1  0
 19 56  1  0
 22 57  1  0
 25 58  1  0
 32 59  1  0
 34 60  1  0
 34 61  1  0
 34 62  1  0
M  CHG  2   8  -1  18   1
M  END
>  <UniqueID>  (7) 
7

>  <SMILES>  (7) 
COc1cc(C(=O)[N-]CCCN2CCCCC2)[nH+]cc1-c1cc(Cl)cc(F)c1-c1nncn1C

>  <Energy>  (7) 
115.15072377521054

>  <Genealogy>  (7) 
COc1cc(C(=O)[N-]CCCN2CCCCC2)[nH+]cc1-c1cc(Cl)cc(F)c1-c1nncn1C (protonated)
COc1cc(C(=O)[N-]CCCN2CCCCC2)[nH+]cc1-c1cc(Cl)cc(F)c1-c1nncn1C (3D coordinates assigned)
COc1cc(C(=O)[N-]CCCN2CCCCC2)[nH+]cc1-c1cc(Cl)cc(F)c1-c1nncn1C (nonaromatic ring conformer: 115.15072377521054 kcal/mol)

>  <smiles>  (7) 
COc1cc(C(=O)NCCCN2CCCCC2)ncc1-c1cc(Cl)cc(F)c1-c1nncn1C

>  <score_type>  (7) 
oracle

>  <origin>  (7) 
adg

>  <m_score__min__energy>  (7) 
-8.5600000000000005

>  <m_primary>  (7) 
energy

$$$$
7:0
     RDKit          3D

 53 57  0  0  0  0  0  0  0  0999 V2000
   54.9720   29.8570   52.5440 C   0  0  0  0  0  0  0  0  0  0  0  0
   56.2950   29.3580   52.3780 O   0  0  0  0  0  0  0  0  0  0  0  0
   57.3710   30.1170   51.8910 C   0  0  0  0  0  0  0  0  0  0  0  0
   57.1040   31.4000   51.3760 C   0  0  0  0  0  0  0  0  0  0  0  0
   58.1360   32.2080   50.8730 C   0  0  0  0  0  0  0  0  0  0  0  0
   59.4480   31.7100   50.8640 C   0  0  0  0  0  0  0  0  0  0  0  0
   59.7060   30.4590   51.4020 C   0  0  0  0  0  0  0  0  0  0  0  0
   58.6990   29.6410   51.9120 C   0  0  0  0  0  0  0  0  0  0  0  0
   61.1370   30.2200   51.3800 C   0  0  0  0  0  0  0  0  0  0  0  0
   61.7110   29.1810   51.8000 O   0  0  0  0  0  0  0  0  0  0  0  0
   61.7610   31.4090   50.7910 C   0  0  0  0  0  0  0  0  0  0  0  0
   60.7510   32.3030   50.4490 C   0  0  0  0  0  0  0  0  0  0  0  0
   61.0320   33.4950   49.8220 N   0  0  0  0  0  0  0  0  0  0  0  0
   59.9640   34.4030   49.3580 C   0  0  0  0  0  0  0  0  0  0  0  0
   59.5220   34.1190   47.9390 C   0  0  0  0  0  0  0  0  0  0  0  0
   58.6450   33.0430   47.7140 C   0  0  0  0  0  0  0  0  0  0  0  0
   58.2340   32.7190   46.4170 C   0  0  0  0  0  0  0  0  0  0  0  0
   58.6950   33.4670   45.3310 C   0  0  0  0  0  0  0  0  0  0  0  0
   59.5730   34.5360   45.5400 C   0  0  0  0  0  0  0  0  0  0  0  0
   59.9920   34.8580   46.8340 C   0  0  0  0  0  0  0  0  0  0  0  0
   62.3510   33.8460   49.6180 C   0  0  0  0  0  0  0  0  0  0  0  0
   62.6330   34.9650   49.1010 O   0  0  0  0  0  0  0  0  0  0  0  0
   63.4080   32.9710   49.9820 C   0  0  0  0  0  0  0  0  0  0  0  0
   64.7520   33.3230   49.7600 C   0  0  0  0  0  0  0  0  0  0  0  0
   65.7950   32.4480   50.1140 C   0  0  0  0  0  0  0  0  0  0  0  0
   67.1450   32.7730   49.8990 O   0  0  0  0  0  0  0  0  0  0  0  0
   67.9180   33.6240   50.7420 C   0  0  0  0  0  0  0  0  0  0  0  0
   65.4980   31.2110   50.6990 C   0  0  0  0  0  0  0  0  0  0  0  0
   66.5650   30.3650   51.0430 O   0  0  0  0  0  0  0  0  0  0  0  0
   67.2900   30.4320   52.2670 C   0  0  0  0  0  0  0  0  0  0  0  0
   64.1560   30.8510   50.9260 C   0  0  0  0  0  0  0  0  0  0  0  0
   63.1090   31.7200   50.5710 C   0  0  0  0  0  0  0  0  0  0  0  0
   54.7444   29.9428   53.6168 H   0  0  0  0  0  0  0  0  0  0  0  0
   54.8917   30.8472   52.0717 H   0  0  0  0  0  0  0  0  0  0  0  0
   54.2577   29.1665   52.0717 H   0  0  0  0  0  0  0  0  0  0  0  0
   56.0700   31.7753   51.3677 H   0  0  0  0  0  0  0  0  0  0  0  0
   57.9194   33.2167   50.4915 H   0  0  0  0  0  0  0  0  0  0  0  0
   58.9343   28.6475   52.3213 H   0  0  0  0  0  0  0  0  0  0  0  0
   59.0958   34.2925   50.0244 H   0  0  0  0  0  0  0  0  0  0  0  0
   60.3694   35.4254   49.3781 H   0  0  0  0  0  0  0  0  0  0  0  0
   58.2790   32.4509   48.5657 H   0  0  0  0  0  0  0  0  0  0  0  0
   57.5478   31.8752   46.2521 H   0  0  0  0  0  0  0  0  0  0  0  0
   58.3676   33.2155   44.3114 H   0  0  0  0  0  0  0  0  0  0  0  0
   59.9345   35.1245   44.6839 H   0  0  0  0  0  0  0  0  0  0  0  0
   60.6918   35.6920   46.9911 H   0  0  0  0  0  0  0  0  0  0  0  0
   64.9903   34.2951   49.3037 H   0  0  0  0  0  0  0  0  0  0  0  0
   67.7045   33.3889   51.7952 H   0  0  0  0  0  0  0  0  0  0  0  0
   68.9878   33.4660   50.5406 H   0  0  0  0  0  0  0  0  0  0  0  0
   67.6582   34.6737   50.5406 H   0  0  0  0  0  0  0  0  0  0  0  0
   66.5891   30.3672   53.1123 H   0  0  0  0  0  0  0  0  0  0  0  0
   68.0031   29.5959   52.3170 H   0  0  0  0  0  0  0  0  0  0  0  0
   67.8378   31.3846   52.3170 H   0  0  0  0  0  0  0  0  0  0  0  0
   63.9239   29.8792   51.3861 H   0  0  0  0  0  0  0  0  0  0  0  0
  1  2  1  0
  2  3  1  0
  3  4  2  0
  4  5  1  0
  5  6  2  0
  6  7  1  0
  7  8  2  0
  7  9  1  0
  9 10  2  0
  9 11  1  0
 11 12  2  0
 12 13  1  0
 13 14  1  0
 14 15  1  0
 15 16  2  0
 16 17  1  0
 17 18  2  0
 18 19  1  0
 19 20  2  0
 13 21  1  0
 21 22  2  0
 21 23  1  0
 23 24  2  0
 24 25  1  0
 25 26  1  0
 26 27  1  0
 25 28  2  0
 28 29  1  0
 29 30  1  0
 28 31  1  0
 31 32  2  0
  8  3  1  0
 32 11  1  0
 12  6  1  0
 20 15  1  0
 32 23  1  0
  1 33  1  0
  1 34  1  0
  1 35  1  0
  4 36  1  0
  5 37  1  0
  8 38  1  0
 14 39  1  0
 14 40  1  0
 16 41  1  0
 17 42  1  0
 18 43  1  0
 19 44  1  0
 20 45  1  0
 24 46  1  0
 27 47  1  0
 27 48  1  0
 27 49  1  0
 30 50  1  0
 30 51  1  0
 30 52  1  0
 31 53  1  0
M  END
>  <UniqueID>  (8) 
8

>  <SMILES>  (8) 
COc1ccc2c(c1)C(=O)c1c-2n(Cc2ccccc2)c(=O)c2cc(OC)c(OC)cc12

>  <Energy>  (8) 
106.71492156395652

>  <Genealogy>  (8) 
COc1ccc2c(c1)C(=O)c1c-2n(Cc2ccccc2)c(=O)c2cc(OC)c(OC)cc12 (3D coordinates assigned)
COc1ccc2c(c1)C(=O)c1c-2n(Cc2ccccc2)c(=O)c2cc(OC)c(OC)cc12 (nonaromatic ring conformer: 106.71492156395652 kcal/mol)

>  <smiles>  (8) 
COc1ccc2c(c1)C(=O)c1c-2n(Cc2ccccc2)c(=O)c2cc(OC)c(OC)cc12

>  <score_type>  (8) 
oracle

>  <origin>  (8) 
adg

>  <m_score__min__energy>  (8) 
-7.3300000000000001

>  <m_primary>  (8) 
energy

$$$$
8:0
     RDKit          3D

 42 44  0  0  0  0  0  0  0  0999 V2000
   56.0300   22.9290   48.1340 C   0  0  0  0  0  0  0  0  0  0  0  0
   57.2700   23.5740   47.8650 O   0  0  0  0  0  0  0  0  0  0  0  0
   57.3910   24.8570   47.3100 C   0  0  0  0  0  0  0  0  0  0  0  0
   56.3390   25.3450   46.5280 C   0  0  0  0  0  0  0  0  0  0  0  0
   56.4080   26.6170   45.9540 C   0  0  0  0  0  0  0  0  0  0  0  0
   57.5370   27.4330   46.1580 C   0  0  0  0  0  0  0  0  0  0  0  0
   57.6360   28.7850   45.5490 C   0  0  0  0  0  0  0  0  0  0  0  0
   58.8620   29.4650   45.4540 C   0  0  0  0  0  0  0  0  0  0  0  0
   58.9050   30.7330   44.8740 C   0  0  0  0  0  0  0  0  0  0  0  0
   57.7300   31.3320   44.3990 C   0  0  0  0  0  0  0  0  0  0  0  0
   57.7540   32.7080   43.7740 C   0  0  0  0  0  0  0  0  0  0  0  0
   57.7780   33.8090   44.7620 N   0  0  0  0  0  0  0  0  0  0  0  0
   57.0830   33.5440   46.0390 C   0  0  0  0  0  0  0  0  0  0  0  0
   58.0160   33.0000   47.1470 C   0  0  0  0  0  0  0  0  0  0  0  0
   59.4250   33.4020   47.0010 N   0  0  0  0  0  0  0  0  0  0  0  0
   59.5610   34.6800   46.3010 C   0  0  0  0  0  0  0  0  0  0  0  0
   59.0500   34.5580   44.8590 C   0  0  0  0  0  0  0  0  0  0  0  0
   56.5320   30.6060   44.4780 C   0  0  0  0  0  0  0  0  0  0  0  0
   56.5150   29.3730   45.0460 N   0  0  0  0  0  0  0  0  0  0  0  0
   58.5990   26.9350   46.9350 C   0  0  0  0  0  0  0  0  0  0  0  0
   58.5260   25.6630   47.5090 C   0  0  0  0  0  0  0  0  0  0  0  0
   55.8845   22.8533   49.2217 H   0  0  0  0  0  0  0  0  0  0  0  0
   55.2092   23.5144   47.6941 H   0  0  0  0  0  0  0  0  0  0  0  0
   56.0381   21.9208   47.6941 H   0  0  0  0  0  0  0  0  0  0  0  0
   55.4482   24.7210   46.3632 H   0  0  0  0  0  0  0  0  0  0  0  0
   55.5737   26.9837   45.3379 H   0  0  0  0  0  0  0  0  0  0  0  0
   59.7831   28.9999   45.8350 H   0  0  0  0  0  0  0  0  0  0  0  0
   59.8642   31.2646   44.7891 H   0  0  0  0  0  0  0  0  0  0  0  0
   58.6518   32.7875   43.1434 H   0  0  0  0  0  0  0  0  0  0  0  0
   56.8244   32.8149   43.1956 H   0  0  0  0  0  0  0  0  0  0  0  0
   56.6334   34.4836   46.3925 H   0  0  0  0  0  0  0  0  0  0  0  0
   56.3277   32.7689   45.8420 H   0  0  0  0  0  0  0  0  0  0  0  0
   57.6509   33.3685   48.1170 H   0  0  0  0  0  0  0  0  0  0  0  0
   57.9909   31.9029   47.0709 H   0  0  0  0  0  0  0  0  0  0  0  0
   59.9400   32.6660   46.4620 H   0  0  0  0  0  0  0  0  0  0  0  0
   58.9752   35.4466   46.8293 H   0  0  0  0  0  0  0  0  0  0  0  0
   60.6236   34.9636   46.2799 H   0  0  0  0  0  0  0  0  0  0  0  0
   58.8940   35.5691   44.4549 H   0  0  0  0  0  0  0  0  0  0  0  0
   59.8062   34.0012   44.2861 H   0  0  0  0  0  0  0  0  0  0  0  0
   55.6026   31.0376   44.0781 H   0  0  0  0  0  0  0  0  0  0  0  0
   59.4954   27.5529   47.0922 H   0  0  0  0  0  0  0  0  0  0  0  0
   59.3612   25.2901   48.1200 H   0  0  0  0  0  0  0  0  0  0  0  0
  1  2  1  0
  2  3  1  0
  3  4  2  0
  4  5  1  0
  5  6  2  0
  6  7  1  0
  7  8  2  0
  8  9  1  0
  9 10  2  0
 10 11  1  0
 11 12  1  0
 12 13  1  0
 13 14  1  0
 14 15  1  0
 15 16  1  0
 16 17  1  0
 10 18  1  0
 18 19  2  0
  6 20  1  0
 20 21  2  0
 21  3  1  0
 19  7  1  0
 17 12  1  0
  1 22  1  0
  1 23  1  0
  1 24  1  0
  4 25  1  0
  5 26  1  0
  8 27  1  0
  9 28  1  0
 11 29  1  0
 11 30  1  0
 13 31  1  0
 13 32  1  0
 14 33  1  0
 14 34  1  0
 15 35  1  0
 16 36  1  0
 16 37  1  0
 17 38  1  0
 17 39  1  0
 18 40  1  0
 20 41  1  0
 21 42  1  0
M  END
>  <UniqueID>  (9) 
9

>  <SMILES>  (9) 
COc1ccc(-c2ccc(CN3CCNCC3)cn2)cc1

>  <Energy>  (9) 
61.410343257326396

>  <Genealogy>  (9) 
COc1ccc(-c2ccc(CN3CCNCC3)cn2)cc1 (3D coordinates assigned)
COc1ccc(-c2ccc(CN3CCNCC3)cn2)cc1 (nonaromatic ring conformer: 61.410343257326396 kcal/mol)

>  <smiles>  (9) 
COc1ccc(-c2ccc(CN3CCNCC3)cn2)cc1

>  <score_type>  (9) 
oracle

>  <origin>  (9) 
adg

>  <m_score__min__energy>  (9) 
-6.7300000000000004

>  <m_primary>  (9) 
energy

$$$$
9:0
     RDKit          3D

 34 35  0  0  1  0  0  0  0  0999 V2000
   57.1560   30.8480   43.6670 C   0  0  0  0  0  0  0  0  0  0  0  0
   56.8430   31.4530   44.9020 O   0  0  0  0  0  0  0  0  0  0  0  0
   57.6220   32.4970   45.3600 C   0  0  0  0  0  0  0  0  0  0  0  0
   58.0020   33.5300   44.5050 C   0  0  0  0  0  0  0  0  0  0  0  0
   58.7720   34.5650   44.9560 C   0  0  0  0  0  0  0  0  0  0  0  0
   59.1750   34.5850   46.2630 C   0  0  0  0  0  0  0  0  0  0  0  0
   58.8170   33.5710   47.1590 C   0  0  0  0  0  0  0  0  0  0  0  0
   59.2880   33.6540   48.5680 C   0  0  0  0  0  0  0  0  0  0  0  0
   60.3810   34.5890   48.6150 N   0  0  0  0  0  0  0  0  0  0  0  0
   61.6000   34.1810   48.6800 C   0  0  0  0  0  0  0  0  0  0  0  0
   62.3230   34.1420   49.8590 C   0  0  0  0  0  0  0  0  0  0  0  0
   63.6430   33.6860   49.8490 C   0  0  0  0  0  0  0  0  0  0  0  0
   64.4450   33.6300   51.0890 C   0  0  0  0  0  0  0  0  0  0  0  0
   64.1770   33.2900   48.6560 N   0  0  0  0  0  0  0  0  0  0  0  0
   63.4780   33.3270   47.5140 C   0  0  0  0  0  0  0  0  0  0  0  0
   63.9950   32.9480   46.3770 N   0  0  0  0  0  0  0  0  0  0  0  0
   62.2030   33.7730   47.5500 N   0  0  0  0  0  0  0  0  0  0  0  0
   58.0360   32.5290   46.6890 C   0  0  0  0  0  0  0  0  0  0  0  0
   57.6547   29.8841   43.8468 H   0  0  0  0  0  0  0  0  0  0  0  0
   56.2310   30.6813   43.0955 H   0  0  0  0  0  0  0  0  0  0  0  0
   57.8264   31.5067   43.0955 H   0  0  0  0  0  0  0  0  0  0  0  0
   57.6780   33.5120   43.4539 H   0  0  0  0  0  0  0  0  0  0  0  0
   59.0655   35.3759   44.2731 H   0  0  0  0  0  0  0  0  0  0  0  0
   59.7966   35.4197   46.6192 H   0  0  0  0  0  0  0  0  0  0  0  0
   58.4700   34.0026   49.2155 H   0  0  0  0  0  0  0  0  0  0  0  0
   59.6146   32.6649   48.9216 H   0  0  0  0  0  0  0  0  0  0  0  0
   61.8595   34.4692   50.8014 H   0  0  0  0  0  0  0  0  0  0  0  0
   63.7759   33.6767   51.9608 H   0  0  0  0  0  0  0  0  0  0  0  0
   65.0155   32.6898   51.1146 H   0  0  0  0  0  0  0  0  0  0  0  0
   65.1406   34.4818   51.1146 H   0  0  0  0  0  0  0  0  0  0  0  0
   65.1650   32.9380   48.5920 H   0  0  0  0  0  0  0  0  0  0  0  0
   64.8580   32.3500   46.3520 H   0  0  0  0  0  0  0  0  0  0  0  0
   61.6940   33.7840   46.6320 H   0  0  0  0  0  0  0  0  0  0  0  0
   57.7398   31.7190   47.3717 H   0  0  0  0  0  0  0  0  0  0  0  0
  1  2  1  0
  2  3  1  0
  3  4  2  0
  4  5  1  0
  5  6  2  0
  6  7  1  0
  7  8  1  0
  8  9  1  0
  9 10  2  0
 10 11  1  0
 11 12  2  0
 12 13  1  0
 12 14  1  0
 14 15  1  0
 15 16  2  3
 15 17  1  0
  7 18  2  0
 18  3  1  0
 17 10  1  0
  1 19  1  0
  1 20  1  0
  1 21  1  0
  4 22  1  0
  5 23  1  0
  6 24  1  0
  8 25  1  0
  8 26  1  0
 11 27  1  0
 13 28  1  0
 13 29  1  0
 13 30  1  0
 14 31  1  0
 16 32  1  0
 17 33  1  0
 18 34  1  0
M  END
>  <smiles>  (10) 
COc1cccc(CN=c2cc(C)[nH]c(=N)[nH]2)c1

>  <score_type>  (10) 
oracle

>  <origin>  (10) 
adg

>  <m_score__min__energy>  (10) 
-7.04

>  <m_primary>  (10) 
energy

$$$$
10:0
     RDKit          3D

 37 38  0  0  0  0  0  0  0  0999 V2000
   58.4810   29.5520   46.9420 C   0  0  0  0  0  0  0  0  0  0  0  0
   58.1030   30.7670   46.3040 O   0  0  0  0  0  0  0  0  0  0  0  0
   57.7310   30.8770   44.9530 C   0  0  0  0  0  0  0  0  0  0  0  0
   56.9950   29.8640   44.3050 C   0  0  0  0  0  0  0  0  0  0  0  0
   56.6410   29.9940   42.9600 C   0  0  0  0  0  0  0  0  0  0  0  0
   57.0160   31.1310   42.2450 C   0  0  0  0  0  0  0  0  0  0  0  0
   57.7420   32.1440   42.8730 C   0  0  0  0  0  0  0  0  0  0  0  0
   58.1030   32.0300   44.2260 C   0  0  0  0  0  0  0  0  0  0  0  0
   58.8780   33.1520   44.8720 C   0  0  0  0  0  0  0  0  0  0  0  0
   57.9670   33.8420   46.3030 S   0  0  0  0  0  0  0  0  0  0  0  0
   59.3160   34.8850   46.9620 C   0  0  0  0  0  0  0  0  0  0  0  0
   59.9300   34.2530   48.2110 C   0  0  0  0  0  0  0  0  0  0  0  0
   60.8600   33.1380   47.8290 C   0  0  0  0  0  0  0  0  0  0  0  0
   60.4450   31.9970   47.2450 N   0  0  0  0  0  0  0  0  0  0  0  0
   61.5490   31.2370   47.1100 C   0  0  0  0  0  0  0  0  0  0  0  0
   62.6270   31.9280   47.6240 C   0  0  0  0  0  0  0  0  0  0  0  0
   62.1870   33.1160   48.0850 N   0  0  0  0  0  0  0  0  0  0  0  0
   63.0010   34.1660   48.6880 C   0  0  0  0  0  0  0  0  0  0  0  0
   58.4403   29.6829   48.0334 H   0  0  0  0  0  0  0  0  0  0  0  0
   57.7898   28.7503   46.6428 H   0  0  0  0  0  0  0  0  0  0  0  0
   59.5050   29.2839   46.6428 H   0  0  0  0  0  0  0  0  0  0  0  0
   56.6971   28.9641   44.8630 H   0  0  0  0  0  0  0  0  0  0  0  0
   56.0656   29.1984   42.4641 H   0  0  0  0  0  0  0  0  0  0  0  0
   56.7393   31.2295   41.1849 H   0  0  0  0  0  0  0  0  0  0  0  0
   58.0340   33.0390   42.3040 H   0  0  0  0  0  0  0  0  0  0  0  0
   59.8491   32.7666   45.2160 H   0  0  0  0  0  0  0  0  0  0  0  0
   59.0209   33.9512   44.1298 H   0  0  0  0  0  0  0  0  0  0  0  0
   60.0951   34.9951   46.1933 H   0  0  0  0  0  0  0  0  0  0  0  0
   58.9023   35.8680   47.2313 H   0  0  0  0  0  0  0  0  0  0  0  0
   60.4911   35.0189   48.7665 H   0  0  0  0  0  0  0  0  0  0  0  0
   59.1235   33.8462   48.8388 H   0  0  0  0  0  0  0  0  0  0  0  0
   59.4730   31.7480   46.9590 H   0  0  0  0  0  0  0  0  0  0  0  0
   61.5851   30.2321   46.6640 H   0  0  0  0  0  0  0  0  0  0  0  0
   63.6670   31.5708   47.6527 H   0  0  0  0  0  0  0  0  0  0  0  0
   62.9430   34.0911   49.7839 H   0  0  0  0  0  0  0  0  0  0  0  0
   64.0467   34.0490   48.3674 H   0  0  0  0  0  0  0  0  0  0  0  0
   62.6270   35.1495   48.3674 H   0  0  0  0  0  0  0  0  0  0  0  0
  1  2  1  0
  2  3  1  0
  3  4  2  0
  4  5  1  0
  5  6  2  0
  6  7  1  0
  7  8  2  0
  8  9  1  0
  9 10  1  0
 10 11  1  0
 11 12  1  0
 12 13  1  0
 13 14  2  0
 14 15  1  0
 15 16  2  0
 16 17  1  0
 17 18  1  0
  8  3  1  0
 17 13  1  0
  1 19  1  0
  1 20  1  0
  1 21  1  0
  4 22  1  0
  5 23  1  0
  6 24  1  0
  7 25  1  0
  9 26  1  0
  9 27  1  0
 11 28  1  0
 11 29  1  0
 12 30  1  0
 12 31  1  0
 14 32  1  0
 15 33  1  0
 16 34  1  0
 18 35  1  0
 18 36  1  0
 18 37  1  0
M  CHG  1  14   1
M  END
>  <UniqueID>  (11) 
10

>  <SMILES>  (11) 
COc1ccccc1CSCCc1[nH+]ccn1C

>  <Energy>  (11) 
59.2385404962263

>  <Genealogy>  (11) 
COc1ccccc1CSCCc1[nH+]ccn1C (protonated)
COc1ccccc1CSCCc1[nH+]ccn1C (3D coordinates assigned)
COc1ccccc1CSCCc1[nH+]ccn1C (optimized conformer: 59.2385404962263 kcal/mol)

>  <smiles>  (11) 
COc1ccccc1CSCCc1nccn1C

>  <score_type>  (11) 
oracle

>  <origin>  (11) 
adg

>  <m_score__min__energy>  (11) 
-4.5199999999999996

>  <m_primary>  (11) 
energy

$$$$
11:0
     RDKit          3D

 33 33  0  0  0  0  0  0  0  0999 V2000
   59.4781   36.0015   45.7170 H   0  0  0  0  0  0  0  0  0  0  0  0
   59.2720   34.9430   45.9340 C   0  0  0  0  0  0  0  0  0  0  0  0
   58.8310   34.1700   44.9260 C   0  0  0  0  0  0  0  0  0  0  0  0
   59.4379   34.1111   44.0104 H   0  0  0  0  0  0  0  0  0  0  0  0
   57.5470   33.3790   44.9850 C   0  0  0  0  0  0  0  0  0  0  0  0
   56.7294   33.9918   44.5776 H   0  0  0  0  0  0  0  0  0  0  0  0
   57.3492   33.1151   46.0344 H   0  0  0  0  0  0  0  0  0  0  0  0
   57.6540   32.0830   44.1710 C   0  0  0  0  0  0  0  0  0  0  0  0
   58.7156   31.8374   44.0207 H   0  0  0  0  0  0  0  0  0  0  0  0
   57.1562   32.2317   43.2014 H   0  0  0  0  0  0  0  0  0  0  0  0
   56.9920   30.9650   44.8800 N   0  0  0  0  0  0  0  0  0  0  0  0
   57.9900   30.1540   45.5970 C   0  0  0  0  0  0  0  0  0  0  0  0
   57.8466   30.2705   46.6814 H   0  0  0  0  0  0  0  0  0  0  0  0
   57.8681   29.0958   45.3227 H   0  0  0  0  0  0  0  0  0  0  0  0
   59.0009   30.4898   45.3227 H   0  0  0  0  0  0  0  0  0  0  0  0
   56.2510   30.1050   43.9400 C   0  0  0  0  0  0  0  0  0  0  0  0
   55.6349   29.3900   44.5049 H   0  0  0  0  0  0  0  0  0  0  0  0
   55.6021   30.7279   43.3068 H   0  0  0  0  0  0  0  0  0  0  0  0
   56.9629   29.5553   43.3068 H   0  0  0  0  0  0  0  0  0  0  0  0
   59.5030   34.4550   47.3430 C   0  0  0  0  0  0  0  0  0  0  0  0
   59.2014   35.2440   48.0476 H   0  0  0  0  0  0  0  0  0  0  0  0
   58.9055   33.5437   47.4929 H   0  0  0  0  0  0  0  0  0  0  0  0
   60.9500   34.1130   47.5830 C   0  0  0  0  0  0  0  0  0  0  0  0
   61.7950   33.8050   46.5020 C   0  0  0  0  0  0  0  0  0  0  0  0
   61.3956   33.8088   45.4771 H   0  0  0  0  0  0  0  0  0  0  0  0
   63.1400   33.4940   46.7230 C   0  0  0  0  0  0  0  0  0  0  0  0
   63.7943   33.2491   45.8733 H   0  0  0  0  0  0  0  0  0  0  0  0
   63.6540   33.4940   48.0230 C   0  0  0  0  0  0  0  0  0  0  0  0
   64.7118   33.2468   48.1963 H   0  0  0  0  0  0  0  0  0  0  0  0
   62.8240   33.8080   49.1020 C   0  0  0  0  0  0  0  0  0  0  0  0
   63.2301   33.8089   50.1243 H   0  0  0  0  0  0  0  0  0  0  0  0
   61.4790   34.1210   48.8860 C   0  0  0  0  0  0  0  0  0  0  0  0
   60.8318   34.3746   49.7385 H   0  0  0  0  0  0  0  0  0  0  0  0
  1  2  1  0
  2  3  2  0
  3  4  1  0
  3  5  1  0
  5  6  1  0
  5  7  1  0
  5  8  1  0
  8  9  1  0
  8 10  1  0
  8 11  1  0
 11 12  1  0
 12 13  1  0
 12 14  1  0
 12 15  1  0
 11 16  1  0
 16 17  1  0
 16 18  1  0
 16 19  1  0
  2 20  1  0
 20 21  1  0
 20 22  1  0
 20 23  1  0
 23 24  2  0
 24 25  1  0
 24 26  1  0
 26 27  1  0
 26 28  2  0
 28 29  1  0
 28 30  1  0
 30 31  1  0
 30 32  2  0
 32 33  1  0
 32 23  1  0
M  END
>  <UniqueID>  (12) 
11

>  <SMILES>  (12) 
CN(C)CC/C=C\Cc1ccccc1

>  <Energy>  (12) 
26.020415113961235

>  <Genealogy>  (12) 
CN(C)CC/C=C\Cc1ccccc1 (cis-trans isomerization)
CN(C)CC/C=C\Cc1ccccc1 (3D coordinates assigned)
CN(C)CC/C=C\Cc1ccccc1 (optimized conformer: 26.020415113961235 kcal/mol)

>  <smiles>  (12) 
CN(C)CCC=CCc1ccccc1

>  <score_type>  (12) 
oracle

>  <origin>  (12) 
adg

>  <m_score__min__energy>  (12) 
-5.8700000000000001

>  <m_primary>  (12) 
energy

$$$$
12:0
     RDKit          3D

 46 49  0  0  0  0  0  0  0  0999 V2000
   56.5450   26.3460   45.6590 C   0  0  0  0  0  0  0  0  0  0  0  0
   57.9170   26.9470   45.8440 C   0  0  0  0  0  0  0  0  0  0  0  0
   59.0490   26.1010   45.9000 C   0  0  0  0  0  0  0  0  0  0  0  0
   58.8980   24.3460   45.8610 Cl  0  0  0  0  0  0  0  0  0  0  0  0
   60.3320   26.6480   45.9890 C   0  0  0  0  0  0  0  0  0  0  0  0
   60.5080   28.0300   46.0260 C   0  0  0  0  0  0  0  0  0  0  0  0
   59.4010   28.8760   46.0050 C   0  0  0  0  0  0  0  0  0  0  0  0
   58.1040   28.3500   45.9550 C   0  0  0  0  0  0  0  0  0  0  0  0
   57.0040   29.2700   46.0050 N   0  0  0  0  0  0  0  0  0  0  0  0
   56.2880   29.7610   44.8620 C   0  0  0  0  0  0  0  0  0  0  0  0
   55.1400   29.3030   44.6260 O   0  0  0  0  0  0  0  0  0  0  0  0
   56.8760   30.7670   43.9450 C   0  0  0  0  0  0  0  0  0  0  0  0
   56.6750   30.6520   42.5580 C   0  0  0  0  0  0  0  0  0  0  0  0
   57.2230   31.5900   41.6790 C   0  0  0  0  0  0  0  0  0  0  0  0
   57.9770   32.6570   42.1690 C   0  0  0  0  0  0  0  0  0  0  0  0
   58.1850   32.7900   43.5480 C   0  0  0  0  0  0  0  0  0  0  0  0
   58.9490   33.8360   44.0730 C   0  0  0  0  0  0  0  0  0  0  0  0
   59.1510   33.9240   45.4150 N   0  0  0  0  0  0  0  0  0  0  0  0
   58.6160   33.0040   46.2720 C   0  0  0  0  0  0  0  0  0  0  0  0
   58.8390   33.0900   47.6950 N   0  0  0  0  0  0  0  0  0  0  0  0
   58.2000   32.1410   48.6150 C   0  0  0  0  0  0  0  0  0  0  0  0
   59.0260   32.0070   49.9000 C   0  0  0  0  0  0  0  0  0  0  0  0
   59.3130   33.2780   50.4480 O   0  0  0  0  0  0  0  0  0  0  0  0
   60.1560   33.9940   49.5690 C   0  0  0  0  0  0  0  0  0  0  0  0
   59.4290   34.3100   48.2580 C   0  0  0  0  0  0  0  0  0  0  0  0
   57.8690   31.9820   45.7720 N   0  0  0  0  0  0  0  0  0  0  0  0
   57.6330   31.8490   44.4400 C   0  0  0  0  0  0  0  0  0  0  0  0
   56.0952   26.1490   46.6433 H   0  0  0  0  0  0  0  0  0  0  0  0
   55.9095   27.0482   45.0994 H   0  0  0  0  0  0  0  0  0  0  0  0
   56.6303   25.4028   45.0994 H   0  0  0  0  0  0  0  0  0  0  0  0
   61.2080   25.9839   46.0301 H   0  0  0  0  0  0  0  0  0  0  0  0
   61.5222   28.4535   46.0718 H   0  0  0  0  0  0  0  0  0  0  0  0
   59.5470   29.9660   46.0279 H   0  0  0  0  0  0  0  0  0  0  0  0
   56.0807   29.8157   42.1612 H   0  0  0  0  0  0  0  0  0  0  0  0
   57.0593   31.4868   40.5962 H   0  0  0  0  0  0  0  0  0  0  0  0
   58.4074   33.3926   41.4735 H   0  0  0  0  0  0  0  0  0  0  0  0
   59.3870   34.5883   43.4005 H   0  0  0  0  0  0  0  0  0  0  0  0
   59.7520   34.7010   45.7690 H   0  0  0  0  0  0  0  0  0  0  0  0
   57.1924   32.5029   48.8674 H   0  0  0  0  0  0  0  0  0  0  0  0
   58.1359   31.1574   48.1267 H   0  0  0  0  0  0  0  0  0  0  0  0
   58.4571   31.4179   50.6344 H   0  0  0  0  0  0  0  0  0  0  0  0
   59.9746   31.5053   49.6582 H   0  0  0  0  0  0  0  0  0  0  0  0
   60.4612   34.9357   50.0486 H   0  0  0  0  0  0  0  0  0  0  0  0
   61.0381   33.3766   49.3440 H   0  0  0  0  0  0  0  0  0  0  0  0
   58.6314   35.0421   48.4529 H   0  0  0  0  0  0  0  0  0  0  0  0
   60.1520   34.7223   47.5387 H   0  0  0  0  0  0  0  0  0  0  0  0
  1  2  1  0
  2  3  2  0
  3  4  1  0
  3  5  1  0
  5  6  2  0
  6  7  1  0
  7  8  2  0
  8  9  1  0
  9 10  1  0
 10 11  2  0
 10 12  1  0
 12 13  2  0
 13 14  1  0
 14 15  2  0
 15 16  1  0
 16 17  2  0
 17 18  1  0
 18 19  2  0
 19 20  1  0
 20 21  1  0
 21 22  1  0
 22 23  1  0
 23 24  1  0
 24 25  1  0
 19 26  1  0
 26 27  2  0
  8  2  1  0
 27 12  1  0
 27 16  1  0
 25 20  1  0
  1 28  1  0
  1 29  1  0
  1 30  1  0
  5 31  1  0
  6 32  1  0
  7 33  1  0
 13 34  1  0
 14 35  1  0
 15 36  1  0
 17 37  1  0
 18 38  1  0
 21 39  1  0
 21 40  1  0
 22 41  1  0
 22 42  1  0
 24 43  1  0
 24 44  1  0
 25 45  1  0
 25 46  1  0
M  CHG  2   9  -1  18   1
M  END
>  <UniqueID>  (13) 
12

>  <SMILES>  (13) 
Cc1c(Cl)cccc1[N-]C(=O)c1cccc2c[nH+]c(N3CCOCC3)nc12

>  <Energy>  (13) 
67.67935707337232

>  <Genealogy>  (13) 
Cc1c(Cl)cccc1[N-]C(=O)c1cccc2c[nH+]c(N3CCOCC3)nc12 (protonated)
Cc1c(Cl)cccc1[N-]C(=O)c1cccc2c[nH+]c(N3CCOCC3)nc12 (3D coordinates assigned)
Cc1c(Cl)cccc1[N-]C(=O)c1cccc2c[nH+]c(N3CCOCC3)nc12 (nonaromatic ring conformer: 67.67935707337232 kcal/mol)

>  <smiles>  (13) 
Cc1c(Cl)cccc1NC(=O)c1cccc2cnc(N3CCOCC3)nc12

>  <score_type>  (13) 
oracle

>  <origin>  (13) 
adg

>  <m_score__min__energy>  (13) 
-8.8399999999999999

>  <m_primary>  (13) 
energy

$$$$
13:0
     RDKit          3D

 44 46  0  0  0  0  0  0  0  0999 V2000
   59.5030   30.5660   50.9590 C   0  0  0  0  0  0  0  0  0  0  0  0
   59.7770   29.4660   50.0960 O   0  0  0  0  0  0  0  0  0  0  0  0
   59.6700   29.5000   48.6960 C   0  0  0  0  0  0  0  0  0  0  0  0
   58.5260   29.0180   48.0300 C   0  0  0  0  0  0  0  0  0  0  0  0
   58.4340   29.0620   46.6280 C   0  0  0  0  0  0  0  0  0  0  0  0
   57.2250   28.5550   45.9340 C   0  0  0  0  0  0  0  0  0  0  0  0
   56.9430   27.3260   45.9790 O   0  0  0  0  0  0  0  0  0  0  0  0
   56.4070   29.4520   45.1690 N   0  0  0  0  0  0  0  0  0  0  0  0
   56.8630   30.5230   44.3300 C   0  0  0  0  0  0  0  0  0  0  0  0
   56.7580   30.4710   42.9270 C   0  0  0  0  0  0  0  0  0  0  0  0
   57.1960   31.5470   42.1480 C   0  0  0  0  0  0  0  0  0  0  0  0
   57.7270   32.6860   42.7610 C   0  0  0  0  0  0  0  0  0  0  0  0
   57.8110   32.7540   44.1540 C   0  0  0  0  0  0  0  0  0  0  0  0
   57.3730   31.6790   44.9360 C   0  0  0  0  0  0  0  0  0  0  0  0
   59.5050   29.5910   45.8950 C   0  0  0  0  0  0  0  0  0  0  0  0
   60.6440   30.0670   46.5450 C   0  0  0  0  0  0  0  0  0  0  0  0
   60.7370   30.0370   47.9470 C   0  0  0  0  0  0  0  0  0  0  0  0
   61.9070   30.5340   48.6250 N   0  0  0  0  0  0  0  0  0  0  0  0
   62.5820   32.1070   48.3390 S   0  0  0  0  0  0  0  0  0  0  0  0
   63.1670   32.6390   49.6170 O   0  0  0  0  0  0  0  0  0  0  0  0
   63.6750   31.9950   47.3120 O   0  0  0  0  0  0  0  0  0  0  0  0
   61.3200   33.2100   47.7960 C   0  0  0  0  0  0  0  0  0  0  0  0
   60.3590   33.6930   48.6950 C   0  0  0  0  0  0  0  0  0  0  0  0
   59.3740   34.5840   48.2560 C   0  0  0  0  0  0  0  0  0  0  0  0
   59.3440   34.9930   46.9190 C   0  0  0  0  0  0  0  0  0  0  0  0
   60.2990   34.5100   46.0200 C   0  0  0  0  0  0  0  0  0  0  0  0
   61.2840   33.6190   46.4550 C   0  0  0  0  0  0  0  0  0  0  0  0
   59.5843   30.2395   52.0063 H   0  0  0  0  0  0  0  0  0  0  0  0
   60.2281   31.3710   50.7685 H   0  0  0  0  0  0  0  0  0  0  0  0
   58.4850   30.9368   50.7685 H   0  0  0  0  0  0  0  0  0  0  0  0
   57.6930   28.6014   48.6153 H   0  0  0  0  0  0  0  0  0  0  0  0
   56.3301   29.5813   42.4419 H   0  0  0  0  0  0  0  0  0  0  0  0
   57.1226   31.4971   41.0516 H   0  0  0  0  0  0  0  0  0  0  0  0
   58.0785   33.5282   42.1468 H   0  0  0  0  0  0  0  0  0  0  0  0
   58.2217   33.6532   44.6365 H   0  0  0  0  0  0  0  0  0  0  0  0
   57.4294   31.7419   46.0327 H   0  0  0  0  0  0  0  0  0  0  0  0
   59.4470   29.6313   44.7973 H   0  0  0  0  0  0  0  0  0  0  0  0
   61.4789   30.4705   45.9533 H   0  0  0  0  0  0  0  0  0  0  0  0
   62.3220   29.9850   49.4110 H   0  0  0  0  0  0  0  0  0  0  0  0
   60.3795   33.3711   49.7466 H   0  0  0  0  0  0  0  0  0  0  0  0
   58.6220   34.9635   48.9634 H   0  0  0  0  0  0  0  0  0  0  0  0
   58.5694   35.6943   46.5752 H   0  0  0  0  0  0  0  0  0  0  0  0
   60.2753   34.8317   44.9684 H   0  0  0  0  0  0  0  0  0  0  0  0
   62.0322   33.2379   45.7444 H   0  0  0  0  0  0  0  0  0  0  0  0
  1  2  1  0
  2  3  1  0
  3  4  2  0
  4  5  1  0
  5  6  1  0
  6  7  2  0
  6  8  1  0
  8  9  1  0
  9 10  2  0
 10 11  1  0
 11 12  2  0
 12 13  1  0
 13 14  2  0
  5 15  2  0
 15 16  1  0
 16 17  2  0
 17 18  1  0
 18 19  1  0
 19 20  2  0
 19 21  2  0
 19 22  1  0
 22 23  2  0
 23 24  1  0
 24 25  2  0
 25 26  1  0
 26 27  2  0
 17  3  1  0
 27 22  1  0
 14  9  1  0
  1 28  1  0
  1 29  1  0
  1 30  1  0
  4 31  1  0
 10 32  1  0
 11 33  1  0
 12 34  1  0
 13 35  1  0
 14 36  1  0
 15 37  1  0
 16 38  1  0
 18 39  1  0
 23 40  1  0
 24 41  1  0
 25 42  1  0
 26 43  1  0
 27 44  1  0
M  CHG  1   8  -1
M  END
>  <UniqueID>  (14) 
13

>  <SMILES>  (14) 
COc1cc(C(=O)[N-]c2ccccc2)ccc1NS(=O)(=O)c1ccccc1

>  <Energy>  (14) 
54.05350107141212

>  <Genealogy>  (14) 
COc1cc(C(=O)[N-]c2ccccc2)ccc1NS(=O)(=O)c1ccccc1 (protonated)
COc1cc(C(=O)[N-]c2ccccc2)ccc1NS(=O)(=O)c1ccccc1 (3D coordinates assigned)
COc1cc(C(=O)[N-]c2ccccc2)ccc1NS(=O)(=O)c1ccccc1 (optimized conformer: 54.05350107141212 kcal/mol)

>  <smiles>  (14) 
COc1cc(C(=O)Nc2ccccc2)ccc1NS(=O)(=O)c1ccccc1

>  <score_type>  (14) 
oracle

>  <origin>  (14) 
adg

>  <m_score__min__energy>  (14) 
-10.029999999999999

>  <m_primary>  (14) 
energy

$$$$
14:0
     RDKit          3D

 36 38  0  0  0  0  0  0  0  0999 V2000
   65.3980   32.2870   50.1070 C   0  0  0  0  0  0  0  0  0  0  0  0
   64.2050   32.8630   49.4200 C   0  0  0  0  0  0  0  0  0  0  0  0
   63.3240   33.7890   49.9660 C   0  0  0  0  0  0  0  0  0  0  0  0
   62.3400   34.2110   49.0650 C   0  0  0  0  0  0  0  0  0  0  0  0
   62.4640   33.6300   47.8090 C   0  0  0  0  0  0  0  0  0  0  0  0
   61.5580   33.8710   46.6420 C   0  0  0  0  0  0  0  0  0  0  0  0
   60.2450   34.3690   47.1070 N   0  0  0  0  0  0  0  0  0  0  0  0
   59.6320   35.3180   46.1550 C   0  0  0  0  0  0  0  0  0  0  0  0
   59.2910   34.6570   44.8110 C   0  0  0  0  0  0  0  0  0  0  0  0
   58.6360   33.3180   44.9910 C   0  0  0  0  0  0  0  0  0  0  0  0
   58.0390   32.7240   43.9230 N   0  0  0  0  0  0  0  0  0  0  0  0
   57.4840   31.5120   43.9990 N   0  0  0  0  0  0  0  0  0  0  0  0
   56.8570   30.9490   42.8030 C   0  0  0  0  0  0  0  0  0  0  0  0
   57.5030   30.8110   45.1750 C   0  0  0  0  0  0  0  0  0  0  0  0
   56.9740   29.6680   45.2550 O   0  0  0  0  0  0  0  0  0  0  0  0
   58.1120   31.3680   46.2990 C   0  0  0  0  0  0  0  0  0  0  0  0
   58.7030   32.6290   46.2100 C   0  0  0  0  0  0  0  0  0  0  0  0
   59.3070   33.2730   47.4370 C   0  0  0  0  0  0  0  0  0  0  0  0
   63.7880   32.5900   47.8120 S   0  0  0  0  0  0  0  0  0  0  0  0
   65.2612   32.3531   51.1965 H   0  0  0  0  0  0  0  0  0  0  0  0
   65.5156   31.2329   49.8155 H   0  0  0  0  0  0  0  0  0  0  0  0
   66.2966   32.8505   49.8155 H   0  0  0  0  0  0  0  0  0  0  0  0
   63.3932   34.1533   51.0016 H   0  0  0  0  0  0  0  0  0  0  0  0
   61.5487   34.9297   49.3247 H   0  0  0  0  0  0  0  0  0  0  0  0
   62.0146   34.6181   45.9761 H   0  0  0  0  0  0  0  0  0  0  0  0
   61.4111   32.9245   46.1010 H   0  0  0  0  0  0  0  0  0  0  0  0
   58.7072   35.7160   46.5982 H   0  0  0  0  0  0  0  0  0  0  0  0
   60.3613   36.1183   45.9610 H   0  0  0  0  0  0  0  0  0  0  0  0
   58.6066   35.3150   44.2555 H   0  0  0  0  0  0  0  0  0  0  0  0
   60.2309   34.5034   44.2606 H   0  0  0  0  0  0  0  0  0  0  0  0
   56.0691   30.2415   43.1006 H   0  0  0  0  0  0  0  0  0  0  0  0
   56.4152   31.7594   42.2046 H   0  0  0  0  0  0  0  0  0  0  0  0
   57.6153   30.4228   42.2046 H   0  0  0  0  0  0  0  0  0  0  0  0
   58.1265   30.8164   47.2506 H   0  0  0  0  0  0  0  0  0  0  0  0
   58.4942   33.6806   48.0561 H   0  0  0  0  0  0  0  0  0  0  0  0
   59.8775   32.4985   47.9705 H   0  0  0  0  0  0  0  0  0  0  0  0
  1  2  1  0
  2  3  2  0
  3  4  1  0
  4  5  2  0
  5  6  1  0
  6  7  1  0
  7  8  1  0
  8  9  1  0
  9 10  1  0
 10 11  2  0
 11 12  1  0
 12 13  1  0
 12 14  1  0
 14 15  2  0
 14 16  1  0
 16 17  2  0
 17 18  1  0
  5 19  1  0
 19  2  1  0
 18  7  1  0
 17 10  1  0
  1 20  1  0
  1 21  1  0
  1 22  1  0
  3 23  1  0
  4 24  1  0
  6 25  1  0
  6 26  1  0
  8 27  1  0
  8 28  1  0
  9 29  1  0
  9 30  1  0
 13 31  1  0
 13 32  1  0
 13 33  1  0
 16 34  1  0
 18 35  1  0
 18 36  1  0
M  END
>  <UniqueID>  (15) 
14

>  <SMILES>  (15) 
Cc1ccc(CN2CCc3nn(C)c(=O)cc3C2)s1

>  <Energy>  (15) 
67.21823494080154

>  <Genealogy>  (15) 
Cc1ccc(CN2CCc3nn(C)c(=O)cc3C2)s1 (3D coordinates assigned)
Cc1ccc(CN2CCc3nn(C)c(=O)cc3C2)s1 (nonaromatic ring conformer: 67.21823494080154 kcal/mol)

>  <smiles>  (15) 
Cc1ccc(CN2CCc3nn(C)c(=O)cc3C2)s1

>  <score_type>  (15) 
oracle

>  <origin>  (15) 
adg

>  <m_score__min__energy>  (15) 
-7.3200000000000003

>  <m_primary>  (15) 
energy

$$$$
15:0
     RDKit          3D

 30 31  0  0  0  0  0  0  0  0999 V2000
   57.4010   34.1810   45.0520 C   0  0  0  0  0  0  0  0  0  0  0  0
   58.7850   34.5160   46.1830 S   0  0  0  0  0  0  0  0  0  0  0  0
   58.8650   32.8270   46.7680 C   0  0  0  0  0  0  0  0  0  0  0  0
   58.9970   31.7020   45.9720 C   0  0  0  0  0  0  0  0  0  0  0  0
   59.0250   30.5100   46.7120 C   0  0  0  0  0  0  0  0  0  0  0  0
   59.1260   29.1550   46.0790 C   0  0  0  0  0  0  0  0  0  0  0  0
   57.7870   28.5920   45.8690 N   0  0  0  0  0  0  0  0  0  0  0  0
   57.3990   27.3620   46.5700 C   0  0  0  0  0  0  0  0  0  0  0  0
   56.8830   29.2060   44.9240 C   0  0  0  0  0  0  0  0  0  0  0  0
   55.6650   29.3480   45.2200 O   0  0  0  0  0  0  0  0  0  0  0  0
   57.3760   29.7310   43.6030 C   0  0  0  0  0  0  0  0  0  0  0  0
   57.0590   31.1950   43.3210 C   0  0  0  0  0  0  0  0  0  0  0  0
   56.2700   30.1010   42.6250 C   0  0  0  0  0  0  0  0  0  0  0  0
   58.9030   30.7050   48.0860 C   0  0  0  0  0  0  0  0  0  0  0  0
   58.7710   32.3570   48.3780 S   0  0  0  0  0  0  0  0  0  0  0  0
   56.4950   33.9617   45.6361 H   0  0  0  0  0  0  0  0  0  0  0  0
   57.2241   35.0623   44.4179 H   0  0  0  0  0  0  0  0  0  0  0  0
   57.6467   33.3164   44.4179 H   0  0  0  0  0  0  0  0  0  0  0  0
   59.0720   31.7386   44.8752 H   0  0  0  0  0  0  0  0  0  0  0  0
   59.6387   29.2441   45.1099 H   0  0  0  0  0  0  0  0  0  0  0  0
   59.6945   28.4894   46.7451 H   0  0  0  0  0  0  0  0  0  0  0  0
   57.4511   27.5271   47.6563 H   0  0  0  0  0  0  0  0  0  0  0  0
   56.3710   27.0888   46.2895 H   0  0  0  0  0  0  0  0  0  0  0  0
   58.0841   26.5484   46.2895 H   0  0  0  0  0  0  0  0  0  0  0  0
   58.2864   29.1146   43.5666 H   0  0  0  0  0  0  0  0  0  0  0  0
   56.5786   31.8124   44.0943 H   0  0  0  0  0  0  0  0  0  0  0  0
   57.6414   32.0663   42.9869 H   0  0  0  0  0  0  0  0  0  0  0  0
   55.2177   29.9265   42.8938 H   0  0  0  0  0  0  0  0  0  0  0  0
   56.0443   29.8526   41.5774 H   0  0  0  0  0  0  0  0  0  0  0  0
   58.8944   29.9137   48.8501 H   0  0  0  0  0  0  0  0  0  0  0  0
  1  2  1  0
  2  3  1  0
  3  4  2  0
  4  5  1  0
  5  6  1  0
  6  7  1  0
  7  8  1  0
  7  9  1  0
  9 10  2  0
  9 11  1  0
 11 12  1  0
 12 13  1  0
  5 14  2  0
 14 15  1  0
 15  3  1  0
 13 11  1  0
  1 16  1  0
  1 17  1  0
  1 18  1  0
  4 19  1  0
  6 20  1  0
  6 21  1  0
  8 22  1  0
  8 23  1  0
  8 24  1  0
 11 25  1  0
 12 26  1  0
 12 27  1  0
 13 28  1  0
 13 29  1  0
 14 30  1  0
M  END
>  <UniqueID>  (16) 
15

>  <SMILES>  (16) 
CSc1cc(CN(C)C(=O)C2CC2)cs1

>  <Energy>  (16) 
310.4658251965873

>  <Genealogy>  (16) 
CSc1cc(CN(C)C(=O)C2CC2)cs1 (3D coordinates assigned)
CSc1cc(CN(C)C(=O)C2CC2)cs1 (nonaromatic ring conformer: 310.4658251965873 kcal/mol)

>  <smiles>  (16) 
CSc1cc(CN(C)C(=O)C2CC2)cs1

>  <score_type>  (16) 
oracle

>  <origin>  (16) 
adg

>  <m_score__min__energy>  (16) 
-6

>  <m_primary>  (16) 
energy

$$$$
16:0
     RDKit          3D

 43 45  0  0  0  0  0  0  0  0999 V2000
   59.0967   32.9242   48.8702 H   0  0  0  0  0  0  0  0  0  0  0  0
   58.7210   32.8870   47.8370 C   0  0  0  0  0  0  0  0  0  0  0  0
   58.1750   33.9240   47.1730 N   0  0  0  0  0  0  0  0  0  0  0  0
   57.8660   33.4150   45.9610 C   0  0  0  0  0  0  0  0  0  0  0  0
   57.2550   34.2430   44.8750 C   0  0  0  0  0  0  0  0  0  0  0  0
   56.6583   35.0517   45.3222 H   0  0  0  0  0  0  0  0  0  0  0  0
   58.0514   34.6763   44.2522 H   0  0  0  0  0  0  0  0  0  0  0  0
   56.6061   33.6098   44.2522 H   0  0  0  0  0  0  0  0  0  0  0  0
   58.1830   32.1010   45.8430 N   0  0  0  0  0  0  0  0  0  0  0  0
   58.0630   31.2680   44.6330 C   0  0  2  0  0  0  0  0  0  0  0  0
   58.3135   31.9039   43.7711 H   0  0  0  0  0  0  0  0  0  0  0  0
   56.6190   30.7990   44.3790 C   0  0  0  0  0  0  0  0  0  0  0  0
   56.0317   31.6316   43.9643 H   0  0  0  0  0  0  0  0  0  0  0  0
   56.1714   30.4677   45.3276 H   0  0  0  0  0  0  0  0  0  0  0  0
   56.6220   29.6390   43.3900 C   0  0  0  0  0  0  0  0  0  0  0  0
   57.0862   29.9735   42.4505 H   0  0  0  0  0  0  0  0  0  0  0  0
   55.5800   29.3262   43.2273 H   0  0  0  0  0  0  0  0  0  0  0  0
   57.4080   28.4250   43.9310 C   0  0  0  0  0  0  0  0  0  0  0  0
   57.8415   27.8890   43.0738 H   0  0  0  0  0  0  0  0  0  0  0  0
   56.6881   27.8212   44.5030 H   0  0  0  0  0  0  0  0  0  0  0  0
   58.5150   28.7630   44.8750 N   0  0  2  0  0  0  0  0  0  0  0  0
   59.2960   28.0950   44.6700 H   0  0  0  0  0  0  0  0  0  0  0  0
   58.1340   28.5550   46.2970 C   0  0  0  0  0  0  0  0  0  0  0  0
   57.0790   28.8373   46.4286 H   0  0  0  0  0  0  0  0  0  0  0  0
   58.7893   29.1786   46.9229 H   0  0  0  0  0  0  0  0  0  0  0  0
   58.3110   27.1210   46.7150 C   0  0  0  0  0  0  0  0  0  0  0  0
   58.9020   26.8540   47.7960 O   0  0  0  0  0  0  0  0  0  0  0  0
   57.7680   26.0760   45.8930 N   0  0  0  0  0  0  0  0  0  0  0  0
   56.5120   25.7480   45.8350 C   0  0  0  0  0  0  0  0  0  0  0  0
   55.5060   26.5730   46.0150 O   0  0  0  0  0  0  0  0  0  0  0  0
   54.3720   25.9440   45.8980 N   0  0  0  0  0  0  0  0  0  0  0  0
   54.6690   24.6540   45.6410 C   0  0  0  0  0  0  0  0  0  0  0  0
   53.6470   23.5970   45.3860 C   0  0  0  0  0  0  0  0  0  0  0  0
   53.2727   23.2099   46.3452 H   0  0  0  0  0  0  0  0  0  0  0  0
   52.8118   24.0253   44.8124 H   0  0  0  0  0  0  0  0  0  0  0  0
   54.1032   22.7767   44.8124 H   0  0  0  0  0  0  0  0  0  0  0  0
   56.0380   24.4830   45.5790 C   0  0  0  0  0  0  0  0  0  0  0  0
   56.6072   23.5640   45.3756 H   0  0  0  0  0  0  0  0  0  0  0  0
   59.0960   30.1080   44.6380 C   0  0  0  0  0  0  0  0  0  0  0  0
   59.6024   30.0956   43.6616 H   0  0  0  0  0  0  0  0  0  0  0  0
   59.7800   30.3039   45.4769 H   0  0  0  0  0  0  0  0  0  0  0  0
   58.7380   31.7740   47.0280 C   0  0  0  0  0  0  0  0  0  0  0  0
   59.1364   30.7858   47.3012 H   0  0  0  0  0  0  0  0  0  0  0  0
  1  2  1  0
  2  3  1  0
  3  4  2  0
  4  5  1  0
  5  6  1  0
  5  7  1  0
  5  8  1  0
  4  9  1  0
  9 10  1  0
 10 11  1  6
 10 12  1  0
 12 13  1  0
 12 14  1  0
 12 15  1  0
 15 16  1  0
 15 17  1  0
 15 18  1  0
 18 19  1  0
 18 20  1  0
 18 21  1  0
 21 22  1  6
 21 23  1  0
 23 24  1  0
 23 25  1  0
 23 26  1  0
 26 27  2  0
 26 28  1  0
 28 29  2  0
 29 30  1  0
 30 31  1  0
 31 32  1  0
 32 33  1  0
 33 34  1  0
 33 35  1  0
 33 36  1  0
 32 37  2  0
 37 38  1  0
 21 39  1  0
 39 40  1  0
 39 41  1  0
  9 42  1  0
 42 43  1  0
 42  2  2  0
 39 10  1  0
 37 29  1  0
M  CHG  2  21   1  31  -1
M  END
>  <UniqueID>  (17) 
16

>  <SMILES>  (17) 
Cc1c/c(=N/C(=O)C[N@H+]2CCC[C@@H](n3ccnc3C)C2)o[n-]1

>  <Energy>  (17) 
115.73644915642738

>  <Genealogy>  (17) 
Cc1cc(=NC(=O)C[NH+]2CCCC(n3ccnc3C)C2)o[n-]1 (protonated)
Cc1cc(=NC(=O)C[N@H+]2CCC[C@@H](n3ccnc3C)C2)o[n-]1 (chirality)
Cc1c/c(=N/C(=O)C[N@H+]2CCC[C@@H](n3ccnc3C)C2)o[n-]1 (cis-trans isomerization)
Cc1c/c(=N/C(=O)C[N@H+]2CCC[C@@H](n3ccnc3C)C2)o[n-]1 (3D coordinates assigned)
Cc1c/c(=N/C(=O)C[N@H+]2CCC[C@@H](n3ccnc3C)C2)o[n-]1 (nonaromatic ring conformer: 115.73644915642738 kcal/mol)

>  <smiles>  (17) 
Cc1cc(=NC(=O)CN2CCCC(n3ccnc3C)C2)o[nH]1

>  <score_type>  (17) 
oracle

>  <origin>  (17) 
adg

>  <m_score__min__energy>  (17) 
-8.5099999999999998

>  <m_primary>  (17) 
energy

$$$$
17:0
     RDKit          3D

 42 43  0  0  0  0  0  0  0  0999 V2000
   56.3020   23.6370   43.3050 C   0  0  0  0  0  0  0  0  0  0  0  0
   57.2390   24.1790   44.3880 C   0  0  0  0  0  0  0  0  0  0  0  0
   57.1820   25.6470   44.4870 N   0  0  0  0  0  0  0  0  0  0  0  0
   56.5250   26.0610   45.6960 C   0  0  0  0  0  0  0  0  0  0  0  0
   55.8750   25.2230   46.3780 O   0  0  0  0  0  0  0  0  0  0  0  0
   56.6320   27.4180   46.1340 N   0  0  0  0  0  0  0  0  0  0  0  0
   57.2850   28.6700   45.1330 S   0  0  0  0  0  0  0  0  0  0  0  0
   57.6560   28.0990   43.7930 O   0  0  0  0  0  0  0  0  0  0  0  0
   56.2420   29.7330   44.9260 O   0  0  0  0  0  0  0  0  0  0  0  0
   58.6900   29.3830   45.9160 C   0  0  0  0  0  0  0  0  0  0  0  0
   58.5190   30.2100   47.0330 C   0  0  0  0  0  0  0  0  0  0  0  0
   59.6280   30.8010   47.6470 C   0  0  0  0  0  0  0  0  0  0  0  0
   60.9130   30.5860   47.1350 C   0  0  0  0  0  0  0  0  0  0  0  0
   62.0360   31.2310   47.7490 N   0  0  0  0  0  0  0  0  0  0  0  0
   62.0670   32.4720   48.1450 C   0  0  0  0  0  0  0  0  0  0  0  0
   61.6830   33.6370   47.2690 C   0  0  0  0  0  0  0  0  0  0  0  0
   60.2540   34.0420   47.5140 C   0  0  0  0  0  0  0  0  0  0  0  0
   59.9540   34.5600   48.6240 O   0  0  0  0  0  0  0  0  0  0  0  0
   59.1840   33.8220   46.5200 C   0  0  0  0  0  0  0  0  0  0  0  0
   59.2970   33.8450   45.1320 C   0  0  0  0  0  0  0  0  0  0  0  0
   58.0950   33.5570   44.4720 C   0  0  0  0  0  0  0  0  0  0  0  0
   57.0310   33.3140   45.3280 C   0  0  0  0  0  0  0  0  0  0  0  0
   57.5870   33.4570   46.9070 S   0  0  0  0  0  0  0  0  0  0  0  0
   61.0890   29.7220   46.0430 C   0  0  0  0  0  0  0  0  0  0  0  0
   59.9820   29.1260   45.4350 C   0  0  0  0  0  0  0  0  0  0  0  0
   55.4427   23.1399   43.7788 H   0  0  0  0  0  0  0  0  0  0  0  0
   55.9454   24.4683   42.6791 H   0  0  0  0  0  0  0  0  0  0  0  0
   56.8448   22.9134   42.6791 H   0  0  0  0  0  0  0  0  0  0  0  0
   56.9485   23.7468   45.3569 H   0  0  0  0  0  0  0  0  0  0  0  0
   58.2674   23.8978   44.1173 H   0  0  0  0  0  0  0  0  0  0  0  0
   56.6930   26.0480   43.6540 H   0  0  0  0  0  0  0  0  0  0  0  0
   58.1600   26.0200   44.5000 H   0  0  0  0  0  0  0  0  0  0  0  0
   57.5095   30.3954   47.4287 H   0  0  0  0  0  0  0  0  0  0  0  0
   59.4901   31.4363   48.5344 H   0  0  0  0  0  0  0  0  0  0  0  0
   62.3912   32.6809   49.1752 H   0  0  0  0  0  0  0  0  0  0  0  0
   62.3425   34.4887   47.4920 H   0  0  0  0  0  0  0  0  0  0  0  0
   61.7886   33.3363   46.2162 H   0  0  0  0  0  0  0  0  0  0  0  0
   60.2371   34.0673   44.6058 H   0  0  0  0  0  0  0  0  0  0  0  0
   58.0036   33.5264   43.3762 H   0  0  0  0  0  0  0  0  0  0  0  0
   56.0019   33.0700   45.0256 H   0  0  0  0  0  0  0  0  0  0  0  0
   62.1009   29.5139   45.6653 H   0  0  0  0  0  0  0  0  0  0  0  0
   60.1239   28.4531   44.5765 H   0  0  0  0  0  0  0  0  0  0  0  0
  1  2  1  0
  2  3  1  0
  3  4  1  0
  4  5  2  0
  4  6  1  0
  6  7  1  0
  7  8  2  0
  7  9  2  0
  7 10  1  0
 10 11  2  0
 11 12  1  0
 12 13  2  0
 13 14  1  0
 14 15  2  3
 15 16  1  0
 16 17  1  0
 17 18  2  0
 17 19  1  0
 19 20  2  0
 20 21  1  0
 21 22  2  0
 22 23  1  0
 13 24  1  0
 24 25  2  0
 25 10  1  0
 23 19  1  0
  1 26  1  0
  1 27  1  0
  1 28  1  0
  2 29  1  0
  2 30  1  0
  3 31  1  0
  3 32  1  0
 11 33  1  0
 12 34  1  0
 15 35  1  0
 16 36  1  0
 16 37  1  0
 20 38  1  0
 21 39  1  0
 22 40  1  0
 24 41  1  0
 25 42  1  0
M  CHG  2   3   1   6  -1
M  END
>  <UniqueID>  (18) 
17

>  <SMILES>  (18) 
CC[NH2+]C(=O)[N-]S(=O)(=O)c1ccc(N=CCC(=O)c2cccs2)cc1

>  <Energy>  (18) 
70.30437287286925

>  <Genealogy>  (18) 
CC[NH2+]C(=O)[N-]S(=O)(=O)c1ccc(N=CCC(=O)c2cccs2)cc1 (protonated)
CC[NH2+]C(=O)[N-]S(=O)(=O)c1ccc(N=CCC(=O)c2cccs2)cc1 (3D coordinates assigned)
CC[NH2+]C(=O)[N-]S(=O)(=O)c1ccc(N=CCC(=O)c2cccs2)cc1 (optimized conformer: 70.30437287286925 kcal/mol)

>  <smiles>  (18) 
CCNC(=O)NS(=O)(=O)c1ccc(N=CCC(=O)c2cccs2)cc1

>  <score_type>  (18) 
oracle

>  <origin>  (18) 
adg

>  <m_score__min__energy>  (18) 
-8.5

>  <m_primary>  (18) 
energy

$$$$
18:0
     RDKit          3D

 29 31  0  0  0  0  0  0  0  0999 V2000
   56.8616   34.8608   45.6825 H   0  0  0  0  0  0  0  0  0  0  0  0
   57.3730   33.8870   45.6650 C   0  0  0  0  0  0  0  0  0  0  0  0
   56.7090   32.7780   45.2400 N   0  0  0  0  0  0  0  0  0  0  0  0
   57.3070   31.5560   45.1880 C   0  0  0  0  0  0  0  0  0  0  0  0
   56.5820   30.3840   44.7840 N   0  0  0  0  0  0  0  0  0  0  0  0
   57.0360   29.1740   44.6180 C   0  0  0  0  0  0  0  0  0  0  0  0
   56.6010   28.1600   45.3290 O   0  0  0  0  0  0  0  0  0  0  0  0
   57.2640   27.0950   44.9350 C   0  0  0  0  0  0  0  0  0  0  0  0
   57.0700   25.7330   45.4910 C   0  0  0  0  0  0  0  0  0  0  0  0
   58.1370   24.8130   45.5420 C   0  0  0  0  0  0  0  0  0  0  0  0
   59.1283   25.1054   45.1655 H   0  0  0  0  0  0  0  0  0  0  0  0
   57.9450   23.5330   46.0670 C   0  0  0  0  0  0  0  0  0  0  0  0
   58.7849   22.8235   46.1021 H   0  0  0  0  0  0  0  0  0  0  0  0
   56.6920   23.1510   46.5470 C   0  0  0  0  0  0  0  0  0  0  0  0
   56.5446   22.1420   46.9597 H   0  0  0  0  0  0  0  0  0  0  0  0
   55.6250   24.0510   46.5030 C   0  0  0  0  0  0  0  0  0  0  0  0
   54.6374   23.7486   46.8813 H   0  0  0  0  0  0  0  0  0  0  0  0
   55.8070   25.3350   45.9800 C   0  0  0  0  0  0  0  0  0  0  0  0
   54.7470   26.1830   45.9520 F   0  0  0  0  0  0  0  0  0  0  0  0
   58.1460   27.4870   43.9400 C   0  0  0  0  0  0  0  0  0  0  0  0
   58.8453   26.8293   43.4030 H   0  0  0  0  0  0  0  0  0  0  0  0
   58.0000   28.8090   43.7440 N   0  0  0  0  0  0  0  0  0  0  0  0
   58.5620   29.3900   43.0860 H   0  0  0  0  0  0  0  0  0  0  0  0
   58.6320   31.4190   45.6160 C   0  0  0  0  0  0  0  0  0  0  0  0
   59.1181   30.4323   45.6060 H   0  0  0  0  0  0  0  0  0  0  0  0
   59.3330   32.5440   46.0560 C   0  0  0  0  0  0  0  0  0  0  0  0
   60.3788   32.4488   46.3836 H   0  0  0  0  0  0  0  0  0  0  0  0
   58.7030   33.7900   46.0790 C   0  0  0  0  0  0  0  0  0  0  0  0
   59.6450   35.3390   46.6800 Br  0  0  0  0  0  0  0  0  0  0  0  0
  1  2  1  0
  2  3  2  0
  3  4  1  0
  4  5  1  0
  5  6  2  0
  6  7  1  0
  7  8  1  0
  8  9  1  0
  9 10  2  0
 10 11  1  0
 10 12  1  0
 12 13  1  0
 12 14  2  0
 14 15  1  0
 14 16  1  0
 16 17  1  0
 16 18  2  0
 18 19  1  0
  8 20  2  0
 20 21  1  0
 20 22  1  0
 22 23  1  0
  4 24  2  0
 24 25  1  0
 24 26  1  0
 26 27  1  0
 26 28  2  0
 28 29  1  0
 28  2  1  0
 22  6  1  0
 18  9  1  0
M  END
>  <UniqueID>  (19) 
18

>  <SMILES>  (19) 
Fc1ccccc1-c1c[nH]/c(=N\c2ccc(Br)cn2)o1

>  <Energy>  (19) 
71.01277561711208

>  <Genealogy>  (19) 
Fc1ccccc1-c1c[nH]/c(=N\c2ccc(Br)cn2)o1 (cis-trans isomerization)
Fc1ccccc1-c1c[nH]/c(=N\c2ccc(Br)cn2)o1 (3D coordinates assigned)
Fc1ccccc1-c1c[nH]/c(=N\c2ccc(Br)cn2)o1 (optimized conformer: 71.01277561711208 kcal/mol)

>  <smiles>  (19) 
Fc1ccccc1-c1c[nH]c(=Nc2ccc(Br)cn2)o1

>  <score_type>  (19) 
oracle

>  <origin>  (19) 
adg

>  <m_score__min__energy>  (19) 
-7.4000000000000004

>  <m_primary>  (19) 
energy

$$$$
19:0
     RDKit          3D

 42 44  0  0  0  0  0  0  0  0999 V2000
   58.1360   27.0700   43.4110 C   0  0  0  0  0  0  0  0  0  0  0  0
   58.1220   25.9810   44.4910 C   0  0  0  0  0  0  0  0  0  0  0  0
   57.3020   24.7750   44.0130 C   0  0  0  0  0  0  0  0  0  0  0  0
   57.5680   26.5530   45.8150 C   0  0  0  0  0  0  0  0  0  0  0  0
   56.2320   27.2270   45.6270 C   0  0  0  0  0  0  0  0  0  0  0  0
   55.1880   26.6260   45.9950 O   0  0  0  0  0  0  0  0  0  0  0  0
   56.1170   28.5700   45.1350 N   0  0  0  0  0  0  0  0  0  0  0  0
   57.0320   29.6400   45.4010 C   0  0  0  0  0  0  0  0  0  0  0  0
   56.8850   30.8460   44.7120 C   0  0  0  0  0  0  0  0  0  0  0  0
   57.7690   31.9110   44.9400 C   0  0  0  0  0  0  0  0  0  0  0  0
   58.8410   31.7500   45.8430 C   0  0  0  0  0  0  0  0  0  0  0  0
   59.0100   30.5190   46.5120 C   0  0  0  0  0  0  0  0  0  0  0  0
   58.1170   29.4660   46.2700 C   0  0  0  0  0  0  0  0  0  0  0  0
   60.2200   30.2910   47.3850 C   0  0  0  0  0  0  0  0  0  0  0  0
   60.6570   31.5730   48.0960 C   0  0  0  0  0  0  0  0  0  0  0  0
   60.7510   32.7070   47.1200 C   0  0  0  0  0  0  0  0  0  0  0  0
   61.6740   33.5570   47.2400 O   0  0  0  0  0  0  0  0  0  0  0  0
   59.7510   32.8440   46.0930 N   0  0  0  0  0  0  0  0  0  0  0  0
   59.7060   34.0490   45.2540 C   0  0  0  0  0  0  0  0  0  0  0  0
   58.2630   34.3730   44.8600 C   0  0  0  0  0  0  0  0  0  0  0  0
   57.6190   33.1830   44.1460 C   0  0  0  0  0  0  0  0  0  0  0  0
   58.1487   28.0605   43.8892 H   0  0  0  0  0  0  0  0  0  0  0  0
   59.0327   26.9537   42.7846 H   0  0  0  0  0  0  0  0  0  0  0  0
   57.2366   26.9768   42.7846 H   0  0  0  0  0  0  0  0  0  0  0  0
   59.1508   25.6383   44.6757 H   0  0  0  0  0  0  0  0  0  0  0  0
   56.9245   24.2198   44.8843 H   0  0  0  0  0  0  0  0  0  0  0  0
   56.4542   25.1254   43.4060 H   0  0  0  0  0  0  0  0  0  0  0  0
   57.9396   24.1154   43.4060 H   0  0  0  0  0  0  0  0  0  0  0  0
   57.4518   25.7302   46.5357 H   0  0  0  0  0  0  0  0  0  0  0  0
   58.2794   27.3076   46.1819 H   0  0  0  0  0  0  0  0  0  0  0  0
   56.0686   30.9617   43.9839 H   0  0  0  0  0  0  0  0  0  0  0  0
   58.2692   28.4960   46.7660 H   0  0  0  0  0  0  0  0  0  0  0  0
   59.9755   29.5302   48.1409 H   0  0  0  0  0  0  0  0  0  0  0  0
   61.0477   29.9574   46.7419 H   0  0  0  0  0  0  0  0  0  0  0  0
   59.9211   31.8246   48.8739 H   0  0  0  0  0  0  0  0  0  0  0  0
   61.6460   31.4098   48.5491 H   0  0  0  0  0  0  0  0  0  0  0  0
   60.1274   34.8965   45.8145 H   0  0  0  0  0  0  0  0  0  0  0  0
   60.2928   33.8695   44.3410 H   0  0  0  0  0  0  0  0  0  0  0  0
   57.6848   34.6069   45.7661 H   0  0  0  0  0  0  0  0  0  0  0  0
   58.2672   35.2358   44.1776 H   0  0  0  0  0  0  0  0  0  0  0  0
   56.5482   33.3899   44.0025 H   0  0  0  0  0  0  0  0  0  0  0  0
   58.1262   33.0466   43.1795 H   0  0  0  0  0  0  0  0  0  0  0  0
  1  2  1  0
  2  3  1  0
  2  4  1  0
  4  5  1  0
  5  6  2  0
  5  7  1  0
  7  8  1  0
  8  9  2  0
  9 10  1  0
 10 11  2  0
 11 12  1  0
 12 13  2  0
 12 14  1  0
 14 15  1  0
 15 16  1  0
 16 17  2  0
 16 18  1  0
 18 19  1  0
 19 20  1  0
 20 21  1  0
 13  8  1  0
 21 10  1  0
 18 11  1  0
  1 22  1  0
  1 23  1  0
  1 24  1  0
  2 25  1  0
  3 26  1  0
  3 27  1  0
  3 28  1  0
  4 29  1  0
  4 30  1  0
  9 31  1  0
 13 32  1  0
 14 33  1  0
 14 34  1  0
 15 35  1  0
 15 36  1  0
 19 37  1  0
 19 38  1  0
 20 39  1  0
 20 40  1  0
 21 41  1  0
 21 42  1  0
M  CHG  1   7  -1
M  END
>  <UniqueID>  (20) 
19

>  <SMILES>  (20) 
CC(C)CC(=O)[N-]c1cc2c3c(c1)CCC(=O)N3CCC2

>  <Energy>  (20) 
41.729121767515394

>  <Genealogy>  (20) 
CC(C)CC(=O)[N-]c1cc2c3c(c1)CCC(=O)N3CCC2 (protonated)
CC(C)CC(=O)[N-]c1cc2c3c(c1)CCC(=O)N3CCC2 (3D coordinates assigned)
CC(C)CC(=O)[N-]c1cc2c3c(c1)CCC(=O)N3CCC2 (nonaromatic ring conformer: 41.729121767515394 kcal/mol)

>  <smiles>  (20) 
CC(C)CC(=O)Nc1cc2c3c(c1)CCC(=O)N3CCC2

>  <score_type>  (20) 
oracle

>  <origin>  (20) 
adg

>  <m_score__min__energy>  (20) 
-9.3399999999999999

>  <m_primary>  (20) 
energy

$$$$
20:0
     RDKit          3D

 54 57  0  0  0  0  0  0  0  0999 V2000
   61.9640   30.4300   50.0490 C   0  0  0  0  0  0  0  0  0  0  0  0
   62.3940   30.4830   51.5140 C   0  0  0  0  0  0  0  0  0  0  0  0
   63.8220   30.8610   51.6290 N   0  0  0  0  0  0  0  0  0  0  0  0
   63.9910   31.8440   52.7160 C   0  0  0  0  0  0  0  0  0  0  0  0
   64.3240   31.4140   50.3480 C   0  0  0  0  0  0  0  0  0  0  0  0
   65.0990   32.7280   50.5620 C   0  0  0  0  0  0  0  0  0  0  0  0
   64.4210   33.8280   49.9530 O   0  0  0  0  0  0  0  0  0  0  0  0
   63.3120   33.7240   49.0940 C   0  0  0  0  0  0  0  0  0  0  0  0
   63.4480   33.6530   47.6960 C   0  0  0  0  0  0  0  0  0  0  0  0
   62.3230   33.5690   46.8770 C   0  0  0  0  0  0  0  0  0  0  0  0
   61.0310   33.5550   47.4240 C   0  0  0  0  0  0  0  0  0  0  0  0
   59.8760   33.5180   46.4960 C   0  0  0  0  0  0  0  0  0  0  0  0
   59.2180   34.6970   46.1230 C   0  0  0  0  0  0  0  0  0  0  0  0
   58.1700   34.6520   45.2610 N   0  0  0  0  0  0  0  0  0  0  0  0
   57.7290   33.4820   44.7280 C   0  0  0  0  0  0  0  0  0  0  0  0
   58.3650   32.2710   45.0490 C   0  0  0  0  0  0  0  0  0  0  0  0
   57.8970   30.9890   44.4650 C   0  0  0  0  0  0  0  0  0  0  0  0
   56.8600   30.9700   43.5180 C   0  0  0  0  0  0  0  0  0  0  0  0
   56.4300   29.7530   42.9850 C   0  0  0  0  0  0  0  0  0  0  0  0
   57.0140   28.5900   43.3790 N   0  0  0  0  0  0  0  0  0  0  0  0
   58.0220   28.5760   44.2910 C   0  0  0  0  0  0  0  0  0  0  0  0
   58.4790   29.7710   44.8510 C   0  0  0  0  0  0  0  0  0  0  0  0
   59.4500   32.3030   45.9400 C   0  0  0  0  0  0  0  0  0  0  0  0
   60.8770   33.5950   48.8330 C   0  0  0  0  0  0  0  0  0  0  0  0
   59.6170   33.5150   49.4590 C   0  0  0  0  0  0  0  0  0  0  0  0
   59.5170   33.5620   50.8500 C   0  0  0  0  0  0  0  0  0  0  0  0
   60.6760   33.6750   51.6170 C   0  0  0  0  0  0  0  0  0  0  0  0
   61.8910   33.7290   51.0130 N   0  0  0  0  0  0  0  0  0  0  0  0
   62.0270   33.6880   49.6590 C   0  0  0  0  0  0  0  0  0  0  0  0
   60.8738   30.2956   49.9915 H   0  0  0  0  0  0  0  0  0  0  0  0
   62.2444   31.3695   49.5503 H   0  0  0  0  0  0  0  0  0  0  0  0
   62.4642   29.5867   49.5503 H   0  0  0  0  0  0  0  0  0  0  0  0
   61.7802   31.2266   52.0435 H   0  0  0  0  0  0  0  0  0  0  0  0
   62.2558   29.4864   51.9587 H   0  0  0  0  0  0  0  0  0  0  0  0
   63.9035   31.3352   53.6873 H   0  0  0  0  0  0  0  0  0  0  0  0
   64.9829   32.3127   52.6356 H   0  0  0  0  0  0  0  0  0  0  0  0
   63.2126   32.6170   52.6356 H   0  0  0  0  0  0  0  0  0  0  0  0
   64.9930   30.6774   49.8791 H   0  0  0  0  0  0  0  0  0  0  0  0
   63.4589   31.6262   49.7026 H   0  0  0  0  0  0  0  0  0  0  0  0
   65.1945   32.9175   51.6413 H   0  0  0  0  0  0  0  0  0  0  0  0
   66.0916   32.6285   50.0985 H   0  0  0  0  0  0  0  0  0  0  0  0
   64.4511   33.6638   47.2447 H   0  0  0  0  0  0  0  0  0  0  0  0
   62.4501   33.5129   45.7858 H   0  0  0  0  0  0  0  0  0  0  0  0
   59.5516   35.6629   46.5300 H   0  0  0  0  0  0  0  0  0  0  0  0
   56.8695   33.4832   44.0416 H   0  0  0  0  0  0  0  0  0  0  0  0
   56.3882   31.9105   43.1973 H   0  0  0  0  0  0  0  0  0  0  0  0
   55.6168   29.7352   42.2445 H   0  0  0  0  0  0  0  0  0  0  0  0
   56.6810   27.6870   42.9710 H   0  0  0  0  0  0  0  0  0  0  0  0
   58.4790   27.6207   44.5887 H   0  0  0  0  0  0  0  0  0  0  0  0
   59.2920   29.7580   45.5918 H   0  0  0  0  0  0  0  0  0  0  0  0
   59.9688   31.3695   46.2034 H   0  0  0  0  0  0  0  0  0  0  0  0
   58.7078   33.4150   48.8480 H   0  0  0  0  0  0  0  0  0  0  0  0
   58.5322   33.5103   51.3374 H   0  0  0  0  0  0  0  0  0  0  0  0
   60.6059   33.7205   52.7138 H   0  0  0  0  0  0  0  0  0  0  0  0
  1  2  1  0
  2  3  1  0
  3  4  1  0
  3  5  1  0
  5  6  1  0
  6  7  1  0
  7  8  1  0
  8  9  2  0
  9 10  1  0
 10 11  2  0
 11 12  1  0
 12 13  2  0
 13 14  1  0
 14 15  2  0
 15 16  1  0
 16 17  1  0
 17 18  2  0
 18 19  1  0
 19 20  2  0
 20 21  1  0
 21 22  2  0
 16 23  2  0
 11 24  1  0
 24 25  2  0
 25 26  1  0
 26 27  2  0
 27 28  1  0
 28 29  2  0
 29  8  1  0
 23 12  1  0
 29 24  1  0
 22 17  1  0
  1 30  1  0
  1 31  1  0
  1 32  1  0
  2 33  1  0
  2 34  1  0
  4 35  1  0
  4 36  1  0
  4 37  1  0
  5 38  1  0
  5 39  1  0
  6 40  1  0
  6 41  1  0
  9 42  1  0
 10 43  1  0
 13 44  1  0
 15 45  1  0
 18 46  1  0
 19 47  1  0
 20 48  1  0
 21 49  1  0
 22 50  1  0
 23 51  1  0
 25 52  1  0
 26 53  1  0
 27 54  1  0
M  CHG  1  20   1
M  END
>  <UniqueID>  (21) 
20

>  <SMILES>  (21) 
CCN(C)CCOc1ccc(-c2cncc(-c3cc[nH+]cc3)c2)c2cccnc12

>  <Energy>  (21) 
76.69871635955633

>  <Genealogy>  (21) 
CCN(C)CCOc1ccc(-c2cncc(-c3cc[nH+]cc3)c2)c2cccnc12 (protonated)
CCN(C)CCOc1ccc(-c2cncc(-c3cc[nH+]cc3)c2)c2cccnc12 (3D coordinates assigned)
CCN(C)CCOc1ccc(-c2cncc(-c3cc[nH+]cc3)c2)c2cccnc12 (optimized conformer: 76.69871635955633 kcal/mol)

>  <smiles>  (21) 
CCN(C)CCOc1ccc(-c2cncc(-c3ccncc3)c2)c2cccnc12

>  <score_type>  (21) 
oracle

>  <origin>  (21) 
adg

>  <m_score__min__energy>  (21) 
-6.9800000000000004

>  <m_primary>  (21) 
energy

$$$$
21:0
     RDKit          3D

 46 48  0  0  0  0  0  0  0  0999 V2000
   63.0380   33.7980   46.7670 C   0  0  0  0  0  0  0  0  0  0  0  0
   61.5590   33.8130   46.3850 C   0  0  0  0  0  0  0  0  0  0  0  0
   60.7670   34.5910   47.3630 N   0  0  0  0  0  0  0  0  0  0  0  0
   60.7470   34.0670   48.7480 C   0  0  0  0  0  0  0  0  0  0  0  0
   59.4100   33.4390   49.1670 C   0  0  0  0  0  0  0  0  0  0  0  0
   59.4950   35.1640   46.8590 C   0  0  0  0  0  0  0  0  0  0  0  0
   58.8500   34.3880   45.6950 C   0  0  0  0  0  0  0  0  0  0  0  0
   57.4480   33.3670   46.2730 S   0  0  0  0  0  0  0  0  0  0  0  0
   58.2880   31.8050   46.0100 C   0  0  0  0  0  0  0  0  0  0  0  0
   59.5130   31.5730   46.5780 N   0  0  0  0  0  0  0  0  0  0  0  0
   60.1980   30.4030   46.3510 C   0  0  0  0  0  0  0  0  0  0  0  0
   59.6740   29.4360   45.5350 N   0  0  0  0  0  0  0  0  0  0  0  0
   58.4660   29.6790   44.9750 C   0  0  0  0  0  0  0  0  0  0  0  0
   57.7670   30.8130   45.1920 C   0  0  0  0  0  0  0  0  0  0  0  0
   56.6000   30.7420   44.5200 N   0  0  0  0  0  0  0  0  0  0  0  0
   56.6170   29.5590   43.9010 N   0  0  0  0  0  0  0  0  0  0  0  0
   57.7450   28.8980   44.1610 N   0  0  0  0  0  0  0  0  0  0  0  0
   58.1010   27.5900   43.6160 C   0  0  0  0  0  0  0  0  0  0  0  0
   57.7540   26.5010   44.5980 C   0  0  0  0  0  0  0  0  0  0  0  0
   57.4550   25.2090   44.1400 C   0  0  0  0  0  0  0  0  0  0  0  0
   57.1400   24.1950   45.0500 C   0  0  0  0  0  0  0  0  0  0  0  0
   57.1380   24.4600   46.4240 C   0  0  0  0  0  0  0  0  0  0  0  0
   57.4470   25.7370   46.8870 C   0  0  0  0  0  0  0  0  0  0  0  0
   57.7560   26.7560   45.9800 C   0  0  0  0  0  0  0  0  0  0  0  0
   63.1337   33.7970   47.8628 H   0  0  0  0  0  0  0  0  0  0  0  0
   63.5136   32.8950   46.3566 H   0  0  0  0  0  0  0  0  0  0  0  0
   63.5318   34.6912   46.3566 H   0  0  0  0  0  0  0  0  0  0  0  0
   61.4491   34.2682   45.3896 H   0  0  0  0  0  0  0  0  0  0  0  0
   61.1882   32.7774   46.3781 H   0  0  0  0  0  0  0  0  0  0  0  0
   61.5307   33.3004   48.8376 H   0  0  0  0  0  0  0  0  0  0  0  0
   60.9127   34.9277   49.4127 H   0  0  0  0  0  0  0  0  0  0  0  0
   59.3469   33.4094   50.2648 H   0  0  0  0  0  0  0  0  0  0  0  0
   58.5808   34.0418   48.7682 H   0  0  0  0  0  0  0  0  0  0  0  0
   59.3445   32.4159   48.7682 H   0  0  0  0  0  0  0  0  0  0  0  0
   58.7774   35.1886   47.6924 H   0  0  0  0  0  0  0  0  0  0  0  0
   59.7405   36.1617   46.4660 H   0  0  0  0  0  0  0  0  0  0  0  0
   58.4856   35.1051   44.9447 H   0  0  0  0  0  0  0  0  0  0  0  0
   59.6088   33.7211   45.2598 H   0  0  0  0  0  0  0  0  0  0  0  0
   61.1756   30.2421   46.8290 H   0  0  0  0  0  0  0  0  0  0  0  0
   57.5474   27.4242   42.6800 H   0  0  0  0  0  0  0  0  0  0  0  0
   59.1837   27.5658   43.4234 H   0  0  0  0  0  0  0  0  0  0  0  0
   57.4684   24.9929   43.0615 H   0  0  0  0  0  0  0  0  0  0  0  0
   56.8933   23.1871   44.6850 H   0  0  0  0  0  0  0  0  0  0  0  0
   56.8925   23.6602   47.1382 H   0  0  0  0  0  0  0  0  0  0  0  0
   57.4480   25.9443   47.9673 H   0  0  0  0  0  0  0  0  0  0  0  0
   58.0018   27.7622   46.3504 H   0  0  0  0  0  0  0  0  0  0  0  0
  1  2  1  0
  2  3  1  0
  3  4  1  0
  4  5  1  0
  3  6  1  0
  6  7  1  0
  7  8  1  0
  8  9  1  0
  9 10  2  0
 10 11  1  0
 11 12  2  0
 12 13  1  0
 13 14  2  0
 14 15  1  0
 15 16  2  0
 16 17  1  0
 17 18  1  0
 18 19  1  0
 19 20  2  0
 20 21  1  0
 21 22  2  0
 22 23  1  0
 23 24  2  0
 14  9  1  0
 24 19  1  0
 17 13  1  0
  1 25  1  0
  1 26  1  0
  1 27  1  0
  2 28  1  0
  2 29  1  0
  4 30  1  0
  4 31  1  0
  5 32  1  0
  5 33  1  0
  5 34  1  0
  6 35  1  0
  6 36  1  0
  7 37  1  0
  7 38  1  0
 11 39  1  0
 18 40  1  0
 18 41  1  0
 20 42  1  0
 21 43  1  0
 22 44  1  0
 23 45  1  0
 24 46  1  0
M  END
>  <UniqueID>  (22) 
21

>  <SMILES>  (22) 
CCN(CC)CCSc1ncnc2c1nnn2Cc1ccccc1

>  <Energy>  (22) 
99.68388685799616

>  <Genealogy>  (22) 
CCN(CC)CCSc1ncnc2c1nnn2Cc1ccccc1 (3D coordinates assigned)
CCN(CC)CCSc1ncnc2c1nnn2Cc1ccccc1 (optimized conformer: 99.68388685799616 kcal/mol)

>  <smiles>  (22) 
CCN(CC)CCSc1ncnc2c1nnn2Cc1ccccc1

>  <score_type>  (22) 
oracle

>  <origin>  (22) 
adg

>  <m_score__min__energy>  (22) 
-8.1300000000000008

>  <m_primary>  (22) 
energy

$$$$
22:0
     RDKit          3D

 54 57  0  0  0  0  0  0  0  0999 V2000
   58.0520   32.3210   42.7270 C   0  0  0  0  0  0  0  0  0  0  0  0
   58.1420   31.9510   44.2190 C   0  0  0  0  0  0  0  0  0  0  0  0
   58.1180   33.1800   45.1380 C   0  0  0  0  0  0  0  0  0  0  0  0
   57.1120   30.9220   44.6490 C   0  0  0  0  0  0  0  0  0  0  0  0
   55.8900   31.2160   44.5240 O   0  0  0  0  0  0  0  0  0  0  0  0
   57.4550   29.6420   45.3100 C   0  0  0  0  0  0  0  0  0  0  0  0
   56.8920   28.4130   44.9850 C   0  0  0  0  0  0  0  0  0  0  0  0
   57.4100   27.4320   45.7610 N   0  0  0  0  0  0  0  0  0  0  0  0
   57.0280   26.0480   45.6940 C   0  0  0  0  0  0  0  0  0  0  0  0
   57.8330   25.1040   45.0340 C   0  0  0  0  0  0  0  0  0  0  0  0
   57.4470   23.7630   45.0200 C   0  0  0  0  0  0  0  0  0  0  0  0
   56.2790   23.3690   45.6740 C   0  0  0  0  0  0  0  0  0  0  0  0
   55.5160   24.3290   46.3440 C   0  0  0  0  0  0  0  0  0  0  0  0
   55.9060   25.6300   46.3430 N   0  0  0  0  0  0  0  0  0  0  0  0
   58.3350   28.0220   46.5510 C   0  0  0  0  0  0  0  0  0  0  0  0
   59.2200   27.4140   47.4470 C   0  0  0  0  0  0  0  0  0  0  0  0
   60.1560   28.2220   48.1130 C   0  0  0  0  0  0  0  0  0  0  0  0
   60.2300   29.6110   47.8500 C   0  0  0  0  0  0  0  0  0  0  0  0
   61.2700   30.4750   48.5340 C   0  0  0  0  0  0  0  0  0  0  0  0
   61.7780   31.5790   47.6890 N   0  0  0  0  0  0  0  0  0  0  0  0
   63.2540   31.5880   47.5470 C   0  0  0  0  0  0  0  0  0  0  0  0
   63.7270   32.8600   46.8370 C   0  0  0  0  0  0  0  0  0  0  0  0
   63.3530   34.1210   47.6430 C   0  0  0  0  0  0  0  0  0  0  0  0
   62.1470   33.9000   48.5740 C   0  0  0  0  0  0  0  0  0  0  0  0
   61.1570   32.9000   47.9620 C   0  0  0  0  0  0  0  0  0  0  0  0
   59.3240   30.1940   46.9370 C   0  0  0  0  0  0  0  0  0  0  0  0
   58.3890   29.3750   46.3030 C   0  0  0  0  0  0  0  0  0  0  0  0
   57.7931   33.3855   42.6282 H   0  0  0  0  0  0  0  0  0  0  0  0
   59.0220   32.1332   42.2435 H   0  0  0  0  0  0  0  0  0  0  0  0
   57.2766   31.7086   42.2435 H   0  0  0  0  0  0  0  0  0  0  0  0
   59.1273   31.4754   44.3328 H   0  0  0  0  0  0  0  0  0  0  0  0
   58.1244   32.8527   46.1882 H   0  0  0  0  0  0  0  0  0  0  0  0
   59.0042   33.8016   44.9422 H   0  0  0  0  0  0  0  0  0  0  0  0
   57.2082   33.7665   44.9422 H   0  0  0  0  0  0  0  0  0  0  0  0
   56.1313   28.2591   44.2055 H   0  0  0  0  0  0  0  0  0  0  0  0
   58.7598   25.4195   44.5325 H   0  0  0  0  0  0  0  0  0  0  0  0
   58.0623   23.0179   44.4944 H   0  0  0  0  0  0  0  0  0  0  0  0
   55.9627   22.3155   45.6623 H   0  0  0  0  0  0  0  0  0  0  0  0
   54.5987   24.0307   46.8727 H   0  0  0  0  0  0  0  0  0  0  0  0
   59.1839   26.3292   47.6258 H   0  0  0  0  0  0  0  0  0  0  0  0
   60.8393   27.7704   48.8473 H   0  0  0  0  0  0  0  0  0  0  0  0
   60.8196   30.9095   49.4386 H   0  0  0  0  0  0  0  0  0  0  0  0
   62.1275   29.8248   48.7618 H   0  0  0  0  0  0  0  0  0  0  0  0
   63.7122   31.5416   48.5459 H   0  0  0  0  0  0  0  0  0  0  0  0
   63.5545   30.7174   46.9456 H   0  0  0  0  0  0  0  0  0  0  0  0
   64.8200   32.8202   46.7199 H   0  0  0  0  0  0  0  0  0  0  0  0
   63.2334   32.9150   45.8555 H   0  0  0  0  0  0  0  0  0  0  0  0
   64.2186   34.4168   48.2539 H   0  0  0  0  0  0  0  0  0  0  0  0
   63.0748   34.9037   46.9219 H   0  0  0  0  0  0  0  0  0  0  0  0
   62.5037   33.5090   49.5383 H   0  0  0  0  0  0  0  0  0  0  0  0
   61.6320   34.8617   48.7153 H   0  0  0  0  0  0  0  0  0  0  0  0
   60.3205   32.7585   48.6621 H   0  0  0  0  0  0  0  0  0  0  0  0
   60.8154   33.3134   47.0016 H   0  0  0  0  0  0  0  0  0  0  0  0
   59.3548   31.2738   46.7295 H   0  0  0  0  0  0  0  0  0  0  0  0
  1  2  1  0
  2  3  1  0
  2  4  1  0
  4  5  2  0
  4  6  1  0
  6  7  2  0
  7  8  1  0
  8  9  1  0
  9 10  2  0
 10 11  1  0
 11 12  2  0
 12 13  1  0
 13 14  2  0
  8 15  1  0
 15 16  2  0
 16 17  1  0
 17 18  2  0
 18 19  1  0
 19 20  1  0
 20 21  1  0
 21 22  1  0
 22 23  1  0
 23 24  1  0
 24 25  1  0
 18 26  1  0
 26 27  2  0
 27  6  1  0
 14  9  1  0
 27 15  1  0
 25 20  1  0
  1 28  1  0
  1 29  1  0
  1 30  1  0
  2 31  1  0
  3 32  1  0
  3 33  1  0
  3 34  1  0
  7 35  1  0
 10 36  1  0
 11 37  1  0
 12 38  1  0
 13 39  1  0
 16 40  1  0
 17 41  1  0
 19 42  1  0
 19 43  1  0
 21 44  1  0
 21 45  1  0
 22 46  1  0
 22 47  1  0
 23 48  1  0
 23 49  1  0
 24 50  1  0
 24 51  1  0
 25 52  1  0
 25 53  1  0
 26 54  1  0
M  END
>  <UniqueID>  (23) 
22

>  <SMILES>  (23) 
CC(C)C(=O)c1cn(-c2ccccn2)c2ccc(CN3CCCCC3)cc12

>  <Energy>  (23) 
110.38929656250332

>  <Genealogy>  (23) 
CC(C)C(=O)c1cn(-c2ccccn2)c2ccc(CN3CCCCC3)cc12 (3D coordinates assigned)
CC(C)C(=O)c1cn(-c2ccccn2)c2ccc(CN3CCCCC3)cc12 (nonaromatic ring conformer: 110.38929656250332 kcal/mol)

>  <smiles>  (23) 
CC(C)C(=O)c1cn(-c2ccccn2)c2ccc(CN3CCCCC3)cc12

>  <score_type>  (23) 
oracle

>  <origin>  (23) 
adg

>  <m_score__min__energy>  (23) 
-9.1199999999999992

>  <m_primary>  (23) 
energy

$$$$
23:0
     RDKit          3D

 40 42  0  0  0  0  0  0  0  0999 V2000
   57.6180   33.5160   46.4600 O   0  0  0  0  0  0  0  0  0  0  0  0
   58.5450   33.0360   45.7530 C   0  0  0  0  0  0  0  0  0  0  0  0
   59.7100   33.9250   45.4240 C   0  0  0  0  0  0  0  0  0  0  0  0
   60.2390   34.8270   46.9200 S   0  0  0  0  0  0  0  0  0  0  0  0
   61.7050   33.8240   47.1930 C   0  0  0  0  0  0  0  0  0  0  0  0
   62.7630   33.8280   46.3610 N   0  0  0  0  0  0  0  0  0  0  0  0
   63.5940   32.9360   46.8800 N   0  0  0  0  0  0  0  0  0  0  0  0
   63.0820   32.3890   47.9690 N   0  0  0  0  0  0  0  0  0  0  0  0
   61.8930   32.9240   48.1870 N   0  0  0  0  0  0  0  0  0  0  0  0
   61.0140   32.5230   49.2930 C   0  0  0  0  0  0  0  0  0  0  0  0
   59.9730   31.4590   48.8470 C   0  0  0  0  0  0  0  0  0  0  0  0
   58.5210   31.8730   49.1330 C   0  0  0  0  0  0  0  0  0  0  0  0
   58.3410   32.3220   50.5900 C   0  0  0  0  0  0  0  0  0  0  0  0
   59.4010   33.3440   51.0640 C   0  0  0  0  0  0  0  0  0  0  0  0
   60.3870   33.7560   49.9640 C   0  0  0  0  0  0  0  0  0  0  0  0
   58.4330   31.6360   45.2540 C   0  0  0  0  0  0  0  0  0  0  0  0
   57.4480   31.2600   44.3190 C   0  0  0  0  0  0  0  0  0  0  0  0
   57.3570   29.9400   43.8710 C   0  0  0  0  0  0  0  0  0  0  0  0
   58.2470   28.9740   44.3460 C   0  0  0  0  0  0  0  0  0  0  0  0
   58.1300   27.3180   43.7820 Cl  0  0  0  0  0  0  0  0  0  0  0  0
   59.2280   29.3300   45.2740 C   0  0  0  0  0  0  0  0  0  0  0  0
   59.3220   30.6500   45.7270 C   0  0  0  0  0  0  0  0  0  0  0  0
   60.5443   33.3117   45.0529 H   0  0  0  0  0  0  0  0  0  0  0  0
   59.4094   34.6474   44.6508 H   0  0  0  0  0  0  0  0  0  0  0  0
   64.5250   32.6910   46.4770 H   0  0  0  0  0  0  0  0  0  0  0  0
   61.6241   32.0260   50.0616 H   0  0  0  0  0  0  0  0  0  0  0  0
   60.0828   31.2951   47.7648 H   0  0  0  0  0  0  0  0  0  0  0  0
   60.1718   30.5454   49.4265 H   0  0  0  0  0  0  0  0  0  0  0  0
   58.2484   32.7045   48.4664 H   0  0  0  0  0  0  0  0  0  0  0  0
   57.8726   31.0019   48.9575 H   0  0  0  0  0  0  0  0  0  0  0  0
   57.3467   32.7816   50.6909 H   0  0  0  0  0  0  0  0  0  0  0  0
   58.4565   31.4262   51.2178 H   0  0  0  0  0  0  0  0  0  0  0  0
   58.8809   34.2451   51.4210 H   0  0  0  0  0  0  0  0  0  0  0  0
   59.9865   32.8585   51.8586 H   0  0  0  0  0  0  0  0  0  0  0  0
   59.8524   34.3454   49.2046 H   0  0  0  0  0  0  0  0  0  0  0  0
   61.1909   34.3521   50.4205 H   0  0  0  0  0  0  0  0  0  0  0  0
   56.7434   32.0138   43.9379 H   0  0  0  0  0  0  0  0  0  0  0  0
   56.5821   29.6605   43.1420 H   0  0  0  0  0  0  0  0  0  0  0  0
   59.9289   28.5701   45.6498 H   0  0  0  0  0  0  0  0  0  0  0  0
   60.0969   30.9210   46.4592 H   0  0  0  0  0  0  0  0  0  0  0  0
  1  2  2  0
  2  3  1  0
  3  4  1  0
  4  5  1  0
  5  6  2  0
  6  7  1  0
  7  8  2  0
  8  9  1  0
  9 10  1  0
 10 11  1  0
 11 12  1  0
 12 13  1  0
 13 14  1  0
 14 15  1  0
  2 16  1  0
 16 17  2  0
 17 18  1  0
 18 19  2  0
 19 20  1  0
 19 21  1  0
 21 22  2  0
  9  5  1  0
 15 10  1  0
 22 16  1  0
  3 23  1  0
  3 24  1  0
  7 25  1  0
 10 26  1  0
 11 27  1  0
 11 28  1  0
 12 29  1  0
 12 30  1  0
 13 31  1  0
 13 32  1  0
 14 33  1  0
 14 34  1  0
 15 35  1  0
 15 36  1  0
 17 37  1  0
 18 38  1  0
 21 39  1  0
 22 40  1  0
M  CHG  1   7   1
M  END
>  <UniqueID>  (24) 
23

>  <SMILES>  (24) 
O=C(CSc1n[nH+]nn1C1CCCCC1)c1ccc(Cl)cc1

>  <Energy>  (24) 
81.42660143141202

>  <Genealogy>  (24) 
O=C(CSc1n[nH+]nn1C1CCCCC1)c1ccc(Cl)cc1 (protonated)
O=C(CSc1n[nH+]nn1C1CCCCC1)c1ccc(Cl)cc1 (3D coordinates assigned)
O=C(CSc1n[nH+]nn1C1CCCCC1)c1ccc(Cl)cc1 (nonaromatic ring conformer: 81.42660143141202 kcal/mol)

>  <smiles>  (24) 
O=C(CSc1nnnn1C1CCCCC1)c1ccc(Cl)cc1

>  <score_type>  (24) 
oracle

>  <origin>  (24) 
adg

>  <m_score__min__energy>  (24) 
-7.4000000000000004

>  <m_primary>  (24) 
energy

$$$$
24:0
     RDKit          3D

 30 33  0  0  0  0  0  0  0  0999 V2000
   59.8284   26.3565   47.4394 H   0  0  0  0  0  0  0  0  0  0  0  0
   58.8680   26.5050   46.9240 C   0  0  0  0  0  0  0  0  0  0  0  0
   58.7210   27.3810   45.8960 N   0  0  0  0  0  0  0  0  0  0  0  0
   57.4580   27.3940   45.4210 C   0  0  0  0  0  0  0  0  0  0  0  0
   57.1020   28.1600   44.4320 N   0  0  0  0  0  0  0  0  0  0  0  0
   56.3500   29.3820   44.4960 C   0  0  0  0  0  0  0  0  0  0  0  0
   55.1490   29.3980   44.8770 O   0  0  0  0  0  0  0  0  0  0  0  0
   56.9930   30.6550   44.0470 C   0  0  0  0  0  0  0  0  0  0  0  0
   57.1938   30.6011   42.9668 H   0  0  0  0  0  0  0  0  0  0  0  0
   56.3167   31.4966   44.2576 H   0  0  0  0  0  0  0  0  0  0  0  0
   58.2480   30.8560   44.7630 N   0  0  0  0  0  0  0  0  0  0  0  0
   58.6380   31.9250   45.4610 C   0  0  0  0  0  0  0  0  0  0  0  0
   57.9240   33.3650   45.9640 S   0  0  0  0  0  0  0  0  0  0  0  0
   59.1640   33.5930   47.1320 C   0  0  0  0  0  0  0  0  0  0  0  0
   59.2820   34.6350   48.0490 C   0  0  0  0  0  0  0  0  0  0  0  0
   58.5714   35.4746   48.0418 H   0  0  0  0  0  0  0  0  0  0  0  0
   60.3300   34.5880   48.9830 C   0  0  0  0  0  0  0  0  0  0  0  0
   60.4504   35.4059   49.7086 H   0  0  0  0  0  0  0  0  0  0  0  0
   61.2300   33.5010   48.9990 C   0  0  0  0  0  0  0  0  0  0  0  0
   62.0424   33.4764   49.7403 H   0  0  0  0  0  0  0  0  0  0  0  0
   61.0970   32.4500   48.0760 C   0  0  0  0  0  0  0  0  0  0  0  0
   61.7873   31.5937   48.0922 H   0  0  0  0  0  0  0  0  0  0  0  0
   60.0680   32.5210   47.1400 C   0  0  0  0  0  0  0  0  0  0  0  0
   59.7220   31.6020   46.1650 C   0  0  0  0  0  0  0  0  0  0  0  0
   60.0490   30.3170   45.9390 N   0  0  0  0  0  0  0  0  0  0  0  0
   59.1320   29.9010   45.0590 N   0  0  0  0  0  0  0  0  0  0  0  0
   59.0750   28.9190   44.7080 H   0  0  0  0  0  0  0  0  0  0  0  0
   56.4730   26.3120   46.2630 S   0  0  0  0  0  0  0  0  0  0  0  0
   57.7160   25.8090   47.2780 C   0  0  0  0  0  0  0  0  0  0  0  0
   57.6331   25.0613   48.0806 H   0  0  0  0  0  0  0  0  0  0  0  0
  1  2  1  0
  2  3  1  0
  3  4  1  0
  4  5  2  0
  5  6  1  0
  6  7  2  0
  6  8  1  0
  8  9  1  0
  8 10  1  0
  8 11  1  0
 11 12  1  0
 12 13  1  0
 13 14  1  0
 14 15  2  0
 15 16  1  0
 15 17  1  0
 17 18  1  0
 17 19  2  0
 19 20  1  0
 19 21  1  0
 21 22  1  0
 21 23  2  0
 23 24  1  0
 24 25  1  0
 25 26  2  0
 26 27  1  0
  4 28  1  0
 28 29  1  0
 29 30  1  0
 29  2  2  0
 26 11  1  0
 24 12  2  0
 23 14  1  0
M  CHG  2   3  -1  26   1
M  END
>  <UniqueID>  (25) 
24

>  <SMILES>  (25) 
O=C(Cn1[nH+]nc2c3ccccc3sc21)/N=c1/[n-]ccs1

>  <Energy>  (25) 
159.54716101489643

>  <Genealogy>  (25) 
O=C(Cn1[nH+]nc2c3ccccc3sc21)N=c1[n-]ccs1 (protonated)
O=C(Cn1[nH+]nc2c3ccccc3sc21)/N=c1/[n-]ccs1 (cis-trans isomerization)
O=C(Cn1[nH+]nc2c3ccccc3sc21)/N=c1/[n-]ccs1 (3D coordinates assigned)
O=C(Cn1[nH+]nc2c3ccccc3sc21)/N=c1/[n-]ccs1 (optimized conformer: 159.54716101489643 kcal/mol)

>  <smiles>  (25) 
O=C(Cn1nnc2c3ccccc3sc21)N=c1[nH]ccs1

>  <score_type>  (25) 
oracle

>  <origin>  (25) 
adg

>  <m_score__min__energy>  (25) 
-9.5999999999999996

>  <m_primary>  (25) 
energy

$$$$
25:0
     RDKit          3D

 48 50  0  0  0  0  0  0  0  0999 V2000
   56.1440   25.5010   45.6090 C   0  0  0  0  0  0  0  0  0  0  0  0
   56.0280   26.9200   45.6180 O   0  0  0  0  0  0  0  0  0  0  0  0
   57.0280   27.8070   46.0500 C   0  0  0  0  0  0  0  0  0  0  0  0
   58.0750   27.3680   46.8820 C   0  0  0  0  0  0  0  0  0  0  0  0
   59.0710   28.2530   47.3150 C   0  0  0  0  0  0  0  0  0  0  0  0
   59.0650   29.5910   46.8760 C   0  0  0  0  0  0  0  0  0  0  0  0
   58.0040   30.0370   46.0700 C   0  0  0  0  0  0  0  0  0  0  0  0
   56.9900   29.1660   45.6490 C   0  0  0  0  0  0  0  0  0  0  0  0
   55.9810   29.7230   44.8410 O   0  0  0  0  0  0  0  0  0  0  0  0
   56.0500   29.9490   43.4370 C   0  0  0  0  0  0  0  0  0  0  0  0
   60.1550   30.5050   47.3340 C   0  0  0  0  0  0  0  0  0  0  0  0
   60.4410   31.6760   46.6880 N   0  0  0  0  0  0  0  0  0  0  0  0
   61.4120   32.5020   47.1080 N   0  0  0  0  0  0  0  0  0  0  0  0
   61.6270   33.7650   46.3810 C   0  0  0  0  0  0  0  0  0  0  0  0
   60.3860   34.6600   46.4710 C   0  0  0  0  0  0  0  0  0  0  0  0
   59.1770   33.9330   46.0230 N   0  0  0  0  0  0  0  0  0  0  0  0
   58.1860   33.8350   47.1080 C   0  0  0  0  0  0  0  0  0  0  0  0
   58.5720   34.6090   44.8640 C   0  0  0  0  0  0  0  0  0  0  0  0
   62.1570   32.1910   48.2160 C   0  0  0  0  0  0  0  0  0  0  0  0
   63.0530   32.9730   48.6370 O   0  0  0  0  0  0  0  0  0  0  0  0
   61.9290   30.9960   48.8900 C   0  0  0  0  0  0  0  0  0  0  0  0
   60.9380   30.1290   48.4380 C   0  0  0  0  0  0  0  0  0  0  0  0
   60.6560   28.8410   49.1680 C   0  0  0  0  0  0  0  0  0  0  0  0
   60.1920   27.7520   48.1930 C   0  0  0  0  0  0  0  0  0  0  0  0
   56.1744   25.1290   46.6438 H   0  0  0  0  0  0  0  0  0  0  0  0
   55.2784   25.0656   45.0881 H   0  0  0  0  0  0  0  0  0  0  0  0
   57.0688   25.2120   45.0881 H   0  0  0  0  0  0  0  0  0  0  0  0
   58.1118   26.3147   47.1968 H   0  0  0  0  0  0  0  0  0  0  0  0
   57.9685   31.0926   45.7628 H   0  0  0  0  0  0  0  0  0  0  0  0
   56.3664   30.9853   43.2475 H   0  0  0  0  0  0  0  0  0  0  0  0
   56.7775   29.2559   42.9894 H   0  0  0  0  0  0  0  0  0  0  0  0
   55.0595   29.7804   42.9894 H   0  0  0  0  0  0  0  0  0  0  0  0
   59.9100   31.9320   45.8280 H   0  0  0  0  0  0  0  0  0  0  0  0
   62.4858   34.2932   46.8209 H   0  0  0  0  0  0  0  0  0  0  0  0
   61.8214   33.5353   45.3230 H   0  0  0  0  0  0  0  0  0  0  0  0
   60.2478   34.9803   47.5142 H   0  0  0  0  0  0  0  0  0  0  0  0
   60.5338   35.5325   45.8177 H   0  0  0  0  0  0  0  0  0  0  0  0
   58.6996   33.8858   48.0794 H   0  0  0  0  0  0  0  0  0  0  0  0
   57.4707   34.6668   47.0275 H   0  0  0  0  0  0  0  0  0  0  0  0
   57.6475   32.8792   47.0275 H   0  0  0  0  0  0  0  0  0  0  0  0
   57.8767   35.3859   45.2145 H   0  0  0  0  0  0  0  0  0  0  0  0
   59.3628   35.0721   44.2556 H   0  0  0  0  0  0  0  0  0  0  0  0
   58.0243   33.8742   44.2556 H   0  0  0  0  0  0  0  0  0  0  0  0
   62.5284   30.7373   49.7753 H   0  0  0  0  0  0  0  0  0  0  0  0
   61.5732   28.5050   49.6738 H   0  0  0  0  0  0  0  0  0  0  0  0
   59.8569   29.0200   49.9025 H   0  0  0  0  0  0  0  0  0  0  0  0
   61.0393   27.4526   47.5586 H   0  0  0  0  0  0  0  0  0  0  0  0
   59.8241   26.8943   48.7753 H   0  0  0  0  0  0  0  0  0  0  0  0
  1  2  1  0
  2  3  1  0
  3  4  2  0
  4  5  1  0
  5  6  2  0
  6  7  1  0
  7  8  2  0
  8  9  1  0
  9 10  1  0
  6 11  1  0
 11 12  2  0
 12 13  1  0
 13 14  1  0
 14 15  1  0
 15 16  1  0
 16 17  1  0
 16 18  1  0
 13 19  1  0
 19 20  2  0
 19 21  1  0
 21 22  2  0
 22 23  1  0
 23 24  1  0
  8  3  1  0
 22 11  1  0
 24  5  1  0
  1 25  1  0
  1 26  1  0
  1 27  1  0
  4 28  1  0
  7 29  1  0
 10 30  1  0
 10 31  1  0
 10 32  1  0
 12 33  1  0
 14 34  1  0
 14 35  1  0
 15 36  1  0
 15 37  1  0
 17 38  1  0
 17 39  1  0
 17 40  1  0
 18 41  1  0
 18 42  1  0
 18 43  1  0
 21 44  1  0
 23 45  1  0
 23 46  1  0
 24 47  1  0
 24 48  1  0
M  CHG  1  12   1
M  END
>  <UniqueID>  (26) 
25

>  <SMILES>  (26) 
COc1cc2c(cc1OC)-c1[nH+]n(CCN(C)C)c(=O)cc1CC2

>  <Energy>  (26) 
56.75127526208385

>  <Genealogy>  (26) 
COc1cc2c(cc1OC)-c1[nH+]n(CCN(C)C)c(=O)cc1CC2 (protonated)
COc1cc2c(cc1OC)-c1[nH+]n(CCN(C)C)c(=O)cc1CC2 (3D coordinates assigned)
COc1cc2c(cc1OC)-c1[nH+]n(CCN(C)C)c(=O)cc1CC2 (nonaromatic ring conformer: 56.75127526208385 kcal/mol)

>  <smiles>  (26) 
COc1cc2c(cc1OC)-c1nn(CCN(C)C)c(=O)cc1CC2

>  <score_type>  (26) 
oracle

>  <origin>  (26) 
adg

>  <m_score__min__energy>  (26) 
-5.6299999999999999

>  <m_primary>  (26) 
energy

$$$$
26:0
     RDKit          3D

 36 38  0  0  0  0  0  0  0  0999 V2000
   55.7478   31.7202   43.7047 H   0  0  0  0  0  0  0  0  0  0  0  0
   56.6790   31.2230   44.0140 C   0  0  0  0  0  0  0  0  0  0  0  0
   56.6280   29.8060   44.4260 C   0  0  0  0  0  0  0  0  0  0  0  0
   55.5590   29.3030   44.8700 O   0  0  0  0  0  0  0  0  0  0  0  0
   57.8610   28.9590   44.3470 C   0  0  0  0  0  0  0  0  0  0  0  0
   57.7768   28.2790   43.4865 H   0  0  0  0  0  0  0  0  0  0  0  0
   58.7343   29.6177   44.2306 H   0  0  0  0  0  0  0  0  0  0  0  0
   58.0700   27.9740   45.8700 S   0  0  0  0  0  0  0  0  0  0  0  0
   59.1050   29.1860   46.6880 C   0  0  0  0  0  0  0  0  0  0  0  0
   58.8890   29.6280   47.9450 N   0  0  0  0  0  0  0  0  0  0  0  0
   59.7850   30.5290   48.3430 N   0  0  0  0  0  0  0  0  0  0  0  0
   60.7220   30.8150   47.4080 C   0  0  0  0  0  0  0  0  0  0  0  0
   61.8210   31.7840   47.6200 C   0  0  0  0  0  0  0  0  0  0  0  0
   62.6920   31.6380   48.7120 C   0  0  0  0  0  0  0  0  0  0  0  0
   62.5621   30.8011   49.4140 H   0  0  0  0  0  0  0  0  0  0  0  0
   63.7240   32.5600   48.9030 C   0  0  0  0  0  0  0  0  0  0  0  0
   64.4071   32.4496   49.7581 H   0  0  0  0  0  0  0  0  0  0  0  0
   63.8860   33.5930   48.0350 N   0  0  0  0  0  0  0  0  0  0  0  0
   63.0610   33.7620   46.9690 C   0  0  0  0  0  0  0  0  0  0  0  0
   63.2160   34.6085   46.2838 H   0  0  0  0  0  0  0  0  0  0  0  0
   62.0160   32.8630   46.7410 C   0  0  0  0  0  0  0  0  0  0  0  0
   61.3488   32.9992   45.8771 H   0  0  0  0  0  0  0  0  0  0  0  0
   60.4500   29.9200   46.0000 S   0  0  0  0  0  0  0  0  0  0  0  0
   57.8210   31.9240   44.0040 C   0  0  0  0  0  0  0  0  0  0  0  0
   58.4883   31.8285   43.1347 H   0  0  0  0  0  0  0  0  0  0  0  0
   58.2250   32.8210   45.1100 C   0  0  0  0  0  0  0  0  0  0  0  0
   57.7920   32.5160   46.4110 C   0  0  0  0  0  0  0  0  0  0  0  0
   57.1648   31.6290   46.5836 H   0  0  0  0  0  0  0  0  0  0  0  0
   58.1520   33.3310   47.4880 C   0  0  0  0  0  0  0  0  0  0  0  0
   57.7974   33.0905   48.5011 H   0  0  0  0  0  0  0  0  0  0  0  0
   58.9610   34.4500   47.2800 C   0  0  0  0  0  0  0  0  0  0  0  0
   59.2356   35.0956   48.1273 H   0  0  0  0  0  0  0  0  0  0  0  0
   59.4210   34.7490   45.9970 C   0  0  0  0  0  0  0  0  0  0  0  0
   60.0673   35.6247   45.8375 H   0  0  0  0  0  0  0  0  0  0  0  0
   59.0640   33.9400   44.9120 C   0  0  0  0  0  0  0  0  0  0  0  0
   59.5840   34.2230   43.6910 F   0  0  0  0  0  0  0  0  0  0  0  0
  1  2  1  0
  2  3  1  0
  3  4  2  0
  3  5  1  0
  5  6  1  0
  5  7  1  0
  5  8  1  0
  8  9  1  0
  9 10  2  0
 10 11  1  0
 11 12  2  0
 12 13  1  0
 13 14  2  0
 14 15  1  0
 14 16  1  0
 16 17  1  0
 16 18  2  0
 18 19  1  0
 19 20  1  0
 19 21  2  0
 21 22  1  0
 12 23  1  0
  2 24  2  0
 24 25  1  0
 24 26  1  0
 26 27  2  0
 27 28  1  0
 27 29  1  0
 29 30  1  0
 29 31  2  0
 31 32  1  0
 31 33  1  0
 33 34  1  0
 33 35  2  0
 35 36  1  0
 23  9  1  0
 35 26  1  0
 21 13  1  0
M  END
>  <UniqueID>  (27) 
26

>  <SMILES>  (27) 
O=C(/C=C/c1ccccc1F)CSc1nnc(-c2ccncc2)s1

>  <Energy>  (27) 
73.03206147280765

>  <Genealogy>  (27) 
O=C(/C=C/c1ccccc1F)CSc1nnc(-c2ccncc2)s1 (cis-trans isomerization)
O=C(/C=C/c1ccccc1F)CSc1nnc(-c2ccncc2)s1 (3D coordinates assigned)
O=C(/C=C/c1ccccc1F)CSc1nnc(-c2ccncc2)s1 (optimized conformer: 73.03206147280765 kcal/mol)

>  <smiles>  (27) 
O=C(C=Cc1ccccc1F)CSc1nnc(-c2ccncc2)s1

>  <score_type>  (27) 
oracle

>  <origin>  (27) 
adg

>  <m_score__min__energy>  (27) 
-9.2400000000000002

>  <m_primary>  (27) 
energy

$$$$
27:0
     RDKit          3D

 27 28  0  0  0  0  0  0  0  0999 V2000
   56.5190   20.7500   43.0140 N   0  0  0  0  0  0  0  0  0  0  0  0
   57.0250   21.7730   43.6120 C   0  0  0  0  0  0  0  0  0  0  0  0
   56.3680   22.9540   43.6830 N   0  0  0  0  0  0  0  0  0  0  0  0
   56.9040   24.0130   44.3060 C   0  0  0  0  0  0  0  0  0  0  0  0
   58.1650   23.9340   44.9060 C   0  0  0  0  0  0  0  0  0  0  0  0
   58.6440   25.1340   45.6080 C   0  0  0  0  0  0  0  0  0  0  0  0
   58.1680   26.4090   45.0530 C   0  0  0  0  0  0  0  0  0  0  0  0
   57.5370   27.2710   45.9620 C   0  0  0  0  0  0  0  0  0  0  0  0
   57.0400   28.4960   45.5920 C   0  0  0  0  0  0  0  0  0  0  0  0
   57.1720   28.8830   44.2780 C   0  0  0  0  0  0  0  0  0  0  0  0
   56.5780   30.3470   43.8290 S   0  0  0  0  0  0  0  0  0  0  0  0
   57.7800   28.0610   43.3900 N   0  0  0  0  0  0  0  0  0  0  0  0
   58.2690   26.8460   43.7690 C   0  0  0  0  0  0  0  0  0  0  0  0
   58.8100   22.7390   44.8240 C   0  0  0  0  0  0  0  0  0  0  0  0
   59.9820   22.5660   45.3030 N   0  0  0  0  0  0  0  0  0  0  0  0
   58.2420   21.6690   44.1820 N   0  0  0  0  0  0  0  0  0  0  0  0
   56.9200   19.7980   43.2180 H   0  0  0  0  0  0  0  0  0  0  0  0
   55.4200   23.0850   43.2560 H   0  0  0  0  0  0  0  0  0  0  0  0
   56.3435   24.9587   44.3460 H   0  0  0  0  0  0  0  0  0  0  0  0
   58.3121   25.0723   46.6549 H   0  0  0  0  0  0  0  0  0  0  0  0
   59.7383   25.1394   45.4967 H   0  0  0  0  0  0  0  0  0  0  0  0
   57.4367   26.9536   47.0104 H   0  0  0  0  0  0  0  0  0  0  0  0
   56.5491   29.1512   46.3267 H   0  0  0  0  0  0  0  0  0  0  0  0
   57.8640   28.3750   42.4010 H   0  0  0  0  0  0  0  0  0  0  0  0
   58.7561   26.2049   43.0195 H   0  0  0  0  0  0  0  0  0  0  0  0
   60.7690   22.2490   44.7380 H   0  0  0  0  0  0  0  0  0  0  0  0
   58.7830   20.7520   44.1470 H   0  0  0  0  0  0  0  0  0  0  0  0
  1  2  2  3
  2  3  1  0
  3  4  1  0
  4  5  2  0
  5  6  1  0
  6  7  1  0
  7  8  1  0
  8  9  2  0
  9 10  1  0
 10 11  2  0
 10 12  1  0
 12 13  1  0
  5 14  1  0
 14 15  2  3
 14 16  1  0
 16  2  1  0
 13  7  2  0
  1 17  1  0
  3 18  1  0
  4 19  1  0
  6 20  1  0
  6 21  1  0
  8 22  1  0
  9 23  1  0
 12 24  1  0
 13 25  1  0
 15 26  1  0
 16 27  1  0
M  END
>  <smiles>  (28) 
N=c1[nH]cc(Cc2ccc(=S)[nH]c2)c(=N)[nH]1

>  <score_type>  (28) 
oracle

>  <origin>  (28) 
adg

>  <m_score__min__energy>  (28) 
-7.1900000000000004

>  <m_primary>  (28) 
energy

$$$$
28:0
     RDKit          3D

 33 35  0  0  0  0  0  0  0  0999 V2000
   57.3210   32.3460   41.1520 C   0  0  0  0  0  0  0  0  0  0  0  0
   57.1490   31.4280   42.2710 N   0  0  0  0  0  0  0  0  0  0  0  0
   57.7930   31.4920   43.4520 C   0  0  0  0  0  0  0  0  0  0  0  0
   57.4130   30.3960   44.2100 C   0  0  0  0  0  0  0  0  0  0  0  0
   57.8970   30.0370   45.5630 C   0  0  0  0  0  0  0  0  0  0  0  0
   58.4920   31.0330   46.3590 C   0  0  0  0  0  0  0  0  0  0  0  0
   59.0430   30.7150   47.6040 C   0  0  0  0  0  0  0  0  0  0  0  0
   59.8610   32.0780   48.6610 Br  0  0  0  0  0  0  0  0  0  0  0  0
   59.0130   29.3990   48.0650 C   0  0  0  0  0  0  0  0  0  0  0  0
   58.4130   28.4020   47.2960 C   0  0  0  0  0  0  0  0  0  0  0  0
   57.8260   28.7110   46.0610 C   0  0  0  0  0  0  0  0  0  0  0  0
   57.1460   27.6640   45.3570 N   0  0  0  0  0  0  0  0  0  0  0  0
   56.4060   26.6070   45.9830 C   0  0  0  0  0  0  0  0  0  0  0  0
   55.1490   26.6620   45.9880 O   0  0  0  0  0  0  0  0  0  0  0  0
   57.0950   25.4470   46.6460 C   0  0  0  0  0  0  0  0  0  0  0  0
   58.5730   25.2970   46.3130 C   0  0  0  0  0  0  0  0  0  0  0  0
   57.5570   24.3570   45.6890 C   0  0  0  0  0  0  0  0  0  0  0  0
   56.5420   29.6810   43.4030 C   0  0  0  0  0  0  0  0  0  0  0  0
   56.4070   30.3340   42.2340 N   0  0  0  0  0  0  0  0  0  0  0  0
   57.5109   33.3595   41.5351 H   0  0  0  0  0  0  0  0  0  0  0  0
   58.1737   32.0202   40.5382 H   0  0  0  0  0  0  0  0  0  0  0  0
   56.4082   32.3510   40.5382 H   0  0  0  0  0  0  0  0  0  0  0  0
   58.4981   32.2777   43.7612 H   0  0  0  0  0  0  0  0  0  0  0  0
   58.5240   32.0717   45.9984 H   0  0  0  0  0  0  0  0  0  0  0  0
   59.4632   29.1470   49.0365 H   0  0  0  0  0  0  0  0  0  0  0  0
   58.4003   27.3646   47.6616 H   0  0  0  0  0  0  0  0  0  0  0  0
   56.5067   25.4779   47.5749 H   0  0  0  0  0  0  0  0  0  0  0  0
   59.0762   26.0531   45.6924 H   0  0  0  0  0  0  0  0  0  0  0  0
   59.4932   25.1673   46.9016 H   0  0  0  0  0  0  0  0  0  0  0  0
   57.3245   24.4323   44.6165 H   0  0  0  0  0  0  0  0  0  0  0  0
   57.4369   23.2647   45.6387 H   0  0  0  0  0  0  0  0  0  0  0  0
   56.0444   28.7378   43.6728 H   0  0  0  0  0  0  0  0  0  0  0  0
   55.8330   30.0260   41.4180 H   0  0  0  0  0  0  0  0  0  0  0  0
  1  2  1  0
  2  3  1  0
  3  4  2  0
  4  5  1  0
  5  6  2  0
  6  7  1  0
  7  8  1  0
  7  9  2  0
  9 10  1  0
 10 11  2  0
 11 12  1  0
 12 13  1  0
 13 14  2  0
 13 15  1  0
 15 16  1  0
 16 17  1  0
  4 18  1  0
 18 19  2  0
 19  2  1  0
 11  5  1  0
 17 15  1  0
  1 20  1  0
  1 21  1  0
  1 22  1  0
  3 23  1  0
  6 24  1  0
  9 25  1  0
 10 26  1  0
 15 27  1  0
 16 28  1  0
 16 29  1  0
 17 30  1  0
 17 31  1  0
 18 32  1  0
 19 33  1  0
M  CHG  2  12  -1  19   1
M  END
>  <UniqueID>  (29) 
27

>  <SMILES>  (29) 
Cn1cc(-c2cc(Br)ccc2[N-]C(=O)C2CC2)c[nH+]1

>  <Energy>  (29) 
336.1131096678845

>  <Genealogy>  (29) 
Cn1cc(-c2cc(Br)ccc2[N-]C(=O)C2CC2)c[nH+]1 (protonated)
Cn1cc(-c2cc(Br)ccc2[N-]C(=O)C2CC2)c[nH+]1 (3D coordinates assigned)
Cn1cc(-c2cc(Br)ccc2[N-]C(=O)C2CC2)c[nH+]1 (nonaromatic ring conformer: 336.1131096678845 kcal/mol)

>  <smiles>  (29) 
Cn1cc(-c2cc(Br)ccc2NC(=O)C2CC2)cn1

>  <score_type>  (29) 
oracle

>  <origin>  (29) 
adg

>  <m_score__min__energy>  (29) 
-7.4900000000000002

>  <m_primary>  (29) 
energy

$$$$
29:0
     RDKit          3D

 49 51  0  0  0  0  0  0  0  0999 V2000
   60.1680   26.2050   46.0830 C   0  0  0  0  0  0  0  0  0  0  0  0
   58.7240   26.5850   45.9210 C   0  0  0  0  0  0  0  0  0  0  0  0
   57.7550   25.7280   46.4370 C   0  0  0  0  0  0  0  0  0  0  0  0
   56.4240   26.1230   46.2610 C   0  0  0  0  0  0  0  0  0  0  0  0
   55.5320   25.3680   46.7170 O   0  0  0  0  0  0  0  0  0  0  0  0
   56.1380   27.2710   45.6250 N   0  0  0  0  0  0  0  0  0  0  0  0
   57.0790   28.0950   45.1280 C   0  0  0  0  0  0  0  0  0  0  0  0
   56.8050   29.3540   44.4290 C   0  0  0  0  0  0  0  0  0  0  0  0
   57.0140   30.5440   45.2340 N   0  0  0  0  0  0  0  0  0  0  0  0
   58.0670   30.2770   46.1520 C   0  0  0  0  0  0  0  0  0  0  0  0
   58.5650   31.4830   46.8980 C   0  0  0  0  0  0  0  0  0  0  0  0
   58.6050   32.6520   46.0450 N   0  0  0  0  0  0  0  0  0  0  0  0
   58.8440   33.9340   46.6110 C   0  0  0  0  0  0  0  0  0  0  0  0
   58.8870   34.9820   45.8980 O   0  0  0  0  0  0  0  0  0  0  0  0
   59.0500   34.0790   48.0760 C   0  0  0  0  0  0  0  0  0  0  0  0
   60.4310   34.5760   48.4030 C   0  0  0  0  0  0  0  0  0  0  0  0
   61.4010   33.5190   48.0260 C   0  0  0  0  0  0  0  0  0  0  0  0
   62.4490   33.8680   47.2170 C   0  0  0  0  0  0  0  0  0  0  0  0
   63.4080   32.9710   46.8040 C   0  0  0  0  0  0  0  0  0  0  0  0
   63.2890   31.6560   47.2400 C   0  0  0  0  0  0  0  0  0  0  0  0
   62.2440   31.2720   48.0560 C   0  0  0  0  0  0  0  0  0  0  0  0
   61.3040   32.2230   48.4420 C   0  0  0  0  0  0  0  0  0  0  0  0
   58.4040   32.5070   44.6220 C   0  0  0  0  0  0  0  0  0  0  0  0
   57.2160   31.6430   44.3570 C   0  0  0  0  0  0  0  0  0  0  0  0
   58.3770   27.7280   45.2890 N   0  0  0  0  0  0  0  0  0  0  0  0
   60.4123   26.1407   47.1536 H   0  0  0  0  0  0  0  0  0  0  0  0
   60.3460   25.2294   45.6070 H   0  0  0  0  0  0  0  0  0  0  0  0
   60.8032   26.9666   45.6070 H   0  0  0  0  0  0  0  0  0  0  0  0
   58.0207   24.7938   46.9535 H   0  0  0  0  0  0  0  0  0  0  0  0
   55.1430   27.5260   45.5170 H   0  0  0  0  0  0  0  0  0  0  0  0
   57.4661   29.4115   43.5517 H   0  0  0  0  0  0  0  0  0  0  0  0
   55.7382   29.3391   44.1614 H   0  0  0  0  0  0  0  0  0  0  0  0
   57.7039   29.5440   46.8874 H   0  0  0  0  0  0  0  0  0  0  0  0
   58.9142   29.9059   45.5566 H   0  0  0  0  0  0  0  0  0  0  0  0
   57.8935   31.6817   47.7463 H   0  0  0  0  0  0  0  0  0  0  0  0
   59.5865   31.2755   47.2493 H   0  0  0  0  0  0  0  0  0  0  0  0
   58.3126   34.7941   48.4695 H   0  0  0  0  0  0  0  0  0  0  0  0
   58.9272   33.0877   48.5367 H   0  0  0  0  0  0  0  0  0  0  0  0
   60.6410   35.4947   47.8356 H   0  0  0  0  0  0  0  0  0  0  0  0
   60.5110   34.8021   49.4765 H   0  0  0  0  0  0  0  0  0  0  0  0
   62.5282   34.9127   46.8818 H   0  0  0  0  0  0  0  0  0  0  0  0
   64.2380   33.2830   46.1530 H   0  0  0  0  0  0  0  0  0  0  0  0
   64.0376   30.9118   46.9305 H   0  0  0  0  0  0  0  0  0  0  0  0
   62.1555   30.2297   48.3962 H   0  0  0  0  0  0  0  0  0  0  0  0
   60.4691   31.9250   49.0932 H   0  0  0  0  0  0  0  0  0  0  0  0
   58.2397   33.4985   44.1749 H   0  0  0  0  0  0  0  0  0  0  0  0
   59.2953   32.0393   44.1784 H   0  0  0  0  0  0  0  0  0  0  0  0
   56.3217   32.2811   44.4120 H   0  0  0  0  0  0  0  0  0  0  0  0
   57.4020   31.1932   43.3706 H   0  0  0  0  0  0  0  0  0  0  0  0
  1  2  1  0
  2  3  2  0
  3  4  1  0
  4  5  2  0
  4  6  1  0
  6  7  1  0
  7  8  1  0
  8  9  1  0
  9 10  1  0
 10 11  1  0
 11 12  1  0
 12 13  1  0
 13 14  2  0
 13 15  1  0
 15 16  1  0
 16 17  1  0
 17 18  2  0
 18 19  1  0
 19 20  2  0
 20 21  1  0
 21 22  2  0
 12 23  1  0
 23 24  1  0
  7 25  2  0
 25  2  1  0
 24  9  1  0
 22 17  1  0
  1 26  1  0
  1 27  1  0
  1 28  1  0
  3 29  1  0
  6 30  1  0
  8 31  1  0
  8 32  1  0
 10 33  1  0
 10 34  1  0
 11 35  1  0
 11 36  1  0
 15 37  1  0
 15 38  1  0
 16 39  1  0
 16 40  1  0
 18 41  1  0
 19 42  1  0
 20 43  1  0
 21 44  1  0
 22 45  1  0
 23 46  1  0
 23 47  1  0
 24 48  1  0
 24 49  1  0
M  END
>  <smiles>  (30) 
Cc1cc(=O)[nH]c(CN2CCN(C(=O)CCc3ccccc3)CC2)n1

>  <score_type>  (30) 
oracle

>  <origin>  (30) 
adg

>  <m_score__min__energy>  (30) 
-9.0700000000000003

>  <m_primary>  (30) 
energy

$$$$
30:0
     RDKit          3D

 60 64  0  0  0  0  0  0  0  0999 V2000
   60.1810   28.2600   45.5230 C   0  0  0  0  0  0  0  0  0  0  0  0
   59.0810   29.2060   45.1210 C   0  0  0  0  0  0  0  0  0  0  0  0
   59.1300   30.5000   45.5570 N   0  0  0  0  0  0  0  0  0  0  0  0
   58.1990   31.4290   45.1890 C   0  0  0  0  0  0  0  0  0  0  0  0
   58.2860   32.7790   45.6870 N   0  0  0  0  0  0  0  0  0  0  0  0
   57.8690   33.1210   47.0500 C   0  0  0  0  0  0  0  0  0  0  0  0
   59.0260   33.7980   47.8080 C   0  0  0  0  0  0  0  0  0  0  0  0
   59.9320   34.5950   46.9390 N   0  0  0  0  0  0  0  0  0  0  0  0
   61.2090   33.9010   46.6960 C   0  0  0  0  0  0  0  0  0  0  0  0
   59.2960   35.0360   45.6790 C   0  0  0  0  0  0  0  0  0  0  0  0
   58.8190   33.8430   44.8310 C   0  0  0  0  0  0  0  0  0  0  0  0
   57.1420   31.0490   44.3540 C   0  0  0  0  0  0  0  0  0  0  0  0
   57.0540   29.7330   43.9090 C   0  0  0  0  0  0  0  0  0  0  0  0
   58.0060   28.7870   44.3020 C   0  0  0  0  0  0  0  0  0  0  0  0
   57.8680   27.4310   43.8510 N   0  0  0  0  0  0  0  0  0  0  0  0
   57.4460   26.3710   44.5650 C   0  0  0  0  0  0  0  0  0  0  0  0
   57.3960   25.3060   43.6850 C   0  0  0  0  0  0  0  0  0  0  0  0
   56.9890   23.9100   43.9720 C   0  0  0  0  0  0  0  0  0  0  0  0
   56.6050   23.0330   42.9430 C   0  0  0  0  0  0  0  0  0  0  0  0
   56.2440   21.7560   43.2310 N   0  0  0  0  0  0  0  0  0  0  0  0
   56.2380   21.2790   44.5020 C   0  0  0  0  0  0  0  0  0  0  0  0
   56.6020   22.1110   45.5710 C   0  0  0  0  0  0  0  0  0  0  0  0
   56.6070   21.6190   46.9240 N   0  0  0  0  0  0  0  0  0  0  0  0
   57.2650   20.3460   47.2350 C   0  0  0  0  0  0  0  0  0  0  0  0
   57.3940   20.1680   48.7490 C   0  0  0  0  0  0  0  0  0  0  0  0
   57.6970   21.4120   49.3420 O   0  0  0  0  0  0  0  0  0  0  0  0
   56.5500   22.2470   49.3350 C   0  0  0  0  0  0  0  0  0  0  0  0
   55.8320   22.3080   47.9650 C   0  0  0  0  0  0  0  0  0  0  0  0
   56.9840   23.4320   45.2920 C   0  0  0  0  0  0  0  0  0  0  0  0
   57.7690   25.7550   42.4680 N   0  0  0  0  0  0  0  0  0  0  0  0
   58.0400   27.0450   42.5960 N   0  0  0  0  0  0  0  0  0  0  0  0
   60.2389   28.2102   46.6203 H   0  0  0  0  0  0  0  0  0  0  0  0
   59.9683   27.2584   45.1212 H   0  0  0  0  0  0  0  0  0  0  0  0
   61.1395   28.6203   45.1212 H   0  0  0  0  0  0  0  0  0  0  0  0
   59.9210   30.7970   46.1730 H   0  0  0  0  0  0  0  0  0  0  0  0
   57.0122   33.8094   47.0055 H   0  0  0  0  0  0  0  0  0  0  0  0
   57.5846   32.1996   47.5794 H   0  0  0  0  0  0  0  0  0  0  0  0
   58.5970   34.4680   48.5677 H   0  0  0  0  0  0  0  0  0  0  0  0
   59.6329   32.9932   48.2484 H   0  0  0  0  0  0  0  0  0  0  0  0
   61.6770   33.6467   47.6584 H   0  0  0  0  0  0  0  0  0  0  0  0
   61.0228   32.9800   46.1241 H   0  0  0  0  0  0  0  0  0  0  0  0
   61.8805   34.5583   46.1241 H   0  0  0  0  0  0  0  0  0  0  0  0
   58.4302   35.6701   45.9202 H   0  0  0  0  0  0  0  0  0  0  0  0
   60.0438   35.5929   45.0954 H   0  0  0  0  0  0  0  0  0  0  0  0
   58.0307   34.1816   44.1426 H   0  0  0  0  0  0  0  0  0  0  0  0
   59.6751   33.4464   44.2654 H   0  0  0  0  0  0  0  0  0  0  0  0
   56.3845   31.7867   44.0509 H   0  0  0  0  0  0  0  0  0  0  0  0
   56.2301   29.4352   43.2438 H   0  0  0  0  0  0  0  0  0  0  0  0
   57.1917   26.3552   45.6351 H   0  0  0  0  0  0  0  0  0  0  0  0
   56.5969   23.3825   41.9000 H   0  0  0  0  0  0  0  0  0  0  0  0
   55.9465   20.2359   44.6943 H   0  0  0  0  0  0  0  0  0  0  0  0
   56.6681   19.5192   46.8224 H   0  0  0  0  0  0  0  0  0  0  0  0
   58.2705   20.3458   46.7888 H   0  0  0  0  0  0  0  0  0  0  0  0
   56.4453   19.7885   49.1563 H   0  0  0  0  0  0  0  0  0  0  0  0
   58.1985   19.4505   48.9678 H   0  0  0  0  0  0  0  0  0  0  0  0
   55.8389   21.8663   50.0829 H   0  0  0  0  0  0  0  0  0  0  0  0
   56.8938   23.2667   49.5630 H   0  0  0  0  0  0  0  0  0  0  0  0
   54.8468   21.8272   48.0553 H   0  0  0  0  0  0  0  0  0  0  0  0
   55.7252   23.3640   47.6761 H   0  0  0  0  0  0  0  0  0  0  0  0
   57.2821   24.0987   46.1145 H   0  0  0  0  0  0  0  0  0  0  0  0
  1  2  1  0
  2  3  2  0
  3  4  1  0
  4  5  1  0
  5  6  1  0
  6  7  1  0
  7  8  1  0
  8  9  1  0
  8 10  1  0
 10 11  1  0
  4 12  2  0
 12 13  1  0
 13 14  2  0
 14 15  1  0
 15 16  1  0
 16 17  2  0
 17 18  1  0
 18 19  2  0
 19 20  1  0
 20 21  2  0
 21 22  1  0
 22 23  1  0
 23 24  1  0
 24 25  1  0
 25 26  1  0
 26 27  1  0
 27 28  1  0
 22 29  2  0
 17 30  1  0
 30 31  2  0
 14  2  1  0
 31 15  1  0
 11  5  1  0
 29 18  1  0
 28 23  1  0
  1 32  1  0
  1 33  1  0
  1 34  1  0
  3 35  1  0
  6 36  1  0
  6 37  1  0
  7 38  1  0
  7 39  1  0
  9 40  1  0
  9 41  1  0
  9 42  1  0
 10 43  1  0
 10 44  1  0
 11 45  1  0
 11 46  1  0
 12 47  1  0
 13 48  1  0
 16 49  1  0
 19 50  1  0
 21 51  1  0
 24 52  1  0
 24 53  1  0
 25 54  1  0
 25 55  1  0
 27 56  1  0
 27 57  1  0
 28 58  1  0
 28 59  1  0
 29 60  1  0
M  CHG  1   3   1
M  END
>  <UniqueID>  (31) 
28

>  <SMILES>  (31) 
Cc1[nH+]c(N2CCN(C)CC2)ccc1-n1cc(-c2cncc(N3CCOCC3)c2)nn1

>  <Energy>  (31) 
128.62029998129995

>  <Genealogy>  (31) 
Cc1[nH+]c(N2CCN(C)CC2)ccc1-n1cc(-c2cncc(N3CCOCC3)c2)nn1 (protonated)
Cc1[nH+]c(N2CCN(C)CC2)ccc1-n1cc(-c2cncc(N3CCOCC3)c2)nn1 (3D coordinates assigned)
Cc1[nH+]c(N2CCN(C)CC2)ccc1-n1cc(-c2cncc(N3CCOCC3)c2)nn1 (nonaromatic ring conformer: 128.62029998129995 kcal/mol)

>  <smiles>  (31) 
Cc1nc(N2CCN(C)CC2)ccc1-n1cc(-c2cncc(N3CCOCC3)c2)nn1

>  <score_type>  (31) 
oracle

>  <origin>  (31) 
adg

>  <m_score__min__energy>  (31) 
-8.0099999999999998

>  <m_primary>  (31) 
energy

$$$$
31:0
     RDKit          3D

 51 54  0  0  0  0  0  0  0  0999 V2000
   57.4420   32.0120   41.5920 C   0  0  0  0  0  0  0  0  0  0  0  0
   57.3270   31.2340   42.8960 C   0  0  0  0  0  0  0  0  0  0  0  0
   57.5280   32.1230   44.0350 N   0  0  0  0  0  0  0  0  0  0  0  0
   58.3310   33.2030   44.0620 C   0  0  0  0  0  0  0  0  0  0  0  0
   58.2770   33.7380   45.3300 C   0  0  0  0  0  0  0  0  0  0  0  0
   59.0360   34.9240   45.8490 C   0  0  0  0  0  0  0  0  0  0  0  0
   60.1070   34.5690   46.8020 N   0  0  0  0  0  0  0  0  0  0  0  0
   59.7380   34.5650   48.2360 C   0  0  0  0  0  0  0  0  0  0  0  0
   59.3690   33.1700   48.7530 C   0  0  0  0  0  0  0  0  0  0  0  0
   60.3810   32.2090   48.3280 N   0  0  0  0  0  0  0  0  0  0  0  0
   61.1810   31.5100   49.2950 C   0  0  0  0  0  0  0  0  0  0  0  0
   60.6020   30.4710   50.0380 C   0  0  0  0  0  0  0  0  0  0  0  0
   61.3610   29.7510   50.9620 C   0  0  0  0  0  0  0  0  0  0  0  0
   62.7090   30.0600   51.1580 C   0  0  0  0  0  0  0  0  0  0  0  0
   63.3080   31.1010   50.4340 C   0  0  0  0  0  0  0  0  0  0  0  0
   64.6240   31.4080   50.6350 N   0  0  0  0  0  0  0  0  0  0  0  0
   65.2320   32.4320   49.9670 C   0  0  0  0  0  0  0  0  0  0  0  0
   66.6880   32.7150   50.1880 C   0  0  0  0  0  0  0  0  0  0  0  0
   64.5080   33.1790   49.0310 C   0  0  0  0  0  0  0  0  0  0  0  0
   63.1630   32.8890   48.8040 C   0  0  0  0  0  0  0  0  0  0  0  0
   62.5420   31.8380   49.4970 C   0  0  0  0  0  0  0  0  0  0  0  0
   60.6810   32.1250   46.9030 C   0  0  0  0  0  0  0  0  0  0  0  0
   61.0500   33.5140   46.3690 C   0  0  0  0  0  0  0  0  0  0  0  0
   57.4370   32.9030   46.0420 C   0  0  0  0  0  0  0  0  0  0  0  0
   56.9940   31.9240   45.2310 N   0  0  0  0  0  0  0  0  0  0  0  0
   57.5996   33.0779   41.8136 H   0  0  0  0  0  0  0  0  0  0  0  0
   58.2933   31.6287   41.0102 H   0  0  0  0  0  0  0  0  0  0  0  0
   56.5163   31.8914   41.0102 H   0  0  0  0  0  0  0  0  0  0  0  0
   56.3268   30.7809   42.9613 H   0  0  0  0  0  0  0  0  0  0  0  0
   58.0978   30.4494   42.9139 H   0  0  0  0  0  0  0  0  0  0  0  0
   58.9249   33.5896   43.2207 H   0  0  0  0  0  0  0  0  0  0  0  0
   59.4900   35.4475   44.9947 H   0  0  0  0  0  0  0  0  0  0  0  0
   58.3170   35.5551   46.3919 H   0  0  0  0  0  0  0  0  0  0  0  0
   60.5916   34.9410   48.8191 H   0  0  0  0  0  0  0  0  0  0  0  0
   58.8506   35.2048   48.3503 H   0  0  0  0  0  0  0  0  0  0  0  0
   59.3191   33.1878   49.8517 H   0  0  0  0  0  0  0  0  0  0  0  0
   58.3906   32.8756   48.3456 H   0  0  0  0  0  0  0  0  0  0  0  0
   59.5408   30.2214   49.8914 H   0  0  0  0  0  0  0  0  0  0  0  0
   60.8959   28.9373   51.5379 H   0  0  0  0  0  0  0  0  0  0  0  0
   63.3031   29.4845   51.8831 H   0  0  0  0  0  0  0  0  0  0  0  0
   65.1830   30.8490   51.3190 H   0  0  0  0  0  0  0  0  0  0  0  0
   66.8940   32.7550   51.2678 H   0  0  0  0  0  0  0  0  0  0  0  0
   67.2904   31.9171   49.7292 H   0  0  0  0  0  0  0  0  0  0  0  0
   66.9477   33.6804   49.7292 H   0  0  0  0  0  0  0  0  0  0  0  0
   64.9983   33.9924   48.4760 H   0  0  0  0  0  0  0  0  0  0  0  0
   62.5875   33.4850   48.0804 H   0  0  0  0  0  0  0  0  0  0  0  0
   61.5253   31.4374   46.7472 H   0  0  0  0  0  0  0  0  0  0  0  0
   59.7963   31.7520   46.3662 H   0  0  0  0  0  0  0  0  0  0  0  0
   62.0560   33.7729   46.7310 H   0  0  0  0  0  0  0  0  0  0  0  0
   61.0086   33.4661   45.2708 H   0  0  0  0  0  0  0  0  0  0  0  0
   57.1723   33.0198   47.1033 H   0  0  0  0  0  0  0  0  0  0  0  0
  1  2  1  0
  2  3  1  0
  3  4  1  0
  4  5  2  0
  5  6  1  0
  6  7  1  0
  7  8  1  0
  8  9  1  0
  9 10  1  0
 10 11  1  0
 11 12  2  0
 12 13  1  0
 13 14  2  0
 14 15  1  0
 15 16  2  0
 16 17  1  0
 17 18  1  0
 17 19  2  0
 19 20  1  0
 20 21  2  0
 10 22  1  0
 22 23  1  0
  5 24  1  0
 24 25  2  0
 25  3  1  0
 23  7  1  0
 21 11  1  0
 21 15  1  0
  1 26  1  0
  1 27  1  0
  1 28  1  0
  2 29  1  0
  2 30  1  0
  4 31  1  0
  6 32  1  0
  6 33  1  0
  8 34  1  0
  8 35  1  0
  9 36  1  0
  9 37  1  0
 12 38  1  0
 13 39  1  0
 14 40  1  0
 16 41  1  0
 18 42  1  0
 18 43  1  0
 18 44  1  0
 19 45  1  0
 20 46  1  0
 22 47  1  0
 22 48  1  0
 23 49  1  0
 23 50  1  0
 24 51  1  0
M  CHG  1  16   1
M  END
>  <UniqueID>  (32) 
29

>  <SMILES>  (32) 
CCn1cc(CN2CCN(c3cccc4[nH+]c(C)ccc34)CC2)cn1

>  <Energy>  (32) 
95.87463771703815

>  <Genealogy>  (32) 
CCn1cc(CN2CCN(c3cccc4[nH+]c(C)ccc34)CC2)cn1 (protonated)
CCn1cc(CN2CCN(c3cccc4[nH+]c(C)ccc34)CC2)cn1 (3D coordinates assigned)
CCn1cc(CN2CCN(c3cccc4[nH+]c(C)ccc34)CC2)cn1 (nonaromatic ring conformer: 95.87463771703815 kcal/mol)

>  <smiles>  (32) 
CCn1cc(CN2CCN(c3cccc4nc(C)ccc34)CC2)cn1

>  <score_type>  (32) 
oracle

>  <origin>  (32) 
adg

>  <m_score__min__energy>  (32) 
-6.6399999999999997

>  <m_primary>  (32) 
energy

$$$$
32:0
     RDKit          3D

 40 42  0  0  1  0  0  0  0  0999 V2000
   59.9560   35.3450   47.1180 O   0  0  0  0  0  0  0  0  0  0  0  0
   59.9950   34.4240   46.2400 C   0  0  0  0  0  0  0  0  0  0  0  0
   59.0830   34.4250   45.1460 N   0  0  0  0  0  0  0  0  0  0  0  0
   58.4480   33.3360   44.8730 C   0  0  0  0  0  0  0  0  0  0  0  0
   58.0980   32.3960   45.8140 C   0  0  0  0  0  0  0  0  0  0  0  0
   57.4160   31.2540   45.4390 C   0  0  0  0  0  0  0  0  0  0  0  0
   57.0720   31.0260   44.1400 N   0  0  0  0  0  0  0  0  0  0  0  0
   56.3720   29.8260   43.8440 C   0  0  1  0  0  0  0  0  0  0  0  0
   57.0450   28.8410   42.9910 C   0  0  0  0  0  0  0  0  0  0  0  0
   57.7500   28.0620   43.8900 O   0  0  0  0  0  0  0  0  0  0  0  0
   57.1960   28.2760   45.1310 C   0  0  2  0  0  0  0  0  0  0  0  0
   56.8100   26.9250   45.6960 C   0  0  0  0  0  0  0  0  0  0  0  0
   55.4420   26.9330   45.9530 O   0  0  0  0  0  0  0  0  0  0  0  0
   56.1160   29.1170   45.0180 O   0  0  0  0  0  0  0  0  0  0  0  0
   57.4240   31.9530   43.2580 C   0  0  0  0  0  0  0  0  0  0  0  0
   57.1390   31.8000   42.0660 O   0  0  0  0  0  0  0  0  0  0  0  0
   58.0980   33.0900   43.5950 N   0  0  0  0  0  0  0  0  0  0  0  0
   60.9890   33.3950   46.4000 N   0  0  0  0  0  0  0  0  0  0  0  0
   61.8990   33.4070   47.5030 C   0  0  0  0  0  0  0  0  0  0  0  0
   63.2250   33.0950   47.1990 C   0  0  0  0  0  0  0  0  0  0  0  0
   64.1490   33.0940   48.2440 C   0  0  0  0  0  0  0  0  0  0  0  0
   63.7470   33.3940   49.5300 C   0  0  0  0  0  0  0  0  0  0  0  0
   65.0230   33.3930   50.9690 Br  0  0  0  0  0  0  0  0  0  0  0  0
   62.4340   33.7010   49.8250 C   0  0  0  0  0  0  0  0  0  0  0  0
   61.4970   33.7060   48.7930 C   0  0  0  0  0  0  0  0  0  0  0  0
   58.3622   32.5539   46.8701 H   0  0  0  0  0  0  0  0  0  0  0  0
   57.1449   30.5130   46.2055 H   0  0  0  0  0  0  0  0  0  0  0  0
   55.4918   30.2099   43.3075 H   0  0  0  0  0  0  0  0  0  0  0  0
   56.3127   28.2358   42.4364 H   0  0  0  0  0  0  0  0  0  0  0  0
   57.6890   29.3039   42.2288 H   0  0  0  0  0  0  0  0  0  0  0  0
   57.9089   28.7620   45.8134 H   0  0  0  0  0  0  0  0  0  0  0  0
   57.0469   26.1357   44.9673 H   0  0  0  0  0  0  0  0  0  0  0  0
   57.3685   26.7285   46.6231 H   0  0  0  0  0  0  0  0  0  0  0  0
   55.1430   27.8770   45.8850 H   0  0  0  0  0  0  0  0  0  0  0  0
   58.3540   33.7890   42.8800 H   0  0  0  0  0  0  0  0  0  0  0  0
   61.0090   32.6510   45.6760 H   0  0  0  0  0  0  0  0  0  0  0  0
   63.5313   32.8578   46.1695 H   0  0  0  0  0  0  0  0  0  0  0  0
   65.2031   32.8530   48.0423 H   0  0  0  0  0  0  0  0  0  0  0  0
   62.1324   33.9375   50.8561 H   0  0  0  0  0  0  0  0  0  0  0  0
   60.4442   33.9462   49.0028 H   0  0  0  0  0  0  0  0  0  0  0  0
  1  2  2  0
  2  3  1  0
  3  4  2  0
  4  5  1  0
  5  6  2  0
  6  7  1  0
  7  8  1  0
  8  9  1  0
  9 10  1  0
 10 11  1  0
 11 12  1  0
 12 13  1  0
 11 14  1  0
  7 15  1  0
 15 16  2  0
 15 17  1  0
  2 18  1  0
 18 19  1  0
 19 20  2  0
 20 21  1  0
 21 22  2  0
 22 23  1  0
 22 24  1  0
 24 25  2  0
 17  4  1  0
 25 19  1  0
 14  8  1  0
  5 26  1  0
  6 27  1  0
  8 28  1  6
  9 29  1  0
  9 30  1  0
 11 31  1  1
 12 32  1  0
 12 33  1  0
 13 34  1  0
 17 35  1  0
 18 36  1  0
 20 37  1  0
 21 38  1  0
 24 39  1  0
 25 40  1  0
M  END
>  <smiles>  (33) 
O=C(N=c1ccn(C2COC(CO)O2)c(=O)[nH]1)Nc1ccc(Br)cc1

>  <score_type>  (33) 
oracle

>  <origin>  (33) 
adg

>  <m_score__min__energy>  (33) 
-8.7400000000000002

>  <m_primary>  (33) 
energy

$$$$
33:0
     RDKit          3D

 20 21  0  0  0  0  0  0  0  0999 V2000
   58.1370   30.9020   42.6780 H   0  0  0  0  0  0  0  0  0  0  0  0
   57.8490   30.9130   43.6820 N   0  0  0  0  0  0  0  0  0  0  0  0
   57.7580   29.8210   44.3690 C   0  0  0  0  0  0  0  0  0  0  0  0
   56.3150   28.9720   44.6000 S   0  0  0  0  0  0  0  0  0  0  0  0
   57.0840   27.7950   45.5310 C   0  0  0  0  0  0  0  0  0  0  0  0
   56.5290   26.6690   46.1370 C   0  0  0  0  0  0  0  0  0  0  0  0
   55.1560   26.4140   45.9990 O   0  0  0  0  0  0  0  0  0  0  0  0
   54.6100   25.1560   45.6210 C   0  0  0  0  0  0  0  0  0  0  0  0
   54.3595   24.5789   46.5234 H   0  0  0  0  0  0  0  0  0  0  0  0
   53.7002   25.3157   45.0237 H   0  0  0  0  0  0  0  0  0  0  0  0
   55.3480   24.6006   45.0237 H   0  0  0  0  0  0  0  0  0  0  0  0
   57.3970   25.8280   46.8730 C   0  0  0  0  0  0  0  0  0  0  0  0
   56.9982   24.9299   47.3673 H   0  0  0  0  0  0  0  0  0  0  0  0
   58.7680   26.1330   46.9770 C   0  0  0  0  0  0  0  0  0  0  0  0
   59.4315   25.4697   47.5513 H   0  0  0  0  0  0  0  0  0  0  0  0
   59.2960   27.2750   46.3550 C   0  0  0  0  0  0  0  0  0  0  0  0
   60.3666   27.5142   46.4366 H   0  0  0  0  0  0  0  0  0  0  0  0
   58.4340   28.1020   45.6300 C   0  0  0  0  0  0  0  0  0  0  0  0
   58.8130   29.2340   44.9810 N   0  0  0  0  0  0  0  0  0  0  0  0
   59.7910   29.6020   44.9590 H   0  0  0  0  0  0  0  0  0  0  0  0
  1  2  1  0
  2  3  2  0
  3  4  1  0
  4  5  1  0
  5  6  2  0
  6  7  1  0
  7  8  1  0
  8  9  1  0
  8 10  1  0
  8 11  1  0
  6 12  1  0
 12 13  1  0
 12 14  2  0
 14 15  1  0
 14 16  1  0
 16 17  1  0
 16 18  2  0
 18 19  1  0
 19 20  1  0
 19  3  1  0
 18  5  1  0
M  END
>  <UniqueID>  (34) 
30

>  <SMILES>  (34) 
[H]/N=c1\[nH]c2cccc(OC)c2s1

>  <Energy>  (34) 
54.323675536628194

>  <Genealogy>  (34) 
[H]/N=c1\[nH]c2cccc(OC)c2s1 (cis-trans isomerization)
[H]/N=c1\[nH]c2cccc(OC)c2s1 (3D coordinates assigned)
[H]/N=c1\[nH]c2cccc(OC)c2s1 (optimized conformer: 54.323675536628194 kcal/mol)

>  <smiles>  (34) 
COc1cccc2[nH]c(=N)sc12

>  <score_type>  (34) 
oracle

>  <origin>  (34) 
adg

>  <m_score__min__energy>  (34) 
-4.8200000000000003

>  <m_primary>  (34) 
energy

$$$$
34:0
     RDKit          3D

 41 42  0  0  0  0  0  0  0  0999 V2000
   60.0190   35.2352   45.2928 H   0  0  0  0  0  0  0  0  0  0  0  0
   59.4040   34.6310   45.9760 C   0  0  0  0  0  0  0  0  0  0  0  0
   58.4140   33.9500   45.4720 N   0  0  0  0  0  0  0  0  0  0  0  0
   57.7590   32.7920   46.0170 C   0  0  0  0  0  0  0  0  0  0  0  0
   57.3920   32.7590   47.2230 O   0  0  0  0  0  0  0  0  0  0  0  0
   57.5800   31.5850   45.1770 C   0  0  0  0  0  0  0  0  0  0  0  0
   56.4690   31.3200   44.5440 N   0  0  0  0  0  0  0  0  0  0  0  0
   55.9950   30.0400   44.1020 C   0  0  0  0  0  0  0  0  0  0  0  0
   55.2380   29.3760   44.8560 O   0  0  0  0  0  0  0  0  0  0  0  0
   56.2780   29.5280   42.7220 C   0  0  0  0  0  0  0  0  0  0  0  0
   56.8091   28.5671   42.7892 H   0  0  0  0  0  0  0  0  0  0  0  0
   55.3302   29.3861   42.1820 H   0  0  0  0  0  0  0  0  0  0  0  0
   56.9023   30.2551   42.1820 H   0  0  0  0  0  0  0  0  0  0  0  0
   58.7260   30.6260   45.0200 C   0  0  0  0  0  0  0  0  0  0  0  0
   58.3639   29.7030   44.5435 H   0  0  0  0  0  0  0  0  0  0  0  0
   59.5009   31.0942   44.3952 H   0  0  0  0  0  0  0  0  0  0  0  0
   59.3170   30.2920   46.3640 C   0  0  0  0  0  0  0  0  0  0  0  0
   58.6510   29.4150   47.2370 C   0  0  0  0  0  0  0  0  0  0  0  0
   57.6803   28.9859   46.9478 H   0  0  0  0  0  0  0  0  0  0  0  0
   59.2180   29.0860   48.4720 C   0  0  0  0  0  0  0  0  0  0  0  0
   58.6900   28.4036   49.1543 H   0  0  0  0  0  0  0  0  0  0  0  0
   60.4550   29.6230   48.8410 C   0  0  0  0  0  0  0  0  0  0  0  0
   60.8989   29.3645   49.8137 H   0  0  0  0  0  0  0  0  0  0  0  0
   61.1270   30.4880   47.9740 C   0  0  0  0  0  0  0  0  0  0  0  0
   62.1010   30.9088   48.2643 H   0  0  0  0  0  0  0  0  0  0  0  0
   60.5640   30.8200   46.7380 C   0  0  0  0  0  0  0  0  0  0  0  0
   61.0993   31.4970   46.0560 H   0  0  0  0  0  0  0  0  0  0  0  0
   59.7540   34.6380   47.4400 C   0  0  0  0  0  0  0  0  0  0  0  0
   59.6836   35.6666   47.8234 H   0  0  0  0  0  0  0  0  0  0  0  0
   59.0510   33.9828   47.9753 H   0  0  0  0  0  0  0  0  0  0  0  0
   61.1540   34.1250   47.6540 C   0  0  0  0  0  0  0  0  0  0  0  0
   61.6290   33.8890   48.9550 C   0  0  0  0  0  0  0  0  0  0  0  0
   60.9852   34.1031   49.8208 H   0  0  0  0  0  0  0  0  0  0  0  0
   62.9170   33.3830   49.1530 C   0  0  0  0  0  0  0  0  0  0  0  0
   63.2883   33.2104   50.1739 H   0  0  0  0  0  0  0  0  0  0  0  0
   63.7340   33.0960   48.0550 C   0  0  0  0  0  0  0  0  0  0  0  0
   64.7469   32.6970   48.2127 H   0  0  0  0  0  0  0  0  0  0  0  0
   63.2640   33.3160   46.7570 C   0  0  0  0  0  0  0  0  0  0  0  0
   63.9071   33.0893   45.8938 H   0  0  0  0  0  0  0  0  0  0  0  0
   61.9770   33.8240   46.5550 C   0  0  0  0  0  0  0  0  0  0  0  0
   61.6072   33.9887   45.5322 H   0  0  0  0  0  0  0  0  0  0  0  0
  1  2  1  0
  2  3  2  3
  3  4  1  0
  4  5  2  0
  4  6  1  0
  6  7  2  0
  7  8  1  0
  8  9  2  0
  8 10  1  0
 10 11  1  0
 10 12  1  0
 10 13  1  0
  6 14  1  0
 14 15  1  0
 14 16  1  0
 14 17  1  0
 17 18  2  0
 18 19  1  0
 18 20  1  0
 20 21  1  0
 20 22  2  0
 22 23  1  0
 22 24  1  0
 24 25  1  0
 24 26  2  0
 26 27  1  0
  2 28  1  0
 28 29  1  0
 28 30  1  0
 28 31  1  0
 31 32  2  0
 32 33  1  0
 32 34  1  0
 34 35  1  0
 34 36  2  0
 36 37  1  0
 36 38  1  0
 38 39  1  0
 38 40  2  0
 40 41  1  0
 26 17  1  0
 40 31  1  0
M  END
>  <UniqueID>  (35) 
31

>  <SMILES>  (35) 
CC(=O)/N=C(/Cc1ccccc1)C(=O)N=CCc1ccccc1

>  <Energy>  (35) 
49.4728298994352

>  <Genealogy>  (35) 
CC(=O)/N=C(/Cc1ccccc1)C(=O)N=CCc1ccccc1 (cis-trans isomerization)
CC(=O)/N=C(/Cc1ccccc1)C(=O)N=CCc1ccccc1 (3D coordinates assigned)
CC(=O)/N=C(/Cc1ccccc1)C(=O)N=CCc1ccccc1 (optimized conformer: 49.4728298994352 kcal/mol)

>  <smiles>  (35) 
CC(=O)N=C(Cc1ccccc1)C(=O)N=CCc1ccccc1

>  <score_type>  (35) 
oracle

>  <origin>  (35) 
adg

>  <m_score__min__energy>  (35) 
-8.25

>  <m_primary>  (35) 
energy

$$$$
35:0
     RDKit          3D

 51 54  0  0  0  0  0  0  0  0999 V2000
   51.6800   24.0940   44.3690 C   0  0  0  0  0  0  0  0  0  0  0  0
   52.5990   23.1220   44.8570 O   0  0  0  0  0  0  0  0  0  0  0  0
   53.6650   23.4050   45.7240 C   0  0  0  0  0  0  0  0  0  0  0  0
   53.8630   22.7070   46.9310 C   0  0  0  0  0  0  0  0  0  0  0  0
   54.9500   23.0190   47.7520 C   0  0  0  0  0  0  0  0  0  0  0  0
   55.8410   24.0300   47.3870 C   0  0  0  0  0  0  0  0  0  0  0  0
   55.6420   24.7510   46.2000 C   0  0  0  0  0  0  0  0  0  0  0  0
   56.5810   25.7670   45.8170 N   0  0  0  0  0  0  0  0  0  0  0  0
   56.2590   27.0490   45.7440 N   0  0  0  0  0  0  0  0  0  0  0  0
   57.3630   27.7390   45.3950 C   0  0  0  0  0  0  0  0  0  0  0  0
   57.3870   29.2120   45.2190 C   0  0  0  0  0  0  0  0  0  0  0  0
   56.6510   29.8050   44.1760 C   0  0  0  0  0  0  0  0  0  0  0  0
   56.6630   31.1920   43.9970 C   0  0  0  0  0  0  0  0  0  0  0  0
   57.4090   32.0030   44.8560 C   0  0  0  0  0  0  0  0  0  0  0  0
   58.1430   31.4270   45.8950 C   0  0  0  0  0  0  0  0  0  0  0  0
   58.1350   30.0420   46.0790 C   0  0  0  0  0  0  0  0  0  0  0  0
   58.4260   26.8620   45.2350 C   0  0  0  0  0  0  0  0  0  0  0  0
   57.8870   25.6150   45.5020 C   0  0  0  0  0  0  0  0  0  0  0  0
   58.5510   24.3400   45.3770 N   0  0  0  0  0  0  0  0  0  0  0  0
   58.1330   23.2350   44.5040 C   0  0  0  0  0  0  0  0  0  0  0  0
   57.5610   22.0600   45.3220 C   0  0  0  0  0  0  0  0  0  0  0  0
   57.2130   20.8590   44.4220 C   0  0  0  0  0  0  0  0  0  0  0  0
   56.6880   21.2570   43.0260 C   0  0  0  0  0  0  0  0  0  0  0  0
   56.1120   22.6770   43.0040 C   0  0  0  0  0  0  0  0  0  0  0  0
   57.1870   23.7160   43.3710 C   0  0  0  0  0  0  0  0  0  0  0  0
   54.5630   24.4190   45.3650 C   0  0  0  0  0  0  0  0  0  0  0  0
   51.1992   24.6026   45.2176 H   0  0  0  0  0  0  0  0  0  0  0  0
   52.2181   24.8322   43.7562 H   0  0  0  0  0  0  0  0  0  0  0  0
   50.9128   23.5981   43.7562 H   0  0  0  0  0  0  0  0  0  0  0  0
   53.1605   21.9145   47.2282 H   0  0  0  0  0  0  0  0  0  0  0  0
   55.1043   22.4655   48.6900 H   0  0  0  0  0  0  0  0  0  0  0  0
   56.7014   24.2619   48.0319 H   0  0  0  0  0  0  0  0  0  0  0  0
   56.0615   29.1723   43.4961 H   0  0  0  0  0  0  0  0  0  0  0  0
   56.0842   31.6451   43.1787 H   0  0  0  0  0  0  0  0  0  0  0  0
   57.4181   33.0938   44.7140 H   0  0  0  0  0  0  0  0  0  0  0  0
   58.7297   32.0661   46.5712 H   0  0  0  0  0  0  0  0  0  0  0  0
   58.7159   29.5963   46.8999 H   0  0  0  0  0  0  0  0  0  0  0  0
   59.4630   27.1030   44.9584 H   0  0  0  0  0  0  0  0  0  0  0  0
   59.3680   24.1480   45.9970 H   0  0  0  0  0  0  0  0  0  0  0  0
   59.0287   22.8489   43.9955 H   0  0  0  0  0  0  0  0  0  0  0  0
   58.3086   21.7447   46.0648 H   0  0  0  0  0  0  0  0  0  0  0  0
   56.6379   22.4003   45.8139 H   0  0  0  0  0  0  0  0  0  0  0  0
   58.1196   20.2500   44.2907 H   0  0  0  0  0  0  0  0  0  0  0  0
   56.4037   20.3076   44.9230 H   0  0  0  0  0  0  0  0  0  0  0  0
   57.5183   21.2009   42.3067 H   0  0  0  0  0  0  0  0  0  0  0  0
   55.8784   20.5614   42.7602 H   0  0  0  0  0  0  0  0  0  0  0  0
   55.7312   22.8948   41.9953 H   0  0  0  0  0  0  0  0  0  0  0  0
   55.3006   22.7368   43.7444 H   0  0  0  0  0  0  0  0  0  0  0  0
   57.7908   23.9269   42.4760 H   0  0  0  0  0  0  0  0  0  0  0  0
   56.6663   24.6137   43.7357 H   0  0  0  0  0  0  0  0  0  0  0  0
   54.4211   24.9610   44.4184 H   0  0  0  0  0  0  0  0  0  0  0  0
  1  2  1  0
  2  3  1  0
  3  4  2  0
  4  5  1  0
  5  6  2  0
  6  7  1  0
  7  8  1  0
  8  9  1  0
  9 10  2  0
 10 11  1  0
 11 12  2  0
 12 13  1  0
 13 14  2  0
 14 15  1  0
 15 16  2  0
 10 17  1  0
 17 18  2  0
 18 19  1  0
 19 20  1  0
 20 21  1  0
 21 22  1  0
 22 23  1  0
 23 24  1  0
 24 25  1  0
  7 26  2  0
 26  3  1  0
 18  8  1  0
 25 20  1  0
 16 11  1  0
  1 27  1  0
  1 28  1  0
  1 29  1  0
  4 30  1  0
  5 31  1  0
  6 32  1  0
 12 33  1  0
 13 34  1  0
 14 35  1  0
 15 36  1  0
 16 37  1  0
 17 38  1  0
 19 39  1  0
 20 40  1  0
 21 41  1  0
 21 42  1  0
 22 43  1  0
 22 44  1  0
 23 45  1  0
 23 46  1  0
 24 47  1  0
 24 48  1  0
 25 49  1  0
 25 50  1  0
 26 51  1  0
M  END
>  <UniqueID>  (36) 
32

>  <SMILES>  (36) 
COc1cccc(-n2nc(-c3ccccc3)cc2NC2CCCCC2)c1

>  <Energy>  (36) 
93.35205474267215

>  <Genealogy>  (36) 
COc1cccc(-n2nc(-c3ccccc3)cc2NC2CCCCC2)c1 (3D coordinates assigned)
COc1cccc(-n2nc(-c3ccccc3)cc2NC2CCCCC2)c1 (nonaromatic ring conformer: 93.35205474267215 kcal/mol)

>  <smiles>  (36) 
COc1cccc(-n2nc(-c3ccccc3)cc2NC2CCCCC2)c1

>  <score_type>  (36) 
oracle

>  <origin>  (36) 
adg

>  <m_score__min__energy>  (36) 
-8.1799999999999997

>  <m_primary>  (36) 
energy

$$$$
36:0
     RDKit          3D

 57 60  0  0  0  0  0  0  0  0999 V2000
   59.2730   33.2210   49.1210 C   0  0  0  0  0  0  0  0  0  0  0  0
   59.8970   34.5850   48.8540 C   0  0  0  0  0  0  0  0  0  0  0  0
   60.4270   34.6470   47.5310 O   0  0  0  0  0  0  0  0  0  0  0  0
   59.6340   34.8140   46.3900 C   0  0  0  0  0  0  0  0  0  0  0  0
   59.6420   35.9040   45.7550 O   0  0  0  0  0  0  0  0  0  0  0  0
   58.7810   33.7100   45.9350 C   0  0  0  0  0  0  0  0  0  0  0  0
   59.2250   32.4130   45.6270 C   0  0  0  0  0  0  0  0  0  0  0  0
   58.1950   31.6370   45.2280 N   0  0  0  0  0  0  0  0  0  0  0  0
   57.9570   30.4000   44.7760 C   0  0  0  0  0  0  0  0  0  0  0  0
   58.9990   29.3500   44.5330 C   0  0  0  0  0  0  0  0  0  0  0  0
   60.1410   29.4290   45.5570 C   0  0  0  0  0  0  0  0  0  0  0  0
   60.4620   28.0580   46.1800 C   0  0  0  0  0  0  0  0  0  0  0  0
   59.5120   27.6880   47.3500 C   0  0  0  0  0  0  0  0  0  0  0  0
   58.6480   28.8770   47.8240 C   0  0  0  0  0  0  0  0  0  0  0  0
   59.4800   29.9850   48.5070 C   0  0  0  0  0  0  0  0  0  0  0  0
   60.8040   29.4940   48.9490 N   0  0  0  0  0  0  0  0  0  0  0  0
   61.5620   30.4880   49.7400 C   0  0  0  0  0  0  0  0  0  0  0  0
   62.3090   31.5030   48.9000 C   0  0  0  0  0  0  0  0  0  0  0  0
   63.4010   32.2090   49.4360 C   0  0  0  0  0  0  0  0  0  0  0  0
   64.0890   33.1440   48.6570 C   0  0  0  0  0  0  0  0  0  0  0  0
   63.6990   33.3780   47.3350 C   0  0  0  0  0  0  0  0  0  0  0  0
   62.6230   32.6730   46.7890 C   0  0  0  0  0  0  0  0  0  0  0  0
   61.9320   31.7360   47.5650 C   0  0  0  0  0  0  0  0  0  0  0  0
   60.7190   28.1690   49.5860 C   0  0  0  0  0  0  0  0  0  0  0  0
   60.2960   27.1030   48.5550 C   0  0  0  0  0  0  0  0  0  0  0  0
   56.6400   30.2710   44.4710 N   0  0  0  0  0  0  0  0  0  0  0  0
   56.0410   31.4340   44.7440 N   0  0  0  0  0  0  0  0  0  0  0  0
   57.0240   32.2260   45.2010 C   0  0  0  0  0  0  0  0  0  0  0  0
   57.0840   33.8320   45.6780 S   0  0  0  0  0  0  0  0  0  0  0  0
   59.1984   33.0580   50.2063 H   0  0  0  0  0  0  0  0  0  0  0  0
   58.2683   33.1837   48.6747 H   0  0  0  0  0  0  0  0  0  0  0  0
   59.9018   32.4365   48.6747 H   0  0  0  0  0  0  0  0  0  0  0  0
   59.1283   35.3630   48.9718 H   0  0  0  0  0  0  0  0  0  0  0  0
   60.7158   34.7456   49.5708 H   0  0  0  0  0  0  0  0  0  0  0  0
   60.2695   32.0759   45.7009 H   0  0  0  0  0  0  0  0  0  0  0  0
   58.5276   28.3585   44.6017 H   0  0  0  0  0  0  0  0  0  0  0  0
   59.4254   29.5177   43.5330 H   0  0  0  0  0  0  0  0  0  0  0  0
   61.0423   29.8086   45.0534 H   0  0  0  0  0  0  0  0  0  0  0  0
   59.8211   30.1006   46.3673 H   0  0  0  0  0  0  0  0  0  0  0  0
   60.3731   27.2884   45.3991 H   0  0  0  0  0  0  0  0  0  0  0  0
   61.4821   28.1120   46.5880 H   0  0  0  0  0  0  0  0  0  0  0  0
   58.8337   26.9202   46.9495 H   0  0  0  0  0  0  0  0  0  0  0  0
   58.1355   29.3091   46.9519 H   0  0  0  0  0  0  0  0  0  0  0  0
   57.9338   28.4927   48.5671 H   0  0  0  0  0  0  0  0  0  0  0  0
   59.6274   30.8089   47.7932 H   0  0  0  0  0  0  0  0  0  0  0  0
   58.9291   30.3222   49.3974 H   0  0  0  0  0  0  0  0  0  0  0  0
   60.8546   31.0277   50.3868 H   0  0  0  0  0  0  0  0  0  0  0  0
   62.3179   29.9301   50.3122 H   0  0  0  0  0  0  0  0  0  0  0  0
   63.7154   32.0245   50.4738 H   0  0  0  0  0  0  0  0  0  0  0  0
   64.9385   33.6965   49.0849 H   0  0  0  0  0  0  0  0  0  0  0  0
   64.2390   34.1169   46.7247 H   0  0  0  0  0  0  0  0  0  0  0  0
   62.3189   32.8550   45.7477 H   0  0  0  0  0  0  0  0  0  0  0  0
   61.0898   31.1788   47.1289 H   0  0  0  0  0  0  0  0  0  0  0  0
   61.7024   27.9023   50.0004 H   0  0  0  0  0  0  0  0  0  0  0  0
   59.9681   28.2066   50.3889 H   0  0  0  0  0  0  0  0  0  0  0  0
   61.2013   26.6073   48.1745 H   0  0  0  0  0  0  0  0  0  0  0  0
   59.6234   26.4016   49.0704 H   0  0  0  0  0  0  0  0  0  0  0  0
  1  2  1  0
  2  3  1  0
  3  4  1  0
  4  5  2  0
  4  6  1  0
  6  7  2  0
  7  8  1  0
  8  9  1  0
  9 10  1  0
 10 11  1  0
 11 12  1  0
 12 13  1  0
 13 14  1  0
 14 15  1  0
 15 16  1  0
 16 17  1  0
 17 18  1  0
 18 19  2  0
 19 20  1  0
 20 21  2  0
 21 22  1  0
 22 23  2  0
 16 24  1  0
 24 25  1  0
  9 26  2  0
 26 27  1  0
 27 28  2  0
 28 29  1  0
 29  6  1  0
 28  8  1  0
 25 13  1  0
 23 18  1  0
  1 30  1  0
  1 31  1  0
  1 32  1  0
  2 33  1  0
  2 34  1  0
  7 35  1  0
 10 36  1  0
 10 37  1  0
 11 38  1  0
 11 39  1  0
 12 40  1  0
 12 41  1  0
 13 42  1  0
 14 43  1  0
 14 44  1  0
 15 45  1  0
 15 46  1  0
 17 47  1  0
 17 48  1  0
 19 49  1  0
 20 50  1  0
 21 51  1  0
 22 52  1  0
 23 53  1  0
 24 54  1  0
 24 55  1  0
 25 56  1  0
 25 57  1  0
M  END
>  <UniqueID>  (37) 
33

>  <SMILES>  (37) 
CCOC(=O)c1cn2c(CCCC3CCN(Cc4ccccc4)CC3)nnc2s1

>  <Energy>  (37) 
144.64332444008184

>  <Genealogy>  (37) 
CCOC(=O)c1cn2c(CCCC3CCN(Cc4ccccc4)CC3)nnc2s1 (3D coordinates assigned)
CCOC(=O)c1cn2c(CCCC3CCN(Cc4ccccc4)CC3)nnc2s1 (nonaromatic ring conformer: 144.64332444008184 kcal/mol)

>  <smiles>  (37) 
CCOC(=O)c1cn2c(CCCC3CCN(Cc4ccccc4)CC3)nnc2s1

>  <score_type>  (37) 
oracle

>  <origin>  (37) 
adg

>  <m_score__min__energy>  (37) 
-9.0700000000000003

>  <m_primary>  (37) 
energy

$$$$
37:0
     RDKit          3D

 34 36  0  0  0  0  0  0  0  0999 V2000
   59.3910   31.5650   48.8920 C   0  0  0  0  0  0  0  0  0  0  0  0
   58.8740   31.7720   47.5430 N   0  0  0  0  0  0  0  0  0  0  0  0
   58.1560   30.8850   46.8150 C   0  0  0  0  0  0  0  0  0  0  0  0
   57.8160   31.4370   45.5820 C   0  0  0  0  0  0  0  0  0  0  0  0
   56.9990   30.7760   44.5020 C   0  0  0  0  0  0  0  0  0  0  0  0
   56.2660   29.5900   44.9960 N   0  0  0  0  0  0  0  0  0  0  0  0
   56.9510   28.2910   44.8220 C   0  0  1  0  0  0  0  0  0  0  0  0
   58.4770   28.4390   44.7940 C   0  0  0  0  0  0  0  0  0  0  0  0
   59.0830   27.1830   45.4230 C   0  0  0  0  0  0  0  0  0  0  0  0
   58.0260   26.6860   46.8180 S   0  0  0  0  0  0  0  0  0  0  0  0
   56.6370   27.2880   45.8830 C   0  0  0  0  0  0  0  0  0  0  0  0
   55.5220   26.8090   46.0140 O   0  0  0  0  0  0  0  0  0  0  0  0
   58.3370   32.7200   45.5900 C   0  0  0  0  0  0  0  0  0  0  0  0
   58.2830   33.7440   44.6410 C   0  0  0  0  0  0  0  0  0  0  0  0
   58.9170   34.9600   44.9490 C   0  0  0  0  0  0  0  0  0  0  0  0
   59.5800   35.1310   46.1830 C   0  0  0  0  0  0  0  0  0  0  0  0
   59.6120   34.0870   47.1240 C   0  0  0  0  0  0  0  0  0  0  0  0
   58.9760   32.8870   46.7940 C   0  0  0  0  0  0  0  0  0  0  0  0
   58.6310   31.8693   49.6267 H   0  0  0  0  0  0  0  0  0  0  0  0
   59.6320   30.5010   49.0331 H   0  0  0  0  0  0  0  0  0  0  0  0
   60.2997   32.1686   49.0331 H   0  0  0  0  0  0  0  0  0  0  0  0
   57.8806   29.8738   47.1490 H   0  0  0  0  0  0  0  0  0  0  0  0
   56.2719   31.5042   44.1134 H   0  0  0  0  0  0  0  0  0  0  0  0
   57.6913   30.4393   43.7162 H   0  0  0  0  0  0  0  0  0  0  0  0
   56.0040   29.7090   46.0020 H   0  0  0  0  0  0  0  0  0  0  0  0
   56.5675   27.9294   43.8565 H   0  0  0  0  0  0  0  0  0  0  0  0
   58.8236   28.5411   43.7550 H   0  0  0  0  0  0  0  0  0  0  0  0
   58.7854   29.3346   45.3534 H   0  0  0  0  0  0  0  0  0  0  0  0
   59.1225   26.3745   44.6782 H   0  0  0  0  0  0  0  0  0  0  0  0
   60.1060   27.3864   45.7725 H   0  0  0  0  0  0  0  0  0  0  0  0
   57.7608   33.6030   43.6832 H   0  0  0  0  0  0  0  0  0  0  0  0
   58.8962   35.7853   44.2221 H   0  0  0  0  0  0  0  0  0  0  0  0
   60.0747   36.0869   46.4099 H   0  0  0  0  0  0  0  0  0  0  0  0
   60.1221   34.2108   48.0907 H   0  0  0  0  0  0  0  0  0  0  0  0
  1  2  1  0
  2  3  1  0
  3  4  2  0
  4  5  1  0
  5  6  1  0
  6  7  1  0
  7  8  1  0
  8  9  1  0
  9 10  1  0
 10 11  1  0
 11 12  2  0
  4 13  1  0
 13 14  2  0
 14 15  1  0
 15 16  2  0
 16 17  1  0
 17 18  2  0
 18  2  1  0
 11  7  1  0
 18 13  1  0
  1 19  1  0
  1 20  1  0
  1 21  1  0
  3 22  1  0
  5 23  1  0
  5 24  1  0
  6 25  1  0
  7 26  1  6
  8 27  1  0
  8 28  1  0
  9 29  1  0
  9 30  1  0
 14 31  1  0
 15 32  1  0
 16 33  1  0
 17 34  1  0
M  END
>  <UniqueID>  (38) 
34

>  <SMILES>  (38) 
Cn1cc(CN[C@H]2CCSC2=O)c2ccccc21

>  <Energy>  (38) 
75.13902984372697

>  <Genealogy>  (38) 
Cn1cc(CN[C@H]2CCSC2=O)c2ccccc21 (chirality)
Cn1cc(CN[C@H]2CCSC2=O)c2ccccc21 (3D coordinates assigned)
Cn1cc(CN[C@H]2CCSC2=O)c2ccccc21 (nonaromatic ring conformer: 75.13902984372697 kcal/mol)

>  <smiles>  (38) 
Cn1cc(CNC2CCSC2=O)c2ccccc21

>  <score_type>  (38) 
oracle

>  <origin>  (38) 
adg

>  <m_score__min__energy>  (38) 
-7.5899999999999999

>  <m_primary>  (38) 
energy

$$$$
38:0
     RDKit          3D

 33 34  0  0  0  0  0  0  0  0999 V2000
   57.7780   26.1870   42.6210 C   0  0  0  0  0  0  0  0  0  0  0  0
   58.4050   27.1170   43.6550 C   0  0  0  0  0  0  0  0  0  0  0  0
   57.6700   28.4560   43.7090 C   0  0  0  0  0  0  0  0  0  0  0  0
   57.0230   28.7870   45.3420 S   0  0  0  0  0  0  0  0  0  0  0  0
   56.8300   27.5070   46.1030 O   0  0  0  0  0  0  0  0  0  0  0  0
   55.6810   29.4460   45.1920 O   0  0  0  0  0  0  0  0  0  0  0  0
   58.0810   29.8640   46.2050 N   0  0  0  0  0  0  0  0  0  0  0  0
   58.9860   29.4760   47.1360 C   0  0  0  0  0  0  0  0  0  0  0  0
   59.6680   30.5120   47.6860 N   0  0  0  0  0  0  0  0  0  0  0  0
   59.1460   31.5830   47.0570 C   0  0  0  0  0  0  0  0  0  0  0  0
   58.1910   31.2060   46.1710 C   0  0  0  0  0  0  0  0  0  0  0  0
   57.5100   32.1690   45.4310 C   0  0  0  0  0  0  0  0  0  0  0  0
   56.6340   31.8380   44.5880 O   0  0  0  0  0  0  0  0  0  0  0  0
   57.8160   33.4950   45.6450 N   0  0  0  0  0  0  0  0  0  0  0  0
   57.1260   34.5400   44.8680 C   0  0  0  0  0  0  0  0  0  0  0  0
   58.8130   33.8480   46.5380 C   0  0  0  0  0  0  0  0  0  0  0  0
   59.1040   35.0650   46.7060 O   0  0  0  0  0  0  0  0  0  0  0  0
   59.4940   32.8840   47.2490 N   0  0  0  0  0  0  0  0  0  0  0  0
   60.5170   33.2520   48.2360 C   0  0  0  0  0  0  0  0  0  0  0  0
   57.2343   25.3806   43.1350 H   0  0  0  0  0  0  0  0  0  0  0  0
   57.0791   26.7570   41.9912 H   0  0  0  0  0  0  0  0  0  0  0  0
   58.5685   25.7528   41.9912 H   0  0  0  0  0  0  0  0  0  0  0  0
   58.3548   26.6396   44.6447 H   0  0  0  0  0  0  0  0  0  0  0  0
   59.4504   27.3039   43.3681 H   0  0  0  0  0  0  0  0  0  0  0  0
   58.3698   29.2586   43.4330 H   0  0  0  0  0  0  0  0  0  0  0  0
   56.8246   28.4126   43.0066 H   0  0  0  0  0  0  0  0  0  0  0  0
   59.1513   28.4256   47.4178 H   0  0  0  0  0  0  0  0  0  0  0  0
   56.6530   35.2563   45.5559 H   0  0  0  0  0  0  0  0  0  0  0  0
   57.8545   35.0667   44.2341 H   0  0  0  0  0  0  0  0  0  0  0  0
   56.3555   34.0770   44.2341 H   0  0  0  0  0  0  0  0  0  0  0  0
   60.1165   33.1079   49.2503 H   0  0  0  0  0  0  0  0  0  0  0  0
   61.4044   32.6167   48.0985 H   0  0  0  0  0  0  0  0  0  0  0  0
   60.7964   34.3070   48.0985 H   0  0  0  0  0  0  0  0  0  0  0  0
  1  2  1  0
  2  3  1  0
  3  4  1  0
  4  5  2  0
  4  6  2  0
  4  7  1  0
  7  8  1  0
  8  9  2  0
  9 10  1  0
 10 11  2  0
 11 12  1  0
 12 13  2  0
 12 14  1  0
 14 15  1  0
 14 16  1  0
 16 17  2  0
 16 18  1  0
 18 19  1  0
 11  7  1  0
 18 10  1  0
  1 20  1  0
  1 21  1  0
  1 22  1  0
  2 23  1  0
  2 24  1  0
  3 25  1  0
  3 26  1  0
  8 27  1  0
 15 28  1  0
 15 29  1  0
 15 30  1  0
 19 31  1  0
 19 32  1  0
 19 33  1  0
M  END
>  <UniqueID>  (39) 
35

>  <SMILES>  (39) 
CCCS(=O)(=O)n1cnc2c1c(=O)n(C)c(=O)n2C

>  <Energy>  (39) 
72.37767071675606

>  <Genealogy>  (39) 
CCCS(=O)(=O)n1cnc2c1c(=O)n(C)c(=O)n2C (3D coordinates assigned)
CCCS(=O)(=O)n1cnc2c1c(=O)n(C)c(=O)n2C (optimized conformer: 72.37767071675606 kcal/mol)

>  <smiles>  (39) 
CCCS(=O)(=O)n1cnc2c1c(=O)n(C)c(=O)n2C

>  <score_type>  (39) 
oracle

>  <origin>  (39) 
adg

>  <m_score__min__energy>  (39) 
-6.3600000000000003

>  <m_primary>  (39) 
energy

$$$$
39:0
     RDKit          3D

 41 42  0  0  0  0  0  0  0  0999 V2000
   54.3230   24.9960   45.6160 C   0  0  0  0  0  0  0  0  0  0  0  0
   54.8780   26.2570   45.9770 O   0  0  0  0  0  0  0  0  0  0  0  0
   56.2530   26.5190   46.0850 C   0  0  0  0  0  0  0  0  0  0  0  0
   57.1550   25.5770   46.6190 C   0  0  0  0  0  0  0  0  0  0  0  0
   58.5150   25.8790   46.7120 C   0  0  0  0  0  0  0  0  0  0  0  0
   58.9890   27.1170   46.2770 C   0  0  0  0  0  0  0  0  0  0  0  0
   58.1050   28.0590   45.7460 C   0  0  0  0  0  0  0  0  0  0  0  0
   56.7300   27.7660   45.6470 C   0  0  0  0  0  0  0  0  0  0  0  0
   55.8090   28.6840   45.1230 O   0  0  0  0  0  0  0  0  0  0  0  0
   55.9560   29.3570   43.8740 C   0  0  0  0  0  0  0  0  0  0  0  0
   56.2400   30.8410   44.1090 C   0  0  0  0  0  0  0  0  0  0  0  0
   57.6060   31.1090   44.7580 C   0  0  0  0  0  0  0  0  0  0  0  0
   57.5220   32.2420   45.7100 N   0  0  0  0  0  0  0  0  0  0  0  0
   57.4060   33.5640   45.0320 C   0  0  0  0  0  0  0  0  0  0  0  0
   58.7120   34.3670   45.0650 C   0  0  0  0  0  0  0  0  0  0  0  0
   59.1640   34.6300   46.5130 C   0  0  0  0  0  0  0  0  0  0  0  0
   58.7470   33.5070   47.4770 C   0  0  0  0  0  0  0  0  0  0  0  0
   58.5920   32.1750   46.7340 C   0  0  0  0  0  0  0  0  0  0  0  0
   54.0742   24.4308   46.5263 H   0  0  0  0  0  0  0  0  0  0  0  0
   53.4110   25.1535   45.0215 H   0  0  0  0  0  0  0  0  0  0  0  0
   55.0551   24.4299   45.0215 H   0  0  0  0  0  0  0  0  0  0  0  0
   56.7861   24.5998   46.9639 H   0  0  0  0  0  0  0  0  0  0  0  0
   59.2142   25.1393   47.1291 H   0  0  0  0  0  0  0  0  0  0  0  0
   60.0610   27.3516   46.3524 H   0  0  0  0  0  0  0  0  0  0  0  0
   58.4835   29.0335   45.4037 H   0  0  0  0  0  0  0  0  0  0  0  0
   56.7919   28.9102   43.3158 H   0  0  0  0  0  0  0  0  0  0  0  0
   55.0249   29.2548   43.2973 H   0  0  0  0  0  0  0  0  0  0  0  0
   56.2077   31.3593   43.1393 H   0  0  0  0  0  0  0  0  0  0  0  0
   55.4731   31.2104   44.8058 H   0  0  0  0  0  0  0  0  0  0  0  0
   57.9322   30.2077   45.2977 H   0  0  0  0  0  0  0  0  0  0  0  0
   58.3281   31.3641   43.9684 H   0  0  0  0  0  0  0  0  0  0  0  0
   57.1230   33.3967   43.9823 H   0  0  0  0  0  0  0  0  0  0  0  0
   56.6457   34.1471   45.5724 H   0  0  0  0  0  0  0  0  0  0  0  0
   59.4958   33.8000   44.5413 H   0  0  0  0  0  0  0  0  0  0  0  0
   58.5399   35.3348   44.5713 H   0  0  0  0  0  0  0  0  0  0  0  0
   60.2603   34.7188   46.5290 H   0  0  0  0  0  0  0  0  0  0  0  0
   58.6764   35.5564   46.8507 H   0  0  0  0  0  0  0  0  0  0  0  0
   59.5161   33.3972   48.2557 H   0  0  0  0  0  0  0  0  0  0  0  0
   57.7788   33.7724   47.9266 H   0  0  0  0  0  0  0  0  0  0  0  0
   59.5436   31.9290   46.2402 H   0  0  0  0  0  0  0  0  0  0  0  0
   58.3183   31.4021   47.4673 H   0  0  0  0  0  0  0  0  0  0  0  0
  1  2  1  0
  2  3  1  0
  3  4  2  0
  4  5  1  0
  5  6  2  0
  6  7  1  0
  7  8  2  0
  8  9  1  0
  9 10  1  0
 10 11  1  0
 11 12  1  0
 12 13  1  0
 13 14  1  0
 14 15  1  0
 15 16  1  0
 16 17  1  0
 17 18  1  0
  8  3  1  0
 18 13  1  0
  1 19  1  0
  1 20  1  0
  1 21  1  0
  4 22  1  0
  5 23  1  0
  6 24  1  0
  7 25  1  0
 10 26  1  0
 10 27  1  0
 11 28  1  0
 11 29  1  0
 12 30  1  0
 12 31  1  0
 14 32  1  0
 14 33  1  0
 15 34  1  0
 15 35  1  0
 16 36  1  0
 16 37  1  0
 17 38  1  0
 17 39  1  0
 18 40  1  0
 18 41  1  0
M  END
>  <UniqueID>  (40) 
36

>  <SMILES>  (40) 
COc1ccccc1OCCCN1CCCCC1

>  <Energy>  (40) 
43.93539894952387

>  <Genealogy>  (40) 
COc1ccccc1OCCCN1CCCCC1 (3D coordinates assigned)
COc1ccccc1OCCCN1CCCCC1 (nonaromatic ring conformer: 43.93539894952387 kcal/mol)

>  <smiles>  (40) 
COc1ccccc1OCCCN1CCCCC1

>  <score_type>  (40) 
oracle

>  <origin>  (40) 
adg

>  <m_score__min__energy>  (40) 
-7.5800000000000001

>  <m_primary>  (40) 
energy

$$$$
40:0
     RDKit          3D

 40 42  0  0  0  0  0  0  0  0999 V2000
   56.2420   34.0030   46.5170 H   0  0  0  0  0  0  0  0  0  0  0  0
   57.0150   33.7460   45.8620 N   0  0  0  0  0  0  0  0  0  0  0  0
   57.9270   32.8900   46.1930 C   0  0  0  0  0  0  0  0  0  0  0  0
   57.7090   31.5600   46.0130 N   0  0  0  0  0  0  0  0  0  0  0  0
   58.6490   30.6360   46.3400 C   0  0  0  0  0  0  0  0  0  0  0  0
   58.3540   29.1970   46.1390 C   0  0  0  0  0  0  0  0  0  0  0  0
   59.2200   28.2430   46.6980 C   0  0  0  0  0  0  0  0  0  0  0  0
   60.0926   28.5748   47.2798 H   0  0  0  0  0  0  0  0  0  0  0  0
   58.9850   26.8780   46.5230 C   0  0  0  0  0  0  0  0  0  0  0  0
   59.6763   26.1427   46.9605 H   0  0  0  0  0  0  0  0  0  0  0  0
   57.8700   26.4400   45.7910 C   0  0  0  0  0  0  0  0  0  0  0  0
   57.5950   25.0800   45.5840 O   0  0  0  0  0  0  0  0  0  0  0  0
   57.2060   24.5190   44.3350 C   0  0  0  0  0  0  0  0  0  0  0  0
   56.5872   23.6267   44.5107 H   0  0  0  0  0  0  0  0  0  0  0  0
   56.6270   25.2602   43.7646 H   0  0  0  0  0  0  0  0  0  0  0  0
   58.1031   24.2366   43.7646 H   0  0  0  0  0  0  0  0  0  0  0  0
   56.9940   27.3850   45.2480 C   0  0  0  0  0  0  0  0  0  0  0  0
   56.1182   27.0456   44.6755 H   0  0  0  0  0  0  0  0  0  0  0  0
   57.2160   28.7650   45.4230 C   0  0  0  0  0  0  0  0  0  0  0  0
   56.3160   29.7230   44.9240 O   0  0  0  0  0  0  0  0  0  0  0  0
   56.2260   30.1180   43.5600 C   0  0  0  0  0  0  0  0  0  0  0  0
   55.9820   31.1891   43.5038 H   0  0  0  0  0  0  0  0  0  0  0  0
   57.1889   29.9347   43.0609 H   0  0  0  0  0  0  0  0  0  0  0  0
   55.4375   29.5356   43.0609 H   0  0  0  0  0  0  0  0  0  0  0  0
   59.8590   31.0620   46.9010 C   0  0  0  0  0  0  0  0  0  0  0  0
   60.6242   30.3297   47.1981 H   0  0  0  0  0  0  0  0  0  0  0  0
   60.0820   32.4350   47.0790 C   0  0  0  0  0  0  0  0  0  0  0  0
   61.3580   32.9180   47.6640 C   0  0  0  0  0  0  0  0  0  0  0  0
   62.5940   32.5350   47.1090 C   0  0  0  0  0  0  0  0  0  0  0  0
   62.6170   31.8684   46.2343 H   0  0  0  0  0  0  0  0  0  0  0  0
   63.7920   32.9960   47.6620 C   0  0  0  0  0  0  0  0  0  0  0  0
   64.7531   32.6939   47.2204 H   0  0  0  0  0  0  0  0  0  0  0  0
   63.7700   33.8400   48.7750 C   0  0  0  0  0  0  0  0  0  0  0  0
   64.7138   34.2008   49.2098 H   0  0  0  0  0  0  0  0  0  0  0  0
   62.5510   34.2260   49.3360 C   0  0  0  0  0  0  0  0  0  0  0  0
   62.5355   34.8896   50.2132 H   0  0  0  0  0  0  0  0  0  0  0  0
   61.3500   33.7700   48.7840 C   0  0  0  0  0  0  0  0  0  0  0  0
   60.3924   34.0793   49.2282 H   0  0  0  0  0  0  0  0  0  0  0  0
   59.1070   33.3200   46.7170 N   0  0  0  0  0  0  0  0  0  0  0  0
   59.2680   34.3480   46.8260 H   0  0  0  0  0  0  0  0  0  0  0  0
  1  2  1  0
  2  3  2  0
  3  4  1  0
  4  5  2  0
  5  6  1  0
  6  7  2  0
  7  8  1  0
  7  9  1  0
  9 10  1  0
  9 11  2  0
 11 12  1  0
 12 13  1  0
 13 14  1  0
 13 15  1  0
 13 16  1  0
 11 17  1  0
 17 18  1  0
 17 19  2  0
 19 20  1  0
 20 21  1  0
 21 22  1  0
 21 23  1  0
 21 24  1  0
  5 25  1  0
 25 26  1  0
 25 27  2  0
 27 28  1  0
 28 29  2  0
 29 30  1  0
 29 31  1  0
 31 32  1  0
 31 33  2  0
 33 34  1  0
 33 35  1  0
 35 36  1  0
 35 37  2  0
 37 38  1  0
 27 39  1  0
 39 40  1  0
 39  3  1  0
 19  6  1  0
 37 28  1  0
M  END
>  <UniqueID>  (41) 
37

>  <SMILES>  (41) 
[H]/N=c1\nc(-c2ccc(OC)cc2OC)cc(-c2ccccc2)[nH]1

>  <Energy>  (41) 
52.121220652993586

>  <Genealogy>  (41) 
[H]/N=c1\nc(-c2ccc(OC)cc2OC)cc(-c2ccccc2)[nH]1 (cis-trans isomerization)
[H]/N=c1\nc(-c2ccc(OC)cc2OC)cc(-c2ccccc2)[nH]1 (3D coordinates assigned)
[H]/N=c1\nc(-c2ccc(OC)cc2OC)cc(-c2ccccc2)[nH]1 (optimized conformer: 52.121220652993586 kcal/mol)

>  <smiles>  (41) 
COc1ccc(-c2cc(-c3ccccc3)[nH]c(=N)n2)c(OC)c1

>  <score_type>  (41) 
oracle

>  <origin>  (41) 
adg

>  <m_score__min__energy>  (41) 
-6.8499999999999996

>  <m_primary>  (41) 
energy

$$$$
41:0
     RDKit          3D

 39 41  0  0  0  0  0  0  0  0999 V2000
   63.3760   33.7960   46.5910 C   0  0  0  0  0  0  0  0  0  0  0  0
   63.4100   32.3700   47.1260 C   0  0  0  0  0  0  0  0  0  0  0  0
   63.1420   32.3560   48.9340 S   0  0  0  0  0  0  0  0  0  0  0  0
   62.6040   34.1020   49.0630 C   0  0  0  0  0  0  0  0  0  0  0  0
   61.1050   34.2720   49.4060 C   0  0  1  0  0  0  0  0  0  0  0  0
   60.2370   33.8730   48.2420 C   0  0  0  0  0  0  0  0  0  0  0  0
   59.8430   34.6740   47.2680 O   0  0  0  0  0  0  0  0  0  0  0  0
   59.0460   33.9730   46.4910 C   0  0  0  0  0  0  0  0  0  0  0  0
   58.3880   34.4000   45.3420 C   0  0  0  0  0  0  0  0  0  0  0  0
   57.5740   33.4740   44.6640 C   0  0  0  0  0  0  0  0  0  0  0  0
   57.4330   32.1400   45.1450 C   0  0  0  0  0  0  0  0  0  0  0  0
   56.6320   31.1910   44.4950 O   0  0  0  0  0  0  0  0  0  0  0  0
   57.0100   30.4950   43.3120 C   0  0  0  0  0  0  0  0  0  0  0  0
   58.1170   31.7460   46.3130 C   0  0  0  0  0  0  0  0  0  0  0  0
   58.9110   32.6900   46.9570 C   0  0  0  0  0  0  0  0  0  0  0  0
   59.6980   32.6130   48.0780 C   0  0  0  0  0  0  0  0  0  0  0  0
   59.9840   31.2490   49.1890 S   0  0  0  0  0  0  0  0  0  0  0  0
   59.7900   32.3400   50.6050 C   0  0  0  0  0  0  0  0  0  0  0  0
   58.9430   32.0630   51.4410 O   0  0  0  0  0  0  0  0  0  0  0  0
   60.5990   33.6260   50.7560 C   0  0  1  0  0  0  0  0  0  0  0  0
   61.6820   33.4510   51.8290 C   0  0  0  0  0  0  0  0  0  0  0  0
   63.3591   34.5033   47.4333 H   0  0  0  0  0  0  0  0  0  0  0  0
   64.2700   33.9786   45.9767 H   0  0  0  0  0  0  0  0  0  0  0  0
   62.4743   33.9358   45.9767 H   0  0  0  0  0  0  0  0  0  0  0  0
   62.6186   31.7818   46.6385 H   0  0  0  0  0  0  0  0  0  0  0  0
   64.3961   31.9331   46.9098 H   0  0  0  0  0  0  0  0  0  0  0  0
   63.1971   34.5899   49.8505 H   0  0  0  0  0  0  0  0  0  0  0  0
   62.7591   34.5580   48.0740 H   0  0  0  0  0  0  0  0  0  0  0  0
   61.0057   35.3504   49.5989 H   0  0  0  0  0  0  0  0  0  0  0  0
   58.5007   35.4307   44.9746 H   0  0  0  0  0  0  0  0  0  0  0  0
   57.0408   33.7831   43.7529 H   0  0  0  0  0  0  0  0  0  0  0  0
   57.5186   29.5584   43.5843 H   0  0  0  0  0  0  0  0  0  0  0  0
   56.1125   30.2657   42.7188 H   0  0  0  0  0  0  0  0  0  0  0  0
   57.6910   31.1230   42.7188 H   0  0  0  0  0  0  0  0  0  0  0  0
   58.0257   30.7219   46.7040 H   0  0  0  0  0  0  0  0  0  0  0  0
   59.9005   34.3967   51.1139 H   0  0  0  0  0  0  0  0  0  0  0  0
   61.2249   33.5249   52.8268 H   0  0  0  0  0  0  0  0  0  0  0  0
   62.1554   32.4647   51.7147 H   0  0  0  0  0  0  0  0  0  0  0  0
   62.4420   34.2380   51.7147 H   0  0  0  0  0  0  0  0  0  0  0  0
  1  2  1  0
  2  3  1  0
  3  4  1  0
  4  5  1  0
  5  6  1  0
  6  7  1  0
  7  8  1  0
  8  9  2  0
  9 10  1  0
 10 11  2  0
 11 12  1  0
 12 13  1  0
 11 14  1  0
 14 15  2  0
 15 16  1  0
 16 17  1  0
 17 18  1  0
 18 19  2  0
 18 20  1  0
 20 21  1  0
 20  5  1  0
 16  6  2  0
 15  8  1  0
  1 22  1  0
  1 23  1  0
  1 24  1  0
  2 25  1  0
  2 26  1  0
  4 27  1  0
  4 28  1  0
  5 29  1  1
  9 30  1  0
 10 31  1  0
 13 32  1  0
 13 33  1  0
 13 34  1  0
 14 35  1  0
 20 36  1  1
 21 37  1  0
 21 38  1  0
 21 39  1  0
M  END
>  <UniqueID>  (42) 
38

>  <SMILES>  (42) 
CCSC[C@H]1c2oc3ccc(OC)cc3c2SC(=O)[C@H]1C

>  <Energy>  (42) 
81.89108608657813

>  <Genealogy>  (42) 
CCSC[C@H]1c2oc3ccc(OC)cc3c2SC(=O)[C@H]1C (chirality)
CCSC[C@H]1c2oc3ccc(OC)cc3c2SC(=O)[C@H]1C (3D coordinates assigned)
CCSC[C@H]1c2oc3ccc(OC)cc3c2SC(=O)[C@H]1C (nonaromatic ring conformer: 81.89108608657813 kcal/mol)

>  <smiles>  (42) 
CCSCC1c2oc3ccc(OC)cc3c2SC(=O)C1C

>  <score_type>  (42) 
oracle

>  <origin>  (42) 
adg

>  <m_score__min__energy>  (42) 
-6.9000000000000004

>  <m_primary>  (42) 
energy

$$$$
42:0
     RDKit          3D

 30 31  0  0  1  0  0  0  0  0999 V2000
   56.4670   24.4720   44.7170 C   0  0  0  0  0  0  0  0  0  0  0  0
   55.2710   24.7870   45.6100 C   0  0  0  0  0  0  0  0  0  0  0  0
   55.5130   26.0300   46.2780 N   0  0  0  0  0  0  0  0  0  0  0  0
   56.6340   26.6380   46.1320 C   0  0  0  0  0  0  0  0  0  0  0  0
   57.6470   26.2370   46.9360 N   0  0  0  0  0  0  0  0  0  0  0  0
   58.8700   26.8220   46.8500 C   0  0  0  0  0  0  0  0  0  0  0  0
   59.0760   27.8330   45.9360 C   0  0  0  0  0  0  0  0  0  0  0  0
   58.0410   28.2190   45.1390 C   0  0  0  0  0  0  0  0  0  0  0  0
   58.2170   29.1490   44.2920 N   0  0  0  0  0  0  0  0  0  0  0  0
   57.0390   30.3650   44.0060 S   0  0  0  0  0  0  0  0  0  0  0  0
   55.7020   30.0620   44.5650 O   0  0  0  0  0  0  0  0  0  0  0  0
   56.8780   30.6540   42.5390 O   0  0  0  0  0  0  0  0  0  0  0  0
   57.6290   31.8090   44.8210 C   0  0  0  0  0  0  0  0  0  0  0  0
   57.4560   33.1240   44.4820 C   0  0  0  0  0  0  0  0  0  0  0  0
   58.0040   34.0570   45.2640 C   0  0  0  0  0  0  0  0  0  0  0  0
   58.7120   33.6290   46.3670 C   0  0  0  0  0  0  0  0  0  0  0  0
   59.6400   34.5710   47.7270 Br  0  0  0  0  0  0  0  0  0  0  0  0
   58.6000   31.7620   46.3050 S   0  0  0  0  0  0  0  0  0  0  0  0
   56.8280   27.6210   45.2380 N   0  0  0  0  0  0  0  0  0  0  0  0
   57.3416   24.2417   45.3432 H   0  0  0  0  0  0  0  0  0  0  0  0
   56.2322   23.6051   44.0819 H   0  0  0  0  0  0  0  0  0  0  0  0
   56.6897   25.3421   44.0819 H   0  0  0  0  0  0  0  0  0  0  0  0
   54.3616   24.8672   44.9964 H   0  0  0  0  0  0  0  0  0  0  0  0
   55.1330   23.9843   46.3493 H   0  0  0  0  0  0  0  0  0  0  0  0
   57.5080   25.4590   47.6460 H   0  0  0  0  0  0  0  0  0  0  0  0
   59.6897   26.4914   47.5048 H   0  0  0  0  0  0  0  0  0  0  0  0
   60.0589   28.3195   45.8517 H   0  0  0  0  0  0  0  0  0  0  0  0
   56.8800   33.4048   43.5879 H   0  0  0  0  0  0  0  0  0  0  0  0
   57.8947   35.1277   45.0367 H   0  0  0  0  0  0  0  0  0  0  0  0
   56.0390   27.9060   44.6400 H   0  0  0  0  0  0  0  0  0  0  0  0
  1  2  1  0
  2  3  1  0
  3  4  2  0
  4  5  1  0
  5  6  1  0
  6  7  2  0
  7  8  1  0
  8  9  2  0
  9 10  1  0
 10 11  2  0
 10 12  2  0
 10 13  1  0
 13 14  2  0
 14 15  1  0
 15 16  2  0
 16 17  1  0
 16 18  1  0
  8 19  1  0
 19  4  1  0
 18 13  1  0
  1 20  1  0
  1 21  1  0
  1 22  1  0
  2 23  1  0
  2 24  1  0
  5 25  1  0
  6 26  1  0
  7 27  1  0
 14 28  1  0
 15 29  1  0
 19 30  1  0
M  END
>  <smiles>  (43) 
CCN=c1[nH]ccc(=NS(=O)(=O)c2ccc(Br)s2)[nH]1

>  <score_type>  (43) 
oracle

>  <origin>  (43) 
adg

>  <m_score__min__energy>  (43) 
-7.7800000000000002

>  <m_primary>  (43) 
energy

$$$$
43:0
     RDKit          3D

 29 31  0  0  0  0  0  0  0  0999 V2000
   56.6250   30.3820   43.3730 C   0  0  0  0  0  0  0  0  0  0  0  0
   56.4050   31.2120   44.5090 O   0  0  0  0  0  0  0  0  0  0  0  0
   57.3990   31.9870   45.1250 C   0  0  0  0  0  0  0  0  0  0  0  0
   57.4000   33.3840   44.8940 C   0  0  0  0  0  0  0  0  0  0  0  0
   58.3710   34.2130   45.4840 C   0  0  0  0  0  0  0  0  0  0  0  0
   59.3240   33.6090   46.2980 C   0  0  0  0  0  0  0  0  0  0  0  0
   60.3350   34.1820   46.9610 N   0  0  0  0  0  0  0  0  0  0  0  0
   60.9480   33.1440   47.5920 C   0  0  0  0  0  0  0  0  0  0  0  0
   62.1420   33.2790   48.4660 C   0  0  0  0  0  0  0  0  0  0  0  0
   63.3310   32.5990   48.1350 C   0  0  0  0  0  0  0  0  0  0  0  0
   64.4650   32.7140   48.9450 C   0  0  0  0  0  0  0  0  0  0  0  0
   64.4280   33.5080   50.0930 C   0  0  0  0  0  0  0  0  0  0  0  0
   65.5290   33.6180   50.8780 F   0  0  0  0  0  0  0  0  0  0  0  0
   63.2570   34.1880   50.4330 C   0  0  0  0  0  0  0  0  0  0  0  0
   62.1200   34.0770   49.6260 C   0  0  0  0  0  0  0  0  0  0  0  0
   60.3520   31.9440   47.3450 N   0  0  0  0  0  0  0  0  0  0  0  0
   59.3350   32.2680   46.5290 C   0  0  0  0  0  0  0  0  0  0  0  0
   58.3910   31.4150   45.9630 C   0  0  0  0  0  0  0  0  0  0  0  0
   56.8936   29.3686   43.7059 H   0  0  0  0  0  0  0  0  0  0  0  0
   55.7075   30.3380   42.7678 H   0  0  0  0  0  0  0  0  0  0  0  0
   57.4438   30.7983   42.7678 H   0  0  0  0  0  0  0  0  0  0  0  0
   56.6309   33.8270   44.2442 H   0  0  0  0  0  0  0  0  0  0  0  0
   58.3767   35.2989   45.3083 H   0  0  0  0  0  0  0  0  0  0  0  0
   60.5750   35.1980   46.9750 H   0  0  0  0  0  0  0  0  0  0  0  0
   63.3674   31.9723   47.2317 H   0  0  0  0  0  0  0  0  0  0  0  0
   65.3876   32.1781   48.6774 H   0  0  0  0  0  0  0  0  0  0  0  0
   63.2285   34.8127   51.3379 H   0  0  0  0  0  0  0  0  0  0  0  0
   61.2016   34.6172   49.8996 H   0  0  0  0  0  0  0  0  0  0  0  0
   58.4136   30.3329   46.1592 H   0  0  0  0  0  0  0  0  0  0  0  0
  1  2  1  0
  2  3  1  0
  3  4  2  0
  4  5  1  0
  5  6  2  0
  6  7  1  0
  7  8  1  0
  8  9  1  0
  9 10  2  0
 10 11  1  0
 11 12  2  0
 12 13  1  0
 12 14  1  0
 14 15  2  0
  8 16  2  0
 16 17  1  0
 17 18  2  0
 18  3  1  0
 17  6  1  0
 15  9  1  0
  1 19  1  0
  1 20  1  0
  1 21  1  0
  4 22  1  0
  5 23  1  0
  7 24  1  0
 10 25  1  0
 11 26  1  0
 14 27  1  0
 15 28  1  0
 18 29  1  0
M  END
>  <UniqueID>  (44) 
39

>  <SMILES>  (44) 
COc1ccc2[nH]c(-c3ccc(F)cc3)nc2c1

>  <Energy>  (44) 
68.93188257989857

>  <Genealogy>  (44) 
COc1ccc2[nH]c(-c3ccc(F)cc3)nc2c1 (3D coordinates assigned)
COc1ccc2[nH]c(-c3ccc(F)cc3)nc2c1 (optimized conformer: 68.93188257989857 kcal/mol)

>  <smiles>  (44) 
COc1ccc2[nH]c(-c3ccc(F)cc3)nc2c1

>  <score_type>  (44) 
oracle

>  <origin>  (44) 
adg

>  <m_score__min__energy>  (44) 
-5.8799999999999999

>  <m_primary>  (44) 
energy

$$$$
44:0
     RDKit          3D

 59 63  0  0  0  0  0  0  0  0999 V2000
   59.0802   34.5632   49.5048 H   0  0  0  0  0  0  0  0  0  0  0  0
   59.5890   34.1340   48.6290 C   0  0  0  0  0  0  0  0  0  0  0  0
   60.9770   34.0100   48.6270 C   0  0  0  0  0  0  0  0  0  0  0  0
   61.5557   34.3446   49.5006 H   0  0  0  0  0  0  0  0  0  0  0  0
   61.6450   33.4600   47.5160 C   0  0  0  0  0  0  0  0  0  0  0  0
   63.1350   33.3680   47.4570 C   0  0  0  0  0  0  0  0  0  0  0  0
   63.7640   34.2090   46.7490 O   0  0  0  0  0  0  0  0  0  0  0  0
   63.8760   32.3980   48.2440 N   0  0  0  0  0  0  0  0  0  0  0  0
   64.5940   31.9250   47.6470 H   0  0  0  0  0  0  0  0  0  0  0  0
   62.9510   31.3830   48.7730 C   0  0  0  0  0  0  0  0  0  0  0  0
   62.9716   31.4056   49.8726 H   0  0  0  0  0  0  0  0  0  0  0  0
   61.9311   31.5973   48.4209 H   0  0  0  0  0  0  0  0  0  0  0  0
   63.2588   30.3874   48.4209 H   0  0  0  0  0  0  0  0  0  0  0  0
   64.6060   33.0440   49.3500 C   0  0  0  0  0  0  0  0  0  0  0  0
   64.2049   32.6891   50.3108 H   0  0  0  0  0  0  0  0  0  0  0  0
   65.6741   32.7899   49.2822 H   0  0  0  0  0  0  0  0  0  0  0  0
   64.4837   34.1351   49.2822 H   0  0  0  0  0  0  0  0  0  0  0  0
   60.8780   33.0320   46.4150 C   0  0  0  0  0  0  0  0  0  0  0  0
   61.3827   32.5843   45.5462 H   0  0  0  0  0  0  0  0  0  0  0  0
   59.4780   33.1670   46.4070 C   0  0  0  0  0  0  0  0  0  0  0  0
   58.7060   32.7510   45.2610 N   0  0  0  0  0  0  0  0  0  0  0  0
   58.5050   33.4550   44.1150 C   0  0  0  0  0  0  0  0  0  0  0  0
   58.9001   34.4638   43.9247 H   0  0  0  0  0  0  0  0  0  0  0  0
   57.7300   32.7250   43.2130 C   0  0  0  0  0  0  0  0  0  0  0  0
   57.3992   33.0350   42.2108 H   0  0  0  0  0  0  0  0  0  0  0  0
   57.4700   31.5360   43.8480 C   0  0  0  0  0  0  0  0  0  0  0  0
   56.8120   30.3870   43.4360 C   0  0  0  0  0  0  0  0  0  0  0  0
   56.3174   30.3366   42.4547 H   0  0  0  0  0  0  0  0  0  0  0  0
   56.7980   29.3190   44.2890 N   0  0  0  0  0  0  0  0  0  0  0  0
   57.4230   29.3640   45.5100 C   0  0  0  0  0  0  0  0  0  0  0  0
   57.3640   28.3160   46.2800 N   0  0  0  0  0  0  0  0  0  0  0  0
   57.2460   26.9380   45.8940 C   0  0  0  0  0  0  0  0  0  0  0  0
   58.4090   26.2520   45.5290 C   0  0  0  0  0  0  0  0  0  0  0  0
   59.3636   26.7948   45.4649 H   0  0  0  0  0  0  0  0  0  0  0  0
   58.3710   24.8850   45.2450 C   0  0  0  0  0  0  0  0  0  0  0  0
   59.2917   24.3648   44.9422 H   0  0  0  0  0  0  0  0  0  0  0  0
   57.1660   24.1690   45.3430 C   0  0  0  0  0  0  0  0  0  0  0  0
   57.1470   22.7360   45.1530 N   0  0  0  0  0  0  0  0  0  0  0  0
   58.1160   22.0520   44.2860 C   0  0  0  0  0  0  0  0  0  0  0  0
   58.7026   22.7993   43.7316 H   0  0  0  0  0  0  0  0  0  0  0  0
   58.7897   21.4392   44.9030 H   0  0  0  0  0  0  0  0  0  0  0  0
   57.3640   21.1410   43.2850 C   0  0  0  0  0  0  0  0  0  0  0  0
   57.3313   21.6501   42.3104 H   0  0  0  0  0  0  0  0  0  0  0  0
   57.9127   20.1885   43.2456 H   0  0  0  0  0  0  0  0  0  0  0  0
   56.0270   20.8330   43.6760 O   0  0  0  0  0  0  0  0  0  0  0  0
   55.9520   20.5850   45.0680 C   0  0  0  0  0  0  0  0  0  0  0  0
   54.9668   20.1612   45.3123 H   0  0  0  0  0  0  0  0  0  0  0  0
   56.7394   19.8730   45.3563 H   0  0  0  0  0  0  0  0  0  0  0  0
   56.1470   21.9010   45.8340 C   0  0  0  0  0  0  0  0  0  0  0  0
   55.1902   22.4418   45.8783 H   0  0  0  0  0  0  0  0  0  0  0  0
   56.4968   21.6773   46.8526 H   0  0  0  0  0  0  0  0  0  0  0  0
   55.9980   24.8590   45.7170 C   0  0  0  0  0  0  0  0  0  0  0  0
   55.0448   24.3152   45.7922 H   0  0  0  0  0  0  0  0  0  0  0  0
   56.0370   26.2290   45.9940 C   0  0  0  0  0  0  0  0  0  0  0  0
   55.1173   26.7540   46.2915 H   0  0  0  0  0  0  0  0  0  0  0  0
   58.0710   30.5060   45.9040 N   0  0  0  0  0  0  0  0  0  0  0  0
   58.0720   31.5770   45.0700 C   0  0  0  0  0  0  0  0  0  0  0  0
   58.8410   33.7180   47.5290 C   0  0  0  0  0  0  0  0  0  0  0  0
   57.7460   33.8222   47.5406 H   0  0  0  0  0  0  0  0  0  0  0  0
  1  2  1  0
  2  3  2  0
  3  4  1  0
  3  5  1  0
  5  6  1  0
  6  7  2  0
  6  8  1  0
  8  9  1  0
  8 10  1  0
 10 11  1  0
 10 12  1  0
 10 13  1  0
  8 14  1  0
 14 15  1  0
 14 16  1  0
 14 17  1  0
  5 18  2  0
 18 19  1  0
 18 20  1  0
 20 21  1  0
 21 22  1  0
 22 23  1  0
 22 24  2  0
 24 25  1  0
 24 26  1  0
 26 27  2  0
 27 28  1  0
 27 29  1  0
 29 30  1  0
 30 31  2  0
 31 32  1  0
 32 33  2  0
 33 34  1  0
 33 35  1  0
 35 36  1  0
 35 37  2  0
 37 38  1  0
 38 39  1  0
 39 40  1  0
 39 41  1  0
 39 42  1  0
 42 43  1  0
 42 44  1  0
 42 45  1  0
 45 46  1  0
 46 47  1  0
 46 48  1  0
 46 49  1  0
 49 50  1  0
 49 51  1  0
 37 52  1  0
 52 53  1  0
 52 54  2  0
 54 55  1  0
 30 56  1  0
 56 57  2  0
 20 58  2  0
 58 59  1  0
 58  2  1  0
 57 21  1  0
 57 26  1  0
 54 32  1  0
 49 38  1  0
M  CHG  2   8   1  29  -1
M  END
>  <UniqueID>  (45) 
40

>  <SMILES>  (45) 
C[NH+](C)C(=O)c1cccc(-n2ccc3c[n-]/c(=N/c4ccc(N5CCOCC5)cc4)nc32)c1

>  <Energy>  (45) 
124.39181356776284

>  <Genealogy>  (45) 
C[NH+](C)C(=O)c1cccc(-n2ccc3c[n-]c(=Nc4ccc(N5CCOCC5)cc4)nc32)c1 (protonated)
C[NH+](C)C(=O)c1cccc(-n2ccc3c[n-]/c(=N/c4ccc(N5CCOCC5)cc4)nc32)c1 (cis-trans isomerization)
C[NH+](C)C(=O)c1cccc(-n2ccc3c[n-]/c(=N/c4ccc(N5CCOCC5)cc4)nc32)c1 (3D coordinates assigned)
C[NH+](C)C(=O)c1cccc(-n2ccc3c[n-]/c(=N/c4ccc(N5CCOCC5)cc4)nc32)c1 (nonaromatic ring conformer: 124.39181356776284 kcal/mol)

>  <smiles>  (45) 
CN(C)C(=O)c1cccc(-n2ccc3c[nH]c(=Nc4ccc(N5CCOCC5)cc4)nc32)c1

>  <score_type>  (45) 
oracle

>  <origin>  (45) 
adg

>  <m_score__min__energy>  (45) 
-10.44

>  <m_primary>  (45) 
energy

$$$$
45:0
     RDKit          3D

 31 33  0  0  0  0  0  0  0  0999 V2000
   55.8520   25.2520   45.8580 C   0  0  0  0  0  0  0  0  0  0  0  0
   56.6290   26.5320   46.1140 C   0  0  0  0  0  0  0  0  0  0  0  0
   55.8890   27.6440   45.6210 O   0  0  0  0  0  0  0  0  0  0  0  0
   56.4820   28.6840   44.9000 C   0  0  0  0  0  0  0  0  0  0  0  0
   55.9080   29.8020   44.7900 O   0  0  0  0  0  0  0  0  0  0  0  0
   57.7840   28.4480   44.2150 C   0  0  0  0  0  0  0  0  0  0  0  0
   59.0950   29.3570   45.0920 S   0  0  0  0  0  0  0  0  0  0  0  0
   58.5300   30.9530   44.5070 C   0  0  0  0  0  0  0  0  0  0  0  0
   57.9280   31.1700   43.3140 N   0  0  0  0  0  0  0  0  0  0  0  0
   57.6280   32.4650   43.2090 N   0  0  0  0  0  0  0  0  0  0  0  0
   58.0680   32.9970   44.3620 C   0  0  0  0  0  0  0  0  0  0  0  0
   58.0310   34.5640   44.9900 S   0  0  0  0  0  0  0  0  0  0  0  0
   58.7950   34.0080   46.4200 C   0  0  0  0  0  0  0  0  0  0  0  0
   59.1480   34.7460   47.5470 C   0  0  0  0  0  0  0  0  0  0  0  0
   59.7600   34.0730   48.6180 C   0  0  0  0  0  0  0  0  0  0  0  0
   60.0060   32.6860   48.5470 C   0  0  0  0  0  0  0  0  0  0  0  0
   59.6470   31.9530   47.4040 C   0  0  0  0  0  0  0  0  0  0  0  0
   59.0420   32.6340   46.3460 C   0  0  0  0  0  0  0  0  0  0  0  0
   58.6190   32.1120   45.1740 N   0  0  0  0  0  0  0  0  0  0  0  0
   55.5738   24.7937   46.8185 H   0  0  0  0  0  0  0  0  0  0  0  0
   54.9420   25.4838   45.2851 H   0  0  0  0  0  0  0  0  0  0  0  0
   56.4776   24.5517   45.2851 H   0  0  0  0  0  0  0  0  0  0  0  0
   56.7930   26.6512   47.1952 H   0  0  0  0  0  0  0  0  0  0  0  0
   57.5996   26.4805   45.5990 H   0  0  0  0  0  0  0  0  0  0  0  0
   58.0140   27.3723   44.2224 H   0  0  0  0  0  0  0  0  0  0  0  0
   57.7232   28.7994   43.1744 H   0  0  0  0  0  0  0  0  0  0  0  0
   57.7190   30.4530   42.5830 H   0  0  0  0  0  0  0  0  0  0  0  0
   58.9529   35.8274   47.5975 H   0  0  0  0  0  0  0  0  0  0  0  0
   60.0497   34.6327   49.5195 H   0  0  0  0  0  0  0  0  0  0  0  0
   60.4836   32.1734   49.3950 H   0  0  0  0  0  0  0  0  0  0  0  0
   59.8374   30.8713   47.3440 H   0  0  0  0  0  0  0  0  0  0  0  0
  1  2  1  0
  2  3  1  0
  3  4  1  0
  4  5  2  0
  4  6  1  0
  6  7  1  0
  7  8  1  0
  8  9  2  0
  9 10  1  0
 10 11  2  0
 11 12  1  0
 12 13  1  0
 13 14  2  0
 14 15  1  0
 15 16  2  0
 16 17  1  0
 17 18  2  0
 18 19  1  0
 19  8  1  0
 19 11  1  0
 18 13  1  0
  1 20  1  0
  1 21  1  0
  1 22  1  0
  2 23  1  0
  2 24  1  0
  6 25  1  0
  6 26  1  0
  9 27  1  0
 14 28  1  0
 15 29  1  0
 16 30  1  0
 17 31  1  0
M  CHG  1   9   1
M  END
>  <UniqueID>  (46) 
41

>  <SMILES>  (46) 
CCOC(=O)CSc1[nH+]nc2sc3ccccc3n12

>  <Energy>  (46) 
114.90223978166922

>  <Genealogy>  (46) 
CCOC(=O)CSc1[nH+]nc2sc3ccccc3n12 (protonated)
CCOC(=O)CSc1[nH+]nc2sc3ccccc3n12 (3D coordinates assigned)
CCOC(=O)CSc1[nH+]nc2sc3ccccc3n12 (optimized conformer: 114.90223978166922 kcal/mol)

>  <smiles>  (46) 
CCOC(=O)CSc1nnc2sc3ccccc3n12

>  <score_type>  (46) 
oracle

>  <origin>  (46) 
adg

>  <m_score__min__energy>  (46) 
-6.0899999999999999

>  <m_primary>  (46) 
energy

$$$$
46:0
     RDKit          3D

 51 54  0  0  0  0  0  0  0  0999 V2000
   59.7370   29.7290   47.9460 C   0  0  0  0  0  0  0  0  0  0  0  0
   60.5510   30.1450   46.3720 S   0  0  0  0  0  0  0  0  0  0  0  0
   59.0140   30.1510   45.4400 C   0  0  0  0  0  0  0  0  0  0  0  0
   58.5460   28.9510   44.8900 C   0  0  0  0  0  0  0  0  0  0  0  0
   57.3690   28.9320   44.1380 C   0  0  0  0  0  0  0  0  0  0  0  0
   56.6480   30.1120   43.9350 C   0  0  0  0  0  0  0  0  0  0  0  0
   55.5050   30.0900   43.2080 F   0  0  0  0  0  0  0  0  0  0  0  0
   57.1020   31.3120   44.4890 C   0  0  0  0  0  0  0  0  0  0  0  0
   58.2830   31.3420   45.2480 C   0  0  0  0  0  0  0  0  0  0  0  0
   58.7160   32.5740   45.8440 N   0  0  0  0  0  0  0  0  0  0  0  0
   58.3280   32.8800   47.2220 C   0  0  0  0  0  0  0  0  0  0  0  0
   59.4520   33.6310   47.9680 C   0  0  0  0  0  0  0  0  0  0  0  0
   60.3230   34.4630   47.0940 N   0  0  0  0  0  0  0  0  0  0  0  0
   61.6490   33.8380   46.8890 C   0  0  0  0  0  0  0  0  0  0  0  0
   62.4320   33.7770   48.1660 C   0  0  0  0  0  0  0  0  0  0  0  0
   62.1280   34.4360   49.3420 C   0  0  0  0  0  0  0  0  0  0  0  0
   63.1040   34.0290   50.2300 C   0  0  0  0  0  0  0  0  0  0  0  0
   63.9390   33.1730   49.6010 N   0  0  0  0  0  0  0  0  0  0  0  0
   65.0850   32.5160   50.1760 C   0  0  0  0  0  0  0  0  0  0  0  0
   66.3620   33.1050   50.0930 C   0  0  0  0  0  0  0  0  0  0  0  0
   67.4730   32.4670   50.6500 C   0  0  0  0  0  0  0  0  0  0  0  0
   67.3270   31.2360   51.2940 C   0  0  0  0  0  0  0  0  0  0  0  0
   66.0660   30.6420   51.3840 C   0  0  0  0  0  0  0  0  0  0  0  0
   64.9500   31.2770   50.8300 C   0  0  0  0  0  0  0  0  0  0  0  0
   63.5290   33.0210   48.3500 N   0  0  0  0  0  0  0  0  0  0  0  0
   59.6560   34.8570   45.8320 C   0  0  0  0  0  0  0  0  0  0  0  0
   59.2540   33.6370   44.9920 C   0  0  0  0  0  0  0  0  0  0  0  0
   60.3716   30.0533   48.7839 H   0  0  0  0  0  0  0  0  0  0  0  0
   58.7650   30.2409   48.0026 H   0  0  0  0  0  0  0  0  0  0  0  0
   59.5825   28.6414   48.0026 H   0  0  0  0  0  0  0  0  0  0  0  0
   59.1079   28.0191   45.0510 H   0  0  0  0  0  0  0  0  0  0  0  0
   57.0091   27.9870   43.7050 H   0  0  0  0  0  0  0  0  0  0  0  0
   56.5308   32.2385   44.3295 H   0  0  0  0  0  0  0  0  0  0  0  0
   57.4250   33.5080   47.2089 H   0  0  0  0  0  0  0  0  0  0  0  0
   58.1358   31.9326   47.7470 H   0  0  0  0  0  0  0  0  0  0  0  0
   58.9873   34.2893   48.7168 H   0  0  0  0  0  0  0  0  0  0  0  0
   60.0996   32.8621   48.4145 H   0  0  0  0  0  0  0  0  0  0  0  0
   61.5071   32.8160   46.5077 H   0  0  0  0  0  0  0  0  0  0  0  0
   62.2112   34.4506   46.1688 H   0  0  0  0  0  0  0  0  0  0  0  0
   61.2949   35.1296   49.5289 H   0  0  0  0  0  0  0  0  0  0  0  0
   63.1880   34.3495   51.2789 H   0  0  0  0  0  0  0  0  0  0  0  0
   66.4851   34.0736   49.5863 H   0  0  0  0  0  0  0  0  0  0  0  0
   68.4659   32.9355   50.5813 H   0  0  0  0  0  0  0  0  0  0  0  0
   68.2040   30.7350   51.7297 H   0  0  0  0  0  0  0  0  0  0  0  0
   65.9506   29.6730   51.8916 H   0  0  0  0  0  0  0  0  0  0  0  0
   63.9594   30.8047   50.9059 H   0  0  0  0  0  0  0  0  0  0  0  0
   63.9640   32.3900   47.6400 H   0  0  0  0  0  0  0  0  0  0  0  0
   58.7524   35.4361   46.0731 H   0  0  0  0  0  0  0  0  0  0  0  0
   60.3662   35.4568   45.2439 H   0  0  0  0  0  0  0  0  0  0  0  0
   58.4872   33.9378   44.2630 H   0  0  0  0  0  0  0  0  0  0  0  0
   60.1463   33.2561   44.4736 H   0  0  0  0  0  0  0  0  0  0  0  0
  1  2  1  0
  2  3  1  0
  3  4  2  0
  4  5  1  0
  5  6  2  0
  6  7  1  0
  6  8  1  0
  8  9  2  0
  9 10  1  0
 10 11  1  0
 11 12  1  0
 12 13  1  0
 13 14  1  0
 14 15  1  0
 15 16  1  0
 16 17  2  0
 17 18  1  0
 18 19  1  0
 19 20  2  0
 20 21  1  0
 21 22  2  0
 22 23  1  0
 23 24  2  0
 18 25  1  0
 13 26  1  0
 26 27  1  0
  9  3  1  0
 27 10  1  0
 25 15  2  0
 24 19  1  0
  1 28  1  0
  1 29  1  0
  1 30  1  0
  4 31  1  0
  5 32  1  0
  8 33  1  0
 11 34  1  0
 11 35  1  0
 12 36  1  0
 12 37  1  0
 14 38  1  0
 14 39  1  0
 16 40  1  0
 17 41  1  0
 20 42  1  0
 21 43  1  0
 22 44  1  0
 23 45  1  0
 24 46  1  0
 25 47  1  0
 26 48  1  0
 26 49  1  0
 27 50  1  0
 27 51  1  0
M  CHG  1  25   1
M  END
>  <UniqueID>  (47) 
42

>  <SMILES>  (47) 
CSc1ccc(F)cc1N1CCN(Cc2ccn(-c3ccccc3)[nH+]2)CC1

>  <Energy>  (47) 
95.7746154060634

>  <Genealogy>  (47) 
CSc1ccc(F)cc1N1CCN(Cc2ccn(-c3ccccc3)[nH+]2)CC1 (protonated)
CSc1ccc(F)cc1N1CCN(Cc2ccn(-c3ccccc3)[nH+]2)CC1 (3D coordinates assigned)
CSc1ccc(F)cc1N1CCN(Cc2ccn(-c3ccccc3)[nH+]2)CC1 (nonaromatic ring conformer: 95.7746154060634 kcal/mol)

>  <smiles>  (47) 
CSc1ccc(F)cc1N1CCN(Cc2ccn(-c3ccccc3)n2)CC1

>  <score_type>  (47) 
oracle

>  <origin>  (47) 
adg

>  <m_score__min__energy>  (47) 
-6.75

>  <m_primary>  (47) 
energy

$$$$
