0:0
     RDKit          3D

 38 40  0  0  0  0  0  0  0  0999 V2000
   57.7680   32.1610   41.7900 C   0  0  0  0  0  0  0  0  0  0  0  0
   57.7110   31.5750   43.0870 O   0  0  0  0  0  0  0  0  0  0  0  0
   58.1210   32.2020   44.2780 C   0  0  0  0  0  0  0  0  0  0  0  0
   58.3040   33.5930   44.3190 C   0  0  0  0  0  0  0  0  0  0  0  0
   58.6810   34.2300   45.4910 C   0  0  0  0  0  0  0  0  0  0  0  0
   58.8740   33.4980   46.6630 C   0  0  0  0  0  0  0  0  0  0  0  0
   59.2330   34.1780   47.8390 C   0  0  0  0  0  0  0  0  0  0  0  0
   59.4170   33.4810   49.0280 C   0  0  0  0  0  0  0  0  0  0  0  0
   59.2420   32.1020   49.0570 C   0  0  0  0  0  0  0  0  0  0  0  0
   58.8880   31.4100   47.8970 C   0  0  0  0  0  0  0  0  0  0  0  0
   58.7010   32.0850   46.6660 C   0  0  0  0  0  0  0  0  0  0  0  0
   58.3460   31.4150   45.4440 C   0  0  0  0  0  0  0  0  0  0  0  0
   58.1470   29.8900   45.3290 C   0  0  1  0  0  0  0  0  0  0  0  0
   57.0740   29.4490   44.2910 C   0  0  0  0  0  0  0  0  0  0  0  0
   57.4770   28.2490   43.5390 N   0  0  0  0  0  0  0  0  0  0  0  0
   57.9570   27.1900   44.4390 C   0  0  0  0  0  0  0  0  0  0  0  0
   59.2540   27.5950   45.1730 C   0  0  0  0  0  0  0  0  0  0  0  0
   59.4840   29.1180   45.2310 C   0  0  1  0  0  0  0  0  0  0  0  0
   60.2310   29.5080   44.1360 F   0  0  0  0  0  0  0  0  0  0  0  0
   57.8741   33.2518   41.8848 H   0  0  0  0  0  0  0  0  0  0  0  0
   58.6309   31.7549   41.2418 H   0  0  0  0  0  0  0  0  0  0  0  0
   56.8430   31.9289   41.2418 H   0  0  0  0  0  0  0  0  0  0  0  0
   58.1458   34.1870   43.4068 H   0  0  0  0  0  0  0  0  0  0  0  0
   58.8290   35.3200   45.4971 H   0  0  0  0  0  0  0  0  0  0  0  0
   59.3694   35.2693   47.8189 H   0  0  0  0  0  0  0  0  0  0  0  0
   59.7005   34.0197   49.9442 H   0  0  0  0  0  0  0  0  0  0  0  0
   59.3833   31.5528   49.9995 H   0  0  0  0  0  0  0  0  0  0  0  0
   58.7517   30.3193   47.9401 H   0  0  0  0  0  0  0  0  0  0  0  0
   57.7020   29.5878   46.2885 H   0  0  0  0  0  0  0  0  0  0  0  0
   56.1359   29.2332   44.8233 H   0  0  0  0  0  0  0  0  0  0  0  0
   56.9498   30.2698   43.5693 H   0  0  0  0  0  0  0  0  0  0  0  0
   58.2170   28.4830   42.8380 H   0  0  0  0  0  0  0  0  0  0  0  0
   56.6450   27.8880   43.0140 H   0  0  0  0  0  0  0  0  0  0  0  0
   57.1777   26.9793   45.1861 H   0  0  0  0  0  0  0  0  0  0  0  0
   58.1763   26.3010   43.8294 H   0  0  0  0  0  0  0  0  0  0  0  0
   59.2041   27.2119   46.2029 H   0  0  0  0  0  0  0  0  0  0  0  0
   60.0922   27.1649   44.6051 H   0  0  0  0  0  0  0  0  0  0  0  0
   60.0467   29.3641   46.1435 H   0  0  0  0  0  0  0  0  0  0  0  0
  1  2  1  0
  2  3  1  0
  3  4  2  0
  4  5  1  0
  5  6  2  0
  6  7  1  0
  7  8  2  0
  8  9  1  0
  9 10  2  0
 10 11  1  0
 11 12  2  0
 12 13  1  0
 13 14  1  0
 14 15  1  0
 15 16  1  0
 16 17  1  0
 17 18  1  0
 18 19  1  0
 12  3  1  0
 18 13  1  0
 11  6  1  0
  1 20  1  0
  1 21  1  0
  1 22  1  0
  4 23  1  0
  5 24  1  0
  7 25  1  0
  8 26  1  0
  9 27  1  0
 10 28  1  0
 13 29  1  1
 14 30  1  0
 14 31  1  0
 15 32  1  0
 15 33  1  0
 16 34  1  0
 16 35  1  0
 17 36  1  0
 17 37  1  0
 18 38  1  1
M  CHG  1  15   1
M  END
>  <UniqueID>  (1) 
1

>  <SMILES>  (1) 
COc1ccc2ccccc2c1[C@H]1C[NH2+]CC[C@H]1F

>  <Energy>  (1) 
59.57191332924425

>  <Genealogy>  (1) 
COc1ccc2ccccc2c1C1C[NH2+]CCC1F (protonated)
COc1ccc2ccccc2c1[C@H]1C[NH2+]CC[C@H]1F (chirality)
COc1ccc2ccccc2c1[C@H]1C[NH2+]CC[C@H]1F (3D coordinates assigned)
COc1ccc2ccccc2c1[C@H]1C[NH2+]CC[C@H]1F (nonaromatic ring conformer: 59.57191332924425 kcal/mol)

>  <smiles>  (1) 
COc1ccc2ccccc2c1C1CNCCC1F

>  <score_type>  (1) 
oracle

>  <origin>  (1) 
adg

>  <m_score__min__energy>  (1) 
-5.4500000000000002

>  <m_primary>  (1) 
energy

$$$$
1:0
     RDKit          3D

 37 38  0  0  0  0  0  0  0  0999 V2000
   57.6680   32.7460   44.8690 C   0  0  0  0  0  0  0  0  0  0  0  0
   56.6300   31.7190   44.7550 N   0  0  0  0  0  0  0  0  0  0  0  0
   56.8860   30.8090   43.6240 C   0  0  0  0  0  0  0  0  0  0  0  0
   56.5310   29.3530   43.9940 C   0  0  2  0  0  0  0  0  0  0  0  0
   55.5610   29.3350   45.0140 O   0  0  0  0  0  0  0  0  0  0  0  0
   57.7790   28.5030   44.3870 C   0  0  0  0  0  0  0  0  0  0  0  0
   57.4050   27.0900   44.8010 C   0  0  0  0  0  0  0  0  0  0  0  0
   56.6960   26.8410   45.9920 C   0  0  0  0  0  0  0  0  0  0  0  0
   56.3610   25.5340   46.3580 C   0  0  0  0  0  0  0  0  0  0  0  0
   56.7280   24.4620   45.5410 C   0  0  0  0  0  0  0  0  0  0  0  0
   57.4310   24.6950   44.3570 C   0  0  0  0  0  0  0  0  0  0  0  0
   57.7700   26.0000   43.9880 C   0  0  0  0  0  0  0  0  0  0  0  0
   58.6470   29.1470   45.4580 C   0  0  0  0  0  0  0  0  0  0  0  0
   58.1170   29.5980   46.6860 C   0  0  0  0  0  0  0  0  0  0  0  0
   58.9540   30.1480   47.6610 C   0  0  0  0  0  0  0  0  0  0  0  0
   60.3280   30.2450   47.4330 C   0  0  0  0  0  0  0  0  0  0  0  0
   60.8700   29.7860   46.2300 C   0  0  0  0  0  0  0  0  0  0  0  0
   60.0370   29.2350   45.2520 C   0  0  0  0  0  0  0  0  0  0  0  0
   57.8705   32.9463   45.9315 H   0  0  0  0  0  0  0  0  0  0  0  0
   58.5882   32.3930   44.3806 H   0  0  0  0  0  0  0  0  0  0  0  0
   57.3249   33.6700   44.3806 H   0  0  0  0  0  0  0  0  0  0  0  0
   56.6370   31.1630   45.6420 H   0  0  0  0  0  0  0  0  0  0  0  0
   56.2737   31.1214   42.7652 H   0  0  0  0  0  0  0  0  0  0  0  0
   57.9557   30.8556   43.3719 H   0  0  0  0  0  0  0  0  0  0  0  0
   56.1139   28.8810   43.0922 H   0  0  0  0  0  0  0  0  0  0  0  0
   55.7590   30.0850   45.6330 H   0  0  0  0  0  0  0  0  0  0  0  0
   58.3821   28.4549   43.4683 H   0  0  0  0  0  0  0  0  0  0  0  0
   56.4036   27.6811   46.6391 H   0  0  0  0  0  0  0  0  0  0  0  0
   55.8077   25.3495   47.2906 H   0  0  0  0  0  0  0  0  0  0  0  0
   56.4633   23.4343   45.8303 H   0  0  0  0  0  0  0  0  0  0  0  0
   57.7184   23.8503   43.7137 H   0  0  0  0  0  0  0  0  0  0  0  0
   58.3261   26.1766   43.0555 H   0  0  0  0  0  0  0  0  0  0  0  0
   57.0369   29.5160   46.8772 H   0  0  0  0  0  0  0  0  0  0  0  0
   58.5290   30.5054   48.6105 H   0  0  0  0  0  0  0  0  0  0  0  0
   60.9835   30.6827   48.2003 H   0  0  0  0  0  0  0  0  0  0  0  0
   61.9531   29.8582   46.0522 H   0  0  0  0  0  0  0  0  0  0  0  0
   60.4721   28.8662   44.3114 H   0  0  0  0  0  0  0  0  0  0  0  0
  1  2  1  0
  2  3  1  0
  3  4  1  0
  4  5  1  0
  4  6  1  0
  6  7  1  0
  7  8  2  0
  8  9  1  0
  9 10  2  0
 10 11  1  0
 11 12  2  0
  6 13  1  0
 13 14  2  0
 14 15  1  0
 15 16  2  0
 16 17  1  0
 17 18  2  0
 12  7  1  0
 18 13  1  0
  1 19  1  0
  1 20  1  0
  1 21  1  0
  2 22  1  0
  3 23  1  0
  3 24  1  0
  4 25  1  6
  5 26  1  0
  6 27  1  0
  8 28  1  0
  9 29  1  0
 10 30  1  0
 11 31  1  0
 12 32  1  0
 14 33  1  0
 15 34  1  0
 16 35  1  0
 17 36  1  0
 18 37  1  0
M  END
>  <UniqueID>  (2) 
2

>  <SMILES>  (2) 
CNC[C@H](O)C(c1ccccc1)c1ccccc1

>  <Energy>  (2) 
39.07803030367165

>  <Genealogy>  (2) 
CNC[C@H](O)C(c1ccccc1)c1ccccc1 (chirality)
CNC[C@H](O)C(c1ccccc1)c1ccccc1 (3D coordinates assigned)
CNC[C@H](O)C(c1ccccc1)c1ccccc1 (optimized conformer: 39.07803030367165 kcal/mol)

>  <smiles>  (2) 
CNCC(O)C(c1ccccc1)c1ccccc1

>  <score_type>  (2) 
oracle

>  <origin>  (2) 
adg

>  <m_score__min__energy>  (2) 
-6.4000000000000004

>  <m_primary>  (2) 
energy

$$$$
2:0
     RDKit          3D

 46 48  0  0  0  0  0  0  0  0999 V2000
   63.3320   33.8560   46.3730 C   0  0  0  0  0  0  0  0  0  0  0  0
   63.3760   32.5210   47.1200 C   0  0  0  0  0  0  0  0  0  0  0  0
   62.6510   32.6190   48.4100 N   0  0  0  0  0  0  0  0  0  0  0  0
   63.4940   33.2630   49.4440 C   0  0  0  0  0  0  0  0  0  0  0  0
   62.7620   34.4450   50.0740 C   0  0  0  0  0  0  0  0  0  0  0  0
   62.1830   31.2850   48.8560 C   0  0  0  0  0  0  0  0  0  0  0  0
   60.7710   31.0060   48.3320 C   0  0  0  0  0  0  0  0  0  0  0  0
   59.9130   32.1700   48.5350 N   0  0  0  0  0  0  0  0  0  0  0  0
   59.6030   33.0560   47.4550 C   0  0  0  0  0  0  0  0  0  0  0  0
   59.9570   34.4060   47.5590 C   0  0  0  0  0  0  0  0  0  0  0  0
   59.6920   35.2910   46.5140 C   0  0  0  0  0  0  0  0  0  0  0  0
   59.0660   34.8340   45.3510 C   0  0  0  0  0  0  0  0  0  0  0  0
   58.6920   33.4860   45.2330 C   0  0  0  0  0  0  0  0  0  0  0  0
   58.0570   33.0270   44.0770 C   0  0  0  0  0  0  0  0  0  0  0  0
   57.6760   31.6830   43.9760 C   0  0  0  0  0  0  0  0  0  0  0  0
   57.0380   31.2250   42.8150 C   0  0  0  0  0  0  0  0  0  0  0  0
   56.6510   29.8890   42.7260 C   0  0  0  0  0  0  0  0  0  0  0  0
   56.9030   29.0210   43.7850 C   0  0  0  0  0  0  0  0  0  0  0  0
   57.5430   29.5000   44.9290 C   0  0  0  0  0  0  0  0  0  0  0  0
   57.9210   30.8140   45.0200 N   0  0  0  0  0  0  0  0  0  0  0  0
   58.5510   31.2490   46.1540 C   0  0  0  0  0  0  0  0  0  0  0  0
   58.9530   32.5880   46.2920 C   0  0  0  0  0  0  0  0  0  0  0  0
   63.3048   34.6818   47.0992 H   0  0  0  0  0  0  0  0  0  0  0  0
   64.2275   33.9525   45.7414 H   0  0  0  0  0  0  0  0  0  0  0  0
   62.4321   33.8933   45.7414 H   0  0  0  0  0  0  0  0  0  0  0  0
   62.9056   31.7441   46.4994 H   0  0  0  0  0  0  0  0  0  0  0  0
   64.4260   32.2632   47.3227 H   0  0  0  0  0  0  0  0  0  0  0  0
   63.7325   32.5270   50.2260 H   0  0  0  0  0  0  0  0  0  0  0  0
   64.4175   33.6287   48.9715 H   0  0  0  0  0  0  0  0  0  0  0  0
   62.8115   34.3650   51.1700 H   0  0  0  0  0  0  0  0  0  0  0  0
   63.2371   35.3838   49.7530 H   0  0  0  0  0  0  0  0  0  0  0  0
   61.7099   34.4380   49.7530 H   0  0  0  0  0  0  0  0  0  0  0  0
   62.8691   30.5148   48.4739 H   0  0  0  0  0  0  0  0  0  0  0  0
   62.1634   31.2655   49.9557 H   0  0  0  0  0  0  0  0  0  0  0  0
   60.8220   30.7765   47.2574 H   0  0  0  0  0  0  0  0  0  0  0  0
   60.3490   30.1517   48.8816 H   0  0  0  0  0  0  0  0  0  0  0  0
   59.3660   32.2530   49.4210 H   0  0  0  0  0  0  0  0  0  0  0  0
   60.4483   34.7722   48.4725 H   0  0  0  0  0  0  0  0  0  0  0  0
   59.9760   36.3498   46.6053 H   0  0  0  0  0  0  0  0  0  0  0  0
   58.8657   35.5328   44.5254 H   0  0  0  0  0  0  0  0  0  0  0  0
   57.8563   33.7202   43.2468 H   0  0  0  0  0  0  0  0  0  0  0  0
   56.8442   31.9148   41.9804 H   0  0  0  0  0  0  0  0  0  0  0  0
   56.1471   29.5208   41.8202 H   0  0  0  0  0  0  0  0  0  0  0  0
   56.5999   27.9655   43.7205 H   0  0  0  0  0  0  0  0  0  0  0  0
   57.7460   28.8158   45.7661 H   0  0  0  0  0  0  0  0  0  0  0  0
   58.7459   30.5387   46.9710 H   0  0  0  0  0  0  0  0  0  0  0  0
  1  2  1  0
  2  3  1  0
  3  4  1  0
  4  5  1  0
  3  6  1  0
  6  7  1  0
  7  8  1  0
  8  9  1  0
  9 10  2  0
 10 11  1  0
 11 12  2  0
 12 13  1  0
 13 14  2  0
 14 15  1  0
 15 16  2  0
 16 17  1  0
 17 18  2  0
 18 19  1  0
 19 20  2  0
 20 21  1  0
 21 22  2  0
 22  9  1  0
 22 13  1  0
 20 15  1  0
  1 23  1  0
  1 24  1  0
  1 25  1  0
  2 26  1  0
  2 27  1  0
  4 28  1  0
  4 29  1  0
  5 30  1  0
  5 31  1  0
  5 32  1  0
  6 33  1  0
  6 34  1  0
  7 35  1  0
  7 36  1  0
  8 37  1  0
 10 38  1  0
 11 39  1  0
 12 40  1  0
 14 41  1  0
 16 42  1  0
 17 43  1  0
 18 44  1  0
 19 45  1  0
 21 46  1  0
M  CHG  1  20   1
M  END
>  <UniqueID>  (3) 
3

>  <SMILES>  (3) 
CCN(CC)CCNc1cccc2cc3cccc[n+]3cc12

>  <Energy>  (3) 
57.40144973681288

>  <Genealogy>  (3) 
CCN(CC)CCNc1cccc2cc3cccc[n+]3cc12 (3D coordinates assigned)
CCN(CC)CCNc1cccc2cc3cccc[n+]3cc12 (optimized conformer: 57.40144973681288 kcal/mol)

>  <smiles>  (3) 
CCN(CC)CCNc1cccc2cc3cccc[n+]3cc12

>  <score_type>  (3) 
oracle

>  <origin>  (3) 
adg

>  <m_score__min__energy>  (3) 
-5.8300000000000001

>  <m_primary>  (3) 
energy

$$$$
3:0
     RDKit          3D

 47 50  0  0  0  0  0  0  0  0999 V2000
   65.9360   33.8190   51.3280 C   0  0  0  0  0  0  0  0  0  0  0  0
   64.5860   34.2150   51.1180 O   0  0  0  0  0  0  0  0  0  0  0  0
   63.7440   33.6760   50.1340 C   0  0  0  0  0  0  0  0  0  0  0  0
   64.1460   32.6220   49.2940 C   0  0  0  0  0  0  0  0  0  0  0  0
   63.2700   32.1150   48.3330 C   0  0  0  0  0  0  0  0  0  0  0  0
   61.9780   32.6450   48.1960 C   0  0  0  0  0  0  0  0  0  0  0  0
   61.5790   33.7170   49.0150 C   0  0  0  0  0  0  0  0  0  0  0  0
   62.4600   34.2110   49.9900 C   0  0  0  0  0  0  0  0  0  0  0  0
   60.1760   34.2660   48.9400 C   0  0  0  0  0  0  0  0  0  0  0  0
   59.5340   34.0290   47.6340 N   0  0  0  0  0  0  0  0  0  0  0  0
   60.0200   34.9440   46.5840 C   0  0  0  0  0  0  0  0  0  0  0  0
   59.0990   34.8650   45.3640 C   0  0  0  0  0  0  0  0  0  0  0  0
   58.7290   33.4480   45.0000 C   0  0  0  0  0  0  0  0  0  0  0  0
   58.1090   33.2040   43.7670 C   0  0  0  0  0  0  0  0  0  0  0  0
   57.6820   31.9080   43.4180 C   0  0  0  0  0  0  0  0  0  0  0  0
   57.0650   31.6330   42.1870 O   0  0  0  0  0  0  0  0  0  0  0  0
   57.3250   32.3380   40.9780 C   0  0  0  0  0  0  0  0  0  0  0  0
   57.8700   30.8510   44.3180 C   0  0  0  0  0  0  0  0  0  0  0  0
   57.4370   29.5690   43.9410 O   0  0  0  0  0  0  0  0  0  0  0  0
   58.1900   28.3750   44.1260 C   0  0  0  0  0  0  0  0  0  0  0  0
   58.4800   31.0960   45.5630 C   0  0  0  0  0  0  0  0  0  0  0  0
   58.8990   32.3870   45.9140 C   0  0  0  0  0  0  0  0  0  0  0  0
   59.6230   32.6090   47.2250 C   0  0  1  0  0  0  0  0  0  0  0  0
   61.0840   32.1170   47.1060 C   0  0  0  0  0  0  0  0  0  0  0  0
   66.1371   33.7600   52.4079 H   0  0  0  0  0  0  0  0  0  0  0  0
   66.1046   32.8335   50.8693 H   0  0  0  0  0  0  0  0  0  0  0  0
   66.6102   34.5572   50.8693 H   0  0  0  0  0  0  0  0  0  0  0  0
   65.1549   32.1955   49.3948 H   0  0  0  0  0  0  0  0  0  0  0  0
   63.5950   31.2934   47.6778 H   0  0  0  0  0  0  0  0  0  0  0  0
   62.1361   35.0297   50.6494 H   0  0  0  0  0  0  0  0  0  0  0  0
   59.5691   33.7852   49.7214 H   0  0  0  0  0  0  0  0  0  0  0  0
   60.2405   35.3548   49.0823 H   0  0  0  0  0  0  0  0  0  0  0  0
   60.0269   35.9737   46.9708 H   0  0  0  0  0  0  0  0  0  0  0  0
   61.0393   34.6528   46.2904 H   0  0  0  0  0  0  0  0  0  0  0  0
   58.1770   35.4235   45.5832 H   0  0  0  0  0  0  0  0  0  0  0  0
   59.6436   35.2943   44.5101 H   0  0  0  0  0  0  0  0  0  0  0  0
   57.9540   34.0350   43.0631 H   0  0  0  0  0  0  0  0  0  0  0  0
   57.6968   33.3460   41.2140 H   0  0  0  0  0  0  0  0  0  0  0  0
   58.0822   31.7956   40.3929 H   0  0  0  0  0  0  0  0  0  0  0  0
   56.3969   32.4172   40.3929 H   0  0  0  0  0  0  0  0  0  0  0  0
   58.3120   28.1815   45.2019 H   0  0  0  0  0  0  0  0  0  0  0  0
   57.6602   27.5314   43.6595 H   0  0  0  0  0  0  0  0  0  0  0  0
   59.1796   28.4896   43.6595 H   0  0  0  0  0  0  0  0  0  0  0  0
   58.6295   30.2652   46.2682 H   0  0  0  0  0  0  0  0  0  0  0  0
   59.1391   32.0206   48.0184 H   0  0  0  0  0  0  0  0  0  0  0  0
   61.0877   31.0180   47.1524 H   0  0  0  0  0  0  0  0  0  0  0  0
   61.4782   32.4914   46.1497 H   0  0  0  0  0  0  0  0  0  0  0  0
  1  2  1  0
  2  3  1  0
  3  4  2  0
  4  5  1  0
  5  6  2  0
  6  7  1  0
  7  8  2  0
  7  9  1  0
  9 10  1  0
 10 11  1  0
 11 12  1  0
 12 13  1  0
 13 14  2  0
 14 15  1  0
 15 16  1  0
 16 17  1  0
 15 18  2  0
 18 19  1  0
 19 20  1  0
 18 21  1  0
 21 22  2  0
 22 23  1  0
 23 24  1  0
  8  3  1  0
 23 10  1  0
 24  6  1  0
 22 13  1  0
  1 25  1  0
  1 26  1  0
  1 27  1  0
  4 28  1  0
  5 29  1  0
  8 30  1  0
  9 31  1  0
  9 32  1  0
 11 33  1  0
 11 34  1  0
 12 35  1  0
 12 36  1  0
 14 37  1  0
 17 38  1  0
 17 39  1  0
 17 40  1  0
 20 41  1  0
 20 42  1  0
 20 43  1  0
 21 44  1  0
 23 45  1  1
 24 46  1  0
 24 47  1  0
M  END
>  <UniqueID>  (4) 
4

>  <SMILES>  (4) 
COc1ccc2c(c1)CN1CCc3cc(OC)c(OC)cc3[C@H]1C2

>  <Energy>  (4) 
57.36662168001034

>  <Genealogy>  (4) 
COc1ccc2c(c1)CN1CCc3cc(OC)c(OC)cc3[C@H]1C2 (chirality)
COc1ccc2c(c1)CN1CCc3cc(OC)c(OC)cc3[C@H]1C2 (3D coordinates assigned)
COc1ccc2c(c1)CN1CCc3cc(OC)c(OC)cc3[C@H]1C2 (nonaromatic ring conformer: 57.36662168001034 kcal/mol)

>  <smiles>  (4) 
COc1ccc2c(c1)CN1CCc3cc(OC)c(OC)cc3C1C2

>  <score_type>  (4) 
oracle

>  <origin>  (4) 
adg

>  <m_score__min__energy>  (4) 
-7.2199999999999998

>  <m_primary>  (4) 
energy

$$$$
4:0
     RDKit          3D

 37 38  0  0  0  0  0  0  0  0999 V2000
   57.7379   34.2942   46.2046 H   0  0  0  0  0  0  0  0  0  0  0  0
   57.9500   33.2670   45.8730 C   0  0  0  0  0  0  0  0  0  0  0  0
   57.3460   32.7730   44.7170 C   0  0  0  0  0  0  0  0  0  0  0  0
   56.6504   33.4102   44.1512 H   0  0  0  0  0  0  0  0  0  0  0  0
   57.6170   31.4700   44.2680 C   0  0  0  0  0  0  0  0  0  0  0  0
   56.9540   30.9700   43.0120 C   0  0  0  0  0  0  0  0  0  0  0  0
   56.1018   30.3273   43.2781 H   0  0  0  0  0  0  0  0  0  0  0  0
   56.5971   31.8258   42.4202 H   0  0  0  0  0  0  0  0  0  0  0  0
   57.6787   30.3916   42.4202 H   0  0  0  0  0  0  0  0  0  0  0  0
   58.5350   30.6670   44.9860 C   0  0  0  0  0  0  0  0  0  0  0  0
   58.8710   29.2700   44.5340 C   0  0  0  0  0  0  0  0  0  0  0  0
   59.0256   28.6274   45.4133 H   0  0  0  0  0  0  0  0  0  0  0  0
   58.0432   28.8712   43.9293 H   0  0  0  0  0  0  0  0  0  0  0  0
   59.7896   29.2912   43.9293 H   0  0  0  0  0  0  0  0  0  0  0  0
   59.1310   31.1750   46.1540 C   0  0  0  0  0  0  0  0  0  0  0  0
   59.8461   30.5535   46.7129 H   0  0  0  0  0  0  0  0  0  0  0  0
   58.8260   32.4620   46.6150 C   0  0  0  0  0  0  0  0  0  0  0  0
   59.4840   32.9640   47.7910 N   0  0  0  0  0  0  0  0  0  0  0  0
   59.0150   32.7730   48.7070 H   0  0  0  0  0  0  0  0  0  0  0  0
   60.6000   33.6460   47.7840 C   0  0  0  0  0  0  0  0  0  0  0  0
   61.2870   33.9120   46.5420 N   0  0  0  0  0  0  0  0  0  0  0  0
   60.7100   34.1090   45.6940 H   0  0  0  0  0  0  0  0  0  0  0  0
   62.7380   33.8260   46.3330 C   0  0  0  0  0  0  0  0  0  0  0  0
   63.1543   34.8440   46.3532 H   0  0  0  0  0  0  0  0  0  0  0  0
   62.8981   33.3310   45.3638 H   0  0  0  0  0  0  0  0  0  0  0  0
   63.4570   32.9850   47.3960 C   0  0  0  0  0  0  0  0  0  0  0  0
   64.4702   32.7542   47.0351 H   0  0  0  0  0  0  0  0  0  0  0  0
   62.8622   32.0733   47.5545 H   0  0  0  0  0  0  0  0  0  0  0  0
   63.5700   33.7040   48.7490 C   0  0  0  0  0  0  0  0  0  0  0  0
   63.7220   34.7765   48.5573 H   0  0  0  0  0  0  0  0  0  0  0  0
   64.4134   33.2406   49.2819 H   0  0  0  0  0  0  0  0  0  0  0  0
   62.3380   33.5470   49.6550 C   0  0  0  0  0  0  0  0  0  0  0  0
   62.5671   33.9848   50.6378 H   0  0  0  0  0  0  0  0  0  0  0  0
   62.1164   32.4720   49.7271 H   0  0  0  0  0  0  0  0  0  0  0  0
   61.0900   34.2370   49.0910 C   0  0  0  0  0  0  0  0  0  0  0  0
   61.3264   35.2983   48.9243 H   0  0  0  0  0  0  0  0  0  0  0  0
   60.2856   34.0945   49.8276 H   0  0  0  0  0  0  0  0  0  0  0  0
  1  2  1  0
  2  3  2  0
  3  4  1  0
  3  5  1  0
  5  6  1  0
  6  7  1  0
  6  8  1  0
  6  9  1  0
  5 10  2  0
 10 11  1  0
 11 12  1  0
 11 13  1  0
 11 14  1  0
 10 15  1  0
 15 16  1  0
 15 17  2  0
 17 18  1  0
 18 19  1  0
 18 20  2  0
 20 21  1  0
 21 22  1  0
 21 23  1  0
 23 24  1  0
 23 25  1  0
 23 26  1  0
 26 27  1  0
 26 28  1  0
 26 29  1  0
 29 30  1  0
 29 31  1  0
 29 32  1  0
 32 33  1  0
 32 34  1  0
 32 35  1  0
 35 36  1  0
 35 37  1  0
 17  2  1  0
 35 20  1  0
M  CHG  1  18   1
M  END
>  <UniqueID>  (5) 
5

>  <SMILES>  (5) 
Cc1ccc(/[NH+]=C2/CCCCCN2)cc1C

>  <Energy>  (5) 
46.670086698352534

>  <Genealogy>  (5) 
Cc1ccc([NH+]=C2CCCCCN2)cc1C (protonated)
Cc1ccc(/[NH+]=C2/CCCCCN2)cc1C (cis-trans isomerization)
Cc1ccc(/[NH+]=C2/CCCCCN2)cc1C (3D coordinates assigned)
Cc1ccc(/[NH+]=C2/CCCCCN2)cc1C (nonaromatic ring conformer: 46.670086698352534 kcal/mol)

>  <smiles>  (5) 
Cc1ccc(N=C2CCCCCN2)cc1C

>  <score_type>  (5) 
oracle

>  <origin>  (5) 
adg

>  <m_score__min__energy>  (5) 
-3.1200000000000001

>  <m_primary>  (5) 
energy

$$$$
5:0
     RDKit          3D

 46 48  0  0  0  0  0  0  0  0999 V2000
   62.7450   31.5280   47.4500 C   0  0  0  0  0  0  0  0  0  0  0  0
   63.7420   32.2830   48.3280 C   0  0  0  0  0  0  0  0  0  0  0  0
   63.7390   33.7970   48.0610 C   0  0  0  0  0  0  0  0  0  0  0  0
   62.7570   34.5870   48.9460 C   0  0  0  0  0  0  0  0  0  0  0  0
   61.3870   34.0460   48.8550 N   0  0  0  0  0  0  0  0  0  0  0  0
   60.7340   33.5610   49.9700 C   0  0  0  0  0  0  0  0  0  0  0  0
   61.3240   33.5680   51.0880 O   0  0  0  0  0  0  0  0  0  0  0  0
   59.4420   33.0700   49.8780 N   0  0  0  0  0  0  0  0  0  0  0  0
   58.7510   32.5810   51.0880 C   0  0  0  0  0  0  0  0  0  0  0  0
   58.5110   33.7280   52.0650 C   0  0  0  0  0  0  0  0  0  0  0  0
   58.7780   33.0860   48.6720 C   0  0  0  0  0  0  0  0  0  0  0  0
   57.5880   32.6830   48.5780 O   0  0  0  0  0  0  0  0  0  0  0  0
   59.4510   33.5700   47.5560 C   0  0  0  0  0  0  0  0  0  0  0  0
   60.7200   34.0270   47.6690 C   0  0  0  0  0  0  0  0  0  0  0  0
   61.1850   34.4450   46.4760 N   0  0  0  0  0  0  0  0  0  0  0  0
   60.1360   34.2170   45.6450 C   0  0  0  0  0  0  0  0  0  0  0  0
   59.0580   33.6870   46.2750 N   0  0  0  0  0  0  0  0  0  0  0  0
   57.8040   33.2730   45.6440 C   0  0  0  0  0  0  0  0  0  0  0  0
   57.8920   31.8420   45.1780 C   0  0  0  0  0  0  0  0  0  0  0  0
   58.8160   30.9560   45.7560 C   0  0  0  0  0  0  0  0  0  0  0  0
   58.8930   29.6310   45.3160 C   0  0  0  0  0  0  0  0  0  0  0  0
   58.0440   29.1790   44.3010 C   0  0  0  0  0  0  0  0  0  0  0  0
   58.1430   27.5160   43.7510 Cl  0  0  0  0  0  0  0  0  0  0  0  0
   57.1140   30.0510   43.7280 C   0  0  0  0  0  0  0  0  0  0  0  0
   57.0350   31.3780   44.1660 C   0  0  0  0  0  0  0  0  0  0  0  0
   62.0307   30.9871   48.0881 H   0  0  0  0  0  0  0  0  0  0  0  0
   62.2011   32.2427   46.8149 H   0  0  0  0  0  0  0  0  0  0  0  0
   63.2855   30.8107   46.8149 H   0  0  0  0  0  0  0  0  0  0  0  0
   63.4826   32.1111   49.3831 H   0  0  0  0  0  0  0  0  0  0  0  0
   64.7473   31.9054   48.0899 H   0  0  0  0  0  0  0  0  0  0  0  0
   64.7536   34.1820   48.2411 H   0  0  0  0  0  0  0  0  0  0  0  0
   63.4119   33.9360   47.0200 H   0  0  0  0  0  0  0  0  0  0  0  0
   63.0942   34.5306   49.9915 H   0  0  0  0  0  0  0  0  0  0  0  0
   62.7392   35.6291   48.5943 H   0  0  0  0  0  0  0  0  0  0  0  0
   57.7843   32.1418   50.8005 H   0  0  0  0  0  0  0  0  0  0  0  0
   59.3810   31.8229   51.5763 H   0  0  0  0  0  0  0  0  0  0  0  0
   58.5893   33.3536   53.0964 H   0  0  0  0  0  0  0  0  0  0  0  0
   59.2644   34.5126   51.9015 H   0  0  0  0  0  0  0  0  0  0  0  0
   57.5062   34.1447   51.9015 H   0  0  0  0  0  0  0  0  0  0  0  0
   60.1580   34.4399   44.5680 H   0  0  0  0  0  0  0  0  0  0  0  0
   56.9848   33.3664   46.3721 H   0  0  0  0  0  0  0  0  0  0  0  0
   57.6148   33.9185   44.7737 H   0  0  0  0  0  0  0  0  0  0  0  0
   59.4820   31.3061   46.5584 H   0  0  0  0  0  0  0  0  0  0  0  0
   59.6224   28.9433   45.7689 H   0  0  0  0  0  0  0  0  0  0  0  0
   56.4437   29.6941   42.9322 H   0  0  0  0  0  0  0  0  0  0  0  0
   56.2989   32.0604   43.7160 H   0  0  0  0  0  0  0  0  0  0  0  0
  1  2  1  0
  2  3  1  0
  3  4  1  0
  4  5  1  0
  5  6  1  0
  6  7  2  0
  6  8  1  0
  8  9  1  0
  9 10  1  0
  8 11  1  0
 11 12  2  0
 11 13  1  0
 13 14  2  0
 14 15  1  0
 15 16  2  0
 16 17  1  0
 17 18  1  0
 18 19  1  0
 19 20  2  0
 20 21  1  0
 21 22  2  0
 22 23  1  0
 22 24  1  0
 24 25  2  0
 14  5  1  0
 25 19  1  0
 17 13  1  0
  1 26  1  0
  1 27  1  0
  1 28  1  0
  2 29  1  0
  2 30  1  0
  3 31  1  0
  3 32  1  0
  4 33  1  0
  4 34  1  0
  9 35  1  0
  9 36  1  0
 10 37  1  0
 10 38  1  0
 10 39  1  0
 16 40  1  0
 18 41  1  0
 18 42  1  0
 20 43  1  0
 21 44  1  0
 24 45  1  0
 25 46  1  0
M  END
>  <UniqueID>  (6) 
6

>  <SMILES>  (6) 
CCCCn1c(=O)n(CC)c(=O)c2c1ncn2Cc1ccc(Cl)cc1

>  <Energy>  (6) 
83.64426297809098

>  <Genealogy>  (6) 
CCCCn1c(=O)n(CC)c(=O)c2c1ncn2Cc1ccc(Cl)cc1 (3D coordinates assigned)
CCCCn1c(=O)n(CC)c(=O)c2c1ncn2Cc1ccc(Cl)cc1 (optimized conformer: 83.64426297809098 kcal/mol)

>  <smiles>  (6) 
CCCCn1c(=O)n(CC)c(=O)c2c1ncn2Cc1ccc(Cl)cc1

>  <score_type>  (6) 
oracle

>  <origin>  (6) 
adg

>  <m_score__min__energy>  (6) 
-7.0599999999999996

>  <m_primary>  (6) 
energy

$$$$
6:0
     RDKit          3D

 29 29  0  0  0  0  0  0  0  0999 V2000
   59.6220   34.9680   47.1220 C   0  0  0  0  0  0  0  0  0  0  0  0
   59.2110   34.7270   45.6710 C   0  0  0  0  0  0  0  0  0  0  0  0
   58.8950   33.3080   45.4490 N   0  0  0  0  0  0  0  0  0  0  0  0
   58.1610   32.9630   44.4190 C   0  0  0  0  0  0  0  0  0  0  0  0
   57.7870   31.5410   44.1540 C   0  0  0  0  0  0  0  0  0  0  0  0
   57.1940   31.1710   42.9840 C   0  0  0  0  0  0  0  0  0  0  0  0
   56.2860   29.9660   42.9080 C   0  0  0  0  0  0  0  0  0  0  0  0
   57.4080   31.9680   41.7170 C   0  0  0  0  0  0  0  0  0  0  0  0
   58.1670   30.5010   45.1930 C   0  0  0  0  0  0  0  0  0  0  0  0
   58.4920   31.1360   46.5450 C   0  0  0  0  0  0  0  0  0  0  0  0
   59.4640   32.2960   46.3540 C   0  0  0  0  0  0  0  0  0  0  0  0
   58.8707   34.5275   47.7939 H   0  0  0  0  0  0  0  0  0  0  0  0
   60.6000   34.5003   47.3086 H   0  0  0  0  0  0  0  0  0  0  0  0
   59.6914   36.0498   47.3086 H   0  0  0  0  0  0  0  0  0  0  0  0
   58.3234   35.3348   45.4414 H   0  0  0  0  0  0  0  0  0  0  0  0
   60.0474   35.0099   45.0149 H   0  0  0  0  0  0  0  0  0  0  0  0
   57.8098   33.7443   43.7289 H   0  0  0  0  0  0  0  0  0  0  0  0
   56.0342   29.6319   43.9253 H   0  0  0  0  0  0  0  0  0  0  0  0
   55.3640   30.2349   42.3717 H   0  0  0  0  0  0  0  0  0  0  0  0
   56.7986   29.1539   42.3717 H   0  0  0  0  0  0  0  0  0  0  0  0
   57.6852   33.0006   41.9758 H   0  0  0  0  0  0  0  0  0  0  0  0
   58.2146   31.5087   41.1267 H   0  0  0  0  0  0  0  0  0  0  0  0
   56.4798   31.9745   41.1267 H   0  0  0  0  0  0  0  0  0  0  0  0
   57.3265   29.8031   45.3211 H   0  0  0  0  0  0  0  0  0  0  0  0
   59.0671   29.9780   44.8376 H   0  0  0  0  0  0  0  0  0  0  0  0
   57.5650   31.5090   47.0050 H   0  0  0  0  0  0  0  0  0  0  0  0
   58.9536   30.3807   47.1980 H   0  0  0  0  0  0  0  0  0  0  0  0
   59.6695   32.7594   47.3302 H   0  0  0  0  0  0  0  0  0  0  0  0
   60.3939   31.9090   45.9118 H   0  0  0  0  0  0  0  0  0  0  0  0
  1  2  1  0
  2  3  1  0
  3  4  2  0
  4  5  1  0
  5  6  2  3
  6  7  1  0
  6  8  1  0
  5  9  1  0
  9 10  1  0
 10 11  1  0
 11  3  1  0
  1 12  1  0
  1 13  1  0
  1 14  1  0
  2 15  1  0
  2 16  1  0
  4 17  1  0
  7 18  1  0
  7 19  1  0
  7 20  1  0
  8 21  1  0
  8 22  1  0
  8 23  1  0
  9 24  1  0
  9 25  1  0
 10 26  1  0
 10 27  1  0
 11 28  1  0
 11 29  1  0
M  CHG  1   3   1
M  END
>  <UniqueID>  (7) 
7

>  <SMILES>  (7) 
CC[N+]1=CC(=C(C)C)CCC1

>  <Energy>  (7) 
22.616098531099045

>  <Genealogy>  (7) 
CC[N+]1=CC(=C(C)C)CCC1 (3D coordinates assigned)
CC[N+]1=CC(=C(C)C)CCC1 (nonaromatic ring conformer: 22.616098531099045 kcal/mol)

>  <smiles>  (7) 
CC[N+]1=CC(=C(C)C)CCC1

>  <score_type>  (7) 
oracle

>  <origin>  (7) 
adg

>  <m_score__min__energy>  (7) 
-3.3999999999999999

>  <m_primary>  (7) 
energy

$$$$
7:0
     RDKit          3D

 43 44  0  0  1  0  0  0  0  0999 V2000
   55.5510   29.0220   44.8810 O   0  0  0  0  0  0  0  0  0  0  0  0
   56.7440   29.4180   44.8150 C   0  0  0  0  0  0  0  0  0  0  0  0
   57.7450   28.7110   45.5400 N   0  0  0  0  0  0  0  0  0  0  0  0
   57.4490   27.5510   46.3560 C   0  0  0  0  0  0  0  0  0  0  0  0
   58.6920   26.8890   46.9000 C   0  0  0  0  0  0  0  0  0  0  0  0
   59.2670   27.5710   48.0990 C   0  0  0  0  0  0  0  0  0  0  0  0
   59.6100   28.9720   47.7000 C   0  0  0  0  0  0  0  0  0  0  0  0
   58.9860   30.0320   48.3790 O   0  0  0  0  0  0  0  0  0  0  0  0
   60.4560   29.2360   46.7580 N   0  0  0  0  0  0  0  0  0  0  0  0
   60.4360   30.4260   46.0460 O   0  0  0  0  0  0  0  0  0  0  0  0
   57.1220   30.5800   44.0130 C   0  0  0  0  0  0  0  0  0  0  0  0
   56.8150   30.5700   42.6820 C   0  0  0  0  0  0  0  0  0  0  0  0
   57.1680   31.6670   41.9160 C   0  0  0  0  0  0  0  0  0  0  0  0
   57.7960   32.7150   42.4620 N   0  0  0  0  0  0  0  0  0  0  0  0
   58.0920   32.7190   43.7520 C   0  0  0  0  0  0  0  0  0  0  0  0
   58.7360   33.8000   44.3010 C   0  0  0  0  0  0  0  0  0  0  0  0
   59.0430   33.8020   45.6460 C   0  0  0  0  0  0  0  0  0  0  0  0
   58.7390   32.7670   46.5040 C   0  0  0  0  0  0  0  0  0  0  0  0
   58.9820   32.6670   47.8050 O   0  0  0  0  0  0  0  0  0  0  0  0
   59.6540   33.1940   48.8350 C   0  0  0  0  0  0  0  0  0  0  0  0
   60.9450   32.5120   49.1890 C   0  0  0  0  0  0  0  0  0  0  0  0
   61.2880   31.4270   48.4160 O   0  0  0  0  0  0  0  0  0  0  0  0
   58.0760   31.6770   45.8950 C   0  0  0  0  0  0  0  0  0  0  0  0
   57.7660   31.6590   44.5640 C   0  0  0  0  0  0  0  0  0  0  0  0
   58.7290   29.0730   45.4590 H   0  0  0  0  0  0  0  0  0  0  0  0
   56.8197   27.8666   47.2012 H   0  0  0  0  0  0  0  0  0  0  0  0
   56.9345   26.8180   45.7173 H   0  0  0  0  0  0  0  0  0  0  0  0
   58.4402   25.8548   47.1775 H   0  0  0  0  0  0  0  0  0  0  0  0
   59.4535   26.9407   46.1079 H   0  0  0  0  0  0  0  0  0  0  0  0
   58.5285   27.5830   48.9141 H   0  0  0  0  0  0  0  0  0  0  0  0
   60.1623   27.0397   48.4540 H   0  0  0  0  0  0  0  0  0  0  0  0
   59.1590   31.0060   48.1170 H   0  0  0  0  0  0  0  0  0  0  0  0
   60.2750   31.2760   46.6010 H   0  0  0  0  0  0  0  0  0  0  0  0
   56.2993   29.7101   42.2297 H   0  0  0  0  0  0  0  0  0  0  0  0
   56.9289   31.6778   40.8424 H   0  0  0  0  0  0  0  0  0  0  0  0
   59.0060   34.6606   43.6714 H   0  0  0  0  0  0  0  0  0  0  0  0
   59.5606   34.6809   46.0577 H   0  0  0  0  0  0  0  0  0  0  0  0
   59.8818   34.2417   48.5891 H   0  0  0  0  0  0  0  0  0  0  0  0
   59.0011   33.0729   49.7119 H   0  0  0  0  0  0  0  0  0  0  0  0
   61.7520   33.2545   49.1029 H   0  0  0  0  0  0  0  0  0  0  0  0
   60.8015   32.1170   50.2056 H   0  0  0  0  0  0  0  0  0  0  0  0
   60.4490   31.0550   48.0210 H   0  0  0  0  0  0  0  0  0  0  0  0
   57.7995   30.8116   46.5151 H   0  0  0  0  0  0  0  0  0  0  0  0
  1  2  2  0
  2  3  1  0
  3  4  1  0
  4  5  1  0
  5  6  1  0
  6  7  1  0
  7  8  1  0
  7  9  2  0
  9 10  1  0
  2 11  1  0
 11 12  2  0
 12 13  1  0
 13 14  2  0
 14 15  1  0
 15 16  2  0
 16 17  1  0
 17 18  2  0
 18 19  1  0
 19 20  1  0
 20 21  1  0
 21 22  1  0
 18 23  1  0
 23 24  2  0
 24 11  1  0
 24 15  1  0
  3 25  1  0
  4 26  1  0
  4 27  1  0
  5 28  1  0
  5 29  1  0
  6 30  1  0
  6 31  1  0
  8 32  1  0
 10 33  1  0
 12 34  1  0
 13 35  1  0
 16 36  1  0
 17 37  1  0
 20 38  1  0
 20 39  1  0
 21 40  1  0
 21 41  1  0
 22 42  1  0
 23 43  1  0
M  END
>  <smiles>  (8) 
O=C(NCCCC(O)=NO)c1ccnc2ccc(OCCO)cc12

>  <score_type>  (8) 
oracle

>  <origin>  (8) 
adg

>  <m_score__min__energy>  (8) 
-8.0199999999999996

>  <m_primary>  (8) 
energy

$$$$
8:0
     RDKit          3D

 50 52  0  0  0  0  0  0  0  0999 V2000
   57.7500   34.0700   45.6140 C   0  0  0  0  0  0  0  0  0  0  0  0
   59.1100   34.2560   46.1380 N   0  0  0  0  0  0  0  0  0  0  0  0
   59.6420   35.6210   46.2460 C   0  0  0  0  0  0  0  0  0  0  0  0
   59.9140   33.1110   46.5380 C   0  0  0  0  0  0  0  0  0  0  0  0
   61.2990   33.2460   46.7790 C   0  0  0  0  0  0  0  0  0  0  0  0
   62.0670   32.1460   47.1680 C   0  0  0  0  0  0  0  0  0  0  0  0
   61.4770   30.8930   47.3180 C   0  0  0  0  0  0  0  0  0  0  0  0
   60.1080   30.7260   47.0730 C   0  0  0  0  0  0  0  0  0  0  0  0
   59.4670   29.3790   47.2620 C   0  0  0  0  0  0  0  0  0  0  0  0
   60.0370   28.4210   46.3070 N   0  0  0  0  0  0  0  0  0  0  0  0
   59.8880   28.8830   44.9180 C   0  0  0  0  0  0  0  0  0  0  0  0
   58.4750   29.3460   44.6140 C   0  0  0  0  0  0  0  0  0  0  0  0
   58.2860   30.6230   44.0590 C   0  0  0  0  0  0  0  0  0  0  0  0
   57.0010   31.1120   43.8300 C   0  0  0  0  0  0  0  0  0  0  0  0
   55.9030   30.3190   44.1540 C   0  0  0  0  0  0  0  0  0  0  0  0
   56.0910   29.0790   44.6770 N   0  0  0  0  0  0  0  0  0  0  0  0
   57.3300   28.5660   44.9090 C   0  0  0  0  0  0  0  0  0  0  0  0
   57.4330   27.2340   45.4340 N   0  0  0  0  0  0  0  0  0  0  0  0
   57.3950   26.0810   44.5230 C   0  0  0  0  0  0  0  0  0  0  0  0
   56.4210   24.9860   45.0270 C   0  0  0  0  0  0  0  0  0  0  0  0
   55.9590   25.1720   46.3570 O   0  0  0  0  0  0  0  0  0  0  0  0
   57.0160   25.5810   47.1960 C   0  0  0  0  0  0  0  0  0  0  0  0
   57.3580   27.0340   46.8840 C   0  0  0  0  0  0  0  0  0  0  0  0
   59.3320   31.8340   46.7010 C   0  0  0  0  0  0  0  0  0  0  0  0
   57.0442   33.9735   46.4521 H   0  0  0  0  0  0  0  0  0  0  0  0
   57.4721   34.9385   44.9988 H   0  0  0  0  0  0  0  0  0  0  0  0
   57.7155   33.1588   44.9988 H   0  0  0  0  0  0  0  0  0  0  0  0
   59.7471   35.8907   47.3072 H   0  0  0  0  0  0  0  0  0  0  0  0
   60.6255   35.6711   45.7558 H   0  0  0  0  0  0  0  0  0  0  0  0
   58.9518   36.3234   45.7558 H   0  0  0  0  0  0  0  0  0  0  0  0
   61.7785   34.2287   46.6590 H   0  0  0  0  0  0  0  0  0  0  0  0
   63.1436   32.2698   47.3569 H   0  0  0  0  0  0  0  0  0  0  0  0
   62.0876   30.0327   47.6296 H   0  0  0  0  0  0  0  0  0  0  0  0
   59.6519   29.0268   48.2876 H   0  0  0  0  0  0  0  0  0  0  0  0
   58.3838   29.4639   47.0900 H   0  0  0  0  0  0  0  0  0  0  0  0
   61.0510   28.2840   46.5240 H   0  0  0  0  0  0  0  0  0  0  0  0
   60.5794   29.7215   44.7479 H   0  0  0  0  0  0  0  0  0  0  0  0
   60.1145   28.0350   44.2549 H   0  0  0  0  0  0  0  0  0  0  0  0
   59.1589   31.2416   43.8033 H   0  0  0  0  0  0  0  0  0  0  0  0
   56.8558   32.1132   43.3981 H   0  0  0  0  0  0  0  0  0  0  0  0
   54.8834   30.6965   43.9865 H   0  0  0  0  0  0  0  0  0  0  0  0
   57.0660   26.4215   43.5301 H   0  0  0  0  0  0  0  0  0  0  0  0
   58.4047   25.6472   44.4756 H   0  0  0  0  0  0  0  0  0  0  0  0
   55.5470   24.9706   44.3593 H   0  0  0  0  0  0  0  0  0  0  0  0
   56.9846   24.0414   45.0221 H   0  0  0  0  0  0  0  0  0  0  0  0
   56.7084   25.4915   48.2483 H   0  0  0  0  0  0  0  0  0  0  0  0
   57.8968   24.9448   47.0241 H   0  0  0  0  0  0  0  0  0  0  0  0
   56.5791   27.6888   47.3017 H   0  0  0  0  0  0  0  0  0  0  0  0
   58.3325   27.2785   47.3319 H   0  0  0  0  0  0  0  0  0  0  0  0
   58.2524   31.7064   46.5334 H   0  0  0  0  0  0  0  0  0  0  0  0
  1  2  1  0
  2  3  1  0
  2  4  1  0
  4  5  2  0
  5  6  1  0
  6  7  2  0
  7  8  1  0
  8  9  1  0
  9 10  1  0
 10 11  1  0
 11 12  1  0
 12 13  2  0
 13 14  1  0
 14 15  2  0
 15 16  1  0
 16 17  2  0
 17 18  1  0
 18 19  1  0
 19 20  1  0
 20 21  1  0
 21 22  1  0
 22 23  1  0
  8 24  2  0
 24  4  1  0
 17 12  1  0
 23 18  1  0
  1 25  1  0
  1 26  1  0
  1 27  1  0
  3 28  1  0
  3 29  1  0
  3 30  1  0
  5 31  1  0
  6 32  1  0
  7 33  1  0
  9 34  1  0
  9 35  1  0
 10 36  1  0
 11 37  1  0
 11 38  1  0
 13 39  1  0
 14 40  1  0
 15 41  1  0
 19 42  1  0
 19 43  1  0
 20 44  1  0
 20 45  1  0
 22 46  1  0
 22 47  1  0
 23 48  1  0
 23 49  1  0
 24 50  1  0
M  END
>  <UniqueID>  (9) 
8

>  <SMILES>  (9) 
CN(C)c1cccc(CNCc2cccnc2N2CCOCC2)c1

>  <Energy>  (9) 
65.2230532376102

>  <Genealogy>  (9) 
CN(C)c1cccc(CNCc2cccnc2N2CCOCC2)c1 (3D coordinates assigned)
CN(C)c1cccc(CNCc2cccnc2N2CCOCC2)c1 (nonaromatic ring conformer: 65.2230532376102 kcal/mol)

>  <smiles>  (9) 
CN(C)c1cccc(CNCc2cccnc2N2CCOCC2)c1

>  <score_type>  (9) 
oracle

>  <origin>  (9) 
adg

>  <m_score__min__energy>  (9) 
-7.0300000000000002

>  <m_primary>  (9) 
energy

$$$$
9:0
     RDKit          3D

 50 53  0  0  0  0  0  0  0  0999 V2000
   64.0530   33.8450   50.6550 C   0  0  0  0  0  0  0  0  0  0  0  0
   62.9210   33.8410   49.6730 C   0  0  0  0  0  0  0  0  0  0  0  0
   61.5910   33.8430   50.1050 C   0  0  0  0  0  0  0  0  0  0  0  0
   60.5830   33.8000   49.1990 N   0  0  0  0  0  0  0  0  0  0  0  0
   60.8310   33.7440   47.8610 C   0  0  0  0  0  0  0  0  0  0  0  0
   59.7440   33.6950   46.9120 N   0  0  0  0  0  0  0  0  0  0  0  0
   59.9980   34.0290   45.5020 C   0  0  0  0  0  0  0  0  0  0  0  0
   58.8790   33.5150   44.5780 C   0  0  0  0  0  0  0  0  0  0  0  0
   58.1990   32.2300   45.1230 C   0  0  0  0  0  0  0  0  0  0  0  0
   59.2440   31.0640   45.2640 C   0  0  0  0  0  0  0  0  0  0  0  0
   58.9050   29.8180   44.4280 C   0  0  0  0  0  0  0  0  0  0  0  0
   57.5100   29.3660   44.6220 N   0  0  0  0  0  0  0  0  0  0  0  0
   57.3510   28.5970   45.8750 C   0  0  0  0  0  0  0  0  0  0  0  0
   57.5140   27.1310   45.6130 C   0  0  0  0  0  0  0  0  0  0  0  0
   57.4060   26.5620   44.3930 N   0  0  0  0  0  0  0  0  0  0  0  0
   57.6420   25.2230   44.4200 C   0  0  0  0  0  0  0  0  0  0  0  0
   57.9500   24.7120   45.6760 C   0  0  0  0  0  0  0  0  0  0  0  0
   57.9250   25.9880   46.7750 S   0  0  0  0  0  0  0  0  0  0  0  0
   56.4910   30.4420   44.4770 C   0  0  0  0  0  0  0  0  0  0  0  0
   57.0830   31.8170   44.1240 C   0  0  0  0  0  0  0  0  0  0  0  0
   57.5530   32.5630   46.5070 C   0  0  0  0  0  0  0  0  0  0  0  0
   58.3520   33.5650   47.3660 C   0  0  0  0  0  0  0  0  0  0  0  0
   62.1220   33.7220   47.4260 N   0  0  0  0  0  0  0  0  0  0  0  0
   63.1640   33.7630   48.2970 C   0  0  0  0  0  0  0  0  0  0  0  0
   63.6504   33.8436   51.6787 H   0  0  0  0  0  0  0  0  0  0  0  0
   64.6729   32.9490   50.5036 H   0  0  0  0  0  0  0  0  0  0  0  0
   64.6666   34.7453   50.5036 H   0  0  0  0  0  0  0  0  0  0  0  0
   61.3624   33.8795   51.1804 H   0  0  0  0  0  0  0  0  0  0  0  0
   60.0667   35.1223   45.4026 H   0  0  0  0  0  0  0  0  0  0  0  0
   60.9378   33.5428   45.2012 H   0  0  0  0  0  0  0  0  0  0  0  0
   58.1165   34.3014   44.4767 H   0  0  0  0  0  0  0  0  0  0  0  0
   59.3352   33.2655   43.6086 H   0  0  0  0  0  0  0  0  0  0  0  0
   60.2269   31.4393   44.9431 H   0  0  0  0  0  0  0  0  0  0  0  0
   59.2343   30.7527   46.3190 H   0  0  0  0  0  0  0  0  0  0  0  0
   59.0537   30.0561   43.3644 H   0  0  0  0  0  0  0  0  0  0  0  0
   59.5680   29.0046   44.7578 H   0  0  0  0  0  0  0  0  0  0  0  0
   58.1125   28.9225   46.5990 H   0  0  0  0  0  0  0  0  0  0  0  0
   56.3437   28.7772   46.2786 H   0  0  0  0  0  0  0  0  0  0  0  0
   57.1720   27.0860   43.5210 H   0  0  0  0  0  0  0  0  0  0  0  0
   57.5931   24.5937   43.5191 H   0  0  0  0  0  0  0  0  0  0  0  0
   58.1709   23.6602   45.9104 H   0  0  0  0  0  0  0  0  0  0  0  0
   55.7911   30.1512   43.6798 H   0  0  0  0  0  0  0  0  0  0  0  0
   55.9972   30.5481   45.4542 H   0  0  0  0  0  0  0  0  0  0  0  0
   57.5087   31.7734   43.1106 H   0  0  0  0  0  0  0  0  0  0  0  0
   56.2773   32.5639   44.1785 H   0  0  0  0  0  0  0  0  0  0  0  0
   56.5542   32.9868   46.3260 H   0  0  0  0  0  0  0  0  0  0  0  0
   57.5265   31.6201   47.0729 H   0  0  0  0  0  0  0  0  0  0  0  0
   57.8659   34.5500   47.3064 H   0  0  0  0  0  0  0  0  0  0  0  0
   58.3664   33.1892   48.3997 H   0  0  0  0  0  0  0  0  0  0  0  0
   64.1974   33.7349   47.9210 H   0  0  0  0  0  0  0  0  0  0  0  0
  1  2  1  0
  2  3  2  0
  3  4  1  0
  4  5  2  0
  5  6  1  0
  6  7  1  0
  7  8  1  0
  8  9  1  0
  9 10  1  0
 10 11  1  0
 11 12  1  0
 12 13  1  0
 13 14  1  0
 14 15  2  0
 15 16  1  0
 16 17  2  0
 17 18  1  0
 12 19  1  0
 19 20  1  0
  9 21  1  0
 21 22  1  0
  5 23  1  0
 23 24  2  0
 24  2  1  0
 22  6  1  0
 20  9  1  0
 18 14  1  0
  1 25  1  0
  1 26  1  0
  1 27  1  0
  3 28  1  0
  7 29  1  0
  7 30  1  0
  8 31  1  0
  8 32  1  0
 10 33  1  0
 10 34  1  0
 11 35  1  0
 11 36  1  0
 13 37  1  0
 13 38  1  0
 15 39  1  0
 16 40  1  0
 17 41  1  0
 19 42  1  0
 19 43  1  0
 20 44  1  0
 20 45  1  0
 21 46  1  0
 21 47  1  0
 22 48  1  0
 22 49  1  0
 24 50  1  0
M  CHG  1  15   1
M  END
>  <UniqueID>  (10) 
9

>  <SMILES>  (10) 
Cc1cnc(N2CCC3(CCN(Cc4[nH+]ccs4)CC3)CC2)nc1

>  <Energy>  (10) 
99.14394864437516

>  <Genealogy>  (10) 
Cc1cnc(N2CCC3(CCN(Cc4[nH+]ccs4)CC3)CC2)nc1 (protonated)
Cc1cnc(N2CCC3(CCN(Cc4[nH+]ccs4)CC3)CC2)nc1 (3D coordinates assigned)
Cc1cnc(N2CCC3(CCN(Cc4[nH+]ccs4)CC3)CC2)nc1 (nonaromatic ring conformer: 99.14394864437516 kcal/mol)

>  <smiles>  (10) 
Cc1cnc(N2CCC3(CCN(Cc4nccs4)CC3)CC2)nc1

>  <score_type>  (10) 
oracle

>  <origin>  (10) 
adg

>  <m_score__min__energy>  (10) 
-5.9000000000000004

>  <m_primary>  (10) 
energy

$$$$
10:0
     RDKit          3D

 48 51  0  0  0  0  0  0  0  0999 V2000
   59.8330   34.1200   50.3130 O   0  0  0  0  0  0  0  0  0  0  0  0
   60.2280   33.5320   49.2620 C   0  0  0  0  0  0  0  0  0  0  0  0
   59.1970   33.1490   48.2090 C   0  0  2  0  0  0  0  0  0  0  0  0
   59.5420   31.8530   47.4190 C   0  0  0  0  0  0  0  0  0  0  0  0
   58.8430   31.7210   46.1070 N   0  0  1  0  0  0  0  0  0  0  0  0
   58.5950   30.2920   45.8020 C   0  0  0  0  0  0  0  0  0  0  0  0
   57.4710   30.1150   44.8200 C   0  0  0  0  0  0  0  0  0  0  0  0
   57.5450   30.3390   43.4570 C   0  0  0  0  0  0  0  0  0  0  0  0
   56.2800   30.0800   42.9690 C   0  0  0  0  0  0  0  0  0  0  0  0
   55.5110   29.7210   44.0620 C   0  0  0  0  0  0  0  0  0  0  0  0
   56.2500   29.7530   45.1520 O   0  0  0  0  0  0  0  0  0  0  0  0
   57.5780   32.4960   46.0590 C   0  0  0  0  0  0  0  0  0  0  0  0
   57.8490   34.0150   46.1830 C   0  0  2  0  0  0  0  0  0  0  0  0
   58.3690   34.6340   44.8690 C   0  0  0  0  0  0  0  0  0  0  0  0
   59.5720   35.4910   45.2410 C   0  0  0  0  0  0  0  0  0  0  0  0
   60.1270   34.8750   46.5160 C   0  0  0  0  0  0  0  0  0  0  0  0
   58.9000   34.3440   47.2650 C   0  0  2  0  0  0  0  0  0  0  0  0
   61.6260   33.2400   49.1180 N   0  0  0  0  0  0  0  0  0  0  0  0
   62.1550   31.9140   49.4410 C   0  0  0  0  0  0  0  0  0  0  0  0
   63.4620   31.7870   48.9160 O   0  0  0  0  0  0  0  0  0  0  0  0
   63.4500   32.1510   47.5420 C   0  0  0  0  0  0  0  0  0  0  0  0
   62.8960   33.5850   47.3320 C   0  0  0  0  0  0  0  0  0  0  0  0
   62.4750   34.1460   48.5550 O   0  0  0  0  0  0  0  0  0  0  0  0
   58.2776   32.9032   48.7606 H   0  0  0  0  0  0  0  0  0  0  0  0
   60.6261   31.8429   47.2328 H   0  0  0  0  0  0  0  0  0  0  0  0
   59.2031   31.0101   48.0392 H   0  0  0  0  0  0  0  0  0  0  0  0
   59.4900   32.0920   45.3700 H   0  0  0  0  0  0  0  0  0  0  0  0
   59.5106   29.8551   45.3769 H   0  0  0  0  0  0  0  0  0  0  0  0
   58.3123   29.7879   46.7379 H   0  0  0  0  0  0  0  0  0  0  0  0
   58.4273   30.6570   42.8822 H   0  0  0  0  0  0  0  0  0  0  0  0
   55.9497   30.1458   41.9218 H   0  0  0  0  0  0  0  0  0  0  0  0
   54.4454   29.4503   44.0261 H   0  0  0  0  0  0  0  0  0  0  0  0
   57.0719   32.2984   45.1025 H   0  0  0  0  0  0  0  0  0  0  0  0
   56.9455   32.1843   46.9032 H   0  0  0  0  0  0  0  0  0  0  0  0
   56.8709   34.4409   46.4511 H   0  0  0  0  0  0  0  0  0  0  0  0
   58.6694   33.8411   44.1682 H   0  0  0  0  0  0  0  0  0  0  0  0
   57.5899   35.2344   44.3765 H   0  0  0  0  0  0  0  0  0  0  0  0
   60.3261   35.4642   44.4406 H   0  0  0  0  0  0  0  0  0  0  0  0
   59.2948   36.5460   45.3830 H   0  0  0  0  0  0  0  0  0  0  0  0
   60.8206   34.0547   46.2792 H   0  0  0  0  0  0  0  0  0  0  0  0
   60.6940   35.6032   47.1145 H   0  0  0  0  0  0  0  0  0  0  0  0
   58.5264   35.1082   47.9624 H   0  0  0  0  0  0  0  0  0  0  0  0
   62.1847   31.7872   50.5333 H   0  0  0  0  0  0  0  0  0  0  0  0
   61.5062   31.1430   48.9998 H   0  0  0  0  0  0  0  0  0  0  0  0
   64.4777   32.1055   47.1524 H   0  0  0  0  0  0  0  0  0  0  0  0
   62.7937   31.4486   47.0074 H   0  0  0  0  0  0  0  0  0  0  0  0
   63.6859   34.2164   46.8992 H   0  0  0  0  0  0  0  0  0  0  0  0
   62.0316   33.5319   46.6538 H   0  0  0  0  0  0  0  0  0  0  0  0
  1  2  2  0
  2  3  1  0
  3  4  1  0
  4  5  1  0
  5  6  1  0
  6  7  1  0
  7  8  2  0
  8  9  1  0
  9 10  2  0
 10 11  1  0
  5 12  1  0
 12 13  1  0
 13 14  1  0
 14 15  1  0
 15 16  1  0
 16 17  1  0
  2 18  1  0
 18 19  1  0
 19 20  1  0
 20 21  1  0
 21 22  1  0
 22 23  1  0
 17  3  1  0
 23 18  1  0
 11  7  1  0
 17 13  1  0
  3 24  1  1
  4 25  1  0
  4 26  1  0
  5 27  1  6
  6 28  1  0
  6 29  1  0
  8 30  1  0
  9 31  1  0
 10 32  1  0
 12 33  1  0
 12 34  1  0
 13 35  1  1
 14 36  1  0
 14 37  1  0
 15 38  1  0
 15 39  1  0
 16 40  1  0
 16 41  1  0
 17 42  1  1
 19 43  1  0
 19 44  1  0
 21 45  1  0
 21 46  1  0
 22 47  1  0
 22 48  1  0
M  CHG  1   5   1
M  END
>  <UniqueID>  (11) 
10

>  <SMILES>  (11) 
O=C([C@@H]1C[N@@H+](Cc2ccco2)CC2CCCC21)N1COCCO1

>  <Energy>  (11) 
98.55871907420968

>  <Genealogy>  (11) 
O=C(C1C[NH+](Cc2ccco2)CC2CCCC21)N1COCCO1 (protonated)
O=C([C@@H]1C[N@@H+](Cc2ccco2)CC2CCCC21)N1COCCO1 (chirality)
O=C([C@@H]1C[N@@H+](Cc2ccco2)CC2CCCC21)N1COCCO1 (3D coordinates assigned)
O=C([C@@H]1C[N@@H+](Cc2ccco2)CC2CCCC21)N1COCCO1 (nonaromatic ring conformer: 98.55871907420968 kcal/mol)

>  <smiles>  (11) 
O=C(C1CN(Cc2ccco2)CC2CCCC21)N1COCCO1

>  <score_type>  (11) 
oracle

>  <origin>  (11) 
adg

>  <m_score__min__energy>  (11) 
-6.4800000000000004

>  <m_primary>  (11) 
energy

$$$$
11:0
     RDKit          3D

 52 54  0  0  0  0  0  0  0  0999 V2000
   55.9388   31.5850   43.0490 H   0  0  0  0  0  0  0  0  0  0  0  0
   56.8130   31.2230   43.6100 C   0  0  0  0  0  0  0  0  0  0  0  0
   57.1170   29.9190   43.5220 C   0  0  0  0  0  0  0  0  0  0  0  0
   57.3987   29.5272   42.5335 H   0  0  0  0  0  0  0  0  0  0  0  0
   57.1010   28.9530   44.6760 C   0  0  0  0  0  0  0  0  0  0  0  0
   56.1406   29.0322   45.2064 H   0  0  0  0  0  0  0  0  0  0  0  0
   57.2287   27.9285   44.2965 H   0  0  0  0  0  0  0  0  0  0  0  0
   58.2080   29.2740   45.6090 N   0  0  0  0  0  0  0  0  0  0  0  0
   59.5080   29.3890   44.9100 C   0  0  0  0  0  0  0  0  0  0  0  0
   59.5849   28.5740   44.1752 H   0  0  0  0  0  0  0  0  0  0  0  0
   59.5381   30.3777   44.4288 H   0  0  0  0  0  0  0  0  0  0  0  0
   60.7170   29.3030   45.8710 C   0  0  0  0  0  0  0  0  0  0  0  0
   61.1145   28.2777   45.8422 H   0  0  0  0  0  0  0  0  0  0  0  0
   61.4576   30.0425   45.5323 H   0  0  0  0  0  0  0  0  0  0  0  0
   60.3730   29.6340   47.2680 N   0  0  0  0  0  0  0  0  0  0  0  0
   60.4320   31.0750   47.5990 C   0  0  0  0  0  0  0  0  0  0  0  0
   60.0366   31.6445   46.7450 H   0  0  0  0  0  0  0  0  0  0  0  0
   59.8353   31.2213   48.5114 H   0  0  0  0  0  0  0  0  0  0  0  0
   61.8230   31.5680   47.8970 C   0  0  0  0  0  0  0  0  0  0  0  0
   62.7050   31.9230   46.9400 N   0  0  0  0  0  0  0  0  0  0  0  0
   63.7870   32.3480   47.5740 N   0  0  0  0  0  0  0  0  0  0  0  0
   64.6500   32.7050   47.1070 H   0  0  0  0  0  0  0  0  0  0  0  0
   63.5670   32.2590   48.8950 C   0  0  0  0  0  0  0  0  0  0  0  0
   64.2892   32.5471   49.6731 H   0  0  0  0  0  0  0  0  0  0  0  0
   62.3370   31.7670   49.1320 N   0  0  0  0  0  0  0  0  0  0  0  0
   61.6890   31.6190   50.4310 C   0  0  0  0  0  0  0  0  0  0  0  0
   62.4262   31.7874   51.2298 H   0  0  0  0  0  0  0  0  0  0  0  0
   60.8762   32.3546   50.5212 H   0  0  0  0  0  0  0  0  0  0  0  0
   61.2761   30.6034   50.5212 H   0  0  0  0  0  0  0  0  0  0  0  0
   59.2030   28.9050   47.8150 C   0  0  0  0  0  0  0  0  0  0  0  0
   59.5668   28.0833   48.4494 H   0  0  0  0  0  0  0  0  0  0  0  0
   58.6014   29.6277   48.3858 H   0  0  0  0  0  0  0  0  0  0  0  0
   58.3010   28.3170   46.7220 C   0  0  0  0  0  0  0  0  0  0  0  0
   58.7299   27.3711   46.3597 H   0  0  0  0  0  0  0  0  0  0  0  0
   57.2981   28.1262   47.1317 H   0  0  0  0  0  0  0  0  0  0  0  0
   57.5710   32.2020   44.4070 C   0  0  0  0  0  0  0  0  0  0  0  0
   58.4370   33.0960   43.7640 C   0  0  0  0  0  0  0  0  0  0  0  0
   58.5324   33.0735   42.6684 H   0  0  0  0  0  0  0  0  0  0  0  0
   59.1800   34.0160   44.5080 C   0  0  0  0  0  0  0  0  0  0  0  0
   59.8799   34.6946   43.9984 H   0  0  0  0  0  0  0  0  0  0  0  0
   59.0370   34.0780   45.9040 C   0  0  0  0  0  0  0  0  0  0  0  0
   59.8820   35.0260   46.7110 C   0  0  0  0  0  0  0  0  0  0  0  0
   59.4408   36.0326   46.6647 H   0  0  0  0  0  0  0  0  0  0  0  0
   60.8997   35.0372   46.2937 H   0  0  0  0  0  0  0  0  0  0  0  0
   59.9520   34.5760   48.1660 C   0  0  0  0  0  0  0  0  0  0  0  0
   59.8167   35.4458   48.8257 H   0  0  0  0  0  0  0  0  0  0  0  0
   59.1574   33.8407   48.3610 H   0  0  0  0  0  0  0  0  0  0  0  0
   60.9324   34.1168   48.3610 H   0  0  0  0  0  0  0  0  0  0  0  0
   58.1410   33.2080   46.5430 C   0  0  0  0  0  0  0  0  0  0  0  0
   58.0209   33.2515   47.6356 H   0  0  0  0  0  0  0  0  0  0  0  0
   57.4000   32.2860   45.7980 C   0  0  0  0  0  0  0  0  0  0  0  0
   56.6809   31.6244   46.3031 H   0  0  0  0  0  0  0  0  0  0  0  0
  1  2  1  0
  2  3  2  0
  3  4  1  0
  3  5  1  0
  5  6  1  0
  5  7  1  0
  5  8  1  0
  8  9  1  0
  9 10  1  0
  9 11  1  0
  9 12  1  0
 12 13  1  0
 12 14  1  0
 12 15  1  0
 15 16  1  0
 16 17  1  0
 16 18  1  0
 16 19  1  0
 19 20  2  0
 20 21  1  0
 21 22  1  0
 21 23  2  0
 23 24  1  0
 23 25  1  0
 25 26  1  0
 26 27  1  0
 26 28  1  0
 26 29  1  0
 15 30  1  0
 30 31  1  0
 30 32  1  0
 30 33  1  0
 33 34  1  0
 33 35  1  0
  2 36  1  0
 36 37  2  0
 37 38  1  0
 37 39  1  0
 39 40  1  0
 39 41  2  0
 41 42  1  0
 42 43  1  0
 42 44  1  0
 42 45  1  0
 45 46  1  0
 45 47  1  0
 45 48  1  0
 41 49  1  0
 49 50  1  0
 49 51  2  0
 51 52  1  0
 33  8  1  0
 51 36  1  0
 25 19  1  0
M  CHG  1  21   1
M  END
>  <UniqueID>  (12) 
11

>  <SMILES>  (12) 
CCc1ccc(/C=C\CN2CCN(Cc3n[nH+]cn3C)CC2)cc1

>  <Energy>  (12) 
101.44628653710002

>  <Genealogy>  (12) 
CCc1ccc(C=CCN2CCN(Cc3n[nH+]cn3C)CC2)cc1 (protonated)
CCc1ccc(/C=C\CN2CCN(Cc3n[nH+]cn3C)CC2)cc1 (cis-trans isomerization)
CCc1ccc(/C=C\CN2CCN(Cc3n[nH+]cn3C)CC2)cc1 (3D coordinates assigned)
CCc1ccc(/C=C\CN2CCN(Cc3n[nH+]cn3C)CC2)cc1 (nonaromatic ring conformer: 101.44628653710002 kcal/mol)

>  <smiles>  (12) 
CCc1ccc(C=CCN2CCN(Cc3nncn3C)CC2)cc1

>  <score_type>  (12) 
oracle

>  <origin>  (12) 
adg

>  <m_score__min__energy>  (12) 
-6.6699999999999999

>  <m_primary>  (12) 
energy

$$$$
12:0
     RDKit          3D

 34 36  0  0  0  0  0  0  0  0999 V2000
   59.2670   34.2200   44.4670 C   0  0  0  0  0  0  0  0  0  0  0  0
   59.2640   34.9790   45.7970 C   0  0  0  0  0  0  0  0  0  0  0  0
   58.6840   34.2270   46.9340 N   0  0  0  0  0  0  0  0  0  0  0  0
   57.7200   33.1690   46.5760 C   0  0  0  0  0  0  0  0  0  0  0  0
   58.3970   31.8500   46.3000 C   0  0  0  0  0  0  0  0  0  0  0  0
   59.6420   31.5700   46.8780 C   0  0  0  0  0  0  0  0  0  0  0  0
   60.2380   30.3690   46.6400 N   0  0  0  0  0  0  0  0  0  0  0  0
   59.6390   29.4260   45.8700 C   0  0  0  0  0  0  0  0  0  0  0  0
   60.3800   27.9960   45.6100 S   0  0  0  0  0  0  0  0  0  0  0  0
   58.4210   29.6690   45.3230 N   0  0  0  0  0  0  0  0  0  0  0  0
   57.7860   30.8520   45.5240 C   0  0  0  0  0  0  0  0  0  0  0  0
   56.6520   31.0400   45.0090 O   0  0  0  0  0  0  0  0  0  0  0  0
   60.2960   32.5530   47.6990 N   0  0  0  0  0  0  0  0  0  0  0  0
   61.4110   32.1660   48.5220 C   0  0  0  0  0  0  0  0  0  0  0  0
   62.7170   32.5820   48.1900 C   0  0  0  0  0  0  0  0  0  0  0  0
   63.0310   33.5530   46.7570 Cl  0  0  0  0  0  0  0  0  0  0  0  0
   63.7990   32.2040   48.9950 C   0  0  0  0  0  0  0  0  0  0  0  0
   63.5910   31.4100   50.1240 C   0  0  0  0  0  0  0  0  0  0  0  0
   62.3020   30.9860   50.4530 C   0  0  0  0  0  0  0  0  0  0  0  0
   61.2120   31.3550   49.6580 C   0  0  0  0  0  0  0  0  0  0  0  0
   59.6110   30.7950   50.1120 Cl  0  0  0  0  0  0  0  0  0  0  0  0
   59.6400   33.8350   47.9900 C   0  0  0  0  0  0  0  0  0  0  0  0
   59.2713   33.1375   44.6626 H   0  0  0  0  0  0  0  0  0  0  0  0
   58.3678   34.4851   43.8915 H   0  0  0  0  0  0  0  0  0  0  0  0
   60.1641   34.4922   43.8915 H   0  0  0  0  0  0  0  0  0  0  0  0
   60.3039   35.2341   46.0490 H   0  0  0  0  0  0  0  0  0  0  0  0
   58.6267   35.8634   45.6502 H   0  0  0  0  0  0  0  0  0  0  0  0
   57.0136   33.0370   47.4088 H   0  0  0  0  0  0  0  0  0  0  0  0
   57.2023   33.4812   45.6570 H   0  0  0  0  0  0  0  0  0  0  0  0
   64.8161   32.5339   48.7367 H   0  0  0  0  0  0  0  0  0  0  0  0
   64.4433   31.1181   50.7551 H   0  0  0  0  0  0  0  0  0  0  0  0
   62.1429   30.3584   51.3422 H   0  0  0  0  0  0  0  0  0  0  0  0
   59.0980   33.7469   48.9431 H   0  0  0  0  0  0  0  0  0  0  0  0
   60.4203   34.6086   48.0422 H   0  0  0  0  0  0  0  0  0  0  0  0
  1  2  1  0
  2  3  1  0
  3  4  1  0
  4  5  1  0
  5  6  2  0
  6  7  1  0
  7  8  1  0
  8  9  2  0
  8 10  1  0
 10 11  1  0
 11 12  2  0
  6 13  1  0
 13 14  1  0
 14 15  2  0
 15 16  1  0
 15 17  1  0
 17 18  2  0
 18 19  1  0
 19 20  2  0
 20 21  1  0
 13 22  1  0
 22  3  1  0
 11  5  1  0
 20 14  1  0
  1 23  1  0
  1 24  1  0
  1 25  1  0
  2 26  1  0
  2 27  1  0
  4 28  1  0
  4 29  1  0
 17 30  1  0
 18 31  1  0
 19 32  1  0
 22 33  1  0
 22 34  1  0
M  CHG  2   7  -1  10  -1
M  END
>  <UniqueID>  (13) 
12

>  <SMILES>  (13) 
CCN1Cc2c([n-]c(=S)[n-]c2=O)N(c2c(Cl)cccc2Cl)C1

>  <Energy>  (13) 
52.66466542849269

>  <Genealogy>  (13) 
CCN1Cc2c([n-]c(=S)[n-]c2=O)N(c2c(Cl)cccc2Cl)C1 (protonated)
CCN1Cc2c([n-]c(=S)[n-]c2=O)N(c2c(Cl)cccc2Cl)C1 (3D coordinates assigned)
CCN1Cc2c([n-]c(=S)[n-]c2=O)N(c2c(Cl)cccc2Cl)C1 (nonaromatic ring conformer: 52.66466542849269 kcal/mol)

>  <smiles>  (13) 
CCN1Cc2c([nH]c(=S)[nH]c2=O)N(c2c(Cl)cccc2Cl)C1

>  <score_type>  (13) 
oracle

>  <origin>  (13) 
adg

>  <m_score__min__energy>  (13) 
-8.9700000000000006

>  <m_primary>  (13) 
energy

$$$$
13:0
     RDKit          3D

 18 19  0  0  0  0  0  0  0  0999 V2000
   57.1859   24.7257   47.7615 H   0  0  0  0  0  0  0  0  0  0  0  0
   56.8560   25.5070   47.0610 C   0  0  0  0  0  0  0  0  0  0  0  0
   55.6100   25.7490   46.7130 O   0  0  0  0  0  0  0  0  0  0  0  0
   55.5340   26.7370   45.8680 N   0  0  0  0  0  0  0  0  0  0  0  0
   56.8000   27.1440   45.6560 C   0  0  0  0  0  0  0  0  0  0  0  0
   57.1420   28.1400   44.8930 N   0  0  0  0  0  0  0  0  0  0  0  0
   56.3930   29.3530   44.7310 C   0  0  0  0  0  0  0  0  0  0  0  0
   55.1420   29.3150   44.8670 O   0  0  0  0  0  0  0  0  0  0  0  0
   57.0410   30.6510   44.4750 C   0  0  0  0  0  0  0  0  0  0  0  0
   57.3120   31.5250   45.4180 O   0  0  0  0  0  0  0  0  0  0  0  0
   57.9060   32.5580   44.8670 C   0  0  0  0  0  0  0  0  0  0  0  0
   58.4940   34.0950   45.8300 Br  0  0  0  0  0  0  0  0  0  0  0  0
   58.0420   32.3610   43.5100 C   0  0  0  0  0  0  0  0  0  0  0  0
   58.4998   33.0475   42.7826 H   0  0  0  0  0  0  0  0  0  0  0  0
   57.4860   31.1260   43.2520 C   0  0  0  0  0  0  0  0  0  0  0  0
   57.4112   30.6222   42.2770 H   0  0  0  0  0  0  0  0  0  0  0  0
   57.6790   26.3950   46.4020 C   0  0  0  0  0  0  0  0  0  0  0  0
   58.7740   26.4830   46.4592 H   0  0  0  0  0  0  0  0  0  0  0  0
  1  2  1  0
  2  3  1  0
  3  4  1  0
  4  5  1  0
  5  6  2  0
  6  7  1  0
  7  8  2  0
  7  9  1  0
  9 10  1  0
 10 11  1  0
 11 12  1  0
 11 13  2  0
 13 14  1  0
 13 15  1  0
 15 16  1  0
  5 17  1  0
 17 18  1  0
 17  2  2  0
 15  9  2  0
M  CHG  1   4  -1
M  END
>  <UniqueID>  (14) 
13

>  <SMILES>  (14) 
O=C(/N=c1/cco[n-]1)c1ccc(Br)o1

>  <Energy>  (14) 
81.06022674546941

>  <Genealogy>  (14) 
O=C(N=c1cco[n-]1)c1ccc(Br)o1 (protonated)
O=C(/N=c1/cco[n-]1)c1ccc(Br)o1 (cis-trans isomerization)
O=C(/N=c1/cco[n-]1)c1ccc(Br)o1 (3D coordinates assigned)
O=C(/N=c1/cco[n-]1)c1ccc(Br)o1 (optimized conformer: 81.06022674546941 kcal/mol)

>  <smiles>  (14) 
O=C(N=c1cco[nH]1)c1ccc(Br)o1

>  <score_type>  (14) 
oracle

>  <origin>  (14) 
adg

>  <m_score__min__energy>  (14) 
-8.9900000000000002

>  <m_primary>  (14) 
energy

$$$$
14:0
     RDKit          3D

 29 31  0  0  0  0  0  0  0  0999 V2000
   56.5990   30.4680   43.6470 C   0  0  0  0  0  0  0  0  0  0  0  0
   56.6140   31.2170   44.8590 O   0  0  0  0  0  0  0  0  0  0  0  0
   57.7780   31.5760   45.5540 C   0  0  0  0  0  0  0  0  0  0  0  0
   58.0600   32.9050   45.9200 C   0  0  0  0  0  0  0  0  0  0  0  0
   59.2330   33.2120   46.6140 C   0  0  0  0  0  0  0  0  0  0  0  0
   60.1490   32.2010   46.9560 C   0  0  0  0  0  0  0  0  0  0  0  0
   61.3970   32.5260   47.6920 C   0  0  0  0  0  0  0  0  0  0  0  0
   62.6700   32.2700   47.1220 C   0  0  0  0  0  0  0  0  0  0  0  0
   63.8140   32.5710   47.8050 N   0  0  0  0  0  0  0  0  0  0  0  0
   63.7170   33.1220   49.0390 C   0  0  0  0  0  0  0  0  0  0  0  0
   64.7610   33.4630   49.8210 N   0  0  0  0  0  0  0  0  0  0  0  0
   64.1590   33.9580   50.9320 C   0  0  0  0  0  0  0  0  0  0  0  0
   62.7800   33.9020   50.7970 C   0  0  0  0  0  0  0  0  0  0  0  0
   62.5270   33.3720   49.5940 N   0  0  0  0  0  0  0  0  0  0  0  0
   61.3520   33.1000   48.9780 C   0  0  0  0  0  0  0  0  0  0  0  0
   59.8620   30.8740   46.5860 C   0  0  0  0  0  0  0  0  0  0  0  0
   58.6870   30.5680   45.8940 C   0  0  0  0  0  0  0  0  0  0  0  0
   56.5775   29.3933   43.8804 H   0  0  0  0  0  0  0  0  0  0  0  0
   55.7060   30.7342   43.0625 H   0  0  0  0  0  0  0  0  0  0  0  0
   57.5019   30.6983   43.0625 H   0  0  0  0  0  0  0  0  0  0  0  0
   57.3533   33.7063   45.6584 H   0  0  0  0  0  0  0  0  0  0  0  0
   59.4422   34.2545   46.8957 H   0  0  0  0  0  0  0  0  0  0  0  0
   62.7369   31.8241   46.1187 H   0  0  0  0  0  0  0  0  0  0  0  0
   64.7480   32.3830   47.3780 H   0  0  0  0  0  0  0  0  0  0  0  0
   64.6891   34.3479   51.8135 H   0  0  0  0  0  0  0  0  0  0  0  0
   62.0358   34.2305   51.5374 H   0  0  0  0  0  0  0  0  0  0  0  0
   60.3916   33.3205   49.4668 H   0  0  0  0  0  0  0  0  0  0  0  0
   60.5683   30.0710   46.8435 H   0  0  0  0  0  0  0  0  0  0  0  0
   58.4749   29.5256   45.6142 H   0  0  0  0  0  0  0  0  0  0  0  0
  1  2  1  0
  2  3  1  0
  3  4  2  0
  4  5  1  0
  5  6  2  0
  6  7  1  0
  7  8  1  0
  8  9  2  0
  9 10  1  0
 10 11  2  0
 11 12  1  0
 12 13  2  0
 13 14  1  0
 14 15  1  0
  6 16  1  0
 16 17  2  0
 17  3  1  0
 15  7  2  0
 14 10  1  0
  1 18  1  0
  1 19  1  0
  1 20  1  0
  4 21  1  0
  5 22  1  0
  8 23  1  0
  9 24  1  0
 12 25  1  0
 13 26  1  0
 15 27  1  0
 16 28  1  0
 17 29  1  0
M  CHG  1   9   1
M  END
>  <UniqueID>  (15) 
14

>  <SMILES>  (15) 
COc1ccc(-c2c[nH+]c3nccn3c2)cc1

>  <Energy>  (15) 
70.81722243914976

>  <Genealogy>  (15) 
COc1ccc(-c2c[nH+]c3nccn3c2)cc1 (protonated)
COc1ccc(-c2c[nH+]c3nccn3c2)cc1 (3D coordinates assigned)
COc1ccc(-c2c[nH+]c3nccn3c2)cc1 (optimized conformer: 70.81722243914976 kcal/mol)

>  <smiles>  (15) 
COc1ccc(-c2cnc3nccn3c2)cc1

>  <score_type>  (15) 
oracle

>  <origin>  (15) 
adg

>  <m_score__min__energy>  (15) 
-4.7800000000000002

>  <m_primary>  (15) 
energy

$$$$
15:0
     RDKit          3D

 57 60  0  0  0  0  0  0  0  0999 V2000
   54.3800   24.8290   45.6190 C   0  0  0  0  0  0  0  0  0  0  0  0
   54.9530   26.0830   45.9820 O   0  0  0  0  0  0  0  0  0  0  0  0
   56.3300   26.3380   46.0390 C   0  0  0  0  0  0  0  0  0  0  0  0
   57.2000   25.2550   46.2070 C   0  0  0  0  0  0  0  0  0  0  0  0
   58.5790   25.4580   46.2680 C   0  0  0  0  0  0  0  0  0  0  0  0
   59.1050   26.7470   46.1670 C   0  0  0  0  0  0  0  0  0  0  0  0
   58.2520   27.8520   45.9950 C   0  0  0  0  0  0  0  0  0  0  0  0
   58.7970   29.1870   45.9020 N   0  0  0  0  0  0  0  0  0  0  0  0
   60.2330   29.3850   45.6590 C   0  0  0  0  0  0  0  0  0  0  0  0
   60.7300   30.6460   46.3740 C   0  0  0  0  0  0  0  0  0  0  0  0
   59.8550   31.8010   46.1130 N   0  0  0  0  0  0  0  0  0  0  0  0
   60.3440   33.1340   46.3550 C   0  0  0  0  0  0  0  0  0  0  0  0
   59.9700   34.0820   45.6100 O   0  0  0  0  0  0  0  0  0  0  0  0
   61.2690   33.4190   47.4770 C   0  0  0  0  0  0  0  0  0  0  0  0
   62.6340   33.6160   47.2010 C   0  0  0  0  0  0  0  0  0  0  0  0
   63.5430   33.8300   48.2390 C   0  0  0  0  0  0  0  0  0  0  0  0
   63.1030   33.8490   49.5630 C   0  0  0  0  0  0  0  0  0  0  0  0
   61.7520   33.6460   49.8540 C   0  0  0  0  0  0  0  0  0  0  0  0
   60.8230   33.4300   48.8200 C   0  0  0  0  0  0  0  0  0  0  0  0
   59.4250   33.2970   49.1300 N   0  0  0  0  0  0  0  0  0  0  0  0
   58.9390   32.3800   50.1590 C   0  0  0  0  0  0  0  0  0  0  0  0
   59.5490   31.0230   49.9480 C   0  0  0  0  0  0  0  0  0  0  0  0
   58.9230   30.0890   49.1050 C   0  0  0  0  0  0  0  0  0  0  0  0
   59.4610   28.8070   48.9530 C   0  0  0  0  0  0  0  0  0  0  0  0
   60.6190   28.4440   49.6500 C   0  0  0  0  0  0  0  0  0  0  0  0
   61.2390   29.3640   50.5010 C   0  0  0  0  0  0  0  0  0  0  0  0
   60.7040   30.6470   50.6540 C   0  0  0  0  0  0  0  0  0  0  0  0
   58.5820   31.6140   45.4080 C   0  0  0  0  0  0  0  0  0  0  0  0
   57.8840   30.3420   45.8970 C   0  0  0  0  0  0  0  0  0  0  0  0
   56.8620   27.6380   45.9350 C   0  0  0  0  0  0  0  0  0  0  0  0
   54.1229   24.2663   46.5286 H   0  0  0  0  0  0  0  0  0  0  0  0
   53.4706   24.9998   45.0242 H   0  0  0  0  0  0  0  0  0  0  0  0
   55.1044   24.2533   45.0242 H   0  0  0  0  0  0  0  0  0  0  0  0
   56.7938   24.2363   46.2916 H   0  0  0  0  0  0  0  0  0  0  0  0
   59.2542   24.5991   46.3962 H   0  0  0  0  0  0  0  0  0  0  0  0
   60.1930   26.8995   46.2222 H   0  0  0  0  0  0  0  0  0  0  0  0
   60.7875   28.5129   46.0360 H   0  0  0  0  0  0  0  0  0  0  0  0
   60.3979   29.5011   44.5776 H   0  0  0  0  0  0  0  0  0  0  0  0
   60.7549   30.4552   47.4570 H   0  0  0  0  0  0  0  0  0  0  0  0
   61.7339   30.8833   45.9922 H   0  0  0  0  0  0  0  0  0  0  0  0
   62.9881   33.6014   46.1596 H   0  0  0  0  0  0  0  0  0  0  0  0
   64.6084   33.9840   48.0125 H   0  0  0  0  0  0  0  0  0  0  0  0
   63.8206   34.0240   50.3782 H   0  0  0  0  0  0  0  0  0  0  0  0
   61.4118   33.6551   50.9000 H   0  0  0  0  0  0  0  0  0  0  0  0
   58.7210   33.6720   48.4530 H   0  0  0  0  0  0  0  0  0  0  0  0
   59.2225   32.7593   51.1519 H   0  0  0  0  0  0  0  0  0  0  0  0
   57.8435   32.3039   50.0951 H   0  0  0  0  0  0  0  0  0  0  0  0
   58.0071   30.3671   48.5630 H   0  0  0  0  0  0  0  0  0  0  0  0
   58.9730   28.0826   48.2843 H   0  0  0  0  0  0  0  0  0  0  0  0
   61.0412   27.4355   49.5284 H   0  0  0  0  0  0  0  0  0  0  0  0
   62.1481   29.0784   51.0505 H   0  0  0  0  0  0  0  0  0  0  0  0
   61.1900   31.3654   51.3305 H   0  0  0  0  0  0  0  0  0  0  0  0
   57.9315   32.4805   45.5980 H   0  0  0  0  0  0  0  0  0  0  0  0
   58.7809   31.5205   44.3302 H   0  0  0  0  0  0  0  0  0  0  0  0
   57.5147   30.5088   46.9196 H   0  0  0  0  0  0  0  0  0  0  0  0
   57.0546   30.1202   45.2094 H   0  0  0  0  0  0  0  0  0  0  0  0
   56.1844   28.4948   45.8056 H   0  0  0  0  0  0  0  0  0  0  0  0
  1  2  1  0
  2  3  1  0
  3  4  2  0
  4  5  1  0
  5  6  2  0
  6  7  1  0
  7  8  1  0
  8  9  1  0
  9 10  1  0
 10 11  1  0
 11 12  1  0
 12 13  2  0
 12 14  1  0
 14 15  2  0
 15 16  1  0
 16 17  2  0
 17 18  1  0
 18 19  2  0
 19 20  1  0
 20 21  1  0
 21 22  1  0
 22 23  2  0
 23 24  1  0
 24 25  2  0
 25 26  1  0
 26 27  2  0
 11 28  1  0
 28 29  1  0
  7 30  2  0
 30  3  1  0
 29  8  1  0
 19 14  1  0
 27 22  1  0
  1 31  1  0
  1 32  1  0
  1 33  1  0
  4 34  1  0
  5 35  1  0
  6 36  1  0
  9 37  1  0
  9 38  1  0
 10 39  1  0
 10 40  1  0
 15 41  1  0
 16 42  1  0
 17 43  1  0
 18 44  1  0
 20 45  1  0
 21 46  1  0
 21 47  1  0
 23 48  1  0
 24 49  1  0
 25 50  1  0
 26 51  1  0
 27 52  1  0
 28 53  1  0
 28 54  1  0
 29 55  1  0
 29 56  1  0
 30 57  1  0
M  END
>  <UniqueID>  (16) 
15

>  <SMILES>  (16) 
COc1cccc(N2CCN(C(=O)c3ccccc3NCc3ccccc3)CC2)c1

>  <Energy>  (16) 
70.4737378544262

>  <Genealogy>  (16) 
COc1cccc(N2CCN(C(=O)c3ccccc3NCc3ccccc3)CC2)c1 (3D coordinates assigned)
COc1cccc(N2CCN(C(=O)c3ccccc3NCc3ccccc3)CC2)c1 (nonaromatic ring conformer: 70.4737378544262 kcal/mol)

>  <smiles>  (16) 
COc1cccc(N2CCN(C(=O)c3ccccc3NCc3ccccc3)CC2)c1

>  <score_type>  (16) 
oracle

>  <origin>  (16) 
adg

>  <m_score__min__energy>  (16) 
-8.6099999999999994

>  <m_primary>  (16) 
energy

$$$$
16:0
     RDKit          3D

 38 39  0  0  0  0  0  0  0  0999 V2000
   60.1040   30.2210   48.6290 C   0  0  0  0  0  0  0  0  0  0  0  0
   60.5050   29.8220   47.3220 O   0  0  0  0  0  0  0  0  0  0  0  0
   59.7720   28.9600   46.4910 C   0  0  0  0  0  0  0  0  0  0  0  0
   60.0240   27.5730   46.4560 C   0  0  0  0  0  0  0  0  0  0  0  0
   59.2860   26.7410   45.6140 C   0  0  0  0  0  0  0  0  0  0  0  0
   58.2950   27.2790   44.7940 C   0  0  0  0  0  0  0  0  0  0  0  0
   58.0320   28.6490   44.8190 C   0  0  0  0  0  0  0  0  0  0  0  0
   58.7570   29.5020   45.6740 C   0  0  0  0  0  0  0  0  0  0  0  0
   58.5360   30.9260   45.6670 N   0  0  0  0  0  0  0  0  0  0  0  0
   57.4210   31.5780   45.0380 C   0  0  0  0  0  0  0  0  0  0  0  0
   56.3850   30.9270   44.7330 O   0  0  0  0  0  0  0  0  0  0  0  0
   57.4520   33.0560   44.7850 C   0  0  0  0  0  0  0  0  0  0  0  0
   58.6160   33.6650   45.4750 N   0  0  0  0  0  0  0  0  0  0  0  0
   58.9390   34.9690   44.8720 C   0  0  0  0  0  0  0  0  0  0  0  0
   58.3710   33.8390   46.9250 C   0  0  0  0  0  0  0  0  0  0  0  0
   59.6520   33.7810   47.7000 C   0  0  0  0  0  0  0  0  0  0  0  0
   60.8940   33.4150   47.2000 C   0  0  0  0  0  0  0  0  0  0  0  0
   61.9110   33.4870   48.1590 C   0  0  0  0  0  0  0  0  0  0  0  0
   63.7380   33.1040   47.7680 Br  0  0  0  0  0  0  0  0  0  0  0  0
   61.4760   33.8950   49.4130 C   0  0  0  0  0  0  0  0  0  0  0  0
   59.8210   34.1820   49.3240 S   0  0  0  0  0  0  0  0  0  0  0  0
   60.6754   29.6524   49.3774 H   0  0  0  0  0  0  0  0  0  0  0  0
   60.2969   31.2961   48.7595 H   0  0  0  0  0  0  0  0  0  0  0  0
   59.0299   30.0227   48.7595 H   0  0  0  0  0  0  0  0  0  0  0  0
   60.8081   27.1441   47.0972 H   0  0  0  0  0  0  0  0  0  0  0  0
   59.4861   25.6595   45.5969 H   0  0  0  0  0  0  0  0  0  0  0  0
   57.7191   26.6218   44.1258 H   0  0  0  0  0  0  0  0  0  0  0  0
   57.2519   29.0665   44.1655 H   0  0  0  0  0  0  0  0  0  0  0  0
   59.2290   31.5340   46.1610 H   0  0  0  0  0  0  0  0  0  0  0  0
   57.5333   33.2387   43.7033 H   0  0  0  0  0  0  0  0  0  0  0  0
   56.5265   33.5078   45.1713 H   0  0  0  0  0  0  0  0  0  0  0  0
   59.1215   35.7059   45.6680 H   0  0  0  0  0  0  0  0  0  0  0  0
   59.8402   34.8716   44.2488 H   0  0  0  0  0  0  0  0  0  0  0  0
   58.0966   35.3035   44.2488 H   0  0  0  0  0  0  0  0  0  0  0  0
   57.8930   34.8152   47.0938 H   0  0  0  0  0  0  0  0  0  0  0  0
   57.7177   33.0236   47.2689 H   0  0  0  0  0  0  0  0  0  0  0  0
   61.0615   33.1012   46.1591 H   0  0  0  0  0  0  0  0  0  0  0  0
   62.1042   34.0104   50.3085 H   0  0  0  0  0  0  0  0  0  0  0  0
  1  2  1  0
  2  3  1  0
  3  4  2  0
  4  5  1  0
  5  6  2  0
  6  7  1  0
  7  8  2  0
  8  9  1  0
  9 10  1  0
 10 11  2  0
 10 12  1  0
 12 13  1  0
 13 14  1  0
 13 15  1  0
 15 16  1  0
 16 17  2  0
 17 18  1  0
 18 19  1  0
 18 20  2  0
 20 21  1  0
  8  3  1  0
 21 16  1  0
  1 22  1  0
  1 23  1  0
  1 24  1  0
  4 25  1  0
  5 26  1  0
  6 27  1  0
  7 28  1  0
  9 29  1  0
 12 30  1  0
 12 31  1  0
 14 32  1  0
 14 33  1  0
 14 34  1  0
 15 35  1  0
 15 36  1  0
 17 37  1  0
 20 38  1  0
M  END
>  <UniqueID>  (17) 
16

>  <SMILES>  (17) 
COc1ccccc1NC(=O)CN(C)Cc1cc(Br)cs1

>  <Energy>  (17) 
63.28093811473486

>  <Genealogy>  (17) 
COc1ccccc1NC(=O)CN(C)Cc1cc(Br)cs1 (3D coordinates assigned)
COc1ccccc1NC(=O)CN(C)Cc1cc(Br)cs1 (optimized conformer: 63.28093811473486 kcal/mol)

>  <smiles>  (17) 
COc1ccccc1NC(=O)CN(C)Cc1cc(Br)cs1

>  <score_type>  (17) 
oracle

>  <origin>  (17) 
adg

>  <m_score__min__energy>  (17) 
-8.0700000000000003

>  <m_primary>  (17) 
energy

$$$$
17:0
     RDKit          3D

 44 46  0  0  0  0  0  0  0  0999 V2000
   60.3930   29.0640   45.2410 C   0  0  0  0  0  0  0  0  0  0  0  0
   60.4790   29.8780   46.5420 C   0  0  0  0  0  0  0  0  0  0  0  0
   59.5670   31.0460   46.5940 N   0  0  0  0  0  0  0  0  0  0  0  0
   59.7540   31.8670   47.8080 C   0  0  0  0  0  0  0  0  0  0  0  0
   58.6240   32.8910   47.9280 C   0  0  0  0  0  0  0  0  0  0  0  0
   59.2460   34.5870   47.6620 S   0  0  0  0  0  0  0  0  0  0  0  0
   60.9440   34.0760   47.3800 C   0  0  0  0  0  0  0  0  0  0  0  0
   61.4520   33.8360   46.1470 N   0  0  0  0  0  0  0  0  0  0  0  0
   62.7380   33.4730   46.3710 C   0  0  0  0  0  0  0  0  0  0  0  0
   62.9750   33.5060   47.7260 C   0  0  0  0  0  0  0  0  0  0  0  0
   64.1380   33.2100   48.4340 C   0  0  0  0  0  0  0  0  0  0  0  0
   64.0880   33.3250   49.8330 C   0  0  0  0  0  0  0  0  0  0  0  0
   62.8970   33.7240   50.4740 C   0  0  0  0  0  0  0  0  0  0  0  0
   61.7600   34.0080   49.7020 C   0  0  0  0  0  0  0  0  0  0  0  0
   61.8550   33.8850   48.3530 N   0  0  0  0  0  0  0  0  0  0  0  0
   58.1470   30.6950   46.3680 C   0  0  0  0  0  0  0  0  0  0  0  0
   57.7730   30.9060   44.9230 C   0  0  0  0  0  0  0  0  0  0  0  0
   57.0290   29.9170   44.2570 C   0  0  0  0  0  0  0  0  0  0  0  0
   56.6520   30.0920   42.9240 C   0  0  0  0  0  0  0  0  0  0  0  0
   57.0090   31.2570   42.2420 C   0  0  0  0  0  0  0  0  0  0  0  0
   57.7430   32.2510   42.8930 C   0  0  0  0  0  0  0  0  0  0  0  0
   58.1270   32.0850   44.2330 C   0  0  0  0  0  0  0  0  0  0  0  0
   58.8540   33.0880   44.8750 O   0  0  0  0  0  0  0  0  0  0  0  0
   60.2803   27.9969   45.4829 H   0  0  0  0  0  0  0  0  0  0  0  0
   59.5254   29.4007   44.6545 H   0  0  0  0  0  0  0  0  0  0  0  0
   61.3118   29.2119   44.6545 H   0  0  0  0  0  0  0  0  0  0  0  0
   60.2331   29.2116   47.3819 H   0  0  0  0  0  0  0  0  0  0  0  0
   61.5030   30.2760   46.5967 H   0  0  0  0  0  0  0  0  0  0  0  0
   59.7491   31.2141   48.6933 H   0  0  0  0  0  0  0  0  0  0  0  0
   60.7153   32.3973   47.7400 H   0  0  0  0  0  0  0  0  0  0  0  0
   57.8548   32.6677   47.1741 H   0  0  0  0  0  0  0  0  0  0  0  0
   58.2006   32.8282   48.9413 H   0  0  0  0  0  0  0  0  0  0  0  0
   63.4707   33.1977   45.5981 H   0  0  0  0  0  0  0  0  0  0  0  0
   65.0583   32.8988   47.9181 H   0  0  0  0  0  0  0  0  0  0  0  0
   64.9832   33.1025   50.4322 H   0  0  0  0  0  0  0  0  0  0  0  0
   62.8595   33.8119   51.5698 H   0  0  0  0  0  0  0  0  0  0  0  0
   60.8183   34.3214   50.1763 H   0  0  0  0  0  0  0  0  0  0  0  0
   57.9890   29.6389   46.6320 H   0  0  0  0  0  0  0  0  0  0  0  0
   57.5170   31.3420   46.9960 H   0  0  0  0  0  0  0  0  0  0  0  0
   56.7416   28.9985   44.7897 H   0  0  0  0  0  0  0  0  0  0  0  0
   56.0727   29.3107   42.4102 H   0  0  0  0  0  0  0  0  0  0  0  0
   56.7120   31.3919   41.1915 H   0  0  0  0  0  0  0  0  0  0  0  0
   58.0215   33.1681   42.3533 H   0  0  0  0  0  0  0  0  0  0  0  0
   59.6530   32.8730   45.4600 H   0  0  0  0  0  0  0  0  0  0  0  0
  1  2  1  0
  2  3  1  0
  3  4  1  0
  4  5  1  0
  5  6  1  0
  6  7  1  0
  7  8  2  0
  8  9  1  0
  9 10  2  0
 10 11  1  0
 11 12  2  0
 12 13  1  0
 13 14  2  0
 14 15  1  0
  3 16  1  0
 16 17  1  0
 17 18  2  0
 18 19  1  0
 19 20  2  0
 20 21  1  0
 21 22  2  0
 22 23  1  0
 15  7  1  0
 22 17  1  0
 15 10  1  0
  1 24  1  0
  1 25  1  0
  1 26  1  0
  2 27  1  0
  2 28  1  0
  4 29  1  0
  4 30  1  0
  5 31  1  0
  5 32  1  0
  9 33  1  0
 11 34  1  0
 12 35  1  0
 13 36  1  0
 14 37  1  0
 16 38  1  0
 16 39  1  0
 18 40  1  0
 19 41  1  0
 20 42  1  0
 21 43  1  0
 23 44  1  0
M  END
>  <UniqueID>  (18) 
17

>  <SMILES>  (18) 
CCN(CCSc1ncc2ccccn12)Cc1ccccc1O

>  <Energy>  (18) 
79.43117669885028

>  <Genealogy>  (18) 
CCN(CCSc1ncc2ccccn12)Cc1ccccc1O (3D coordinates assigned)
CCN(CCSc1ncc2ccccn12)Cc1ccccc1O (optimized conformer: 79.43117669885028 kcal/mol)

>  <smiles>  (18) 
CCN(CCSc1ncc2ccccn12)Cc1ccccc1O

>  <score_type>  (18) 
oracle

>  <origin>  (18) 
adg

>  <m_score__min__energy>  (18) 
-8.4100000000000001

>  <m_primary>  (18) 
energy

$$$$
18:0
     RDKit          3D

 41 43  0  0  0  0  0  0  0  0999 V2000
   59.6990   35.3830   45.9630 C   0  0  0  0  0  0  0  0  0  0  0  0
   58.7230   34.6010   46.8360 C   0  0  0  0  0  0  0  0  0  0  0  0
   58.6810   33.1510   46.4260 C   0  0  0  0  0  0  0  0  0  0  0  0
   57.5470   32.6540   45.7690 C   0  0  0  0  0  0  0  0  0  0  0  0
   57.5180   31.3710   45.3260 N   0  0  0  0  0  0  0  0  0  0  0  0
   58.5810   30.5440   45.5000 C   0  0  0  0  0  0  0  0  0  0  0  0
   58.5270   29.1920   45.0230 N   0  0  0  0  0  0  0  0  0  0  0  0
   58.7440   28.0790   45.7530 C   0  0  0  0  0  0  0  0  0  0  0  0
   58.5990   26.9800   44.9280 C   0  0  0  0  0  0  0  0  0  0  0  0
   58.2900   27.5020   43.6850 C   0  0  0  0  0  0  0  0  0  0  0  0
   58.2540   28.8430   43.7760 N   0  0  0  0  0  0  0  0  0  0  0  0
   59.6950   31.0050   46.1260 N   0  0  0  0  0  0  0  0  0  0  0  0
   59.7800   32.2800   46.5910 C   0  0  0  0  0  0  0  0  0  0  0  0
   60.9860   32.7000   47.2490 N   0  0  0  0  0  0  0  0  0  0  0  0
   62.0520   33.2980   46.4240 C   0  0  0  0  0  0  0  0  0  0  0  0
   63.4660   33.1640   47.0410 C   0  0  0  0  0  0  0  0  0  0  0  0
   63.5590   33.4550   48.5500 C   0  0  0  0  0  0  0  0  0  0  0  0
   63.2590   32.2900   49.3970 N   0  0  0  0  0  0  0  0  0  0  0  0
   61.8300   31.9520   49.5070 C   0  0  0  0  0  0  0  0  0  0  0  0
   60.9170   32.8990   48.7090 C   0  0  0  0  0  0  0  0  0  0  0  0
   60.3969   35.9422   46.6035 H   0  0  0  0  0  0  0  0  0  0  0  0
   60.2636   34.6845   45.3279 H   0  0  0  0  0  0  0  0  0  0  0  0
   59.1404   36.0863   45.3279 H   0  0  0  0  0  0  0  0  0  0  0  0
   59.0437   34.6697   47.8860 H   0  0  0  0  0  0  0  0  0  0  0  0
   57.7180   35.0311   46.7135 H   0  0  0  0  0  0  0  0  0  0  0  0
   56.6759   33.3070   45.6115 H   0  0  0  0  0  0  0  0  0  0  0  0
   58.9941   28.0508   46.8238 H   0  0  0  0  0  0  0  0  0  0  0  0
   58.7061   25.9197   45.2007 H   0  0  0  0  0  0  0  0  0  0  0  0
   58.1043   26.9166   42.7724 H   0  0  0  0  0  0  0  0  0  0  0  0
   58.0460   29.5050   42.9940 H   0  0  0  0  0  0  0  0  0  0  0  0
   62.0525   32.8001   45.4431 H   0  0  0  0  0  0  0  0  0  0  0  0
   61.8348   34.3737   46.3486 H   0  0  0  0  0  0  0  0  0  0  0  0
   63.8137   32.1342   46.8720 H   0  0  0  0  0  0  0  0  0  0  0  0
   64.0856   33.9268   46.5468 H   0  0  0  0  0  0  0  0  0  0  0  0
   64.5806   33.7946   48.7758 H   0  0  0  0  0  0  0  0  0  0  0  0
   62.8023   34.2205   48.7768 H   0  0  0  0  0  0  0  0  0  0  0  0
   63.6180   32.4820   50.3620 H   0  0  0  0  0  0  0  0  0  0  0  0
   61.6836   30.9281   49.1324 H   0  0  0  0  0  0  0  0  0  0  0  0
   61.5531   32.0493   50.5671 H   0  0  0  0  0  0  0  0  0  0  0  0
   59.8787   32.7349   49.0330 H   0  0  0  0  0  0  0  0  0  0  0  0
   61.2630   33.9236   48.9101 H   0  0  0  0  0  0  0  0  0  0  0  0
  1  2  1  0
  2  3  1  0
  3  4  2  0
  4  5  1  0
  5  6  2  0
  6  7  1  0
  7  8  1  0
  8  9  2  0
  9 10  1  0
 10 11  2  0
  6 12  1  0
 12 13  2  0
 13 14  1  0
 14 15  1  0
 15 16  1  0
 16 17  1  0
 17 18  1  0
 18 19  1  0
 19 20  1  0
 13  3  1  0
 20 14  1  0
 11  7  1  0
  1 21  1  0
  1 22  1  0
  1 23  1  0
  2 24  1  0
  2 25  1  0
  4 26  1  0
  8 27  1  0
  9 28  1  0
 10 29  1  0
 11 30  1  0
 15 31  1  0
 15 32  1  0
 16 33  1  0
 16 34  1  0
 17 35  1  0
 17 36  1  0
 18 37  1  0
 19 38  1  0
 19 39  1  0
 20 40  1  0
 20 41  1  0
M  CHG  1  11   1
M  END
>  <UniqueID>  (19) 
18

>  <SMILES>  (19) 
CCc1cnc(-n2ccc[nH+]2)nc1N1CCCNCC1

>  <Energy>  (19) 
84.699614928639

>  <Genealogy>  (19) 
CCc1cnc(-n2ccc[nH+]2)nc1N1CCCNCC1 (protonated)
CCc1cnc(-n2ccc[nH+]2)nc1N1CCCNCC1 (3D coordinates assigned)
CCc1cnc(-n2ccc[nH+]2)nc1N1CCCNCC1 (nonaromatic ring conformer: 84.699614928639 kcal/mol)

>  <smiles>  (19) 
CCc1cnc(-n2cccn2)nc1N1CCCNCC1

>  <score_type>  (19) 
oracle

>  <origin>  (19) 
adg

>  <m_score__min__energy>  (19) 
-3.6299999999999999

>  <m_primary>  (19) 
energy

$$$$
19:0
     RDKit          3D

 23 23  0  0  0  0  0  0  0  0999 V2000
   56.6269   28.9869   44.0319 H   0  0  0  0  0  0  0  0  0  0  0  0
   57.1900   29.6630   44.6920 C   0  0  0  0  0  0  0  0  0  0  0  0
   56.7300   30.8640   44.8950 N   0  0  0  0  0  0  0  0  0  0  0  0
   57.5060   32.0580   45.0790 C   0  0  0  0  0  0  0  0  0  0  0  0
   57.7830   32.5520   46.3670 C   0  0  0  0  0  0  0  0  0  0  0  0
   57.3737   32.0386   47.2495 H   0  0  0  0  0  0  0  0  0  0  0  0
   58.5750   33.6910   46.5310 C   0  0  0  0  0  0  0  0  0  0  0  0
   58.7735   34.0817   47.5399 H   0  0  0  0  0  0  0  0  0  0  0  0
   59.1150   34.3340   45.4150 C   0  0  0  0  0  0  0  0  0  0  0  0
   59.7320   35.2354   45.5449 H   0  0  0  0  0  0  0  0  0  0  0  0
   58.8720   33.8330   44.1340 C   0  0  0  0  0  0  0  0  0  0  0  0
   59.3052   34.3366   43.2572 H   0  0  0  0  0  0  0  0  0  0  0  0
   58.0790   32.6920   43.9620 C   0  0  0  0  0  0  0  0  0  0  0  0
   57.7720   32.0320   42.1910 Br  0  0  0  0  0  0  0  0  0  0  0  0
   58.4030   29.1850   45.2950 N   0  0  0  0  0  0  0  0  0  0  0  0
   58.5090   29.1380   46.7550 C   0  0  0  0  0  0  0  0  0  0  0  0
   57.5904   29.5453   47.2026 H   0  0  0  0  0  0  0  0  0  0  0  0
   58.6440   28.0957   47.0795 H   0  0  0  0  0  0  0  0  0  0  0  0
   59.3721   29.7378   47.0795 H   0  0  0  0  0  0  0  0  0  0  0  0
   59.2930   28.3510   44.4900 C   0  0  0  0  0  0  0  0  0  0  0  0
   59.9332   27.7511   45.1536 H   0  0  0  0  0  0  0  0  0  0  0  0
   58.6937   27.6817   43.8552 H   0  0  0  0  0  0  0  0  0  0  0  0
   59.9220   28.9924   43.8552 H   0  0  0  0  0  0  0  0  0  0  0  0
  1  2  1  0
  2  3  2  0
  3  4  1  0
  4  5  2  0
  5  6  1  0
  5  7  1  0
  7  8  1  0
  7  9  2  0
  9 10  1  0
  9 11  1  0
 11 12  1  0
 11 13  2  0
 13 14  1  0
  2 15  1  0
 15 16  1  0
 16 17  1  0
 16 18  1  0
 16 19  1  0
 15 20  1  0
 20 21  1  0
 20 22  1  0
 20 23  1  0
 13  4  1  0
M  END
>  <UniqueID>  (20) 
19

>  <SMILES>  (20) 
CN(C)/C=N\c1ccccc1Br

>  <Energy>  (20) 
29.337927221053633

>  <Genealogy>  (20) 
CN(C)/C=N\c1ccccc1Br (cis-trans isomerization)
CN(C)/C=N\c1ccccc1Br (3D coordinates assigned)
CN(C)/C=N\c1ccccc1Br (optimized conformer: 29.337927221053633 kcal/mol)

>  <smiles>  (20) 
CN(C)C=Nc1ccccc1Br

>  <score_type>  (20) 
oracle

>  <origin>  (20) 
adg

>  <m_score__min__energy>  (20) 
-5.25

>  <m_primary>  (20) 
energy

$$$$
20:0
     RDKit          3D

 63 66  0  0  0  0  0  0  0  0999 V2000
   56.7490   32.8670   45.2610 O   0  0  0  0  0  0  0  0  0  0  0  0
   57.2150   34.1610   45.5340 C   0  0  0  0  0  0  0  0  0  0  0  0
   58.7380   34.2170   45.3870 C   0  0  0  0  0  0  0  0  0  0  0  0
   59.4270   34.1970   46.7600 C   0  0  0  0  0  0  0  0  0  0  0  0
   59.6190   32.7730   47.3330 C   0  0  1  0  0  0  0  0  0  0  0  0
   59.5230   32.8950   48.8550 C   0  0  0  0  0  0  0  0  0  0  0  0
   58.4680   32.2910   49.5710 C   0  0  0  0  0  0  0  0  0  0  0  0
   58.3710   32.4450   50.9570 C   0  0  0  0  0  0  0  0  0  0  0  0
   59.3100   33.2150   51.6460 C   0  0  0  0  0  0  0  0  0  0  0  0
   60.3450   33.8410   50.9480 C   0  0  0  0  0  0  0  0  0  0  0  0
   60.4470   33.6920   49.5620 C   0  0  0  0  0  0  0  0  0  0  0  0
   58.5590   31.9380   46.8540 O   0  0  0  0  0  0  0  0  0  0  0  0
   58.9940   30.9780   45.9130 C   0  0  0  0  0  0  0  0  0  0  0  0
   60.0470   30.0610   46.5360 C   0  0  1  0  0  0  0  0  0  0  0  0
   60.6750   29.1470   45.4500 C   0  0  0  0  0  0  0  0  0  0  0  0
   59.9100   27.8940   45.2160 N   0  0  2  0  0  0  0  0  0  0  0  0
   58.8450   28.1430   44.2170 C   0  0  0  0  0  0  0  0  0  0  0  0
   58.1530   26.8350   43.7830 C   0  0  0  0  0  0  0  0  0  0  0  0
   58.1310   25.7800   44.9110 C   0  0  2  0  0  0  0  0  0  0  0  0
   56.9810   24.8030   44.7410 C   0  0  0  0  0  0  0  0  0  0  0  0
   55.8870   24.8440   45.6260 C   0  0  0  0  0  0  0  0  0  0  0  0
   54.8250   23.9450   45.4810 C   0  0  0  0  0  0  0  0  0  0  0  0
   54.8440   22.9970   44.4580 C   0  0  0  0  0  0  0  0  0  0  0  0
   55.9270   22.9410   43.5770 C   0  0  0  0  0  0  0  0  0  0  0  0
   56.9910   23.8370   43.7160 C   0  0  0  0  0  0  0  0  0  0  0  0
   58.1030   26.4580   46.2890 C   0  0  0  0  0  0  0  0  0  0  0  0
   59.3450   27.3560   46.4890 C   0  0  0  0  0  0  0  0  0  0  0  0
   61.0890   30.9370   47.2600 C   0  0  0  0  0  0  0  0  0  0  0  0
   60.9180   32.3100   46.9570 O   0  0  0  0  0  0  0  0  0  0  0  0
   57.0370   32.2950   46.0190 H   0  0  0  0  0  0  0  0  0  0  0  0
   56.7557   34.8689   44.8284 H   0  0  0  0  0  0  0  0  0  0  0  0
   56.9441   34.4296   46.5657 H   0  0  0  0  0  0  0  0  0  0  0  0
   59.0748   33.3476   44.8033 H   0  0  0  0  0  0  0  0  0  0  0  0
   59.0055   35.1533   44.8753 H   0  0  0  0  0  0  0  0  0  0  0  0
   60.4158   34.6685   46.6603 H   0  0  0  0  0  0  0  0  0  0  0  0
   58.7738   34.7414   47.4579 H   0  0  0  0  0  0  0  0  0  0  0  0
   57.7158   31.6942   49.0344 H   0  0  0  0  0  0  0  0  0  0  0  0
   57.5521   31.9579   51.5067 H   0  0  0  0  0  0  0  0  0  0  0  0
   59.2346   33.3285   52.7375 H   0  0  0  0  0  0  0  0  0  0  0  0
   61.0814   34.4525   51.4900 H   0  0  0  0  0  0  0  0  0  0  0  0
   61.2558   34.2013   49.0174 H   0  0  0  0  0  0  0  0  0  0  0  0
   58.1343   30.3740   45.5873 H   0  0  0  0  0  0  0  0  0  0  0  0
   59.4381   31.4981   45.0515 H   0  0  0  0  0  0  0  0  0  0  0  0
   59.5916   29.3878   47.2772 H   0  0  0  0  0  0  0  0  0  0  0  0
   60.7205   29.7089   44.5055 H   0  0  0  0  0  0  0  0  0  0  0  0
   61.6727   28.8551   45.8096 H   0  0  0  0  0  0  0  0  0  0  0  0
   60.5590   27.1780   44.8130 H   0  0  0  0  0  0  0  0  0  0  0  0
   58.0934   28.8149   44.6571 H   0  0  0  0  0  0  0  0  0  0  0  0
   59.3077   28.5973   43.3285 H   0  0  0  0  0  0  0  0  0  0  0  0
   57.1170   27.0629   43.4918 H   0  0  0  0  0  0  0  0  0  0  0  0
   58.7243   26.4156   42.9417 H   0  0  0  0  0  0  0  0  0  0  0  0
   59.0592   25.1935   44.8441 H   0  0  0  0  0  0  0  0  0  0  0  0
   55.8671   25.5875   46.4365 H   0  0  0  0  0  0  0  0  0  0  0  0
   53.9729   23.9858   46.1754 H   0  0  0  0  0  0  0  0  0  0  0  0
   54.0061   22.2933   44.3448 H   0  0  0  0  0  0  0  0  0  0  0  0
   55.9424   22.1907   42.7728 H   0  0  0  0  0  0  0  0  0  0  0  0
   57.8416   23.7873   43.0203 H   0  0  0  0  0  0  0  0  0  0  0  0
   57.1961   27.0754   46.3679 H   0  0  0  0  0  0  0  0  0  0  0  0
   58.1060   25.6775   47.0641 H   0  0  0  0  0  0  0  0  0  0  0  0
   59.0602   28.2047   47.1282 H   0  0  0  0  0  0  0  0  0  0  0  0
   60.1244   26.7283   46.9458 H   0  0  0  0  0  0  0  0  0  0  0  0
   60.9820   30.7951   48.3455 H   0  0  0  0  0  0  0  0  0  0  0  0
   62.0898   30.6322   46.9203 H   0  0  0  0  0  0  0  0  0  0  0  0
  1  2  1  0
  2  3  1  0
  3  4  1  0
  5  4  1  6
  5  6  1  0
  6  7  2  0
  7  8  1  0
  8  9  2  0
  9 10  1  0
 10 11  2  0
  5 12  1  0
 12 13  1  0
 13 14  1  0
 14 15  1  0
 15 16  1  0
 16 17  1  0
 17 18  1  0
 18 19  1  0
 19 20  1  0
 20 21  2  0
 21 22  1  0
 22 23  2  0
 23 24  1  0
 24 25  2  0
 19 26  1  0
 26 27  1  0
 14 28  1  0
 28 29  1  0
 29  5  1  0
 11  6  1  0
 27 16  1  0
 25 20  1  0
  1 30  1  0
  2 31  1  0
  2 32  1  0
  3 33  1  0
  3 34  1  0
  4 35  1  0
  4 36  1  0
  7 37  1  0
  8 38  1  0
  9 39  1  0
 10 40  1  0
 11 41  1  0
 13 42  1  0
 13 43  1  0
 14 44  1  1
 15 45  1  0
 15 46  1  0
 16 47  1  6
 17 48  1  0
 17 49  1  0
 18 50  1  0
 18 51  1  0
 19 52  1  1
 21 53  1  0
 22 54  1  0
 23 55  1  0
 24 56  1  0
 25 57  1  0
 26 58  1  0
 26 59  1  0
 27 60  1  0
 27 61  1  0
 28 62  1  0
 28 63  1  0
M  CHG  1  16   1
M  END
>  <UniqueID>  (21) 
20

>  <SMILES>  (21) 
OCCCC1(c2ccccc2)OCC(C[NH+]2CCC(c3ccccc3)CC2)CO1

>  <Energy>  (21) 
83.66139222571887

>  <Genealogy>  (21) 
OCCCC1(c2ccccc2)OCC(C[NH+]2CCC(c3ccccc3)CC2)CO1 (protonated)
OCCCC1(c2ccccc2)OCC(C[NH+]2CCC(c3ccccc3)CC2)CO1 (3D coordinates assigned)
OCCCC1(c2ccccc2)OCC(C[NH+]2CCC(c3ccccc3)CC2)CO1 (nonaromatic ring conformer: 83.66139222571887 kcal/mol)

>  <smiles>  (21) 
OCCCC1(c2ccccc2)OCC(CN2CCC(c3ccccc3)CC2)CO1

>  <score_type>  (21) 
oracle

>  <origin>  (21) 
adg

>  <m_score__min__energy>  (21) 
-7.8300000000000001

>  <m_primary>  (21) 
energy

$$$$
21:0
     RDKit          3D

 47 49  0  0  0  0  0  0  0  0999 V2000
   65.3780   30.5390   52.1740 C   0  0  0  0  0  0  0  0  0  0  0  0
   64.1710   31.1670   52.8760 C   0  0  0  0  0  0  0  0  0  0  0  0
   63.1710   31.6830   51.9230 N   0  0  0  0  0  0  0  0  0  0  0  0
   63.4540   33.0720   51.5060 C   0  0  0  0  0  0  0  0  0  0  0  0
   63.0860   33.3380   50.0170 C   0  0  1  0  0  0  0  0  0  0  0  0
   64.2110   32.9110   49.0440 C   0  0  0  0  0  0  0  0  0  0  0  0
   64.1020   33.6220   47.6860 C   0  0  0  0  0  0  0  0  0  0  0  0
   62.9660   33.0680   46.8080 C   0  0  0  0  0  0  0  0  0  0  0  0
   61.5320   33.3890   47.2070 C   0  0  0  0  0  0  0  0  0  0  0  0
   60.6850   33.8440   46.1790 C   0  0  0  0  0  0  0  0  0  0  0  0
   59.3260   34.0780   46.4090 C   0  0  0  0  0  0  0  0  0  0  0  0
   58.2740   34.6510   45.0750 S   0  0  0  0  0  0  0  0  0  0  0  0
   57.8950   32.9850   44.5350 C   0  0  0  0  0  0  0  0  0  0  0  0
   57.7580   32.7040   43.1690 C   0  0  0  0  0  0  0  0  0  0  0  0
   57.4680   31.4020   42.7470 C   0  0  0  0  0  0  0  0  0  0  0  0
   57.3130   30.3800   43.6890 C   0  0  0  0  0  0  0  0  0  0  0  0
   57.4460   30.6590   45.0530 C   0  0  0  0  0  0  0  0  0  0  0  0
   57.7350   31.9610   45.4770 C   0  0  0  0  0  0  0  0  0  0  0  0
   58.7880   33.8540   47.6750 C   0  0  0  0  0  0  0  0  0  0  0  0
   59.6020   33.3920   48.7070 C   0  0  0  0  0  0  0  0  0  0  0  0
   60.9720   33.1610   48.4960 C   0  0  0  0  0  0  0  0  0  0  0  0
   61.7630   32.6840   49.6470 C   0  0  0  0  0  0  0  0  0  0  0  0
   61.2620   31.7940   50.3880 O   0  0  0  0  0  0  0  0  0  0  0  0
   66.0889   30.1691   52.9275 H   0  0  0  0  0  0  0  0  0  0  0  0
   65.0416   29.7016   51.5451 H   0  0  0  0  0  0  0  0  0  0  0  0
   65.8707   31.2951   51.5451 H   0  0  0  0  0  0  0  0  0  0  0  0
   63.6945   30.4041   53.5093 H   0  0  0  0  0  0  0  0  0  0  0  0
   64.5350   32.0166   53.4724 H   0  0  0  0  0  0  0  0  0  0  0  0
   62.2270   31.6250   52.3690 H   0  0  0  0  0  0  0  0  0  0  0  0
   63.1810   31.0560   51.0850 H   0  0  0  0  0  0  0  0  0  0  0  0
   62.8709   33.7558   52.1404 H   0  0  0  0  0  0  0  0  0  0  0  0
   64.5357   33.2386   51.6162 H   0  0  0  0  0  0  0  0  0  0  0  0
   62.9694   34.4268   49.9120 H   0  0  0  0  0  0  0  0  0  0  0  0
   65.1832   33.1570   49.4961 H   0  0  0  0  0  0  0  0  0  0  0  0
   64.1145   31.8294   48.8686 H   0  0  0  0  0  0  0  0  0  0  0  0
   63.9179   34.6918   47.8640 H   0  0  0  0  0  0  0  0  0  0  0  0
   65.0466   33.4524   47.1485 H   0  0  0  0  0  0  0  0  0  0  0  0
   63.1179   33.4594   45.7913 H   0  0  0  0  0  0  0  0  0  0  0  0
   63.0431   31.9760   46.9161 H   0  0  0  0  0  0  0  0  0  0  0  0
   61.1003   34.0188   45.1755 H   0  0  0  0  0  0  0  0  0  0  0  0
   57.8786   33.5078   42.4278 H   0  0  0  0  0  0  0  0  0  0  0  0
   57.3619   31.1822   41.6744 H   0  0  0  0  0  0  0  0  0  0  0  0
   57.0863   29.3561   43.3569 H   0  0  0  0  0  0  0  0  0  0  0  0
   57.3234   29.8545   45.7931 H   0  0  0  0  0  0  0  0  0  0  0  0
   57.8365   32.1801   46.5502 H   0  0  0  0  0  0  0  0  0  0  0  0
   57.7200   34.0421   47.8595 H   0  0  0  0  0  0  0  0  0  0  0  0
   59.1666   33.2056   49.6998 H   0  0  0  0  0  0  0  0  0  0  0  0
  1  2  1  0
  2  3  1  0
  3  4  1  0
  4  5  1  0
  5  6  1  0
  6  7  1  0
  7  8  1  0
  8  9  1  0
  9 10  2  0
 10 11  1  0
 11 12  1  0
 12 13  1  0
 13 14  2  0
 14 15  1  0
 15 16  2  0
 16 17  1  0
 17 18  2  0
 11 19  2  0
 19 20  1  0
 20 21  2  0
 21 22  1  0
 22 23  2  0
 22  5  1  0
 21  9  1  0
 18 13  1  0
  1 24  1  0
  1 25  1  0
  1 26  1  0
  2 27  1  0
  2 28  1  0
  3 29  1  0
  3 30  1  0
  4 31  1  0
  4 32  1  0
  5 33  1  1
  6 34  1  0
  6 35  1  0
  7 36  1  0
  7 37  1  0
  8 38  1  0
  8 39  1  0
 10 40  1  0
 14 41  1  0
 15 42  1  0
 16 43  1  0
 17 44  1  0
 18 45  1  0
 19 46  1  0
 20 47  1  0
M  CHG  1   3   1
M  END
>  <UniqueID>  (22) 
21

>  <SMILES>  (22) 
CC[NH2+]C[C@H]1CCCc2cc(Sc3ccccc3)ccc2C1=O

>  <Energy>  (22) 
58.82789842635625

>  <Genealogy>  (22) 
CC[NH2+]CC1CCCc2cc(Sc3ccccc3)ccc2C1=O (protonated)
CC[NH2+]C[C@H]1CCCc2cc(Sc3ccccc3)ccc2C1=O (chirality)
CC[NH2+]C[C@H]1CCCc2cc(Sc3ccccc3)ccc2C1=O (3D coordinates assigned)
CC[NH2+]C[C@H]1CCCc2cc(Sc3ccccc3)ccc2C1=O (nonaromatic ring conformer: 58.82789842635625 kcal/mol)

>  <smiles>  (22) 
CCNCC1CCCc2cc(Sc3ccccc3)ccc2C1=O

>  <score_type>  (22) 
oracle

>  <origin>  (22) 
adg

>  <m_score__min__energy>  (22) 
-5.3499999999999996

>  <m_primary>  (22) 
energy

$$$$
22:0
     RDKit          3D

 55 57  0  0  0  0  0  0  0  0999 V2000
   56.3240   26.1700   45.6130 C   0  0  0  0  0  0  0  0  0  0  0  0
   55.9290   27.5370   45.6190 O   0  0  0  0  0  0  0  0  0  0  0  0
   56.7190   28.6000   45.1490 C   0  0  0  0  0  0  0  0  0  0  0  0
   56.2230   29.5420   44.2310 C   0  0  0  0  0  0  0  0  0  0  0  0
   57.0210   30.6030   43.8110 C   0  0  0  0  0  0  0  0  0  0  0  0
   58.3270   30.7290   44.2810 C   0  0  0  0  0  0  0  0  0  0  0  0
   58.8640   29.7840   45.1700 C   0  0  0  0  0  0  0  0  0  0  0  0
   60.2970   29.9450   45.6450 C   0  0  0  0  0  0  0  0  0  0  0  0
   60.3950   30.5970   46.9750 N   0  0  0  0  0  0  0  0  0  0  0  0
   61.3570   31.7240   47.0710 C   0  0  2  0  0  0  0  0  0  0  0  0
   62.6110   31.3470   47.9110 C   0  0  0  0  0  0  0  0  0  0  0  0
   63.1200   32.5160   48.7630 C   0  0  0  0  0  0  0  0  0  0  0  0
   63.0530   33.8260   47.9700 C   0  0  0  0  0  0  0  0  0  0  0  0
   61.6880   34.1740   47.5150 N   0  0  0  0  0  0  0  0  0  0  0  0
   60.7100   33.0650   47.5480 C   0  0  1  0  0  0  0  0  0  0  0  0
   59.4630   33.4720   46.7710 C   0  0  0  0  0  0  0  0  0  0  0  0
   58.1720   33.0520   47.1550 C   0  0  0  0  0  0  0  0  0  0  0  0
   57.0510   33.4380   46.4140 C   0  0  0  0  0  0  0  0  0  0  0  0
   57.2030   34.2130   45.2640 C   0  0  0  0  0  0  0  0  0  0  0  0
   58.4790   34.5840   44.8390 C   0  0  0  0  0  0  0  0  0  0  0  0
   59.6030   34.1990   45.5750 C   0  0  0  0  0  0  0  0  0  0  0  0
   58.0400   28.7250   45.6270 C   0  0  0  0  0  0  0  0  0  0  0  0
   58.5320   27.7850   46.5970 N   0  0  0  0  0  0  0  0  0  0  0  0
   59.3930   26.6910   46.1540 C   0  0  0  0  0  0  0  0  0  0  0  0
   58.5290   28.1390   48.0170 C   0  0  0  0  0  0  0  0  0  0  0  0
   56.4270   25.8135   46.6485 H   0  0  0  0  0  0  0  0  0  0  0  0
   55.5623   25.5705   45.0929 H   0  0  0  0  0  0  0  0  0  0  0  0
   57.2880   26.0692   45.0929 H   0  0  0  0  0  0  0  0  0  0  0  0
   55.1990   29.4404   43.8424 H   0  0  0  0  0  0  0  0  0  0  0  0
   56.6189   31.3448   43.1053 H   0  0  0  0  0  0  0  0  0  0  0  0
   58.9439   31.5782   43.9519 H   0  0  0  0  0  0  0  0  0  0  0  0
   60.7601   28.9492   45.7073 H   0  0  0  0  0  0  0  0  0  0  0  0
   60.8139   30.5923   44.9212 H   0  0  0  0  0  0  0  0  0  0  0  0
   60.6250   29.9040   47.7190 H   0  0  0  0  0  0  0  0  0  0  0  0
   59.4480   30.9680   47.2280 H   0  0  0  0  0  0  0  0  0  0  0  0
   61.6943   31.9135   46.0413 H   0  0  0  0  0  0  0  0  0  0  0  0
   62.3510   30.5116   48.5776 H   0  0  0  0  0  0  0  0  0  0  0  0
   63.4123   31.0705   47.2099 H   0  0  0  0  0  0  0  0  0  0  0  0
   62.4959   32.6059   49.6643 H   0  0  0  0  0  0  0  0  0  0  0  0
   64.1658   32.3229   49.0442 H   0  0  0  0  0  0  0  0  0  0  0  0
   63.4241   34.6396   48.6105 H   0  0  0  0  0  0  0  0  0  0  0  0
   63.6685   33.6894   47.0686 H   0  0  0  0  0  0  0  0  0  0  0  0
   61.7630   34.5460   46.5380 H   0  0  0  0  0  0  0  0  0  0  0  0
   60.3922   32.8684   48.5826 H   0  0  0  0  0  0  0  0  0  0  0  0
   58.0465   32.4162   48.0438 H   0  0  0  0  0  0  0  0  0  0  0  0
   56.0462   33.1297   46.7387 H   0  0  0  0  0  0  0  0  0  0  0  0
   56.3181   34.5311   44.6932 H   0  0  0  0  0  0  0  0  0  0  0  0
   58.6006   35.1806   43.9229 H   0  0  0  0  0  0  0  0  0  0  0  0
   60.6073   34.4672   45.2153 H   0  0  0  0  0  0  0  0  0  0  0  0
   59.8036   26.1693   47.0311 H   0  0  0  0  0  0  0  0  0  0  0  0
   58.8061   25.9845   45.5487 H   0  0  0  0  0  0  0  0  0  0  0  0
   60.2176   27.0955   45.5487 H   0  0  0  0  0  0  0  0  0  0  0  0
   58.5368   27.2214   48.6236 H   0  0  0  0  0  0  0  0  0  0  0  0
   59.4221   28.7384   48.2473 H   0  0  0  0  0  0  0  0  0  0  0  0
   57.6259   28.7232   48.2473 H   0  0  0  0  0  0  0  0  0  0  0  0
  1  2  1  0
  2  3  1  0
  3  4  2  0
  4  5  1  0
  5  6  2  0
  6  7  1  0
  7  8  1  0
  8  9  1  0
  9 10  1  0
 10 11  1  0
 11 12  1  0
 12 13  1  0
 13 14  1  0
 14 15  1  0
 15 16  1  0
 16 17  2  0
 17 18  1  0
 18 19  2  0
 19 20  1  0
 20 21  2  0
  7 22  2  0
 22 23  1  0
 23 24  1  0
 23 25  1  0
 22  3  1  0
 15 10  1  0
 21 16  1  0
  1 26  1  0
  1 27  1  0
  1 28  1  0
  4 29  1  0
  5 30  1  0
  6 31  1  0
  8 32  1  0
  8 33  1  0
  9 34  1  0
  9 35  1  0
 10 36  1  6
 11 37  1  0
 11 38  1  0
 12 39  1  0
 12 40  1  0
 13 41  1  0
 13 42  1  0
 14 43  1  0
 15 44  1  1
 17 45  1  0
 18 46  1  0
 19 47  1  0
 20 48  1  0
 21 49  1  0
 24 50  1  0
 24 51  1  0
 24 52  1  0
 25 53  1  0
 25 54  1  0
 25 55  1  0
M  CHG  1   9   1
M  END
>  <UniqueID>  (23) 
22

>  <SMILES>  (23) 
COc1cccc(C[NH2+][C@@H]2CCCN[C@H]2c2ccccc2)c1N(C)C

>  <Energy>  (23) 
72.21737318207391

>  <Genealogy>  (23) 
COc1cccc(C[NH2+]C2CCCNC2c2ccccc2)c1N(C)C (protonated)
COc1cccc(C[NH2+][C@@H]2CCCN[C@H]2c2ccccc2)c1N(C)C (chirality)
COc1cccc(C[NH2+][C@@H]2CCCN[C@H]2c2ccccc2)c1N(C)C (3D coordinates assigned)
COc1cccc(C[NH2+][C@@H]2CCCN[C@H]2c2ccccc2)c1N(C)C (nonaromatic ring conformer: 72.21737318207391 kcal/mol)

>  <smiles>  (23) 
COc1cccc(CNC2CCCNC2c2ccccc2)c1N(C)C

>  <score_type>  (23) 
oracle

>  <origin>  (23) 
adg

>  <m_score__min__energy>  (23) 
-6.4400000000000004

>  <m_primary>  (23) 
energy

$$$$
23:0
     RDKit          3D

 48 50  0  0  0  0  0  0  0  0999 V2000
   60.7930   30.1620   49.5900 C   0  0  0  0  0  0  0  0  0  0  0  0
   60.9980   31.4900   48.8520 C   0  0  0  0  0  0  0  0  0  0  0  0
   61.4290   31.2960   47.4430 N   0  0  0  0  0  0  0  0  0  0  0  0
   62.8200   31.7410   47.1420 C   0  0  0  0  0  0  0  0  0  0  0  0
   63.0410   33.2630   47.1060 C   0  0  0  0  0  0  0  0  0  0  0  0
   61.1190   29.9320   46.9340 C   0  0  0  0  0  0  0  0  0  0  0  0
   59.7090   29.7620   46.3970 C   0  0  0  0  0  0  0  0  0  0  0  0
   59.0780   30.8860   45.9700 N   0  0  0  0  0  0  0  0  0  0  0  0
   57.8400   30.8870   45.4710 N   0  0  0  0  0  0  0  0  0  0  0  0
   57.2850   32.1680   45.0230 C   0  0  0  0  0  0  0  0  0  0  0  0
   58.0880   33.3070   45.5910 C   0  0  0  0  0  0  0  0  0  0  0  0
   58.1610   33.4900   46.9810 C   0  0  0  0  0  0  0  0  0  0  0  0
   58.9350   34.5250   47.5150 C   0  0  0  0  0  0  0  0  0  0  0  0
   59.6450   35.3790   46.6660 C   0  0  0  0  0  0  0  0  0  0  0  0
   59.5850   35.1960   45.2810 C   0  0  0  0  0  0  0  0  0  0  0  0
   58.8120   34.1610   44.7440 C   0  0  0  0  0  0  0  0  0  0  0  0
   57.1430   29.7200   45.3370 C   0  0  0  0  0  0  0  0  0  0  0  0
   55.9790   29.7290   44.8460 O   0  0  0  0  0  0  0  0  0  0  0  0
   57.7270   28.5090   45.7470 C   0  0  0  0  0  0  0  0  0  0  0  0
   57.0280   27.2920   45.6280 C   0  0  0  0  0  0  0  0  0  0  0  0
   57.6130   26.0970   46.0430 C   0  0  0  0  0  0  0  0  0  0  0  0
   58.8980   26.0980   46.5790 C   0  0  0  0  0  0  0  0  0  0  0  0
   59.6100   27.2940   46.7020 C   0  0  0  0  0  0  0  0  0  0  0  0
   59.0380   28.5190   46.2880 C   0  0  0  0  0  0  0  0  0  0  0  0
   60.8201   30.3378   50.6755 H   0  0  0  0  0  0  0  0  0  0  0  0
   59.8183   29.7347   49.3120 H   0  0  0  0  0  0  0  0  0  0  0  0
   61.5935   29.4607   49.3120 H   0  0  0  0  0  0  0  0  0  0  0  0
   60.0495   32.0470   48.8575 H   0  0  0  0  0  0  0  0  0  0  0  0
   61.7939   32.0429   49.3725 H   0  0  0  0  0  0  0  0  0  0  0  0
   60.8130   31.9200   46.8670 H   0  0  0  0  0  0  0  0  0  0  0  0
   63.4832   31.3214   47.9128 H   0  0  0  0  0  0  0  0  0  0  0  0
   63.0356   31.3828   46.1245 H   0  0  0  0  0  0  0  0  0  0  0  0
   63.0972   33.6498   48.1342 H   0  0  0  0  0  0  0  0  0  0  0  0
   63.9808   33.4847   46.5790 H   0  0  0  0  0  0  0  0  0  0  0  0
   62.2031   33.7428   46.5790 H   0  0  0  0  0  0  0  0  0  0  0  0
   61.8251   29.6999   46.1231 H   0  0  0  0  0  0  0  0  0  0  0  0
   61.2091   29.2512   47.7933 H   0  0  0  0  0  0  0  0  0  0  0  0
   57.3159   32.2135   43.9244 H   0  0  0  0  0  0  0  0  0  0  0  0
   56.2452   32.2515   45.3722 H   0  0  0  0  0  0  0  0  0  0  0  0
   57.6075   32.8170   47.6523 H   0  0  0  0  0  0  0  0  0  0  0  0
   58.9852   34.6674   48.6046 H   0  0  0  0  0  0  0  0  0  0  0  0
   60.2508   36.1948   47.0874 H   0  0  0  0  0  0  0  0  0  0  0  0
   60.1460   35.8663   44.6132 H   0  0  0  0  0  0  0  0  0  0  0  0
   58.7713   34.0158   43.6544 H   0  0  0  0  0  0  0  0  0  0  0  0
   56.0129   27.2847   45.2044 H   0  0  0  0  0  0  0  0  0  0  0  0
   57.0587   25.1517   45.9469 H   0  0  0  0  0  0  0  0  0  0  0  0
   59.3549   25.1527   46.9072 H   0  0  0  0  0  0  0  0  0  0  0  0
   60.6253   27.2824   47.1250 H   0  0  0  0  0  0  0  0  0  0  0  0
  1  2  1  0
  2  3  1  0
  3  4  1  0
  4  5  1  0
  3  6  1  0
  6  7  1  0
  7  8  2  0
  8  9  1  0
  9 10  1  0
 10 11  1  0
 11 12  2  0
 12 13  1  0
 13 14  2  0
 14 15  1  0
 15 16  2  0
  9 17  1  0
 17 18  2  0
 17 19  1  0
 19 20  2  0
 20 21  1  0
 21 22  2  0
 22 23  1  0
 23 24  2  0
 24  7  1  0
 16 11  1  0
 24 19  1  0
  1 25  1  0
  1 26  1  0
  1 27  1  0
  2 28  1  0
  2 29  1  0
  3 30  1  0
  4 31  1  0
  4 32  1  0
  5 33  1  0
  5 34  1  0
  5 35  1  0
  6 36  1  0
  6 37  1  0
 10 38  1  0
 10 39  1  0
 12 40  1  0
 13 41  1  0
 14 42  1  0
 15 43  1  0
 16 44  1  0
 20 45  1  0
 21 46  1  0
 22 47  1  0
 23 48  1  0
M  CHG  1   3   1
M  END
>  <UniqueID>  (24) 
23

>  <SMILES>  (24) 
CC[NH+](CC)Cc1nn(Cc2ccccc2)c(=O)c2ccccc12

>  <Energy>  (24) 
64.31411021295001

>  <Genealogy>  (24) 
CC[NH+](CC)Cc1nn(Cc2ccccc2)c(=O)c2ccccc12 (protonated)
CC[NH+](CC)Cc1nn(Cc2ccccc2)c(=O)c2ccccc12 (3D coordinates assigned)
CC[NH+](CC)Cc1nn(Cc2ccccc2)c(=O)c2ccccc12 (optimized conformer: 64.31411021295001 kcal/mol)

>  <smiles>  (24) 
CCN(CC)Cc1nn(Cc2ccccc2)c(=O)c2ccccc12

>  <score_type>  (24) 
oracle

>  <origin>  (24) 
adg

>  <m_score__min__energy>  (24) 
-6.1299999999999999

>  <m_primary>  (24) 
energy

$$$$
24:0
     RDKit          3D

 44 47  0  0  0  0  0  0  0  0999 V2000
   57.1940   34.1360   44.4870 O   0  0  0  0  0  0  0  0  0  0  0  0
   57.4940   33.1760   45.2450 C   0  0  0  0  0  0  0  0  0  0  0  0
   56.6710   32.0020   45.2310 N   0  0  0  0  0  0  0  0  0  0  0  0
   56.9630   30.7900   44.5220 C   0  0  0  0  0  0  0  0  0  0  0  0
   56.1940   30.4630   43.3990 C   0  0  0  0  0  0  0  0  0  0  0  0
   56.4170   29.3060   42.7180 N   0  0  0  0  0  0  0  0  0  0  0  0
   57.3980   28.4380   43.0850 C   0  0  0  0  0  0  0  0  0  0  0  0
   58.2240   28.7340   44.1760 C   0  0  0  0  0  0  0  0  0  0  0  0
   59.2640   27.8780   44.5590 C   0  0  0  0  0  0  0  0  0  0  0  0
   60.0890   28.2270   45.6290 C   0  0  0  0  0  0  0  0  0  0  0  0
   59.8690   29.4300   46.3020 C   0  0  0  0  0  0  0  0  0  0  0  0
   58.8470   30.2450   45.9260 N   0  0  0  0  0  0  0  0  0  0  0  0
   58.0130   29.9290   44.8970 C   0  0  0  0  0  0  0  0  0  0  0  0
   58.6300   33.2850   46.1240 N   0  0  0  0  0  0  0  0  0  0  0  0
   59.7630   34.1360   45.7430 C   0  0  0  0  0  0  0  0  0  0  0  0
   61.0760   33.5470   46.2710 C   0  0  0  0  0  0  0  0  0  0  0  0
   60.9340   33.1490   47.6770 N   0  0  0  0  0  0  0  0  0  0  0  0
   62.0440   33.2800   48.5850 C   0  0  0  0  0  0  0  0  0  0  0  0
   63.3410   32.9350   48.1680 C   0  0  0  0  0  0  0  0  0  0  0  0
   64.4220   33.0580   49.0460 C   0  0  0  0  0  0  0  0  0  0  0  0
   64.2180   33.5260   50.3470 C   0  0  0  0  0  0  0  0  0  0  0  0
   62.9320   33.8690   50.7710 C   0  0  0  0  0  0  0  0  0  0  0  0
   61.8480   33.7470   49.8970 C   0  0  0  0  0  0  0  0  0  0  0  0
   59.7950   32.2990   48.0400 C   0  0  0  0  0  0  0  0  0  0  0  0
   58.4980   32.9290   47.5420 C   0  0  0  0  0  0  0  0  0  0  0  0
   55.4015   31.1481   43.0636 H   0  0  0  0  0  0  0  0  0  0  0  0
   55.8180   29.0770   41.8940 H   0  0  0  0  0  0  0  0  0  0  0  0
   57.5424   27.5028   42.5241 H   0  0  0  0  0  0  0  0  0  0  0  0
   59.4299   26.9344   44.0186 H   0  0  0  0  0  0  0  0  0  0  0  0
   60.9062   27.5594   45.9396 H   0  0  0  0  0  0  0  0  0  0  0  0
   60.5231   29.7193   47.1377 H   0  0  0  0  0  0  0  0  0  0  0  0
   59.8119   34.2046   44.6462 H   0  0  0  0  0  0  0  0  0  0  0  0
   59.6202   35.1359   46.1787 H   0  0  0  0  0  0  0  0  0  0  0  0
   61.3441   32.6651   45.6707 H   0  0  0  0  0  0  0  0  0  0  0  0
   61.8636   34.3113   46.1961 H   0  0  0  0  0  0  0  0  0  0  0  0
   63.5066   32.5661   47.1450 H   0  0  0  0  0  0  0  0  0  0  0  0
   65.4343   32.7861   48.7124 H   0  0  0  0  0  0  0  0  0  0  0  0
   65.0694   33.6242   51.0365 H   0  0  0  0  0  0  0  0  0  0  0  0
   62.7719   34.2361   51.7955 H   0  0  0  0  0  0  0  0  0  0  0  0
   60.8374   34.0174   50.2368 H   0  0  0  0  0  0  0  0  0  0  0  0
   59.9188   31.3073   47.5804 H   0  0  0  0  0  0  0  0  0  0  0  0
   59.7521   32.1987   49.1346 H   0  0  0  0  0  0  0  0  0  0  0  0
   57.6734   32.2111   47.6630 H   0  0  0  0  0  0  0  0  0  0  0  0
   58.2878   33.8370   48.1262 H   0  0  0  0  0  0  0  0  0  0  0  0
  1  2  2  0
  2  3  1  0
  3  4  1  0
  4  5  2  0
  5  6  1  0
  6  7  2  0
  7  8  1  0
  8  9  2  0
  9 10  1  0
 10 11  2  0
 11 12  1  0
 12 13  2  0
  2 14  1  0
 14 15  1  0
 15 16  1  0
 16 17  1  0
 17 18  1  0
 18 19  2  0
 19 20  1  0
 20 21  2  0
 21 22  1  0
 22 23  2  0
 17 24  1  0
 24 25  1  0
 13  4  1  0
 25 14  1  0
 13  8  1  0
 23 18  1  0
  5 26  1  0
  6 27  1  0
  7 28  1  0
  9 29  1  0
 10 30  1  0
 11 31  1  0
 15 32  1  0
 15 33  1  0
 16 34  1  0
 16 35  1  0
 19 36  1  0
 20 37  1  0
 21 38  1  0
 22 39  1  0
 23 40  1  0
 24 41  1  0
 24 42  1  0
 25 43  1  0
 25 44  1  0
M  CHG  2   3  -1   6   1
M  END
>  <UniqueID>  (25) 
24

>  <SMILES>  (25) 
O=C([N-]c1c[nH+]cc2cccnc12)N1CCN(c2ccccc2)CC1

>  <Energy>  (25) 
59.49166614851031

>  <Genealogy>  (25) 
O=C([N-]c1c[nH+]cc2cccnc12)N1CCN(c2ccccc2)CC1 (protonated)
O=C([N-]c1c[nH+]cc2cccnc12)N1CCN(c2ccccc2)CC1 (3D coordinates assigned)
O=C([N-]c1c[nH+]cc2cccnc12)N1CCN(c2ccccc2)CC1 (nonaromatic ring conformer: 59.49166614851031 kcal/mol)

>  <smiles>  (25) 
O=C(Nc1cncc2cccnc12)N1CCN(c2ccccc2)CC1

>  <score_type>  (25) 
oracle

>  <origin>  (25) 
adg

>  <m_score__min__energy>  (25) 
-7.8700000000000001

>  <m_primary>  (25) 
energy

$$$$
25:0
     RDKit          3D

 60 63  0  0  0  0  0  0  0  0999 V2000
   53.9530   29.4840   52.1100 C   0  0  0  0  0  0  0  0  0  0  0  0
   55.2370   30.0440   52.6340 C   0  0  0  0  0  0  0  0  0  0  0  0
   55.4830   30.0880   54.0100 C   0  0  0  0  0  0  0  0  0  0  0  0
   56.6910   30.6090   54.4720 C   0  0  0  0  0  0  0  0  0  0  0  0
   57.6410   31.0800   53.5640 C   0  0  0  0  0  0  0  0  0  0  0  0
   57.3700   31.0260   52.1830 C   0  0  0  0  0  0  0  0  0  0  0  0
   58.3250   31.5050   51.2080 N   0  0  0  0  0  0  0  0  0  0  0  0
   58.5260   30.7710   49.9460 C   0  0  0  0  0  0  0  0  0  0  0  0
   59.8090   31.2070   49.2310 C   0  0  0  0  0  0  0  0  0  0  0  0
   59.8340   32.7360   49.0430 C   0  0  0  0  0  0  0  0  0  0  0  0
   61.1620   33.1860   48.4500 C   0  0  0  0  0  0  0  0  0  0  0  0
   62.3390   33.0610   49.2090 C   0  0  0  0  0  0  0  0  0  0  0  0
   63.5620   33.4830   48.6900 C   0  0  0  0  0  0  0  0  0  0  0  0
   63.6070   34.0370   47.4130 C   0  0  0  0  0  0  0  0  0  0  0  0
   62.4670   34.1610   46.6860 N   0  0  0  0  0  0  0  0  0  0  0  0
   61.2560   33.7490   47.1570 C   0  0  0  0  0  0  0  0  0  0  0  0
   60.1020   33.9170   46.3820 O   0  0  0  0  0  0  0  0  0  0  0  0
   59.3140   32.8840   45.8540 C   0  0  0  0  0  0  0  0  0  0  0  0
   58.1630   33.1350   45.0850 C   0  0  0  0  0  0  0  0  0  0  0  0
   57.4160   32.0720   44.5710 C   0  0  0  0  0  0  0  0  0  0  0  0
   57.8150   30.7490   44.8030 C   0  0  0  0  0  0  0  0  0  0  0  0
   56.8730   29.4080   44.1470 S   0  0  0  0  0  0  0  0  0  0  0  0
   56.5890   29.6690   42.6940 O   0  0  0  0  0  0  0  0  0  0  0  0
   55.5560   29.3300   44.8700 O   0  0  0  0  0  0  0  0  0  0  0  0
   57.7160   27.8870   44.3110 N   0  0  0  0  0  0  0  0  0  0  0  0
   57.0200   27.0330   45.2820 C   0  0  0  0  0  0  0  0  0  0  0  0
   57.7890   27.2160   43.0090 C   0  0  0  0  0  0  0  0  0  0  0  0
   58.9750   30.4990   45.5490 C   0  0  0  0  0  0  0  0  0  0  0  0
   59.7220   31.5630   46.0650 C   0  0  0  0  0  0  0  0  0  0  0  0
   59.4650   33.5210   50.3340 C   0  0  0  0  0  0  0  0  0  0  0  0
   59.2240   32.6180   51.5520 C   0  0  0  0  0  0  0  0  0  0  0  0
   56.1780   30.5090   51.7660 N   0  0  0  0  0  0  0  0  0  0  0  0
   53.3052   29.2015   52.9529 H   0  0  0  0  0  0  0  0  0  0  0  0
   53.4457   30.2426   51.4959 H   0  0  0  0  0  0  0  0  0  0  0  0
   54.1638   28.5961   51.4959 H   0  0  0  0  0  0  0  0  0  0  0  0
   54.7309   29.7152   54.7209 H   0  0  0  0  0  0  0  0  0  0  0  0
   56.8955   30.6489   55.5521 H   0  0  0  0  0  0  0  0  0  0  0  0
   58.5954   31.4908   53.9250 H   0  0  0  0  0  0  0  0  0  0  0  0
   58.5894   29.6952   50.1663 H   0  0  0  0  0  0  0  0  0  0  0  0
   57.6750   30.9902   49.2843 H   0  0  0  0  0  0  0  0  0  0  0  0
   60.6787   30.9027   49.8319 H   0  0  0  0  0  0  0  0  0  0  0  0
   59.8430   30.7281   48.2413 H   0  0  0  0  0  0  0  0  0  0  0  0
   59.0407   32.9823   48.3218 H   0  0  0  0  0  0  0  0  0  0  0  0
   62.2944   32.6274   50.2189 H   0  0  0  0  0  0  0  0  0  0  0  0
   64.4825   33.3795   49.2832 H   0  0  0  0  0  0  0  0  0  0  0  0
   64.5663   34.3741   46.9933 H   0  0  0  0  0  0  0  0  0  0  0  0
   57.8503   34.1710   44.8878 H   0  0  0  0  0  0  0  0  0  0  0  0
   56.5099   32.2748   43.9811 H   0  0  0  0  0  0  0  0  0  0  0  0
   57.2794   27.3513   46.3025 H   0  0  0  0  0  0  0  0  0  0  0  0
   55.9334   27.1214   45.1354 H   0  0  0  0  0  0  0  0  0  0  0  0
   57.3258   25.9866   45.1354 H   0  0  0  0  0  0  0  0  0  0  0  0
   57.9068   26.1329   43.1608 H   0  0  0  0  0  0  0  0  0  0  0  0
   56.8646   27.4088   42.4448 H   0  0  0  0  0  0  0  0  0  0  0  0
   58.6503   27.6030   42.4448 H   0  0  0  0  0  0  0  0  0  0  0  0
   59.2987   29.4633   45.7291 H   0  0  0  0  0  0  0  0  0  0  0  0
   60.6368   31.3594   46.6408 H   0  0  0  0  0  0  0  0  0  0  0  0
   60.2889   34.2108   50.5695 H   0  0  0  0  0  0  0  0  0  0  0  0
   58.5222   34.0506   50.1323 H   0  0  0  0  0  0  0  0  0  0  0  0
   60.1866   32.2111   51.8953 H   0  0  0  0  0  0  0  0  0  0  0  0
   58.7556   33.2165   52.3473 H   0  0  0  0  0  0  0  0  0  0  0  0
  1  2  1  0
  2  3  2  0
  3  4  1  0
  4  5  2  0
  5  6  1  0
  6  7  1  0
  7  8  1  0
  8  9  1  0
  9 10  1  0
 10 11  1  0
 11 12  2  0
 12 13  1  0
 13 14  2  0
 14 15  1  0
 15 16  2  0
 16 17  1  0
 17 18  1  0
 18 19  2  0
 19 20  1  0
 20 21  2  0
 21 22  1  0
 22 23  2  0
 22 24  2  0
 22 25  1  0
 25 26  1  0
 25 27  1  0
 21 28  1  0
 28 29  2  0
 10 30  1  0
 30 31  1  0
  6 32  2  0
 32  2  1  0
 31  7  1  0
 16 11  1  0
 29 18  1  0
  1 33  1  0
  1 34  1  0
  1 35  1  0
  3 36  1  0
  4 37  1  0
  5 38  1  0
  8 39  1  0
  8 40  1  0
  9 41  1  0
  9 42  1  0
 10 43  1  0
 12 44  1  0
 13 45  1  0
 14 46  1  0
 19 47  1  0
 20 48  1  0
 26 49  1  0
 26 50  1  0
 26 51  1  0
 27 52  1  0
 27 53  1  0
 27 54  1  0
 28 55  1  0
 29 56  1  0
 30 57  1  0
 30 58  1  0
 31 59  1  0
 31 60  1  0
M  END
>  <UniqueID>  (26) 
25

>  <SMILES>  (26) 
Cc1cccc(N2CCC(c3cccnc3Oc3ccc(S(=O)(=O)N(C)C)cc3)CC2)n1

>  <Energy>  (26) 
70.28376505891937

>  <Genealogy>  (26) 
Cc1cccc(N2CCC(c3cccnc3Oc3ccc(S(=O)(=O)N(C)C)cc3)CC2)n1 (3D coordinates assigned)
Cc1cccc(N2CCC(c3cccnc3Oc3ccc(S(=O)(=O)N(C)C)cc3)CC2)n1 (nonaromatic ring conformer: 70.28376505891937 kcal/mol)

>  <smiles>  (26) 
Cc1cccc(N2CCC(c3cccnc3Oc3ccc(S(=O)(=O)N(C)C)cc3)CC2)n1

>  <score_type>  (26) 
oracle

>  <origin>  (26) 
adg

>  <m_score__min__energy>  (26) 
-9.8100000000000005

>  <m_primary>  (26) 
energy

$$$$
26:0
     RDKit          3D

 39 40  0  0  0  0  0  0  0  0999 V2000
   63.3940   33.8620   46.3710 C   0  0  0  0  0  0  0  0  0  0  0  0
   63.3330   33.3770   47.8190 C   0  0  0  0  0  0  0  0  0  0  0  0
   62.8380   31.9290   47.9320 C   0  0  0  0  0  0  0  0  0  0  0  0
   61.4860   31.7550   47.3020 C   0  0  0  0  0  0  0  0  0  0  0  0
   61.1600   30.5670   46.7390 N   0  0  0  0  0  0  0  0  0  0  0  0
   59.9650   30.3620   46.1210 C   0  0  0  0  0  0  0  0  0  0  0  0
   59.0360   31.4200   46.0440 C   0  0  0  0  0  0  0  0  0  0  0  0
   59.4030   32.6660   46.6270 C   0  0  0  0  0  0  0  0  0  0  0  0
   58.3510   34.1320   46.5860 S   0  0  0  0  0  0  0  0  0  0  0  0
   59.2610   34.8860   45.2030 C   0  0  0  0  0  0  0  0  0  0  0  0
   60.6100   32.7910   47.2410 N   0  0  0  0  0  0  0  0  0  0  0  0
   57.8120   31.1710   45.3850 C   0  0  0  0  0  0  0  0  0  0  0  0
   56.9420   32.0800   45.2920 O   0  0  0  0  0  0  0  0  0  0  0  0
   57.5600   29.9420   44.8340 N   0  0  0  0  0  0  0  0  0  0  0  0
   56.2920   29.7060   44.1110 C   0  0  0  0  0  0  0  0  0  0  0  0
   56.4400   30.0760   42.6390 C   0  0  0  0  0  0  0  0  0  0  0  0
   58.5030   28.9470   44.8990 C   0  0  0  0  0  0  0  0  0  0  0  0
   58.2820   27.8400   44.3290 O   0  0  0  0  0  0  0  0  0  0  0  0
   59.6810   29.1410   45.5710 N   0  0  0  0  0  0  0  0  0  0  0  0
   60.6830   28.0600   45.6330 C   0  0  0  0  0  0  0  0  0  0  0  0
   63.5313   34.9533   46.3553 H   0  0  0  0  0  0  0  0  0  0  0  0
   64.2384   33.3788   45.8577 H   0  0  0  0  0  0  0  0  0  0  0  0
   62.4562   33.6030   45.8577 H   0  0  0  0  0  0  0  0  0  0  0  0
   64.3408   33.4406   48.2553 H   0  0  0  0  0  0  0  0  0  0  0  0
   62.6189   34.0179   48.3569 H   0  0  0  0  0  0  0  0  0  0  0  0
   63.5554   31.2662   47.4259 H   0  0  0  0  0  0  0  0  0  0  0  0
   62.7547   31.6767   48.9994 H   0  0  0  0  0  0  0  0  0  0  0  0
   60.0515   35.5410   45.5980 H   0  0  0  0  0  0  0  0  0  0  0  0
   59.7139   34.0949   44.5874 H   0  0  0  0  0  0  0  0  0  0  0  0
   58.5678   35.4780   44.5874 H   0  0  0  0  0  0  0  0  0  0  0  0
   60.8750   33.7120   47.6600 H   0  0  0  0  0  0  0  0  0  0  0  0
   56.0217   28.6428   44.1917 H   0  0  0  0  0  0  0  0  0  0  0  0
   55.5056   30.3320   44.5580 H   0  0  0  0  0  0  0  0  0  0  0  0
   56.8474   31.0944   42.5561 H   0  0  0  0  0  0  0  0  0  0  0  0
   57.1236   29.3667   42.1496 H   0  0  0  0  0  0  0  0  0  0  0  0
   55.4558   30.0338   42.1496 H   0  0  0  0  0  0  0  0  0  0  0  0
   60.9024   27.8233   46.6846 H   0  0  0  0  0  0  0  0  0  0  0  0
   60.2882   27.1648   45.1303 H   0  0  0  0  0  0  0  0  0  0  0  0
   61.6056   28.3859   45.1303 H   0  0  0  0  0  0  0  0  0  0  0  0
  1  2  1  0
  2  3  1  0
  3  4  1  0
  4  5  2  0
  5  6  1  0
  6  7  2  0
  7  8  1  0
  8  9  1  0
  9 10  1  0
  8 11  2  0
  7 12  1  0
 12 13  2  0
 12 14  1  0
 14 15  1  0
 15 16  1  0
 14 17  1  0
 17 18  2  0
 17 19  1  0
 19 20  1  0
 11  4  1  0
 19  6  1  0
  1 21  1  0
  1 22  1  0
  1 23  1  0
  2 24  1  0
  2 25  1  0
  3 26  1  0
  3 27  1  0
 10 28  1  0
 10 29  1  0
 10 30  1  0
 11 31  1  0
 15 32  1  0
 15 33  1  0
 16 34  1  0
 16 35  1  0
 16 36  1  0
 20 37  1  0
 20 38  1  0
 20 39  1  0
M  CHG  1  11   1
M  END
>  <UniqueID>  (27) 
26

>  <SMILES>  (27) 
CCCc1nc2c(c(SC)[nH+]1)c(=O)n(CC)c(=O)n2C

>  <Energy>  (27) 
41.86840969631031

>  <Genealogy>  (27) 
CCCc1nc2c(c(SC)[nH+]1)c(=O)n(CC)c(=O)n2C (protonated)
CCCc1nc2c(c(SC)[nH+]1)c(=O)n(CC)c(=O)n2C (3D coordinates assigned)
CCCc1nc2c(c(SC)[nH+]1)c(=O)n(CC)c(=O)n2C (optimized conformer: 41.86840969631031 kcal/mol)

>  <smiles>  (27) 
CCCc1nc(SC)c2c(=O)n(CC)c(=O)n(C)c2n1

>  <score_type>  (27) 
oracle

>  <origin>  (27) 
adg

>  <m_score__min__energy>  (27) 
-5.21

>  <m_primary>  (27) 
energy

$$$$
27:0
     RDKit          3D

 49 51  0  0  0  0  0  0  0  0999 V2000
   60.5210   27.8460   47.9840 O   0  0  0  0  0  0  0  0  0  0  0  0
   60.3790   29.0430   47.6130 C   0  0  0  0  0  0  0  0  0  0  0  0
   60.8980   30.1430   48.4970 C   0  0  0  0  0  0  0  0  0  0  0  0
   59.7640   30.7300   49.3550 C   0  0  0  0  0  0  0  0  0  0  0  0
   59.3900   32.0890   48.9390 N   0  0  0  0  0  0  0  0  0  0  0  0
   60.2660   33.1150   49.5190 C   0  0  0  0  0  0  0  0  0  0  0  0
   61.4930   33.2670   48.6640 C   0  0  0  0  0  0  0  0  0  0  0  0
   62.7650   32.9690   49.1820 C   0  0  0  0  0  0  0  0  0  0  0  0
   63.8970   33.0780   48.3690 C   0  0  0  0  0  0  0  0  0  0  0  0
   63.7670   33.4700   47.0340 C   0  0  0  0  0  0  0  0  0  0  0  0
   62.5050   33.7540   46.5070 C   0  0  0  0  0  0  0  0  0  0  0  0
   61.3680   33.6510   47.3180 C   0  0  0  0  0  0  0  0  0  0  0  0
   59.7000   29.3310   46.3780 N   0  0  0  0  0  0  0  0  0  0  0  0
   59.8670   28.7280   45.1780 C   0  0  0  0  0  0  0  0  0  0  0  0
   59.0620   29.2580   44.2370 N   0  0  0  0  0  0  0  0  0  0  0  0
   58.3670   30.2210   44.8680 C   0  0  0  0  0  0  0  0  0  0  0  0
   57.1670   31.2490   44.1070 S   0  0  0  0  0  0  0  0  0  0  0  0
   57.3090   31.1580   42.6130 O   0  0  0  0  0  0  0  0  0  0  0  0
   55.7950   30.7800   44.5000 O   0  0  0  0  0  0  0  0  0  0  0  0
   57.4090   32.9430   44.6400 C   0  0  0  0  0  0  0  0  0  0  0  0
   57.4030   33.0790   46.1550 C   0  0  0  0  0  0  0  0  0  0  0  0
   58.2280   34.3250   46.4490 C   0  0  0  0  0  0  0  0  0  0  0  0
   59.0980   34.5820   45.2180 C   0  0  0  0  0  0  0  0  0  0  0  0
   58.7540   33.5020   44.1980 C   0  0  0  0  0  0  0  0  0  0  0  0
   58.7560   30.2730   46.1880 C   0  0  0  0  0  0  0  0  0  0  0  0
   61.6784   29.7376   49.1578 H   0  0  0  0  0  0  0  0  0  0  0  0
   61.3121   30.9410   47.8633 H   0  0  0  0  0  0  0  0  0  0  0  0
   58.8818   30.0788   49.2673 H   0  0  0  0  0  0  0  0  0  0  0  0
   60.1241   30.7851   50.3929 H   0  0  0  0  0  0  0  0  0  0  0  0
   59.4240   32.1540   47.8950 H   0  0  0  0  0  0  0  0  0  0  0  0
   59.7286   34.0738   49.5632 H   0  0  0  0  0  0  0  0  0  0  0  0
   60.5616   32.8136   50.5348 H   0  0  0  0  0  0  0  0  0  0  0  0
   62.8701   32.6493   50.2293 H   0  0  0  0  0  0  0  0  0  0  0  0
   64.8922   32.8547   48.7810 H   0  0  0  0  0  0  0  0  0  0  0  0
   64.6599   33.5550   46.3972 H   0  0  0  0  0  0  0  0  0  0  0  0
   62.4042   34.0586   45.4548 H   0  0  0  0  0  0  0  0  0  0  0  0
   60.3745   33.8712   46.9004 H   0  0  0  0  0  0  0  0  0  0  0  0
   60.5738   27.9055   44.9936 H   0  0  0  0  0  0  0  0  0  0  0  0
   58.9970   28.9790   43.2330 H   0  0  0  0  0  0  0  0  0  0  0  0
   56.5729   33.4915   44.1817 H   0  0  0  0  0  0  0  0  0  0  0  0
   56.3750   33.2007   46.5270 H   0  0  0  0  0  0  0  0  0  0  0  0
   57.8162   32.1872   46.6488 H   0  0  0  0  0  0  0  0  0  0  0  0
   57.5649   35.1839   46.6296 H   0  0  0  0  0  0  0  0  0  0  0  0
   58.8477   34.1842   47.3468 H   0  0  0  0  0  0  0  0  0  0  0  0
   58.8810   35.5772   44.8027 H   0  0  0  0  0  0  0  0  0  0  0  0
   60.1664   34.5514   45.4781 H   0  0  0  0  0  0  0  0  0  0  0  0
   58.6783   33.9350   43.1896 H   0  0  0  0  0  0  0  0  0  0  0  0
   59.5270   32.7207   44.1527 H   0  0  0  0  0  0  0  0  0  0  0  0
   58.3652   30.9615   46.9517 H   0  0  0  0  0  0  0  0  0  0  0  0
  1  2  2  0
  2  3  1  0
  3  4  1  0
  4  5  1  0
  5  6  1  0
  6  7  1  0
  7  8  2  0
  8  9  1  0
  9 10  2  0
 10 11  1  0
 11 12  2  0
  2 13  1  0
 13 14  1  0
 14 15  2  0
 15 16  1  0
 16 17  1  0
 17 18  2  0
 17 19  2  0
 17 20  1  0
 20 21  1  0
 21 22  1  0
 22 23  1  0
 23 24  1  0
 16 25  2  0
 12  7  1  0
 25 13  1  0
 24 20  1  0
  3 26  1  0
  3 27  1  0
  4 28  1  0
  4 29  1  0
  5 30  1  0
  6 31  1  0
  6 32  1  0
  8 33  1  0
  9 34  1  0
 10 35  1  0
 11 36  1  0
 12 37  1  0
 14 38  1  0
 15 39  1  0
 20 40  1  0
 21 41  1  0
 21 42  1  0
 22 43  1  0
 22 44  1  0
 23 45  1  0
 23 46  1  0
 24 47  1  0
 24 48  1  0
 25 49  1  0
M  CHG  1  15   1
M  END
>  <UniqueID>  (28) 
27

>  <SMILES>  (28) 
O=C(CCNCc1ccccc1)n1c[nH+]c(S(=O)(=O)C2CCCC2)c1

>  <Energy>  (28) 
74.62661278492219

>  <Genealogy>  (28) 
O=C(CCNCc1ccccc1)n1c[nH+]c(S(=O)(=O)C2CCCC2)c1 (protonated)
O=C(CCNCc1ccccc1)n1c[nH+]c(S(=O)(=O)C2CCCC2)c1 (3D coordinates assigned)
O=C(CCNCc1ccccc1)n1c[nH+]c(S(=O)(=O)C2CCCC2)c1 (nonaromatic ring conformer: 74.62661278492219 kcal/mol)

>  <smiles>  (28) 
O=C(CCNCc1ccccc1)n1cnc(S(=O)(=O)C2CCCC2)c1

>  <score_type>  (28) 
oracle

>  <origin>  (28) 
adg

>  <m_score__min__energy>  (28) 
-7.04

>  <m_primary>  (28) 
energy

$$$$
28:0
     RDKit          3D

 36 37  0  0  0  0  0  0  0  0999 V2000
   64.0340   33.1540   49.4610 C   0  0  0  0  0  0  0  0  0  0  0  0
   62.9720   34.1020   49.4640 O   0  0  0  0  0  0  0  0  0  0  0  0
   61.8510   34.0380   48.6240 C   0  0  0  0  0  0  0  0  0  0  0  0
   60.5370   34.2020   49.1030 C   0  0  0  0  0  0  0  0  0  0  0  0
   59.4500   34.1090   48.2290 C   0  0  0  0  0  0  0  0  0  0  0  0
   59.6550   33.8400   46.8660 C   0  0  0  0  0  0  0  0  0  0  0  0
   58.5040   33.6430   45.9600 C   0  0  0  0  0  0  0  0  0  0  0  0
   57.3270   33.7630   46.3950 O   0  0  0  0  0  0  0  0  0  0  0  0
   58.7060   33.2870   44.5890 N   0  0  0  0  0  0  0  0  0  0  0  0
   57.6650   32.6450   43.7890 C   0  0  0  0  0  0  0  0  0  0  0  0
   57.5190   31.1980   44.1740 C   0  0  0  0  0  0  0  0  0  0  0  0
   56.2760   30.5570   44.0540 C   0  0  0  0  0  0  0  0  0  0  0  0
   56.0960   29.2670   44.5560 C   0  0  0  0  0  0  0  0  0  0  0  0
   57.1550   28.5990   45.1880 C   0  0  0  0  0  0  0  0  0  0  0  0
   56.9000   26.9960   45.8760 S   0  0  0  0  0  0  0  0  0  0  0  0
   55.2100   26.6980   46.0900 N   0  0  0  0  0  0  0  0  0  0  0  0
   57.4740   25.9590   44.9530 O   0  0  0  0  0  0  0  0  0  0  0  0
   57.5740   26.9040   47.2160 O   0  0  0  0  0  0  0  0  0  0  0  0
   58.4100   29.2220   45.2740 C   0  0  0  0  0  0  0  0  0  0  0  0
   59.4570   28.5900   45.8620 F   0  0  0  0  0  0  0  0  0  0  0  0
   58.5880   30.5160   44.7740 C   0  0  0  0  0  0  0  0  0  0  0  0
   60.9690   33.7070   46.3870 C   0  0  0  0  0  0  0  0  0  0  0  0
   62.0540   33.8000   47.2620 C   0  0  0  0  0  0  0  0  0  0  0  0
   64.3092   32.9084   50.4973 H   0  0  0  0  0  0  0  0  0  0  0  0
   63.7086   32.2405   48.9417 H   0  0  0  0  0  0  0  0  0  0  0  0
   64.9048   33.5806   48.9417 H   0  0  0  0  0  0  0  0  0  0  0  0
   60.3650   34.4043   50.1705 H   0  0  0  0  0  0  0  0  0  0  0  0
   58.4279   34.2474   48.6112 H   0  0  0  0  0  0  0  0  0  0  0  0
   56.7089   33.1622   43.9574 H   0  0  0  0  0  0  0  0  0  0  0  0
   57.9469   32.7031   42.7273 H   0  0  0  0  0  0  0  0  0  0  0  0
   55.4392   31.0741   43.5617 H   0  0  0  0  0  0  0  0  0  0  0  0
   55.1189   28.7719   44.4554 H   0  0  0  0  0  0  0  0  0  0  0  0
   54.7760   26.7120   45.1390 H   0  0  0  0  0  0  0  0  0  0  0  0
   59.5719   31.0017   44.8517 H   0  0  0  0  0  0  0  0  0  0  0  0
   61.1446   33.5285   45.3159 H   0  0  0  0  0  0  0  0  0  0  0  0
   63.0774   33.6849   46.8754 H   0  0  0  0  0  0  0  0  0  0  0  0
  1  2  1  0
  2  3  1  0
  3  4  2  0
  4  5  1  0
  5  6  2  0
  6  7  1  0
  7  8  2  0
  7  9  1  0
  9 10  1  0
 10 11  1  0
 11 12  2  0
 12 13  1  0
 13 14  2  0
 14 15  1  0
 15 16  1  0
 15 17  2  0
 15 18  2  0
 14 19  1  0
 19 20  1  0
 19 21  2  0
  6 22  1  0
 22 23  2  0
 23  3  1  0
 21 11  1  0
  1 24  1  0
  1 25  1  0
  1 26  1  0
  4 27  1  0
  5 28  1  0
 10 29  1  0
 10 30  1  0
 12 31  1  0
 13 32  1  0
 16 33  1  0
 21 34  1  0
 22 35  1  0
 23 36  1  0
M  CHG  2   9  -1  16  -1
M  END
>  <UniqueID>  (29) 
28

>  <SMILES>  (29) 
COc1ccc(C(=O)[N-]Cc2ccc(S([NH-])(=O)=O)c(F)c2)cc1

>  <Energy>  (29) 
40.308141331770656

>  <Genealogy>  (29) 
COc1ccc(C(=O)[N-]Cc2ccc(S([NH-])(=O)=O)c(F)c2)cc1 (protonated)
COc1ccc(C(=O)[N-]Cc2ccc(S([NH-])(=O)=O)c(F)c2)cc1 (3D coordinates assigned)
COc1ccc(C(=O)[N-]Cc2ccc(S([NH-])(=O)=O)c(F)c2)cc1 (optimized conformer: 40.308141331770656 kcal/mol)

>  <smiles>  (29) 
COc1ccc(C(=O)NCc2ccc(S(N)(=O)=O)c(F)c2)cc1

>  <score_type>  (29) 
oracle

>  <origin>  (29) 
adg

>  <m_score__min__energy>  (29) 
-11.1

>  <m_primary>  (29) 
energy

$$$$
29:0
     RDKit          3D

 74 77  0  0  0  0  0  0  0  0999 V2000
   63.2440   33.5850   46.9080 C   0  0  0  0  0  0  0  0  0  0  0  0
   62.7000   33.4210   47.9710 C   0  0  0  0  0  0  0  0  0  0  0  0
   62.0350   33.2290   49.2650 C   0  0  0  0  0  0  0  0  0  0  0  0
   60.6280   32.8720   49.0660 N   0  0  0  0  0  0  0  0  0  0  0  0
   59.6110   33.9240   48.9310 C   0  0  0  0  0  0  0  0  0  0  0  0
   59.1110   34.0020   47.5150 C   0  0  0  0  0  0  0  0  0  0  0  0
   59.8560   34.6870   46.5410 C   0  0  0  0  0  0  0  0  0  0  0  0
   59.3740   34.7930   45.2330 C   0  0  0  0  0  0  0  0  0  0  0  0
   58.1430   34.2270   44.8910 C   0  0  0  0  0  0  0  0  0  0  0  0
   57.3910   33.5520   45.8590 C   0  0  0  0  0  0  0  0  0  0  0  0
   57.8710   33.4410   47.1670 C   0  0  0  0  0  0  0  0  0  0  0  0
   60.2770   31.5110   48.7650 C   0  0  0  0  0  0  0  0  0  0  0  0
   60.7560   30.8990   47.6000 C   0  0  0  0  0  0  0  0  0  0  0  0
   60.3900   29.5870   47.2910 C   0  0  0  0  0  0  0  0  0  0  0  0
   59.5260   28.8690   48.1360 C   0  0  0  0  0  0  0  0  0  0  0  0
   59.0830   27.5080   47.7480 C   0  0  0  0  0  0  0  0  0  0  0  0
   59.9000   26.5490   47.8300 O   0  0  0  0  0  0  0  0  0  0  0  0
   57.7680   27.2790   47.2140 N   0  0  0  0  0  0  0  0  0  0  0  0
   57.4530   26.0760   46.4320 C   0  0  2  0  0  0  0  0  0  0  0  0
   58.0020   26.2020   44.9960 C   0  0  0  0  0  0  0  0  0  0  0  0
   58.5580   27.5690   44.7050 C   0  0  0  0  0  0  0  0  0  0  0  0
   59.9010   27.8970   44.5330 C   0  0  0  0  0  0  0  0  0  0  0  0
   60.0290   29.1960   44.1800 N   0  0  0  0  0  0  0  0  0  0  0  0
   58.7800   29.6910   44.1210 C   0  0  0  0  0  0  0  0  0  0  0  0
   58.4010   30.9860   43.7730 C   0  0  0  0  0  0  0  0  0  0  0  0
   57.0270   31.2880   43.7590 C   0  0  0  0  0  0  0  0  0  0  0  0
   56.0720   30.2980   44.0830 C   0  0  0  0  0  0  0  0  0  0  0  0
   56.4840   29.0000   44.4320 C   0  0  0  0  0  0  0  0  0  0  0  0
   57.8540   28.7290   44.4350 C   0  0  0  0  0  0  0  0  0  0  0  0
   55.9720   25.7970   46.4220 C   0  0  0  0  0  0  0  0  0  0  0  0
   55.1590   26.6630   45.9940 O   0  0  0  0  0  0  0  0  0  0  0  0
   55.5060   24.5050   46.8230 N   0  0  0  0  0  0  0  0  0  0  0  0
   55.7860   23.2660   46.1000 C   0  0  0  0  0  0  0  0  0  0  0  0
   57.2820   22.9250   46.1420 C   0  0  0  0  0  0  0  0  0  0  0  0
   57.8630   22.4540   44.7990 C   0  0  0  0  0  0  0  0  0  0  0  0
   56.8010   22.3650   43.6940 C   0  0  0  0  0  0  0  0  0  0  0  0
   56.5810   23.7230   43.0310 C   0  0  0  0  0  0  0  0  0  0  0  0
   59.0700   29.4790   49.3200 C   0  0  0  0  0  0  0  0  0  0  0  0
   59.4480   30.7870   49.6310 C   0  0  0  0  0  0  0  0  0  0  0  0
   63.7405   33.7347   45.9379 H   0  0  0  0  0  0  0  0  0  0  0  0
   62.5397   32.4218   49.8160 H   0  0  0  0  0  0  0  0  0  0  0  0
   62.0885   34.1669   49.8373 H   0  0  0  0  0  0  0  0  0  0  0  0
   58.7673   33.6985   49.5998 H   0  0  0  0  0  0  0  0  0  0  0  0
   60.0637   34.8898   49.1997 H   0  0  0  0  0  0  0  0  0  0  0  0
   60.8215   35.1414   46.8082 H   0  0  0  0  0  0  0  0  0  0  0  0
   59.9650   35.3230   44.4715 H   0  0  0  0  0  0  0  0  0  0  0  0
   57.7653   34.3120   43.8614 H   0  0  0  0  0  0  0  0  0  0  0  0
   56.4210   33.1083   45.5902 H   0  0  0  0  0  0  0  0  0  0  0  0
   57.2759   32.9126   47.9264 H   0  0  0  0  0  0  0  0  0  0  0  0
   61.4238   31.4543   46.9250 H   0  0  0  0  0  0  0  0  0  0  0  0
   60.7809   29.1118   46.3792 H   0  0  0  0  0  0  0  0  0  0  0  0
   57.1220   28.0940   47.1230 H   0  0  0  0  0  0  0  0  0  0  0  0
   57.9461   25.2204   46.9166 H   0  0  0  0  0  0  0  0  0  0  0  0
   58.8024   25.4600   44.8589 H   0  0  0  0  0  0  0  0  0  0  0  0
   57.1646   26.0296   44.3038 H   0  0  0  0  0  0  0  0  0  0  0  0
   60.7395   27.1975   44.6657 H   0  0  0  0  0  0  0  0  0  0  0  0
   60.9190   29.7040   43.9780 H   0  0  0  0  0  0  0  0  0  0  0  0
   59.1522   31.7478   43.5174 H   0  0  0  0  0  0  0  0  0  0  0  0
   56.6936   32.3022   43.4939 H   0  0  0  0  0  0  0  0  0  0  0  0
   55.0002   30.5444   44.0620 H   0  0  0  0  0  0  0  0  0  0  0  0
   55.7510   28.2229   44.6942 H   0  0  0  0  0  0  0  0  0  0  0  0
   55.2177   22.4450   46.5615 H   0  0  0  0  0  0  0  0  0  0  0  0
   55.4888   23.4008   45.0495 H   0  0  0  0  0  0  0  0  0  0  0  0
   57.8312   23.8241   46.4583 H   0  0  0  0  0  0  0  0  0  0  0  0
   57.3935   22.0858   46.8443 H   0  0  0  0  0  0  0  0  0  0  0  0
   58.6410   23.1647   44.4833 H   0  0  0  0  0  0  0  0  0  0  0  0
   58.2722   21.4441   44.9493 H   0  0  0  0  0  0  0  0  0  0  0  0
   57.1340   21.6437   42.9332 H   0  0  0  0  0  0  0  0  0  0  0  0
   55.8527   22.0400   44.1468 H   0  0  0  0  0  0  0  0  0  0  0  0
   56.4562   24.4935   43.8061 H   0  0  0  0  0  0  0  0  0  0  0  0
   57.4508   23.9705   42.4047 H   0  0  0  0  0  0  0  0  0  0  0  0
   55.6776   23.6832   42.4047 H   0  0  0  0  0  0  0  0  0  0  0  0
   58.4124   28.9224   50.0039 H   0  0  0  0  0  0  0  0  0  0  0  0
   59.0922   31.2517   50.5624 H   0  0  0  0  0  0  0  0  0  0  0  0
  1  2  3  0
  2  3  1  0
  3  4  1  0
  4  5  1  0
  5  6  1  0
  6  7  2  0
  7  8  1  0
  8  9  2  0
  9 10  1  0
 10 11  2  0
  4 12  1  0
 12 13  2  0
 13 14  1  0
 14 15  2  0
 15 16  1  0
 16 17  2  0
 16 18  1  0
 18 19  1  0
 19 20  1  0
 20 21  1  0
 21 22  2  0
 22 23  1  0
 23 24  1  0
 24 25  2  0
 25 26  1  0
 26 27  2  0
 27 28  1  0
 28 29  2  0
 19 30  1  0
 30 31  2  0
 30 32  1  0
 32 33  1  0
 33 34  1  0
 34 35  1  0
 35 36  1  0
 36 37  1  0
 15 38  1  0
 38 39  2  0
 11  6  1  0
 39 12  1  0
 29 21  1  0
 29 24  1  0
  1 40  1  0
  3 41  1  0
  3 42  1  0
  5 43  1  0
  5 44  1  0
  7 45  1  0
  8 46  1  0
  9 47  1  0
 10 48  1  0
 11 49  1  0
 13 50  1  0
 14 51  1  0
 18 52  1  0
 19 53  1  1
 20 54  1  0
 20 55  1  0
 22 56  1  0
 23 57  1  0
 25 58  1  0
 26 59  1  0
 27 60  1  0
 28 61  1  0
 33 62  1  0
 33 63  1  0
 34 64  1  0
 34 65  1  0
 35 66  1  0
 35 67  1  0
 36 68  1  0
 36 69  1  0
 37 70  1  0
 37 71  1  0
 37 72  1  0
 38 73  1  0
 39 74  1  0
M  CHG  1  32  -1
M  END
>  <UniqueID>  (30) 
29

>  <SMILES>  (30) 
C#CCN(Cc1ccccc1)c1ccc(C(=O)N[C@H](Cc2c[nH]c3ccccc23)C(=O)[N-]CCCCC)cc1

>  <Energy>  (30) 
98.2834846227641

>  <Genealogy>  (30) 
C#CCN(Cc1ccccc1)c1ccc(C(=O)NC(Cc2c[nH]c3ccccc23)C(=O)[N-]CCCCC)cc1 (protonated)
C#CCN(Cc1ccccc1)c1ccc(C(=O)N[C@H](Cc2c[nH]c3ccccc23)C(=O)[N-]CCCCC)cc1 (chirality)
C#CCN(Cc1ccccc1)c1ccc(C(=O)N[C@H](Cc2c[nH]c3ccccc23)C(=O)[N-]CCCCC)cc1 (3D coordinates assigned)
C#CCN(Cc1ccccc1)c1ccc(C(=O)N[C@H](Cc2c[nH]c3ccccc23)C(=O)[N-]CCCCC)cc1 (optimized conformer: 98.2834846227641 kcal/mol)

>  <smiles>  (30) 
C#CCN(Cc1ccccc1)c1ccc(C(=O)NC(Cc2c[nH]c3ccccc23)C(=O)NCCCCC)cc1

>  <score_type>  (30) 
oracle

>  <origin>  (30) 
adg

>  <m_score__min__energy>  (30) 
-12.880000000000001

>  <m_primary>  (30) 
energy

$$$$
30:0
     RDKit          3D

 50 53  0  0  0  0  0  0  0  0999 V2000
   57.4010   32.3340   41.2190 C   0  0  0  0  0  0  0  0  0  0  0  0
   57.7480   31.9510   42.6220 C   0  0  0  0  0  0  0  0  0  0  0  0
   57.6960   30.6460   42.9930 N   0  0  0  0  0  0  0  0  0  0  0  0
   58.0260   30.2460   44.2490 C   0  0  0  0  0  0  0  0  0  0  0  0
   57.9310   28.8560   44.5800 N   0  0  0  0  0  0  0  0  0  0  0  0
   58.9680   27.9170   44.1510 C   0  0  0  0  0  0  0  0  0  0  0  0
   59.4580   27.0730   45.3430 C   0  0  0  0  0  0  0  0  0  0  0  0
   58.3960   26.7250   46.3260 N   0  0  0  0  0  0  0  0  0  0  0  0
   58.6140   27.3890   47.6220 C   0  0  0  0  0  0  0  0  0  0  0  0
   57.0210   26.9330   45.8260 C   0  0  0  0  0  0  0  0  0  0  0  0
   56.7940   28.3820   45.3700 C   0  0  0  0  0  0  0  0  0  0  0  0
   58.4590   31.2010   45.1880 C   0  0  0  0  0  0  0  0  0  0  0  0
   58.8610   30.8510   46.4890 C   0  0  0  0  0  0  0  0  0  0  0  0
   59.2940   31.8350   47.3810 C   0  0  0  0  0  0  0  0  0  0  0  0
   59.3300   33.1820   46.9930 C   0  0  0  0  0  0  0  0  0  0  0  0
   59.8450   34.2310   47.9430 C   0  0  0  0  0  0  0  0  0  0  0  0
   61.2910   33.9690   48.2750 C   0  0  0  0  0  0  0  0  0  0  0  0
   61.6950   33.8710   49.6180 C   0  0  0  0  0  0  0  0  0  0  0  0
   63.0270   33.5870   49.9350 C   0  0  0  0  0  0  0  0  0  0  0  0
   63.9630   33.3930   48.9190 C   0  0  0  0  0  0  0  0  0  0  0  0
   63.5710   33.4810   47.5800 C   0  0  0  0  0  0  0  0  0  0  0  0
   62.2400   33.7640   47.2540 C   0  0  0  0  0  0  0  0  0  0  0  0
   61.8780   33.8340   45.9470 F   0  0  0  0  0  0  0  0  0  0  0  0
   58.9480   33.5350   45.6890 C   0  0  0  0  0  0  0  0  0  0  0  0
   58.5150   32.5540   44.7840 C   0  0  0  0  0  0  0  0  0  0  0  0
   58.1600   32.8970   43.5130 N   0  0  0  0  0  0  0  0  0  0  0  0
   56.6625   33.1491   41.2334 H   0  0  0  0  0  0  0  0  0  0  0  0
   58.3082   32.6704   40.6957 H   0  0  0  0  0  0  0  0  0  0  0  0
   56.9770   31.4643   40.6957 H   0  0  0  0  0  0  0  0  0  0  0  0
   58.5555   27.2495   43.3801 H   0  0  0  0  0  0  0  0  0  0  0  0
   59.8173   28.4860   43.7449 H   0  0  0  0  0  0  0  0  0  0  0  0
   59.8839   26.1377   44.9507 H   0  0  0  0  0  0  0  0  0  0  0  0
   60.1956   27.6867   45.8809 H   0  0  0  0  0  0  0  0  0  0  0  0
   58.3835   26.6871   48.4370 H   0  0  0  0  0  0  0  0  0  0  0  0
   59.6640   27.7078   47.6986 H   0  0  0  0  0  0  0  0  0  0  0  0
   57.9573   28.2682   47.6986 H   0  0  0  0  0  0  0  0  0  0  0  0
   56.8462   26.2598   44.9738 H   0  0  0  0  0  0  0  0  0  0  0  0
   56.3219   26.7193   46.6479 H   0  0  0  0  0  0  0  0  0  0  0  0
   55.8822   28.4296   44.7564 H   0  0  0  0  0  0  0  0  0  0  0  0
   56.6876   29.0215   46.2586 H   0  0  0  0  0  0  0  0  0  0  0  0
   58.8344   29.7979   46.8058 H   0  0  0  0  0  0  0  0  0  0  0  0
   59.6092   31.5509   48.3959 H   0  0  0  0  0  0  0  0  0  0  0  0
   59.7538   35.2218   47.4740 H   0  0  0  0  0  0  0  0  0  0  0  0
   59.2528   34.1974   48.8694 H   0  0  0  0  0  0  0  0  0  0  0  0
   60.9600   34.0184   50.4230 H   0  0  0  0  0  0  0  0  0  0  0  0
   63.3374   33.5164   50.9879 H   0  0  0  0  0  0  0  0  0  0  0  0
   65.0103   33.1706   49.1716 H   0  0  0  0  0  0  0  0  0  0  0  0
   64.3108   33.3274   46.7806 H   0  0  0  0  0  0  0  0  0  0  0  0
   58.9884   34.5883   45.3745 H   0  0  0  0  0  0  0  0  0  0  0  0
   58.2100   33.8960   43.2090 H   0  0  0  0  0  0  0  0  0  0  0  0
  1  2  1  0
  2  3  2  0
  3  4  1  0
  4  5  1  0
  5  6  1  0
  6  7  1  0
  7  8  1  0
  8  9  1  0
  8 10  1  0
 10 11  1  0
  4 12  2  0
 12 13  1  0
 13 14  2  0
 14 15  1  0
 15 16  1  0
 16 17  1  0
 17 18  2  0
 18 19  1  0
 19 20  2  0
 20 21  1  0
 21 22  2  0
 22 23  1  0
 15 24  2  0
 24 25  1  0
 25 26  2  0
 26  2  1  0
 11  5  1  0
 25 12  1  0
 22 17  1  0
  1 27  1  0
  1 28  1  0
  1 29  1  0
  6 30  1  0
  6 31  1  0
  7 32  1  0
  7 33  1  0
  9 34  1  0
  9 35  1  0
  9 36  1  0
 10 37  1  0
 10 38  1  0
 11 39  1  0
 11 40  1  0
 13 41  1  0
 14 42  1  0
 16 43  1  0
 16 44  1  0
 18 45  1  0
 19 46  1  0
 20 47  1  0
 21 48  1  0
 24 49  1  0
 26 50  1  0
M  CHG  1  26   1
M  END
>  <UniqueID>  (31) 
30

>  <SMILES>  (31) 
Cc1nc(N2CCN(C)CC2)c2ccc(Cc3ccccc3F)cc2[nH+]1

>  <Energy>  (31) 
67.75465406486016

>  <Genealogy>  (31) 
Cc1nc(N2CCN(C)CC2)c2ccc(Cc3ccccc3F)cc2[nH+]1 (protonated)
Cc1nc(N2CCN(C)CC2)c2ccc(Cc3ccccc3F)cc2[nH+]1 (3D coordinates assigned)
Cc1nc(N2CCN(C)CC2)c2ccc(Cc3ccccc3F)cc2[nH+]1 (nonaromatic ring conformer: 67.75465406486016 kcal/mol)

>  <smiles>  (31) 
Cc1nc(N2CCN(C)CC2)c2ccc(Cc3ccccc3F)cc2n1

>  <score_type>  (31) 
oracle

>  <origin>  (31) 
adg

>  <m_score__min__energy>  (31) 
-6.71

>  <m_primary>  (31) 
energy

$$$$
31:0
     RDKit          3D

 41 44  0  0  0  0  0  0  0  0999 V2000
   58.5160   31.5320   47.6940 C   0  0  0  0  0  0  0  0  0  0  0  0
   58.6570   32.4930   46.5390 C   0  0  0  0  0  0  0  0  0  0  0  0
   59.1680   33.7710   46.8080 C   0  0  0  0  0  0  0  0  0  0  0  0
   59.3120   34.6900   45.7700 C   0  0  0  0  0  0  0  0  0  0  0  0
   59.7700   35.8380   46.0060 O   0  0  0  0  0  0  0  0  0  0  0  0
   58.9710   34.3630   44.5330 O   0  0  0  0  0  0  0  0  0  0  0  0
   58.4820   33.1700   44.2110 C   0  0  0  0  0  0  0  0  0  0  0  0
   58.1510   32.9190   42.8780 C   0  0  0  0  0  0  0  0  0  0  0  0
   57.6400   31.6820   42.4970 C   0  0  0  0  0  0  0  0  0  0  0  0
   57.4620   30.6740   43.4470 C   0  0  0  0  0  0  0  0  0  0  0  0
   57.7730   30.9100   44.8000 C   0  0  0  0  0  0  0  0  0  0  0  0
   58.2990   32.1670   45.2020 C   0  0  0  0  0  0  0  0  0  0  0  0
   57.5790   29.8670   45.7130 O   0  0  0  0  0  0  0  0  0  0  0  0
   56.9080   28.6590   45.3590 C   0  0  0  0  0  0  0  0  0  0  0  0
   57.2450   28.2530   43.9790 N   0  0  2  0  0  0  0  0  0  0  0  0
   58.6740   27.8620   43.8790 C   0  0  0  0  0  0  0  0  0  0  0  0
   59.2700   27.5270   45.2290 C   0  0  0  0  0  0  0  0  0  0  0  0
   58.9730   26.3000   45.8460 C   0  0  0  0  0  0  0  0  0  0  0  0
   59.5070   25.9940   47.1020 C   0  0  0  0  0  0  0  0  0  0  0  0
   60.3390   26.9090   47.7510 C   0  0  0  0  0  0  0  0  0  0  0  0
   60.6390   28.1330   47.1460 C   0  0  0  0  0  0  0  0  0  0  0  0
   60.1080   28.4450   45.8900 C   0  0  0  0  0  0  0  0  0  0  0  0
   60.4130   29.6380   45.3190 F   0  0  0  0  0  0  0  0  0  0  0  0
   56.8780   29.3420   43.0400 C   0  0  0  0  0  0  0  0  0  0  0  0
   58.5970   32.0838   48.6421 H   0  0  0  0  0  0  0  0  0  0  0  0
   57.5355   31.0362   47.6409 H   0  0  0  0  0  0  0  0  0  0  0  0
   59.3128   30.7755   47.6409 H   0  0  0  0  0  0  0  0  0  0  0  0
   59.4539   34.0469   47.8337 H   0  0  0  0  0  0  0  0  0  0  0  0
   58.2954   33.7056   42.1227 H   0  0  0  0  0  0  0  0  0  0  0  0
   57.3757   31.4978   41.4452 H   0  0  0  0  0  0  0  0  0  0  0  0
   57.2118   27.8617   46.0532 H   0  0  0  0  0  0  0  0  0  0  0  0
   55.8229   28.8291   45.4200 H   0  0  0  0  0  0  0  0  0  0  0  0
   56.6550   27.4190   43.7500 H   0  0  0  0  0  0  0  0  0  0  0  0
   58.7552   26.9798   43.2270 H   0  0  0  0  0  0  0  0  0  0  0  0
   59.2303   28.7167   43.4666 H   0  0  0  0  0  0  0  0  0  0  0  0
   58.3175   25.5767   45.3389 H   0  0  0  0  0  0  0  0  0  0  0  0
   59.2714   25.0314   47.5793 H   0  0  0  0  0  0  0  0  0  0  0  0
   60.7584   26.6664   48.7386 H   0  0  0  0  0  0  0  0  0  0  0  0
   61.2942   28.8525   47.6588 H   0  0  0  0  0  0  0  0  0  0  0  0
   57.2503   29.0845   42.0375 H   0  0  0  0  0  0  0  0  0  0  0  0
   55.7823   29.4388   43.0503 H   0  0  0  0  0  0  0  0  0  0  0  0
  1  2  1  0
  2  3  2  0
  3  4  1  0
  4  5  2  0
  4  6  1  0
  6  7  1  0
  7  8  2  0
  8  9  1  0
  9 10  2  0
 10 11  1  0
 11 12  2  0
 11 13  1  0
 13 14  1  0
 14 15  1  0
 15 16  1  0
 16 17  1  0
 17 18  2  0
 18 19  1  0
 19 20  2  0
 20 21  1  0
 21 22  2  0
 22 23  1  0
 15 24  1  0
 12  2  1  0
 22 17  1  0
 12  7  1  0
 24 10  1  0
  1 25  1  0
  1 26  1  0
  1 27  1  0
  3 28  1  0
  8 29  1  0
  9 30  1  0
 14 31  1  0
 14 32  1  0
 15 33  1  6
 16 34  1  0
 16 35  1  0
 18 36  1  0
 19 37  1  0
 20 38  1  0
 21 39  1  0
 24 40  1  0
 24 41  1  0
M  CHG  1  15   1
M  END
>  <UniqueID>  (32) 
31

>  <SMILES>  (32) 
Cc1cc(=O)oc2ccc3c(c12)OC[N@H+](Cc1ccccc1F)C3

>  <Energy>  (32) 
58.708141596476935

>  <Genealogy>  (32) 
Cc1cc(=O)oc2ccc3c(c12)OC[NH+](Cc1ccccc1F)C3 (protonated)
Cc1cc(=O)oc2ccc3c(c12)OC[N@H+](Cc1ccccc1F)C3 (chirality)
Cc1cc(=O)oc2ccc3c(c12)OC[N@H+](Cc1ccccc1F)C3 (3D coordinates assigned)
Cc1cc(=O)oc2ccc3c(c12)OC[N@H+](Cc1ccccc1F)C3 (nonaromatic ring conformer: 58.708141596476935 kcal/mol)

>  <smiles>  (32) 
Cc1cc(=O)oc2ccc3c(c12)OCN(Cc1ccccc1F)C3

>  <score_type>  (32) 
oracle

>  <origin>  (32) 
adg

>  <m_score__min__energy>  (32) 
-5.7800000000000002

>  <m_primary>  (32) 
energy

$$$$
32:0
     RDKit          3D

 49 51  0  0  0  0  0  0  0  0999 V2000
   60.4050   30.7280   47.0550 C   0  0  0  0  0  0  0  0  0  0  0  0
   59.6480   31.3480   48.0900 O   0  0  0  0  0  0  0  0  0  0  0  0
   59.7750   31.0410   49.4540 C   0  0  0  0  0  0  0  0  0  0  0  0
   59.8730   29.7110   49.9130 C   0  0  0  0  0  0  0  0  0  0  0  0
   59.9740   29.4410   51.2810 C   0  0  0  0  0  0  0  0  0  0  0  0
   59.9720   30.4890   52.2020 C   0  0  0  0  0  0  0  0  0  0  0  0
   59.8750   31.8090   51.7580 C   0  0  0  0  0  0  0  0  0  0  0  0
   59.7930   32.0900   50.3880 C   0  0  0  0  0  0  0  0  0  0  0  0
   59.6550   33.7990   49.8510 S   0  0  0  0  0  0  0  0  0  0  0  0
   61.1090   33.7050   48.7980 C   0  0  0  0  0  0  0  0  0  0  0  0
   62.2930   33.4110   49.4020 N   0  0  0  0  0  0  0  0  0  0  0  0
   63.4550   33.2950   48.7120 C   0  0  0  0  0  0  0  0  0  0  0  0
   63.4670   33.4900   47.3360 C   0  0  0  0  0  0  0  0  0  0  0  0
   62.2800   33.8080   46.6810 C   0  0  0  0  0  0  0  0  0  0  0  0
   61.0700   33.9190   47.3940 C   0  0  0  0  0  0  0  0  0  0  0  0
   59.8350   34.3310   46.6680 C   0  0  0  0  0  0  0  0  0  0  0  0
   59.8570   35.3270   45.8950 O   0  0  0  0  0  0  0  0  0  0  0  0
   58.6220   33.5710   46.7960 N   0  0  0  0  0  0  0  0  0  0  0  0
   57.5760   33.5850   45.7740 C   0  0  0  0  0  0  0  0  0  0  0  0
   57.8450   32.5620   44.6520 C   0  0  0  0  0  0  0  0  0  0  0  0
   57.0250   31.3280   44.6910 N   0  0  0  0  0  0  0  0  0  0  0  0
   56.5520   30.8410   43.3840 C   0  0  0  0  0  0  0  0  0  0  0  0
   55.5110   29.7170   43.5880 C   0  0  0  0  0  0  0  0  0  0  0  0
   55.5510   29.1440   44.8860 O   0  0  0  0  0  0  0  0  0  0  0  0
   56.8890   28.9160   45.2790 C   0  0  0  0  0  0  0  0  0  0  0  0
   57.6000   30.2570   45.5290 C   0  0  0  0  0  0  0  0  0  0  0  0
   61.1829   30.0909   47.5010 H   0  0  0  0  0  0  0  0  0  0  0  0
   59.7393   30.1123   46.4323 H   0  0  0  0  0  0  0  0  0  0  0  0
   60.8775   31.5020   46.4323 H   0  0  0  0  0  0  0  0  0  0  0  0
   59.8700   28.8815   49.1906 H   0  0  0  0  0  0  0  0  0  0  0  0
   60.0551   28.4015   51.6315 H   0  0  0  0  0  0  0  0  0  0  0  0
   60.0469   30.2751   53.2784 H   0  0  0  0  0  0  0  0  0  0  0  0
   59.8629   32.6324   52.4873 H   0  0  0  0  0  0  0  0  0  0  0  0
   64.3870   33.0468   49.2410 H   0  0  0  0  0  0  0  0  0  0  0  0
   64.4052   33.3941   46.7697 H   0  0  0  0  0  0  0  0  0  0  0  0
   62.2872   33.9745   45.5937 H   0  0  0  0  0  0  0  0  0  0  0  0
   58.4960   32.9370   47.6160 H   0  0  0  0  0  0  0  0  0  0  0  0
   56.6133   33.3450   46.2490 H   0  0  0  0  0  0  0  0  0  0  0  0
   57.5597   34.5872   45.3208 H   0  0  0  0  0  0  0  0  0  0  0  0
   57.6582   33.0605   43.6894 H   0  0  0  0  0  0  0  0  0  0  0  0
   58.8852   32.2328   44.7924 H   0  0  0  0  0  0  0  0  0  0  0  0
   56.0888   31.6714   42.8310 H   0  0  0  0  0  0  0  0  0  0  0  0
   57.4056   30.4456   42.8138 H   0  0  0  0  0  0  0  0  0  0  0  0
   54.5076   30.1360   43.4220 H   0  0  0  0  0  0  0  0  0  0  0  0
   55.7499   28.9175   42.8712 H   0  0  0  0  0  0  0  0  0  0  0  0
   56.9006   28.3198   46.2033 H   0  0  0  0  0  0  0  0  0  0  0  0
   57.4129   28.3734   44.4783 H   0  0  0  0  0  0  0  0  0  0  0  0
   57.4883   30.5308   46.5885 H   0  0  0  0  0  0  0  0  0  0  0  0
   58.6627   30.1427   45.2691 H   0  0  0  0  0  0  0  0  0  0  0  0
  1  2  1  0
  2  3  1  0
  3  4  2  0
  4  5  1  0
  5  6  2  0
  6  7  1  0
  7  8  2  0
  8  9  1  0
  9 10  1  0
 10 11  2  0
 11 12  1  0
 12 13  2  0
 13 14  1  0
 14 15  2  0
 15 16  1  0
 16 17  2  0
 16 18  1  0
 18 19  1  0
 19 20  1  0
 20 21  1  0
 21 22  1  0
 22 23  1  0
 23 24  1  0
 24 25  1  0
 25 26  1  0
  8  3  1  0
 15 10  1  0
 26 21  1  0
  1 27  1  0
  1 28  1  0
  1 29  1  0
  4 30  1  0
  5 31  1  0
  6 32  1  0
  7 33  1  0
 12 34  1  0
 13 35  1  0
 14 36  1  0
 18 37  1  0
 19 38  1  0
 19 39  1  0
 20 40  1  0
 20 41  1  0
 22 42  1  0
 22 43  1  0
 23 44  1  0
 23 45  1  0
 25 46  1  0
 25 47  1  0
 26 48  1  0
 26 49  1  0
M  END
>  <UniqueID>  (33) 
32

>  <SMILES>  (33) 
COc1ccccc1Sc1ncccc1C(=O)NCCN1CCOCC1

>  <Energy>  (33) 
63.36194847330842

>  <Genealogy>  (33) 
COc1ccccc1Sc1ncccc1C(=O)NCCN1CCOCC1 (3D coordinates assigned)
COc1ccccc1Sc1ncccc1C(=O)NCCN1CCOCC1 (nonaromatic ring conformer: 63.36194847330842 kcal/mol)

>  <smiles>  (33) 
COc1ccccc1Sc1ncccc1C(=O)NCCN1CCOCC1

>  <score_type>  (33) 
oracle

>  <origin>  (33) 
adg

>  <m_score__min__energy>  (33) 
-7.6500000000000004

>  <m_primary>  (33) 
energy

$$$$
33:0
     RDKit          3D

 37 39  0  0  0  0  0  0  0  0999 V2000
   58.1420   31.9870   49.9680 C   0  0  0  0  0  0  0  0  0  0  0  0
   59.1760   32.4830   49.0080 C   0  0  0  0  0  0  0  0  0  0  0  0
   60.4800   32.1470   49.1860 N   0  0  0  0  0  0  0  0  0  0  0  0
   61.4420   32.5810   48.3340 C   0  0  0  0  0  0  0  0  0  0  0  0
   62.7760   32.2180   48.5470 C   0  0  0  0  0  0  0  0  0  0  0  0
   63.7710   32.6610   47.6720 C   0  0  0  0  0  0  0  0  0  0  0  0
   63.4370   33.4700   46.5820 C   0  0  0  0  0  0  0  0  0  0  0  0
   62.1070   33.8390   46.3610 C   0  0  0  0  0  0  0  0  0  0  0  0
   61.0940   33.3970   47.2340 C   0  0  0  0  0  0  0  0  0  0  0  0
   59.7350   33.7280   47.0630 C   0  0  0  0  0  0  0  0  0  0  0  0
   59.1650   34.7530   45.6930 S   0  0  0  0  0  0  0  0  0  0  0  0
   58.5010   33.3570   44.7170 C   0  0  0  0  0  0  0  0  0  0  0  0
   57.2780   32.7590   45.3600 C   0  0  0  0  0  0  0  0  0  0  0  0
   56.6640   33.4230   46.2360 O   0  0  0  0  0  0  0  0  0  0  0  0
   56.7450   31.4910   44.9550 N   0  0  0  0  0  0  0  0  0  0  0  0
   57.4460   30.2430   44.9720 C   0  0  0  0  0  0  0  0  0  0  0  0
   58.8460   30.1980   45.0770 C   0  0  0  0  0  0  0  0  0  0  0  0
   59.5090   28.9670   45.1160 C   0  0  0  0  0  0  0  0  0  0  0  0
   58.7790   27.7760   45.0620 C   0  0  0  0  0  0  0  0  0  0  0  0
   57.3840   27.8150   44.9850 C   0  0  0  0  0  0  0  0  0  0  0  0
   56.7170   29.0440   44.9510 C   0  0  0  0  0  0  0  0  0  0  0  0
   55.3630   29.0710   44.8750 F   0  0  0  0  0  0  0  0  0  0  0  0
   58.8150   33.2710   47.9580 N   0  0  0  0  0  0  0  0  0  0  0  0
   58.4887   32.1533   50.9986 H   0  0  0  0  0  0  0  0  0  0  0  0
   57.1999   32.5312   49.8057 H   0  0  0  0  0  0  0  0  0  0  0  0
   57.9768   30.9116   49.8057 H   0  0  0  0  0  0  0  0  0  0  0  0
   63.0420   31.5828   49.4047 H   0  0  0  0  0  0  0  0  0  0  0  0
   64.8190   32.3727   47.8411 H   0  0  0  0  0  0  0  0  0  0  0  0
   64.2235   33.8174   45.8959 H   0  0  0  0  0  0  0  0  0  0  0  0
   61.8506   34.4768   45.5022 H   0  0  0  0  0  0  0  0  0  0  0  0
   58.2348   33.7189   43.7129 H   0  0  0  0  0  0  0  0  0  0  0  0
   59.2754   32.5777   44.6630 H   0  0  0  0  0  0  0  0  0  0  0  0
   59.4225   31.1334   45.1287 H   0  0  0  0  0  0  0  0  0  0  0  0
   60.6061   28.9360   45.1893 H   0  0  0  0  0  0  0  0  0  0  0  0
   59.3023   26.8086   45.0801 H   0  0  0  0  0  0  0  0  0  0  0  0
   56.8096   26.8775   44.9511 H   0  0  0  0  0  0  0  0  0  0  0  0
   57.8100   33.5280   47.8320 H   0  0  0  0  0  0  0  0  0  0  0  0
  1  2  1  0
  2  3  2  0
  3  4  1  0
  4  5  2  0
  5  6  1  0
  6  7  2  0
  7  8  1  0
  8  9  2  0
  9 10  1  0
 10 11  1  0
 11 12  1  0
 12 13  1  0
 13 14  2  0
 13 15  1  0
 15 16  1  0
 16 17  2  0
 17 18  1  0
 18 19  2  0
 19 20  1  0
 20 21  2  0
 21 22  1  0
 10 23  2  0
 23  2  1  0
  9  4  1  0
 21 16  1  0
  1 24  1  0
  1 25  1  0
  1 26  1  0
  5 27  1  0
  6 28  1  0
  7 29  1  0
  8 30  1  0
 12 31  1  0
 12 32  1  0
 17 33  1  0
 18 34  1  0
 19 35  1  0
 20 36  1  0
 23 37  1  0
M  CHG  2  15  -1  23   1
M  END
>  <UniqueID>  (34) 
33

>  <SMILES>  (34) 
Cc1nc2ccccc2c(SCC(=O)[N-]c2ccccc2F)[nH+]1

>  <Energy>  (34) 
43.14739834573999

>  <Genealogy>  (34) 
Cc1nc2ccccc2c(SCC(=O)[N-]c2ccccc2F)[nH+]1 (protonated)
Cc1nc2ccccc2c(SCC(=O)[N-]c2ccccc2F)[nH+]1 (3D coordinates assigned)
Cc1nc2ccccc2c(SCC(=O)[N-]c2ccccc2F)[nH+]1 (optimized conformer: 43.14739834573999 kcal/mol)

>  <smiles>  (34) 
Cc1nc(SCC(=O)Nc2ccccc2F)c2ccccc2n1

>  <score_type>  (34) 
oracle

>  <origin>  (34) 
adg

>  <m_score__min__energy>  (34) 
-9.0299999999999994

>  <m_primary>  (34) 
energy

$$$$
34:0
     RDKit          3D

 31 33  0  0  0  0  0  0  0  0999 V2000
   61.0660   34.2160   49.1130 C   0  0  0  0  0  0  0  0  0  0  0  0
   60.3920   34.9020   48.0640 O   0  0  0  0  0  0  0  0  0  0  0  0
   59.7840   34.2720   46.9670 C   0  0  0  0  0  0  0  0  0  0  0  0
   59.8440   34.8110   45.6540 C   0  0  0  0  0  0  0  0  0  0  0  0
   59.2210   34.1550   44.5780 C   0  0  0  0  0  0  0  0  0  0  0  0
   58.5580   32.9510   44.8310 C   0  0  0  0  0  0  0  0  0  0  0  0
   57.8380   32.0870   44.0140 C   0  0  0  0  0  0  0  0  0  0  0  0
   57.3410   31.1220   44.8740 C   0  0  0  0  0  0  0  0  0  0  0  0
   57.7450   31.3150   46.1470 N   0  0  0  0  0  0  0  0  0  0  0  0
   58.4900   32.4350   46.1080 C   0  0  0  0  0  0  0  0  0  0  0  0
   59.0910   33.0690   47.1930 C   0  0  0  0  0  0  0  0  0  0  0  0
   56.3960   30.1120   44.4120 C   0  0  0  0  0  0  0  0  0  0  0  0
   55.8480   29.3090   45.2140 O   0  0  0  0  0  0  0  0  0  0  0  0
   56.0750   30.0920   43.0180 N   0  0  0  0  0  0  0  0  0  0  0  0
   56.9380   30.7830   42.0520 C   0  0  0  0  0  0  0  0  0  0  0  0
   57.3910   32.1820   42.5630 C   0  0  2  0  0  0  0  0  0  0  0  0
   58.4850   32.7330   41.6360 C   0  0  0  0  0  0  0  0  0  0  0  0
   60.7039   34.5846   50.0841 H   0  0  0  0  0  0  0  0  0  0  0  0
   60.8669   33.1371   49.0329 H   0  0  0  0  0  0  0  0  0  0  0  0
   62.1482   34.3961   49.0329 H   0  0  0  0  0  0  0  0  0  0  0  0
   60.3843   35.7527   45.4772 H   0  0  0  0  0  0  0  0  0  0  0  0
   59.2545   34.5783   43.5633 H   0  0  0  0  0  0  0  0  0  0  0  0
   57.4930   30.7500   46.9880 H   0  0  0  0  0  0  0  0  0  0  0  0
   59.0252   32.6388   48.2032 H   0  0  0  0  0  0  0  0  0  0  0  0
   55.2880   29.4980   42.6740 H   0  0  0  0  0  0  0  0  0  0  0  0
   57.8305   30.1664   41.8700 H   0  0  0  0  0  0  0  0  0  0  0  0
   56.3591   30.9322   41.1286 H   0  0  0  0  0  0  0  0  0  0  0  0
   56.5500   32.8906   42.5370 H   0  0  0  0  0  0  0  0  0  0  0  0
   59.3051   33.1460   42.2417 H   0  0  0  0  0  0  0  0  0  0  0  0
   58.8707   31.9216   41.0012 H   0  0  0  0  0  0  0  0  0  0  0  0
   58.0626   33.5259   41.0012 H   0  0  0  0  0  0  0  0  0  0  0  0
  1  2  1  0
  2  3  1  0
  3  4  2  0
  4  5  1  0
  5  6  2  0
  6  7  1  0
  7  8  2  0
  8  9  1  0
  9 10  1  0
 10 11  2  0
  8 12  1  0
 12 13  2  0
 12 14  1  0
 14 15  1  0
 15 16  1  0
 16 17  1  0
 11  3  1  0
 10  6  1  0
 16  7  1  0
  1 18  1  0
  1 19  1  0
  1 20  1  0
  4 21  1  0
  5 22  1  0
  9 23  1  0
 11 24  1  0
 14 25  1  0
 15 26  1  0
 15 27  1  0
 16 28  1  1
 17 29  1  0
 17 30  1  0
 17 31  1  0
M  END
>  <UniqueID>  (35) 
34

>  <SMILES>  (35) 
COc1ccc2c3c([nH]c2c1)C(=O)NC[C@@H]3C

>  <Energy>  (35) 
68.99576078666496

>  <Genealogy>  (35) 
COc1ccc2c3c([nH]c2c1)C(=O)NC[C@@H]3C (chirality)
COc1ccc2c3c([nH]c2c1)C(=O)NC[C@@H]3C (3D coordinates assigned)
COc1ccc2c3c([nH]c2c1)C(=O)NC[C@@H]3C (nonaromatic ring conformer: 68.99576078666496 kcal/mol)

>  <smiles>  (35) 
COc1ccc2c3c([nH]c2c1)C(=O)NCC3C

>  <score_type>  (35) 
oracle

>  <origin>  (35) 
adg

>  <m_score__min__energy>  (35) 
-6.3399999999999999

>  <m_primary>  (35) 
energy

$$$$
35:0
     RDKit          3D

 60 63  0  0  0  0  0  0  0  0999 V2000
   62.0240   31.8270   47.4960 C   0  0  0  0  0  0  0  0  0  0  0  0
   62.0560   33.2750   47.2450 N   0  0  0  0  0  0  0  0  0  0  0  0
   63.3860   33.7080   46.7840 C   0  0  0  0  0  0  0  0  0  0  0  0
   61.5400   34.0810   48.3760 C   0  0  0  0  0  0  0  0  0  0  0  0
   60.0350   33.8920   48.6800 C   0  0  0  0  0  0  0  0  0  0  0  0
   59.1840   34.4040   47.6000 N   0  0  0  0  0  0  0  0  0  0  0  0
   58.6680   33.5760   46.5420 C   0  0  0  0  0  0  0  0  0  0  0  0
   58.2850   34.1720   45.3300 C   0  0  0  0  0  0  0  0  0  0  0  0
   57.7880   33.3990   44.2780 C   0  0  0  0  0  0  0  0  0  0  0  0
   57.6640   32.0110   44.4190 C   0  0  0  0  0  0  0  0  0  0  0  0
   57.1800   31.2250   43.3630 C   0  0  0  0  0  0  0  0  0  0  0  0
   57.0760   29.8380   43.5100 C   0  0  0  0  0  0  0  0  0  0  0  0
   57.4390   29.2210   44.7160 C   0  0  0  0  0  0  0  0  0  0  0  0
   57.3900   27.7200   44.8460 C   0  0  0  0  0  0  0  0  0  0  0  0
   56.8020   27.3020   46.2000 C   0  0  2  0  0  0  0  0  0  0  0  0
   57.7940   26.5220   46.9540 C   0  0  0  0  0  0  0  0  0  0  0  0
   58.5760   25.9090   47.5470 N   0  0  0  0  0  0  0  0  0  0  0  0
   55.6030   26.4980   45.9900 N   0  0  0  0  0  0  0  0  0  0  0  0
   55.5790   25.0660   45.9940 C   0  0  0  0  0  0  0  0  0  0  0  0
   55.4580   24.4410   47.0820 O   0  0  0  0  0  0  0  0  0  0  0  0
   55.5720   24.3150   44.6830 C   0  0  2  0  0  0  0  0  0  0  0  0
   55.2420   22.8800   44.8170 N   0  0  0  0  0  0  0  0  0  0  0  0
   56.3280   22.2150   44.0720 C   0  0  2  0  0  0  0  0  0  0  0  0
   57.6190   22.2470   44.9120 C   0  0  0  0  0  0  0  0  0  0  0  0
   58.0280   23.7220   44.8120 C   0  0  0  0  0  0  0  0  0  0  0  0
   56.9170   24.3210   43.9230 C   0  0  1  0  0  0  0  0  0  0  0  0
   56.6640   23.1870   42.9650 C   0  0  0  0  0  0  0  0  0  0  0  0
   57.9230   30.0060   45.7770 C   0  0  0  0  0  0  0  0  0  0  0  0
   58.0400   31.3970   45.6360 C   0  0  0  0  0  0  0  0  0  0  0  0
   58.5360   32.1800   46.6890 C   0  0  0  0  0  0  0  0  0  0  0  0
   62.0199   31.6429   48.5805 H   0  0  0  0  0  0  0  0  0  0  0  0
   61.1161   31.3971   47.0477 H   0  0  0  0  0  0  0  0  0  0  0  0
   62.9120   31.3574   47.0477 H   0  0  0  0  0  0  0  0  0  0  0  0
   64.0258   33.9163   47.6542 H   0  0  0  0  0  0  0  0  0  0  0  0
   63.8408   32.9115   46.1767 H   0  0  0  0  0  0  0  0  0  0  0  0
   63.2848   34.6196   46.1767 H   0  0  0  0  0  0  0  0  0  0  0  0
   62.1074   33.8066   49.2775 H   0  0  0  0  0  0  0  0  0  0  0  0
   61.6651   35.1345   48.0853 H   0  0  0  0  0  0  0  0  0  0  0  0
   59.8322   32.8190   48.8127 H   0  0  0  0  0  0  0  0  0  0  0  0
   59.8006   34.4590   49.5930 H   0  0  0  0  0  0  0  0  0  0  0  0
   58.9340   35.4190   47.5900 H   0  0  0  0  0  0  0  0  0  0  0  0
   58.3774   35.2612   45.2072 H   0  0  0  0  0  0  0  0  0  0  0  0
   57.4928   33.8823   43.3350 H   0  0  0  0  0  0  0  0  0  0  0  0
   56.8815   31.7005   42.4170 H   0  0  0  0  0  0  0  0  0  0  0  0
   56.7067   29.2265   42.6735 H   0  0  0  0  0  0  0  0  0  0  0  0
   56.7635   27.3098   44.0402 H   0  0  0  0  0  0  0  0  0  0  0  0
   58.4159   27.3294   44.7749 H   0  0  0  0  0  0  0  0  0  0  0  0
   56.5388   28.2038   46.7723 H   0  0  0  0  0  0  0  0  0  0  0  0
   54.8000   24.8710   44.1308 H   0  0  0  0  0  0  0  0  0  0  0  0
   55.2470   22.5590   45.8140 H   0  0  0  0  0  0  0  0  0  0  0  0
   56.0316   21.1962   43.7817 H   0  0  0  0  0  0  0  0  0  0  0  0
   57.4246   21.9559   45.9548 H   0  0  0  0  0  0  0  0  0  0  0  0
   58.3928   21.5475   44.5628 H   0  0  0  0  0  0  0  0  0  0  0  0
   58.0427   24.1979   45.8036 H   0  0  0  0  0  0  0  0  0  0  0  0
   59.0396   23.8685   44.4056 H   0  0  0  0  0  0  0  0  0  0  0  0
   57.1945   25.3170   43.5475 H   0  0  0  0  0  0  0  0  0  0  0  0
   55.8247   23.3743   42.2790 H   0  0  0  0  0  0  0  0  0  0  0  0
   57.4520   22.9171   42.2466 H   0  0  0  0  0  0  0  0  0  0  0  0
   58.2119   29.5266   46.7239 H   0  0  0  0  0  0  0  0  0  0  0  0
   58.8241   31.7012   47.6365 H   0  0  0  0  0  0  0  0  0  0  0  0
  1  2  1  0
  2  3  1  0
  2  4  1  0
  4  5  1  0
  5  6  1  0
  6  7  1  0
  7  8  2  0
  8  9  1  0
  9 10  2  0
 10 11  1  0
 11 12  2  0
 12 13  1  0
 13 14  1  0
 14 15  1  0
 15 16  1  0
 16 17  3  0
 15 18  1  0
 18 19  1  0
 19 20  2  0
 19 21  1  0
 21 22  1  0
 22 23  1  0
 23 24  1  0
 24 25  1  0
 25 26  1  0
 26 27  1  0
 13 28  2  0
 28 29  1  0
 29 30  2  0
 30  7  1  0
 29 10  1  0
 26 21  1  0
 27 23  1  0
  1 31  1  0
  1 32  1  0
  1 33  1  0
  3 34  1  0
  3 35  1  0
  3 36  1  0
  4 37  1  0
  4 38  1  0
  5 39  1  0
  5 40  1  0
  6 41  1  0
  8 42  1  0
  9 43  1  0
 11 44  1  0
 12 45  1  0
 14 46  1  0
 14 47  1  0
 15 48  1  1
 21 49  1  6
 22 50  1  0
 23 51  1  6
 24 52  1  0
 24 53  1  0
 25 54  1  0
 25 55  1  0
 26 56  1  6
 27 57  1  0
 27 58  1  0
 28 59  1  0
 30 60  1  0
M  CHG  1  18  -1
M  END
>  <UniqueID>  (36) 
35

>  <SMILES>  (36) 
CN(C)CCNc1ccc2ccc(C[C@H](C#N)[N-]C(=O)[C@@H]3NC4CCC3C4)cc2c1

>  <Energy>  (36) 
90.09137761791601

>  <Genealogy>  (36) 
CN(C)CCNc1ccc2ccc(CC(C#N)[N-]C(=O)C3NC4CCC3C4)cc2c1 (protonated)
CN(C)CCNc1ccc2ccc(C[C@H](C#N)[N-]C(=O)[C@@H]3NC4CCC3C4)cc2c1 (chirality)
CN(C)CCNc1ccc2ccc(C[C@H](C#N)[N-]C(=O)[C@@H]3NC4CCC3C4)cc2c1 (3D coordinates assigned)
CN(C)CCNc1ccc2ccc(C[C@H](C#N)[N-]C(=O)[C@@H]3NC4CCC3C4)cc2c1 (nonaromatic ring conformer: 90.09137761791601 kcal/mol)

>  <smiles>  (36) 
CN(C)CCNc1ccc2ccc(CC(C#N)NC(=O)C3NC4CCC3C4)cc2c1

>  <score_type>  (36) 
oracle

>  <origin>  (36) 
adg

>  <m_score__min__energy>  (36) 
-11.859999999999999

>  <m_primary>  (36) 
energy

$$$$
36:0
     RDKit          3D

 32 35  0  0  0  0  0  0  0  0999 V2000
   54.7420   28.9670   45.2440 H   0  0  0  0  0  0  0  0  0  0  0  0
   55.7040   29.0690   44.8570 N   0  0  0  0  0  0  0  0  0  0  0  0
   56.8090   28.8390   45.5070 C   0  0  0  0  0  0  0  0  0  0  0  0
   57.8080   29.8400   45.6560 C   0  0  0  0  0  0  0  0  0  0  0  0
   59.0360   29.4880   46.2620 C   0  0  0  0  0  0  0  0  0  0  0  0
   59.2280   28.2280   46.7450 N   0  0  0  0  0  0  0  0  0  0  0  0
   60.1490   27.9870   47.1780 H   0  0  0  0  0  0  0  0  0  0  0  0
   58.2610   27.2730   46.6770 C   0  0  0  0  0  0  0  0  0  0  0  0
   58.4910   25.9950   47.2090 C   0  0  0  0  0  0  0  0  0  0  0  0
   59.4490   25.7637   47.6976 H   0  0  0  0  0  0  0  0  0  0  0  0
   57.4990   25.0200   47.1150 C   0  0  0  0  0  0  0  0  0  0  0  0
   57.6724   24.0178   47.5339 H   0  0  0  0  0  0  0  0  0  0  0  0
   56.3190   25.3060   46.5070 N   0  0  0  0  0  0  0  0  0  0  0  0
   56.0630   26.5310   45.9780 C   0  0  0  0  0  0  0  0  0  0  0  0
   55.0961   26.7249   45.4907 H   0  0  0  0  0  0  0  0  0  0  0  0
   57.0300   27.5560   46.0500 C   0  0  0  0  0  0  0  0  0  0  0  0
   60.1910   30.4580   46.2910 C   0  0  0  0  0  0  0  0  0  0  0  0
   60.8036   30.2499   47.1806 H   0  0  0  0  0  0  0  0  0  0  0  0
   60.7645   30.3211   45.3624 H   0  0  0  0  0  0  0  0  0  0  0  0
   59.7410   31.8910   46.3410 C   0  0  0  0  0  0  0  0  0  0  0  0
   60.5910   32.8690   46.8810 C   0  0  0  0  0  0  0  0  0  0  0  0
   61.5601   32.5749   47.3104 H   0  0  0  0  0  0  0  0  0  0  0  0
   60.2130   34.2130   46.8760 C   0  0  0  0  0  0  0  0  0  0  0  0
   60.8777   34.9724   47.3136 H   0  0  0  0  0  0  0  0  0  0  0  0
   58.9920   34.5940   46.3160 C   0  0  0  0  0  0  0  0  0  0  0  0
   58.6953   35.6532   46.3125 H   0  0  0  0  0  0  0  0  0  0  0  0
   58.1470   33.6300   45.7600 C   0  0  0  0  0  0  0  0  0  0  0  0
   57.1922   33.9355   45.3072 H   0  0  0  0  0  0  0  0  0  0  0  0
   58.5100   32.2720   45.7760 C   0  0  0  0  0  0  0  0  0  0  0  0
   57.5990   31.2530   45.1380 C   0  0  0  0  0  0  0  0  0  0  0  0
   56.5573   31.5455   45.3365 H   0  0  0  0  0  0  0  0  0  0  0  0
   57.8328   31.2400   44.0632 H   0  0  0  0  0  0  0  0  0  0  0  0
  1  2  1  0
  2  3  2  0
  3  4  1  0
  4  5  2  0
  5  6  1  0
  6  7  1  0
  6  8  1  0
  8  9  2  0
  9 10  1  0
  9 11  1  0
 11 12  1  0
 11 13  2  0
 13 14  1  0
 14 15  1  0
 14 16  2  0
  5 17  1  0
 17 18  1  0
 17 19  1  0
 17 20  1  0
 20 21  2  0
 21 22  1  0
 21 23  1  0
 23 24  1  0
 23 25  2  0
 25 26  1  0
 25 27  1  0
 27 28  1  0
 27 29  2  0
 29 30  1  0
 30 31  1  0
 30 32  1  0
 16  3  1  0
 29 20  1  0
 30  4  1  0
 16  8  1  0
M  END
>  <UniqueID>  (37) 
36

>  <SMILES>  (37) 
[H]/N=c1\c2c([nH]c3ccncc13)Cc1ccccc1C2

>  <Energy>  (37) 
50.67603151827945

>  <Genealogy>  (37) 
[H]/N=c1\c2c([nH]c3ccncc13)Cc1ccccc1C2 (cis-trans isomerization)
[H]/N=c1\c2c([nH]c3ccncc13)Cc1ccccc1C2 (3D coordinates assigned)
[H]/N=c1\c2c([nH]c3ccncc13)Cc1ccccc1C2 (nonaromatic ring conformer: 50.67603151827945 kcal/mol)

>  <smiles>  (37) 
N=c1c2c([nH]c3ccncc13)Cc1ccccc1C2

>  <score_type>  (37) 
oracle

>  <origin>  (37) 
adg

>  <m_score__min__energy>  (37) 
-7.25

>  <m_primary>  (37) 
energy

$$$$
37:0
     RDKit          3D

 50 53  0  0  0  0  0  0  0  0999 V2000
   54.0740   25.0300   45.6230 C   0  0  0  0  0  0  0  0  0  0  0  0
   54.7840   26.2170   45.9540 O   0  0  0  0  0  0  0  0  0  0  0  0
   56.1830   26.3430   45.9350 C   0  0  0  0  0  0  0  0  0  0  0  0
   57.0270   25.2690   46.2840 C   0  0  0  0  0  0  0  0  0  0  0  0
   58.4150   25.4110   46.2260 C   0  0  0  0  0  0  0  0  0  0  0  0
   58.9790   26.6160   45.8070 C   0  0  0  0  0  0  0  0  0  0  0  0
   58.1550   27.6860   45.4570 C   0  0  0  0  0  0  0  0  0  0  0  0
   56.7610   27.5730   45.5490 C   0  0  0  0  0  0  0  0  0  0  0  0
   55.9630   28.7230   45.2380 N   0  0  0  0  0  0  0  0  0  0  0  0
   56.3460   29.7850   44.3560 C   0  0  0  0  0  0  0  0  0  0  0  0
   55.5490   30.1390   43.4470 O   0  0  0  0  0  0  0  0  0  0  0  0
   57.7440   30.3540   44.3710 C   0  0  0  0  0  0  0  0  0  0  0  0
   58.0550   31.0060   45.6460 N   0  0  0  0  0  0  0  0  0  0  0  0
   58.1530   30.3890   46.8480 C   0  0  0  0  0  0  0  0  0  0  0  0
   58.5470   31.2910   47.8300 C   0  0  0  0  0  0  0  0  0  0  0  0
   58.6890   32.5010   47.1810 C   0  0  0  0  0  0  0  0  0  0  0  0
   59.1100   33.7400   47.6660 C   0  0  0  0  0  0  0  0  0  0  0  0
   59.4320   33.8760   49.0250 O   0  0  0  0  0  0  0  0  0  0  0  0
   60.5860   33.3190   49.6560 C   0  0  0  0  0  0  0  0  0  0  0  0
   61.6920   33.1110   48.6550 C   0  0  0  0  0  0  0  0  0  0  0  0
   61.9000   31.8510   48.0710 C   0  0  0  0  0  0  0  0  0  0  0  0
   62.9330   31.6650   47.1460 C   0  0  0  0  0  0  0  0  0  0  0  0
   63.7710   32.7330   46.8070 C   0  0  0  0  0  0  0  0  0  0  0  0
   63.5780   33.9850   47.3940 C   0  0  0  0  0  0  0  0  0  0  0  0
   62.5460   34.1740   48.3180 C   0  0  0  0  0  0  0  0  0  0  0  0
   59.1960   34.8050   46.7360 C   0  0  0  0  0  0  0  0  0  0  0  0
   58.8620   34.6020   45.3800 C   0  0  0  0  0  0  0  0  0  0  0  0
   58.4450   33.3380   44.9290 C   0  0  0  0  0  0  0  0  0  0  0  0
   58.3720   32.3000   45.8610 C   0  0  0  0  0  0  0  0  0  0  0  0
   53.7671   24.5168   46.5463 H   0  0  0  0  0  0  0  0  0  0  0  0
   53.1821   25.2886   45.0334 H   0  0  0  0  0  0  0  0  0  0  0  0
   54.7237   24.3665   45.0334 H   0  0  0  0  0  0  0  0  0  0  0  0
   56.5890   24.3122   46.6043 H   0  0  0  0  0  0  0  0  0  0  0  0
   59.0650   24.5707   46.5114 H   0  0  0  0  0  0  0  0  0  0  0  0
   60.0725   26.7225   45.7526 H   0  0  0  0  0  0  0  0  0  0  0  0
   58.6035   28.6270   45.1056 H   0  0  0  0  0  0  0  0  0  0  0  0
   58.4621   29.5375   44.2047 H   0  0  0  0  0  0  0  0  0  0  0  0
   57.8126   31.1107   43.5755 H   0  0  0  0  0  0  0  0  0  0  0  0
   57.9491   29.3223   47.0229 H   0  0  0  0  0  0  0  0  0  0  0  0
   58.7109   31.0842   48.8979 H   0  0  0  0  0  0  0  0  0  0  0  0
   60.9345   34.0054   50.4418 H   0  0  0  0  0  0  0  0  0  0  0  0
   60.3157   32.3458   50.0916 H   0  0  0  0  0  0  0  0  0  0  0  0
   61.2484   31.0072   48.3418 H   0  0  0  0  0  0  0  0  0  0  0  0
   63.0865   30.6782   46.6848 H   0  0  0  0  0  0  0  0  0  0  0  0
   64.5817   32.5862   46.0782 H   0  0  0  0  0  0  0  0  0  0  0  0
   64.2387   34.8237   47.1292 H   0  0  0  0  0  0  0  0  0  0  0  0
   62.4021   35.1602   48.7835 H   0  0  0  0  0  0  0  0  0  0  0  0
   59.5259   35.7986   47.0736 H   0  0  0  0  0  0  0  0  0  0  0  0
   58.9286   35.4398   44.6704 H   0  0  0  0  0  0  0  0  0  0  0  0
   58.1839   33.1710   43.8736 H   0  0  0  0  0  0  0  0  0  0  0  0
  1  2  1  0
  2  3  1  0
  3  4  2  0
  4  5  1  0
  5  6  2  0
  6  7  1  0
  7  8  2  0
  8  9  1  0
  9 10  1  0
 10 11  2  0
 10 12  1  0
 12 13  1  0
 13 14  1  0
 14 15  2  0
 15 16  1  0
 16 17  2  0
 17 18  1  0
 18 19  1  0
 19 20  1  0
 20 21  2  0
 21 22  1  0
 22 23  2  0
 23 24  1  0
 24 25  2  0
 17 26  1  0
 26 27  2  0
 27 28  1  0
 28 29  2  0
  8  3  1  0
 29 13  1  0
 29 16  1  0
 25 20  1  0
  1 30  1  0
  1 31  1  0
  1 32  1  0
  4 33  1  0
  5 34  1  0
  6 35  1  0
  7 36  1  0
 12 37  1  0
 12 38  1  0
 14 39  1  0
 15 40  1  0
 19 41  1  0
 19 42  1  0
 21 43  1  0
 22 44  1  0
 23 45  1  0
 24 46  1  0
 25 47  1  0
 26 48  1  0
 27 49  1  0
 28 50  1  0
M  CHG  1   9  -1
M  END
>  <UniqueID>  (38) 
37

>  <SMILES>  (38) 
COc1ccccc1[N-]C(=O)Cn1ccc2c(OCc3ccccc3)cccc21

>  <Energy>  (38) 
91.29324130658762

>  <Genealogy>  (38) 
COc1ccccc1[N-]C(=O)Cn1ccc2c(OCc3ccccc3)cccc21 (protonated)
COc1ccccc1[N-]C(=O)Cn1ccc2c(OCc3ccccc3)cccc21 (3D coordinates assigned)
COc1ccccc1[N-]C(=O)Cn1ccc2c(OCc3ccccc3)cccc21 (optimized conformer: 91.29324130658762 kcal/mol)

>  <smiles>  (38) 
COc1ccccc1NC(=O)Cn1ccc2c(OCc3ccccc3)cccc21

>  <score_type>  (38) 
oracle

>  <origin>  (38) 
adg

>  <m_score__min__energy>  (38) 
-11.57

>  <m_primary>  (38) 
energy

$$$$
38:0
     RDKit          3D

 45 47  0  0  0  0  0  0  0  0999 V2000
   58.9640   31.2260   49.2900 C   0  0  0  0  0  0  0  0  0  0  0  0
   58.8320   29.9100   49.1180 C   0  0  0  0  0  0  0  0  0  0  0  0
   60.0180   29.0490   48.7910 C   0  0  0  0  0  0  0  0  0  0  0  0
   60.2300   28.9930   47.3420 N   0  0  0  0  0  0  0  0  0  0  0  0
   59.9450   27.9650   46.5150 C   0  0  0  0  0  0  0  0  0  0  0  0
   59.1590   26.4250   47.0070 S   0  0  0  0  0  0  0  0  0  0  0  0
   58.0020   26.3540   45.5960 C   0  0  0  0  0  0  0  0  0  0  0  0
   56.5960   26.5890   46.0440 C   0  0  0  0  0  0  0  0  0  0  0  0
   56.0120   25.7190   46.7450 O   0  0  0  0  0  0  0  0  0  0  0  0
   55.9000   27.7560   45.5880 N   0  0  0  0  0  0  0  0  0  0  0  0
   56.4850   28.9800   45.1230 C   0  0  0  0  0  0  0  0  0  0  0  0
   57.3960   29.6430   45.9540 C   0  0  0  0  0  0  0  0  0  0  0  0
   57.9770   30.8490   45.5500 C   0  0  0  0  0  0  0  0  0  0  0  0
   57.6360   31.4120   44.3150 C   0  0  0  0  0  0  0  0  0  0  0  0
   58.3890   32.9550   43.7930 S   0  0  0  0  0  0  0  0  0  0  0  0
   58.1620   33.7720   45.4050 C   0  0  0  0  0  0  0  0  0  0  0  0
   56.8280   34.0770   45.5950 F   0  0  0  0  0  0  0  0  0  0  0  0
   58.9010   34.9390   45.4290 F   0  0  0  0  0  0  0  0  0  0  0  0
   56.7140   30.7640   43.4870 C   0  0  0  0  0  0  0  0  0  0  0  0
   56.1320   29.5580   43.8900 C   0  0  0  0  0  0  0  0  0  0  0  0
   60.3910   28.1940   45.2670 N   0  0  0  0  0  0  0  0  0  0  0  0
   60.9630   29.3880   45.2750 N   0  0  0  0  0  0  0  0  0  0  0  0
   60.8550   29.8760   46.5260 C   0  0  0  0  0  0  0  0  0  0  0  0
   61.4420   31.1700   46.9220 C   0  0  0  0  0  0  0  0  0  0  0  0
   62.7170   31.2600   47.5030 C   0  0  0  0  0  0  0  0  0  0  0  0
   63.2120   32.5100   47.8800 C   0  0  0  0  0  0  0  0  0  0  0  0
   62.4340   33.6530   47.6930 C   0  0  0  0  0  0  0  0  0  0  0  0
   61.1590   33.5250   47.1390 C   0  0  0  0  0  0  0  0  0  0  0  0
   60.6950   32.3000   46.7740 N   0  0  0  0  0  0  0  0  0  0  0  0
   58.0835   31.8405   49.5291 H   0  0  0  0  0  0  0  0  0  0  0  0
   59.9533   31.6969   49.1927 H   0  0  0  0  0  0  0  0  0  0  0  0
   57.8386   29.4481   49.2173 H   0  0  0  0  0  0  0  0  0  0  0  0
   60.9137   29.4695   49.2716 H   0  0  0  0  0  0  0  0  0  0  0  0
   59.8303   28.0306   49.1619 H   0  0  0  0  0  0  0  0  0  0  0  0
   58.2800   27.1263   44.8636 H   0  0  0  0  0  0  0  0  0  0  0  0
   58.0628   25.3535   45.1429 H   0  0  0  0  0  0  0  0  0  0  0  0
   57.6566   29.2120   46.9319 H   0  0  0  0  0  0  0  0  0  0  0  0
   58.7026   31.3556   46.2034 H   0  0  0  0  0  0  0  0  0  0  0  0
   58.4974   33.0958   46.2052 H   0  0  0  0  0  0  0  0  0  0  0  0
   56.4456   31.2044   42.5154 H   0  0  0  0  0  0  0  0  0  0  0  0
   55.3963   29.0601   43.2413 H   0  0  0  0  0  0  0  0  0  0  0  0
   63.3206   30.3538   47.6598 H   0  0  0  0  0  0  0  0  0  0  0  0
   64.2148   32.5936   48.3242 H   0  0  0  0  0  0  0  0  0  0  0  0
   62.8204   34.6425   47.9785 H   0  0  0  0  0  0  0  0  0  0  0  0
   60.5292   34.4157   46.9976 H   0  0  0  0  0  0  0  0  0  0  0  0
  1  2  2  0
  2  3  1  0
  3  4  1  0
  4  5  1  0
  5  6  1  0
  6  7  1  0
  7  8  1  0
  8  9  2  0
  8 10  1  0
 10 11  1  0
 11 12  2  0
 12 13  1  0
 13 14  2  0
 14 15  1  0
 15 16  1  0
 16 17  1  0
 16 18  1  0
 14 19  1  0
 19 20  2  0
  5 21  2  0
 21 22  1  0
 22 23  2  0
 23 24  1  0
 24 25  2  0
 25 26  1  0
 26 27  2  0
 27 28  1  0
 28 29  2  0
 23  4  1  0
 29 24  1  0
 20 11  1  0
  1 30  1  0
  1 31  1  0
  2 32  1  0
  3 33  1  0
  3 34  1  0
  7 35  1  0
  7 36  1  0
 12 37  1  0
 13 38  1  0
 16 39  1  0
 19 40  1  0
 20 41  1  0
 25 42  1  0
 26 43  1  0
 27 44  1  0
 28 45  1  0
M  CHG  1  10  -1
M  END
>  <UniqueID>  (39) 
38

>  <SMILES>  (39) 
C=CCn1c(SCC(=O)[N-]c2ccc(SC(F)F)cc2)nnc1-c1ccccn1

>  <Energy>  (39) 
77.59478989768616

>  <Genealogy>  (39) 
C=CCn1c(SCC(=O)[N-]c2ccc(SC(F)F)cc2)nnc1-c1ccccn1 (protonated)
C=CCn1c(SCC(=O)[N-]c2ccc(SC(F)F)cc2)nnc1-c1ccccn1 (3D coordinates assigned)
C=CCn1c(SCC(=O)[N-]c2ccc(SC(F)F)cc2)nnc1-c1ccccn1 (optimized conformer: 77.59478989768616 kcal/mol)

>  <smiles>  (39) 
C=CCn1c(SCC(=O)Nc2ccc(SC(F)F)cc2)nnc1-c1ccccn1

>  <score_type>  (39) 
oracle

>  <origin>  (39) 
adg

>  <m_score__min__energy>  (39) 
-9.4700000000000006

>  <m_primary>  (39) 
energy

$$$$
39:0
     RDKit          3D

 41 42  0  0  0  0  0  0  0  0999 V2000
   57.1020   26.7210   46.1300 C   0  0  0  0  0  0  0  0  0  0  0  0
   57.0350   28.1330   46.3050 O   0  0  0  0  0  0  0  0  0  0  0  0
   57.1870   29.0740   45.2740 C   0  0  0  0  0  0  0  0  0  0  0  0
   56.1130   29.4260   44.4340 C   0  0  0  0  0  0  0  0  0  0  0  0
   56.2790   30.3860   43.4340 C   0  0  0  0  0  0  0  0  0  0  0  0
   57.5120   31.0130   43.2640 C   0  0  0  0  0  0  0  0  0  0  0  0
   57.7310   32.3390   41.9070 Br  0  0  0  0  0  0  0  0  0  0  0  0
   58.5870   30.6730   44.0870 C   0  0  0  0  0  0  0  0  0  0  0  0
   58.4470   29.6890   45.0820 C   0  0  0  0  0  0  0  0  0  0  0  0
   59.6380   29.3330   45.9590 C   0  0  0  0  0  0  0  0  0  0  0  0
   59.3820   29.4360   47.4220 N   0  0  1  0  0  0  0  0  0  0  0  0
   60.0550   28.3530   48.1650 C   0  0  0  0  0  0  0  0  0  0  0  0
   59.7370   30.7520   48.0140 C   0  0  0  0  0  0  0  0  0  0  0  0
   58.5480   31.7330   48.1100 C   0  0  0  0  0  0  0  0  0  0  0  0
   58.5580   32.7550   47.0020 C   0  0  0  0  0  0  0  0  0  0  0  0
   59.7610   33.3710   46.6130 C   0  0  0  0  0  0  0  0  0  0  0  0
   59.7690   34.3010   45.5680 C   0  0  0  0  0  0  0  0  0  0  0  0
   58.5820   34.6210   44.9050 C   0  0  0  0  0  0  0  0  0  0  0  0
   57.3830   34.0100   45.2840 C   0  0  0  0  0  0  0  0  0  0  0  0
   57.3700   33.0790   46.3270 C   0  0  0  0  0  0  0  0  0  0  0  0
   57.1253   26.2303   47.1142 H   0  0  0  0  0  0  0  0  0  0  0  0
   56.2191   26.3786   45.5703 H   0  0  0  0  0  0  0  0  0  0  0  0
   58.0134   26.4637   45.5703 H   0  0  0  0  0  0  0  0  0  0  0  0
   55.1349   28.9405   44.5669 H   0  0  0  0  0  0  0  0  0  0  0  0
   55.4350   30.6480   42.7790 H   0  0  0  0  0  0  0  0  0  0  0  0
   59.5542   31.1803   43.9559 H   0  0  0  0  0  0  0  0  0  0  0  0
   59.9325   28.2973   45.7341 H   0  0  0  0  0  0  0  0  0  0  0  0
   60.4259   30.0650   45.7277 H   0  0  0  0  0  0  0  0  0  0  0  0
   58.3580   29.2790   47.5630 H   0  0  0  0  0  0  0  0  0  0  0  0
   59.9466   28.5274   49.2457 H   0  0  0  0  0  0  0  0  0  0  0  0
   59.5972   27.3881   47.9016 H   0  0  0  0  0  0  0  0  0  0  0  0
   61.1229   28.3362   47.9016 H   0  0  0  0  0  0  0  0  0  0  0  0
   60.1291   30.5820   49.0276 H   0  0  0  0  0  0  0  0  0  0  0  0
   60.4802   31.2134   47.3472 H   0  0  0  0  0  0  0  0  0  0  0  0
   57.6110   31.1596   48.0537 H   0  0  0  0  0  0  0  0  0  0  0  0
   58.6328   32.2718   49.0653 H   0  0  0  0  0  0  0  0  0  0  0  0
   60.6981   33.1208   47.1318 H   0  0  0  0  0  0  0  0  0  0  0  0
   60.7120   34.7812   45.2678 H   0  0  0  0  0  0  0  0  0  0  0  0
   58.5906   35.3538   44.0846 H   0  0  0  0  0  0  0  0  0  0  0  0
   56.4487   34.2620   44.7610 H   0  0  0  0  0  0  0  0  0  0  0  0
   56.4250   32.5982   46.6201 H   0  0  0  0  0  0  0  0  0  0  0  0
  1  2  1  0
  2  3  1  0
  3  4  2  0
  4  5  1  0
  5  6  2  0
  6  7  1  0
  6  8  1  0
  8  9  2  0
  9 10  1  0
 10 11  1  0
 11 12  1  0
 11 13  1  0
 13 14  1  0
 14 15  1  0
 15 16  2  0
 16 17  1  0
 17 18  2  0
 18 19  1  0
 19 20  2  0
  9  3  1  0
 20 15  1  0
  1 21  1  0
  1 22  1  0
  1 23  1  0
  4 24  1  0
  5 25  1  0
  8 26  1  0
 10 27  1  0
 10 28  1  0
 11 29  1  6
 12 30  1  0
 12 31  1  0
 12 32  1  0
 13 33  1  0
 13 34  1  0
 14 35  1  0
 14 36  1  0
 16 37  1  0
 17 38  1  0
 18 39  1  0
 19 40  1  0
 20 41  1  0
M  CHG  1  11   1
M  END
>  <UniqueID>  (40) 
39

>  <SMILES>  (40) 
COc1ccc(Br)cc1C[N@@H+](C)CCc1ccccc1

>  <Energy>  (40) 
43.612151507602434

>  <Genealogy>  (40) 
COc1ccc(Br)cc1C[NH+](C)CCc1ccccc1 (protonated)
COc1ccc(Br)cc1C[N@@H+](C)CCc1ccccc1 (chirality)
COc1ccc(Br)cc1C[N@@H+](C)CCc1ccccc1 (3D coordinates assigned)
COc1ccc(Br)cc1C[N@@H+](C)CCc1ccccc1 (optimized conformer: 43.612151507602434 kcal/mol)

>  <smiles>  (40) 
COc1ccc(Br)cc1CN(C)CCc1ccccc1

>  <score_type>  (40) 
oracle

>  <origin>  (40) 
adg

>  <m_score__min__energy>  (40) 
-4.8499999999999996

>  <m_primary>  (40) 
energy

$$$$
40:0
     RDKit          3D

 22 23  0  0  0  0  0  0  0  0999 V2000
   56.6530   26.5890   45.6380 C   0  0  0  0  0  0  0  0  0  0  0  0
   55.9720   27.7770   45.2480 O   0  0  0  0  0  0  0  0  0  0  0  0
   56.5550   29.0520   45.2350 C   0  0  0  0  0  0  0  0  0  0  0  0
   56.0590   30.1120   44.4610 C   0  0  0  0  0  0  0  0  0  0  0  0
   56.6730   31.3230   44.4950 N   0  0  0  0  0  0  0  0  0  0  0  0
   57.7710   31.5350   45.2710 C   0  0  0  0  0  0  0  0  0  0  0  0
   58.4020   32.8230   45.2890 N   0  0  0  0  0  0  0  0  0  0  0  0
   58.0330   33.9030   44.5730 C   0  0  0  0  0  0  0  0  0  0  0  0
   58.8940   34.9430   44.8720 C   0  0  0  0  0  0  0  0  0  0  0  0
   59.7800   34.4180   45.7940 C   0  0  0  0  0  0  0  0  0  0  0  0
   59.4570   33.1330   46.0260 N   0  0  0  0  0  0  0  0  0  0  0  0
   58.2650   30.5170   46.0270 N   0  0  0  0  0  0  0  0  0  0  0  0
   57.6810   29.2910   46.0230 C   0  0  0  0  0  0  0  0  0  0  0  0
   56.6871   26.5295   46.7359 H   0  0  0  0  0  0  0  0  0  0  0  0
   56.1198   25.7132   45.2397 H   0  0  0  0  0  0  0  0  0  0  0  0
   57.6782   26.6065   45.2397 H   0  0  0  0  0  0  0  0  0  0  0  0
   55.1729   29.9622   43.8267 H   0  0  0  0  0  0  0  0  0  0  0  0
   57.1890   33.9496   43.8691 H   0  0  0  0  0  0  0  0  0  0  0  0
   58.8774   35.9648   44.4650 H   0  0  0  0  0  0  0  0  0  0  0  0
   60.6135   34.9624   46.2618 H   0  0  0  0  0  0  0  0  0  0  0  0
   59.9520   32.4850   46.6780 H   0  0  0  0  0  0  0  0  0  0  0  0
   58.0973   28.4836   46.6433 H   0  0  0  0  0  0  0  0  0  0  0  0
  1  2  1  0
  2  3  1  0
  3  4  2  0
  4  5  1  0
  5  6  2  0
  6  7  1  0
  7  8  1  0
  8  9  2  0
  9 10  1  0
 10 11  2  0
  6 12  1  0
 12 13  2  0
 13  3  1  0
 11  7  1  0
  1 14  1  0
  1 15  1  0
  1 16  1  0
  4 17  1  0
  8 18  1  0
  9 19  1  0
 10 20  1  0
 11 21  1  0
 13 22  1  0
M  CHG  1  11   1
M  END
>  <UniqueID>  (41) 
40

>  <SMILES>  (41) 
COc1cnc(-n2ccc[nH+]2)nc1

>  <Energy>  (41) 
52.92713920808078

>  <Genealogy>  (41) 
COc1cnc(-n2ccc[nH+]2)nc1 (protonated)
COc1cnc(-n2ccc[nH+]2)nc1 (3D coordinates assigned)
COc1cnc(-n2ccc[nH+]2)nc1 (optimized conformer: 52.92713920808078 kcal/mol)

>  <smiles>  (41) 
COc1cnc(-n2cccn2)nc1

>  <score_type>  (41) 
oracle

>  <origin>  (41) 
adg

>  <m_score__min__energy>  (41) 
-3.0699999999999998

>  <m_primary>  (41) 
energy

$$$$
41:0
     RDKit          3D

 27 29  0  0  0  0  0  0  0  0999 V2000
   58.8590   33.6745   48.4201 H   0  0  0  0  0  0  0  0  0  0  0  0
   58.8060   33.7500   47.3240 C   0  0  0  0  0  0  0  0  0  0  0  0
   58.2340   32.7520   46.6020 N   0  0  0  0  0  0  0  0  0  0  0  0
   58.1440   32.7950   45.2420 C   0  0  0  0  0  0  0  0  0  0  0  0
   57.5060   31.6600   44.5370 C   0  0  0  0  0  0  0  0  0  0  0  0
   56.9900   30.6090   45.2360 N   0  0  0  0  0  0  0  0  0  0  0  0
   56.4560   29.6730   44.4270 C   0  0  0  0  0  0  0  0  0  0  0  0
   55.8810   28.6030   44.8920 N   0  0  0  0  0  0  0  0  0  0  0  0
   56.5370   27.5640   45.6300 C   0  0  0  0  0  0  0  0  0  0  0  0
   55.8500   26.6020   46.0670 O   0  0  0  0  0  0  0  0  0  0  0  0
   57.9730   27.6300   45.9550 C   0  0  0  0  0  0  0  0  0  0  0  0
   58.6100   27.7620   47.5070 S   0  0  0  0  0  0  0  0  0  0  0  0
   60.2240   27.8280   47.0430 C   0  0  0  0  0  0  0  0  0  0  0  0
   61.0864   27.9129   47.7206 H   0  0  0  0  0  0  0  0  0  0  0  0
   60.2820   27.7570   45.6570 C   0  0  0  0  0  0  0  0  0  0  0  0
   61.2257   27.7810   45.0923 H   0  0  0  0  0  0  0  0  0  0  0  0
   59.0260   27.6520   45.0460 C   0  0  0  0  0  0  0  0  0  0  0  0
   58.8862   27.5929   43.9565 H   0  0  0  0  0  0  0  0  0  0  0  0
   56.5760   30.1120   42.8040 S   0  0  0  0  0  0  0  0  0  0  0  0
   57.3660   31.5560   43.1480 C   0  0  0  0  0  0  0  0  0  0  0  0
   57.7132   32.2926   42.4085 H   0  0  0  0  0  0  0  0  0  0  0  0
   58.6620   33.9120   44.5600 C   0  0  0  0  0  0  0  0  0  0  0  0
   58.6017   33.9684   43.4631 H   0  0  0  0  0  0  0  0  0  0  0  0
   59.2530   34.9480   45.2860 C   0  0  0  0  0  0  0  0  0  0  0  0
   59.6607   35.8249   44.7616 H   0  0  0  0  0  0  0  0  0  0  0  0
   59.3260   34.8700   46.6770 C   0  0  0  0  0  0  0  0  0  0  0  0
   59.7884   35.6827   47.2564 H   0  0  0  0  0  0  0  0  0  0  0  0
  1  2  1  0
  2  3  2  0
  3  4  1  0
  4  5  1  0
  5  6  1  0
  6  7  1  0
  7  8  2  0
  8  9  1  0
  9 10  2  0
  9 11  1  0
 11 12  1  0
 12 13  1  0
 13 14  1  0
 13 15  2  0
 15 16  1  0
 15 17  1  0
 17 18  1  0
  7 19  1  0
 19 20  1  0
 20 21  1  0
  4 22  2  0
 22 23  1  0
 22 24  1  0
 24 25  1  0
 24 26  2  0
 26 27  1  0
 26  2  1  0
 20  5  2  0
 17 11  2  0
M  CHG  1   6  -1
M  END
>  <UniqueID>  (42) 
41

>  <SMILES>  (42) 
O=C(/N=c1/[n-]c(-c2ccccn2)cs1)c1cccs1

>  <Energy>  (42) 
94.72000804457245

>  <Genealogy>  (42) 
O=C(N=c1[n-]c(-c2ccccn2)cs1)c1cccs1 (protonated)
O=C(/N=c1/[n-]c(-c2ccccn2)cs1)c1cccs1 (cis-trans isomerization)
O=C(/N=c1/[n-]c(-c2ccccn2)cs1)c1cccs1 (3D coordinates assigned)
O=C(/N=c1/[n-]c(-c2ccccn2)cs1)c1cccs1 (optimized conformer: 94.72000804457245 kcal/mol)

>  <smiles>  (42) 
O=C(N=c1[nH]c(-c2ccccn2)cs1)c1cccs1

>  <score_type>  (42) 
oracle

>  <origin>  (42) 
adg

>  <m_score__min__energy>  (42) 
-9.4900000000000002

>  <m_primary>  (42) 
energy

$$$$
42:0
     RDKit          3D

 42 44  0  0  0  0  0  0  0  0999 V2000
   59.7540   35.5880   46.7820 O   0  0  0  0  0  0  0  0  0  0  0  0
   60.2420   34.4240   46.7490 C   0  0  0  0  0  0  0  0  0  0  0  0
   61.4460   34.1530   47.5830 C   0  0  0  0  0  0  0  0  0  0  0  0
   62.6410   33.7710   46.9460 C   0  0  0  0  0  0  0  0  0  0  0  0
   63.7870   33.4850   47.6950 C   0  0  0  0  0  0  0  0  0  0  0  0
   63.7490   33.5630   49.0890 C   0  0  0  0  0  0  0  0  0  0  0  0
   62.5650   33.9210   49.7350 C   0  0  0  0  0  0  0  0  0  0  0  0
   61.4170   34.2100   48.9900 C   0  0  0  0  0  0  0  0  0  0  0  0
   59.5930   33.4270   45.9160 N   0  0  0  0  0  0  0  0  0  0  0  0
   59.1630   32.2580   46.7190 C   0  0  0  0  0  0  0  0  0  0  0  0
   58.1180   31.3990   45.9800 C   0  0  0  0  0  0  0  0  0  0  0  0
   58.2960   31.5350   44.5230 N   0  0  0  0  0  0  0  0  0  0  0  0
   57.4700   30.5600   43.7840 C   0  0  0  0  0  0  0  0  0  0  0  0
   57.6080   29.1860   44.3880 C   0  0  0  0  0  0  0  0  0  0  0  0
   58.8080   28.4660   44.2460 C   0  0  0  0  0  0  0  0  0  0  0  0
   58.9280   27.1830   44.7900 C   0  0  0  0  0  0  0  0  0  0  0  0
   57.8550   26.6090   45.4760 C   0  0  0  0  0  0  0  0  0  0  0  0
   56.6580   27.3170   45.6200 C   0  0  0  0  0  0  0  0  0  0  0  0
   56.5310   28.6010   45.0790 C   0  0  0  0  0  0  0  0  0  0  0  0
   55.3590   29.2710   45.2240 F   0  0  0  0  0  0  0  0  0  0  0  0
   57.9820   32.9160   44.0860 C   0  0  0  0  0  0  0  0  0  0  0  0
   58.4990   33.9750   45.0850 C   0  0  0  0  0  0  0  0  0  0  0  0
   62.6742   33.6966   45.8490 H   0  0  0  0  0  0  0  0  0  0  0  0
   64.7190   33.1984   47.1858 H   0  0  0  0  0  0  0  0  0  0  0  0
   64.6519   33.3424   49.6773 H   0  0  0  0  0  0  0  0  0  0  0  0
   62.5344   33.9761   50.8332 H   0  0  0  0  0  0  0  0  0  0  0  0
   60.4852   34.4837   49.5065 H   0  0  0  0  0  0  0  0  0  0  0  0
   60.3260   33.0880   45.2440 H   0  0  0  0  0  0  0  0  0  0  0  0
   60.0429   31.6353   46.9381 H   0  0  0  0  0  0  0  0  0  0  0  0
   58.6997   32.6341   47.6431 H   0  0  0  0  0  0  0  0  0  0  0  0
   58.2447   30.3444   46.2660 H   0  0  0  0  0  0  0  0  0  0  0  0
   57.1091   31.7403   46.2549 H   0  0  0  0  0  0  0  0  0  0  0  0
   56.4158   30.8710   43.8290 H   0  0  0  0  0  0  0  0  0  0  0  0
   57.8108   30.5250   42.7387 H   0  0  0  0  0  0  0  0  0  0  0  0
   59.6550   28.9135   43.7053 H   0  0  0  0  0  0  0  0  0  0  0  0
   59.8692   26.6249   44.6774 H   0  0  0  0  0  0  0  0  0  0  0  0
   57.9518   25.5999   45.9029 H   0  0  0  0  0  0  0  0  0  0  0  0
   55.8139   26.8633   46.1601 H   0  0  0  0  0  0  0  0  0  0  0  0
   58.4513   33.0933   43.1071 H   0  0  0  0  0  0  0  0  0  0  0  0
   56.8877   33.0117   44.0280 H   0  0  0  0  0  0  0  0  0  0  0  0
   58.8728   34.8454   44.5258 H   0  0  0  0  0  0  0  0  0  0  0  0
   57.6700   34.2696   45.7452 H   0  0  0  0  0  0  0  0  0  0  0  0
  1  2  2  0
  2  3  1  0
  3  4  2  0
  4  5  1  0
  5  6  2  0
  6  7  1  0
  7  8  2  0
  2  9  1  0
  9 10  1  0
 10 11  1  0
 11 12  1  0
 12 13  1  0
 13 14  1  0
 14 15  2  0
 15 16  1  0
 16 17  2  0
 17 18  1  0
 18 19  2  0
 19 20  1  0
 12 21  1  0
 21 22  1  0
  8  3  1  0
 22  9  1  0
 19 14  1  0
  4 23  1  0
  5 24  1  0
  6 25  1  0
  7 26  1  0
  8 27  1  0
  9 28  1  0
 10 29  1  0
 10 30  1  0
 11 31  1  0
 11 32  1  0
 13 33  1  0
 13 34  1  0
 15 35  1  0
 16 36  1  0
 17 37  1  0
 18 38  1  0
 21 39  1  0
 21 40  1  0
 22 41  1  0
 22 42  1  0
M  CHG  1   9   1
M  END
>  <UniqueID>  (43) 
42

>  <SMILES>  (43) 
O=C(c1ccccc1)[NH+]1CCN(Cc2ccccc2F)CC1

>  <Energy>  (43) 
61.57120315406405

>  <Genealogy>  (43) 
O=C(c1ccccc1)[NH+]1CCN(Cc2ccccc2F)CC1 (protonated)
O=C(c1ccccc1)[NH+]1CCN(Cc2ccccc2F)CC1 (3D coordinates assigned)
O=C(c1ccccc1)[NH+]1CCN(Cc2ccccc2F)CC1 (nonaromatic ring conformer: 61.57120315406405 kcal/mol)

>  <smiles>  (43) 
O=C(c1ccccc1)N1CCN(Cc2ccccc2F)CC1

>  <score_type>  (43) 
oracle

>  <origin>  (43) 
adg

>  <m_score__min__energy>  (43) 
-6.1699999999999999

>  <m_primary>  (43) 
energy

$$$$
43:0
     RDKit          3D

 39 41  0  0  0  0  0  0  0  0999 V2000
   60.1550   27.8220   47.7370 C   0  0  0  0  0  0  0  0  0  0  0  0
   58.9750   27.2200   47.0340 C   0  0  0  0  0  0  0  0  0  0  0  0
   58.8890   25.8310   46.8620 C   0  0  0  0  0  0  0  0  0  0  0  0
   57.8140   25.2750   46.1640 C   0  0  0  0  0  0  0  0  0  0  0  0
   56.8190   26.1000   45.6310 C   0  0  0  0  0  0  0  0  0  0  0  0
   56.8890   27.4940   45.8040 C   0  0  0  0  0  0  0  0  0  0  0  0
   55.9070   28.3770   45.2440 N   0  0  0  0  0  0  0  0  0  0  0  0
   56.1270   29.7310   44.8330 C   0  0  0  0  0  0  0  0  0  0  0  0
   55.1430   30.4230   44.4640 O   0  0  0  0  0  0  0  0  0  0  0  0
   57.4590   30.2530   44.7390 N   0  0  0  0  0  0  0  0  0  0  0  0
   57.9310   31.4930   45.2870 C   0  0  0  0  0  0  0  0  0  0  0  0
   57.0960   32.6140   45.2290 C   0  0  0  0  0  0  0  0  0  0  0  0
   57.5290   33.8450   45.7240 C   0  0  0  0  0  0  0  0  0  0  0  0
   58.8060   33.9690   46.2770 C   0  0  0  0  0  0  0  0  0  0  0  0
   59.6610   32.8570   46.3410 C   0  0  0  0  0  0  0  0  0  0  0  0
   61.0330   32.9790   46.8850 C   0  0  0  0  0  0  0  0  0  0  0  0
   61.9160   33.8860   46.4130 N   0  0  0  0  0  0  0  0  0  0  0  0
   63.0290   33.6830   47.1460 C   0  0  0  0  0  0  0  0  0  0  0  0
   62.8140   32.6580   48.0380 C   0  0  0  0  0  0  0  0  0  0  0  0
   61.5610   32.2070   47.8630 N   0  0  0  0  0  0  0  0  0  0  0  0
   60.9520   31.0910   48.5830 C   0  0  0  0  0  0  0  0  0  0  0  0
   59.2270   31.6260   45.8220 C   0  0  0  0  0  0  0  0  0  0  0  0
   57.9840   28.0470   46.4820 C   0  0  0  0  0  0  0  0  0  0  0  0
   60.0104   27.7483   48.8250 H   0  0  0  0  0  0  0  0  0  0  0  0
   61.0682   27.2796   47.4508 H   0  0  0  0  0  0  0  0  0  0  0  0
   60.2519   28.8797   47.4508 H   0  0  0  0  0  0  0  0  0  0  0  0
   59.6700   25.1774   47.2777 H   0  0  0  0  0  0  0  0  0  0  0  0
   57.7502   24.1846   46.0334 H   0  0  0  0  0  0  0  0  0  0  0  0
   55.9793   25.6577   45.0749 H   0  0  0  0  0  0  0  0  0  0  0  0
   56.0913   32.5246   44.7902 H   0  0  0  0  0  0  0  0  0  0  0  0
   56.8633   34.7196   45.6786 H   0  0  0  0  0  0  0  0  0  0  0  0
   59.1431   34.9420   46.6639 H   0  0  0  0  0  0  0  0  0  0  0  0
   63.9661   34.2504   47.0461 H   0  0  0  0  0  0  0  0  0  0  0  0
   63.5420   32.2743   48.7679 H   0  0  0  0  0  0  0  0  0  0  0  0
   61.0440   31.2596   49.6661 H   0  0  0  0  0  0  0  0  0  0  0  0
   59.8884   31.0168   48.3125 H   0  0  0  0  0  0  0  0  0  0  0  0
   61.4652   30.1564   48.3125 H   0  0  0  0  0  0  0  0  0  0  0  0
   59.9044   30.7594   45.8335 H   0  0  0  0  0  0  0  0  0  0  0  0
   58.0676   29.1392   46.5825 H   0  0  0  0  0  0  0  0  0  0  0  0
  1  2  1  0
  2  3  2  0
  3  4  1  0
  4  5  2  0
  5  6  1  0
  6  7  1  0
  7  8  1  0
  8  9  2  0
  8 10  1  0
 10 11  1  0
 11 12  2  0
 12 13  1  0
 13 14  2  0
 14 15  1  0
 15 16  1  0
 16 17  2  0
 17 18  1  0
 18 19  2  0
 19 20  1  0
 20 21  1  0
 15 22  2  0
  6 23  2  0
 23  2  1  0
 22 11  1  0
 20 16  1  0
  1 24  1  0
  1 25  1  0
  1 26  1  0
  3 27  1  0
  4 28  1  0
  5 29  1  0
 12 30  1  0
 13 31  1  0
 14 32  1  0
 18 33  1  0
 19 34  1  0
 21 35  1  0
 21 36  1  0
 21 37  1  0
 22 38  1  0
 23 39  1  0
M  CHG  2   7  -1  10  -1
M  END
>  <UniqueID>  (44) 
43

>  <SMILES>  (44) 
Cc1cccc([N-]C(=O)[N-]c2cccc(-c3nccn3C)c2)c1

>  <Energy>  (44) 
80.65218355758569

>  <Genealogy>  (44) 
Cc1cccc([N-]C(=O)[N-]c2cccc(-c3nccn3C)c2)c1 (protonated)
Cc1cccc([N-]C(=O)[N-]c2cccc(-c3nccn3C)c2)c1 (3D coordinates assigned)
Cc1cccc([N-]C(=O)[N-]c2cccc(-c3nccn3C)c2)c1 (optimized conformer: 80.65218355758569 kcal/mol)

>  <smiles>  (44) 
Cc1cccc(NC(=O)Nc2cccc(-c3nccn3C)c2)c1

>  <score_type>  (44) 
oracle

>  <origin>  (44) 
adg

>  <m_score__min__energy>  (44) 
-11.56

>  <m_primary>  (44) 
energy

$$$$
44:0
     RDKit          3D

 56 58  0  0  0  0  0  0  0  0999 V2000
   62.7050   34.1430   50.1760 C   0  0  0  0  0  0  0  0  0  0  0  0
   61.5740   33.8170   49.3740 O   0  0  0  0  0  0  0  0  0  0  0  0
   61.1220   32.5100   49.1270 C   0  0  0  0  0  0  0  0  0  0  0  0
   60.3440   31.8030   50.0600 C   0  0  0  0  0  0  0  0  0  0  0  0
   59.9090   30.5050   49.7810 C   0  0  0  0  0  0  0  0  0  0  0  0
   60.2290   29.8930   48.5540 C   0  0  0  0  0  0  0  0  0  0  0  0
   59.7920   28.5570   48.2270 N   0  0  0  0  0  0  0  0  0  0  0  0
   59.0880   28.1890   46.9900 C   0  0  2  0  0  0  0  0  0  0  0  0
   60.0940   27.9500   45.8430 C   0  0  0  0  0  0  0  0  0  0  0  0
   59.4280   27.8100   44.4510 C   0  0  0  0  0  0  0  0  0  0  0  0
   57.8960   27.8500   44.5050 C   0  0  0  0  0  0  0  0  0  0  0  0
   57.4520   29.0090   45.2970 N   0  0  0  0  0  0  0  0  0  0  0  0
   56.3220   29.8010   44.8770 C   0  0  0  0  0  0  0  0  0  0  0  0
   55.1630   29.3090   44.8920 O   0  0  0  0  0  0  0  0  0  0  0  0
   56.5130   31.1530   44.4460 N   0  0  0  0  0  0  0  0  0  0  0  0
   57.7330   31.6350   43.8030 C   0  0  0  0  0  0  0  0  0  0  0  0
   57.7680   33.1660   43.8100 C   0  0  0  0  0  0  0  0  0  0  0  0
   58.2730   33.6850   45.1290 C   0  0  0  0  0  0  0  0  0  0  0  0
   57.8570   33.0910   46.3310 C   0  0  0  0  0  0  0  0  0  0  0  0
   58.3440   33.5620   47.5550 C   0  0  0  0  0  0  0  0  0  0  0  0
   59.2560   34.6200   47.5850 C   0  0  0  0  0  0  0  0  0  0  0  0
   59.6900   35.2040   46.3910 C   0  0  0  0  0  0  0  0  0  0  0  0
   59.2030   34.7370   45.1660 C   0  0  0  0  0  0  0  0  0  0  0  0
   58.0850   29.2910   46.5950 C   0  0  0  0  0  0  0  0  0  0  0  0
   61.0140   30.6000   47.6290 C   0  0  0  0  0  0  0  0  0  0  0  0
   61.4640   31.9050   47.9090 C   0  0  0  0  0  0  0  0  0  0  0  0
   62.2540   32.6300   47.0000 O   0  0  0  0  0  0  0  0  0  0  0  0
   63.6490   32.8700   47.1500 C   0  0  0  0  0  0  0  0  0  0  0  0
   62.4350   34.0652   51.2395 H   0  0  0  0  0  0  0  0  0  0  0  0
   63.5255   33.4448   49.9539 H   0  0  0  0  0  0  0  0  0  0  0  0
   63.0280   35.1708   49.9539 H   0  0  0  0  0  0  0  0  0  0  0  0
   60.0757   32.2750   51.0167 H   0  0  0  0  0  0  0  0  0  0  0  0
   59.3123   29.9572   50.5252 H   0  0  0  0  0  0  0  0  0  0  0  0
   60.0080   27.7980   48.9160 H   0  0  0  0  0  0  0  0  0  0  0  0
   58.5354   27.2554   47.1715 H   0  0  0  0  0  0  0  0  0  0  0  0
   60.7920   28.7995   45.8104 H   0  0  0  0  0  0  0  0  0  0  0  0
   60.6024   26.9976   46.0539 H   0  0  0  0  0  0  0  0  0  0  0  0
   59.7766   28.6352   43.8126 H   0  0  0  0  0  0  0  0  0  0  0  0
   59.7144   26.8265   44.0501 H   0  0  0  0  0  0  0  0  0  0  0  0
   57.4972   27.9323   43.4832 H   0  0  0  0  0  0  0  0  0  0  0  0
   57.5263   26.9271   44.9756 H   0  0  0  0  0  0  0  0  0  0  0  0
   58.6072   31.2495   44.3482 H   0  0  0  0  0  0  0  0  0  0  0  0
   57.7524   31.2813   42.7616 H   0  0  0  0  0  0  0  0  0  0  0  0
   58.4338   33.5148   43.0069 H   0  0  0  0  0  0  0  0  0  0  0  0
   56.7463   33.5418   43.6521 H   0  0  0  0  0  0  0  0  0  0  0  0
   57.1456   32.2523   46.3104 H   0  0  0  0  0  0  0  0  0  0  0  0
   58.0086   33.0989   48.4947 H   0  0  0  0  0  0  0  0  0  0  0  0
   59.6328   34.9938   48.5485 H   0  0  0  0  0  0  0  0  0  0  0  0
   60.4148   36.0311   46.4152 H   0  0  0  0  0  0  0  0  0  0  0  0
   59.5496   35.1952   44.2280 H   0  0  0  0  0  0  0  0  0  0  0  0
   58.6172   30.2516   46.5312 H   0  0  0  0  0  0  0  0  0  0  0  0
   57.2963   29.3283   47.3609 H   0  0  0  0  0  0  0  0  0  0  0  0
   61.2813   30.1280   46.6721 H   0  0  0  0  0  0  0  0  0  0  0  0
   63.9006   32.9133   48.2200 H   0  0  0  0  0  0  0  0  0  0  0  0
   64.2145   32.0559   46.6730 H   0  0  0  0  0  0  0  0  0  0  0  0
   63.9099   33.8262   46.6730 H   0  0  0  0  0  0  0  0  0  0  0  0
  1  2  1  0
  2  3  1  0
  3  4  2  0
  4  5  1  0
  5  6  2  0
  6  7  1  0
  7  8  1  0
  8  9  1  0
  9 10  1  0
 10 11  1  0
 11 12  1  0
 12 13  1  0
 13 14  2  0
 13 15  1  0
 15 16  1  0
 16 17  1  0
 17 18  1  0
 18 19  2  0
 19 20  1  0
 20 21  2  0
 21 22  1  0
 22 23  2  0
 12 24  1  0
  6 25  1  0
 25 26  2  0
 26 27  1  0
 27 28  1  0
 26  3  1  0
 24  8  1  0
 23 18  1  0
  1 29  1  0
  1 30  1  0
  1 31  1  0
  4 32  1  0
  5 33  1  0
  7 34  1  0
  8 35  1  1
  9 36  1  0
  9 37  1  0
 10 38  1  0
 10 39  1  0
 11 40  1  0
 11 41  1  0
 16 42  1  0
 16 43  1  0
 17 44  1  0
 17 45  1  0
 19 46  1  0
 20 47  1  0
 21 48  1  0
 22 49  1  0
 23 50  1  0
 24 51  1  0
 24 52  1  0
 25 53  1  0
 28 54  1  0
 28 55  1  0
 28 56  1  0
M  CHG  1  15  -1
M  END
>  <UniqueID>  (45) 
44

>  <SMILES>  (45) 
COc1ccc(N[C@@H]2CCCN(C(=O)[N-]CCc3ccccc3)C2)cc1OC

>  <Energy>  (45) 
53.61178766300141

>  <Genealogy>  (45) 
COc1ccc(NC2CCCN(C(=O)[N-]CCc3ccccc3)C2)cc1OC (protonated)
COc1ccc(N[C@@H]2CCCN(C(=O)[N-]CCc3ccccc3)C2)cc1OC (chirality)
COc1ccc(N[C@@H]2CCCN(C(=O)[N-]CCc3ccccc3)C2)cc1OC (3D coordinates assigned)
COc1ccc(N[C@@H]2CCCN(C(=O)[N-]CCc3ccccc3)C2)cc1OC (nonaromatic ring conformer: 53.61178766300141 kcal/mol)

>  <smiles>  (45) 
COc1ccc(NC2CCCN(C(=O)NCCc3ccccc3)C2)cc1OC

>  <score_type>  (45) 
oracle

>  <origin>  (45) 
adg

>  <m_score__min__energy>  (45) 
-10.470000000000001

>  <m_primary>  (45) 
energy

$$$$
