0:0
     RDKit          3D

 77 80  0  0  0  0  0  0  0  0999 V2000
   56.0300   25.5680   45.9520 C   0  0  0  0  0  0  0  0  0  0  0  0
   57.2260   26.4720   46.2610 C   0  0  0  0  0  0  0  0  0  0  0  0
   57.4270   27.5020   45.2260 N   0  0  0  0  0  0  0  0  0  0  0  0
   58.7710   27.4680   44.6350 C   0  0  0  0  0  0  0  0  0  0  0  0
   59.8040   27.6360   45.7400 C   0  0  0  0  0  0  0  0  0  0  0  0
   60.0050   29.1210   46.0620 C   0  0  0  0  0  0  0  0  0  0  0  0
   58.8910   29.6000   46.9010 N   0  0  0  0  0  0  0  0  0  0  0  0
   58.5490   30.9880   46.6000 C   0  0  0  0  0  0  0  0  0  0  0  0
   58.0780   31.3040   45.3150 C   0  0  0  0  0  0  0  0  0  0  0  0
   57.3440   30.3550   44.5550 C   0  0  0  0  0  0  0  0  0  0  0  0
   57.0000   30.6100   43.2320 C   0  0  0  0  0  0  0  0  0  0  0  0
   57.3990   31.7900   42.6250 C   0  0  0  0  0  0  0  0  0  0  0  0
   58.0790   32.7520   43.3670 C   0  0  0  0  0  0  0  0  0  0  0  0
   58.3690   32.5700   44.7450 C   0  0  0  0  0  0  0  0  0  0  0  0
   58.9050   33.5840   45.5330 N   0  0  0  0  0  0  0  0  0  0  0  0
   59.2650   34.8560   44.8550 C   0  0  0  0  0  0  0  0  0  0  0  0
   59.0730   33.3830   46.8950 C   0  0  0  0  0  0  0  0  0  0  0  0
   59.4190   34.4550   47.7740 C   0  0  0  0  0  0  0  0  0  0  0  0
   59.6330   34.2490   49.1280 C   0  0  0  0  0  0  0  0  0  0  0  0
   59.4450   32.9980   49.6860 C   0  0  0  0  0  0  0  0  0  0  0  0
   59.0260   31.9080   48.9110 C   0  0  0  0  0  0  0  0  0  0  0  0
   58.6830   30.7190   49.6440 N   0  0  0  0  0  0  0  0  0  0  0  0
   59.6190   30.2430   50.6670 C   0  0  0  0  0  0  0  0  0  0  0  0
   61.0670   30.1150   50.1630 C   0  0  0  0  0  0  0  0  0  0  0  0
   62.0480   31.2050   50.6830 C   0  0  0  0  0  0  0  0  0  0  0  0
   62.8950   31.8900   49.6370 N   0  0  0  0  0  0  0  0  0  0  0  0
   64.3110   31.6210   50.0130 C   0  0  0  0  0  0  0  0  0  0  0  0
   62.6330   33.3690   49.6830 C   0  0  0  0  0  0  0  0  0  0  0  0
   63.3670   34.1540   48.5880 C   0  0  0  0  0  0  0  0  0  0  0  0
   63.0580   33.6020   47.2050 C   0  0  0  0  0  0  0  0  0  0  0  0
   63.3420   32.1000   47.1370 C   0  0  0  0  0  0  0  0  0  0  0  0
   62.6260   31.3340   48.2630 C   0  0  0  0  0  0  0  0  0  0  0  0
   58.8740   32.0710   47.4820 C   0  0  0  0  0  0  0  0  0  0  0  0
   55.5765   25.2252   46.8937 H   0  0  0  0  0  0  0  0  0  0  0  0
   55.2854   26.1311   45.3701 H   0  0  0  0  0  0  0  0  0  0  0  0
   56.3686   24.6981   45.3701 H   0  0  0  0  0  0  0  0  0  0  0  0
   57.0541   26.9692   47.2270 H   0  0  0  0  0  0  0  0  0  0  0  0
   58.1272   25.8419   46.2901 H   0  0  0  0  0  0  0  0  0  0  0  0
   56.7200   27.3800   44.4670 H   0  0  0  0  0  0  0  0  0  0  0  0
   58.9266   26.5041   44.1285 H   0  0  0  0  0  0  0  0  0  0  0  0
   58.8751   28.2822   43.9028 H   0  0  0  0  0  0  0  0  0  0  0  0
   59.4569   27.1130   46.6433 H   0  0  0  0  0  0  0  0  0  0  0  0
   60.7607   27.2115   45.4017 H   0  0  0  0  0  0  0  0  0  0  0  0
   60.9538   29.2533   46.6027 H   0  0  0  0  0  0  0  0  0  0  0  0
   60.0315   29.6977   45.1257 H   0  0  0  0  0  0  0  0  0  0  0  0
   58.1160   28.9510   46.6730 H   0  0  0  0  0  0  0  0  0  0  0  0
   59.0060   29.4530   47.9290 H   0  0  0  0  0  0  0  0  0  0  0  0
   57.0432   29.4044   45.0197 H   0  0  0  0  0  0  0  0  0  0  0  0
   56.4101   29.8737   42.6664 H   0  0  0  0  0  0  0  0  0  0  0  0
   57.1795   31.9659   41.5616 H   0  0  0  0  0  0  0  0  0  0  0  0
   58.4009   33.6798   42.8714 H   0  0  0  0  0  0  0  0  0  0  0  0
   59.4827   35.6253   45.6105 H   0  0  0  0  0  0  0  0  0  0  0  0
   60.1536   34.6976   44.2263 H   0  0  0  0  0  0  0  0  0  0  0  0
   58.4252   35.1868   44.2263 H   0  0  0  0  0  0  0  0  0  0  0  0
   59.5182   35.4714   47.3652 H   0  0  0  0  0  0  0  0  0  0  0  0
   59.9549   35.0872   49.7634 H   0  0  0  0  0  0  0  0  0  0  0  0
   59.6282   32.8552   50.7612 H   0  0  0  0  0  0  0  0  0  0  0  0
   57.6820   30.6280   49.8780 H   0  0  0  0  0  0  0  0  0  0  0  0
   59.6047   30.9513   51.5085 H   0  0  0  0  0  0  0  0  0  0  0  0
   59.2896   29.2361   50.9631 H   0  0  0  0  0  0  0  0  0  0  0  0
   61.4513   29.1334   50.4773 H   0  0  0  0  0  0  0  0  0  0  0  0
   61.0224   30.2402   49.0711 H   0  0  0  0  0  0  0  0  0  0  0  0
   61.4529   31.9774   51.1922 H   0  0  0  0  0  0  0  0  0  0  0  0
   62.7568   30.6766   51.3376 H   0  0  0  0  0  0  0  0  0  0  0  0
   64.4024   31.6036   51.1091 H   0  0  0  0  0  0  0  0  0  0  0  0
   64.6205   30.6480   49.6038 H   0  0  0  0  0  0  0  0  0  0  0  0
   64.9558   32.4127   49.6038 H   0  0  0  0  0  0  0  0  0  0  0  0
   61.5520   33.5351   49.5655 H   0  0  0  0  0  0  0  0  0  0  0  0
   63.0081   33.7345   50.6503 H   0  0  0  0  0  0  0  0  0  0  0  0
   63.0524   35.2072   48.6311 H   0  0  0  0  0  0  0  0  0  0  0  0
   64.4490   34.0614   48.7630 H   0  0  0  0  0  0  0  0  0  0  0  0
   61.9964   33.7779   46.9766 H   0  0  0  0  0  0  0  0  0  0  0  0
   63.7001   34.1132   46.4726 H   0  0  0  0  0  0  0  0  0  0  0  0
   62.9944   31.7150   46.1670 H   0  0  0  0  0  0  0  0  0  0  0  0
   64.4253   31.9501   47.2553 H   0  0  0  0  0  0  0  0  0  0  0  0
   61.5426   31.3753   48.0772 H   0  0  0  0  0  0  0  0  0  0  0  0
   63.0140   30.3048   48.2501 H   0  0  0  0  0  0  0  0  0  0  0  0
  1  2  1  0
  2  3  1  0
  3  4  1  0
  4  5  1  0
  5  6  1  0
  6  7  1  0
  7  8  1  0
  8  9  2  0
  9 10  1  0
 10 11  2  0
 11 12  1  0
 12 13  2  0
 13 14  1  0
 14 15  2  0
 15 16  1  0
 15 17  1  0
 17 18  2  0
 18 19  1  0
 19 20  2  0
 20 21  1  0
 21 22  1  0
 22 23  1  0
 23 24  1  0
 24 25  1  0
 25 26  1  0
 26 27  1  0
 26 28  1  0
 28 29  1  0
 29 30  1  0
 30 31  1  0
 31 32  1  0
 21 33  2  0
 33  8  1  0
 14  9  1  0
 33 17  1  0
 32 26  1  0
  1 34  1  0
  1 35  1  0
  1 36  1  0
  2 37  1  0
  2 38  1  0
  3 39  1  0
  4 40  1  0
  4 41  1  0
  5 42  1  0
  5 43  1  0
  6 44  1  0
  6 45  1  0
  7 46  1  0
  7 47  1  0
 10 48  1  0
 11 49  1  0
 12 50  1  0
 13 51  1  0
 16 52  1  0
 16 53  1  0
 16 54  1  0
 18 55  1  0
 19 56  1  0
 20 57  1  0
 22 58  1  0
 23 59  1  0
 23 60  1  0
 24 61  1  0
 24 62  1  0
 25 63  1  0
 25 64  1  0
 27 65  1  0
 27 66  1  0
 27 67  1  0
 28 68  1  0
 28 69  1  0
 29 70  1  0
 29 71  1  0
 30 72  1  0
 30 73  1  0
 31 74  1  0
 31 75  1  0
 32 76  1  0
 32 77  1  0
M  CHG  3   7   1  15   1  26   1
M  END
>  <UniqueID>  (1) 
1

>  <SMILES>  (1) 
CCNCCC[NH2+]c1c2ccccc2[n+](C)c2cccc(NCCC[N+]3(C)CCCCC3)c12

>  <Energy>  (1) 
142.18736015234845

>  <Genealogy>  (1) 
CCNCCC[NH2+]c1c2ccccc2[n+](C)c2cccc(NCCC[N+]3(C)CCCCC3)c12 (protonated)
CCNCCC[NH2+]c1c2ccccc2[n+](C)c2cccc(NCCC[N+]3(C)CCCCC3)c12 (3D coordinates assigned)
CCNCCC[NH2+]c1c2ccccc2[n+](C)c2cccc(NCCC[N+]3(C)CCCCC3)c12 (nonaromatic ring conformer: 142.18736015234845 kcal/mol)

>  <smiles>  (1) 
CCNCCCNc1c2ccccc2[n+](C)c2cccc(NCCC[N+]3(C)CCCCC3)c12

>  <score_type>  (1) 
oracle

>  <origin>  (1) 
adg

>  <m_score__min__energy>  (1) 
-4.1699999999999999

>  <m_primary>  (1) 
energy

$$$$
1:0
     RDKit          3D

 36 37  0  0  0  0  0  0  0  0999 V2000
   60.2530   29.7970   46.5340 C   0  0  0  0  0  0  0  0  0  0  0  0
   60.4250   31.2800   46.8540 C   0  0  0  0  0  0  0  0  0  0  0  0
   59.1780   31.8560   47.3760 N   0  0  0  0  0  0  0  0  0  0  0  0
   58.9730   33.2570   46.9620 C   0  0  0  0  0  0  0  0  0  0  0  0
   57.4840   33.5360   46.7440 C   0  0  0  0  0  0  0  0  0  0  0  0
   57.0840   33.1900   45.3820 N   0  0  0  0  0  0  0  0  0  0  0  0
   57.2660   31.8720   44.8550 C   0  0  0  0  0  0  0  0  0  0  0  0
   57.0290   30.7630   45.5140 O   0  0  0  0  0  0  0  0  0  0  0  0
   57.3320   29.7700   44.7040 C   0  0  0  0  0  0  0  0  0  0  0  0
   57.2120   28.3570   45.0810 C   0  0  0  0  0  0  0  0  0  0  0  0
   58.1890   27.3890   44.9520 C   0  0  0  0  0  0  0  0  0  0  0  0
   57.6230   26.2280   45.4350 C   0  0  0  0  0  0  0  0  0  0  0  0
   56.3410   26.5590   45.8270 C   0  0  0  0  0  0  0  0  0  0  0  0
   56.1270   27.8350   45.6030 O   0  0  0  0  0  0  0  0  0  0  0  0
   57.7690   30.2080   43.5020 N   0  0  0  0  0  0  0  0  0  0  0  0
   57.7260   31.5480   43.5990 C   0  0  0  0  0  0  0  0  0  0  0  0
   58.2220   32.6790   42.3000 S   0  0  0  0  0  0  0  0  0  0  0  0
   57.0200   32.0110   41.1090 C   0  0  0  0  0  0  0  0  0  0  0  0
   60.1867   29.2250   47.4712 H   0  0  0  0  0  0  0  0  0  0  0  0
   59.3320   29.6523   45.9501 H   0  0  0  0  0  0  0  0  0  0  0  0
   61.1164   29.4453   45.9501 H   0  0  0  0  0  0  0  0  0  0  0  0
   61.2175   31.3954   47.6081 H   0  0  0  0  0  0  0  0  0  0  0  0
   60.6935   31.8088   45.9275 H   0  0  0  0  0  0  0  0  0  0  0  0
   58.3860   31.2830   47.0000 H   0  0  0  0  0  0  0  0  0  0  0  0
   59.3563   33.9265   47.7461 H   0  0  0  0  0  0  0  0  0  0  0  0
   59.5110   33.4329   46.0188 H   0  0  0  0  0  0  0  0  0  0  0  0
   56.8971   32.9364   47.4553 H   0  0  0  0  0  0  0  0  0  0  0  0
   57.2998   34.6087   46.9032 H   0  0  0  0  0  0  0  0  0  0  0  0
   56.6680   33.9320   44.7770 H   0  0  0  0  0  0  0  0  0  0  0  0
   59.2044   27.5173   44.5489 H   0  0  0  0  0  0  0  0  0  0  0  0
   58.0974   25.2374   45.4958 H   0  0  0  0  0  0  0  0  0  0  0  0
   55.6105   25.8603   46.2608 H   0  0  0  0  0  0  0  0  0  0  0  0
   58.0790   29.6430   42.6810 H   0  0  0  0  0  0  0  0  0  0  0  0
   56.1843   31.5465   41.6529 H   0  0  0  0  0  0  0  0  0  0  0  0
   56.6382   32.8263   40.4770 H   0  0  0  0  0  0  0  0  0  0  0  0
   57.5108   31.2562   40.4770 H   0  0  0  0  0  0  0  0  0  0  0  0
  1  2  1  0
  2  3  1  0
  3  4  1  0
  4  5  1  0
  5  6  1  0
  6  7  1  0
  7  8  1  0
  8  9  1  0
  9 10  1  0
 10 11  2  0
 11 12  1  0
 12 13  2  0
 13 14  1  0
  9 15  2  0
 15 16  1  0
 16 17  1  0
 17 18  1  0
 16  7  2  0
 14 10  1  0
  1 19  1  0
  1 20  1  0
  1 21  1  0
  2 22  1  0
  2 23  1  0
  3 24  1  0
  4 25  1  0
  4 26  1  0
  5 27  1  0
  5 28  1  0
  6 29  1  0
 11 30  1  0
 12 31  1  0
 13 32  1  0
 15 33  1  0
 18 34  1  0
 18 35  1  0
 18 36  1  0
M  CHG  1  15   1
M  END
>  <UniqueID>  (2) 
2

>  <SMILES>  (2) 
CCNCCNc1oc(-c2ccco2)[nH+]c1SC

>  <Energy>  (2) 
81.79261479884268

>  <Genealogy>  (2) 
CCNCCNc1oc(-c2ccco2)[nH+]c1SC (protonated)
CCNCCNc1oc(-c2ccco2)[nH+]c1SC (3D coordinates assigned)
CCNCCNc1oc(-c2ccco2)[nH+]c1SC (optimized conformer: 81.79261479884268 kcal/mol)

>  <smiles>  (2) 
CCNCCNc1oc(-c2ccco2)nc1SC

>  <score_type>  (2) 
oracle

>  <origin>  (2) 
adg

>  <m_score__min__energy>  (2) 
-4.5499999999999998

>  <m_primary>  (2) 
energy

$$$$
2:0
     RDKit          3D

 47 50  0  0  0  0  0  0  0  0999 V2000
   57.7090   26.5740   44.9490 C   0  0  0  0  0  0  0  0  0  0  0  0
   58.0730   27.9730   45.1710 N   0  0  0  0  0  0  0  0  0  0  0  0
   57.7260   29.0420   44.4090 C   0  0  0  0  0  0  0  0  0  0  0  0
   58.2300   30.2160   44.9500 C   0  0  0  0  0  0  0  0  0  0  0  0
   58.8670   29.8490   46.1180 C   0  0  0  0  0  0  0  0  0  0  0  0
   59.5210   30.6120   47.0840 C   0  0  0  0  0  0  0  0  0  0  0  0
   60.0650   29.9420   48.1940 C   0  0  0  0  0  0  0  0  0  0  0  0
   60.7090   30.6470   49.1570 F   0  0  0  0  0  0  0  0  0  0  0  0
   59.9410   28.5400   48.3140 C   0  0  0  0  0  0  0  0  0  0  0  0
   59.2760   27.7940   47.3240 C   0  0  0  0  0  0  0  0  0  0  0  0
   58.7490   28.4820   46.2260 C   0  0  0  0  0  0  0  0  0  0  0  0
   58.0040   31.5910   44.3870 C   0  0  2  0  0  0  0  0  0  0  0  0
   57.0290   32.3000   45.2430 N   0  0  0  0  0  0  0  0  0  0  0  0
   57.4290   33.6770   45.5760 C   0  0  0  0  0  0  0  0  0  0  0  0
   57.7690   33.8420   47.0650 C   0  0  0  0  0  0  0  0  0  0  0  0
   59.2590   33.8160   47.2710 C   0  0  0  0  0  0  0  0  0  0  0  0
   60.1280   33.8660   46.1680 C   0  0  0  0  0  0  0  0  0  0  0  0
   61.5120   33.8090   46.3560 C   0  0  0  0  0  0  0  0  0  0  0  0
   62.0390   33.6910   47.6460 C   0  0  0  0  0  0  0  0  0  0  0  0
   63.7760   33.6160   47.8810 Cl  0  0  0  0  0  0  0  0  0  0  0  0
   61.1800   33.6260   48.7490 C   0  0  0  0  0  0  0  0  0  0  0  0
   59.7960   33.6830   48.5620 C   0  0  0  0  0  0  0  0  0  0  0  0
   57.5160   31.4820   42.9140 C   0  0  0  0  0  0  0  0  0  0  0  0
   56.4530   30.3800   42.7190 C   0  0  0  0  0  0  0  0  0  0  0  0
   56.9920   28.9900   43.0990 C   0  0  0  0  0  0  0  0  0  0  0  0
   57.5781   26.0709   45.9184 H   0  0  0  0  0  0  0  0  0  0  0  0
   56.7684   26.5256   44.3808 H   0  0  0  0  0  0  0  0  0  0  0  0
   58.5068   26.0733   44.3808 H   0  0  0  0  0  0  0  0  0  0  0  0
   59.6087   31.7037   46.9812 H   0  0  0  0  0  0  0  0  0  0  0  0
   60.3679   28.0274   49.1887 H   0  0  0  0  0  0  0  0  0  0  0  0
   59.1735   26.7022   47.4107 H   0  0  0  0  0  0  0  0  0  0  0  0
   58.9413   32.1668   44.3794 H   0  0  0  0  0  0  0  0  0  0  0  0
   56.0670   32.3040   44.8310 H   0  0  0  0  0  0  0  0  0  0  0  0
   58.3145   33.9421   44.9796 H   0  0  0  0  0  0  0  0  0  0  0  0
   56.5793   34.3380   45.3498 H   0  0  0  0  0  0  0  0  0  0  0  0
   57.3707   34.8029   47.4230 H   0  0  0  0  0  0  0  0  0  0  0  0
   57.3175   33.0114   47.6273 H   0  0  0  0  0  0  0  0  0  0  0  0
   59.7170   33.9504   45.1511 H   0  0  0  0  0  0  0  0  0  0  0  0
   62.1870   33.8570   45.4887 H   0  0  0  0  0  0  0  0  0  0  0  0
   61.5942   33.5300   49.7635 H   0  0  0  0  0  0  0  0  0  0  0  0
   59.1237   33.6234   49.4306 H   0  0  0  0  0  0  0  0  0  0  0  0
   57.0813   32.4472   42.6149 H   0  0  0  0  0  0  0  0  0  0  0  0
   58.3857   31.2182   42.2944 H   0  0  0  0  0  0  0  0  0  0  0  0
   55.5828   30.6092   43.3516 H   0  0  0  0  0  0  0  0  0  0  0  0
   56.1748   30.3588   41.6550 H   0  0  0  0  0  0  0  0  0  0  0  0
   56.1497   28.2878   43.1852 H   0  0  0  0  0  0  0  0  0  0  0  0
   57.6899   28.6567   42.3169 H   0  0  0  0  0  0  0  0  0  0  0  0
  1  2  1  0
  2  3  1  0
  3  4  2  0
  4  5  1  0
  5  6  2  0
  6  7  1  0
  7  8  1  0
  7  9  2  0
  9 10  1  0
 10 11  2  0
  4 12  1  0
 12 13  1  0
 13 14  1  0
 14 15  1  0
 15 16  1  0
 16 17  2  0
 17 18  1  0
 18 19  2  0
 19 20  1  0
 19 21  1  0
 21 22  2  0
 12 23  1  0
 23 24  1  0
 24 25  1  0
 11  2  1  0
 22 16  1  0
 25  3  1  0
 11  5  1  0
  1 26  1  0
  1 27  1  0
  1 28  1  0
  6 29  1  0
  9 30  1  0
 10 31  1  0
 12 32  1  6
 13 33  1  0
 14 34  1  0
 14 35  1  0
 15 36  1  0
 15 37  1  0
 17 38  1  0
 18 39  1  0
 21 40  1  0
 22 41  1  0
 23 42  1  0
 23 43  1  0
 24 44  1  0
 24 45  1  0
 25 46  1  0
 25 47  1  0
M  END
>  <UniqueID>  (3) 
3

>  <SMILES>  (3) 
Cn1c2c(c3cc(F)ccc31)[C@H](NCCc1ccc(Cl)cc1)CCC2

>  <Energy>  (3) 
84.53335083516126

>  <Genealogy>  (3) 
Cn1c2c(c3cc(F)ccc31)[C@H](NCCc1ccc(Cl)cc1)CCC2 (chirality)
Cn1c2c(c3cc(F)ccc31)[C@H](NCCc1ccc(Cl)cc1)CCC2 (3D coordinates assigned)
Cn1c2c(c3cc(F)ccc31)[C@H](NCCc1ccc(Cl)cc1)CCC2 (nonaromatic ring conformer: 84.53335083516126 kcal/mol)

>  <smiles>  (3) 
Cn1c2c(c3cc(F)ccc31)C(NCCc1ccc(Cl)cc1)CCC2

>  <score_type>  (3) 
oracle

>  <origin>  (3) 
adg

>  <m_score__min__energy>  (3) 
-8.6400000000000006

>  <m_primary>  (3) 
energy

$$$$
3:0
     RDKit          3D

 45 48  0  0  0  0  0  0  0  0999 V2000
   58.5170   33.0660   43.5100 C   0  0  0  0  0  0  0  0  0  0  0  0
   58.0620   33.9790   44.5710 N   0  0  0  0  0  0  0  0  0  0  0  0
   59.0990   34.9710   44.9490 C   0  0  0  0  0  0  0  0  0  0  0  0
   59.8910   34.6010   46.1880 C   0  0  0  0  0  0  0  0  0  0  0  0
   59.4030   34.9220   47.4650 C   0  0  0  0  0  0  0  0  0  0  0  0
   60.1280   34.5830   48.6100 C   0  0  0  0  0  0  0  0  0  0  0  0
   61.3610   33.9260   48.4960 C   0  0  0  0  0  0  0  0  0  0  0  0
   62.0970   33.5790   49.6390 C   0  0  0  0  0  0  0  0  0  0  0  0
   63.3270   32.9280   49.5110 C   0  0  0  0  0  0  0  0  0  0  0  0
   63.8300   32.6190   48.2440 C   0  0  0  0  0  0  0  0  0  0  0  0
   63.1070   32.9590   47.0980 C   0  0  0  0  0  0  0  0  0  0  0  0
   61.8690   33.6120   47.2130 C   0  0  0  0  0  0  0  0  0  0  0  0
   61.1340   33.9570   46.0690 C   0  0  0  0  0  0  0  0  0  0  0  0
   57.5080   33.2270   45.7160 C   0  0  0  0  0  0  0  0  0  0  0  0
   57.4200   31.7630   45.3980 C   0  0  0  0  0  0  0  0  0  0  0  0
   56.3800   31.2030   44.7500 N   0  0  0  0  0  0  0  0  0  0  0  0
   56.6380   29.9060   44.6500 N   0  0  0  0  0  0  0  0  0  0  0  0
   57.8280   29.6950   45.2460 C   0  0  0  0  0  0  0  0  0  0  0  0
   58.4890   28.3500   45.3290 C   0  0  0  0  0  0  0  0  0  0  0  0
   58.5230   27.5860   44.0150 C   0  0  0  0  0  0  0  0  0  0  0  0
   59.7920   28.2240   44.5530 C   0  0  0  0  0  0  0  0  0  0  0  0
   58.3610   30.8460   45.7030 N   0  0  0  0  0  0  0  0  0  0  0  0
   59.5940   31.0290   46.4660 C   0  0  0  0  0  0  0  0  0  0  0  0
   58.9638   32.1694   43.9645 H   0  0  0  0  0  0  0  0  0  0  0  0
   57.6598   32.7725   42.8863 H   0  0  0  0  0  0  0  0  0  0  0  0
   59.2675   33.5737   42.8863 H   0  0  0  0  0  0  0  0  0  0  0  0
   59.8012   35.0732   44.1085 H   0  0  0  0  0  0  0  0  0  0  0  0
   58.5709   35.9080   45.1796 H   0  0  0  0  0  0  0  0  0  0  0  0
   58.4406   35.4454   47.5647 H   0  0  0  0  0  0  0  0  0  0  0  0
   59.7299   34.8325   49.6046 H   0  0  0  0  0  0  0  0  0  0  0  0
   61.7050   33.8199   50.6381 H   0  0  0  0  0  0  0  0  0  0  0  0
   63.9009   32.6580   50.4098 H   0  0  0  0  0  0  0  0  0  0  0  0
   64.7986   32.1063   48.1489 H   0  0  0  0  0  0  0  0  0  0  0  0
   63.5083   32.7147   46.1034 H   0  0  0  0  0  0  0  0  0  0  0  0
   61.5337   33.7216   45.0716 H   0  0  0  0  0  0  0  0  0  0  0  0
   58.1608   33.3678   46.5901 H   0  0  0  0  0  0  0  0  0  0  0  0
   56.4967   33.6034   45.9296 H   0  0  0  0  0  0  0  0  0  0  0  0
   58.1734   28.1261   46.3587 H   0  0  0  0  0  0  0  0  0  0  0  0
   58.4164   26.4912   44.0127 H   0  0  0  0  0  0  0  0  0  0  0  0
   57.9656   27.6426   43.0684 H   0  0  0  0  0  0  0  0  0  0  0  0
   60.6040   27.5913   44.9407 H   0  0  0  0  0  0  0  0  0  0  0  0
   60.5337   28.9337   44.1578 H   0  0  0  0  0  0  0  0  0  0  0  0
   59.3678   30.9954   47.5420 H   0  0  0  0  0  0  0  0  0  0  0  0
   60.3030   30.2262   46.2152 H   0  0  0  0  0  0  0  0  0  0  0  0
   60.0393   32.0031   46.2152 H   0  0  0  0  0  0  0  0  0  0  0  0
  1  2  1  0
  2  3  1  0
  3  4  1  0
  4  5  2  0
  5  6  1  0
  6  7  2  0
  7  8  1  0
  8  9  2  0
  9 10  1  0
 10 11  2  0
 11 12  1  0
 12 13  2  0
  2 14  1  0
 14 15  1  0
 15 16  2  0
 16 17  1  0
 17 18  2  0
 18 19  1  0
 19 20  1  0
 20 21  1  0
 18 22  1  0
 22 23  1  0
 13  4  1  0
 22 15  1  0
 12  7  1  0
 21 19  1  0
  1 24  1  0
  1 25  1  0
  1 26  1  0
  3 27  1  0
  3 28  1  0
  5 29  1  0
  6 30  1  0
  8 31  1  0
  9 32  1  0
 10 33  1  0
 11 34  1  0
 13 35  1  0
 14 36  1  0
 14 37  1  0
 19 38  1  0
 20 39  1  0
 20 40  1  0
 21 41  1  0
 21 42  1  0
 23 43  1  0
 23 44  1  0
 23 45  1  0
M  END
>  <UniqueID>  (4) 
4

>  <SMILES>  (4) 
CN(Cc1ccc2ccccc2c1)Cc1nnc(C2CC2)n1C

>  <Energy>  (4) 
350.2548805170847

>  <Genealogy>  (4) 
CN(Cc1ccc2ccccc2c1)Cc1nnc(C2CC2)n1C (3D coordinates assigned)
CN(Cc1ccc2ccccc2c1)Cc1nnc(C2CC2)n1C (nonaromatic ring conformer: 350.2548805170847 kcal/mol)

>  <smiles>  (4) 
CN(Cc1ccc2ccccc2c1)Cc1nnc(C2CC2)n1C

>  <score_type>  (4) 
oracle

>  <origin>  (4) 
adg

>  <m_score__min__energy>  (4) 
-8.6799999999999997

>  <m_primary>  (4) 
energy

$$$$
4:0
     RDKit          3D

 35 37  0  0  0  0  0  0  0  0999 V2000
   63.1280   34.4990   50.6610 C   0  0  0  0  0  0  0  0  0  0  0  0
   62.7270   34.7780   49.3240 O   0  0  0  0  0  0  0  0  0  0  0  0
   61.9780   33.9040   48.5220 C   0  0  0  0  0  0  0  0  0  0  0  0
   62.5330   32.7470   47.9450 C   0  0  0  0  0  0  0  0  0  0  0  0
   61.7490   31.9040   47.1530 C   0  0  0  0  0  0  0  0  0  0  0  0
   60.3980   32.2020   46.9270 C   0  0  0  0  0  0  0  0  0  0  0  0
   59.6030   31.3610   46.1310 C   0  0  0  0  0  0  0  0  0  0  0  0
   58.2450   31.6630   45.9160 C   0  0  0  0  0  0  0  0  0  0  0  0
   57.4060   30.8410   45.0930 N   0  0  0  0  0  0  0  0  0  0  0  0
   57.0440   29.4760   45.3320 C   0  0  0  0  0  0  0  0  0  0  0  0
   55.8450   29.1110   45.2080 O   0  0  0  0  0  0  0  0  0  0  0  0
   58.0910   28.4820   45.6720 C   0  0  0  0  0  0  0  0  0  0  0  0
   58.5990   27.4950   44.8380 C   0  0  0  0  0  0  0  0  0  0  0  0
   58.1500   27.0790   43.0260 Br  0  0  0  0  0  0  0  0  0  0  0  0
   59.5410   26.8330   45.5960 C   0  0  0  0  0  0  0  0  0  0  0  0
   59.6030   27.3860   46.8210 N   0  0  0  0  0  0  0  0  0  0  0  0
   58.7290   28.3800   46.8640 N   0  0  0  0  0  0  0  0  0  0  0  0
   58.5330   29.2060   48.0520 C   0  0  0  0  0  0  0  0  0  0  0  0
   57.7050   32.8300   46.4690 C   0  0  0  0  0  0  0  0  0  0  0  0
   58.4870   33.6720   47.2610 C   0  0  0  0  0  0  0  0  0  0  0  0
   59.8340   33.3650   47.5000 C   0  0  0  0  0  0  0  0  0  0  0  0
   60.6300   34.2050   48.2930 C   0  0  0  0  0  0  0  0  0  0  0  0
   62.4317   34.9835   51.3613 H   0  0  0  0  0  0  0  0  0  0  0  0
   63.1181   33.4117   50.8274 H   0  0  0  0  0  0  0  0  0  0  0  0
   64.1440   34.8862   50.8274 H   0  0  0  0  0  0  0  0  0  0  0  0
   63.5918   32.5043   48.1186 H   0  0  0  0  0  0  0  0  0  0  0  0
   62.1937   31.0031   46.7051 H   0  0  0  0  0  0  0  0  0  0  0  0
   60.0434   30.4627   45.6737 H   0  0  0  0  0  0  0  0  0  0  0  0
   60.1487   25.9831   45.2521 H   0  0  0  0  0  0  0  0  0  0  0  0
   58.6786   28.5924   48.9533 H   0  0  0  0  0  0  0  0  0  0  0  0
   59.2603   30.0313   48.0488 H   0  0  0  0  0  0  0  0  0  0  0  0
   57.5125   29.6166   48.0488 H   0  0  0  0  0  0  0  0  0  0  0  0
   56.6526   33.0863   46.2772 H   0  0  0  0  0  0  0  0  0  0  0  0
   58.0452   34.5792   47.6990 H   0  0  0  0  0  0  0  0  0  0  0  0
   60.1906   35.1093   48.7394 H   0  0  0  0  0  0  0  0  0  0  0  0
  1  2  1  0
  2  3  1  0
  3  4  2  0
  4  5  1  0
  5  6  2  0
  6  7  1  0
  7  8  2  0
  8  9  1  0
  9 10  1  0
 10 11  2  0
 10 12  1  0
 12 13  2  0
 13 14  1  0
 13 15  1  0
 15 16  2  0
 16 17  1  0
 17 18  1  0
  8 19  1  0
 19 20  2  0
 20 21  1  0
 21 22  2  0
 22  3  1  0
 21  6  1  0
 17 12  1  0
  1 23  1  0
  1 24  1  0
  1 25  1  0
  4 26  1  0
  5 27  1  0
  7 28  1  0
 15 29  1  0
 18 30  1  0
 18 31  1  0
 18 32  1  0
 19 33  1  0
 20 34  1  0
 22 35  1  0
M  CHG  1   9  -1
M  END
>  <UniqueID>  (5) 
5

>  <SMILES>  (5) 
COc1ccc2cc([N-]C(=O)c3c(Br)cnn3C)ccc2c1

>  <Energy>  (5) 
74.67595938607586

>  <Genealogy>  (5) 
COc1ccc2cc([N-]C(=O)c3c(Br)cnn3C)ccc2c1 (protonated)
COc1ccc2cc([N-]C(=O)c3c(Br)cnn3C)ccc2c1 (3D coordinates assigned)
COc1ccc2cc([N-]C(=O)c3c(Br)cnn3C)ccc2c1 (optimized conformer: 74.67595938607586 kcal/mol)

>  <smiles>  (5) 
COc1ccc2cc(NC(=O)c3c(Br)cnn3C)ccc2c1

>  <score_type>  (5) 
oracle

>  <origin>  (5) 
adg

>  <m_score__min__energy>  (5) 
-8.6699999999999999

>  <m_primary>  (5) 
energy

$$$$
5:0
     RDKit          3D

 91 93  0  0  0  0  0  0  0  0999 V2000
   60.7830   26.5270   47.4150 C   0  0  0  0  0  0  0  0  0  0  0  0
   60.0640   26.3810   46.0780 C   0  0  0  0  0  0  0  0  0  0  0  0
   58.9370   25.3480   46.1660 C   0  0  0  0  0  0  0  0  0  0  0  0
   58.1240   25.3770   44.9300 N   0  0  0  0  0  0  0  0  0  0  0  0
   57.0220   24.3840   44.9440 C   0  0  0  0  0  0  0  0  0  0  0  0
   57.2860   23.1270   44.0840 C   0  0  0  0  0  0  0  0  0  0  0  0
   56.2250   22.9760   42.9980 C   0  0  0  0  0  0  0  0  0  0  0  0
   57.6950   26.7500   44.5740 C   0  0  0  0  0  0  0  0  0  0  0  0
   56.9400   27.4150   45.7300 C   0  0  0  0  0  0  0  0  0  0  0  0
   55.9270   28.3010   45.2510 O   0  0  0  0  0  0  0  0  0  0  0  0
   56.1990   29.5560   44.6990 C   0  0  0  0  0  0  0  0  0  0  0  0
   55.2940   30.4280   44.5960 O   0  0  0  0  0  0  0  0  0  0  0  0
   57.5600   29.8360   44.1390 C   0  0  0  0  0  0  0  0  0  0  0  0
   57.5960   31.2190   43.4860 C   0  0  0  0  0  0  0  0  0  0  0  0
   57.0080   32.2180   44.3910 N   0  0  0  0  0  0  0  0  0  0  0  0
   57.8360   33.4270   44.5070 C   0  0  0  0  0  0  0  0  0  0  0  0
   58.5730   33.4870   45.8230 C   0  0  0  0  0  0  0  0  0  0  0  0
   57.8810   33.2830   47.0380 C   0  0  0  0  0  0  0  0  0  0  0  0
   58.5750   33.2880   48.2590 C   0  0  0  0  0  0  0  0  0  0  0  0
   59.9530   33.5190   48.2430 C   0  0  0  0  0  0  0  0  0  0  0  0
   60.6240   33.7340   47.0720 C   0  0  0  0  0  0  0  0  0  0  0  0
   59.9630   33.7280   45.8440 C   0  0  0  0  0  0  0  0  0  0  0  0
   62.0850   33.8750   47.3230 C   0  0  0  0  0  0  0  0  0  0  0  0
   62.2130   33.6110   48.8420 C   0  0  0  0  0  0  0  0  0  0  0  0
   60.8460   33.4760   49.3440 N   0  0  0  0  0  0  0  0  0  0  0  0
   60.5090   33.0570   50.7050 C   0  0  0  0  0  0  0  0  0  0  0  0
   59.2440   33.7640   51.2020 C   0  0  0  0  0  0  0  0  0  0  0  0
   58.6580   33.0830   52.4400 C   0  0  0  0  0  0  0  0  0  0  0  0
   57.4420   32.3690   52.0730 N   0  0  0  0  0  0  0  0  0  0  0  0
   57.4100   31.0880   51.4310 C   0  0  0  0  0  0  0  0  0  0  0  0
   56.7300   30.1680   51.9600 O   0  0  0  0  0  0  0  0  0  0  0  0
   58.2190   30.8060   50.1870 C   0  0  0  0  0  0  0  0  0  0  0  0
   59.2950   29.7290   50.4190 C   0  0  0  0  0  0  0  0  0  0  0  0
   59.9040   29.2780   49.1460 N   0  0  0  0  0  0  0  0  0  0  0  0
   60.8860   30.2690   48.6230 C   0  0  0  0  0  0  0  0  0  0  0  0
   61.0770   30.1630   47.1050 C   0  0  0  0  0  0  0  0  0  0  0  0
   59.7590   30.4270   46.3600 C   0  0  0  0  0  0  0  0  0  0  0  0
   58.5240   30.0300   47.1860 C   0  0  0  0  0  0  0  0  0  0  0  0
   58.8610   28.8910   48.1590 C   0  0  0  0  0  0  0  0  0  0  0  0
   60.0649   26.3812   48.2354 H   0  0  0  0  0  0  0  0  0  0  0  0
   61.5801   25.7724   47.4870 H   0  0  0  0  0  0  0  0  0  0  0  0
   61.2226   27.5327   47.4870 H   0  0  0  0  0  0  0  0  0  0  0  0
   59.6377   27.3538   45.7916 H   0  0  0  0  0  0  0  0  0  0  0  0
   60.7913   26.0402   45.3264 H   0  0  0  0  0  0  0  0  0  0  0  0
   59.3714   24.3453   46.2925 H   0  0  0  0  0  0  0  0  0  0  0  0
   58.2943   25.5882   47.0258 H   0  0  0  0  0  0  0  0  0  0  0  0
   56.8615   24.0624   45.9836 H   0  0  0  0  0  0  0  0  0  0  0  0
   56.1432   24.8832   44.5098 H   0  0  0  0  0  0  0  0  0  0  0  0
   58.2751   23.2158   43.6109 H   0  0  0  0  0  0  0  0  0  0  0  0
   57.2493   22.2418   44.7359 H   0  0  0  0  0  0  0  0  0  0  0  0
   55.2392   22.8357   43.4655 H   0  0  0  0  0  0  0  0  0  0  0  0
   56.2089   23.8809   42.3728 H   0  0  0  0  0  0  0  0  0  0  0  0
   56.4620   22.1025   42.3728 H   0  0  0  0  0  0  0  0  0  0  0  0
   58.5836   27.3519   44.3332 H   0  0  0  0  0  0  0  0  0  0  0  0
   57.0197   26.6890   43.7078 H   0  0  0  0  0  0  0  0  0  0  0  0
   56.4702   26.6344   46.3464 H   0  0  0  0  0  0  0  0  0  0  0  0
   57.6595   28.0001   46.3217 H   0  0  0  0  0  0  0  0  0  0  0  0
   58.3004   29.7999   44.9517 H   0  0  0  0  0  0  0  0  0  0  0  0
   57.7950   29.0770   43.3783 H   0  0  0  0  0  0  0  0  0  0  0  0
   58.6392   31.4927   43.2698 H   0  0  0  0  0  0  0  0  0  0  0  0
   57.0159   31.1924   42.5517 H   0  0  0  0  0  0  0  0  0  0  0  0
   56.8730   31.7900   45.3380 H   0  0  0  0  0  0  0  0  0  0  0  0
   58.5708   33.4334   43.6885 H   0  0  0  0  0  0  0  0  0  0  0  0
   57.1694   34.3003   44.4522 H   0  0  0  0  0  0  0  0  0  0  0  0
   56.7933   33.1195   47.0275 H   0  0  0  0  0  0  0  0  0  0  0  0
   58.0453   33.1139   49.2072 H   0  0  0  0  0  0  0  0  0  0  0  0
   60.5148   33.9077   44.9096 H   0  0  0  0  0  0  0  0  0  0  0  0
   62.6573   33.1346   46.7449 H   0  0  0  0  0  0  0  0  0  0  0  0
   62.4804   34.8564   47.0221 H   0  0  0  0  0  0  0  0  0  0  0  0
   62.7797   32.6857   49.0228 H   0  0  0  0  0  0  0  0  0  0  0  0
   62.7498   34.4264   49.3489 H   0  0  0  0  0  0  0  0  0  0  0  0
   60.3406   31.9700   50.7150 H   0  0  0  0  0  0  0  0  0  0  0  0
   61.3433   33.3249   51.3699 H   0  0  0  0  0  0  0  0  0  0  0  0
   59.4943   34.8051   51.4540 H   0  0  0  0  0  0  0  0  0  0  0  0
   58.4918   33.7194   50.4006 H   0  0  0  0  0  0  0  0  0  0  0  0
   59.3912   32.3721   52.8488 H   0  0  0  0  0  0  0  0  0  0  0  0
   58.4213   33.8434   53.1988 H   0  0  0  0  0  0  0  0  0  0  0  0
   57.5392   30.4613   49.3939 H   0  0  0  0  0  0  0  0  0  0  0  0
   58.7315   31.7366   49.9017 H   0  0  0  0  0  0  0  0  0  0  0  0
   60.0833   30.1459   51.0630 H   0  0  0  0  0  0  0  0  0  0  0  0
   58.8142   28.8615   50.8947 H   0  0  0  0  0  0  0  0  0  0  0  0
   60.5279   31.2809   48.8635 H   0  0  0  0  0  0  0  0  0  0  0  0
   61.8563   30.0596   49.0970 H   0  0  0  0  0  0  0  0  0  0  0  0
   61.8248   30.9034   46.7848 H   0  0  0  0  0  0  0  0  0  0  0  0
   61.4142   29.1435   46.8664 H   0  0  0  0  0  0  0  0  0  0  0  0
   59.6958   31.4997   46.1249 H   0  0  0  0  0  0  0  0  0  0  0  0
   59.7623   29.8117   45.4482 H   0  0  0  0  0  0  0  0  0  0  0  0
   58.1776   30.9029   47.7589 H   0  0  0  0  0  0  0  0  0  0  0  0
   57.7368   29.6853   46.4993 H   0  0  0  0  0  0  0  0  0  0  0  0
   57.9473   28.6091   48.7028 H   0  0  0  0  0  0  0  0  0  0  0  0
   59.2540   28.0506   47.5681 H   0  0  0  0  0  0  0  0  0  0  0  0
  1  2  1  0
  2  3  1  0
  3  4  1  0
  4  5  1  0
  5  6  1  0
  6  7  1  0
  4  8  1  0
  8  9  1  0
  9 10  1  0
 10 11  1  0
 11 12  2  0
 11 13  1  0
 13 14  1  0
 14 15  1  0
 15 16  1  0
 16 17  1  0
 17 18  2  0
 18 19  1  0
 19 20  2  0
 20 21  1  0
 21 22  2  0
 21 23  1  0
 23 24  1  0
 24 25  1  0
 25 26  1  0
 26 27  1  0
 27 28  1  0
 28 29  1  0
 29 30  1  0
 30 31  2  0
 30 32  1  0
 32 33  1  0
 33 34  1  0
 34 35  1  0
 35 36  1  0
 36 37  1  0
 37 38  1  0
 38 39  1  0
 22 17  1  0
 39 34  1  0
 25 20  1  0
  1 40  1  0
  1 41  1  0
  1 42  1  0
  2 43  1  0
  2 44  1  0
  3 45  1  0
  3 46  1  0
  5 47  1  0
  5 48  1  0
  6 49  1  0
  6 50  1  0
  7 51  1  0
  7 52  1  0
  7 53  1  0
  8 54  1  0
  8 55  1  0
  9 56  1  0
  9 57  1  0
 13 58  1  0
 13 59  1  0
 14 60  1  0
 14 61  1  0
 15 62  1  0
 16 63  1  0
 16 64  1  0
 18 65  1  0
 19 66  1  0
 22 67  1  0
 23 68  1  0
 23 69  1  0
 24 70  1  0
 24 71  1  0
 26 72  1  0
 26 73  1  0
 27 74  1  0
 27 75  1  0
 28 76  1  0
 28 77  1  0
 32 78  1  0
 32 79  1  0
 33 80  1  0
 33 81  1  0
 35 82  1  0
 35 83  1  0
 36 84  1  0
 36 85  1  0
 37 86  1  0
 37 87  1  0
 38 88  1  0
 38 89  1  0
 39 90  1  0
 39 91  1  0
M  CHG  1  29  -1
M  END
>  <UniqueID>  (6) 
6

>  <SMILES>  (6) 
CCCN(CCC)CCOC(=O)CCNCc1ccc2c(c1)CCN2CCC[N-]C(=O)CCN1CCCCC1

>  <Energy>  (6) 
93.50733128197452

>  <Genealogy>  (6) 
CCCN(CCC)CCOC(=O)CCNCc1ccc2c(c1)CCN2CCC[N-]C(=O)CCN1CCCCC1 (protonated)
CCCN(CCC)CCOC(=O)CCNCc1ccc2c(c1)CCN2CCC[N-]C(=O)CCN1CCCCC1 (3D coordinates assigned)
CCCN(CCC)CCOC(=O)CCNCc1ccc2c(c1)CCN2CCC[N-]C(=O)CCN1CCCCC1 (nonaromatic ring conformer: 93.50733128197452 kcal/mol)

>  <smiles>  (6) 
CCCN(CCC)CCOC(=O)CCNCc1ccc2c(c1)CCN2CCCNC(=O)CCN1CCCCC1

>  <score_type>  (6) 
oracle

>  <origin>  (6) 
adg

>  <m_score__min__energy>  (6) 
-10.119999999999999

>  <m_primary>  (6) 
energy

$$$$
6:0
     RDKit          3D

 72 75  0  0  0  0  0  0  0  0999 V2000
   63.2990   33.8300   46.4920 C   0  0  0  0  0  0  0  0  0  0  0  0
   63.3540   32.4760   47.1920 C   0  0  0  0  0  0  0  0  0  0  0  0
   63.0120   32.6260   48.6250 N   0  0  0  0  0  0  0  0  0  0  0  0
   64.0430   31.9980   49.4820 C   0  0  0  0  0  0  0  0  0  0  0  0
   63.3990   31.0360   50.4800 C   0  0  0  0  0  0  0  0  0  0  0  0
   62.8210   34.0520   48.9800 C   0  0  0  0  0  0  0  0  0  0  0  0
   62.2420   34.1770   50.3900 C   0  0  0  0  0  0  0  0  0  0  0  0
   61.0710   33.3900   50.4790 O   0  0  0  0  0  0  0  0  0  0  0  0
   60.5650   33.3900   51.8030 C   0  0  0  0  0  0  0  0  0  0  0  0
   59.1270   33.9230   51.8600 C   0  0  0  0  0  0  0  0  0  0  0  0
   58.0880   32.8230   51.6220 C   0  0  0  0  0  0  0  0  0  0  0  0
   58.3370   32.1820   50.3230 N   0  0  0  0  0  0  0  0  0  0  0  0
   58.5190   30.7300   50.4580 C   0  0  0  0  0  0  0  0  0  0  0  0
   59.9020   30.3130   49.9470 C   0  0  0  0  0  0  0  0  0  0  0  0
   60.3850   31.2460   48.9290 N   0  0  0  0  0  0  0  0  0  0  0  0
   59.7830   31.2940   47.6280 C   0  0  0  0  0  0  0  0  0  0  0  0
   59.4130   30.1200   46.9740 C   0  0  0  0  0  0  0  0  0  0  0  0
   58.7750   30.1660   45.7480 C   0  0  0  0  0  0  0  0  0  0  0  0
   58.3890   31.3510   45.1730 N   0  0  0  0  0  0  0  0  0  0  0  0
   57.4280   31.3540   44.0590 C   0  0  0  0  0  0  0  0  0  0  0  0
   58.8570   32.5340   45.7210 C   0  0  0  0  0  0  0  0  0  0  0  0
   58.6930   33.7770   45.0630 C   0  0  0  0  0  0  0  0  0  0  0  0
   59.1200   34.9650   45.6570 C   0  0  0  0  0  0  0  0  0  0  0  0
   59.7330   34.9470   46.9060 C   0  0  0  0  0  0  0  0  0  0  0  0
   59.9480   33.7380   47.5640 C   0  0  0  0  0  0  0  0  0  0  0  0
   59.5330   32.5230   46.9830 C   0  0  0  0  0  0  0  0  0  0  0  0
   58.5240   28.7820   45.3250 C   0  0  0  0  0  0  0  0  0  0  0  0
   58.1160   28.2460   44.0920 C   0  0  0  0  0  0  0  0  0  0  0  0
   58.0420   26.8510   43.9550 C   0  0  0  0  0  0  0  0  0  0  0  0
   58.4150   26.0100   45.0190 C   0  0  0  0  0  0  0  0  0  0  0  0
   58.8870   26.5580   46.2210 C   0  0  0  0  0  0  0  0  0  0  0  0
   58.9440   27.9470   46.3480 C   0  0  0  0  0  0  0  0  0  0  0  0
   59.5430   28.7130   47.4820 C   0  0  0  0  0  0  0  0  0  0  0  0
   63.2665   34.6311   47.2451 H   0  0  0  0  0  0  0  0  0  0  0  0
   64.1928   33.9542   45.8630 H   0  0  0  0  0  0  0  0  0  0  0  0
   62.3980   33.8813   45.8630 H   0  0  0  0  0  0  0  0  0  0  0  0
   62.6355   31.7920   46.7168 H   0  0  0  0  0  0  0  0  0  0  0  0
   64.3726   32.0695   47.1071 H   0  0  0  0  0  0  0  0  0  0  0  0
   64.7501   31.4422   48.8487 H   0  0  0  0  0  0  0  0  0  0  0  0
   64.5702   32.7867   50.0389 H   0  0  0  0  0  0  0  0  0  0  0  0
   63.6212   31.3679   51.5049 H   0  0  0  0  0  0  0  0  0  0  0  0
   62.3098   31.0235   50.3267 H   0  0  0  0  0  0  0  0  0  0  0  0
   63.8025   30.0242   50.3267 H   0  0  0  0  0  0  0  0  0  0  0  0
   63.7912   34.5688   48.9394 H   0  0  0  0  0  0  0  0  0  0  0  0
   62.1202   34.5072   48.2647 H   0  0  0  0  0  0  0  0  0  0  0  0
   62.9806   33.8233   51.1245 H   0  0  0  0  0  0  0  0  0  0  0  0
   61.9990   35.2291   50.5997 H   0  0  0  0  0  0  0  0  0  0  0  0
   60.5794   32.3606   52.1903 H   0  0  0  0  0  0  0  0  0  0  0  0
   61.1999   34.0492   52.4132 H   0  0  0  0  0  0  0  0  0  0  0  0
   58.9529   34.3650   52.8521 H   0  0  0  0  0  0  0  0  0  0  0  0
   59.0139   34.6705   51.0610 H   0  0  0  0  0  0  0  0  0  0  0  0
   58.1615   32.0709   52.4214 H   0  0  0  0  0  0  0  0  0  0  0  0
   57.0809   33.2653   51.6239 H   0  0  0  0  0  0  0  0  0  0  0  0
   59.2280   32.5810   49.9420 H   0  0  0  0  0  0  0  0  0  0  0  0
   58.4251   30.4503   51.5177 H   0  0  0  0  0  0  0  0  0  0  0  0
   57.7498   30.2179   49.8612 H   0  0  0  0  0  0  0  0  0  0  0  0
   60.6090   30.3016   50.7896 H   0  0  0  0  0  0  0  0  0  0  0  0
   59.8238   29.3120   49.4978 H   0  0  0  0  0  0  0  0  0  0  0  0
   61.2890   31.7550   49.0660 H   0  0  0  0  0  0  0  0  0  0  0  0
   56.4032   31.3572   44.4588 H   0  0  0  0  0  0  0  0  0  0  0  0
   57.5839   32.2517   43.4426 H   0  0  0  0  0  0  0  0  0  0  0  0
   57.5783   30.4554   43.4426 H   0  0  0  0  0  0  0  0  0  0  0  0
   58.2222   33.8064   44.0693 H   0  0  0  0  0  0  0  0  0  0  0  0
   58.9712   35.9216   45.1348 H   0  0  0  0  0  0  0  0  0  0  0  0
   60.0489   35.8904   47.3753 H   0  0  0  0  0  0  0  0  0  0  0  0
   60.4457   33.7317   48.5449 H   0  0  0  0  0  0  0  0  0  0  0  0
   57.8596   28.9066   43.2506 H   0  0  0  0  0  0  0  0  0  0  0  0
   57.6900   26.4127   43.0095 H   0  0  0  0  0  0  0  0  0  0  0  0
   58.3363   24.9184   44.9081 H   0  0  0  0  0  0  0  0  0  0  0  0
   59.2060   25.9059   47.0474 H   0  0  0  0  0  0  0  0  0  0  0  0
   58.9769   28.5654   48.4135 H   0  0  0  0  0  0  0  0  0  0  0  0
   60.5704   28.4156   47.7389 H   0  0  0  0  0  0  0  0  0  0  0  0
  1  2  1  0
  2  3  1  0
  3  4  1  0
  4  5  1  0
  3  6  1  0
  6  7  1  0
  7  8  1  0
  8  9  1  0
  9 10  1  0
 10 11  1  0
 11 12  1  0
 12 13  1  0
 13 14  1  0
 14 15  1  0
 15 16  1  0
 16 17  2  0
 17 18  1  0
 18 19  2  0
 19 20  1  0
 19 21  1  0
 21 22  2  0
 22 23  1  0
 23 24  2  0
 24 25  1  0
 25 26  2  0
 18 27  1  0
 27 28  2  0
 28 29  1  0
 29 30  2  0
 30 31  1  0
 31 32  2  0
 32 33  1  0
 26 16  1  0
 32 27  1  0
 33 17  1  0
 26 21  1  0
  1 34  1  0
  1 35  1  0
  1 36  1  0
  2 37  1  0
  2 38  1  0
  4 39  1  0
  4 40  1  0
  5 41  1  0
  5 42  1  0
  5 43  1  0
  6 44  1  0
  6 45  1  0
  7 46  1  0
  7 47  1  0
  9 48  1  0
  9 49  1  0
 10 50  1  0
 10 51  1  0
 11 52  1  0
 11 53  1  0
 12 54  1  0
 13 55  1  0
 13 56  1  0
 14 57  1  0
 14 58  1  0
 15 59  1  0
 20 60  1  0
 20 61  1  0
 20 62  1  0
 22 63  1  0
 23 64  1  0
 24 65  1  0
 25 66  1  0
 28 67  1  0
 29 68  1  0
 30 69  1  0
 31 70  1  0
 33 71  1  0
 33 72  1  0
M  CHG  1  19   1
M  END
>  <UniqueID>  (7) 
7

>  <SMILES>  (7) 
CCN(CC)CCOCCCNCCNc1c2c([n+](C)c3ccccc13)-c1ccccc1C2

>  <Energy>  (7) 
110.99605201997242

>  <Genealogy>  (7) 
CCN(CC)CCOCCCNCCNc1c2c([n+](C)c3ccccc13)-c1ccccc1C2 (3D coordinates assigned)
CCN(CC)CCOCCCNCCNc1c2c([n+](C)c3ccccc13)-c1ccccc1C2 (nonaromatic ring conformer: 110.99605201997242 kcal/mol)

>  <smiles>  (7) 
CCN(CC)CCOCCCNCCNc1c2c([n+](C)c3ccccc13)-c1ccccc1C2

>  <score_type>  (7) 
oracle

>  <origin>  (7) 
adg

>  <m_score__min__energy>  (7) 
-6.4400000000000004

>  <m_primary>  (7) 
energy

$$$$
7:0
     RDKit          3D

 82 87  0  0  0  0  0  0  0  0999 V2000
   58.0180   32.6340   42.9120 C   0  0  0  0  0  0  0  0  0  0  0  0
   58.3140   32.9170   44.3270 N   0  0  0  0  0  0  0  0  0  0  0  0
   58.6640   34.1980   44.6540 C   0  0  0  0  0  0  0  0  0  0  0  0
   58.9710   34.5520   45.9620 C   0  0  0  0  0  0  0  0  0  0  0  0
   58.9330   33.5890   46.9650 C   0  0  0  0  0  0  0  0  0  0  0  0
   59.2440   33.9460   48.2870 C   0  0  0  0  0  0  0  0  0  0  0  0
   59.2090   32.9890   49.3010 C   0  0  0  0  0  0  0  0  0  0  0  0
   59.6340   33.4830   51.0970 Br  0  0  0  0  0  0  0  0  0  0  0  0
   58.8650   31.6710   49.0030 C   0  0  0  0  0  0  0  0  0  0  0  0
   58.5530   31.3030   47.6920 C   0  0  0  0  0  0  0  0  0  0  0  0
   58.5780   32.2560   46.6460 C   0  0  0  0  0  0  0  0  0  0  0  0
   58.2620   31.9290   45.2950 C   0  0  0  0  0  0  0  0  0  0  0  0
   57.8410   30.5040   44.9400 C   0  0  0  0  0  0  0  0  0  0  0  0
   58.8670   29.8400   44.1230 N   0  0  0  0  0  0  0  0  0  0  0  0
   59.2930   28.5700   44.7220 C   0  0  0  0  0  0  0  0  0  0  0  0
   60.5710   28.7830   45.5380 C   0  0  0  0  0  0  0  0  0  0  0  0
   60.3210   28.5270   47.0340 C   0  0  0  0  0  0  0  0  0  0  0  0
   60.6610   27.0830   47.4570 C   0  0  0  0  0  0  0  0  0  0  0  0
   60.2410   26.7540   48.8290 N   0  0  0  0  0  0  0  0  0  0  0  0
   60.6460   27.7750   49.8050 C   0  0  0  0  0  0  0  0  0  0  0  0
   61.2820   27.1180   51.0390 C   0  0  0  0  0  0  0  0  0  0  0  0
   62.4530   27.9270   51.6350 C   0  0  0  0  0  0  0  0  0  0  0  0
   62.0660   29.2790   52.0920 N   0  0  0  0  0  0  0  0  0  0  0  0
   63.0820   30.2690   51.7740 C   0  0  0  0  0  0  0  0  0  0  0  0
   63.0310   30.9330   50.5400 C   0  0  0  0  0  0  0  0  0  0  0  0
   64.0070   31.8370   50.1700 C   0  0  0  0  0  0  0  0  0  0  0  0
   65.1270   32.0460   50.9310 N   0  0  0  0  0  0  0  0  0  0  0  0
   66.2940   32.7330   50.3520 C   0  0  0  0  0  0  0  0  0  0  0  0
   65.1540   31.5410   52.2200 C   0  0  0  0  0  0  0  0  0  0  0  0
   66.1590   31.9350   53.1370 C   0  0  0  0  0  0  0  0  0  0  0  0
   66.2110   31.4030   54.4220 C   0  0  0  0  0  0  0  0  0  0  0  0
   65.2600   30.4800   54.8330 C   0  0  0  0  0  0  0  0  0  0  0  0
   64.2340   30.0950   53.9730 C   0  0  0  0  0  0  0  0  0  0  0  0
   64.1440   30.6190   52.6620 C   0  0  0  0  0  0  0  0  0  0  0  0
   63.6250   32.4140   48.8740 C   0  0  0  0  0  0  0  0  0  0  0  0
   64.1320   33.5080   48.1570 C   0  0  0  0  0  0  0  0  0  0  0  0
   63.4940   33.8900   46.9650 C   0  0  0  0  0  0  0  0  0  0  0  0
   62.3410   33.2150   46.5290 C   0  0  0  0  0  0  0  0  0  0  0  0
   61.8040   32.1690   47.2920 C   0  0  0  0  0  0  0  0  0  0  0  0
   62.4570   31.7920   48.4680 C   0  0  0  0  0  0  0  0  0  0  0  0
   61.9780   30.7990   49.4730 C   0  0  0  0  0  0  0  0  0  0  0  0
   57.2243   31.8751   42.8481 H   0  0  0  0  0  0  0  0  0  0  0  0
   57.6837   33.5570   42.4156 H   0  0  0  0  0  0  0  0  0  0  0  0
   58.9250   32.2586   42.4156 H   0  0  0  0  0  0  0  0  0  0  0  0
   58.7033   34.9638   43.8653 H   0  0  0  0  0  0  0  0  0  0  0  0
   59.2431   35.5901   46.2035 H   0  0  0  0  0  0  0  0  0  0  0  0
   59.5164   34.9851   48.5239 H   0  0  0  0  0  0  0  0  0  0  0  0
   58.8392   30.9175   49.8040 H   0  0  0  0  0  0  0  0  0  0  0  0
   58.2846   30.2596   47.4699 H   0  0  0  0  0  0  0  0  0  0  0  0
   57.6930   29.9310   45.8672 H   0  0  0  0  0  0  0  0  0  0  0  0
   56.9066   30.5484   44.3613 H   0  0  0  0  0  0  0  0  0  0  0  0
   58.4350   29.6280   43.1920 H   0  0  0  0  0  0  0  0  0  0  0  0
   58.4976   28.1925   45.3814 H   0  0  0  0  0  0  0  0  0  0  0  0
   59.4902   27.8402   43.9230 H   0  0  0  0  0  0  0  0  0  0  0  0
   61.3461   28.0898   45.1794 H   0  0  0  0  0  0  0  0  0  0  0  0
   60.8970   29.8259   45.4114 H   0  0  0  0  0  0  0  0  0  0  0  0
   60.9436   29.2205   47.6183 H   0  0  0  0  0  0  0  0  0  0  0  0
   59.2488   28.6843   47.2229 H   0  0  0  0  0  0  0  0  0  0  0  0
   60.1590   26.3910   46.7648 H   0  0  0  0  0  0  0  0  0  0  0  0
   61.7564   26.9879   47.4245 H   0  0  0  0  0  0  0  0  0  0  0  0
   59.2050   26.6220   48.8740 H   0  0  0  0  0  0  0  0  0  0  0  0
   61.3767   28.4520   49.3384 H   0  0  0  0  0  0  0  0  0  0  0  0
   59.7553   28.3377   50.1212 H   0  0  0  0  0  0  0  0  0  0  0  0
   60.5072   27.0067   51.8119 H   0  0  0  0  0  0  0  0  0  0  0  0
   61.6910   26.1499   50.7143 H   0  0  0  0  0  0  0  0  0  0  0  0
   62.8575   27.3719   52.4942 H   0  0  0  0  0  0  0  0  0  0  0  0
   63.1958   28.0573   50.8342 H   0  0  0  0  0  0  0  0  0  0  0  0
   61.1820   29.5380   51.5980 H   0  0  0  0  0  0  0  0  0  0  0  0
   61.7920   29.2820   53.0950 H   0  0  0  0  0  0  0  0  0  0  0  0
   66.9359   33.1109   51.1614 H   0  0  0  0  0  0  0  0  0  0  0  0
   66.8645   32.0266   49.7311 H   0  0  0  0  0  0  0  0  0  0  0  0
   65.9532   33.5746   49.7311 H   0  0  0  0  0  0  0  0  0  0  0  0
   66.9120   32.6749   52.8279 H   0  0  0  0  0  0  0  0  0  0  0  0
   67.0077   31.7149   55.1133 H   0  0  0  0  0  0  0  0  0  0  0  0
   65.3166   30.0498   55.8438 H   0  0  0  0  0  0  0  0  0  0  0  0
   63.4812   29.3714   54.3191 H   0  0  0  0  0  0  0  0  0  0  0  0
   65.0130   34.0567   48.5214 H   0  0  0  0  0  0  0  0  0  0  0  0
   63.8990   34.7217   46.3699 H   0  0  0  0  0  0  0  0  0  0  0  0
   61.8581   33.5087   45.5853 H   0  0  0  0  0  0  0  0  0  0  0  0
   60.8861   31.6549   46.9710 H   0  0  0  0  0  0  0  0  0  0  0  0
   60.9806   31.0615   49.8555 H   0  0  0  0  0  0  0  0  0  0  0  0
   61.8609   29.7785   49.0795 H   0  0  0  0  0  0  0  0  0  0  0  0
  1  2  1  0
  2  3  2  0
  3  4  1  0
  4  5  2  0
  5  6  1  0
  6  7  2  0
  7  8  1  0
  7  9  1  0
  9 10  2  0
 10 11  1  0
 11 12  2  0
 12 13  1  0
 13 14  1  0
 14 15  1  0
 15 16  1  0
 16 17  1  0
 17 18  1  0
 18 19  1  0
 19 20  1  0
 20 21  1  0
 21 22  1  0
 22 23  1  0
 23 24  1  0
 24 25  2  0
 25 26  1  0
 26 27  2  0
 27 28  1  0
 27 29  1  0
 29 30  2  0
 30 31  1  0
 31 32  2  0
 32 33  1  0
 33 34  2  0
 26 35  1  0
 35 36  2  0
 36 37  1  0
 37 38  2  0
 38 39  1  0
 39 40  2  0
 40 41  1  0
 12  2  1  0
 34 24  1  0
 40 35  1  0
 11  5  1  0
 41 25  1  0
 34 29  1  0
  1 42  1  0
  1 43  1  0
  1 44  1  0
  3 45  1  0
  4 46  1  0
  6 47  1  0
  9 48  1  0
 10 49  1  0
 13 50  1  0
 13 51  1  0
 14 52  1  0
 15 53  1  0
 15 54  1  0
 16 55  1  0
 16 56  1  0
 17 57  1  0
 17 58  1  0
 18 59  1  0
 18 60  1  0
 19 61  1  0
 20 62  1  0
 20 63  1  0
 21 64  1  0
 21 65  1  0
 22 66  1  0
 22 67  1  0
 23 68  1  0
 23 69  1  0
 28 70  1  0
 28 71  1  0
 28 72  1  0
 30 73  1  0
 31 74  1  0
 32 75  1  0
 33 76  1  0
 36 77  1  0
 37 78  1  0
 38 79  1  0
 39 80  1  0
 41 81  1  0
 41 82  1  0
M  CHG  3   2   1  23   1  27   1
M  END
>  <UniqueID>  (8) 
8

>  <SMILES>  (8) 
C[n+]1ccc2cc(Br)ccc2c1CNCCCCNCCC[NH2+]c1c2c([n+](C)c3ccccc13)-c1ccccc1C2

>  <Energy>  (8) 
135.3264337535968

>  <Genealogy>  (8) 
C[n+]1ccc2cc(Br)ccc2c1CNCCCCNCCC[NH2+]c1c2c([n+](C)c3ccccc13)-c1ccccc1C2 (protonated)
C[n+]1ccc2cc(Br)ccc2c1CNCCCCNCCC[NH2+]c1c2c([n+](C)c3ccccc13)-c1ccccc1C2 (3D coordinates assigned)
C[n+]1ccc2cc(Br)ccc2c1CNCCCCNCCC[NH2+]c1c2c([n+](C)c3ccccc13)-c1ccccc1C2 (nonaromatic ring conformer: 135.3264337535968 kcal/mol)

>  <smiles>  (8) 
C[n+]1ccc2cc(Br)ccc2c1CNCCCCNCCCNc1c2c([n+](C)c3ccccc13)-c1ccccc1C2

>  <score_type>  (8) 
oracle

>  <origin>  (8) 
adg

>  <m_score__min__energy>  (8) 
-5.5099999999999998

>  <m_primary>  (8) 
energy

$$$$
8:0
     RDKit          3D

 89 92  0  0  0  0  0  0  0  0999 V2000
   64.6880   31.7900   50.4250 C   0  0  0  0  0  0  0  0  0  0  0  0
   64.8890   32.8980   49.3950 C   0  0  0  0  0  0  0  0  0  0  0  0
   63.5650   33.4120   48.9520 N   0  0  0  0  0  0  0  0  0  0  0  0
   63.1670   32.8350   47.6500 C   0  0  0  0  0  0  0  0  0  0  0  0
   63.3760   33.8400   46.5200 C   0  0  0  0  0  0  0  0  0  0  0  0
   62.5080   33.1730   49.9620 C   0  0  0  0  0  0  0  0  0  0  0  0
   61.3760   34.2160   49.8780 C   0  0  0  0  0  0  0  0  0  0  0  0
   60.0370   33.5890   49.8130 N   0  0  0  0  0  0  0  0  0  0  0  0
   59.8960   32.7400   48.6330 C   0  0  0  0  0  0  0  0  0  0  0  0
   59.6880   33.3790   47.3680 C   0  0  0  0  0  0  0  0  0  0  0  0
   59.8940   34.7730   47.1760 C   0  0  0  0  0  0  0  0  0  0  0  0
   59.6400   35.3780   45.9450 C   0  0  0  0  0  0  0  0  0  0  0  0
   59.1700   34.6270   44.8800 C   0  0  0  0  0  0  0  0  0  0  0  0
   58.9450   33.2630   45.0420 C   0  0  0  0  0  0  0  0  0  0  0  0
   59.1940   32.6220   46.2810 C   0  0  0  0  0  0  0  0  0  0  0  0
   58.9250   31.2910   46.4460 N   0  0  0  0  0  0  0  0  0  0  0  0
   57.8710   30.6670   45.6170 C   0  0  0  0  0  0  0  0  0  0  0  0
   59.5060   30.5950   47.4830 C   0  0  0  0  0  0  0  0  0  0  0  0
   59.7340   29.1930   47.3830 C   0  0  0  0  0  0  0  0  0  0  0  0
   59.7980   28.4590   46.0630 C   0  0  0  0  0  0  0  0  0  0  0  0
   60.0410   28.4590   48.5210 C   0  0  0  0  0  0  0  0  0  0  0  0
   60.2940   29.0860   49.7370 C   0  0  0  0  0  0  0  0  0  0  0  0
   60.5830   28.3390   50.8970 O   0  0  0  0  0  0  0  0  0  0  0  0
   61.8700   27.7920   51.1880 C   0  0  0  0  0  0  0  0  0  0  0  0
   62.8170   28.8000   51.8830 C   0  0  0  0  0  0  0  0  0  0  0  0
   63.8690   28.2430   52.8080 N   0  0  0  0  0  0  0  0  0  0  0  0
   63.4060   28.2690   54.2250 C   0  0  0  0  0  0  0  0  0  0  0  0
   64.1140   26.8070   52.4240 C   0  0  0  0  0  0  0  0  0  0  0  0
   65.5560   26.3480   52.7110 C   0  0  0  0  0  0  0  0  0  0  0  0
   66.5610   27.1190   51.9090 N   0  0  0  0  0  0  0  0  0  0  0  0
   66.8240   26.4120   50.6300 C   0  0  0  0  0  0  0  0  0  0  0  0
   67.8350   27.1810   52.6680 C   0  0  0  0  0  0  0  0  0  0  0  0
   66.0860   28.5070   51.6080 C   0  0  0  0  0  0  0  0  0  0  0  0
   65.1340   29.0440   52.6970 C   0  0  0  0  0  0  0  0  0  0  0  0
   60.2970   30.4900   49.8080 C   0  0  0  0  0  0  0  0  0  0  0  0
   60.7110   31.0420   51.0180 O   0  0  0  0  0  0  0  0  0  0  0  0
   59.9330   30.9350   52.2070 C   0  0  0  0  0  0  0  0  0  0  0  0
   59.8970   31.2900   48.6760 C   0  0  0  0  0  0  0  0  0  0  0  0
   64.7646   32.2125   51.4377 H   0  0  0  0  0  0  0  0  0  0  0  0
   63.6935   31.3397   50.2898 H   0  0  0  0  0  0  0  0  0  0  0  0
   65.4610   31.0191   50.2898 H   0  0  0  0  0  0  0  0  0  0  0  0
   65.4676   33.7173   49.8465 H   0  0  0  0  0  0  0  0  0  0  0  0
   65.4345   32.4970   48.5280 H   0  0  0  0  0  0  0  0  0  0  0  0
   63.7748   31.9397   47.4523 H   0  0  0  0  0  0  0  0  0  0  0  0
   62.0994   32.5737   47.6939 H   0  0  0  0  0  0  0  0  0  0  0  0
   63.5825   34.8329   46.9459 H   0  0  0  0  0  0  0  0  0  0  0  0
   64.2274   33.5227   45.8999 H   0  0  0  0  0  0  0  0  0  0  0  0
   62.4687   33.8885   45.8999 H   0  0  0  0  0  0  0  0  0  0  0  0
   62.0809   32.1727   49.7979 H   0  0  0  0  0  0  0  0  0  0  0  0
   62.9681   33.2534   50.9579 H   0  0  0  0  0  0  0  0  0  0  0  0
   61.4219   34.8601   50.7685 H   0  0  0  0  0  0  0  0  0  0  0  0
   61.5209   34.7956   48.9544 H   0  0  0  0  0  0  0  0  0  0  0  0
   59.8710   33.0210   50.6720 H   0  0  0  0  0  0  0  0  0  0  0  0
   59.3230   34.3190   49.9330 H   0  0  0  0  0  0  0  0  0  0  0  0
   60.2602   35.3852   48.0133 H   0  0  0  0  0  0  0  0  0  0  0  0
   59.8138   36.4569   45.8193 H   0  0  0  0  0  0  0  0  0  0  0  0
   58.9753   35.1070   43.9096 H   0  0  0  0  0  0  0  0  0  0  0  0
   58.5676   32.6727   44.1940 H   0  0  0  0  0  0  0  0  0  0  0  0
   57.1095   30.2162   46.2704 H   0  0  0  0  0  0  0  0  0  0  0  0
   57.4022   31.4332   44.9820 H   0  0  0  0  0  0  0  0  0  0  0  0
   58.3174   29.8875   44.9820 H   0  0  0  0  0  0  0  0  0  0  0  0
   59.8922   27.3788   46.2483 H   0  0  0  0  0  0  0  0  0  0  0  0
   58.8794   28.6540   45.4901 H   0  0  0  0  0  0  0  0  0  0  0  0
   60.6689   28.8101   45.4901 H   0  0  0  0  0  0  0  0  0  0  0  0
   60.0850   27.3616   48.4600 H   0  0  0  0  0  0  0  0  0  0  0  0
   61.7392   26.9223   51.8487 H   0  0  0  0  0  0  0  0  0  0  0  0
   62.3327   27.5159   50.2290 H   0  0  0  0  0  0  0  0  0  0  0  0
   63.3369   29.3620   51.0932 H   0  0  0  0  0  0  0  0  0  0  0  0
   62.1612   29.3984   52.5326 H   0  0  0  0  0  0  0  0  0  0  0  0
   64.2762   28.2201   54.8960 H   0  0  0  0  0  0  0  0  0  0  0  0
   62.8504   29.1998   54.4122 H   0  0  0  0  0  0  0  0  0  0  0  0
   62.7497   27.4063   54.4122 H   0  0  0  0  0  0  0  0  0  0  0  0
   63.4224   26.1685   52.9932 H   0  0  0  0  0  0  0  0  0  0  0  0
   63.9501   26.7225   51.3396 H   0  0  0  0  0  0  0  0  0  0  0  0
   65.7686   26.4929   53.7805 H   0  0  0  0  0  0  0  0  0  0  0  0
   65.6375   25.2879   52.4291 H   0  0  0  0  0  0  0  0  0  0  0  0
   67.2004   25.4002   50.8410 H   0  0  0  0  0  0  0  0  0  0  0  0
   65.8914   26.3429   50.0507 H   0  0  0  0  0  0  0  0  0  0  0  0
   67.5750   26.9692   50.0507 H   0  0  0  0  0  0  0  0  0  0  0  0
   67.6200   27.1705   53.7467 H   0  0  0  0  0  0  0  0  0  0  0  0
   68.4582   26.3121   52.4099 H   0  0  0  0  0  0  0  0  0  0  0  0
   68.3709   28.1063   52.4099 H   0  0  0  0  0  0  0  0  0  0  0  0
   66.9585   29.1734   51.5397 H   0  0  0  0  0  0  0  0  0  0  0  0
   65.5314   28.4766   50.6585 H   0  0  0  0  0  0  0  0  0  0  0  0
   65.6550   29.0147   53.6653 H   0  0  0  0  0  0  0  0  0  0  0  0
   64.8537   30.0700   52.4163 H   0  0  0  0  0  0  0  0  0  0  0  0
   60.5901   31.0254   53.0845 H   0  0  0  0  0  0  0  0  0  0  0  0
   59.1818   31.7383   52.2272 H   0  0  0  0  0  0  0  0  0  0  0  0
   59.4265   29.9587   52.2272 H   0  0  0  0  0  0  0  0  0  0  0  0
  1  2  1  0
  2  3  1  0
  3  4  1  0
  4  5  1  0
  3  6  1  0
  6  7  1  0
  7  8  1  0
  8  9  1  0
  9 10  2  0
 10 11  1  0
 11 12  2  0
 12 13  1  0
 13 14  2  0
 14 15  1  0
 15 16  2  0
 16 17  1  0
 16 18  1  0
 18 19  2  0
 19 20  1  0
 19 21  1  0
 21 22  2  0
 22 23  1  0
 23 24  1  0
 24 25  1  0
 25 26  1  0
 26 27  1  0
 26 28  1  0
 28 29  1  0
 29 30  1  0
 30 31  1  0
 30 32  1  0
 30 33  1  0
 33 34  1  0
 22 35  1  0
 35 36  1  0
 36 37  1  0
 35 38  2  0
 38  9  1  0
 15 10  1  0
 38 18  1  0
 34 26  1  0
  1 39  1  0
  1 40  1  0
  1 41  1  0
  2 42  1  0
  2 43  1  0
  4 44  1  0
  4 45  1  0
  5 46  1  0
  5 47  1  0
  5 48  1  0
  6 49  1  0
  6 50  1  0
  7 51  1  0
  7 52  1  0
  8 53  1  0
  8 54  1  0
 11 55  1  0
 12 56  1  0
 13 57  1  0
 14 58  1  0
 17 59  1  0
 17 60  1  0
 17 61  1  0
 20 62  1  0
 20 63  1  0
 20 64  1  0
 21 65  1  0
 24 66  1  0
 24 67  1  0
 25 68  1  0
 25 69  1  0
 27 70  1  0
 27 71  1  0
 27 72  1  0
 28 73  1  0
 28 74  1  0
 29 75  1  0
 29 76  1  0
 31 77  1  0
 31 78  1  0
 31 79  1  0
 32 80  1  0
 32 81  1  0
 32 82  1  0
 33 83  1  0
 33 84  1  0
 34 85  1  0
 34 86  1  0
 37 87  1  0
 37 88  1  0
 37 89  1  0
M  CHG  4   8   1  16   1  26   1  30   1
M  END
>  <UniqueID>  (9) 
9

>  <SMILES>  (9) 
CCN(CC)CC[NH2+]c1c2ccccc2[n+](C)c2c(C)cc(OCC[N+]3(C)CC[N+](C)(C)CC3)c(OC)c12

>  <Energy>  (9) 
170.51038794967894

>  <Genealogy>  (9) 
CCN(CC)CC[NH2+]c1c2ccccc2[n+](C)c2c(C)cc(OCC[N+]3(C)CC[N+](C)(C)CC3)c(OC)c12 (protonated)
CCN(CC)CC[NH2+]c1c2ccccc2[n+](C)c2c(C)cc(OCC[N+]3(C)CC[N+](C)(C)CC3)c(OC)c12 (3D coordinates assigned)
CCN(CC)CC[NH2+]c1c2ccccc2[n+](C)c2c(C)cc(OCC[N+]3(C)CC[N+](C)(C)CC3)c(OC)c12 (nonaromatic ring conformer: 170.51038794967894 kcal/mol)

>  <smiles>  (9) 
CCN(CC)CCNc1c2ccccc2[n+](C)c2c(C)cc(OCC[N+]3(C)CC[N+](C)(C)CC3)c(OC)c12

>  <score_type>  (9) 
oracle

>  <origin>  (9) 
adg

>  <m_score__min__energy>  (9) 
-2.6200000000000001

>  <m_primary>  (9) 
energy

$$$$
9:0
     RDKit          3D

 57 60  0  0  0  0  0  0  0  0999 V2000
   63.3610   33.7700   46.6360 C   0  0  0  0  0  0  0  0  0  0  0  0
   63.1820   32.3360   47.1420 C   0  0  0  0  0  0  0  0  0  0  0  0
   63.5990   32.1800   48.5440 N   0  0  0  0  0  0  0  0  0  0  0  0
   63.9830   33.4520   49.1870 C   0  0  0  0  0  0  0  0  0  0  0  0
   62.8310   34.0520   50.0100 C   0  0  0  0  0  0  0  0  0  0  0  0
   62.0460   33.0170   50.5730 O   0  0  0  0  0  0  0  0  0  0  0  0
   60.7390   33.4790   50.8480 C   0  0  0  0  0  0  0  0  0  0  0  0
   59.7540   32.7950   49.9020 C   0  0  0  0  0  0  0  0  0  0  0  0
   60.4570   32.0880   48.8340 N   0  0  0  0  0  0  0  0  0  0  0  0
   59.8080   31.8360   47.5830 C   0  0  0  0  0  0  0  0  0  0  0  0
   59.4210   30.5490   47.2400 C   0  0  0  0  0  0  0  0  0  0  0  0
   58.7720   30.2770   46.0460 C   0  0  0  0  0  0  0  0  0  0  0  0
   58.5700   31.2590   45.1000 N   0  0  0  0  0  0  0  0  0  0  0  0
   58.0910   30.9040   43.7500 C   0  0  0  0  0  0  0  0  0  0  0  0
   56.5730   30.7210   43.7370 C   0  0  0  0  0  0  0  0  0  0  0  0
   58.8820   32.5740   45.4310 C   0  0  0  0  0  0  0  0  0  0  0  0
   58.5800   33.6600   44.5680 C   0  0  0  0  0  0  0  0  0  0  0  0
   58.9210   34.9700   44.9090 C   0  0  0  0  0  0  0  0  0  0  0  0
   59.5620   35.2410   46.1130 C   0  0  0  0  0  0  0  0  0  0  0  0
   59.8580   34.2060   46.9940 C   0  0  0  0  0  0  0  0  0  0  0  0
   59.5240   32.8750   46.6780 C   0  0  0  0  0  0  0  0  0  0  0  0
   58.4820   28.8100   46.0200 C   0  0  0  0  0  0  0  0  0  0  0  0
   57.7180   28.0040   45.1570 C   0  0  0  0  0  0  0  0  0  0  0  0
   57.5920   26.6340   45.4410 C   0  0  0  0  0  0  0  0  0  0  0  0
   58.1880   26.0810   46.5880 C   0  0  0  0  0  0  0  0  0  0  0  0
   58.9030   26.8970   47.4740 C   0  0  0  0  0  0  0  0  0  0  0  0
   59.0260   28.2510   47.1710 C   0  0  0  0  0  0  0  0  0  0  0  0
   59.6310   29.3020   47.9660 C   0  0  0  0  0  0  0  0  0  0  0  0
   60.2360   29.1540   49.0600 O   0  0  0  0  0  0  0  0  0  0  0  0
   63.4463   34.4535   47.4937 H   0  0  0  0  0  0  0  0  0  0  0  0
   64.2739   33.8321   46.0254 H   0  0  0  0  0  0  0  0  0  0  0  0
   62.4914   34.0546   46.0254 H   0  0  0  0  0  0  0  0  0  0  0  0
   62.1203   32.0612   47.0565 H   0  0  0  0  0  0  0  0  0  0  0  0
   63.8184   31.6818   46.5280 H   0  0  0  0  0  0  0  0  0  0  0  0
   62.8580   31.6730   49.0820 H   0  0  0  0  0  0  0  0  0  0  0  0
   64.8382   33.2688   49.8541 H   0  0  0  0  0  0  0  0  0  0  0  0
   64.2434   34.1686   48.3941 H   0  0  0  0  0  0  0  0  0  0  0  0
   63.2456   34.6743   50.8167 H   0  0  0  0  0  0  0  0  0  0  0  0
   62.1992   34.6660   49.3514 H   0  0  0  0  0  0  0  0  0  0  0  0
   60.4758   33.2396   51.8889 H   0  0  0  0  0  0  0  0  0  0  0  0
   60.6944   34.5685   50.7027 H   0  0  0  0  0  0  0  0  0  0  0  0
   59.1489   32.0748   50.4723 H   0  0  0  0  0  0  0  0  0  0  0  0
   59.1122   33.5648   49.4487 H   0  0  0  0  0  0  0  0  0  0  0  0
   61.4830   31.8940   48.9080 H   0  0  0  0  0  0  0  0  0  0  0  0
   58.3624   31.7074   43.0493 H   0  0  0  0  0  0  0  0  0  0  0  0
   58.5606   29.9556   43.4500 H   0  0  0  0  0  0  0  0  0  0  0  0
   56.2002   30.6761   44.7709 H   0  0  0  0  0  0  0  0  0  0  0  0
   56.1059   31.5693   43.2154 H   0  0  0  0  0  0  0  0  0  0  0  0
   56.3209   29.7860   43.2154 H   0  0  0  0  0  0  0  0  0  0  0  0
   58.0683   33.4658   43.6138 H   0  0  0  0  0  0  0  0  0  0  0  0
   58.6810   35.7937   44.2205 H   0  0  0  0  0  0  0  0  0  0  0  0
   59.8353   36.2753   46.3690 H   0  0  0  0  0  0  0  0  0  0  0  0
   60.3583   34.4297   47.9477 H   0  0  0  0  0  0  0  0  0  0  0  0
   57.2271   28.4393   44.2741 H   0  0  0  0  0  0  0  0  0  0  0  0
   57.0210   25.9871   44.7588 H   0  0  0  0  0  0  0  0  0  0  0  0
   58.0925   25.0040   46.7903 H   0  0  0  0  0  0  0  0  0  0  0  0
   59.3556   26.4794   48.3854 H   0  0  0  0  0  0  0  0  0  0  0  0
  1  2  1  0
  2  3  1  0
  3  4  1  0
  4  5  1  0
  5  6  1  0
  6  7  1  0
  7  8  1  0
  8  9  1  0
  9 10  1  0
 10 11  2  0
 11 12  1  0
 12 13  2  0
 13 14  1  0
 14 15  1  0
 13 16  1  0
 16 17  2  0
 17 18  1  0
 18 19  2  0
 19 20  1  0
 20 21  2  0
 12 22  1  0
 22 23  2  0
 23 24  1  0
 24 25  2  0
 25 26  1  0
 26 27  2  0
 27 28  1  0
 28 29  2  0
 21 10  1  0
 27 22  1  0
 28 11  1  0
 21 16  1  0
  1 30  1  0
  1 31  1  0
  1 32  1  0
  2 33  1  0
  2 34  1  0
  3 35  1  0
  4 36  1  0
  4 37  1  0
  5 38  1  0
  5 39  1  0
  7 40  1  0
  7 41  1  0
  8 42  1  0
  8 43  1  0
  9 44  1  0
 14 45  1  0
 14 46  1  0
 15 47  1  0
 15 48  1  0
 15 49  1  0
 17 50  1  0
 18 51  1  0
 19 52  1  0
 20 53  1  0
 23 54  1  0
 24 55  1  0
 25 56  1  0
 26 57  1  0
M  CHG  1  13   1
M  END
>  <UniqueID>  (10) 
10

>  <SMILES>  (10) 
CCNCCOCCNc1c2c([n+](CC)c3ccccc13)-c1ccccc1C2=O

>  <Energy>  (10) 
111.93813985730593

>  <Genealogy>  (10) 
CCNCCOCCNc1c2c([n+](CC)c3ccccc13)-c1ccccc1C2=O (3D coordinates assigned)
CCNCCOCCNc1c2c([n+](CC)c3ccccc13)-c1ccccc1C2=O (nonaromatic ring conformer: 111.93813985730593 kcal/mol)

>  <smiles>  (10) 
CCNCCOCCNc1c2c([n+](CC)c3ccccc13)-c1ccccc1C2=O

>  <score_type>  (10) 
oracle

>  <origin>  (10) 
adg

>  <m_score__min__energy>  (10) 
-6.8099999999999996

>  <m_primary>  (10) 
energy

$$$$
10:0
     RDKit          3D

 54 55  0  0  0  0  0  0  0  0999 V2000
   57.5631   31.9825   42.9717 H   0  0  0  0  0  0  0  0  0  0  0  0
   57.4680   31.7710   44.0470 C   0  0  0  0  0  0  0  0  0  0  0  0
   56.8580   30.6350   44.4100 C   0  0  0  0  0  0  0  0  0  0  0  0
   56.0644   30.6694   45.1709 H   0  0  0  0  0  0  0  0  0  0  0  0
   57.2360   29.3110   43.7980 C   0  0  0  0  0  0  0  0  0  0  0  0
   57.5610   29.4834   42.7614 H   0  0  0  0  0  0  0  0  0  0  0  0
   56.3506   28.6600   43.8461 H   0  0  0  0  0  0  0  0  0  0  0  0
   58.3260   28.6320   44.5270 N   0  0  0  0  0  0  0  0  0  0  0  0
   59.6220   29.3460   44.5060 C   0  0  0  0  0  0  0  0  0  0  0  0
   59.4445   30.3906   44.2106 H   0  0  0  0  0  0  0  0  0  0  0  0
   60.2770   28.8288   43.7895 H   0  0  0  0  0  0  0  0  0  0  0  0
   60.3190   29.3330   45.8650 C   0  0  0  0  0  0  0  0  0  0  0  0
   61.2010   29.9897   45.8351 H   0  0  0  0  0  0  0  0  0  0  0  0
   60.6430   28.3109   46.1106 H   0  0  0  0  0  0  0  0  0  0  0  0
   59.3750   29.8180   46.8830 N   0  0  0  0  0  0  0  0  0  0  0  0
   60.0500   30.0560   48.1780 C   0  0  0  0  0  0  0  0  0  0  0  0
   60.2024   29.0884   48.6786 H   0  0  0  0  0  0  0  0  0  0  0  0
   59.4069   30.7234   48.7705 H   0  0  0  0  0  0  0  0  0  0  0  0
   61.4160   30.7480   48.0170 C   0  0  0  0  0  0  0  0  0  0  0  0
   62.0620   30.0842   47.4236 H   0  0  0  0  0  0  0  0  0  0  0  0
   61.7786   30.9316   49.0392 H   0  0  0  0  0  0  0  0  0  0  0  0
   61.3960   32.1330   47.3250 C   0  0  0  0  0  0  0  0  0  0  0  0
   60.4569   32.6282   47.6128 H   0  0  0  0  0  0  0  0  0  0  0  0
   61.5095   31.9055   46.2548 H   0  0  0  0  0  0  0  0  0  0  0  0
   62.5600   33.1290   47.6360 C   0  0  0  0  0  0  0  0  0  0  0  0
   63.7620   32.4130   48.2900 C   0  0  0  0  0  0  0  0  0  0  0  0
   63.6701   32.4678   49.3848 H   0  0  0  0  0  0  0  0  0  0  0  0
   63.7764   31.3590   47.9755 H   0  0  0  0  0  0  0  0  0  0  0  0
   64.6957   32.9023   47.9755 H   0  0  0  0  0  0  0  0  0  0  0  0
   63.0320   33.8750   46.3710 C   0  0  0  0  0  0  0  0  0  0  0  0
   63.5989   34.7710   46.6638 H   0  0  0  0  0  0  0  0  0  0  0  0
   63.6758   33.2128   45.7736 H   0  0  0  0  0  0  0  0  0  0  0  0
   62.1578   34.1732   45.7736 H   0  0  0  0  0  0  0  0  0  0  0  0
   62.0260   34.1730   48.6410 C   0  0  0  0  0  0  0  0  0  0  0  0
   62.2065   33.8200   49.6671 H   0  0  0  0  0  0  0  0  0  0  0  0
   62.5452   35.1303   48.4859 H   0  0  0  0  0  0  0  0  0  0  0  0
   60.9459   34.3123   48.4859 H   0  0  0  0  0  0  0  0  0  0  0  0
   58.2320   28.8870   47.0510 C   0  0  0  0  0  0  0  0  0  0  0  0
   57.3345   29.4814   47.2771 H   0  0  0  0  0  0  0  0  0  0  0  0
   58.5055   28.1975   47.8632 H   0  0  0  0  0  0  0  0  0  0  0  0
   57.9330   28.0120   45.8110 C   0  0  0  0  0  0  0  0  0  0  0  0
   56.8517   27.8120   45.7817 H   0  0  0  0  0  0  0  0  0  0  0  0
   58.5313   27.0951   45.9174 H   0  0  0  0  0  0  0  0  0  0  0  0
   58.0240   32.7630   45.0010 C   0  0  0  0  0  0  0  0  0  0  0  0
   58.7830   33.8310   44.4900 C   0  0  0  0  0  0  0  0  0  0  0  0
   58.9532   33.9091   43.4061 H   0  0  0  0  0  0  0  0  0  0  0  0
   59.3230   34.7940   45.3470 C   0  0  0  0  0  0  0  0  0  0  0  0
   59.9165   35.6240   44.9361 H   0  0  0  0  0  0  0  0  0  0  0  0
   59.1100   34.7040   46.7250 C   0  0  0  0  0  0  0  0  0  0  0  0
   59.5454   35.4557   47.3999 H   0  0  0  0  0  0  0  0  0  0  0  0
   58.3440   33.6590   47.2440 C   0  0  0  0  0  0  0  0  0  0  0  0
   58.1726   33.5918   48.3285 H   0  0  0  0  0  0  0  0  0  0  0  0
   57.7940   32.6980   46.3920 C   0  0  0  0  0  0  0  0  0  0  0  0
   57.1785   31.8865   46.8075 H   0  0  0  0  0  0  0  0  0  0  0  0
  1  2  1  0
  2  3  2  0
  3  4  1  0
  3  5  1  0
  5  6  1  0
  5  7  1  0
  5  8  1  0
  8  9  1  0
  9 10  1  0
  9 11  1  0
  9 12  1  0
 12 13  1  0
 12 14  1  0
 12 15  1  0
 15 16  1  0
 16 17  1  0
 16 18  1  0
 16 19  1  0
 19 20  1  0
 19 21  1  0
 19 22  1  0
 22 23  1  0
 22 24  1  0
 22 25  1  0
 25 26  1  0
 26 27  1  0
 26 28  1  0
 26 29  1  0
 25 30  1  0
 30 31  1  0
 30 32  1  0
 30 33  1  0
 25 34  1  0
 34 35  1  0
 34 36  1  0
 34 37  1  0
 15 38  1  0
 38 39  1  0
 38 40  1  0
 38 41  1  0
 41 42  1  0
 41 43  1  0
  2 44  1  0
 44 45  2  0
 45 46  1  0
 45 47  1  0
 47 48  1  0
 47 49  2  0
 49 50  1  0
 49 51  1  0
 51 52  1  0
 51 53  2  0
 53 54  1  0
 41  8  1  0
 53 44  1  0
M  END
>  <UniqueID>  (11) 
11

>  <SMILES>  (11) 
CC(C)(C)CCCN1CCN(C/C=C/c2ccccc2)CC1

>  <Energy>  (11) 
62.89951744869773

>  <Genealogy>  (11) 
CC(C)(C)CCCN1CCN(C/C=C/c2ccccc2)CC1 (cis-trans isomerization)
CC(C)(C)CCCN1CCN(C/C=C/c2ccccc2)CC1 (3D coordinates assigned)
CC(C)(C)CCCN1CCN(C/C=C/c2ccccc2)CC1 (nonaromatic ring conformer: 62.89951744869773 kcal/mol)

>  <smiles>  (11) 
CC(C)(C)CCCN1CCN(CC=Cc2ccccc2)CC1

>  <score_type>  (11) 
oracle

>  <origin>  (11) 
adg

>  <m_score__min__energy>  (11) 
-7.2999999999999998

>  <m_primary>  (11) 
energy

$$$$
11:0
     RDKit          3D

 44 47  0  0  0  0  0  0  0  0999 V2000
   57.1250   29.8800   52.3620 C   0  0  0  0  0  0  0  0  0  0  0  0
   58.1000   30.3140   51.3560 N   0  0  0  0  0  0  0  0  0  0  0  0
   59.1880   29.3380   51.2050 C   0  0  0  0  0  0  0  0  0  0  0  0
   60.5460   30.0540   51.1340 C   0  0  0  0  0  0  0  0  0  0  0  0
   60.4030   31.5220   51.1200 N   0  0  0  0  0  0  0  0  0  0  0  0
   61.0760   32.1190   49.9790 C   0  0  0  0  0  0  0  0  0  0  0  0
   60.3490   32.5600   48.8620 C   0  0  0  0  0  0  0  0  0  0  0  0
   60.9890   33.0960   47.7540 C   0  0  0  0  0  0  0  0  0  0  0  0
   62.3520   33.1810   47.6620 N   0  0  0  0  0  0  0  0  0  0  0  0
   62.9760   33.5930   46.3920 C   0  0  0  0  0  0  0  0  0  0  0  0
   63.1110   32.8670   48.7780 C   0  0  0  0  0  0  0  0  0  0  0  0
   64.5050   33.1160   48.8120 C   0  0  0  0  0  0  0  0  0  0  0  0
   65.2750   32.7570   49.9150 C   0  0  0  0  0  0  0  0  0  0  0  0
   64.6830   32.1520   51.0140 C   0  0  0  0  0  0  0  0  0  0  0  0
   63.3100   31.9270   51.0360 C   0  0  0  0  0  0  0  0  0  0  0  0
   62.4910   32.2940   49.9420 C   0  0  0  0  0  0  0  0  0  0  0  0
   59.9590   33.5120   46.7860 C   0  0  0  0  0  0  0  0  0  0  0  0
   60.0960   34.1920   45.6190 N   0  0  0  0  0  0  0  0  0  0  0  0
   58.9880   34.5390   44.9010 C   0  0  0  0  0  0  0  0  0  0  0  0
   57.6990   34.2180   45.3760 C   0  0  0  0  0  0  0  0  0  0  0  0
   57.5570   33.5460   46.6010 C   0  0  0  0  0  0  0  0  0  0  0  0
   58.7170   33.2050   47.2910 C   0  0  0  0  0  0  0  0  0  0  0  0
   58.8950   32.5920   48.5960 C   0  0  0  0  0  0  0  0  0  0  0  0
   57.9670   32.1880   49.3420 O   0  0  0  0  0  0  0  0  0  0  0  0
   57.5311   30.0608   53.3682 H   0  0  0  0  0  0  0  0  0  0  0  0
   56.1911   30.4474   52.2362 H   0  0  0  0  0  0  0  0  0  0  0  0
   56.9215   28.8063   52.2362 H   0  0  0  0  0  0  0  0  0  0  0  0
   57.5900   30.3730   50.4430 H   0  0  0  0  0  0  0  0  0  0  0  0
   59.1836   28.6545   52.0668 H   0  0  0  0  0  0  0  0  0  0  0  0
   59.0337   28.7738   50.2734 H   0  0  0  0  0  0  0  0  0  0  0  0
   61.1449   29.7650   52.0102 H   0  0  0  0  0  0  0  0  0  0  0  0
   61.0368   29.7540   50.1964 H   0  0  0  0  0  0  0  0  0  0  0  0
   60.7880   31.9190   52.0050 H   0  0  0  0  0  0  0  0  0  0  0  0
   59.3930   31.7790   51.1510 H   0  0  0  0  0  0  0  0  0  0  0  0
   63.8770   34.1879   46.6022 H   0  0  0  0  0  0  0  0  0  0  0  0
   63.2532   32.6998   45.8129 H   0  0  0  0  0  0  0  0  0  0  0  0
   62.2635   34.1988   45.8129 H   0  0  0  0  0  0  0  0  0  0  0  0
   64.9879   33.6018   47.9513 H   0  0  0  0  0  0  0  0  0  0  0  0
   66.3572   32.9539   49.9150 H   0  0  0  0  0  0  0  0  0  0  0  0
   65.3015   31.8489   51.8716 H   0  0  0  0  0  0  0  0  0  0  0  0
   62.8535   31.4558   51.9189 H   0  0  0  0  0  0  0  0  0  0  0  0
   59.1010   35.0725   43.9457 H   0  0  0  0  0  0  0  0  0  0  0  0
   56.8096   34.4927   44.7898 H   0  0  0  0  0  0  0  0  0  0  0  0
   56.5631   33.2976   47.0016 H   0  0  0  0  0  0  0  0  0  0  0  0
  1  2  1  0
  2  3  1  0
  3  4  1  0
  4  5  1  0
  5  6  1  0
  6  7  2  0
  7  8  1  0
  8  9  2  0
  9 10  1  0
  9 11  1  0
 11 12  2  0
 12 13  1  0
 13 14  2  0
 14 15  1  0
 15 16  2  0
  8 17  1  0
 17 18  2  0
 18 19  1  0
 19 20  2  0
 20 21  1  0
 21 22  2  0
 22 23  1  0
 23 24  2  0
 16  6  1  0
 22 17  1  0
 23  7  1  0
 16 11  1  0
  1 25  1  0
  1 26  1  0
  1 27  1  0
  2 28  1  0
  3 29  1  0
  3 30  1  0
  4 31  1  0
  4 32  1  0
  5 33  1  0
  5 34  1  0
 10 35  1  0
 10 36  1  0
 10 37  1  0
 12 38  1  0
 13 39  1  0
 14 40  1  0
 15 41  1  0
 19 42  1  0
 20 43  1  0
 21 44  1  0
M  CHG  2   5   1   9   1
M  END
>  <UniqueID>  (12) 
12

>  <SMILES>  (12) 
CNCC[NH2+]c1c2c([n+](C)c3ccccc13)-c1ncccc1C2=O

>  <Energy>  (12) 
99.19485558136245

>  <Genealogy>  (12) 
CNCC[NH2+]c1c2c([n+](C)c3ccccc13)-c1ncccc1C2=O (protonated)
CNCC[NH2+]c1c2c([n+](C)c3ccccc13)-c1ncccc1C2=O (3D coordinates assigned)
CNCC[NH2+]c1c2c([n+](C)c3ccccc13)-c1ncccc1C2=O (nonaromatic ring conformer: 99.19485558136245 kcal/mol)

>  <smiles>  (12) 
CNCCNc1c2c([n+](C)c3ccccc13)-c1ncccc1C2=O

>  <score_type>  (12) 
oracle

>  <origin>  (12) 
adg

>  <m_score__min__energy>  (12) 
-3.8500000000000001

>  <m_primary>  (12) 
energy

$$$$
12:0
     RDKit          3D

 51 53  0  0  0  0  0  0  0  0999 V2000
   60.2990   30.1730   46.6310 C   0  0  0  0  0  0  0  0  0  0  0  0
   58.7980   30.3120   46.9040 C   0  0  0  0  0  0  0  0  0  0  0  0
   57.9360   29.3520   46.0580 C   0  0  0  0  0  0  0  0  0  0  0  0
   56.7750   30.0050   45.4290 N   0  0  0  0  0  0  0  0  0  0  0  0
   56.5820   29.5820   44.0330 C   0  0  0  0  0  0  0  0  0  0  0  0
   56.5350   30.8080   43.1140 C   0  0  0  0  0  0  0  0  0  0  0  0
   57.7900   31.6930   43.2660 C   0  0  0  0  0  0  0  0  0  0  0  0
   57.7700   32.4690   44.5220 N   0  0  0  0  0  0  0  0  0  0  0  0
   58.6710   33.6330   44.5020 C   0  0  0  0  0  0  0  0  0  0  0  0
   59.3460   33.8520   45.8340 C   0  0  0  0  0  0  0  0  0  0  0  0
   58.5970   34.2780   46.9440 C   0  0  0  0  0  0  0  0  0  0  0  0
   59.1970   34.3960   48.2020 C   0  0  0  0  0  0  0  0  0  0  0  0
   60.5480   34.0720   48.3640 C   0  0  0  0  0  0  0  0  0  0  0  0
   61.1280   34.1420   49.5900 N   0  0  0  0  0  0  0  0  0  0  0  0
   62.4310   33.8040   49.7710 C   0  0  0  0  0  0  0  0  0  0  0  0
   63.0080   33.8700   51.0440 C   0  0  0  0  0  0  0  0  0  0  0  0
   64.3450   33.5040   51.2250 C   0  0  0  0  0  0  0  0  0  0  0  0
   65.1210   33.0830   50.1320 C   0  0  0  0  0  0  0  0  0  0  0  0
   66.5400   32.6430   50.3390 C   0  0  0  0  0  0  0  0  0  0  0  0
   64.5420   33.0110   48.8550 C   0  0  0  0  0  0  0  0  0  0  0  0
   63.2000   33.3730   48.6670 C   0  0  0  0  0  0  0  0  0  0  0  0
   62.6230   33.3100   47.4330 N   0  0  0  0  0  0  0  0  0  0  0  0
   61.3140   33.6500   47.2550 C   0  0  0  0  0  0  0  0  0  0  0  0
   60.7100   33.5530   45.9930 C   0  0  0  0  0  0  0  0  0  0  0  0
   60.8423   30.1227   47.5862 H   0  0  0  0  0  0  0  0  0  0  0  0
   60.4834   29.2539   46.0554 H   0  0  0  0  0  0  0  0  0  0  0  0
   60.6491   31.0426   46.0554 H   0  0  0  0  0  0  0  0  0  0  0  0
   58.6149   30.1010   47.9679 H   0  0  0  0  0  0  0  0  0  0  0  0
   58.5093   31.3378   46.6312 H   0  0  0  0  0  0  0  0  0  0  0  0
   58.5671   28.9246   45.2649 H   0  0  0  0  0  0  0  0  0  0  0  0
   57.5446   28.5825   46.7397 H   0  0  0  0  0  0  0  0  0  0  0  0
   55.9070   29.7810   45.9690 H   0  0  0  0  0  0  0  0  0  0  0  0
   57.4166   28.9323   43.7308 H   0  0  0  0  0  0  0  0  0  0  0  0
   55.6323   29.0331   43.9506 H   0  0  0  0  0  0  0  0  0  0  0  0
   56.4651   30.4671   42.0705 H   0  0  0  0  0  0  0  0  0  0  0  0
   55.6586   31.4102   43.3955 H   0  0  0  0  0  0  0  0  0  0  0  0
   58.6817   31.0489   43.2605 H   0  0  0  0  0  0  0  0  0  0  0  0
   57.8082   32.4043   42.4271 H   0  0  0  0  0  0  0  0  0  0  0  0
   57.9840   31.8660   45.3520 H   0  0  0  0  0  0  0  0  0  0  0  0
   59.4432   33.4706   43.7356 H   0  0  0  0  0  0  0  0  0  0  0  0
   58.0672   34.5247   44.2778 H   0  0  0  0  0  0  0  0  0  0  0  0
   57.5309   34.5205   46.8227 H   0  0  0  0  0  0  0  0  0  0  0  0
   58.6070   34.7432   49.0630 H   0  0  0  0  0  0  0  0  0  0  0  0
   62.4097   34.2098   51.9022 H   0  0  0  0  0  0  0  0  0  0  0  0
   64.7922   33.5459   52.2291 H   0  0  0  0  0  0  0  0  0  0  0  0
   66.7502   32.5778   51.4168 H   0  0  0  0  0  0  0  0  0  0  0  0
   66.6892   31.6564   49.8760 H   0  0  0  0  0  0  0  0  0  0  0  0
   67.2212   33.3721   49.8760 H   0  0  0  0  0  0  0  0  0  0  0  0
   65.1428   32.6696   47.9991 H   0  0  0  0  0  0  0  0  0  0  0  0
   63.1870   32.9820   46.6140 H   0  0  0  0  0  0  0  0  0  0  0  0
   61.3069   33.2413   45.1232 H   0  0  0  0  0  0  0  0  0  0  0  0
  1  2  1  0
  2  3  1  0
  3  4  1  0
  4  5  1  0
  5  6  1  0
  6  7  1  0
  7  8  1  0
  8  9  1  0
  9 10  1  0
 10 11  2  0
 11 12  1  0
 12 13  2  0
 13 14  1  0
 14 15  2  0
 15 16  1  0
 16 17  2  0
 17 18  1  0
 18 19  1  0
 18 20  2  0
 20 21  1  0
 21 22  2  0
 22 23  1  0
 23 24  2  0
 24 10  1  0
 23 13  1  0
 21 15  1  0
  1 25  1  0
  1 26  1  0
  1 27  1  0
  2 28  1  0
  2 29  1  0
  3 30  1  0
  3 31  1  0
  4 32  1  0
  5 33  1  0
  5 34  1  0
  6 35  1  0
  6 36  1  0
  7 37  1  0
  7 38  1  0
  8 39  1  0
  9 40  1  0
  9 41  1  0
 11 42  1  0
 12 43  1  0
 16 44  1  0
 17 45  1  0
 19 46  1  0
 19 47  1  0
 19 48  1  0
 20 49  1  0
 22 50  1  0
 24 51  1  0
M  CHG  1  22   1
M  END
>  <UniqueID>  (13) 
13

>  <SMILES>  (13) 
CCCNCCCNCc1ccc2nc3ccc(C)cc3[nH+]c2c1

>  <Energy>  (13) 
49.622553822840395

>  <Genealogy>  (13) 
CCCNCCCNCc1ccc2nc3ccc(C)cc3[nH+]c2c1 (protonated)
CCCNCCCNCc1ccc2nc3ccc(C)cc3[nH+]c2c1 (3D coordinates assigned)
CCCNCCCNCc1ccc2nc3ccc(C)cc3[nH+]c2c1 (optimized conformer: 49.622553822840395 kcal/mol)

>  <smiles>  (13) 
CCCNCCCNCc1ccc2nc3ccc(C)cc3nc2c1

>  <score_type>  (13) 
oracle

>  <origin>  (13) 
adg

>  <m_score__min__energy>  (13) 
-6.0199999999999996

>  <m_primary>  (13) 
energy

$$$$
13:0
     RDKit          3D

 40 42  0  0  0  0  0  0  0  0999 V2000
   56.6810   22.4220   43.3820 C   0  0  0  0  0  0  0  0  0  0  0  0
   56.6770   23.9000   42.9960 C   0  0  0  0  0  0  0  0  0  0  0  0
   57.0270   24.7450   44.1500 N   0  0  0  0  0  0  0  0  0  0  0  0
   56.5650   24.1640   45.4300 C   0  0  0  0  0  0  0  0  0  0  0  0
   55.5630   25.0700   46.1620 C   0  0  0  0  0  0  0  0  0  0  0  0
   55.9090   26.4860   45.9620 N   0  0  0  0  0  0  0  0  0  0  0  0
   57.3080   26.7710   46.3060 C   0  0  0  0  0  0  0  0  0  0  0  0
   57.6070   28.2210   46.0460 C   0  0  0  0  0  0  0  0  0  0  0  0
   56.7580   28.9800   45.2050 C   0  0  0  0  0  0  0  0  0  0  0  0
   56.9710   30.3150   45.0200 N   0  0  0  0  0  0  0  0  0  0  0  0
   58.0050   30.9310   45.6460 C   0  0  0  0  0  0  0  0  0  0  0  0
   58.8600   30.2210   46.4750 C   0  0  0  0  0  0  0  0  0  0  0  0
   58.6830   28.8610   46.6910 C   0  0  0  0  0  0  0  0  0  0  0  0
   60.0310   31.2500   47.1240 S   0  0  0  0  0  0  0  0  0  0  0  0
   59.4340   32.6200   46.3290 C   0  0  0  0  0  0  0  0  0  0  0  0
   59.9200   33.9240   46.3910 C   0  0  0  0  0  0  0  0  0  0  0  0
   59.2590   34.9140   45.6480 C   0  0  0  0  0  0  0  0  0  0  0  0
   58.1330   34.5880   44.8660 C   0  0  0  0  0  0  0  0  0  0  0  0
   57.6570   33.2670   44.8180 C   0  0  0  0  0  0  0  0  0  0  0  0
   58.3230   32.2870   45.5590 C   0  0  0  0  0  0  0  0  0  0  0  0
   56.6813   22.3293   44.4781 H   0  0  0  0  0  0  0  0  0  0  0  0
   55.7842   21.9338   42.9729 H   0  0  0  0  0  0  0  0  0  0  0  0
   57.5805   21.9386   42.9729 H   0  0  0  0  0  0  0  0  0  0  0  0
   57.4108   24.0646   42.1932 H   0  0  0  0  0  0  0  0  0  0  0  0
   55.6671   24.1716   42.6548 H   0  0  0  0  0  0  0  0  0  0  0  0
   56.5600   25.6740   44.0250 H   0  0  0  0  0  0  0  0  0  0  0  0
   58.0620   24.9100   44.1700 H   0  0  0  0  0  0  0  0  0  0  0  0
   56.0813   23.1977   45.2242 H   0  0  0  0  0  0  0  0  0  0  0  0
   57.4448   24.0467   46.0797 H   0  0  0  0  0  0  0  0  0  0  0  0
   54.5527   24.8849   45.7684 H   0  0  0  0  0  0  0  0  0  0  0  0
   55.5976   24.8433   47.2378 H   0  0  0  0  0  0  0  0  0  0  0  0
   55.7640   26.7190   44.9510 H   0  0  0  0  0  0  0  0  0  0  0  0
   57.4759   26.5478   47.3700 H   0  0  0  0  0  0  0  0  0  0  0  0
   57.9701   26.1456   45.6891 H   0  0  0  0  0  0  0  0  0  0  0  0
   55.9169   28.4878   44.6948 H   0  0  0  0  0  0  0  0  0  0  0  0
   59.3639   28.2993   47.3474 H   0  0  0  0  0  0  0  0  0  0  0  0
   60.7981   34.1710   47.0057 H   0  0  0  0  0  0  0  0  0  0  0  0
   59.6224   35.9519   45.6762 H   0  0  0  0  0  0  0  0  0  0  0  0
   57.6230   35.3735   44.2890 H   0  0  0  0  0  0  0  0  0  0  0  0
   56.7777   33.0093   44.2094 H   0  0  0  0  0  0  0  0  0  0  0  0
  1  2  1  0
  2  3  1  0
  3  4  1  0
  4  5  1  0
  5  6  1  0
  6  7  1  0
  7  8  1  0
  8  9  2  0
  9 10  1  0
 10 11  2  0
 11 12  1  0
 12 13  2  0
 12 14  1  0
 14 15  1  0
 15 16  2  0
 16 17  1  0
 17 18  2  0
 18 19  1  0
 19 20  2  0
 13  8  1  0
 20 15  1  0
 20 11  1  0
  1 21  1  0
  1 22  1  0
  1 23  1  0
  2 24  1  0
  2 25  1  0
  3 26  1  0
  3 27  1  0
  4 28  1  0
  4 29  1  0
  5 30  1  0
  5 31  1  0
  6 32  1  0
  7 33  1  0
  7 34  1  0
  9 35  1  0
 13 36  1  0
 16 37  1  0
 17 38  1  0
 18 39  1  0
 19 40  1  0
M  CHG  1   3   1
M  END
>  <UniqueID>  (14) 
14

>  <SMILES>  (14) 
CC[NH2+]CCNCc1cnc2c(c1)sc1ccccc12

>  <Energy>  (14) 
73.59041434452685

>  <Genealogy>  (14) 
CC[NH2+]CCNCc1cnc2c(c1)sc1ccccc12 (protonated)
CC[NH2+]CCNCc1cnc2c(c1)sc1ccccc12 (3D coordinates assigned)
CC[NH2+]CCNCc1cnc2c(c1)sc1ccccc12 (optimized conformer: 73.59041434452685 kcal/mol)

>  <smiles>  (14) 
CCNCCNCc1cnc2c(c1)sc1ccccc12

>  <score_type>  (14) 
oracle

>  <origin>  (14) 
adg

>  <m_score__min__energy>  (14) 
-5.8300000000000001

>  <m_primary>  (14) 
energy

$$$$
14:0
     RDKit          3D

 70 72  0  0  0  0  0  0  0  0999 V2000
   61.0760   27.7410   51.1810 C   0  0  0  0  0  0  0  0  0  0  0  0
   60.7750   27.4940   50.0410 C   0  0  0  0  0  0  0  0  0  0  0  0
   60.4100   27.1930   48.6510 C   0  0  0  0  0  0  0  0  0  0  0  0
   60.0580   28.3870   47.9540 O   0  0  0  0  0  0  0  0  0  0  0  0
   59.4920   28.4670   46.6680 C   0  0  0  0  0  0  0  0  0  0  0  0
   59.2190   27.2850   45.9560 C   0  0  0  0  0  0  0  0  0  0  0  0
   58.5740   27.3250   44.7340 C   0  0  0  0  0  0  0  0  0  0  0  0
   58.1210   28.5310   44.2270 C   0  0  0  0  0  0  0  0  0  0  0  0
   58.3300   29.7470   44.9220 C   0  0  0  0  0  0  0  0  0  0  0  0
   59.1440   29.7360   46.0950 C   0  0  0  0  0  0  0  0  0  0  0  0
   59.5770   30.9900   46.6350 C   0  0  0  0  0  0  0  0  0  0  0  0
   60.5870   31.0530   47.6830 N   0  0  0  0  0  0  0  0  0  0  0  0
   61.9370   30.8460   47.1230 C   0  0  0  0  0  0  0  0  0  0  0  0
   62.9890   31.6930   47.8610 C   0  0  0  0  0  0  0  0  0  0  0  0
   62.9500   33.4480   47.3380 S   0  0  0  0  0  0  0  0  0  0  0  0
   63.2250   34.2210   48.9760 C   0  0  0  0  0  0  0  0  0  0  0  0
   61.9760   34.1150   49.8570 C   0  0  0  0  0  0  0  0  0  0  0  0
   60.8770   33.5570   49.1600 O   0  0  0  0  0  0  0  0  0  0  0  0
   59.6440   33.8890   49.7790 C   0  0  0  0  0  0  0  0  0  0  0  0
   59.2050   32.7220   50.6710 C   0  0  0  0  0  0  0  0  0  0  0  0
   59.6750   31.4060   50.1720 N   0  0  0  0  0  0  0  0  0  0  0  0
   58.6620   30.3250   50.2620 C   0  0  0  0  0  0  0  0  0  0  0  0
   57.7000   30.4640   51.4510 C   0  0  0  0  0  0  0  0  0  0  0  0
   60.9540   31.0170   50.8130 C   0  0  0  0  0  0  0  0  0  0  0  0
   61.1020   31.6910   52.1730 C   0  0  0  0  0  0  0  0  0  0  0  0
   59.0750   32.1950   46.0650 C   0  0  0  0  0  0  0  0  0  0  0  0
   59.4210   33.4700   46.5840 C   0  0  0  0  0  0  0  0  0  0  0  0
   58.9730   34.6420   45.9840 C   0  0  0  0  0  0  0  0  0  0  0  0
   58.1860   34.5840   44.8470 C   0  0  0  0  0  0  0  0  0  0  0  0
   57.8070   33.3520   44.3260 C   0  0  0  0  0  0  0  0  0  0  0  0
   58.2000   32.1360   44.9460 C   0  0  0  0  0  0  0  0  0  0  0  0
   57.7660   30.9210   44.4640 N   0  0  0  0  0  0  0  0  0  0  0  0
   56.6440   30.8720   43.4960 C   0  0  0  0  0  0  0  0  0  0  0  0
   61.3508   27.9665   52.2220 H   0  0  0  0  0  0  0  0  0  0  0  0
   61.2654   26.7192   48.1472 H   0  0  0  0  0  0  0  0  0  0  0  0
   59.5444   26.5143   48.6509 H   0  0  0  0  0  0  0  0  0  0  0  0
   59.5230   26.3155   46.3774 H   0  0  0  0  0  0  0  0  0  0  0  0
   58.4204   26.3971   44.1635 H   0  0  0  0  0  0  0  0  0  0  0  0
   57.5880   28.5449   43.2649 H   0  0  0  0  0  0  0  0  0  0  0  0
   60.4000   30.3390   48.4210 H   0  0  0  0  0  0  0  0  0  0  0  0
   60.5150   31.9380   48.2260 H   0  0  0  0  0  0  0  0  0  0  0  0
   62.2039   29.7830   47.2168 H   0  0  0  0  0  0  0  0  0  0  0  0
   61.9240   31.1544   46.0672 H   0  0  0  0  0  0  0  0  0  0  0  0
   62.7921   31.6405   48.9419 H   0  0  0  0  0  0  0  0  0  0  0  0
   63.9822   31.2884   47.6164 H   0  0  0  0  0  0  0  0  0  0  0  0
   64.0614   33.7116   49.4770 H   0  0  0  0  0  0  0  0  0  0  0  0
   63.4538   35.2861   48.8238 H   0  0  0  0  0  0  0  0  0  0  0  0
   62.2065   33.4780   50.7236 H   0  0  0  0  0  0  0  0  0  0  0  0
   61.6964   35.1314   50.1712 H   0  0  0  0  0  0  0  0  0  0  0  0
   59.7703   34.7942   50.3911 H   0  0  0  0  0  0  0  0  0  0  0  0
   58.8803   34.0777   49.0101 H   0  0  0  0  0  0  0  0  0  0  0  0
   59.6112   32.8800   51.6810 H   0  0  0  0  0  0  0  0  0  0  0  0
   58.1052   32.7017   50.6710 H   0  0  0  0  0  0  0  0  0  0  0  0
   58.0689   30.3294   49.3356 H   0  0  0  0  0  0  0  0  0  0  0  0
   59.2138   29.3849   50.4089 H   0  0  0  0  0  0  0  0  0  0  0  0
   58.2650   30.3824   52.3913 H   0  0  0  0  0  0  0  0  0  0  0  0
   57.2014   31.4435   51.4067 H   0  0  0  0  0  0  0  0  0  0  0  0
   56.9445   29.6657   51.4067 H   0  0  0  0  0  0  0  0  0  0  0  0
   60.9735   29.9254   50.9469 H   0  0  0  0  0  0  0  0  0  0  0  0
   61.7850   31.3371   50.1673 H   0  0  0  0  0  0  0  0  0  0  0  0
   60.9392   30.9497   52.9692 H   0  0  0  0  0  0  0  0  0  0  0  0
   62.1140   32.1121   52.2654 H   0  0  0  0  0  0  0  0  0  0  0  0
   60.3595   32.4973   52.2654 H   0  0  0  0  0  0  0  0  0  0  0  0
   60.0568   33.5324   47.4795 H   0  0  0  0  0  0  0  0  0  0  0  0
   59.2448   35.6173   46.4141 H   0  0  0  0  0  0  0  0  0  0  0  0
   57.8604   35.5127   44.3555 H   0  0  0  0  0  0  0  0  0  0  0  0
   57.1906   33.3183   43.4156 H   0  0  0  0  0  0  0  0  0  0  0  0
   55.6901   30.8303   44.0422 H   0  0  0  0  0  0  0  0  0  0  0  0
   56.6656   31.7719   42.8638 H   0  0  0  0  0  0  0  0  0  0  0  0
   56.7439   29.9774   42.8638 H   0  0  0  0  0  0  0  0  0  0  0  0
  1  2  3  0
  2  3  1  0
  3  4  1  0
  4  5  1  0
  5  6  2  0
  6  7  1  0
  7  8  2  0
  8  9  1  0
  9 10  2  0
 10 11  1  0
 11 12  1  0
 12 13  1  0
 13 14  1  0
 14 15  1  0
 15 16  1  0
 16 17  1  0
 17 18  1  0
 18 19  1  0
 19 20  1  0
 20 21  1  0
 21 22  1  0
 22 23  1  0
 21 24  1  0
 24 25  1  0
 11 26  2  0
 26 27  1  0
 27 28  2  0
 28 29  1  0
 29 30  2  0
 30 31  1  0
 31 32  2  0
 32 33  1  0
 10  5  1  0
 31 26  1  0
 32  9  1  0
  1 34  1  0
  3 35  1  0
  3 36  1  0
  6 37  1  0
  7 38  1  0
  8 39  1  0
 12 40  1  0
 12 41  1  0
 13 42  1  0
 13 43  1  0
 14 44  1  0
 14 45  1  0
 16 46  1  0
 16 47  1  0
 17 48  1  0
 17 49  1  0
 19 50  1  0
 19 51  1  0
 20 52  1  0
 20 53  1  0
 22 54  1  0
 22 55  1  0
 23 56  1  0
 23 57  1  0
 23 58  1  0
 24 59  1  0
 24 60  1  0
 25 61  1  0
 25 62  1  0
 25 63  1  0
 27 64  1  0
 28 65  1  0
 29 66  1  0
 30 67  1  0
 33 68  1  0
 33 69  1  0
 33 70  1  0
M  CHG  2  12   1  32   1
M  END
>  <UniqueID>  (15) 
15

>  <SMILES>  (15) 
C#CCOc1cccc2c1c([NH2+]CCSCCOCCN(CC)CC)c1ccccc1[n+]2C

>  <Energy>  (15) 
101.03477251472222

>  <Genealogy>  (15) 
C#CCOc1cccc2c1c([NH2+]CCSCCOCCN(CC)CC)c1ccccc1[n+]2C (protonated)
C#CCOc1cccc2c1c([NH2+]CCSCCOCCN(CC)CC)c1ccccc1[n+]2C (3D coordinates assigned)
C#CCOc1cccc2c1c([NH2+]CCSCCOCCN(CC)CC)c1ccccc1[n+]2C (optimized conformer: 101.03477251472222 kcal/mol)

>  <smiles>  (15) 
C#CCOc1cccc2c1c(NCCSCCOCCN(CC)CC)c1ccccc1[n+]2C

>  <score_type>  (15) 
oracle

>  <origin>  (15) 
adg

>  <m_score__min__energy>  (15) 
-5.2300000000000004

>  <m_primary>  (15) 
energy

$$$$
15:0
     RDKit          3D

 56 58  0  0  0  0  0  0  0  0999 V2000
   62.5860   33.8210   46.3630 C   0  0  0  0  0  0  0  0  0  0  0  0
   63.7600   33.4410   47.2590 C   0  0  0  0  0  0  0  0  0  0  0  0
   63.6150   32.0580   47.7370 N   0  0  0  0  0  0  0  0  0  0  0  0
   63.2500   32.0140   49.1610 C   0  0  0  0  0  0  0  0  0  0  0  0
   62.1090   32.9950   49.4690 C   0  0  0  0  0  0  0  0  0  0  0  0
   60.7580   32.3290   49.7850 C   0  0  0  0  0  0  0  0  0  0  0  0
   60.5500   31.0080   49.0220 C   0  0  0  0  0  0  0  0  0  0  0  0
   60.8430   31.1230   47.5880 N   0  0  0  0  0  0  0  0  0  0  0  0
   59.8600   30.9290   46.5540 C   0  0  0  0  0  0  0  0  0  0  0  0
   59.5900   29.6410   46.0680 C   0  0  0  0  0  0  0  0  0  0  0  0
   58.6000   29.4660   45.0640 C   0  0  0  0  0  0  0  0  0  0  0  0
   57.9780   30.5700   44.4990 N   0  0  0  0  0  0  0  0  0  0  0  0
   57.0640   30.3880   43.3410 C   0  0  0  0  0  0  0  0  0  0  0  0
   55.6670   29.9640   43.7980 C   0  0  0  0  0  0  0  0  0  0  0  0
   58.1950   31.8380   45.0190 C   0  0  0  0  0  0  0  0  0  0  0  0
   57.4920   32.9820   44.5520 C   0  0  0  0  0  0  0  0  0  0  0  0
   57.7230   34.2460   45.0930 C   0  0  0  0  0  0  0  0  0  0  0  0
   58.6480   34.4130   46.1130 C   0  0  0  0  0  0  0  0  0  0  0  0
   59.3490   33.3150   46.6010 C   0  0  0  0  0  0  0  0  0  0  0  0
   59.1410   32.0270   46.0620 C   0  0  0  0  0  0  0  0  0  0  0  0
   58.3090   28.0560   44.5470 C   0  0  0  0  0  0  0  0  0  0  0  0
   58.7390   26.9450   45.5000 C   0  0  0  0  0  0  0  0  0  0  0  0
   60.1810   27.1630   45.9200 C   0  0  0  0  0  0  0  0  0  0  0  0
   60.2960   28.4580   46.7160 C   0  0  0  0  0  0  0  0  0  0  0  0
   61.7240   34.1000   46.9868 H   0  0  0  0  0  0  0  0  0  0  0  0
   62.8702   34.6730   45.7280 H   0  0  0  0  0  0  0  0  0  0  0  0
   62.3170   32.9640   45.7280 H   0  0  0  0  0  0  0  0  0  0  0  0
   64.6956   33.5305   46.6875 H   0  0  0  0  0  0  0  0  0  0  0  0
   63.7799   34.1174   48.1262 H   0  0  0  0  0  0  0  0  0  0  0  0
   64.5520   31.6000   47.6410 H   0  0  0  0  0  0  0  0  0  0  0  0
   62.9266   30.9945   49.4178 H   0  0  0  0  0  0  0  0  0  0  0  0
   64.1290   32.3018   49.7564 H   0  0  0  0  0  0  0  0  0  0  0  0
   62.4037   33.6019   50.3378 H   0  0  0  0  0  0  0  0  0  0  0  0
   61.9565   33.5913   48.5573 H   0  0  0  0  0  0  0  0  0  0  0  0
   60.7123   32.1222   50.8644 H   0  0  0  0  0  0  0  0  0  0  0  0
   59.9652   33.0225   49.4680 H   0  0  0  0  0  0  0  0  0  0  0  0
   61.2128   30.2445   49.4553 H   0  0  0  0  0  0  0  0  0  0  0  0
   59.4893   30.7338   49.1207 H   0  0  0  0  0  0  0  0  0  0  0  0
   61.7220   31.6200   47.3210 H   0  0  0  0  0  0  0  0  0  0  0  0
   56.9885   31.3377   42.7912 H   0  0  0  0  0  0  0  0  0  0  0  0
   57.4737   29.5969   42.6958 H   0  0  0  0  0  0  0  0  0  0  0  0
   55.6286   29.9524   44.8973 H   0  0  0  0  0  0  0  0  0  0  0  0
   54.9231   30.6768   43.4127 H   0  0  0  0  0  0  0  0  0  0  0  0
   55.4448   28.9580   43.4127 H   0  0  0  0  0  0  0  0  0  0  0  0
   56.7507   32.8676   43.7474 H   0  0  0  0  0  0  0  0  0  0  0  0
   57.1689   35.1152   44.7090 H   0  0  0  0  0  0  0  0  0  0  0  0
   58.8271   35.4127   46.5356 H   0  0  0  0  0  0  0  0  0  0  0  0
   60.0741   33.4521   47.4167 H   0  0  0  0  0  0  0  0  0  0  0  0
   57.2258   27.9664   44.3774 H   0  0  0  0  0  0  0  0  0  0  0  0
   58.8940   27.9282   43.6243 H   0  0  0  0  0  0  0  0  0  0  0  0
   58.0929   26.9561   46.3902 H   0  0  0  0  0  0  0  0  0  0  0  0
   58.6498   25.9735   44.9918 H   0  0  0  0  0  0  0  0  0  0  0  0
   60.5111   26.3198   46.5445 H   0  0  0  0  0  0  0  0  0  0  0  0
   60.8146   27.2299   45.0233 H   0  0  0  0  0  0  0  0  0  0  0  0
   59.8564   28.2940   47.7109 H   0  0  0  0  0  0  0  0  0  0  0  0
   61.3655   28.7104   46.7654 H   0  0  0  0  0  0  0  0  0  0  0  0
  1  2  1  0
  2  3  1  0
  3  4  1  0
  4  5  1  0
  5  6  1  0
  6  7  1  0
  7  8  1  0
  8  9  1  0
  9 10  2  0
 10 11  1  0
 11 12  2  0
 12 13  1  0
 13 14  1  0
 12 15  1  0
 15 16  2  0
 16 17  1  0
 17 18  2  0
 18 19  1  0
 19 20  2  0
 11 21  1  0
 21 22  1  0
 22 23  1  0
 23 24  1  0
 20  9  1  0
 24 10  1  0
 20 15  1  0
  1 25  1  0
  1 26  1  0
  1 27  1  0
  2 28  1  0
  2 29  1  0
  3 30  1  0
  4 31  1  0
  4 32  1  0
  5 33  1  0
  5 34  1  0
  6 35  1  0
  6 36  1  0
  7 37  1  0
  7 38  1  0
  8 39  1  0
 13 40  1  0
 13 41  1  0
 14 42  1  0
 14 43  1  0
 14 44  1  0
 16 45  1  0
 17 46  1  0
 18 47  1  0
 19 48  1  0
 21 49  1  0
 21 50  1  0
 22 51  1  0
 22 52  1  0
 23 53  1  0
 23 54  1  0
 24 55  1  0
 24 56  1  0
M  CHG  1  12   1
M  END
>  <UniqueID>  (16) 
16

>  <SMILES>  (16) 
CCNCCCCNc1c2c([n+](CC)c3ccccc13)CCCC2

>  <Energy>  (16) 
69.51314051493303

>  <Genealogy>  (16) 
CCNCCCCNc1c2c([n+](CC)c3ccccc13)CCCC2 (3D coordinates assigned)
CCNCCCCNc1c2c([n+](CC)c3ccccc13)CCCC2 (nonaromatic ring conformer: 69.51314051493303 kcal/mol)

>  <smiles>  (16) 
CCNCCCCNc1c2c([n+](CC)c3ccccc13)CCCC2

>  <score_type>  (16) 
oracle

>  <origin>  (16) 
adg

>  <m_score__min__energy>  (16) 
-6.0599999999999996

>  <m_primary>  (16) 
energy

$$$$
16:0
     RDKit          3D

 58 60  0  0  0  0  0  0  0  0999 V2000
   61.4980   29.4380   50.6380 C   0  0  0  0  0  0  0  0  0  0  0  0
   61.7650   30.6720   51.4940 C   0  0  0  0  0  0  0  0  0  0  0  0
   62.9080   31.4300   50.9780 N   0  0  0  0  0  0  0  0  0  0  0  0
   62.9080   32.1660   49.7360 C   0  0  0  0  0  0  0  0  0  0  0  0
   61.6950   32.4880   49.0970 C   0  0  0  0  0  0  0  0  0  0  0  0
   61.6670   33.2820   47.9370 C   0  0  0  0  0  0  0  0  0  0  0  0
   60.4130   33.6020   47.2930 N   0  0  0  0  0  0  0  0  0  0  0  0
   59.3320   32.6090   47.2470 C   0  0  0  0  0  0  0  0  0  0  0  0
   57.9780   33.2820   46.9710 C   0  0  0  0  0  0  0  0  0  0  0  0
   57.9870   34.1420   45.7560 N   0  0  0  0  0  0  0  0  0  0  0  0
   57.3570   33.5060   44.5680 C   0  0  0  0  0  0  0  0  0  0  0  0
   57.8390   32.0770   44.2400 C   0  0  0  0  0  0  0  0  0  0  0  0
   57.2400   31.1290   45.1190 O   0  0  0  0  0  0  0  0  0  0  0  0
   57.7540   29.8510   45.3780 C   0  0  0  0  0  0  0  0  0  0  0  0
   59.0960   29.6480   45.7590 C   0  0  0  0  0  0  0  0  0  0  0  0
   59.5630   28.3610   46.0320 C   0  0  0  0  0  0  0  0  0  0  0  0
   58.7030   27.2670   45.9260 C   0  0  0  0  0  0  0  0  0  0  0  0
   57.3730   27.4560   45.5450 C   0  0  0  0  0  0  0  0  0  0  0  0
   56.8890   28.7500   45.2670 C   0  0  0  0  0  0  0  0  0  0  0  0
   55.5560   28.9850   44.8930 O   0  0  0  0  0  0  0  0  0  0  0  0
   55.1600   29.7630   43.7690 C   0  0  0  0  0  0  0  0  0  0  0  0
   59.3010   34.7660   45.4380 C   0  0  0  0  0  0  0  0  0  0  0  0
   60.1970   34.9160   46.6730 C   0  0  0  0  0  0  0  0  0  0  0  0
   62.8780   33.7690   47.4230 C   0  0  0  0  0  0  0  0  0  0  0  0
   64.0890   33.4500   48.0380 C   0  0  0  0  0  0  0  0  0  0  0  0
   64.1230   32.6360   49.1800 C   0  0  0  0  0  0  0  0  0  0  0  0
   65.3970   32.2710   49.7370 N   0  0  0  0  0  0  0  0  0  0  0  0
   66.3400   33.0880   49.7420 O   0  0  0  0  0  0  0  0  0  0  0  0
   65.5200   31.1110   50.4660 O   0  0  0  0  0  0  0  0  0  0  0  0
   61.3107   28.5726   51.2906 H   0  0  0  0  0  0  0  0  0  0  0  0
   60.6175   29.6157   50.0030 H   0  0  0  0  0  0  0  0  0  0  0  0
   62.3732   29.2358   50.0030 H   0  0  0  0  0  0  0  0  0  0  0  0
   60.8730   31.3156   51.4859 H   0  0  0  0  0  0  0  0  0  0  0  0
   61.9943   30.3453   52.5190 H   0  0  0  0  0  0  0  0  0  0  0  0
   63.7620   31.4540   51.5780 H   0  0  0  0  0  0  0  0  0  0  0  0
   60.7498   32.1104   49.5141 H   0  0  0  0  0  0  0  0  0  0  0  0
   59.5432   31.8840   46.4471 H   0  0  0  0  0  0  0  0  0  0  0  0
   59.2795   32.1023   48.2219 H   0  0  0  0  0  0  0  0  0  0  0  0
   57.2184   32.4976   46.8384 H   0  0  0  0  0  0  0  0  0  0  0  0
   57.7553   33.9322   47.8298 H   0  0  0  0  0  0  0  0  0  0  0  0
   57.3530   34.9450   45.9880 H   0  0  0  0  0  0  0  0  0  0  0  0
   56.2717   33.4650   44.7422 H   0  0  0  0  0  0  0  0  0  0  0  0
   57.6472   34.1256   43.7067 H   0  0  0  0  0  0  0  0  0  0  0  0
   57.5640   31.8322   43.2034 H   0  0  0  0  0  0  0  0  0  0  0  0
   58.9310   32.0347   44.3655 H   0  0  0  0  0  0  0  0  0  0  0  0
   59.7780   30.5071   45.8415 H   0  0  0  0  0  0  0  0  0  0  0  0
   60.6106   28.2090   46.3312 H   0  0  0  0  0  0  0  0  0  0  0  0
   59.0735   26.2542   46.1429 H   0  0  0  0  0  0  0  0  0  0  0  0
   56.6995   26.5903   45.4614 H   0  0  0  0  0  0  0  0  0  0  0  0
   54.6864   30.6934   44.1156 H   0  0  0  0  0  0  0  0  0  0  0  0
   56.0442   30.0059   43.1613 H   0  0  0  0  0  0  0  0  0  0  0  0
   54.4433   29.1911   43.1613 H   0  0  0  0  0  0  0  0  0  0  0  0
   59.8204   34.1368   44.7003 H   0  0  0  0  0  0  0  0  0  0  0  0
   59.1044   35.7743   45.0447 H   0  0  0  0  0  0  0  0  0  0  0  0
   61.1657   35.3415   46.3720 H   0  0  0  0  0  0  0  0  0  0  0  0
   59.7082   35.5838   47.3976 H   0  0  0  0  0  0  0  0  0  0  0  0
   62.8728   34.4078   46.5275 H   0  0  0  0  0  0  0  0  0  0  0  0
   65.0290   33.8417   47.6221 H   0  0  0  0  0  0  0  0  0  0  0  0
  1  2  1  0
  2  3  1  0
  3  4  1  0
  4  5  2  0
  5  6  1  0
  6  7  1  0
  7  8  1  0
  8  9  1  0
  9 10  1  0
 10 11  1  0
 11 12  1  0
 12 13  1  0
 13 14  1  0
 14 15  2  0
 15 16  1  0
 16 17  2  0
 17 18  1  0
 18 19  2  0
 19 20  1  0
 20 21  1  0
 10 22  1  0
 22 23  1  0
  6 24  2  0
 24 25  1  0
 25 26  2  0
 26 27  1  0
 27 28  2  0
 27 29  1  0
 26  4  1  0
 23  7  1  0
 19 14  1  0
  1 30  1  0
  1 31  1  0
  1 32  1  0
  2 33  1  0
  2 34  1  0
  3 35  1  0
  5 36  1  0
  8 37  1  0
  8 38  1  0
  9 39  1  0
  9 40  1  0
 10 41  1  0
 11 42  1  0
 11 43  1  0
 12 44  1  0
 12 45  1  0
 15 46  1  0
 16 47  1  0
 17 48  1  0
 18 49  1  0
 21 50  1  0
 21 51  1  0
 21 52  1  0
 22 53  1  0
 22 54  1  0
 23 55  1  0
 23 56  1  0
 24 57  1  0
 25 58  1  0
M  CHG  3  10   1  27   1  29  -1
M  END
>  <UniqueID>  (17) 
17

>  <SMILES>  (17) 
CCNc1cc(N2CC[NH+](CCOc3ccccc3OC)CC2)ccc1[N+](=O)[O-]

>  <Energy>  (17) 
73.42331804325612

>  <Genealogy>  (17) 
CCNc1cc(N2CC[NH+](CCOc3ccccc3OC)CC2)ccc1[N+](=O)[O-] (protonated)
CCNc1cc(N2CC[NH+](CCOc3ccccc3OC)CC2)ccc1[N+](=O)[O-] (3D coordinates assigned)
CCNc1cc(N2CC[NH+](CCOc3ccccc3OC)CC2)ccc1[N+](=O)[O-] (nonaromatic ring conformer: 73.42331804325612 kcal/mol)

>  <smiles>  (17) 
CCNc1cc(N2CCN(CCOc3ccccc3OC)CC2)ccc1[N+](=O)[O-]

>  <score_type>  (17) 
oracle

>  <origin>  (17) 
adg

>  <m_score__min__energy>  (17) 
-6.5199999999999996

>  <m_primary>  (17) 
energy

$$$$
17:0
     RDKit          3D

 43 45  0  0  0  0  0  0  0  0999 V2000
   58.9380   30.3270   46.7310 C   0  0  0  0  0  0  0  0  0  0  0  0
   57.7310   30.8380   46.1750 O   0  0  0  0  0  0  0  0  0  0  0  0
   57.4820   30.9820   44.7990 C   0  0  0  0  0  0  0  0  0  0  0  0
   56.7660   30.0090   44.0740 C   0  0  0  0  0  0  0  0  0  0  0  0
   56.5460   30.1670   42.7040 C   0  0  0  0  0  0  0  0  0  0  0  0
   57.0390   31.2900   42.0410 C   0  0  0  0  0  0  0  0  0  0  0  0
   57.7470   32.2630   42.7460 C   0  0  0  0  0  0  0  0  0  0  0  0
   57.9670   32.1270   44.1280 C   0  0  0  0  0  0  0  0  0  0  0  0
   58.7220   33.2130   44.8670 C   0  0  0  0  0  0  0  0  0  0  0  0
   58.0650   33.6030   46.1270 N   0  0  0  0  0  0  0  0  0  0  0  0
   58.8320   34.5880   46.9060 C   0  0  0  0  0  0  0  0  0  0  0  0
   60.1980   34.0500   47.3010 C   0  0  0  0  0  0  0  0  0  0  0  0
   61.2380   34.2100   46.3750 C   0  0  0  0  0  0  0  0  0  0  0  0
   62.5300   33.8200   46.6900 C   0  0  0  0  0  0  0  0  0  0  0  0
   63.4450   33.9730   45.8360 O   0  0  0  0  0  0  0  0  0  0  0  0
   62.8040   33.2830   47.9540 C   0  0  0  0  0  0  0  0  0  0  0  0
   64.1190   32.9260   48.3140 C   0  0  0  0  0  0  0  0  0  0  0  0
   64.3910   32.4190   49.5820 C   0  0  0  0  0  0  0  0  0  0  0  0
   63.3640   32.2690   50.5080 C   0  0  0  0  0  0  0  0  0  0  0  0
   62.0540   32.6100   50.1700 C   0  0  0  0  0  0  0  0  0  0  0  0
   61.7380   33.1070   48.8790 C   0  0  0  0  0  0  0  0  0  0  0  0
   60.4400   33.4290   48.5130 N   0  0  0  0  0  0  0  0  0  0  0  0
   59.3220   33.1180   49.4310 C   0  0  0  0  0  0  0  0  0  0  0  0
   58.8759   30.3533   47.8289 H   0  0  0  0  0  0  0  0  0  0  0  0
   59.0852   29.2894   46.3968 H   0  0  0  0  0  0  0  0  0  0  0  0
   59.7855   30.9435   46.3968 H   0  0  0  0  0  0  0  0  0  0  0  0
   56.3776   29.1189   44.5906 H   0  0  0  0  0  0  0  0  0  0  0  0
   55.9826   29.4039   42.1469 H   0  0  0  0  0  0  0  0  0  0  0  0
   56.8694   31.4087   40.9607 H   0  0  0  0  0  0  0  0  0  0  0  0
   58.1368   33.1447   42.2161 H   0  0  0  0  0  0  0  0  0  0  0  0
   59.7332   32.8456   45.0960 H   0  0  0  0  0  0  0  0  0  0  0  0
   58.7501   34.1003   44.2174 H   0  0  0  0  0  0  0  0  0  0  0  0
   57.9170   32.7530   46.7190 H   0  0  0  0  0  0  0  0  0  0  0  0
   58.9678   35.4952   46.2990 H   0  0  0  0  0  0  0  0  0  0  0  0
   58.2713   34.8103   47.8259 H   0  0  0  0  0  0  0  0  0  0  0  0
   61.0267   34.6493   45.3889 H   0  0  0  0  0  0  0  0  0  0  0  0
   64.9363   33.0488   47.5881 H   0  0  0  0  0  0  0  0  0  0  0  0
   65.4194   32.1367   49.8517 H   0  0  0  0  0  0  0  0  0  0  0  0
   63.5859   31.8793   51.5125 H   0  0  0  0  0  0  0  0  0  0  0  0
   61.2540   32.4918   50.9156 H   0  0  0  0  0  0  0  0  0  0  0  0
   59.6648   33.2134   50.4718 H   0  0  0  0  0  0  0  0  0  0  0  0
   58.4943   33.8200   49.2518 H   0  0  0  0  0  0  0  0  0  0  0  0
   58.9757   32.0894   49.2518 H   0  0  0  0  0  0  0  0  0  0  0  0
  1  2  1  0
  2  3  1  0
  3  4  2  0
  4  5  1  0
  5  6  2  0
  6  7  1  0
  7  8  2  0
  8  9  1  0
  9 10  1  0
 10 11  1  0
 11 12  1  0
 12 13  2  0
 13 14  1  0
 14 15  2  0
 14 16  1  0
 16 17  2  0
 17 18  1  0
 18 19  2  0
 19 20  1  0
 20 21  2  0
 21 22  1  0
 22 23  1  0
  8  3  1  0
 22 12  1  0
 21 16  1  0
  1 24  1  0
  1 25  1  0
  1 26  1  0
  4 27  1  0
  5 28  1  0
  6 29  1  0
  7 30  1  0
  9 31  1  0
  9 32  1  0
 10 33  1  0
 11 34  1  0
 11 35  1  0
 13 36  1  0
 17 37  1  0
 18 38  1  0
 19 39  1  0
 20 40  1  0
 23 41  1  0
 23 42  1  0
 23 43  1  0
M  END
>  <UniqueID>  (18) 
18

>  <SMILES>  (18) 
COc1ccccc1CNCc1cc(=O)c2ccccc2n1C

>  <Energy>  (18) 
58.735386580001496

>  <Genealogy>  (18) 
COc1ccccc1CNCc1cc(=O)c2ccccc2n1C (3D coordinates assigned)
COc1ccccc1CNCc1cc(=O)c2ccccc2n1C (optimized conformer: 58.735386580001496 kcal/mol)

>  <smiles>  (18) 
COc1ccccc1CNCc1cc(=O)c2ccccc2n1C

>  <score_type>  (18) 
oracle

>  <origin>  (18) 
adg

>  <m_score__min__energy>  (18) 
-7.6200000000000001

>  <m_primary>  (18) 
energy

$$$$
18:0
     RDKit          3D

 59 62  0  0  0  0  0  0  0  0999 V2000
   60.1120   34.3470   48.4790 C   0  0  0  0  0  0  0  0  0  0  0  0
   59.4610   34.3120   47.1190 C   0  0  0  0  0  0  0  0  0  0  0  0
   59.7780   35.3290   46.1990 C   0  0  0  0  0  0  0  0  0  0  0  0
   59.2700   35.3000   44.9000 C   0  0  0  0  0  0  0  0  0  0  0  0
   58.4580   34.2460   44.4930 C   0  0  0  0  0  0  0  0  0  0  0  0
   58.1370   33.2240   45.3860 C   0  0  0  0  0  0  0  0  0  0  0  0
   58.6090   33.2480   46.7130 C   0  0  0  0  0  0  0  0  0  0  0  0
   58.2200   32.1060   47.6440 C   0  0  0  0  0  0  0  0  0  0  0  0
   59.0250   30.8740   47.4680 N   0  0  0  0  0  0  0  0  0  0  0  0
   60.4380   31.0200   47.8450 C   0  0  0  0  0  0  0  0  0  0  0  0
   61.0830   29.6270   48.0120 C   0  0  0  0  0  0  0  0  0  0  0  0
   60.4390   28.5710   47.1810 N   0  0  0  0  0  0  0  0  0  0  0  0
   59.3850   27.8260   47.9200 C   0  0  0  0  0  0  0  0  0  0  0  0
   58.8040   26.7010   47.0930 C   0  0  0  0  0  0  0  0  0  0  0  0
   59.6530   25.7870   46.4510 C   0  0  0  0  0  0  0  0  0  0  0  0
   59.1240   24.7400   45.6930 C   0  0  0  0  0  0  0  0  0  0  0  0
   57.7310   24.5860   45.5650 C   0  0  0  0  0  0  0  0  0  0  0  0
   57.1780   23.5100   44.7820 N   0  0  0  0  0  0  0  0  0  0  0  0
   56.2090   23.7990   43.7190 C   0  0  0  0  0  0  0  0  0  0  0  0
   56.3000   22.7200   42.6360 C   0  0  0  0  0  0  0  0  0  0  0  0
   56.1710   21.4300   43.2020 O   0  0  0  0  0  0  0  0  0  0  0  0
   57.2670   21.1690   44.0580 C   0  0  0  0  0  0  0  0  0  0  0  0
   57.2670   22.1250   45.2550 C   0  0  0  0  0  0  0  0  0  0  0  0
   56.8830   25.5090   46.1980 C   0  0  0  0  0  0  0  0  0  0  0  0
   57.4130   26.5550   46.9580 C   0  0  0  0  0  0  0  0  0  0  0  0
   59.9170   29.1280   45.9120 C   0  0  0  0  0  0  0  0  0  0  0  0
   58.8740   30.2450   46.1410 C   0  0  0  0  0  0  0  0  0  0  0  0
   59.3364   34.3053   49.2579 H   0  0  0  0  0  0  0  0  0  0  0  0
   60.7854   33.4838   48.5855 H   0  0  0  0  0  0  0  0  0  0  0  0
   60.6890   35.2775   48.5855 H   0  0  0  0  0  0  0  0  0  0  0  0
   60.4339   36.1563   46.5078 H   0  0  0  0  0  0  0  0  0  0  0  0
   59.5116   36.1109   44.1971 H   0  0  0  0  0  0  0  0  0  0  0  0
   58.0684   34.2188   43.4647 H   0  0  0  0  0  0  0  0  0  0  0  0
   57.5066   32.3877   45.0495 H   0  0  0  0  0  0  0  0  0  0  0  0
   58.3407   32.4510   48.6815 H   0  0  0  0  0  0  0  0  0  0  0  0
   57.1808   31.8407   47.3997 H   0  0  0  0  0  0  0  0  0  0  0  0
   60.9697   31.5765   47.0591 H   0  0  0  0  0  0  0  0  0  0  0  0
   60.5046   31.5669   48.7971 H   0  0  0  0  0  0  0  0  0  0  0  0
   62.1428   29.6973   47.7259 H   0  0  0  0  0  0  0  0  0  0  0  0
   60.9539   29.3344   49.0645 H   0  0  0  0  0  0  0  0  0  0  0  0
   61.1860   27.8860   46.9090 H   0  0  0  0  0  0  0  0  0  0  0  0
   59.8239   27.4039   48.8360 H   0  0  0  0  0  0  0  0  0  0  0  0
   58.5730   28.5293   48.1567 H   0  0  0  0  0  0  0  0  0  0  0  0
   60.7435   25.8958   46.5454 H   0  0  0  0  0  0  0  0  0  0  0  0
   59.8004   24.0313   45.1929 H   0  0  0  0  0  0  0  0  0  0  0  0
   55.1935   23.8091   44.1417 H   0  0  0  0  0  0  0  0  0  0  0  0
   56.4327   24.7811   43.2769 H   0  0  0  0  0  0  0  0  0  0  0  0
   55.4941   22.8750   41.9035 H   0  0  0  0  0  0  0  0  0  0  0  0
   57.2817   22.7939   42.1454 H   0  0  0  0  0  0  0  0  0  0  0  0
   57.1993   20.1339   44.4241 H   0  0  0  0  0  0  0  0  0  0  0  0
   58.1980   21.3165   43.4910 H   0  0  0  0  0  0  0  0  0  0  0  0
   56.4042   21.9029   45.9002 H   0  0  0  0  0  0  0  0  0  0  0  0
   58.1985   21.9942   45.8253 H   0  0  0  0  0  0  0  0  0  0  0  0
   55.7925   25.4078   46.0948 H   0  0  0  0  0  0  0  0  0  0  0  0
   56.7376   27.2680   47.4533 H   0  0  0  0  0  0  0  0  0  0  0  0
   60.7577   29.5429   45.3366 H   0  0  0  0  0  0  0  0  0  0  0  0
   59.4188   28.3117   45.3685 H   0  0  0  0  0  0  0  0  0  0  0  0
   59.0011   31.0149   45.3657 H   0  0  0  0  0  0  0  0  0  0  0  0
   57.8726   29.7928   46.0895 H   0  0  0  0  0  0  0  0  0  0  0  0
  1  2  1  0
  2  3  2  0
  3  4  1  0
  4  5  2  0
  5  6  1  0
  6  7  2  0
  7  8  1  0
  8  9  1  0
  9 10  1  0
 10 11  1  0
 11 12  1  0
 12 13  1  0
 13 14  1  0
 14 15  2  0
 15 16  1  0
 16 17  2  0
 17 18  1  0
 18 19  1  0
 19 20  1  0
 20 21  1  0
 21 22  1  0
 22 23  1  0
 17 24  1  0
 24 25  2  0
 12 26  1  0
 26 27  1  0
  7  2  1  0
 27  9  1  0
 25 14  1  0
 23 18  1  0
  1 28  1  0
  1 29  1  0
  1 30  1  0
  3 31  1  0
  4 32  1  0
  5 33  1  0
  6 34  1  0
  8 35  1  0
  8 36  1  0
 10 37  1  0
 10 38  1  0
 11 39  1  0
 11 40  1  0
 12 41  1  0
 13 42  1  0
 13 43  1  0
 15 44  1  0
 16 45  1  0
 19 46  1  0
 19 47  1  0
 20 48  1  0
 20 49  1  0
 22 50  1  0
 22 51  1  0
 23 52  1  0
 23 53  1  0
 24 54  1  0
 25 55  1  0
 26 56  1  0
 26 57  1  0
 27 58  1  0
 27 59  1  0
M  CHG  1  12   1
M  END
>  <UniqueID>  (19) 
19

>  <SMILES>  (19) 
Cc1ccccc1CN1CC[NH+](Cc2ccc(N3CCOCC3)cc2)CC1

>  <Energy>  (19) 
83.55794029758954

>  <Genealogy>  (19) 
Cc1ccccc1CN1CC[NH+](Cc2ccc(N3CCOCC3)cc2)CC1 (protonated)
Cc1ccccc1CN1CC[NH+](Cc2ccc(N3CCOCC3)cc2)CC1 (3D coordinates assigned)
Cc1ccccc1CN1CC[NH+](Cc2ccc(N3CCOCC3)cc2)CC1 (nonaromatic ring conformer: 83.55794029758954 kcal/mol)

>  <smiles>  (19) 
Cc1ccccc1CN1CCN(Cc2ccc(N3CCOCC3)cc2)CC1

>  <score_type>  (19) 
oracle

>  <origin>  (19) 
adg

>  <m_score__min__energy>  (19) 
-6.7999999999999998

>  <m_primary>  (19) 
energy

$$$$
19:0
     RDKit          3D

 78 81  0  0  0  0  0  0  0  0999 V2000
   56.5690   23.7170   43.0880 C   0  0  0  0  0  0  0  0  0  0  0  0
   56.3070   22.4230   42.8980 C   0  0  0  0  0  0  0  0  0  0  0  0
   57.3530   21.3570   43.1050 C   0  0  0  0  0  0  0  0  0  0  0  0
   57.0920   20.6210   44.3560 N   0  0  0  0  0  0  0  0  0  0  0  0
   57.8820   21.1270   45.4950 C   0  0  0  0  0  0  0  0  0  0  0  0
   57.2380   22.3440   46.1740 C   0  0  0  0  0  0  0  0  0  0  0  0
   55.8470   22.3480   45.9170 O   0  0  0  0  0  0  0  0  0  0  0  0
   55.1850   23.2320   46.7940 C   0  0  0  0  0  0  0  0  0  0  0  0
   54.2510   24.1180   45.9730 C   0  0  0  0  0  0  0  0  0  0  0  0
   54.8300   25.3920   45.7580 O   0  0  0  0  0  0  0  0  0  0  0  0
   56.2420   25.3460   45.8710 C   0  0  0  0  0  0  0  0  0  0  0  0
   56.7850   26.6610   46.4310 C   0  0  0  0  0  0  0  0  0  0  0  0
   56.3650   27.7230   45.5970 O   0  0  0  0  0  0  0  0  0  0  0  0
   57.3940   28.6830   45.4950 C   0  0  0  0  0  0  0  0  0  0  0  0
   58.5310   28.1420   44.6270 C   0  0  0  0  0  0  0  0  0  0  0  0
   59.8290   28.3240   45.2800 N   0  0  0  0  0  0  0  0  0  0  0  0
   60.0030   28.3790   46.7080 C   0  0  0  0  0  0  0  0  0  0  0  0
   60.2490   27.2280   47.4680 C   0  0  0  0  0  0  0  0  0  0  0  0
   60.4110   27.3150   48.8510 C   0  0  0  0  0  0  0  0  0  0  0  0
   60.3610   28.5630   49.5140 C   0  0  0  0  0  0  0  0  0  0  0  0
   60.2040   29.7430   48.7340 C   0  0  0  0  0  0  0  0  0  0  0  0
   59.9410   29.6180   47.3520 C   0  0  0  0  0  0  0  0  0  0  0  0
   60.2130   31.0100   49.3850 C   0  0  0  0  0  0  0  0  0  0  0  0
   60.0090   31.0170   50.7830 C   0  0  0  0  0  0  0  0  0  0  0  0
   59.5990   32.1900   51.4320 C   0  0  0  0  0  0  0  0  0  0  0  0
   59.3530   33.3460   50.6950 C   0  0  0  0  0  0  0  0  0  0  0  0
   59.6870   33.3940   49.3370 C   0  0  0  0  0  0  0  0  0  0  0  0
   59.4800   34.5580   48.5930 C   0  0  0  0  0  0  0  0  0  0  0  0
   59.9070   34.6180   47.2710 C   0  0  0  0  0  0  0  0  0  0  0  0
   60.6650   33.5700   46.7510 C   0  0  0  0  0  0  0  0  0  0  0  0
   60.9550   32.4700   47.5130 N   0  0  0  0  0  0  0  0  0  0  0  0
   62.1350   31.6670   47.1150 C   0  0  0  0  0  0  0  0  0  0  0  0
   63.4480   32.4060   47.4290 C   0  0  0  0  0  0  0  0  0  0  0  0
   60.2860   32.2710   48.7090 C   0  0  0  0  0  0  0  0  0  0  0  0
   60.1640   29.8360   51.5130 C   0  0  0  0  0  0  0  0  0  0  0  0
   60.4140   28.6490   50.8880 N   0  0  0  0  0  0  0  0  0  0  0  0
   60.6490   27.4620   51.7300 C   0  0  0  0  0  0  0  0  0  0  0  0
   55.7807   24.4672   42.9273 H   0  0  0  0  0  0  0  0  0  0  0  0
   57.5734   24.0340   43.4054 H   0  0  0  0  0  0  0  0  0  0  0  0
   55.2970   22.1245   42.5806 H   0  0  0  0  0  0  0  0  0  0  0  0
   57.3281   20.6547   42.2587 H   0  0  0  0  0  0  0  0  0  0  0  0
   58.3423   21.8337   43.1696 H   0  0  0  0  0  0  0  0  0  0  0  0
   56.0710   20.6670   44.5860 H   0  0  0  0  0  0  0  0  0  0  0  0
   57.3480   19.6150   44.2180 H   0  0  0  0  0  0  0  0  0  0  0  0
   57.9818   20.3222   46.2382 H   0  0  0  0  0  0  0  0  0  0  0  0
   58.8594   21.4457   45.1036 H   0  0  0  0  0  0  0  0  0  0  0  0
   57.4099   22.2917   47.2592 H   0  0  0  0  0  0  0  0  0  0  0  0
   57.6866   23.2657   45.7749 H   0  0  0  0  0  0  0  0  0  0  0  0
   54.6015   22.6581   47.5290 H   0  0  0  0  0  0  0  0  0  0  0  0
   55.9188   23.8519   47.3300 H   0  0  0  0  0  0  0  0  0  0  0  0
   54.0609   23.6392   45.0011 H   0  0  0  0  0  0  0  0  0  0  0  0
   53.3089   24.2466   46.5261 H   0  0  0  0  0  0  0  0  0  0  0  0
   56.5232   24.5235   46.5451 H   0  0  0  0  0  0  0  0  0  0  0  0
   56.6707   25.1850   44.8708 H   0  0  0  0  0  0  0  0  0  0  0  0
   56.3985   26.8162   47.4491 H   0  0  0  0  0  0  0  0  0  0  0  0
   57.8839   26.6260   46.4644 H   0  0  0  0  0  0  0  0  0  0  0  0
   56.9925   29.6001   45.0391 H   0  0  0  0  0  0  0  0  0  0  0  0
   57.7817   28.9045   46.5003 H   0  0  0  0  0  0  0  0  0  0  0  0
   58.3666   27.0691   44.4483 H   0  0  0  0  0  0  0  0  0  0  0  0
   58.5382   28.6969   43.6773 H   0  0  0  0  0  0  0  0  0  0  0  0
   60.6850   28.4110   44.6850 H   0  0  0  0  0  0  0  0  0  0  0  0
   60.3149   26.2490   46.9709 H   0  0  0  0  0  0  0  0  0  0  0  0
   60.5803   26.3983   49.4349 H   0  0  0  0  0  0  0  0  0  0  0  0
   59.6819   30.5148   46.7701 H   0  0  0  0  0  0  0  0  0  0  0  0
   59.4714   32.1975   52.5245 H   0  0  0  0  0  0  0  0  0  0  0  0
   58.8962   34.2211   51.1804 H   0  0  0  0  0  0  0  0  0  0  0  0
   58.9808   35.4244   49.0514 H   0  0  0  0  0  0  0  0  0  0  0  0
   59.6494   35.4831   46.6423 H   0  0  0  0  0  0  0  0  0  0  0  0
   61.0344   33.6274   45.7165 H   0  0  0  0  0  0  0  0  0  0  0  0
   62.1208   30.7136   47.6635 H   0  0  0  0  0  0  0  0  0  0  0  0
   62.0860   31.4934   46.0299 H   0  0  0  0  0  0  0  0  0  0  0  0
   63.5764   32.4783   48.5191 H   0  0  0  0  0  0  0  0  0  0  0  0
   64.2935   31.8513   46.9962 H   0  0  0  0  0  0  0  0  0  0  0  0
   63.4125   33.4166   46.9962 H   0  0  0  0  0  0  0  0  0  0  0  0
   60.0832   29.8634   52.6097 H   0  0  0  0  0  0  0  0  0  0  0  0
   60.5924   27.7478   52.7907 H   0  0  0  0  0  0  0  0  0  0  0  0
   59.8839   26.7018   51.5138 H   0  0  0  0  0  0  0  0  0  0  0  0
   61.6460   27.0506   51.5138 H   0  0  0  0  0  0  0  0  0  0  0  0
  1  2  2  0
  2  3  1  0
  3  4  1  0
  4  5  1  0
  5  6  1  0
  6  7  1  0
  7  8  1  0
  8  9  1  0
  9 10  1  0
 10 11  1  0
 11 12  1  0
 12 13  1  0
 13 14  1  0
 14 15  1  0
 15 16  1  0
 16 17  1  0
 17 18  2  0
 18 19  1  0
 19 20  2  0
 20 21  1  0
 21 22  2  0
 21 23  1  0
 23 24  2  0
 24 25  1  0
 25 26  2  0
 26 27  1  0
 27 28  2  0
 28 29  1  0
 29 30  2  0
 30 31  1  0
 31 32  1  0
 32 33  1  0
 31 34  2  0
 24 35  1  0
 35 36  2  0
 36 37  1  0
 22 17  1  0
 34 23  1  0
 36 20  1  0
 34 27  1  0
  1 38  1  0
  1 39  1  0
  2 40  1  0
  3 41  1  0
  3 42  1  0
  4 43  1  0
  4 44  1  0
  5 45  1  0
  5 46  1  0
  6 47  1  0
  6 48  1  0
  8 49  1  0
  8 50  1  0
  9 51  1  0
  9 52  1  0
 11 53  1  0
 11 54  1  0
 12 55  1  0
 12 56  1  0
 14 57  1  0
 14 58  1  0
 15 59  1  0
 15 60  1  0
 16 61  1  0
 18 62  1  0
 19 63  1  0
 22 64  1  0
 25 65  1  0
 26 66  1  0
 28 67  1  0
 29 68  1  0
 30 69  1  0
 32 70  1  0
 32 71  1  0
 33 72  1  0
 33 73  1  0
 33 74  1  0
 35 75  1  0
 37 76  1  0
 37 77  1  0
 37 78  1  0
M  CHG  3   4   1  31   1  36   1
M  END
>  <UniqueID>  (20) 
20

>  <SMILES>  (20) 
C=CC[NH2+]CCOCCOCCOCCNc1ccc2c(c1)c1c(ccc3ccc[n+](CC)c31)c[n+]2C

>  <Energy>  (20) 
121.68919548932541

>  <Genealogy>  (20) 
C=CC[NH2+]CCOCCOCCOCCNc1ccc2c(c1)c1c(ccc3ccc[n+](CC)c31)c[n+]2C (protonated)
C=CC[NH2+]CCOCCOCCOCCNc1ccc2c(c1)c1c(ccc3ccc[n+](CC)c31)c[n+]2C (3D coordinates assigned)
C=CC[NH2+]CCOCCOCCOCCNc1ccc2c(c1)c1c(ccc3ccc[n+](CC)c31)c[n+]2C (optimized conformer: 121.68919548932541 kcal/mol)

>  <smiles>  (20) 
C=CCNCCOCCOCCOCCNc1ccc2c(c1)c1c(ccc3ccc[n+](CC)c31)c[n+]2C

>  <score_type>  (20) 
oracle

>  <origin>  (20) 
adg

>  <m_score__min__energy>  (20) 
-4.1100000000000003

>  <m_primary>  (20) 
energy

$$$$
20:0
     RDKit          3D

 50 52  0  0  0  0  0  0  0  0999 V2000
   59.1833   35.6786   48.5256 H   0  0  0  0  0  0  0  0  0  0  0  0
   59.3500   34.6290   48.2420 C   0  0  0  0  0  0  0  0  0  0  0  0
   60.0090   33.8490   49.1120 C   0  0  0  0  0  0  0  0  0  0  0  0
   59.7831   33.9720   50.1815 H   0  0  0  0  0  0  0  0  0  0  0  0
   61.0440   32.8090   48.7250 C   0  0  0  0  0  0  0  0  0  0  0  0
   61.4795   32.3931   49.6455 H   0  0  0  0  0  0  0  0  0  0  0  0
   61.7923   33.3173   48.0993 H   0  0  0  0  0  0  0  0  0  0  0  0
   60.4930   31.6900   47.9200 N   0  0  0  0  0  0  0  0  0  0  0  0
   59.8390   32.1390   47.2330 H   0  0  0  0  0  0  0  0  0  0  0  0
   61.5360   31.0230   47.1040 C   0  0  0  0  0  0  0  0  0  0  0  0
   62.4257   30.8490   47.7271 H   0  0  0  0  0  0  0  0  0  0  0  0
   61.7878   31.6721   46.2523 H   0  0  0  0  0  0  0  0  0  0  0  0
   61.0270   29.6800   46.5670 C   0  0  0  0  0  0  0  0  0  0  0  0
   61.7969   29.2422   45.9146 H   0  0  0  0  0  0  0  0  0  0  0  0
   60.0963   29.8641   46.0103 H   0  0  0  0  0  0  0  0  0  0  0  0
   60.7280   28.7260   47.6660 N   0  0  0  0  0  0  0  0  0  0  0  0
   59.7150   27.7290   47.2560 C   0  0  0  0  0  0  0  0  0  0  0  0
   59.0767   27.4888   48.1191 H   0  0  0  0  0  0  0  0  0  0  0  0
   60.2347   26.8278   46.8986 H   0  0  0  0  0  0  0  0  0  0  0  0
   58.8540   28.2620   46.1390 C   0  0  0  0  0  0  0  0  0  0  0  0
   58.8730   27.6580   44.8730 C   0  0  0  0  0  0  0  0  0  0  0  0
   59.5368   26.8013   44.6846 H   0  0  0  0  0  0  0  0  0  0  0  0
   58.0510   28.1410   43.8490 C   0  0  0  0  0  0  0  0  0  0  0  0
   58.0647   27.6547   42.8624 H   0  0  0  0  0  0  0  0  0  0  0  0
   57.2080   29.2430   44.0720 C   0  0  0  0  0  0  0  0  0  0  0  0
   56.2840   29.7300   42.9830 C   0  0  0  0  0  0  0  0  0  0  0  0
   56.6460   30.9990   42.5670 F   0  0  0  0  0  0  0  0  0  0  0  0
   54.9910   29.7660   43.4670 F   0  0  0  0  0  0  0  0  0  0  0  0
   56.3330   28.8850   41.8880 F   0  0  0  0  0  0  0  0  0  0  0  0
   57.1670   29.8230   45.3520 C   0  0  0  0  0  0  0  0  0  0  0  0
   56.4839   30.6621   45.5501 H   0  0  0  0  0  0  0  0  0  0  0  0
   57.9890   29.3400   46.3750 C   0  0  0  0  0  0  0  0  0  0  0  0
   57.9568   29.8081   47.3699 H   0  0  0  0  0  0  0  0  0  0  0  0
   60.3570   29.3880   48.9420 C   0  0  0  0  0  0  0  0  0  0  0  0
   61.2699   29.5499   49.5340 H   0  0  0  0  0  0  0  0  0  0  0  0
   59.6470   28.7309   49.4655 H   0  0  0  0  0  0  0  0  0  0  0  0
   59.6640   30.7450   48.7220 C   0  0  0  0  0  0  0  0  0  0  0  0
   59.4610   31.1998   49.7028 H   0  0  0  0  0  0  0  0  0  0  0  0
   58.7364   30.5578   48.1612 H   0  0  0  0  0  0  0  0  0  0  0  0
   58.8320   34.1860   46.9340 C   0  0  0  0  0  0  0  0  0  0  0  0
   57.6190   33.4850   46.8360 C   0  0  0  0  0  0  0  0  0  0  0  0
   57.0590   33.2278   47.7472 H   0  0  0  0  0  0  0  0  0  0  0  0
   57.1210   33.1130   45.5830 C   0  0  0  0  0  0  0  0  0  0  0  0
   56.1783   32.5508   45.5110 H   0  0  0  0  0  0  0  0  0  0  0  0
   57.8200   33.4550   44.4230 C   0  0  0  0  0  0  0  0  0  0  0  0
   57.4310   33.1557   43.4386 H   0  0  0  0  0  0  0  0  0  0  0  0
   59.0130   34.1770   44.5120 C   0  0  0  0  0  0  0  0  0  0  0  0
   59.5591   34.4511   43.5973 H   0  0  0  0  0  0  0  0  0  0  0  0
   59.5140   34.5520   45.7650 C   0  0  0  0  0  0  0  0  0  0  0  0
   60.4445   35.1349   45.8320 H   0  0  0  0  0  0  0  0  0  0  0  0
  1  2  1  0
  2  3  2  0
  3  4  1  0
  3  5  1  0
  5  6  1  0
  5  7  1  0
  5  8  1  0
  8  9  1  0
  8 10  1  0
 10 11  1  0
 10 12  1  0
 10 13  1  0
 13 14  1  0
 13 15  1  0
 13 16  1  0
 16 17  1  0
 17 18  1  0
 17 19  1  0
 17 20  1  0
 20 21  2  0
 21 22  1  0
 21 23  1  0
 23 24  1  0
 23 25  2  0
 25 26  1  0
 26 27  1  0
 26 28  1  0
 26 29  1  0
 25 30  1  0
 30 31  1  0
 30 32  2  0
 32 33  1  0
 16 34  1  0
 34 35  1  0
 34 36  1  0
 34 37  1  0
 37 38  1  0
 37 39  1  0
  2 40  1  0
 40 41  2  0
 41 42  1  0
 41 43  1  0
 43 44  1  0
 43 45  2  0
 45 46  1  0
 45 47  1  0
 47 48  1  0
 47 49  2  0
 49 50  1  0
 37  8  1  0
 49 40  1  0
 32 20  1  0
M  CHG  1   8   1
M  END
>  <UniqueID>  (21) 
21

>  <SMILES>  (21) 
FC(F)(F)c1ccc(CN2CC[NH+](C/C=C\c3ccccc3)CC2)cc1

>  <Energy>  (21) 
74.93917863901972

>  <Genealogy>  (21) 
FC(F)(F)c1ccc(CN2CC[NH+](CC=Cc3ccccc3)CC2)cc1 (protonated)
FC(F)(F)c1ccc(CN2CC[NH+](C/C=C\c3ccccc3)CC2)cc1 (cis-trans isomerization)
FC(F)(F)c1ccc(CN2CC[NH+](C/C=C\c3ccccc3)CC2)cc1 (3D coordinates assigned)
FC(F)(F)c1ccc(CN2CC[NH+](C/C=C\c3ccccc3)CC2)cc1 (nonaromatic ring conformer: 74.93917863901972 kcal/mol)

>  <smiles>  (21) 
FC(F)(F)c1ccc(CN2CCN(CC=Cc3ccccc3)CC2)cc1

>  <score_type>  (21) 
oracle

>  <origin>  (21) 
adg

>  <m_score__min__energy>  (21) 
-5.8700000000000001

>  <m_primary>  (21) 
energy

$$$$
21:0
     RDKit          3D

 54 57  0  0  0  0  0  0  0  0999 V2000
   57.3700   31.5920   42.3500 C   0  0  0  0  0  0  0  0  0  0  0  0
   56.6890   30.5340   43.2030 C   0  0  0  0  0  0  0  0  0  0  0  0
   56.4480   31.0540   44.5040 O   0  0  0  0  0  0  0  0  0  0  0  0
   57.4890   31.4060   45.3390 N   0  0  0  0  0  0  0  0  0  0  0  0
   57.8190   32.6670   45.7020 C   0  0  0  0  0  0  0  0  0  0  0  0
   57.0890   33.8890   45.2370 C   0  0  0  0  0  0  0  0  0  0  0  0
   58.9620   32.6470   46.5060 C   0  0  0  0  0  0  0  0  0  0  0  0
   59.6680   33.8240   47.1370 C   0  0  0  0  0  0  0  0  0  0  0  0
   60.9100   33.4130   47.8330 N   0  0  0  0  0  0  0  0  0  0  0  0
   61.1840   34.2790   49.0080 C   0  0  0  0  0  0  0  0  0  0  0  0
   62.6510   34.2220   49.4980 C   0  0  0  0  0  0  0  0  0  0  0  0
   63.3760   33.0660   48.9520 N   0  0  0  0  0  0  0  0  0  0  0  0
   64.4090   32.4360   49.7320 C   0  0  0  0  0  0  0  0  0  0  0  0
   65.7170   32.9560   49.7400 C   0  0  0  0  0  0  0  0  0  0  0  0
   66.7180   32.3410   50.4980 C   0  0  0  0  0  0  0  0  0  0  0  0
   66.4250   31.2050   51.2580 C   0  0  0  0  0  0  0  0  0  0  0  0
   67.3970   30.6110   51.9940 F   0  0  0  0  0  0  0  0  0  0  0  0
   65.1280   30.6830   51.2600 C   0  0  0  0  0  0  0  0  0  0  0  0
   64.1240   31.2930   50.5010 C   0  0  0  0  0  0  0  0  0  0  0  0
   63.2570   32.7350   47.5260 C   0  0  0  0  0  0  0  0  0  0  0  0
   62.0500   33.4360   46.8940 C   0  0  0  0  0  0  0  0  0  0  0  0
   59.3250   31.3130   46.6030 C   0  0  0  0  0  0  0  0  0  0  0  0
   60.4140   30.7040   47.2310 C   0  0  0  0  0  0  0  0  0  0  0  0
   60.5530   29.3100   47.1020 C   0  0  0  0  0  0  0  0  0  0  0  0
   59.6260   28.5660   46.3410 C   0  0  0  0  0  0  0  0  0  0  0  0
   58.5450   29.2060   45.7090 C   0  0  0  0  0  0  0  0  0  0  0  0
   58.4130   30.5860   45.8770 C   0  0  0  0  0  0  0  0  0  0  0  0
   57.8492   32.3365   43.0027 H   0  0  0  0  0  0  0  0  0  0  0  0
   58.1320   31.1164   41.7150 H   0  0  0  0  0  0  0  0  0  0  0  0
   56.6216   32.0886   41.7150 H   0  0  0  0  0  0  0  0  0  0  0  0
   55.7329   30.2495   42.7394 H   0  0  0  0  0  0  0  0  0  0  0  0
   57.3393   29.6499   43.2772 H   0  0  0  0  0  0  0  0  0  0  0  0
   56.7451   34.4647   46.1090 H   0  0  0  0  0  0  0  0  0  0  0  0
   57.7639   34.5106   44.6302 H   0  0  0  0  0  0  0  0  0  0  0  0
   56.2218   33.5894   44.6302 H   0  0  0  0  0  0  0  0  0  0  0  0
   59.9241   34.5490   46.3503 H   0  0  0  0  0  0  0  0  0  0  0  0
   58.9911   34.2697   47.8807 H   0  0  0  0  0  0  0  0  0  0  0  0
   60.7860   32.4280   48.1690 H   0  0  0  0  0  0  0  0  0  0  0  0
   60.9499   35.3185   48.7347 H   0  0  0  0  0  0  0  0  0  0  0  0
   60.5566   33.9085   49.8321 H   0  0  0  0  0  0  0  0  0  0  0  0
   63.1650   35.1425   49.1842 H   0  0  0  0  0  0  0  0  0  0  0  0
   62.6367   34.1239   50.5935 H   0  0  0  0  0  0  0  0  0  0  0  0
   65.9530   33.8515   49.1464 H   0  0  0  0  0  0  0  0  0  0  0  0
   67.7383   32.7520   50.4963 H   0  0  0  0  0  0  0  0  0  0  0  0
   64.8966   29.7905   51.8599 H   0  0  0  0  0  0  0  0  0  0  0  0
   63.1058   30.8767   50.5054 H   0  0  0  0  0  0  0  0  0  0  0  0
   64.1715   33.0558   47.0055 H   0  0  0  0  0  0  0  0  0  0  0  0
   63.1180   31.6480   47.4309 H   0  0  0  0  0  0  0  0  0  0  0  0
   62.3127   34.4791   46.6640 H   0  0  0  0  0  0  0  0  0  0  0  0
   61.7690   32.9119   45.9686 H   0  0  0  0  0  0  0  0  0  0  0  0
   61.1399   31.2956   47.8081 H   0  0  0  0  0  0  0  0  0  0  0  0
   61.3899   28.7964   47.5977 H   0  0  0  0  0  0  0  0  0  0  0  0
   59.7500   27.4775   46.2415 H   0  0  0  0  0  0  0  0  0  0  0  0
   57.8258   28.6373   45.1013 H   0  0  0  0  0  0  0  0  0  0  0  0
  1  2  1  0
  2  3  1  0
  3  4  1  0
  4  5  1  0
  5  6  1  0
  5  7  2  0
  7  8  1  0
  8  9  1  0
  9 10  1  0
 10 11  1  0
 11 12  1  0
 12 13  1  0
 13 14  2  0
 14 15  1  0
 15 16  2  0
 16 17  1  0
 16 18  1  0
 18 19  2  0
 12 20  1  0
 20 21  1  0
  7 22  1  0
 22 23  2  0
 23 24  1  0
 24 25  2  0
 25 26  1  0
 26 27  2  0
 27  4  1  0
 21  9  1  0
 27 22  1  0
 19 13  1  0
  1 28  1  0
  1 29  1  0
  1 30  1  0
  2 31  1  0
  2 32  1  0
  6 33  1  0
  6 34  1  0
  6 35  1  0
  8 36  1  0
  8 37  1  0
  9 38  1  0
 10 39  1  0
 10 40  1  0
 11 41  1  0
 11 42  1  0
 14 43  1  0
 15 44  1  0
 18 45  1  0
 19 46  1  0
 20 47  1  0
 20 48  1  0
 21 49  1  0
 21 50  1  0
 23 51  1  0
 24 52  1  0
 25 53  1  0
 26 54  1  0
M  CHG  1   9   1
M  END
>  <UniqueID>  (22) 
22

>  <SMILES>  (22) 
CCOn1c(C)c(C[NH+]2CCN(c3ccc(F)cc3)CC2)c2ccccc21

>  <Energy>  (22) 
103.18088571619619

>  <Genealogy>  (22) 
CCOn1c(C)c(C[NH+]2CCN(c3ccc(F)cc3)CC2)c2ccccc21 (protonated)
CCOn1c(C)c(C[NH+]2CCN(c3ccc(F)cc3)CC2)c2ccccc21 (3D coordinates assigned)
CCOn1c(C)c(C[NH+]2CCN(c3ccc(F)cc3)CC2)c2ccccc21 (nonaromatic ring conformer: 103.18088571619619 kcal/mol)

>  <smiles>  (22) 
CCOn1c(C)c(CN2CCN(c3ccc(F)cc3)CC2)c2ccccc21

>  <score_type>  (22) 
oracle

>  <origin>  (22) 
adg

>  <m_score__min__energy>  (22) 
-6.9000000000000004

>  <m_primary>  (22) 
energy

$$$$
22:0
     RDKit          3D

 75 78  0  0  0  0  0  0  0  0999 V2000
   58.9830   30.4990   49.8630 C   0  0  0  0  0  0  0  0  0  0  0  0
   60.3730   29.9330   50.1110 C   0  0  0  0  0  0  0  0  0  0  0  0
   60.9120   29.4880   48.8850 O   0  0  0  0  0  0  0  0  0  0  0  0
   60.2310   28.3300   48.4550 C   0  0  0  0  0  0  0  0  0  0  0  0
   60.1450   28.3250   46.9230 C   0  0  0  0  0  0  0  0  0  0  0  0
   60.7760   29.5050   46.2920 N   0  0  0  0  0  0  0  0  0  0  0  0
   59.8260   30.5780   46.0130 C   0  0  0  0  0  0  0  0  0  0  0  0
   58.7100   30.3760   45.1470 C   0  0  0  0  0  0  0  0  0  0  0  0
   58.4310   29.1200   44.5450 C   0  0  0  0  0  0  0  0  0  0  0  0
   57.2930   28.9260   43.7670 C   0  0  0  0  0  0  0  0  0  0  0  0
   56.3970   29.9650   43.5710 C   0  0  0  0  0  0  0  0  0  0  0  0
   56.6520   31.2150   44.1220 C   0  0  0  0  0  0  0  0  0  0  0  0
   57.8260   31.4620   44.8830 C   0  0  0  0  0  0  0  0  0  0  0  0
   58.0970   32.7210   45.3750 N   0  0  0  0  0  0  0  0  0  0  0  0
   57.3820   33.8990   44.8330 C   0  0  0  0  0  0  0  0  0  0  0  0
   59.0560   32.8900   46.3500 C   0  0  0  0  0  0  0  0  0  0  0  0
   59.1440   34.0980   47.0870 C   0  0  0  0  0  0  0  0  0  0  0  0
   60.1440   34.3000   48.0320 C   0  0  0  0  0  0  0  0  0  0  0  0
   61.0890   33.3010   48.2800 C   0  0  0  0  0  0  0  0  0  0  0  0
   62.1190   33.4580   49.2180 O   0  0  0  0  0  0  0  0  0  0  0  0
   63.4520   33.8500   48.9000 C   0  0  0  0  0  0  0  0  0  0  0  0
   64.4540   32.6850   49.0850 C   0  0  0  0  0  0  0  0  0  0  0  0
   64.9490   32.4190   50.4830 N   0  0  0  0  0  0  0  0  0  0  0  0
   64.1060   31.3930   51.1530 C   0  0  0  0  0  0  0  0  0  0  0  0
   66.3760   31.9440   50.4620 C   0  0  0  0  0  0  0  0  0  0  0  0
   67.3930   33.0980   50.5740 C   0  0  0  0  0  0  0  0  0  0  0  0
   67.2690   33.8420   51.8680 N   0  0  0  0  0  0  0  0  0  0  0  0
   68.1760   33.2420   52.8770 C   0  0  0  0  0  0  0  0  0  0  0  0
   67.6910   35.2480   51.6560 C   0  0  0  0  0  0  0  0  0  0  0  0
   65.8670   33.8130   52.3930 C   0  0  0  0  0  0  0  0  0  0  0  0
   64.8280   33.7000   51.2600 C   0  0  0  0  0  0  0  0  0  0  0  0
   61.0030   32.0950   47.5870 C   0  0  0  0  0  0  0  0  0  0  0  0
   59.9710   31.8440   46.6490 C   0  0  0  0  0  0  0  0  0  0  0  0
   58.4914   30.6992   50.8264 H   0  0  0  0  0  0  0  0  0  0  0  0
   59.0650   31.4354   49.2916 H   0  0  0  0  0  0  0  0  0  0  0  0
   58.3875   29.7717   49.2916 H   0  0  0  0  0  0  0  0  0  0  0  0
   61.0194   30.7149   50.5362 H   0  0  0  0  0  0  0  0  0  0  0  0
   60.3119   29.0923   50.8177 H   0  0  0  0  0  0  0  0  0  0  0  0
   60.7763   27.4370   48.7943 H   0  0  0  0  0  0  0  0  0  0  0  0
   59.2159   28.3236   48.8788 H   0  0  0  0  0  0  0  0  0  0  0  0
   60.6469   27.4204   46.5492 H   0  0  0  0  0  0  0  0  0  0  0  0
   59.0774   28.3495   46.6591 H   0  0  0  0  0  0  0  0  0  0  0  0
   61.3300   29.2160   45.4590 H   0  0  0  0  0  0  0  0  0  0  0  0
   61.5220   29.8680   46.9260 H   0  0  0  0  0  0  0  0  0  0  0  0
   59.1287   28.2832   44.6967 H   0  0  0  0  0  0  0  0  0  0  0  0
   57.1044   27.9450   43.3064 H   0  0  0  0  0  0  0  0  0  0  0  0
   55.4843   29.8003   42.9795 H   0  0  0  0  0  0  0  0  0  0  0  0
   55.9300   32.0300   43.9657 H   0  0  0  0  0  0  0  0  0  0  0  0
   57.0080   34.5152   45.6639 H   0  0  0  0  0  0  0  0  0  0  0  0
   58.0712   34.4945   44.2162 H   0  0  0  0  0  0  0  0  0  0  0  0
   56.5356   33.5624   44.2162 H   0  0  0  0  0  0  0  0  0  0  0  0
   58.4051   34.8928   46.9074 H   0  0  0  0  0  0  0  0  0  0  0  0
   60.1912   35.2491   48.5860 H   0  0  0  0  0  0  0  0  0  0  0  0
   63.4844   34.1844   47.8526 H   0  0  0  0  0  0  0  0  0  0  0  0
   63.7417   34.6616   49.5836 H   0  0  0  0  0  0  0  0  0  0  0  0
   63.9645   31.7673   48.7269 H   0  0  0  0  0  0  0  0  0  0  0  0
   65.3481   32.9871   48.5199 H   0  0  0  0  0  0  0  0  0  0  0  0
   64.1948   31.5010   52.2441 H   0  0  0  0  0  0  0  0  0  0  0  0
   63.0559   31.5298   50.8552 H   0  0  0  0  0  0  0  0  0  0  0  0
   64.4438   30.3894   50.8552 H   0  0  0  0  0  0  0  0  0  0  0  0
   66.5299   31.2569   51.3071 H   0  0  0  0  0  0  0  0  0  0  0  0
   66.5449   31.4471   49.4953 H   0  0  0  0  0  0  0  0  0  0  0  0
   68.4089   32.6825   50.5009 H   0  0  0  0  0  0  0  0  0  0  0  0
   67.1889   33.8066   49.7578 H   0  0  0  0  0  0  0  0  0  0  0  0
   67.8119   33.4829   53.8866 H   0  0  0  0  0  0  0  0  0  0  0  0
   68.1988   32.1500   52.7463 H   0  0  0  0  0  0  0  0  0  0  0  0
   69.1899   33.6482   52.7463 H   0  0  0  0  0  0  0  0  0  0  0  0
   67.8379   35.7376   52.6300 H   0  0  0  0  0  0  0  0  0  0  0  0
   68.6343   35.2664   51.0904 H   0  0  0  0  0  0  0  0  0  0  0  0
   66.9138   35.7828   51.0904 H   0  0  0  0  0  0  0  0  0  0  0  0
   65.7567   32.9479   53.0635 H   0  0  0  0  0  0  0  0  0  0  0  0
   65.6850   34.7569   52.9278 H   0  0  0  0  0  0  0  0  0  0  0  0
   63.8212   33.7500   51.7004 H   0  0  0  0  0  0  0  0  0  0  0  0
   65.0097   34.5294   50.5607 H   0  0  0  0  0  0  0  0  0  0  0  0
   61.7572   31.3163   47.7733 H   0  0  0  0  0  0  0  0  0  0  0  0
  1  2  1  0
  2  3  1  0
  3  4  1  0
  4  5  1  0
  5  6  1  0
  6  7  1  0
  7  8  2  0
  8  9  1  0
  9 10  2  0
 10 11  1  0
 11 12  2  0
 12 13  1  0
 13 14  2  0
 14 15  1  0
 14 16  1  0
 16 17  2  0
 17 18  1  0
 18 19  2  0
 19 20  1  0
 20 21  1  0
 21 22  1  0
 22 23  1  0
 23 24  1  0
 23 25  1  0
 25 26  1  0
 26 27  1  0
 27 28  1  0
 27 29  1  0
 27 30  1  0
 30 31  1  0
 19 32  1  0
 32 33  2  0
 33  7  1  0
 13  8  1  0
 33 16  1  0
 31 23  1  0
  1 34  1  0
  1 35  1  0
  1 36  1  0
  2 37  1  0
  2 38  1  0
  4 39  1  0
  4 40  1  0
  5 41  1  0
  5 42  1  0
  6 43  1  0
  6 44  1  0
  9 45  1  0
 10 46  1  0
 11 47  1  0
 12 48  1  0
 15 49  1  0
 15 50  1  0
 15 51  1  0
 17 52  1  0
 18 53  1  0
 21 54  1  0
 21 55  1  0
 22 56  1  0
 22 57  1  0
 24 58  1  0
 24 59  1  0
 24 60  1  0
 25 61  1  0
 25 62  1  0
 26 63  1  0
 26 64  1  0
 28 65  1  0
 28 66  1  0
 28 67  1  0
 29 68  1  0
 29 69  1  0
 29 70  1  0
 30 71  1  0
 30 72  1  0
 31 73  1  0
 31 74  1  0
 32 75  1  0
M  CHG  4   6   1  14   1  23   1  27   1
M  END
>  <UniqueID>  (23) 
23

>  <SMILES>  (23) 
CCOCC[NH2+]c1c2ccccc2[n+](C)c2ccc(OCC[N+]3(C)CC[N+](C)(C)CC3)cc12

>  <Energy>  (23) 
129.396284594929

>  <Genealogy>  (23) 
CCOCC[NH2+]c1c2ccccc2[n+](C)c2ccc(OCC[N+]3(C)CC[N+](C)(C)CC3)cc12 (protonated)
CCOCC[NH2+]c1c2ccccc2[n+](C)c2ccc(OCC[N+]3(C)CC[N+](C)(C)CC3)cc12 (3D coordinates assigned)
CCOCC[NH2+]c1c2ccccc2[n+](C)c2ccc(OCC[N+]3(C)CC[N+](C)(C)CC3)cc12 (nonaromatic ring conformer: 129.396284594929 kcal/mol)

>  <smiles>  (23) 
CCOCCNc1c2ccccc2[n+](C)c2ccc(OCC[N+]3(C)CC[N+](C)(C)CC3)cc12

>  <score_type>  (23) 
oracle

>  <origin>  (23) 
adg

>  <m_score__min__energy>  (23) 
-2.27

>  <m_primary>  (23) 
energy

$$$$
23:0
     RDKit          3D

 53 55  0  0  0  0  0  0  0  0999 V2000
   52.4200   24.0050   44.9850 C   0  0  0  0  0  0  0  0  0  0  0  0
   53.8410   23.7120   44.5080 C   0  0  0  0  0  0  0  0  0  0  0  0
   54.8570   23.7570   45.6590 C   0  0  0  0  0  0  0  0  0  0  0  0
   55.2070   25.1410   46.0160 N   0  0  0  0  0  0  0  0  0  0  0  0
   56.5120   25.2420   46.6950 C   0  0  0  0  0  0  0  0  0  0  0  0
   56.9720   26.7000   46.6930 C   0  0  0  0  0  0  0  0  0  0  0  0
   56.5930   27.3350   45.4850 O   0  0  0  0  0  0  0  0  0  0  0  0
   57.6570   27.3370   44.5500 C   0  0  0  0  0  0  0  0  0  0  0  0
   57.7630   28.7030   43.8690 C   0  0  0  0  0  0  0  0  0  0  0  0
   58.9450   29.4210   44.3450 N   0  0  0  0  0  0  0  0  0  0  0  0
   58.9350   30.1350   45.5940 C   0  0  0  0  0  0  0  0  0  0  0  0
   58.5210   31.4790   45.6400 C   0  0  0  0  0  0  0  0  0  0  0  0
   58.0680   32.1370   44.4770 C   0  0  0  0  0  0  0  0  0  0  0  0
   57.7240   33.4860   44.5090 C   0  0  0  0  0  0  0  0  0  0  0  0
   57.8310   34.2030   45.6950 C   0  0  0  0  0  0  0  0  0  0  0  0
   58.2390   33.5640   46.8660 C   0  0  0  0  0  0  0  0  0  0  0  0
   58.5460   32.1790   46.8770 C   0  0  0  0  0  0  0  0  0  0  0  0
   58.8680   31.5130   48.0450 N   0  0  0  0  0  0  0  0  0  0  0  0
   58.6120   32.1540   49.3560 C   0  0  0  0  0  0  0  0  0  0  0  0
   59.3910   30.2340   47.9930 C   0  0  0  0  0  0  0  0  0  0  0  0
   59.9610   29.6150   49.1360 C   0  0  0  0  0  0  0  0  0  0  0  0
   60.4390   28.3040   49.0850 C   0  0  0  0  0  0  0  0  0  0  0  0
   61.1300   27.5640   50.5170 Cl  0  0  0  0  0  0  0  0  0  0  0  0
   60.3750   27.5850   47.8960 C   0  0  0  0  0  0  0  0  0  0  0  0
   59.8630   28.1800   46.7470 C   0  0  0  0  0  0  0  0  0  0  0  0
   59.3880   29.5100   46.7700 C   0  0  0  0  0  0  0  0  0  0  0  0
   52.3961   24.0099   46.0847 H   0  0  0  0  0  0  0  0  0  0  0  0
   52.1016   24.9877   44.6069 H   0  0  0  0  0  0  0  0  0  0  0  0
   51.7389   23.2284   44.6069 H   0  0  0  0  0  0  0  0  0  0  0  0
   53.8634   22.7103   44.0539 H   0  0  0  0  0  0  0  0  0  0  0  0
   54.1203   24.4868   43.7788 H   0  0  0  0  0  0  0  0  0  0  0  0
   54.4225   23.2599   46.5389 H   0  0  0  0  0  0  0  0  0  0  0  0
   55.7727   23.2432   45.3312 H   0  0  0  0  0  0  0  0  0  0  0  0
   55.2520   25.6970   45.1300 H   0  0  0  0  0  0  0  0  0  0  0  0
   56.4147   24.8890   47.7323 H   0  0  0  0  0  0  0  0  0  0  0  0
   57.2510   24.6221   46.1663 H   0  0  0  0  0  0  0  0  0  0  0  0
   56.5095   27.2273   47.5404 H   0  0  0  0  0  0  0  0  0  0  0  0
   58.0679   26.7288   46.7830 H   0  0  0  0  0  0  0  0  0  0  0  0
   58.5998   27.1180   45.0727 H   0  0  0  0  0  0  0  0  0  0  0  0
   57.4630   26.5702   43.7855 H   0  0  0  0  0  0  0  0  0  0  0  0
   57.8396   28.5603   42.7810 H   0  0  0  0  0  0  0  0  0  0  0  0
   56.8665   29.2925   44.1114 H   0  0  0  0  0  0  0  0  0  0  0  0
   59.7040   29.6270   43.6580 H   0  0  0  0  0  0  0  0  0  0  0  0
   57.9856   31.5775   43.5335 H   0  0  0  0  0  0  0  0  0  0  0  0
   57.3675   33.9843   43.5955 H   0  0  0  0  0  0  0  0  0  0  0  0
   57.5934   35.2769   45.7102 H   0  0  0  0  0  0  0  0  0  0  0  0
   58.3241   34.1440   47.7968 H   0  0  0  0  0  0  0  0  0  0  0  0
   58.8890   31.4604   50.1636 H   0  0  0  0  0  0  0  0  0  0  0  0
   59.2126   33.0719   49.4389 H   0  0  0  0  0  0  0  0  0  0  0  0
   57.5444   32.4056   49.4389 H   0  0  0  0  0  0  0  0  0  0  0  0
   60.0274   30.1780   50.0787 H   0  0  0  0  0  0  0  0  0  0  0  0
   60.7297   26.5443   47.8639 H   0  0  0  0  0  0  0  0  0  0  0  0
   59.8277   27.6071   45.8086 H   0  0  0  0  0  0  0  0  0  0  0  0
  1  2  1  0
  2  3  1  0
  3  4  1  0
  4  5  1  0
  5  6  1  0
  6  7  1  0
  7  8  1  0
  8  9  1  0
  9 10  1  0
 10 11  1  0
 11 12  2  0
 12 13  1  0
 13 14  2  0
 14 15  1  0
 15 16  2  0
 16 17  1  0
 17 18  2  0
 18 19  1  0
 18 20  1  0
 20 21  2  0
 21 22  1  0
 22 23  1  0
 22 24  2  0
 24 25  1  0
 25 26  2  0
 26 11  1  0
 17 12  1  0
 26 20  1  0
  1 27  1  0
  1 28  1  0
  1 29  1  0
  2 30  1  0
  2 31  1  0
  3 32  1  0
  3 33  1  0
  4 34  1  0
  5 35  1  0
  5 36  1  0
  6 37  1  0
  6 38  1  0
  8 39  1  0
  8 40  1  0
  9 41  1  0
  9 42  1  0
 10 43  1  0
 13 44  1  0
 14 45  1  0
 15 46  1  0
 16 47  1  0
 19 48  1  0
 19 49  1  0
 19 50  1  0
 21 51  1  0
 24 52  1  0
 25 53  1  0
M  CHG  1  18   1
M  END
>  <UniqueID>  (24) 
24

>  <SMILES>  (24) 
CCCNCCOCCNc1c2ccccc2[n+](C)c2cc(Cl)ccc12

>  <Energy>  (24) 
76.29105135516376

>  <Genealogy>  (24) 
CCCNCCOCCNc1c2ccccc2[n+](C)c2cc(Cl)ccc12 (3D coordinates assigned)
CCCNCCOCCNc1c2ccccc2[n+](C)c2cc(Cl)ccc12 (optimized conformer: 76.29105135516376 kcal/mol)

>  <smiles>  (24) 
CCCNCCOCCNc1c2ccccc2[n+](C)c2cc(Cl)ccc12

>  <score_type>  (24) 
oracle

>  <origin>  (24) 
adg

>  <m_score__min__energy>  (24) 
-5.8099999999999996

>  <m_primary>  (24) 
energy

$$$$
24:0
     RDKit          3D

 48 51  0  0  0  0  0  0  0  0999 V2000
   59.2610   36.5920   47.1260 H   0  0  0  0  0  0  0  0  0  0  0  0
   59.6690   35.9930   46.3760 N   0  0  0  0  0  0  0  0  0  0  0  0
   59.3150   34.7640   46.1610 C   0  0  0  0  0  0  0  0  0  0  0  0
   60.0770   33.6250   46.4140 C   0  0  0  0  0  0  0  0  0  0  0  0
   61.4030   33.5990   46.8080 C   0  0  0  0  0  0  0  0  0  0  0  0
   61.9440   34.5566   46.7910 H   0  0  0  0  0  0  0  0  0  0  0  0
   62.1240   32.4750   47.2260 C   0  0  0  0  0  0  0  0  0  0  0  0
   63.5160   32.6890   47.5840 N   0  0  0  0  0  0  0  0  0  0  0  0
   64.1350   31.9680   47.1420 H   0  0  0  0  0  0  0  0  0  0  0  0
   63.8210   33.6080   47.1830 H   0  0  0  0  0  0  0  0  0  0  0  0
   63.7250   32.7020   49.0520 C   0  0  0  0  0  0  0  0  0  0  0  0
   63.3155   31.7628   49.4523 H   0  0  0  0  0  0  0  0  0  0  0  0
   62.9930   33.8990   49.6770 C   0  0  0  0  0  0  0  0  0  0  0  0
   63.0384   33.8247   50.7735 H   0  0  0  0  0  0  0  0  0  0  0  0
   63.4744   34.8333   49.3525 H   0  0  0  0  0  0  0  0  0  0  0  0
   61.9419   33.8962   49.3525 H   0  0  0  0  0  0  0  0  0  0  0  0
   65.2170   32.7620   49.4180 C   0  0  0  0  0  0  0  0  0  0  0  0
   65.3261   32.7664   50.5126 H   0  0  0  0  0  0  0  0  0  0  0  0
   65.7323   31.8839   49.0017 H   0  0  0  0  0  0  0  0  0  0  0  0
   65.6601   33.6787   49.0017 H   0  0  0  0  0  0  0  0  0  0  0  0
   61.5780   31.1950   47.4590 C   0  0  0  0  0  0  0  0  0  0  0  0
   62.2211   30.5395   48.0645 H   0  0  0  0  0  0  0  0  0  0  0  0
   60.3560   30.5930   47.0600 C   0  0  0  0  0  0  0  0  0  0  0  0
   60.0700   29.2920   47.5590 C   0  0  0  0  0  0  0  0  0  0  0  0
   60.7840   28.7810   48.7010 N   0  0  0  0  0  0  0  0  0  0  0  0
   61.1690   27.8110   48.7140 H   0  0  0  0  0  0  0  0  0  0  0  0
   60.9720   29.3850   49.5320 H   0  0  0  0  0  0  0  0  0  0  0  0
   59.0560   28.5130   46.9660 C   0  0  0  0  0  0  0  0  0  0  0  0
   58.6830   27.2550   47.4910 C   0  0  0  0  0  0  0  0  0  0  0  0
   59.1512   26.8915   48.4176 H   0  0  0  0  0  0  0  0  0  0  0  0
   57.7280   26.4700   46.8470 C   0  0  0  0  0  0  0  0  0  0  0  0
   57.4515   25.4902   47.2636 H   0  0  0  0  0  0  0  0  0  0  0  0
   57.1250   26.9220   45.6810 C   0  0  0  0  0  0  0  0  0  0  0  0
   56.3820   26.2936   45.1682 H   0  0  0  0  0  0  0  0  0  0  0  0
   57.4590   28.1700   45.1590 C   0  0  0  0  0  0  0  0  0  0  0  0
   56.9707   28.5207   44.2379 H   0  0  0  0  0  0  0  0  0  0  0  0
   58.4190   28.9940   45.7980 C   0  0  0  0  0  0  0  0  0  0  0  0
   58.7160   30.2530   45.3260 N   0  0  0  0  0  0  0  0  0  0  0  0
   58.3480   30.6110   43.9390 C   0  0  0  0  0  0  0  0  0  0  0  0
   57.5596   31.3779   43.9552 H   0  0  0  0  0  0  0  0  0  0  0  0
   59.2316   31.0044   43.4151 H   0  0  0  0  0  0  0  0  0  0  0  0
   57.9791   29.7169   43.4151 H   0  0  0  0  0  0  0  0  0  0  0  0
   59.4740   31.1250   46.0850 C   0  0  0  0  0  0  0  0  0  0  0  0
   59.2370   32.5100   45.9950 C   0  0  0  0  0  0  0  0  0  0  0  0
   58.0430   33.1050   45.5850 C   0  0  0  0  0  0  0  0  0  0  0  0
   57.1626   32.5488   45.2308 H   0  0  0  0  0  0  0  0  0  0  0  0
   58.1060   34.4430   45.6780 N   0  0  0  0  0  0  0  0  0  0  0  0
   57.3370   35.1100   45.4400 H   0  0  0  0  0  0  0  0  0  0  0  0
  1  2  1  0
  2  3  2  0
  3  4  1  0
  4  5  2  0
  5  6  1  0
  5  7  1  0
  7  8  1  0
  8  9  1  0
  8 10  1  0
  8 11  1  0
 11 12  1  0
 11 13  1  0
 13 14  1  0
 13 15  1  0
 13 16  1  0
 11 17  1  0
 17 18  1  0
 17 19  1  0
 17 20  1  0
  7 21  2  0
 21 22  1  0
 21 23  1  0
 23 24  2  0
 24 25  1  0
 25 26  1  0
 25 27  1  0
 24 28  1  0
 28 29  2  0
 29 30  1  0
 29 31  1  0
 31 32  1  0
 31 33  2  0
 33 34  1  0
 33 35  1  0
 35 36  1  0
 35 37  2  0
 37 38  1  0
 38 39  1  0
 39 40  1  0
 39 41  1  0
 39 42  1  0
 38 43  2  0
 43 44  1  0
 44 45  2  0
 45 46  1  0
 45 47  1  0
 47 48  1  0
 47  3  1  0
 44  4  1  0
 43 23  1  0
 37 28  1  0
M  CHG  2   8   1  38   1
M  END
>  <UniqueID>  (25) 
25

>  <SMILES>  (25) 
[H]/N=c1/[nH]cc2c3c(cc([NH2+]C(C)C)cc1-2)c(N)c1ccccc1[n+]3C

>  <Energy>  (25) 
137.33128227797852

>  <Genealogy>  (25) 
CC(C)[NH2+]c1cc2c(=N)[nH]cc-2c2c(c1)c(N)c1ccccc1[n+]2C (protonated)
[H]/N=c1/[nH]cc2c3c(cc([NH2+]C(C)C)cc1-2)c(N)c1ccccc1[n+]3C (cis-trans isomerization)
[H]/N=c1/[nH]cc2c3c(cc([NH2+]C(C)C)cc1-2)c(N)c1ccccc1[n+]3C (3D coordinates assigned)
[H]/N=c1/[nH]cc2c3c(cc([NH2+]C(C)C)cc1-2)c(N)c1ccccc1[n+]3C (optimized conformer: 137.33128227797852 kcal/mol)

>  <smiles>  (25) 
CC(C)Nc1cc2c(=N)[nH]cc-2c2c(c1)c(N)c1ccccc1[n+]2C

>  <score_type>  (25) 
oracle

>  <origin>  (25) 
adg

>  <m_score__min__energy>  (25) 
-4.6799999999999997

>  <m_primary>  (25) 
energy

$$$$
25:0
     RDKit          3D

 51 52  0  0  0  0  0  0  0  0999 V2000
   63.4530   33.1270   46.9880 C   0  0  0  0  0  0  0  0  0  0  0  0
   62.3880   32.6940   47.9830 C   0  0  0  0  0  0  0  0  0  0  0  0
   61.1180   33.1020   47.5150 O   0  0  0  0  0  0  0  0  0  0  0  0
   61.2540   33.9250   46.3720 C   0  0  0  0  0  0  0  0  0  0  0  0
   59.9650   34.7050   46.1240 C   0  0  0  0  0  0  0  0  0  0  0  0
   59.3440   34.2190   44.9520 O   0  0  0  0  0  0  0  0  0  0  0  0
   57.9790   34.5950   44.9110 C   0  0  0  0  0  0  0  0  0  0  0  0
   57.0890   33.4310   45.3650 C   0  0  0  0  0  0  0  0  0  0  0  0
   57.9010   32.2460   45.7180 N   0  0  0  0  0  0  0  0  0  0  0  0
   58.2160   31.2910   44.7750 C   0  0  0  0  0  0  0  0  0  0  0  0
   57.7650   31.4570   43.0370 S   0  0  0  0  0  0  0  0  0  0  0  0
   56.6400   30.0130   43.0240 C   0  0  0  0  0  0  0  0  0  0  0  0
   55.5710   30.1240   44.1110 C   0  0  0  0  0  0  0  0  0  0  0  0
   55.5190   28.9300   44.8720 O   0  0  0  0  0  0  0  0  0  0  0  0
   56.7710   28.2720   44.9200 C   0  0  0  0  0  0  0  0  0  0  0  0
   56.7490   27.1180   45.9190 C   0  0  0  0  0  0  0  0  0  0  0  0
   58.8810   30.1660   45.1380 N   0  0  0  0  0  0  0  0  0  0  0  0
   59.2720   29.9460   46.4130 C   0  0  0  0  0  0  0  0  0  0  0  0
   59.9580   28.7720   46.7420 C   0  0  0  0  0  0  0  0  0  0  0  0
   60.3590   28.5430   48.0610 C   0  0  0  0  0  0  0  0  0  0  0  0
   60.0780   29.4860   49.0520 C   0  0  0  0  0  0  0  0  0  0  0  0
   59.3930   30.6630   48.7300 C   0  0  0  0  0  0  0  0  0  0  0  0
   58.9850   30.9010   47.4040 C   0  0  0  0  0  0  0  0  0  0  0  0
   58.2840   32.0590   47.0270 C   0  0  0  0  0  0  0  0  0  0  0  0
   57.9980   32.9240   47.9030 O   0  0  0  0  0  0  0  0  0  0  0  0
   64.3385   33.4870   47.5322 H   0  0  0  0  0  0  0  0  0  0  0  0
   63.7337   32.2716   46.3560 H   0  0  0  0  0  0  0  0  0  0  0  0
   63.0572   33.9356   46.3560 H   0  0  0  0  0  0  0  0  0  0  0  0
   62.4066   31.5992   48.0880 H   0  0  0  0  0  0  0  0  0  0  0  0
   62.5868   33.1574   48.9606 H   0  0  0  0  0  0  0  0  0  0  0  0
   62.0813   34.6324   46.5306 H   0  0  0  0  0  0  0  0  0  0  0  0
   61.4624   33.2911   45.4975 H   0  0  0  0  0  0  0  0  0  0  0  0
   59.2866   34.5756   46.9801 H   0  0  0  0  0  0  0  0  0  0  0  0
   60.1980   35.7731   46.0020 H   0  0  0  0  0  0  0  0  0  0  0  0
   57.8198   35.4546   45.5786 H   0  0  0  0  0  0  0  0  0  0  0  0
   57.7143   34.8642   43.8778 H   0  0  0  0  0  0  0  0  0  0  0  0
   56.5091   33.7444   46.2456 H   0  0  0  0  0  0  0  0  0  0  0  0
   56.4180   33.1605   44.5364 H   0  0  0  0  0  0  0  0  0  0  0  0
   56.1467   29.9534   42.0426 H   0  0  0  0  0  0  0  0  0  0  0  0
   57.2367   29.1096   43.2186 H   0  0  0  0  0  0  0  0  0  0  0  0
   55.8140   30.9671   44.7744 H   0  0  0  0  0  0  0  0  0  0  0  0
   54.5927   30.2889   43.6358 H   0  0  0  0  0  0  0  0  0  0  0  0
   57.0077   27.8774   43.9209 H   0  0  0  0  0  0  0  0  0  0  0  0
   57.5338   28.9967   45.2410 H   0  0  0  0  0  0  0  0  0  0  0  0
   56.7567   27.5194   46.9431 H   0  0  0  0  0  0  0  0  0  0  0  0
   55.8393   26.5186   45.7669 H   0  0  0  0  0  0  0  0  0  0  0  0
   57.6352   26.4844   45.7669 H   0  0  0  0  0  0  0  0  0  0  0  0
   60.1818   28.0290   45.9623 H   0  0  0  0  0  0  0  0  0  0  0  0
   60.8967   27.6187   48.3190 H   0  0  0  0  0  0  0  0  0  0  0  0
   60.3961   29.3030   50.0890 H   0  0  0  0  0  0  0  0  0  0  0  0
   59.1732   31.4028   49.5138 H   0  0  0  0  0  0  0  0  0  0  0  0
  1  2  1  0
  2  3  1  0
  3  4  1  0
  4  5  1  0
  5  6  1  0
  6  7  1  0
  7  8  1  0
  8  9  1  0
  9 10  1  0
 10 11  1  0
 11 12  1  0
 12 13  1  0
 13 14  1  0
 14 15  1  0
 15 16  1  0
 10 17  2  0
 17 18  1  0
 18 19  2  0
 19 20  1  0
 20 21  2  0
 21 22  1  0
 22 23  2  0
 23 24  1  0
 24 25  2  0
 24  9  1  0
 23 18  1  0
  1 26  1  0
  1 27  1  0
  1 28  1  0
  2 29  1  0
  2 30  1  0
  4 31  1  0
  4 32  1  0
  5 33  1  0
  5 34  1  0
  7 35  1  0
  7 36  1  0
  8 37  1  0
  8 38  1  0
 12 39  1  0
 12 40  1  0
 13 41  1  0
 13 42  1  0
 15 43  1  0
 15 44  1  0
 16 45  1  0
 16 46  1  0
 16 47  1  0
 19 48  1  0
 20 49  1  0
 21 50  1  0
 22 51  1  0
M  END
>  <UniqueID>  (26) 
26

>  <SMILES>  (26) 
CCOCCOCCn1c(SCCOCC)nc2ccccc2c1=O

>  <Energy>  (26) 
48.573465254176995

>  <Genealogy>  (26) 
CCOCCOCCn1c(SCCOCC)nc2ccccc2c1=O (3D coordinates assigned)
CCOCCOCCn1c(SCCOCC)nc2ccccc2c1=O (optimized conformer: 48.573465254176995 kcal/mol)

>  <smiles>  (26) 
CCOCCOCCn1c(SCCOCC)nc2ccccc2c1=O

>  <score_type>  (26) 
oracle

>  <origin>  (26) 
adg

>  <m_score__min__energy>  (26) 
-6.0800000000000001

>  <m_primary>  (26) 
energy

$$$$
26:0
     RDKit          3D

 85 87  0  0  0  0  0  0  0  0999 V2000
   58.9050   25.6980   55.1240 C   0  0  0  0  0  0  0  0  0  0  0  0
   59.4740   26.7680   54.2700 N   0  0  0  0  0  0  0  0  0  0  0  0
   60.5070   26.4790   53.4040 C   0  0  0  0  0  0  0  0  0  0  0  0
   60.8170   25.1350   53.0680 C   0  0  0  0  0  0  0  0  0  0  0  0
   61.9030   24.8240   52.2590 C   0  0  0  0  0  0  0  0  0  0  0  0
   62.6990   25.8370   51.7510 C   0  0  0  0  0  0  0  0  0  0  0  0
   62.3940   27.1700   52.0180 C   0  0  0  0  0  0  0  0  0  0  0  0
   61.2760   27.5290   52.8200 C   0  0  0  0  0  0  0  0  0  0  0  0
   60.9030   28.8870   53.0550 C   0  0  0  0  0  0  0  0  0  0  0  0
   61.6380   29.9960   52.4520 N   0  0  0  0  0  0  0  0  0  0  0  0
   62.2890   30.8800   53.4440 C   0  0  0  0  0  0  0  0  0  0  0  0
   63.4920   31.6730   52.8880 C   0  0  0  0  0  0  0  0  0  0  0  0
   63.1830   32.3310   51.5320 C   0  0  0  0  0  0  0  0  0  0  0  0
   62.7890   31.3290   50.5310 N   0  0  0  0  0  0  0  0  0  0  0  0
   63.3070   31.6710   49.1960 C   0  0  0  0  0  0  0  0  0  0  0  0
   63.3380   33.1950   48.9760 C   0  0  0  0  0  0  0  0  0  0  0  0
   63.7890   33.6540   47.5710 C   0  0  0  0  0  0  0  0  0  0  0  0
   62.7290   33.5100   46.4640 C   0  0  0  0  0  0  0  0  0  0  0  0
   61.4570   32.7950   46.9400 C   0  0  0  0  0  0  0  0  0  0  0  0
   60.3160   33.7240   46.9240 N   0  0  0  0  0  0  0  0  0  0  0  0
   60.3160   34.6370   48.0830 C   0  0  0  0  0  0  0  0  0  0  0  0
   59.6160   33.9610   49.2650 C   0  0  0  0  0  0  0  0  0  0  0  0
   60.5960   33.7200   50.4300 C   0  0  0  0  0  0  0  0  0  0  0  0
   60.2130   32.5800   51.2820 N   0  0  0  0  0  0  0  0  0  0  0  0
   58.8310   32.6330   51.7930 C   0  0  0  0  0  0  0  0  0  0  0  0
   57.8060   32.0320   50.8150 C   0  0  0  0  0  0  0  0  0  0  0  0
   57.7840   30.4970   50.8310 C   0  0  0  0  0  0  0  0  0  0  0  0
   59.1130   29.9540   51.1190 N   0  0  0  0  0  0  0  0  0  0  0  0
   60.0520   29.7590   49.6650 S   0  0  0  0  0  0  0  0  0  0  0  0
   59.2610   28.5940   48.5740 C   0  0  0  0  0  0  0  0  0  0  0  0
   61.4090   29.2360   50.0310 O   0  0  0  0  0  0  0  0  0  0  0  0
   60.2070   31.0770   48.9580 O   0  0  0  0  0  0  0  0  0  0  0  0
   59.7380   29.1460   53.8360 C   0  0  0  0  0  0  0  0  0  0  0  0
   59.2800   30.4650   54.0900 C   0  0  0  0  0  0  0  0  0  0  0  0
   58.0880   30.6990   54.7690 C   0  0  0  0  0  0  0  0  0  0  0  0
   57.3180   29.6320   55.2100 C   0  0  0  0  0  0  0  0  0  0  0  0
   57.7600   28.3280   55.0150 C   0  0  0  0  0  0  0  0  0  0  0  0
   58.9980   28.0570   54.3770 C   0  0  0  0  0  0  0  0  0  0  0  0
   59.0448   25.9608   56.1830 H   0  0  0  0  0  0  0  0  0  0  0  0
   57.8310   25.5913   54.9113 H   0  0  0  0  0  0  0  0  0  0  0  0
   59.4170   24.7479   54.9113 H   0  0  0  0  0  0  0  0  0  0  0  0
   60.1844   24.3231   53.4561 H   0  0  0  0  0  0  0  0  0  0  0  0
   62.1303   23.7741   52.0222 H   0  0  0  0  0  0  0  0  0  0  0  0
   63.5753   25.5883   51.1344 H   0  0  0  0  0  0  0  0  0  0  0  0
   63.0321   27.9621   51.5992 H   0  0  0  0  0  0  0  0  0  0  0  0
   61.0690   30.5670   51.7990 H   0  0  0  0  0  0  0  0  0  0  0  0
   62.3700   29.6130   51.8120 H   0  0  0  0  0  0  0  0  0  0  0  0
   61.5409   31.5986   53.8099 H   0  0  0  0  0  0  0  0  0  0  0  0
   62.6787   30.2297   54.2410 H   0  0  0  0  0  0  0  0  0  0  0  0
   63.7610   32.4589   53.6091 H   0  0  0  0  0  0  0  0  0  0  0  0
   64.3201   30.9649   52.7368 H   0  0  0  0  0  0  0  0  0  0  0  0
   62.3613   33.0507   51.6616 H   0  0  0  0  0  0  0  0  0  0  0  0
   64.0918   32.8388   51.1767 H   0  0  0  0  0  0  0  0  0  0  0  0
   61.7440   31.3530   50.4890 H   0  0  0  0  0  0  0  0  0  0  0  0
   64.3283   31.2747   49.0966 H   0  0  0  0  0  0  0  0  0  0  0  0
   62.6396   31.2271   48.4427 H   0  0  0  0  0  0  0  0  0  0  0  0
   62.3238   33.5835   49.1504 H   0  0  0  0  0  0  0  0  0  0  0  0
   64.0889   33.5868   49.6778 H   0  0  0  0  0  0  0  0  0  0  0  0
   64.0733   34.7147   47.6343 H   0  0  0  0  0  0  0  0  0  0  0  0
   64.6207   32.9930   47.2858 H   0  0  0  0  0  0  0  0  0  0  0  0
   62.4544   34.5143   46.1090 H   0  0  0  0  0  0  0  0  0  0  0  0
   63.1704   32.8977   45.6639 H   0  0  0  0  0  0  0  0  0  0  0  0
   61.2449   31.9474   46.2718 H   0  0  0  0  0  0  0  0  0  0  0  0
   61.6114   32.4336   47.9674 H   0  0  0  0  0  0  0  0  0  0  0  0
   60.3720   34.2980   46.0500 H   0  0  0  0  0  0  0  0  0  0  0  0
   61.3529   34.8780   48.3599 H   0  0  0  0  0  0  0  0  0  0  0  0
   59.7820   35.5623   47.8209 H   0  0  0  0  0  0  0  0  0  0  0  0
   58.7963   34.6065   49.6134 H   0  0  0  0  0  0  0  0  0  0  0  0
   59.2278   32.9879   48.9296 H   0  0  0  0  0  0  0  0  0  0  0  0
   61.5948   33.5249   50.0125 H   0  0  0  0  0  0  0  0  0  0  0  0
   60.5820   34.6205   51.0616 H   0  0  0  0  0  0  0  0  0  0  0  0
   60.3280   31.6990   50.7290 H   0  0  0  0  0  0  0  0  0  0  0  0
   58.7848   32.0720   52.7381 H   0  0  0  0  0  0  0  0  0  0  0  0
   58.5715   33.6929   51.9321 H   0  0  0  0  0  0  0  0  0  0  0  0
   56.8055   32.3990   51.0877 H   0  0  0  0  0  0  0  0  0  0  0  0
   58.0983   32.3445   49.8016 H   0  0  0  0  0  0  0  0  0  0  0  0
   57.0810   30.1558   51.6051 H   0  0  0  0  0  0  0  0  0  0  0  0
   57.4687   30.1416   49.8389 H   0  0  0  0  0  0  0  0  0  0  0  0
   58.7414   27.8287   49.1693 H   0  0  0  0  0  0  0  0  0  0  0  0
   58.5335   29.1215   47.9395 H   0  0  0  0  0  0  0  0  0  0  0  0
   60.0196   28.1124   47.9395 H   0  0  0  0  0  0  0  0  0  0  0  0
   59.8793   31.3197   53.7432 H   0  0  0  0  0  0  0  0  0  0  0  0
   57.7558   31.7308   54.9563 H   0  0  0  0  0  0  0  0  0  0  0  0
   56.3580   29.8177   55.7138 H   0  0  0  0  0  0  0  0  0  0  0  0
   57.1376   27.4901   55.3622 H   0  0  0  0  0  0  0  0  0  0  0  0
  1  2  1  0
  2  3  2  0
  3  4  1  0
  4  5  2  0
  5  6  1  0
  6  7  2  0
  7  8  1  0
  8  9  2  0
  9 10  1  0
 10 11  1  0
 11 12  1  0
 12 13  1  0
 13 14  1  0
 14 15  1  0
 15 16  1  0
 16 17  1  0
 17 18  1  0
 18 19  1  0
 19 20  1  0
 20 21  1  0
 21 22  1  0
 22 23  1  0
 23 24  1  0
 24 25  1  0
 25 26  1  0
 26 27  1  0
 27 28  1  0
 28 29  1  0
 29 30  1  0
 29 31  2  0
 29 32  2  0
  9 33  1  0
 33 34  2  0
 34 35  1  0
 35 36  2  0
 36 37  1  0
 37 38  2  0
 38  2  1  0
  8  3  1  0
 38 33  1  0
  1 39  1  0
  1 40  1  0
  1 41  1  0
  4 42  1  0
  5 43  1  0
  6 44  1  0
  7 45  1  0
 10 46  1  0
 10 47  1  0
 11 48  1  0
 11 49  1  0
 12 50  1  0
 12 51  1  0
 13 52  1  0
 13 53  1  0
 14 54  1  0
 15 55  1  0
 15 56  1  0
 16 57  1  0
 16 58  1  0
 17 59  1  0
 17 60  1  0
 18 61  1  0
 18 62  1  0
 19 63  1  0
 19 64  1  0
 20 65  1  0
 21 66  1  0
 21 67  1  0
 22 68  1  0
 22 69  1  0
 23 70  1  0
 23 71  1  0
 24 72  1  0
 25 73  1  0
 25 74  1  0
 26 75  1  0
 26 76  1  0
 27 77  1  0
 27 78  1  0
 30 79  1  0
 30 80  1  0
 30 81  1  0
 34 82  1  0
 35 83  1  0
 36 84  1  0
 37 85  1  0
M  CHG  3   2   1  10   1  28  -1
M  END
>  <UniqueID>  (27) 
27

>  <SMILES>  (27) 
C[n+]1c2ccccc2c([NH2+]CCCNCCCCCNCCCNCCC[N-]S(C)(=O)=O)c2ccccc21

>  <Energy>  (27) 
101.49541817830922

>  <Genealogy>  (27) 
C[n+]1c2ccccc2c([NH2+]CCCNCCCCCNCCCNCCC[N-]S(C)(=O)=O)c2ccccc21 (protonated)
C[n+]1c2ccccc2c([NH2+]CCCNCCCCCNCCCNCCC[N-]S(C)(=O)=O)c2ccccc21 (3D coordinates assigned)
C[n+]1c2ccccc2c([NH2+]CCCNCCCCCNCCCNCCC[N-]S(C)(=O)=O)c2ccccc21 (optimized conformer: 101.49541817830922 kcal/mol)

>  <smiles>  (27) 
C[n+]1c2ccccc2c(NCCCNCCCCCNCCCNCCCNS(C)(=O)=O)c2ccccc21

>  <score_type>  (27) 
oracle

>  <origin>  (27) 
adg

>  <m_score__min__energy>  (27) 
-6.7699999999999996

>  <m_primary>  (27) 
energy

$$$$
27:0
     RDKit          3D

 43 44  0  0  0  0  0  0  0  0999 V2000
   56.3920   30.0970   42.9860 C   0  0  0  0  0  0  0  0  0  0  0  0
   56.7240   30.2330   44.4400 C   0  0  0  0  0  0  0  0  0  0  0  0
   56.3280   29.3410   45.2400 O   0  0  0  0  0  0  0  0  0  0  0  0
   57.5090   31.3680   44.9670 C   0  0  0  0  0  0  0  0  0  0  0  0
   57.4020   32.9430   44.3500 S   0  0  0  0  0  0  0  0  0  0  0  0
   58.5320   33.6100   45.3930 C   0  0  0  0  0  0  0  0  0  0  0  0
   58.9910   34.9250   45.4340 C   0  0  0  0  0  0  0  0  0  0  0  0
   59.9920   35.2490   46.3620 C   0  0  0  0  0  0  0  0  0  0  0  0
   60.5220   34.2590   47.2110 C   0  0  0  0  0  0  0  0  0  0  0  0
   60.0450   32.9380   47.1490 C   0  0  0  0  0  0  0  0  0  0  0  0
   59.0210   32.6260   46.2430 C   0  0  0  0  0  0  0  0  0  0  0  0
   58.4240   31.3650   46.0320 C   0  0  0  0  0  0  0  0  0  0  0  0
   58.6960   30.2290   46.8060 O   0  0  0  0  0  0  0  0  0  0  0  0
   58.9440   30.2910   48.2140 C   0  0  0  0  0  0  0  0  0  0  0  0
   58.9070   28.8950   48.8250 C   0  0  0  0  0  0  0  0  0  0  0  0
   58.4640   27.9670   47.8540 O   0  0  0  0  0  0  0  0  0  0  0  0
   59.5120   27.0830   47.5140 C   0  0  0  0  0  0  0  0  0  0  0  0
   59.4050   26.7070   46.0260 C   0  0  0  0  0  0  0  0  0  0  0  0
   58.8990   27.8170   45.1810 N   0  0  0  0  0  0  0  0  0  0  0  0
   58.1420   27.2670   44.0420 C   0  0  0  0  0  0  0  0  0  0  0  0
   59.9910   28.6720   44.6780 C   0  0  0  0  0  0  0  0  0  0  0  0
   55.3790   29.6820   42.8785 H   0  0  0  0  0  0  0  0  0  0  0  0
   56.4361   31.0857   42.5058 H   0  0  0  0  0  0  0  0  0  0  0  0
   57.1170   29.4234   42.5058 H   0  0  0  0  0  0  0  0  0  0  0  0
   58.5797   35.6883   44.7571 H   0  0  0  0  0  0  0  0  0  0  0  0
   60.3647   36.2819   46.4266 H   0  0  0  0  0  0  0  0  0  0  0  0
   61.3145   34.5207   47.9275 H   0  0  0  0  0  0  0  0  0  0  0  0
   60.4688   32.1605   47.8016 H   0  0  0  0  0  0  0  0  0  0  0  0
   59.9349   30.7359   48.3877 H   0  0  0  0  0  0  0  0  0  0  0  0
   58.1638   30.9064   48.6857 H   0  0  0  0  0  0  0  0  0  0  0  0
   59.9155   28.6167   49.1650 H   0  0  0  0  0  0  0  0  0  0  0  0
   58.2164   28.8877   49.6812 H   0  0  0  0  0  0  0  0  0  0  0  0
   60.4793   27.5728   47.6996 H   0  0  0  0  0  0  0  0  0  0  0  0
   59.4373   26.1733   48.1278 H   0  0  0  0  0  0  0  0  0  0  0  0
   60.4033   26.4189   45.6649 H   0  0  0  0  0  0  0  0  0  0  0  0
   58.6845   25.8796   45.9473 H   0  0  0  0  0  0  0  0  0  0  0  0
   58.2430   28.4080   45.7440 H   0  0  0  0  0  0  0  0  0  0  0  0
   57.3054   26.6592   44.4170 H   0  0  0  0  0  0  0  0  0  0  0  0
   57.7499   28.0923   43.4295 H   0  0  0  0  0  0  0  0  0  0  0  0
   58.8058   26.6391   43.4295 H   0  0  0  0  0  0  0  0  0  0  0  0
   60.5408   29.1025   45.5279 H   0  0  0  0  0  0  0  0  0  0  0  0
   60.6769   28.0683   44.0655 H   0  0  0  0  0  0  0  0  0  0  0  0
   59.5695   29.4827   44.0655 H   0  0  0  0  0  0  0  0  0  0  0  0
  1  2  1  0
  2  3  2  0
  2  4  1  0
  4  5  1  0
  5  6  1  0
  6  7  2  0
  7  8  1  0
  8  9  2  0
  9 10  1  0
 10 11  2  0
 11 12  1  0
 12 13  1  0
 13 14  1  0
 14 15  1  0
 15 16  1  0
 16 17  1  0
 17 18  1  0
 18 19  1  0
 19 20  1  0
 19 21  1  0
 12  4  2  0
 11  6  1  0
  1 22  1  0
  1 23  1  0
  1 24  1  0
  7 25  1  0
  8 26  1  0
  9 27  1  0
 10 28  1  0
 14 29  1  0
 14 30  1  0
 15 31  1  0
 15 32  1  0
 17 33  1  0
 17 34  1  0
 18 35  1  0
 18 36  1  0
 19 37  1  0
 20 38  1  0
 20 39  1  0
 20 40  1  0
 21 41  1  0
 21 42  1  0
 21 43  1  0
M  CHG  1  19   1
M  END
>  <UniqueID>  (28) 
28

>  <SMILES>  (28) 
CC(=O)c1sc2ccccc2c1OCCOCC[NH+](C)C

>  <Energy>  (28) 
75.26895747092203

>  <Genealogy>  (28) 
CC(=O)c1sc2ccccc2c1OCCOCC[NH+](C)C (protonated)
CC(=O)c1sc2ccccc2c1OCCOCC[NH+](C)C (3D coordinates assigned)
CC(=O)c1sc2ccccc2c1OCCOCC[NH+](C)C (optimized conformer: 75.26895747092203 kcal/mol)

>  <smiles>  (28) 
CC(=O)c1sc2ccccc2c1OCCOCCN(C)C

>  <score_type>  (28) 
oracle

>  <origin>  (28) 
adg

>  <m_score__min__energy>  (28) 
-4.4500000000000002

>  <m_primary>  (28) 
energy

$$$$
