0:0
     RDKit          3D

 49 50  0  0  0  0  0  0  0  0999 V2000
   63.3600   33.8410   46.0140 C   0  0  0  0  0  0  0  0  0  0  0  0
   64.0310   33.1240   47.1790 C   0  0  0  0  0  0  0  0  0  0  0  0
   63.2800   33.3740   48.4580 C   0  0  0  0  0  0  0  0  0  0  0  0
   63.9240   33.2490   49.6990 C   0  0  0  0  0  0  0  0  0  0  0  0
   63.2220   33.4980   50.8830 C   0  0  0  0  0  0  0  0  0  0  0  0
   61.8720   33.8580   50.8380 C   0  0  0  0  0  0  0  0  0  0  0  0
   61.2200   34.0080   49.6010 C   0  0  0  0  0  0  0  0  0  0  0  0
   59.8190   34.3550   49.5490 N   0  0  0  0  0  0  0  0  0  0  0  0
   59.0330   33.3450   48.8170 C   0  0  0  0  0  0  0  0  0  0  0  0
   58.7520   33.7520   47.3880 C   0  0  0  0  0  0  0  0  0  0  0  0
   58.5860   34.9800   47.1420 O   0  0  0  0  0  0  0  0  0  0  0  0
   58.6030   32.7900   46.3210 N   0  0  0  0  0  0  0  0  0  0  0  0
   59.2600   31.4740   46.3410 C   0  0  0  0  0  0  0  0  0  0  0  0
   58.2530   30.3580   46.0030 C   0  0  0  0  0  0  0  0  0  0  0  0
   57.1250   30.8290   45.1630 N   0  0  0  0  0  0  0  0  0  0  0  0
   56.4050   29.7090   44.5030 C   0  0  0  0  0  0  0  0  0  0  0  0
   57.0290   28.3260   44.7830 C   0  0  0  0  0  0  0  0  0  0  0  0
   56.2900   29.9650   42.9940 C   0  0  0  0  0  0  0  0  0  0  0  0
   57.5070   31.9420   44.2710 C   0  0  0  0  0  0  0  0  0  0  0  0
   57.8280   33.1680   45.1300 C   0  0  0  0  0  0  0  0  0  0  0  0
   61.9350   33.7660   48.4140 C   0  0  0  0  0  0  0  0  0  0  0  0
   62.6567   34.5925   46.4021 H   0  0  0  0  0  0  0  0  0  0  0  0
   64.1252   34.3378   45.3994 H   0  0  0  0  0  0  0  0  0  0  0  0
   62.8137   33.1104   45.3994 H   0  0  0  0  0  0  0  0  0  0  0  0
   64.0493   32.0431   46.9759 H   0  0  0  0  0  0  0  0  0  0  0  0
   65.0559   33.5081   47.2888 H   0  0  0  0  0  0  0  0  0  0  0  0
   64.9831   32.9546   49.7405 H   0  0  0  0  0  0  0  0  0  0  0  0
   63.7339   33.4102   51.8526 H   0  0  0  0  0  0  0  0  0  0  0  0
   61.3177   34.0245   51.7734 H   0  0  0  0  0  0  0  0  0  0  0  0
   59.4470   34.4250   50.5250 H   0  0  0  0  0  0  0  0  0  0  0  0
   59.6940   35.2960   49.1100 H   0  0  0  0  0  0  0  0  0  0  0  0
   59.5940   32.3988   48.8102 H   0  0  0  0  0  0  0  0  0  0  0  0
   58.0658   33.2389   49.3300 H   0  0  0  0  0  0  0  0  0  0  0  0
   60.0722   31.4645   45.5992 H   0  0  0  0  0  0  0  0  0  0  0  0
   59.6620   31.2945   47.3490 H   0  0  0  0  0  0  0  0  0  0  0  0
   58.7829   29.5598   45.4625 H   0  0  0  0  0  0  0  0  0  0  0  0
   57.8285   29.9998   46.9525 H   0  0  0  0  0  0  0  0  0  0  0  0
   55.3982   29.6792   44.9452 H   0  0  0  0  0  0  0  0  0  0  0  0
   57.0999   28.1689   45.8694 H   0  0  0  0  0  0  0  0  0  0  0  0
   56.3973   27.5422   44.3396 H   0  0  0  0  0  0  0  0  0  0  0  0
   58.0347   28.2809   44.3396 H   0  0  0  0  0  0  0  0  0  0  0  0
   55.8447   30.9562   42.8231 H   0  0  0  0  0  0  0  0  0  0  0  0
   57.2907   29.9291   42.5387 H   0  0  0  0  0  0  0  0  0  0  0  0
   55.6521   29.1931   42.5387 H   0  0  0  0  0  0  0  0  0  0  0  0
   58.3928   31.6588   43.6835 H   0  0  0  0  0  0  0  0  0  0  0  0
   56.6811   32.1718   43.5818 H   0  0  0  0  0  0  0  0  0  0  0  0
   58.4129   33.8826   44.5323 H   0  0  0  0  0  0  0  0  0  0  0  0
   56.8817   33.6229   45.4581 H   0  0  0  0  0  0  0  0  0  0  0  0
   61.4339   33.8855   47.4421 H   0  0  0  0  0  0  0  0  0  0  0  0
  1  2  1  0
  2  3  1  0
  3  4  2  0
  4  5  1  0
  5  6  2  0
  6  7  1  0
  7  8  1  0
  8  9  1  0
  9 10  1  0
 10 11  2  0
 10 12  1  0
 12 13  1  0
 13 14  1  0
 14 15  1  0
 15 16  1  0
 16 17  1  0
 16 18  1  0
 15 19  1  0
 19 20  1  0
  7 21  2  0
 21  3  1  0
 20 12  1  0
  1 22  1  0
  1 23  1  0
  1 24  1  0
  2 25  1  0
  2 26  1  0
  4 27  1  0
  5 28  1  0
  6 29  1  0
  8 30  1  0
  8 31  1  0
  9 32  1  0
  9 33  1  0
 13 34  1  0
 13 35  1  0
 14 36  1  0
 14 37  1  0
 16 38  1  0
 17 39  1  0
 17 40  1  0
 17 41  1  0
 18 42  1  0
 18 43  1  0
 18 44  1  0
 19 45  1  0
 19 46  1  0
 20 47  1  0
 20 48  1  0
 21 49  1  0
M  CHG  1   8   1
M  END
>  <UniqueID>  (1) 
1

>  <SMILES>  (1) 
CCc1cccc([NH2+]CC(=O)N2CCN(C(C)C)CC2)c1

>  <Energy>  (1) 
49.50611933412147

>  <Genealogy>  (1) 
CCc1cccc([NH2+]CC(=O)N2CCN(C(C)C)CC2)c1 (protonated)
CCc1cccc([NH2+]CC(=O)N2CCN(C(C)C)CC2)c1 (3D coordinates assigned)
CCc1cccc([NH2+]CC(=O)N2CCN(C(C)C)CC2)c1 (nonaromatic ring conformer: 49.50611933412147 kcal/mol)

>  <smiles>  (1) 
CCc1cccc(NCC(=O)N2CCN(C(C)C)CC2)c1

>  <score_type>  (1) 
oracle

>  <origin>  (1) 
adg

>  <m_score__min__energy>  (1) 
-5.8700000000000001

>  <m_primary>  (1) 
energy

$$$$
1:0
     RDKit          3D

 81 85  0  0  0  0  0  0  0  0999 V2000
   58.5360   33.8290   52.3380 C   0  0  0  0  0  0  0  0  0  0  0  0
   59.7740   33.4560   51.5280 C   0  0  0  0  0  0  0  0  0  0  0  0
   59.3860   32.7480   50.2870 N   0  0  0  0  0  0  0  0  0  0  0  0
   58.1320   31.9700   50.4500 C   0  0  0  0  0  0  0  0  0  0  0  0
   58.3380   30.5170   50.9160 C   0  0  0  0  0  0  0  0  0  0  0  0
   59.3770   33.6480   49.1120 C   0  0  0  0  0  0  0  0  0  0  0  0
   58.5240   33.0690   47.9790 C   0  0  0  0  0  0  0  0  0  0  0  0
   59.3660   32.6200   46.8680 N   0  0  0  0  0  0  0  0  0  0  0  0
   59.4020   31.2370   46.4670 C   0  0  0  0  0  0  0  0  0  0  0  0
   58.5630   30.7980   45.4260 C   0  0  0  0  0  0  0  0  0  0  0  0
   57.8370   31.7200   44.6420 C   0  0  0  0  0  0  0  0  0  0  0  0
   57.0160   31.2800   43.6070 C   0  0  0  0  0  0  0  0  0  0  0  0
   56.8960   29.9210   43.3430 C   0  0  0  0  0  0  0  0  0  0  0  0
   57.5940   28.9910   44.1140 C   0  0  0  0  0  0  0  0  0  0  0  0
   58.4510   29.4090   45.1640 C   0  0  0  0  0  0  0  0  0  0  0  0
   59.1230   28.5010   45.9580 N   0  0  0  0  0  0  0  0  0  0  0  0
   59.2310   27.0880   45.5340 C   0  0  0  0  0  0  0  0  0  0  0  0
   59.7650   28.9340   47.1030 C   0  0  0  0  0  0  0  0  0  0  0  0
   59.9840   28.0930   48.2230 C   0  0  0  0  0  0  0  0  0  0  0  0
   59.4770   26.9370   48.2380 O   0  0  0  0  0  0  0  0  0  0  0  0
   60.6540   28.5550   49.3340 N   0  0  0  0  0  0  0  0  0  0  0  0
   60.7940   27.6770   50.5160 C   0  0  0  0  0  0  0  0  0  0  0  0
   61.2090   29.8200   49.3390 C   0  0  0  0  0  0  0  0  0  0  0  0
   61.8670   30.3390   50.4770 C   0  0  0  0  0  0  0  0  0  0  0  0
   62.4880   31.5960   50.4660 C   0  0  0  0  0  0  0  0  0  0  0  0
   63.0820   32.0900   51.6900 N   0  0  0  0  0  0  0  0  0  0  0  0
   64.0270   31.1050   52.2410 C   0  0  0  0  0  0  0  0  0  0  0  0
   65.4620   31.3750   51.7640 C   0  0  0  0  0  0  0  0  0  0  0  0
   65.5750   32.7070   51.1290 N   0  0  0  0  0  0  0  0  0  0  0  0
   65.8480   33.7520   52.1310 C   0  0  0  0  0  0  0  0  0  0  0  0
   66.6460   32.7020   50.1200 C   0  0  0  0  0  0  0  0  0  0  0  0
   62.6100   32.2900   49.2350 C   0  0  0  0  0  0  0  0  0  0  0  0
   63.4020   33.4540   49.1110 C   0  0  0  0  0  0  0  0  0  0  0  0
   63.6020   34.0520   47.8680 C   0  0  0  0  0  0  0  0  0  0  0  0
   63.0460   33.4900   46.7250 C   0  0  0  0  0  0  0  0  0  0  0  0
   62.2480   32.3520   46.8250 C   0  0  0  0  0  0  0  0  0  0  0  0
   61.9500   31.7800   48.0820 C   0  0  0  0  0  0  0  0  0  0  0  0
   61.0930   30.6480   48.2000 C   0  0  0  0  0  0  0  0  0  0  0  0
   60.1300   30.2870   47.2220 C   0  0  0  0  0  0  0  0  0  0  0  0
   58.7657   33.7598   53.4115 H   0  0  0  0  0  0  0  0  0  0  0  0
   58.2340   34.8580   52.0932 H   0  0  0  0  0  0  0  0  0  0  0  0
   57.7158   33.1381   52.0932 H   0  0  0  0  0  0  0  0  0  0  0  0
   60.3247   34.3714   51.2658 H   0  0  0  0  0  0  0  0  0  0  0  0
   60.4092   32.7924   52.1331 H   0  0  0  0  0  0  0  0  0  0  0  0
   57.5034   32.4831   51.1927 H   0  0  0  0  0  0  0  0  0  0  0  0
   57.6656   31.9163   49.4552 H   0  0  0  0  0  0  0  0  0  0  0  0
   58.3430   30.4818   52.0154 H   0  0  0  0  0  0  0  0  0  0  0  0
   57.5198   29.8895   50.5327 H   0  0  0  0  0  0  0  0  0  0  0  0
   59.2983   30.1417   50.5327 H   0  0  0  0  0  0  0  0  0  0  0  0
   58.9643   34.6232   49.4098 H   0  0  0  0  0  0  0  0  0  0  0  0
   60.4096   33.7590   48.7496 H   0  0  0  0  0  0  0  0  0  0  0  0
   57.9479   32.2141   48.3627 H   0  0  0  0  0  0  0  0  0  0  0  0
   57.8472   33.8546   47.6119 H   0  0  0  0  0  0  0  0  0  0  0  0
   59.6710   33.3400   46.1750 H   0  0  0  0  0  0  0  0  0  0  0  0
   57.9205   32.7968   44.8506 H   0  0  0  0  0  0  0  0  0  0  0  0
   56.4618   32.0090   42.9976 H   0  0  0  0  0  0  0  0  0  0  0  0
   56.2483   29.5772   42.5231 H   0  0  0  0  0  0  0  0  0  0  0  0
   57.4779   27.9174   43.9044 H   0  0  0  0  0  0  0  0  0  0  0  0
   59.2804   26.4413   46.4225 H   0  0  0  0  0  0  0  0  0  0  0  0
   58.3509   26.8175   44.9321 H   0  0  0  0  0  0  0  0  0  0  0  0
   60.1420   26.9544   44.9321 H   0  0  0  0  0  0  0  0  0  0  0  0
   60.6982   28.2778   51.4324 H   0  0  0  0  0  0  0  0  0  0  0  0
   60.0070   26.9087   50.4973 H   0  0  0  0  0  0  0  0  0  0  0  0
   61.7809   27.1915   50.4973 H   0  0  0  0  0  0  0  0  0  0  0  0
   61.8927   29.7390   51.3986 H   0  0  0  0  0  0  0  0  0  0  0  0
   63.5430   33.0140   51.5290 H   0  0  0  0  0  0  0  0  0  0  0  0
   62.3270   32.2700   52.3940 H   0  0  0  0  0  0  0  0  0  0  0  0
   63.9993   31.1584   53.3394 H   0  0  0  0  0  0  0  0  0  0  0  0
   63.7285   30.1061   51.8903 H   0  0  0  0  0  0  0  0  0  0  0  0
   66.1413   31.3310   52.6281 H   0  0  0  0  0  0  0  0  0  0  0  0
   65.7303   30.6111   51.0194 H   0  0  0  0  0  0  0  0  0  0  0  0
   65.7377   33.3296   53.1407 H   0  0  0  0  0  0  0  0  0  0  0  0
   66.8741   34.1263   52.0002 H   0  0  0  0  0  0  0  0  0  0  0  0
   65.1361   34.5803   52.0002 H   0  0  0  0  0  0  0  0  0  0  0  0
   67.6240   32.6974   50.6234 H   0  0  0  0  0  0  0  0  0  0  0  0
   66.5531   31.8043   49.4911 H   0  0  0  0  0  0  0  0  0  0  0  0
   66.5615   33.6005   49.4911 H   0  0  0  0  0  0  0  0  0  0  0  0
   63.8662   33.8933   50.0063 H   0  0  0  0  0  0  0  0  0  0  0  0
   64.2015   34.9711   47.7915 H   0  0  0  0  0  0  0  0  0  0  0  0
   63.2359   33.9436   45.7411 H   0  0  0  0  0  0  0  0  0  0  0  0
   61.8439   31.8920   45.9112 H   0  0  0  0  0  0  0  0  0  0  0  0
  1  2  1  0
  2  3  1  0
  3  4  1  0
  4  5  1  0
  3  6  1  0
  6  7  1  0
  7  8  1  0
  8  9  1  0
  9 10  2  0
 10 11  1  0
 11 12  2  0
 12 13  1  0
 13 14  2  0
 14 15  1  0
 15 16  2  0
 16 17  1  0
 16 18  1  0
 18 19  1  0
 19 20  2  0
 19 21  1  0
 21 22  1  0
 21 23  1  0
 23 24  2  0
 24 25  1  0
 25 26  1  0
 26 27  1  0
 27 28  1  0
 28 29  1  0
 29 30  1  0
 29 31  1  0
 25 32  2  0
 32 33  1  0
 33 34  2  0
 34 35  1  0
 35 36  2  0
 36 37  1  0
 37 38  2  0
 38 39  1  0
 39  9  1  0
 15 10  1  0
 39 18  2  0
 38 23  1  0
 37 32  1  0
  1 40  1  0
  1 41  1  0
  1 42  1  0
  2 43  1  0
  2 44  1  0
  4 45  1  0
  4 46  1  0
  5 47  1  0
  5 48  1  0
  5 49  1  0
  6 50  1  0
  6 51  1  0
  7 52  1  0
  7 53  1  0
  8 54  1  0
 11 55  1  0
 12 56  1  0
 13 57  1  0
 14 58  1  0
 17 59  1  0
 17 60  1  0
 17 61  1  0
 22 62  1  0
 22 63  1  0
 22 64  1  0
 24 65  1  0
 26 66  1  0
 26 67  1  0
 27 68  1  0
 27 69  1  0
 28 70  1  0
 28 71  1  0
 30 72  1  0
 30 73  1  0
 30 74  1  0
 31 75  1  0
 31 76  1  0
 31 77  1  0
 33 78  1  0
 34 79  1  0
 35 80  1  0
 36 81  1  0
M  CHG  2  16   1  26   1
M  END
>  <UniqueID>  (2) 
2

>  <SMILES>  (2) 
CCN(CC)CCNc1c2ccccc2[n+](C)c2c(=O)n(C)c3cc([NH2+]CCN(C)C)c4ccccc4c3c12

>  <Energy>  (2) 
152.67225977753344

>  <Genealogy>  (2) 
CCN(CC)CCNc1c2ccccc2[n+](C)c2c(=O)n(C)c3cc([NH2+]CCN(C)C)c4ccccc4c3c12 (protonated)
CCN(CC)CCNc1c2ccccc2[n+](C)c2c(=O)n(C)c3cc([NH2+]CCN(C)C)c4ccccc4c3c12 (3D coordinates assigned)
CCN(CC)CCNc1c2ccccc2[n+](C)c2c(=O)n(C)c3cc([NH2+]CCN(C)C)c4ccccc4c3c12 (optimized conformer: 152.67225977753344 kcal/mol)

>  <smiles>  (2) 
CCN(CC)CCNc1c2ccccc2[n+](C)c2c(=O)n(C)c3cc(NCCN(C)C)c4ccccc4c3c12

>  <score_type>  (2) 
oracle

>  <origin>  (2) 
adg

>  <m_score__min__energy>  (2) 
-5.7400000000000002

>  <m_primary>  (2) 
energy

$$$$
2:0
     RDKit          3D

 56 58  0  0  0  0  0  0  0  0999 V2000
   64.9720   31.9420   50.3650 C   0  0  0  0  0  0  0  0  0  0  0  0
   64.8250   33.0500   49.3210 C   0  0  0  0  0  0  0  0  0  0  0  0
   63.5350   32.9390   48.5690 N   0  0  0  0  0  0  0  0  0  0  0  0
   63.7490   33.1090   47.1080 C   0  0  0  0  0  0  0  0  0  0  0  0
   62.5770   33.8300   46.4270 C   0  0  0  0  0  0  0  0  0  0  0  0
   62.5450   33.9420   49.0430 C   0  0  0  0  0  0  0  0  0  0  0  0
   61.1630   33.3300   49.3160 C   0  0  0  0  0  0  0  0  0  0  0  0
   60.9660   32.1830   48.4980 O   0  0  0  0  0  0  0  0  0  0  0  0
   61.1090   30.8780   48.9780 C   0  0  0  0  0  0  0  0  0  0  0  0
   61.9460   30.6140   49.8830 O   0  0  0  0  0  0  0  0  0  0  0  0
   60.2410   29.7940   48.4260 C   0  0  0  0  0  0  0  0  0  0  0  0
   58.9360   30.3370   48.0560 N   0  0  0  0  0  0  0  0  0  0  0  0
   58.5460   30.4670   46.6790 C   0  0  0  0  0  0  0  0  0  0  0  0
   58.3600   29.3210   45.8890 C   0  0  0  0  0  0  0  0  0  0  0  0
   58.5910   28.0350   46.4210 C   0  0  0  0  0  0  0  0  0  0  0  0
   58.4630   26.9030   45.6220 C   0  0  0  0  0  0  0  0  0  0  0  0
   58.1180   27.0320   44.2810 C   0  0  0  0  0  0  0  0  0  0  0  0
   57.8750   28.2920   43.7370 C   0  0  0  0  0  0  0  0  0  0  0  0
   57.9560   29.4640   44.5340 C   0  0  0  0  0  0  0  0  0  0  0  0
   57.6730   30.7160   44.0200 N   0  0  0  0  0  0  0  0  0  0  0  0
   56.9990   30.8440   42.7090 C   0  0  0  0  0  0  0  0  0  0  0  0
   57.9980   31.8500   44.7420 C   0  0  0  0  0  0  0  0  0  0  0  0
   57.9610   33.1440   44.1610 C   0  0  0  0  0  0  0  0  0  0  0  0
   58.2250   34.2830   44.9210 C   0  0  0  0  0  0  0  0  0  0  0  0
   58.5440   34.1670   46.2690 C   0  0  0  0  0  0  0  0  0  0  0  0
   58.6330   32.9070   46.8580 C   0  0  0  0  0  0  0  0  0  0  0  0
   58.3960   31.7400   46.1020 C   0  0  0  0  0  0  0  0  0  0  0  0
   64.9141   32.3781   51.3732 H   0  0  0  0  0  0  0  0  0  0  0  0
   64.1635   31.2074   50.2363 H   0  0  0  0  0  0  0  0  0  0  0  0
   65.9441   31.4436   50.2363 H   0  0  0  0  0  0  0  0  0  0  0  0
   64.8577   34.0248   49.8296 H   0  0  0  0  0  0  0  0  0  0  0  0
   65.6501   32.9517   48.6002 H   0  0  0  0  0  0  0  0  0  0  0  0
   63.1070   31.9920   48.7050 H   0  0  0  0  0  0  0  0  0  0  0  0
   64.6653   33.6969   46.9508 H   0  0  0  0  0  0  0  0  0  0  0  0
   63.8327   32.1072   46.6615 H   0  0  0  0  0  0  0  0  0  0  0  0
   61.9053   34.2432   47.1938 H   0  0  0  0  0  0  0  0  0  0  0  0
   62.9636   34.6467   45.7996 H   0  0  0  0  0  0  0  0  0  0  0  0
   62.0224   33.1167   45.7996 H   0  0  0  0  0  0  0  0  0  0  0  0
   62.9197   34.3933   49.9735 H   0  0  0  0  0  0  0  0  0  0  0  0
   62.4244   34.6909   48.2464 H   0  0  0  0  0  0  0  0  0  0  0  0
   61.0972   33.0377   50.3744 H   0  0  0  0  0  0  0  0  0  0  0  0
   60.3873   34.0748   49.0845 H   0  0  0  0  0  0  0  0  0  0  0  0
   60.7209   29.3611   47.5359 H   0  0  0  0  0  0  0  0  0  0  0  0
   60.1040   29.0165   49.1920 H   0  0  0  0  0  0  0  0  0  0  0  0
   58.1940   30.4050   48.7900 H   0  0  0  0  0  0  0  0  0  0  0  0
   58.8752   27.9260   47.4781 H   0  0  0  0  0  0  0  0  0  0  0  0
   58.6349   25.9050   46.0515 H   0  0  0  0  0  0  0  0  0  0  0  0
   58.0366   26.1365   43.6474 H   0  0  0  0  0  0  0  0  0  0  0  0
   57.6159   28.3798   42.6716 H   0  0  0  0  0  0  0  0  0  0  0  0
   55.9292   31.0472   42.8650 H   0  0  0  0  0  0  0  0  0  0  0  0
   57.4509   31.6724   42.1437 H   0  0  0  0  0  0  0  0  0  0  0  0
   57.1158   29.9076   42.1437 H   0  0  0  0  0  0  0  0  0  0  0  0
   57.7200   33.2505   43.0930 H   0  0  0  0  0  0  0  0  0  0  0  0
   58.1806   35.2770   44.4520 H   0  0  0  0  0  0  0  0  0  0  0  0
   58.7262   35.0696   46.8708 H   0  0  0  0  0  0  0  0  0  0  0  0
   58.8909   32.8217   47.9239 H   0  0  0  0  0  0  0  0  0  0  0  0
  1  2  1  0
  2  3  1  0
  3  4  1  0
  4  5  1  0
  3  6  1  0
  6  7  1  0
  7  8  1  0
  8  9  1  0
  9 10  2  0
  9 11  1  0
 11 12  1  0
 12 13  1  0
 13 14  2  0
 14 15  1  0
 15 16  2  0
 16 17  1  0
 17 18  2  0
 18 19  1  0
 19 20  2  0
 20 21  1  0
 20 22  1  0
 22 23  2  0
 23 24  1  0
 24 25  2  0
 25 26  1  0
 26 27  2  0
 27 13  1  0
 19 14  1  0
 27 22  1  0
  1 28  1  0
  1 29  1  0
  1 30  1  0
  2 31  1  0
  2 32  1  0
  3 33  1  0
  4 34  1  0
  4 35  1  0
  5 36  1  0
  5 37  1  0
  5 38  1  0
  6 39  1  0
  6 40  1  0
  7 41  1  0
  7 42  1  0
 11 43  1  0
 11 44  1  0
 12 45  1  0
 15 46  1  0
 16 47  1  0
 17 48  1  0
 18 49  1  0
 21 50  1  0
 21 51  1  0
 21 52  1  0
 23 53  1  0
 24 54  1  0
 25 55  1  0
 26 56  1  0
M  CHG  2   3   1  20   1
M  END
>  <UniqueID>  (3) 
3

>  <SMILES>  (3) 
CC[NH+](CC)CCOC(=O)CNc1c2ccccc2[n+](C)c2ccccc12

>  <Energy>  (3) 
82.26263191828659

>  <Genealogy>  (3) 
CC[NH+](CC)CCOC(=O)CNc1c2ccccc2[n+](C)c2ccccc12 (protonated)
CC[NH+](CC)CCOC(=O)CNc1c2ccccc2[n+](C)c2ccccc12 (3D coordinates assigned)
CC[NH+](CC)CCOC(=O)CNc1c2ccccc2[n+](C)c2ccccc12 (optimized conformer: 82.26263191828659 kcal/mol)

>  <smiles>  (3) 
CCN(CC)CCOC(=O)CNc1c2ccccc2[n+](C)c2ccccc12

>  <score_type>  (3) 
oracle

>  <origin>  (3) 
adg

>  <m_score__min__energy>  (3) 
-3.7000000000000002

>  <m_primary>  (3) 
energy

$$$$
3:0
     RDKit          3D

 49 51  0  0  0  0  0  0  0  0999 V2000
   62.0210   33.8270   46.3740 C   0  0  0  0  0  0  0  0  0  0  0  0
   61.0260   33.5840   47.5040 C   0  0  0  0  0  0  0  0  0  0  0  0
   59.8680   32.8230   47.0200 N   0  0  0  0  0  0  0  0  0  0  0  0
   59.7810   31.4010   47.2240 C   0  0  0  0  0  0  0  0  0  0  0  0
   59.0160   30.8860   48.2840 C   0  0  0  0  0  0  0  0  0  0  0  0
   58.9410   29.5060   48.4930 C   0  0  0  0  0  0  0  0  0  0  0  0
   59.6320   28.6310   47.6500 C   0  0  0  0  0  0  0  0  0  0  0  0
   60.3990   29.1350   46.5960 C   0  0  0  0  0  0  0  0  0  0  0  0
   60.4760   30.5160   46.3840 C   0  0  0  0  0  0  0  0  0  0  0  0
   58.5920   33.6630   46.1890 S   0  0  0  0  0  0  0  0  0  0  0  0
   57.4290   33.8970   47.1150 O   0  0  0  0  0  0  0  0  0  0  0  0
   59.0980   34.9950   45.7120 O   0  0  0  0  0  0  0  0  0  0  0  0
   58.0390   32.6890   44.8310 C   0  0  0  0  0  0  0  0  0  0  0  0
   58.4810   32.9850   43.5350 C   0  0  0  0  0  0  0  0  0  0  0  0
   58.0250   32.2320   42.4510 C   0  0  0  0  0  0  0  0  0  0  0  0
   57.1290   31.1780   42.6550 C   0  0  0  0  0  0  0  0  0  0  0  0
   56.6900   30.8630   43.9500 C   0  0  0  0  0  0  0  0  0  0  0  0
   55.7290   29.7580   44.1490 C   0  0  0  0  0  0  0  0  0  0  0  0
   54.7420   29.6640   43.3730 O   0  0  0  0  0  0  0  0  0  0  0  0
   55.9010   28.7580   45.1650 N   0  0  0  0  0  0  0  0  0  0  0  0
   57.1730   28.1750   45.5940 C   0  0  0  0  0  0  0  0  0  0  0  0
   58.1850   28.2620   44.4560 C   0  0  0  0  0  0  0  0  0  0  0  0
   58.1050   26.9330   43.7330 C   0  0  0  0  0  0  0  0  0  0  0  0
   57.7650   25.9170   44.8080 C   0  0  0  0  0  0  0  0  0  0  0  0
   57.0040   26.6790   45.8890 C   0  0  0  0  0  0  0  0  0  0  0  0
   57.1310   31.6410   45.0330 C   0  0  0  0  0  0  0  0  0  0  0  0
   63.0067   34.0677   46.7988 H   0  0  0  0  0  0  0  0  0  0  0  0
   62.1001   32.9218   45.7541 H   0  0  0  0  0  0  0  0  0  0  0  0
   61.6739   34.6668   45.7541 H   0  0  0  0  0  0  0  0  0  0  0  0
   61.5214   33.0168   48.3058 H   0  0  0  0  0  0  0  0  0  0  0  0
   60.6773   34.5557   47.8837 H   0  0  0  0  0  0  0  0  0  0  0  0
   58.4740   31.5715   48.9520 H   0  0  0  0  0  0  0  0  0  0  0  0
   58.3374   29.1080   49.3220 H   0  0  0  0  0  0  0  0  0  0  0  0
   59.5721   27.5453   47.8162 H   0  0  0  0  0  0  0  0  0  0  0  0
   60.9424   28.4458   45.9328 H   0  0  0  0  0  0  0  0  0  0  0  0
   61.0835   30.9100   45.5559 H   0  0  0  0  0  0  0  0  0  0  0  0
   59.1881   33.8115   43.3711 H   0  0  0  0  0  0  0  0  0  0  0  0
   58.3715   32.4685   41.4341 H   0  0  0  0  0  0  0  0  0  0  0  0
   56.7667   30.5933   41.7966 H   0  0  0  0  0  0  0  0  0  0  0  0
   57.5062   28.7233   46.4875 H   0  0  0  0  0  0  0  0  0  0  0  0
   57.9257   29.0855   43.7744 H   0  0  0  0  0  0  0  0  0  0  0  0
   59.2003   28.4599   44.8301 H   0  0  0  0  0  0  0  0  0  0  0  0
   57.3191   26.9587   42.9637 H   0  0  0  0  0  0  0  0  0  0  0  0
   59.0450   26.6877   43.2170 H   0  0  0  0  0  0  0  0  0  0  0  0
   57.1359   25.1168   44.3910 H   0  0  0  0  0  0  0  0  0  0  0  0
   58.6716   25.4444   45.2138 H   0  0  0  0  0  0  0  0  0  0  0  0
   55.9383   26.4076   45.8620 H   0  0  0  0  0  0  0  0  0  0  0  0
   57.3926   26.4317   46.8879 H   0  0  0  0  0  0  0  0  0  0  0  0
   56.7612   31.4262   46.0465 H   0  0  0  0  0  0  0  0  0  0  0  0
  1  2  1  0
  2  3  1  0
  3  4  1  0
  4  5  2  0
  5  6  1  0
  6  7  2  0
  7  8  1  0
  8  9  2  0
  3 10  1  0
 10 11  2  0
 10 12  2  0
 10 13  1  0
 13 14  2  0
 14 15  1  0
 15 16  2  0
 16 17  1  0
 17 18  1  0
 18 19  2  0
 18 20  1  0
 20 21  1  0
 21 22  1  0
 22 23  1  0
 23 24  1  0
 24 25  1  0
 17 26  2  0
  9  4  1  0
 26 13  1  0
 25 21  1  0
  1 27  1  0
  1 28  1  0
  1 29  1  0
  2 30  1  0
  2 31  1  0
  5 32  1  0
  6 33  1  0
  7 34  1  0
  8 35  1  0
  9 36  1  0
 14 37  1  0
 15 38  1  0
 16 39  1  0
 21 40  1  0
 22 41  1  0
 22 42  1  0
 23 43  1  0
 23 44  1  0
 24 45  1  0
 24 46  1  0
 25 47  1  0
 25 48  1  0
 26 49  1  0
M  CHG  1  20  -1
M  END
>  <UniqueID>  (4) 
4

>  <SMILES>  (4) 
CCN(c1ccccc1)S(=O)(=O)c1cccc(C(=O)[N-]C2CCCC2)c1

>  <Energy>  (4) 
57.02837092192207

>  <Genealogy>  (4) 
CCN(c1ccccc1)S(=O)(=O)c1cccc(C(=O)[N-]C2CCCC2)c1 (protonated)
CCN(c1ccccc1)S(=O)(=O)c1cccc(C(=O)[N-]C2CCCC2)c1 (3D coordinates assigned)
CCN(c1ccccc1)S(=O)(=O)c1cccc(C(=O)[N-]C2CCCC2)c1 (nonaromatic ring conformer: 57.02837092192207 kcal/mol)

>  <smiles>  (4) 
CCN(c1ccccc1)S(=O)(=O)c1cccc(C(=O)NC2CCCC2)c1

>  <score_type>  (4) 
oracle

>  <origin>  (4) 
adg

>  <m_score__min__energy>  (4) 
-11.19

>  <m_primary>  (4) 
energy

$$$$
4:0
     RDKit          3D

 50 52  0  0  0  0  0  0  0  0999 V2000
   65.5610   32.7260   50.0410 C   0  0  0  0  0  0  0  0  0  0  0  0
   64.5130   33.4520   49.1850 C   0  0  0  0  0  0  0  0  0  0  0  0
   63.8710   32.6070   48.1460 N   0  0  2  0  0  0  0  0  0  0  0  0
   63.1700   33.4180   47.1320 C   0  0  0  0  0  0  0  0  0  0  0  0
   62.9830   31.5770   48.7440 C   0  0  0  0  0  0  0  0  0  0  0  0
   61.4810   31.9530   48.7770 C   0  0  0  0  0  0  0  0  0  0  0  0
   60.4700   30.7910   48.7420 C   0  0  0  0  0  0  0  0  0  0  0  0
   59.1480   31.1950   48.2470 N   0  0  0  0  0  0  0  0  0  0  0  0
   58.8590   31.4610   46.8600 C   0  0  0  0  0  0  0  0  0  0  0  0
   59.0600   32.7530   46.3420 C   0  0  0  0  0  0  0  0  0  0  0  0
   59.5980   33.7770   47.1530 C   0  0  0  0  0  0  0  0  0  0  0  0
   59.7100   35.0790   46.6730 C   0  0  0  0  0  0  0  0  0  0  0  0
   59.2750   35.3890   45.3920 C   0  0  0  0  0  0  0  0  0  0  0  0
   58.7490   34.3930   44.5690 C   0  0  0  0  0  0  0  0  0  0  0  0
   58.6640   33.0460   45.0100 C   0  0  0  0  0  0  0  0  0  0  0  0
   58.1790   32.0430   44.1910 N   0  0  0  0  0  0  0  0  0  0  0  0
   58.0040   32.2910   42.7420 C   0  0  0  0  0  0  0  0  0  0  0  0
   57.9000   30.7940   44.7150 C   0  0  0  0  0  0  0  0  0  0  0  0
   57.1930   29.8120   43.9730 C   0  0  0  0  0  0  0  0  0  0  0  0
   57.0180   28.5210   44.4700 C   0  0  0  0  0  0  0  0  0  0  0  0
   57.5440   28.1710   45.7080 C   0  0  0  0  0  0  0  0  0  0  0  0
   57.3510   26.3860   46.3590 Br  0  0  0  0  0  0  0  0  0  0  0  0
   58.1940   29.1300   46.4830 C   0  0  0  0  0  0  0  0  0  0  0  0
   58.3160   30.4620   46.0320 C   0  0  0  0  0  0  0  0  0  0  0  0
   65.3360   32.8819   51.1064 H   0  0  0  0  0  0  0  0  0  0  0  0
   65.5374   31.6498   49.8149 H   0  0  0  0  0  0  0  0  0  0  0  0
   66.5603   33.1263   49.8149 H   0  0  0  0  0  0  0  0  0  0  0  0
   63.7261   33.8306   49.8539 H   0  0  0  0  0  0  0  0  0  0  0  0
   65.0465   34.2519   48.6507 H   0  0  0  0  0  0  0  0  0  0  0  0
   64.6660   32.1320   47.6650 H   0  0  0  0  0  0  0  0  0  0  0  0
   62.5298   34.1587   47.6335 H   0  0  0  0  0  0  0  0  0  0  0  0
   63.9083   33.9373   46.5033 H   0  0  0  0  0  0  0  0  0  0  0  0
   62.5493   32.7626   46.5033 H   0  0  0  0  0  0  0  0  0  0  0  0
   63.0911   30.6513   48.1597 H   0  0  0  0  0  0  0  0  0  0  0  0
   63.2977   31.4684   49.7924 H   0  0  0  0  0  0  0  0  0  0  0  0
   61.3012   32.5220   49.7011 H   0  0  0  0  0  0  0  0  0  0  0  0
   61.3055   32.5135   47.8469 H   0  0  0  0  0  0  0  0  0  0  0  0
   60.8647   30.0027   48.0841 H   0  0  0  0  0  0  0  0  0  0  0  0
   60.3401   30.4368   49.7753 H   0  0  0  0  0  0  0  0  0  0  0  0
   58.3600   31.2470   48.9300 H   0  0  0  0  0  0  0  0  0  0  0  0
   59.9320   33.5431   48.1746 H   0  0  0  0  0  0  0  0  0  0  0  0
   60.1441   35.8635   47.3102 H   0  0  0  0  0  0  0  0  0  0  0  0
   59.3452   36.4234   45.0245 H   0  0  0  0  0  0  0  0  0  0  0  0
   58.3941   34.6556   43.5615 H   0  0  0  0  0  0  0  0  0  0  0  0
   57.3754   33.1818   42.5958 H   0  0  0  0  0  0  0  0  0  0  0  0
   58.9871   32.4556   42.2768 H   0  0  0  0  0  0  0  0  0  0  0  0
   57.5194   31.4199   42.2768 H   0  0  0  0  0  0  0  0  0  0  0  0
   56.7761   30.0738   42.9893 H   0  0  0  0  0  0  0  0  0  0  0  0
   56.4619   27.7772   43.8804 H   0  0  0  0  0  0  0  0  0  0  0  0
   58.6170   28.8454   47.4577 H   0  0  0  0  0  0  0  0  0  0  0  0
  1  2  1  0
  2  3  1  0
  3  4  1  0
  3  5  1  0
  5  6  1  0
  6  7  1  0
  7  8  1  0
  8  9  1  0
  9 10  2  0
 10 11  1  0
 11 12  2  0
 12 13  1  0
 13 14  2  0
 14 15  1  0
 15 16  2  0
 16 17  1  0
 16 18  1  0
 18 19  2  0
 19 20  1  0
 20 21  2  0
 21 22  1  0
 21 23  1  0
 23 24  2  0
 24  9  1  0
 15 10  1  0
 24 18  1  0
  1 25  1  0
  1 26  1  0
  1 27  1  0
  2 28  1  0
  2 29  1  0
  3 30  1  6
  4 31  1  0
  4 32  1  0
  4 33  1  0
  5 34  1  0
  5 35  1  0
  6 36  1  0
  6 37  1  0
  7 38  1  0
  7 39  1  0
  8 40  1  0
 11 41  1  0
 12 42  1  0
 13 43  1  0
 14 44  1  0
 17 45  1  0
 17 46  1  0
 17 47  1  0
 19 48  1  0
 20 49  1  0
 23 50  1  0
M  CHG  2   3   1  16   1
M  END
>  <UniqueID>  (5) 
5

>  <SMILES>  (5) 
CC[N@H+](C)CCCNc1c2ccccc2[n+](C)c2ccc(Br)cc12

>  <Energy>  (5) 
77.99570074428992

>  <Genealogy>  (5) 
CC[NH+](C)CCCNc1c2ccccc2[n+](C)c2ccc(Br)cc12 (protonated)
CC[N@H+](C)CCCNc1c2ccccc2[n+](C)c2ccc(Br)cc12 (chirality)
CC[N@H+](C)CCCNc1c2ccccc2[n+](C)c2ccc(Br)cc12 (3D coordinates assigned)
CC[N@H+](C)CCCNc1c2ccccc2[n+](C)c2ccc(Br)cc12 (optimized conformer: 77.99570074428992 kcal/mol)

>  <smiles>  (5) 
CCN(C)CCCNc1c2ccccc2[n+](C)c2ccc(Br)cc12

>  <score_type>  (5) 
oracle

>  <origin>  (5) 
adg

>  <m_score__min__energy>  (5) 
-5.3899999999999997

>  <m_primary>  (5) 
energy

$$$$
5:0
     RDKit          3D

 65 67  0  0  0  0  0  0  0  0999 V2000
   58.2100   33.8920   52.3980 C   0  0  0  0  0  0  0  0  0  0  0  0
   58.6480   32.5690   51.7690 C   0  0  0  0  0  0  0  0  0  0  0  0
   58.7290   32.6800   50.2940 N   0  0  0  0  0  0  0  0  0  0  0  0
   59.6980   33.7300   49.8770 C   0  0  0  0  0  0  0  0  0  0  0  0
   61.0330   33.5040   50.5770 C   0  0  0  0  0  0  0  0  0  0  0  0
   59.0500   31.3650   49.6920 C   0  0  0  0  0  0  0  0  0  0  0  0
   59.4450   30.3480   50.7730 C   0  0  0  0  0  0  0  0  0  0  0  0
   59.4540   29.0410   50.2310 O   0  0  0  0  0  0  0  0  0  0  0  0
   60.7680   28.5150   50.2110 C   0  0  0  0  0  0  0  0  0  0  0  0
   60.7320   27.0590   49.7350 C   0  0  0  0  0  0  0  0  0  0  0  0
   59.9260   26.9120   48.5810 O   0  0  0  0  0  0  0  0  0  0  0  0
   60.7010   26.8410   47.3990 C   0  0  0  0  0  0  0  0  0  0  0  0
   60.3910   27.9960   46.4410 C   0  0  0  0  0  0  0  0  0  0  0  0
   59.7600   29.1190   47.1360 N   0  0  0  0  0  0  0  0  0  0  0  0
   59.4280   30.3540   46.4770 C   0  0  0  0  0  0  0  0  0  0  0  0
   58.3740   30.3930   45.5470 C   0  0  0  0  0  0  0  0  0  0  0  0
   57.6860   29.2170   45.1850 C   0  0  0  0  0  0  0  0  0  0  0  0
   56.6810   29.2480   44.2200 C   0  0  0  0  0  0  0  0  0  0  0  0
   56.3530   30.4450   43.5930 C   0  0  0  0  0  0  0  0  0  0  0  0
   57.0100   31.6230   43.9450 C   0  0  0  0  0  0  0  0  0  0  0  0
   58.0090   31.6320   44.9530 C   0  0  0  0  0  0  0  0  0  0  0  0
   58.6380   32.7980   45.3430 N   0  0  0  0  0  0  0  0  0  0  0  0
   58.0760   34.1110   44.9530 C   0  0  0  0  0  0  0  0  0  0  0  0
   59.8000   32.7370   46.0900 C   0  0  0  0  0  0  0  0  0  0  0  0
   60.6320   33.8700   46.2650 C   0  0  0  0  0  0  0  0  0  0  0  0
   61.8020   33.7970   47.0160 C   0  0  0  0  0  0  0  0  0  0  0  0
   62.2080   32.5890   47.5940 C   0  0  0  0  0  0  0  0  0  0  0  0
   63.4270   32.5120   48.3550 N   0  0  0  0  0  0  0  0  0  0  0  0
   64.3680   33.3010   48.1320 O   0  0  0  0  0  0  0  0  0  0  0  0
   63.5680   31.5820   49.3590 O   0  0  0  0  0  0  0  0  0  0  0  0
   61.4170   31.4490   47.4030 C   0  0  0  0  0  0  0  0  0  0  0  0
   60.2090   31.5090   46.6760 C   0  0  0  0  0  0  0  0  0  0  0  0
   58.2391   33.8042   53.4941 H   0  0  0  0  0  0  0  0  0  0  0  0
   58.8906   34.6941   52.0762 H   0  0  0  0  0  0  0  0  0  0  0  0
   57.1853   34.1295   52.0762 H   0  0  0  0  0  0  0  0  0  0  0  0
   59.6374   32.2940   52.1633 H   0  0  0  0  0  0  0  0  0  0  0  0
   57.9035   31.7994   52.0208 H   0  0  0  0  0  0  0  0  0  0  0  0
   59.8434   33.6815   48.7877 H   0  0  0  0  0  0  0  0  0  0  0  0
   59.3046   34.7193   50.1534 H   0  0  0  0  0  0  0  0  0  0  0  0
   60.8845   33.5291   51.6666 H   0  0  0  0  0  0  0  0  0  0  0  0
   61.4390   32.5243   50.2848 H   0  0  0  0  0  0  0  0  0  0  0  0
   61.7389   34.2954   50.2848 H   0  0  0  0  0  0  0  0  0  0  0  0
   58.1677   30.9915   49.1516 H   0  0  0  0  0  0  0  0  0  0  0  0
   59.8980   31.4920   49.0029 H   0  0  0  0  0  0  0  0  0  0  0  0
   60.4484   30.5915   51.1523 H   0  0  0  0  0  0  0  0  0  0  0  0
   58.7137   30.3924   51.5935 H   0  0  0  0  0  0  0  0  0  0  0  0
   61.3897   29.1091   49.5250 H   0  0  0  0  0  0  0  0  0  0  0  0
   61.1938   28.5575   51.2244 H   0  0  0  0  0  0  0  0  0  0  0  0
   61.7563   26.7341   49.4997 H   0  0  0  0  0  0  0  0  0  0  0  0
   60.3015   26.4431   50.5383 H   0  0  0  0  0  0  0  0  0  0  0  0
   61.7665   26.8800   47.6697 H   0  0  0  0  0  0  0  0  0  0  0  0
   60.4556   25.8988   46.8870 H   0  0  0  0  0  0  0  0  0  0  0  0
   61.3296   28.3416   45.9833 H   0  0  0  0  0  0  0  0  0  0  0  0
   59.6917   27.6291   45.6752 H   0  0  0  0  0  0  0  0  0  0  0  0
   59.5370   29.0140   48.1530 H   0  0  0  0  0  0  0  0  0  0  0  0
   57.9453   28.2642   45.6697 H   0  0  0  0  0  0  0  0  0  0  0  0
   56.1464   28.3242   43.9539 H   0  0  0  0  0  0  0  0  0  0  0  0
   55.5732   30.4624   42.8174 H   0  0  0  0  0  0  0  0  0  0  0  0
   56.7498   32.5612   43.4330 H   0  0  0  0  0  0  0  0  0  0  0  0
   57.8293   34.6873   45.8569 H   0  0  0  0  0  0  0  0  0  0  0  0
   58.8163   34.6640   44.3562 H   0  0  0  0  0  0  0  0  0  0  0  0
   57.1649   33.9572   44.3562 H   0  0  0  0  0  0  0  0  0  0  0  0
   60.3484   34.8252   45.7989 H   0  0  0  0  0  0  0  0  0  0  0  0
   62.4146   34.6997   47.1567 H   0  0  0  0  0  0  0  0  0  0  0  0
   61.7437   30.4884   47.8279 H   0  0  0  0  0  0  0  0  0  0  0  0
  1  2  1  0
  2  3  1  0
  3  4  1  0
  4  5  1  0
  3  6  1  0
  6  7  1  0
  7  8  1  0
  8  9  1  0
  9 10  1  0
 10 11  1  0
 11 12  1  0
 12 13  1  0
 13 14  1  0
 14 15  1  0
 15 16  2  0
 16 17  1  0
 17 18  2  0
 18 19  1  0
 19 20  2  0
 20 21  1  0
 21 22  2  0
 22 23  1  0
 22 24  1  0
 24 25  2  0
 25 26  1  0
 26 27  2  0
 27 28  1  0
 28 29  2  0
 28 30  1  0
 27 31  1  0
 31 32  2  0
 32 15  1  0
 21 16  1  0
 32 24  1  0
  1 33  1  0
  1 34  1  0
  1 35  1  0
  2 36  1  0
  2 37  1  0
  4 38  1  0
  4 39  1  0
  5 40  1  0
  5 41  1  0
  5 42  1  0
  6 43  1  0
  6 44  1  0
  7 45  1  0
  7 46  1  0
  9 47  1  0
  9 48  1  0
 10 49  1  0
 10 50  1  0
 12 51  1  0
 12 52  1  0
 13 53  1  0
 13 54  1  0
 14 55  1  0
 17 56  1  0
 18 57  1  0
 19 58  1  0
 20 59  1  0
 23 60  1  0
 23 61  1  0
 23 62  1  0
 25 63  1  0
 26 64  1  0
 31 65  1  0
M  CHG  3  22   1  28   1  30  -1
M  END
>  <UniqueID>  (6) 
6

>  <SMILES>  (6) 
CCN(CC)CCOCCOCCNc1c2ccccc2[n+](C)c2ccc([N+](=O)[O-])cc12

>  <Energy>  (6) 
96.10939187085569

>  <Genealogy>  (6) 
CCN(CC)CCOCCOCCNc1c2ccccc2[n+](C)c2ccc([N+](=O)[O-])cc12 (3D coordinates assigned)
CCN(CC)CCOCCOCCNc1c2ccccc2[n+](C)c2ccc([N+](=O)[O-])cc12 (optimized conformer: 96.10939187085569 kcal/mol)

>  <smiles>  (6) 
CCN(CC)CCOCCOCCNc1c2ccccc2[n+](C)c2ccc([N+](=O)[O-])cc12

>  <score_type>  (6) 
oracle

>  <origin>  (6) 
adg

>  <m_score__min__energy>  (6) 
-6.54

>  <m_primary>  (6) 
energy

$$$$
6:0
     RDKit          3D

 69 71  0  0  0  0  0  0  0  0999 V2000
   60.7460   33.5190   50.9340 C   0  0  0  0  0  0  0  0  0  0  0  0
   60.4400   32.0370   51.2020 C   0  0  0  0  0  0  0  0  0  0  0  0
   59.4880   31.4380   50.2370 N   0  0  0  0  0  0  0  0  0  0  0  0
   58.2180   32.1980   50.1430 C   0  0  0  0  0  0  0  0  0  0  0  0
   57.4240   32.0300   51.4340 C   0  0  0  0  0  0  0  0  0  0  0  0
   59.2960   29.9870   50.4640 C   0  0  0  0  0  0  0  0  0  0  0  0
   59.1790   29.2010   49.1460 C   0  0  0  0  0  0  0  0  0  0  0  0
   59.8580   29.8640   48.0120 N   0  0  0  0  0  0  0  0  0  0  0  0
   59.0970   29.7340   46.7730 C   0  0  0  0  0  0  0  0  0  0  0  0
   58.8720   28.4630   46.1660 C   0  0  0  0  0  0  0  0  0  0  0  0
   59.3950   27.2580   46.7050 C   0  0  0  0  0  0  0  0  0  0  0  0
   59.2100   26.0370   46.0650 C   0  0  0  0  0  0  0  0  0  0  0  0
   58.5180   25.9760   44.8680 C   0  0  0  0  0  0  0  0  0  0  0  0
   57.9750   27.1320   44.3190 C   0  0  0  0  0  0  0  0  0  0  0  0
   58.0990   28.3870   44.9700 C   0  0  0  0  0  0  0  0  0  0  0  0
   57.5020   29.5160   44.4510 N   0  0  0  0  0  0  0  0  0  0  0  0
   56.4480   29.3850   43.4160 C   0  0  0  0  0  0  0  0  0  0  0  0
   57.8530   30.7650   44.9170 C   0  0  0  0  0  0  0  0  0  0  0  0
   57.4910   31.9380   44.2120 C   0  0  0  0  0  0  0  0  0  0  0  0
   57.7760   33.2020   44.7140 C   0  0  0  0  0  0  0  0  0  0  0  0
   58.4310   33.3510   45.9340 C   0  0  0  0  0  0  0  0  0  0  0  0
   58.6870   34.6810   46.4330 N   0  0  0  0  0  0  0  0  0  0  0  0
   60.0020   35.1880   46.8300 C   0  0  0  0  0  0  0  0  0  0  0  0
   61.1120   34.2410   46.3510 C   0  0  0  0  0  0  0  0  0  0  0  0
   61.8480   33.5510   47.5120 C   0  0  0  0  0  0  0  0  0  0  0  0
   62.1760   32.0670   47.2580 C   0  0  0  0  0  0  0  0  0  0  0  0
   62.0910   31.2610   48.4850 N   0  0  0  0  0  0  0  0  0  0  0  0
   63.2170   31.5250   49.3840 C   0  0  0  0  0  0  0  0  0  0  0  0
   58.8270   32.2010   46.6340 C   0  0  0  0  0  0  0  0  0  0  0  0
   58.5990   30.8980   46.1180 C   0  0  0  0  0  0  0  0  0  0  0  0
   60.8556   34.0497   51.8913 H   0  0  0  0  0  0  0  0  0  0  0  0
   61.6803   33.6024   50.3595 H   0  0  0  0  0  0  0  0  0  0  0  0
   59.9211   33.9656   50.3595 H   0  0  0  0  0  0  0  0  0  0  0  0
   61.3836   31.4738   51.1530 H   0  0  0  0  0  0  0  0  0  0  0  0
   59.9674   31.9821   52.1938 H   0  0  0  0  0  0  0  0  0  0  0  0
   58.4401   33.2638   49.9860 H   0  0  0  0  0  0  0  0  0  0  0  0
   57.6260   31.8166   49.2980 H   0  0  0  0  0  0  0  0  0  0  0  0
   58.0921   32.1714   52.2964 H   0  0  0  0  0  0  0  0  0  0  0  0
   56.6177   32.7774   51.4684 H   0  0  0  0  0  0  0  0  0  0  0  0
   56.9895   31.0200   51.4684 H   0  0  0  0  0  0  0  0  0  0  0  0
   60.1556   29.6007   51.0313 H   0  0  0  0  0  0  0  0  0  0  0  0
   58.3561   29.8544   51.0199 H   0  0  0  0  0  0  0  0  0  0  0  0
   59.6281   28.2072   49.2902 H   0  0  0  0  0  0  0  0  0  0  0  0
   58.1096   29.1379   48.8960 H   0  0  0  0  0  0  0  0  0  0  0  0
   59.9930   30.8750   48.2330 H   0  0  0  0  0  0  0  0  0  0  0  0
   60.8430   29.5450   47.9380 H   0  0  0  0  0  0  0  0  0  0  0  0
   59.9586   27.2908   47.6491 H   0  0  0  0  0  0  0  0  0  0  0  0
   59.6150   25.1170   46.5117 H   0  0  0  0  0  0  0  0  0  0  0  0
   58.3976   25.0126   44.3509 H   0  0  0  0  0  0  0  0  0  0  0  0
   57.4384   27.0728   43.3606 H   0  0  0  0  0  0  0  0  0  0  0  0
   55.4691   29.2633   43.9029 H   0  0  0  0  0  0  0  0  0  0  0  0
   56.4358   30.2885   42.7887 H   0  0  0  0  0  0  0  0  0  0  0  0
   56.6573   28.5060   42.7887 H   0  0  0  0  0  0  0  0  0  0  0  0
   56.9729   31.8469   43.2459 H   0  0  0  0  0  0  0  0  0  0  0  0
   57.4812   34.0941   44.1419 H   0  0  0  0  0  0  0  0  0  0  0  0
   57.8800   35.3390   46.5260 H   0  0  0  0  0  0  0  0  0  0  0  0
   60.1565   36.1815   46.3837 H   0  0  0  0  0  0  0  0  0  0  0  0
   60.0407   35.2543   47.9273 H   0  0  0  0  0  0  0  0  0  0  0  0
   60.6624   33.4678   45.7107 H   0  0  0  0  0  0  0  0  0  0  0  0
   61.8500   34.8455   45.8033 H   0  0  0  0  0  0  0  0  0  0  0  0
   62.7917   34.0875   47.6898 H   0  0  0  0  0  0  0  0  0  0  0  0
   61.1710   33.5816   48.3785 H   0  0  0  0  0  0  0  0  0  0  0  0
   61.4629   31.6676   46.5218 H   0  0  0  0  0  0  0  0  0  0  0  0
   63.2098   32.0086   46.8868 H   0  0  0  0  0  0  0  0  0  0  0  0
   61.2210   31.5490   48.9910 H   0  0  0  0  0  0  0  0  0  0  0  0
   62.8792   31.4458   50.4278 H   0  0  0  0  0  0  0  0  0  0  0  0
   64.0137   30.7893   49.1996 H   0  0  0  0  0  0  0  0  0  0  0  0
   63.6037   32.5382   49.1996 H   0  0  0  0  0  0  0  0  0  0  0  0
   59.3269   32.3119   47.6075 H   0  0  0  0  0  0  0  0  0  0  0  0
  1  2  1  0
  2  3  1  0
  3  4  1  0
  4  5  1  0
  3  6  1  0
  6  7  1  0
  7  8  1  0
  8  9  1  0
  9 10  2  0
 10 11  1  0
 11 12  2  0
 12 13  1  0
 13 14  2  0
 14 15  1  0
 15 16  2  0
 16 17  1  0
 16 18  1  0
 18 19  2  0
 19 20  1  0
 20 21  2  0
 21 22  1  0
 22 23  1  0
 23 24  1  0
 24 25  1  0
 25 26  1  0
 26 27  1  0
 27 28  1  0
 21 29  1  0
 29 30  2  0
 30  9  1  0
 15 10  1  0
 30 18  1  0
  1 31  1  0
  1 32  1  0
  1 33  1  0
  2 34  1  0
  2 35  1  0
  4 36  1  0
  4 37  1  0
  5 38  1  0
  5 39  1  0
  5 40  1  0
  6 41  1  0
  6 42  1  0
  7 43  1  0
  7 44  1  0
  8 45  1  0
  8 46  1  0
 11 47  1  0
 12 48  1  0
 13 49  1  0
 14 50  1  0
 17 51  1  0
 17 52  1  0
 17 53  1  0
 19 54  1  0
 20 55  1  0
 22 56  1  0
 23 57  1  0
 23 58  1  0
 24 59  1  0
 24 60  1  0
 25 61  1  0
 25 62  1  0
 26 63  1  0
 26 64  1  0
 27 65  1  0
 28 66  1  0
 28 67  1  0
 28 68  1  0
 29 69  1  0
M  CHG  2   8   1  16   1
M  END
>  <UniqueID>  (7) 
7

>  <SMILES>  (7) 
CCN(CC)CC[NH2+]c1c2ccccc2[n+](C)c2ccc(NCCCCNC)cc12

>  <Energy>  (7) 
91.45623052819283

>  <Genealogy>  (7) 
CCN(CC)CC[NH2+]c1c2ccccc2[n+](C)c2ccc(NCCCCNC)cc12 (protonated)
CCN(CC)CC[NH2+]c1c2ccccc2[n+](C)c2ccc(NCCCCNC)cc12 (3D coordinates assigned)
CCN(CC)CC[NH2+]c1c2ccccc2[n+](C)c2ccc(NCCCCNC)cc12 (optimized conformer: 91.45623052819283 kcal/mol)

>  <smiles>  (7) 
CCN(CC)CCNc1c2ccccc2[n+](C)c2ccc(NCCCCNC)cc12

>  <score_type>  (7) 
oracle

>  <origin>  (7) 
adg

>  <m_score__min__energy>  (7) 
-5.0199999999999996

>  <m_primary>  (7) 
energy

$$$$
7:0
     RDKit          3D

 65 67  0  0  0  0  0  0  0  0999 V2000
   58.2460   34.4920   44.8600 C   0  0  0  0  0  0  0  0  0  0  0  0
   59.5620   34.4440   45.6250 C   0  0  0  0  0  0  0  0  0  0  0  0
   59.3860   33.6520   46.8640 N   0  0  0  0  0  0  0  0  0  0  0  0
   59.3010   34.4950   48.0790 C   0  0  0  0  0  0  0  0  0  0  0  0
   60.1790   34.0060   49.2420 C   0  0  0  0  0  0  0  0  0  0  0  0
   58.2970   32.6550   46.7740 C   0  0  0  0  0  0  0  0  0  0  0  0
   58.5460   31.4930   47.7560 C   0  0  0  0  0  0  0  0  0  0  0  0
   59.6170   30.5690   47.3290 N   0  0  0  0  0  0  0  0  0  0  0  0
   60.8250   31.1660   46.7350 C   0  0  0  0  0  0  0  0  0  0  0  0
   61.9480   31.3510   47.7760 C   0  0  0  0  0  0  0  0  0  0  0  0
   63.3280   31.5980   47.1420 C   0  0  0  0  0  0  0  0  0  0  0  0
   63.7480   33.0050   47.3300 N   0  0  0  0  0  0  0  0  0  0  0  0
   63.0390   33.9000   46.4010 C   0  0  0  0  0  0  0  0  0  0  0  0
   63.5200   33.4420   48.7170 C   0  0  0  0  0  0  0  0  0  0  0  0
   59.6950   29.2260   47.8390 C   0  0  0  0  0  0  0  0  0  0  0  0
   60.2830   29.0170   49.0530 N   0  0  0  0  0  0  0  0  0  0  0  0
   60.5100   27.7650   49.5450 C   0  0  0  0  0  0  0  0  0  0  0  0
   61.1400   27.6010   50.8860 C   0  0  0  0  0  0  0  0  0  0  0  0
   60.1710   26.6720   48.8100 N   0  0  0  0  0  0  0  0  0  0  0  0
   59.5820   26.8490   47.6040 C   0  0  0  0  0  0  0  0  0  0  0  0
   59.1180   25.6410   46.5460 S   0  0  0  0  0  0  0  0  0  0  0  0
   58.5050   26.7000   45.3830 C   0  0  0  0  0  0  0  0  0  0  0  0
   58.6480   28.0190   45.8270 C   0  0  0  0  0  0  0  0  0  0  0  0
   58.0850   29.1420   45.0530 C   0  0  0  0  0  0  0  0  0  0  0  0
   58.9260   30.0980   44.4660 C   0  0  0  0  0  0  0  0  0  0  0  0
   58.3850   31.1620   43.7370 C   0  0  0  0  0  0  0  0  0  0  0  0
   57.0000   31.2870   43.6080 C   0  0  0  0  0  0  0  0  0  0  0  0
   56.1540   30.3580   44.2180 C   0  0  0  0  0  0  0  0  0  0  0  0
   56.6920   29.2940   44.9480 C   0  0  0  0  0  0  0  0  0  0  0  0
   59.2940   28.1010   47.0860 C   0  0  0  0  0  0  0  0  0  0  0  0
   57.4086   34.5225   45.5726 H   0  0  0  0  0  0  0  0  0  0  0  0
   58.2222   35.3916   44.2274 H   0  0  0  0  0  0  0  0  0  0  0  0
   58.1567   33.5965   44.2274 H   0  0  0  0  0  0  0  0  0  0  0  0
   60.3339   33.9752   44.9970 H   0  0  0  0  0  0  0  0  0  0  0  0
   59.8715   35.4669   45.8854 H   0  0  0  0  0  0  0  0  0  0  0  0
   59.6144   35.5157   47.8144 H   0  0  0  0  0  0  0  0  0  0  0  0
   58.2582   34.4486   48.4262 H   0  0  0  0  0  0  0  0  0  0  0  0
   59.7029   34.2712   50.1975 H   0  0  0  0  0  0  0  0  0  0  0  0
   60.2942   32.9138   49.1804 H   0  0  0  0  0  0  0  0  0  0  0  0
   61.1682   34.4831   49.1804 H   0  0  0  0  0  0  0  0  0  0  0  0
   57.3411   33.1397   47.0217 H   0  0  0  0  0  0  0  0  0  0  0  0
   58.2651   32.2546   45.7500 H   0  0  0  0  0  0  0  0  0  0  0  0
   58.8233   31.9175   48.7321 H   0  0  0  0  0  0  0  0  0  0  0  0
   57.6164   30.9066   47.8000 H   0  0  0  0  0  0  0  0  0  0  0  0
   61.1891   30.5075   45.9326 H   0  0  0  0  0  0  0  0  0  0  0  0
   60.5570   32.1584   46.3434 H   0  0  0  0  0  0  0  0  0  0  0  0
   61.6964   32.2123   48.4122 H   0  0  0  0  0  0  0  0  0  0  0  0
   62.0159   30.4168   48.3528 H   0  0  0  0  0  0  0  0  0  0  0  0
   64.0666   30.9347   47.6158 H   0  0  0  0  0  0  0  0  0  0  0  0
   63.2632   31.3902   46.0638 H   0  0  0  0  0  0  0  0  0  0  0  0
   62.4560   34.6360   46.9740 H   0  0  0  0  0  0  0  0  0  0  0  0
   63.7696   34.4241   45.7674 H   0  0  0  0  0  0  0  0  0  0  0  0
   62.3616   33.3087   45.7674 H   0  0  0  0  0  0  0  0  0  0  0  0
   63.9152   32.6845   49.4098 H   0  0  0  0  0  0  0  0  0  0  0  0
   64.0335   34.3995   48.8889 H   0  0  0  0  0  0  0  0  0  0  0  0
   62.4409   33.5686   48.8889 H   0  0  0  0  0  0  0  0  0  0  0  0
   60.3921   27.7957   51.6688 H   0  0  0  0  0  0  0  0  0  0  0  0
   61.5201   26.5740   50.9894 H   0  0  0  0  0  0  0  0  0  0  0  0
   61.9727   28.3123   50.9894 H   0  0  0  0  0  0  0  0  0  0  0  0
   58.0609   26.3990   44.4227 H   0  0  0  0  0  0  0  0  0  0  0  0
   60.0167   30.0108   44.5794 H   0  0  0  0  0  0  0  0  0  0  0  0
   59.0503   31.9002   43.2653 H   0  0  0  0  0  0  0  0  0  0  0  0
   56.5751   32.1178   43.0255 H   0  0  0  0  0  0  0  0  0  0  0  0
   55.0631   30.4637   44.1239 H   0  0  0  0  0  0  0  0  0  0  0  0
   56.0230   28.5738   45.4416 H   0  0  0  0  0  0  0  0  0  0  0  0
  1  2  1  0
  2  3  1  0
  3  4  1  0
  4  5  1  0
  3  6  1  0
  6  7  1  0
  7  8  1  0
  8  9  1  0
  9 10  1  0
 10 11  1  0
 11 12  1  0
 12 13  1  0
 12 14  1  0
  8 15  1  0
 15 16  2  0
 16 17  1  0
 17 18  1  0
 17 19  2  0
 19 20  1  0
 20 21  1  0
 21 22  1  0
 22 23  2  0
 23 24  1  0
 24 25  2  0
 25 26  1  0
 26 27  2  0
 27 28  1  0
 28 29  2  0
 23 30  1  0
 30 15  1  0
 30 20  2  0
 29 24  1  0
  1 31  1  0
  1 32  1  0
  1 33  1  0
  2 34  1  0
  2 35  1  0
  4 36  1  0
  4 37  1  0
  5 38  1  0
  5 39  1  0
  5 40  1  0
  6 41  1  0
  6 42  1  0
  7 43  1  0
  7 44  1  0
  9 45  1  0
  9 46  1  0
 10 47  1  0
 10 48  1  0
 11 49  1  0
 11 50  1  0
 13 51  1  0
 13 52  1  0
 13 53  1  0
 14 54  1  0
 14 55  1  0
 14 56  1  0
 18 57  1  0
 18 58  1  0
 18 59  1  0
 22 60  1  0
 25 61  1  0
 26 62  1  0
 27 63  1  0
 28 64  1  0
 29 65  1  0
M  END
>  <UniqueID>  (8) 
8

>  <SMILES>  (8) 
CCN(CC)CCN(CCCN(C)C)c1nc(C)nc2scc(-c3ccccc3)c12

>  <Energy>  (8) 
106.5469453634581

>  <Genealogy>  (8) 
CCN(CC)CCN(CCCN(C)C)c1nc(C)nc2scc(-c3ccccc3)c12 (3D coordinates assigned)
CCN(CC)CCN(CCCN(C)C)c1nc(C)nc2scc(-c3ccccc3)c12 (optimized conformer: 106.5469453634581 kcal/mol)

>  <smiles>  (8) 
CCN(CC)CCN(CCCN(C)C)c1nc(C)nc2scc(-c3ccccc3)c12

>  <score_type>  (8) 
oracle

>  <origin>  (8) 
adg

>  <m_score__min__energy>  (8) 
-7.7199999999999998

>  <m_primary>  (8) 
energy

$$$$
8:0
     RDKit          3D

 59 62  0  0  0  0  0  0  0  0999 V2000
   57.0030   29.2130   43.3040 C   0  0  0  0  0  0  0  0  0  0  0  0
   57.8830   29.2360   44.4690 N   0  0  0  0  0  0  0  0  0  0  0  0
   58.3750   30.3390   45.0790 C   0  0  0  0  0  0  0  0  0  0  0  0
   59.2060   29.9710   46.1340 C   0  0  0  0  0  0  0  0  0  0  0  0
   59.9970   30.9000   47.0170 C   0  0  0  0  0  0  0  0  0  0  0  0
   61.2640   30.2810   47.4860 N   0  0  2  0  0  0  0  0  0  0  0  0
   61.1060   29.7610   48.8720 C   0  0  0  0  0  0  0  0  0  0  0  0
   61.0290   30.8580   49.9560 C   0  0  0  0  0  0  0  0  0  0  0  0
   62.2950   31.7350   49.9850 C   0  0  0  0  0  0  0  0  0  0  0  0
   62.2180   32.9430   49.1360 N   0  0  0  0  0  0  0  0  0  0  0  0
   61.2950   33.9750   49.6560 C   0  0  0  0  0  0  0  0  0  0  0  0
   59.9400   33.9070   48.9210 C   0  0  0  0  0  0  0  0  0  0  0  0
   59.8200   34.9300   47.7780 C   0  0  0  0  0  0  0  0  0  0  0  0
   59.0720   34.3750   46.5880 C   0  0  0  0  0  0  0  0  0  0  0  0
   57.7810   33.8400   46.7460 C   0  0  0  0  0  0  0  0  0  0  0  0
   57.0940   33.3200   45.6440 C   0  0  0  0  0  0  0  0  0  0  0  0
   57.6900   33.3260   44.3780 C   0  0  0  0  0  0  0  0  0  0  0  0
   58.9740   33.8550   44.2120 C   0  0  0  0  0  0  0  0  0  0  0  0
   59.6640   34.3800   45.3120 C   0  0  0  0  0  0  0  0  0  0  0  0
   62.0940   32.6790   47.6870 C   0  0  0  0  0  0  0  0  0  0  0  0
   62.4080   31.2150   47.3000 C   0  0  0  0  0  0  0  0  0  0  0  0
   59.2190   28.5890   46.1430 C   0  0  0  0  0  0  0  0  0  0  0  0
   59.8940   27.6810   46.9600 C   0  0  0  0  0  0  0  0  0  0  0  0
   59.7180   26.3090   46.7050 C   0  0  0  0  0  0  0  0  0  0  0  0
   58.8830   25.8790   45.6510 C   0  0  0  0  0  0  0  0  0  0  0  0
   58.2150   26.8180   44.8410 C   0  0  0  0  0  0  0  0  0  0  0  0
   58.4040   28.1740   45.1170 C   0  0  0  0  0  0  0  0  0  0  0  0
   55.9549   29.1856   43.6367 H   0  0  0  0  0  0  0  0  0  0  0  0
   57.1721   30.1159   42.6988 H   0  0  0  0  0  0  0  0  0  0  0  0
   57.2191   28.3202   42.6988 H   0  0  0  0  0  0  0  0  0  0  0  0
   58.1512   31.3750   44.7846 H   0  0  0  0  0  0  0  0  0  0  0  0
   60.2363   31.8112   46.4491 H   0  0  0  0  0  0  0  0  0  0  0  0
   59.3847   31.1304   47.9013 H   0  0  0  0  0  0  0  0  0  0  0  0
   61.4450   29.4460   46.8790 H   0  0  0  0  0  0  0  0  0  0  0  0
   60.1800   29.1687   48.9145 H   0  0  0  0  0  0  0  0  0  0  0  0
   62.0044   29.1648   49.0897 H   0  0  0  0  0  0  0  0  0  0  0  0
   60.1586   31.4986   49.7510 H   0  0  0  0  0  0  0  0  0  0  0  0
   60.9385   30.3619   50.9336 H   0  0  0  0  0  0  0  0  0  0  0  0
   62.4693   32.0541   51.0232 H   0  0  0  0  0  0  0  0  0  0  0  0
   63.1137   31.1196   49.5837 H   0  0  0  0  0  0  0  0  0  0  0  0
   61.1327   33.8071   50.7309 H   0  0  0  0  0  0  0  0  0  0  0  0
   61.7404   34.9670   49.4904 H   0  0  0  0  0  0  0  0  0  0  0  0
   59.8201   32.8974   48.5010 H   0  0  0  0  0  0  0  0  0  0  0  0
   59.1565   34.1437   49.6560 H   0  0  0  0  0  0  0  0  0  0  0  0
   59.2846   35.8157   48.1507 H   0  0  0  0  0  0  0  0  0  0  0  0
   60.8374   35.1855   47.4468 H   0  0  0  0  0  0  0  0  0  0  0  0
   57.3097   33.8304   47.7399 H   0  0  0  0  0  0  0  0  0  0  0  0
   56.0833   32.9056   45.7729 H   0  0  0  0  0  0  0  0  0  0  0  0
   57.1486   32.9146   43.5133 H   0  0  0  0  0  0  0  0  0  0  0  0
   59.4424   33.8587   43.2167 H   0  0  0  0  0  0  0  0  0  0  0  0
   60.6726   34.7978   45.1776 H   0  0  0  0  0  0  0  0  0  0  0  0
   61.0635   32.9079   47.3779 H   0  0  0  0  0  0  0  0  0  0  0  0
   62.8323   33.3151   47.1768 H   0  0  0  0  0  0  0  0  0  0  0  0
   62.7038   31.1930   46.2407 H   0  0  0  0  0  0  0  0  0  0  0  0
   63.2101   30.8735   47.9709 H   0  0  0  0  0  0  0  0  0  0  0  0
   60.5432   28.0274   47.7776 H   0  0  0  0  0  0  0  0  0  0  0  0
   60.2343   25.5662   47.3309 H   0  0  0  0  0  0  0  0  0  0  0  0
   58.7532   24.8033   45.4610 H   0  0  0  0  0  0  0  0  0  0  0  0
   57.5641   26.4931   44.0159 H   0  0  0  0  0  0  0  0  0  0  0  0
  1  2  1  0
  2  3  1  0
  3  4  2  0
  4  5  1  0
  5  6  1  0
  6  7  1  0
  7  8  1  0
  8  9  1  0
  9 10  1  0
 10 11  1  0
 11 12  1  0
 12 13  1  0
 13 14  1  0
 14 15  2  0
 15 16  1  0
 16 17  2  0
 17 18  1  0
 18 19  2  0
 10 20  1  0
 20 21  1  0
  4 22  1  0
 22 23  2  0
 23 24  1  0
 24 25  2  0
 25 26  1  0
 26 27  2  0
 27  2  1  0
 21  6  1  0
 27 22  1  0
 19 14  1  0
  1 28  1  0
  1 29  1  0
  1 30  1  0
  3 31  1  0
  5 32  1  0
  5 33  1  0
  6 34  1  6
  7 35  1  0
  7 36  1  0
  8 37  1  0
  8 38  1  0
  9 39  1  0
  9 40  1  0
 11 41  1  0
 11 42  1  0
 12 43  1  0
 12 44  1  0
 13 45  1  0
 13 46  1  0
 15 47  1  0
 16 48  1  0
 17 49  1  0
 18 50  1  0
 19 51  1  0
 20 52  1  0
 20 53  1  0
 21 54  1  0
 21 55  1  0
 23 56  1  0
 24 57  1  0
 25 58  1  0
 26 59  1  0
M  CHG  1   6   1
M  END
>  <UniqueID>  (9) 
9

>  <SMILES>  (9) 
Cn1cc(C[N@@H+]2CCCN(CCCc3ccccc3)CC2)c2ccccc21

>  <Energy>  (9) 
111.61813789958404

>  <Genealogy>  (9) 
Cn1cc(C[NH+]2CCCN(CCCc3ccccc3)CC2)c2ccccc21 (protonated)
Cn1cc(C[N@@H+]2CCCN(CCCc3ccccc3)CC2)c2ccccc21 (chirality)
Cn1cc(C[N@@H+]2CCCN(CCCc3ccccc3)CC2)c2ccccc21 (3D coordinates assigned)
Cn1cc(C[N@@H+]2CCCN(CCCc3ccccc3)CC2)c2ccccc21 (nonaromatic ring conformer: 111.61813789958404 kcal/mol)

>  <smiles>  (9) 
Cn1cc(CN2CCCN(CCCc3ccccc3)CC2)c2ccccc21

>  <score_type>  (9) 
oracle

>  <origin>  (9) 
adg

>  <m_score__min__energy>  (9) 
-4.6600000000000001

>  <m_primary>  (9) 
energy

$$$$
9:0
     RDKit          3D

 57 59  0  0  0  0  0  0  0  0999 V2000
   62.5730   32.7190   51.0290 C   0  0  0  0  0  0  0  0  0  0  0  0
   61.6360   31.5380   51.2740 C   0  0  0  0  0  0  0  0  0  0  0  0
   60.5410   31.5300   50.2750 N   0  0  0  0  0  0  0  0  0  0  0  0
   59.9310   32.8710   50.1750 C   0  0  0  0  0  0  0  0  0  0  0  0
   59.5230   30.5130   50.6250 C   0  0  0  0  0  0  0  0  0  0  0  0
   59.3980   29.4370   49.5240 C   0  0  0  0  0  0  0  0  0  0  0  0
   60.5410   29.4630   48.5890 N   0  0  0  0  0  0  0  0  0  0  0  0
   60.2820   30.2980   47.4180 C   0  0  0  0  0  0  0  0  0  0  0  0
   61.0340   31.4800   47.2080 C   0  0  0  0  0  0  0  0  0  0  0  0
   62.3680   31.6040   47.6600 C   0  0  0  0  0  0  0  0  0  0  0  0
   63.0860   32.7790   47.4510 C   0  0  0  0  0  0  0  0  0  0  0  0
   62.5060   33.8400   46.7680 C   0  0  0  0  0  0  0  0  0  0  0  0
   61.2030   33.7320   46.2870 C   0  0  0  0  0  0  0  0  0  0  0  0
   60.4390   32.5580   46.5030 C   0  0  0  0  0  0  0  0  0  0  0  0
   59.1430   32.4450   46.0460 N   0  0  0  0  0  0  0  0  0  0  0  0
   58.3850   33.6580   45.6660 C   0  0  0  0  0  0  0  0  0  0  0  0
   58.5680   31.1950   45.9270 C   0  0  0  0  0  0  0  0  0  0  0  0
   57.3940   31.0030   45.1600 C   0  0  0  0  0  0  0  0  0  0  0  0
   56.8070   29.7450   45.0330 C   0  0  0  0  0  0  0  0  0  0  0  0
   55.6160   29.5800   44.2570 N   0  0  0  0  0  0  0  0  0  0  0  0
   57.4140   28.6400   45.6210 C   0  0  0  0  0  0  0  0  0  0  0  0
   58.5960   28.7760   46.3580 C   0  0  0  0  0  0  0  0  0  0  0  0
   59.2890   27.5730   46.7350 N   0  0  0  0  0  0  0  0  0  0  0  0
   60.5000   27.2090   45.9990 C   0  0  0  0  0  0  0  0  0  0  0  0
   58.5730   26.5160   47.4500 C   0  0  0  0  0  0  0  0  0  0  0  0
   59.1590   30.0710   46.5710 C   0  0  0  0  0  0  0  0  0  0  0  0
   62.9013   33.1328   51.9938 H   0  0  0  0  0  0  0  0  0  0  0  0
   63.4498   32.3791   50.4584 H   0  0  0  0  0  0  0  0  0  0  0  0
   62.0427   33.4956   50.4584 H   0  0  0  0  0  0  0  0  0  0  0  0
   62.2061   30.6006   51.1941 H   0  0  0  0  0  0  0  0  0  0  0  0
   61.2002   31.6315   52.2797 H   0  0  0  0  0  0  0  0  0  0  0  0
   59.7504   33.2679   51.1849 H   0  0  0  0  0  0  0  0  0  0  0  0
   60.6116   33.5439   49.6328 H   0  0  0  0  0  0  0  0  0  0  0  0
   58.9765   32.8001   49.6328 H   0  0  0  0  0  0  0  0  0  0  0  0
   59.8123   30.0273   51.5686 H   0  0  0  0  0  0  0  0  0  0  0  0
   58.5510   31.0177   50.7271 H   0  0  0  0  0  0  0  0  0  0  0  0
   59.3516   28.4464   49.9999 H   0  0  0  0  0  0  0  0  0  0  0  0
   58.4846   29.6464   48.9480 H   0  0  0  0  0  0  0  0  0  0  0  0
   61.3540   29.8010   49.1460 H   0  0  0  0  0  0  0  0  0  0  0  0
   60.8000   28.4950   48.3060 H   0  0  0  0  0  0  0  0  0  0  0  0
   62.8447   30.7620   48.1832 H   0  0  0  0  0  0  0  0  0  0  0  0
   64.1156   32.8669   47.8281 H   0  0  0  0  0  0  0  0  0  0  0  0
   63.0761   34.7668   46.6066 H   0  0  0  0  0  0  0  0  0  0  0  0
   60.7601   34.5713   45.7307 H   0  0  0  0  0  0  0  0  0  0  0  0
   58.0561   34.1843   46.5742 H   0  0  0  0  0  0  0  0  0  0  0  0
   59.0294   34.3216   45.0707 H   0  0  0  0  0  0  0  0  0  0  0  0
   57.5061   33.3697   45.0707 H   0  0  0  0  0  0  0  0  0  0  0  0
   56.9351   31.8648   44.6534 H   0  0  0  0  0  0  0  0  0  0  0  0
   54.7710   30.1630   44.4430 H   0  0  0  0  0  0  0  0  0  0  0  0
   55.5730   28.8800   43.4820 H   0  0  0  0  0  0  0  0  0  0  0  0
   56.9586   27.6454   45.5051 H   0  0  0  0  0  0  0  0  0  0  0  0
   61.3031   26.9676   46.7109 H   0  0  0  0  0  0  0  0  0  0  0  0
   60.2951   26.3327   45.3664 H   0  0  0  0  0  0  0  0  0  0  0  0
   60.8122   28.0530   45.3664 H   0  0  0  0  0  0  0  0  0  0  0  0
   58.6778   26.6707   48.5340 H   0  0  0  0  0  0  0  0  0  0  0  0
   57.5079   26.5451   47.1767 H   0  0  0  0  0  0  0  0  0  0  0  0
   58.9951   25.5376   47.1767 H   0  0  0  0  0  0  0  0  0  0  0  0
  1  2  1  0
  2  3  1  0
  3  4  1  0
  3  5  1  0
  5  6  1  0
  6  7  1  0
  7  8  1  0
  8  9  2  0
  9 10  1  0
 10 11  2  0
 11 12  1  0
 12 13  2  0
 13 14  1  0
 14 15  2  0
 15 16  1  0
 15 17  1  0
 17 18  2  0
 18 19  1  0
 19 20  1  0
 19 21  2  0
 21 22  1  0
 22 23  1  0
 23 24  1  0
 23 25  1  0
 22 26  2  0
 26  8  1  0
 14  9  1  0
 26 17  1  0
  1 27  1  0
  1 28  1  0
  1 29  1  0
  2 30  1  0
  2 31  1  0
  4 32  1  0
  4 33  1  0
  4 34  1  0
  5 35  1  0
  5 36  1  0
  6 37  1  0
  6 38  1  0
  7 39  1  0
  7 40  1  0
 10 41  1  0
 11 42  1  0
 12 43  1  0
 13 44  1  0
 16 45  1  0
 16 46  1  0
 16 47  1  0
 18 48  1  0
 20 49  1  0
 20 50  1  0
 21 51  1  0
 24 52  1  0
 24 53  1  0
 24 54  1  0
 25 55  1  0
 25 56  1  0
 25 57  1  0
M  CHG  2   7   1  15   1
M  END
>  <UniqueID>  (10) 
10

>  <SMILES>  (10) 
CCN(C)CC[NH2+]c1c2ccccc2[n+](C)c2cc(N)cc(N(C)C)c12

>  <Energy>  (10) 
99.20351962413176

>  <Genealogy>  (10) 
CCN(C)CC[NH2+]c1c2ccccc2[n+](C)c2cc(N)cc(N(C)C)c12 (protonated)
CCN(C)CC[NH2+]c1c2ccccc2[n+](C)c2cc(N)cc(N(C)C)c12 (3D coordinates assigned)
CCN(C)CC[NH2+]c1c2ccccc2[n+](C)c2cc(N)cc(N(C)C)c12 (optimized conformer: 99.20351962413176 kcal/mol)

>  <smiles>  (10) 
CCN(C)CCNc1c2ccccc2[n+](C)c2cc(N)cc(N(C)C)c12

>  <score_type>  (10) 
oracle

>  <origin>  (10) 
adg

>  <m_score__min__energy>  (10) 
-4.1299999999999999

>  <m_primary>  (10) 
energy

$$$$
10:0
     RDKit          3D

 57 59  0  0  0  0  0  0  0  0999 V2000
   57.2470   33.7920   45.6300 C   0  0  0  0  0  0  0  0  0  0  0  0
   57.4540   32.7060   44.5860 C   0  0  0  0  0  0  0  0  0  0  0  0
   56.6140   31.6150   44.8910 O   0  0  0  0  0  0  0  0  0  0  0  0
   57.0050   30.4840   44.1380 C   0  0  0  0  0  0  0  0  0  0  0  0
   58.5300   30.3400   44.1570 C   0  0  0  0  0  0  0  0  0  0  0  0
   58.9670   29.3870   45.1930 N   0  0  0  0  0  0  0  0  0  0  0  0
   58.6610   28.0570   45.1780 C   0  0  0  0  0  0  0  0  0  0  0  0
   58.0000   27.3280   44.1760 C   0  0  0  0  0  0  0  0  0  0  0  0
   57.7650   25.9610   44.3860 C   0  0  0  0  0  0  0  0  0  0  0  0
   58.1710   25.3310   45.5870 C   0  0  0  0  0  0  0  0  0  0  0  0
   57.8570   23.8850   45.8200 C   0  0  0  0  0  0  0  0  0  0  0  0
   58.7990   26.0900   46.5950 C   0  0  0  0  0  0  0  0  0  0  0  0
   59.0320   27.4430   46.3490 C   0  0  0  0  0  0  0  0  0  0  0  0
   59.5690   28.4170   47.1450 C   0  0  0  0  0  0  0  0  0  0  0  0
   60.0190   28.3330   48.4560 C   0  0  0  0  0  0  0  0  0  0  0  0
   60.4500   29.5110   49.0610 C   0  0  0  0  0  0  0  0  0  0  0  0
   60.4540   30.6880   48.3650 N   0  0  0  0  0  0  0  0  0  0  0  0
   60.0430   30.7880   47.0550 C   0  0  0  0  0  0  0  0  0  0  0  0
   60.2570   32.1280   46.3780 C   0  0  0  0  0  0  0  0  0  0  0  0
   60.9230   33.1310   47.2490 N   0  0  0  0  0  0  0  0  0  0  0  0
   60.0320   34.1810   47.8140 C   0  0  0  0  0  0  0  0  0  0  0  0
   59.9450   34.2040   49.3520 C   0  0  0  0  0  0  0  0  0  0  0  0
   60.9750   33.4220   49.8970 O   0  0  0  0  0  0  0  0  0  0  0  0
   62.2410   33.5910   46.7540 C   0  0  0  0  0  0  0  0  0  0  0  0
   63.3810   32.7490   47.3430 C   0  0  0  0  0  0  0  0  0  0  0  0
   62.8810   31.8550   48.3010 O   0  0  0  0  0  0  0  0  0  0  0  0
   59.5400   29.6060   46.4280 C   0  0  0  0  0  0  0  0  0  0  0  0
   57.3304   33.3544   46.6358 H   0  0  0  0  0  0  0  0  0  0  0  0
   58.0127   34.5718   45.5047 H   0  0  0  0  0  0  0  0  0  0  0  0
   56.2482   34.2354   45.5047 H   0  0  0  0  0  0  0  0  0  0  0  0
   57.2027   33.0986   43.5896 H   0  0  0  0  0  0  0  0  0  0  0  0
   58.5047   32.3805   44.5892 H   0  0  0  0  0  0  0  0  0  0  0  0
   56.5490   29.5822   44.5727 H   0  0  0  0  0  0  0  0  0  0  0  0
   56.6683   30.6099   43.0984 H   0  0  0  0  0  0  0  0  0  0  0  0
   58.8678   29.9799   43.1740 H   0  0  0  0  0  0  0  0  0  0  0  0
   58.9679   31.3232   44.3840 H   0  0  0  0  0  0  0  0  0  0  0  0
   57.6737   27.8182   43.2469 H   0  0  0  0  0  0  0  0  0  0  0  0
   57.2588   25.3712   43.6076 H   0  0  0  0  0  0  0  0  0  0  0  0
   57.8144   23.6887   46.9015 H   0  0  0  0  0  0  0  0  0  0  0  0
   56.8853   23.6428   45.3648 H   0  0  0  0  0  0  0  0  0  0  0  0
   58.6407   23.2616   45.3648 H   0  0  0  0  0  0  0  0  0  0  0  0
   59.0968   25.6287   47.5482 H   0  0  0  0  0  0  0  0  0  0  0  0
   60.0344   27.3743   48.9951 H   0  0  0  0  0  0  0  0  0  0  0  0
   60.7899   29.4945   50.1070 H   0  0  0  0  0  0  0  0  0  0  0  0
   60.7980   31.5360   48.8660 H   0  0  0  0  0  0  0  0  0  0  0  0
   60.8813   31.9719   45.4859 H   0  0  0  0  0  0  0  0  0  0  0  0
   59.2631   32.5264   46.1262 H   0  0  0  0  0  0  0  0  0  0  0  0
   60.4039   35.1604   47.4788 H   0  0  0  0  0  0  0  0  0  0  0  0
   59.0189   33.9509   47.4526 H   0  0  0  0  0  0  0  0  0  0  0  0
   60.0451   35.2399   49.7082 H   0  0  0  0  0  0  0  0  0  0  0  0
   58.9732   33.7965   49.6675 H   0  0  0  0  0  0  0  0  0  0  0  0
   61.7340   33.4650   49.2580 H   0  0  0  0  0  0  0  0  0  0  0  0
   62.2619   33.5059   45.6575 H   0  0  0  0  0  0  0  0  0  0  0  0
   62.3840   34.6363   47.0652 H   0  0  0  0  0  0  0  0  0  0  0  0
   63.8673   32.1814   46.5359 H   0  0  0  0  0  0  0  0  0  0  0  0
   64.1089   33.4188   47.8241 H   0  0  0  0  0  0  0  0  0  0  0  0
   62.1890   32.3490   48.8120 H   0  0  0  0  0  0  0  0  0  0  0  0
  1  2  1  0
  2  3  1  0
  3  4  1  0
  4  5  1  0
  5  6  1  0
  6  7  1  0
  7  8  2  0
  8  9  1  0
  9 10  2  0
 10 11  1  0
 10 12  1  0
 12 13  2  0
 13 14  1  0
 14 15  2  0
 15 16  1  0
 16 17  2  0
 17 18  1  0
 18 19  1  0
 19 20  1  0
 20 21  1  0
 21 22  1  0
 22 23  1  0
 20 24  1  0
 24 25  1  0
 25 26  1  0
 18 27  2  0
 27  6  1  0
 13  7  1  0
 27 14  1  0
  1 28  1  0
  1 29  1  0
  1 30  1  0
  2 31  1  0
  2 32  1  0
  4 33  1  0
  4 34  1  0
  5 35  1  0
  5 36  1  0
  8 37  1  0
  9 38  1  0
 11 39  1  0
 11 40  1  0
 11 41  1  0
 12 42  1  0
 15 43  1  0
 16 44  1  0
 17 45  1  0
 19 46  1  0
 19 47  1  0
 21 48  1  0
 21 49  1  0
 22 50  1  0
 22 51  1  0
 23 52  1  0
 24 53  1  0
 24 54  1  0
 25 55  1  0
 25 56  1  0
 26 57  1  0
M  CHG  1  17   1
M  END
>  <UniqueID>  (11) 
11

>  <SMILES>  (11) 
CCOCCn1c2ccc(C)cc2c2cc[nH+]c(CN(CCO)CCO)c21

>  <Energy>  (11) 
111.21846582890848

>  <Genealogy>  (11) 
CCOCCn1c2ccc(C)cc2c2cc[nH+]c(CN(CCO)CCO)c21 (protonated)
CCOCCn1c2ccc(C)cc2c2cc[nH+]c(CN(CCO)CCO)c21 (3D coordinates assigned)
CCOCCn1c2ccc(C)cc2c2cc[nH+]c(CN(CCO)CCO)c21 (optimized conformer: 111.21846582890848 kcal/mol)

>  <smiles>  (11) 
CCOCCn1c2ccc(C)cc2c2ccnc(CN(CCO)CCO)c21

>  <score_type>  (11) 
oracle

>  <origin>  (11) 
adg

>  <m_score__min__energy>  (11) 
-5.6500000000000004

>  <m_primary>  (11) 
energy

$$$$
11:0
     RDKit          3D

 58 61  0  0  0  0  0  0  0  0999 V2000
   57.2310   32.3530   40.8510 C   0  0  0  0  0  0  0  0  0  0  0  0
   58.1260   32.3360   42.0970 C   0  0  0  0  0  0  0  0  0  0  0  0
   57.7580   31.3330   43.1320 N   0  0  0  0  0  0  0  0  0  0  0  0
   56.6370   30.4270   42.7520 C   0  0  0  0  0  0  0  0  0  0  0  0
   56.2330   29.3890   43.8130 C   0  0  0  0  0  0  0  0  0  0  0  0
   57.6370   31.9120   44.4620 C   0  0  0  0  0  0  0  0  0  0  0  0
   56.5430   32.2320   44.9060 O   0  0  0  0  0  0  0  0  0  0  0  0
   58.8570   32.1370   45.3210 C   0  0  0  0  0  0  0  0  0  0  0  0
   59.0360   31.0190   46.2690 N   0  0  0  0  0  0  0  0  0  0  0  0
   59.3480   29.7630   45.8040 C   0  0  0  0  0  0  0  0  0  0  0  0
   59.4180   29.5620   44.5580 O   0  0  0  0  0  0  0  0  0  0  0  0
   59.5950   28.7240   46.6780 N   0  0  0  0  0  0  0  0  0  0  0  0
   59.9420   27.3890   46.1460 C   0  0  0  0  0  0  0  0  0  0  0  0
   58.7210   26.5080   46.0900 C   0  0  0  0  0  0  0  0  0  0  0  0
   57.4340   27.0720   46.1400 C   0  0  0  0  0  0  0  0  0  0  0  0
   56.3030   26.2500   46.1190 C   0  0  0  0  0  0  0  0  0  0  0  0
   56.4460   24.8620   46.0500 C   0  0  0  0  0  0  0  0  0  0  0  0
   57.7220   24.2930   46.0020 C   0  0  0  0  0  0  0  0  0  0  0  0
   58.8560   25.1120   46.0240 C   0  0  0  0  0  0  0  0  0  0  0  0
   59.4920   28.9190   48.0370 C   0  0  0  0  0  0  0  0  0  0  0  0
   59.7210   27.9730   48.8400 O   0  0  0  0  0  0  0  0  0  0  0  0
   59.1380   30.1800   48.5240 C   0  0  0  0  0  0  0  0  0  0  0  0
   58.9660   30.5860   49.8670 C   0  0  0  0  0  0  0  0  0  0  0  0
   58.6750   31.9470   49.9740 C   0  0  0  0  0  0  0  0  0  0  0  0
   58.5610   32.6310   48.4400 S   0  0  0  0  0  0  0  0  0  0  0  0
   58.9320   31.2030   47.6160 C   0  0  0  0  0  0  0  0  0  0  0  0
   58.3870   32.6530   51.2630 C   0  0  0  0  0  0  0  0  0  0  0  0
   58.9660   31.8670   52.4490 C   0  0  0  0  0  0  0  0  0  0  0  0
   58.5860   30.3800   52.3590 C   0  0  0  0  0  0  0  0  0  0  0  0
   59.1640   29.7240   51.0910 C   0  0  0  0  0  0  0  0  0  0  0  0
   56.1750   32.3731   41.1583 H   0  0  0  0  0  0  0  0  0  0  0  0
   57.4552   33.2470   40.2507 H   0  0  0  0  0  0  0  0  0  0  0  0
   57.4211   31.4511   40.2507 H   0  0  0  0  0  0  0  0  0  0  0  0
   59.1560   32.1268   41.7724 H   0  0  0  0  0  0  0  0  0  0  0  0
   58.0042   33.3208   42.5717 H   0  0  0  0  0  0  0  0  0  0  0  0
   58.5970   30.7060   43.1680 H   0  0  0  0  0  0  0  0  0  0  0  0
   55.7567   31.0501   42.5356 H   0  0  0  0  0  0  0  0  0  0  0  0
   56.9964   29.8496   41.8874 H   0  0  0  0  0  0  0  0  0  0  0  0
   56.3962   29.8082   44.8168 H   0  0  0  0  0  0  0  0  0  0  0  0
   55.1700   29.1340   43.6904 H   0  0  0  0  0  0  0  0  0  0  0  0
   56.8440   28.4825   43.6904 H   0  0  0  0  0  0  0  0  0  0  0  0
   59.7451   32.2104   44.6761 H   0  0  0  0  0  0  0  0  0  0  0  0
   58.7238   33.0684   45.8908 H   0  0  0  0  0  0  0  0  0  0  0  0
   60.3550   27.4997   45.1325 H   0  0  0  0  0  0  0  0  0  0  0  0
   60.6852   26.9241   46.8105 H   0  0  0  0  0  0  0  0  0  0  0  0
   57.3164   28.1643   46.1959 H   0  0  0  0  0  0  0  0  0  0  0  0
   55.2987   26.6971   46.1569 H   0  0  0  0  0  0  0  0  0  0  0  0
   55.5550   24.2172   46.0334 H   0  0  0  0  0  0  0  0  0  0  0  0
   57.8345   23.2002   45.9469 H   0  0  0  0  0  0  0  0  0  0  0  0
   59.8583   24.6601   45.9894 H   0  0  0  0  0  0  0  0  0  0  0  0
   58.8412   33.6545   51.2363 H   0  0  0  0  0  0  0  0  0  0  0  0
   57.2971   32.7336   51.3882 H   0  0  0  0  0  0  0  0  0  0  0  0
   60.0621   31.9598   52.4420 H   0  0  0  0  0  0  0  0  0  0  0  0
   58.5516   32.2801   53.3805 H   0  0  0  0  0  0  0  0  0  0  0  0
   58.9794   29.8567   53.2429 H   0  0  0  0  0  0  0  0  0  0  0  0
   57.4893   30.3067   52.3155 H   0  0  0  0  0  0  0  0  0  0  0  0
   60.2414   29.5571   51.2372 H   0  0  0  0  0  0  0  0  0  0  0  0
   58.6326   28.7748   50.9274 H   0  0  0  0  0  0  0  0  0  0  0  0
  1  2  1  0
  2  3  1  0
  3  4  1  0
  4  5  1  0
  3  6  1  0
  6  7  2  0
  6  8  1  0
  8  9  1  0
  9 10  1  0
 10 11  2  0
 10 12  1  0
 12 13  1  0
 13 14  1  0
 14 15  2  0
 15 16  1  0
 16 17  2  0
 17 18  1  0
 18 19  2  0
 12 20  1  0
 20 21  2  0
 20 22  1  0
 22 23  1  0
 23 24  2  0
 24 25  1  0
 25 26  1  0
 24 27  1  0
 27 28  1  0
 28 29  1  0
 29 30  1  0
 26  9  1  0
 19 14  1  0
 26 22  2  0
 30 23  1  0
  1 31  1  0
  1 32  1  0
  1 33  1  0
  2 34  1  0
  2 35  1  0
  3 36  1  0
  4 37  1  0
  4 38  1  0
  5 39  1  0
  5 40  1  0
  5 41  1  0
  8 42  1  0
  8 43  1  0
 13 44  1  0
 13 45  1  0
 15 46  1  0
 16 47  1  0
 17 48  1  0
 18 49  1  0
 19 50  1  0
 27 51  1  0
 27 52  1  0
 28 53  1  0
 28 54  1  0
 29 55  1  0
 29 56  1  0
 30 57  1  0
 30 58  1  0
M  CHG  1   3   1
M  END
>  <UniqueID>  (12) 
12

>  <SMILES>  (12) 
CC[NH+](CC)C(=O)Cn1c(=O)n(Cc2ccccc2)c(=O)c2c3c(sc21)CCCC3

>  <Energy>  (12) 
104.92746151413408

>  <Genealogy>  (12) 
CC[NH+](CC)C(=O)Cn1c(=O)n(Cc2ccccc2)c(=O)c2c3c(sc21)CCCC3 (protonated)
CC[NH+](CC)C(=O)Cn1c(=O)n(Cc2ccccc2)c(=O)c2c3c(sc21)CCCC3 (3D coordinates assigned)
CC[NH+](CC)C(=O)Cn1c(=O)n(Cc2ccccc2)c(=O)c2c3c(sc21)CCCC3 (nonaromatic ring conformer: 104.92746151413408 kcal/mol)

>  <smiles>  (12) 
CCN(CC)C(=O)Cn1c(=O)n(Cc2ccccc2)c(=O)c2c3c(sc21)CCCC3

>  <score_type>  (12) 
oracle

>  <origin>  (12) 
adg

>  <m_score__min__energy>  (12) 
-6.75

>  <m_primary>  (12) 
energy

$$$$
12:0
     RDKit          3D

 54 56  0  0  0  0  0  0  0  0999 V2000
   57.6190   26.8720   46.5500 C   0  0  0  0  0  0  0  0  0  0  0  0
   58.7920   27.1580   47.4810 C   0  0  0  0  0  0  0  0  0  0  0  0
   59.7640   28.0360   46.8270 N   0  0  0  0  0  0  0  0  0  0  0  0
   60.2050   27.9080   45.5610 C   0  0  0  0  0  0  0  0  0  0  0  0
   60.9840   29.0030   45.2570 C   0  0  0  0  0  0  0  0  0  0  0  0
   61.0200   29.8160   46.3280 N   0  0  0  0  0  0  0  0  0  0  0  0
   60.2850   29.2030   47.2780 C   0  0  0  0  0  0  0  0  0  0  0  0
   59.9620   29.8290   48.6120 C   0  0  0  0  0  0  0  0  0  0  0  0
   60.1890   31.2870   48.6040 N   0  0  0  0  0  0  0  0  0  0  0  0
   61.1810   31.8190   49.5750 C   0  0  0  0  0  0  0  0  0  0  0  0
   62.3900   32.5600   48.9510 C   0  0  0  0  0  0  0  0  0  0  0  0
   62.4700   32.3690   47.4860 N   0  0  0  0  0  0  0  0  0  0  0  0
   62.4960   33.6590   46.7730 C   0  0  0  0  0  0  0  0  0  0  0  0
   63.6800   31.6050   47.1410 C   0  0  0  0  0  0  0  0  0  0  0  0
   58.9620   32.1030   48.4270 C   0  0  0  0  0  0  0  0  0  0  0  0
   58.9130   32.8750   47.1150 C   0  0  0  0  0  0  0  0  0  0  0  0
   59.3440   34.2150   47.1340 C   0  0  0  0  0  0  0  0  0  0  0  0
   59.2330   35.0240   46.0060 C   0  0  0  0  0  0  0  0  0  0  0  0
   58.6960   34.5160   44.8280 C   0  0  0  0  0  0  0  0  0  0  0  0
   58.2930   33.1770   44.7570 C   0  0  0  0  0  0  0  0  0  0  0  0
   57.7730   32.6720   43.5540 C   0  0  0  0  0  0  0  0  0  0  0  0
   57.3950   31.3350   43.4560 C   0  0  0  0  0  0  0  0  0  0  0  0
   57.5470   30.4850   44.5500 C   0  0  0  0  0  0  0  0  0  0  0  0
   58.0620   30.9690   45.7540 C   0  0  0  0  0  0  0  0  0  0  0  0
   58.4190   32.3290   45.8940 C   0  0  0  0  0  0  0  0  0  0  0  0
   56.7216   26.6532   47.1474 H   0  0  0  0  0  0  0  0  0  0  0  0
   57.4318   27.7508   45.9155 H   0  0  0  0  0  0  0  0  0  0  0  0
   57.8573   26.0056   45.9155 H   0  0  0  0  0  0  0  0  0  0  0  0
   58.4192   27.6467   48.3932 H   0  0  0  0  0  0  0  0  0  0  0  0
   59.2850   26.2078   47.7340 H   0  0  0  0  0  0  0  0  0  0  0  0
   59.9811   27.0705   44.8839 H   0  0  0  0  0  0  0  0  0  0  0  0
   61.4920   29.1825   44.2980 H   0  0  0  0  0  0  0  0  0  0  0  0
   61.4930   30.7460   46.3890 H   0  0  0  0  0  0  0  0  0  0  0  0
   58.9057   29.6347   48.8498 H   0  0  0  0  0  0  0  0  0  0  0  0
   60.6264   29.3843   49.3675 H   0  0  0  0  0  0  0  0  0  0  0  0
   60.6599   32.5214   50.2421 H   0  0  0  0  0  0  0  0  0  0  0  0
   61.5973   30.9429   50.0938 H   0  0  0  0  0  0  0  0  0  0  0  0
   62.2938   33.6351   49.1629 H   0  0  0  0  0  0  0  0  0  0  0  0
   63.3060   32.1435   49.3953 H   0  0  0  0  0  0  0  0  0  0  0  0
   62.5126   34.4814   47.5034 H   0  0  0  0  0  0  0  0  0  0  0  0
   63.3954   33.7110   46.1418 H   0  0  0  0  0  0  0  0  0  0  0  0
   61.5994   33.7472   46.1418 H   0  0  0  0  0  0  0  0  0  0  0  0
   64.1869   31.2849   48.0633 H   0  0  0  0  0  0  0  0  0  0  0  0
   63.3991   30.7201   46.5510 H   0  0  0  0  0  0  0  0  0  0  0  0
   64.3581   32.2390   46.5510 H   0  0  0  0  0  0  0  0  0  0  0  0
   58.0918   31.4312   48.4653 H   0  0  0  0  0  0  0  0  0  0  0  0
   58.9581   32.8496   49.2349 H   0  0  0  0  0  0  0  0  0  0  0  0
   59.7762   34.6304   48.0563 H   0  0  0  0  0  0  0  0  0  0  0  0
   59.5717   36.0698   46.0469 H   0  0  0  0  0  0  0  0  0  0  0  0
   58.5875   35.1684   43.9490 H   0  0  0  0  0  0  0  0  0  0  0  0
   57.6636   33.3363   42.6841 H   0  0  0  0  0  0  0  0  0  0  0  0
   56.9763   30.9498   42.5146 H   0  0  0  0  0  0  0  0  0  0  0  0
   57.2595   29.4267   44.4643 H   0  0  0  0  0  0  0  0  0  0  0  0
   58.1915   30.2831   46.6042 H   0  0  0  0  0  0  0  0  0  0  0  0
  1  2  1  0
  2  3  1  0
  3  4  1  0
  4  5  2  0
  5  6  1  0
  6  7  2  0
  7  8  1  0
  8  9  1  0
  9 10  1  0
 10 11  1  0
 11 12  1  0
 12 13  1  0
 12 14  1  0
  9 15  1  0
 15 16  1  0
 16 17  2  0
 17 18  1  0
 18 19  2  0
 19 20  1  0
 20 21  2  0
 21 22  1  0
 22 23  2  0
 23 24  1  0
 24 25  2  0
  7  3  1  0
 25 16  1  0
 25 20  1  0
  1 26  1  0
  1 27  1  0
  1 28  1  0
  2 29  1  0
  2 30  1  0
  4 31  1  0
  5 32  1  0
  6 33  1  0
  8 34  1  0
  8 35  1  0
 10 36  1  0
 10 37  1  0
 11 38  1  0
 11 39  1  0
 13 40  1  0
 13 41  1  0
 13 42  1  0
 14 43  1  0
 14 44  1  0
 14 45  1  0
 15 46  1  0
 15 47  1  0
 17 48  1  0
 18 49  1  0
 19 50  1  0
 21 51  1  0
 22 52  1  0
 23 53  1  0
 24 54  1  0
M  CHG  1   6   1
M  END
>  <UniqueID>  (13) 
13

>  <SMILES>  (13) 
CCn1cc[nH+]c1CN(CCN(C)C)Cc1cccc2ccccc12

>  <Energy>  (13) 
96.24512362086128

>  <Genealogy>  (13) 
CCn1cc[nH+]c1CN(CCN(C)C)Cc1cccc2ccccc12 (protonated)
CCn1cc[nH+]c1CN(CCN(C)C)Cc1cccc2ccccc12 (3D coordinates assigned)
CCn1cc[nH+]c1CN(CCN(C)C)Cc1cccc2ccccc12 (optimized conformer: 96.24512362086128 kcal/mol)

>  <smiles>  (13) 
CCn1ccnc1CN(CCN(C)C)Cc1cccc2ccccc12

>  <score_type>  (13) 
oracle

>  <origin>  (13) 
adg

>  <m_score__min__energy>  (13) 
-5.4800000000000004

>  <m_primary>  (13) 
energy

$$$$
13:0
     RDKit          3D

 70 72  0  0  0  0  0  0  0  0999 V2000
   54.4760   30.6510   51.9900 C   0  0  0  0  0  0  0  0  0  0  0  0
   55.8050   30.0790   52.4850 C   0  0  0  0  0  0  0  0  0  0  0  0
   56.9150   30.4680   51.5900 N   0  0  0  0  0  0  0  0  0  0  0  0
   57.1170   31.9250   51.6450 C   0  0  0  0  0  0  0  0  0  0  0  0
   58.1730   29.7460   51.9070 C   0  0  0  0  0  0  0  0  0  0  0  0
   59.2650   30.1330   50.9060 C   0  0  0  0  0  0  0  0  0  0  0  0
   58.8750   29.7820   49.4600 C   0  0  0  0  0  0  0  0  0  0  0  0
   59.5020   30.6570   48.4630 N   0  0  0  0  0  0  0  0  0  0  0  0
   59.0640   30.7570   47.0980 C   0  0  0  0  0  0  0  0  0  0  0  0
   58.9840   29.5930   46.3170 C   0  0  0  0  0  0  0  0  0  0  0  0
   59.4610   28.3600   46.8120 C   0  0  0  0  0  0  0  0  0  0  0  0
   59.4190   27.2140   46.0210 C   0  0  0  0  0  0  0  0  0  0  0  0
   58.9150   27.2790   44.7280 C   0  0  0  0  0  0  0  0  0  0  0  0
   58.4240   28.4850   44.2260 C   0  0  0  0  0  0  0  0  0  0  0  0
   58.4180   29.6580   45.0210 C   0  0  0  0  0  0  0  0  0  0  0  0
   57.8840   30.8430   44.5610 N   0  0  0  0  0  0  0  0  0  0  0  0
   57.0070   30.8430   43.3690 C   0  0  0  0  0  0  0  0  0  0  0  0
   58.1480   32.0250   45.2270 C   0  0  0  0  0  0  0  0  0  0  0  0
   57.8750   33.2790   44.6280 C   0  0  0  0  0  0  0  0  0  0  0  0
   58.0920   34.4670   45.3150 C   0  0  0  0  0  0  0  0  0  0  0  0
   58.6120   34.4440   46.6010 C   0  0  0  0  0  0  0  0  0  0  0  0
   58.9540   33.2340   47.2120 C   0  0  0  0  0  0  0  0  0  0  0  0
   59.5120   33.2520   48.4960 O   0  0  0  0  0  0  0  0  0  0  0  0
   60.2700   34.3410   49.0230 C   0  0  0  0  0  0  0  0  0  0  0  0
   61.7650   34.0380   48.9430 C   0  0  0  0  0  0  0  0  0  0  0  0
   61.9810   32.6120   48.5820 N   0  0  0  0  0  0  0  0  0  0  0  0
   63.0010   31.9670   49.4450 C   0  0  0  0  0  0  0  0  0  0  0  0
   62.4150   30.8060   50.2500 C   0  0  0  0  0  0  0  0  0  0  0  0
   62.3610   32.4620   47.1580 C   0  0  0  0  0  0  0  0  0  0  0  0
   63.3500   33.5480   46.7420 C   0  0  0  0  0  0  0  0  0  0  0  0
   58.7200   32.0050   46.5330 C   0  0  0  0  0  0  0  0  0  0  0  0
   53.8490   30.9209   52.8526 H   0  0  0  0  0  0  0  0  0  0  0  0
   54.6666   31.5468   51.3807 H   0  0  0  0  0  0  0  0  0  0  0  0
   53.9564   29.8968   51.3807 H   0  0  0  0  0  0  0  0  0  0  0  0
   56.0071   30.4619   53.4962 H   0  0  0  0  0  0  0  0  0  0  0  0
   55.7318   28.9815   52.4961 H   0  0  0  0  0  0  0  0  0  0  0  0
   57.1620   32.2496   52.6951 H   0  0  0  0  0  0  0  0  0  0  0  0
   58.0596   32.1838   51.1405 H   0  0  0  0  0  0  0  0  0  0  0  0
   56.2803   32.4305   51.1405 H   0  0  0  0  0  0  0  0  0  0  0  0
   58.4995   30.0119   52.9232 H   0  0  0  0  0  0  0  0  0  0  0  0
   57.9932   28.6626   51.8445 H   0  0  0  0  0  0  0  0  0  0  0  0
   59.4397   31.2170   50.9731 H   0  0  0  0  0  0  0  0  0  0  0  0
   60.1730   29.5660   51.1591 H   0  0  0  0  0  0  0  0  0  0  0  0
   59.1815   28.7452   49.2572 H   0  0  0  0  0  0  0  0  0  0  0  0
   57.7866   29.9158   49.3736 H   0  0  0  0  0  0  0  0  0  0  0  0
   60.3020   31.2560   48.7670 H   0  0  0  0  0  0  0  0  0  0  0  0
   59.8696   28.3036   47.8317 H   0  0  0  0  0  0  0  0  0  0  0  0
   59.7852   26.2568   46.4206 H   0  0  0  0  0  0  0  0  0  0  0  0
   58.9029   26.3773   44.0981 H   0  0  0  0  0  0  0  0  0  0  0  0
   58.0358   28.5257   43.1976 H   0  0  0  0  0  0  0  0  0  0  0  0
   56.7897   29.8059   43.0737 H   0  0  0  0  0  0  0  0  0  0  0  0
   56.0663   31.3615   43.6059 H   0  0  0  0  0  0  0  0  0  0  0  0
   57.5131   31.3615   42.5414 H   0  0  0  0  0  0  0  0  0  0  0  0
   57.4841   33.3130   43.6004 H   0  0  0  0  0  0  0  0  0  0  0  0
   57.8508   35.4284   44.8380 H   0  0  0  0  0  0  0  0  0  0  0  0
   58.7568   35.3885   47.1460 H   0  0  0  0  0  0  0  0  0  0  0  0
   60.0527   35.2489   48.4412 H   0  0  0  0  0  0  0  0  0  0  0  0
   59.9926   34.4916   50.0767 H   0  0  0  0  0  0  0  0  0  0  0  0
   62.2255   34.6803   48.1779 H   0  0  0  0  0  0  0  0  0  0  0  0
   62.2240   34.2337   49.9233 H   0  0  0  0  0  0  0  0  0  0  0  0
   63.8140   31.5850   48.8101 H   0  0  0  0  0  0  0  0  0  0  0  0
   63.3730   32.7206   50.1547 H   0  0  0  0  0  0  0  0  0  0  0  0
   62.5205   31.0150   51.3248 H   0  0  0  0  0  0  0  0  0  0  0  0
   61.3497   30.6887   50.0021 H   0  0  0  0  0  0  0  0  0  0  0  0
   62.9533   29.8793   50.0021 H   0  0  0  0  0  0  0  0  0  0  0  0
   62.8257   31.4759   47.0110 H   0  0  0  0  0  0  0  0  0  0  0  0
   61.4555   32.5553   46.5404 H   0  0  0  0  0  0  0  0  0  0  0  0
   63.7778   34.0178   47.6399 H   0  0  0  0  0  0  0  0  0  0  0  0
   64.1564   33.0996   46.1432 H   0  0  0  0  0  0  0  0  0  0  0  0
   62.8284   34.3091   46.1432 H   0  0  0  0  0  0  0  0  0  0  0  0
  1  2  1  0
  2  3  1  0
  3  4  1  0
  3  5  1  0
  5  6  1  0
  6  7  1  0
  7  8  1  0
  8  9  1  0
  9 10  2  0
 10 11  1  0
 11 12  2  0
 12 13  1  0
 13 14  2  0
 14 15  1  0
 15 16  2  0
 16 17  1  0
 16 18  1  0
 18 19  2  0
 19 20  1  0
 20 21  2  0
 21 22  1  0
 22 23  1  0
 23 24  1  0
 24 25  1  0
 25 26  1  0
 26 27  1  0
 27 28  1  0
 26 29  1  0
 29 30  1  0
 22 31  2  0
 31  9  1  0
 15 10  1  0
 31 18  1  0
  1 32  1  0
  1 33  1  0
  1 34  1  0
  2 35  1  0
  2 36  1  0
  4 37  1  0
  4 38  1  0
  4 39  1  0
  5 40  1  0
  5 41  1  0
  6 42  1  0
  6 43  1  0
  7 44  1  0
  7 45  1  0
  8 46  1  0
 11 47  1  0
 12 48  1  0
 13 49  1  0
 14 50  1  0
 17 51  1  0
 17 52  1  0
 17 53  1  0
 19 54  1  0
 20 55  1  0
 21 56  1  0
 24 57  1  0
 24 58  1  0
 25 59  1  0
 25 60  1  0
 27 61  1  0
 27 62  1  0
 28 63  1  0
 28 64  1  0
 28 65  1  0
 29 66  1  0
 29 67  1  0
 30 68  1  0
 30 69  1  0
 30 70  1  0
M  CHG  1  16   1
M  END
>  <UniqueID>  (14) 
14

>  <SMILES>  (14) 
CCN(C)CCCNc1c2ccccc2[n+](C)c2cccc(OCCN(CC)CC)c12

>  <Energy>  (14) 
98.25637161376191

>  <Genealogy>  (14) 
CCN(C)CCCNc1c2ccccc2[n+](C)c2cccc(OCCN(CC)CC)c12 (3D coordinates assigned)
CCN(C)CCCNc1c2ccccc2[n+](C)c2cccc(OCCN(CC)CC)c12 (optimized conformer: 98.25637161376191 kcal/mol)

>  <smiles>  (14) 
CCN(C)CCCNc1c2ccccc2[n+](C)c2cccc(OCCN(CC)CC)c12

>  <score_type>  (14) 
oracle

>  <origin>  (14) 
adg

>  <m_score__min__energy>  (14) 
-5.7199999999999998

>  <m_primary>  (14) 
energy

$$$$
14:0
     RDKit          3D

 70 72  0  0  0  0  0  0  0  0999 V2000
   59.3690   33.5600   48.7280 C   0  0  0  0  0  0  0  0  0  0  0  0
   59.1010   32.9660   47.3430 C   0  0  0  0  0  0  0  0  0  0  0  0
   60.1000   33.4330   46.3530 N   0  0  0  0  0  0  0  0  0  0  0  0
   59.5110   34.1560   45.1990 C   0  0  0  0  0  0  0  0  0  0  0  0
   57.9890   34.0020   45.0590 C   0  0  0  0  0  0  0  0  0  0  0  0
   61.2090   34.1860   46.9800 C   0  0  0  0  0  0  0  0  0  0  0  0
   62.5710   33.7770   46.3980 C   0  0  0  0  0  0  0  0  0  0  0  0
   63.1650   32.6630   47.1430 N   0  0  0  0  0  0  0  0  0  0  0  0
   62.4720   32.0410   48.2360 C   0  0  0  0  0  0  0  0  0  0  0  0
   62.5360   32.5310   49.5650 C   0  0  0  0  0  0  0  0  0  0  0  0
   63.1560   33.7610   49.8570 C   0  0  0  0  0  0  0  0  0  0  0  0
   63.2320   34.2260   51.1690 C   0  0  0  0  0  0  0  0  0  0  0  0
   62.6740   33.4860   52.2080 C   0  0  0  0  0  0  0  0  0  0  0  0
   62.0180   32.2830   51.9450 C   0  0  0  0  0  0  0  0  0  0  0  0
   61.9230   31.7800   50.6260 C   0  0  0  0  0  0  0  0  0  0  0  0
   61.2520   30.5970   50.3490 N   0  0  0  0  0  0  0  0  0  0  0  0
   60.6220   29.7930   51.4080 C   0  0  0  0  0  0  0  0  0  0  0  0
   61.1620   30.1930   49.0490 C   0  0  0  0  0  0  0  0  0  0  0  0
   60.5660   29.1110   48.6010 O   0  0  0  0  0  0  0  0  0  0  0  0
   60.7310   29.0760   47.2920 C   0  0  0  0  0  0  0  0  0  0  0  0
   60.2560   27.9960   46.4050 C   0  0  0  0  0  0  0  0  0  0  0  0
   60.7720   26.8530   46.5360 O   0  0  0  0  0  0  0  0  0  0  0  0
   59.2330   28.2030   45.3980 N   0  0  0  0  0  0  0  0  0  0  0  0
   58.9650   29.5830   44.9460 C   0  0  0  0  0  0  0  0  0  0  0  0
   57.7460   30.2280   45.6500 C   0  0  0  0  0  0  0  0  0  0  0  0
   56.4500   29.6510   45.2460 N   0  0  0  0  0  0  0  0  0  0  0  0
   55.9190   30.2790   44.0330 C   0  0  0  0  0  0  0  0  0  0  0  0
   58.4340   27.0980   44.8080 C   0  0  0  0  0  0  0  0  0  0  0  0
   57.1850   26.7420   45.6310 C   0  0  0  0  0  0  0  0  0  0  0  0
   58.0980   27.3720   43.3360 C   0  0  0  0  0  0  0  0  0  0  0  0
   61.4430   30.1940   46.8660 C   0  0  0  0  0  0  0  0  0  0  0  0
   61.7240   30.8890   48.0200 C   0  0  0  0  0  0  0  0  0  0  0  0
   59.0473   32.8469   49.5013 H   0  0  0  0  0  0  0  0  0  0  0  0
   60.4448   33.7606   48.8390 H   0  0  0  0  0  0  0  0  0  0  0  0
   58.8075   34.4993   48.8390 H   0  0  0  0  0  0  0  0  0  0  0  0
   59.1477   31.8690   47.4087 H   0  0  0  0  0  0  0  0  0  0  0  0
   58.1049   33.2946   47.0117 H   0  0  0  0  0  0  0  0  0  0  0  0
   59.7389   35.2262   45.3117 H   0  0  0  0  0  0  0  0  0  0  0  0
   59.9542   33.7142   44.2944 H   0  0  0  0  0  0  0  0  0  0  0  0
   57.5317   33.9557   46.0584 H   0  0  0  0  0  0  0  0  0  0  0  0
   57.5823   34.8636   44.5092 H   0  0  0  0  0  0  0  0  0  0  0  0
   57.7631   33.0764   44.5092 H   0  0  0  0  0  0  0  0  0  0  0  0
   61.0544   35.2609   46.8050 H   0  0  0  0  0  0  0  0  0  0  0  0
   61.2130   33.9596   48.0565 H   0  0  0  0  0  0  0  0  0  0  0  0
   62.4341   33.4725   45.3499 H   0  0  0  0  0  0  0  0  0  0  0  0
   63.2492   34.6399   46.4717 H   0  0  0  0  0  0  0  0  0  0  0  0
   64.2070   32.5830   47.1210 H   0  0  0  0  0  0  0  0  0  0  0  0
   63.5849   34.3614   49.0412 H   0  0  0  0  0  0  0  0  0  0  0  0
   63.7344   35.1806   51.3841 H   0  0  0  0  0  0  0  0  0  0  0  0
   62.7508   33.8520   53.2425 H   0  0  0  0  0  0  0  0  0  0  0  0
   61.5684   31.7178   52.7747 H   0  0  0  0  0  0  0  0  0  0  0  0
   60.9254   30.1802   52.3919 H   0  0  0  0  0  0  0  0  0  0  0  0
   59.5278   29.8528   51.3119 H   0  0  0  0  0  0  0  0  0  0  0  0
   60.9418   28.7449   51.3119 H   0  0  0  0  0  0  0  0  0  0  0  0
   59.8537   30.1975   45.1523 H   0  0  0  0  0  0  0  0  0  0  0  0
   58.7359   29.5369   43.8711 H   0  0  0  0  0  0  0  0  0  0  0  0
   57.8618   30.0940   46.7356 H   0  0  0  0  0  0  0  0  0  0  0  0
   57.7302   31.2877   45.3554 H   0  0  0  0  0  0  0  0  0  0  0  0
   55.7510   29.7240   46.0220 H   0  0  0  0  0  0  0  0  0  0  0  0
   55.2319   31.0916   44.3115 H   0  0  0  0  0  0  0  0  0  0  0  0
   56.7491   30.6883   43.4385 H   0  0  0  0  0  0  0  0  0  0  0  0
   55.3774   29.5285   43.4385 H   0  0  0  0  0  0  0  0  0  0  0  0
   59.0732   26.2034   44.8428 H   0  0  0  0  0  0  0  0  0  0  0  0
   57.4210   26.8093   46.7033 H   0  0  0  0  0  0  0  0  0  0  0  0
   56.3740   27.4448   45.3893 H   0  0  0  0  0  0  0  0  0  0  0  0
   56.8664   25.7173   45.3893 H   0  0  0  0  0  0  0  0  0  0  0  0
   57.2467   28.0662   43.2773 H   0  0  0  0  0  0  0  0  0  0  0  0
   58.9708   27.8192   42.8378 H   0  0  0  0  0  0  0  0  0  0  0  0
   57.8356   26.4271   42.8378 H   0  0  0  0  0  0  0  0  0  0  0  0
   61.7195   30.4622   45.8357 H   0  0  0  0  0  0  0  0  0  0  0  0
  1  2  1  0
  2  3  1  0
  3  4  1  0
  4  5  1  0
  3  6  1  0
  6  7  1  0
  7  8  1  0
  8  9  1  0
  9 10  2  0
 10 11  1  0
 11 12  2  0
 12 13  1  0
 13 14  2  0
 14 15  1  0
 15 16  2  0
 16 17  1  0
 16 18  1  0
 18 19  1  0
 19 20  1  0
 20 21  1  0
 21 22  2  0
 21 23  1  0
 23 24  1  0
 24 25  1  0
 25 26  1  0
 26 27  1  0
 23 28  1  0
 28 29  1  0
 28 30  1  0
 20 31  2  0
 31 32  1  0
 32  9  1  0
 15 10  1  0
 32 18  2  0
  1 33  1  0
  1 34  1  0
  1 35  1  0
  2 36  1  0
  2 37  1  0
  4 38  1  0
  4 39  1  0
  5 40  1  0
  5 41  1  0
  5 42  1  0
  6 43  1  0
  6 44  1  0
  7 45  1  0
  7 46  1  0
  8 47  1  0
 11 48  1  0
 12 49  1  0
 13 50  1  0
 14 51  1  0
 17 52  1  0
 17 53  1  0
 17 54  1  0
 24 55  1  0
 24 56  1  0
 25 57  1  0
 25 58  1  0
 26 59  1  0
 27 60  1  0
 27 61  1  0
 27 62  1  0
 28 63  1  0
 29 64  1  0
 29 65  1  0
 29 66  1  0
 30 67  1  0
 30 68  1  0
 30 69  1  0
 31 70  1  0
M  CHG  1  16   1
M  END
>  <UniqueID>  (15) 
15

>  <SMILES>  (15) 
CCN(CC)CCNc1c2ccccc2[n+](C)c2oc(C(=O)N(CCNC)C(C)C)cc12

>  <Energy>  (15) 
116.7469352130994

>  <Genealogy>  (15) 
CCN(CC)CCNc1c2ccccc2[n+](C)c2oc(C(=O)N(CCNC)C(C)C)cc12 (3D coordinates assigned)
CCN(CC)CCNc1c2ccccc2[n+](C)c2oc(C(=O)N(CCNC)C(C)C)cc12 (optimized conformer: 116.7469352130994 kcal/mol)

>  <smiles>  (15) 
CCN(CC)CCNc1c2ccccc2[n+](C)c2oc(C(=O)N(CCNC)C(C)C)cc12

>  <score_type>  (15) 
oracle

>  <origin>  (15) 
adg

>  <m_score__min__energy>  (15) 
-7.2400000000000002

>  <m_primary>  (15) 
energy

$$$$
15:0
     RDKit          3D

 59 61  0  0  0  0  0  0  0  0999 V2000
   60.9720   34.0010   49.7650 C   0  0  0  0  0  0  0  0  0  0  0  0
   62.2920   33.8550   49.0040 C   0  0  0  0  0  0  0  0  0  0  0  0
   62.6650   32.4350   48.8190 N   0  0  0  0  0  0  0  0  0  0  0  0
   63.3470   32.2580   47.5150 C   0  0  0  0  0  0  0  0  0  0  0  0
   63.3980   33.5680   46.7240 C   0  0  0  0  0  0  0  0  0  0  0  0
   63.4950   31.9270   49.9450 C   0  0  0  0  0  0  0  0  0  0  0  0
   62.7050   30.9050   50.7610 C   0  0  0  0  0  0  0  0  0  0  0  0
   62.0090   30.0410   49.8840 O   0  0  0  0  0  0  0  0  0  0  0  0
   60.6420   29.9480   50.2360 C   0  0  0  0  0  0  0  0  0  0  0  0
   59.7080   30.5580   49.1700 C   0  0  0  0  0  0  0  0  0  0  0  0
   60.4230   31.2620   48.0830 N   0  0  0  0  0  0  0  0  0  0  0  0
   59.7400   31.1690   46.7940 C   0  0  0  0  0  0  0  0  0  0  0  0
   59.5150   29.9170   46.1610 C   0  0  0  0  0  0  0  0  0  0  0  0
   60.2860   28.7680   46.4640 C   0  0  0  0  0  0  0  0  0  0  0  0
   60.0430   27.5510   45.8320 C   0  0  0  0  0  0  0  0  0  0  0  0
   59.0500   27.4520   44.8700 C   0  0  0  0  0  0  0  0  0  0  0  0
   58.3000   28.5720   44.5210 C   0  0  0  0  0  0  0  0  0  0  0  0
   58.5120   29.8230   45.1550 C   0  0  0  0  0  0  0  0  0  0  0  0
   57.7910   30.9410   44.7930 N   0  0  0  0  0  0  0  0  0  0  0  0
   56.5440   30.8000   44.0100 C   0  0  0  0  0  0  0  0  0  0  0  0
   58.2500   32.1930   45.1430 C   0  0  0  0  0  0  0  0  0  0  0  0
   57.7710   33.3630   44.5030 C   0  0  0  0  0  0  0  0  0  0  0  0
   58.2310   34.6250   44.8690 C   0  0  0  0  0  0  0  0  0  0  0  0
   59.1950   34.7610   45.8640 C   0  0  0  0  0  0  0  0  0  0  0  0
   59.6790   36.0580   46.2230 N   0  0  0  0  0  0  0  0  0  0  0  0
   59.7020   33.6210   46.4950 C   0  0  0  0  0  0  0  0  0  0  0  0
   59.2360   32.3300   46.1570 C   0  0  0  0  0  0  0  0  0  0  0  0
   61.1683   33.9793   50.8471 H   0  0  0  0  0  0  0  0  0  0  0  0
   60.4983   34.9570   49.4974 H   0  0  0  0  0  0  0  0  0  0  0  0
   60.3008   33.1716   49.4974 H   0  0  0  0  0  0  0  0  0  0  0  0
   62.1877   34.3274   48.0161 H   0  0  0  0  0  0  0  0  0  0  0  0
   63.0825   34.3423   49.5936 H   0  0  0  0  0  0  0  0  0  0  0  0
   64.3746   31.9087   47.6940 H   0  0  0  0  0  0  0  0  0  0  0  0
   62.7792   31.5223   46.9265 H   0  0  0  0  0  0  0  0  0  0  0  0
   63.4311   34.4171   47.4226 H   0  0  0  0  0  0  0  0  0  0  0  0
   64.2973   33.5791   46.0906 H   0  0  0  0  0  0  0  0  0  0  0  0
   62.5023   33.6490   46.0906 H   0  0  0  0  0  0  0  0  0  0  0  0
   64.4006   31.4495   49.5427 H   0  0  0  0  0  0  0  0  0  0  0  0
   63.7731   32.7693   50.5955 H   0  0  0  0  0  0  0  0  0  0  0  0
   63.3969   30.3176   51.3825 H   0  0  0  0  0  0  0  0  0  0  0  0
   61.9862   31.4283   51.4087 H   0  0  0  0  0  0  0  0  0  0  0  0
   60.3834   28.8865   50.3641 H   0  0  0  0  0  0  0  0  0  0  0  0
   60.4998   30.5174   51.1663 H   0  0  0  0  0  0  0  0  0  0  0  0
   59.1127   29.7469   48.7253 H   0  0  0  0  0  0  0  0  0  0  0  0
   59.0842   31.3064   49.6807 H   0  0  0  0  0  0  0  0  0  0  0  0
   60.5520   32.2660   48.3390 H   0  0  0  0  0  0  0  0  0  0  0  0
   61.3780   30.8540   48.0660 H   0  0  0  0  0  0  0  0  0  0  0  0
   61.0903   28.8382   47.2111 H   0  0  0  0  0  0  0  0  0  0  0  0
   60.6405   26.6662   46.0969 H   0  0  0  0  0  0  0  0  0  0  0  0
   58.8540   26.4863   44.3811 H   0  0  0  0  0  0  0  0  0  0  0  0
   57.5300   28.4852   43.7403 H   0  0  0  0  0  0  0  0  0  0  0  0
   55.6894   30.7034   44.6958 H   0  0  0  0  0  0  0  0  0  0  0  0
   56.4067   31.6883   43.3760 H   0  0  0  0  0  0  0  0  0  0  0  0
   56.6085   29.9034   43.3760 H   0  0  0  0  0  0  0  0  0  0  0  0
   57.0221   33.2725   43.7024 H   0  0  0  0  0  0  0  0  0  0  0  0
   57.8306   35.5194   44.3693 H   0  0  0  0  0  0  0  0  0  0  0  0
   59.6130   36.4020   47.2070 H   0  0  0  0  0  0  0  0  0  0  0  0
   60.1070   36.6870   45.5060 H   0  0  0  0  0  0  0  0  0  0  0  0
   60.4770   33.7306   47.2679 H   0  0  0  0  0  0  0  0  0  0  0  0
  1  2  1  0
  2  3  1  0
  3  4  1  0
  4  5  1  0
  3  6  1  0
  6  7  1  0
  7  8  1  0
  8  9  1  0
  9 10  1  0
 10 11  1  0
 11 12  1  0
 12 13  2  0
 13 14  1  0
 14 15  2  0
 15 16  1  0
 16 17  2  0
 17 18  1  0
 18 19  2  0
 19 20  1  0
 19 21  1  0
 21 22  2  0
 22 23  1  0
 23 24  2  0
 24 25  1  0
 24 26  1  0
 26 27  2  0
 27 12  1  0
 18 13  1  0
 27 21  1  0
  1 28  1  0
  1 29  1  0
  1 30  1  0
  2 31  1  0
  2 32  1  0
  4 33  1  0
  4 34  1  0
  5 35  1  0
  5 36  1  0
  5 37  1  0
  6 38  1  0
  6 39  1  0
  7 40  1  0
  7 41  1  0
  9 42  1  0
  9 43  1  0
 10 44  1  0
 10 45  1  0
 11 46  1  0
 11 47  1  0
 14 48  1  0
 15 49  1  0
 16 50  1  0
 17 51  1  0
 20 52  1  0
 20 53  1  0
 20 54  1  0
 22 55  1  0
 23 56  1  0
 25 57  1  0
 25 58  1  0
 26 59  1  0
M  CHG  2  11   1  19   1
M  END
>  <UniqueID>  (16) 
16

>  <SMILES>  (16) 
CCN(CC)CCOCC[NH2+]c1c2ccccc2[n+](C)c2ccc(N)cc12

>  <Energy>  (16) 
87.85402536017402

>  <Genealogy>  (16) 
CCN(CC)CCOCC[NH2+]c1c2ccccc2[n+](C)c2ccc(N)cc12 (protonated)
CCN(CC)CCOCC[NH2+]c1c2ccccc2[n+](C)c2ccc(N)cc12 (3D coordinates assigned)
CCN(CC)CCOCC[NH2+]c1c2ccccc2[n+](C)c2ccc(N)cc12 (optimized conformer: 87.85402536017402 kcal/mol)

>  <smiles>  (16) 
CCN(CC)CCOCCNc1c2ccccc2[n+](C)c2ccc(N)cc12

>  <score_type>  (16) 
oracle

>  <origin>  (16) 
adg

>  <m_score__min__energy>  (16) 
-3.5800000000000001

>  <m_primary>  (16) 
energy

$$$$
16:0
     RDKit          3D

 59 61  0  0  0  0  0  0  0  0999 V2000
   63.7470   33.0110   47.0360 C   0  0  0  0  0  0  0  0  0  0  0  0
   63.4280   31.9770   48.1130 C   0  0  0  0  0  0  0  0  0  0  0  0
   62.3540   32.4660   49.0130 N   0  0  0  0  0  0  0  0  0  0  0  0
   62.2900   33.9480   48.9720 C   0  0  0  0  0  0  0  0  0  0  0  0
   63.0010   34.5900   50.1620 C   0  0  0  0  0  0  0  0  0  0  0  0
   62.5300   31.9580   50.4000 C   0  0  0  0  0  0  0  0  0  0  0  0
   62.6090   30.4210   50.4240 C   0  0  0  0  0  0  0  0  0  0  0  0
   61.5680   29.8050   49.6890 O   0  0  0  0  0  0  0  0  0  0  0  0
   60.3000   30.0460   50.2730 C   0  0  0  0  0  0  0  0  0  0  0  0
   59.4710   30.9320   49.3460 C   0  0  0  0  0  0  0  0  0  0  0  0
   60.1160   31.1040   48.0420 N   0  0  0  0  0  0  0  0  0  0  0  0
   59.3660   31.3620   46.8410 C   0  0  0  0  0  0  0  0  0  0  0  0
   59.2940   32.6660   46.3230 C   0  0  0  0  0  0  0  0  0  0  0  0
   59.8440   33.7630   47.0190 C   0  0  0  0  0  0  0  0  0  0  0  0
   59.7790   35.0490   46.4840 C   0  0  0  0  0  0  0  0  0  0  0  0
   59.1740   35.2620   45.2500 C   0  0  0  0  0  0  0  0  0  0  0  0
   58.6350   34.1890   44.5400 C   0  0  0  0  0  0  0  0  0  0  0  0
   58.6920   32.8730   45.0560 C   0  0  0  0  0  0  0  0  0  0  0  0
   58.2080   31.7990   44.3390 N   0  0  0  0  0  0  0  0  0  0  0  0
   58.1450   31.9010   42.8670 C   0  0  0  0  0  0  0  0  0  0  0  0
   57.9780   30.5940   44.9780 C   0  0  0  0  0  0  0  0  0  0  0  0
   57.0800   29.5990   44.4670 C   0  0  0  0  0  0  0  0  0  0  0  0
   56.0380   29.8800   43.4100 C   0  0  0  0  0  0  0  0  0  0  0  0
   57.0420   28.3290   45.0620 C   0  0  0  0  0  0  0  0  0  0  0  0
   57.7650   28.0630   46.2170 C   0  0  0  0  0  0  0  0  0  0  0  0
   58.5190   29.0650   46.8130 C   0  0  0  0  0  0  0  0  0  0  0  0
   58.6390   30.3320   46.2110 C   0  0  0  0  0  0  0  0  0  0  0  0
   64.0393   33.9584   47.5124 H   0  0  0  0  0  0  0  0  0  0  0  0
   64.5740   32.6450   46.4098 H   0  0  0  0  0  0  0  0  0  0  0  0
   62.8575   33.1746   46.4098 H   0  0  0  0  0  0  0  0  0  0  0  0
   63.0979   31.0448   47.6312 H   0  0  0  0  0  0  0  0  0  0  0  0
   64.3345   31.7997   48.7104 H   0  0  0  0  0  0  0  0  0  0  0  0
   62.7664   34.2975   48.0442 H   0  0  0  0  0  0  0  0  0  0  0  0
   61.2306   34.2413   49.0135 H   0  0  0  0  0  0  0  0  0  0  0  0
   62.5721   34.2027   51.0979 H   0  0  0  0  0  0  0  0  0  0  0  0
   64.0734   34.3482   50.1225 H   0  0  0  0  0  0  0  0  0  0  0  0
   62.8695   35.6814   50.1225 H   0  0  0  0  0  0  0  0  0  0  0  0
   63.4594   32.3716   50.8184 H   0  0  0  0  0  0  0  0  0  0  0  0
   61.6620   32.2716   50.9986 H   0  0  0  0  0  0  0  0  0  0  0  0
   63.5730   30.1122   49.9935 H   0  0  0  0  0  0  0  0  0  0  0  0
   62.5077   30.1013   51.4716 H   0  0  0  0  0  0  0  0  0  0  0  0
   59.7798   29.0891   50.4271 H   0  0  0  0  0  0  0  0  0  0  0  0
   60.4329   30.5520   51.2406 H   0  0  0  0  0  0  0  0  0  0  0  0
   58.4846   30.4683   49.1975 H   0  0  0  0  0  0  0  0  0  0  0  0
   59.3741   31.9226   49.8142 H   0  0  0  0  0  0  0  0  0  0  0  0
   61.1520   30.9880   47.9730 H   0  0  0  0  0  0  0  0  0  0  0  0
   60.3288   33.6023   47.9932 H   0  0  0  0  0  0  0  0  0  0  0  0
   60.2071   35.8967   47.0391 H   0  0  0  0  0  0  0  0  0  0  0  0
   59.1204   36.2785   44.8330 H   0  0  0  0  0  0  0  0  0  0  0  0
   58.1588   34.3687   43.5649 H   0  0  0  0  0  0  0  0  0  0  0  0
   57.5862   32.8058   42.5857 H   0  0  0  0  0  0  0  0  0  0  0  0
   59.1651   31.9586   42.4594 H   0  0  0  0  0  0  0  0  0  0  0  0
   57.6368   31.0146   42.4594 H   0  0  0  0  0  0  0  0  0  0  0  0
   55.0844   30.1371   43.8944 H   0  0  0  0  0  0  0  0  0  0  0  0
   56.3692   30.7209   42.7830 H   0  0  0  0  0  0  0  0  0  0  0  0
   55.9015   28.9866   42.7830 H   0  0  0  0  0  0  0  0  0  0  0  0
   56.4319   27.5343   44.6078 H   0  0  0  0  0  0  0  0  0  0  0  0
   57.7404   27.0567   46.6607 H   0  0  0  0  0  0  0  0  0  0  0  0
   59.0289   28.8665   47.7673 H   0  0  0  0  0  0  0  0  0  0  0  0
  1  2  1  0
  2  3  1  0
  3  4  1  0
  4  5  1  0
  3  6  1  0
  6  7  1  0
  7  8  1  0
  8  9  1  0
  9 10  1  0
 10 11  1  0
 11 12  1  0
 12 13  2  0
 13 14  1  0
 14 15  2  0
 15 16  1  0
 16 17  2  0
 17 18  1  0
 18 19  2  0
 19 20  1  0
 19 21  1  0
 21 22  2  0
 22 23  1  0
 22 24  1  0
 24 25  2  0
 25 26  1  0
 26 27  2  0
 27 12  1  0
 18 13  1  0
 27 21  1  0
  1 28  1  0
  1 29  1  0
  1 30  1  0
  2 31  1  0
  2 32  1  0
  4 33  1  0
  4 34  1  0
  5 35  1  0
  5 36  1  0
  5 37  1  0
  6 38  1  0
  6 39  1  0
  7 40  1  0
  7 41  1  0
  9 42  1  0
  9 43  1  0
 10 44  1  0
 10 45  1  0
 11 46  1  0
 14 47  1  0
 15 48  1  0
 16 49  1  0
 17 50  1  0
 20 51  1  0
 20 52  1  0
 20 53  1  0
 23 54  1  0
 23 55  1  0
 23 56  1  0
 24 57  1  0
 25 58  1  0
 26 59  1  0
M  CHG  1  19   1
M  END
>  <UniqueID>  (17) 
17

>  <SMILES>  (17) 
CCN(CC)CCOCCNc1c2ccccc2[n+](C)c2c(C)cccc12

>  <Energy>  (17) 
93.08338012255756

>  <Genealogy>  (17) 
CCN(CC)CCOCCNc1c2ccccc2[n+](C)c2c(C)cccc12 (3D coordinates assigned)
CCN(CC)CCOCCNc1c2ccccc2[n+](C)c2c(C)cccc12 (optimized conformer: 93.08338012255756 kcal/mol)

>  <smiles>  (17) 
CCN(CC)CCOCCNc1c2ccccc2[n+](C)c2c(C)cccc12

>  <score_type>  (17) 
oracle

>  <origin>  (17) 
adg

>  <m_score__min__energy>  (17) 
-5.5700000000000003

>  <m_primary>  (17) 
energy

$$$$
17:0
     RDKit          3D

 56 58  0  0  0  0  0  0  0  0999 V2000
   57.2462   30.0110   45.7016 H   0  0  0  0  0  0  0  0  0  0  0  0
   57.9040   30.1980   44.8400 C   0  0  0  0  0  0  0  0  0  0  0  0
   57.3760   30.8190   43.7680 C   0  0  0  0  0  0  0  0  0  0  0  0
   57.7950   32.1880   43.3780 C   0  0  0  0  0  0  0  0  0  0  0  0
   58.3345   32.3126   42.4275 H   0  0  0  0  0  0  0  0  0  0  0  0
   57.5550   33.2840   44.1160 C   0  0  0  0  0  0  0  0  0  0  0  0
   56.7827   33.9852   43.7668 H   0  0  0  0  0  0  0  0  0  0  0  0
   58.2680   33.6020   45.3690 C   0  0  0  0  0  0  0  0  0  0  0  0
   59.1960   34.6510   45.3910 C   0  0  0  0  0  0  0  0  0  0  0  0
   59.3988   35.2219   44.4728 H   0  0  0  0  0  0  0  0  0  0  0  0
   59.8660   34.9760   46.5750 C   0  0  0  0  0  0  0  0  0  0  0  0
   60.5755   35.8165   46.5892 H   0  0  0  0  0  0  0  0  0  0  0  0
   59.6380   34.2360   47.7440 C   0  0  0  0  0  0  0  0  0  0  0  0
   60.3040   34.5550   48.9390 C   0  0  0  0  0  0  0  0  0  0  0  0
   61.0081   35.3996   48.9676 H   0  0  0  0  0  0  0  0  0  0  0  0
   60.0720   33.7990   50.0920 C   0  0  0  0  0  0  0  0  0  0  0  0
   60.5876   34.0561   51.0290 H   0  0  0  0  0  0  0  0  0  0  0  0
   59.1850   32.7150   50.0580 C   0  0  0  0  0  0  0  0  0  0  0  0
   59.0157   32.1173   50.9658 H   0  0  0  0  0  0  0  0  0  0  0  0
   58.5150   32.3900   48.8770 C   0  0  0  0  0  0  0  0  0  0  0  0
   57.8200   31.5376   48.8564 H   0  0  0  0  0  0  0  0  0  0  0  0
   58.7270   33.1490   47.7170 C   0  0  0  0  0  0  0  0  0  0  0  0
   58.0490   32.8430   46.5290 C   0  0  0  0  0  0  0  0  0  0  0  0
   57.3403   32.0021   46.5057 H   0  0  0  0  0  0  0  0  0  0  0  0
   56.3810   30.0750   42.9180 C   0  0  0  0  0  0  0  0  0  0  0  0
   55.6697   29.5431   43.5669 H   0  0  0  0  0  0  0  0  0  0  0  0
   55.8353   30.7884   42.2830 H   0  0  0  0  0  0  0  0  0  0  0  0
   56.9110   29.3498   42.2830 H   0  0  0  0  0  0  0  0  0  0  0  0
   59.3360   29.7430   44.9360 C   0  0  0  0  0  0  0  0  0  0  0  0
   59.9964   30.6212   44.8849 H   0  0  0  0  0  0  0  0  0  0  0  0
   59.5416   29.0563   44.1017 H   0  0  0  0  0  0  0  0  0  0  0  0
   59.5890   29.0060   46.2430 C   0  0  0  0  0  0  0  0  0  0  0  0
   60.3350   29.6620   47.2540 C   0  0  0  0  0  0  0  0  0  0  0  0
   60.7160   31.0010   47.0550 O   0  0  0  0  0  0  0  0  0  0  0  0
   61.9620   31.5690   47.4530 C   0  0  0  0  0  0  0  0  0  0  0  0
   62.7767   30.8671   47.2216 H   0  0  0  0  0  0  0  0  0  0  0  0
   61.9486   31.7670   48.5349 H   0  0  0  0  0  0  0  0  0  0  0  0
   62.1670   32.7770   46.7530 O   0  0  0  0  0  0  0  0  0  0  0  0
   63.4050   33.3320   47.1310 C   0  0  0  0  0  0  0  0  0  0  0  0
   63.4733   33.3626   48.2285 H   0  0  0  0  0  0  0  0  0  0  0  0
   64.2217   32.7139   46.7299 H   0  0  0  0  0  0  0  0  0  0  0  0
   63.4869   34.3530   46.7299 H   0  0  0  0  0  0  0  0  0  0  0  0
   60.6900   28.9610   48.4220 C   0  0  0  0  0  0  0  0  0  0  0  0
   61.2627   29.4701   49.2112 H   0  0  0  0  0  0  0  0  0  0  0  0
   60.3220   27.6290   48.5860 C   0  0  0  0  0  0  0  0  0  0  0  0
   60.6270   27.0833   49.4911 H   0  0  0  0  0  0  0  0  0  0  0  0
   59.5690   26.9850   47.6080 C   0  0  0  0  0  0  0  0  0  0  0  0
   59.2847   25.9315   47.7472 H   0  0  0  0  0  0  0  0  0  0  0  0
   59.1690   27.6620   46.4490 C   0  0  0  0  0  0  0  0  0  0  0  0
   58.3320   26.9140   45.4900 C   0  0  0  0  0  0  0  0  0  0  0  0
   58.6529   26.8446   44.4402 H   0  0  0  0  0  0  0  0  0  0  0  0
   57.1950   26.3190   45.8630 C   0  0  0  0  0  0  0  0  0  0  0  0
   57.2384   25.3108   46.3009 H   0  0  0  0  0  0  0  0  0  0  0  0
   55.8880   26.9730   45.7050 C   0  0  0  0  0  0  0  0  0  0  0  0
   54.8370   26.3390   45.9920 O   0  0  0  0  0  0  0  0  0  0  0  0
   55.7920   28.2860   45.2580 O   0  0  0  0  0  0  0  0  0  0  0  0
  1  2  1  0
  2  3  2  0
  3  4  1  0
  4  5  1  0
  4  6  2  0
  6  7  1  0
  6  8  1  0
  8  9  2  0
  9 10  1  0
  9 11  1  0
 11 12  1  0
 11 13  2  0
 13 14  1  0
 14 15  1  0
 14 16  2  0
 16 17  1  0
 16 18  1  0
 18 19  1  0
 18 20  2  0
 20 21  1  0
 20 22  1  0
 22 23  2  0
 23 24  1  0
  3 25  1  0
 25 26  1  0
 25 27  1  0
 25 28  1  0
  2 29  1  0
 29 30  1  0
 29 31  1  0
 29 32  1  0
 32 33  2  0
 33 34  1  0
 34 35  1  0
 35 36  1  0
 35 37  1  0
 35 38  1  0
 38 39  1  0
 39 40  1  0
 39 41  1  0
 39 42  1  0
 33 43  1  0
 43 44  1  0
 43 45  2  0
 45 46  1  0
 45 47  1  0
 47 48  1  0
 47 49  2  0
 49 50  1  0
 50 51  1  0
 50 52  2  0
 52 53  1  0
 52 54  1  0
 54 55  2  0
 54 56  1  0
 23  8  1  0
 49 32  1  0
 22 13  1  0
M  CHG  1  56  -1
M  END
>  <UniqueID>  (18) 
18

>  <SMILES>  (18) 
COCOc1cccc(/C=C/C(=O)[O-])c1CC=C(C)/C=C\c1ccc2ccccc2c1

>  <Energy>  (18) 
71.53365476188854

>  <Genealogy>  (18) 
COCOc1cccc(C=CC(=O)[O-])c1CC=C(C)C=Cc1ccc2ccccc2c1 (protonated)
COCOc1cccc(/C=C/C(=O)[O-])c1CC=C(C)/C=C\c1ccc2ccccc2c1 (cis-trans isomerization)
COCOc1cccc(/C=C/C(=O)[O-])c1CC=C(C)/C=C\c1ccc2ccccc2c1 (3D coordinates assigned)
COCOc1cccc(/C=C/C(=O)[O-])c1CC=C(C)/C=C\c1ccc2ccccc2c1 (optimized conformer: 71.53365476188854 kcal/mol)

>  <smiles>  (18) 
COCOc1cccc(C=CC(=O)O)c1CC=C(C)C=Cc1ccc2ccccc2c1

>  <score_type>  (18) 
oracle

>  <origin>  (18) 
adg

>  <m_score__min__energy>  (18) 
-12.359999999999999

>  <m_primary>  (18) 
energy

$$$$
18:0
     RDKit          3D

 43 44  0  0  0  0  0  0  0  0999 V2000
   59.6960   35.5060   45.9860 C   0  0  0  0  0  0  0  0  0  0  0  0
   58.9390   34.5170   46.8710 C   0  0  0  0  0  0  0  0  0  0  0  0
   59.2390   33.1250   46.4670 N   0  0  0  0  0  0  0  0  0  0  0  0
   60.1210   32.4760   47.4660 C   0  0  0  0  0  0  0  0  0  0  0  0
   61.6000   32.6580   47.1240 C   0  0  0  0  0  0  0  0  0  0  0  0
   57.9920   32.3500   46.2410 C   0  0  0  0  0  0  0  0  0  0  0  0
   57.8710   31.9910   44.7860 C   0  0  0  0  0  0  0  0  0  0  0  0
   57.7700   32.8880   43.7410 C   0  0  0  0  0  0  0  0  0  0  0  0
   57.7550   32.1180   42.5950 C   0  0  0  0  0  0  0  0  0  0  0  0
   57.6940   32.6410   41.2000 C   0  0  0  0  0  0  0  0  0  0  0  0
   57.8350   30.8420   42.9000 O   0  0  0  0  0  0  0  0  0  0  0  0
   57.8890   30.7270   44.2080 C   0  0  0  0  0  0  0  0  0  0  0  0
   57.9870   29.4270   44.8980 C   0  0  0  0  0  0  0  0  0  0  0  0
   59.2580   28.8860   45.1410 C   0  0  0  0  0  0  0  0  0  0  0  0
   59.3910   27.6630   45.8000 C   0  0  0  0  0  0  0  0  0  0  0  0
   58.2570   26.9650   46.2130 C   0  0  0  0  0  0  0  0  0  0  0  0
   56.9840   27.4790   45.9550 C   0  0  0  0  0  0  0  0  0  0  0  0
   56.8340   28.7080   45.2820 C   0  0  0  0  0  0  0  0  0  0  0  0
   55.5690   29.2280   44.9630 O   0  0  0  0  0  0  0  0  0  0  0  0
   55.1930   29.7120   43.6790 C   0  0  0  0  0  0  0  0  0  0  0  0
   60.2428   36.2204   46.6190 H   0  0  0  0  0  0  0  0  0  0  0  0
   60.4083   34.9589   45.3509 H   0  0  0  0  0  0  0  0  0  0  0  0
   58.9819   36.0507   45.3509 H   0  0  0  0  0  0  0  0  0  0  0  0
   59.2418   34.6632   47.9183 H   0  0  0  0  0  0  0  0  0  0  0  0
   57.8591   34.6947   46.7601 H   0  0  0  0  0  0  0  0  0  0  0  0
   59.9270   32.9201   48.4535 H   0  0  0  0  0  0  0  0  0  0  0  0
   59.9011   31.3982   47.4659 H   0  0  0  0  0  0  0  0  0  0  0  0
   62.1849   32.7300   48.0528 H   0  0  0  0  0  0  0  0  0  0  0  0
   61.9493   31.7961   46.5366 H   0  0  0  0  0  0  0  0  0  0  0  0
   61.7299   33.5789   46.5366 H   0  0  0  0  0  0  0  0  0  0  0  0
   58.0200   31.4297   46.8429 H   0  0  0  0  0  0  0  0  0  0  0  0
   57.1265   32.9609   46.5371 H   0  0  0  0  0  0  0  0  0  0  0  0
   57.7134   33.9845   43.8075 H   0  0  0  0  0  0  0  0  0  0  0  0
   57.5666   33.7333   41.2232 H   0  0  0  0  0  0  0  0  0  0  0  0
   58.6273   32.3918   40.6738 H   0  0  0  0  0  0  0  0  0  0  0  0
   56.8431   32.1837   40.6738 H   0  0  0  0  0  0  0  0  0  0  0  0
   60.1556   29.4290   44.8101 H   0  0  0  0  0  0  0  0  0  0  0  0
   60.3917   27.2493   45.9938 H   0  0  0  0  0  0  0  0  0  0  0  0
   58.3650   26.0073   46.7433 H   0  0  0  0  0  0  0  0  0  0  0  0
   56.0932   26.9210   46.2792 H   0  0  0  0  0  0  0  0  0  0  0  0
   54.5219   30.5758   43.7948 H   0  0  0  0  0  0  0  0  0  0  0  0
   56.0925   30.0182   43.1247 H   0  0  0  0  0  0  0  0  0  0  0  0
   54.6739   28.9162   43.1247 H   0  0  0  0  0  0  0  0  0  0  0  0
  1  2  1  0
  2  3  1  0
  3  4  1  0
  4  5  1  0
  3  6  1  0
  6  7  1  0
  7  8  1  0
  8  9  2  0
  9 10  1  0
  9 11  1  0
 11 12  1  0
 12 13  1  0
 13 14  2  0
 14 15  1  0
 15 16  2  0
 16 17  1  0
 17 18  2  0
 18 19  1  0
 19 20  1  0
 12  7  2  0
 18 13  1  0
  1 21  1  0
  1 22  1  0
  1 23  1  0
  2 24  1  0
  2 25  1  0
  4 26  1  0
  4 27  1  0
  5 28  1  0
  5 29  1  0
  5 30  1  0
  6 31  1  0
  6 32  1  0
  8 33  1  0
 10 34  1  0
 10 35  1  0
 10 36  1  0
 14 37  1  0
 15 38  1  0
 16 39  1  0
 17 40  1  0
 20 41  1  0
 20 42  1  0
 20 43  1  0
M  END
>  <UniqueID>  (19) 
19

>  <SMILES>  (19) 
CCN(CC)Cc1cc(C)oc1-c1ccccc1OC

>  <Energy>  (19) 
70.43145645210907

>  <Genealogy>  (19) 
CCN(CC)Cc1cc(C)oc1-c1ccccc1OC (3D coordinates assigned)
CCN(CC)Cc1cc(C)oc1-c1ccccc1OC (optimized conformer: 70.43145645210907 kcal/mol)

>  <smiles>  (19) 
CCN(CC)Cc1cc(C)oc1-c1ccccc1OC

>  <score_type>  (19) 
oracle

>  <origin>  (19) 
adg

>  <m_score__min__energy>  (19) 
-6.4900000000000002

>  <m_primary>  (19) 
energy

$$$$
19:0
     RDKit          3D

 73 76  0  0  0  0  0  0  0  0999 V2000
   59.6870   34.2030   49.7240 C   0  0  0  0  0  0  0  0  0  0  0  0
   60.4630   34.5990   48.4590 C   0  0  0  0  0  0  0  0  0  0  0  0
   59.7230   34.3750   47.1930 N   0  0  0  0  0  0  0  0  0  0  0  0
   60.0140   35.3520   46.1190 C   0  0  0  0  0  0  0  0  0  0  0  0
   59.2350   35.0440   44.8400 C   0  0  0  0  0  0  0  0  0  0  0  0
   58.2690   34.1950   47.4150 C   0  0  0  0  0  0  0  0  0  0  0  0
   57.8170   32.8780   46.7840 C   0  0  0  0  0  0  0  0  0  0  0  0
   58.9760   32.1100   46.3320 N   0  0  0  0  0  0  0  0  0  0  0  0
   58.8430   30.7190   45.9960 C   0  0  0  0  0  0  0  0  0  0  0  0
   58.1430   30.3310   44.8400 C   0  0  0  0  0  0  0  0  0  0  0  0
   57.5440   31.2920   43.9990 C   0  0  0  0  0  0  0  0  0  0  0  0
   56.7850   30.9020   42.9000 C   0  0  0  0  0  0  0  0  0  0  0  0
   56.6090   29.5530   42.6190 C   0  0  0  0  0  0  0  0  0  0  0  0
   57.2230   28.5870   43.4140 C   0  0  0  0  0  0  0  0  0  0  0  0
   58.0390   28.9520   44.5150 C   0  0  0  0  0  0  0  0  0  0  0  0
   58.7150   28.0090   45.2680 N   0  0  0  0  0  0  0  0  0  0  0  0
   58.8550   26.6230   44.7660 C   0  0  0  0  0  0  0  0  0  0  0  0
   59.2870   28.3670   46.4770 C   0  0  0  0  0  0  0  0  0  0  0  0
   59.7790   27.3980   47.3860 C   0  0  0  0  0  0  0  0  0  0  0  0
   60.3910   27.7710   48.5810 C   0  0  0  0  0  0  0  0  0  0  0  0
   60.4990   29.1190   48.9330 C   0  0  0  0  0  0  0  0  0  0  0  0
   61.1400   29.5090   50.1660 N   0  0  0  0  0  0  0  0  0  0  0  0
   60.7240   30.8680   50.5450 C   0  0  0  0  0  0  0  0  0  0  0  0
   61.8500   31.8850   50.3070 C   0  0  0  0  0  0  0  0  0  0  0  0
   62.8750   31.3370   49.3880 N   0  0  0  0  0  0  0  0  0  0  0  0
   62.6030   31.5970   47.9520 C   0  0  0  0  0  0  0  0  0  0  0  0
   63.4030   32.7770   47.3580 C   0  0  0  0  0  0  0  0  0  0  0  0
   63.7600   33.8080   48.4230 C   0  0  0  0  0  0  0  0  0  0  0  0
   64.5930   33.1740   49.5460 C   0  0  0  0  0  0  0  0  0  0  0  0
   64.2580   31.6850   49.7800 C   0  0  0  0  0  0  0  0  0  0  0  0
   59.9880   30.0930   48.0660 C   0  0  0  0  0  0  0  0  0  0  0  0
   59.3800   29.7360   46.8440 C   0  0  0  0  0  0  0  0  0  0  0  0
   60.2625   34.4967   50.6142 H   0  0  0  0  0  0  0  0  0  0  0  0
   58.7131   34.7143   49.7319 H   0  0  0  0  0  0  0  0  0  0  0  0
   59.5296   33.1143   49.7319 H   0  0  0  0  0  0  0  0  0  0  0  0
   60.7115   35.6683   48.5281 H   0  0  0  0  0  0  0  0  0  0  0  0
   61.3535   33.9543   48.4213 H   0  0  0  0  0  0  0  0  0  0  0  0
   59.7387   36.3577   46.4693 H   0  0  0  0  0  0  0  0  0  0  0  0
   61.0875   35.2924   45.8864 H   0  0  0  0  0  0  0  0  0  0  0  0
   58.2414   34.6511   45.1015 H   0  0  0  0  0  0  0  0  0  0  0  0
   59.1213   35.9649   44.2492 H   0  0  0  0  0  0  0  0  0  0  0  0
   59.7818   34.2944   44.2492 H   0  0  0  0  0  0  0  0  0  0  0  0
   58.0628   34.1739   48.4953 H   0  0  0  0  0  0  0  0  0  0  0  0
   57.7213   35.0299   46.9536 H   0  0  0  0  0  0  0  0  0  0  0  0
   57.2601   32.2906   47.5289 H   0  0  0  0  0  0  0  0  0  0  0  0
   57.1726   33.0969   45.9198 H   0  0  0  0  0  0  0  0  0  0  0  0
   59.9260   32.4570   46.5890 H   0  0  0  0  0  0  0  0  0  0  0  0
   57.6785   32.3623   44.2145 H   0  0  0  0  0  0  0  0  0  0  0  0
   56.3238   31.6627   42.2530 H   0  0  0  0  0  0  0  0  0  0  0  0
   55.9838   29.2467   41.7674 H   0  0  0  0  0  0  0  0  0  0  0  0
   57.0720   27.5221   43.1834 H   0  0  0  0  0  0  0  0  0  0  0  0
   58.9250   25.9300   45.6174 H   0  0  0  0  0  0  0  0  0  0  0  0
   57.9784   26.3644   44.1539 H   0  0  0  0  0  0  0  0  0  0  0  0
   59.7656   26.5450   44.1539 H   0  0  0  0  0  0  0  0  0  0  0  0
   59.6758   26.3300   47.1436 H   0  0  0  0  0  0  0  0  0  0  0  0
   60.7924   26.9980   49.2528 H   0  0  0  0  0  0  0  0  0  0  0  0
   62.1820   29.4790   50.0570 H   0  0  0  0  0  0  0  0  0  0  0  0
   60.8740   28.8280   50.9160 H   0  0  0  0  0  0  0  0  0  0  0  0
   59.8490   31.1554   49.9435 H   0  0  0  0  0  0  0  0  0  0  0  0
   60.4776   30.8685   51.6170 H   0  0  0  0  0  0  0  0  0  0  0  0
   61.4230   32.7979   49.8663 H   0  0  0  0  0  0  0  0  0  0  0  0
   62.3285   32.1101   51.2715 H   0  0  0  0  0  0  0  0  0  0  0  0
   62.8545   30.6893   47.3837 H   0  0  0  0  0  0  0  0  0  0  0  0
   61.5394   31.8672   47.8764 H   0  0  0  0  0  0  0  0  0  0  0  0
   64.3306   32.3899   46.9112 H   0  0  0  0  0  0  0  0  0  0  0  0
   62.7764   33.2695   46.5998 H   0  0  0  0  0  0  0  0  0  0  0  0
   64.3405   34.6187   47.9584 H   0  0  0  0  0  0  0  0  0  0  0  0
   62.8284   34.2004   48.8568 H   0  0  0  0  0  0  0  0  0  0  0  0
   65.6576   33.2562   49.2817 H   0  0  0  0  0  0  0  0  0  0  0  0
   64.3571   33.7138   50.4750 H   0  0  0  0  0  0  0  0  0  0  0  0
   64.9548   31.0717   49.1898 H   0  0  0  0  0  0  0  0  0  0  0  0
   64.3538   31.4910   50.8585 H   0  0  0  0  0  0  0  0  0  0  0  0
   60.0620   31.1551   48.3427 H   0  0  0  0  0  0  0  0  0  0  0  0
  1  2  1  0
  2  3  1  0
  3  4  1  0
  4  5  1  0
  3  6  1  0
  6  7  1  0
  7  8  1  0
  8  9  1  0
  9 10  2  0
 10 11  1  0
 11 12  2  0
 12 13  1  0
 13 14  2  0
 14 15  1  0
 15 16  2  0
 16 17  1  0
 16 18  1  0
 18 19  2  0
 19 20  1  0
 20 21  2  0
 21 22  1  0
 22 23  1  0
 23 24  1  0
 24 25  1  0
 25 26  1  0
 26 27  1  0
 27 28  1  0
 28 29  1  0
 29 30  1  0
 21 31  1  0
 31 32  2  0
 32  9  1  0
 15 10  1  0
 32 18  1  0
 30 25  1  0
  1 33  1  0
  1 34  1  0
  1 35  1  0
  2 36  1  0
  2 37  1  0
  4 38  1  0
  4 39  1  0
  5 40  1  0
  5 41  1  0
  5 42  1  0
  6 43  1  0
  6 44  1  0
  7 45  1  0
  7 46  1  0
  8 47  1  0
 11 48  1  0
 12 49  1  0
 13 50  1  0
 14 51  1  0
 17 52  1  0
 17 53  1  0
 17 54  1  0
 19 55  1  0
 20 56  1  0
 22 57  1  0
 22 58  1  0
 23 59  1  0
 23 60  1  0
 24 61  1  0
 24 62  1  0
 26 63  1  0
 26 64  1  0
 27 65  1  0
 27 66  1  0
 28 67  1  0
 28 68  1  0
 29 69  1  0
 29 70  1  0
 30 71  1  0
 30 72  1  0
 31 73  1  0
M  CHG  2  16   1  22   1
M  END
>  <UniqueID>  (20) 
20

>  <SMILES>  (20) 
CCN(CC)CCNc1c2ccccc2[n+](C)c2ccc([NH2+]CCN3CCCCC3)cc12

>  <Energy>  (20) 
110.87491708688479

>  <Genealogy>  (20) 
CCN(CC)CCNc1c2ccccc2[n+](C)c2ccc([NH2+]CCN3CCCCC3)cc12 (protonated)
CCN(CC)CCNc1c2ccccc2[n+](C)c2ccc([NH2+]CCN3CCCCC3)cc12 (3D coordinates assigned)
CCN(CC)CCNc1c2ccccc2[n+](C)c2ccc([NH2+]CCN3CCCCC3)cc12 (nonaromatic ring conformer: 110.87491708688479 kcal/mol)

>  <smiles>  (20) 
CCN(CC)CCNc1c2ccccc2[n+](C)c2ccc(NCCN3CCCCC3)cc12

>  <score_type>  (20) 
oracle

>  <origin>  (20) 
adg

>  <m_score__min__energy>  (20) 
-5.4800000000000004

>  <m_primary>  (20) 
energy

$$$$
20:0
     RDKit          3D

 50 52  0  0  0  0  0  0  0  0999 V2000
   62.5020   33.8710   46.3820 C   0  0  0  0  0  0  0  0  0  0  0  0
   63.5830   33.5760   47.4260 C   0  0  0  0  0  0  0  0  0  0  0  0
   63.9180   32.1410   47.5130 N   0  0  0  0  0  0  0  0  0  0  0  0
   62.7510   31.2390   47.5090 C   0  0  0  0  0  0  0  0  0  0  0  0
   61.7100   31.6070   48.5850 C   0  0  0  0  0  0  0  0  0  0  0  0
   60.6710   30.4960   48.7880 C   0  0  0  0  0  0  0  0  0  0  0  0
   59.3270   30.9570   48.4290 N   0  0  0  0  0  0  0  0  0  0  0  0
   58.9160   31.1270   47.0600 C   0  0  0  0  0  0  0  0  0  0  0  0
   58.8860   32.4080   46.4780 C   0  0  0  0  0  0  0  0  0  0  0  0
   59.1990   33.5570   47.2390 C   0  0  0  0  0  0  0  0  0  0  0  0
   59.2420   34.8150   46.6430 C   0  0  0  0  0  0  0  0  0  0  0  0
   58.9780   34.9530   45.2860 C   0  0  0  0  0  0  0  0  0  0  0  0
   58.6250   33.8380   44.5250 C   0  0  0  0  0  0  0  0  0  0  0  0
   58.5210   32.5510   45.1130 C   0  0  0  0  0  0  0  0  0  0  0  0
   58.0840   31.4550   44.3930 N   0  0  0  0  0  0  0  0  0  0  0  0
   57.4350   31.6480   43.0770 C   0  0  0  0  0  0  0  0  0  0  0  0
   58.2170   30.1830   44.9170 C   0  0  0  0  0  0  0  0  0  0  0  0
   58.0150   29.0250   44.1230 C   0  0  0  0  0  0  0  0  0  0  0  0
   58.1060   27.7470   44.6700 C   0  0  0  0  0  0  0  0  0  0  0  0
   58.4260   27.5770   46.0170 C   0  0  0  0  0  0  0  0  0  0  0  0
   58.4850   26.2000   46.6110 C   0  0  0  0  0  0  0  0  0  0  0  0
   58.6500   28.7010   46.8170 C   0  0  0  0  0  0  0  0  0  0  0  0
   58.5850   30.0040   46.2770 C   0  0  0  0  0  0  0  0  0  0  0  0
   61.5612   34.1277   46.8908 H   0  0  0  0  0  0  0  0  0  0  0  0
   62.8207   34.7150   45.7527 H   0  0  0  0  0  0  0  0  0  0  0  0
   62.3477   32.9821   45.7527 H   0  0  0  0  0  0  0  0  0  0  0  0
   64.4924   34.1335   47.1574 H   0  0  0  0  0  0  0  0  0  0  0  0
   63.1898   33.8842   48.4060 H   0  0  0  0  0  0  0  0  0  0  0  0
   64.5400   31.8860   46.7110 H   0  0  0  0  0  0  0  0  0  0  0  0
   64.4680   31.9800   48.3900 H   0  0  0  0  0  0  0  0  0  0  0  0
   62.2695   31.2911   46.5213 H   0  0  0  0  0  0  0  0  0  0  0  0
   63.1145   30.2250   47.7318 H   0  0  0  0  0  0  0  0  0  0  0  0
   62.2315   31.7830   49.5374 H   0  0  0  0  0  0  0  0  0  0  0  0
   61.1790   32.5093   48.2476 H   0  0  0  0  0  0  0  0  0  0  0  0
   60.9365   29.6361   48.1554 H   0  0  0  0  0  0  0  0  0  0  0  0
   60.6695   30.2096   49.8500 H   0  0  0  0  0  0  0  0  0  0  0  0
   58.5950   30.9570   49.1740 H   0  0  0  0  0  0  0  0  0  0  0  0
   59.4110   33.4566   48.3137 H   0  0  0  0  0  0  0  0  0  0  0  0
   59.4854   35.7010   47.2478 H   0  0  0  0  0  0  0  0  0  0  0  0
   59.0474   35.9427   44.8108 H   0  0  0  0  0  0  0  0  0  0  0  0
   58.4238   33.9590   43.4503 H   0  0  0  0  0  0  0  0  0  0  0  0
   56.3903   31.9587   43.2254 H   0  0  0  0  0  0  0  0  0  0  0  0
   57.9722   32.4253   42.5137 H   0  0  0  0  0  0  0  0  0  0  0  0
   57.4602   30.7035   42.5137 H   0  0  0  0  0  0  0  0  0  0  0  0
   57.7818   29.1384   43.0540 H   0  0  0  0  0  0  0  0  0  0  0  0
   57.9244   26.8667   44.0359 H   0  0  0  0  0  0  0  0  0  0  0  0
   58.4818   26.2737   47.7085 H   0  0  0  0  0  0  0  0  0  0  0  0
   57.6109   25.6201   46.2799 H   0  0  0  0  0  0  0  0  0  0  0  0
   59.4055   25.6970   46.2799 H   0  0  0  0  0  0  0  0  0  0  0  0
   58.8806   28.5684   47.8843 H   0  0  0  0  0  0  0  0  0  0  0  0
  1  2  1  0
  2  3  1  0
  3  4  1  0
  4  5  1  0
  5  6  1  0
  6  7  1  0
  7  8  1  0
  8  9  2  0
  9 10  1  0
 10 11  2  0
 11 12  1  0
 12 13  2  0
 13 14  1  0
 14 15  2  0
 15 16  1  0
 15 17  1  0
 17 18  2  0
 18 19  1  0
 19 20  2  0
 20 21  1  0
 20 22  1  0
 22 23  2  0
 23  8  1  0
 14  9  1  0
 23 17  1  0
  1 24  1  0
  1 25  1  0
  1 26  1  0
  2 27  1  0
  2 28  1  0
  3 29  1  0
  3 30  1  0
  4 31  1  0
  4 32  1  0
  5 33  1  0
  5 34  1  0
  6 35  1  0
  6 36  1  0
  7 37  1  0
 10 38  1  0
 11 39  1  0
 12 40  1  0
 13 41  1  0
 16 42  1  0
 16 43  1  0
 16 44  1  0
 18 45  1  0
 19 46  1  0
 21 47  1  0
 21 48  1  0
 21 49  1  0
 22 50  1  0
M  CHG  2   3   1  15   1
M  END
>  <UniqueID>  (21) 
21

>  <SMILES>  (21) 
CC[NH2+]CCCNc1c2ccccc2[n+](C)c2ccc(C)cc12

>  <Energy>  (21) 
73.02115160061743

>  <Genealogy>  (21) 
CC[NH2+]CCCNc1c2ccccc2[n+](C)c2ccc(C)cc12 (protonated)
CC[NH2+]CCCNc1c2ccccc2[n+](C)c2ccc(C)cc12 (3D coordinates assigned)
CC[NH2+]CCCNc1c2ccccc2[n+](C)c2ccc(C)cc12 (optimized conformer: 73.02115160061743 kcal/mol)

>  <smiles>  (21) 
CCNCCCNc1c2ccccc2[n+](C)c2ccc(C)cc12

>  <score_type>  (21) 
oracle

>  <origin>  (21) 
adg

>  <m_score__min__energy>  (21) 
-4.6500000000000004

>  <m_primary>  (21) 
energy

$$$$
21:0
     RDKit          3D

 59 61  0  0  0  0  0  0  0  0999 V2000
   62.9690   31.6070   47.4900 C   0  0  0  0  0  0  0  0  0  0  0  0
   63.6570   32.9110   47.5290 N   0  0  0  0  0  0  0  0  0  0  0  0
   63.8700   33.3340   48.9250 C   0  0  0  0  0  0  0  0  0  0  0  0
   62.9120   33.9380   46.7630 C   0  0  0  0  0  0  0  0  0  0  0  0
   61.5280   33.4000   46.3880 C   0  0  0  0  0  0  0  0  0  0  0  0
   60.4610   34.5120   46.4310 C   0  0  0  0  0  0  0  0  0  0  0  0
   59.1340   34.0940   47.1140 C   0  0  2  0  0  0  0  0  0  0  0  0
   59.3930   33.5840   48.5230 C   0  0  0  0  0  0  0  0  0  0  0  0
   60.3760   34.1990   49.3170 C   0  0  0  0  0  0  0  0  0  0  0  0
   60.6480   33.7240   50.6040 C   0  0  0  0  0  0  0  0  0  0  0  0
   59.9510   32.6230   51.1070 C   0  0  0  0  0  0  0  0  0  0  0  0
   58.9830   31.9920   50.3210 C   0  0  0  0  0  0  0  0  0  0  0  0
   58.7070   32.4640   49.0360 C   0  0  0  0  0  0  0  0  0  0  0  0
   58.3400   33.1370   46.3170 N   0  0  0  0  0  0  0  0  0  0  0  0
   58.7980   32.1660   45.4980 C   0  0  0  0  0  0  0  0  0  0  0  0
   57.7060   31.6870   44.8020 C   0  0  0  0  0  0  0  0  0  0  0  0
   57.7080   30.6180   43.7460 C   0  0  0  0  0  0  0  0  0  0  0  0
   57.7700   29.2440   44.2930 N   0  0  0  0  0  0  0  0  0  0  0  0
   57.1340   29.0600   45.6180 C   0  0  0  0  0  0  0  0  0  0  0  0
   58.1510   28.8150   46.7460 C   0  0  0  0  0  0  0  0  0  0  0  0
   59.4150   29.4990   46.4380 N   0  0  0  0  0  0  0  0  0  0  0  0
   60.3140   29.4740   47.6020 C   0  0  0  0  0  0  0  0  0  0  0  0
   60.0680   28.8740   45.2710 C   0  0  0  0  0  0  0  0  0  0  0  0
   59.0730   28.5660   44.1310 C   0  0  0  0  0  0  0  0  0  0  0  0
   56.6200   32.3930   45.1740 N   0  0  0  0  0  0  0  0  0  0  0  0
   57.0400   33.2630   46.0790 N   0  0  0  0  0  0  0  0  0  0  0  0
   62.7852   31.2586   48.5170 H   0  0  0  0  0  0  0  0  0  0  0  0
   62.0100   31.7141   46.9619 H   0  0  0  0  0  0  0  0  0  0  0  0
   63.5987   30.8758   46.9619 H   0  0  0  0  0  0  0  0  0  0  0  0
   63.4813   32.5620   49.6054 H   0  0  0  0  0  0  0  0  0  0  0  0
   64.9460   33.4739   49.1056 H   0  0  0  0  0  0  0  0  0  0  0  0
   63.3416   34.2817   49.1056 H   0  0  0  0  0  0  0  0  0  0  0  0
   62.7981   34.8423   47.3789 H   0  0  0  0  0  0  0  0  0  0  0  0
   63.4681   34.1829   45.8461 H   0  0  0  0  0  0  0  0  0  0  0  0
   61.5697   32.9833   45.3708 H   0  0  0  0  0  0  0  0  0  0  0  0
   61.2491   32.6246   47.1167 H   0  0  0  0  0  0  0  0  0  0  0  0
   60.8774   35.3684   46.9816 H   0  0  0  0  0  0  0  0  0  0  0  0
   60.2158   34.7549   45.3866 H   0  0  0  0  0  0  0  0  0  0  0  0
   58.5135   34.9997   47.1822 H   0  0  0  0  0  0  0  0  0  0  0  0
   60.9356   35.0603   48.9233 H   0  0  0  0  0  0  0  0  0  0  0  0
   61.4124   34.2185   51.2214 H   0  0  0  0  0  0  0  0  0  0  0  0
   60.1638   32.2530   52.1208 H   0  0  0  0  0  0  0  0  0  0  0  0
   58.4375   31.1219   50.7152 H   0  0  0  0  0  0  0  0  0  0  0  0
   57.9490   31.9584   48.4196 H   0  0  0  0  0  0  0  0  0  0  0  0
   59.8390   31.8232   45.4037 H   0  0  0  0  0  0  0  0  0  0  0  0
   56.7872   30.7145   43.1519 H   0  0  0  0  0  0  0  0  0  0  0  0
   58.6144   30.7650   43.1403 H   0  0  0  0  0  0  0  0  0  0  0  0
   56.5562   29.9648   45.8578 H   0  0  0  0  0  0  0  0  0  0  0  0
   56.4937   28.1679   45.5538 H   0  0  0  0  0  0  0  0  0  0  0  0
   57.7469   29.2042   47.6922 H   0  0  0  0  0  0  0  0  0  0  0  0
   58.3370   27.7347   46.8372 H   0  0  0  0  0  0  0  0  0  0  0  0
   59.7177   29.4906   48.5262 H   0  0  0  0  0  0  0  0  0  0  0  0
   60.9233   28.5586   47.5751 H   0  0  0  0  0  0  0  0  0  0  0  0
   60.9732   30.3542   47.5751 H   0  0  0  0  0  0  0  0  0  0  0  0
   60.8399   29.5588   44.8900 H   0  0  0  0  0  0  0  0  0  0  0  0
   60.5022   27.9193   45.6026 H   0  0  0  0  0  0  0  0  0  0  0  0
   59.5200   28.8914   43.1801 H   0  0  0  0  0  0  0  0  0  0  0  0
   58.8812   27.4830   44.1498 H   0  0  0  0  0  0  0  0  0  0  0  0
   56.4210   33.9850   46.5100 H   0  0  0  0  0  0  0  0  0  0  0  0
  1  2  1  0
  2  3  1  0
  2  4  1  0
  4  5  1  0
  5  6  1  0
  6  7  1  0
  7  8  1  0
  8  9  2  0
  9 10  1  0
 10 11  2  0
 11 12  1  0
 12 13  2  0
  7 14  1  0
 14 15  1  0
 15 16  2  0
 16 17  1  0
 17 18  1  0
 18 19  1  0
 19 20  1  0
 20 21  1  0
 21 22  1  0
 21 23  1  0
 23 24  1  0
 16 25  1  0
 25 26  2  0
 13  8  1  0
 26 14  1  0
 24 18  1  0
  1 27  1  0
  1 28  1  0
  1 29  1  0
  3 30  1  0
  3 31  1  0
  3 32  1  0
  4 33  1  0
  4 34  1  0
  5 35  1  0
  5 36  1  0
  6 37  1  0
  6 38  1  0
  7 39  1  1
  9 40  1  0
 10 41  1  0
 11 42  1  0
 12 43  1  0
 13 44  1  0
 15 45  1  0
 17 46  1  0
 17 47  1  0
 19 48  1  0
 19 49  1  0
 20 50  1  0
 20 51  1  0
 22 52  1  0
 22 53  1  0
 22 54  1  0
 23 55  1  0
 23 56  1  0
 24 57  1  0
 24 58  1  0
 26 59  1  0
M  CHG  1  26   1
M  END
>  <UniqueID>  (22) 
22

>  <SMILES>  (22) 
CN(C)CCC[C@H](c1ccccc1)n1cc(CN2CCN(C)CC2)n[nH+]1

>  <Energy>  (22) 
104.99204537149643

>  <Genealogy>  (22) 
CN(C)CCCC(c1ccccc1)n1cc(CN2CCN(C)CC2)n[nH+]1 (protonated)
CN(C)CCC[C@H](c1ccccc1)n1cc(CN2CCN(C)CC2)n[nH+]1 (chirality)
CN(C)CCC[C@H](c1ccccc1)n1cc(CN2CCN(C)CC2)n[nH+]1 (3D coordinates assigned)
CN(C)CCC[C@H](c1ccccc1)n1cc(CN2CCN(C)CC2)n[nH+]1 (nonaromatic ring conformer: 104.99204537149643 kcal/mol)

>  <smiles>  (22) 
CN(C)CCCC(c1ccccc1)n1cc(CN2CCN(C)CC2)nn1

>  <score_type>  (22) 
oracle

>  <origin>  (22) 
adg

>  <m_score__min__energy>  (22) 
-7.0599999999999996

>  <m_primary>  (22) 
energy

$$$$
22:0
     RDKit          3D

 43 45  0  0  0  0  0  0  0  0999 V2000
   61.1250   30.4010   46.7260 C   0  0  0  0  0  0  0  0  0  0  0  0
   60.4370   30.8780   48.0060 C   0  0  0  0  0  0  0  0  0  0  0  0
   58.9650   30.8230   47.9070 N   0  0  0  0  0  0  0  0  0  0  0  0
   58.4660   31.5410   46.7430 C   0  0  0  0  0  0  0  0  0  0  0  0
   58.4700   32.9720   46.7000 C   0  0  0  0  0  0  0  0  0  0  0  0
   58.8790   33.8580   47.8660 C   0  0  0  0  0  0  0  0  0  0  0  0
   60.0290   34.8060   47.4910 C   0  0  0  0  0  0  0  0  0  0  0  0
   61.3790   34.1710   47.7000 C   0  0  0  0  0  0  0  0  0  0  0  0
   62.1830   33.8300   46.5990 C   0  0  0  0  0  0  0  0  0  0  0  0
   63.4600   33.2970   46.7970 C   0  0  0  0  0  0  0  0  0  0  0  0
   63.9440   33.1000   48.0930 C   0  0  0  0  0  0  0  0  0  0  0  0
   63.1520   33.4380   49.1940 C   0  0  0  0  0  0  0  0  0  0  0  0
   61.8750   33.9730   49.0000 C   0  0  0  0  0  0  0  0  0  0  0  0
   58.0000   33.6320   45.5550 C   0  0  0  0  0  0  0  0  0  0  0  0
   57.5300   32.9270   44.4570 C   0  0  0  0  0  0  0  0  0  0  0  0
   57.5020   31.5340   44.4710 C   0  0  0  0  0  0  0  0  0  0  0  0
   57.0060   30.8430   43.3530 C   0  0  0  0  0  0  0  0  0  0  0  0
   56.9620   29.4510   43.3480 C   0  0  0  0  0  0  0  0  0  0  0  0
   57.4090   28.7360   44.4550 C   0  0  0  0  0  0  0  0  0  0  0  0
   57.9040   29.4070   45.5760 C   0  0  0  0  0  0  0  0  0  0  0  0
   57.9650   30.8210   45.6100 C   0  0  0  0  0  0  0  0  0  0  0  0
   62.0032   29.7921   46.9868 H   0  0  0  0  0  0  0  0  0  0  0  0
   60.4216   29.7958   46.1353 H   0  0  0  0  0  0  0  0  0  0  0  0
   61.4450   31.2720   46.1353 H   0  0  0  0  0  0  0  0  0  0  0  0
   60.7593   30.2375   48.8402 H   0  0  0  0  0  0  0  0  0  0  0  0
   60.7234   31.9273   48.1700 H   0  0  0  0  0  0  0  0  0  0  0  0
   58.6560   29.8260   47.8590 H   0  0  0  0  0  0  0  0  0  0  0  0
   58.5450   31.1560   48.7990 H   0  0  0  0  0  0  0  0  0  0  0  0
   58.0113   34.4578   48.1780 H   0  0  0  0  0  0  0  0  0  0  0  0
   59.2264   33.2076   48.6823 H   0  0  0  0  0  0  0  0  0  0  0  0
   59.9282   35.0840   46.4315 H   0  0  0  0  0  0  0  0  0  0  0  0
   59.9659   35.6893   48.1436 H   0  0  0  0  0  0  0  0  0  0  0  0
   61.8058   33.9832   45.5771 H   0  0  0  0  0  0  0  0  0  0  0  0
   64.0849   33.0322   45.9313 H   0  0  0  0  0  0  0  0  0  0  0  0
   64.9485   32.6788   48.2468 H   0  0  0  0  0  0  0  0  0  0  0  0
   63.5338   33.2829   50.2139 H   0  0  0  0  0  0  0  0  0  0  0  0
   61.2556   34.2402   49.8689 H   0  0  0  0  0  0  0  0  0  0  0  0
   58.0043   34.7316   45.5274 H   0  0  0  0  0  0  0  0  0  0  0  0
   57.1768   33.4714   43.5688 H   0  0  0  0  0  0  0  0  0  0  0  0
   56.6503   31.4045   42.4765 H   0  0  0  0  0  0  0  0  0  0  0  0
   56.5737   28.9165   42.4685 H   0  0  0  0  0  0  0  0  0  0  0  0
   57.3724   27.6366   44.4474 H   0  0  0  0  0  0  0  0  0  0  0  0
   58.2513   28.8284   46.4446 H   0  0  0  0  0  0  0  0  0  0  0  0
  1  2  1  0
  2  3  1  0
  3  4  1  0
  4  5  2  0
  5  6  1  0
  6  7  1  0
  7  8  1  0
  8  9  2  0
  9 10  1  0
 10 11  2  0
 11 12  1  0
 12 13  2  0
  5 14  1  0
 14 15  2  0
 15 16  1  0
 16 17  2  0
 17 18  1  0
 18 19  2  0
 19 20  1  0
 20 21  2  0
 21  4  1  0
 13  8  1  0
 21 16  1  0
  1 22  1  0
  1 23  1  0
  1 24  1  0
  2 25  1  0
  2 26  1  0
  3 27  1  0
  3 28  1  0
  6 29  1  0
  6 30  1  0
  7 31  1  0
  7 32  1  0
  9 33  1  0
 10 34  1  0
 11 35  1  0
 12 36  1  0
 13 37  1  0
 14 38  1  0
 15 39  1  0
 17 40  1  0
 18 41  1  0
 19 42  1  0
 20 43  1  0
M  CHG  1   3   1
M  END
>  <UniqueID>  (23) 
23

>  <SMILES>  (23) 
CC[NH2+]c1c(CCc2ccccc2)ccc2ccccc12

>  <Energy>  (23) 
50.35584967834266

>  <Genealogy>  (23) 
CC[NH2+]c1c(CCc2ccccc2)ccc2ccccc12 (protonated)
CC[NH2+]c1c(CCc2ccccc2)ccc2ccccc12 (3D coordinates assigned)
CC[NH2+]c1c(CCc2ccccc2)ccc2ccccc12 (optimized conformer: 50.35584967834266 kcal/mol)

>  <smiles>  (23) 
CCNc1c(CCc2ccccc2)ccc2ccccc12

>  <score_type>  (23) 
oracle

>  <origin>  (23) 
adg

>  <m_score__min__energy>  (23) 
-5.9199999999999999

>  <m_primary>  (23) 
energy

$$$$
23:0
     RDKit          3D

 59 62  0  0  0  0  0  0  0  0999 V2000
   57.4820   32.3030   41.3150 C   0  0  0  0  0  0  0  0  0  0  0  0
   58.1400   32.4590   42.6860 C   0  0  0  0  0  0  0  0  0  0  0  0
   57.5300   31.6160   43.7380 N   0  0  0  0  0  0  0  0  0  0  0  0
   56.7320   30.4700   43.2270 C   0  0  0  0  0  0  0  0  0  0  0  0
   55.8650   29.7650   44.2790 C   0  0  0  0  0  0  0  0  0  0  0  0
   56.9690   32.3810   44.8760 C   0  0  0  0  0  0  0  0  0  0  0  0
   57.9870   32.5450   46.0250 C   0  0  0  0  0  0  0  0  0  0  0  0
   59.3710   32.2250   45.6260 N   0  0  0  0  0  0  0  0  0  0  0  0
   60.0460   31.3720   46.5960 C   0  0  0  0  0  0  0  0  0  0  0  0
   61.0830   31.9010   47.4170 C   0  0  0  0  0  0  0  0  0  0  0  0
   61.6010   31.1240   48.4810 C   0  0  0  0  0  0  0  0  0  0  0  0
   60.9550   29.9630   48.8450 N   0  0  0  0  0  0  0  0  0  0  0  0
   61.0590   29.4530   50.2270 C   0  0  0  0  0  0  0  0  0  0  0  0
   60.1360   29.3230   47.9430 C   0  0  0  0  0  0  0  0  0  0  0  0
   59.7540   27.9720   48.1430 C   0  0  0  0  0  0  0  0  0  0  0  0
   58.8980   27.3210   47.2560 C   0  0  0  0  0  0  0  0  0  0  0  0
   58.5230   25.9590   47.4820 N   0  0  0  0  0  0  0  0  0  0  0  0
   58.4190   28.0010   46.1420 C   0  0  0  0  0  0  0  0  0  0  0  0
   58.7950   29.3200   45.9040 C   0  0  0  0  0  0  0  0  0  0  0  0
   59.6620   30.0110   46.7910 C   0  0  0  0  0  0  0  0  0  0  0  0
   62.8740   31.5850   49.1490 C   0  0  0  0  0  0  0  0  0  0  0  0
   63.4390   30.8730   50.1660 N   0  0  0  0  0  0  0  0  0  0  0  0
   64.6060   31.2330   50.7600 C   0  0  0  0  0  0  0  0  0  0  0  0
   65.2930   32.3600   50.3160 C   0  0  0  0  0  0  0  0  0  0  0  0
   64.7760   33.0950   49.2520 C   0  0  0  0  0  0  0  0  0  0  0  0
   63.5630   32.7160   48.6590 C   0  0  0  0  0  0  0  0  0  0  0  0
   63.0850   33.4240   47.4270 C   0  0  0  0  0  0  0  0  0  0  0  0
   61.5680   33.3410   47.3090 C   0  0  0  0  0  0  0  0  0  0  0  0
   56.4192   32.0510   41.4449 H   0  0  0  0  0  0  0  0  0  0  0  0
   57.5695   33.2468   40.7568 H   0  0  0  0  0  0  0  0  0  0  0  0
   57.9839   31.4989   40.7568 H   0  0  0  0  0  0  0  0  0  0  0  0
   59.2017   32.1863   42.5947 H   0  0  0  0  0  0  0  0  0  0  0  0
   58.0005   33.5063   42.9922 H   0  0  0  0  0  0  0  0  0  0  0  0
   56.0691   30.8428   42.4323 H   0  0  0  0  0  0  0  0  0  0  0  0
   57.4576   29.7222   42.8744 H   0  0  0  0  0  0  0  0  0  0  0  0
   56.2094   30.0451   45.2854 H   0  0  0  0  0  0  0  0  0  0  0  0
   54.8155   30.0692   44.1528 H   0  0  0  0  0  0  0  0  0  0  0  0
   55.9487   28.6755   44.1528 H   0  0  0  0  0  0  0  0  0  0  0  0
   56.6720   33.3787   44.5204 H   0  0  0  0  0  0  0  0  0  0  0  0
   56.1055   31.8224   45.2663 H   0  0  0  0  0  0  0  0  0  0  0  0
   57.9559   33.5879   46.3733 H   0  0  0  0  0  0  0  0  0  0  0  0
   57.7030   31.8361   46.8167 H   0  0  0  0  0  0  0  0  0  0  0  0
   59.9110   33.1080   45.4950 H   0  0  0  0  0  0  0  0  0  0  0  0
   59.3540   31.8410   44.6630 H   0  0  0  0  0  0  0  0  0  0  0  0
   60.8909   30.2773   50.9357 H   0  0  0  0  0  0  0  0  0  0  0  0
   60.3017   28.6714   50.3874 H   0  0  0  0  0  0  0  0  0  0  0  0
   62.0618   29.0303   50.3874 H   0  0  0  0  0  0  0  0  0  0  0  0
   60.1412   27.4264   49.0162 H   0  0  0  0  0  0  0  0  0  0  0  0
   58.6210   25.2450   46.7270 H   0  0  0  0  0  0  0  0  0  0  0  0
   58.1460   25.6530   48.4070 H   0  0  0  0  0  0  0  0  0  0  0  0
   57.7378   27.4930   45.4435 H   0  0  0  0  0  0  0  0  0  0  0  0
   58.4130   29.8370   45.0114 H   0  0  0  0  0  0  0  0  0  0  0  0
   65.0082   30.6350   51.5910 H   0  0  0  0  0  0  0  0  0  0  0  0
   66.2324   32.6659   50.7997 H   0  0  0  0  0  0  0  0  0  0  0  0
   65.3199   33.9741   48.8762 H   0  0  0  0  0  0  0  0  0  0  0  0
   63.3853   34.4809   47.4791 H   0  0  0  0  0  0  0  0  0  0  0  0
   63.5339   32.9412   46.5465 H   0  0  0  0  0  0  0  0  0  0  0  0
   61.1127   33.9340   48.1159 H   0  0  0  0  0  0  0  0  0  0  0  0
   61.2741   33.7337   46.3244 H   0  0  0  0  0  0  0  0  0  0  0  0
  1  2  1  0
  2  3  1  0
  3  4  1  0
  4  5  1  0
  3  6  1  0
  6  7  1  0
  7  8  1  0
  8  9  1  0
  9 10  2  0
 10 11  1  0
 11 12  2  0
 12 13  1  0
 12 14  1  0
 14 15  2  0
 15 16  1  0
 16 17  1  0
 16 18  2  0
 18 19  1  0
 19 20  2  0
 11 21  1  0
 21 22  2  0
 22 23  1  0
 23 24  2  0
 24 25  1  0
 25 26  2  0
 26 27  1  0
 27 28  1  0
 20  9  1  0
 26 21  1  0
 28 10  1  0
 20 14  1  0
  1 29  1  0
  1 30  1  0
  1 31  1  0
  2 32  1  0
  2 33  1  0
  4 34  1  0
  4 35  1  0
  5 36  1  0
  5 37  1  0
  5 38  1  0
  6 39  1  0
  6 40  1  0
  7 41  1  0
  7 42  1  0
  8 43  1  0
  8 44  1  0
 13 45  1  0
 13 46  1  0
 13 47  1  0
 15 48  1  0
 17 49  1  0
 17 50  1  0
 18 51  1  0
 19 52  1  0
 23 53  1  0
 24 54  1  0
 25 55  1  0
 27 56  1  0
 27 57  1  0
 28 58  1  0
 28 59  1  0
M  CHG  2   8   1  12   1
M  END
>  <UniqueID>  (24) 
24

>  <SMILES>  (24) 
CCN(CC)CC[NH2+]c1c2c([n+](C)c3cc(N)ccc13)-c1ncccc1CC2

>  <Energy>  (24) 
99.94871281189293

>  <Genealogy>  (24) 
CCN(CC)CC[NH2+]c1c2c([n+](C)c3cc(N)ccc13)-c1ncccc1CC2 (protonated)
CCN(CC)CC[NH2+]c1c2c([n+](C)c3cc(N)ccc13)-c1ncccc1CC2 (3D coordinates assigned)
CCN(CC)CC[NH2+]c1c2c([n+](C)c3cc(N)ccc13)-c1ncccc1CC2 (nonaromatic ring conformer: 99.94871281189293 kcal/mol)

>  <smiles>  (24) 
CCN(CC)CCNc1c2c([n+](C)c3cc(N)ccc13)-c1ncccc1CC2

>  <score_type>  (24) 
oracle

>  <origin>  (24) 
adg

>  <m_score__min__energy>  (24) 
-4.4199999999999999

>  <m_primary>  (24) 
energy

$$$$
24:0
     RDKit          3D

 55 56  0  0  0  0  0  0  0  0999 V2000
   58.8220   29.7570   49.2030 C   0  0  0  0  0  0  0  0  0  0  0  0
   59.0200   30.9040   48.2160 C   0  0  0  0  0  0  0  0  0  0  0  0
   58.8470   30.4190   46.8270 N   0  0  0  0  0  0  0  0  0  0  0  0
   60.0750   30.5840   46.0070 C   0  0  0  0  0  0  0  0  0  0  0  0
   61.3890   30.4970   46.8000 C   0  0  0  0  0  0  0  0  0  0  0  0
   58.2480   29.0640   46.7750 C   0  0  0  0  0  0  0  0  0  0  0  0
   57.5470   28.7890   45.4330 C   0  0  0  0  0  0  0  0  0  0  0  0
   56.4700   29.6800   45.2090 O   0  0  0  0  0  0  0  0  0  0  0  0
   56.5760   30.3470   43.9620 C   0  0  0  0  0  0  0  0  0  0  0  0
   57.5580   31.5230   44.0570 C   0  0  0  0  0  0  0  0  0  0  0  0
   57.0330   32.7060   44.8900 C   0  0  0  0  0  0  0  0  0  0  0  0
   58.0450   33.8520   45.0500 C   0  0  0  0  0  0  0  0  0  0  0  0
   59.0700   33.5320   46.0600 N   0  0  0  0  0  0  0  0  0  0  0  0
   59.0760   34.4700   47.1920 C   0  0  0  0  0  0  0  0  0  0  0  0
   60.0590   34.0290   48.2580 C   0  0  0  0  0  0  0  0  0  0  0  0
   59.5530   33.8720   49.5630 C   0  0  0  0  0  0  0  0  0  0  0  0
   60.3740   33.4450   50.6060 C   0  0  0  0  0  0  0  0  0  0  0  0
   61.7170   33.1610   50.3700 C   0  0  0  0  0  0  0  0  0  0  0  0
   62.2490   33.2970   49.0860 C   0  0  0  0  0  0  0  0  0  0  0  0
   63.5590   32.9960   48.8760 N   0  0  0  0  0  0  0  0  0  0  0  0
   64.1310   33.0910   47.6500 C   0  0  0  0  0  0  0  0  0  0  0  0
   63.3720   33.5010   46.5570 C   0  0  0  0  0  0  0  0  0  0  0  0
   62.0250   33.8190   46.7330 C   0  0  0  0  0  0  0  0  0  0  0  0
   61.4290   33.7310   48.0090 C   0  0  0  0  0  0  0  0  0  0  0  0
   58.8885   30.1424   50.2311 H   0  0  0  0  0  0  0  0  0  0  0  0
   57.8323   29.3037   49.0446 H   0  0  0  0  0  0  0  0  0  0  0  0
   59.6024   28.9982   49.0446 H   0  0  0  0  0  0  0  0  0  0  0  0
   58.2798   31.6915   48.4208 H   0  0  0  0  0  0  0  0  0  0  0  0
   60.0374   31.3058   48.3319 H   0  0  0  0  0  0  0  0  0  0  0  0
   60.0841   29.7957   45.2399 H   0  0  0  0  0  0  0  0  0  0  0  0
   60.0331   31.5979   45.5823 H   0  0  0  0  0  0  0  0  0  0  0  0
   61.1686   30.5116   47.8776 H   0  0  0  0  0  0  0  0  0  0  0  0
   61.9100   29.5624   46.5449 H   0  0  0  0  0  0  0  0  0  0  0  0
   62.0287   31.3548   46.5449 H   0  0  0  0  0  0  0  0  0  0  0  0
   59.0446   28.3189   46.9177 H   0  0  0  0  0  0  0  0  0  0  0  0
   57.4913   28.9987   47.5707 H   0  0  0  0  0  0  0  0  0  0  0  0
   58.2785   28.9033   44.6194 H   0  0  0  0  0  0  0  0  0  0  0  0
   57.1435   27.7661   45.4619 H   0  0  0  0  0  0  0  0  0  0  0  0
   56.9352   29.6372   43.2023 H   0  0  0  0  0  0  0  0  0  0  0  0
   55.5852   30.7354   43.6835 H   0  0  0  0  0  0  0  0  0  0  0  0
   58.4890   31.1609   44.5175 H   0  0  0  0  0  0  0  0  0  0  0  0
   57.7113   31.8954   43.0334 H   0  0  0  0  0  0  0  0  0  0  0  0
   56.1336   33.1043   44.3977 H   0  0  0  0  0  0  0  0  0  0  0  0
   56.8258   32.3195   45.8988 H   0  0  0  0  0  0  0  0  0  0  0  0
   58.5391   34.0298   44.0834 H   0  0  0  0  0  0  0  0  0  0  0  0
   57.5010   34.7482   45.3830 H   0  0  0  0  0  0  0  0  0  0  0  0
   58.8480   32.5850   46.4480 H   0  0  0  0  0  0  0  0  0  0  0  0
   59.3619   35.4686   46.8301 H   0  0  0  0  0  0  0  0  0  0  0  0
   58.0684   34.4936   47.6328 H   0  0  0  0  0  0  0  0  0  0  0  0
   58.4934   34.0897   49.7625 H   0  0  0  0  0  0  0  0  0  0  0  0
   59.9596   33.3320   51.6187 H   0  0  0  0  0  0  0  0  0  0  0  0
   62.3607   32.8285   51.1977 H   0  0  0  0  0  0  0  0  0  0  0  0
   65.1949   32.8441   47.5190 H   0  0  0  0  0  0  0  0  0  0  0  0
   63.8318   33.5738   45.5604 H   0  0  0  0  0  0  0  0  0  0  0  0
   61.4230   34.1408   45.8704 H   0  0  0  0  0  0  0  0  0  0  0  0
  1  2  1  0
  2  3  1  0
  3  4  1  0
  4  5  1  0
  3  6  1  0
  6  7  1  0
  7  8  1  0
  8  9  1  0
  9 10  1  0
 10 11  1  0
 11 12  1  0
 12 13  1  0
 13 14  1  0
 14 15  1  0
 15 16  2  0
 16 17  1  0
 17 18  2  0
 18 19  1  0
 19 20  2  0
 20 21  1  0
 21 22  2  0
 22 23  1  0
 23 24  2  0
 24 15  1  0
 24 19  1  0
  1 25  1  0
  1 26  1  0
  1 27  1  0
  2 28  1  0
  2 29  1  0
  4 30  1  0
  4 31  1  0
  5 32  1  0
  5 33  1  0
  5 34  1  0
  6 35  1  0
  6 36  1  0
  7 37  1  0
  7 38  1  0
  9 39  1  0
  9 40  1  0
 10 41  1  0
 10 42  1  0
 11 43  1  0
 11 44  1  0
 12 45  1  0
 12 46  1  0
 13 47  1  0
 14 48  1  0
 14 49  1  0
 16 50  1  0
 17 51  1  0
 18 52  1  0
 21 53  1  0
 22 54  1  0
 23 55  1  0
M  END
>  <UniqueID>  (25) 
25

>  <SMILES>  (25) 
CCN(CC)CCOCCCCNCc1cccc2ncccc12

>  <Energy>  (25) 
59.956609686137654

>  <Genealogy>  (25) 
CCN(CC)CCOCCCCNCc1cccc2ncccc12 (3D coordinates assigned)
CCN(CC)CCOCCCCNCc1cccc2ncccc12 (optimized conformer: 59.956609686137654 kcal/mol)

>  <smiles>  (25) 
CCN(CC)CCOCCCCNCc1cccc2ncccc12

>  <score_type>  (25) 
oracle

>  <origin>  (25) 
adg

>  <m_score__min__energy>  (25) 
-6.6399999999999997

>  <m_primary>  (25) 
energy

$$$$
25:0
     RDKit          3D

 56 59  0  0  0  0  0  0  0  0999 V2000
   59.8920   33.8370   50.3820 C   0  0  0  0  0  0  0  0  0  0  0  0
   61.3430   33.9570   49.9020 C   0  0  0  0  0  0  0  0  0  0  0  0
   61.9390   32.6440   49.5280 N   0  0  0  0  0  0  0  0  0  0  0  0
   63.2350   32.8610   48.8280 C   0  0  0  0  0  0  0  0  0  0  0  0
   63.0930   32.7510   47.3040 C   0  0  0  0  0  0  0  0  0  0  0  0
   62.1030   31.8020   50.7480 C   0  0  0  0  0  0  0  0  0  0  0  0
   61.5400   30.3590   50.6560 C   0  0  0  0  0  0  0  0  0  0  0  0
   61.3690   29.8000   49.2380 C   0  0  0  0  0  0  0  0  0  0  0  0
   59.9670   29.4890   48.9550 N   0  0  0  0  0  0  0  0  0  0  0  0
   59.3280   29.7740   47.6970 C   0  0  0  0  0  0  0  0  0  0  0  0
   58.6310   28.7780   46.9670 C   0  0  0  0  0  0  0  0  0  0  0  0
   58.4550   27.4830   47.4960 C   0  0  0  0  0  0  0  0  0  0  0  0
   57.7130   26.5260   46.8080 C   0  0  0  0  0  0  0  0  0  0  0  0
   57.1160   26.8440   45.5930 C   0  0  0  0  0  0  0  0  0  0  0  0
   57.2680   28.1170   45.0430 C   0  0  0  0  0  0  0  0  0  0  0  0
   58.0460   29.1050   45.6930 C   0  0  0  0  0  0  0  0  0  0  0  0
   58.2150   30.3710   45.1490 N   0  0  0  0  0  0  0  0  0  0  0  0
   57.8610   30.6690   43.7500 C   0  0  0  0  0  0  0  0  0  0  0  0
   58.7870   31.3360   45.9350 C   0  0  0  0  0  0  0  0  0  0  0  0
   59.3680   31.0520   47.1500 C   0  0  0  0  0  0  0  0  0  0  0  0
   59.9210   32.1250   47.6750 O   0  0  0  0  0  0  0  0  0  0  0  0
   59.6800   33.1230   46.8540 C   0  0  0  0  0  0  0  0  0  0  0  0
   60.0430   34.4540   47.0330 C   0  0  0  0  0  0  0  0  0  0  0  0
   59.6340   35.3870   46.0660 C   0  0  0  0  0  0  0  0  0  0  0  0
   58.8620   34.9750   44.9590 C   0  0  0  0  0  0  0  0  0  0  0  0
   58.5080   33.6240   44.7960 C   0  0  0  0  0  0  0  0  0  0  0  0
   58.9620   32.7030   45.7500 C   0  0  0  0  0  0  0  0  0  0  0  0
   59.8686   33.8351   51.4817 H   0  0  0  0  0  0  0  0  0  0  0  0
   59.3091   34.6900   50.0043 H   0  0  0  0  0  0  0  0  0  0  0  0
   59.4572   32.8998   50.0043 H   0  0  0  0  0  0  0  0  0  0  0  0
   61.3686   34.6175   49.0228 H   0  0  0  0  0  0  0  0  0  0  0  0
   61.9346   34.3632   50.7357 H   0  0  0  0  0  0  0  0  0  0  0  0
   61.2780   32.1640   48.8770 H   0  0  0  0  0  0  0  0  0  0  0  0
   63.6095   33.8647   49.0779 H   0  0  0  0  0  0  0  0  0  0  0  0
   63.9346   32.0800   49.1604 H   0  0  0  0  0  0  0  0  0  0  0  0
   62.2448   32.0940   47.0613 H   0  0  0  0  0  0  0  0  0  0  0  0
   62.9162   33.7501   46.8792 H   0  0  0  0  0  0  0  0  0  0  0  0
   64.0162   32.3301   46.8792 H   0  0  0  0  0  0  0  0  0  0  0  0
   63.1788   31.7308   50.9663 H   0  0  0  0  0  0  0  0  0  0  0  0
   61.5176   32.3004   51.5347 H   0  0  0  0  0  0  0  0  0  0  0  0
   62.2256   29.6935   51.2010 H   0  0  0  0  0  0  0  0  0  0  0  0
   60.5277   30.4047   51.0839 H   0  0  0  0  0  0  0  0  0  0  0  0
   61.7238   30.5473   48.5129 H   0  0  0  0  0  0  0  0  0  0  0  0
   61.9538   28.8718   49.1576 H   0  0  0  0  0  0  0  0  0  0  0  0
   59.3770   29.1850   49.7620 H   0  0  0  0  0  0  0  0  0  0  0  0
   58.9093   27.2253   48.4641 H   0  0  0  0  0  0  0  0  0  0  0  0
   57.5988   25.5154   47.2271 H   0  0  0  0  0  0  0  0  0  0  0  0
   56.5201   26.0869   45.0622 H   0  0  0  0  0  0  0  0  0  0  0  0
   56.7755   28.3568   44.0891 H   0  0  0  0  0  0  0  0  0  0  0  0
   57.0196   31.3773   43.7276 H   0  0  0  0  0  0  0  0  0  0  0  0
   58.7280   31.1132   43.2390 H   0  0  0  0  0  0  0  0  0  0  0  0
   57.5711   29.7390   43.2390 H   0  0  0  0  0  0  0  0  0  0  0  0
   60.6334   34.7668   47.9068 H   0  0  0  0  0  0  0  0  0  0  0  0
   59.9170   36.4446   46.1722 H   0  0  0  0  0  0  0  0  0  0  0  0
   58.5341   35.7176   44.2167 H   0  0  0  0  0  0  0  0  0  0  0  0
   57.8924   33.2992   43.9442 H   0  0  0  0  0  0  0  0  0  0  0  0
  1  2  1  0
  2  3  1  0
  3  4  1  0
  4  5  1  0
  3  6  1  0
  6  7  1  0
  7  8  1  0
  8  9  1  0
  9 10  1  0
 10 11  2  0
 11 12  1  0
 12 13  2  0
 13 14  1  0
 14 15  2  0
 15 16  1  0
 16 17  2  0
 17 18  1  0
 17 19  1  0
 19 20  2  0
 20 21  1  0
 21 22  1  0
 22 23  2  0
 23 24  1  0
 24 25  2  0
 25 26  1  0
 26 27  2  0
 20 10  1  0
 27 22  1  0
 16 11  1  0
 27 19  1  0
  1 28  1  0
  1 29  1  0
  1 30  1  0
  2 31  1  0
  2 32  1  0
  3 33  1  0
  4 34  1  0
  4 35  1  0
  5 36  1  0
  5 37  1  0
  5 38  1  0
  6 39  1  0
  6 40  1  0
  7 41  1  0
  7 42  1  0
  8 43  1  0
  8 44  1  0
  9 45  1  0
 12 46  1  0
 13 47  1  0
 14 48  1  0
 15 49  1  0
 18 50  1  0
 18 51  1  0
 18 52  1  0
 23 53  1  0
 24 54  1  0
 25 55  1  0
 26 56  1  0
M  CHG  2   3   1  17   1
M  END
>  <UniqueID>  (26) 
26

>  <SMILES>  (26) 
CC[NH+](CC)CCCNc1c2ccccc2[n+](C)c2c1oc1ccccc12

>  <Energy>  (26) 
117.14316989818442

>  <Genealogy>  (26) 
CC[NH+](CC)CCCNc1c2ccccc2[n+](C)c2c1oc1ccccc12 (protonated)
CC[NH+](CC)CCCNc1c2ccccc2[n+](C)c2c1oc1ccccc12 (3D coordinates assigned)
CC[NH+](CC)CCCNc1c2ccccc2[n+](C)c2c1oc1ccccc12 (optimized conformer: 117.14316989818442 kcal/mol)

>  <smiles>  (26) 
CCN(CC)CCCNc1c2ccccc2[n+](C)c2c1oc1ccccc12

>  <score_type>  (26) 
oracle

>  <origin>  (26) 
adg

>  <m_score__min__energy>  (26) 
-5.1399999999999997

>  <m_primary>  (26) 
energy

$$$$
26:0
     RDKit          3D

 36 36  0  0  0  0  0  0  0  0999 V2000
   57.4020   33.3810   45.9260 C   0  0  0  0  0  0  0  0  0  0  0  0
   57.7790   33.1860   44.4590 C   0  0  0  0  0  0  0  0  0  0  0  0
   57.7800   31.7090   44.0270 C   0  0  0  0  0  0  0  0  0  0  0  0
   56.5360   30.9110   44.4560 C   0  0  0  0  0  0  0  0  0  0  0  0
   56.6240   29.4200   44.0990 C   0  0  0  0  0  0  0  0  0  0  0  0
   56.1160   28.6000   45.2090 N   0  0  0  0  0  0  0  0  0  0  0  0
   57.0900   27.5760   45.6110 C   0  0  0  0  0  0  0  0  0  0  0  0
   56.3640   26.3540   46.2040 C   0  0  1  0  0  0  0  0  0  0  0  0
   54.9660   26.5160   46.1850 O   0  0  0  0  0  0  0  0  0  0  0  0
   56.7610   25.0750   45.4920 C   0  0  0  0  0  0  0  0  0  0  0  0
   58.0360   24.5170   45.7010 C   0  0  0  0  0  0  0  0  0  0  0  0
   58.4110   23.3420   45.0420 C   0  0  0  0  0  0  0  0  0  0  0  0
   57.5210   22.7130   44.1680 C   0  0  0  0  0  0  0  0  0  0  0  0
   56.2560   23.2600   43.9480 C   0  0  0  0  0  0  0  0  0  0  0  0
   55.8760   24.4360   44.6030 C   0  0  0  0  0  0  0  0  0  0  0  0
   58.1964   32.9701   46.5665 H   0  0  0  0  0  0  0  0  0  0  0  0
   57.2817   34.4544   46.1341 H   0  0  0  0  0  0  0  0  0  0  0  0
   56.4564   32.8589   46.1341 H   0  0  0  0  0  0  0  0  0  0  0  0
   57.0556   33.7324   43.8360 H   0  0  0  0  0  0  0  0  0  0  0  0
   58.8032   33.5660   44.3303 H   0  0  0  0  0  0  0  0  0  0  0  0
   57.8480   31.6733   42.9297 H   0  0  0  0  0  0  0  0  0  0  0  0
   58.6381   31.2395   44.5301 H   0  0  0  0  0  0  0  0  0  0  0  0
   56.4193   31.0037   45.5459 H   0  0  0  0  0  0  0  0  0  0  0  0
   55.6753   31.3281   43.9126 H   0  0  0  0  0  0  0  0  0  0  0  0
   56.0220   29.2259   43.1990 H   0  0  0  0  0  0  0  0  0  0  0  0
   57.6757   29.1577   43.9118 H   0  0  0  0  0  0  0  0  0  0  0  0
   55.2590   28.1030   44.8680 H   0  0  0  0  0  0  0  0  0  0  0  0
   57.6707   27.2618   44.7312 H   0  0  0  0  0  0  0  0  0  0  0  0
   57.7612   27.9990   46.3730 H   0  0  0  0  0  0  0  0  0  0  0  0
   56.6790   26.2750   47.2550 H   0  0  0  0  0  0  0  0  0  0  0  0
   54.7620   27.4650   46.3860 H   0  0  0  0  0  0  0  0  0  0  0  0
   58.7419   25.0081   46.3869 H   0  0  0  0  0  0  0  0  0  0  0  0
   59.4091   22.9120   45.2122 H   0  0  0  0  0  0  0  0  0  0  0  0
   57.8171   21.7870   43.6534 H   0  0  0  0  0  0  0  0  0  0  0  0
   55.5564   22.7653   43.2581 H   0  0  0  0  0  0  0  0  0  0  0  0
   54.8791   24.8644   44.4223 H   0  0  0  0  0  0  0  0  0  0  0  0
  1  2  1  0
  2  3  1  0
  3  4  1  0
  4  5  1  0
  5  6  1  0
  6  7  1  0
  7  8  1  0
  8  9  1  0
  8 10  1  0
 10 11  2  0
 11 12  1  0
 12 13  2  0
 13 14  1  0
 14 15  2  0
 15 10  1  0
  1 16  1  0
  1 17  1  0
  1 18  1  0
  2 19  1  0
  2 20  1  0
  3 21  1  0
  3 22  1  0
  4 23  1  0
  4 24  1  0
  5 25  1  0
  5 26  1  0
  6 27  1  0
  7 28  1  0
  7 29  1  0
  8 30  1  1
  9 31  1  0
 11 32  1  0
 12 33  1  0
 13 34  1  0
 14 35  1  0
 15 36  1  0
M  END
>  <UniqueID>  (27) 
27

>  <SMILES>  (27) 
CCCCCNC[C@@H](O)c1ccccc1

>  <Energy>  (27) 
26.54216537484497

>  <Genealogy>  (27) 
CCCCCNC[C@@H](O)c1ccccc1 (chirality)
CCCCCNC[C@@H](O)c1ccccc1 (3D coordinates assigned)
CCCCCNC[C@@H](O)c1ccccc1 (optimized conformer: 26.54216537484497 kcal/mol)

>  <smiles>  (27) 
CCCCCNCC(O)c1ccccc1

>  <score_type>  (27) 
oracle

>  <origin>  (27) 
adg

>  <m_score__min__energy>  (27) 
-6.6100000000000003

>  <m_primary>  (27) 
energy

$$$$
27:0
     RDKit          3D

 47 48  0  0  0  0  0  0  0  0999 V2000
   56.5440   22.5590   42.9960 C   0  0  0  0  0  0  0  0  0  0  0  0
   57.5850   22.7450   44.0870 C   0  0  0  0  0  0  0  0  0  0  0  0
   57.1950   23.8180   44.9400 O   0  0  0  0  0  0  0  0  0  0  0  0
   57.3600   25.1760   44.6300 C   0  0  0  0  0  0  0  0  0  0  0  0
   57.1030   26.1220   45.6300 C   0  0  0  0  0  0  0  0  0  0  0  0
   57.2510   27.4870   45.3700 C   0  0  0  0  0  0  0  0  0  0  0  0
   57.6800   27.9310   44.1110 C   0  0  0  0  0  0  0  0  0  0  0  0
   57.7810   29.3440   43.8620 N   0  0  0  0  0  0  0  0  0  0  0  0
   56.8770   30.3300   44.3860 C   0  0  0  0  0  0  0  0  0  0  0  0
   55.7250   30.0000   44.7760 O   0  0  0  0  0  0  0  0  0  0  0  0
   57.2820   31.7720   44.4430 C   0  0  0  0  0  0  0  0  0  0  0  0
   57.7610   32.1020   45.8110 N   0  0  0  0  0  0  0  0  0  0  0  0
   57.4550   33.5040   46.1680 C   0  0  0  0  0  0  0  0  0  0  0  0
   58.6770   34.3920   45.9420 C   0  0  0  0  0  0  0  0  0  0  0  0
   59.2100   31.8310   45.9600 C   0  0  0  0  0  0  0  0  0  0  0  0
   59.4550   30.4190   46.4300 C   0  0  0  0  0  0  0  0  0  0  0  0
   60.2480   29.5380   45.6760 C   0  0  0  0  0  0  0  0  0  0  0  0
   60.4630   28.2290   46.1170 C   0  0  0  0  0  0  0  0  0  0  0  0
   59.8950   27.7930   47.3180 C   0  0  0  0  0  0  0  0  0  0  0  0
   59.1100   28.6660   48.0770 C   0  0  0  0  0  0  0  0  0  0  0  0
   58.8860   29.9730   47.6340 C   0  0  0  0  0  0  0  0  0  0  0  0
   57.9220   26.9830   43.1010 C   0  0  0  0  0  0  0  0  0  0  0  0
   57.7660   25.6170   43.3580 C   0  0  0  0  0  0  0  0  0  0  0  0
   55.5597   22.3831   43.4545 H   0  0  0  0  0  0  0  0  0  0  0  0
   56.5013   23.4637   42.3718 H   0  0  0  0  0  0  0  0  0  0  0  0
   56.8173   21.6955   42.3718 H   0  0  0  0  0  0  0  0  0  0  0  0
   57.6674   21.8199   44.6763 H   0  0  0  0  0  0  0  0  0  0  0  0
   58.5578   22.9767   43.6289 H   0  0  0  0  0  0  0  0  0  0  0  0
   56.7822   25.7881   46.6278 H   0  0  0  0  0  0  0  0  0  0  0  0
   57.0290   28.2196   46.1599 H   0  0  0  0  0  0  0  0  0  0  0  0
   58.5500   29.6760   43.2370 H   0  0  0  0  0  0  0  0  0  0  0  0
   58.0894   31.9543   43.7186 H   0  0  0  0  0  0  0  0  0  0  0  0
   56.4164   32.4045   44.1967 H   0  0  0  0  0  0  0  0  0  0  0  0
   56.6251   33.8641   45.5423 H   0  0  0  0  0  0  0  0  0  0  0  0
   57.1749   33.5477   47.2309 H   0  0  0  0  0  0  0  0  0  0  0  0
   59.0945   34.6954   46.9134 H   0  0  0  0  0  0  0  0  0  0  0  0
   59.4363   33.8335   45.3749 H   0  0  0  0  0  0  0  0  0  0  0  0
   58.3803   35.2866   45.3749 H   0  0  0  0  0  0  0  0  0  0  0  0
   59.7041   31.9765   44.9880 H   0  0  0  0  0  0  0  0  0  0  0  0
   59.6187   32.5238   46.7103 H   0  0  0  0  0  0  0  0  0  0  0  0
   60.7019   29.8798   44.7341 H   0  0  0  0  0  0  0  0  0  0  0  0
   61.0793   27.5416   45.5189 H   0  0  0  0  0  0  0  0  0  0  0  0
   60.0658   26.7634   47.6655 H   0  0  0  0  0  0  0  0  0  0  0  0
   58.6678   28.3240   49.0244 H   0  0  0  0  0  0  0  0  0  0  0  0
   58.2618   30.6545   48.2307 H   0  0  0  0  0  0  0  0  0  0  0  0
   58.2363   27.3181   42.1015 H   0  0  0  0  0  0  0  0  0  0  0  0
   57.9618   24.8842   42.5613 H   0  0  0  0  0  0  0  0  0  0  0  0
  1  2  1  0
  2  3  1  0
  3  4  1  0
  4  5  2  0
  5  6  1  0
  6  7  2  0
  7  8  1  0
  8  9  1  0
  9 10  2  0
  9 11  1  0
 11 12  1  0
 12 13  1  0
 13 14  1  0
 12 15  1  0
 15 16  1  0
 16 17  2  0
 17 18  1  0
 18 19  2  0
 19 20  1  0
 20 21  2  0
  7 22  1  0
 22 23  2  0
 23  4  1  0
 21 16  1  0
  1 24  1  0
  1 25  1  0
  1 26  1  0
  2 27  1  0
  2 28  1  0
  5 29  1  0
  6 30  1  0
  8 31  1  0
 11 32  1  0
 11 33  1  0
 13 34  1  0
 13 35  1  0
 14 36  1  0
 14 37  1  0
 14 38  1  0
 15 39  1  0
 15 40  1  0
 17 41  1  0
 18 42  1  0
 19 43  1  0
 20 44  1  0
 21 45  1  0
 22 46  1  0
 23 47  1  0
M  END
>  <UniqueID>  (28) 
28

>  <SMILES>  (28) 
CCOc1ccc(NC(=O)CN(CC)Cc2ccccc2)cc1

>  <Energy>  (28) 
43.32201981013837

>  <Genealogy>  (28) 
CCOc1ccc(NC(=O)CN(CC)Cc2ccccc2)cc1 (3D coordinates assigned)
CCOc1ccc(NC(=O)CN(CC)Cc2ccccc2)cc1 (optimized conformer: 43.32201981013837 kcal/mol)

>  <smiles>  (28) 
CCOc1ccc(NC(=O)CN(CC)Cc2ccccc2)cc1

>  <score_type>  (28) 
oracle

>  <origin>  (28) 
adg

>  <m_score__min__energy>  (28) 
-7.5999999999999996

>  <m_primary>  (28) 
energy

$$$$
28:0
     RDKit          3D

 41 42  0  0  0  0  0  0  0  0999 V2000
   58.5360   33.4530   52.0070 C   0  0  0  0  0  0  0  0  0  0  0  0
   58.6830   32.0850   51.3440 C   0  0  0  0  0  0  0  0  0  0  0  0
   58.7830   32.2200   49.8800 N   0  0  0  0  0  0  0  0  0  0  0  0
   58.9220   30.9120   49.2140 C   0  0  0  0  0  0  0  0  0  0  0  0
   59.6810   31.0170   47.8800 C   0  0  0  0  0  0  0  0  0  0  0  0
   58.7860   31.5940   46.8120 C   0  0  0  0  0  0  0  0  0  0  0  0
   58.2700   30.7530   45.8120 C   0  0  0  0  0  0  0  0  0  0  0  0
   57.3950   31.2550   44.8460 C   0  0  0  0  0  0  0  0  0  0  0  0
   56.7040   30.1030   43.4890 Br  0  0  0  0  0  0  0  0  0  0  0  0
   57.0200   32.6000   44.8770 C   0  0  0  0  0  0  0  0  0  0  0  0
   57.5150   33.4440   45.8740 C   0  0  0  0  0  0  0  0  0  0  0  0
   58.3970   32.9490   46.8550 C   0  0  0  0  0  0  0  0  0  0  0  0
   58.9060   33.7670   47.8800 O   0  0  0  0  0  0  0  0  0  0  0  0
   59.8930   34.7850   47.7170 C   0  0  0  0  0  0  0  0  0  0  0  0
   61.2740   34.2010   47.8380 C   0  0  0  0  0  0  0  0  0  0  0  0
   61.9790   33.8280   46.6820 C   0  0  0  0  0  0  0  0  0  0  0  0
   63.2580   33.2740   46.7860 C   0  0  0  0  0  0  0  0  0  0  0  0
   63.8440   33.0940   48.0430 C   0  0  0  0  0  0  0  0  0  0  0  0
   63.1510   33.4700   49.1980 C   0  0  0  0  0  0  0  0  0  0  0  0
   63.7210   33.2970   50.4150 F   0  0  0  0  0  0  0  0  0  0  0  0
   61.8710   34.0240   49.0970 C   0  0  0  0  0  0  0  0  0  0  0  0
   58.5488   33.3338   53.1004 H   0  0  0  0  0  0  0  0  0  0  0  0
   59.3697   34.1012   51.6990 H   0  0  0  0  0  0  0  0  0  0  0  0
   57.5837   33.9093   51.6990 H   0  0  0  0  0  0  0  0  0  0  0  0
   59.5923   31.5962   51.7239 H   0  0  0  0  0  0  0  0  0  0  0  0
   57.7950   31.4810   51.5821 H   0  0  0  0  0  0  0  0  0  0  0  0
   59.6330   32.7890   49.6560 H   0  0  0  0  0  0  0  0  0  0  0  0
   57.9450   32.7270   49.5080 H   0  0  0  0  0  0  0  0  0  0  0  0
   59.4709   30.2312   49.8813 H   0  0  0  0  0  0  0  0  0  0  0  0
   57.9118   30.5335   48.9989 H   0  0  0  0  0  0  0  0  0  0  0  0
   60.5566   31.6698   48.0112 H   0  0  0  0  0  0  0  0  0  0  0  0
   60.0031   30.0114   47.5717 H   0  0  0  0  0  0  0  0  0  0  0  0
   58.5572   29.6914   45.7896 H   0  0  0  0  0  0  0  0  0  0  0  0
   56.3331   32.9957   44.1144 H   0  0  0  0  0  0  0  0  0  0  0  0
   57.2143   34.5019   45.8934 H   0  0  0  0  0  0  0  0  0  0  0  0
   59.7794   35.2442   46.7239 H   0  0  0  0  0  0  0  0  0  0  0  0
   59.7563   35.5433   48.5020 H   0  0  0  0  0  0  0  0  0  0  0  0
   61.5231   33.9723   45.6914 H   0  0  0  0  0  0  0  0  0  0  0  0
   63.8044   32.9792   45.8780 H   0  0  0  0  0  0  0  0  0  0  0  0
   64.8501   32.6566   48.1232 H   0  0  0  0  0  0  0  0  0  0  0  0
   61.3297   34.3223   50.0069 H   0  0  0  0  0  0  0  0  0  0  0  0
  1  2  1  0
  2  3  1  0
  3  4  1  0
  4  5  1  0
  5  6  1  0
  6  7  2  0
  7  8  1  0
  8  9  1  0
  8 10  2  0
 10 11  1  0
 11 12  2  0
 12 13  1  0
 13 14  1  0
 14 15  1  0
 15 16  2  0
 16 17  1  0
 17 18  2  0
 18 19  1  0
 19 20  1  0
 19 21  2  0
 12  6  1  0
 21 15  1  0
  1 22  1  0
  1 23  1  0
  1 24  1  0
  2 25  1  0
  2 26  1  0
  3 27  1  0
  3 28  1  0
  4 29  1  0
  4 30  1  0
  5 31  1  0
  5 32  1  0
  7 33  1  0
 10 34  1  0
 11 35  1  0
 14 36  1  0
 14 37  1  0
 16 38  1  0
 17 39  1  0
 18 40  1  0
 21 41  1  0
M  CHG  1   3   1
M  END
>  <UniqueID>  (29) 
29

>  <SMILES>  (29) 
CC[NH2+]CCc1cc(Br)ccc1OCc1cccc(F)c1

>  <Energy>  (29) 
35.37622241943579

>  <Genealogy>  (29) 
CC[NH2+]CCc1cc(Br)ccc1OCc1cccc(F)c1 (protonated)
CC[NH2+]CCc1cc(Br)ccc1OCc1cccc(F)c1 (3D coordinates assigned)
CC[NH2+]CCc1cc(Br)ccc1OCc1cccc(F)c1 (optimized conformer: 35.37622241943579 kcal/mol)

>  <smiles>  (29) 
CCNCCc1cc(Br)ccc1OCc1cccc(F)c1

>  <score_type>  (29) 
oracle

>  <origin>  (29) 
adg

>  <m_score__min__energy>  (29) 
-4.54

>  <m_primary>  (29) 
energy

$$$$
29:0
     RDKit          3D

 70 73  0  0  0  0  0  0  0  0999 V2000
   66.8100   32.2400   50.5090 C   0  0  0  0  0  0  0  0  0  0  0  0
   65.6220   33.1070   50.0880 C   0  0  0  0  0  0  0  0  0  0  0  0
   64.5360   32.3070   49.3540 C   0  0  0  0  0  0  0  0  0  0  0  0
   63.8460   33.1220   48.2510 C   0  0  0  0  0  0  0  0  0  0  0  0
   62.4250   33.3030   48.5730 N   0  0  0  0  0  0  0  0  0  0  0  0
   62.0410   33.5000   49.8710 C   0  0  0  0  0  0  0  0  0  0  0  0
   60.6810   33.6350   50.2040 C   0  0  0  0  0  0  0  0  0  0  0  0
   60.2410   33.8570   51.5170 O   0  0  0  0  0  0  0  0  0  0  0  0
   58.8930   34.1450   51.8740 C   0  0  0  0  0  0  0  0  0  0  0  0
   59.7290   33.5370   49.1900 C   0  0  0  0  0  0  0  0  0  0  0  0
   60.1250   33.2970   47.8700 C   0  0  0  0  0  0  0  0  0  0  0  0
   59.1240   33.1770   46.7890 C   0  0  0  0  0  0  0  0  0  0  0  0
   58.7350   34.3690   46.1650 C   0  0  0  0  0  0  0  0  0  0  0  0
   58.0110   34.3450   44.9850 C   0  0  0  0  0  0  0  0  0  0  0  0
   57.6810   33.1330   44.3910 C   0  0  0  0  0  0  0  0  0  0  0  0
   58.0060   31.9010   45.0090 C   0  0  0  0  0  0  0  0  0  0  0  0
   58.6910   31.9210   46.2590 C   0  0  0  0  0  0  0  0  0  0  0  0
   58.8850   30.6790   46.9330 C   0  0  0  0  0  0  0  0  0  0  0  0
   58.8980   30.5870   48.3920 N   0  0  0  0  0  0  0  0  0  0  0  0
   60.1990   30.1330   48.9320 C   0  0  0  0  0  0  0  0  0  0  0  0
   60.2870   30.2650   50.4630 C   0  0  0  0  0  0  0  0  0  0  0  0
   59.1900   31.0880   50.9840 N   0  0  0  0  0  0  0  0  0  0  0  0
   58.2380   30.2610   51.7330 C   0  0  0  0  0  0  0  0  0  0  0  0
   56.9190   31.0050   51.8930 C   0  0  0  0  0  0  0  0  0  0  0  0
   58.8760   29.5030   46.1480 C   0  0  0  0  0  0  0  0  0  0  0  0
   59.4770   28.3050   46.5990 C   0  0  0  0  0  0  0  0  0  0  0  0
   59.4500   27.1540   45.8150 C   0  0  0  0  0  0  0  0  0  0  0  0
   58.8530   27.1780   44.5610 C   0  0  0  0  0  0  0  0  0  0  0  0
   58.2780   28.3540   44.0820 C   0  0  0  0  0  0  0  0  0  0  0  0
   58.2670   29.5350   44.8660 C   0  0  0  0  0  0  0  0  0  0  0  0
   57.6810   30.6970   44.4140 N   0  0  0  0  0  0  0  0  0  0  0  0
   56.7300   30.6560   43.2820 C   0  0  0  0  0  0  0  0  0  0  0  0
   61.4920   33.2070   47.5780 C   0  0  0  0  0  0  0  0  0  0  0  0
   66.8642   32.2004   51.6070 H   0  0  0  0  0  0  0  0  0  0  0  0
   66.6806   31.2226   50.1114 H   0  0  0  0  0  0  0  0  0  0  0  0
   67.7395   32.6736   50.1114 H   0  0  0  0  0  0  0  0  0  0  0  0
   65.1790   33.5582   50.9881 H   0  0  0  0  0  0  0  0  0  0  0  0
   65.9984   33.8720   49.3930 H   0  0  0  0  0  0  0  0  0  0  0  0
   64.9995   31.4195   48.8985 H   0  0  0  0  0  0  0  0  0  0  0  0
   63.7694   32.0305   50.0928 H   0  0  0  0  0  0  0  0  0  0  0  0
   64.3292   34.1069   48.1698 H   0  0  0  0  0  0  0  0  0  0  0  0
   63.9335   32.5829   47.2961 H   0  0  0  0  0  0  0  0  0  0  0  0
   62.8033   33.5534   50.6623 H   0  0  0  0  0  0  0  0  0  0  0  0
   58.8002   34.1648   52.9699 H   0  0  0  0  0  0  0  0  0  0  0  0
   58.6064   35.1246   51.4639 H   0  0  0  0  0  0  0  0  0  0  0  0
   58.2311   33.3680   51.4639 H   0  0  0  0  0  0  0  0  0  0  0  0
   58.6612   33.6490   49.4292 H   0  0  0  0  0  0  0  0  0  0  0  0
   59.0074   35.3341   46.6170 H   0  0  0  0  0  0  0  0  0  0  0  0
   57.6959   35.2889   44.5161 H   0  0  0  0  0  0  0  0  0  0  0  0
   57.1579   33.1305   43.4233 H   0  0  0  0  0  0  0  0  0  0  0  0
   58.7050   31.5050   48.8470 H   0  0  0  0  0  0  0  0  0  0  0  0
   58.1340   29.9690   48.7320 H   0  0  0  0  0  0  0  0  0  0  0  0
   60.3427   29.0766   48.6613 H   0  0  0  0  0  0  0  0  0  0  0  0
   60.9801   30.7747   48.4984 H   0  0  0  0  0  0  0  0  0  0  0  0
   60.2308   29.2634   50.9142 H   0  0  0  0  0  0  0  0  0  0  0  0
   61.2407   30.7500   50.7185 H   0  0  0  0  0  0  0  0  0  0  0  0
   59.5990   31.7890   51.6470 H   0  0  0  0  0  0  0  0  0  0  0  0
   58.0631   29.3217   51.1879 H   0  0  0  0  0  0  0  0  0  0  0  0
   58.6531   30.0418   52.7278 H   0  0  0  0  0  0  0  0  0  0  0  0
   56.6963   31.1306   52.9629 H   0  0  0  0  0  0  0  0  0  0  0  0
   56.9952   31.9932   51.4159 H   0  0  0  0  0  0  0  0  0  0  0  0
   56.1127   30.4286   51.4159 H   0  0  0  0  0  0  0  0  0  0  0  0
   59.9719   28.2818   47.5811 H   0  0  0  0  0  0  0  0  0  0  0  0
   59.9024   26.2240   46.1897 H   0  0  0  0  0  0  0  0  0  0  0  0
   58.8339   26.2671   43.9447 H   0  0  0  0  0  0  0  0  0  0  0  0
   57.8255   28.3658   43.0795 H   0  0  0  0  0  0  0  0  0  0  0  0
   55.7012   30.6116   43.6688 H   0  0  0  0  0  0  0  0  0  0  0  0
   56.8521   31.5602   42.6676 H   0  0  0  0  0  0  0  0  0  0  0  0
   56.9294   29.7656   42.6676 H   0  0  0  0  0  0  0  0  0  0  0  0
   61.8181   33.0576   46.5381 H   0  0  0  0  0  0  0  0  0  0  0  0
  1  2  1  0
  2  3  1  0
  3  4  1  0
  4  5  1  0
  5  6  2  0
  6  7  1  0
  7  8  1  0
  8  9  1  0
  7 10  2  0
 10 11  1  0
 11 12  1  0
 12 13  2  0
 13 14  1  0
 14 15  2  0
 15 16  1  0
 16 17  2  0
 17 18  1  0
 18 19  1  0
 19 20  1  0
 20 21  1  0
 21 22  1  0
 22 23  1  0
 23 24  1  0
 18 25  2  0
 25 26  1  0
 26 27  2  0
 27 28  1  0
 28 29  2  0
 29 30  1  0
 30 31  2  0
 31 32  1  0
 11 33  2  0
 33  5  1  0
 17 12  1  0
 30 25  1  0
 31 16  1  0
  1 34  1  0
  1 35  1  0
  1 36  1  0
  2 37  1  0
  2 38  1  0
  3 39  1  0
  3 40  1  0
  4 41  1  0
  4 42  1  0
  6 43  1  0
  9 44  1  0
  9 45  1  0
  9 46  1  0
 10 47  1  0
 13 48  1  0
 14 49  1  0
 15 50  1  0
 19 51  1  0
 19 52  1  0
 20 53  1  0
 20 54  1  0
 21 55  1  0
 21 56  1  0
 22 57  1  0
 23 58  1  0
 23 59  1  0
 24 60  1  0
 24 61  1  0
 24 62  1  0
 26 63  1  0
 27 64  1  0
 28 65  1  0
 29 66  1  0
 32 67  1  0
 32 68  1  0
 32 69  1  0
 33 70  1  0
M  CHG  3   5   1  19   1  31   1
M  END
>  <UniqueID>  (30) 
30

>  <SMILES>  (30) 
CCCC[n+]1cc(OC)cc(-c2cccc3c2c([NH2+]CCNCC)c2ccccc2[n+]3C)c1

>  <Energy>  (30) 
104.71684874222977

>  <Genealogy>  (30) 
CCCC[n+]1cc(OC)cc(-c2cccc3c2c([NH2+]CCNCC)c2ccccc2[n+]3C)c1 (protonated)
CCCC[n+]1cc(OC)cc(-c2cccc3c2c([NH2+]CCNCC)c2ccccc2[n+]3C)c1 (3D coordinates assigned)
CCCC[n+]1cc(OC)cc(-c2cccc3c2c([NH2+]CCNCC)c2ccccc2[n+]3C)c1 (optimized conformer: 104.71684874222977 kcal/mol)

>  <smiles>  (30) 
CCCC[n+]1cc(OC)cc(-c2cccc3c2c(NCCNCC)c2ccccc2[n+]3C)c1

>  <score_type>  (30) 
oracle

>  <origin>  (30) 
adg

>  <m_score__min__energy>  (30) 
-3.8799999999999999

>  <m_primary>  (30) 
energy

$$$$
30:0
     RDKit          3D

 72 74  0  0  0  0  0  0  0  0999 V2000
   63.7930   31.8220   50.3680 C   0  0  0  0  0  0  0  0  0  0  0  0
   62.3420   31.5640   49.9410 C   0  0  0  0  0  0  0  0  0  0  0  0
   61.5440   32.8100   49.7900 N   0  0  0  0  0  0  0  0  0  0  0  0
   62.0790   33.7750   48.7900 C   0  0  0  0  0  0  0  0  0  0  0  0
   62.5900   33.1500   47.4890 C   0  0  0  0  0  0  0  0  0  0  0  0
   61.1880   33.4550   51.0900 C   0  0  0  0  0  0  0  0  0  0  0  0
   59.6940   33.7970   51.2850 C   0  0  0  0  0  0  0  0  0  0  0  0
   58.8960   32.7980   50.6760 O   0  0  0  0  0  0  0  0  0  0  0  0
   57.8300   32.4040   51.5210 C   0  0  0  0  0  0  0  0  0  0  0  0
   58.0010   30.9550   51.9780 C   0  0  0  0  0  0  0  0  0  0  0  0
   57.9230   30.0970   50.8590 O   0  0  0  0  0  0  0  0  0  0  0  0
   59.1900   29.5320   50.6010 C   0  0  0  0  0  0  0  0  0  0  0  0
   59.6430   29.9300   49.1960 C   0  0  0  0  0  0  0  0  0  0  0  0
   58.7290   30.9080   48.5990 N   0  0  0  0  0  0  0  0  0  0  0  0
   58.6290   31.0820   47.1750 C   0  0  0  0  0  0  0  0  0  0  0  0
   58.7840   32.3590   46.6080 C   0  0  0  0  0  0  0  0  0  0  0  0
   59.1820   33.4600   47.3960 C   0  0  0  0  0  0  0  0  0  0  0  0
   59.3580   34.7180   46.8260 C   0  0  0  0  0  0  0  0  0  0  0  0
   59.1520   34.9000   45.4640 C   0  0  0  0  0  0  0  0  0  0  0  0
   58.7540   33.8280   44.6640 C   0  0  0  0  0  0  0  0  0  0  0  0
   58.5340   32.5410   45.2220 C   0  0  0  0  0  0  0  0  0  0  0  0
   58.0990   31.4780   44.4510 N   0  0  0  0  0  0  0  0  0  0  0  0
   57.5530   31.7160   43.0970 C   0  0  0  0  0  0  0  0  0  0  0  0
   58.1690   30.1900   44.9520 C   0  0  0  0  0  0  0  0  0  0  0  0
   58.0300   29.0550   44.1120 C   0  0  0  0  0  0  0  0  0  0  0  0
   58.0890   27.7480   44.6230 C   0  0  0  0  0  0  0  0  0  0  0  0
   57.9440   26.6060   43.7480 N   0  0  0  0  0  0  0  0  0  0  0  0
   58.1470   26.7490   42.3030 C   0  0  0  0  0  0  0  0  0  0  0  0
   57.6150   25.2880   44.3030 C   0  0  0  0  0  0  0  0  0  0  0  0
   58.3090   27.5690   45.9940 C   0  0  0  0  0  0  0  0  0  0  0  0
   58.4770   28.6650   46.8350 C   0  0  0  0  0  0  0  0  0  0  0  0
   58.4120   29.9780   46.3320 C   0  0  0  0  0  0  0  0  0  0  0  0
   63.8556   31.8331   51.4662 H   0  0  0  0  0  0  0  0  0  0  0  0
   64.4391   31.0246   49.9720 H   0  0  0  0  0  0  0  0  0  0  0  0
   64.1246   32.7932   49.9720 H   0  0  0  0  0  0  0  0  0  0  0  0
   62.3504   31.0355   48.9763 H   0  0  0  0  0  0  0  0  0  0  0  0
   61.8691   30.9679   50.7354 H   0  0  0  0  0  0  0  0  0  0  0  0
   60.6240   32.5040   49.3880 H   0  0  0  0  0  0  0  0  0  0  0  0
   61.2754   34.4816   48.5353 H   0  0  0  0  0  0  0  0  0  0  0  0
   62.9505   34.2520   49.2622 H   0  0  0  0  0  0  0  0  0  0  0  0
   63.2702   32.3181   47.7243 H   0  0  0  0  0  0  0  0  0  0  0  0
   61.7382   32.7729   46.9040 H   0  0  0  0  0  0  0  0  0  0  0  0
   63.1288   33.9099   46.9040 H   0  0  0  0  0  0  0  0  0  0  0  0
   61.4859   32.7712   51.8986 H   0  0  0  0  0  0  0  0  0  0  0  0
   61.7185   34.4186   51.1001 H   0  0  0  0  0  0  0  0  0  0  0  0
   59.4660   33.8431   52.3601 H   0  0  0  0  0  0  0  0  0  0  0  0
   59.4780   34.7709   50.8215 H   0  0  0  0  0  0  0  0  0  0  0  0
   57.8094   33.0598   52.4039 H   0  0  0  0  0  0  0  0  0  0  0  0
   56.8881   32.4857   50.9588 H   0  0  0  0  0  0  0  0  0  0  0  0
   58.9810   30.8367   52.4634 H   0  0  0  0  0  0  0  0  0  0  0  0
   57.2050   30.6992   52.6928 H   0  0  0  0  0  0  0  0  0  0  0  0
   59.9154   29.9030   51.3400 H   0  0  0  0  0  0  0  0  0  0  0  0
   59.1265   28.4361   50.6716 H   0  0  0  0  0  0  0  0  0  0  0  0
   60.6496   30.3697   49.2551 H   0  0  0  0  0  0  0  0  0  0  0  0
   59.6484   29.0292   48.5647 H   0  0  0  0  0  0  0  0  0  0  0  0
   58.0740   31.4340   49.2210 H   0  0  0  0  0  0  0  0  0  0  0  0
   59.3553   33.3226   48.4735 H   0  0  0  0  0  0  0  0  0  0  0  0
   59.6604   35.5686   47.4545 H   0  0  0  0  0  0  0  0  0  0  0  0
   59.3032   35.8926   45.0147 H   0  0  0  0  0  0  0  0  0  0  0  0
   58.6085   33.9824   43.5847 H   0  0  0  0  0  0  0  0  0  0  0  0
   56.5474   32.1543   43.1790 H   0  0  0  0  0  0  0  0  0  0  0  0
   58.2117   32.4087   42.5526 H   0  0  0  0  0  0  0  0  0  0  0  0
   57.4939   30.7620   42.5526 H   0  0  0  0  0  0  0  0  0  0  0  0
   57.8721   29.2024   43.0334 H   0  0  0  0  0  0  0  0  0  0  0  0
   59.0334   27.3734   42.1173 H   0  0  0  0  0  0  0  0  0  0  0  0
   58.2972   25.7562   41.8538 H   0  0  0  0  0  0  0  0  0  0  0  0
   57.2627   27.2247   41.8538 H   0  0  0  0  0  0  0  0  0  0  0  0
   57.6278   25.3392   45.4017 H   0  0  0  0  0  0  0  0  0  0  0  0
   56.6139   24.9859   43.9617 H   0  0  0  0  0  0  0  0  0  0  0  0
   58.3567   24.5509   43.9617 H   0  0  0  0  0  0  0  0  0  0  0  0
   58.3495   26.5518   46.4107 H   0  0  0  0  0  0  0  0  0  0  0  0
   58.6630   28.5031   47.9070 H   0  0  0  0  0  0  0  0  0  0  0  0
  1  2  1  0
  2  3  1  0
  3  4  1  0
  4  5  1  0
  3  6  1  0
  6  7  1  0
  7  8  1  0
  8  9  1  0
  9 10  1  0
 10 11  1  0
 11 12  1  0
 12 13  1  0
 13 14  1  0
 14 15  1  0
 15 16  2  0
 16 17  1  0
 17 18  2  0
 18 19  1  0
 19 20  2  0
 20 21  1  0
 21 22  2  0
 22 23  1  0
 22 24  1  0
 24 25  2  0
 25 26  1  0
 26 27  1  0
 27 28  1  0
 27 29  1  0
 26 30  2  0
 30 31  1  0
 31 32  2  0
 32 15  1  0
 21 16  1  0
 32 24  1  0
  1 33  1  0
  1 34  1  0
  1 35  1  0
  2 36  1  0
  2 37  1  0
  3 38  1  0
  4 39  1  0
  4 40  1  0
  5 41  1  0
  5 42  1  0
  5 43  1  0
  6 44  1  0
  6 45  1  0
  7 46  1  0
  7 47  1  0
  9 48  1  0
  9 49  1  0
 10 50  1  0
 10 51  1  0
 12 52  1  0
 12 53  1  0
 13 54  1  0
 13 55  1  0
 14 56  1  0
 17 57  1  0
 18 58  1  0
 19 59  1  0
 20 60  1  0
 23 61  1  0
 23 62  1  0
 23 63  1  0
 25 64  1  0
 28 65  1  0
 28 66  1  0
 28 67  1  0
 29 68  1  0
 29 69  1  0
 29 70  1  0
 30 71  1  0
 31 72  1  0
M  CHG  2   3   1  22   1
M  END
>  <UniqueID>  (31) 
31

>  <SMILES>  (31) 
CC[NH+](CC)CCOCCOCCNc1c2ccccc2[n+](C)c2cc(N(C)C)ccc12

>  <Energy>  (31) 
105.68279541270331

>  <Genealogy>  (31) 
CC[NH+](CC)CCOCCOCCNc1c2ccccc2[n+](C)c2cc(N(C)C)ccc12 (protonated)
CC[NH+](CC)CCOCCOCCNc1c2ccccc2[n+](C)c2cc(N(C)C)ccc12 (3D coordinates assigned)
CC[NH+](CC)CCOCCOCCNc1c2ccccc2[n+](C)c2cc(N(C)C)ccc12 (optimized conformer: 105.68279541270331 kcal/mol)

>  <smiles>  (31) 
CCN(CC)CCOCCOCCNc1c2ccccc2[n+](C)c2cc(N(C)C)ccc12

>  <score_type>  (31) 
oracle

>  <origin>  (31) 
adg

>  <m_score__min__energy>  (31) 
-3.8599999999999999

>  <m_primary>  (31) 
energy

$$$$
31:0
     RDKit          3D

 42 44  0  0  0  0  0  0  0  0999 V2000
   62.5040   33.4000   47.4690 C   0  0  0  0  0  0  0  0  0  0  0  0
   61.5150   33.8420   46.3920 C   0  0  0  0  0  0  0  0  0  0  0  0
   60.1380   33.9110   46.9280 N   0  0  0  0  0  0  0  0  0  0  0  0
   60.1510   34.5010   48.2760 C   0  0  0  0  0  0  0  0  0  0  0  0
   59.2180   34.6570   46.0310 C   0  0  0  0  0  0  0  0  0  0  0  0
   57.8950   33.8970   45.8790 C   0  0  0  0  0  0  0  0  0  0  0  0
   57.9650   32.5870   46.5450 N   0  0  0  0  0  0  0  0  0  0  0  0
   58.7760   31.6090   45.7860 C   0  0  2  0  0  0  0  0  0  0  0  0
   57.9640   31.0390   44.6340 C   0  0  0  0  0  0  0  0  0  0  0  0
   57.9060   31.7000   43.3950 C   0  0  0  0  0  0  0  0  0  0  0  0
   57.0600   31.2310   42.3850 C   0  0  0  0  0  0  0  0  0  0  0  0
   56.2690   30.0990   42.6010 C   0  0  0  0  0  0  0  0  0  0  0  0
   56.3470   29.4130   43.8160 C   0  0  0  0  0  0  0  0  0  0  0  0
   57.2110   29.8600   44.8190 C   0  0  0  0  0  0  0  0  0  0  0  0
   57.3720   29.1000   45.9810 O   0  0  0  0  0  0  0  0  0  0  0  0
   58.4320   29.3370   46.8600 C   0  0  0  0  0  0  0  0  0  0  0  0
   58.7300   28.4200   47.8180 N   0  0  0  0  0  0  0  0  0  0  0  0
   59.7820   28.5860   48.6640 C   0  0  0  0  0  0  0  0  0  0  0  0
   60.5910   29.7180   48.5600 C   0  0  0  0  0  0  0  0  0  0  0  0
   60.2980   30.6840   47.5950 C   0  0  0  0  0  0  0  0  0  0  0  0
   59.2100   30.5010   46.7290 C   0  0  0  0  0  0  0  0  0  0  0  0
   62.0738   33.5923   48.4630 H   0  0  0  0  0  0  0  0  0  0  0  0
   62.7087   32.3248   47.3598 H   0  0  0  0  0  0  0  0  0  0  0  0
   63.4416   33.9647   47.3598 H   0  0  0  0  0  0  0  0  0  0  0  0
   61.8068   34.8362   46.0228 H   0  0  0  0  0  0  0  0  0  0  0  0
   61.5352   33.1047   45.5759 H   0  0  0  0  0  0  0  0  0  0  0  0
   60.1333   33.6982   49.0278 H   0  0  0  0  0  0  0  0  0  0  0  0
   61.0626   35.1031   48.4039 H   0  0  0  0  0  0  0  0  0  0  0  0
   59.2668   35.1427   48.4039 H   0  0  0  0  0  0  0  0  0  0  0  0
   59.0192   35.6505   46.4593 H   0  0  0  0  0  0  0  0  0  0  0  0
   59.6876   34.7616   45.0418 H   0  0  0  0  0  0  0  0  0  0  0  0
   57.0854   34.4886   46.3312 H   0  0  0  0  0  0  0  0  0  0  0  0
   57.7011   33.7379   44.8080 H   0  0  0  0  0  0  0  0  0  0  0  0
   58.4270   32.7430   47.4720 H   0  0  0  0  0  0  0  0  0  0  0  0
   59.6642   32.1041   45.3664 H   0  0  0  0  0  0  0  0  0  0  0  0
   58.5285   32.5897   43.2190 H   0  0  0  0  0  0  0  0  0  0  0  0
   57.0170   31.7542   41.4183 H   0  0  0  0  0  0  0  0  0  0  0  0
   55.5849   29.7480   41.8144 H   0  0  0  0  0  0  0  0  0  0  0  0
   55.7272   28.5197   43.9830 H   0  0  0  0  0  0  0  0  0  0  0  0
   59.9952   27.8269   49.4310 H   0  0  0  0  0  0  0  0  0  0  0  0
   61.4519   29.8484   49.2321 H   0  0  0  0  0  0  0  0  0  0  0  0
   60.9200   31.5877   47.5141 H   0  0  0  0  0  0  0  0  0  0  0  0
  1  2  1  0
  2  3  1  0
  3  4  1  0
  3  5  1  0
  5  6  1  0
  6  7  1  0
  7  8  1  0
  8  9  1  0
  9 10  2  0
 10 11  1  0
 11 12  2  0
 12 13  1  0
 13 14  2  0
 14 15  1  0
 15 16  1  0
 16 17  2  0
 17 18  1  0
 18 19  2  0
 19 20  1  0
 20 21  2  0
 21  8  1  0
 14  9  1  0
 21 16  1  0
  1 22  1  0
  1 23  1  0
  1 24  1  0
  2 25  1  0
  2 26  1  0
  4 27  1  0
  4 28  1  0
  4 29  1  0
  5 30  1  0
  5 31  1  0
  6 32  1  0
  6 33  1  0
  7 34  1  0
  8 35  1  6
 10 36  1  0
 11 37  1  0
 12 38  1  0
 13 39  1  0
 18 40  1  0
 19 41  1  0
 20 42  1  0
M  END
>  <UniqueID>  (32) 
32

>  <SMILES>  (32) 
CCN(C)CCN[C@@H]1c2ccccc2Oc2ncccc21

>  <Energy>  (32) 
50.02853449821924

>  <Genealogy>  (32) 
CCN(C)CCN[C@@H]1c2ccccc2Oc2ncccc21 (chirality)
CCN(C)CCN[C@@H]1c2ccccc2Oc2ncccc21 (3D coordinates assigned)
CCN(C)CCN[C@@H]1c2ccccc2Oc2ncccc21 (nonaromatic ring conformer: 50.02853449821924 kcal/mol)

>  <smiles>  (32) 
CCN(C)CCNC1c2ccccc2Oc2ncccc21

>  <score_type>  (32) 
oracle

>  <origin>  (32) 
adg

>  <m_score__min__energy>  (32) 
-7.0499999999999998

>  <m_primary>  (32) 
energy

$$$$
32:0
     RDKit          3D

 43 46  0  0  0  0  0  0  0  0999 V2000
   53.3250   23.4770   44.9530 O   0  0  0  0  0  0  0  0  0  0  0  0
   54.1250   24.2490   45.5420 C   0  0  0  0  0  0  0  0  0  0  0  0
   53.8260   25.6040   45.6210 O   0  0  0  0  0  0  0  0  0  0  0  0
   55.3110   23.6860   46.2120 C   0  0  0  0  0  0  0  0  0  0  0  0
   56.4150   24.3700   46.5460 C   0  0  0  0  0  0  0  0  0  0  0  0
   56.8820   25.6120   45.9030 C   0  0  0  0  0  0  0  0  0  0  0  0
   58.1330   25.8430   45.3530 C   0  0  0  0  0  0  0  0  0  0  0  0
   58.1720   27.1300   44.9820 N   0  0  0  0  0  0  0  0  0  0  0  0
   56.9750   27.6390   45.2990 C   0  0  0  0  0  0  0  0  0  0  0  0
   56.1510   26.7510   45.8900 N   0  0  0  0  0  0  0  0  0  0  0  0
   56.6670   29.0340   45.0030 C   0  0  0  0  0  0  0  0  0  0  0  0
   55.5160   29.5020   45.2150 O   0  0  0  0  0  0  0  0  0  0  0  0
   57.7170   29.8440   44.4370 N   0  0  0  0  0  0  0  0  0  0  0  0
   57.4030   31.1220   43.7880 C   0  0  0  0  0  0  0  0  0  0  0  0
   57.9980   32.2570   44.5730 C   0  0  0  0  0  0  0  0  0  0  0  0
   58.4960   33.4000   43.8980 C   0  0  0  0  0  0  0  0  0  0  0  0
   59.0230   34.4850   44.6230 C   0  0  0  0  0  0  0  0  0  0  0  0
   59.0300   34.3960   46.0110 C   0  0  0  0  0  0  0  0  0  0  0  0
   58.5500   33.3090   46.6640 C   0  0  0  0  0  0  0  0  0  0  0  0
   58.0210   32.2140   45.9860 C   0  0  0  0  0  0  0  0  0  0  0  0
   58.6800   33.4960   48.0270 O   0  0  0  0  0  0  0  0  0  0  0  0
   59.2790   34.7810   48.2420 C   0  0  0  0  0  0  0  0  0  0  0  0
   59.4860   35.3220   46.9300 O   0  0  0  0  0  0  0  0  0  0  0  0
   59.1190   29.3730   44.5220 C   0  0  1  0  0  0  0  0  0  0  0  0
   59.6920   29.7280   45.9070 C   0  0  0  0  0  0  0  0  0  0  0  0
   58.7840   29.4010   46.9250 O   0  0  0  0  0  0  0  0  0  0  0  0
   59.2110   27.8470   44.2450 C   0  0  0  0  0  0  0  0  0  0  0  0
   55.2886   22.6143   46.4589 H   0  0  0  0  0  0  0  0  0  0  0  0
   57.0243   23.9704   47.3701 H   0  0  0  0  0  0  0  0  0  0  0  0
   58.9429   25.1070   45.2418 H   0  0  0  0  0  0  0  0  0  0  0  0
   57.8194   31.1255   42.7699 H   0  0  0  0  0  0  0  0  0  0  0  0
   56.3109   31.2463   43.7448 H   0  0  0  0  0  0  0  0  0  0  0  0
   58.4703   33.4391   42.7990 H   0  0  0  0  0  0  0  0  0  0  0  0
   59.4165   35.3743   44.1088 H   0  0  0  0  0  0  0  0  0  0  0  0
   57.6328   31.3421   46.5330 H   0  0  0  0  0  0  0  0  0  0  0  0
   58.6065   35.4278   48.8245 H   0  0  0  0  0  0  0  0  0  0  0  0
   60.2181   34.7077   48.8100 H   0  0  0  0  0  0  0  0  0  0  0  0
   59.7184   29.8777   43.7500 H   0  0  0  0  0  0  0  0  0  0  0  0
   60.6258   29.1683   46.0643 H   0  0  0  0  0  0  0  0  0  0  0  0
   59.8818   30.8110   45.9409 H   0  0  0  0  0  0  0  0  0  0  0  0
   58.6440   28.4200   46.8770 H   0  0  0  0  0  0  0  0  0  0  0  0
   59.0812   27.6660   43.1678 H   0  0  0  0  0  0  0  0  0  0  0  0
   60.1959   27.4841   44.5742 H   0  0  0  0  0  0  0  0  0  0  0  0
  1  2  2  0
  2  3  1  0
  2  4  1  0
  4  5  2  3
  5  6  1  0
  6  7  2  0
  7  8  1  0
  8  9  1  0
  9 10  2  0
  9 11  1  0
 11 12  2  0
 11 13  1  0
 13 14  1  0
 14 15  1  0
 15 16  2  0
 16 17  1  0
 17 18  2  0
 18 19  1  0
 19 20  2  0
 19 21  1  0
 21 22  1  0
 22 23  1  0
 13 24  1  0
 24 25  1  0
 25 26  1  0
 24 27  1  0
 10  6  1  0
 20 15  1  0
 27  8  1  0
 23 18  1  0
  4 28  1  0
  5 29  1  0
  7 30  1  0
 14 31  1  0
 14 32  1  0
 16 33  1  0
 17 34  1  0
 20 35  1  0
 22 36  1  0
 22 37  1  0
 24 38  1  6
 25 39  1  0
 25 40  1  0
 26 41  1  0
 27 42  1  0
 27 43  1  0
M  CHG  1   3  -1
M  END
>  <UniqueID>  (33) 
33

>  <SMILES>  (33) 
O=C([O-])C=Cc1cn2c(n1)C(=O)N(Cc1ccc3c(c1)OCO3)[C@@H](CO)C2

>  <Energy>  (33) 
108.2471685916721

>  <Genealogy>  (33) 
O=C([O-])C=Cc1cn2c(n1)C(=O)N(Cc1ccc3c(c1)OCO3)C(CO)C2 (protonated)
O=C([O-])C=Cc1cn2c(n1)C(=O)N(Cc1ccc3c(c1)OCO3)[C@@H](CO)C2 (chirality)
O=C([O-])C=Cc1cn2c(n1)C(=O)N(Cc1ccc3c(c1)OCO3)[C@@H](CO)C2 (3D coordinates assigned)
O=C([O-])C=Cc1cn2c(n1)C(=O)N(Cc1ccc3c(c1)OCO3)[C@@H](CO)C2 (nonaromatic ring conformer: 108.2471685916721 kcal/mol)

>  <smiles>  (33) 
O=C(O)C=Cc1cn2c(n1)C(=O)N(Cc1ccc3c(c1)OCO3)C(CO)C2

>  <score_type>  (33) 
oracle

>  <origin>  (33) 
adg

>  <m_score__min__energy>  (33) 
-9.6799999999999997

>  <m_primary>  (33) 
energy

$$$$
33:0
     RDKit          3D

 49 51  0  0  0  0  0  0  0  0999 V2000
   56.2490   29.7520   42.9860 C   0  0  0  0  0  0  0  0  0  0  0  0
   57.3330   30.8210   43.0730 C   0  0  0  0  0  0  0  0  0  0  0  0
   58.0350   30.7360   44.3640 N   0  0  0  0  0  0  0  0  0  0  0  0
   58.6310   29.4590   44.7690 C   0  0  0  0  0  0  0  0  0  0  0  0
   58.2420   29.1450   46.2110 C   0  0  0  0  0  0  0  0  0  0  0  0
   58.6410   30.2540   47.0860 N   0  0  0  0  0  0  0  0  0  0  0  0
   59.2670   29.9660   48.3510 C   0  0  0  0  0  0  0  0  0  0  0  0
   58.5500   29.7670   49.3700 O   0  0  0  0  0  0  0  0  0  0  0  0
   60.7670   29.9680   48.4840 C   0  0  0  0  0  0  0  0  0  0  0  0
   61.2900   31.3510   48.3880 N   0  0  0  0  0  0  0  0  0  0  0  0
   61.9870   31.7480   49.6300 C   0  0  0  0  0  0  0  0  0  0  0  0
   62.2040   33.2700   49.7510 C   0  0  0  0  0  0  0  0  0  0  0  0
   61.2710   34.1590   48.8950 C   0  0  0  0  0  0  0  0  0  0  0  0
   61.5560   34.1380   47.3840 C   0  0  0  0  0  0  0  0  0  0  0  0
   62.5220   33.0250   46.9070 C   0  0  0  0  0  0  0  0  0  0  0  0
   62.0570   31.5680   47.1350 C   0  0  0  0  0  0  0  0  0  0  0  0
   58.4200   31.6160   46.6380 C   0  0  0  0  0  0  0  0  0  0  0  0
   58.4480   32.6980   47.5400 C   0  0  0  0  0  0  0  0  0  0  0  0
   58.2370   34.0020   47.0900 C   0  0  0  0  0  0  0  0  0  0  0  0
   57.9870   34.2440   45.7410 C   0  0  0  0  0  0  0  0  0  0  0  0
   57.9290   33.1840   44.8370 C   0  0  0  0  0  0  0  0  0  0  0  0
   58.1290   31.8590   45.2740 C   0  0  0  0  0  0  0  0  0  0  0  0
   55.9462   29.4534   44.0005 H   0  0  0  0  0  0  0  0  0  0  0  0
   55.3788   30.1552   42.4474 H   0  0  0  0  0  0  0  0  0  0  0  0
   56.6401   28.8762   42.4474 H   0  0  0  0  0  0  0  0  0  0  0  0
   58.0555   30.6718   42.2571 H   0  0  0  0  0  0  0  0  0  0  0  0
   56.8643   31.8124   42.9863 H   0  0  0  0  0  0  0  0  0  0  0  0
   58.2650   28.6588   44.1089 H   0  0  0  0  0  0  0  0  0  0  0  0
   59.7263   29.5276   44.6935 H   0  0  0  0  0  0  0  0  0  0  0  0
   57.1528   29.0044   46.2731 H   0  0  0  0  0  0  0  0  0  0  0  0
   58.7532   28.2259   46.5333 H   0  0  0  0  0  0  0  0  0  0  0  0
   61.0454   29.5416   49.4590 H   0  0  0  0  0  0  0  0  0  0  0  0
   61.1990   29.3649   47.6718 H   0  0  0  0  0  0  0  0  0  0  0  0
   61.3875   31.4119   50.4889 H   0  0  0  0  0  0  0  0  0  0  0  0
   62.9817   31.2790   49.6082 H   0  0  0  0  0  0  0  0  0  0  0  0
   62.0590   33.5477   50.8054 H   0  0  0  0  0  0  0  0  0  0  0  0
   63.2198   33.4555   49.3718 H   0  0  0  0  0  0  0  0  0  0  0  0
   60.2371   33.8178   49.0516 H   0  0  0  0  0  0  0  0  0  0  0  0
   61.4455   35.1936   49.2254 H   0  0  0  0  0  0  0  0  0  0  0  0
   60.5984   34.0043   46.8596 H   0  0  0  0  0  0  0  0  0  0  0  0
   62.0548   35.0915   47.1557 H   0  0  0  0  0  0  0  0  0  0  0  0
   62.6817   33.1604   45.8271 H   0  0  0  0  0  0  0  0  0  0  0  0
   63.4283   33.1421   47.5192 H   0  0  0  0  0  0  0  0  0  0  0  0
   61.4195   31.2751   46.2878 H   0  0  0  0  0  0  0  0  0  0  0  0
   62.9697   30.9599   47.2198 H   0  0  0  0  0  0  0  0  0  0  0  0
   58.6377   32.5134   48.6077 H   0  0  0  0  0  0  0  0  0  0  0  0
   58.2681   34.8402   47.8016 H   0  0  0  0  0  0  0  0  0  0  0  0
   57.8349   35.2746   45.3879 H   0  0  0  0  0  0  0  0  0  0  0  0
   57.7256   33.3834   43.7745 H   0  0  0  0  0  0  0  0  0  0  0  0
  1  2  1  0
  2  3  1  0
  3  4  1  0
  4  5  1  0
  5  6  1  0
  6  7  1  0
  7  8  2  0
  7  9  1  0
  9 10  1  0
 10 11  1  0
 11 12  1  0
 12 13  1  0
 13 14  1  0
 14 15  1  0
 15 16  1  0
  6 17  1  0
 17 18  2  0
 18 19  1  0
 19 20  2  0
 20 21  1  0
 21 22  2  0
 22  3  1  0
 16 10  1  0
 22 17  1  0
  1 23  1  0
  1 24  1  0
  1 25  1  0
  2 26  1  0
  2 27  1  0
  4 28  1  0
  4 29  1  0
  5 30  1  0
  5 31  1  0
  9 32  1  0
  9 33  1  0
 11 34  1  0
 11 35  1  0
 12 36  1  0
 12 37  1  0
 13 38  1  0
 13 39  1  0
 14 40  1  0
 14 41  1  0
 15 42  1  0
 15 43  1  0
 16 44  1  0
 16 45  1  0
 18 46  1  0
 19 47  1  0
 20 48  1  0
 21 49  1  0
M  END
>  <UniqueID>  (34) 
34

>  <SMILES>  (34) 
CCN1CCN(C(=O)CN2CCCCCC2)c2ccccc21

>  <Energy>  (34) 
69.87293671493507

>  <Genealogy>  (34) 
CCN1CCN(C(=O)CN2CCCCCC2)c2ccccc21 (3D coordinates assigned)
CCN1CCN(C(=O)CN2CCCCCC2)c2ccccc21 (nonaromatic ring conformer: 69.87293671493507 kcal/mol)

>  <smiles>  (34) 
CCN1CCN(C(=O)CN2CCCCCC2)c2ccccc21

>  <score_type>  (34) 
oracle

>  <origin>  (34) 
adg

>  <m_score__min__energy>  (34) 
-5.2800000000000002

>  <m_primary>  (34) 
energy

$$$$
34:0
     RDKit          3D

 45 48  0  0  0  0  0  0  0  0999 V2000
   55.2600   30.6580   52.1510 C   0  0  0  0  0  0  0  0  0  0  0  0
   56.6630   30.0530   52.2580 C   0  0  0  0  0  0  0  0  0  0  0  0
   57.5070   30.3780   51.0950 N   0  0  0  0  0  0  0  0  0  0  0  0
   58.8170   29.7100   51.1400 C   0  0  0  0  0  0  0  0  0  0  0  0
   59.2430   29.3060   49.7590 C   0  0  0  0  0  0  0  0  0  0  0  0
   60.1400   28.2470   49.5600 C   0  0  0  0  0  0  0  0  0  0  0  0
   60.5090   27.8980   48.2600 C   0  0  0  0  0  0  0  0  0  0  0  0
   59.9890   28.6040   47.1750 C   0  0  0  0  0  0  0  0  0  0  0  0
   59.1090   29.6710   47.4070 C   0  0  0  0  0  0  0  0  0  0  0  0
   58.5040   30.4190   46.2850 C   0  0  0  0  0  0  0  0  0  0  0  0
   57.8300   29.8020   45.2160 C   0  0  0  0  0  0  0  0  0  0  0  0
   57.6870   28.3490   44.9680 C   0  0  0  0  0  0  0  0  0  0  0  0
   57.0700   27.5320   45.9290 C   0  0  0  0  0  0  0  0  0  0  0  0
   56.9360   26.1580   45.7060 C   0  0  0  0  0  0  0  0  0  0  0  0
   57.4050   25.5900   44.5190 C   0  0  0  0  0  0  0  0  0  0  0  0
   57.2240   23.7130   44.2180 Br  0  0  0  0  0  0  0  0  0  0  0  0
   58.0040   26.4000   43.5480 C   0  0  0  0  0  0  0  0  0  0  0  0
   58.1390   27.7740   43.7680 C   0  0  0  0  0  0  0  0  0  0  0  0
   57.2040   30.9940   44.1910 S   0  0  0  0  0  0  0  0  0  0  0  0
   57.7770   32.2900   45.0840 C   0  0  0  0  0  0  0  0  0  0  0  0
   57.6030   33.6460   44.8240 C   0  0  0  0  0  0  0  0  0  0  0  0
   58.1310   34.5700   45.7360 C   0  0  0  0  0  0  0  0  0  0  0  0
   58.8060   34.1250   46.8870 C   0  0  0  0  0  0  0  0  0  0  0  0
   58.9670   32.7500   47.1310 C   0  0  0  0  0  0  0  0  0  0  0  0
   58.4590   31.8280   46.2030 C   0  0  0  0  0  0  0  0  0  0  0  0
   58.7580   29.9850   48.6840 N   0  0  0  0  0  0  0  0  0  0  0  0
   54.8576   30.8315   53.1599 H   0  0  0  0  0  0  0  0  0  0  0  0
   55.3130   31.6132   51.6081 H   0  0  0  0  0  0  0  0  0  0  0  0
   54.6017   29.9638   51.6081 H   0  0  0  0  0  0  0  0  0  0  0  0
   57.1472   30.4430   53.1654 H   0  0  0  0  0  0  0  0  0  0  0  0
   56.5536   28.9591   52.2967 H   0  0  0  0  0  0  0  0  0  0  0  0
   57.0160   30.0990   50.2140 H   0  0  0  0  0  0  0  0  0  0  0  0
   59.5621   30.4003   51.5622 H   0  0  0  0  0  0  0  0  0  0  0  0
   58.7386   28.8103   51.7680 H   0  0  0  0  0  0  0  0  0  0  0  0
   60.5490   27.6965   50.4201 H   0  0  0  0  0  0  0  0  0  0  0  0
   61.2094   27.0668   48.0911 H   0  0  0  0  0  0  0  0  0  0  0  0
   60.2665   28.3265   46.1474 H   0  0  0  0  0  0  0  0  0  0  0  0
   56.6903   27.9748   46.8616 H   0  0  0  0  0  0  0  0  0  0  0  0
   56.4600   25.5227   46.4674 H   0  0  0  0  0  0  0  0  0  0  0  0
   58.3691   25.9552   42.6105 H   0  0  0  0  0  0  0  0  0  0  0  0
   58.6015   28.4085   42.9976 H   0  0  0  0  0  0  0  0  0  0  0  0
   57.0650   33.9839   43.9260 H   0  0  0  0  0  0  0  0  0  0  0  0
   58.0170   35.6483   45.5508 H   0  0  0  0  0  0  0  0  0  0  0  0
   59.2105   34.8577   47.6008 H   0  0  0  0  0  0  0  0  0  0  0  0
   59.4842   32.4015   48.0371 H   0  0  0  0  0  0  0  0  0  0  0  0
  1  2  1  0
  2  3  1  0
  3  4  1  0
  4  5  1  0
  5  6  2  0
  6  7  1  0
  7  8  2  0
  8  9  1  0
  9 10  1  0
 10 11  2  0
 11 12  1  0
 12 13  2  0
 13 14  1  0
 14 15  2  0
 15 16  1  0
 15 17  1  0
 17 18  2  0
 11 19  1  0
 19 20  1  0
 20 21  2  0
 21 22  1  0
 22 23  2  0
 23 24  1  0
 24 25  2  0
  9 26  2  0
 26  5  1  0
 25 10  1  0
 18 12  1  0
 25 20  1  0
  1 27  1  0
  1 28  1  0
  1 29  1  0
  2 30  1  0
  2 31  1  0
  3 32  1  0
  4 33  1  0
  4 34  1  0
  6 35  1  0
  7 36  1  0
  8 37  1  0
 13 38  1  0
 14 39  1  0
 17 40  1  0
 18 41  1  0
 21 42  1  0
 22 43  1  0
 23 44  1  0
 24 45  1  0
M  END
>  <UniqueID>  (35) 
35

>  <SMILES>  (35) 
CCNCc1cccc(-c2c(-c3ccc(Br)cc3)sc3ccccc23)n1

>  <Energy>  (35) 
88.01436474464644

>  <Genealogy>  (35) 
CCNCc1cccc(-c2c(-c3ccc(Br)cc3)sc3ccccc23)n1 (3D coordinates assigned)
CCNCc1cccc(-c2c(-c3ccc(Br)cc3)sc3ccccc23)n1 (optimized conformer: 88.01436474464644 kcal/mol)

>  <smiles>  (35) 
CCNCc1cccc(-c2c(-c3ccc(Br)cc3)sc3ccccc23)n1

>  <score_type>  (35) 
oracle

>  <origin>  (35) 
adg

>  <m_score__min__energy>  (35) 
-8.4299999999999997

>  <m_primary>  (35) 
energy

$$$$
35:0
     RDKit          3D

 34 33  0  0  0  0  0  0  0  0999 V2000
   57.7590   28.2820   44.1830 C   0  0  0  0  0  0  0  0  0  0  0  0
   56.7200   28.5980   45.2560 C   0  0  0  0  0  0  0  0  0  0  0  0
   56.3130   30.0080   45.1790 N   0  0  0  0  0  0  0  0  0  0  0  0
   56.2060   30.4620   43.7860 C   0  0  0  0  0  0  0  0  0  0  0  0
   57.2660   31.5350   43.5070 C   0  0  0  0  0  0  0  0  0  0  0  0
   58.2210   31.7450   44.7030 C   0  0  0  0  0  0  0  0  0  0  0  0
   57.5690   32.4300   45.8550 N   0  0  0  0  0  0  0  0  0  0  0  0
   58.3480   32.2320   47.1080 C   0  0  0  0  0  0  0  0  0  0  0  0
   59.1350   30.9140   47.1660 C   0  0  0  0  0  0  0  0  0  0  0  0
   57.3130   33.8610   45.5400 C   0  0  0  0  0  0  0  0  0  0  0  0
   58.5690   34.6050   45.0730 C   0  0  0  0  0  0  0  0  0  0  0  0
   58.7059   27.9940   44.6630 H   0  0  0  0  0  0  0  0  0  0  0  0
   57.3985   27.4529   43.5564 H   0  0  0  0  0  0  0  0  0  0  0  0
   57.9212   29.1714   43.5564 H   0  0  0  0  0  0  0  0  0  0  0  0
   55.8381   27.9579   45.1056 H   0  0  0  0  0  0  0  0  0  0  0  0
   57.1616   28.4087   46.2455 H   0  0  0  0  0  0  0  0  0  0  0  0
   55.3610   30.0860   45.6100 H   0  0  0  0  0  0  0  0  0  0  0  0
   56.3637   29.6083   43.1104 H   0  0  0  0  0  0  0  0  0  0  0  0
   55.2055   30.8872   43.6181 H   0  0  0  0  0  0  0  0  0  0  0  0
   57.8578   31.2277   42.6322 H   0  0  0  0  0  0  0  0  0  0  0  0
   56.7418   32.4849   43.3258 H   0  0  0  0  0  0  0  0  0  0  0  0
   58.5836   30.7623   45.0389 H   0  0  0  0  0  0  0  0  0  0  0  0
   59.0429   32.3899   44.3587 H   0  0  0  0  0  0  0  0  0  0  0  0
   56.6400   31.9800   46.0230 H   0  0  0  0  0  0  0  0  0  0  0  0
   59.0620   33.0633   47.2039 H   0  0  0  0  0  0  0  0  0  0  0  0
   57.6170   32.1968   47.9292 H   0  0  0  0  0  0  0  0  0  0  0  0
   59.3028   30.6330   48.2162 H   0  0  0  0  0  0  0  0  0  0  0  0
   58.5618   30.1221   46.6617 H   0  0  0  0  0  0  0  0  0  0  0  0
   60.1040   31.0431   46.6617 H   0  0  0  0  0  0  0  0  0  0  0  0
   56.5570   33.9147   44.7428 H   0  0  0  0  0  0  0  0  0  0  0  0
   56.9686   34.3453   46.4656 H   0  0  0  0  0  0  0  0  0  0  0  0
   59.1413   34.9440   45.9491 H   0  0  0  0  0  0  0  0  0  0  0  0
   59.1913   33.9297   44.4674 H   0  0  0  0  0  0  0  0  0  0  0  0
   58.2758   35.4752   44.4674 H   0  0  0  0  0  0  0  0  0  0  0  0
  1  2  1  0
  2  3  1  0
  3  4  1  0
  4  5  1  0
  5  6  1  0
  6  7  1  0
  7  8  1  0
  8  9  1  0
  7 10  1  0
 10 11  1  0
  1 12  1  0
  1 13  1  0
  1 14  1  0
  2 15  1  0
  2 16  1  0
  3 17  1  0
  4 18  1  0
  4 19  1  0
  5 20  1  0
  5 21  1  0
  6 22  1  0
  6 23  1  0
  7 24  1  0
  8 25  1  0
  8 26  1  0
  9 27  1  0
  9 28  1  0
  9 29  1  0
 10 30  1  0
 10 31  1  0
 11 32  1  0
 11 33  1  0
 11 34  1  0
M  CHG  1   7   1
M  END
>  <UniqueID>  (36) 
36

>  <SMILES>  (36) 
CCNCCC[NH+](CC)CC

>  <Energy>  (36) 
26.697488759920887

>  <Genealogy>  (36) 
CCNCCC[NH+](CC)CC (protonated)
CCNCCC[NH+](CC)CC (3D coordinates assigned)
CCNCCC[NH+](CC)CC (optimized conformer: 26.697488759920887 kcal/mol)

>  <smiles>  (36) 
CCNCCCN(CC)CC

>  <score_type>  (36) 
oracle

>  <origin>  (36) 
adg

>  <m_score__min__energy>  (36) 
-2.5499999999999998

>  <m_primary>  (36) 
energy

$$$$
