0:0
     RDKit          3D

 52 55  0  0  0  0  0  0  0  0999 V2000
   56.2730   29.7210   44.3160 C   0  0  0  0  0  0  0  0  0  0  0  0
   57.6880   29.8590   43.7670 C   0  0  0  0  0  0  0  0  0  0  0  0
   58.5430   30.5560   44.7310 N   0  0  0  0  0  0  0  0  0  0  0  0
   59.6270   30.0770   45.4050 C   0  0  0  0  0  0  0  0  0  0  0  0
   60.2420   28.7200   45.1790 C   0  0  0  0  0  0  0  0  0  0  0  0
   59.5920   27.6730   46.0070 N   0  0  0  0  0  0  0  0  0  0  0  0
   59.1850   26.5110   45.1670 C   0  0  0  0  0  0  0  0  0  0  0  0
   57.7100   26.5880   44.7360 C   0  0  0  0  0  0  0  0  0  0  0  0
   56.7840   26.6570   45.8910 N   0  0  0  0  0  0  0  0  0  0  0  0
   56.0430   25.1060   46.2020 S   0  0  0  0  0  0  0  0  0  0  0  0
   54.5980   25.1340   45.7900 O   0  0  0  0  0  0  0  0  0  0  0  0
   56.1250   24.7920   47.6710 O   0  0  0  0  0  0  0  0  0  0  0  0
   56.8720   23.8650   45.2670 C   0  0  0  0  0  0  0  0  0  0  0  0
   56.2850   23.3790   44.0900 C   0  0  0  0  0  0  0  0  0  0  0  0
   56.9340   22.3980   43.3330 C   0  0  0  0  0  0  0  0  0  0  0  0
   58.1740   21.9010   43.7490 C   0  0  0  0  0  0  0  0  0  0  0  0
   58.7640   22.3830   44.9210 C   0  0  0  0  0  0  0  0  0  0  0  0
   58.1160   23.3630   45.6800 C   0  0  0  0  0  0  0  0  0  0  0  0
   57.4110   27.1720   47.1250 C   0  0  0  0  0  0  0  0  0  0  0  0
   58.4620   28.2380   46.7980 C   0  0  0  0  0  0  0  0  0  0  0  0
   60.1500   30.9690   46.2880 N   0  0  0  0  0  0  0  0  0  0  0  0
   59.3380   32.0340   46.1620 C   0  0  0  0  0  0  0  0  0  0  0  0
   59.4090   33.2390   46.8560 C   0  0  0  0  0  0  0  0  0  0  0  0
   58.4340   34.2140   46.5760 C   0  0  0  0  0  0  0  0  0  0  0  0
   57.4220   33.9610   45.6220 C   0  0  0  0  0  0  0  0  0  0  0  0
   57.3790   32.7330   44.9380 C   0  0  0  0  0  0  0  0  0  0  0  0
   58.3660   31.7900   45.2360 C   0  0  0  0  0  0  0  0  0  0  0  0
   56.3044   29.7241   45.4155 H   0  0  0  0  0  0  0  0  0  0  0  0
   55.6595   30.5636   43.9644 H   0  0  0  0  0  0  0  0  0  0  0  0
   55.8338   28.7758   43.9644 H   0  0  0  0  0  0  0  0  0  0  0  0
   58.1010   28.8581   43.5733 H   0  0  0  0  0  0  0  0  0  0  0  0
   57.6540   30.4404   42.8338 H   0  0  0  0  0  0  0  0  0  0  0  0
   60.1332   28.4525   44.1176 H   0  0  0  0  0  0  0  0  0  0  0  0
   61.3021   28.7737   45.4676 H   0  0  0  0  0  0  0  0  0  0  0  0
   60.3040   27.3180   46.6880 H   0  0  0  0  0  0  0  0  0  0  0  0
   59.8157   26.4880   44.2661 H   0  0  0  0  0  0  0  0  0  0  0  0
   59.3114   25.5999   45.7703 H   0  0  0  0  0  0  0  0  0  0  0  0
   57.5698   27.4866   44.1173 H   0  0  0  0  0  0  0  0  0  0  0  0
   57.4773   25.6706   44.1755 H   0  0  0  0  0  0  0  0  0  0  0  0
   55.3111   23.7704   43.7609 H   0  0  0  0  0  0  0  0  0  0  0  0
   56.4698   22.0175   42.4112 H   0  0  0  0  0  0  0  0  0  0  0  0
   58.6850   21.1303   43.1533 H   0  0  0  0  0  0  0  0  0  0  0  0
   59.7389   21.9912   45.2467 H   0  0  0  0  0  0  0  0  0  0  0  0
   58.5820   23.7409   46.6020 H   0  0  0  0  0  0  0  0  0  0  0  0
   56.6347   27.6157   47.7657 H   0  0  0  0  0  0  0  0  0  0  0  0
   57.9052   26.3374   47.6439 H   0  0  0  0  0  0  0  0  0  0  0  0
   57.9861   29.0413   46.2164 H   0  0  0  0  0  0  0  0  0  0  0  0
   58.8657   28.6239   47.7457 H   0  0  0  0  0  0  0  0  0  0  0  0
   60.2003   33.4224   47.5978 H   0  0  0  0  0  0  0  0  0  0  0  0
   58.4594   35.1793   47.1028 H   0  0  0  0  0  0  0  0  0  0  0  0
   56.6633   34.7296   45.4133 H   0  0  0  0  0  0  0  0  0  0  0  0
   56.5960   32.5223   44.1947 H   0  0  0  0  0  0  0  0  0  0  0  0
  1  2  1  0
  2  3  1  0
  3  4  1  0
  4  5  1  0
  5  6  1  0
  6  7  1  0
  7  8  1  0
  8  9  1  0
  9 10  1  0
 10 11  2  0
 10 12  2  0
 10 13  1  0
 13 14  2  0
 14 15  1  0
 15 16  2  0
 16 17  1  0
 17 18  2  0
  9 19  1  0
 19 20  1  0
  4 21  2  0
 21 22  1  0
 22 23  2  0
 23 24  1  0
 24 25  2  0
 25 26  1  0
 26 27  2  0
 27  3  1  0
 20  6  1  0
 27 22  1  0
 18 13  1  0
  1 28  1  0
  1 29  1  0
  1 30  1  0
  2 31  1  0
  2 32  1  0
  5 33  1  0
  5 34  1  0
  6 35  1  0
  7 36  1  0
  7 37  1  0
  8 38  1  0
  8 39  1  0
 14 40  1  0
 15 41  1  0
 16 42  1  0
 17 43  1  0
 18 44  1  0
 19 45  1  0
 19 46  1  0
 20 47  1  0
 20 48  1  0
 23 49  1  0
 24 50  1  0
 25 51  1  0
 26 52  1  0
M  CHG  1   6   1
M  END
>  <UniqueID>  (1) 
1

>  <SMILES>  (1) 
CCn1c(C[NH+]2CCN(S(=O)(=O)c3ccccc3)CC2)nc2ccccc21

>  <Energy>  (1) 
100.63248157921187

>  <Genealogy>  (1) 
CCn1c(C[NH+]2CCN(S(=O)(=O)c3ccccc3)CC2)nc2ccccc21 (protonated)
CCn1c(C[NH+]2CCN(S(=O)(=O)c3ccccc3)CC2)nc2ccccc21 (3D coordinates assigned)
CCn1c(C[NH+]2CCN(S(=O)(=O)c3ccccc3)CC2)nc2ccccc21 (nonaromatic ring conformer: 100.63248157921187 kcal/mol)

>  <smiles>  (1) 
CCn1c(CN2CCN(S(=O)(=O)c3ccccc3)CC2)nc2ccccc21

>  <score_type>  (1) 
oracle

>  <origin>  (1) 
adg

>  <m_score__min__energy>  (1) 
-7.1900000000000004

>  <m_primary>  (1) 
energy

$$$$
1:0
     RDKit          3D

 57 60  0  0  0  0  0  0  0  0999 V2000
   57.1190   25.7050   46.4840 C   0  0  0  0  0  0  0  0  0  0  0  0
   58.0750   26.3600   45.4950 C   0  0  0  0  0  0  0  0  0  0  0  0
   57.4120   27.4800   44.8190 N   0  0  0  0  0  0  0  0  0  0  0  0
   58.4050   28.3310   44.1470 C   0  0  0  0  0  0  0  0  0  0  0  0
   58.1940   29.8170   44.5000 C   0  0  0  0  0  0  0  0  0  0  0  0
   57.5170   30.0290   45.7990 N   0  0  0  0  0  0  0  0  0  0  0  0
   58.3490   30.7390   46.7640 C   0  0  0  0  0  0  0  0  0  0  0  0
   58.5480   32.1430   46.6350 C   0  0  0  0  0  0  0  0  0  0  0  0
   57.9880   32.8850   45.5630 C   0  0  0  0  0  0  0  0  0  0  0  0
   58.1640   34.2640   45.4710 C   0  0  0  0  0  0  0  0  0  0  0  0
   58.8940   34.9390   46.4390 C   0  0  0  0  0  0  0  0  0  0  0  0
   59.4510   34.2400   47.5050 C   0  0  0  0  0  0  0  0  0  0  0  0
   59.2910   32.8370   47.6270 C   0  0  0  0  0  0  0  0  0  0  0  0
   59.8320   32.1560   48.6920 N   0  0  0  0  0  0  0  0  0  0  0  0
   60.0530   32.8970   49.9520 C   0  0  0  0  0  0  0  0  0  0  0  0
   59.9160   30.7790   48.6650 C   0  0  0  0  0  0  0  0  0  0  0  0
   60.8580   30.0470   49.4660 C   0  0  0  0  0  0  0  0  0  0  0  0
   62.2020   30.6220   49.8990 C   0  0  0  0  0  0  0  0  0  0  0  0
   62.6830   31.6910   49.0020 N   0  0  0  0  0  0  0  0  0  0  0  0
   62.7340   31.4960   47.6460 C   0  0  0  0  0  0  0  0  0  0  0  0
   63.2210   32.4950   46.8000 C   0  0  0  0  0  0  0  0  0  0  0  0
   63.6710   33.6950   47.3440 C   0  0  0  0  0  0  0  0  0  0  0  0
   63.6330   33.8820   48.7240 C   0  0  0  0  0  0  0  0  0  0  0  0
   63.1390   32.8650   49.5430 C   0  0  0  0  0  0  0  0  0  0  0  0
   60.7180   28.6560   49.5860 C   0  0  0  0  0  0  0  0  0  0  0  0
   59.7150   27.9820   48.9130 C   0  0  0  0  0  0  0  0  0  0  0  0
   58.9030   28.6560   48.0130 C   0  0  0  0  0  0  0  0  0  0  0  0
   59.0350   30.0510   47.8110 C   0  0  0  0  0  0  0  0  0  0  0  0
   57.4443   25.9279   47.5109 H   0  0  0  0  0  0  0  0  0  0  0  0
   56.1036   26.0980   46.3276 H   0  0  0  0  0  0  0  0  0  0  0  0
   57.1189   24.6162   46.3276 H   0  0  0  0  0  0  0  0  0  0  0  0
   58.9581   26.7323   46.0349 H   0  0  0  0  0  0  0  0  0  0  0  0
   58.3810   25.6167   44.7441 H   0  0  0  0  0  0  0  0  0  0  0  0
   56.7680   27.0790   44.1020 H   0  0  0  0  0  0  0  0  0  0  0  0
   59.4130   28.0261   44.4648 H   0  0  0  0  0  0  0  0  0  0  0  0
   58.2889   28.2108   43.0598 H   0  0  0  0  0  0  0  0  0  0  0  0
   59.1774   30.3084   44.5365 H   0  0  0  0  0  0  0  0  0  0  0  0
   57.5411   30.2425   43.7237 H   0  0  0  0  0  0  0  0  0  0  0  0
   57.1310   29.1350   46.1590 H   0  0  0  0  0  0  0  0  0  0  0  0
   56.6440   30.5820   45.6390 H   0  0  0  0  0  0  0  0  0  0  0  0
   57.4045   32.3622   44.7909 H   0  0  0  0  0  0  0  0  0  0  0  0
   57.7235   34.8187   44.6295 H   0  0  0  0  0  0  0  0  0  0  0  0
   59.0324   36.0276   46.3634 H   0  0  0  0  0  0  0  0  0  0  0  0
   60.0261   34.7861   48.2672 H   0  0  0  0  0  0  0  0  0  0  0  0
   59.8552   32.2337   50.8070 H   0  0  0  0  0  0  0  0  0  0  0  0
   61.0948   33.2476   49.9933 H   0  0  0  0  0  0  0  0  0  0  0  0
   59.3734   33.7610   49.9933 H   0  0  0  0  0  0  0  0  0  0  0  0
   62.0972   31.0350   50.9131 H   0  0  0  0  0  0  0  0  0  0  0  0
   62.9379   29.8052   49.8648 H   0  0  0  0  0  0  0  0  0  0  0  0
   62.3878   30.5429   47.2198 H   0  0  0  0  0  0  0  0  0  0  0  0
   63.2488   32.3349   45.7121 H   0  0  0  0  0  0  0  0  0  0  0  0
   64.0542   34.4906   46.6881 H   0  0  0  0  0  0  0  0  0  0  0  0
   63.9897   34.8244   49.1652 H   0  0  0  0  0  0  0  0  0  0  0  0
   63.1155   33.0073   50.6335 H   0  0  0  0  0  0  0  0  0  0  0  0
   61.4156   28.0937   50.2241 H   0  0  0  0  0  0  0  0  0  0  0  0
   59.5608   26.9077   49.0922 H   0  0  0  0  0  0  0  0  0  0  0  0
   58.1435   28.0972   47.4465 H   0  0  0  0  0  0  0  0  0  0  0  0
  1  2  1  0
  2  3  1  0
  3  4  1  0
  4  5  1  0
  5  6  1  0
  6  7  1  0
  7  8  2  0
  8  9  1  0
  9 10  2  0
 10 11  1  0
 11 12  2  0
 12 13  1  0
 13 14  2  0
 14 15  1  0
 14 16  1  0
 16 17  2  0
 17 18  1  0
 18 19  1  0
 19 20  2  0
 20 21  1  0
 21 22  2  0
 22 23  1  0
 23 24  2  0
 17 25  1  0
 25 26  2  0
 26 27  1  0
 27 28  2  0
 28  7  1  0
 13  8  1  0
 28 16  1  0
 24 19  1  0
  1 29  1  0
  1 30  1  0
  1 31  1  0
  2 32  1  0
  2 33  1  0
  3 34  1  0
  4 35  1  0
  4 36  1  0
  5 37  1  0
  5 38  1  0
  6 39  1  0
  6 40  1  0
  9 41  1  0
 10 42  1  0
 11 43  1  0
 12 44  1  0
 15 45  1  0
 15 46  1  0
 15 47  1  0
 18 48  1  0
 18 49  1  0
 20 50  1  0
 21 51  1  0
 22 52  1  0
 23 53  1  0
 24 54  1  0
 25 55  1  0
 26 56  1  0
 27 57  1  0
M  CHG  3   6   1  14   1  19   1
M  END
>  <UniqueID>  (2) 
2

>  <SMILES>  (2) 
CCNCC[NH2+]c1c2ccccc2[n+](C)c2c(C[n+]3ccccc3)cccc12

>  <Energy>  (2) 
103.0478551027802

>  <Genealogy>  (2) 
CCNCC[NH2+]c1c2ccccc2[n+](C)c2c(C[n+]3ccccc3)cccc12 (protonated)
CCNCC[NH2+]c1c2ccccc2[n+](C)c2c(C[n+]3ccccc3)cccc12 (3D coordinates assigned)
CCNCC[NH2+]c1c2ccccc2[n+](C)c2c(C[n+]3ccccc3)cccc12 (optimized conformer: 103.0478551027802 kcal/mol)

>  <smiles>  (2) 
CCNCCNc1c2ccccc2[n+](C)c2c(C[n+]3ccccc3)cccc12

>  <score_type>  (2) 
oracle

>  <origin>  (2) 
adg

>  <m_score__min__energy>  (2) 
-4.75

>  <m_primary>  (2) 
energy

$$$$
2:0
     RDKit          3D

 55 57  0  0  0  0  0  0  0  0999 V2000
   58.2440   33.5530   45.9740 C   0  0  0  0  0  0  0  0  0  0  0  0
   58.8090   33.7240   47.3820 C   0  0  0  0  0  0  0  0  0  0  0  0
   59.9790   32.8570   47.5910 N   0  0  0  0  0  0  0  0  0  0  0  0
   61.2580   33.4700   47.9860 C   0  0  0  0  0  0  0  0  0  0  0  0
   62.1340   33.7350   46.7640 C   0  0  0  0  0  0  0  0  0  0  0  0
   59.8660   31.4250   47.4140 C   0  0  0  0  0  0  0  0  0  0  0  0
   59.0620   30.6550   48.2760 C   0  0  0  0  0  0  0  0  0  0  0  0
   58.9410   29.2750   48.0930 C   0  0  0  0  0  0  0  0  0  0  0  0
   59.6250   28.6370   47.0470 C   0  0  0  0  0  0  0  0  0  0  0  0
   59.4720   27.1550   46.8240 C   0  0  0  0  0  0  0  0  0  0  0  0
   58.2800   26.8610   45.9990 N   0  0  0  0  0  0  0  0  0  0  0  0
   57.0160   26.6950   46.7550 C   0  0  0  0  0  0  0  0  0  0  0  0
   56.0600   25.7030   46.1430 C   0  0  0  0  0  0  0  0  0  0  0  0
   56.3880   24.4410   45.6830 C   0  0  0  0  0  0  0  0  0  0  0  0
   55.2120   23.8990   45.2110 C   0  0  0  0  0  0  0  0  0  0  0  0
   54.2430   24.8620   45.4040 C   0  0  0  0  0  0  0  0  0  0  0  0
   54.7800   25.9240   45.9580 O   0  0  0  0  0  0  0  0  0  0  0  0
   58.1700   27.6310   44.7370 C   0  0  0  0  0  0  0  0  0  0  0  0
   57.4680   28.9980   44.8810 C   0  0  1  0  0  0  0  0  0  0  0  0
   57.8580   29.9510   43.7630 C   0  0  0  0  0  0  0  0  0  0  0  0
   56.6610   30.8460   43.6670 C   0  0  0  0  0  0  0  0  0  0  0  0
   55.5340   29.9900   44.2210 C   0  0  0  0  0  0  0  0  0  0  0  0
   56.0700   28.8340   44.8250 O   0  0  0  0  0  0  0  0  0  0  0  0
   60.4270   29.3980   46.1860 C   0  0  0  0  0  0  0  0  0  0  0  0
   60.5490   30.7770   46.3680 C   0  0  0  0  0  0  0  0  0  0  0  0
   57.1929   33.2349   46.0368 H   0  0  0  0  0  0  0  0  0  0  0  0
   58.3059   34.5101   45.4354 H   0  0  0  0  0  0  0  0  0  0  0  0
   58.8262   32.7908   45.4354 H   0  0  0  0  0  0  0  0  0  0  0  0
   59.1088   34.7728   47.5241 H   0  0  0  0  0  0  0  0  0  0  0  0
   58.0314   33.4431   48.1075 H   0  0  0  0  0  0  0  0  0  0  0  0
   61.0580   34.4221   48.4993 H   0  0  0  0  0  0  0  0  0  0  0  0
   61.7884   32.7772   48.6558 H   0  0  0  0  0  0  0  0  0  0  0  0
   63.1389   34.0390   47.0922 H   0  0  0  0  0  0  0  0  0  0  0  0
   62.2072   32.8188   46.1597 H   0  0  0  0  0  0  0  0  0  0  0  0
   61.6871   34.5381   46.1597 H   0  0  0  0  0  0  0  0  0  0  0  0
   58.5240   31.1444   49.1013 H   0  0  0  0  0  0  0  0  0  0  0  0
   58.3067   28.6862   48.7719 H   0  0  0  0  0  0  0  0  0  0  0  0
   60.3672   26.7747   46.3102 H   0  0  0  0  0  0  0  0  0  0  0  0
   59.3499   26.6653   47.8014 H   0  0  0  0  0  0  0  0  0  0  0  0
   57.2633   26.3549   47.7715 H   0  0  0  0  0  0  0  0  0  0  0  0
   56.5097   27.6715   46.7458 H   0  0  0  0  0  0  0  0  0  0  0  0
   57.3811   23.9680   45.6919 H   0  0  0  0  0  0  0  0  0  0  0  0
   55.0739   22.9009   44.7698 H   0  0  0  0  0  0  0  0  0  0  0  0
   53.1818   24.7560   45.1346 H   0  0  0  0  0  0  0  0  0  0  0  0
   59.1852   27.8050   44.3510 H   0  0  0  0  0  0  0  0  0  0  0  0
   57.5486   27.0301   44.0568 H   0  0  0  0  0  0  0  0  0  0  0  0
   57.7812   29.4161   45.8491 H   0  0  0  0  0  0  0  0  0  0  0  0
   58.7612   30.5219   44.0244 H   0  0  0  0  0  0  0  0  0  0  0  0
   58.1019   29.4424   42.8186 H   0  0  0  0  0  0  0  0  0  0  0  0
   56.7993   31.7541   44.2722 H   0  0  0  0  0  0  0  0  0  0  0  0
   56.4690   31.1970   42.6423 H   0  0  0  0  0  0  0  0  0  0  0  0
   54.9708   30.5664   44.9697 H   0  0  0  0  0  0  0  0  0  0  0  0
   54.8625   29.6954   43.4010 H   0  0  0  0  0  0  0  0  0  0  0  0
   60.9638   28.9059   45.3616 H   0  0  0  0  0  0  0  0  0  0  0  0
   61.1849   31.3623   45.6875 H   0  0  0  0  0  0  0  0  0  0  0  0
  1  2  1  0
  2  3  1  0
  3  4  1  0
  4  5  1  0
  3  6  1  0
  6  7  2  0
  7  8  1  0
  8  9  2  0
  9 10  1  0
 10 11  1  0
 11 12  1  0
 12 13  1  0
 13 14  2  0
 14 15  1  0
 15 16  2  0
 16 17  1  0
 11 18  1  0
 18 19  1  0
 19 20  1  0
 20 21  1  0
 21 22  1  0
 22 23  1  0
  9 24  1  0
 24 25  2  0
 25  6  1  0
 17 13  1  0
 23 19  1  0
  1 26  1  0
  1 27  1  0
  1 28  1  0
  2 29  1  0
  2 30  1  0
  4 31  1  0
  4 32  1  0
  5 33  1  0
  5 34  1  0
  5 35  1  0
  7 36  1  0
  8 37  1  0
 10 38  1  0
 10 39  1  0
 12 40  1  0
 12 41  1  0
 14 42  1  0
 15 43  1  0
 16 44  1  0
 18 45  1  0
 18 46  1  0
 19 47  1  1
 20 48  1  0
 20 49  1  0
 21 50  1  0
 21 51  1  0
 22 52  1  0
 22 53  1  0
 24 54  1  0
 25 55  1  0
M  END
>  <UniqueID>  (3) 
3

>  <SMILES>  (3) 
CCN(CC)c1ccc(CN(Cc2ccco2)C[C@H]2CCCO2)cc1

>  <Energy>  (3) 
86.08459678638927

>  <Genealogy>  (3) 
CCN(CC)c1ccc(CN(Cc2ccco2)C[C@H]2CCCO2)cc1 (chirality)
CCN(CC)c1ccc(CN(Cc2ccco2)C[C@H]2CCCO2)cc1 (3D coordinates assigned)
CCN(CC)c1ccc(CN(Cc2ccco2)C[C@H]2CCCO2)cc1 (nonaromatic ring conformer: 86.08459678638927 kcal/mol)

>  <smiles>  (3) 
CCN(CC)c1ccc(CN(Cc2ccco2)CC2CCCO2)cc1

>  <score_type>  (3) 
oracle

>  <origin>  (3) 
adg

>  <m_score__min__energy>  (3) 
-7.3099999999999996

>  <m_primary>  (3) 
energy

$$$$
3:0
     RDKit          3D

 50 52  0  0  0  0  0  0  0  0999 V2000
   63.3700   33.9480   46.3440 C   0  0  0  0  0  0  0  0  0  0  0  0
   63.0730   33.8190   47.8430 C   0  0  0  0  0  0  0  0  0  0  0  0
   63.8370   32.7110   48.4790 N   0  0  0  0  0  0  0  0  0  0  0  0
   64.4600   33.1740   49.7510 C   0  0  0  0  0  0  0  0  0  0  0  0
   65.7030   32.3570   50.1200 C   0  0  0  0  0  0  0  0  0  0  0  0
   62.9430   31.5530   48.7440 C   0  0  0  0  0  0  0  0  0  0  0  0
   62.1540   31.0940   47.4920 C   0  0  0  0  0  0  0  0  0  0  0  0
   60.7170   30.9980   47.7650 N   0  0  0  0  0  0  0  0  0  0  0  0
   59.7400   30.9870   46.7110 C   0  0  0  0  0  0  0  0  0  0  0  0
   59.2230   32.1820   46.1590 C   0  0  0  0  0  0  0  0  0  0  0  0
   59.5440   33.4350   46.7190 C   0  0  0  0  0  0  0  0  0  0  0  0
   59.0460   34.6110   46.1640 C   0  0  0  0  0  0  0  0  0  0  0  0
   58.2100   34.5610   45.0530 C   0  0  0  0  0  0  0  0  0  0  0  0
   57.8470   33.3330   44.4980 C   0  0  0  0  0  0  0  0  0  0  0  0
   58.3300   32.1170   45.0400 C   0  0  0  0  0  0  0  0  0  0  0  0
   57.9460   30.8920   44.5230 N   0  0  0  0  0  0  0  0  0  0  0  0
   57.0410   30.8040   43.3620 C   0  0  0  0  0  0  0  0  0  0  0  0
   58.4070   29.7530   45.1280 C   0  0  0  0  0  0  0  0  0  0  0  0
   58.0750   28.1470   44.7190 S   0  0  0  0  0  0  0  0  0  0  0  0
   59.0290   27.4750   45.9360 C   0  0  0  0  0  0  0  0  0  0  0  0
   59.2780   26.0150   46.1200 C   0  0  0  0  0  0  0  0  0  0  0  0
   59.6390   28.4940   46.6590 C   0  0  0  0  0  0  0  0  0  0  0  0
   59.2790   29.7720   46.2050 C   0  0  0  0  0  0  0  0  0  0  0  0
   64.3708   34.3827   46.2046 H   0  0  0  0  0  0  0  0  0  0  0  0
   63.3339   32.9531   45.8761 H   0  0  0  0  0  0  0  0  0  0  0  0
   62.6183   34.6007   45.8761 H   0  0  0  0  0  0  0  0  0  0  0  0
   63.3414   34.7635   48.3390 H   0  0  0  0  0  0  0  0  0  0  0  0
   62.0018   33.5955   47.9549 H   0  0  0  0  0  0  0  0  0  0  0  0
   64.5940   32.4030   47.8230 H   0  0  0  0  0  0  0  0  0  0  0  0
   64.7503   34.2291   49.6393 H   0  0  0  0  0  0  0  0  0  0  0  0
   63.7206   33.0441   50.5550 H   0  0  0  0  0  0  0  0  0  0  0  0
   65.7917   32.2987   51.2149 H   0  0  0  0  0  0  0  0  0  0  0  0
   65.6114   31.3424   49.7050 H   0  0  0  0  0  0  0  0  0  0  0  0
   66.5980   32.8435   49.7050 H   0  0  0  0  0  0  0  0  0  0  0  0
   63.5562   30.7116   49.0991 H   0  0  0  0  0  0  0  0  0  0  0  0
   62.2068   31.8729   49.4961 H   0  0  0  0  0  0  0  0  0  0  0  0
   62.3157   31.8204   46.6820 H   0  0  0  0  0  0  0  0  0  0  0  0
   62.5168   30.0965   47.2033 H   0  0  0  0  0  0  0  0  0  0  0  0
   60.4010   30.7990   48.7420 H   0  0  0  0  0  0  0  0  0  0  0  0
   60.1951   33.4844   47.6042 H   0  0  0  0  0  0  0  0  0  0  0  0
   59.3143   35.5823   46.6052 H   0  0  0  0  0  0  0  0  0  0  0  0
   57.8331   35.4945   44.6096 H   0  0  0  0  0  0  0  0  0  0  0  0
   57.1759   33.3092   43.6268 H   0  0  0  0  0  0  0  0  0  0  0  0
   56.0033   30.7031   43.7128 H   0  0  0  0  0  0  0  0  0  0  0  0
   57.1354   31.7156   42.7536 H   0  0  0  0  0  0  0  0  0  0  0  0
   57.3092   29.9277   42.7536 H   0  0  0  0  0  0  0  0  0  0  0  0
   59.3177   25.7824   47.1944 H   0  0  0  0  0  0  0  0  0  0  0  0
   58.4646   25.4423   45.6506 H   0  0  0  0  0  0  0  0  0  0  0  0
   60.2353   25.7443   45.6506 H   0  0  0  0  0  0  0  0  0  0  0  0
   60.3296   28.3173   47.4968 H   0  0  0  0  0  0  0  0  0  0  0  0
  1  2  1  0
  2  3  1  0
  3  4  1  0
  4  5  1  0
  3  6  1  0
  6  7  1  0
  7  8  1  0
  8  9  1  0
  9 10  2  0
 10 11  1  0
 11 12  2  0
 12 13  1  0
 13 14  2  0
 14 15  1  0
 15 16  2  0
 16 17  1  0
 16 18  1  0
 18 19  1  0
 19 20  1  0
 20 21  1  0
 20 22  2  0
 22 23  1  0
 23  9  1  0
 15 10  1  0
 23 18  2  0
  1 24  1  0
  1 25  1  0
  1 26  1  0
  2 27  1  0
  2 28  1  0
  3 29  1  0
  4 30  1  0
  4 31  1  0
  5 32  1  0
  5 33  1  0
  5 34  1  0
  6 35  1  0
  6 36  1  0
  7 37  1  0
  7 38  1  0
  8 39  1  0
 11 40  1  0
 12 41  1  0
 13 42  1  0
 14 43  1  0
 17 44  1  0
 17 45  1  0
 17 46  1  0
 21 47  1  0
 21 48  1  0
 21 49  1  0
 22 50  1  0
M  CHG  2   3   1  16   1
M  END
>  <UniqueID>  (4) 
4

>  <SMILES>  (4) 
CC[NH+](CC)CCNc1c2ccccc2[n+](C)c2sc(C)cc12

>  <Energy>  (4) 
98.76783250649837

>  <Genealogy>  (4) 
CC[NH+](CC)CCNc1c2ccccc2[n+](C)c2sc(C)cc12 (protonated)
CC[NH+](CC)CCNc1c2ccccc2[n+](C)c2sc(C)cc12 (3D coordinates assigned)
CC[NH+](CC)CCNc1c2ccccc2[n+](C)c2sc(C)cc12 (optimized conformer: 98.76783250649837 kcal/mol)

>  <smiles>  (4) 
CCN(CC)CCNc1c2ccccc2[n+](C)c2sc(C)cc12

>  <score_type>  (4) 
oracle

>  <origin>  (4) 
adg

>  <m_score__min__energy>  (4) 
-4.6500000000000004

>  <m_primary>  (4) 
energy

$$$$
4:0
     RDKit          3D

 36 37  0  0  0  0  0  0  0  0999 V2000
   59.2400   34.6470   47.5100 C   0  0  0  0  0  0  0  0  0  0  0  0
   59.3590   33.1460   47.2740 C   0  0  0  0  0  0  0  0  0  0  0  0
   58.5780   32.7520   46.1020 N   0  0  0  0  0  0  0  0  0  0  0  0
   57.8200   31.6430   46.0050 C   0  0  0  0  0  0  0  0  0  0  0  0
   57.2910   31.5500   44.7280 C   0  0  0  0  0  0  0  0  0  0  0  0
   56.4290   30.4390   44.1800 C   0  0  2  0  0  0  0  0  0  0  0  0
   55.9490   29.6280   45.2210 O   0  0  0  0  0  0  0  0  0  0  0  0
   57.1370   29.6290   43.1670 N   0  0  0  0  0  0  0  0  0  0  0  0
   57.4380   28.2500   43.5960 C   0  0  0  0  0  0  0  0  0  0  0  0
   58.3340   28.2400   44.8130 C   0  0  0  0  0  0  0  0  0  0  0  0
   59.4990   29.0290   44.7990 C   0  0  0  0  0  0  0  0  0  0  0  0
   60.3580   29.0500   45.9010 C   0  0  0  0  0  0  0  0  0  0  0  0
   60.0600   28.2920   47.0340 C   0  0  0  0  0  0  0  0  0  0  0  0
   60.8950   28.3140   48.1010 F   0  0  0  0  0  0  0  0  0  0  0  0
   58.9000   27.5160   47.0690 C   0  0  0  0  0  0  0  0  0  0  0  0
   58.0300   27.4870   45.9720 C   0  0  0  0  0  0  0  0  0  0  0  0
   56.5750   26.5030   46.1060 Cl  0  0  0  0  0  0  0  0  0  0  0  0
   57.7510   32.6430   44.0150 C   0  0  0  0  0  0  0  0  0  0  0  0
   58.5460   33.3510   44.8920 C   0  0  0  0  0  0  0  0  0  0  0  0
   59.2330   34.5170   44.5600 O   0  0  0  0  0  0  0  0  0  0  0  0
   59.2241   34.8480   48.5914 H   0  0  0  0  0  0  0  0  0  0  0  0
   60.1004   35.1591   47.0545 H   0  0  0  0  0  0  0  0  0  0  0  0
   58.3097   35.0172   47.0545 H   0  0  0  0  0  0  0  0  0  0  0  0
   60.4154   32.8873   47.1095 H   0  0  0  0  0  0  0  0  0  0  0  0
   58.9731   32.6139   48.1560 H   0  0  0  0  0  0  0  0  0  0  0  0
   57.6472   30.9208   46.8165 H   0  0  0  0  0  0  0  0  0  0  0  0
   55.5732   30.9096   43.6739 H   0  0  0  0  0  0  0  0  0  0  0  0
   55.1780   30.1080   45.6210 H   0  0  0  0  0  0  0  0  0  0  0  0
   58.0400   30.1040   42.9350 H   0  0  0  0  0  0  0  0  0  0  0  0
   56.4963   27.7363   43.8394 H   0  0  0  0  0  0  0  0  0  0  0  0
   57.9593   27.7356   42.7752 H   0  0  0  0  0  0  0  0  0  0  0  0
   59.7358   29.6351   43.9121 H   0  0  0  0  0  0  0  0  0  0  0  0
   61.2699   29.6646   45.8753 H   0  0  0  0  0  0  0  0  0  0  0  0
   58.6675   26.9225   47.9655 H   0  0  0  0  0  0  0  0  0  0  0  0
   57.5290   32.8947   42.9675 H   0  0  0  0  0  0  0  0  0  0  0  0
   58.8220   35.4330   44.6820 H   0  0  0  0  0  0  0  0  0  0  0  0
  1  2  1  0
  2  3  1  0
  3  4  1  0
  4  5  2  0
  5  6  1  0
  6  7  1  0
  6  8  1  0
  8  9  1  0
  9 10  1  0
 10 11  2  0
 11 12  1  0
 12 13  2  0
 13 14  1  0
 13 15  1  0
 15 16  2  0
 16 17  1  0
  5 18  1  0
 18 19  2  0
 19 20  1  0
 19  3  1  0
 16 10  1  0
  1 21  1  0
  1 22  1  0
  1 23  1  0
  2 24  1  0
  2 25  1  0
  4 26  1  0
  6 27  1  6
  7 28  1  0
  8 29  1  0
  9 30  1  0
  9 31  1  0
 11 32  1  0
 12 33  1  0
 15 34  1  0
 18 35  1  0
 20 36  1  0
M  END
>  <UniqueID>  (5) 
5

>  <SMILES>  (5) 
CCn1cc([C@H](O)NCc2ccc(F)cc2Cl)cc1O

>  <Energy>  (5) 
61.69587594866311

>  <Genealogy>  (5) 
CCn1cc([C@H](O)NCc2ccc(F)cc2Cl)cc1O (chirality)
CCn1cc([C@H](O)NCc2ccc(F)cc2Cl)cc1O (3D coordinates assigned)
CCn1cc([C@H](O)NCc2ccc(F)cc2Cl)cc1O (optimized conformer: 61.69587594866311 kcal/mol)

>  <smiles>  (5) 
CCn1cc(C(O)NCc2ccc(F)cc2Cl)cc1O

>  <score_type>  (5) 
oracle

>  <origin>  (5) 
adg

>  <m_score__min__energy>  (5) 
-7.2999999999999998

>  <m_primary>  (5) 
energy

$$$$
5:0
     RDKit          3D

 39 42  0  0  0  0  0  0  0  0999 V2000
   63.3940   33.8490   46.8050 C   0  0  0  0  0  0  0  0  0  0  0  0
   62.9750   32.7650   47.1230 C   0  0  0  0  0  0  0  0  0  0  0  0
   62.4680   31.4380   47.5070 C   0  0  0  0  0  0  0  0  0  0  0  0
   61.1210   31.5150   48.0970 N   0  0  0  0  0  0  0  0  0  0  0  0
   60.0840   31.3500   47.0930 C   0  0  0  0  0  0  0  0  0  0  0  0
   59.5520   30.0780   46.8390 C   0  0  0  0  0  0  0  0  0  0  0  0
   58.5590   29.8800   45.8930 C   0  0  0  0  0  0  0  0  0  0  0  0
   58.1420   30.8890   45.0650 N   0  0  0  0  0  0  0  0  0  0  0  0
   57.3550   30.5730   43.8610 C   0  0  0  0  0  0  0  0  0  0  0  0
   58.5410   32.1850   45.3460 C   0  0  0  0  0  0  0  0  0  0  0  0
   57.9610   33.2880   44.6760 C   0  0  0  0  0  0  0  0  0  0  0  0
   58.3990   34.5890   44.9140 C   0  0  0  0  0  0  0  0  0  0  0  0
   59.4180   34.8260   45.8250 C   0  0  0  0  0  0  0  0  0  0  0  0
   59.9860   33.7720   46.5360 C   0  0  0  0  0  0  0  0  0  0  0  0
   59.5510   32.4390   46.3390 C   0  0  0  0  0  0  0  0  0  0  0  0
   58.1580   28.4500   45.9250 C   0  0  0  0  0  0  0  0  0  0  0  0
   57.0750   27.7730   45.3460 C   0  0  0  0  0  0  0  0  0  0  0  0
   56.9040   26.4060   45.6320 C   0  0  0  0  0  0  0  0  0  0  0  0
   57.7760   25.7460   46.5170 C   0  0  0  0  0  0  0  0  0  0  0  0
   58.8130   26.4520   47.1460 C   0  0  0  0  0  0  0  0  0  0  0  0
   58.9730   27.8020   46.8380 C   0  0  0  0  0  0  0  0  0  0  0  0
   59.8700   28.7740   47.4360 C   0  0  0  0  0  0  0  0  0  0  0  0
   60.7490   28.5240   48.3020 O   0  0  0  0  0  0  0  0  0  0  0  0
   63.7765   34.8386   46.5147 H   0  0  0  0  0  0  0  0  0  0  0  0
   62.4284   30.7997   46.6120 H   0  0  0  0  0  0  0  0  0  0  0  0
   63.1481   31.0187   48.2630 H   0  0  0  0  0  0  0  0  0  0  0  0
   61.0120   32.3870   48.6560 H   0  0  0  0  0  0  0  0  0  0  0  0
   61.0310   30.7560   48.8110 H   0  0  0  0  0  0  0  0  0  0  0  0
   56.3722   30.1784   44.1585 H   0  0  0  0  0  0  0  0  0  0  0  0
   57.2178   31.4858   43.2626 H   0  0  0  0  0  0  0  0  0  0  0  0
   57.8871   29.8188   43.2626 H   0  0  0  0  0  0  0  0  0  0  0  0
   57.1494   33.1152   43.9539 H   0  0  0  0  0  0  0  0  0  0  0  0
   57.9356   35.4305   44.3781 H   0  0  0  0  0  0  0  0  0  0  0  0
   59.7793   35.8523   45.9866 H   0  0  0  0  0  0  0  0  0  0  0  0
   60.7857   33.9783   47.2626 H   0  0  0  0  0  0  0  0  0  0  0  0
   56.3737   28.2997   44.6820 H   0  0  0  0  0  0  0  0  0  0  0  0
   56.0816   25.8487   45.1597 H   0  0  0  0  0  0  0  0  0  0  0  0
   57.6445   24.6723   46.7167 H   0  0  0  0  0  0  0  0  0  0  0  0
   59.4818   25.9533   47.8630 H   0  0  0  0  0  0  0  0  0  0  0  0
  1  2  3  0
  2  3  1  0
  3  4  1  0
  4  5  1  0
  5  6  2  0
  6  7  1  0
  7  8  2  0
  8  9  1  0
  8 10  1  0
 10 11  2  0
 11 12  1  0
 12 13  2  0
 13 14  1  0
 14 15  2  0
  7 16  1  0
 16 17  2  0
 17 18  1  0
 18 19  2  0
 19 20  1  0
 20 21  2  0
 21 22  1  0
 22 23  2  0
 15  5  1  0
 21 16  1  0
 22  6  1  0
 15 10  1  0
  1 24  1  0
  3 25  1  0
  3 26  1  0
  4 27  1  0
  4 28  1  0
  9 29  1  0
  9 30  1  0
  9 31  1  0
 11 32  1  0
 12 33  1  0
 13 34  1  0
 14 35  1  0
 17 36  1  0
 18 37  1  0
 19 38  1  0
 20 39  1  0
M  CHG  2   4   1   8   1
M  END
>  <UniqueID>  (6) 
6

>  <SMILES>  (6) 
C#CC[NH2+]c1c2c([n+](C)c3ccccc13)-c1ccccc1C2=O

>  <Energy>  (6) 
96.24332768155226

>  <Genealogy>  (6) 
C#CC[NH2+]c1c2c([n+](C)c3ccccc13)-c1ccccc1C2=O (protonated)
C#CC[NH2+]c1c2c([n+](C)c3ccccc13)-c1ccccc1C2=O (3D coordinates assigned)
C#CC[NH2+]c1c2c([n+](C)c3ccccc13)-c1ccccc1C2=O (nonaromatic ring conformer: 96.24332768155226 kcal/mol)

>  <smiles>  (6) 
C#CCNc1c2c([n+](C)c3ccccc13)-c1ccccc1C2=O

>  <score_type>  (6) 
oracle

>  <origin>  (6) 
adg

>  <m_score__min__energy>  (6) 
-4.6900000000000004

>  <m_primary>  (6) 
energy

$$$$
6:0
     RDKit          3D

 44 46  0  0  0  0  0  0  0  0999 V2000
   55.5180   29.7260   43.4010 C   0  0  0  0  0  0  0  0  0  0  0  0
   57.0240   29.9370   43.3170 C   0  0  0  0  0  0  0  0  0  0  0  0
   57.5630   30.3090   44.6280 N   0  0  0  0  0  0  0  0  0  0  0  0
   57.7740   29.5350   45.7220 C   0  0  0  0  0  0  0  0  0  0  0  0
   57.4380   28.1040   45.8460 C   0  0  0  0  0  0  0  0  0  0  0  0
   58.3200   27.1070   46.2180 C   0  0  0  0  0  0  0  0  0  0  0  0
   57.5920   25.9380   46.1970 C   0  0  0  0  0  0  0  0  0  0  0  0
   56.3150   26.2900   45.8160 C   0  0  0  0  0  0  0  0  0  0  0  0
   56.2550   27.5850   45.6140 O   0  0  0  0  0  0  0  0  0  0  0  0
   58.3680   30.2340   46.7130 N   0  0  0  0  0  0  0  0  0  0  0  0
   58.5470   31.4600   46.2480 N   0  0  0  0  0  0  0  0  0  0  0  0
   58.0700   31.5040   44.9950 C   0  0  0  0  0  0  0  0  0  0  0  0
   58.1520   32.9600   43.9460 S   0  0  0  0  0  0  0  0  0  0  0  0
   57.7820   34.1410   45.2890 C   0  0  0  0  0  0  0  0  0  0  0  0
   59.0710   34.6650   45.9240 C   0  0  0  0  0  0  0  0  0  0  0  0
   59.5050   33.7970   46.9700 O   0  0  0  0  0  0  0  0  0  0  0  0
   60.8210   33.6890   47.4490 C   0  0  0  0  0  0  0  0  0  0  0  0
   61.9260   33.4720   46.6040 C   0  0  0  0  0  0  0  0  0  0  0  0
   63.2150   33.3760   47.1390 C   0  0  0  0  0  0  0  0  0  0  0  0
   63.4240   33.4910   48.5170 C   0  0  0  0  0  0  0  0  0  0  0  0
   64.7370   33.3900   49.0020 O   0  0  0  0  0  0  0  0  0  0  0  0
   65.1640   32.4410   49.9750 C   0  0  0  0  0  0  0  0  0  0  0  0
   62.3200   33.7010   49.3640 C   0  0  0  0  0  0  0  0  0  0  0  0
   61.0320   33.7980   48.8290 C   0  0  0  0  0  0  0  0  0  0  0  0
   55.2121   29.6831   44.4567 H   0  0  0  0  0  0  0  0  0  0  0  0
   55.0025   30.5607   42.9035 H   0  0  0  0  0  0  0  0  0  0  0  0
   55.2517   28.7818   42.9035 H   0  0  0  0  0  0  0  0  0  0  0  0
   57.5020   29.0054   42.9800 H   0  0  0  0  0  0  0  0  0  0  0  0
   57.2308   30.7483   42.6036 H   0  0  0  0  0  0  0  0  0  0  0  0
   59.3827   27.2231   46.4770 H   0  0  0  0  0  0  0  0  0  0  0  0
   57.9560   24.9279   46.4359 H   0  0  0  0  0  0  0  0  0  0  0  0
   55.4737   25.5911   45.6990 H   0  0  0  0  0  0  0  0  0  0  0  0
   58.9990   32.2370   46.7780 H   0  0  0  0  0  0  0  0  0  0  0  0
   57.2129   34.9877   44.8777 H   0  0  0  0  0  0  0  0  0  0  0  0
   57.1946   33.6229   46.0613 H   0  0  0  0  0  0  0  0  0  0  0  0
   59.8549   34.7239   45.1546 H   0  0  0  0  0  0  0  0  0  0  0  0
   58.8777   35.6615   46.3477 H   0  0  0  0  0  0  0  0  0  0  0  0
   61.7751   33.3775   45.5185 H   0  0  0  0  0  0  0  0  0  0  0  0
   64.0718   33.2086   46.4698 H   0  0  0  0  0  0  0  0  0  0  0  0
   64.9833   32.8427   50.9830 H   0  0  0  0  0  0  0  0  0  0  0  0
   64.6002   31.5053   49.8467 H   0  0  0  0  0  0  0  0  0  0  0  0
   66.2383   32.2423   49.8467 H   0  0  0  0  0  0  0  0  0  0  0  0
   62.4709   33.7891   50.4500 H   0  0  0  0  0  0  0  0  0  0  0  0
   60.1753   33.9617   49.4992 H   0  0  0  0  0  0  0  0  0  0  0  0
  1  2  1  0
  2  3  1  0
  3  4  1  0
  4  5  1  0
  5  6  2  0
  6  7  1  0
  7  8  2  0
  8  9  1  0
  4 10  2  0
 10 11  1  0
 11 12  2  0
 12 13  1  0
 13 14  1  0
 14 15  1  0
 15 16  1  0
 16 17  1  0
 17 18  2  0
 18 19  1  0
 19 20  2  0
 20 21  1  0
 21 22  1  0
 20 23  1  0
 23 24  2  0
 12  3  1  0
 24 17  1  0
  9  5  1  0
  1 25  1  0
  1 26  1  0
  1 27  1  0
  2 28  1  0
  2 29  1  0
  6 30  1  0
  7 31  1  0
  8 32  1  0
 11 33  1  0
 14 34  1  0
 14 35  1  0
 15 36  1  0
 15 37  1  0
 18 38  1  0
 19 39  1  0
 22 40  1  0
 22 41  1  0
 22 42  1  0
 23 43  1  0
 24 44  1  0
M  CHG  1  11   1
M  END
>  <UniqueID>  (7) 
7

>  <SMILES>  (7) 
CCn1c(-c2ccco2)n[nH+]c1SCCOc1ccc(OC)cc1

>  <Energy>  (7) 
98.40433128456975

>  <Genealogy>  (7) 
CCn1c(-c2ccco2)n[nH+]c1SCCOc1ccc(OC)cc1 (protonated)
CCn1c(-c2ccco2)n[nH+]c1SCCOc1ccc(OC)cc1 (3D coordinates assigned)
CCn1c(-c2ccco2)n[nH+]c1SCCOc1ccc(OC)cc1 (optimized conformer: 98.40433128456975 kcal/mol)

>  <smiles>  (7) 
CCn1c(SCCOc2ccc(OC)cc2)nnc1-c1ccco1

>  <score_type>  (7) 
oracle

>  <origin>  (7) 
adg

>  <m_score__min__energy>  (7) 
-5.1600000000000001

>  <m_primary>  (7) 
energy

$$$$
7:0
     RDKit          3D

 44 46  0  0  0  0  0  0  0  0999 V2000
   63.3470   33.8700   46.3620 C   0  0  0  0  0  0  0  0  0  0  0  0
   63.8600   32.8100   47.2490 N   0  0  0  0  0  0  0  0  0  0  0  0
   62.9830   31.6310   47.1600 C   0  0  0  0  0  0  0  0  0  0  0  0
   63.9330   33.2750   48.6520 C   0  0  0  0  0  0  0  0  0  0  0  0
   62.7140   32.8150   49.4680 C   0  0  0  0  0  0  0  0  0  0  0  0
   61.6160   33.7750   49.3580 N   0  0  0  0  0  0  0  0  0  0  0  0
   60.5990   33.7030   48.3480 C   0  0  0  0  0  0  0  0  0  0  0  0
   59.7880   32.5980   48.0700 C   0  0  0  0  0  0  0  0  0  0  0  0
   58.9150   32.8520   47.0050 C   0  0  0  0  0  0  0  0  0  0  0  0
   57.9690   31.9910   46.4490 C   0  0  0  0  0  0  0  0  0  0  0  0
   57.8130   30.8300   46.9170 O   0  0  0  0  0  0  0  0  0  0  0  0
   57.2100   32.4230   45.3930 N   0  0  0  0  0  0  0  0  0  0  0  0
   56.2630   31.5320   44.8430 N   0  0  0  0  0  0  0  0  0  0  0  0
   56.6450   30.1720   43.8340 S   0  0  0  0  0  0  0  0  0  0  0  0
   55.3740   29.4410   43.5000 O   0  0  0  0  0  0  0  0  0  0  0  0
   57.2740   30.6660   42.5610 O   0  0  0  0  0  0  0  0  0  0  0  0
   57.7910   29.1150   44.6630 C   0  0  0  0  0  0  0  0  0  0  0  0
   59.1670   29.3460   44.5150 C   0  0  0  0  0  0  0  0  0  0  0  0
   60.0940   28.5330   45.1710 C   0  0  0  0  0  0  0  0  0  0  0  0
   59.6520   27.4830   45.9830 C   0  0  0  0  0  0  0  0  0  0  0  0
   58.2830   27.2390   46.1260 C   0  0  0  0  0  0  0  0  0  0  0  0
   57.3510   28.0480   45.4650 C   0  0  0  0  0  0  0  0  0  0  0  0
   56.0280   27.7890   45.6130 F   0  0  0  0  0  0  0  0  0  0  0  0
   57.3820   33.6950   44.8920 C   0  0  0  0  0  0  0  0  0  0  0  0
   58.3040   34.5400   45.4340 N   0  0  0  0  0  0  0  0  0  0  0  0
   59.0510   34.1130   46.4750 C   0  0  0  0  0  0  0  0  0  0  0  0
   60.2450   34.9730   47.2830 S   0  0  0  0  0  0  0  0  0  0  0  0
   62.9476   34.6953   46.9698 H   0  0  0  0  0  0  0  0  0  0  0  0
   64.1638   34.2441   45.7272 H   0  0  0  0  0  0  0  0  0  0  0  0
   62.5469   33.4615   45.7272 H   0  0  0  0  0  0  0  0  0  0  0  0
   62.7271   31.2870   48.1730 H   0  0  0  0  0  0  0  0  0  0  0  0
   62.0626   31.8985   46.6202 H   0  0  0  0  0  0  0  0  0  0  0  0
   63.5039   30.8264   46.6202 H   0  0  0  0  0  0  0  0  0  0  0  0
   64.8451   32.8700   49.1147 H   0  0  0  0  0  0  0  0  0  0  0  0
   63.9477   34.3749   48.6482 H   0  0  0  0  0  0  0  0  0  0  0  0
   62.3767   31.8382   49.0909 H   0  0  0  0  0  0  0  0  0  0  0  0
   63.0086   32.7397   50.5251 H   0  0  0  0  0  0  0  0  0  0  0  0
   61.5790   34.5640   50.0410 H   0  0  0  0  0  0  0  0  0  0  0  0
   59.8307   31.6465   48.6202 H   0  0  0  0  0  0  0  0  0  0  0  0
   59.5176   30.1720   43.8788 H   0  0  0  0  0  0  0  0  0  0  0  0
   61.1714   28.7182   45.0492 H   0  0  0  0  0  0  0  0  0  0  0  0
   60.3816   26.8496   46.5088 H   0  0  0  0  0  0  0  0  0  0  0  0
   57.9371   26.4090   46.7596 H   0  0  0  0  0  0  0  0  0  0  0  0
   56.7677   34.0327   44.0443 H   0  0  0  0  0  0  0  0  0  0  0  0
  1  2  1  0
  2  3  1  0
  2  4  1  0
  4  5  1  0
  5  6  1  0
  6  7  1  0
  7  8  2  0
  8  9  1  0
  9 10  1  0
 10 11  2  0
 10 12  1  0
 12 13  1  0
 13 14  1  0
 14 15  2  0
 14 16  2  0
 14 17  1  0
 17 18  2  0
 18 19  1  0
 19 20  2  0
 20 21  1  0
 21 22  2  0
 22 23  1  0
 12 24  1  0
 24 25  2  0
 25 26  1  0
 26 27  1  0
 27  7  1  0
 26  9  2  0
 22 17  1  0
  1 28  1  0
  1 29  1  0
  1 30  1  0
  3 31  1  0
  3 32  1  0
  3 33  1  0
  4 34  1  0
  4 35  1  0
  5 36  1  0
  5 37  1  0
  6 38  1  0
  8 39  1  0
 18 40  1  0
 19 41  1  0
 20 42  1  0
 21 43  1  0
 24 44  1  0
M  CHG  1  13  -1
M  END
>  <UniqueID>  (8) 
8

>  <SMILES>  (8) 
CN(C)CCNc1cc2c(=O)n([N-]S(=O)(=O)c3ccccc3F)cnc2s1

>  <Energy>  (8) 
82.81757964302818

>  <Genealogy>  (8) 
CN(C)CCNc1cc2c(=O)n([N-]S(=O)(=O)c3ccccc3F)cnc2s1 (protonated)
CN(C)CCNc1cc2c(=O)n([N-]S(=O)(=O)c3ccccc3F)cnc2s1 (3D coordinates assigned)
CN(C)CCNc1cc2c(=O)n([N-]S(=O)(=O)c3ccccc3F)cnc2s1 (optimized conformer: 82.81757964302818 kcal/mol)

>  <smiles>  (8) 
CN(C)CCNc1cc2c(=O)n(NS(=O)(=O)c3ccccc3F)cnc2s1

>  <score_type>  (8) 
oracle

>  <origin>  (8) 
adg

>  <m_score__min__energy>  (8) 
-9.5600000000000005

>  <m_primary>  (8) 
energy

$$$$
8:0
     RDKit          3D

 67 70  0  0  0  0  0  0  0  0999 V2000
   56.3370   23.2640   43.3330 Cl  0  0  0  0  0  0  0  0  0  0  0  0
   56.8770   24.6520   44.2600 C   0  0  0  0  0  0  0  0  0  0  0  0
   57.7170   25.6030   43.6720 C   0  0  0  0  0  0  0  0  0  0  0  0
   58.1460   26.7130   44.4090 C   0  0  0  0  0  0  0  0  0  0  0  0
   57.7370   26.8760   45.7430 C   0  0  0  0  0  0  0  0  0  0  0  0
   58.1820   28.0720   46.5430 C   0  0  0  0  0  0  0  0  0  0  0  0
   59.6080   28.3650   46.2810 N   0  0  0  0  0  0  0  0  0  0  0  0
   60.4250   28.4560   47.5100 C   0  0  0  0  0  0  0  0  0  0  0  0
   60.2120   29.7810   48.2700 C   0  0  0  0  0  0  0  0  0  0  0  0
   60.4230   30.9670   47.4070 N   0  0  0  0  0  0  0  0  0  0  0  0
   61.8700   31.1890   47.1290 C   0  0  0  0  0  0  0  0  0  0  0  0
   62.5030   32.3460   47.9330 C   0  0  0  0  0  0  0  0  0  0  0  0
   61.8460   32.6890   49.2950 C   0  0  0  0  0  0  0  0  0  0  0  0
   60.5780   33.4660   49.2470 N   0  0  0  0  0  0  0  0  0  0  0  0
   60.5090   34.5510   48.2450 C   0  0  0  0  0  0  0  0  0  0  0  0
   59.4740   34.2590   47.1870 C   0  0  0  0  0  0  0  0  0  0  0  0
   58.3080   33.5450   47.5090 C   0  0  0  0  0  0  0  0  0  0  0  0
   57.3580   33.2630   46.5220 C   0  0  0  0  0  0  0  0  0  0  0  0
   57.5660   33.6870   45.2090 C   0  0  0  0  0  0  0  0  0  0  0  0
   58.7340   34.3790   44.8740 C   0  0  0  0  0  0  0  0  0  0  0  0
   59.6880   34.6580   45.8570 C   0  0  0  0  0  0  0  0  0  0  0  0
   60.0580   33.8540   50.5740 C   0  0  0  0  0  0  0  0  0  0  0  0
   58.9810   32.8950   50.9990 C   0  0  0  0  0  0  0  0  0  0  0  0
   58.0630   33.2440   52.0050 C   0  0  0  0  0  0  0  0  0  0  0  0
   57.0780   32.3360   52.4040 C   0  0  0  0  0  0  0  0  0  0  0  0
   57.0000   31.0770   51.8030 C   0  0  0  0  0  0  0  0  0  0  0  0
   57.9080   30.7230   50.8010 C   0  0  0  0  0  0  0  0  0  0  0  0
   58.8970   31.6270   50.4000 C   0  0  0  0  0  0  0  0  0  0  0  0
   59.5840   30.8690   46.1900 C   0  0  0  0  0  0  0  0  0  0  0  0
   59.7940   29.5500   45.4210 C   0  0  0  0  0  0  0  0  0  0  0  0
   56.8900   25.9190   46.3260 C   0  0  0  0  0  0  0  0  0  0  0  0
   56.4630   24.8120   45.5870 C   0  0  0  0  0  0  0  0  0  0  0  0
   58.0412   25.4785   42.6283 H   0  0  0  0  0  0  0  0  0  0  0  0
   58.8052   27.4597   43.9423 H   0  0  0  0  0  0  0  0  0  0  0  0
   57.5746   28.9442   46.2596 H   0  0  0  0  0  0  0  0  0  0  0  0
   58.0530   27.8538   47.6134 H   0  0  0  0  0  0  0  0  0  0  0  0
   60.1551   27.6220   48.1745 H   0  0  0  0  0  0  0  0  0  0  0  0
   61.4823   28.4115   47.2099 H   0  0  0  0  0  0  0  0  0  0  0  0
   59.1828   29.8046   48.6575 H   0  0  0  0  0  0  0  0  0  0  0  0
   60.9501   29.8231   49.0845 H   0  0  0  0  0  0  0  0  0  0  0  0
   60.0660   31.7820   47.9540 H   0  0  0  0  0  0  0  0  0  0  0  0
   62.4131   30.2637   47.3717 H   0  0  0  0  0  0  0  0  0  0  0  0
   61.9473   31.4650   46.0670 H   0  0  0  0  0  0  0  0  0  0  0  0
   63.5531   32.0818   48.1267 H   0  0  0  0  0  0  0  0  0  0  0  0
   62.3618   33.2417   47.3103 H   0  0  0  0  0  0  0  0  0  0  0  0
   61.6370   31.7412   49.8126 H   0  0  0  0  0  0  0  0  0  0  0  0
   62.5669   33.3425   49.8080 H   0  0  0  0  0  0  0  0  0  0  0  0
   60.2463   35.4908   48.7528 H   0  0  0  0  0  0  0  0  0  0  0  0
   61.4906   34.6327   47.7554 H   0  0  0  0  0  0  0  0  0  0  0  0
   58.1413   33.2061   48.5421 H   0  0  0  0  0  0  0  0  0  0  0  0
   56.4455   32.7061   46.7812 H   0  0  0  0  0  0  0  0  0  0  0  0
   56.8109   33.4768   44.4372 H   0  0  0  0  0  0  0  0  0  0  0  0
   58.9022   34.7039   43.8366 H   0  0  0  0  0  0  0  0  0  0  0  0
   60.6109   35.1926   45.5878 H   0  0  0  0  0  0  0  0  0  0  0  0
   60.8771   33.8320   51.3079 H   0  0  0  0  0  0  0  0  0  0  0  0
   59.6386   34.8693   50.5172 H   0  0  0  0  0  0  0  0  0  0  0  0
   58.1201   34.2347   52.4796 H   0  0  0  0  0  0  0  0  0  0  0  0
   56.3629   32.6131   53.1926 H   0  0  0  0  0  0  0  0  0  0  0  0
   56.2238   30.3642   52.1185 H   0  0  0  0  0  0  0  0  0  0  0  0
   57.8447   29.7323   50.3273 H   0  0  0  0  0  0  0  0  0  0  0  0
   59.6115   31.3442   49.6129 H   0  0  0  0  0  0  0  0  0  0  0  0
   58.5268   30.9381   46.4861 H   0  0  0  0  0  0  0  0  0  0  0  0
   59.8764   31.6914   45.5205 H   0  0  0  0  0  0  0  0  0  0  0  0
   59.0706   29.5038   44.5936 H   0  0  0  0  0  0  0  0  0  0  0  0
   60.8295   29.5377   45.0501 H   0  0  0  0  0  0  0  0  0  0  0  0
   56.5613   26.0413   47.3686 H   0  0  0  0  0  0  0  0  0  0  0  0
   55.8005   24.0655   46.0494 H   0  0  0  0  0  0  0  0  0  0  0  0
  1  2  1  0
  2  3  2  0
  3  4  1  0
  4  5  2  0
  5  6  1  0
  6  7  1  0
  7  8  1  0
  8  9  1  0
  9 10  1  0
 10 11  1  0
 11 12  1  0
 12 13  1  0
 13 14  1  0
 14 15  1  0
 15 16  1  0
 16 17  2  0
 17 18  1  0
 18 19  2  0
 19 20  1  0
 20 21  2  0
 14 22  1  0
 22 23  1  0
 23 24  2  0
 24 25  1  0
 25 26  2  0
 26 27  1  0
 27 28  2  0
 10 29  1  0
 29 30  1  0
  5 31  1  0
 31 32  2  0
 32  2  1  0
 30  7  1  0
 21 16  1  0
 28 23  1  0
  3 33  1  0
  4 34  1  0
  6 35  1  0
  6 36  1  0
  8 37  1  0
  8 38  1  0
  9 39  1  0
  9 40  1  0
 10 41  1  0
 11 42  1  0
 11 43  1  0
 12 44  1  0
 12 45  1  0
 13 46  1  0
 13 47  1  0
 15 48  1  0
 15 49  1  0
 17 50  1  0
 18 51  1  0
 19 52  1  0
 20 53  1  0
 21 54  1  0
 22 55  1  0
 22 56  1  0
 24 57  1  0
 25 58  1  0
 26 59  1  0
 27 60  1  0
 28 61  1  0
 29 62  1  0
 29 63  1  0
 30 64  1  0
 30 65  1  0
 31 66  1  0
 32 67  1  0
M  CHG  1  10   1
M  END
>  <UniqueID>  (9) 
9

>  <SMILES>  (9) 
Clc1ccc(CN2CC[NH+](CCCN(Cc3ccccc3)Cc3ccccc3)CC2)cc1

>  <Energy>  (9) 
86.09255409075571

>  <Genealogy>  (9) 
Clc1ccc(CN2CC[NH+](CCCN(Cc3ccccc3)Cc3ccccc3)CC2)cc1 (protonated)
Clc1ccc(CN2CC[NH+](CCCN(Cc3ccccc3)Cc3ccccc3)CC2)cc1 (3D coordinates assigned)
Clc1ccc(CN2CC[NH+](CCCN(Cc3ccccc3)Cc3ccccc3)CC2)cc1 (nonaromatic ring conformer: 86.09255409075571 kcal/mol)

>  <smiles>  (9) 
Clc1ccc(CN2CCN(CCCN(Cc3ccccc3)Cc3ccccc3)CC2)cc1

>  <score_type>  (9) 
oracle

>  <origin>  (9) 
adg

>  <m_score__min__energy>  (9) 
-7.1799999999999997

>  <m_primary>  (9) 
energy

$$$$
9:0
     RDKit          3D

 78 82  0  0  0  0  0  0  0  0999 V2000
   57.9320   34.0890   45.9420 C   0  0  0  0  0  0  0  0  0  0  0  0
   58.3480   33.7890   44.4940 C   0  0  0  0  0  0  0  0  0  0  0  0
   57.4960   32.7760   43.8280 N   0  0  0  0  0  0  0  0  0  0  0  0
   58.1600   32.1350   42.6690 C   0  0  0  0  0  0  0  0  0  0  0  0
   57.3340   32.3820   41.4120 C   0  0  0  0  0  0  0  0  0  0  0  0
   56.9100   31.8080   44.7800 C   0  0  0  0  0  0  0  0  0  0  0  0
   56.6850   30.4500   44.1100 C   0  0  0  0  0  0  0  0  0  0  0  0
   57.9500   29.7270   44.0130 N   0  0  0  0  0  0  0  0  0  0  0  0
   58.6160   29.2240   45.1820 C   0  0  0  0  0  0  0  0  0  0  0  0
   58.5030   27.8740   45.5910 C   0  0  0  0  0  0  0  0  0  0  0  0
   57.7900   26.9400   44.8120 C   0  0  0  0  0  0  0  0  0  0  0  0
   57.7260   25.6020   45.1900 C   0  0  0  0  0  0  0  0  0  0  0  0
   58.3840   25.1640   46.3350 C   0  0  0  0  0  0  0  0  0  0  0  0
   59.1020   26.0630   47.1240 C   0  0  0  0  0  0  0  0  0  0  0  0
   59.1600   27.4390   46.7950 C   0  0  0  0  0  0  0  0  0  0  0  0
   59.8490   28.3490   47.5860 N   0  0  0  0  0  0  0  0  0  0  0  0
   60.2990   28.0140   48.9470 C   0  0  0  0  0  0  0  0  0  0  0  0
   60.0420   29.6120   47.0880 C   0  0  0  0  0  0  0  0  0  0  0  0
   59.4180   30.0590   45.9460 C   0  0  0  0  0  0  0  0  0  0  0  0
   59.6880   31.3280   45.7160 O   0  0  0  0  0  0  0  0  0  0  0  0
   60.5030   31.7220   46.6690 C   0  0  0  0  0  0  0  0  0  0  0  0
   61.0670   32.9850   46.8090 C   0  0  0  0  0  0  0  0  0  0  0  0
   61.9560   33.1970   47.8750 C   0  0  0  0  0  0  0  0  0  0  0  0
   62.2870   32.1490   48.7630 C   0  0  0  0  0  0  0  0  0  0  0  0
   63.1970   32.4240   49.7950 O   0  0  0  0  0  0  0  0  0  0  0  0
   62.8290   32.7800   51.1240 C   0  0  0  0  0  0  0  0  0  0  0  0
   61.5680   33.6750   51.1430 C   0  0  0  0  0  0  0  0  0  0  0  0
   60.2580   32.9780   51.3850 N   0  0  0  0  0  0  0  0  0  0  0  0
   59.5010   33.7040   52.4440 C   0  0  0  0  0  0  0  0  0  0  0  0
   60.4960   31.5440   51.7890 C   0  0  0  0  0  0  0  0  0  0  0  0
   59.5760   30.5060   51.1130 C   0  0  0  0  0  0  0  0  0  0  0  0
   58.1560   31.0320   50.9620 C   0  0  0  0  0  0  0  0  0  0  0  0
   58.1290   32.3240   50.1350 C   0  0  0  0  0  0  0  0  0  0  0  0
   59.4910   33.0570   50.1030 C   0  0  0  0  0  0  0  0  0  0  0  0
   61.7030   30.8710   48.5910 C   0  0  0  0  0  0  0  0  0  0  0  0
   60.7800   30.6970   47.5540 C   0  0  0  0  0  0  0  0  0  0  0  0
   58.6256   33.5888   46.6339 H   0  0  0  0  0  0  0  0  0  0  0  0
   57.9616   35.1750   46.1145 H   0  0  0  0  0  0  0  0  0  0  0  0
   56.9109   33.7180   46.1145 H   0  0  0  0  0  0  0  0  0  0  0  0
   58.2931   34.7233   43.9161 H   0  0  0  0  0  0  0  0  0  0  0  0
   59.3677   33.3780   44.5307 H   0  0  0  0  0  0  0  0  0  0  0  0
   59.1645   32.5638   42.5382 H   0  0  0  0  0  0  0  0  0  0  0  0
   58.2445   31.0527   42.8463 H   0  0  0  0  0  0  0  0  0  0  0  0
   56.3159   32.6864   41.6962 H   0  0  0  0  0  0  0  0  0  0  0  0
   57.8023   33.1794   40.8163 H   0  0  0  0  0  0  0  0  0  0  0  0
   57.2877   31.4584   40.8163 H   0  0  0  0  0  0  0  0  0  0  0  0
   57.5950   31.6805   45.6312 H   0  0  0  0  0  0  0  0  0  0  0  0
   55.9393   32.1959   45.1224 H   0  0  0  0  0  0  0  0  0  0  0  0
   55.9738   29.8617   44.7083 H   0  0  0  0  0  0  0  0  0  0  0  0
   56.2801   30.6078   43.0995 H   0  0  0  0  0  0  0  0  0  0  0  0
   58.4960   29.8250   43.1280 H   0  0  0  0  0  0  0  0  0  0  0  0
   57.2791   27.2721   43.8962 H   0  0  0  0  0  0  0  0  0  0  0  0
   57.1527   24.8877   44.5808 H   0  0  0  0  0  0  0  0  0  0  0  0
   58.3378   24.1025   46.6198 H   0  0  0  0  0  0  0  0  0  0  0  0
   59.6316   25.6970   48.0160 H   0  0  0  0  0  0  0  0  0  0  0  0
   59.6420   28.5031   49.6812 H   0  0  0  0  0  0  0  0  0  0  0  0
   60.2593   26.9238   49.0884 H   0  0  0  0  0  0  0  0  0  0  0  0
   61.3320   28.3647   49.0884 H   0  0  0  0  0  0  0  0  0  0  0  0
   60.8239   33.7946   46.1052 H   0  0  0  0  0  0  0  0  0  0  0  0
   62.4008   34.1925   48.0208 H   0  0  0  0  0  0  0  0  0  0  0  0
   62.6249   31.8629   51.6961 H   0  0  0  0  0  0  0  0  0  0  0  0
   63.6596   33.3448   51.5723 H   0  0  0  0  0  0  0  0  0  0  0  0
   61.7008   34.4237   51.9379 H   0  0  0  0  0  0  0  0  0  0  0  0
   61.4926   34.0958   50.1295 H   0  0  0  0  0  0  0  0  0  0  0  0
   59.8466   33.3726   53.4343 H   0  0  0  0  0  0  0  0  0  0  0  0
   59.6705   34.7858   52.3396 H   0  0  0  0  0  0  0  0  0  0  0  0
   58.4272   33.4894   52.3396 H   0  0  0  0  0  0  0  0  0  0  0  0
   61.5366   31.2891   51.5395 H   0  0  0  0  0  0  0  0  0  0  0  0
   60.2745   31.4909   52.8652 H   0  0  0  0  0  0  0  0  0  0  0  0
   59.9769   30.2687   50.1165 H   0  0  0  0  0  0  0  0  0  0  0  0
   59.5452   29.6079   51.7474 H   0  0  0  0  0  0  0  0  0  0  0  0
   57.5427   30.2704   50.4582 H   0  0  0  0  0  0  0  0  0  0  0  0
   57.7567   31.2505   51.9634 H   0  0  0  0  0  0  0  0  0  0  0  0
   57.8433   32.0724   49.1030 H   0  0  0  0  0  0  0  0  0  0  0  0
   57.4049   33.0014   50.6113 H   0  0  0  0  0  0  0  0  0  0  0  0
   60.1042   32.6117   49.3057 H   0  0  0  0  0  0  0  0  0  0  0  0
   59.2742   34.1212   49.9284 H   0  0  0  0  0  0  0  0  0  0  0  0
   61.9682   30.0358   49.2559 H   0  0  0  0  0  0  0  0  0  0  0  0
  1  2  1  0
  2  3  1  0
  3  4  1  0
  4  5  1  0
  3  6  1  0
  6  7  1  0
  7  8  1  0
  8  9  1  0
  9 10  2  0
 10 11  1  0
 11 12  2  0
 12 13  1  0
 13 14  2  0
 14 15  1  0
 15 16  2  0
 16 17  1  0
 16 18  1  0
 18 19  2  0
 19 20  1  0
 20 21  1  0
 21 22  2  0
 22 23  1  0
 23 24  2  0
 24 25  1  0
 25 26  1  0
 26 27  1  0
 27 28  1  0
 28 29  1  0
 28 30  1  0
 30 31  1  0
 31 32  1  0
 32 33  1  0
 33 34  1  0
 24 35  1  0
 35 36  2  0
 19  9  1  0
 36 21  1  0
 15 10  1  0
 36 18  1  0
 34 28  1  0
  1 37  1  0
  1 38  1  0
  1 39  1  0
  2 40  1  0
  2 41  1  0
  4 42  1  0
  4 43  1  0
  5 44  1  0
  5 45  1  0
  5 46  1  0
  6 47  1  0
  6 48  1  0
  7 49  1  0
  7 50  1  0
  8 51  1  0
 11 52  1  0
 12 53  1  0
 13 54  1  0
 14 55  1  0
 17 56  1  0
 17 57  1  0
 17 58  1  0
 22 59  1  0
 23 60  1  0
 26 61  1  0
 26 62  1  0
 27 63  1  0
 27 64  1  0
 29 65  1  0
 29 66  1  0
 29 67  1  0
 30 68  1  0
 30 69  1  0
 31 70  1  0
 31 71  1  0
 32 72  1  0
 32 73  1  0
 33 74  1  0
 33 75  1  0
 34 76  1  0
 34 77  1  0
 35 78  1  0
M  CHG  2  16   1  28   1
M  END
>  <UniqueID>  (10) 
10

>  <SMILES>  (10) 
CCN(CC)CCNc1c2ccccc2[n+](C)c2c1oc1ccc(OCC[N+]3(C)CCCCC3)cc12

>  <Energy>  (10) 
158.8687701306095

>  <Genealogy>  (10) 
CCN(CC)CCNc1c2ccccc2[n+](C)c2c1oc1ccc(OCC[N+]3(C)CCCCC3)cc12 (3D coordinates assigned)
CCN(CC)CCNc1c2ccccc2[n+](C)c2c1oc1ccc(OCC[N+]3(C)CCCCC3)cc12 (nonaromatic ring conformer: 158.8687701306095 kcal/mol)

>  <smiles>  (10) 
CCN(CC)CCNc1c2ccccc2[n+](C)c2c1oc1ccc(OCC[N+]3(C)CCCCC3)cc12

>  <score_type>  (10) 
oracle

>  <origin>  (10) 
adg

>  <m_score__min__energy>  (10) 
-6

>  <m_primary>  (10) 
energy

$$$$
10:0
     RDKit          3D

 55 57  0  0  0  0  0  0  0  0999 V2000
   62.1460   29.4130   50.8730 C   0  0  0  0  0  0  0  0  0  0  0  0
   60.8980   30.2590   50.6340 C   0  0  0  0  0  0  0  0  0  0  0  0
   60.0400   29.6320   49.5990 N   0  0  0  0  0  0  0  0  0  0  0  0
   58.6250   29.6700   50.0090 C   0  0  0  0  0  0  0  0  0  0  0  0
   60.4530   28.2360   49.3300 C   0  0  0  0  0  0  0  0  0  0  0  0
   60.5610   27.9940   47.8200 C   0  0  0  0  0  0  0  0  0  0  0  0
   60.0840   26.7020   47.4920 O   0  0  0  0  0  0  0  0  0  0  0  0
   59.1440   26.7520   46.4330 C   0  0  0  0  0  0  0  0  0  0  0  0
   57.8370   27.4020   46.8980 C   0  0  0  0  0  0  0  0  0  0  0  0
   57.3740   28.3910   45.9240 N   0  0  0  0  0  0  0  0  0  0  0  0
   57.8790   29.7410   45.8260 C   0  0  0  0  0  0  0  0  0  0  0  0
   58.5920   30.3280   46.8850 C   0  0  0  0  0  0  0  0  0  0  0  0
   59.1050   31.6380   46.8000 C   0  0  0  0  0  0  0  0  0  0  0  0
   58.8990   32.3870   45.6000 C   0  0  0  0  0  0  0  0  0  0  0  0
   58.1780   31.7880   44.5540 C   0  0  0  0  0  0  0  0  0  0  0  0
   57.6760   30.4900   44.6540 C   0  0  0  0  0  0  0  0  0  0  0  0
   56.6870   29.8020   43.1590 Br  0  0  0  0  0  0  0  0  0  0  0  0
   59.4240   33.7910   45.3030 C   0  0  0  0  0  0  0  0  0  0  0  0
   60.2800   34.5110   46.3520 C   0  0  0  0  0  0  0  0  0  0  0  0
   61.4220   33.6500   46.8130 C   0  0  0  0  0  0  0  0  0  0  0  0
   62.7410   33.9420   46.4280 C   0  0  0  0  0  0  0  0  0  0  0  0
   63.7900   33.1060   46.8210 C   0  0  0  0  0  0  0  0  0  0  0  0
   63.5290   31.9700   47.5890 C   0  0  0  0  0  0  0  0  0  0  0  0
   62.2190   31.6670   47.9700 C   0  0  0  0  0  0  0  0  0  0  0  0
   61.1560   32.5100   47.5940 C   0  0  0  0  0  0  0  0  0  0  0  0
   59.8000   32.1790   47.9470 N   0  0  0  0  0  0  0  0  0  0  0  0
   62.3114   29.3009   51.9547 H   0  0  0  0  0  0  0  0  0  0  0  0
   62.0090   28.4208   50.4183 H   0  0  0  0  0  0  0  0  0  0  0  0
   63.0169   29.9077   50.4183 H   0  0  0  0  0  0  0  0  0  0  0  0
   60.3312   30.3425   51.5730 H   0  0  0  0  0  0  0  0  0  0  0  0
   61.2040   31.2572   50.2877 H   0  0  0  0  0  0  0  0  0  0  0  0
   58.5614   29.6717   51.1072 H   0  0  0  0  0  0  0  0  0  0  0  0
   58.1528   30.5811   49.6129 H   0  0  0  0  0  0  0  0  0  0  0  0
   58.1046   28.7855   49.6129 H   0  0  0  0  0  0  0  0  0  0  0  0
   61.4310   28.0505   49.7980 H   0  0  0  0  0  0  0  0  0  0  0  0
   59.6990   27.5531   49.7485 H   0  0  0  0  0  0  0  0  0  0  0  0
   59.9614   28.7475   47.2883 H   0  0  0  0  0  0  0  0  0  0  0  0
   61.6167   28.0713   47.5208 H   0  0  0  0  0  0  0  0  0  0  0  0
   59.5648   27.3404   45.6043 H   0  0  0  0  0  0  0  0  0  0  0  0
   58.9296   25.7251   46.1022 H   0  0  0  0  0  0  0  0  0  0  0  0
   57.0686   26.6236   47.0148 H   0  0  0  0  0  0  0  0  0  0  0  0
   58.0169   27.9090   47.8574 H   0  0  0  0  0  0  0  0  0  0  0  0
   56.6420   28.0690   45.2550 H   0  0  0  0  0  0  0  0  0  0  0  0
   58.7543   29.7490   47.8061 H   0  0  0  0  0  0  0  0  0  0  0  0
   58.0042   32.3584   43.6297 H   0  0  0  0  0  0  0  0  0  0  0  0
   60.0307   33.7196   44.3882 H   0  0  0  0  0  0  0  0  0  0  0  0
   58.5118   34.4032   45.2473 H   0  0  0  0  0  0  0  0  0  0  0  0
   60.6834   35.4349   45.9118 H   0  0  0  0  0  0  0  0  0  0  0  0
   59.6446   34.7375   47.2209 H   0  0  0  0  0  0  0  0  0  0  0  0
   62.9490   34.8315   45.8152 H   0  0  0  0  0  0  0  0  0  0  0  0
   64.8224   33.3436   46.5247 H   0  0  0  0  0  0  0  0  0  0  0  0
   64.3559   31.3121   47.8949 H   0  0  0  0  0  0  0  0  0  0  0  0
   62.0174   30.7652   48.5667 H   0  0  0  0  0  0  0  0  0  0  0  0
   59.8040   31.4990   48.7410 H   0  0  0  0  0  0  0  0  0  0  0  0
   59.2850   33.0110   48.3080 H   0  0  0  0  0  0  0  0  0  0  0  0
  1  2  1  0
  2  3  1  0
  3  4  1  0
  3  5  1  0
  5  6  1  0
  6  7  1  0
  7  8  1  0
  8  9  1  0
  9 10  1  0
 10 11  1  0
 11 12  2  0
 12 13  1  0
 13 14  2  0
 14 15  1  0
 15 16  2  0
 16 17  1  0
 14 18  1  0
 18 19  1  0
 19 20  1  0
 20 21  2  0
 21 22  1  0
 22 23  2  0
 23 24  1  0
 24 25  2  0
 25 26  1  0
 16 11  1  0
 25 20  1  0
 26 13  1  0
  1 27  1  0
  1 28  1  0
  1 29  1  0
  2 30  1  0
  2 31  1  0
  4 32  1  0
  4 33  1  0
  4 34  1  0
  5 35  1  0
  5 36  1  0
  6 37  1  0
  6 38  1  0
  8 39  1  0
  8 40  1  0
  9 41  1  0
  9 42  1  0
 10 43  1  0
 12 44  1  0
 15 45  1  0
 18 46  1  0
 18 47  1  0
 19 48  1  0
 19 49  1  0
 21 50  1  0
 22 51  1  0
 23 52  1  0
 24 53  1  0
 26 54  1  0
 26 55  1  0
M  CHG  1  26   1
M  END
>  <UniqueID>  (11) 
11

>  <SMILES>  (11) 
CCN(C)CCOCCNc1cc2c(cc1Br)CCc1ccccc1[NH2+]2

>  <Energy>  (11) 
71.61794898099019

>  <Genealogy>  (11) 
CCN(C)CCOCCNc1cc2c(cc1Br)CCc1ccccc1[NH2+]2 (protonated)
CCN(C)CCOCCNc1cc2c(cc1Br)CCc1ccccc1[NH2+]2 (3D coordinates assigned)
CCN(C)CCOCCNc1cc2c(cc1Br)CCc1ccccc1[NH2+]2 (nonaromatic ring conformer: 71.61794898099019 kcal/mol)

>  <smiles>  (11) 
CCN(C)CCOCCNc1cc2c(cc1Br)CCc1ccccc1N2

>  <score_type>  (11) 
oracle

>  <origin>  (11) 
adg

>  <m_score__min__energy>  (11) 
-4.9199999999999999

>  <m_primary>  (11) 
energy

$$$$
11:0
     RDKit          3D

 72 76  0  0  0  0  0  0  0  0999 V2000
   65.0570   32.9780   49.7920 C   0  0  0  0  0  0  0  0  0  0  0  0
   64.0360   31.9170   49.3770 C   0  0  0  0  0  0  0  0  0  0  0  0
   63.1500   32.4320   48.3050 N   0  0  0  0  0  0  0  0  0  0  0  0
   63.4930   33.8170   47.8750 C   0  0  0  0  0  0  0  0  0  0  0  0
   63.3640   34.0630   46.3610 C   0  0  0  0  0  0  0  0  0  0  0  0
   62.9930   31.4650   47.1910 C   0  0  0  0  0  0  0  0  0  0  0  0
   61.5090   31.1610   46.9310 C   0  0  0  0  0  0  0  0  0  0  0  0
   61.1100   29.9840   47.6080 O   0  0  0  0  0  0  0  0  0  0  0  0
   60.1010   29.2940   46.8920 C   0  0  0  0  0  0  0  0  0  0  0  0
   60.4440   29.2500   45.4000 C   0  0  0  0  0  0  0  0  0  0  0  0
   59.3000   29.5460   44.6230 O   0  0  0  0  0  0  0  0  0  0  0  0
   58.3310   30.2840   45.3490 C   0  0  0  0  0  0  0  0  0  0  0  0
   57.6660   31.3060   44.4130 C   0  0  0  0  0  0  0  0  0  0  0  0
   57.0380   32.4170   45.1460 N   0  0  0  0  0  0  0  0  0  0  0  0
   58.0220   33.3680   45.6350 C   0  0  0  0  0  0  0  0  0  0  0  0
   58.3940   34.4250   44.7810 C   0  0  0  0  0  0  0  0  0  0  0  0
   59.3560   35.3560   45.1600 C   0  0  0  0  0  0  0  0  0  0  0  0
   59.9900   35.2450   46.3900 C   0  0  0  0  0  0  0  0  0  0  0  0
   59.6590   34.2010   47.2660 C   0  0  0  0  0  0  0  0  0  0  0  0
   60.3400   34.0790   48.4790 C   0  0  0  0  0  0  0  0  0  0  0  0
   60.0780   33.0010   49.3330 C   0  0  0  0  0  0  0  0  0  0  0  0
   59.1240   32.0750   48.9790 N   0  0  0  0  0  0  0  0  0  0  0  0
   58.3900   32.2210   47.8340 C   0  0  0  0  0  0  0  0  0  0  0  0
   58.6660   33.2550   46.9090 C   0  0  0  0  0  0  0  0  0  0  0  0
   58.8540   30.9260   49.8680 C   0  0  0  0  0  0  0  0  0  0  0  0
   60.1630   30.3520   50.4190 C   0  0  0  0  0  0  0  0  0  0  0  0
   60.9610   31.4410   51.0790 C   0  0  0  0  0  0  0  0  0  0  0  0
   61.8010   31.1430   52.1750 C   0  0  0  0  0  0  0  0  0  0  0  0
   62.5140   32.1860   52.7480 C   0  0  0  0  0  0  0  0  0  0  0  0
   62.4160   33.4590   52.2950 C   0  0  0  0  0  0  0  0  0  0  0  0
   61.6190   33.8010   51.2060 C   0  0  0  0  0  0  0  0  0  0  0  0
   60.9040   32.7660   50.5550 C   0  0  0  0  0  0  0  0  0  0  0  0
   63.2240   34.2810   53.0570 O   0  0  0  0  0  0  0  0  0  0  0  0
   63.8980   33.4690   54.0280 C   0  0  0  0  0  0  0  0  0  0  0  0
   63.4010   32.1430   53.8080 O   0  0  0  0  0  0  0  0  0  0  0  0
   65.1066   33.0296   50.8897 H   0  0  0  0  0  0  0  0  0  0  0  0
   66.0464   32.7109   49.3924 H   0  0  0  0  0  0  0  0  0  0  0  0
   64.7521   33.9564   49.3924 H   0  0  0  0  0  0  0  0  0  0  0  0
   64.5688   31.0279   49.0088 H   0  0  0  0  0  0  0  0  0  0  0  0
   63.4199   31.6586   50.2509 H   0  0  0  0  0  0  0  0  0  0  0  0
   62.8210   34.5152   48.3955 H   0  0  0  0  0  0  0  0  0  0  0  0
   64.5521   33.9714   48.1290 H   0  0  0  0  0  0  0  0  0  0  0  0
   62.8595   35.0250   46.1875 H   0  0  0  0  0  0  0  0  0  0  0  0
   64.3655   34.0870   45.9068 H   0  0  0  0  0  0  0  0  0  0  0  0
   62.7747   33.2528   45.9068 H   0  0  0  0  0  0  0  0  0  0  0  0
   63.4381   31.8907   46.2796 H   0  0  0  0  0  0  0  0  0  0  0  0
   63.4999   30.5282   47.4659 H   0  0  0  0  0  0  0  0  0  0  0  0
   60.9004   32.0054   47.2868 H   0  0  0  0  0  0  0  0  0  0  0  0
   61.3640   31.0122   45.8508 H   0  0  0  0  0  0  0  0  0  0  0  0
   60.0212   28.2665   47.2765 H   0  0  0  0  0  0  0  0  0  0  0  0
   59.1445   29.8209   47.0240 H   0  0  0  0  0  0  0  0  0  0  0  0
   61.2289   29.9905   45.1864 H   0  0  0  0  0  0  0  0  0  0  0  0
   60.7978   28.2403   45.1445 H   0  0  0  0  0  0  0  0  0  0  0  0
   57.5681   29.5981   45.7459 H   0  0  0  0  0  0  0  0  0  0  0  0
   58.8173   30.8101   46.1837 H   0  0  0  0  0  0  0  0  0  0  0  0
   58.4316   31.7167   43.7383 H   0  0  0  0  0  0  0  0  0  0  0  0
   56.8743   30.7833   43.8562 H   0  0  0  0  0  0  0  0  0  0  0  0
   56.5330   32.0210   45.9750 H   0  0  0  0  0  0  0  0  0  0  0  0
   56.2930   32.8440   44.5540 H   0  0  0  0  0  0  0  0  0  0  0  0
   57.9145   34.5160   43.7952 H   0  0  0  0  0  0  0  0  0  0  0  0
   59.6151   36.1830   44.4826 H   0  0  0  0  0  0  0  0  0  0  0  0
   60.7560   35.9797   46.6790 H   0  0  0  0  0  0  0  0  0  0  0  0
   61.0867   34.8343   48.7652 H   0  0  0  0  0  0  0  0  0  0  0  0
   57.5679   31.5197   47.6282 H   0  0  0  0  0  0  0  0  0  0  0  0
   58.2235   31.2576   50.7061 H   0  0  0  0  0  0  0  0  0  0  0  0
   58.3389   30.1441   49.2907 H   0  0  0  0  0  0  0  0  0  0  0  0
   59.9357   29.5682   51.1565 H   0  0  0  0  0  0  0  0  0  0  0  0
   60.7482   29.9250   49.5912 H   0  0  0  0  0  0  0  0  0  0  0  0
   61.8870   30.1168   52.5617 H   0  0  0  0  0  0  0  0  0  0  0  0
   61.5467   34.8432   50.8616 H   0  0  0  0  0  0  0  0  0  0  0  0
   64.9866   33.5049   53.8741 H   0  0  0  0  0  0  0  0  0  0  0  0
   63.7149   33.8148   55.0561 H   0  0  0  0  0  0  0  0  0  0  0  0
  1  2  1  0
  2  3  1  0
  3  4  1  0
  4  5  1  0
  3  6  1  0
  6  7  1  0
  7  8  1  0
  8  9  1  0
  9 10  1  0
 10 11  1  0
 11 12  1  0
 12 13  1  0
 13 14  1  0
 14 15  1  0
 15 16  2  0
 16 17  1  0
 17 18  2  0
 18 19  1  0
 19 20  2  0
 20 21  1  0
 21 22  2  0
 22 23  1  0
 23 24  2  0
 22 25  1  0
 25 26  1  0
 26 27  1  0
 27 28  2  0
 28 29  1  0
 29 30  2  0
 30 31  1  0
 31 32  2  0
 30 33  1  0
 33 34  1  0
 34 35  1  0
 24 15  1  0
 32 27  1  0
 24 19  1  0
 35 29  1  0
 32 21  1  0
  1 36  1  0
  1 37  1  0
  1 38  1  0
  2 39  1  0
  2 40  1  0
  4 41  1  0
  4 42  1  0
  5 43  1  0
  5 44  1  0
  5 45  1  0
  6 46  1  0
  6 47  1  0
  7 48  1  0
  7 49  1  0
  9 50  1  0
  9 51  1  0
 10 52  1  0
 10 53  1  0
 12 54  1  0
 12 55  1  0
 13 56  1  0
 13 57  1  0
 14 58  1  0
 14 59  1  0
 16 60  1  0
 17 61  1  0
 18 62  1  0
 20 63  1  0
 23 64  1  0
 25 65  1  0
 25 66  1  0
 26 67  1  0
 26 68  1  0
 28 69  1  0
 31 70  1  0
 34 71  1  0
 34 72  1  0
M  CHG  2  14   1  22   1
M  END
>  <UniqueID>  (12) 
12

>  <SMILES>  (12) 
CCN(CC)CCOCCOCC[NH2+]c1cccc2cc3[n+](cc12)CCc1cc2c(cc1-3)OCO2

>  <Energy>  (12) 
128.63914917582272

>  <Genealogy>  (12) 
CCN(CC)CCOCCOCC[NH2+]c1cccc2cc3[n+](cc12)CCc1cc2c(cc1-3)OCO2 (protonated)
CCN(CC)CCOCCOCC[NH2+]c1cccc2cc3[n+](cc12)CCc1cc2c(cc1-3)OCO2 (3D coordinates assigned)
CCN(CC)CCOCCOCC[NH2+]c1cccc2cc3[n+](cc12)CCc1cc2c(cc1-3)OCO2 (nonaromatic ring conformer: 128.63914917582272 kcal/mol)

>  <smiles>  (12) 
CCN(CC)CCOCCOCCNc1cccc2cc3[n+](cc12)CCc1cc2c(cc1-3)OCO2

>  <score_type>  (12) 
oracle

>  <origin>  (12) 
adg

>  <m_score__min__energy>  (12) 
-4.9000000000000004

>  <m_primary>  (12) 
energy

$$$$
12:0
     RDKit          3D

 53 55  0  0  0  0  0  0  0  0999 V2000
   61.0770   32.8490   51.1250 C   0  0  0  0  0  0  0  0  0  0  0  0
   60.9940   33.8580   50.1240 O   0  0  0  0  0  0  0  0  0  0  0  0
   61.6800   33.8260   48.8960 C   0  0  0  0  0  0  0  0  0  0  0  0
   63.0870   33.7860   48.8400 C   0  0  0  0  0  0  0  0  0  0  0  0
   63.7450   33.7700   47.6060 C   0  0  0  0  0  0  0  0  0  0  0  0
   63.0110   33.8000   46.4210 C   0  0  0  0  0  0  0  0  0  0  0  0
   61.6170   33.8380   46.4630 C   0  0  0  0  0  0  0  0  0  0  0  0
   60.9390   33.8420   47.6940 C   0  0  0  0  0  0  0  0  0  0  0  0
   59.4300   33.9080   47.6960 C   0  0  0  0  0  0  0  0  0  0  0  0
   58.8730   33.0150   46.6580 N   0  0  0  0  0  0  0  0  0  0  0  0
   57.4290   33.2300   46.4890 C   0  0  0  0  0  0  0  0  0  0  0  0
   56.9910   32.5660   45.1910 C   0  0  0  0  0  0  0  0  0  0  0  0
   57.5870   31.2300   45.0310 N   0  0  0  0  0  0  0  0  0  0  0  0
   57.2200   30.4670   43.8560 C   0  0  0  0  0  0  0  0  0  0  0  0
   56.6160   31.0380   42.9090 O   0  0  0  0  0  0  0  0  0  0  0  0
   57.5350   28.9960   43.7370 C   0  0  0  0  0  0  0  0  0  0  0  0
   56.8300   28.2240   44.7130 O   0  0  0  0  0  0  0  0  0  0  0  0
   57.4200   27.3700   45.6610 C   0  0  0  0  0  0  0  0  0  0  0  0
   58.7950   27.4210   45.9690 C   0  0  0  0  0  0  0  0  0  0  0  0
   59.3350   26.5580   46.9240 C   0  0  0  0  0  0  0  0  0  0  0  0
   58.5160   25.6380   47.5790 C   0  0  0  0  0  0  0  0  0  0  0  0
   57.1540   25.5770   47.2810 C   0  0  0  0  0  0  0  0  0  0  0  0
   56.5960   26.4420   46.3190 C   0  0  0  0  0  0  0  0  0  0  0  0
   55.2300   26.4130   45.9930 O   0  0  0  0  0  0  0  0  0  0  0  0
   54.5230   25.2450   45.5880 C   0  0  0  0  0  0  0  0  0  0  0  0
   58.3430   30.5980   46.1300 C   0  0  0  0  0  0  0  0  0  0  0  0
   59.1260   31.6030   47.0100 C   0  0  0  0  0  0  0  0  0  0  0  0
   61.0386   33.3159   52.1203 H   0  0  0  0  0  0  0  0  0  0  0  0
   60.2331   32.1521   51.0141 H   0  0  0  0  0  0  0  0  0  0  0  0
   62.0234   32.2994   51.0141 H   0  0  0  0  0  0  0  0  0  0  0  0
   63.6713   33.7672   49.7718 H   0  0  0  0  0  0  0  0  0  0  0  0
   64.8438   33.7337   47.5703 H   0  0  0  0  0  0  0  0  0  0  0  0
   63.5315   33.7937   45.4520 H   0  0  0  0  0  0  0  0  0  0  0  0
   61.0437   33.8651   45.5246 H   0  0  0  0  0  0  0  0  0  0  0  0
   59.0550   33.5957   48.6818 H   0  0  0  0  0  0  0  0  0  0  0  0
   59.1181   34.9410   47.4824 H   0  0  0  0  0  0  0  0  0  0  0  0
   56.8859   32.7845   47.3355 H   0  0  0  0  0  0  0  0  0  0  0  0
   57.2096   34.3073   46.4542 H   0  0  0  0  0  0  0  0  0  0  0  0
   55.8953   32.4689   45.1931 H   0  0  0  0  0  0  0  0  0  0  0  0
   57.3313   33.1940   44.3545 H   0  0  0  0  0  0  0  0  0  0  0  0
   57.2477   28.6499   42.7332 H   0  0  0  0  0  0  0  0  0  0  0  0
   58.6135   28.8612   43.9065 H   0  0  0  0  0  0  0  0  0  0  0  0
   59.4450   28.1440   45.4545 H   0  0  0  0  0  0  0  0  0  0  0  0
   60.4083   26.6034   47.1606 H   0  0  0  0  0  0  0  0  0  0  0  0
   58.9444   24.9596   48.3315 H   0  0  0  0  0  0  0  0  0  0  0  0
   56.5126   24.8496   47.8000 H   0  0  0  0  0  0  0  0  0  0  0  0
   54.1882   24.6920   46.4780 H   0  0  0  0  0  0  0  0  0  0  0  0
   53.6490   25.5355   44.9866 H   0  0  0  0  0  0  0  0  0  0  0  0
   55.1857   24.6053   44.9866 H   0  0  0  0  0  0  0  0  0  0  0  0
   57.6333   30.0551   46.7716 H   0  0  0  0  0  0  0  0  0  0  0  0
   59.0859   29.9326   45.6660 H   0  0  0  0  0  0  0  0  0  0  0  0
   58.8345   31.4480   48.0593 H   0  0  0  0  0  0  0  0  0  0  0  0
   60.1967   31.4143   46.8426 H   0  0  0  0  0  0  0  0  0  0  0  0
  1  2  1  0
  2  3  1  0
  3  4  2  0
  4  5  1  0
  5  6  2  0
  6  7  1  0
  7  8  2  0
  8  9  1  0
  9 10  1  0
 10 11  1  0
 11 12  1  0
 12 13  1  0
 13 14  1  0
 14 15  2  0
 14 16  1  0
 16 17  1  0
 17 18  1  0
 18 19  2  0
 19 20  1  0
 20 21  2  0
 21 22  1  0
 22 23  2  0
 23 24  1  0
 24 25  1  0
 13 26  1  0
 26 27  1  0
  8  3  1  0
 27 10  1  0
 23 18  1  0
  1 28  1  0
  1 29  1  0
  1 30  1  0
  4 31  1  0
  5 32  1  0
  6 33  1  0
  7 34  1  0
  9 35  1  0
  9 36  1  0
 11 37  1  0
 11 38  1  0
 12 39  1  0
 12 40  1  0
 16 41  1  0
 16 42  1  0
 19 43  1  0
 20 44  1  0
 21 45  1  0
 22 46  1  0
 25 47  1  0
 25 48  1  0
 25 49  1  0
 26 50  1  0
 26 51  1  0
 27 52  1  0
 27 53  1  0
M  END
>  <UniqueID>  (13) 
13

>  <SMILES>  (13) 
COc1ccccc1CN1CCN(C(=O)COc2ccccc2OC)CC1

>  <Energy>  (13) 
60.43712142892893

>  <Genealogy>  (13) 
COc1ccccc1CN1CCN(C(=O)COc2ccccc2OC)CC1 (3D coordinates assigned)
COc1ccccc1CN1CCN(C(=O)COc2ccccc2OC)CC1 (nonaromatic ring conformer: 60.43712142892893 kcal/mol)

>  <smiles>  (13) 
COc1ccccc1CN1CCN(C(=O)COc2ccccc2OC)CC1

>  <score_type>  (13) 
oracle

>  <origin>  (13) 
adg

>  <m_score__min__energy>  (13) 
-8.2300000000000004

>  <m_primary>  (13) 
energy

$$$$
13:0
     RDKit          3D

 70 69  0  0  0  0  0  0  0  0999 V2000
   63.0950   33.8680   46.4090 C   0  0  0  0  0  0  0  0  0  0  0  0
   63.7640   33.2190   47.6220 C   0  0  0  0  0  0  0  0  0  0  0  0
   63.0360   31.9520   48.0990 C   0  0  0  0  0  0  0  0  0  0  0  0
   61.8910   31.5380   47.1560 C   0  0  0  0  0  0  0  0  0  0  0  0
   60.6890   30.9500   47.9110 C   0  0  0  0  0  0  0  0  0  0  0  0
   59.4040   31.7670   47.7080 C   0  0  0  0  0  0  0  0  0  0  0  0
   59.2280   32.8030   48.8290 C   0  0  0  0  0  0  0  0  0  0  0  0
   59.9440   34.1360   48.5210 C   0  0  0  0  0  0  0  0  0  0  0  0
   59.2720   34.9590   47.4060 C   0  0  0  0  0  0  0  0  0  0  0  0
   59.8860   34.7830   46.0060 C   0  0  0  0  0  0  0  0  0  0  0  0
   58.8650   34.6050   44.8640 C   0  0  0  0  0  0  0  0  0  0  0  0
   57.7360   33.6260   45.2200 C   0  0  0  0  0  0  0  0  0  0  0  0
   58.0820   32.1960   44.7790 C   0  0  0  0  0  0  0  0  0  0  0  0
   57.6390   31.8850   43.3400 C   0  0  0  0  0  0  0  0  0  0  0  0
   56.9120   30.5390   43.1710 C   0  0  0  0  0  0  0  0  0  0  0  0
   56.6320   29.8160   44.4570 C   0  0  0  0  0  0  0  0  0  0  0  0
   55.4460   29.6650   44.8650 O   0  0  0  0  0  0  0  0  0  0  0  0
   57.6970   29.2050   45.1270 O   0  0  0  0  0  0  0  0  0  0  0  0
   58.8770   28.7370   44.4770 C   0  0  0  0  0  0  0  0  0  0  0  0
   60.0240   28.5240   45.4740 C   0  0  0  0  0  0  0  0  0  0  0  0
   59.7900   27.3260   46.3260 N   0  0  0  0  0  0  0  0  0  0  0  0
   59.3060   27.6960   47.6800 C   0  0  0  0  0  0  0  0  0  0  0  0
   60.4250   27.7030   48.7180 C   0  0  0  0  0  0  0  0  0  0  0  0
   58.8120   26.4140   45.6870 C   0  0  0  0  0  0  0  0  0  0  0  0
   57.5460   26.3120   46.5270 C   0  0  0  0  0  0  0  0  0  0  0  0
   62.3444   34.5962   46.7502 H   0  0  0  0  0  0  0  0  0  0  0  0
   63.8551   34.3819   45.8023 H   0  0  0  0  0  0  0  0  0  0  0  0
   62.6044   33.0926   45.8023 H   0  0  0  0  0  0  0  0  0  0  0  0
   64.7960   32.9504   47.3520 H   0  0  0  0  0  0  0  0  0  0  0  0
   63.7332   33.9476   48.4455 H   0  0  0  0  0  0  0  0  0  0  0  0
   63.7624   31.1278   48.1546 H   0  0  0  0  0  0  0  0  0  0  0  0
   62.5955   32.1707   49.0829 H   0  0  0  0  0  0  0  0  0  0  0  0
   61.5568   32.4244   46.5968 H   0  0  0  0  0  0  0  0  0  0  0  0
   62.2776   30.7574   46.4843 H   0  0  0  0  0  0  0  0  0  0  0  0
   60.5148   29.9251   47.5516 H   0  0  0  0  0  0  0  0  0  0  0  0
   60.9290   30.9695   48.9843 H   0  0  0  0  0  0  0  0  0  0  0  0
   59.4583   32.2888   46.7411 H   0  0  0  0  0  0  0  0  0  0  0  0
   58.5450   31.0801   47.7272 H   0  0  0  0  0  0  0  0  0  0  0  0
   58.1541   33.0017   48.9601 H   0  0  0  0  0  0  0  0  0  0  0  0
   59.6771   32.3861   49.7425 H   0  0  0  0  0  0  0  0  0  0  0  0
   59.9585   34.7421   49.4388 H   0  0  0  0  0  0  0  0  0  0  0  0
   60.9546   33.8829   48.1679 H   0  0  0  0  0  0  0  0  0  0  0  0
   58.2139   34.6627   47.3540 H   0  0  0  0  0  0  0  0  0  0  0  0
   59.4177   36.0158   47.6743 H   0  0  0  0  0  0  0  0  0  0  0  0
   60.4930   35.6734   45.7853 H   0  0  0  0  0  0  0  0  0  0  0  0
   60.4720   33.8528   46.0421 H   0  0  0  0  0  0  0  0  0  0  0  0
   58.4208   35.5847   44.6342 H   0  0  0  0  0  0  0  0  0  0  0  0
   59.4042   34.1879   44.0007 H   0  0  0  0  0  0  0  0  0  0  0  0
   57.5805   33.6381   46.3089 H   0  0  0  0  0  0  0  0  0  0  0  0
   56.8225   33.9414   44.6946 H   0  0  0  0  0  0  0  0  0  0  0  0
   59.1718   32.0629   44.8463 H   0  0  0  0  0  0  0  0  0  0  0  0
   57.5411   31.5074   45.4448 H   0  0  0  0  0  0  0  0  0  0  0  0
   56.9608   32.6853   43.0091 H   0  0  0  0  0  0  0  0  0  0  0  0
   58.5572   31.8216   42.7376 H   0  0  0  0  0  0  0  0  0  0  0  0
   55.9525   30.7278   42.6672 H   0  0  0  0  0  0  0  0  0  0  0  0
   57.5841   29.8917   42.5885 H   0  0  0  0  0  0  0  0  0  0  0  0
   58.6551   27.7818   43.9786 H   0  0  0  0  0  0  0  0  0  0  0  0
   59.1922   29.4969   43.7469 H   0  0  0  0  0  0  0  0  0  0  0  0
   60.9622   28.3882   44.9160 H   0  0  0  0  0  0  0  0  0  0  0  0
   60.0818   29.4068   46.1277 H   0  0  0  0  0  0  0  0  0  0  0  0
   58.8615   28.7011   47.6335 H   0  0  0  0  0  0  0  0  0  0  0  0
   58.5675   26.9416   47.9891 H   0  0  0  0  0  0  0  0  0  0  0  0
   59.9885   27.7003   49.7277 H   0  0  0  0  0  0  0  0  0  0  0  0
   61.0521   26.8088   48.5872 H   0  0  0  0  0  0  0  0  0  0  0  0
   61.0408   28.6050   48.5872 H   0  0  0  0  0  0  0  0  0  0  0  0
   58.5542   26.8013   44.6902 H   0  0  0  0  0  0  0  0  0  0  0  0
   59.2626   25.4141   45.6019 H   0  0  0  0  0  0  0  0  0  0  0  0
   57.8114   26.3334   47.5943 H   0  0  0  0  0  0  0  0  0  0  0  0
   56.8839   27.1597   46.2968 H   0  0  0  0  0  0  0  0  0  0  0  0
   57.0282   25.3692   46.2968 H   0  0  0  0  0  0  0  0  0  0  0  0
  1  2  1  0
  2  3  1  0
  3  4  1  0
  4  5  1  0
  5  6  1  0
  6  7  1  0
  7  8  1  0
  8  9  1  0
  9 10  1  0
 10 11  1  0
 11 12  1  0
 12 13  1  0
 13 14  1  0
 14 15  1  0
 15 16  1  0
 16 17  2  0
 16 18  1  0
 18 19  1  0
 19 20  1  0
 20 21  1  0
 21 22  1  0
 22 23  1  0
 21 24  1  0
 24 25  1  0
  1 26  1  0
  1 27  1  0
  1 28  1  0
  2 29  1  0
  2 30  1  0
  3 31  1  0
  3 32  1  0
  4 33  1  0
  4 34  1  0
  5 35  1  0
  5 36  1  0
  6 37  1  0
  6 38  1  0
  7 39  1  0
  7 40  1  0
  8 41  1  0
  8 42  1  0
  9 43  1  0
  9 44  1  0
 10 45  1  0
 10 46  1  0
 11 47  1  0
 11 48  1  0
 12 49  1  0
 12 50  1  0
 13 51  1  0
 13 52  1  0
 14 53  1  0
 14 54  1  0
 15 55  1  0
 15 56  1  0
 19 57  1  0
 19 58  1  0
 20 59  1  0
 20 60  1  0
 22 61  1  0
 22 62  1  0
 23 63  1  0
 23 64  1  0
 23 65  1  0
 24 66  1  0
 24 67  1  0
 25 68  1  0
 25 69  1  0
 25 70  1  0
M  END
>  <UniqueID>  (14) 
14

>  <SMILES>  (14) 
CCCCCCCCCCCCCCCC(=O)OCCN(CC)CC

>  <Energy>  (14) 
39.5050324808631

>  <Genealogy>  (14) 
CCCCCCCCCCCCCCCC(=O)OCCN(CC)CC (3D coordinates assigned)
CCCCCCCCCCCCCCCC(=O)OCCN(CC)CC (optimized conformer: 39.5050324808631 kcal/mol)

>  <smiles>  (14) 
CCCCCCCCCCCCCCCC(=O)OCCN(CC)CC

>  <score_type>  (14) 
oracle

>  <origin>  (14) 
adg

>  <m_score__min__energy>  (14) 
-6.7800000000000002

>  <m_primary>  (14) 
energy

$$$$
14:0
     RDKit          3D

 62 64  0  0  0  0  0  0  0  0999 V2000
   58.5750   29.0790   44.5320 C   0  0  0  0  0  0  0  0  0  0  0  0
   57.4940   29.6380   45.4550 C   0  0  0  0  0  0  0  0  0  0  0  0
   56.8080   30.7900   44.8300 N   0  0  0  0  0  0  0  0  0  0  0  0
   56.6150   30.5440   43.3890 C   0  0  0  0  0  0  0  0  0  0  0  0
   57.5300   32.0710   45.0540 C   0  0  0  0  0  0  0  0  0  0  0  0
   58.1420   32.1020   46.4610 C   0  0  0  0  0  0  0  0  0  0  0  0
   58.1770   33.5220   47.0510 C   0  0  0  0  0  0  0  0  0  0  0  0
   59.3010   34.3790   46.4320 C   0  0  0  0  0  0  0  0  0  0  0  0
   60.6350   34.2910   47.1920 C   0  0  0  0  0  0  0  0  0  0  0  0
   61.8000   33.8230   46.3040 C   0  0  0  0  0  0  0  0  0  0  0  0
   63.1600   33.9020   47.0200 C   0  0  0  0  0  0  0  0  0  0  0  0
   63.7660   32.5700   47.2090 N   0  0  0  0  0  0  0  0  0  0  0  0
   63.3070   31.9600   48.4480 C   0  0  0  0  0  0  0  0  0  0  0  0
   64.0350   32.1390   49.6530 C   0  0  0  0  0  0  0  0  0  0  0  0
   65.3190   32.7370   49.6640 C   0  0  0  0  0  0  0  0  0  0  0  0
   66.0380   32.8740   50.8490 C   0  0  0  0  0  0  0  0  0  0  0  0
   65.5050   32.4120   52.0450 C   0  0  0  0  0  0  0  0  0  0  0  0
   64.2450   31.8230   52.0670 C   0  0  0  0  0  0  0  0  0  0  0  0
   63.4730   31.6930   50.8820 C   0  0  0  0  0  0  0  0  0  0  0  0
   62.2100   31.1360   50.9060 N   0  0  0  0  0  0  0  0  0  0  0  0
   61.4960   30.9770   52.1930 C   0  0  0  0  0  0  0  0  0  0  0  0
   61.6150   30.7280   49.7300 C   0  0  0  0  0  0  0  0  0  0  0  0
   60.4850   29.8720   49.7350 C   0  0  0  0  0  0  0  0  0  0  0  0
   59.8710   29.4790   48.5480 C   0  0  0  0  0  0  0  0  0  0  0  0
   60.3700   29.9120   47.3270 C   0  0  0  0  0  0  0  0  0  0  0  0
   61.4950   30.7320   47.2850 C   0  0  0  0  0  0  0  0  0  0  0  0
   62.1430   31.1490   48.4750 C   0  0  0  0  0  0  0  0  0  0  0  0
   59.3912   28.6569   45.1367 H   0  0  0  0  0  0  0  0  0  0  0  0
   58.1436   28.2910   43.8973 H   0  0  0  0  0  0  0  0  0  0  0  0
   58.9687   29.8865   43.8973 H   0  0  0  0  0  0  0  0  0  0  0  0
   56.7559   28.8495   45.6636 H   0  0  0  0  0  0  0  0  0  0  0  0
   57.9695   29.9766   46.3873 H   0  0  0  0  0  0  0  0  0  0  0  0
   55.9414   29.6854   43.2506 H   0  0  0  0  0  0  0  0  0  0  0  0
   56.1732   31.4359   42.9207 H   0  0  0  0  0  0  0  0  0  0  0  0
   57.5864   30.3271   42.9207 H   0  0  0  0  0  0  0  0  0  0  0  0
   58.3321   32.1701   44.3078 H   0  0  0  0  0  0  0  0  0  0  0  0
   56.8176   32.9035   44.9566 H   0  0  0  0  0  0  0  0  0  0  0  0
   57.5422   31.4590   47.1219 H   0  0  0  0  0  0  0  0  0  0  0  0
   59.1791   31.7435   46.3849 H   0  0  0  0  0  0  0  0  0  0  0  0
   57.2107   34.0106   46.8575 H   0  0  0  0  0  0  0  0  0  0  0  0
   58.3712   33.4362   48.1303 H   0  0  0  0  0  0  0  0  0  0  0  0
   59.4670   34.0403   45.3987 H   0  0  0  0  0  0  0  0  0  0  0  0
   58.9709   35.4271   46.4821 H   0  0  0  0  0  0  0  0  0  0  0  0
   60.8770   35.2864   47.5927 H   0  0  0  0  0  0  0  0  0  0  0  0
   60.5104   33.5467   47.9924 H   0  0  0  0  0  0  0  0  0  0  0  0
   61.6188   32.7796   46.0064 H   0  0  0  0  0  0  0  0  0  0  0  0
   61.8436   34.4924   45.4322 H   0  0  0  0  0  0  0  0  0  0  0  0
   63.8424   34.5200   46.4180 H   0  0  0  0  0  0  0  0  0  0  0  0
   62.9943   34.3429   48.0141 H   0  0  0  0  0  0  0  0  0  0  0  0
   64.8080   32.6410   47.2040 H   0  0  0  0  0  0  0  0  0  0  0  0
   63.5600   31.9420   46.4000 H   0  0  0  0  0  0  0  0  0  0  0  0
   65.7554   33.0991   48.7214 H   0  0  0  0  0  0  0  0  0  0  0  0
   67.0300   33.3491   50.8374 H   0  0  0  0  0  0  0  0  0  0  0  0
   66.0804   32.5120   52.9772 H   0  0  0  0  0  0  0  0  0  0  0  0
   63.8392   31.4512   53.0194 H   0  0  0  0  0  0  0  0  0  0  0  0
   62.1992   31.1336   53.0242 H   0  0  0  0  0  0  0  0  0  0  0  0
   60.6839   31.7163   52.2555 H   0  0  0  0  0  0  0  0  0  0  0  0
   61.0743   29.9630   52.2555 H   0  0  0  0  0  0  0  0  0  0  0  0
   60.0855   29.5113   50.6943 H   0  0  0  0  0  0  0  0  0  0  0  0
   58.9881   28.8236   48.5782 H   0  0  0  0  0  0  0  0  0  0  0  0
   59.8766   29.6073   46.3923 H   0  0  0  0  0  0  0  0  0  0  0  0
   61.8875   31.0618   46.3118 H   0  0  0  0  0  0  0  0  0  0  0  0
  1  2  1  0
  2  3  1  0
  3  4  1  0
  3  5  1  0
  5  6  1  0
  6  7  1  0
  7  8  1  0
  8  9  1  0
  9 10  1  0
 10 11  1  0
 11 12  1  0
 12 13  1  0
 13 14  2  0
 14 15  1  0
 15 16  2  0
 16 17  1  0
 17 18  2  0
 18 19  1  0
 19 20  2  0
 20 21  1  0
 20 22  1  0
 22 23  2  0
 23 24  1  0
 24 25  2  0
 25 26  1  0
 26 27  2  0
 27 13  1  0
 19 14  1  0
 27 22  1  0
  1 28  1  0
  1 29  1  0
  1 30  1  0
  2 31  1  0
  2 32  1  0
  4 33  1  0
  4 34  1  0
  4 35  1  0
  5 36  1  0
  5 37  1  0
  6 38  1  0
  6 39  1  0
  7 40  1  0
  7 41  1  0
  8 42  1  0
  8 43  1  0
  9 44  1  0
  9 45  1  0
 10 46  1  0
 10 47  1  0
 11 48  1  0
 11 49  1  0
 12 50  1  0
 12 51  1  0
 15 52  1  0
 16 53  1  0
 17 54  1  0
 18 55  1  0
 21 56  1  0
 21 57  1  0
 21 58  1  0
 23 59  1  0
 24 60  1  0
 25 61  1  0
 26 62  1  0
M  CHG  2  12   1  20   1
M  END
>  <UniqueID>  (15) 
15

>  <SMILES>  (15) 
CCN(C)CCCCCCC[NH2+]c1c2ccccc2[n+](C)c2ccccc12

>  <Energy>  (15) 
83.28168374071745

>  <Genealogy>  (15) 
CCN(C)CCCCCCC[NH2+]c1c2ccccc2[n+](C)c2ccccc12 (protonated)
CCN(C)CCCCCCC[NH2+]c1c2ccccc2[n+](C)c2ccccc12 (3D coordinates assigned)
CCN(C)CCCCCCC[NH2+]c1c2ccccc2[n+](C)c2ccccc12 (optimized conformer: 83.28168374071745 kcal/mol)

>  <smiles>  (15) 
CCN(C)CCCCCCCNc1c2ccccc2[n+](C)c2ccccc12

>  <score_type>  (15) 
oracle

>  <origin>  (15) 
adg

>  <m_score__min__energy>  (15) 
-5.4299999999999997

>  <m_primary>  (15) 
energy

$$$$
15:0
     RDKit          3D

 54 57  0  0  0  0  0  0  0  0999 V2000
   55.7450   29.9090   44.3370 C   0  0  0  0  0  0  0  0  0  0  0  0
   56.6670   30.5170   43.2790 C   0  0  0  0  0  0  0  0  0  0  0  0
   57.5250   31.5750   43.8620 N   0  0  0  0  0  0  0  0  0  0  0  0
   58.1400   32.4170   42.8070 C   0  0  0  0  0  0  0  0  0  0  0  0
   57.4240   32.2120   41.4720 C   0  0  0  0  0  0  0  0  0  0  0  0
   56.7820   32.3930   44.8580 C   0  0  0  0  0  0  0  0  0  0  0  0
   57.7640   33.0740   45.8150 C   0  0  0  0  0  0  0  0  0  0  0  0
   59.0410   32.3650   45.8450 N   0  0  0  0  0  0  0  0  0  0  0  0
   59.4090   31.5750   46.9880 C   0  0  0  0  0  0  0  0  0  0  0  0
   59.8690   32.1940   48.1630 C   0  0  0  0  0  0  0  0  0  0  0  0
   59.9080   33.6010   48.2730 C   0  0  0  0  0  0  0  0  0  0  0  0
   60.3260   34.2130   49.4510 C   0  0  0  0  0  0  0  0  0  0  0  0
   60.7020   33.4370   50.5400 C   0  0  0  0  0  0  0  0  0  0  0  0
   60.6900   32.0450   50.4490 C   0  0  0  0  0  0  0  0  0  0  0  0
   60.3100   31.3920   49.2480 C   0  0  0  0  0  0  0  0  0  0  0  0
   60.3580   30.0150   49.1210 N   0  0  0  0  0  0  0  0  0  0  0  0
   61.0900   29.2060   50.1230 C   0  0  0  0  0  0  0  0  0  0  0  0
   59.7530   29.3980   48.0420 C   0  0  0  0  0  0  0  0  0  0  0  0
   59.5520   27.9930   48.0040 C   0  0  0  0  0  0  0  0  0  0  0  0
   58.9900   27.3720   46.8820 C   0  0  0  0  0  0  0  0  0  0  0  0
   58.8110   25.9820   46.8310 C   0  0  0  0  0  0  0  0  0  0  0  0
   58.2430   25.3950   45.6980 C   0  0  0  0  0  0  0  0  0  0  0  0
   57.8550   26.2040   44.6290 C   0  0  0  0  0  0  0  0  0  0  0  0
   58.0310   27.5510   44.6930 N   0  0  0  0  0  0  0  0  0  0  0  0
   58.5870   28.1490   45.7810 C   0  0  0  0  0  0  0  0  0  0  0  0
   58.7380   29.5330   45.8140 C   0  0  0  0  0  0  0  0  0  0  0  0
   59.3040   30.1720   46.9380 C   0  0  0  0  0  0  0  0  0  0  0  0
   56.1229   30.1582   45.3396 H   0  0  0  0  0  0  0  0  0  0  0  0
   54.7301   30.3156   44.2162 H   0  0  0  0  0  0  0  0  0  0  0  0
   55.7189   28.8160   44.2162 H   0  0  0  0  0  0  0  0  0  0  0  0
   57.3067   29.7250   42.8623 H   0  0  0  0  0  0  0  0  0  0  0  0
   56.0450   30.9669   42.4912 H   0  0  0  0  0  0  0  0  0  0  0  0
   58.0652   33.4749   43.0990 H   0  0  0  0  0  0  0  0  0  0  0  0
   59.1953   32.1285   42.6923 H   0  0  0  0  0  0  0  0  0  0  0  0
   56.3816   31.9135   41.6571 H   0  0  0  0  0  0  0  0  0  0  0  0
   57.4404   33.1509   40.8992 H   0  0  0  0  0  0  0  0  0  0  0  0
   57.9348   31.4240   40.8992 H   0  0  0  0  0  0  0  0  0  0  0  0
   56.1939   33.1602   44.3330 H   0  0  0  0  0  0  0  0  0  0  0  0
   56.1120   31.7383   45.4345 H   0  0  0  0  0  0  0  0  0  0  0  0
   57.9342   34.1080   45.4804 H   0  0  0  0  0  0  0  0  0  0  0  0
   57.3327   33.0630   46.8268 H   0  0  0  0  0  0  0  0  0  0  0  0
   59.4690   32.0990   44.9290 H   0  0  0  0  0  0  0  0  0  0  0  0
   59.6042   34.2213   47.4169 H   0  0  0  0  0  0  0  0  0  0  0  0
   60.3586   35.3104   49.5196 H   0  0  0  0  0  0  0  0  0  0  0  0
   61.0104   33.9220   51.4779 H   0  0  0  0  0  0  0  0  0  0  0  0
   60.9800   31.4435   51.3231 H   0  0  0  0  0  0  0  0  0  0  0  0
   60.8005   29.5259   51.1349 H   0  0  0  0  0  0  0  0  0  0  0  0
   60.8405   28.1431   49.9891 H   0  0  0  0  0  0  0  0  0  0  0  0
   62.1725   29.3483   49.9891 H   0  0  0  0  0  0  0  0  0  0  0  0
   59.8428   27.3818   48.8711 H   0  0  0  0  0  0  0  0  0  0  0  0
   59.1173   25.3553   47.6816 H   0  0  0  0  0  0  0  0  0  0  0  0
   58.1028   24.3051   45.6487 H   0  0  0  0  0  0  0  0  0  0  0  0
   57.4059   25.7512   43.7328 H   0  0  0  0  0  0  0  0  0  0  0  0
   58.4121   30.1356   44.9534 H   0  0  0  0  0  0  0  0  0  0  0  0
  1  2  1  0
  2  3  1  0
  3  4  1  0
  4  5  1  0
  3  6  1  0
  6  7  1  0
  7  8  1  0
  8  9  1  0
  9 10  2  0
 10 11  1  0
 11 12  2  0
 12 13  1  0
 13 14  2  0
 14 15  1  0
 15 16  2  0
 16 17  1  0
 16 18  1  0
 18 19  2  0
 19 20  1  0
 20 21  2  0
 21 22  1  0
 22 23  2  0
 23 24  1  0
 24 25  2  0
 25 26  1  0
 26 27  2  0
 27  9  1  0
 15 10  1  0
 27 18  1  0
 25 20  1  0
  1 28  1  0
  1 29  1  0
  1 30  1  0
  2 31  1  0
  2 32  1  0
  4 33  1  0
  4 34  1  0
  5 35  1  0
  5 36  1  0
  5 37  1  0
  6 38  1  0
  6 39  1  0
  7 40  1  0
  7 41  1  0
  8 42  1  0
 11 43  1  0
 12 44  1  0
 13 45  1  0
 14 46  1  0
 17 47  1  0
 17 48  1  0
 17 49  1  0
 19 50  1  0
 21 51  1  0
 22 52  1  0
 23 53  1  0
 26 54  1  0
M  CHG  1  16   1
M  END
>  <UniqueID>  (16) 
16

>  <SMILES>  (16) 
CCN(CC)CCNc1c2ccccc2[n+](C)c2cc3cccnc3cc12

>  <Energy>  (16) 
84.91239761067351

>  <Genealogy>  (16) 
CCN(CC)CCNc1c2ccccc2[n+](C)c2cc3cccnc3cc12 (3D coordinates assigned)
CCN(CC)CCNc1c2ccccc2[n+](C)c2cc3cccnc3cc12 (optimized conformer: 84.91239761067351 kcal/mol)

>  <smiles>  (16) 
CCN(CC)CCNc1c2ccccc2[n+](C)c2cc3cccnc3cc12

>  <score_type>  (16) 
oracle

>  <origin>  (16) 
adg

>  <m_score__min__energy>  (16) 
-6.2699999999999996

>  <m_primary>  (16) 
energy

$$$$
16:0
     RDKit          3D

 42 44  0  0  0  0  0  0  0  0999 V2000
   63.0190   32.7300   47.1200 C   0  0  0  0  0  0  0  0  0  0  0  0
   61.8310   32.1020   47.8400 C   0  0  0  0  0  0  0  0  0  0  0  0
   60.8810   31.5960   46.9020 O   0  0  0  0  0  0  0  0  0  0  0  0
   59.7720   32.2930   46.3860 C   0  0  0  0  0  0  0  0  0  0  0  0
   59.6700   33.6960   46.4930 C   0  0  0  0  0  0  0  0  0  0  0  0
   58.5650   34.3730   45.9780 C   0  0  0  0  0  0  0  0  0  0  0  0
   57.5410   33.6680   45.3500 C   0  0  0  0  0  0  0  0  0  0  0  0
   57.6120   32.2790   45.2320 C   0  0  0  0  0  0  0  0  0  0  0  0
   56.6200   31.6320   44.6310 O   0  0  0  0  0  0  0  0  0  0  0  0
   56.6100   30.3160   44.4760 C   0  0  0  0  0  0  0  0  0  0  0  0
   57.6680   29.5270   44.9460 C   0  0  0  0  0  0  0  0  0  0  0  0
   57.6360   28.0550   44.7500 C   0  0  0  0  0  0  0  0  0  0  0  0
   57.4080   27.2010   45.8390 C   0  0  0  0  0  0  0  0  0  0  0  0
   57.3690   25.8160   45.6600 C   0  0  0  0  0  0  0  0  0  0  0  0
   57.5510   25.2470   44.3820 C   0  0  0  0  0  0  0  0  0  0  0  0
   57.5100   23.8080   44.1940 N   0  0  0  0  0  0  0  0  0  0  0  0
   56.5020   23.1970   43.3190 C   0  0  0  0  0  0  0  0  0  0  0  0
   58.4770   22.9390   44.8770 C   0  0  0  0  0  0  0  0  0  0  0  0
   57.7720   26.1140   43.2920 C   0  0  0  0  0  0  0  0  0  0  0  0
   57.8110   27.4990   43.4740 C   0  0  0  0  0  0  0  0  0  0  0  0
   58.7380   30.1680   45.6010 C   0  0  0  0  0  0  0  0  0  0  0  0
   59.6860   29.4770   46.0680 O   0  0  0  0  0  0  0  0  0  0  0  0
   58.7280   31.5740   45.7490 C   0  0  0  0  0  0  0  0  0  0  0  0
   63.7378   33.1099   47.8610 H   0  0  0  0  0  0  0  0  0  0  0  0
   63.5080   31.9726   46.4898 H   0  0  0  0  0  0  0  0  0  0  0  0
   62.6685   33.5606   46.4898 H   0  0  0  0  0  0  0  0  0  0  0  0
   62.1881   31.2763   48.4731 H   0  0  0  0  0  0  0  0  0  0  0  0
   61.3436   32.8724   48.4555 H   0  0  0  0  0  0  0  0  0  0  0  0
   60.4719   34.2628   46.9887 H   0  0  0  0  0  0  0  0  0  0  0  0
   58.5018   35.4675   46.0680 H   0  0  0  0  0  0  0  0  0  0  0  0
   56.6725   34.2082   44.9452 H   0  0  0  0  0  0  0  0  0  0  0  0
   55.7587   29.8361   43.9710 H   0  0  0  0  0  0  0  0  0  0  0  0
   57.2586   27.6254   46.8428 H   0  0  0  0  0  0  0  0  0  0  0  0
   57.1942   25.1610   46.5263 H   0  0  0  0  0  0  0  0  0  0  0  0
   55.7216   22.7240   43.9332 H   0  0  0  0  0  0  0  0  0  0  0  0
   56.0490   23.9727   42.6841 H   0  0  0  0  0  0  0  0  0  0  0  0
   56.9801   22.4365   42.6841 H   0  0  0  0  0  0  0  0  0  0  0  0
   58.3597   23.0444   45.9656 H   0  0  0  0  0  0  0  0  0  0  0  0
   58.2975   21.8928   44.5885 H   0  0  0  0  0  0  0  0  0  0  0  0
   59.4981   23.2289   44.5885 H   0  0  0  0  0  0  0  0  0  0  0  0
   57.9156   25.6946   42.2853 H   0  0  0  0  0  0  0  0  0  0  0  0
   57.9802   28.1584   42.6100 H   0  0  0  0  0  0  0  0  0  0  0  0
  1  2  1  0
  2  3  1  0
  3  4  1  0
  4  5  2  0
  5  6  1  0
  6  7  2  0
  7  8  1  0
  8  9  1  0
  9 10  1  0
 10 11  2  0
 11 12  1  0
 12 13  2  0
 13 14  1  0
 14 15  2  0
 15 16  1  0
 16 17  1  0
 16 18  1  0
 15 19  1  0
 19 20  2  0
 11 21  1  0
 21 22  2  0
 21 23  1  0
 23  4  1  0
 23  8  2  0
 20 12  1  0
  1 24  1  0
  1 25  1  0
  1 26  1  0
  2 27  1  0
  2 28  1  0
  5 29  1  0
  6 30  1  0
  7 31  1  0
 10 32  1  0
 13 33  1  0
 14 34  1  0
 17 35  1  0
 17 36  1  0
 17 37  1  0
 18 38  1  0
 18 39  1  0
 18 40  1  0
 19 41  1  0
 20 42  1  0
M  END
>  <UniqueID>  (17) 
17

>  <SMILES>  (17) 
CCOc1cccc2occ(-c3ccc(N(C)C)cc3)c(=O)c12

>  <Energy>  (17) 
57.677322182135846

>  <Genealogy>  (17) 
CCOc1cccc2occ(-c3ccc(N(C)C)cc3)c(=O)c12 (3D coordinates assigned)
CCOc1cccc2occ(-c3ccc(N(C)C)cc3)c(=O)c12 (optimized conformer: 57.677322182135846 kcal/mol)

>  <smiles>  (17) 
CCOc1cccc2occ(-c3ccc(N(C)C)cc3)c(=O)c12

>  <score_type>  (17) 
oracle

>  <origin>  (17) 
adg

>  <m_score__min__energy>  (17) 
-6.75

>  <m_primary>  (17) 
energy

$$$$
17:0
     RDKit          3D

 46 47  0  0  0  0  0  0  0  0999 V2000
   60.6170   28.6450   44.8290 C   0  0  0  0  0  0  0  0  0  0  0  0
   60.1000   27.9020   46.0720 C   0  0  0  0  0  0  0  0  0  0  0  0
   58.8080   28.4070   46.5930 N   0  0  0  0  0  0  0  0  0  0  0  0
   58.8280   28.6960   48.0450 C   0  0  0  0  0  0  0  0  0  0  0  0
   60.0950   28.1260   48.6810 C   0  0  0  0  0  0  0  0  0  0  0  0
   57.6520   27.5780   46.1810 C   0  0  0  0  0  0  0  0  0  0  0  0
   57.0120   28.1540   44.9170 C   0  0  0  0  0  0  0  0  0  0  0  0
   56.2640   29.3060   45.2530 O   0  0  0  0  0  0  0  0  0  0  0  0
   55.8010   29.9680   44.0960 C   0  0  0  0  0  0  0  0  0  0  0  0
   56.7100   31.1540   43.7730 C   0  0  0  0  0  0  0  0  0  0  0  0
   56.7390   32.0920   44.8530 O   0  0  0  0  0  0  0  0  0  0  0  0
   57.8820   32.4830   45.5710 C   0  0  0  0  0  0  0  0  0  0  0  0
   58.0120   33.8340   45.9140 C   0  0  0  0  0  0  0  0  0  0  0  0
   59.1100   34.2840   46.6520 C   0  0  0  0  0  0  0  0  0  0  0  0
   60.1100   33.3850   47.0460 C   0  0  0  0  0  0  0  0  0  0  0  0
   61.2140   33.8220   47.7960 C   0  0  0  0  0  0  0  0  0  0  0  0
   62.2080   32.9140   48.1770 C   0  0  0  0  0  0  0  0  0  0  0  0
   63.7050   33.5120   49.2010 Br  0  0  0  0  0  0  0  0  0  0  0  0
   62.1090   31.5690   47.8080 C   0  0  0  0  0  0  0  0  0  0  0  0
   61.0140   31.1210   47.0640 C   0  0  0  0  0  0  0  0  0  0  0  0
   60.0050   32.0200   46.6840 C   0  0  0  0  0  0  0  0  0  0  0  0
   58.8920   31.5760   45.9540 C   0  0  0  0  0  0  0  0  0  0  0  0
   61.2191   29.5103   45.1431 H   0  0  0  0  0  0  0  0  0  0  0  0
   61.2381   27.9651   44.2273 H   0  0  0  0  0  0  0  0  0  0  0  0
   59.7636   28.9911   44.2273 H   0  0  0  0  0  0  0  0  0  0  0  0
   59.9747   26.8407   45.8112 H   0  0  0  0  0  0  0  0  0  0  0  0
   60.8437   28.0632   46.8663 H   0  0  0  0  0  0  0  0  0  0  0  0
   58.8029   29.7849   48.1988 H   0  0  0  0  0  0  0  0  0  0  0  0
   57.9500   28.2291   48.5152 H   0  0  0  0  0  0  0  0  0  0  0  0
   60.0054   28.1663   49.7766 H   0  0  0  0  0  0  0  0  0  0  0  0
   60.2274   27.0816   48.3621 H   0  0  0  0  0  0  0  0  0  0  0  0
   60.9644   28.7197   48.3621 H   0  0  0  0  0  0  0  0  0  0  0  0
   57.9941   26.5521   45.9798 H   0  0  0  0  0  0  0  0  0  0  0  0
   56.9070   27.5739   46.9903 H   0  0  0  0  0  0  0  0  0  0  0  0
   57.7990   28.4242   44.1975 H   0  0  0  0  0  0  0  0  0  0  0  0
   56.3471   27.4025   44.4663 H   0  0  0  0  0  0  0  0  0  0  0  0
   55.8034   29.2660   43.2491 H   0  0  0  0  0  0  0  0  0  0  0  0
   54.7792   30.3343   44.2742 H   0  0  0  0  0  0  0  0  0  0  0  0
   57.7301   30.7851   43.5905 H   0  0  0  0  0  0  0  0  0  0  0  0
   56.3162   31.6621   42.8804 H   0  0  0  0  0  0  0  0  0  0  0  0
   57.2396   34.5508   45.5984 H   0  0  0  0  0  0  0  0  0  0  0  0
   59.1895   35.3468   46.9244 H   0  0  0  0  0  0  0  0  0  0  0  0
   61.2974   34.8802   48.0845 H   0  0  0  0  0  0  0  0  0  0  0  0
   62.8964   30.8604   48.1046 H   0  0  0  0  0  0  0  0  0  0  0  0
   60.9427   30.0619   46.7756 H   0  0  0  0  0  0  0  0  0  0  0  0
   58.8066   30.5144   45.6788 H   0  0  0  0  0  0  0  0  0  0  0  0
  1  2  1  0
  2  3  1  0
  3  4  1  0
  4  5  1  0
  3  6  1  0
  6  7  1  0
  7  8  1  0
  8  9  1  0
  9 10  1  0
 10 11  1  0
 11 12  1  0
 12 13  2  0
 13 14  1  0
 14 15  2  0
 15 16  1  0
 16 17  2  0
 17 18  1  0
 17 19  1  0
 19 20  2  0
 20 21  1  0
 21 22  2  0
 22 12  1  0
 21 15  1  0
  1 23  1  0
  1 24  1  0
  1 25  1  0
  2 26  1  0
  2 27  1  0
  4 28  1  0
  4 29  1  0
  5 30  1  0
  5 31  1  0
  5 32  1  0
  6 33  1  0
  6 34  1  0
  7 35  1  0
  7 36  1  0
  9 37  1  0
  9 38  1  0
 10 39  1  0
 10 40  1  0
 13 41  1  0
 14 42  1  0
 16 43  1  0
 19 44  1  0
 20 45  1  0
 22 46  1  0
M  END
>  <UniqueID>  (18) 
18

>  <SMILES>  (18) 
CCN(CC)CCOCCOc1ccc2cc(Br)ccc2c1

>  <Energy>  (18) 
46.67854142694893

>  <Genealogy>  (18) 
CCN(CC)CCOCCOc1ccc2cc(Br)ccc2c1 (3D coordinates assigned)
CCN(CC)CCOCCOc1ccc2cc(Br)ccc2c1 (optimized conformer: 46.67854142694893 kcal/mol)

>  <smiles>  (18) 
CCN(CC)CCOCCOc1ccc2cc(Br)ccc2c1

>  <score_type>  (18) 
oracle

>  <origin>  (18) 
adg

>  <m_score__min__energy>  (18) 
-7.1900000000000004

>  <m_primary>  (18) 
energy

$$$$
18:0
     RDKit          3D

 57 58  0  0  0  0  0  0  0  0999 V2000
   62.9400   33.4750   46.7570 C   0  0  0  0  0  0  0  0  0  0  0  0
   63.6520   33.3400   48.1030 C   0  0  0  0  0  0  0  0  0  0  0  0
   62.7140   33.1890   49.2470 N   0  0  0  0  0  0  0  0  0  0  0  0
   63.0290   34.2360   50.2540 C   0  0  0  0  0  0  0  0  0  0  0  0
   64.1820   33.8210   51.1700 C   0  0  0  0  0  0  0  0  0  0  0  0
   62.8000   31.8330   49.8570 C   0  0  0  0  0  0  0  0  0  0  0  0
   61.4170   31.2880   50.2710 C   0  0  0  0  0  0  0  0  0  0  0  0
   60.3130   32.2450   50.0400 N   0  0  0  0  0  0  0  0  0  0  0  0
   59.7220   32.0670   48.7330 C   0  0  0  0  0  0  0  0  0  0  0  0
   59.5110   30.7730   48.2270 C   0  0  0  0  0  0  0  0  0  0  0  0
   58.9830   30.5850   46.9500 C   0  0  0  0  0  0  0  0  0  0  0  0
   58.6530   31.6880   46.1430 C   0  0  0  0  0  0  0  0  0  0  0  0
   58.1310   31.5240   44.8370 C   0  0  0  0  0  0  0  0  0  0  0  0
   57.9160   30.2170   44.2770 N   0  0  0  0  0  0  0  0  0  0  0  0
   56.7810   29.9950   43.3700 C   0  0  0  0  0  0  0  0  0  0  0  0
   55.4560   29.8800   44.1320 C   0  0  0  0  0  0  0  0  0  0  0  0
   55.5690   28.9770   45.1970 O   0  0  0  0  0  0  0  0  0  0  0  0
   58.9780   29.2090   44.3930 C   0  0  0  0  0  0  0  0  0  0  0  0
   58.4890   27.8280   43.9590 C   0  0  0  0  0  0  0  0  0  0  0  0
   57.3830   27.4350   44.7260 O   0  0  0  0  0  0  0  0  0  0  0  0
   57.8070   32.6550   44.0740 C   0  0  0  0  0  0  0  0  0  0  0  0
   58.0040   33.9370   44.5850 C   0  0  0  0  0  0  0  0  0  0  0  0
   58.5250   34.1110   45.8670 C   0  0  0  0  0  0  0  0  0  0  0  0
   58.8510   32.9960   46.6530 C   0  0  0  0  0  0  0  0  0  0  0  0
   59.3790   33.1740   47.9410 C   0  0  0  0  0  0  0  0  0  0  0  0
   61.8721   33.6775   46.9258 H   0  0  0  0  0  0  0  0  0  0  0  0
   63.3851   34.3047   46.1883 H   0  0  0  0  0  0  0  0  0  0  0  0
   63.0505   32.5399   46.1883 H   0  0  0  0  0  0  0  0  0  0  0  0
   64.3048   32.4554   48.0665 H   0  0  0  0  0  0  0  0  0  0  0  0
   64.2221   34.2664   48.2666 H   0  0  0  0  0  0  0  0  0  0  0  0
   63.3079   35.1615   49.7289 H   0  0  0  0  0  0  0  0  0  0  0  0
   62.1360   34.3868   50.8784 H   0  0  0  0  0  0  0  0  0  0  0  0
   63.8741   33.9318   52.2202 H   0  0  0  0  0  0  0  0  0  0  0  0
   64.4463   32.7713   50.9742 H   0  0  0  0  0  0  0  0  0  0  0  0
   65.0546   34.4615   50.9742 H   0  0  0  0  0  0  0  0  0  0  0  0
   63.2472   31.1438   49.1255 H   0  0  0  0  0  0  0  0  0  0  0  0
   63.4163   31.9110   50.7648 H   0  0  0  0  0  0  0  0  0  0  0  0
   61.2142   30.3757   49.6908 H   0  0  0  0  0  0  0  0  0  0  0  0
   61.4561   31.0938   51.3530 H   0  0  0  0  0  0  0  0  0  0  0  0
   59.5670   32.0820   50.7580 H   0  0  0  0  0  0  0  0  0  0  0  0
   60.6300   33.2340   50.1710 H   0  0  0  0  0  0  0  0  0  0  0  0
   59.7650   29.8991   48.8448 H   0  0  0  0  0  0  0  0  0  0  0  0
   58.8233   29.5648   46.5708 H   0  0  0  0  0  0  0  0  0  0  0  0
   56.7158   30.8396   42.6683 H   0  0  0  0  0  0  0  0  0  0  0  0
   56.9509   29.0486   42.8358 H   0  0  0  0  0  0  0  0  0  0  0  0
   55.1801   30.8692   44.5262 H   0  0  0  0  0  0  0  0  0  0  0  0
   54.6833   29.5131   43.4404 H   0  0  0  0  0  0  0  0  0  0  0  0
   55.1420   28.1310   44.8990 H   0  0  0  0  0  0  0  0  0  0  0  0
   59.8236   29.5056   43.7550 H   0  0  0  0  0  0  0  0  0  0  0  0
   59.2849   29.1508   45.4477 H   0  0  0  0  0  0  0  0  0  0  0  0
   58.1997   27.8633   42.8983 H   0  0  0  0  0  0  0  0  0  0  0  0
   59.3008   27.1006   44.1068 H   0  0  0  0  0  0  0  0  0  0  0  0
   56.5780   27.5600   44.1590 H   0  0  0  0  0  0  0  0  0  0  0  0
   57.3934   32.5294   43.0625 H   0  0  0  0  0  0  0  0  0  0  0  0
   57.7474   34.8152   43.9744 H   0  0  0  0  0  0  0  0  0  0  0  0
   58.6807   35.1255   46.2628 H   0  0  0  0  0  0  0  0  0  0  0  0
   59.5255   34.1910   48.3338 H   0  0  0  0  0  0  0  0  0  0  0  0
  1  2  1  0
  2  3  1  0
  3  4  1  0
  4  5  1  0
  3  6  1  0
  6  7  1  0
  7  8  1  0
  8  9  1  0
  9 10  2  0
 10 11  1  0
 11 12  2  0
 12 13  1  0
 13 14  1  0
 14 15  1  0
 15 16  1  0
 16 17  1  0
 14 18  1  0
 18 19  1  0
 19 20  1  0
 13 21  2  0
 21 22  1  0
 22 23  2  0
 23 24  1  0
 24 25  2  0
 25  9  1  0
 24 12  1  0
  1 26  1  0
  1 27  1  0
  1 28  1  0
  2 29  1  0
  2 30  1  0
  4 31  1  0
  4 32  1  0
  5 33  1  0
  5 34  1  0
  5 35  1  0
  6 36  1  0
  6 37  1  0
  7 38  1  0
  7 39  1  0
  8 40  1  0
  8 41  1  0
 10 42  1  0
 11 43  1  0
 15 44  1  0
 15 45  1  0
 16 46  1  0
 16 47  1  0
 17 48  1  0
 18 49  1  0
 18 50  1  0
 19 51  1  0
 19 52  1  0
 20 53  1  0
 21 54  1  0
 22 55  1  0
 23 56  1  0
 25 57  1  0
M  CHG  1   8   1
M  END
>  <UniqueID>  (19) 
19

>  <SMILES>  (19) 
CCN(CC)CC[NH2+]c1ccc2c(N(CCO)CCO)cccc2c1

>  <Energy>  (19) 
61.90619448782165

>  <Genealogy>  (19) 
CCN(CC)CC[NH2+]c1ccc2c(N(CCO)CCO)cccc2c1 (protonated)
CCN(CC)CC[NH2+]c1ccc2c(N(CCO)CCO)cccc2c1 (3D coordinates assigned)
CCN(CC)CC[NH2+]c1ccc2c(N(CCO)CCO)cccc2c1 (optimized conformer: 61.90619448782165 kcal/mol)

>  <smiles>  (19) 
CCN(CC)CCNc1ccc2c(N(CCO)CCO)cccc2c1

>  <score_type>  (19) 
oracle

>  <origin>  (19) 
adg

>  <m_score__min__energy>  (19) 
-6.4900000000000002

>  <m_primary>  (19) 
energy

$$$$
19:0
     RDKit          3D

 57 59  0  0  0  0  0  0  0  0999 V2000
   57.4600   33.7310   44.8250 C   0  0  0  0  0  0  0  0  0  0  0  0
   57.0210   32.2620   44.8650 C   0  0  0  0  0  0  0  0  0  0  0  0
   57.7150   31.3970   43.8810 N   0  0  0  0  0  0  0  0  0  0  0  0
   57.7830   32.0120   42.5420 C   0  0  0  0  0  0  0  0  0  0  0  0
   57.1670   30.0220   43.8390 C   0  0  0  0  0  0  0  0  0  0  0  0
   57.0760   29.4230   45.2580 C   0  0  0  0  0  0  0  0  0  0  0  0
   58.4200   28.8570   45.7440 C   0  0  0  0  0  0  0  0  0  0  0  0
   59.4950   29.8480   45.5600 N   0  0  0  0  0  0  0  0  0  0  0  0
   59.6260   30.6930   46.7250 C   0  0  0  0  0  0  0  0  0  0  0  0
   59.6420   32.0910   46.5910 C   0  0  0  0  0  0  0  0  0  0  0  0
   59.7310   32.9150   47.7170 C   0  0  0  0  0  0  0  0  0  0  0  0
   59.6710   34.6560   47.4620 Cl  0  0  0  0  0  0  0  0  0  0  0  0
   59.7770   32.3520   49.0110 C   0  0  0  0  0  0  0  0  0  0  0  0
   59.7180   30.9470   49.1540 C   0  0  0  0  0  0  0  0  0  0  0  0
   59.6630   30.1310   48.0100 C   0  0  0  0  0  0  0  0  0  0  0  0
   59.5710   30.3550   50.4590 N   0  0  0  0  0  0  0  0  0  0  0  0
   60.2710   29.1170   50.8360 C   0  0  0  0  0  0  0  0  0  0  0  0
   61.7830   29.3300   50.8950 C   0  0  0  0  0  0  0  0  0  0  0  0
   58.3910   30.7270   51.1760 C   0  0  0  0  0  0  0  0  0  0  0  0
   57.4190   29.7990   51.4010 N   0  0  0  0  0  0  0  0  0  0  0  0
   56.2490   30.1190   52.0150 C   0  0  0  0  0  0  0  0  0  0  0  0
   56.0130   31.4290   52.4300 C   0  0  0  0  0  0  0  0  0  0  0  0
   56.9920   32.4000   52.2130 C   0  0  0  0  0  0  0  0  0  0  0  0
   58.2020   32.0570   51.5850 C   0  0  0  0  0  0  0  0  0  0  0  0
   59.2600   33.0300   51.4450 N   0  0  0  0  0  0  0  0  0  0  0  0
   59.6190   33.8640   52.6000 C   0  0  0  0  0  0  0  0  0  0  0  0
   59.9850   33.2160   50.2040 C   0  0  0  0  0  0  0  0  0  0  0  0
   60.8380   34.1420   50.1250 O   0  0  0  0  0  0  0  0  0  0  0  0
   57.5727   34.1081   45.8522 H   0  0  0  0  0  0  0  0  0  0  0  0
   58.4216   33.8121   44.2971 H   0  0  0  0  0  0  0  0  0  0  0  0
   56.7005   34.3264   44.2971 H   0  0  0  0  0  0  0  0  0  0  0  0
   57.2211   31.8688   45.8726 H   0  0  0  0  0  0  0  0  0  0  0  0
   55.9519   32.2427   44.6067 H   0  0  0  0  0  0  0  0  0  0  0  0
   57.9034   33.1006   42.6442 H   0  0  0  0  0  0  0  0  0  0  0  0
   58.6409   31.5983   41.9916 H   0  0  0  0  0  0  0  0  0  0  0  0
   56.8555   31.7957   41.9916 H   0  0  0  0  0  0  0  0  0  0  0  0
   56.1614   30.0483   43.3938 H   0  0  0  0  0  0  0  0  0  0  0  0
   57.8380   29.3941   43.2344 H   0  0  0  0  0  0  0  0  0  0  0  0
   56.7526   30.2112   45.9538 H   0  0  0  0  0  0  0  0  0  0  0  0
   56.3553   28.5926   45.2253 H   0  0  0  0  0  0  0  0  0  0  0  0
   58.3409   28.6029   46.8113 H   0  0  0  0  0  0  0  0  0  0  0  0
   58.6605   27.9585   45.1567 H   0  0  0  0  0  0  0  0  0  0  0  0
   60.4060   29.3510   45.4000 H   0  0  0  0  0  0  0  0  0  0  0  0
   59.2980   30.4270   44.7110 H   0  0  0  0  0  0  0  0  0  0  0  0
   59.5839   32.5424   45.5896 H   0  0  0  0  0  0  0  0  0  0  0  0
   59.6488   29.0370   48.1242 H   0  0  0  0  0  0  0  0  0  0  0  0
   59.9161   28.7917   51.8251 H   0  0  0  0  0  0  0  0  0  0  0  0
   60.0576   28.3520   50.0749 H   0  0  0  0  0  0  0  0  0  0  0  0
   62.1062   29.3755   51.9455 H   0  0  0  0  0  0  0  0  0  0  0  0
   62.2909   28.4945   50.3910 H   0  0  0  0  0  0  0  0  0  0  0  0
   62.0404   30.2733   50.3910 H   0  0  0  0  0  0  0  0  0  0  0  0
   55.4876   29.3434   52.1846 H   0  0  0  0  0  0  0  0  0  0  0  0
   55.0660   31.6943   52.9228 H   0  0  0  0  0  0  0  0  0  0  0  0
   56.8161   33.4372   52.5345 H   0  0  0  0  0  0  0  0  0  0  0  0
   59.3862   33.3233   53.5292 H   0  0  0  0  0  0  0  0  0  0  0  0
   60.6947   34.0915   52.5678 H   0  0  0  0  0  0  0  0  0  0  0  0
   59.0448   34.8017   52.5678 H   0  0  0  0  0  0  0  0  0  0  0  0
  1  2  1  0
  2  3  1  0
  3  4  1  0
  3  5  1  0
  5  6  1  0
  6  7  1  0
  7  8  1  0
  8  9  1  0
  9 10  2  0
 10 11  1  0
 11 12  1  0
 11 13  2  0
 13 14  1  0
 14 15  2  0
 14 16  1  0
 16 17  1  0
 17 18  1  0
 16 19  1  0
 19 20  2  0
 20 21  1  0
 21 22  2  0
 22 23  1  0
 23 24  2  0
 24 25  1  0
 25 26  1  0
 25 27  1  0
 27 28  2  0
 15  9  1  0
 24 19  1  0
 27 13  1  0
  1 29  1  0
  1 30  1  0
  1 31  1  0
  2 32  1  0
  2 33  1  0
  4 34  1  0
  4 35  1  0
  4 36  1  0
  5 37  1  0
  5 38  1  0
  6 39  1  0
  6 40  1  0
  7 41  1  0
  7 42  1  0
  8 43  1  0
  8 44  1  0
 10 45  1  0
 15 46  1  0
 17 47  1  0
 17 48  1  0
 18 49  1  0
 18 50  1  0
 18 51  1  0
 21 52  1  0
 22 53  1  0
 23 54  1  0
 26 55  1  0
 26 56  1  0
 26 57  1  0
M  CHG  1   8   1
M  END
>  <UniqueID>  (20) 
20

>  <SMILES>  (20) 
CCN(C)CCC[NH2+]c1cc(Cl)c2c(c1)N(CC)c1ncccc1N(C)C2=O

>  <Energy>  (20) 
85.73834137788468

>  <Genealogy>  (20) 
CCN(C)CCC[NH2+]c1cc(Cl)c2c(c1)N(CC)c1ncccc1N(C)C2=O (protonated)
CCN(C)CCC[NH2+]c1cc(Cl)c2c(c1)N(CC)c1ncccc1N(C)C2=O (3D coordinates assigned)
CCN(C)CCC[NH2+]c1cc(Cl)c2c(c1)N(CC)c1ncccc1N(C)C2=O (nonaromatic ring conformer: 85.73834137788468 kcal/mol)

>  <smiles>  (20) 
CCN(C)CCCNc1cc(Cl)c2c(c1)N(CC)c1ncccc1N(C)C2=O

>  <score_type>  (20) 
oracle

>  <origin>  (20) 
adg

>  <m_score__min__energy>  (20) 
-6.1200000000000001

>  <m_primary>  (20) 
energy

$$$$
20:0
     RDKit          3D

 39 40  0  0  0  0  0  0  0  0999 V2000
   57.6354   31.4450   42.5685 H   0  0  0  0  0  0  0  0  0  0  0  0
   57.4030   31.5450   43.6390 C   0  0  0  0  0  0  0  0  0  0  0  0
   56.8340   30.3660   44.3250 C   0  0  0  0  0  0  0  0  0  0  0  0
   55.5940   30.3410   44.5390 O   0  0  0  0  0  0  0  0  0  0  0  0
   57.6520   29.2040   44.7220 C   0  0  0  0  0  0  0  0  0  0  0  0
   57.0680   27.8460   45.5260 S   0  0  0  0  0  0  0  0  0  0  0  0
   58.5360   27.0310   45.6130 C   0  0  0  0  0  0  0  0  0  0  0  0
   58.7007   26.0463   46.0748 H   0  0  0  0  0  0  0  0  0  0  0  0
   59.5050   27.8160   45.0010 C   0  0  0  0  0  0  0  0  0  0  0  0
   60.5599   27.5149   44.9206 H   0  0  0  0  0  0  0  0  0  0  0  0
   59.0140   29.0260   44.4960 C   0  0  0  0  0  0  0  0  0  0  0  0
   59.6418   29.7624   43.9729 H   0  0  0  0  0  0  0  0  0  0  0  0
   57.6590   32.7300   44.2200 C   0  0  0  0  0  0  0  0  0  0  0  0
   57.0712   33.5975   43.8854 H   0  0  0  0  0  0  0  0  0  0  0  0
   58.6710   32.9560   45.2750 C   0  0  0  0  0  0  0  0  0  0  0  0
   59.2250   31.8910   46.0010 C   0  0  0  0  0  0  0  0  0  0  0  0
   58.8780   30.8637   45.8158 H   0  0  0  0  0  0  0  0  0  0  0  0
   60.2150   32.1280   46.9580 C   0  0  0  0  0  0  0  0  0  0  0  0
   60.6541   31.2832   47.5090 H   0  0  0  0  0  0  0  0  0  0  0  0
   60.6550   33.4370   47.2230 C   0  0  0  0  0  0  0  0  0  0  0  0
   61.7170   33.6800   48.1750 N   0  0  0  0  0  0  0  0  0  0  0  0
   61.4090   34.1920   49.5180 C   0  0  0  0  0  0  0  0  0  0  0  0
   61.4646   35.2905   49.5053 H   0  0  0  0  0  0  0  0  0  0  0  0
   62.1403   33.7764   50.2269 H   0  0  0  0  0  0  0  0  0  0  0  0
   60.0090   33.7680   49.9600 C   0  0  0  0  0  0  0  0  0  0  0  0
   59.9602   33.7532   51.0588 H   0  0  0  0  0  0  0  0  0  0  0  0
   59.2692   34.4824   49.5697 H   0  0  0  0  0  0  0  0  0  0  0  0
   59.7899   32.7632   49.5697 H   0  0  0  0  0  0  0  0  0  0  0  0
   63.1230   33.4350   47.8080 C   0  0  0  0  0  0  0  0  0  0  0  0
   63.7755   34.0263   48.4672 H   0  0  0  0  0  0  0  0  0  0  0  0
   63.3337   32.3613   47.9212 H   0  0  0  0  0  0  0  0  0  0  0  0
   63.3850   33.8330   46.3580 C   0  0  0  0  0  0  0  0  0  0  0  0
   63.9897   34.7516   46.3334 H   0  0  0  0  0  0  0  0  0  0  0  0
   63.9273   33.0233   45.8478 H   0  0  0  0  0  0  0  0  0  0  0  0
   62.4269   34.0110   45.8478 H   0  0  0  0  0  0  0  0  0  0  0  0
   60.0550   34.5050   46.5320 C   0  0  0  0  0  0  0  0  0  0  0  0
   60.3673   35.5374   46.7478 H   0  0  0  0  0  0  0  0  0  0  0  0
   59.0660   34.2670   45.5740 C   0  0  0  0  0  0  0  0  0  0  0  0
   58.5951   35.1129   45.0519 H   0  0  0  0  0  0  0  0  0  0  0  0
  1  2  1  0
  2  3  1  0
  3  4  2  0
  3  5  1  0
  5  6  1  0
  6  7  1  0
  7  8  1  0
  7  9  2  0
  9 10  1  0
  9 11  1  0
 11 12  1  0
  2 13  2  0
 13 14  1  0
 13 15  1  0
 15 16  2  0
 16 17  1  0
 16 18  1  0
 18 19  1  0
 18 20  2  0
 20 21  1  0
 21 22  1  0
 22 23  1  0
 22 24  1  0
 22 25  1  0
 25 26  1  0
 25 27  1  0
 25 28  1  0
 21 29  1  0
 29 30  1  0
 29 31  1  0
 29 32  1  0
 32 33  1  0
 32 34  1  0
 32 35  1  0
 20 36  1  0
 36 37  1  0
 36 38  2  0
 38 39  1  0
 11  5  2  0
 38 15  1  0
M  END
>  <UniqueID>  (21) 
21

>  <SMILES>  (21) 
CCN(CC)c1ccc(/C=C\C(=O)c2cccs2)cc1

>  <Energy>  (21) 
69.59673421616179

>  <Genealogy>  (21) 
CCN(CC)c1ccc(/C=C\C(=O)c2cccs2)cc1 (cis-trans isomerization)
CCN(CC)c1ccc(/C=C\C(=O)c2cccs2)cc1 (3D coordinates assigned)
CCN(CC)c1ccc(/C=C\C(=O)c2cccs2)cc1 (optimized conformer: 69.59673421616179 kcal/mol)

>  <smiles>  (21) 
CCN(CC)c1ccc(C=CC(=O)c2cccs2)cc1

>  <score_type>  (21) 
oracle

>  <origin>  (21) 
adg

>  <m_score__min__energy>  (21) 
-7.3099999999999996

>  <m_primary>  (21) 
energy

$$$$
21:0
     RDKit          3D

 67 70  0  0  0  0  0  0  0  0999 V2000
   57.8090   29.4150   53.0690 C   0  0  0  0  0  0  0  0  0  0  0  0
   58.3490   29.7110   51.6710 C   0  0  0  0  0  0  0  0  0  0  0  0
   57.4120   30.4610   50.9220 O   0  0  0  0  0  0  0  0  0  0  0  0
   56.8480   31.5100   51.6920 C   0  0  0  0  0  0  0  0  0  0  0  0
   57.8000   32.7020   51.7490 C   0  0  0  0  0  0  0  0  0  0  0  0
   58.7000   32.6520   50.6540 O   0  0  0  0  0  0  0  0  0  0  0  0
   59.6080   33.7350   50.6730 C   0  0  0  0  0  0  0  0  0  0  0  0
   61.0560   33.2260   50.6370 C   0  0  0  0  0  0  0  0  0  0  0  0
   61.2870   32.3370   49.4710 N   0  0  0  0  0  0  0  0  0  0  0  0
   62.6530   32.5410   48.9160 C   0  0  0  0  0  0  0  0  0  0  0  0
   62.5970   32.5720   47.3930 C   0  0  0  0  0  0  0  0  0  0  0  0
   61.0600   30.9290   49.8780 C   0  0  0  0  0  0  0  0  0  0  0  0
   60.1470   30.1500   48.9140 C   0  0  0  0  0  0  0  0  0  0  0  0
   59.0220   30.9550   48.4260 N   0  0  0  0  0  0  0  0  0  0  0  0
   58.8610   31.3090   47.0430 C   0  0  0  0  0  0  0  0  0  0  0  0
   58.9800   32.6510   46.6080 C   0  0  0  0  0  0  0  0  0  0  0  0
   59.4040   33.6620   47.4940 C   0  0  0  0  0  0  0  0  0  0  0  0
   59.6010   34.9650   47.0420 C   0  0  0  0  0  0  0  0  0  0  0  0
   59.3660   35.2870   45.7100 C   0  0  0  0  0  0  0  0  0  0  0  0
   58.9090   34.3170   44.8190 C   0  0  0  0  0  0  0  0  0  0  0  0
   58.6850   32.9850   45.2430 C   0  0  0  0  0  0  0  0  0  0  0  0
   58.2140   32.0150   44.3710 N   0  0  0  0  0  0  0  0  0  0  0  0
   57.7670   32.3460   43.0050 C   0  0  0  0  0  0  0  0  0  0  0  0
   58.2240   30.7100   44.7880 C   0  0  0  0  0  0  0  0  0  0  0  0
   58.0110   29.6190   44.0100 N   0  0  0  0  0  0  0  0  0  0  0  0
   58.2620   28.5640   44.8100 C   0  0  0  0  0  0  0  0  0  0  0  0
   58.2670   27.2210   44.4360 C   0  0  0  0  0  0  0  0  0  0  0  0
   58.6810   26.2720   45.3870 C   0  0  0  0  0  0  0  0  0  0  0  0
   59.1120   26.6830   46.6650 C   0  0  0  0  0  0  0  0  0  0  0  0
   59.1090   28.0440   47.0170 C   0  0  0  0  0  0  0  0  0  0  0  0
   58.6310   28.9640   46.0780 C   0  0  0  0  0  0  0  0  0  0  0  0
   58.5720   30.3490   46.0740 C   0  0  0  0  0  0  0  0  0  0  0  0
   58.5116   29.8002   53.8226 H   0  0  0  0  0  0  0  0  0  0  0  0
   56.8315   29.9034   53.1955 H   0  0  0  0  0  0  0  0  0  0  0  0
   57.6950   28.3283   53.1955 H   0  0  0  0  0  0  0  0  0  0  0  0
   59.2834   30.2847   51.7587 H   0  0  0  0  0  0  0  0  0  0  0  0
   58.5338   28.7579   51.1539 H   0  0  0  0  0  0  0  0  0  0  0  0
   55.8992   31.8259   51.2337 H   0  0  0  0  0  0  0  0  0  0  0  0
   56.6719   31.1458   52.7149 H   0  0  0  0  0  0  0  0  0  0  0  0
   57.2196   33.6352   51.7021 H   0  0  0  0  0  0  0  0  0  0  0  0
   58.3701   32.6664   52.6891 H   0  0  0  0  0  0  0  0  0  0  0  0
   59.4273   34.3738   49.7959 H   0  0  0  0  0  0  0  0  0  0  0  0
   59.4565   34.3090   51.5991 H   0  0  0  0  0  0  0  0  0  0  0  0
   61.7369   34.0874   50.5712 H   0  0  0  0  0  0  0  0  0  0  0  0
   61.2442   32.6500   51.5551 H   0  0  0  0  0  0  0  0  0  0  0  0
   63.0576   33.4949   49.2852 H   0  0  0  0  0  0  0  0  0  0  0  0
   63.3009   31.7121   49.2370 H   0  0  0  0  0  0  0  0  0  0  0  0
   61.6770   33.0813   47.0702 H   0  0  0  0  0  0  0  0  0  0  0  0
   63.4718   33.1143   47.0049 H   0  0  0  0  0  0  0  0  0  0  0  0
   62.6018   31.5428   47.0049 H   0  0  0  0  0  0  0  0  0  0  0  0
   62.0334   30.4188   49.9241 H   0  0  0  0  0  0  0  0  0  0  0  0
   60.5541   30.9523   50.8545 H   0  0  0  0  0  0  0  0  0  0  0  0
   60.7450   29.8212   48.0513 H   0  0  0  0  0  0  0  0  0  0  0  0
   59.7295   29.2965   49.4682 H   0  0  0  0  0  0  0  0  0  0  0  0
   58.2660   31.2120   49.0980 H   0  0  0  0  0  0  0  0  0  0  0  0
   59.5810   33.4199   48.5523 H   0  0  0  0  0  0  0  0  0  0  0  0
   59.9437   35.7418   47.7414 H   0  0  0  0  0  0  0  0  0  0  0  0
   59.5418   36.3138   45.3569 H   0  0  0  0  0  0  0  0  0  0  0  0
   58.7196   34.5908   43.7706 H   0  0  0  0  0  0  0  0  0  0  0  0
   56.8839   32.9999   43.0565 H   0  0  0  0  0  0  0  0  0  0  0  0
   58.5763   32.8643   42.4699 H   0  0  0  0  0  0  0  0  0  0  0  0
   57.5073   31.4207   42.4699 H   0  0  0  0  0  0  0  0  0  0  0  0
   57.7940   29.5750   42.9900 H   0  0  0  0  0  0  0  0  0  0  0  0
   57.9562   26.9130   43.4268 H   0  0  0  0  0  0  0  0  0  0  0  0
   58.6686   25.2019   45.1324 H   0  0  0  0  0  0  0  0  0  0  0  0
   59.4535   25.9323   47.3929 H   0  0  0  0  0  0  0  0  0  0  0  0
   59.4716   28.3755   48.0012 H   0  0  0  0  0  0  0  0  0  0  0  0
  1  2  1  0
  2  3  1  0
  3  4  1  0
  4  5  1  0
  5  6  1  0
  6  7  1  0
  7  8  1  0
  8  9  1  0
  9 10  1  0
 10 11  1  0
  9 12  1  0
 12 13  1  0
 13 14  1  0
 14 15  1  0
 15 16  2  0
 16 17  1  0
 17 18  2  0
 18 19  1  0
 19 20  2  0
 20 21  1  0
 21 22  2  0
 22 23  1  0
 22 24  1  0
 24 25  1  0
 25 26  1  0
 26 27  2  0
 27 28  1  0
 28 29  2  0
 29 30  1  0
 30 31  2  0
 31 32  1  0
 32 15  1  0
 21 16  1  0
 32 24  2  0
 31 26  1  0
  1 33  1  0
  1 34  1  0
  1 35  1  0
  2 36  1  0
  2 37  1  0
  4 38  1  0
  4 39  1  0
  5 40  1  0
  5 41  1  0
  7 42  1  0
  7 43  1  0
  8 44  1  0
  8 45  1  0
 10 46  1  0
 10 47  1  0
 11 48  1  0
 11 49  1  0
 11 50  1  0
 12 51  1  0
 12 52  1  0
 13 53  1  0
 13 54  1  0
 14 55  1  0
 17 56  1  0
 18 57  1  0
 19 58  1  0
 20 59  1  0
 23 60  1  0
 23 61  1  0
 23 62  1  0
 25 63  1  0
 27 64  1  0
 28 65  1  0
 29 66  1  0
 30 67  1  0
M  CHG  1  22   1
M  END
>  <UniqueID>  (22) 
22

>  <SMILES>  (22) 
CCOCCOCCN(CC)CCNc1c2ccccc2[n+](C)c2[nH]c3ccccc3c12

>  <Energy>  (22) 
126.32611668808198

>  <Genealogy>  (22) 
CCOCCOCCN(CC)CCNc1c2ccccc2[n+](C)c2[nH]c3ccccc3c12 (3D coordinates assigned)
CCOCCOCCN(CC)CCNc1c2ccccc2[n+](C)c2[nH]c3ccccc3c12 (optimized conformer: 126.32611668808198 kcal/mol)

>  <smiles>  (22) 
CCOCCOCCN(CC)CCNc1c2ccccc2[n+](C)c2[nH]c3ccccc3c12

>  <score_type>  (22) 
oracle

>  <origin>  (22) 
adg

>  <m_score__min__energy>  (22) 
-6.4199999999999999

>  <m_primary>  (22) 
energy

$$$$
22:0
     RDKit          3D

 56 59  0  0  0  0  0  0  0  0999 V2000
   66.1330   32.1810   52.8110 C   0  0  0  0  0  0  0  0  0  0  0  0
   65.8710   31.3580   51.6210 N   0  0  0  0  0  0  0  0  0  0  0  0
   66.9030   31.5640   50.5920 C   0  0  0  0  0  0  0  0  0  0  0  0
   65.6480   29.9300   51.9410 C   0  0  0  0  0  0  0  0  0  0  0  0
   64.1580   29.5110   51.9870 C   0  0  0  0  0  0  0  0  0  0  0  0
   63.2540   30.6650   51.8150 N   0  0  0  0  0  0  0  0  0  0  0  0
   62.6110   30.6640   50.5130 C   0  0  0  0  0  0  0  0  0  0  0  0
   61.6710   29.6750   50.2350 C   0  0  0  0  0  0  0  0  0  0  0  0
   61.0270   29.6240   49.0050 C   0  0  0  0  0  0  0  0  0  0  0  0
   60.1160   28.6340   48.8110 N   0  0  0  0  0  0  0  0  0  0  0  0
   59.4310   28.5130   47.6530 C   0  0  0  0  0  0  0  0  0  0  0  0
   58.5040   27.4820   47.4850 C   0  0  0  0  0  0  0  0  0  0  0  0
   57.7910   27.3670   46.2880 C   0  0  0  0  0  0  0  0  0  0  0  0
   57.9970   28.2920   45.2450 C   0  0  0  0  0  0  0  0  0  0  0  0
   57.2820   28.2060   43.9960 N   0  0  0  0  0  0  0  0  0  0  0  0
   56.9910   29.3440   43.1210 C   0  0  0  0  0  0  0  0  0  0  0  0
   55.7940   30.1570   43.6380 C   0  0  0  0  0  0  0  0  0  0  0  0
   55.1800   29.5380   44.8120 N   0  0  0  0  0  0  0  0  0  0  0  0
   58.9370   29.3210   45.4230 C   0  0  0  0  0  0  0  0  0  0  0  0
   59.6530   29.4320   46.6250 C   0  0  0  0  0  0  0  0  0  0  0  0
   60.5920   30.4490   46.8320 C   0  0  0  0  0  0  0  0  0  0  0  0
   61.2970   30.5500   48.0150 N   0  0  0  0  0  0  0  0  0  0  0  0
   62.2490   31.5400   48.2410 C   0  0  0  0  0  0  0  0  0  0  0  0
   62.6100   32.4980   47.2500 C   0  0  0  0  0  0  0  0  0  0  0  0
   63.5580   33.4850   47.5050 C   0  0  0  0  0  0  0  0  0  0  0  0
   64.1820   33.5560   48.7400 C   0  0  0  0  0  0  0  0  0  0  0  0
   63.8710   32.6330   49.7320 C   0  0  0  0  0  0  0  0  0  0  0  0
   62.9160   31.6140   49.5070 C   0  0  0  0  0  0  0  0  0  0  0  0
   65.9437   31.5865   53.7169 H   0  0  0  0  0  0  0  0  0  0  0  0
   67.1815   32.5137   52.8032 H   0  0  0  0  0  0  0  0  0  0  0  0
   65.4698   33.0586   52.8032 H   0  0  0  0  0  0  0  0  0  0  0  0
   67.8711   31.7572   51.0772 H   0  0  0  0  0  0  0  0  0  0  0  0
   66.9804   30.6636   49.9649 H   0  0  0  0  0  0  0  0  0  0  0  0
   66.6288   32.4251   49.9649 H   0  0  0  0  0  0  0  0  0  0  0  0
   66.1529   29.3227   51.1753 H   0  0  0  0  0  0  0  0  0  0  0  0
   66.0516   29.7674   52.9513 H   0  0  0  0  0  0  0  0  0  0  0  0
   63.9675   28.7873   51.1808 H   0  0  0  0  0  0  0  0  0  0  0  0
   63.9597   29.0680   52.9741 H   0  0  0  0  0  0  0  0  0  0  0  0
   62.5380   30.6560   52.5780 H   0  0  0  0  0  0  0  0  0  0  0  0
   63.7820   31.5560   51.9530 H   0  0  0  0  0  0  0  0  0  0  0  0
   61.4346   28.9222   51.0014 H   0  0  0  0  0  0  0  0  0  0  0  0
   58.3345   26.7588   48.2963 H   0  0  0  0  0  0  0  0  0  0  0  0
   57.0654   26.5503   46.1596 H   0  0  0  0  0  0  0  0  0  0  0  0
   56.9450   27.2690   43.6800 H   0  0  0  0  0  0  0  0  0  0  0  0
   57.8751   29.9971   43.0772 H   0  0  0  0  0  0  0  0  0  0  0  0
   56.7414   28.9575   42.1218 H   0  0  0  0  0  0  0  0  0  0  0  0
   56.1394   31.1659   43.9078 H   0  0  0  0  0  0  0  0  0  0  0  0
   55.0386   30.1965   42.8394 H   0  0  0  0  0  0  0  0  0  0  0  0
   54.3640   28.9600   44.5060 H   0  0  0  0  0  0  0  0  0  0  0  0
   54.8230   30.2890   45.4460 H   0  0  0  0  0  0  0  0  0  0  0  0
   59.1131   30.0452   44.6140 H   0  0  0  0  0  0  0  0  0  0  0  0
   60.7725   31.1845   46.0342 H   0  0  0  0  0  0  0  0  0  0  0  0
   62.1290   32.4568   46.2616 H   0  0  0  0  0  0  0  0  0  0  0  0
   63.8133   34.2132   46.7210 H   0  0  0  0  0  0  0  0  0  0  0  0
   64.9244   34.3437   48.9358 H   0  0  0  0  0  0  0  0  0  0  0  0
   64.3756   32.6961   50.7074 H   0  0  0  0  0  0  0  0  0  0  0  0
  1  2  1  0
  2  3  1  0
  2  4  1  0
  4  5  1  0
  5  6  1  0
  6  7  1  0
  7  8  2  0
  8  9  1  0
  9 10  2  0
 10 11  1  0
 11 12  2  0
 12 13  1  0
 13 14  2  0
 14 15  1  0
 15 16  1  0
 16 17  1  0
 17 18  1  0
 14 19  1  0
 19 20  2  0
 20 21  1  0
 21 22  2  0
 22 23  1  0
 23 24  2  0
 24 25  1  0
 25 26  2  0
 26 27  1  0
 27 28  2  0
 28  7  1  0
 22  9  1  0
 28 23  1  0
 20 11  1  0
  1 29  1  0
  1 30  1  0
  1 31  1  0
  3 32  1  0
  3 33  1  0
  3 34  1  0
  4 35  1  0
  4 36  1  0
  5 37  1  0
  5 38  1  0
  6 39  1  0
  6 40  1  0
  8 41  1  0
 12 42  1  0
 13 43  1  0
 15 44  1  0
 16 45  1  0
 16 46  1  0
 17 47  1  0
 17 48  1  0
 18 49  1  0
 18 50  1  0
 19 51  1  0
 21 52  1  0
 24 53  1  0
 25 54  1  0
 26 55  1  0
 27 56  1  0
M  CHG  2   6   1  22   1
M  END
>  <UniqueID>  (23) 
23

>  <SMILES>  (23) 
CN(C)CC[NH2+]c1cc2nc3ccc(NCCN)cc3c[n+]2c2ccccc12

>  <Energy>  (23) 
80.2329567515514

>  <Genealogy>  (23) 
CN(C)CC[NH2+]c1cc2nc3ccc(NCCN)cc3c[n+]2c2ccccc12 (protonated)
CN(C)CC[NH2+]c1cc2nc3ccc(NCCN)cc3c[n+]2c2ccccc12 (3D coordinates assigned)
CN(C)CC[NH2+]c1cc2nc3ccc(NCCN)cc3c[n+]2c2ccccc12 (optimized conformer: 80.2329567515514 kcal/mol)

>  <smiles>  (23) 
CN(C)CCNc1cc2nc3ccc(NCCN)cc3c[n+]2c2ccccc12

>  <score_type>  (23) 
oracle

>  <origin>  (23) 
adg

>  <m_score__min__energy>  (23) 
-5.6399999999999997

>  <m_primary>  (23) 
energy

$$$$
23:0
     RDKit          3D

 54 57  0  0  0  0  0  0  0  0999 V2000
   63.3420   33.8230   46.4240 C   0  0  0  0  0  0  0  0  0  0  0  0
   62.8440   33.8200   47.8700 C   0  0  0  0  0  0  0  0  0  0  0  0
   62.6900   32.4370   48.3750 N   0  0  0  0  0  0  0  0  0  0  0  0
   63.9440   31.9750   49.0140 C   0  0  0  0  0  0  0  0  0  0  0  0
   64.7130   33.1470   49.6260 C   0  0  0  0  0  0  0  0  0  0  0  0
   61.5240   32.3080   49.2880 C   0  0  0  0  0  0  0  0  0  0  0  0
   60.4930   31.3640   48.6630 C   0  0  0  0  0  0  0  0  0  0  0  0
   60.9520   30.8730   47.3550 N   0  0  0  0  0  0  0  0  0  0  0  0
   59.8650   30.9080   46.3940 C   0  0  0  0  0  0  0  0  0  0  0  0
   59.2970   32.1310   45.9480 C   0  0  0  0  0  0  0  0  0  0  0  0
   59.7280   33.3780   46.4600 C   0  0  0  0  0  0  0  0  0  0  0  0
   59.1680   34.5700   46.0110 C   0  0  0  0  0  0  0  0  0  0  0  0
   58.1650   34.5510   45.0520 C   0  0  0  0  0  0  0  0  0  0  0  0
   57.7080   33.3410   44.5400 C   0  0  0  0  0  0  0  0  0  0  0  0
   58.2560   32.1060   44.9710 C   0  0  0  0  0  0  0  0  0  0  0  0
   57.7930   30.9010   44.4720 N   0  0  0  0  0  0  0  0  0  0  0  0
   56.7460   30.8810   43.4260 C   0  0  0  0  0  0  0  0  0  0  0  0
   58.2850   29.7150   44.9620 C   0  0  0  0  0  0  0  0  0  0  0  0
   57.7820   28.5190   44.5360 N   0  0  0  0  0  0  0  0  0  0  0  0
   58.2410   27.3330   45.0070 C   0  0  0  0  0  0  0  0  0  0  0  0
   57.7030   26.1250   44.5490 C   0  0  0  0  0  0  0  0  0  0  0  0
   58.1890   24.9130   45.0530 C   0  0  0  0  0  0  0  0  0  0  0  0
   59.2120   24.9090   46.0090 C   0  0  0  0  0  0  0  0  0  0  0  0
   59.7520   26.1150   46.4670 C   0  0  0  0  0  0  0  0  0  0  0  0
   59.2670   27.3280   45.9650 C   0  0  0  0  0  0  0  0  0  0  0  0
   59.7750   28.5090   46.3950 N   0  0  0  0  0  0  0  0  0  0  0  0
   59.3180   29.7040   45.9230 C   0  0  0  0  0  0  0  0  0  0  0  0
   64.4419   33.8296   46.4150 H   0  0  0  0  0  0  0  0  0  0  0  0
   62.9765   32.9226   45.9085 H   0  0  0  0  0  0  0  0  0  0  0  0
   62.9657   34.7189   45.9085 H   0  0  0  0  0  0  0  0  0  0  0  0
   63.5689   34.3549   48.5012 H   0  0  0  0  0  0  0  0  0  0  0  0
   61.8632   34.3168   47.9040 H   0  0  0  0  0  0  0  0  0  0  0  0
   63.6987   31.2529   49.8067 H   0  0  0  0  0  0  0  0  0  0  0  0
   64.5757   31.5051   48.2458 H   0  0  0  0  0  0  0  0  0  0  0  0
   64.6697   33.0810   50.7232 H   0  0  0  0  0  0  0  0  0  0  0  0
   65.7621   33.1087   49.2975 H   0  0  0  0  0  0  0  0  0  0  0  0
   64.2602   34.0941   49.2975 H   0  0  0  0  0  0  0  0  0  0  0  0
   61.8571   31.9005   50.2539 H   0  0  0  0  0  0  0  0  0  0  0  0
   61.0693   33.2970   49.4465 H   0  0  0  0  0  0  0  0  0  0  0  0
   60.3369   30.5067   49.3343 H   0  0  0  0  0  0  0  0  0  0  0  0
   59.5533   31.9174   48.5192 H   0  0  0  0  0  0  0  0  0  0  0  0
   61.7720   31.4220   47.0120 H   0  0  0  0  0  0  0  0  0  0  0  0
   61.3100   29.8960   47.4640 H   0  0  0  0  0  0  0  0  0  0  0  0
   60.5181   33.4053   47.2249 H   0  0  0  0  0  0  0  0  0  0  0  0
   59.5210   35.5294   46.4170 H   0  0  0  0  0  0  0  0  0  0  0  0
   57.7298   35.4962   44.6954 H   0  0  0  0  0  0  0  0  0  0  0  0
   56.9065   33.3421   43.7866 H   0  0  0  0  0  0  0  0  0  0  0  0
   55.7538   30.8620   43.9006 H   0  0  0  0  0  0  0  0  0  0  0  0
   56.8359   31.7810   42.8000 H   0  0  0  0  0  0  0  0  0  0  0  0
   56.8702   29.9851   42.8000 H   0  0  0  0  0  0  0  0  0  0  0  0
   56.9013   26.1280   43.7958 H   0  0  0  0  0  0  0  0  0  0  0  0
   57.7664   23.9617   44.6973 H   0  0  0  0  0  0  0  0  0  0  0  0
   59.5922   23.9542   46.4011 H   0  0  0  0  0  0  0  0  0  0  0  0
   60.5549   26.1102   47.2189 H   0  0  0  0  0  0  0  0  0  0  0  0
  1  2  1  0
  2  3  1  0
  3  4  1  0
  4  5  1  0
  3  6  1  0
  6  7  1  0
  7  8  1  0
  8  9  1  0
  9 10  2  0
 10 11  1  0
 11 12  2  0
 12 13  1  0
 13 14  2  0
 14 15  1  0
 15 16  2  0
 16 17  1  0
 16 18  1  0
 18 19  2  0
 19 20  1  0
 20 21  2  0
 21 22  1  0
 22 23  2  0
 23 24  1  0
 24 25  2  0
 25 26  1  0
 26 27  2  0
 27  9  1  0
 15 10  1  0
 27 18  1  0
 25 20  1  0
  1 28  1  0
  1 29  1  0
  1 30  1  0
  2 31  1  0
  2 32  1  0
  4 33  1  0
  4 34  1  0
  5 35  1  0
  5 36  1  0
  5 37  1  0
  6 38  1  0
  6 39  1  0
  7 40  1  0
  7 41  1  0
  8 42  1  0
  8 43  1  0
 11 44  1  0
 12 45  1  0
 13 46  1  0
 14 47  1  0
 17 48  1  0
 17 49  1  0
 17 50  1  0
 21 51  1  0
 22 52  1  0
 23 53  1  0
 24 54  1  0
M  CHG  2   8   1  16   1
M  END
>  <UniqueID>  (24) 
24

>  <SMILES>  (24) 
CCN(CC)CC[NH2+]c1c2ccccc2[n+](C)c2nc3ccccc3nc12

>  <Energy>  (24) 
76.24168889333859

>  <Genealogy>  (24) 
CCN(CC)CC[NH2+]c1c2ccccc2[n+](C)c2nc3ccccc3nc12 (protonated)
CCN(CC)CC[NH2+]c1c2ccccc2[n+](C)c2nc3ccccc3nc12 (3D coordinates assigned)
CCN(CC)CC[NH2+]c1c2ccccc2[n+](C)c2nc3ccccc3nc12 (optimized conformer: 76.24168889333859 kcal/mol)

>  <smiles>  (24) 
CCN(CC)CCNc1c2ccccc2[n+](C)c2nc3ccccc3nc12

>  <score_type>  (24) 
oracle

>  <origin>  (24) 
adg

>  <m_score__min__energy>  (24) 
-4.6399999999999997

>  <m_primary>  (24) 
energy

$$$$
24:0
     RDKit          3D

 59 62  0  0  0  0  0  0  0  0999 V2000
   57.8450   32.9790   46.2910 C   0  0  0  0  0  0  0  0  0  0  0  0
   58.2670   31.8480   45.3550 C   0  0  0  0  0  0  0  0  0  0  0  0
   57.1990   30.8320   45.1980 N   0  0  0  0  0  0  0  0  0  0  0  0
   56.6340   30.8400   43.8300 C   0  0  0  0  0  0  0  0  0  0  0  0
   55.5910   29.7370   43.6820 C   0  0  0  0  0  0  0  0  0  0  0  0
   57.5680   29.4690   45.6630 C   0  0  0  0  0  0  0  0  0  0  0  0
   58.6890   28.7820   44.8590 C   0  0  0  0  0  0  0  0  0  0  0  0
   59.9540   29.1720   45.3490 O   0  0  0  0  0  0  0  0  0  0  0  0
   60.4040   28.2360   46.3060 C   0  0  0  0  0  0  0  0  0  0  0  0
   60.3630   28.8740   47.6920 C   0  0  0  0  0  0  0  0  0  0  0  0
   59.9960   30.2880   47.6070 N   0  0  0  0  0  0  0  0  0  0  0  0
   60.4300   31.2190   48.6090 C   0  0  0  0  0  0  0  0  0  0  0  0
   61.5460   32.0390   48.3780 C   0  0  0  0  0  0  0  0  0  0  0  0
   62.2410   31.9770   47.1510 C   0  0  0  0  0  0  0  0  0  0  0  0
   63.3080   32.8340   46.8940 C   0  0  0  0  0  0  0  0  0  0  0  0
   63.6930   33.7700   47.8460 C   0  0  0  0  0  0  0  0  0  0  0  0
   63.0370   33.8330   49.0760 C   0  0  0  0  0  0  0  0  0  0  0  0
   61.9760   32.9420   49.3870 C   0  0  0  0  0  0  0  0  0  0  0  0
   61.3600   32.9470   50.6270 N   0  0  0  0  0  0  0  0  0  0  0  0
   61.9790   33.6730   51.7580 C   0  0  0  0  0  0  0  0  0  0  0  0
   60.1810   32.2490   50.8170 C   0  0  0  0  0  0  0  0  0  0  0  0
   59.3930   32.4140   51.9960 C   0  0  0  0  0  0  0  0  0  0  0  0
   58.2480   31.6460   52.1480 C   0  0  0  0  0  0  0  0  0  0  0  0
   57.8440   30.7640   51.2100 C   0  0  0  0  0  0  0  0  0  0  0  0
   58.5390   30.5820   50.0270 C   0  0  0  0  0  0  0  0  0  0  0  0
   59.7180   31.3410   49.8110 C   0  0  0  0  0  0  0  0  0  0  0  0
   56.6790   30.1470   51.6240 O   0  0  0  0  0  0  0  0  0  0  0  0
   56.3300   30.6790   52.9090 C   0  0  0  0  0  0  0  0  0  0  0  0
   57.3560   31.6360   53.2040 O   0  0  0  0  0  0  0  0  0  0  0  0
   57.9659   32.6551   47.3353 H   0  0  0  0  0  0  0  0  0  0  0  0
   58.4741   33.8622   46.1059 H   0  0  0  0  0  0  0  0  0  0  0  0
   56.7912   33.2342   46.1059 H   0  0  0  0  0  0  0  0  0  0  0  0
   58.5017   32.2725   44.3677 H   0  0  0  0  0  0  0  0  0  0  0  0
   59.1461   31.3531   45.7935 H   0  0  0  0  0  0  0  0  0  0  0  0
   56.1613   31.8146   43.6382 H   0  0  0  0  0  0  0  0  0  0  0  0
   57.4444   30.6657   43.1070 H   0  0  0  0  0  0  0  0  0  0  0  0
   55.2711   29.3987   44.6786 H   0  0  0  0  0  0  0  0  0  0  0  0
   54.7222   30.1255   43.1303 H   0  0  0  0  0  0  0  0  0  0  0  0
   56.0274   28.8913   43.1303 H   0  0  0  0  0  0  0  0  0  0  0  0
   57.8972   29.5442   46.7099 H   0  0  0  0  0  0  0  0  0  0  0  0
   56.6707   28.8473   45.5279 H   0  0  0  0  0  0  0  0  0  0  0  0
   58.5850   27.6908   44.9511 H   0  0  0  0  0  0  0  0  0  0  0  0
   58.6067   29.0810   43.8036 H   0  0  0  0  0  0  0  0  0  0  0  0
   59.7515   27.3506   46.2894 H   0  0  0  0  0  0  0  0  0  0  0  0
   61.4347   27.9331   46.0696 H   0  0  0  0  0  0  0  0  0  0  0  0
   59.6212   28.3462   48.3093 H   0  0  0  0  0  0  0  0  0  0  0  0
   61.3634   28.7978   48.1430 H   0  0  0  0  0  0  0  0  0  0  0  0
   59.4940   30.6630   46.7700 H   0  0  0  0  0  0  0  0  0  0  0  0
   61.9365   31.2438   46.3896 H   0  0  0  0  0  0  0  0  0  0  0  0
   63.8463   32.7700   45.9369 H   0  0  0  0  0  0  0  0  0  0  0  0
   64.5183   34.4642   47.6292 H   0  0  0  0  0  0  0  0  0  0  0  0
   63.3468   34.5850   49.8166 H   0  0  0  0  0  0  0  0  0  0  0  0
   61.6181   33.2497   52.7070 H   0  0  0  0  0  0  0  0  0  0  0  0
   63.0730   33.5718   51.7039 H   0  0  0  0  0  0  0  0  0  0  0  0
   61.7061   34.7372   51.7039 H   0  0  0  0  0  0  0  0  0  0  0  0
   59.6886   33.1374   52.7702 H   0  0  0  0  0  0  0  0  0  0  0  0
   58.1852   29.8651   49.2714 H   0  0  0  0  0  0  0  0  0  0  0  0
   55.3450   31.1672   52.8711 H   0  0  0  0  0  0  0  0  0  0  0  0
   56.2627   29.8945   53.6772 H   0  0  0  0  0  0  0  0  0  0  0  0
  1  2  1  0
  2  3  1  0
  3  4  1  0
  4  5  1  0
  3  6  1  0
  6  7  1  0
  7  8  1  0
  8  9  1  0
  9 10  1  0
 10 11  1  0
 11 12  1  0
 12 13  2  0
 13 14  1  0
 14 15  2  0
 15 16  1  0
 16 17  2  0
 17 18  1  0
 18 19  2  0
 19 20  1  0
 19 21  1  0
 21 22  2  0
 22 23  1  0
 23 24  2  0
 24 25  1  0
 25 26  2  0
 24 27  1  0
 27 28  1  0
 28 29  1  0
 26 12  1  0
 18 13  1  0
 26 21  1  0
 29 23  1  0
  1 30  1  0
  1 31  1  0
  1 32  1  0
  2 33  1  0
  2 34  1  0
  4 35  1  0
  4 36  1  0
  5 37  1  0
  5 38  1  0
  5 39  1  0
  6 40  1  0
  6 41  1  0
  7 42  1  0
  7 43  1  0
  9 44  1  0
  9 45  1  0
 10 46  1  0
 10 47  1  0
 11 48  1  0
 14 49  1  0
 15 50  1  0
 16 51  1  0
 17 52  1  0
 20 53  1  0
 20 54  1  0
 20 55  1  0
 22 56  1  0
 25 57  1  0
 28 58  1  0
 28 59  1  0
M  CHG  1  19   1
M  END
>  <UniqueID>  (25) 
25

>  <SMILES>  (25) 
CCN(CC)CCOCCNc1c2ccccc2[n+](C)c2cc3c(cc12)OCO3

>  <Energy>  (25) 
112.75086632877093

>  <Genealogy>  (25) 
CCN(CC)CCOCCNc1c2ccccc2[n+](C)c2cc3c(cc12)OCO3 (3D coordinates assigned)
CCN(CC)CCOCCNc1c2ccccc2[n+](C)c2cc3c(cc12)OCO3 (nonaromatic ring conformer: 112.75086632877093 kcal/mol)

>  <smiles>  (25) 
CCN(CC)CCOCCNc1c2ccccc2[n+](C)c2cc3c(cc12)OCO3

>  <score_type>  (25) 
oracle

>  <origin>  (25) 
adg

>  <m_score__min__energy>  (25) 
-5.79

>  <m_primary>  (25) 
energy

$$$$
25:0
     RDKit          3D

 56 58  0  0  0  0  0  0  0  0999 V2000
   65.8140   32.9130   50.1530 C   0  0  0  0  0  0  0  0  0  0  0  0
   64.5390   32.1200   49.9180 C   0  0  0  0  0  0  0  0  0  0  0  0
   64.1200   32.2830   48.5650 O   0  0  0  0  0  0  0  0  0  0  0  0
   62.9510   32.9510   48.1730 C   0  0  0  0  0  0  0  0  0  0  0  0
   62.6210   33.1670   46.8200 C   0  0  0  0  0  0  0  0  0  0  0  0
   61.4340   33.8250   46.4810 C   0  0  0  0  0  0  0  0  0  0  0  0
   60.5730   34.2960   47.4840 C   0  0  0  0  0  0  0  0  0  0  0  0
   59.2750   34.9600   47.1170 C   0  0  0  0  0  0  0  0  0  0  0  0
   58.2470   33.9420   46.9170 N   0  0  0  0  0  0  0  0  0  0  0  0
   58.2610   33.0440   45.7940 C   0  0  0  0  0  0  0  0  0  0  0  0
   57.8230   33.4980   44.5400 C   0  0  0  0  0  0  0  0  0  0  0  0
   57.7650   32.6280   43.4490 C   0  0  0  0  0  0  0  0  0  0  0  0
   58.1390   31.2930   43.5960 C   0  0  0  0  0  0  0  0  0  0  0  0
   58.5910   30.8210   44.8370 C   0  0  0  0  0  0  0  0  0  0  0  0
   58.9900   29.4900   44.9910 C   0  0  0  0  0  0  0  0  0  0  0  0
   59.4630   29.0430   46.2220 C   0  0  0  0  0  0  0  0  0  0  0  0
   59.5350   29.9300   47.3060 C   0  0  0  0  0  0  0  0  0  0  0  0
   60.0610   29.4710   48.6120 C   0  0  0  0  0  0  0  0  0  0  0  0
   60.6670   28.3670   48.6880 O   0  0  0  0  0  0  0  0  0  0  0  0
   59.9090   30.2750   49.7930 N   0  0  0  0  0  0  0  0  0  0  0  0
   61.0890   30.6150   50.5940 C   0  0  0  0  0  0  0  0  0  0  0  0
   61.5320   29.4110   51.4180 C   0  0  0  0  0  0  0  0  0  0  0  0
   58.5710   30.6900   50.2350 C   0  0  0  0  0  0  0  0  0  0  0  0
   58.5240   32.1980   50.4380 C   0  0  0  0  0  0  0  0  0  0  0  0
   59.1480   31.2300   47.1400 N   0  0  0  0  0  0  0  0  0  0  0  0
   58.6620   31.6960   45.9490 C   0  0  0  0  0  0  0  0  0  0  0  0
   60.8950   34.0680   48.8290 C   0  0  0  0  0  0  0  0  0  0  0  0
   62.0810   33.4090   49.1690 C   0  0  0  0  0  0  0  0  0  0  0  0
   65.9854   33.0196   51.2343 H   0  0  0  0  0  0  0  0  0  0  0  0
   66.6641   32.3840   49.6974 H   0  0  0  0  0  0  0  0  0  0  0  0
   65.7154   33.9093   49.6974 H   0  0  0  0  0  0  0  0  0  0  0  0
   64.7278   31.0548   50.1175 H   0  0  0  0  0  0  0  0  0  0  0  0
   63.7506   32.4855   50.5924 H   0  0  0  0  0  0  0  0  0  0  0  0
   63.2992   32.8170   46.0278 H   0  0  0  0  0  0  0  0  0  0  0  0
   61.1741   33.9740   45.4226 H   0  0  0  0  0  0  0  0  0  0  0  0
   58.9676   35.6373   47.9274 H   0  0  0  0  0  0  0  0  0  0  0  0
   59.4070   35.5352   46.1887 H   0  0  0  0  0  0  0  0  0  0  0  0
   57.5100   33.8290   47.6520 H   0  0  0  0  0  0  0  0  0  0  0  0
   57.5226   34.5488   44.4155 H   0  0  0  0  0  0  0  0  0  0  0  0
   57.4232   32.9972   42.4708 H   0  0  0  0  0  0  0  0  0  0  0  0
   58.0795   30.6085   42.7370 H   0  0  0  0  0  0  0  0  0  0  0  0
   58.9303   28.7959   44.1397 H   0  0  0  0  0  0  0  0  0  0  0  0
   59.7795   27.9966   46.3440 H   0  0  0  0  0  0  0  0  0  0  0  0
   61.9075   30.9178   49.9244 H   0  0  0  0  0  0  0  0  0  0  0  0
   60.8346   31.4411   51.2744 H   0  0  0  0  0  0  0  0  0  0  0  0
   61.4450   29.6475   52.4888 H   0  0  0  0  0  0  0  0  0  0  0  0
   60.8924   28.5483   51.1799 H   0  0  0  0  0  0  0  0  0  0  0  0
   62.5782   29.1686   51.1799 H   0  0  0  0  0  0  0  0  0  0  0  0
   57.8321   30.4036   49.4721 H   0  0  0  0  0  0  0  0  0  0  0  0
   58.3402   30.1938   51.1892 H   0  0  0  0  0  0  0  0  0  0  0  0
   58.5170   32.4230   51.5147 H   0  0  0  0  0  0  0  0  0  0  0  0
   59.4082   32.6583   49.9730 H   0  0  0  0  0  0  0  0  0  0  0  0
   57.6128   32.6024   49.9730 H   0  0  0  0  0  0  0  0  0  0  0  0
   59.2700   31.8860   47.9430 H   0  0  0  0  0  0  0  0  0  0  0  0
   60.2118   34.4089   49.6208 H   0  0  0  0  0  0  0  0  0  0  0  0
   62.3320   33.2494   50.2280 H   0  0  0  0  0  0  0  0  0  0  0  0
  1  2  1  0
  2  3  1  0
  3  4  1  0
  4  5  2  0
  5  6  1  0
  6  7  2  0
  7  8  1  0
  8  9  1  0
  9 10  1  0
 10 11  2  0
 11 12  1  0
 12 13  2  0
 13 14  1  0
 14 15  2  0
 15 16  1  0
 16 17  2  0
 17 18  1  0
 18 19  2  0
 18 20  1  0
 20 21  1  0
 21 22  1  0
 20 23  1  0
 23 24  1  0
 17 25  1  0
 25 26  2  0
  7 27  1  0
 27 28  2  0
 28  4  1  0
 26 10  1  0
 26 14  1  0
  1 29  1  0
  1 30  1  0
  1 31  1  0
  2 32  1  0
  2 33  1  0
  5 34  1  0
  6 35  1  0
  8 36  1  0
  8 37  1  0
  9 38  1  0
 11 39  1  0
 12 40  1  0
 13 41  1  0
 15 42  1  0
 16 43  1  0
 21 44  1  0
 21 45  1  0
 22 46  1  0
 22 47  1  0
 22 48  1  0
 23 49  1  0
 23 50  1  0
 24 51  1  0
 24 52  1  0
 24 53  1  0
 25 54  1  0
 27 55  1  0
 28 56  1  0
M  CHG  1  25   1
M  END
>  <UniqueID>  (26) 
26

>  <SMILES>  (26) 
CCOc1ccc(CNc2cccc3ccc(C(=O)N(CC)CC)[nH+]c23)cc1

>  <Energy>  (26) 
55.688123343672416

>  <Genealogy>  (26) 
CCOc1ccc(CNc2cccc3ccc(C(=O)N(CC)CC)[nH+]c23)cc1 (protonated)
CCOc1ccc(CNc2cccc3ccc(C(=O)N(CC)CC)[nH+]c23)cc1 (3D coordinates assigned)
CCOc1ccc(CNc2cccc3ccc(C(=O)N(CC)CC)[nH+]c23)cc1 (optimized conformer: 55.688123343672416 kcal/mol)

>  <smiles>  (26) 
CCOc1ccc(CNc2cccc3ccc(C(=O)N(CC)CC)nc23)cc1

>  <score_type>  (26) 
oracle

>  <origin>  (26) 
adg

>  <m_score__min__energy>  (26) 
-6.46

>  <m_primary>  (26) 
energy

$$$$
26:0
     RDKit          3D

 47 50  0  0  0  0  0  0  0  0999 V2000
   56.2660   20.4030   43.6830 C   0  0  0  0  0  0  0  0  0  0  0  0
   56.0000   21.8020   43.6620 O   0  0  0  0  0  0  0  0  0  0  0  0
   56.7370   22.7600   44.3750 C   0  0  0  0  0  0  0  0  0  0  0  0
   58.1030   22.5250   44.5820 C   0  0  0  0  0  0  0  0  0  0  0  0
   58.8870   23.4440   45.2840 C   0  0  0  0  0  0  0  0  0  0  0  0
   58.3090   24.6130   45.7870 C   0  0  0  0  0  0  0  0  0  0  0  0
   59.0640   25.5110   46.4680 N   0  0  0  0  0  0  0  0  0  0  0  0
   58.5140   26.6540   46.9610 C   0  0  0  0  0  0  0  0  0  0  0  0
   59.3560   27.6220   47.7060 C   0  0  0  0  0  0  0  0  0  0  0  0
   60.0180   27.2090   48.8730 C   0  0  0  0  0  0  0  0  0  0  0  0
   60.7710   28.1150   49.6180 C   0  0  0  0  0  0  0  0  0  0  0  0
   60.8630   29.4380   49.1920 C   0  0  0  0  0  0  0  0  0  0  0  0
   60.2320   29.8360   48.0570 N   0  0  0  0  0  0  0  0  0  0  0  0
   59.4950   28.9730   47.2990 C   0  0  0  0  0  0  0  0  0  0  0  0
   58.9130   29.4520   46.0780 N   0  0  0  0  0  0  0  0  0  0  0  0
   59.0880   28.6840   44.8410 C   0  0  0  0  0  0  0  0  0  0  0  0
   57.7670   28.5640   44.0460 C   0  0  0  0  0  0  0  0  0  0  0  0
   56.7490   29.5680   44.4350 N   0  0  0  0  0  0  0  0  0  0  0  0
   55.7600   29.7410   43.3600 C   0  0  0  0  0  0  0  0  0  0  0  0
   57.3630   30.8600   44.7830 C   0  0  0  0  0  0  0  0  0  0  0  0
   58.1320   30.6930   46.0930 C   0  0  0  0  0  0  0  0  0  0  0  0
   57.2170   26.8900   46.7820 O   0  0  0  0  0  0  0  0  0  0  0  0
   56.4210   26.0540   46.1230 C   0  0  0  0  0  0  0  0  0  0  0  0
   55.2020   26.3470   45.9880 O   0  0  0  0  0  0  0  0  0  0  0  0
   56.9400   24.8650   45.5910 C   0  0  0  0  0  0  0  0  0  0  0  0
   56.1540   23.9370   44.8840 C   0  0  0  0  0  0  0  0  0  0  0  0
   56.3316   20.0579   44.7254 H   0  0  0  0  0  0  0  0  0  0  0  0
   55.4536   19.8675   43.1699 H   0  0  0  0  0  0  0  0  0  0  0  0
   57.2182   20.2031   43.1699 H   0  0  0  0  0  0  0  0  0  0  0  0
   58.5630   21.6070   44.1875 H   0  0  0  0  0  0  0  0  0  0  0  0
   59.9580   23.2478   45.4407 H   0  0  0  0  0  0  0  0  0  0  0  0
   59.9419   26.1621   49.2021 H   0  0  0  0  0  0  0  0  0  0  0  0
   61.2872   27.7886   50.5329 H   0  0  0  0  0  0  0  0  0  0  0  0
   61.4486   30.1628   49.7767 H   0  0  0  0  0  0  0  0  0  0  0  0
   60.3310   30.8300   47.7500 H   0  0  0  0  0  0  0  0  0  0  0  0
   59.8370   29.1878   44.2124 H   0  0  0  0  0  0  0  0  0  0  0  0
   59.4162   27.6698   45.1125 H   0  0  0  0  0  0  0  0  0  0  0  0
   57.9914   28.6921   42.9768 H   0  0  0  0  0  0  0  0  0  0  0  0
   57.3449   27.5728   44.2682 H   0  0  0  0  0  0  0  0  0  0  0  0
   54.7669   29.9147   43.7999 H   0  0  0  0  0  0  0  0  0  0  0  0
   56.0415   30.6035   42.7381 H   0  0  0  0  0  0  0  0  0  0  0  0
   55.7320   28.8341   42.7381 H   0  0  0  0  0  0  0  0  0  0  0  0
   58.0530   31.1702   43.9844 H   0  0  0  0  0  0  0  0  0  0  0  0
   56.5848   31.6289   44.8977 H   0  0  0  0  0  0  0  0  0  0  0  0
   58.8127   31.5471   46.2241 H   0  0  0  0  0  0  0  0  0  0  0  0
   57.4123   30.6493   46.9238 H   0  0  0  0  0  0  0  0  0  0  0  0
   55.0824   24.1307   44.7284 H   0  0  0  0  0  0  0  0  0  0  0  0
  1  2  1  0
  2  3  1  0
  3  4  2  0
  4  5  1  0
  5  6  2  0
  6  7  1  0
  7  8  2  0
  8  9  1  0
  9 10  2  0
 10 11  1  0
 11 12  2  0
 12 13  1  0
 13 14  2  0
 14 15  1  0
 15 16  1  0
 16 17  1  0
 17 18  1  0
 18 19  1  0
 18 20  1  0
 20 21  1  0
  8 22  1  0
 22 23  1  0
 23 24  2  0
 23 25  1  0
 25 26  2  0
 26  3  1  0
 25  6  1  0
 14  9  1  0
 21 15  1  0
  1 27  1  0
  1 28  1  0
  1 29  1  0
  4 30  1  0
  5 31  1  0
 10 32  1  0
 11 33  1  0
 12 34  1  0
 13 35  1  0
 16 36  1  0
 16 37  1  0
 17 38  1  0
 17 39  1  0
 19 40  1  0
 19 41  1  0
 19 42  1  0
 20 43  1  0
 20 44  1  0
 21 45  1  0
 21 46  1  0
 26 47  1  0
M  CHG  1  13   1
M  END
>  <UniqueID>  (27) 
27

>  <SMILES>  (27) 
COc1ccc2nc(-c3ccc[nH+]c3N3CCN(C)CC3)oc(=O)c2c1

>  <Energy>  (27) 
67.65255286501511

>  <Genealogy>  (27) 
COc1ccc2nc(-c3ccc[nH+]c3N3CCN(C)CC3)oc(=O)c2c1 (protonated)
COc1ccc2nc(-c3ccc[nH+]c3N3CCN(C)CC3)oc(=O)c2c1 (3D coordinates assigned)
COc1ccc2nc(-c3ccc[nH+]c3N3CCN(C)CC3)oc(=O)c2c1 (nonaromatic ring conformer: 67.65255286501511 kcal/mol)

>  <smiles>  (27) 
COc1ccc2nc(-c3cccnc3N3CCN(C)CC3)oc(=O)c2c1

>  <score_type>  (27) 
oracle

>  <origin>  (27) 
adg

>  <m_score__min__energy>  (27) 
-6.5199999999999996

>  <m_primary>  (27) 
energy

$$$$
27:0
     RDKit          3D

 38 38  0  0  0  0  0  0  0  0999 V2000
   63.3700   33.6900   46.7510 C   0  0  0  0  0  0  0  0  0  0  0  0
   62.6110   33.1880   47.7270 C   0  0  0  0  0  0  0  0  0  0  0  0
   62.0030   34.0810   48.7710 C   0  0  0  0  0  0  0  0  0  0  0  0
   60.5790   34.0210   48.7150 O   0  0  0  0  0  0  0  0  0  0  0  0
   59.8040   34.0320   47.5400 C   0  0  0  0  0  0  0  0  0  0  0  0
   60.0090   34.9860   46.5220 C   0  0  0  0  0  0  0  0  0  0  0  0
   59.2260   34.9650   45.3660 C   0  0  0  0  0  0  0  0  0  0  0  0
   58.2350   33.9980   45.2090 C   0  0  0  0  0  0  0  0  0  0  0  0
   58.0210   33.0460   46.2070 C   0  0  0  0  0  0  0  0  0  0  0  0
   58.7970   33.0550   47.3780 C   0  0  0  0  0  0  0  0  0  0  0  0
   58.5660   31.9850   48.4240 C   0  0  0  0  0  0  0  0  0  0  0  0
   58.9920   32.4180   49.7700 N   0  0  0  0  0  0  0  0  0  0  0  0
   58.2840   31.7420   50.8770 C   0  0  0  0  0  0  0  0  0  0  0  0
   57.7990   32.6990   51.9800 C   0  0  0  0  0  0  0  0  0  0  0  0
   58.9050   34.0820   52.2070 S   0  0  0  0  0  0  0  0  0  0  0  0
   59.2620   34.3530   53.9280 C   0  0  0  0  0  0  0  0  0  0  0  0
   60.3340   33.8050   51.3710 O   0  0  0  0  0  0  0  0  0  0  0  0
   63.8071   33.0212   45.9950 H   0  0  0  0  0  0  0  0  0  0  0  0
   63.5585   34.7726   46.7025 H   0  0  0  0  0  0  0  0  0  0  0  0
   62.4278   32.1041   47.7678 H   0  0  0  0  0  0  0  0  0  0  0  0
   62.3398   33.7551   49.7662 H   0  0  0  0  0  0  0  0  0  0  0  0
   62.3222   35.1165   48.5817 H   0  0  0  0  0  0  0  0  0  0  0  0
   60.7904   35.7513   46.6392 H   0  0  0  0  0  0  0  0  0  0  0  0
   59.3919   35.7137   44.5773 H   0  0  0  0  0  0  0  0  0  0  0  0
   57.6203   33.9849   44.2969 H   0  0  0  0  0  0  0  0  0  0  0  0
   57.2393   32.2833   46.0757 H   0  0  0  0  0  0  0  0  0  0  0  0
   57.4932   31.7437   48.4527 H   0  0  0  0  0  0  0  0  0  0  0  0
   59.1672   31.1066   48.1463 H   0  0  0  0  0  0  0  0  0  0  0  0
   58.8310   33.4490   49.8580 H   0  0  0  0  0  0  0  0  0  0  0  0
   60.0230   32.2660   49.8600 H   0  0  0  0  0  0  0  0  0  0  0  0
   57.4095   31.2197   50.4617 H   0  0  0  0  0  0  0  0  0  0  0  0
   59.0032   31.0530   51.3440 H   0  0  0  0  0  0  0  0  0  0  0  0
   56.8050   33.0817   51.7051 H   0  0  0  0  0  0  0  0  0  0  0  0
   57.7641   32.1359   52.9243 H   0  0  0  0  0  0  0  0  0  0  0  0
   58.5362   33.8021   54.5442 H   0  0  0  0  0  0  0  0  0  0  0  0
   60.2783   33.9969   54.1521 H   0  0  0  0  0  0  0  0  0  0  0  0
   59.1923   35.4277   54.1521 H   0  0  0  0  0  0  0  0  0  0  0  0
   60.4220   34.5850   50.7670 H   0  0  0  0  0  0  0  0  0  0  0  0
  1  2  2  0
  2  3  1  0
  3  4  1  0
  4  5  1  0
  5  6  2  0
  6  7  1  0
  7  8  2  0
  8  9  1  0
  9 10  2  0
 10 11  1  0
 11 12  1  0
 12 13  1  0
 13 14  1  0
 14 15  1  0
 15 16  1  0
 15 17  1  6
 10  5  1  0
  1 18  1  0
  1 19  1  0
  2 20  1  0
  3 21  1  0
  3 22  1  0
  6 23  1  0
  7 24  1  0
  8 25  1  0
  9 26  1  0
 11 27  1  0
 11 28  1  0
 12 29  1  0
 12 30  1  0
 13 31  1  0
 13 32  1  0
 14 33  1  0
 14 34  1  0
 16 35  1  0
 16 36  1  0
 16 37  1  0
 17 38  1  0
M  CHG  2  12   1  15   1
M  END
>  <UniqueID>  (28) 
28

>  <SMILES>  (28) 
C=CCOc1ccccc1C[NH2+]CC[S@@+](C)O

>  <Energy>  (28) 
26.237801056230374

>  <Genealogy>  (28) 
C=CCOc1ccccc1C[NH2+]CC[S+](C)O (protonated)
C=CCOc1ccccc1C[NH2+]CC[S@@+](C)O (chirality)
C=CCOc1ccccc1C[NH2+]CC[S@@+](C)O (3D coordinates assigned)
C=CCOc1ccccc1C[NH2+]CC[S@@+](C)O (optimized conformer: 26.237801056230374 kcal/mol)

>  <smiles>  (28) 
C=CCOc1ccccc1CNCC[S+](C)[O-]

>  <score_type>  (28) 
oracle

>  <origin>  (28) 
adg

>  <m_score__min__energy>  (28) 
-1.76

>  <m_primary>  (28) 
energy

$$$$
28:0
     RDKit          3D

 54 55  0  0  0  0  0  0  0  0999 V2000
   64.1510   33.0980   48.6370 C   0  0  0  0  0  0  0  0  0  0  0  0
   63.6860   32.7780   47.2160 C   0  0  0  0  0  0  0  0  0  0  0  0
   62.1670   32.5650   47.1200 C   0  0  0  0  0  0  0  0  0  0  0  0
   61.3910   33.8890   47.0510 C   0  0  0  0  0  0  0  0  0  0  0  0
   59.9060   33.7260   47.4190 C   0  0  0  0  0  0  0  0  0  0  0  0
   59.1220   33.2020   46.2910 N   0  0  0  0  0  0  0  0  0  0  0  0
   58.8350   33.8680   45.1470 C   0  0  0  0  0  0  0  0  0  0  0  0
   59.1840   35.3000   44.8720 C   0  0  0  0  0  0  0  0  0  0  0  0
   58.0540   33.0890   44.3170 C   0  0  0  0  0  0  0  0  0  0  0  0
   57.8560   31.8880   44.9730 C   0  0  0  0  0  0  0  0  0  0  0  0
   57.0230   30.7660   44.4870 C   0  0  0  0  0  0  0  0  0  0  0  0
   55.7670   30.8730   44.4840 O   0  0  0  0  0  0  0  0  0  0  0  0
   57.6460   29.5130   43.9330 C   0  0  0  0  0  0  0  0  0  0  0  0
   58.4430   28.8200   44.9660 N   0  0  0  0  0  0  0  0  0  0  0  0
   58.0780   27.3930   45.0270 C   0  0  0  0  0  0  0  0  0  0  0  0
   58.8040   26.6930   46.1970 C   0  0  0  0  0  0  0  0  0  0  0  0
   59.9260   27.5030   46.7240 N   0  0  0  0  0  0  0  0  0  0  0  0
   60.7640   26.6920   47.6250 C   0  0  0  0  0  0  0  0  0  0  0  0
   60.7390   28.0510   45.6210 C   0  0  0  0  0  0  0  0  0  0  0  0
   59.8940   28.9610   44.7010 C   0  0  0  0  0  0  0  0  0  0  0  0
   58.5340   31.9820   46.1860 C   0  0  0  0  0  0  0  0  0  0  0  0
   58.5340   30.9220   47.2560 C   0  0  0  0  0  0  0  0  0  0  0  0
   63.4685   32.6283   49.3606 H   0  0  0  0  0  0  0  0  0  0  0  0
   65.1687   32.7081   48.7863 H   0  0  0  0  0  0  0  0  0  0  0  0
   64.1503   34.1878   48.7863 H   0  0  0  0  0  0  0  0  0  0  0  0
   63.9659   33.6139   46.5580 H   0  0  0  0  0  0  0  0  0  0  0  0
   64.1719   31.8390   46.9122 H   0  0  0  0  0  0  0  0  0  0  0  0
   61.9492   31.9807   46.2138 H   0  0  0  0  0  0  0  0  0  0  0  0
   61.8454   32.0358   48.0291 H   0  0  0  0  0  0  0  0  0  0  0  0
   61.8506   34.6032   47.7500 H   0  0  0  0  0  0  0  0  0  0  0  0
   61.4387   34.2487   46.0126 H   0  0  0  0  0  0  0  0  0  0  0  0
   59.8227   33.0288   48.2657 H   0  0  0  0  0  0  0  0  0  0  0  0
   59.5071   34.7163   47.6840 H   0  0  0  0  0  0  0  0  0  0  0  0
   59.3144   35.8350   45.8242 H   0  0  0  0  0  0  0  0  0  0  0  0
   60.1194   35.3451   44.2950 H   0  0  0  0  0  0  0  0  0  0  0  0
   58.3742   35.7705   44.2950 H   0  0  0  0  0  0  0  0  0  0  0  0
   57.6651   33.3691   43.3269 H   0  0  0  0  0  0  0  0  0  0  0  0
   56.8501   28.8404   43.5806 H   0  0  0  0  0  0  0  0  0  0  0  0
   58.3115   29.7890   43.1017 H   0  0  0  0  0  0  0  0  0  0  0  0
   56.9912   27.3042   45.1716 H   0  0  0  0  0  0  0  0  0  0  0  0
   58.3785   26.9106   44.0852 H   0  0  0  0  0  0  0  0  0  0  0  0
   58.0818   26.5180   47.0081 H   0  0  0  0  0  0  0  0  0  0  0  0
   59.2189   25.7468   45.8193 H   0  0  0  0  0  0  0  0  0  0  0  0
   59.5380   28.2980   47.2870 H   0  0  0  0  0  0  0  0  0  0  0  0
   60.5169   26.9312   48.6699 H   0  0  0  0  0  0  0  0  0  0  0  0
   60.5757   25.6243   47.4388 H   0  0  0  0  0  0  0  0  0  0  0  0
   61.8249   26.9151   47.4388 H   0  0  0  0  0  0  0  0  0  0  0  0
   61.5674   28.6385   46.0437 H   0  0  0  0  0  0  0  0  0  0  0  0
   61.1236   27.2121   45.0223 H   0  0  0  0  0  0  0  0  0  0  0  0
   60.1864   30.0078   44.8705 H   0  0  0  0  0  0  0  0  0  0  0  0
   60.0811   28.6607   43.6595 H   0  0  0  0  0  0  0  0  0  0  0  0
   59.5711   30.6640   47.5165 H   0  0  0  0  0  0  0  0  0  0  0  0
   58.0155   31.3020   48.1486 H   0  0  0  0  0  0  0  0  0  0  0  0
   58.0155   30.0259   46.8844 H   0  0  0  0  0  0  0  0  0  0  0  0
  1  2  1  0
  2  3  1  0
  3  4  1  0
  4  5  1  0
  5  6  1  0
  6  7  1  0
  7  8  1  0
  7  9  2  0
  9 10  1  0
 10 11  1  0
 11 12  2  0
 11 13  1  0
 13 14  1  0
 14 15  1  0
 15 16  1  0
 16 17  1  0
 17 18  1  0
 17 19  1  0
 19 20  1  0
 10 21  2  0
 21 22  1  0
 21  6  1  0
 20 14  1  0
  1 23  1  0
  1 24  1  0
  1 25  1  0
  2 26  1  0
  2 27  1  0
  3 28  1  0
  3 29  1  0
  4 30  1  0
  4 31  1  0
  5 32  1  0
  5 33  1  0
  8 34  1  0
  8 35  1  0
  8 36  1  0
  9 37  1  0
 13 38  1  0
 13 39  1  0
 15 40  1  0
 15 41  1  0
 16 42  1  0
 16 43  1  0
 17 44  1  0
 18 45  1  0
 18 46  1  0
 18 47  1  0
 19 48  1  0
 19 49  1  0
 20 50  1  0
 20 51  1  0
 22 52  1  0
 22 53  1  0
 22 54  1  0
M  CHG  1  17   1
M  END
>  <UniqueID>  (29) 
29

>  <SMILES>  (29) 
CCCCCn1c(C)cc(C(=O)CN2CC[NH+](C)CC2)c1C

>  <Energy>  (29) 
78.83805195759687

>  <Genealogy>  (29) 
CCCCCn1c(C)cc(C(=O)CN2CC[NH+](C)CC2)c1C (protonated)
CCCCCn1c(C)cc(C(=O)CN2CC[NH+](C)CC2)c1C (3D coordinates assigned)
CCCCCn1c(C)cc(C(=O)CN2CC[NH+](C)CC2)c1C (nonaromatic ring conformer: 78.83805195759687 kcal/mol)

>  <smiles>  (29) 
CCCCCn1c(C)cc(C(=O)CN2CCN(C)CC2)c1C

>  <score_type>  (29) 
oracle

>  <origin>  (29) 
adg

>  <m_score__min__energy>  (29) 
-5.7300000000000004

>  <m_primary>  (29) 
energy

$$$$
29:0
     RDKit          3D

 53 56  0  0  0  0  0  0  0  0999 V2000
   62.2070   33.8880   46.3730 C   0  0  0  0  0  0  0  0  0  0  0  0
   63.6460   33.4690   46.7190 C   0  0  0  0  0  0  0  0  0  0  0  0
   63.7770   32.4620   47.8120 N   0  0  0  0  0  0  0  0  0  0  0  0
   63.9690   33.0610   49.1590 C   0  0  0  0  0  0  0  0  0  0  0  0
   65.3100   32.6890   49.8030 C   0  0  0  0  0  0  0  0  0  0  0  0
   62.7520   31.3830   47.7420 C   0  0  0  0  0  0  0  0  0  0  0  0
   61.8100   31.2610   48.9630 C   0  0  0  0  0  0  0  0  0  0  0  0
   60.4550   31.7430   48.6720 N   0  0  0  0  0  0  0  0  0  0  0  0
   59.6750   31.3380   47.5240 C   0  0  0  0  0  0  0  0  0  0  0  0
   59.4950   29.9820   47.2540 C   0  0  0  0  0  0  0  0  0  0  0  0
   58.7470   29.5450   46.1440 C   0  0  0  0  0  0  0  0  0  0  0  0
   58.5670   28.1460   45.8850 C   0  0  0  0  0  0  0  0  0  0  0  0
   58.9490   27.1200   46.7900 C   0  0  0  0  0  0  0  0  0  0  0  0
   58.7650   25.7720   46.4680 C   0  0  0  0  0  0  0  0  0  0  0  0
   58.1940   25.4100   45.2530 C   0  0  0  0  0  0  0  0  0  0  0  0
   57.7880   26.3950   44.3560 C   0  0  0  0  0  0  0  0  0  0  0  0
   57.9610   27.7540   44.6690 C   0  0  0  0  0  0  0  0  0  0  0  0
   57.5450   28.7210   43.7670 C   0  0  0  0  0  0  0  0  0  0  0  0
   57.6740   30.0640   44.0800 C   0  0  0  0  0  0  0  0  0  0  0  0
   58.2140   30.4880   45.2740 N   0  0  0  0  0  0  0  0  0  0  0  0
   58.2700   31.8420   45.5880 C   0  0  0  0  0  0  0  0  0  0  0  0
   57.5490   32.8250   44.8540 C   0  0  0  0  0  0  0  0  0  0  0  0
   57.6790   34.1830   45.1400 C   0  0  0  0  0  0  0  0  0  0  0  0
   58.5090   34.6050   46.1690 C   0  0  0  0  0  0  0  0  0  0  0  0
   59.1810   33.6700   46.9480 C   0  0  0  0  0  0  0  0  0  0  0  0
   59.0450   32.2860   46.6990 C   0  0  0  0  0  0  0  0  0  0  0  0
   61.6400   34.0531   47.3010 H   0  0  0  0  0  0  0  0  0  0  0  0
   62.2271   34.8176   45.7853 H   0  0  0  0  0  0  0  0  0  0  0  0
   61.7249   33.0929   45.7853 H   0  0  0  0  0  0  0  0  0  0  0  0
   64.1031   33.0462   45.8122 H   0  0  0  0  0  0  0  0  0  0  0  0
   64.1454   34.3783   47.0849 H   0  0  0  0  0  0  0  0  0  0  0  0
   64.6780   31.9690   47.6010 H   0  0  0  0  0  0  0  0  0  0  0  0
   63.9189   34.1558   49.0646 H   0  0  0  0  0  0  0  0  0  0  0  0
   63.1747   32.6640   49.8082 H   0  0  0  0  0  0  0  0  0  0  0  0
   65.2109   32.7165   50.8982 H   0  0  0  0  0  0  0  0  0  0  0  0
   65.6004   31.6764   49.4864 H   0  0  0  0  0  0  0  0  0  0  0  0
   66.0806   33.4073   49.4864 H   0  0  0  0  0  0  0  0  0  0  0  0
   62.1295   31.5675   46.8540 H   0  0  0  0  0  0  0  0  0  0  0  0
   63.3168   30.4397   47.7083 H   0  0  0  0  0  0  0  0  0  0  0  0
   61.7528   30.2038   49.2613 H   0  0  0  0  0  0  0  0  0  0  0  0
   62.2227   31.8846   49.7697 H   0  0  0  0  0  0  0  0  0  0  0  0
   60.0030   32.3420   49.3980 H   0  0  0  0  0  0  0  0  0  0  0  0
   59.9479   29.2362   47.9238 H   0  0  0  0  0  0  0  0  0  0  0  0
   59.3960   27.3899   47.7581 H   0  0  0  0  0  0  0  0  0  0  0  0
   59.0739   24.9928   47.1804 H   0  0  0  0  0  0  0  0  0  0  0  0
   58.0632   24.3474   45.0007 H   0  0  0  0  0  0  0  0  0  0  0  0
   57.3298   26.1079   43.3981 H   0  0  0  0  0  0  0  0  0  0  0  0
   57.1118   28.4213   42.8013 H   0  0  0  0  0  0  0  0  0  0  0  0
   57.3345   30.8156   43.3521 H   0  0  0  0  0  0  0  0  0  0  0  0
   56.8755   32.5068   44.0446 H   0  0  0  0  0  0  0  0  0  0  0  0
   57.1213   34.9233   44.5476 H   0  0  0  0  0  0  0  0  0  0  0  0
   58.6352   35.6794   46.3683 H   0  0  0  0  0  0  0  0  0  0  0  0
   59.8274   34.0124   47.7695 H   0  0  0  0  0  0  0  0  0  0  0  0
  1  2  1  0
  2  3  1  0
  3  4  1  0
  4  5  1  0
  3  6  1  0
  6  7  1  0
  7  8  1  0
  8  9  1  0
  9 10  2  0
 10 11  1  0
 11 12  2  0
 12 13  1  0
 13 14  2  0
 14 15  1  0
 15 16  2  0
 16 17  1  0
 17 18  2  0
 18 19  1  0
 19 20  2  0
 20 21  1  0
 21 22  2  0
 22 23  1  0
 23 24  2  0
 24 25  1  0
 25 26  2  0
 26  9  1  0
 20 11  1  0
 26 21  1  0
 17 12  1  0
  1 27  1  0
  1 28  1  0
  1 29  1  0
  2 30  1  0
  2 31  1  0
  3 32  1  0
  4 33  1  0
  4 34  1  0
  5 35  1  0
  5 36  1  0
  5 37  1  0
  6 38  1  0
  6 39  1  0
  7 40  1  0
  7 41  1  0
  8 42  1  0
 10 43  1  0
 13 44  1  0
 14 45  1  0
 15 46  1  0
 16 47  1  0
 18 48  1  0
 19 49  1  0
 22 50  1  0
 23 51  1  0
 24 52  1  0
 25 53  1  0
M  CHG  2   3   1  20   1
M  END
>  <UniqueID>  (30) 
30

>  <SMILES>  (30) 
CC[NH+](CC)CCNc1cc2c3ccccc3cc[n+]2c2ccccc12

>  <Energy>  (30) 
94.52616275945923

>  <Genealogy>  (30) 
CC[NH+](CC)CCNc1cc2c3ccccc3cc[n+]2c2ccccc12 (protonated)
CC[NH+](CC)CCNc1cc2c3ccccc3cc[n+]2c2ccccc12 (3D coordinates assigned)
CC[NH+](CC)CCNc1cc2c3ccccc3cc[n+]2c2ccccc12 (optimized conformer: 94.52616275945923 kcal/mol)

>  <smiles>  (30) 
CCN(CC)CCNc1cc2c3ccccc3cc[n+]2c2ccccc12

>  <score_type>  (30) 
oracle

>  <origin>  (30) 
adg

>  <m_score__min__energy>  (30) 
-5.3600000000000003

>  <m_primary>  (30) 
energy

$$$$
30:0
     RDKit          3D

 65 68  0  0  0  0  0  0  0  0999 V2000
   57.4540   32.5180   52.0460 C   0  0  0  0  0  0  0  0  0  0  0  0
   57.7750   31.5810   50.8830 C   0  0  0  0  0  0  0  0  0  0  0  0
   59.1680   31.7800   50.4240 N   0  0  0  0  0  0  0  0  0  0  0  0
   60.1210   30.9050   51.1330 C   0  0  0  0  0  0  0  0  0  0  0  0
   59.5900   33.2010   50.4460 C   0  0  0  0  0  0  0  0  0  0  0  0
   61.1020   33.4190   50.6450 C   0  0  0  0  0  0  0  0  0  0  0  0
   61.5020   34.5300   49.8660 O   0  0  0  0  0  0  0  0  0  0  0  0
   62.6750   34.2340   49.1330 C   0  0  0  0  0  0  0  0  0  0  0  0
   62.8170   32.7250   48.9580 C   0  0  0  0  0  0  0  0  0  0  0  0
   61.9760   32.3070   47.9050 O   0  0  0  0  0  0  0  0  0  0  0  0
   62.2230   30.9560   47.5640 C   0  0  0  0  0  0  0  0  0  0  0  0
   61.0030   30.1180   47.9490 C   0  0  0  0  0  0  0  0  0  0  0  0
   59.7980   30.9500   48.0690 N   0  0  0  0  0  0  0  0  0  0  0  0
   59.3000   31.2970   46.7550 C   0  0  0  0  0  0  0  0  0  0  0  0
   59.2390   32.6480   46.2980 C   0  0  0  0  0  0  0  0  0  0  0  0
   59.5670   33.7320   47.1480 C   0  0  0  0  0  0  0  0  0  0  0  0
   59.5860   35.0400   46.6720 C   0  0  0  0  0  0  0  0  0  0  0  0
   59.2670   35.3070   45.3480 C   0  0  0  0  0  0  0  0  0  0  0  0
   58.8810   34.2730   44.4960 C   0  0  0  0  0  0  0  0  0  0  0  0
   58.8230   32.9310   44.9510 C   0  0  0  0  0  0  0  0  0  0  0  0
   58.3760   31.9120   44.1230 N   0  0  0  0  0  0  0  0  0  0  0  0
   57.8230   32.2110   42.7850 C   0  0  0  0  0  0  0  0  0  0  0  0
   58.4340   30.6210   44.5810 C   0  0  0  0  0  0  0  0  0  0  0  0
   58.0980   29.5110   43.8790 N   0  0  0  0  0  0  0  0  0  0  0  0
   58.2800   28.4840   44.7240 C   0  0  0  0  0  0  0  0  0  0  0  0
   58.0380   27.1400   44.4440 C   0  0  0  0  0  0  0  0  0  0  0  0
   58.2660   26.1990   45.4600 C   0  0  0  0  0  0  0  0  0  0  0  0
   58.7090   26.6180   46.7300 C   0  0  0  0  0  0  0  0  0  0  0  0
   58.9380   27.9800   46.9960 C   0  0  0  0  0  0  0  0  0  0  0  0
   58.7370   28.9090   45.9590 C   0  0  0  0  0  0  0  0  0  0  0  0
   58.8590   30.3000   45.8620 C   0  0  0  0  0  0  0  0  0  0  0  0
   57.6328   31.9960   52.9976 H   0  0  0  0  0  0  0  0  0  0  0  0
   58.0987   33.4075   51.9889 H   0  0  0  0  0  0  0  0  0  0  0  0
   56.3993   32.8253   51.9889 H   0  0  0  0  0  0  0  0  0  0  0  0
   57.6481   30.5392   51.2123 H   0  0  0  0  0  0  0  0  0  0  0  0
   57.0917   31.8022   50.0499 H   0  0  0  0  0  0  0  0  0  0  0  0
   59.9907   31.0246   52.2187 H   0  0  0  0  0  0  0  0  0  0  0  0
   59.9340   29.8574   50.8545 H   0  0  0  0  0  0  0  0  0  0  0  0
   61.1489   31.1806   50.8545 H   0  0  0  0  0  0  0  0  0  0  0  0
   59.3005   33.6595   49.4890 H   0  0  0  0  0  0  0  0  0  0  0  0
   59.0925   33.6601   51.3130 H   0  0  0  0  0  0  0  0  0  0  0  0
   61.3119   33.6155   51.7068 H   0  0  0  0  0  0  0  0  0  0  0  0
   61.6563   32.5213   50.3336 H   0  0  0  0  0  0  0  0  0  0  0  0
   62.6159   34.7111   48.1436 H   0  0  0  0  0  0  0  0  0  0  0  0
   63.5484   34.6167   49.6814 H   0  0  0  0  0  0  0  0  0  0  0  0
   63.8614   32.4777   48.7171 H   0  0  0  0  0  0  0  0  0  0  0  0
   62.5321   32.2129   49.8889 H   0  0  0  0  0  0  0  0  0  0  0  0
   62.4003   30.8747   46.4814 H   0  0  0  0  0  0  0  0  0  0  0  0
   63.1107   30.5917   48.1019 H   0  0  0  0  0  0  0  0  0  0  0  0
   60.8350   29.3540   47.1756 H   0  0  0  0  0  0  0  0  0  0  0  0
   61.1987   29.6491   48.9246 H   0  0  0  0  0  0  0  0  0  0  0  0
   59.0710   30.4560   48.6350 H   0  0  0  0  0  0  0  0  0  0  0  0
   59.9840   31.8170   48.6190 H   0  0  0  0  0  0  0  0  0  0  0  0
   59.8110   33.5371   48.2027 H   0  0  0  0  0  0  0  0  0  0  0  0
   59.8549   35.8651   47.3479 H   0  0  0  0  0  0  0  0  0  0  0  0
   59.3189   36.3384   44.9693 H   0  0  0  0  0  0  0  0  0  0  0  0
   58.6169   34.5021   43.4530 H   0  0  0  0  0  0  0  0  0  0  0  0
   56.8602   32.7316   42.8942 H   0  0  0  0  0  0  0  0  0  0  0  0
   58.5259   32.8520   42.2326 H   0  0  0  0  0  0  0  0  0  0  0  0
   57.6715   31.2719   42.2326 H   0  0  0  0  0  0  0  0  0  0  0  0
   57.7750   29.4190   42.8900 H   0  0  0  0  0  0  0  0  0  0  0  0
   57.6780   26.8254   43.4533 H   0  0  0  0  0  0  0  0  0  0  0  0
   58.0981   25.1297   45.2638 H   0  0  0  0  0  0  0  0  0  0  0  0
   58.8774   25.8727   47.5213 H   0  0  0  0  0  0  0  0  0  0  0  0
   59.2667   28.3112   47.9921 H   0  0  0  0  0  0  0  0  0  0  0  0
  1  2  1  0
  2  3  1  0
  3  4  1  0
  3  5  1  0
  5  6  1  0
  6  7  1  0
  7  8  1  0
  8  9  1  0
  9 10  1  0
 10 11  1  0
 11 12  1  0
 12 13  1  0
 13 14  1  0
 14 15  2  0
 15 16  1  0
 16 17  2  0
 17 18  1  0
 18 19  2  0
 19 20  1  0
 20 21  2  0
 21 22  1  0
 21 23  1  0
 23 24  1  0
 24 25  1  0
 25 26  2  0
 26 27  1  0
 27 28  2  0
 28 29  1  0
 29 30  2  0
 30 31  1  0
 31 14  1  0
 20 15  1  0
 31 23  2  0
 30 25  1  0
  1 32  1  0
  1 33  1  0
  1 34  1  0
  2 35  1  0
  2 36  1  0
  4 37  1  0
  4 38  1  0
  4 39  1  0
  5 40  1  0
  5 41  1  0
  6 42  1  0
  6 43  1  0
  8 44  1  0
  8 45  1  0
  9 46  1  0
  9 47  1  0
 11 48  1  0
 11 49  1  0
 12 50  1  0
 12 51  1  0
 13 52  1  0
 13 53  1  0
 16 54  1  0
 17 55  1  0
 18 56  1  0
 19 57  1  0
 22 58  1  0
 22 59  1  0
 22 60  1  0
 24 61  1  0
 26 62  1  0
 27 63  1  0
 28 64  1  0
 29 65  1  0
M  CHG  2  13   1  21   1
M  END
>  <UniqueID>  (31) 
31

>  <SMILES>  (31) 
CCN(C)CCOCCOCC[NH2+]c1c2ccccc2[n+](C)c2[nH]c3ccccc3c12

>  <Energy>  (31) 
128.05977696070778

>  <Genealogy>  (31) 
CCN(C)CCOCCOCC[NH2+]c1c2ccccc2[n+](C)c2[nH]c3ccccc3c12 (protonated)
CCN(C)CCOCCOCC[NH2+]c1c2ccccc2[n+](C)c2[nH]c3ccccc3c12 (3D coordinates assigned)
CCN(C)CCOCCOCC[NH2+]c1c2ccccc2[n+](C)c2[nH]c3ccccc3c12 (optimized conformer: 128.05977696070778 kcal/mol)

>  <smiles>  (31) 
CCN(C)CCOCCOCCNc1c2ccccc2[n+](C)c2[nH]c3ccccc3c12

>  <score_type>  (31) 
oracle

>  <origin>  (31) 
adg

>  <m_score__min__energy>  (31) 
-4.8200000000000003

>  <m_primary>  (31) 
energy

$$$$
31:0
     RDKit          3D

 43 45  0  0  0  0  0  0  0  0999 V2000
   63.3640   33.8790   46.1980 C   0  0  0  0  0  0  0  0  0  0  0  0
   63.1550   32.6320   47.0630 C   0  0  0  0  0  0  0  0  0  0  0  0
   64.1390   32.5340   48.1560 N   0  0  0  0  0  0  0  0  0  0  0  0
   63.6140   33.0000   49.4610 C   0  0  0  0  0  0  0  0  0  0  0  0
   62.6680   34.2050   49.3010 C   0  0  0  0  0  0  0  0  0  0  0  0
   61.2890   33.9370   49.9190 C   0  0  0  0  0  0  0  0  0  0  0  0
   60.2200   34.5550   49.1310 N   0  0  0  0  0  0  0  0  0  0  0  0
   59.6980   34.0240   47.8980 C   0  0  0  0  0  0  0  0  0  0  0  0
   59.7060   34.8410   46.7420 C   0  0  0  0  0  0  0  0  0  0  0  0
   59.2090   34.3660   45.5190 C   0  0  0  0  0  0  0  0  0  0  0  0
   58.7110   33.0670   45.4700 C   0  0  0  0  0  0  0  0  0  0  0  0
   58.7000   32.2510   46.5840 C   0  0  0  0  0  0  0  0  0  0  0  0
   59.1910   32.7040   47.8090 C   0  0  0  0  0  0  0  0  0  0  0  0
   58.1210   30.9010   46.2740 C   0  0  0  0  0  0  0  0  0  0  0  0
   57.8000   31.0670   44.8170 C   0  0  0  0  0  0  0  0  0  0  0  0
   57.2280   30.1300   43.9560 C   0  0  0  0  0  0  0  0  0  0  0  0
   57.0110   30.4940   42.6150 C   0  0  0  0  0  0  0  0  0  0  0  0
   57.3670   31.7780   42.1580 C   0  0  0  0  0  0  0  0  0  0  0  0
   57.9420   32.7110   43.0370 C   0  0  0  0  0  0  0  0  0  0  0  0
   58.1470   32.3260   44.3620 C   0  0  0  0  0  0  0  0  0  0  0  0
   63.5108   34.7550   46.8469 H   0  0  0  0  0  0  0  0  0  0  0  0
   64.2514   33.7402   45.5630 H   0  0  0  0  0  0  0  0  0  0  0  0
   62.4798   34.0372   45.5630 H   0  0  0  0  0  0  0  0  0  0  0  0
   62.1457   32.6697   47.4988 H   0  0  0  0  0  0  0  0  0  0  0  0
   63.2829   31.7509   46.4170 H   0  0  0  0  0  0  0  0  0  0  0  0
   64.5060   31.5540   48.2120 H   0  0  0  0  0  0  0  0  0  0  0  0
   64.9500   33.1420   47.8950 H   0  0  0  0  0  0  0  0  0  0  0  0
   63.0630   32.1759   49.9377 H   0  0  0  0  0  0  0  0  0  0  0  0
   64.4673   33.3156   50.0793 H   0  0  0  0  0  0  0  0  0  0  0  0
   63.1168   35.0777   49.7980 H   0  0  0  0  0  0  0  0  0  0  0  0
   62.5293   34.3886   48.2253 H   0  0  0  0  0  0  0  0  0  0  0  0
   61.1206   32.8508   49.9605 H   0  0  0  0  0  0  0  0  0  0  0  0
   61.2715   34.3740   50.9283 H   0  0  0  0  0  0  0  0  0  0  0  0
   59.8060   35.4400   49.5050 H   0  0  0  0  0  0  0  0  0  0  0  0
   60.1077   35.8632   46.8035 H   0  0  0  0  0  0  0  0  0  0  0  0
   59.2128   35.0033   44.6224 H   0  0  0  0  0  0  0  0  0  0  0  0
   59.1846   32.0470   48.6912 H   0  0  0  0  0  0  0  0  0  0  0  0
   58.8539   30.0975   46.4391 H   0  0  0  0  0  0  0  0  0  0  0  0
   57.2641   30.6154   46.9018 H   0  0  0  0  0  0  0  0  0  0  0  0
   56.9528   29.1284   44.3181 H   0  0  0  0  0  0  0  0  0  0  0  0
   56.5604   29.7715   41.9186 H   0  0  0  0  0  0  0  0  0  0  0  0
   57.1938   32.0518   41.1068 H   0  0  0  0  0  0  0  0  0  0  0  0
   58.2226   33.7165   42.6902 H   0  0  0  0  0  0  0  0  0  0  0  0
  1  2  1  0
  2  3  1  0
  3  4  1  0
  4  5  1  0
  5  6  1  0
  6  7  1  0
  7  8  1  0
  8  9  2  0
  9 10  1  0
 10 11  2  0
 11 12  1  0
 12 13  2  0
 12 14  1  0
 14 15  1  0
 15 16  2  0
 16 17  1  0
 17 18  2  0
 18 19  1  0
 19 20  2  0
 13  8  1  0
 20 15  1  0
 20 11  1  0
  1 21  1  0
  1 22  1  0
  1 23  1  0
  2 24  1  0
  2 25  1  0
  3 26  1  0
  3 27  1  0
  4 28  1  0
  4 29  1  0
  5 30  1  0
  5 31  1  0
  6 32  1  0
  6 33  1  0
  7 34  1  0
  9 35  1  0
 10 36  1  0
 13 37  1  0
 14 38  1  0
 14 39  1  0
 16 40  1  0
 17 41  1  0
 18 42  1  0
 19 43  1  0
M  CHG  1   3   1
M  END
>  <UniqueID>  (32) 
32

>  <SMILES>  (32) 
CC[NH2+]CCCNc1ccc2c(c1)Cc1ccccc1-2

>  <Energy>  (32) 
63.20367926608859

>  <Genealogy>  (32) 
CC[NH2+]CCCNc1ccc2c(c1)Cc1ccccc1-2 (protonated)
CC[NH2+]CCCNc1ccc2c(c1)Cc1ccccc1-2 (3D coordinates assigned)
CC[NH2+]CCCNc1ccc2c(c1)Cc1ccccc1-2 (nonaromatic ring conformer: 63.20367926608859 kcal/mol)

>  <smiles>  (32) 
CCNCCCNc1ccc2c(c1)Cc1ccccc1-2

>  <score_type>  (32) 
oracle

>  <origin>  (32) 
adg

>  <m_score__min__energy>  (32) 
-6.0700000000000003

>  <m_primary>  (32) 
energy

$$$$
32:0
     RDKit          3D

 43 45  0  0  0  0  0  0  0  0999 V2000
   54.8870   23.8170   44.8640 C   0  0  0  0  0  0  0  0  0  0  0  0
   54.0720   24.8550   45.6210 C   0  0  0  0  0  0  0  0  0  0  0  0
   54.9120   25.9300   45.9800 O   0  0  0  0  0  0  0  0  0  0  0  0
   56.2310   25.4570   46.1550 C   0  0  0  0  0  0  0  0  0  0  0  0
   57.1770   26.6420   46.3160 C   0  0  0  0  0  0  0  0  0  0  0  0
   58.1500   26.8920   44.7930 S   0  0  0  0  0  0  0  0  0  0  0  0
   58.6440   28.5540   45.2470 C   0  0  0  0  0  0  0  0  0  0  0  0
   59.8320   28.7770   45.8820 N   0  0  0  0  0  0  0  0  0  0  0  0
   60.2140   30.0390   46.2610 C   0  0  0  0  0  0  0  0  0  0  0  0
   59.4040   31.1140   46.0130 N   0  0  0  0  0  0  0  0  0  0  0  0
   58.2310   30.8890   45.3720 C   0  0  0  0  0  0  0  0  0  0  0  0
   57.8370   29.6520   44.9880 C   0  0  0  0  0  0  0  0  0  0  0  0
   56.5860   29.8200   44.4280 C   0  0  0  0  0  0  0  0  0  0  0  0
   56.2660   31.1380   44.4980 N   0  0  0  0  0  0  0  0  0  0  0  0
   57.2780   31.7850   45.0690 N   0  0  0  0  0  0  0  0  0  0  0  0
   57.2550   33.2040   45.4150 C   0  0  0  0  0  0  0  0  0  0  0  0
   58.5780   33.8820   45.0390 C   0  0  0  0  0  0  0  0  0  0  0  0
   59.4970   34.0020   46.2270 C   0  0  0  0  0  0  0  0  0  0  0  0
   60.8810   33.8130   46.0760 C   0  0  0  0  0  0  0  0  0  0  0  0
   61.7260   33.8760   47.1890 C   0  0  0  0  0  0  0  0  0  0  0  0
   61.1950   34.1240   48.4580 C   0  0  0  0  0  0  0  0  0  0  0  0
   59.8190   34.3060   48.6170 C   0  0  0  0  0  0  0  0  0  0  0  0
   58.9700   34.2410   47.5080 C   0  0  0  0  0  0  0  0  0  0  0  0
   55.4021   23.1610   45.5812 H   0  0  0  0  0  0  0  0  0  0  0  0
   54.2177   23.2151   44.2318 H   0  0  0  0  0  0  0  0  0  0  0  0
   55.6305   24.3244   44.2318 H   0  0  0  0  0  0  0  0  0  0  0  0
   53.2572   25.2225   44.9799 H   0  0  0  0  0  0  0  0  0  0  0  0
   53.6438   24.4010   46.5269 H   0  0  0  0  0  0  0  0  0  0  0  0
   56.2780   24.8251   47.0542 H   0  0  0  0  0  0  0  0  0  0  0  0
   56.5289   24.8659   45.2765 H   0  0  0  0  0  0  0  0  0  0  0  0
   56.5898   27.5487   46.5237 H   0  0  0  0  0  0  0  0  0  0  0  0
   57.8654   26.4378   47.1493 H   0  0  0  0  0  0  0  0  0  0  0  0
   61.1787   30.1880   46.7681 H   0  0  0  0  0  0  0  0  0  0  0  0
   55.9580   29.0248   43.9998 H   0  0  0  0  0  0  0  0  0  0  0  0
   56.4328   33.6934   44.8723 H   0  0  0  0  0  0  0  0  0  0  0  0
   57.1090   33.2979   46.5012 H   0  0  0  0  0  0  0  0  0  0  0  0
   59.0765   33.2852   44.2609 H   0  0  0  0  0  0  0  0  0  0  0  0
   58.3538   34.8951   44.6737 H   0  0  0  0  0  0  0  0  0  0  0  0
   61.3016   33.6148   45.0791 H   0  0  0  0  0  0  0  0  0  0  0  0
   62.8093   33.7302   47.0655 H   0  0  0  0  0  0  0  0  0  0  0  0
   61.8609   34.1759   49.3320 H   0  0  0  0  0  0  0  0  0  0  0  0
   59.4028   34.5008   49.6164 H   0  0  0  0  0  0  0  0  0  0  0  0
   57.8863   34.3773   47.6384 H   0  0  0  0  0  0  0  0  0  0  0  0
  1  2  1  0
  2  3  1  0
  3  4  1  0
  4  5  1  0
  5  6  1  0
  6  7  1  0
  7  8  2  0
  8  9  1  0
  9 10  2  0
 10 11  1  0
 11 12  2  0
 12 13  1  0
 13 14  2  0
 14 15  1  0
 15 16  1  0
 16 17  1  0
 17 18  1  0
 18 19  2  0
 19 20  1  0
 20 21  2  0
 21 22  1  0
 22 23  2  0
 12  7  1  0
 23 18  1  0
 15 11  1  0
  1 24  1  0
  1 25  1  0
  1 26  1  0
  2 27  1  0
  2 28  1  0
  4 29  1  0
  4 30  1  0
  5 31  1  0
  5 32  1  0
  9 33  1  0
 13 34  1  0
 16 35  1  0
 16 36  1  0
 17 37  1  0
 17 38  1  0
 19 39  1  0
 20 40  1  0
 21 41  1  0
 22 42  1  0
 23 43  1  0
M  END
>  <UniqueID>  (33) 
33

>  <SMILES>  (33) 
CCOCCSc1ncnc2c1cnn2CCc1ccccc1

>  <Energy>  (33) 
74.20844213269335

>  <Genealogy>  (33) 
CCOCCSc1ncnc2c1cnn2CCc1ccccc1 (3D coordinates assigned)
CCOCCSc1ncnc2c1cnn2CCc1ccccc1 (optimized conformer: 74.20844213269335 kcal/mol)

>  <smiles>  (33) 
CCOCCSc1ncnc2c1cnn2CCc1ccccc1

>  <score_type>  (33) 
oracle

>  <origin>  (33) 
adg

>  <m_score__min__energy>  (33) 
-7.6900000000000004

>  <m_primary>  (33) 
energy

$$$$
