0:0
     RDKit          3D

 46 49  0  0  0  0  0  0  0  0999 V2000
   61.5710   30.0910   50.1870 C   0  0  0  0  0  0  0  0  0  0  0  0
   61.1110   30.4170   48.8380 N   0  0  0  0  0  0  0  0  0  0  0  0
   61.5780   31.3880   48.0050 C   0  0  0  0  0  0  0  0  0  0  0  0
   62.6170   32.3990   48.3810 C   0  0  0  0  0  0  0  0  0  0  0  0
   62.3080   33.6250   47.7510 O   0  0  0  0  0  0  0  0  0  0  0  0
   61.1640   34.2090   48.3450 C   0  0  0  0  0  0  0  0  0  0  0  0
   59.9820   34.1060   47.4190 C   0  0  0  0  0  0  0  0  0  0  0  0
   60.0390   34.6450   46.1230 C   0  0  0  0  0  0  0  0  0  0  0  0
   58.9440   34.5240   45.2610 C   0  0  0  0  0  0  0  0  0  0  0  0
   57.7880   33.8610   45.6850 C   0  0  0  0  0  0  0  0  0  0  0  0
   57.7270   33.3160   46.9710 C   0  0  0  0  0  0  0  0  0  0  0  0
   58.8200   33.4360   47.8360 C   0  0  0  0  0  0  0  0  0  0  0  0
   60.9690   31.3690   46.7930 N   0  0  0  0  0  0  0  0  0  0  0  0
   60.1190   30.3330   46.8640 C   0  0  0  0  0  0  0  0  0  0  0  0
   59.2650   29.8530   45.8740 C   0  0  0  0  0  0  0  0  0  0  0  0
   58.4760   28.7250   46.1790 C   0  0  0  0  0  0  0  0  0  0  0  0
   57.3970   28.0580   44.9590 S   0  0  0  0  0  0  0  0  0  0  0  0
   56.1430   27.5570   45.6240 O   0  0  0  0  0  0  0  0  0  0  0  0
   58.0650   26.9030   44.2680 O   0  0  0  0  0  0  0  0  0  0  0  0
   57.0360   29.3330   43.7560 C   0  0  0  0  0  0  0  0  0  0  0  0
   56.6270   30.6690   44.3540 C   0  0  0  0  0  0  0  0  0  0  0  0
   55.5840   29.7760   43.6980 C   0  0  0  0  0  0  0  0  0  0  0  0
   58.5780   28.1090   47.4520 C   0  0  0  0  0  0  0  0  0  0  0  0
   59.4520   28.6220   48.4290 C   0  0  0  0  0  0  0  0  0  0  0  0
   60.2070   29.7480   48.0950 C   0  0  0  0  0  0  0  0  0  0  0  0
   60.9057   30.5625   50.9252 H   0  0  0  0  0  0  0  0  0  0  0  0
   61.5574   28.9998   50.3253 H   0  0  0  0  0  0  0  0  0  0  0  0
   62.5960   30.4654   50.3253 H   0  0  0  0  0  0  0  0  0  0  0  0
   62.6224   32.5352   49.4725 H   0  0  0  0  0  0  0  0  0  0  0  0
   63.6098   32.0526   48.0580 H   0  0  0  0  0  0  0  0  0  0  0  0
   60.9354   33.6842   49.2843 H   0  0  0  0  0  0  0  0  0  0  0  0
   61.3688   35.2710   48.5457 H   0  0  0  0  0  0  0  0  0  0  0  0
   60.9480   35.1641   45.7848 H   0  0  0  0  0  0  0  0  0  0  0  0
   58.9923   34.9509   44.2484 H   0  0  0  0  0  0  0  0  0  0  0  0
   56.9269   33.7683   45.0068 H   0  0  0  0  0  0  0  0  0  0  0  0
   56.8185   32.7922   47.3031 H   0  0  0  0  0  0  0  0  0  0  0  0
   58.7692   33.0041   48.8464 H   0  0  0  0  0  0  0  0  0  0  0  0
   61.1350   32.0070   45.9820 H   0  0  0  0  0  0  0  0  0  0  0  0
   59.2080   30.3373   44.8880 H   0  0  0  0  0  0  0  0  0  0  0  0
   57.7761   29.0015   43.0128 H   0  0  0  0  0  0  0  0  0  0  0  0
   56.6259   30.8060   45.4454 H   0  0  0  0  0  0  0  0  0  0  0  0
   56.9514   31.7120   44.2236 H   0  0  0  0  0  0  0  0  0  0  0  0
   54.8287   29.2675   44.3152 H   0  0  0  0  0  0  0  0  0  0  0  0
   54.8417   29.9059   42.8967 H   0  0  0  0  0  0  0  0  0  0  0  0
   57.9684   27.2218   47.6783 H   0  0  0  0  0  0  0  0  0  0  0  0
   59.5371   28.1526   49.4202 H   0  0  0  0  0  0  0  0  0  0  0  0
  1  2  1  0
  2  3  1  0
  3  4  1  0
  4  5  1  0
  5  6  1  0
  6  7  1  0
  7  8  2  0
  8  9  1  0
  9 10  2  0
 10 11  1  0
 11 12  2  0
  3 13  2  0
 13 14  1  0
 14 15  2  0
 15 16  1  0
 16 17  1  0
 17 18  2  0
 17 19  2  0
 17 20  1  0
 20 21  1  0
 21 22  1  0
 16 23  2  0
 23 24  1  0
 24 25  2  0
 25  2  1  0
 12  7  1  0
 25 14  1  0
 22 20  1  0
  1 26  1  0
  1 27  1  0
  1 28  1  0
  4 29  1  0
  4 30  1  0
  6 31  1  0
  6 32  1  0
  8 33  1  0
  9 34  1  0
 10 35  1  0
 11 36  1  0
 12 37  1  0
 13 38  1  0
 15 39  1  0
 20 40  1  0
 21 41  1  0
 21 42  1  0
 22 43  1  0
 22 44  1  0
 23 45  1  0
 24 46  1  0
M  CHG  1  13   1
M  END
>  <UniqueID>  (1) 
1

>  <SMILES>  (1) 
Cn1c(COCc2ccccc2)[nH+]c2cc(S(=O)(=O)C3CC3)ccc21

>  <Energy>  (1) 
350.3868932698875

>  <Genealogy>  (1) 
Cn1c(COCc2ccccc2)[nH+]c2cc(S(=O)(=O)C3CC3)ccc21 (protonated)
Cn1c(COCc2ccccc2)[nH+]c2cc(S(=O)(=O)C3CC3)ccc21 (3D coordinates assigned)
Cn1c(COCc2ccccc2)[nH+]c2cc(S(=O)(=O)C3CC3)ccc21 (nonaromatic ring conformer: 350.3868932698875 kcal/mol)

>  <smiles>  (1) 
Cn1c(COCc2ccccc2)nc2cc(S(=O)(=O)C3CC3)ccc21

>  <score_type>  (1) 
oracle

>  <origin>  (1) 
adg

>  <m_score__min__energy>  (1) 
-7.3300000000000001

>  <m_primary>  (1) 
energy

$$$$
1:0
     RDKit          3D

 41 43  0  0  0  0  0  0  0  0999 V2000
   59.9700   29.4020   44.9070 C   0  0  0  0  0  0  0  0  0  0  0  0
   58.5140   29.4970   44.8050 N   0  0  0  0  0  0  0  0  0  0  0  0
   57.6630   28.5630   44.3390 C   0  0  0  0  0  0  0  0  0  0  0  0
   58.1410   26.9340   43.7560 S   0  0  0  0  0  0  0  0  0  0  0  0
   57.3970   26.0810   45.1880 C   0  0  0  0  0  0  0  0  0  0  0  0
   58.2120   24.8380   45.5610 C   0  0  0  0  0  0  0  0  0  0  0  0
   57.4610   23.5850   45.3140 N   0  0  0  0  0  0  0  0  0  0  0  0
   56.0680   23.8660   44.8790 C   0  0  0  0  0  0  0  0  0  0  0  0
   55.9070   23.7690   43.3560 C   0  0  0  0  0  0  0  0  0  0  0  0
   56.2390   22.4230   42.8530 N   0  0  0  0  0  0  0  0  0  0  0  0
   57.2400   21.7130   43.6690 C   0  0  0  0  0  0  0  0  0  0  0  0
   58.1900   22.6820   44.3870 C   0  0  0  0  0  0  0  0  0  0  0  0
   56.3900   28.9970   44.3560 N   0  0  0  0  0  0  0  0  0  0  0  0
   56.4100   30.2250   44.8510 N   0  0  0  0  0  0  0  0  0  0  0  0
   57.6950   30.5200   45.1360 C   0  0  0  0  0  0  0  0  0  0  0  0
   58.1100   31.8130   45.7210 C   0  0  0  0  0  0  0  0  0  0  0  0
   58.5790   31.9010   47.0410 C   0  0  0  0  0  0  0  0  0  0  0  0
   58.9400   33.1450   47.5630 C   0  0  0  0  0  0  0  0  0  0  0  0
   58.8250   34.2650   46.8010 N   0  0  0  0  0  0  0  0  0  0  0  0
   58.3560   34.2140   45.5270 C   0  0  0  0  0  0  0  0  0  0  0  0
   57.9830   32.9890   44.9660 C   0  0  0  0  0  0  0  0  0  0  0  0
   60.2628   29.3829   45.9671 H   0  0  0  0  0  0  0  0  0  0  0  0
   60.3126   28.4796   44.4153 H   0  0  0  0  0  0  0  0  0  0  0  0
   60.4296   30.2721   44.4153 H   0  0  0  0  0  0  0  0  0  0  0  0
   57.3741   26.7688   46.0462 H   0  0  0  0  0  0  0  0  0  0  0  0
   56.3764   25.7683   44.9224 H   0  0  0  0  0  0  0  0  0  0  0  0
   59.1330   24.8240   44.9597 H   0  0  0  0  0  0  0  0  0  0  0  0
   58.4384   24.8912   46.6361 H   0  0  0  0  0  0  0  0  0  0  0  0
   55.3945   23.1373   45.3538 H   0  0  0  0  0  0  0  0  0  0  0  0
   55.8205   24.8945   45.1805 H   0  0  0  0  0  0  0  0  0  0  0  0
   54.8641   23.9997   43.0931 H   0  0  0  0  0  0  0  0  0  0  0  0
   56.6004   24.4867   42.8933 H   0  0  0  0  0  0  0  0  0  0  0  0
   56.6120   22.5250   41.8790 H   0  0  0  0  0  0  0  0  0  0  0  0
   56.7174   21.1049   44.4221 H   0  0  0  0  0  0  0  0  0  0  0  0
   57.8416   21.0838   42.9965 H   0  0  0  0  0  0  0  0  0  0  0  0
   58.9248   22.0994   44.9621 H   0  0  0  0  0  0  0  0  0  0  0  0
   58.6853   23.3020   43.6252 H   0  0  0  0  0  0  0  0  0  0  0  0
   58.6617   30.9958   47.6605 H   0  0  0  0  0  0  0  0  0  0  0  0
   59.3183   33.2188   48.5933 H   0  0  0  0  0  0  0  0  0  0  0  0
   58.2696   35.1378   44.9361 H   0  0  0  0  0  0  0  0  0  0  0  0
   57.5922   32.9472   43.9386 H   0  0  0  0  0  0  0  0  0  0  0  0
  1  2  1  0
  2  3  1  0
  3  4  1  0
  4  5  1  0
  5  6  1  0
  6  7  1  0
  7  8  1  0
  8  9  1  0
  9 10  1  0
 10 11  1  0
 11 12  1  0
  3 13  2  0
 13 14  1  0
 14 15  2  0
 15 16  1  0
 16 17  2  0
 17 18  1  0
 18 19  2  0
 19 20  1  0
 20 21  2  0
 15  2  1  0
 21 16  1  0
 12  7  1  0
  1 22  1  0
  1 23  1  0
  1 24  1  0
  5 25  1  0
  5 26  1  0
  6 27  1  0
  6 28  1  0
  8 29  1  0
  8 30  1  0
  9 31  1  0
  9 32  1  0
 10 33  1  0
 11 34  1  0
 11 35  1  0
 12 36  1  0
 12 37  1  0
 17 38  1  0
 18 39  1  0
 20 40  1  0
 21 41  1  0
M  END
>  <UniqueID>  (2) 
2

>  <SMILES>  (2) 
Cn1c(SCCN2CCNCC2)nnc1-c1ccncc1

>  <Energy>  (2) 
87.41329743424926

>  <Genealogy>  (2) 
Cn1c(SCCN2CCNCC2)nnc1-c1ccncc1 (3D coordinates assigned)
Cn1c(SCCN2CCNCC2)nnc1-c1ccncc1 (nonaromatic ring conformer: 87.41329743424926 kcal/mol)

>  <smiles>  (2) 
Cn1c(SCCN2CCNCC2)nnc1-c1ccncc1

>  <score_type>  (2) 
oracle

>  <origin>  (2) 
adg

>  <m_score__min__energy>  (2) 
-7.6500000000000004

>  <m_primary>  (2) 
energy

$$$$
2:0
     RDKit          3D

 68 70  0  0  0  0  0  0  0  0999 V2000
   63.3680   33.8800   46.3640 C   0  0  0  0  0  0  0  0  0  0  0  0
   62.3270   33.4570   47.3940 C   0  0  0  0  0  0  0  0  0  0  0  0
   62.5670   32.1240   47.8100 O   0  0  0  0  0  0  0  0  0  0  0  0
   63.7510   32.0200   48.5770 C   0  0  0  0  0  0  0  0  0  0  0  0
   63.7130   32.9930   49.7580 C   0  0  0  0  0  0  0  0  0  0  0  0
   62.6140   32.6970   50.6000 O   0  0  0  0  0  0  0  0  0  0  0  0
   62.8350   33.1600   51.9220 C   0  0  0  0  0  0  0  0  0  0  0  0
   61.5210   33.1220   52.7220 C   0  0  0  0  0  0  0  0  0  0  0  0
   60.3670   32.6780   51.9000 N   0  0  1  0  0  0  0  0  0  0  0  0
   59.3520   31.9700   52.7070 C   0  0  0  0  0  0  0  0  0  0  0  0
   59.7690   33.7940   51.1220 C   0  0  0  0  0  0  0  0  0  0  0  0
   59.2800   33.4010   49.7120 C   0  0  0  0  0  0  0  0  0  0  0  0
   60.1480   32.3810   49.1290 N   0  0  0  0  0  0  0  0  0  0  0  0
   59.6800   31.5700   48.0430 C   0  0  0  0  0  0  0  0  0  0  0  0
   59.0440   32.1850   46.9530 C   0  0  0  0  0  0  0  0  0  0  0  0
   58.7780   33.5720   46.9640 C   0  0  0  0  0  0  0  0  0  0  0  0
   58.0780   34.1680   45.9190 C   0  0  0  0  0  0  0  0  0  0  0  0
   57.6320   33.4000   44.8510 C   0  0  0  0  0  0  0  0  0  0  0  0
   57.9110   32.0330   44.8040 C   0  0  0  0  0  0  0  0  0  0  0  0
   58.6510   31.4020   45.8390 C   0  0  0  0  0  0  0  0  0  0  0  0
   58.9820   30.0640   45.7840 N   0  0  0  0  0  0  0  0  0  0  0  0
   58.8870   29.3340   44.4990 C   0  0  0  0  0  0  0  0  0  0  0  0
   59.4350   29.4150   46.9180 C   0  0  0  0  0  0  0  0  0  0  0  0
   59.5150   28.0020   46.9670 C   0  0  0  0  0  0  0  0  0  0  0  0
   60.0130   27.3480   48.0850 C   0  0  0  0  0  0  0  0  0  0  0  0
   60.4140   28.0710   49.2000 C   0  0  0  0  0  0  0  0  0  0  0  0
   60.3040   29.4720   49.2280 C   0  0  0  0  0  0  0  0  0  0  0  0
   60.6280   30.1920   50.3940 O   0  0  0  0  0  0  0  0  0  0  0  0
   61.3550   29.7050   51.5220 C   0  0  0  0  0  0  0  0  0  0  0  0
   62.8480   29.6720   51.2300 C   0  0  0  0  0  0  0  0  0  0  0  0
   59.8160   30.1600   48.0750 C   0  0  0  0  0  0  0  0  0  0  0  0
   64.2676   34.2456   46.8807 H   0  0  0  0  0  0  0  0  0  0  0  0
   63.6319   33.0178   45.7340 H   0  0  0  0  0  0  0  0  0  0  0  0
   62.9557   34.6819   45.7340 H   0  0  0  0  0  0  0  0  0  0  0  0
   62.3846   34.1260   48.2653 H   0  0  0  0  0  0  0  0  0  0  0  0
   61.3266   33.5180   46.9407 H   0  0  0  0  0  0  0  0  0  0  0  0
   63.8464   30.9924   48.9577 H   0  0  0  0  0  0  0  0  0  0  0  0
   64.6112   32.2697   47.9384 H   0  0  0  0  0  0  0  0  0  0  0  0
   64.6462   32.9028   50.3333 H   0  0  0  0  0  0  0  0  0  0  0  0
   63.6057   34.0185   49.3749 H   0  0  0  0  0  0  0  0  0  0  0  0
   63.5790   32.5159   52.4135 H   0  0  0  0  0  0  0  0  0  0  0  0
   63.2036   34.1957   51.8839 H   0  0  0  0  0  0  0  0  0  0  0  0
   61.6416   32.4263   53.5655 H   0  0  0  0  0  0  0  0  0  0  0  0
   61.3108   34.1448   53.0679 H   0  0  0  0  0  0  0  0  0  0  0  0
   60.7160   31.9920   51.1870 H   0  0  0  0  0  0  0  0  0  0  0  0
   59.5647   32.1184   53.7760 H   0  0  0  0  0  0  0  0  0  0  0  0
   58.3539   32.3689   52.4729 H   0  0  0  0  0  0  0  0  0  0  0  0
   59.3816   30.8956   52.4729 H   0  0  0  0  0  0  0  0  0  0  0  0
   58.9100   34.1851   51.6870 H   0  0  0  0  0  0  0  0  0  0  0  0
   60.5659   34.5390   50.9805 H   0  0  0  0  0  0  0  0  0  0  0  0
   58.2558   33.0060   49.7823 H   0  0  0  0  0  0  0  0  0  0  0  0
   59.3023   34.2932   49.0690 H   0  0  0  0  0  0  0  0  0  0  0  0
   61.1450   32.2810   49.4310 H   0  0  0  0  0  0  0  0  0  0  0  0
   59.1273   34.1871   47.8064 H   0  0  0  0  0  0  0  0  0  0  0  0
   57.8776   35.2494   45.9389 H   0  0  0  0  0  0  0  0  0  0  0  0
   57.0571   33.8705   44.0397 H   0  0  0  0  0  0  0  0  0  0  0  0
   57.5524   31.4357   43.9527 H   0  0  0  0  0  0  0  0  0  0  0  0
   58.7474   28.2609   44.6964 H   0  0  0  0  0  0  0  0  0  0  0  0
   58.0309   29.7153   43.9231 H   0  0  0  0  0  0  0  0  0  0  0  0
   59.8122   29.4835   43.9231 H   0  0  0  0  0  0  0  0  0  0  0  0
   59.1761   27.4119   46.1028 H   0  0  0  0  0  0  0  0  0  0  0  0
   60.0904   26.2507   48.0876 H   0  0  0  0  0  0  0  0  0  0  0  0
   60.8230   27.5408   50.0727 H   0  0  0  0  0  0  0  0  0  0  0  0
   61.1704   30.3652   52.3823 H   0  0  0  0  0  0  0  0  0  0  0  0
   61.0168   28.6822   51.7444 H   0  0  0  0  0  0  0  0  0  0  0  0
   63.4067   29.6597   52.1775 H   0  0  0  0  0  0  0  0  0  0  0  0
   63.0884   28.7683   50.6507 H   0  0  0  0  0  0  0  0  0  0  0  0
   63.1281   30.5642   50.6507 H   0  0  0  0  0  0  0  0  0  0  0  0
  1  2  1  0
  2  3  1  0
  3  4  1  0
  4  5  1  0
  5  6  1  0
  6  7  1  0
  7  8  1  0
  8  9  1  0
  9 10  1  0
  9 11  1  0
 11 12  1  0
 12 13  1  0
 13 14  1  0
 14 15  2  0
 15 16  1  0
 16 17  2  0
 17 18  1  0
 18 19  2  0
 19 20  1  0
 20 21  2  0
 21 22  1  0
 21 23  1  0
 23 24  2  0
 24 25  1  0
 25 26  2  0
 26 27  1  0
 27 28  1  0
 28 29  1  0
 29 30  1  0
 27 31  2  0
 31 14  1  0
 20 15  1  0
 31 23  1  0
  1 32  1  0
  1 33  1  0
  1 34  1  0
  2 35  1  0
  2 36  1  0
  4 37  1  0
  4 38  1  0
  5 39  1  0
  5 40  1  0
  7 41  1  0
  7 42  1  0
  8 43  1  0
  8 44  1  0
  9 45  1  6
 10 46  1  0
 10 47  1  0
 10 48  1  0
 11 49  1  0
 11 50  1  0
 12 51  1  0
 12 52  1  0
 13 53  1  0
 16 54  1  0
 17 55  1  0
 18 56  1  0
 19 57  1  0
 22 58  1  0
 22 59  1  0
 22 60  1  0
 24 61  1  0
 25 62  1  0
 26 63  1  0
 29 64  1  0
 29 65  1  0
 30 66  1  0
 30 67  1  0
 30 68  1  0
M  CHG  2   9   1  21   1
M  END
>  <UniqueID>  (3) 
3

>  <SMILES>  (3) 
CCOCCOCC[N@@H+](C)CCNc1c2ccccc2[n+](C)c2cccc(OCC)c12

>  <Energy>  (3) 
100.06474024527265

>  <Genealogy>  (3) 
CCOCCOCC[NH+](C)CCNc1c2ccccc2[n+](C)c2cccc(OCC)c12 (protonated)
CCOCCOCC[N@@H+](C)CCNc1c2ccccc2[n+](C)c2cccc(OCC)c12 (chirality)
CCOCCOCC[N@@H+](C)CCNc1c2ccccc2[n+](C)c2cccc(OCC)c12 (3D coordinates assigned)
CCOCCOCC[N@@H+](C)CCNc1c2ccccc2[n+](C)c2cccc(OCC)c12 (optimized conformer: 100.06474024527265 kcal/mol)

>  <smiles>  (3) 
CCOCCOCCN(C)CCNc1c2ccccc2[n+](C)c2cccc(OCC)c12

>  <score_type>  (3) 
oracle

>  <origin>  (3) 
adg

>  <m_score__min__energy>  (3) 
-3.6299999999999999

>  <m_primary>  (3) 
energy

$$$$
3:0
     RDKit          3D

 57 59  0  0  0  0  0  0  0  0999 V2000
   63.3610   33.7770   46.7030 C   0  0  0  0  0  0  0  0  0  0  0  0
   63.4220   32.4130   47.3910 C   0  0  0  0  0  0  0  0  0  0  0  0
   62.3830   32.3040   48.4270 N   0  0  0  0  0  0  0  0  0  0  0  0
   61.9490   33.6140   48.9480 C   0  0  0  0  0  0  0  0  0  0  0  0
   60.6160   33.5800   49.7310 C   0  0  0  0  0  0  0  0  0  0  0  0
   60.4480   32.3500   50.6310 C   0  0  0  0  0  0  0  0  0  0  0  0
   60.7230   31.1720   49.9050 O   0  0  0  0  0  0  0  0  0  0  0  0
   59.7650   30.1800   50.2100 C   0  0  0  0  0  0  0  0  0  0  0  0
   59.1350   29.6690   48.9160 C   0  0  0  0  0  0  0  0  0  0  0  0
   59.7870   30.2670   47.7500 N   0  0  0  0  0  0  0  0  0  0  0  0
   59.1090   30.3980   46.4870 C   0  0  0  0  0  0  0  0  0  0  0  0
   58.7730   29.2540   45.7410 C   0  0  0  0  0  0  0  0  0  0  0  0
   59.1070   27.9620   46.2020 C   0  0  0  0  0  0  0  0  0  0  0  0
   58.7900   26.8340   45.4520 C   0  0  0  0  0  0  0  0  0  0  0  0
   58.1540   26.9700   44.2250 C   0  0  0  0  0  0  0  0  0  0  0  0
   57.8030   28.2340   43.7530 C   0  0  0  0  0  0  0  0  0  0  0  0
   58.0680   29.4000   44.5160 C   0  0  0  0  0  0  0  0  0  0  0  0
   57.6530   30.6520   44.0980 N   0  0  0  0  0  0  0  0  0  0  0  0
   56.6820   30.7760   42.9860 C   0  0  0  0  0  0  0  0  0  0  0  0
   58.1320   31.7840   44.7290 C   0  0  0  0  0  0  0  0  0  0  0  0
   57.9590   33.0770   44.1730 C   0  0  0  0  0  0  0  0  0  0  0  0
   58.4220   34.2150   44.8310 C   0  0  0  0  0  0  0  0  0  0  0  0
   59.0840   34.1040   46.0540 C   0  0  0  0  0  0  0  0  0  0  0  0
   59.6260   35.3290   46.7300 C   0  0  0  0  0  0  0  0  0  0  0  0
   59.3210   32.8370   46.5940 C   0  0  0  0  0  0  0  0  0  0  0  0
   58.8470   31.6730   45.9520 C   0  0  0  0  0  0  0  0  0  0  0  0
   63.3255   34.5703   47.4642 H   0  0  0  0  0  0  0  0  0  0  0  0
   64.2540   33.9111   46.0749 H   0  0  0  0  0  0  0  0  0  0  0  0
   62.4595   33.8309   46.0749 H   0  0  0  0  0  0  0  0  0  0  0  0
   63.2677   31.6234   46.6409 H   0  0  0  0  0  0  0  0  0  0  0  0
   64.4076   32.3015   47.8667 H   0  0  0  0  0  0  0  0  0  0  0  0
   61.5400   31.8470   48.0070 H   0  0  0  0  0  0  0  0  0  0  0  0
   62.7210   31.6930   49.2020 H   0  0  0  0  0  0  0  0  0  0  0  0
   62.7329   33.9941   49.6196 H   0  0  0  0  0  0  0  0  0  0  0  0
   61.7832   34.2604   48.0736 H   0  0  0  0  0  0  0  0  0  0  0  0
   60.5635   34.4793   50.3622 H   0  0  0  0  0  0  0  0  0  0  0  0
   59.8106   33.5373   48.9830 H   0  0  0  0  0  0  0  0  0  0  0  0
   61.1433   32.4238   51.4802 H   0  0  0  0  0  0  0  0  0  0  0  0
   59.4110   32.3121   50.9959 H   0  0  0  0  0  0  0  0  0  0  0  0
   60.2544   29.3460   50.7343 H   0  0  0  0  0  0  0  0  0  0  0  0
   58.9839   30.6092   50.8547 H   0  0  0  0  0  0  0  0  0  0  0  0
   59.2440   28.5754   48.8690 H   0  0  0  0  0  0  0  0  0  0  0  0
   58.0710   29.9481   48.9072 H   0  0  0  0  0  0  0  0  0  0  0  0
   60.8250   30.3820   47.7760 H   0  0  0  0  0  0  0  0  0  0  0  0
   59.6241   27.8459   47.1659 H   0  0  0  0  0  0  0  0  0  0  0  0
   59.0435   25.8331   45.8314 H   0  0  0  0  0  0  0  0  0  0  0  0
   57.9264   26.0775   43.6236 H   0  0  0  0  0  0  0  0  0  0  0  0
   57.3126   28.3286   42.7729 H   0  0  0  0  0  0  0  0  0  0  0  0
   55.6695   30.9053   43.3960 H   0  0  0  0  0  0  0  0  0  0  0  0
   56.9415   31.6483   42.3681 H   0  0  0  0  0  0  0  0  0  0  0  0
   56.7140   29.8665   42.3681 H   0  0  0  0  0  0  0  0  0  0  0  0
   57.4497   33.1838   43.2039 H   0  0  0  0  0  0  0  0  0  0  0  0
   58.2644   35.2072   44.3831 H   0  0  0  0  0  0  0  0  0  0  0  0
   59.5694   35.2011   47.8211 H   0  0  0  0  0  0  0  0  0  0  0  0
   60.6743   35.4786   46.4323 H   0  0  0  0  0  0  0  0  0  0  0  0
   59.0316   36.2054   46.4323 H   0  0  0  0  0  0  0  0  0  0  0  0
   59.8855   32.7456   47.5337 H   0  0  0  0  0  0  0  0  0  0  0  0
  1  2  1  0
  2  3  1  0
  3  4  1  0
  4  5  1  0
  5  6  1  0
  6  7  1  0
  7  8  1  0
  8  9  1  0
  9 10  1  0
 10 11  1  0
 11 12  2  0
 12 13  1  0
 13 14  2  0
 14 15  1  0
 15 16  2  0
 16 17  1  0
 17 18  2  0
 18 19  1  0
 18 20  1  0
 20 21  2  0
 21 22  1  0
 22 23  2  0
 23 24  1  0
 23 25  1  0
 25 26  2  0
 26 11  1  0
 17 12  1  0
 26 20  1  0
  1 27  1  0
  1 28  1  0
  1 29  1  0
  2 30  1  0
  2 31  1  0
  3 32  1  0
  3 33  1  0
  4 34  1  0
  4 35  1  0
  5 36  1  0
  5 37  1  0
  6 38  1  0
  6 39  1  0
  8 40  1  0
  8 41  1  0
  9 42  1  0
  9 43  1  0
 10 44  1  0
 13 45  1  0
 14 46  1  0
 15 47  1  0
 16 48  1  0
 19 49  1  0
 19 50  1  0
 19 51  1  0
 21 52  1  0
 22 53  1  0
 24 54  1  0
 24 55  1  0
 24 56  1  0
 25 57  1  0
M  CHG  2   3   1  18   1
M  END
>  <UniqueID>  (4) 
4

>  <SMILES>  (4) 
CC[NH2+]CCCOCCNc1c2ccccc2[n+](C)c2ccc(C)cc12

>  <Energy>  (4) 
71.8982019510124

>  <Genealogy>  (4) 
CC[NH2+]CCCOCCNc1c2ccccc2[n+](C)c2ccc(C)cc12 (protonated)
CC[NH2+]CCCOCCNc1c2ccccc2[n+](C)c2ccc(C)cc12 (3D coordinates assigned)
CC[NH2+]CCCOCCNc1c2ccccc2[n+](C)c2ccc(C)cc12 (optimized conformer: 71.8982019510124 kcal/mol)

>  <smiles>  (4) 
CCNCCCOCCNc1c2ccccc2[n+](C)c2ccc(C)cc12

>  <score_type>  (4) 
oracle

>  <origin>  (4) 
adg

>  <m_score__min__energy>  (4) 
-4.7599999999999998

>  <m_primary>  (4) 
energy

$$$$
4:0
     RDKit          3D

 51 53  0  0  0  0  0  0  0  0999 V2000
   63.3900   33.6080   46.7920 C   0  0  0  0  0  0  0  0  0  0  0  0
   63.4120   32.1260   47.1520 C   0  0  0  0  0  0  0  0  0  0  0  0
   62.8740   31.9290   48.4470 O   0  0  0  0  0  0  0  0  0  0  0  0
   62.8080   33.1540   49.1480 C   0  0  0  0  0  0  0  0  0  0  0  0
   61.7730   33.0330   50.2720 C   0  0  0  0  0  0  0  0  0  0  0  0
   61.3610   31.6270   50.4930 N   0  0  0  0  0  0  0  0  0  0  0  0
   59.9160   31.4010   50.3010 C   0  0  0  0  0  0  0  0  0  0  0  0
   59.5950   30.3990   49.1770 C   0  0  0  0  0  0  0  0  0  0  0  0
   60.2190   30.7730   47.9020 N   0  0  0  0  0  0  0  0  0  0  0  0
   59.4560   31.2440   46.7740 C   0  0  0  0  0  0  0  0  0  0  0  0
   59.4530   32.6120   46.4420 C   0  0  0  0  0  0  0  0  0  0  0  0
   60.0010   33.5750   47.3160 C   0  0  0  0  0  0  0  0  0  0  0  0
   59.9810   34.9280   46.9880 C   0  0  0  0  0  0  0  0  0  0  0  0
   59.4010   35.3470   45.7970 C   0  0  0  0  0  0  0  0  0  0  0  0
   58.8490   34.4150   44.9180 C   0  0  0  0  0  0  0  0  0  0  0  0
   58.8840   33.0270   45.2090 C   0  0  0  0  0  0  0  0  0  0  0  0
   58.3690   32.0890   44.3330 N   0  0  0  0  0  0  0  0  0  0  0  0
   58.0630   32.4680   42.9370 C   0  0  0  0  0  0  0  0  0  0  0  0
   58.1390   30.7980   44.7680 C   0  0  0  0  0  0  0  0  0  0  0  0
   57.3350   29.8940   44.0280 C   0  0  0  0  0  0  0  0  0  0  0  0
   57.1040   28.5970   44.4830 C   0  0  0  0  0  0  0  0  0  0  0  0
   57.6370   28.1750   45.6950 C   0  0  0  0  0  0  0  0  0  0  0  0
   57.2750   26.4120   46.3370 Br  0  0  0  0  0  0  0  0  0  0  0  0
   58.4100   29.0500   46.4590 C   0  0  0  0  0  0  0  0  0  0  0  0
   58.6880   30.3540   46.0010 C   0  0  0  0  0  0  0  0  0  0  0  0
   63.3811   34.2090   47.7132 H   0  0  0  0  0  0  0  0  0  0  0  0
   64.2846   33.8552   46.2016 H   0  0  0  0  0  0  0  0  0  0  0  0
   62.4885   33.8286   46.2016 H   0  0  0  0  0  0  0  0  0  0  0  0
   62.8119   31.5654   46.4201 H   0  0  0  0  0  0  0  0  0  0  0  0
   64.4522   31.7686   47.1374 H   0  0  0  0  0  0  0  0  0  0  0  0
   63.7935   33.3859   49.5781 H   0  0  0  0  0  0  0  0  0  0  0  0
   62.5148   33.9600   48.4592 H   0  0  0  0  0  0  0  0  0  0  0  0
   62.2098   33.4262   51.2018 H   0  0  0  0  0  0  0  0  0  0  0  0
   60.8821   33.6079   49.9791 H   0  0  0  0  0  0  0  0  0  0  0  0
   61.5810   31.3750   51.4850 H   0  0  0  0  0  0  0  0  0  0  0  0
   61.9040   30.9650   49.8980 H   0  0  0  0  0  0  0  0  0  0  0  0
   59.4959   31.0153   51.2416 H   0  0  0  0  0  0  0  0  0  0  0  0
   59.4735   32.3654   50.0108 H   0  0  0  0  0  0  0  0  0  0  0  0
   59.9631   29.4056   49.4730 H   0  0  0  0  0  0  0  0  0  0  0  0
   58.5049   30.3962   49.0300 H   0  0  0  0  0  0  0  0  0  0  0  0
   61.2540   30.6580   47.8010 H   0  0  0  0  0  0  0  0  0  0  0  0
   60.4492   33.2529   48.2675 H   0  0  0  0  0  0  0  0  0  0  0  0
   60.4248   35.6659   47.6725 H   0  0  0  0  0  0  0  0  0  0  0  0
   59.3770   36.4178   45.5462 H   0  0  0  0  0  0  0  0  0  0  0  0
   58.3796   34.7615   43.9854 H   0  0  0  0  0  0  0  0  0  0  0  0
   57.3720   33.3239   42.9325 H   0  0  0  0  0  0  0  0  0  0  0  0
   58.9935   32.7453   42.4200 H   0  0  0  0  0  0  0  0  0  0  0  0
   57.5959   31.6168   42.4200 H   0  0  0  0  0  0  0  0  0  0  0  0
   56.8861   30.2220   43.0788 H   0  0  0  0  0  0  0  0  0  0  0  0
   56.4975   27.9048   43.8805 H   0  0  0  0  0  0  0  0  0  0  0  0
   58.8070   28.7185   47.4298 H   0  0  0  0  0  0  0  0  0  0  0  0
  1  2  1  0
  2  3  1  0
  3  4  1  0
  4  5  1  0
  5  6  1  0
  6  7  1  0
  7  8  1  0
  8  9  1  0
  9 10  1  0
 10 11  2  0
 11 12  1  0
 12 13  2  0
 13 14  1  0
 14 15  2  0
 15 16  1  0
 16 17  2  0
 17 18  1  0
 17 19  1  0
 19 20  2  0
 20 21  1  0
 21 22  2  0
 22 23  1  0
 22 24  1  0
 24 25  2  0
 25 10  1  0
 16 11  1  0
 25 19  1  0
  1 26  1  0
  1 27  1  0
  1 28  1  0
  2 29  1  0
  2 30  1  0
  4 31  1  0
  4 32  1  0
  5 33  1  0
  5 34  1  0
  6 35  1  0
  6 36  1  0
  7 37  1  0
  7 38  1  0
  8 39  1  0
  8 40  1  0
  9 41  1  0
 12 42  1  0
 13 43  1  0
 14 44  1  0
 15 45  1  0
 18 46  1  0
 18 47  1  0
 18 48  1  0
 20 49  1  0
 21 50  1  0
 24 51  1  0
M  CHG  2   6   1  17   1
M  END
>  <UniqueID>  (5) 
5

>  <SMILES>  (5) 
CCOCC[NH2+]CCNc1c2ccccc2[n+](C)c2ccc(Br)cc12

>  <Energy>  (5) 
78.28476120600554

>  <Genealogy>  (5) 
CCOCC[NH2+]CCNc1c2ccccc2[n+](C)c2ccc(Br)cc12 (protonated)
CCOCC[NH2+]CCNc1c2ccccc2[n+](C)c2ccc(Br)cc12 (3D coordinates assigned)
CCOCC[NH2+]CCNc1c2ccccc2[n+](C)c2ccc(Br)cc12 (optimized conformer: 78.28476120600554 kcal/mol)

>  <smiles>  (5) 
CCOCCNCCNc1c2ccccc2[n+](C)c2ccc(Br)cc12

>  <score_type>  (5) 
oracle

>  <origin>  (5) 
adg

>  <m_score__min__energy>  (5) 
-4.6399999999999997

>  <m_primary>  (5) 
energy

$$$$
5:0
     RDKit          3D

 55 57  0  0  0  0  0  0  0  0999 V2000
   56.3180   30.4540   53.0660 C   0  0  0  0  0  0  0  0  0  0  0  0
   56.2000   31.0210   51.6540 C   0  0  0  0  0  0  0  0  0  0  0  0
   57.3680   31.8530   51.3420 N   0  0  0  0  0  0  0  0  0  0  0  0
   58.0480   32.2560   52.5800 C   0  0  0  0  0  0  0  0  0  0  0  0
   58.9270   33.4850   52.3320 C   0  0  0  0  0  0  0  0  0  0  0  0
   58.9050   33.8570   50.9650 O   0  0  0  0  0  0  0  0  0  0  0  0
   60.1910   33.7660   50.3790 C   0  0  0  0  0  0  0  0  0  0  0  0
   60.2300   32.6090   49.3700 C   0  0  0  0  0  0  0  0  0  0  0  0
   58.9080   31.9840   49.1760 N   0  0  0  0  0  0  0  0  0  0  0  0
   58.6640   31.6330   47.7840 C   0  0  0  0  0  0  0  0  0  0  0  0
   58.4540   32.6330   46.7950 C   0  0  0  0  0  0  0  0  0  0  0  0
   58.2730   32.2580   45.4470 C   0  0  0  0  0  0  0  0  0  0  0  0
   58.1050   30.9370   45.1020 N   0  0  0  0  0  0  0  0  0  0  0  0
   57.5770   30.5920   43.7640 C   0  0  0  0  0  0  0  0  0  0  0  0
   58.4090   29.9440   46.0080 C   0  0  0  0  0  0  0  0  0  0  0  0
   58.4890   28.5850   45.6070 C   0  0  0  0  0  0  0  0  0  0  0  0
   58.7540   27.5740   46.5280 C   0  0  0  0  0  0  0  0  0  0  0  0
   58.8450   25.7540   45.9530 Br  0  0  0  0  0  0  0  0  0  0  0  0
   58.9560   27.8870   47.8640 C   0  0  0  0  0  0  0  0  0  0  0  0
   58.9190   29.2130   48.2850 C   0  0  0  0  0  0  0  0  0  0  0  0
   58.6700   30.2690   47.3710 C   0  0  0  0  0  0  0  0  0  0  0  0
   58.2540   33.3710   44.4050 C   0  0  0  0  0  0  0  0  0  0  0  0
   59.3140   34.4320   44.7280 C   0  0  0  0  0  0  0  0  0  0  0  0
   59.2350   34.9590   46.1770 C   0  0  0  0  0  0  0  0  0  0  0  0
   58.3250   34.1240   47.0890 C   0  0  0  0  0  0  0  0  0  0  0  0
   56.1509   31.2572   53.7988 H   0  0  0  0  0  0  0  0  0  0  0  0
   55.5648   29.6651   53.2085 H   0  0  0  0  0  0  0  0  0  0  0  0
   57.3234   30.0311   53.2085 H   0  0  0  0  0  0  0  0  0  0  0  0
   56.1417   30.1920   50.9334 H   0  0  0  0  0  0  0  0  0  0  0  0
   55.2922   31.6389   51.5904 H   0  0  0  0  0  0  0  0  0  0  0  0
   57.0250   32.7230   50.8700 H   0  0  0  0  0  0  0  0  0  0  0  0
   57.2951   32.4976   53.3447 H   0  0  0  0  0  0  0  0  0  0  0  0
   58.6838   31.4267   52.9234 H   0  0  0  0  0  0  0  0  0  0  0  0
   58.5535   34.3229   52.9390 H   0  0  0  0  0  0  0  0  0  0  0  0
   59.9618   33.2382   52.6116 H   0  0  0  0  0  0  0  0  0  0  0  0
   60.4224   34.7085   49.8611 H   0  0  0  0  0  0  0  0  0  0  0  0
   60.9343   33.5807   51.1684 H   0  0  0  0  0  0  0  0  0  0  0  0
   60.5825   32.9963   48.4026 H   0  0  0  0  0  0  0  0  0  0  0  0
   60.9079   31.8401   49.7691 H   0  0  0  0  0  0  0  0  0  0  0  0
   58.7870   31.1830   49.8310 H   0  0  0  0  0  0  0  0  0  0  0  0
   58.1650   32.6410   49.5050 H   0  0  0  0  0  0  0  0  0  0  0  0
   56.6608   29.9934   43.8745 H   0  0  0  0  0  0  0  0  0  0  0  0
   57.3475   31.5149   43.2112 H   0  0  0  0  0  0  0  0  0  0  0  0
   58.3301   30.0112   43.2112 H   0  0  0  0  0  0  0  0  0  0  0  0
   58.3389   28.3250   44.5488 H   0  0  0  0  0  0  0  0  0  0  0  0
   59.1459   27.0852   48.5927 H   0  0  0  0  0  0  0  0  0  0  0  0
   59.0860   29.4467   49.3468 H   0  0  0  0  0  0  0  0  0  0  0  0
   58.4626   32.9418   43.4139 H   0  0  0  0  0  0  0  0  0  0  0  0
   57.2623   33.8469   44.4129 H   0  0  0  0  0  0  0  0  0  0  0  0
   60.3088   33.9893   44.5721 H   0  0  0  0  0  0  0  0  0  0  0  0
   59.1295   35.2875   44.0616 H   0  0  0  0  0  0  0  0  0  0  0  0
   60.2492   34.9572   46.6029 H   0  0  0  0  0  0  0  0  0  0  0  0
   58.8017   35.9689   46.1284 H   0  0  0  0  0  0  0  0  0  0  0  0
   58.6046   34.3070   48.1370 H   0  0  0  0  0  0  0  0  0  0  0  0
   57.2829   34.4231   46.9034 H   0  0  0  0  0  0  0  0  0  0  0  0
  1  2  1  0
  2  3  1  0
  3  4  1  0
  4  5  1  0
  5  6  1  0
  6  7  1  0
  7  8  1  0
  8  9  1  0
  9 10  1  0
 10 11  2  0
 11 12  1  0
 12 13  2  0
 13 14  1  0
 13 15  1  0
 15 16  2  0
 16 17  1  0
 17 18  1  0
 17 19  2  0
 19 20  1  0
 20 21  2  0
 12 22  1  0
 22 23  1  0
 23 24  1  0
 24 25  1  0
 21 10  1  0
 25 11  1  0
 21 15  1  0
  1 26  1  0
  1 27  1  0
  1 28  1  0
  2 29  1  0
  2 30  1  0
  3 31  1  0
  4 32  1  0
  4 33  1  0
  5 34  1  0
  5 35  1  0
  7 36  1  0
  7 37  1  0
  8 38  1  0
  8 39  1  0
  9 40  1  0
  9 41  1  0
 14 42  1  0
 14 43  1  0
 14 44  1  0
 16 45  1  0
 19 46  1  0
 20 47  1  0
 22 48  1  0
 22 49  1  0
 23 50  1  0
 23 51  1  0
 24 52  1  0
 24 53  1  0
 25 54  1  0
 25 55  1  0
M  CHG  2   9   1  13   1
M  END
>  <UniqueID>  (6) 
6

>  <SMILES>  (6) 
CCNCCOCC[NH2+]c1c2c([n+](C)c3cc(Br)ccc13)CCCC2

>  <Energy>  (6) 
80.20942036703335

>  <Genealogy>  (6) 
CCNCCOCC[NH2+]c1c2c([n+](C)c3cc(Br)ccc13)CCCC2 (protonated)
CCNCCOCC[NH2+]c1c2c([n+](C)c3cc(Br)ccc13)CCCC2 (3D coordinates assigned)
CCNCCOCC[NH2+]c1c2c([n+](C)c3cc(Br)ccc13)CCCC2 (nonaromatic ring conformer: 80.20942036703335 kcal/mol)

>  <smiles>  (6) 
CCNCCOCCNc1c2c([n+](C)c3cc(Br)ccc13)CCCC2

>  <score_type>  (6) 
oracle

>  <origin>  (6) 
adg

>  <m_score__min__energy>  (6) 
-4.46

>  <m_primary>  (6) 
energy

$$$$
6:0
     RDKit          3D

 62 64  0  0  0  0  0  0  0  0999 V2000
   62.2720   34.5840   49.7730 C   0  0  0  0  0  0  0  0  0  0  0  0
   63.1800   33.5660   49.0900 C   0  0  0  0  0  0  0  0  0  0  0  0
   62.4670   32.9060   47.9700 N   0  0  0  0  0  0  0  0  0  0  0  0
   62.9050   33.4610   46.6770 C   0  0  0  0  0  0  0  0  0  0  0  0
   62.6510   31.4350   47.9950 C   0  0  0  0  0  0  0  0  0  0  0  0
   62.8550   30.9500   49.4300 C   0  0  0  0  0  0  0  0  0  0  0  0
   61.6850   30.3050   49.8910 O   0  0  0  0  0  0  0  0  0  0  0  0
   61.6070   30.3400   51.3030 C   0  0  0  0  0  0  0  0  0  0  0  0
   60.4230   31.1810   51.8030 C   0  0  0  0  0  0  0  0  0  0  0  0
   60.5090   32.5600   51.3070 N   0  0  0  0  0  0  0  0  0  0  0  0
   59.1770   33.0600   50.9410 C   0  0  0  0  0  0  0  0  0  0  0  0
   58.6600   32.3550   49.6810 C   0  0  0  0  0  0  0  0  0  0  0  0
   59.7380   31.6610   48.9550 N   0  0  0  0  0  0  0  0  0  0  0  0
   59.4510   31.5970   47.5310 C   0  0  0  0  0  0  0  0  0  0  0  0
   59.3490   32.7810   46.7530 C   0  0  0  0  0  0  0  0  0  0  0  0
   59.7090   34.0480   47.2730 C   0  0  0  0  0  0  0  0  0  0  0  0
   59.6320   35.1950   46.4880 C   0  0  0  0  0  0  0  0  0  0  0  0
   59.2150   35.1090   45.1680 C   0  0  0  0  0  0  0  0  0  0  0  0
   58.8550   33.8780   44.6280 C   0  0  0  0  0  0  0  0  0  0  0  0
   58.8900   32.6940   45.4090 C   0  0  0  0  0  0  0  0  0  0  0  0
   58.5050   31.4780   44.8820 N   0  0  0  0  0  0  0  0  0  0  0  0
   57.7270   31.4280   43.6240 C   0  0  0  0  0  0  0  0  0  0  0  0
   58.8420   30.3090   45.5320 C   0  0  0  0  0  0  0  0  0  0  0  0
   58.7570   29.0520   44.8800 C   0  0  0  0  0  0  0  0  0  0  0  0
   59.0680   27.8700   45.5470 C   0  0  0  0  0  0  0  0  0  0  0  0
   59.4890   27.9060   46.8680 C   0  0  0  0  0  0  0  0  0  0  0  0
   59.8050   26.7530   47.5090 F   0  0  0  0  0  0  0  0  0  0  0  0
   59.6150   29.1260   47.5290 C   0  0  0  0  0  0  0  0  0  0  0  0
   59.3020   30.3450   46.8780 C   0  0  0  0  0  0  0  0  0  0  0  0
   62.3628   34.4822   50.8645 H   0  0  0  0  0  0  0  0  0  0  0  0
   62.5695   35.5998   49.4735 H   0  0  0  0  0  0  0  0  0  0  0  0
   61.2290   34.4041   49.4735 H   0  0  0  0  0  0  0  0  0  0  0  0
   64.0710   34.0796   48.6998 H   0  0  0  0  0  0  0  0  0  0  0  0
   63.4750   32.8020   49.8244 H   0  0  0  0  0  0  0  0  0  0  0  0
   63.5777   34.3134   46.8528 H   0  0  0  0  0  0  0  0  0  0  0  0
   63.4372   32.6855   46.1065 H   0  0  0  0  0  0  0  0  0  0  0  0
   62.0271   33.7983   46.1065 H   0  0  0  0  0  0  0  0  0  0  0  0
   61.7588   30.9505   47.5716 H   0  0  0  0  0  0  0  0  0  0  0  0
   63.5390   31.1754   47.4000 H   0  0  0  0  0  0  0  0  0  0  0  0
   63.6971   30.2428   49.4597 H   0  0  0  0  0  0  0  0  0  0  0  0
   63.0712   31.8132   50.0766 H   0  0  0  0  0  0  0  0  0  0  0  0
   61.4924   29.3116   51.6761 H   0  0  0  0  0  0  0  0  0  0  0  0
   62.5307   30.8043   51.6787 H   0  0  0  0  0  0  0  0  0  0  0  0
   59.4854   30.7289   51.4474 H   0  0  0  0  0  0  0  0  0  0  0  0
   60.4486   31.2024   52.9025 H   0  0  0  0  0  0  0  0  0  0  0  0
   60.8720   33.1590   52.0870 H   0  0  0  0  0  0  0  0  0  0  0  0
   58.4803   32.8723   51.7713 H   0  0  0  0  0  0  0  0  0  0  0  0
   59.2479   34.1388   50.7384 H   0  0  0  0  0  0  0  0  0  0  0  0
   57.8976   31.6182   49.9739 H   0  0  0  0  0  0  0  0  0  0  0  0
   58.2381   33.1200   49.0126 H   0  0  0  0  0  0  0  0  0  0  0  0
   60.6590   32.1270   49.1210 H   0  0  0  0  0  0  0  0  0  0  0  0
   59.8770   30.7010   49.3410 H   0  0  0  0  0  0  0  0  0  0  0  0
   60.0551   34.1271   48.3141 H   0  0  0  0  0  0  0  0  0  0  0  0
   59.9025   36.1718   46.9155 H   0  0  0  0  0  0  0  0  0  0  0  0
   59.1688   36.0156   44.5468 H   0  0  0  0  0  0  0  0  0  0  0  0
   58.5375   33.8219   43.5763 H   0  0  0  0  0  0  0  0  0  0  0  0
   56.6545   31.3591   43.8586 H   0  0  0  0  0  0  0  0  0  0  0  0
   57.9165   32.3402   43.0392 H   0  0  0  0  0  0  0  0  0  0  0  0
   58.0317   30.5476   43.0392 H   0  0  0  0  0  0  0  0  0  0  0  0
   58.4394   29.0103   43.8277 H   0  0  0  0  0  0  0  0  0  0  0  0
   58.9796   26.9057   45.0252 H   0  0  0  0  0  0  0  0  0  0  0  0
   59.9629   29.1431   48.5724 H   0  0  0  0  0  0  0  0  0  0  0  0
  1  2  1  0
  2  3  1  0
  3  4  1  0
  3  5  1  0
  5  6  1  0
  6  7  1  0
  7  8  1  0
  8  9  1  0
  9 10  1  0
 10 11  1  0
 11 12  1  0
 12 13  1  0
 13 14  1  0
 14 15  2  0
 15 16  1  0
 16 17  2  0
 17 18  1  0
 18 19  2  0
 19 20  1  0
 20 21  2  0
 21 22  1  0
 21 23  1  0
 23 24  2  0
 24 25  1  0
 25 26  2  0
 26 27  1  0
 26 28  1  0
 28 29  2  0
 29 14  1  0
 20 15  1  0
 29 23  1  0
  1 30  1  0
  1 31  1  0
  1 32  1  0
  2 33  1  0
  2 34  1  0
  4 35  1  0
  4 36  1  0
  4 37  1  0
  5 38  1  0
  5 39  1  0
  6 40  1  0
  6 41  1  0
  8 42  1  0
  8 43  1  0
  9 44  1  0
  9 45  1  0
 10 46  1  0
 11 47  1  0
 11 48  1  0
 12 49  1  0
 12 50  1  0
 13 51  1  0
 13 52  1  0
 16 53  1  0
 17 54  1  0
 18 55  1  0
 19 56  1  0
 22 57  1  0
 22 58  1  0
 22 59  1  0
 24 60  1  0
 25 61  1  0
 28 62  1  0
M  CHG  2  13   1  21   1
M  END
>  <UniqueID>  (7) 
7

>  <SMILES>  (7) 
CCN(C)CCOCCNCC[NH2+]c1c2ccccc2[n+](C)c2ccc(F)cc12

>  <Energy>  (7) 
85.02995404969998

>  <Genealogy>  (7) 
CCN(C)CCOCCNCC[NH2+]c1c2ccccc2[n+](C)c2ccc(F)cc12 (protonated)
CCN(C)CCOCCNCC[NH2+]c1c2ccccc2[n+](C)c2ccc(F)cc12 (3D coordinates assigned)
CCN(C)CCOCCNCC[NH2+]c1c2ccccc2[n+](C)c2ccc(F)cc12 (optimized conformer: 85.02995404969998 kcal/mol)

>  <smiles>  (7) 
CCN(C)CCOCCNCCNc1c2ccccc2[n+](C)c2ccc(F)cc12

>  <score_type>  (7) 
oracle

>  <origin>  (7) 
adg

>  <m_score__min__energy>  (7) 
-5.2599999999999998

>  <m_primary>  (7) 
energy

$$$$
7:0
     RDKit          3D

 46 48  0  0  0  0  0  0  0  0999 V2000
   57.7900   32.0900   42.8980 C   0  0  0  0  0  0  0  0  0  0  0  0
   57.9410   31.7360   44.3110 N   0  0  0  0  0  0  0  0  0  0  0  0
   58.0280   32.5850   45.3700 C   0  0  0  0  0  0  0  0  0  0  0  0
   57.8720   34.0760   45.2950 C   0  0  0  0  0  0  0  0  0  0  0  0
   59.1520   34.7190   45.6110 N   0  0  0  0  0  0  0  0  0  0  0  0
   59.3290   34.9880   47.0480 C   0  0  0  0  0  0  0  0  0  0  0  0
   60.4950   34.2180   47.7230 C   0  0  0  0  0  0  0  0  0  0  0  0
   61.2310   33.3020   46.8080 N   0  0  0  0  0  0  0  0  0  0  0  0
   62.5520   33.8600   46.3790 C   0  0  0  0  0  0  0  0  0  0  0  0
   63.7740   33.1460   46.9900 C   0  0  0  0  0  0  0  0  0  0  0  0
   63.5240   32.7990   48.4560 C   0  0  0  0  0  0  0  0  0  0  0  0
   62.2800   31.9120   48.6250 C   0  0  0  0  0  0  0  0  0  0  0  0
   61.3490   31.9470   47.3980 C   0  0  0  0  0  0  0  0  0  0  0  0
   58.2280   31.8810   46.5540 C   0  0  0  0  0  0  0  0  0  0  0  0
   58.2990   30.5590   46.1790 C   0  0  0  0  0  0  0  0  0  0  0  0
   58.5150   29.4160   46.9470 C   0  0  0  0  0  0  0  0  0  0  0  0
   58.5620   28.1780   46.2840 C   0  0  0  0  0  0  0  0  0  0  0  0
   58.3990   28.1100   44.8840 C   0  0  0  0  0  0  0  0  0  0  0  0
   58.1840   29.2800   44.1330 C   0  0  0  0  0  0  0  0  0  0  0  0
   58.1330   30.4990   44.8170 C   0  0  0  0  0  0  0  0  0  0  0  0
   57.3596   33.0990   42.8168 H   0  0  0  0  0  0  0  0  0  0  0  0
   58.7746   32.0708   42.4079 H   0  0  0  0  0  0  0  0  0  0  0  0
   57.1224   31.3660   42.4079 H   0  0  0  0  0  0  0  0  0  0  0  0
   57.5594   34.3612   44.2796 H   0  0  0  0  0  0  0  0  0  0  0  0
   57.1102   34.4014   46.0187 H   0  0  0  0  0  0  0  0  0  0  0  0
   59.9480   34.1510   45.2420 H   0  0  0  0  0  0  0  0  0  0  0  0
   59.5145   36.0650   47.1728 H   0  0  0  0  0  0  0  0  0  0  0  0
   58.4080   34.6422   47.5401 H   0  0  0  0  0  0  0  0  0  0  0  0
   61.2087   34.9535   48.1226 H   0  0  0  0  0  0  0  0  0  0  0  0
   60.0474   33.5897   48.5071 H   0  0  0  0  0  0  0  0  0  0  0  0
   60.6530   33.1670   45.9480 H   0  0  0  0  0  0  0  0  0  0  0  0
   62.6195   33.7810   45.2839 H   0  0  0  0  0  0  0  0  0  0  0  0
   62.5846   34.8996   46.7370 H   0  0  0  0  0  0  0  0  0  0  0  0
   63.9684   32.2202   46.4286 H   0  0  0  0  0  0  0  0  0  0  0  0
   64.6414   33.8198   46.9307 H   0  0  0  0  0  0  0  0  0  0  0  0
   64.4002   32.2634   48.8502 H   0  0  0  0  0  0  0  0  0  0  0  0
   63.3549   33.7361   49.0067 H   0  0  0  0  0  0  0  0  0  0  0  0
   62.6078   30.8747   48.7877 H   0  0  0  0  0  0  0  0  0  0  0  0
   61.7112   32.3002   49.4828 H   0  0  0  0  0  0  0  0  0  0  0  0
   61.7481   31.2639   46.6338 H   0  0  0  0  0  0  0  0  0  0  0  0
   60.3466   31.6418   47.7326 H   0  0  0  0  0  0  0  0  0  0  0  0
   58.3114   32.2928   47.5706 H   0  0  0  0  0  0  0  0  0  0  0  0
   58.6445   29.4811   48.0374 H   0  0  0  0  0  0  0  0  0  0  0  0
   58.7270   27.2556   46.8602 H   0  0  0  0  0  0  0  0  0  0  0  0
   58.4403   27.1351   44.3762 H   0  0  0  0  0  0  0  0  0  0  0  0
   58.0597   29.2375   43.0409 H   0  0  0  0  0  0  0  0  0  0  0  0
  1  2  1  0
  2  3  1  0
  3  4  1  0
  4  5  1  0
  5  6  1  0
  6  7  1  0
  7  8  1  0
  8  9  1  0
  9 10  1  0
 10 11  1  0
 11 12  1  0
 12 13  1  0
  3 14  2  0
 14 15  1  0
 15 16  2  0
 16 17  1  0
 17 18  2  0
 18 19  1  0
 19 20  2  0
 20  2  1  0
 13  8  1  0
 20 15  1  0
  1 21  1  0
  1 22  1  0
  1 23  1  0
  4 24  1  0
  4 25  1  0
  5 26  1  0
  6 27  1  0
  6 28  1  0
  7 29  1  0
  7 30  1  0
  8 31  1  0
  9 32  1  0
  9 33  1  0
 10 34  1  0
 10 35  1  0
 11 36  1  0
 11 37  1  0
 12 38  1  0
 12 39  1  0
 13 40  1  0
 13 41  1  0
 14 42  1  0
 16 43  1  0
 17 44  1  0
 18 45  1  0
 19 46  1  0
M  CHG  1   8   1
M  END
>  <UniqueID>  (8) 
8

>  <SMILES>  (8) 
Cn1c(CNCC[NH+]2CCCCC2)cc2ccccc21

>  <Energy>  (8) 
89.93246707548842

>  <Genealogy>  (8) 
Cn1c(CNCC[NH+]2CCCCC2)cc2ccccc21 (protonated)
Cn1c(CNCC[NH+]2CCCCC2)cc2ccccc21 (3D coordinates assigned)
Cn1c(CNCC[NH+]2CCCCC2)cc2ccccc21 (nonaromatic ring conformer: 89.93246707548842 kcal/mol)

>  <smiles>  (8) 
Cn1c(CNCCN2CCCCC2)cc2ccccc21

>  <score_type>  (8) 
oracle

>  <origin>  (8) 
adg

>  <m_score__min__energy>  (8) 
-5.4800000000000004

>  <m_primary>  (8) 
energy

$$$$
8:0
     RDKit          3D

 43 45  0  0  0  0  0  0  0  0999 V2000
   56.7220   27.1380   45.6390 C   0  0  0  0  0  0  0  0  0  0  0  0
   57.1250   28.5120   45.1920 C   0  0  0  0  0  0  0  0  0  0  0  0
   58.4100   29.0000   45.4770 C   0  0  0  0  0  0  0  0  0  0  0  0
   58.7740   30.2930   45.0930 C   0  0  0  0  0  0  0  0  0  0  0  0
   57.8540   31.1220   44.4300 C   0  0  0  0  0  0  0  0  0  0  0  0
   58.2500   32.5130   43.9930 C   0  0  0  0  0  0  0  0  0  0  0  0
   57.6140   33.5600   44.8330 N   0  0  0  0  0  0  0  0  0  0  0  0
   58.3660   34.8250   44.8790 C   0  0  0  0  0  0  0  0  0  0  0  0
   59.7400   34.6900   45.5520 C   0  0  0  0  0  0  0  0  0  0  0  0
   59.7950   33.7250   46.6730 N   0  0  0  0  0  0  0  0  0  0  0  0
   61.0490   33.5710   47.4110 C   0  0  0  0  0  0  0  0  0  0  0  0
   61.0700   33.5440   48.8280 C   0  0  0  0  0  0  0  0  0  0  0  0
   62.2710   33.3980   49.5290 C   0  0  0  0  0  0  0  0  0  0  0  0
   63.4770   33.2770   48.8410 C   0  0  0  0  0  0  0  0  0  0  0  0
   64.9810   33.0930   49.7270 Cl  0  0  0  0  0  0  0  0  0  0  0  0
   63.4860   33.3070   47.4480 C   0  0  0  0  0  0  0  0  0  0  0  0
   62.2910   33.4540   46.7380 C   0  0  0  0  0  0  0  0  0  0  0  0
   58.6750   32.8060   46.9730 C   0  0  0  0  0  0  0  0  0  0  0  0
   57.3760   33.1020   46.2090 C   0  0  0  0  0  0  0  0  0  0  0  0
   56.5640   30.6380   44.1590 C   0  0  0  0  0  0  0  0  0  0  0  0
   56.2010   29.3440   44.5440 C   0  0  0  0  0  0  0  0  0  0  0  0
   56.7105   27.0987   46.7382 H   0  0  0  0  0  0  0  0  0  0  0  0
   55.7182   26.9066   45.2533 H   0  0  0  0  0  0  0  0  0  0  0  0
   57.4418   26.4011   45.2533 H   0  0  0  0  0  0  0  0  0  0  0  0
   59.1335   28.3615   46.0050 H   0  0  0  0  0  0  0  0  0  0  0  0
   59.7864   30.6639   45.3110 H   0  0  0  0  0  0  0  0  0  0  0  0
   59.3429   32.6118   44.0687 H   0  0  0  0  0  0  0  0  0  0  0  0
   57.9096   32.6544   42.9566 H   0  0  0  0  0  0  0  0  0  0  0  0
   56.6720   33.7720   44.4250 H   0  0  0  0  0  0  0  0  0  0  0  0
   58.5151   35.1803   43.8487 H   0  0  0  0  0  0  0  0  0  0  0  0
   57.7766   35.5331   45.4801 H   0  0  0  0  0  0  0  0  0  0  0  0
   60.4637   34.3681   44.7887 H   0  0  0  0  0  0  0  0  0  0  0  0
   59.9695   35.6756   45.9831 H   0  0  0  0  0  0  0  0  0  0  0  0
   60.1263   33.6394   49.3851 H   0  0  0  0  0  0  0  0  0  0  0  0
   62.2639   33.3785   50.6288 H   0  0  0  0  0  0  0  0  0  0  0  0
   64.4379   33.2146   46.9045 H   0  0  0  0  0  0  0  0  0  0  0  0
   62.3148   33.4793   45.6385 H   0  0  0  0  0  0  0  0  0  0  0  0
   58.9944   31.7839   46.7216 H   0  0  0  0  0  0  0  0  0  0  0  0
   58.4434   32.9385   48.0401 H   0  0  0  0  0  0  0  0  0  0  0  0
   56.7723   32.1831   46.1737 H   0  0  0  0  0  0  0  0  0  0  0  0
   56.8569   33.9124   46.7417 H   0  0  0  0  0  0  0  0  0  0  0  0
   55.8359   31.2799   43.6415 H   0  0  0  0  0  0  0  0  0  0  0  0
   55.1850   28.9766   44.3374 H   0  0  0  0  0  0  0  0  0  0  0  0
  1  2  1  0
  2  3  2  0
  3  4  1  0
  4  5  2  0
  5  6  1  0
  6  7  1  0
  7  8  1  0
  8  9  1  0
  9 10  1  0
 10 11  1  0
 11 12  2  0
 12 13  1  0
 13 14  2  0
 14 15  1  0
 14 16  1  0
 16 17  2  0
 10 18  1  0
 18 19  1  0
  5 20  1  0
 20 21  2  0
 21  2  1  0
 19  7  1  0
 17 11  1  0
  1 22  1  0
  1 23  1  0
  1 24  1  0
  3 25  1  0
  4 26  1  0
  6 27  1  0
  6 28  1  0
  7 29  1  0
  8 30  1  0
  8 31  1  0
  9 32  1  0
  9 33  1  0
 12 34  1  0
 13 35  1  0
 16 36  1  0
 17 37  1  0
 18 38  1  0
 18 39  1  0
 19 40  1  0
 19 41  1  0
 20 42  1  0
 21 43  1  0
M  CHG  1   7   1
M  END
>  <UniqueID>  (9) 
9

>  <SMILES>  (9) 
Cc1ccc(C[NH+]2CCN(c3ccc(Cl)cc3)CC2)cc1

>  <Energy>  (9) 
54.90367465670267

>  <Genealogy>  (9) 
Cc1ccc(C[NH+]2CCN(c3ccc(Cl)cc3)CC2)cc1 (protonated)
Cc1ccc(C[NH+]2CCN(c3ccc(Cl)cc3)CC2)cc1 (3D coordinates assigned)
Cc1ccc(C[NH+]2CCN(c3ccc(Cl)cc3)CC2)cc1 (nonaromatic ring conformer: 54.90367465670267 kcal/mol)

>  <smiles>  (9) 
Cc1ccc(CN2CCN(c3ccc(Cl)cc3)CC2)cc1

>  <score_type>  (9) 
oracle

>  <origin>  (9) 
adg

>  <m_score__min__energy>  (9) 
-6.1200000000000001

>  <m_primary>  (9) 
energy

$$$$
9:0
     RDKit          3D

 68 70  0  0  0  0  0  0  0  0999 V2000
   62.6830   33.4630   46.8860 C   0  0  0  0  0  0  0  0  0  0  0  0
   61.8880   33.3670   48.1890 C   0  0  0  0  0  0  0  0  0  0  0  0
   60.8630   34.3420   48.2500 O   0  0  0  0  0  0  0  0  0  0  0  0
   60.0730   34.1770   49.4110 C   0  0  0  0  0  0  0  0  0  0  0  0
   60.2000   32.7340   49.8970 C   0  0  0  0  0  0  0  0  0  0  0  0
   58.9230   32.1620   50.1040 O   0  0  0  0  0  0  0  0  0  0  0  0
   58.3250   32.6440   51.2940 C   0  0  0  0  0  0  0  0  0  0  0  0
   57.0370   31.8800   51.6110 C   0  0  0  0  0  0  0  0  0  0  0  0
   57.1800   30.4660   51.2330 N   0  0  0  0  0  0  0  0  0  0  0  0
   57.4300   29.6150   52.4050 C   0  0  0  0  0  0  0  0  0  0  0  0
   58.9080   29.6980   52.8030 C   0  0  0  0  0  0  0  0  0  0  0  0
   59.8320   28.9620   51.8190 C   0  0  0  0  0  0  0  0  0  0  0  0
   59.5950   29.3150   50.4090 N   0  0  0  0  0  0  0  0  0  0  0  0
   60.7690   29.2190   49.5210 C   0  0  0  0  0  0  0  0  0  0  0  0
   60.6070   29.9110   48.1580 C   0  0  0  0  0  0  0  0  0  0  0  0
   59.2340   30.3750   47.9460 N   0  0  0  0  0  0  0  0  0  0  0  0
   58.6670   30.4750   46.6250 C   0  0  0  0  0  0  0  0  0  0  0  0
   58.3950   31.7360   46.0580 C   0  0  0  0  0  0  0  0  0  0  0  0
   58.5830   32.9220   46.8010 C   0  0  0  0  0  0  0  0  0  0  0  0
   58.4090   34.1710   46.2080 C   0  0  0  0  0  0  0  0  0  0  0  0
   58.0510   34.2600   44.8700 C   0  0  0  0  0  0  0  0  0  0  0  0
   57.8040   33.1020   44.1310 C   0  0  0  0  0  0  0  0  0  0  0  0
   57.9110   31.8170   44.7240 C   0  0  0  0  0  0  0  0  0  0  0  0
   57.5750   30.6660   44.0360 N   0  0  0  0  0  0  0  0  0  0  0  0
   56.8130   30.7570   42.7720 C   0  0  0  0  0  0  0  0  0  0  0  0
   57.9200   29.4270   44.5460 C   0  0  0  0  0  0  0  0  0  0  0  0
   57.7960   28.2410   43.7720 C   0  0  0  0  0  0  0  0  0  0  0  0
   58.1180   26.9950   44.3070 C   0  0  0  0  0  0  0  0  0  0  0  0
   58.5850   26.8930   45.6120 C   0  0  0  0  0  0  0  0  0  0  0  0
   58.7500   28.0370   46.3850 C   0  0  0  0  0  0  0  0  0  0  0  0
   58.4400   29.3130   45.8640 C   0  0  0  0  0  0  0  0  0  0  0  0
   63.7508   33.5919   47.1166 H   0  0  0  0  0  0  0  0  0  0  0  0
   62.5427   32.5414   46.3021 H   0  0  0  0  0  0  0  0  0  0  0  0
   62.3273   34.3247   46.3021 H   0  0  0  0  0  0  0  0  0  0  0  0
   61.4337   32.3675   48.2567 H   0  0  0  0  0  0  0  0  0  0  0  0
   62.5793   33.5433   49.0263 H   0  0  0  0  0  0  0  0  0  0  0  0
   60.4234   34.8630   50.1963 H   0  0  0  0  0  0  0  0  0  0  0  0
   59.0210   34.4006   49.1800 H   0  0  0  0  0  0  0  0  0  0  0  0
   60.7414   32.1450   49.1420 H   0  0  0  0  0  0  0  0  0  0  0  0
   60.7486   32.7289   50.8504 H   0  0  0  0  0  0  0  0  0  0  0  0
   59.0316   32.5187   52.1276 H   0  0  0  0  0  0  0  0  0  0  0  0
   58.0763   33.7064   51.1550 H   0  0  0  0  0  0  0  0  0  0  0  0
   56.8295   31.9489   52.6891 H   0  0  0  0  0  0  0  0  0  0  0  0
   56.2072   32.3223   51.0402 H   0  0  0  0  0  0  0  0  0  0  0  0
   58.0050   30.3890   50.5940 H   0  0  0  0  0  0  0  0  0  0  0  0
   56.8064   29.9571   53.2441 H   0  0  0  0  0  0  0  0  0  0  0  0
   57.1793   28.5731   52.1567 H   0  0  0  0  0  0  0  0  0  0  0  0
   59.2037   30.7569   52.8378 H   0  0  0  0  0  0  0  0  0  0  0  0
   59.0147   29.2122   53.7841 H   0  0  0  0  0  0  0  0  0  0  0  0
   60.8741   29.2103   52.0689 H   0  0  0  0  0  0  0  0  0  0  0  0
   59.6210   27.8873   51.9217 H   0  0  0  0  0  0  0  0  0  0  0  0
   59.2170   30.2900   50.3750 H   0  0  0  0  0  0  0  0  0  0  0  0
   61.6261   29.6764   50.0369 H   0  0  0  0  0  0  0  0  0  0  0  0
   60.9093   28.1487   49.3092 H   0  0  0  0  0  0  0  0  0  0  0  0
   61.2862   30.7752   48.1139 H   0  0  0  0  0  0  0  0  0  0  0  0
   60.8474   29.1803   47.3717 H   0  0  0  0  0  0  0  0  0  0  0  0
   58.6090   30.5010   48.7730 H   0  0  0  0  0  0  0  0  0  0  0  0
   58.8703   32.8592   47.8609 H   0  0  0  0  0  0  0  0  0  0  0  0
   58.5554   35.0863   46.8003 H   0  0  0  0  0  0  0  0  0  0  0  0
   57.9617   35.2460   44.3906 H   0  0  0  0  0  0  0  0  0  0  0  0
   57.5217   33.1867   43.0712 H   0  0  0  0  0  0  0  0  0  0  0  0
   55.7438   30.8847   42.9968 H   0  0  0  0  0  0  0  0  0  0  0  0
   57.1707   31.6188   42.1895 H   0  0  0  0  0  0  0  0  0  0  0  0
   56.9577   29.8352   42.1895 H   0  0  0  0  0  0  0  0  0  0  0  0
   57.4399   28.3079   42.7334 H   0  0  0  0  0  0  0  0  0  0  0  0
   58.0021   26.0890   43.6941 H   0  0  0  0  0  0  0  0  0  0  0  0
   58.8244   25.9058   46.0340 H   0  0  0  0  0  0  0  0  0  0  0  0
   59.1265   27.9474   47.4147 H   0  0  0  0  0  0  0  0  0  0  0  0
  1  2  1  0
  2  3  1  0
  3  4  1  0
  4  5  1  0
  5  6  1  0
  6  7  1  0
  7  8  1  0
  8  9  1  0
  9 10  1  0
 10 11  1  0
 11 12  1  0
 12 13  1  0
 13 14  1  0
 14 15  1  0
 15 16  1  0
 16 17  1  0
 17 18  2  0
 18 19  1  0
 19 20  2  0
 20 21  1  0
 21 22  2  0
 22 23  1  0
 23 24  2  0
 24 25  1  0
 24 26  1  0
 26 27  2  0
 27 28  1  0
 28 29  2  0
 29 30  1  0
 30 31  2  0
 31 17  1  0
 23 18  1  0
 31 26  1  0
  1 32  1  0
  1 33  1  0
  1 34  1  0
  2 35  1  0
  2 36  1  0
  4 37  1  0
  4 38  1  0
  5 39  1  0
  5 40  1  0
  7 41  1  0
  7 42  1  0
  8 43  1  0
  8 44  1  0
  9 45  1  0
 10 46  1  0
 10 47  1  0
 11 48  1  0
 11 49  1  0
 12 50  1  0
 12 51  1  0
 13 52  1  0
 14 53  1  0
 14 54  1  0
 15 55  1  0
 15 56  1  0
 16 57  1  0
 19 58  1  0
 20 59  1  0
 21 60  1  0
 22 61  1  0
 25 62  1  0
 25 63  1  0
 25 64  1  0
 27 65  1  0
 28 66  1  0
 29 67  1  0
 30 68  1  0
M  CHG  1  24   1
M  END
>  <UniqueID>  (10) 
10

>  <SMILES>  (10) 
CCOCCOCCNCCCNCCNc1c2ccccc2[n+](C)c2ccccc12

>  <Energy>  (10) 
93.80532989002252

>  <Genealogy>  (10) 
CCOCCOCCNCCCNCCNc1c2ccccc2[n+](C)c2ccccc12 (3D coordinates assigned)
CCOCCOCCNCCCNCCNc1c2ccccc2[n+](C)c2ccccc12 (optimized conformer: 93.80532989002252 kcal/mol)

>  <smiles>  (10) 
CCOCCOCCNCCCNCCNc1c2ccccc2[n+](C)c2ccccc12

>  <score_type>  (10) 
oracle

>  <origin>  (10) 
adg

>  <m_score__min__energy>  (10) 
-5.3300000000000001

>  <m_primary>  (10) 
energy

$$$$
10:0
     RDKit          3D

 40 41  0  0  0  0  0  0  0  0999 V2000
   65.9910   32.7270   50.1280 C   0  0  0  0  0  0  0  0  0  0  0  0
   64.7350   31.9400   49.7480 C   0  0  0  0  0  0  0  0  0  0  0  0
   64.0290   32.4120   48.5280 N   0  0  1  0  0  0  0  0  0  0  0  0
   62.8850   31.5600   48.1110 C   0  0  0  0  0  0  0  0  0  0  0  0
   61.4990   32.0760   48.5510 C   0  0  0  0  0  0  0  0  0  0  0  0
   61.2780   33.5160   48.2660 N   0  0  2  0  0  0  0  0  0  0  0  0
   59.9940   33.9280   48.8930 C   0  0  0  0  0  0  0  0  0  0  0  0
   61.2460   33.8250   46.7960 C   0  0  0  0  0  0  0  0  0  0  0  0
   59.8890   33.6420   46.1340 C   0  0  0  0  0  0  0  0  0  0  0  0
   59.2650   32.3810   46.1050 C   0  0  0  0  0  0  0  0  0  0  0  0
   58.0220   32.2210   45.4860 C   0  0  0  0  0  0  0  0  0  0  0  0
   57.3960   33.3110   44.8770 C   0  0  0  0  0  0  0  0  0  0  0  0
   58.0150   34.5630   44.8820 C   0  0  0  0  0  0  0  0  0  0  0  0
   59.2580   34.7280   45.5000 C   0  0  0  0  0  0  0  0  0  0  0  0
   62.3600   34.2930   48.9280 C   0  0  0  0  0  0  0  0  0  0  0  0
   63.7780   33.8750   48.4900 C   0  0  0  0  0  0  0  0  0  0  0  0
   66.0737   32.7788   51.2237 H   0  0  0  0  0  0  0  0  0  0  0  0
   66.8780   32.2229   49.7168 H   0  0  0  0  0  0  0  0  0  0  0  0
   65.9242   33.7450   49.7168 H   0  0  0  0  0  0  0  0  0  0  0  0
   65.0277   30.8921   49.5862 H   0  0  0  0  0  0  0  0  0  0  0  0
   64.0281   32.0795   50.5791 H   0  0  0  0  0  0  0  0  0  0  0  0
   64.7490   32.2580   47.7790 H   0  0  0  0  0  0  0  0  0  0  0  0
   63.0296   30.5583   48.5418 H   0  0  0  0  0  0  0  0  0  0  0  0
   62.8815   31.5634   47.0110 H   0  0  0  0  0  0  0  0  0  0  0  0
   61.3978   31.9174   49.6348 H   0  0  0  0  0  0  0  0  0  0  0  0
   60.7499   31.5160   47.9720 H   0  0  0  0  0  0  0  0  0  0  0  0
   60.0938   33.8960   49.9880 H   0  0  0  0  0  0  0  0  0  0  0  0
   59.7436   34.9516   48.5774 H   0  0  0  0  0  0  0  0  0  0  0  0
   59.1948   33.2412   48.5774 H   0  0  0  0  0  0  0  0  0  0  0  0
   61.5545   34.8720   46.6599 H   0  0  0  0  0  0  0  0  0  0  0  0
   61.9246   33.1058   46.3141 H   0  0  0  0  0  0  0  0  0  0  0  0
   59.7584   31.5160   46.5723 H   0  0  0  0  0  0  0  0  0  0  0  0
   57.5357   31.2344   45.4785 H   0  0  0  0  0  0  0  0  0  0  0  0
   56.4161   33.1835   44.3937 H   0  0  0  0  0  0  0  0  0  0  0  0
   57.5237   35.4205   44.3989 H   0  0  0  0  0  0  0  0  0  0  0  0
   59.7461   35.7137   45.4905 H   0  0  0  0  0  0  0  0  0  0  0  0
   62.2756   34.1495   50.0153 H   0  0  0  0  0  0  0  0  0  0  0  0
   62.2285   35.3445   48.6328 H   0  0  0  0  0  0  0  0  0  0  0  0
   64.5020   34.3651   49.1575 H   0  0  0  0  0  0  0  0  0  0  0  0
   63.8840   34.1830   47.4393 H   0  0  0  0  0  0  0  0  0  0  0  0
  1  2  1  0
  2  3  1  0
  3  4  1  0
  4  5  1  0
  5  6  1  0
  6  7  1  1
  6  8  1  0
  8  9  1  0
  9 10  2  0
 10 11  1  0
 11 12  2  0
 12 13  1  0
 13 14  2  0
  6 15  1  0
 15 16  1  0
 16  3  1  0
 14  9  1  0
  1 17  1  0
  1 18  1  0
  1 19  1  0
  2 20  1  0
  2 21  1  0
  3 22  1  6
  4 23  1  0
  4 24  1  0
  5 25  1  0
  5 26  1  0
  7 27  1  0
  7 28  1  0
  7 29  1  0
  8 30  1  0
  8 31  1  0
 10 32  1  0
 11 33  1  0
 12 34  1  0
 13 35  1  0
 14 36  1  0
 15 37  1  0
 15 38  1  0
 16 39  1  0
 16 40  1  0
M  CHG  2   3   1   6   1
M  END
>  <UniqueID>  (11) 
11

>  <SMILES>  (11) 
CC[NH+]1CC[N+](C)(Cc2ccccc2)CC1

>  <Energy>  (11) 
60.98005541726181

>  <Genealogy>  (11) 
CC[NH+]1CC[N+](C)(Cc2ccccc2)CC1 (protonated)
CC[NH+]1CC[N+](C)(Cc2ccccc2)CC1 (3D coordinates assigned)
CC[NH+]1CC[N+](C)(Cc2ccccc2)CC1 (nonaromatic ring conformer: 60.98005541726181 kcal/mol)

>  <smiles>  (11) 
CC[N+]1CC[N+](C)(Cc2ccccc2)CC1

>  <score_type>  (11) 
oracle

>  <origin>  (11) 
adg

>  <m_score__min__energy>  (11) 
-3.25

>  <m_primary>  (11) 
energy

$$$$
11:0
     RDKit          3D

 48 50  0  0  0  0  0  0  0  0999 V2000
   65.0600   32.8410   49.6110 C   0  0  0  0  0  0  0  0  0  0  0  0
   63.8330   32.8040   48.7490 C   0  0  0  0  0  0  0  0  0  0  0  0
   63.7180   33.6240   47.6240 C   0  0  0  0  0  0  0  0  0  0  0  0
   62.5850   33.5940   46.8750 N   0  0  0  0  0  0  0  0  0  0  0  0
   61.5450   32.7760   47.1980 C   0  0  0  0  0  0  0  0  0  0  0  0
   60.3560   32.7540   46.3830 N   0  0  0  0  0  0  0  0  0  0  0  0
   60.0030   33.9460   45.5940 C   0  0  0  0  0  0  0  0  0  0  0  0
   58.4760   34.1460   45.4620 C   0  0  2  0  0  0  0  0  0  0  0  0
   57.7790   34.1030   46.8410 C   0  0  0  0  0  0  0  0  0  0  0  0
   57.7940   32.6900   47.4710 C   0  0  0  0  0  0  0  0  0  0  0  0
   58.1150   31.6020   46.4250 C   0  0  2  0  0  0  0  0  0  0  0  0
   59.6460   31.4810   46.1660 C   0  0  0  0  0  0  0  0  0  0  0  0
   57.3460   31.9100   45.1960 N   0  0  0  0  0  0  0  0  0  0  0  0
   57.1470   30.7580   44.2890 C   0  0  0  0  0  0  0  0  0  0  0  0
   57.4540   29.4370   45.0050 C   0  0  0  0  0  0  0  0  0  0  0  0
   56.2500   28.6050   45.0720 N   0  0  0  0  0  0  0  0  0  0  0  0
   56.6180   27.0920   45.8390 S   0  0  0  0  0  0  0  0  0  0  0  0
   57.6050   26.1100   44.7340 C   0  0  0  0  0  0  0  0  0  0  0  0
   57.3860   27.3300   47.1110 O   0  0  0  0  0  0  0  0  0  0  0  0
   55.3490   26.3510   46.1510 O   0  0  0  0  0  0  0  0  0  0  0  0
   57.8480   33.1100   44.4910 C   0  0  0  0  0  0  0  0  0  0  0  0
   61.6310   31.9890   48.3060 N   0  0  0  0  0  0  0  0  0  0  0  0
   62.7420   31.9960   49.0880 C   0  0  0  0  0  0  0  0  0  0  0  0
   64.7642   32.8321   50.6704 H   0  0  0  0  0  0  0  0  0  0  0  0
   65.6849   31.9613   49.3973 H   0  0  0  0  0  0  0  0  0  0  0  0
   65.6307   33.7568   49.3973 H   0  0  0  0  0  0  0  0  0  0  0  0
   64.5446   34.2938   47.3446 H   0  0  0  0  0  0  0  0  0  0  0  0
   60.4324   34.8320   46.0845 H   0  0  0  0  0  0  0  0  0  0  0  0
   60.4074   33.8044   44.5809 H   0  0  0  0  0  0  0  0  0  0  0  0
   58.3152   35.1467   45.0346 H   0  0  0  0  0  0  0  0  0  0  0  0
   58.2970   34.7968   47.5194 H   0  0  0  0  0  0  0  0  0  0  0  0
   56.7277   34.3905   46.6922 H   0  0  0  0  0  0  0  0  0  0  0  0
   58.5579   32.6605   48.2620 H   0  0  0  0  0  0  0  0  0  0  0  0
   56.7937   32.4868   47.8811 H   0  0  0  0  0  0  0  0  0  0  0  0
   57.8119   30.6136   46.8009 H   0  0  0  0  0  0  0  0  0  0  0  0
   60.0608   30.7246   46.8485 H   0  0  0  0  0  0  0  0  0  0  0  0
   59.7859   31.1948   45.1131 H   0  0  0  0  0  0  0  0  0  0  0  0
   56.1021   30.7468   43.9453 H   0  0  0  0  0  0  0  0  0  0  0  0
   57.8320   30.8616   43.4346 H   0  0  0  0  0  0  0  0  0  0  0  0
   58.2376   28.8980   44.4524 H   0  0  0  0  0  0  0  0  0  0  0  0
   57.7967   29.6546   46.0273 H   0  0  0  0  0  0  0  0  0  0  0  0
   55.9500   28.3840   44.0950 H   0  0  0  0  0  0  0  0  0  0  0  0
   58.2656   25.4527   45.3184 H   0  0  0  0  0  0  0  0  0  0  0  0
   56.9466   25.4981   44.0999 H   0  0  0  0  0  0  0  0  0  0  0  0
   58.2136   26.7715   44.0999 H   0  0  0  0  0  0  0  0  0  0  0  0
   58.6122   32.7988   43.7636 H   0  0  0  0  0  0  0  0  0  0  0  0
   56.9920   33.5906   43.9947 H   0  0  0  0  0  0  0  0  0  0  0  0
   62.7839   31.3658   49.9886 H   0  0  0  0  0  0  0  0  0  0  0  0
  1  2  1  0
  2  3  2  0
  3  4  1  0
  4  5  2  0
  5  6  1  0
  6  7  1  0
  7  8  1  0
  8  9  1  0
  9 10  1  0
 10 11  1  0
 11 12  1  0
 11 13  1  0
 13 14  1  0
 14 15  1  0
 15 16  1  0
 16 17  1  0
 17 18  1  0
 17 19  2  0
 17 20  2  0
 13 21  1  0
  5 22  1  0
 22 23  2  0
 23  2  1  0
 12  6  1  0
 21  8  1  0
  1 24  1  0
  1 25  1  0
  1 26  1  0
  3 27  1  0
  7 28  1  0
  7 29  1  0
  8 30  1  6
  9 31  1  0
  9 32  1  0
 10 33  1  0
 10 34  1  0
 11 35  1  1
 12 36  1  0
 12 37  1  0
 14 38  1  0
 14 39  1  0
 15 40  1  0
 15 41  1  0
 16 42  1  0
 18 43  1  0
 18 44  1  0
 18 45  1  0
 21 46  1  0
 21 47  1  0
 23 48  1  0
M  END
>  <UniqueID>  (12) 
12

>  <SMILES>  (12) 
Cc1cnc(N2C[C@@H]3CC[C@H](C2)N(CCNS(C)(=O)=O)C3)nc1

>  <Energy>  (12) 
58.08082883076997

>  <Genealogy>  (12) 
Cc1cnc(N2C[C@@H]3CC[C@H](C2)N(CCNS(C)(=O)=O)C3)nc1 (chirality)
Cc1cnc(N2C[C@@H]3CC[C@H](C2)N(CCNS(C)(=O)=O)C3)nc1 (3D coordinates assigned)
Cc1cnc(N2C[C@@H]3CC[C@H](C2)N(CCNS(C)(=O)=O)C3)nc1 (nonaromatic ring conformer: 58.08082883076997 kcal/mol)

>  <smiles>  (12) 
Cc1cnc(N2CC3CCC(C2)N(CCNS(C)(=O)=O)C3)nc1

>  <score_type>  (12) 
oracle

>  <origin>  (12) 
adg

>  <m_score__min__energy>  (12) 
-7.6500000000000004

>  <m_primary>  (12) 
energy

$$$$
12:0
     RDKit          3D

 36 37  0  0  0  0  0  0  0  0999 V2000
   58.1310   26.9530   42.6250 C   0  0  0  0  0  0  0  0  0  0  0  0
   58.8020   27.4650   43.8980 C   0  0  0  0  0  0  0  0  0  0  0  0
   58.7130   26.4580   45.0500 C   0  0  0  0  0  0  0  0  0  0  0  0
   57.6820   27.0630   46.4400 S   0  0  0  0  0  0  0  0  0  0  0  0
   58.4280   28.7020   46.5120 C   0  0  0  0  0  0  0  0  0  0  0  0
   59.6350   28.8420   47.2280 C   0  0  0  0  0  0  0  0  0  0  0  0
   60.2560   30.0850   47.2350 C   0  0  0  0  0  0  0  0  0  0  0  0
   61.4280   30.4090   47.8090 N   0  0  0  0  0  0  0  0  0  0  0  0
   61.5760   31.7170   47.4820 C   0  0  0  0  0  0  0  0  0  0  0  0
   63.0030   32.6290   47.9510 S   0  0  0  0  0  0  0  0  0  0  0  0
   62.6540   34.0440   48.9730 C   0  0  0  0  0  0  0  0  0  0  0  0
   64.0040   32.9850   46.6480 O   0  0  0  0  0  0  0  0  0  0  0  0
   60.5450   32.2120   46.7450 N   0  0  0  0  0  0  0  0  0  0  0  0
   60.4200   33.5300   46.1260 C   0  0  0  0  0  0  0  0  0  0  0  0
   59.7280   31.1570   46.5830 C   0  0  0  0  0  0  0  0  0  0  0  0
   58.5330   31.0700   45.8700 C   0  0  0  0  0  0  0  0  0  0  0  0
   57.8530   29.8310   45.8460 C   0  0  0  0  0  0  0  0  0  0  0  0
   56.5970   29.7400   45.1500 N   0  0  0  0  0  0  0  0  0  0  0  0
   55.8920   28.7150   45.2340 O   0  0  0  0  0  0  0  0  0  0  0  0
   56.0810   30.8480   44.5160 O   0  0  0  0  0  0  0  0  0  0  0  0
   57.2828   26.3058   42.8925 H   0  0  0  0  0  0  0  0  0  0  0  0
   57.7687   27.8063   42.0329 H   0  0  0  0  0  0  0  0  0  0  0  0
   58.8583   26.3782   42.0329 H   0  0  0  0  0  0  0  0  0  0  0  0
   59.8624   27.6635   43.6832 H   0  0  0  0  0  0  0  0  0  0  0  0
   58.2763   28.3795   44.2101 H   0  0  0  0  0  0  0  0  0  0  0  0
   58.2756   25.5238   44.6679 H   0  0  0  0  0  0  0  0  0  0  0  0
   59.7316   26.3024   45.4349 H   0  0  0  0  0  0  0  0  0  0  0  0
   60.0735   27.9892   47.7670 H   0  0  0  0  0  0  0  0  0  0  0  0
   62.7247   33.7574   50.0326 H   0  0  0  0  0  0  0  0  0  0  0  0
   63.3828   34.8396   48.7590 H   0  0  0  0  0  0  0  0  0  0  0  0
   61.6388   34.4095   48.7590 H   0  0  0  0  0  0  0  0  0  0  0  0
   64.7820   32.3820   46.7470 H   0  0  0  0  0  0  0  0  0  0  0  0
   60.3472   34.2980   46.9102 H   0  0  0  0  0  0  0  0  0  0  0  0
   61.3035   33.7268   45.5010 H   0  0  0  0  0  0  0  0  0  0  0  0
   59.5152   33.5572   45.5010 H   0  0  0  0  0  0  0  0  0  0  0  0
   58.1291   31.9445   45.3389 H   0  0  0  0  0  0  0  0  0  0  0  0
  1  2  1  0
  2  3  1  0
  3  4  1  0
  4  5  1  0
  5  6  2  0
  6  7  1  0
  7  8  1  0
  8  9  2  0
  9 10  1  0
 10 11  1  0
 10 12  1  6
  9 13  1  0
 13 14  1  0
 13 15  1  0
 15 16  1  0
 16 17  2  0
 17 18  1  0
 18 19  2  0
 18 20  1  0
 17  5  1  0
 15  7  2  0
  1 21  1  0
  1 22  1  0
  1 23  1  0
  2 24  1  0
  2 25  1  0
  3 26  1  0
  3 27  1  0
  6 28  1  0
 11 29  1  0
 11 30  1  0
 11 31  1  0
 12 32  1  0
 14 33  1  0
 14 34  1  0
 14 35  1  0
 16 36  1  0
M  CHG  3  10   1  18   1  20  -1
M  END
>  <UniqueID>  (13) 
13

>  <SMILES>  (13) 
CCCSc1cc2nc([S@+](C)O)n(C)c2cc1[N+](=O)[O-]

>  <Energy>  (13) 
66.32966928508152

>  <Genealogy>  (13) 
CCCSc1cc2nc([S+](C)O)n(C)c2cc1[N+](=O)[O-] (protonated)
CCCSc1cc2nc([S@+](C)O)n(C)c2cc1[N+](=O)[O-] (chirality)
CCCSc1cc2nc([S@+](C)O)n(C)c2cc1[N+](=O)[O-] (3D coordinates assigned)
CCCSc1cc2nc([S@+](C)O)n(C)c2cc1[N+](=O)[O-] (optimized conformer: 66.32966928508152 kcal/mol)

>  <smiles>  (13) 
CCCSc1cc2nc([S+](C)[O-])n(C)c2cc1[N+](=O)[O-]

>  <score_type>  (13) 
oracle

>  <origin>  (13) 
adg

>  <m_score__min__energy>  (13) 
-5.8600000000000003

>  <m_primary>  (13) 
energy

$$$$
13:0
     RDKit          3D

 60 62  0  0  0  0  0  0  0  0999 V2000
   59.6320   34.9600   45.9750 C   0  0  0  0  0  0  0  0  0  0  0  0
   58.8810   34.3960   47.1800 C   0  0  0  0  0  0  0  0  0  0  0  0
   57.6580   33.5810   46.7580 C   0  0  0  0  0  0  0  0  0  0  0  0
   58.0760   32.3880   46.1290 O   0  0  0  0  0  0  0  0  0  0  0  0
   57.7010   32.4160   44.7670 C   0  0  0  0  0  0  0  0  0  0  0  0
   57.3550   31.0000   44.2970 C   0  0  0  0  0  0  0  0  0  0  0  0
   58.0390   29.9140   45.1370 C   0  0  0  0  0  0  0  0  0  0  0  0
   59.4920   30.1260   45.1620 N   0  0  0  0  0  0  0  0  0  0  0  0
   60.1840   29.1590   46.0290 C   0  0  0  0  0  0  0  0  0  0  0  0
   59.2830   28.6430   47.1700 C   0  0  0  0  0  0  0  0  0  0  0  0
   59.2650   29.5880   48.3850 C   0  0  0  0  0  0  0  0  0  0  0  0
   59.1920   31.0230   48.0280 N   0  0  0  0  0  0  0  0  0  0  0  0
   59.9370   31.8730   48.9520 C   0  0  0  0  0  0  0  0  0  0  0  0
   59.3570   32.2610   50.1940 C   0  0  0  0  0  0  0  0  0  0  0  0
   58.0320   31.8940   50.5460 C   0  0  0  0  0  0  0  0  0  0  0  0
   57.4530   32.3300   51.7340 C   0  0  0  0  0  0  0  0  0  0  0  0
   58.1660   33.1460   52.5970 C   0  0  0  0  0  0  0  0  0  0  0  0
   59.4760   33.5020   52.2950 C   0  0  0  0  0  0  0  0  0  0  0  0
   60.1140   33.0360   51.1150 C   0  0  0  0  0  0  0  0  0  0  0  0
   61.4340   33.3330   50.8540 N   0  0  0  0  0  0  0  0  0  0  0  0
   62.3050   33.8400   51.9400 C   0  0  0  0  0  0  0  0  0  0  0  0
   61.9540   33.1320   49.5920 C   0  0  0  0  0  0  0  0  0  0  0  0
   63.2000   33.6990   49.2170 C   0  0  0  0  0  0  0  0  0  0  0  0
   63.7650   33.4450   47.9730 C   0  0  0  0  0  0  0  0  0  0  0  0
   63.1030   32.6340   47.0640 C   0  0  0  0  0  0  0  0  0  0  0  0
   61.8600   32.0970   47.3810 C   0  0  0  0  0  0  0  0  0  0  0  0
   61.2400   32.3570   48.6320 C   0  0  0  0  0  0  0  0  0  0  0  0
   60.4663   35.5866   46.3234 H   0  0  0  0  0  0  0  0  0  0  0  0
   60.0246   34.1316   45.3670 H   0  0  0  0  0  0  0  0  0  0  0  0
   58.9459   35.5679   45.3670 H   0  0  0  0  0  0  0  0  0  0  0  0
   59.5611   33.7471   47.7513 H   0  0  0  0  0  0  0  0  0  0  0  0
   58.5332   35.2415   47.7917 H   0  0  0  0  0  0  0  0  0  0  0  0
   57.0579   33.3352   47.6465 H   0  0  0  0  0  0  0  0  0  0  0  0
   57.0517   34.1709   46.0548 H   0  0  0  0  0  0  0  0  0  0  0  0
   56.8231   33.0671   44.6429 H   0  0  0  0  0  0  0  0  0  0  0  0
   58.5372   32.8045   44.1671 H   0  0  0  0  0  0  0  0  0  0  0  0
   56.2656   30.8631   44.3644 H   0  0  0  0  0  0  0  0  0  0  0  0
   57.7147   30.8959   43.2627 H   0  0  0  0  0  0  0  0  0  0  0  0
   57.6494   29.9517   46.1650 H   0  0  0  0  0  0  0  0  0  0  0  0
   57.8292   28.9314   44.6893 H   0  0  0  0  0  0  0  0  0  0  0  0
   59.6920   31.0980   45.4990 H   0  0  0  0  0  0  0  0  0  0  0  0
   60.5050   28.3028   45.4176 H   0  0  0  0  0  0  0  0  0  0  0  0
   61.0429   29.6724   46.4857 H   0  0  0  0  0  0  0  0  0  0  0  0
   58.2563   28.5400   46.7888 H   0  0  0  0  0  0  0  0  0  0  0  0
   59.6906   27.6779   47.5052 H   0  0  0  0  0  0  0  0  0  0  0  0
   58.3899   29.3401   49.0036 H   0  0  0  0  0  0  0  0  0  0  0  0
   60.2153   29.4398   48.9188 H   0  0  0  0  0  0  0  0  0  0  0  0
   58.2070   31.3290   47.8980 H   0  0  0  0  0  0  0  0  0  0  0  0
   59.5780   31.1510   47.0670 H   0  0  0  0  0  0  0  0  0  0  0  0
   57.4515   31.2525   49.8667 H   0  0  0  0  0  0  0  0  0  0  0  0
   56.4269   32.0260   51.9883 H   0  0  0  0  0  0  0  0  0  0  0  0
   57.6958   33.5125   53.5215 H   0  0  0  0  0  0  0  0  0  0  0  0
   60.0289   34.1576   52.9838 H   0  0  0  0  0  0  0  0  0  0  0  0
   61.8636   33.5830   52.9142 H   0  0  0  0  0  0  0  0  0  0  0  0
   63.3009   33.3805   51.8560 H   0  0  0  0  0  0  0  0  0  0  0  0
   62.3972   34.9329   51.8560 H   0  0  0  0  0  0  0  0  0  0  0  0
   63.7293   34.3529   49.9256 H   0  0  0  0  0  0  0  0  0  0  0  0
   64.7371   33.8872   47.7096 H   0  0  0  0  0  0  0  0  0  0  0  0
   63.5625   32.4146   46.0889 H   0  0  0  0  0  0  0  0  0  0  0  0
   61.3465   31.4577   46.6478 H   0  0  0  0  0  0  0  0  0  0  0  0
  1  2  1  0
  2  3  1  0
  3  4  1  0
  4  5  1  0
  5  6  1  0
  6  7  1  0
  7  8  1  0
  8  9  1  0
  9 10  1  0
 10 11  1  0
 11 12  1  0
 12 13  1  0
 13 14  2  0
 14 15  1  0
 15 16  2  0
 16 17  1  0
 17 18  2  0
 18 19  1  0
 19 20  2  0
 20 21  1  0
 20 22  1  0
 22 23  2  0
 23 24  1  0
 24 25  2  0
 25 26  1  0
 26 27  2  0
 27 13  1  0
 19 14  1  0
 27 22  1  0
  1 28  1  0
  1 29  1  0
  1 30  1  0
  2 31  1  0
  2 32  1  0
  3 33  1  0
  3 34  1  0
  5 35  1  0
  5 36  1  0
  6 37  1  0
  6 38  1  0
  7 39  1  0
  7 40  1  0
  8 41  1  0
  9 42  1  0
  9 43  1  0
 10 44  1  0
 10 45  1  0
 11 46  1  0
 11 47  1  0
 12 48  1  0
 12 49  1  0
 15 50  1  0
 16 51  1  0
 17 52  1  0
 18 53  1  0
 21 54  1  0
 21 55  1  0
 21 56  1  0
 23 57  1  0
 24 58  1  0
 25 59  1  0
 26 60  1  0
M  CHG  2  12   1  20   1
M  END
>  <UniqueID>  (14) 
14

>  <SMILES>  (14) 
CCCOCCCNCCC[NH2+]c1c2ccccc2[n+](C)c2ccccc12

>  <Energy>  (14) 
81.61257351686127

>  <Genealogy>  (14) 
CCCOCCCNCCC[NH2+]c1c2ccccc2[n+](C)c2ccccc12 (protonated)
CCCOCCCNCCC[NH2+]c1c2ccccc2[n+](C)c2ccccc12 (3D coordinates assigned)
CCCOCCCNCCC[NH2+]c1c2ccccc2[n+](C)c2ccccc12 (optimized conformer: 81.61257351686127 kcal/mol)

>  <smiles>  (14) 
CCCOCCCNCCCNc1c2ccccc2[n+](C)c2ccccc12

>  <score_type>  (14) 
oracle

>  <origin>  (14) 
adg

>  <m_score__min__energy>  (14) 
-3.8399999999999999

>  <m_primary>  (14) 
energy

$$$$
14:0
     RDKit          3D

 37 38  0  0  0  0  0  0  0  0999 V2000
   63.3880   32.0690   48.1800 C   0  0  0  0  0  0  0  0  0  0  0  0
   62.5470   33.1630   47.6630 N   0  0  0  0  0  0  0  0  0  0  0  0
   63.1620   33.7260   46.4500 C   0  0  0  0  0  0  0  0  0  0  0  0
   62.3520   34.2150   48.6850 C   0  0  0  0  0  0  0  0  0  0  0  0
   61.3300   33.7760   49.7480 C   0  0  0  0  0  0  0  0  0  0  0  0
   59.8760   33.8790   49.2650 C   0  0  0  0  0  0  0  0  0  0  0  0
   59.7240   34.7470   47.6610 S   0  0  0  0  0  0  0  0  0  0  0  0
   59.3490   33.2650   46.7150 C   0  0  0  0  0  0  0  0  0  0  0  0
   60.0430   32.1220   46.8190 N   0  0  0  0  0  0  0  0  0  0  0  0
   59.5100   31.2410   45.9900 N   0  0  0  0  0  0  0  0  0  0  0  0
   58.4800   31.8650   45.3770 C   0  0  0  0  0  0  0  0  0  0  0  0
   57.6260   31.1830   44.3800 C   0  0  0  0  0  0  0  0  0  0  0  0
   57.5180   31.5530   43.0430 C   0  0  0  0  0  0  0  0  0  0  0  0
   56.6560   30.7370   42.3010 C   0  0  0  0  0  0  0  0  0  0  0  0
   56.0790   29.7160   43.0430 C   0  0  0  0  0  0  0  0  0  0  0  0
   56.6440   29.8350   44.6200 S   0  0  0  0  0  0  0  0  0  0  0  0
   58.3570   33.1460   45.8080 N   0  0  0  0  0  0  0  0  0  0  0  0
   57.3850   34.1650   45.4130 C   0  0  0  0  0  0  0  0  0  0  0  0
   63.3755   32.0853   49.2798 H   0  0  0  0  0  0  0  0  0  0  0  0
   62.9961   31.1052   47.8231 H   0  0  0  0  0  0  0  0  0  0  0  0
   64.4202   32.1999   47.8231 H   0  0  0  0  0  0  0  0  0  0  0  0
   63.9456   34.4433   46.7353 H   0  0  0  0  0  0  0  0  0  0  0  0
   63.6065   32.9152   45.8541 H   0  0  0  0  0  0  0  0  0  0  0  0
   62.3935   34.2402   45.8541 H   0  0  0  0  0  0  0  0  0  0  0  0
   63.3145   34.4208   49.1762 H   0  0  0  0  0  0  0  0  0  0  0  0
   61.9698   35.1180   48.1866 H   0  0  0  0  0  0  0  0  0  0  0  0
   61.5352   32.7301   50.0200 H   0  0  0  0  0  0  0  0  0  0  0  0
   61.4389   34.4542   50.6072 H   0  0  0  0  0  0  0  0  0  0  0  0
   59.4689   32.8630   49.1552 H   0  0  0  0  0  0  0  0  0  0  0  0
   59.3183   34.4623   50.0124 H   0  0  0  0  0  0  0  0  0  0  0  0
   60.8670   31.9390   47.4330 H   0  0  0  0  0  0  0  0  0  0  0  0
   58.0594   32.4069   42.6096 H   0  0  0  0  0  0  0  0  0  0  0  0
   56.4549   30.8906   41.2305 H   0  0  0  0  0  0  0  0  0  0  0  0
   55.3746   28.9607   42.6643 H   0  0  0  0  0  0  0  0  0  0  0  0
   56.9480   34.6231   46.3125 H   0  0  0  0  0  0  0  0  0  0  0  0
   57.8879   34.9390   44.8147 H   0  0  0  0  0  0  0  0  0  0  0  0
   56.5881   33.6992   44.8147 H   0  0  0  0  0  0  0  0  0  0  0  0
  1  2  1  0
  2  3  1  0
  2  4  1  0
  4  5  1  0
  5  6  1  0
  6  7  1  0
  7  8  1  0
  8  9  2  0
  9 10  1  0
 10 11  2  0
 11 12  1  0
 12 13  2  0
 13 14  1  0
 14 15  2  0
 15 16  1  0
 11 17  1  0
 17 18  1  0
 17  8  1  0
 16 12  1  0
  1 19  1  0
  1 20  1  0
  1 21  1  0
  3 22  1  0
  3 23  1  0
  3 24  1  0
  4 25  1  0
  4 26  1  0
  5 27  1  0
  5 28  1  0
  6 29  1  0
  6 30  1  0
  9 31  1  0
 13 32  1  0
 14 33  1  0
 15 34  1  0
 18 35  1  0
 18 36  1  0
 18 37  1  0
M  CHG  1   9   1
M  END
>  <UniqueID>  (15) 
15

>  <SMILES>  (15) 
CN(C)CCCSc1[nH+]nc(-c2cccs2)n1C

>  <Energy>  (15) 
93.46373234070062

>  <Genealogy>  (15) 
CN(C)CCCSc1[nH+]nc(-c2cccs2)n1C (protonated)
CN(C)CCCSc1[nH+]nc(-c2cccs2)n1C (3D coordinates assigned)
CN(C)CCCSc1[nH+]nc(-c2cccs2)n1C (optimized conformer: 93.46373234070062 kcal/mol)

>  <smiles>  (15) 
CN(C)CCCSc1nnc(-c2cccs2)n1C

>  <score_type>  (15) 
oracle

>  <origin>  (15) 
adg

>  <m_score__min__energy>  (15) 
-5.2199999999999998

>  <m_primary>  (15) 
energy

$$$$
15:0
     RDKit          3D

 55 58  0  0  0  0  0  0  0  0999 V2000
   58.6190   27.8790   44.2400 C   0  0  0  0  0  0  0  0  0  0  0  0
   57.4120   27.8940   45.1630 C   0  0  0  0  0  0  0  0  0  0  0  0
   56.8200   29.1910   45.2000 O   0  0  0  0  0  0  0  0  0  0  0  0
   57.2060   30.2860   44.4120 C   0  0  0  0  0  0  0  0  0  0  0  0
   56.8710   30.3710   43.0360 C   0  0  0  0  0  0  0  0  0  0  0  0
   57.1560   31.5310   42.2900 C   0  0  0  0  0  0  0  0  0  0  0  0
   57.7670   32.6330   42.8980 C   0  0  0  0  0  0  0  0  0  0  0  0
   58.1160   32.5260   44.2420 C   0  0  0  0  0  0  0  0  0  0  0  0
   58.6910   33.4420   45.0870 C   0  0  0  0  0  0  0  0  0  0  0  0
   59.1060   34.7590   44.8700 C   0  0  0  0  0  0  0  0  0  0  0  0
   59.6560   35.4560   45.9570 C   0  0  0  0  0  0  0  0  0  0  0  0
   59.7760   34.8320   47.2210 C   0  0  0  0  0  0  0  0  0  0  0  0
   59.3500   33.5030   47.4080 C   0  0  0  0  0  0  0  0  0  0  0  0
   58.8120   32.8200   46.3110 C   0  0  0  0  0  0  0  0  0  0  0  0
   58.3480   31.5420   46.2650 N   0  0  0  0  0  0  0  0  0  0  0  0
   58.5070   30.5370   47.3330 C   0  0  0  0  0  0  0  0  0  0  0  0
   59.7480   29.6500   47.1090 C   0  0  0  0  0  0  0  0  0  0  0  0
   61.0840   30.4170   47.0410 C   0  0  0  0  0  0  0  0  0  0  0  0
   61.4030   31.2000   48.3370 C   0  0  0  0  0  0  0  0  0  0  0  0
   62.8640   31.5020   48.4240 N   0  0  0  0  0  0  0  0  0  0  0  0
   63.1830   32.4390   49.5480 C   0  0  0  0  0  0  0  0  0  0  0  0
   63.5870   33.8390   49.0480 C   0  0  0  0  0  0  0  0  0  0  0  0
   62.7370   34.2240   47.9910 O   0  0  0  0  0  0  0  0  0  0  0  0
   62.9890   33.4420   46.8280 C   0  0  0  0  0  0  0  0  0  0  0  0
   63.4000   31.9810   47.1280 C   0  0  0  0  0  0  0  0  0  0  0  0
   57.8920   31.3780   44.9850 C   0  0  0  0  0  0  0  0  0  0  0  0
   59.5401   27.8676   44.8411 H   0  0  0  0  0  0  0  0  0  0  0  0
   58.5841   26.9812   43.6054 H   0  0  0  0  0  0  0  0  0  0  0  0
   58.6065   28.7774   43.6054 H   0  0  0  0  0  0  0  0  0  0  0  0
   56.6697   27.1688   44.7981 H   0  0  0  0  0  0  0  0  0  0  0  0
   57.7406   27.6268   46.1782 H   0  0  0  0  0  0  0  0  0  0  0  0
   56.3811   29.5177   42.5442 H   0  0  0  0  0  0  0  0  0  0  0  0
   56.8964   31.5709   41.2218 H   0  0  0  0  0  0  0  0  0  0  0  0
   57.9655   33.5552   42.3321 H   0  0  0  0  0  0  0  0  0  0  0  0
   59.0051   35.2324   43.8822 H   0  0  0  0  0  0  0  0  0  0  0  0
   59.9958   36.4939   45.8253 H   0  0  0  0  0  0  0  0  0  0  0  0
   60.2061   35.3903   48.0656 H   0  0  0  0  0  0  0  0  0  0  0  0
   59.4376   33.0146   48.3898 H   0  0  0  0  0  0  0  0  0  0  0  0
   58.6106   31.0563   48.2972 H   0  0  0  0  0  0  0  0  0  0  0  0
   57.6188   29.8881   47.3249 H   0  0  0  0  0  0  0  0  0  0  0  0
   59.8083   28.9294   47.9379 H   0  0  0  0  0  0  0  0  0  0  0  0
   59.6145   29.1707   46.1280 H   0  0  0  0  0  0  0  0  0  0  0  0
   61.8934   29.6943   46.8608 H   0  0  0  0  0  0  0  0  0  0  0  0
   60.9983   31.1521   46.2272 H   0  0  0  0  0  0  0  0  0  0  0  0
   60.8383   32.1440   48.3371 H   0  0  0  0  0  0  0  0  0  0  0  0
   61.1164   30.5845   49.2024 H   0  0  0  0  0  0  0  0  0  0  0  0
   63.3730   30.6020   48.6150 H   0  0  0  0  0  0  0  0  0  0  0  0
   62.2952   32.5357   50.1902 H   0  0  0  0  0  0  0  0  0  0  0  0
   64.0368   32.0209   50.1014 H   0  0  0  0  0  0  0  0  0  0  0  0
   63.4982   34.5623   49.8719 H   0  0  0  0  0  0  0  0  0  0  0  0
   64.6274   33.8150   48.6917 H   0  0  0  0  0  0  0  0  0  0  0  0
   62.0740   33.4254   46.2176 H   0  0  0  0  0  0  0  0  0  0  0  0
   63.8374   33.9104   46.3076 H   0  0  0  0  0  0  0  0  0  0  0  0
   63.0168   31.3336   46.3255 H   0  0  0  0  0  0  0  0  0  0  0  0
   64.4980   31.9443   47.1831 H   0  0  0  0  0  0  0  0  0  0  0  0
  1  2  1  0
  2  3  1  0
  3  4  1  0
  4  5  2  0
  5  6  1  0
  6  7  2  0
  7  8  1  0
  8  9  1  0
  9 10  2  0
 10 11  1  0
 11 12  2  0
 12 13  1  0
 13 14  2  0
 14 15  1  0
 15 16  1  0
 16 17  1  0
 17 18  1  0
 18 19  1  0
 19 20  1  0
 20 21  1  0
 21 22  1  0
 22 23  1  0
 23 24  1  0
 24 25  1  0
 15 26  1  0
 26  4  1  0
 26  8  2  0
 14  9  1  0
 25 20  1  0
  1 27  1  0
  1 28  1  0
  1 29  1  0
  2 30  1  0
  2 31  1  0
  5 32  1  0
  6 33  1  0
  7 34  1  0
 10 35  1  0
 11 36  1  0
 12 37  1  0
 13 38  1  0
 16 39  1  0
 16 40  1  0
 17 41  1  0
 17 42  1  0
 18 43  1  0
 18 44  1  0
 19 45  1  0
 19 46  1  0
 20 47  1  0
 21 48  1  0
 21 49  1  0
 22 50  1  0
 22 51  1  0
 24 52  1  0
 24 53  1  0
 25 54  1  0
 25 55  1  0
M  CHG  1  20   1
M  END
>  <UniqueID>  (16) 
16

>  <SMILES>  (16) 
CCOc1cccc2c3ccccc3n(CCCC[NH+]3CCOCC3)c12

>  <Energy>  (16) 
109.84652351253126

>  <Genealogy>  (16) 
CCOc1cccc2c3ccccc3n(CCCC[NH+]3CCOCC3)c12 (protonated)
CCOc1cccc2c3ccccc3n(CCCC[NH+]3CCOCC3)c12 (3D coordinates assigned)
CCOc1cccc2c3ccccc3n(CCCC[NH+]3CCOCC3)c12 (nonaromatic ring conformer: 109.84652351253126 kcal/mol)

>  <smiles>  (16) 
CCOc1cccc2c3ccccc3n(CCCCN3CCOCC3)c12

>  <score_type>  (16) 
oracle

>  <origin>  (16) 
adg

>  <m_score__min__energy>  (16) 
-6.8600000000000003

>  <m_primary>  (16) 
energy

$$$$
