0:0
     RDKit          3D

 44 45  0  0  0  0  0  0  0  0999 V2000
   59.0080   30.4400   48.0540 C   0  0  0  0  0  0  0  0  0  0  0  0
   59.5620   31.3600   46.9690 C   0  0  0  0  0  0  0  0  0  0  0  0
   58.5860   32.4190   46.6240 N   0  0  0  0  0  0  0  0  0  0  0  0
   58.4910   33.4320   47.7020 C   0  0  0  0  0  0  0  0  0  0  0  0
   59.2790   34.6920   47.3400 C   0  0  0  0  0  0  0  0  0  0  0  0
   58.8890   33.0400   45.3070 C   0  0  0  0  0  0  0  0  0  0  0  0
   57.7530   32.7690   44.3070 C   0  0  0  0  0  0  0  0  0  0  0  0
   56.6410   31.9990   44.8950 N   0  0  0  0  0  0  0  0  0  0  0  0
   56.2690   30.8530   44.0560 C   0  0  0  0  0  0  0  0  0  0  0  0
   56.7250   29.5810   44.6960 C   0  0  0  0  0  0  0  0  0  0  0  0
   58.0450   29.2510   44.9900 C   0  0  0  0  0  0  0  0  0  0  0  0
   57.9640   27.9870   45.5280 C   0  0  0  0  0  0  0  0  0  0  0  0
   58.9560   27.1370   46.0090 C   0  0  0  0  0  0  0  0  0  0  0  0
   58.5600   25.8820   46.5020 C   0  0  0  0  0  0  0  0  0  0  0  0
   57.1970   25.5080   46.5010 C   0  0  0  0  0  0  0  0  0  0  0  0
   56.2090   26.3940   46.0030 C   0  0  0  0  0  0  0  0  0  0  0  0
   54.8430   26.0840   45.9730 O   0  0  0  0  0  0  0  0  0  0  0  0
   54.3230   24.8050   45.6220 C   0  0  0  0  0  0  0  0  0  0  0  0
   56.6410   27.6300   45.5250 C   0  0  0  0  0  0  0  0  0  0  0  0
   55.9100   28.5930   45.0210 O   0  0  0  0  0  0  0  0  0  0  0  0
   59.2552   30.8505   49.0442 H   0  0  0  0  0  0  0  0  0  0  0  0
   57.9154   30.3666   47.9498 H   0  0  0  0  0  0  0  0  0  0  0  0
   59.4542   29.4400   47.9498 H   0  0  0  0  0  0  0  0  0  0  0  0
   60.4882   31.8287   47.3329 H   0  0  0  0  0  0  0  0  0  0  0  0
   59.7623   30.7604   46.0688 H   0  0  0  0  0  0  0  0  0  0  0  0
   57.4346   33.6991   47.8528 H   0  0  0  0  0  0  0  0  0  0  0  0
   58.9154   33.0053   48.6228 H   0  0  0  0  0  0  0  0  0  0  0  0
   59.5980   35.2021   48.2609 H   0  0  0  0  0  0  0  0  0  0  0  0
   60.1643   34.4138   46.7494 H   0  0  0  0  0  0  0  0  0  0  0  0
   58.6413   35.3662   46.7494 H   0  0  0  0  0  0  0  0  0  0  0  0
   59.0044   34.1261   45.4374 H   0  0  0  0  0  0  0  0  0  0  0  0
   59.8190   32.6030   44.9143 H   0  0  0  0  0  0  0  0  0  0  0  0
   57.3620   33.7334   43.9505 H   0  0  0  0  0  0  0  0  0  0  0  0
   58.1724   32.1682   43.4865 H   0  0  0  0  0  0  0  0  0  0  0  0
   56.8940   31.6650   45.8550 H   0  0  0  0  0  0  0  0  0  0  0  0
   55.1758   30.8289   43.9362 H   0  0  0  0  0  0  0  0  0  0  0  0
   56.7501   30.9547   43.0720 H   0  0  0  0  0  0  0  0  0  0  0  0
   58.9462   29.8608   44.8291 H   0  0  0  0  0  0  0  0  0  0  0  0
   60.0141   27.4376   46.0034 H   0  0  0  0  0  0  0  0  0  0  0  0
   59.3168   25.1853   46.8917 H   0  0  0  0  0  0  0  0  0  0  0  0
   56.9009   24.5224   46.8894 H   0  0  0  0  0  0  0  0  0  0  0  0
   54.0929   24.2391   46.5368 H   0  0  0  0  0  0  0  0  0  0  0  0
   53.4053   24.9324   45.0291 H   0  0  0  0  0  0  0  0  0  0  0  0
   55.0693   24.2559   45.0291 H   0  0  0  0  0  0  0  0  0  0  0  0
  1  2  1  0
  2  3  1  0
  3  4  1  0
  4  5  1  0
  3  6  1  0
  6  7  1  0
  7  8  1  0
  8  9  1  0
  9 10  1  0
 10 11  2  0
 11 12  1  0
 12 13  2  0
 13 14  1  0
 14 15  2  0
 15 16  1  0
 16 17  1  0
 17 18  1  0
 16 19  2  0
 19 20  1  0
 20 10  1  0
 19 12  1  0
  1 21  1  0
  1 22  1  0
  1 23  1  0
  2 24  1  0
  2 25  1  0
  4 26  1  0
  4 27  1  0
  5 28  1  0
  5 29  1  0
  5 30  1  0
  6 31  1  0
  6 32  1  0
  7 33  1  0
  7 34  1  0
  8 35  1  0
  9 36  1  0
  9 37  1  0
 11 38  1  0
 13 39  1  0
 14 40  1  0
 15 41  1  0
 18 42  1  0
 18 43  1  0
 18 44  1  0
M  END
>  <UniqueID>  (1) 
1

>  <SMILES>  (1) 
CCN(CC)CCNCc1cc2cccc(OC)c2o1

>  <Energy>  (1) 
74.32839715650194

>  <Genealogy>  (1) 
CCN(CC)CCNCc1cc2cccc(OC)c2o1 (3D coordinates assigned)
CCN(CC)CCNCc1cc2cccc(OC)c2o1 (optimized conformer: 74.32839715650194 kcal/mol)

>  <smiles>  (1) 
CCN(CC)CCNCc1cc2cccc(OC)c2o1

>  <score_type>  (1) 
oracle

>  <origin>  (1) 
adg

>  <m_score__min__energy>  (1) 
-6.96

>  <m_primary>  (1) 
energy

$$$$
1:0
     RDKit          3D

 60 61  0  0  0  0  0  0  0  0999 V2000
   56.3230   29.4410   42.6940 C   0  0  0  0  0  0  0  0  0  0  0  0
   55.8880   29.7160   44.1280 C   0  0  0  0  0  0  0  0  0  0  0  0
   56.3860   30.9640   44.5680 O   0  0  0  0  0  0  0  0  0  0  0  0
   57.7680   31.0850   44.2860 C   0  0  0  0  0  0  0  0  0  0  0  0
   57.9660   32.1610   43.2210 C   0  0  0  0  0  0  0  0  0  0  0  0
   58.2270   33.4030   43.8450 O   0  0  0  0  0  0  0  0  0  0  0  0
   57.5960   33.4420   45.1100 C   0  0  0  0  0  0  0  0  0  0  0  0
   58.1740   34.5910   45.9410 C   0  0  0  0  0  0  0  0  0  0  0  0
   59.6540   34.3540   46.3120 C   0  0  0  0  0  0  0  0  0  0  0  0
   59.8520   33.1550   47.2540 C   0  0  0  0  0  0  0  0  0  0  0  0
   61.3010   33.0380   47.7920 C   0  0  2  0  0  0  0  0  0  0  0  0
   62.2940   33.8260   46.9050 C   0  0  0  0  0  0  0  0  0  0  0  0
   63.7620   33.5000   47.2350 C   0  0  0  0  0  0  0  0  0  0  0  0
   63.9120   32.8630   48.6200 C   0  0  0  0  0  0  0  0  0  0  0  0
   63.0480   31.5870   48.7580 C   0  0  0  0  0  0  0  0  0  0  0  0
   61.7540   31.6370   48.0170 N   0  0  0  0  0  0  0  0  0  0  0  0
   61.7760   30.7910   46.7970 C   0  0  0  0  0  0  0  0  0  0  0  0
   60.5530   29.9040   46.7190 C   0  0  0  0  0  0  0  0  0  0  0  0
   59.6560   29.8240   47.7980 C   0  0  0  0  0  0  0  0  0  0  0  0
   58.5080   29.0310   47.7090 C   0  0  0  0  0  0  0  0  0  0  0  0
   58.2340   28.3100   46.5310 C   0  0  0  0  0  0  0  0  0  0  0  0
   57.0890   27.5120   46.3880 O   0  0  0  0  0  0  0  0  0  0  0  0
   57.0460   26.2910   45.6520 C   0  0  0  0  0  0  0  0  0  0  0  0
   59.1290   28.3880   45.4590 C   0  0  0  0  0  0  0  0  0  0  0  0
   60.2780   29.1780   45.5490 C   0  0  0  0  0  0  0  0  0  0  0  0
   57.2528   28.8532   42.6992 H   0  0  0  0  0  0  0  0  0  0  0  0
   55.5352   28.8765   42.1737 H   0  0  0  0  0  0  0  0  0  0  0  0
   56.4951   30.3948   42.1737 H   0  0  0  0  0  0  0  0  0  0  0  0
   54.7891   29.7277   44.1766 H   0  0  0  0  0  0  0  0  0  0  0  0
   56.2890   28.9247   44.7784 H   0  0  0  0  0  0  0  0  0  0  0  0
   58.3077   31.3687   45.2016 H   0  0  0  0  0  0  0  0  0  0  0  0
   58.1580   30.1238   43.9200 H   0  0  0  0  0  0  0  0  0  0  0  0
   58.8161   31.8882   42.5785 H   0  0  0  0  0  0  0  0  0  0  0  0
   57.0547   32.2430   42.6104 H   0  0  0  0  0  0  0  0  0  0  0  0
   56.5153   33.5964   44.9747 H   0  0  0  0  0  0  0  0  0  0  0  0
   57.7710   32.4905   45.6334 H   0  0  0  0  0  0  0  0  0  0  0  0
   58.0990   35.5217   45.3595 H   0  0  0  0  0  0  0  0  0  0  0  0
   57.5973   34.6559   46.8755 H   0  0  0  0  0  0  0  0  0  0  0  0
   60.2222   34.1715   45.3880 H   0  0  0  0  0  0  0  0  0  0  0  0
   60.0085   35.2507   46.8414 H   0  0  0  0  0  0  0  0  0  0  0  0
   59.1688   33.2649   48.1091 H   0  0  0  0  0  0  0  0  0  0  0  0
   59.6425   32.2440   46.6742 H   0  0  0  0  0  0  0  0  0  0  0  0
   61.2865   33.4997   48.7903 H   0  0  0  0  0  0  0  0  0  0  0  0
   62.1042   33.5729   45.8515 H   0  0  0  0  0  0  0  0  0  0  0  0
   62.1372   34.8978   47.0967 H   0  0  0  0  0  0  0  0  0  0  0  0
   64.1490   32.8009   46.4790 H   0  0  0  0  0  0  0  0  0  0  0  0
   64.3280   34.4432   47.2322 H   0  0  0  0  0  0  0  0  0  0  0  0
   64.9678   32.5978   48.7783 H   0  0  0  0  0  0  0  0  0  0  0  0
   63.5722   33.5909   49.3715 H   0  0  0  0  0  0  0  0  0  0  0  0
   63.6298   30.7345   48.3776 H   0  0  0  0  0  0  0  0  0  0  0  0
   62.7961   31.4917   49.8245 H   0  0  0  0  0  0  0  0  0  0  0  0
   61.8034   31.4417   45.9105 H   0  0  0  0  0  0  0  0  0  0  0  0
   62.6680   30.1485   46.8370 H   0  0  0  0  0  0  0  0  0  0  0  0
   59.8587   30.3896   48.7194 H   0  0  0  0  0  0  0  0  0  0  0  0
   57.8164   28.9701   48.5622 H   0  0  0  0  0  0  0  0  0  0  0  0
   57.0161   25.4423   46.3511 H   0  0  0  0  0  0  0  0  0  0  0  0
   56.1468   26.2761   45.0186 H   0  0  0  0  0  0  0  0  0  0  0  0
   57.9420   26.2129   45.0186 H   0  0  0  0  0  0  0  0  0  0  0  0
   58.9266   27.8227   44.5373 H   0  0  0  0  0  0  0  0  0  0  0  0
   60.9720   29.2316   44.6973 H   0  0  0  0  0  0  0  0  0  0  0  0
  1  2  1  0
  2  3  1  0
  3  4  1  0
  4  5  1  0
  5  6  1  0
  6  7  1  0
  7  8  1  0
  8  9  1  0
  9 10  1  0
 10 11  1  0
 11 12  1  0
 12 13  1  0
 13 14  1  0
 14 15  1  0
 15 16  1  0
 16 17  1  0
 17 18  1  0
 18 19  2  0
 19 20  1  0
 20 21  2  0
 21 22  1  0
 22 23  1  0
 21 24  1  0
 24 25  2  0
 16 11  1  0
 25 18  1  0
  1 26  1  0
  1 27  1  0
  1 28  1  0
  2 29  1  0
  2 30  1  0
  4 31  1  0
  4 32  1  0
  5 33  1  0
  5 34  1  0
  7 35  1  0
  7 36  1  0
  8 37  1  0
  8 38  1  0
  9 39  1  0
  9 40  1  0
 10 41  1  0
 10 42  1  0
 11 43  1  1
 12 44  1  0
 12 45  1  0
 13 46  1  0
 13 47  1  0
 14 48  1  0
 14 49  1  0
 15 50  1  0
 15 51  1  0
 17 52  1  0
 17 53  1  0
 19 54  1  0
 20 55  1  0
 23 56  1  0
 23 57  1  0
 23 58  1  0
 24 59  1  0
 25 60  1  0
M  END
>  <UniqueID>  (2) 
2

>  <SMILES>  (2) 
CCOCCOCCCC[C@@H]1CCCCN1Cc1ccc(OC)cc1

>  <Energy>  (2) 
61.01353707226148

>  <Genealogy>  (2) 
CCOCCOCCCC[C@@H]1CCCCN1Cc1ccc(OC)cc1 (chirality)
CCOCCOCCCC[C@@H]1CCCCN1Cc1ccc(OC)cc1 (3D coordinates assigned)
CCOCCOCCCC[C@@H]1CCCCN1Cc1ccc(OC)cc1 (nonaromatic ring conformer: 61.01353707226148 kcal/mol)

>  <smiles>  (2) 
CCOCCOCCCCC1CCCCN1Cc1ccc(OC)cc1

>  <score_type>  (2) 
oracle

>  <origin>  (2) 
adg

>  <m_score__min__energy>  (2) 
-7.5300000000000002

>  <m_primary>  (2) 
energy

$$$$
2:0
     RDKit          3D

 68 70  0  0  0  0  0  0  0  0999 V2000
   63.0870   32.8050   47.4730 C   0  0  0  0  0  0  0  0  0  0  0  0
   62.6990   31.5970   48.3350 C   0  0  0  0  0  0  0  0  0  0  0  0
   62.3100   31.9390   49.7250 N   0  0  0  0  0  0  0  0  0  0  0  0
   62.9080   31.0560   50.7550 C   0  0  0  0  0  0  0  0  0  0  0  0
   62.2270   29.6880   50.7800 C   0  0  0  0  0  0  0  0  0  0  0  0
   62.5190   33.3740   50.0300 C   0  0  0  0  0  0  0  0  0  0  0  0
   61.8150   33.7680   51.3370 C   0  0  0  0  0  0  0  0  0  0  0  0
   60.4110   33.8410   51.1650 O   0  0  0  0  0  0  0  0  0  0  0  0
   59.7070   33.7410   52.3920 C   0  0  0  0  0  0  0  0  0  0  0  0
   60.0420   32.4300   53.1220 C   0  0  0  0  0  0  0  0  0  0  0  0
   60.0070   31.3100   52.2580 O   0  0  0  0  0  0  0  0  0  0  0  0
   58.6780   30.9710   51.9240 C   0  0  0  0  0  0  0  0  0  0  0  0
   58.4990   31.1250   50.4110 C   0  0  0  0  0  0  0  0  0  0  0  0
   59.7200   31.6570   49.7870 N   0  0  0  0  0  0  0  0  0  0  0  0
   59.4140   32.2330   48.4990 C   0  0  0  0  0  0  0  0  0  0  0  0
   59.6600   33.5920   48.2490 C   0  0  0  0  0  0  0  0  0  0  0  0
   59.3070   34.1620   47.0260 C   0  0  0  0  0  0  0  0  0  0  0  0
   58.7300   33.3800   46.0220 C   0  0  0  0  0  0  0  0  0  0  0  0
   58.3450   33.9770   44.8510 N   0  0  0  0  0  0  0  0  0  0  0  0
   57.7660   33.2800   43.8370 C   0  0  0  0  0  0  0  0  0  0  0  0
   57.5920   31.9140   44.0000 C   0  0  0  0  0  0  0  0  0  0  0  0
   57.1020   30.9490   43.1600 C   0  0  0  0  0  0  0  0  0  0  0  0
   56.6380   31.1350   42.0040 O   0  0  0  0  0  0  0  0  0  0  0  0
   57.2090   29.7420   43.7450 N   0  0  0  0  0  0  0  0  0  0  0  0
   57.7540   29.9200   44.9460 N   0  0  0  0  0  0  0  0  0  0  0  0
   58.1160   28.7800   45.7860 C   0  0  0  0  0  0  0  0  0  0  0  0
   59.3570   28.0700   45.2370 C   0  0  0  0  0  0  0  0  0  0  0  0
   59.1950   27.8300   43.7980 N   0  0  0  0  0  0  0  0  0  0  0  0
   58.1730   26.8080   43.5640 C   0  0  0  0  0  0  0  0  0  0  0  0
   57.9810   31.2530   45.1390 C   0  0  0  0  0  0  0  0  0  0  0  0
   58.5350   31.9800   46.2260 C   0  0  0  0  0  0  0  0  0  0  0  0
   58.8560   31.4350   47.4850 C   0  0  0  0  0  0  0  0  0  0  0  0
   63.3580   33.6486   48.1248 H   0  0  0  0  0  0  0  0  0  0  0  0
   63.9458   32.5417   46.8380 H   0  0  0  0  0  0  0  0  0  0  0  0
   62.2355   33.0910   46.8380 H   0  0  0  0  0  0  0  0  0  0  0  0
   61.8496   31.0894   47.8545 H   0  0  0  0  0  0  0  0  0  0  0  0
   63.5931   30.9601   48.4056 H   0  0  0  0  0  0  0  0  0  0  0  0
   63.9767   30.9198   50.5330 H   0  0  0  0  0  0  0  0  0  0  0  0
   62.7709   31.5291   51.7386 H   0  0  0  0  0  0  0  0  0  0  0  0
   62.0712   29.3750   51.8229 H   0  0  0  0  0  0  0  0  0  0  0  0
   61.2558   29.7525   50.2675 H   0  0  0  0  0  0  0  0  0  0  0  0
   62.8639   28.9520   50.2675 H   0  0  0  0  0  0  0  0  0  0  0  0
   63.5973   33.5670   50.1301 H   0  0  0  0  0  0  0  0  0  0  0  0
   62.0946   33.9717   49.2098 H   0  0  0  0  0  0  0  0  0  0  0  0
   62.0428   33.0163   52.1071 H   0  0  0  0  0  0  0  0  0  0  0  0
   62.1790   34.7605   51.6412 H   0  0  0  0  0  0  0  0  0  0  0  0
   59.9839   34.5899   53.0344 H   0  0  0  0  0  0  0  0  0  0  0  0
   58.6285   33.7527   52.1759 H   0  0  0  0  0  0  0  0  0  0  0  0
   61.0507   32.5129   53.5529 H   0  0  0  0  0  0  0  0  0  0  0  0
   59.2828   32.2763   53.9030 H   0  0  0  0  0  0  0  0  0  0  0  0
   58.4765   29.9300   52.2168 H   0  0  0  0  0  0  0  0  0  0  0  0
   57.9772   31.6327   52.4542 H   0  0  0  0  0  0  0  0  0  0  0  0
   58.2708   30.1417   49.9739 H   0  0  0  0  0  0  0  0  0  0  0  0
   57.6751   31.8299   50.2256 H   0  0  0  0  0  0  0  0  0  0  0  0
   60.1370   32.3970   50.3980 H   0  0  0  0  0  0  0  0  0  0  0  0
   60.4230   30.8880   49.6860 H   0  0  0  0  0  0  0  0  0  0  0  0
   60.1348   34.2122   49.0235 H   0  0  0  0  0  0  0  0  0  0  0  0
   59.4839   35.2335   46.8508 H   0  0  0  0  0  0  0  0  0  0  0  0
   57.4449   33.7852   42.9141 H   0  0  0  0  0  0  0  0  0  0  0  0
   58.3259   29.1359   46.8054 H   0  0  0  0  0  0  0  0  0  0  0  0
   57.2776   28.0680   45.7931 H   0  0  0  0  0  0  0  0  0  0  0  0
   60.2428   28.7002   45.4049 H   0  0  0  0  0  0  0  0  0  0  0  0
   59.4842   27.1076   45.7543 H   0  0  0  0  0  0  0  0  0  0  0  0
   58.8590   28.7180   43.3550 H   0  0  0  0  0  0  0  0  0  0  0  0
   57.7999   26.4349   44.5292 H   0  0  0  0  0  0  0  0  0  0  0  0
   57.3406   27.2457   42.9935 H   0  0  0  0  0  0  0  0  0  0  0  0
   58.6107   25.9756   42.9935 H   0  0  0  0  0  0  0  0  0  0  0  0
   58.6671   30.3686   47.6775 H   0  0  0  0  0  0  0  0  0  0  0  0
  1  2  1  0
  2  3  1  0
  3  4  1  0
  4  5  1  0
  3  6  1  0
  6  7  1  0
  7  8  1  0
  8  9  1  0
  9 10  1  0
 10 11  1  0
 11 12  1  0
 12 13  1  0
 13 14  1  0
 14 15  1  0
 15 16  2  0
 16 17  1  0
 17 18  2  0
 18 19  1  0
 19 20  2  0
 20 21  1  0
 21 22  1  0
 22 23  2  0
 22 24  1  0
 24 25  1  0
 25 26  1  0
 26 27  1  0
 27 28  1  0
 28 29  1  0
 25 30  1  0
 30 31  1  0
 31 32  2  0
 32 15  1  0
 31 18  1  0
 30 21  2  0
  1 33  1  0
  1 34  1  0
  1 35  1  0
  2 36  1  0
  2 37  1  0
  4 38  1  0
  4 39  1  0
  5 40  1  0
  5 41  1  0
  5 42  1  0
  6 43  1  0
  6 44  1  0
  7 45  1  0
  7 46  1  0
  9 47  1  0
  9 48  1  0
 10 49  1  0
 10 50  1  0
 12 51  1  0
 12 52  1  0
 13 53  1  0
 13 54  1  0
 14 55  1  0
 14 56  1  0
 16 57  1  0
 17 58  1  0
 20 59  1  0
 26 60  1  0
 26 61  1  0
 27 62  1  0
 27 63  1  0
 28 64  1  0
 29 65  1  0
 29 66  1  0
 29 67  1  0
 32 68  1  0
M  CHG  2  14   1  24  -1
M  END
>  <UniqueID>  (3) 
3

>  <SMILES>  (3) 
CCN(CC)CCOCCOCC[NH2+]c1ccc2ncc3c(=O)[n-]n(CCNC)c3c2c1

>  <Energy>  (3) 
116.82354924151892

>  <Genealogy>  (3) 
CCN(CC)CCOCCOCC[NH2+]c1ccc2ncc3c(=O)[n-]n(CCNC)c3c2c1 (protonated)
CCN(CC)CCOCCOCC[NH2+]c1ccc2ncc3c(=O)[n-]n(CCNC)c3c2c1 (3D coordinates assigned)
CCN(CC)CCOCCOCC[NH2+]c1ccc2ncc3c(=O)[n-]n(CCNC)c3c2c1 (optimized conformer: 116.82354924151892 kcal/mol)

>  <smiles>  (3) 
CCN(CC)CCOCCOCCNc1ccc2ncc3c(=O)[nH]n(CCNC)c3c2c1

>  <score_type>  (3) 
oracle

>  <origin>  (3) 
adg

>  <m_score__min__energy>  (3) 
-5.6799999999999997

>  <m_primary>  (3) 
energy

$$$$
3:0
     RDKit          3D

 40 42  0  0  0  0  0  0  0  0999 V2000
   58.0430   22.3510   46.0430 O   0  0  0  0  0  0  0  0  0  0  0  0
   58.1470   23.5890   46.2530 C   0  0  0  0  0  0  0  0  0  0  0  0
   59.2660   24.3580   45.6170 C   0  0  0  0  0  0  0  0  0  0  0  0
   59.4900   25.7190   46.2940 C   0  0  0  0  0  0  0  0  0  0  0  0
   58.1670   26.4890   46.5730 C   0  0  0  0  0  0  0  0  0  0  0  0
   58.5020   27.8250   47.3130 C   0  0  0  0  0  0  0  0  0  0  0  0
   58.7640   28.9860   46.3480 C   0  0  0  0  0  0  0  0  0  0  0  0
   57.6090   29.1940   45.4620 N   0  0  0  0  0  0  0  0  0  0  0  0
   57.3160   30.5080   44.9530 C   0  0  0  0  0  0  0  0  0  0  0  0
   56.1200   30.8890   44.8590 O   0  0  0  0  0  0  0  0  0  0  0  0
   58.3630   31.4170   44.5930 N   0  0  0  0  0  0  0  0  0  0  0  0
   58.6920   32.6210   45.2970 C   0  0  0  0  0  0  0  0  0  0  0  0
   58.8970   33.8370   44.6200 C   0  0  0  0  0  0  0  0  0  0  0  0
   59.2020   34.9990   45.3360 C   0  0  0  0  0  0  0  0  0  0  0  0
   59.2840   34.9590   46.7310 C   0  0  0  0  0  0  0  0  0  0  0  0
   59.0570   33.7600   47.4110 C   0  0  0  0  0  0  0  0  0  0  0  0
   58.7540   32.5960   46.6960 C   0  0  0  0  0  0  0  0  0  0  0  0
   56.6570   28.0990   45.2330 C   0  0  0  0  0  0  0  0  0  0  0  0
   57.4000   26.7610   45.2330 C   0  0  0  0  0  0  0  0  0  0  0  0
   57.3020   25.6160   47.5190 C   0  0  0  0  0  0  0  0  0  0  0  0
   57.1340   24.2590   47.0060 N   0  0  0  0  0  0  0  0  0  0  0  0
   60.1907   23.7673   45.6936 H   0  0  0  0  0  0  0  0  0  0  0  0
   58.9961   24.5425   44.5667 H   0  0  0  0  0  0  0  0  0  0  0  0
   60.0065   25.5529   47.2509 H   0  0  0  0  0  0  0  0  0  0  0  0
   60.0870   26.3334   45.6040 H   0  0  0  0  0  0  0  0  0  0  0  0
   57.6537   28.0906   47.9610 H   0  0  0  0  0  0  0  0  0  0  0  0
   59.4219   27.6615   47.8936 H   0  0  0  0  0  0  0  0  0  0  0  0
   58.9451   29.9035   46.9272 H   0  0  0  0  0  0  0  0  0  0  0  0
   59.6434   28.7441   45.7330 H   0  0  0  0  0  0  0  0  0  0  0  0
   58.8171   33.8740   43.5235 H   0  0  0  0  0  0  0  0  0  0  0  0
   59.3774   35.9443   44.8016 H   0  0  0  0  0  0  0  0  0  0  0  0
   59.5275   35.8723   47.2936 H   0  0  0  0  0  0  0  0  0  0  0  0
   59.1165   33.7309   48.5090 H   0  0  0  0  0  0  0  0  0  0  0  0
   58.5635   31.6565   47.2354 H   0  0  0  0  0  0  0  0  0  0  0  0
   55.9018   28.0978   46.0328 H   0  0  0  0  0  0  0  0  0  0  0  0
   56.1644   28.2421   44.2599 H   0  0  0  0  0  0  0  0  0  0  0  0
   56.6693   25.9538   45.0768 H   0  0  0  0  0  0  0  0  0  0  0  0
   58.1473   26.7984   44.4267 H   0  0  0  0  0  0  0  0  0  0  0  0
   57.7910   25.5662   48.5031 H   0  0  0  0  0  0  0  0  0  0  0  0
   56.3065   26.0778   47.5937 H   0  0  0  0  0  0  0  0  0  0  0  0
  1  2  2  0
  2  3  1  0
  3  4  1  0
  4  5  1  0
  5  6  1  0
  6  7  1  0
  7  8  1  0
  8  9  1  0
  9 10  2  0
  9 11  1  0
 11 12  1  0
 12 13  2  0
 13 14  1  0
 14 15  2  0
 15 16  1  0
 16 17  2  0
  8 18  1  0
 18 19  1  0
  5 20  1  0
 20 21  1  0
 21  2  1  0
 19  5  1  0
 17 12  1  0
  3 22  1  0
  3 23  1  0
  4 24  1  0
  4 25  1  0
  6 26  1  0
  6 27  1  0
  7 28  1  0
  7 29  1  0
 13 30  1  0
 14 31  1  0
 15 32  1  0
 16 33  1  0
 17 34  1  0
 18 35  1  0
 18 36  1  0
 19 37  1  0
 19 38  1  0
 20 39  1  0
 20 40  1  0
M  CHG  2  11  -1  21  -1
M  END
>  <UniqueID>  (4) 
4

>  <SMILES>  (4) 
O=C1CCC2(CCN(C(=O)[N-]c3ccccc3)CC2)C[N-]1

>  <Energy>  (4) 
49.32088627266127

>  <Genealogy>  (4) 
O=C1CCC2(CCN(C(=O)[N-]c3ccccc3)CC2)C[N-]1 (protonated)
O=C1CCC2(CCN(C(=O)[N-]c3ccccc3)CC2)C[N-]1 (3D coordinates assigned)
O=C1CCC2(CCN(C(=O)[N-]c3ccccc3)CC2)C[N-]1 (nonaromatic ring conformer: 49.32088627266127 kcal/mol)

>  <smiles>  (4) 
O=C1CCC2(CCN(C(=O)Nc3ccccc3)CC2)CN1

>  <score_type>  (4) 
oracle

>  <origin>  (4) 
adg

>  <m_score__min__energy>  (4) 
-9.8900000000000006

>  <m_primary>  (4) 
energy

$$$$
4:0
     RDKit          3D

 44 46  0  0  0  0  0  0  0  0999 V2000
   62.9640   33.8710   46.4070 C   0  0  0  0  0  0  0  0  0  0  0  0
   63.4430   32.8080   47.3970 C   0  0  0  0  0  0  0  0  0  0  0  0
   64.2050   33.4080   48.5900 C   0  0  0  0  0  0  0  0  0  0  0  0
   63.6520   32.9500   49.8770 N   0  0  0  0  0  0  0  0  0  0  0  0
   62.7690   33.9610   50.4940 C   0  0  0  0  0  0  0  0  0  0  0  0
   61.3250   33.4640   50.6990 C   0  0  0  0  0  0  0  0  0  0  0  0
   60.8280   32.7650   49.5100 N   0  0  0  0  0  0  0  0  0  0  0  0
   60.9370   31.4340   49.2840 C   0  0  0  0  0  0  0  0  0  0  0  0
   60.3040   31.0890   48.0940 C   0  0  0  0  0  0  0  0  0  0  0  0
   60.2150   29.7280   47.5230 C   0  0  0  0  0  0  0  0  0  0  0  0
   60.3730   29.5350   46.1390 C   0  0  0  0  0  0  0  0  0  0  0  0
   60.2800   28.2520   45.5900 C   0  0  0  0  0  0  0  0  0  0  0  0
   60.0180   27.1540   46.4140 C   0  0  0  0  0  0  0  0  0  0  0  0
   59.9280   25.9120   45.8770 F   0  0  0  0  0  0  0  0  0  0  0  0
   59.8430   27.3390   47.7880 C   0  0  0  0  0  0  0  0  0  0  0  0
   59.5720   26.2760   48.5870 F   0  0  0  0  0  0  0  0  0  0  0  0
   59.9370   28.6200   48.3410 C   0  0  0  0  0  0  0  0  0  0  0  0
   59.7750   32.2690   47.5950 C   0  0  0  0  0  0  0  0  0  0  0  0
   58.9700   32.5190   46.4810 C   0  0  0  0  0  0  0  0  0  0  0  0
   58.5430   33.8400   46.2570 C   0  0  0  0  0  0  0  0  0  0  0  0
   57.5310   34.2050   44.8710 Cl  0  0  0  0  0  0  0  0  0  0  0  0
   58.9140   34.8700   47.1460 C   0  0  0  0  0  0  0  0  0  0  0  0
   59.7060   34.5890   48.2720 C   0  0  0  0  0  0  0  0  0  0  0  0
   60.1170   33.2690   48.4760 C   0  0  0  0  0  0  0  0  0  0  0  0
   62.5734   34.7378   46.9602 H   0  0  0  0  0  0  0  0  0  0  0  0
   63.8059   34.1888   45.7744 H   0  0  0  0  0  0  0  0  0  0  0  0
   62.1682   33.4508   45.7744 H   0  0  0  0  0  0  0  0  0  0  0  0
   62.5674   32.2617   47.7776 H   0  0  0  0  0  0  0  0  0  0  0  0
   64.1361   32.1431   46.8608 H   0  0  0  0  0  0  0  0  0  0  0  0
   65.2605   33.1047   48.5276 H   0  0  0  0  0  0  0  0  0  0  0  0
   64.1056   34.5026   48.5445 H   0  0  0  0  0  0  0  0  0  0  0  0
   63.0800   32.0920   49.7030 H   0  0  0  0  0  0  0  0  0  0  0  0
   64.4180   32.6910   50.5390 H   0  0  0  0  0  0  0  0  0  0  0  0
   63.1857   34.2374   51.4738 H   0  0  0  0  0  0  0  0  0  0  0  0
   62.7243   34.8183   49.8063 H   0  0  0  0  0  0  0  0  0  0  0  0
   61.3017   32.7746   51.5558 H   0  0  0  0  0  0  0  0  0  0  0  0
   60.6807   34.3362   50.8834 H   0  0  0  0  0  0  0  0  0  0  0  0
   61.4535   30.7253   49.9481 H   0  0  0  0  0  0  0  0  0  0  0  0
   60.5707   30.3972   45.4851 H   0  0  0  0  0  0  0  0  0  0  0  0
   60.4133   28.1069   44.5078 H   0  0  0  0  0  0  0  0  0  0  0  0
   59.7925   28.7609   49.4223 H   0  0  0  0  0  0  0  0  0  0  0  0
   58.6787   31.7065   45.7991 H   0  0  0  0  0  0  0  0  0  0  0  0
   58.5808   35.9011   46.9565 H   0  0  0  0  0  0  0  0  0  0  0  0
   59.9945   35.3858   48.9734 H   0  0  0  0  0  0  0  0  0  0  0  0
  1  2  1  0
  2  3  1  0
  3  4  1  0
  4  5  1  0
  5  6  1  0
  6  7  1  0
  7  8  1  0
  8  9  2  0
  9 10  1  0
 10 11  2  0
 11 12  1  0
 12 13  2  0
 13 14  1  0
 13 15  1  0
 15 16  1  0
 15 17  2  0
  9 18  1  0
 18 19  2  0
 19 20  1  0
 20 21  1  0
 20 22  2  0
 22 23  1  0
 23 24  2  0
 24  7  1  0
 17 10  1  0
 24 18  1  0
  1 25  1  0
  1 26  1  0
  1 27  1  0
  2 28  1  0
  2 29  1  0
  3 30  1  0
  3 31  1  0
  4 32  1  0
  4 33  1  0
  5 34  1  0
  5 35  1  0
  6 36  1  0
  6 37  1  0
  8 38  1  0
 11 39  1  0
 12 40  1  0
 17 41  1  0
 19 42  1  0
 22 43  1  0
 23 44  1  0
M  CHG  1   4   1
M  END
>  <UniqueID>  (5) 
5

>  <SMILES>  (5) 
CCC[NH2+]CCn1cc(-c2ccc(F)c(F)c2)c2cc(Cl)ccc21

>  <Energy>  (5) 
77.37718633365938

>  <Genealogy>  (5) 
CCC[NH2+]CCn1cc(-c2ccc(F)c(F)c2)c2cc(Cl)ccc21 (protonated)
CCC[NH2+]CCn1cc(-c2ccc(F)c(F)c2)c2cc(Cl)ccc21 (3D coordinates assigned)
CCC[NH2+]CCn1cc(-c2ccc(F)c(F)c2)c2cc(Cl)ccc21 (optimized conformer: 77.37718633365938 kcal/mol)

>  <smiles>  (5) 
CCCNCCn1cc(-c2ccc(F)c(F)c2)c2cc(Cl)ccc21

>  <score_type>  (5) 
oracle

>  <origin>  (5) 
adg

>  <m_score__min__energy>  (5) 
-5.4299999999999997

>  <m_primary>  (5) 
energy

$$$$
5:0
     RDKit          3D

 43 46  0  0  0  0  0  0  0  0999 V2000
   52.7930   24.0190   45.0460 C   0  0  0  0  0  0  0  0  0  0  0  0
   54.3090   23.8720   44.9900 C   0  0  0  0  0  0  0  0  0  0  0  0
   54.9040   24.5140   46.1130 O   0  0  0  0  0  0  0  0  0  0  0  0
   55.8780   25.5120   46.0020 C   0  0  0  0  0  0  0  0  0  0  0  0
   55.5430   26.7300   46.0120 O   0  0  0  0  0  0  0  0  0  0  0  0
   57.3310   25.1530   45.8080 C   0  0  1  0  0  0  0  0  0  0  0  0
   57.7800   25.1630   44.3340 C   0  0  0  0  0  0  0  0  0  0  0  0
   57.8210   26.5700   43.7010 C   0  0  0  0  0  0  0  0  0  0  0  0
   58.1250   27.6940   44.6680 C   0  0  0  0  0  0  0  0  0  0  0  0
   58.1930   29.0030   44.1690 C   0  0  0  0  0  0  0  0  0  0  0  0
   58.4080   30.0830   45.0280 C   0  0  0  0  0  0  0  0  0  0  0  0
   58.5620   29.8740   46.4100 C   0  0  0  0  0  0  0  0  0  0  0  0
   58.4970   28.5640   46.9100 C   0  0  0  0  0  0  0  0  0  0  0  0
   58.2650   27.4760   46.0550 C   0  0  0  0  0  0  0  0  0  0  0  0
   58.2340   26.0820   46.6280 C   0  0  0  0  0  0  0  0  0  0  0  0
   58.7770   30.9710   47.3300 N   0  0  0  0  0  0  0  0  0  0  0  0
   58.8400   32.2840   46.7250 C   0  0  0  0  0  0  0  0  0  0  0  0
   59.0540   33.4080   47.5400 C   0  0  0  0  0  0  0  0  0  0  0  0
   59.1130   34.6890   46.9830 C   0  0  0  0  0  0  0  0  0  0  0  0
   58.9590   34.8610   45.6070 C   0  0  0  0  0  0  0  0  0  0  0  0
   58.7450   33.7530   44.7840 C   0  0  0  0  0  0  0  0  0  0  0  0
   58.6840   32.4680   45.3360 C   0  0  0  0  0  0  0  0  0  0  0  0
   58.4680   31.3730   44.5060 O   0  0  0  0  0  0  0  0  0  0  0  0
   52.4662   24.0507   46.0959 H   0  0  0  0  0  0  0  0  0  0  0  0
   52.4960   24.9502   44.5413 H   0  0  0  0  0  0  0  0  0  0  0  0
   52.3226   23.1622   44.5413 H   0  0  0  0  0  0  0  0  0  0  0  0
   54.5717   22.8039   45.0000 H   0  0  0  0  0  0  0  0  0  0  0  0
   54.6826   24.3404   44.0675 H   0  0  0  0  0  0  0  0  0  0  0  0
   57.4314   24.1174   46.1651 H   0  0  0  0  0  0  0  0  0  0  0  0
   58.7887   24.7281   44.2765 H   0  0  0  0  0  0  0  0  0  0  0  0
   57.0358   24.5814   43.7702 H   0  0  0  0  0  0  0  0  0  0  0  0
   58.5962   26.5714   42.9206 H   0  0  0  0  0  0  0  0  0  0  0  0
   56.8108   26.7628   43.3108 H   0  0  0  0  0  0  0  0  0  0  0  0
   58.0758   29.1809   43.0898 H   0  0  0  0  0  0  0  0  0  0  0  0
   58.6299   28.3879   47.9876 H   0  0  0  0  0  0  0  0  0  0  0  0
   59.2558   25.6748   46.6310 H   0  0  0  0  0  0  0  0  0  0  0  0
   57.8302   26.1395   47.6496 H   0  0  0  0  0  0  0  0  0  0  0  0
   57.9940   30.9710   48.0250 H   0  0  0  0  0  0  0  0  0  0  0  0
   59.6760   30.8020   47.8390 H   0  0  0  0  0  0  0  0  0  0  0  0
   59.1762   33.2792   48.6256 H   0  0  0  0  0  0  0  0  0  0  0  0
   59.2810   35.5623   47.6304 H   0  0  0  0  0  0  0  0  0  0  0  0
   59.0061   35.8695   45.1702 H   0  0  0  0  0  0  0  0  0  0  0  0
   58.6241   33.8905   43.6993 H   0  0  0  0  0  0  0  0  0  0  0  0
  1  2  1  0
  2  3  1  0
  3  4  1  0
  4  5  2  0
  4  6  1  0
  6  7  1  0
  7  8  1  0
  8  9  1  0
  9 10  2  0
 10 11  1  0
 11 12  2  0
 12 13  1  0
 13 14  2  0
 14 15  1  0
 12 16  1  0
 16 17  1  0
 17 18  2  0
 18 19  1  0
 19 20  2  0
 20 21  1  0
 21 22  2  0
 22 23  1  0
 15  6  1  0
 22 17  1  0
 14  9  1  0
 23 11  1  0
  1 24  1  0
  1 25  1  0
  1 26  1  0
  2 27  1  0
  2 28  1  0
  6 29  1  1
  7 30  1  0
  7 31  1  0
  8 32  1  0
  8 33  1  0
 10 34  1  0
 13 35  1  0
 15 36  1  0
 15 37  1  0
 16 38  1  0
 16 39  1  0
 18 40  1  0
 19 41  1  0
 20 42  1  0
 21 43  1  0
M  CHG  1  16   1
M  END
>  <UniqueID>  (6) 
6

>  <SMILES>  (6) 
CCOC(=O)[C@H]1CCc2cc3c(cc2C1)[NH2+]c1ccccc1O3

>  <Energy>  (6) 
51.1259991022547

>  <Genealogy>  (6) 
CCOC(=O)C1CCc2cc3c(cc2C1)[NH2+]c1ccccc1O3 (protonated)
CCOC(=O)[C@H]1CCc2cc3c(cc2C1)[NH2+]c1ccccc1O3 (chirality)
CCOC(=O)[C@H]1CCc2cc3c(cc2C1)[NH2+]c1ccccc1O3 (3D coordinates assigned)
CCOC(=O)[C@H]1CCc2cc3c(cc2C1)[NH2+]c1ccccc1O3 (nonaromatic ring conformer: 51.1259991022547 kcal/mol)

>  <smiles>  (6) 
CCOC(=O)C1CCc2cc3c(cc2C1)Nc1ccccc1O3

>  <score_type>  (6) 
oracle

>  <origin>  (6) 
adg

>  <m_score__min__energy>  (6) 
-6.1799999999999997

>  <m_primary>  (6) 
energy

$$$$
6:0
     RDKit          3D

 33 34  0  0  0  0  0  0  0  0999 V2000
   56.2680   29.7640   43.0710 C   0  0  0  0  0  0  0  0  0  0  0  0
   56.9440   30.8260   43.8140 C   0  0  0  0  0  0  0  0  0  0  0  0
   57.5020   31.7020   44.4260 C   0  0  0  0  0  0  0  0  0  0  0  0
   58.1700   32.7480   45.1560 C   0  0  0  0  0  0  0  0  0  0  0  0
   58.5940   33.9060   44.4930 C   0  0  0  0  0  0  0  0  0  0  0  0
   59.2510   34.9170   45.2000 C   0  0  0  0  0  0  0  0  0  0  0  0
   59.4820   34.7770   46.5720 C   0  0  0  0  0  0  0  0  0  0  0  0
   59.0470   33.6270   47.2490 C   0  0  0  0  0  0  0  0  0  0  0  0
   59.3310   33.4590   48.7190 C   0  0  0  0  0  0  0  0  0  0  0  0
   60.1560   34.5730   49.2130 N   0  0  0  0  0  0  0  0  0  0  0  0
   61.4390   34.1060   49.7660 C   0  0  0  0  0  0  0  0  0  0  0  0
   62.2720   33.4060   48.7310 C   0  0  0  0  0  0  0  0  0  0  0  0
   63.1590   34.0120   47.8520 C   0  0  0  0  0  0  0  0  0  0  0  0
   63.7590   33.1100   46.9660 C   0  0  0  0  0  0  0  0  0  0  0  0
   63.3430   31.7960   47.1420 C   0  0  0  0  0  0  0  0  0  0  0  0
   62.2250   31.7580   48.3980 S   0  0  0  0  0  0  0  0  0  0  0  0
   58.4020   32.6050   46.5310 C   0  0  0  0  0  0  0  0  0  0  0  0
   55.8154   29.0529   43.7778 H   0  0  0  0  0  0  0  0  0  0  0  0
   55.4823   30.2022   42.4381 H   0  0  0  0  0  0  0  0  0  0  0  0
   56.9976   29.2377   42.4381 H   0  0  0  0  0  0  0  0  0  0  0  0
   58.4099   34.0203   43.4146 H   0  0  0  0  0  0  0  0  0  0  0  0
   59.5869   35.8242   44.6763 H   0  0  0  0  0  0  0  0  0  0  0  0
   60.0068   35.5714   47.1230 H   0  0  0  0  0  0  0  0  0  0  0  0
   58.3802   33.4392   49.2718 H   0  0  0  0  0  0  0  0  0  0  0  0
   59.8767   32.5161   48.8714 H   0  0  0  0  0  0  0  0  0  0  0  0
   60.3650   35.2190   48.4150 H   0  0  0  0  0  0  0  0  0  0  0  0
   59.6320   35.1120   49.9430 H   0  0  0  0  0  0  0  0  0  0  0  0
   61.9990   34.9729   50.1467 H   0  0  0  0  0  0  0  0  0  0  0  0
   61.2227   33.3893   50.5720 H   0  0  0  0  0  0  0  0  0  0  0  0
   63.3690   35.0918   47.8518 H   0  0  0  0  0  0  0  0  0  0  0  0
   64.4907   33.4127   46.2025 H   0  0  0  0  0  0  0  0  0  0  0  0
   63.6863   30.9285   46.5593 H   0  0  0  0  0  0  0  0  0  0  0  0
   58.0784   31.6905   47.0496 H   0  0  0  0  0  0  0  0  0  0  0  0
  1  2  1  0
  2  3  3  0
  3  4  1  0
  4  5  2  0
  5  6  1  0
  6  7  2  0
  7  8  1  0
  8  9  1  0
  9 10  1  0
 10 11  1  0
 11 12  1  0
 12 13  2  0
 13 14  1  0
 14 15  2  0
 15 16  1  0
  8 17  2  0
 17  4  1  0
 16 12  1  0
  1 18  1  0
  1 19  1  0
  1 20  1  0
  5 21  1  0
  6 22  1  0
  7 23  1  0
  9 24  1  0
  9 25  1  0
 10 26  1  0
 10 27  1  0
 11 28  1  0
 11 29  1  0
 13 30  1  0
 14 31  1  0
 15 32  1  0
 17 33  1  0
M  CHG  1  10   1
M  END
>  <UniqueID>  (7) 
7

>  <SMILES>  (7) 
CC#Cc1cccc(C[NH2+]Cc2cccs2)c1

>  <Energy>  (7) 
51.89982442868457

>  <Genealogy>  (7) 
CC#Cc1cccc(C[NH2+]Cc2cccs2)c1 (protonated)
CC#Cc1cccc(C[NH2+]Cc2cccs2)c1 (3D coordinates assigned)
CC#Cc1cccc(C[NH2+]Cc2cccs2)c1 (optimized conformer: 51.89982442868457 kcal/mol)

>  <smiles>  (7) 
CC#Cc1cccc(CNCc2cccs2)c1

>  <score_type>  (7) 
oracle

>  <origin>  (7) 
adg

>  <m_score__min__energy>  (7) 
-4.8300000000000001

>  <m_primary>  (7) 
energy

$$$$
7:0
     RDKit          3D

 38 40  0  0  0  0  0  0  0  0999 V2000
   55.8930   30.0930   43.7790 Cl  0  0  0  0  0  0  0  0  0  0  0  0
   57.2840   30.0200   44.8440 C   0  0  0  0  0  0  0  0  0  0  0  0
   57.9330   31.1980   45.2330 C   0  0  0  0  0  0  0  0  0  0  0  0
   59.0420   31.1390   46.0830 C   0  0  0  0  0  0  0  0  0  0  0  0
   59.5020   29.9020   46.5530 C   0  0  0  0  0  0  0  0  0  0  0  0
   60.9200   29.8290   47.6480 S   0  0  0  0  0  0  0  0  0  0  0  0
   60.1120   30.7800   48.9440 C   0  0  0  0  0  0  0  0  0  0  0  0
   58.9020   30.3060   49.4710 C   0  0  0  0  0  0  0  0  0  0  0  0
   58.2600   30.9980   50.5010 C   0  0  0  0  0  0  0  0  0  0  0  0
   58.8160   32.1760   51.0040 C   0  0  0  0  0  0  0  0  0  0  0  0
   57.9330   33.1250   52.4060 Br  0  0  0  0  0  0  0  0  0  0  0  0
   60.0110   32.6680   50.4720 C   0  0  0  0  0  0  0  0  0  0  0  0
   60.6680   31.9800   49.4370 C   0  0  0  0  0  0  0  0  0  0  0  0
   61.8640   32.5340   48.8610 N   0  0  0  0  0  0  0  0  0  0  0  0
   61.7510   33.4930   47.7580 C   0  0  0  0  0  0  0  0  0  0  0  0
   62.9140   33.3280   46.7560 C   0  0  0  0  0  0  0  0  0  0  0  0
   64.1460   32.7690   47.3520 N   0  0  0  0  0  0  0  0  0  0  0  0
   64.2770   33.0660   48.7850 C   0  0  0  0  0  0  0  0  0  0  0  0
   63.1400   32.4020   49.5730 C   0  0  0  0  0  0  0  0  0  0  0  0
   58.8610   28.7250   46.1510 C   0  0  0  0  0  0  0  0  0  0  0  0
   57.7520   28.7830   45.3010 C   0  0  0  0  0  0  0  0  0  0  0  0
   57.5703   32.1709   44.8697 H   0  0  0  0  0  0  0  0  0  0  0  0
   59.5539   32.0653   46.3830 H   0  0  0  0  0  0  0  0  0  0  0  0
   58.4556   29.3837   49.0710 H   0  0  0  0  0  0  0  0  0  0  0  0
   57.3161   30.6147   50.9159 H   0  0  0  0  0  0  0  0  0  0  0  0
   60.4408   33.6007   50.8661 H   0  0  0  0  0  0  0  0  0  0  0  0
   60.7986   33.3265   47.2334 H   0  0  0  0  0  0  0  0  0  0  0  0
   61.7906   34.5104   48.1744 H   0  0  0  0  0  0  0  0  0  0  0  0
   62.5837   32.6559   45.9502 H   0  0  0  0  0  0  0  0  0  0  0  0
   63.1653   34.3349   46.3912 H   0  0  0  0  0  0  0  0  0  0  0  0
   64.9760   33.1660   46.8520 H   0  0  0  0  0  0  0  0  0  0  0  0
   64.1630   31.7320   47.2130 H   0  0  0  0  0  0  0  0  0  0  0  0
   65.2421   32.6829   49.1482 H   0  0  0  0  0  0  0  0  0  0  0  0
   64.2247   34.1550   48.9308 H   0  0  0  0  0  0  0  0  0  0  0  0
   63.3695   31.3345   49.7062 H   0  0  0  0  0  0  0  0  0  0  0  0
   63.0511   32.9003   50.5497 H   0  0  0  0  0  0  0  0  0  0  0  0
   59.2305   27.7511   46.5046 H   0  0  0  0  0  0  0  0  0  0  0  0
   57.2474   27.8558   44.9915 H   0  0  0  0  0  0  0  0  0  0  0  0
  1  2  1  0
  2  3  2  0
  3  4  1  0
  4  5  2  0
  5  6  1  0
  6  7  1  0
  7  8  2  0
  8  9  1  0
  9 10  2  0
 10 11  1  0
 10 12  1  0
 12 13  2  0
 13 14  1  0
 14 15  1  0
 15 16  1  0
 16 17  1  0
 17 18  1  0
 18 19  1  0
  5 20  1  0
 20 21  2  0
 21  2  1  0
 13  7  1  0
 19 14  1  0
  3 22  1  0
  4 23  1  0
  8 24  1  0
  9 25  1  0
 12 26  1  0
 15 27  1  0
 15 28  1  0
 16 29  1  0
 16 30  1  0
 17 31  1  0
 17 32  1  0
 18 33  1  0
 18 34  1  0
 19 35  1  0
 19 36  1  0
 20 37  1  0
 21 38  1  0
M  CHG  1  17   1
M  END
>  <UniqueID>  (8) 
8

>  <SMILES>  (8) 
Clc1ccc(Sc2ccc(Br)cc2N2CC[NH2+]CC2)cc1

>  <Energy>  (8) 
43.05009223059705

>  <Genealogy>  (8) 
Clc1ccc(Sc2ccc(Br)cc2N2CC[NH2+]CC2)cc1 (protonated)
Clc1ccc(Sc2ccc(Br)cc2N2CC[NH2+]CC2)cc1 (3D coordinates assigned)
Clc1ccc(Sc2ccc(Br)cc2N2CC[NH2+]CC2)cc1 (nonaromatic ring conformer: 43.05009223059705 kcal/mol)

>  <smiles>  (8) 
Clc1ccc(Sc2ccc(Br)cc2N2CCNCC2)cc1

>  <score_type>  (8) 
oracle

>  <origin>  (8) 
adg

>  <m_score__min__energy>  (8) 
-5.9100000000000001

>  <m_primary>  (8) 
energy

$$$$
8:0
     RDKit          3D

 49 52  0  0  0  0  0  0  0  0999 V2000
   57.0120   34.2940   45.2420 C   0  0  0  0  0  0  0  0  0  0  0  0
   57.8580   33.4380   44.3080 C   0  0  0  0  0  0  0  0  0  0  0  0
   58.4370   32.2990   45.0300 N   0  0  0  0  0  0  0  0  0  0  0  0
   59.4020   32.2930   45.9970 C   0  0  0  0  0  0  0  0  0  0  0  0
   60.0980   33.5280   46.5380 C   0  0  0  0  0  0  0  0  0  0  0  0
   61.2600   33.2460   47.4190 N   0  0  0  0  0  0  0  0  0  0  0  0
   62.5590   33.4690   46.7360 C   0  0  0  0  0  0  0  0  0  0  0  0
   63.7580   33.5680   47.7100 C   0  0  0  0  0  0  0  0  0  0  0  0
   63.4550   33.0010   49.0340 N   0  0  0  0  0  0  0  0  0  0  0  0
   64.5040   32.3800   49.8030 C   0  0  0  0  0  0  0  0  0  0  0  0
   64.2320   31.2610   50.6130 C   0  0  0  0  0  0  0  0  0  0  0  0
   65.2520   30.6590   51.3550 C   0  0  0  0  0  0  0  0  0  0  0  0
   66.5530   31.1660   51.2990 C   0  0  0  0  0  0  0  0  0  0  0  0
   67.8320   30.4090   52.2320 Cl  0  0  0  0  0  0  0  0  0  0  0  0
   66.8340   32.2780   50.4990 C   0  0  0  0  0  0  0  0  0  0  0  0
   65.8160   32.8820   49.7550 C   0  0  0  0  0  0  0  0  0  0  0  0
   62.1800   33.3150   49.6950 C   0  0  0  0  0  0  0  0  0  0  0  0
   61.1950   33.9560   48.7120 C   0  0  0  0  0  0  0  0  0  0  0  0
   59.7290   31.0400   46.4110 N   0  0  0  0  0  0  0  0  0  0  0  0
   58.9050   30.2520   45.7020 C   0  0  0  0  0  0  0  0  0  0  0  0
   58.8070   28.8630   45.7560 C   0  0  0  0  0  0  0  0  0  0  0  0
   57.8580   28.2400   44.9230 C   0  0  0  0  0  0  0  0  0  0  0  0
   57.0400   29.0140   44.0700 C   0  0  0  0  0  0  0  0  0  0  0  0
   57.1650   30.4150   44.0390 C   0  0  0  0  0  0  0  0  0  0  0  0
   58.1210   31.0010   44.8750 C   0  0  0  0  0  0  0  0  0  0  0  0
   57.2553   34.0478   46.2861 H   0  0  0  0  0  0  0  0  0  0  0  0
   57.2237   35.3575   45.0571 H   0  0  0  0  0  0  0  0  0  0  0  0
   55.9461   34.0948   45.0571 H   0  0  0  0  0  0  0  0  0  0  0  0
   57.2255   33.0631   43.4898 H   0  0  0  0  0  0  0  0  0  0  0  0
   58.6756   34.0548   43.9066 H   0  0  0  0  0  0  0  0  0  0  0  0
   60.4515   34.1246   45.6841 H   0  0  0  0  0  0  0  0  0  0  0  0
   59.3584   34.0572   47.1568 H   0  0  0  0  0  0  0  0  0  0  0  0
   61.2000   32.2190   47.6280 H   0  0  0  0  0  0  0  0  0  0  0  0
   62.7385   32.6310   46.0464 H   0  0  0  0  0  0  0  0  0  0  0  0
   62.4877   34.4327   46.2105 H   0  0  0  0  0  0  0  0  0  0  0  0
   64.6095   33.0216   47.2784 H   0  0  0  0  0  0  0  0  0  0  0  0
   63.9906   34.6343   47.8476 H   0  0  0  0  0  0  0  0  0  0  0  0
   63.2097   30.8578   50.6622 H   0  0  0  0  0  0  0  0  0  0  0  0
   65.0303   29.7844   51.9843 H   0  0  0  0  0  0  0  0  0  0  0  0
   67.8577   32.6782   50.4550 H   0  0  0  0  0  0  0  0  0  0  0  0
   66.0435   33.7564   49.1275 H   0  0  0  0  0  0  0  0  0  0  0  0
   61.7414   32.3867   50.0898 H   0  0  0  0  0  0  0  0  0  0  0  0
   62.3742   34.0269   50.5107 H   0  0  0  0  0  0  0  0  0  0  0  0
   60.1748   33.8872   49.1175 H   0  0  0  0  0  0  0  0  0  0  0  0
   61.4595   35.0134   48.5641 H   0  0  0  0  0  0  0  0  0  0  0  0
   59.4492   28.2733   46.4266 H   0  0  0  0  0  0  0  0  0  0  0  0
   57.7530   27.1451   44.9365 H   0  0  0  0  0  0  0  0  0  0  0  0
   56.2998   28.5176   43.4253 H   0  0  0  0  0  0  0  0  0  0  0  0
   56.5328   31.0283   43.3801 H   0  0  0  0  0  0  0  0  0  0  0  0
  1  2  1  0
  2  3  1  0
  3  4  1  0
  4  5  1  0
  5  6  1  0
  6  7  1  0
  7  8  1  0
  8  9  1  0
  9 10  1  0
 10 11  2  0
 11 12  1  0
 12 13  2  0
 13 14  1  0
 13 15  1  0
 15 16  2  0
  9 17  1  0
 17 18  1  0
  4 19  2  0
 19 20  1  0
 20 21  2  0
 21 22  1  0
 22 23  2  0
 23 24  1  0
 24 25  2  0
 25  3  1  0
 18  6  1  0
 25 20  1  0
 16 10  1  0
  1 26  1  0
  1 27  1  0
  1 28  1  0
  2 29  1  0
  2 30  1  0
  5 31  1  0
  5 32  1  0
  6 33  1  0
  7 34  1  0
  7 35  1  0
  8 36  1  0
  8 37  1  0
 11 38  1  0
 12 39  1  0
 15 40  1  0
 16 41  1  0
 17 42  1  0
 17 43  1  0
 18 44  1  0
 18 45  1  0
 21 46  1  0
 22 47  1  0
 23 48  1  0
 24 49  1  0
M  CHG  1   6   1
M  END
>  <UniqueID>  (9) 
9

>  <SMILES>  (9) 
CCn1c(C[NH+]2CCN(c3ccc(Cl)cc3)CC2)nc2ccccc21

>  <Energy>  (9) 
100.61426526387876

>  <Genealogy>  (9) 
CCn1c(C[NH+]2CCN(c3ccc(Cl)cc3)CC2)nc2ccccc21 (protonated)
CCn1c(C[NH+]2CCN(c3ccc(Cl)cc3)CC2)nc2ccccc21 (3D coordinates assigned)
CCn1c(C[NH+]2CCN(c3ccc(Cl)cc3)CC2)nc2ccccc21 (nonaromatic ring conformer: 100.61426526387876 kcal/mol)

>  <smiles>  (9) 
CCn1c(CN2CCN(c3ccc(Cl)cc3)CC2)nc2ccccc21

>  <score_type>  (9) 
oracle

>  <origin>  (9) 
adg

>  <m_score__min__energy>  (9) 
-5.7699999999999996

>  <m_primary>  (9) 
energy

$$$$
9:0
     RDKit          3D

 46 48  0  0  0  0  0  0  0  0999 V2000
   60.4690   30.8260   47.8910 C   0  0  0  0  0  0  0  0  0  0  0  0
   60.3800   30.6930   46.3730 C   0  0  0  0  0  0  0  0  0  0  0  0
   58.9980   30.3810   45.9350 N   0  0  0  0  0  0  0  0  0  0  0  0
   58.2390   31.3440   45.2870 C   0  0  0  0  0  0  0  0  0  0  0  0
   58.5830   32.8290   45.2760 C   0  0  0  0  0  0  0  0  0  0  0  0
   58.3700   33.4140   46.6130 N   0  0  0  0  0  0  0  0  0  0  0  0
   59.2370   34.5810   46.8560 C   0  0  0  0  0  0  0  0  0  0  0  0
   60.5820   34.1770   47.4130 C   0  0  0  0  0  0  0  0  0  0  0  0
   60.7930   34.1560   48.8000 C   0  0  0  0  0  0  0  0  0  0  0  0
   62.0440   33.8090   49.3190 C   0  0  0  0  0  0  0  0  0  0  0  0
   63.1050   33.4960   48.4560 C   0  0  0  0  0  0  0  0  0  0  0  0
   64.4360   33.0870   49.0120 C   0  0  0  0  0  0  0  0  0  0  0  0
   62.8920   33.5060   47.0690 C   0  0  0  0  0  0  0  0  0  0  0  0
   61.6410   33.8520   46.5510 C   0  0  0  0  0  0  0  0  0  0  0  0
   57.0310   30.9890   44.6730 C   0  0  0  0  0  0  0  0  0  0  0  0
   56.5510   29.6940   44.7530 C   0  0  0  0  0  0  0  0  0  0  0  0
   55.4680   29.4020   44.1730 O   0  0  0  0  0  0  0  0  0  0  0  0
   57.2520   28.7380   45.4960 C   0  0  0  0  0  0  0  0  0  0  0  0
   56.7470   27.4310   45.6410 C   0  0  0  0  0  0  0  0  0  0  0  0
   57.4200   26.4930   46.4190 C   0  0  0  0  0  0  0  0  0  0  0  0
   56.7740   24.8710   46.5980 Cl  0  0  0  0  0  0  0  0  0  0  0  0
   58.5960   26.8490   47.0730 C   0  0  0  0  0  0  0  0  0  0  0  0
   59.1190   28.1360   46.9360 C   0  0  0  0  0  0  0  0  0  0  0  0
   58.4770   29.1060   46.1200 C   0  0  0  0  0  0  0  0  0  0  0  0
   59.9168   30.0008   48.3644 H   0  0  0  0  0  0  0  0  0  0  0  0
   61.5236   30.7870   48.2013 H   0  0  0  0  0  0  0  0  0  0  0  0
   60.0307   31.7860   48.2013 H   0  0  0  0  0  0  0  0  0  0  0  0
   60.6957   31.6405   45.9120 H   0  0  0  0  0  0  0  0  0  0  0  0
   61.0360   29.8675   46.0598 H   0  0  0  0  0  0  0  0  0  0  0  0
   59.6373   32.9551   44.9886 H   0  0  0  0  0  0  0  0  0  0  0  0
   57.9313   33.3418   44.5533 H   0  0  0  0  0  0  0  0  0  0  0  0
   58.5890   32.6940   47.3420 H   0  0  0  0  0  0  0  0  0  0  0  0
   57.3690   33.6940   46.7280 H   0  0  0  0  0  0  0  0  0  0  0  0
   59.3909   35.1137   45.9060 H   0  0  0  0  0  0  0  0  0  0  0  0
   58.7411   35.2260   47.5963 H   0  0  0  0  0  0  0  0  0  0  0  0
   59.9699   34.4139   49.4826 H   0  0  0  0  0  0  0  0  0  0  0  0
   62.1970   33.7813   50.4080 H   0  0  0  0  0  0  0  0  0  0  0  0
   64.3939   33.0999   50.1111 H   0  0  0  0  0  0  0  0  0  0  0  0
   64.6815   32.0720   48.6664 H   0  0  0  0  0  0  0  0  0  0  0  0
   65.2091   33.7890   48.6664 H   0  0  0  0  0  0  0  0  0  0  0  0
   63.7130   33.2404   46.3868 H   0  0  0  0  0  0  0  0  0  0  0  0
   61.4855   33.8697   45.4622 H   0  0  0  0  0  0  0  0  0  0  0  0
   56.4577   31.7484   44.1211 H   0  0  0  0  0  0  0  0  0  0  0  0
   55.8121   27.1489   45.1347 H   0  0  0  0  0  0  0  0  0  0  0  0
   59.1165   26.1116   47.7017 H   0  0  0  0  0  0  0  0  0  0  0  0
   60.0435   28.4037   47.4686 H   0  0  0  0  0  0  0  0  0  0  0  0
  1  2  1  0
  2  3  1  0
  3  4  1  0
  4  5  1  0
  5  6  1  0
  6  7  1  0
  7  8  1  0
  8  9  2  0
  9 10  1  0
 10 11  2  0
 11 12  1  0
 11 13  1  0
 13 14  2  0
  4 15  2  0
 15 16  1  0
 16 17  2  0
 16 18  1  0
 18 19  2  0
 19 20  1  0
 20 21  1  0
 20 22  2  0
 22 23  1  0
 23 24  2  0
 24  3  1  0
 14  8  1  0
 24 18  1  0
  1 25  1  0
  1 26  1  0
  1 27  1  0
  2 28  1  0
  2 29  1  0
  5 30  1  0
  5 31  1  0
  6 32  1  0
  6 33  1  0
  7 34  1  0
  7 35  1  0
  9 36  1  0
 10 37  1  0
 12 38  1  0
 12 39  1  0
 12 40  1  0
 13 41  1  0
 14 42  1  0
 15 43  1  0
 19 44  1  0
 22 45  1  0
 23 46  1  0
M  CHG  1   6   1
M  END
>  <UniqueID>  (10) 
10

>  <SMILES>  (10) 
CCn1c(C[NH2+]Cc2ccc(C)cc2)cc(=O)c2cc(Cl)ccc21

>  <Energy>  (10) 
61.463903225022264

>  <Genealogy>  (10) 
CCn1c(C[NH2+]Cc2ccc(C)cc2)cc(=O)c2cc(Cl)ccc21 (protonated)
CCn1c(C[NH2+]Cc2ccc(C)cc2)cc(=O)c2cc(Cl)ccc21 (3D coordinates assigned)
CCn1c(C[NH2+]Cc2ccc(C)cc2)cc(=O)c2cc(Cl)ccc21 (optimized conformer: 61.463903225022264 kcal/mol)

>  <smiles>  (10) 
CCn1c(CNCc2ccc(C)cc2)cc(=O)c2cc(Cl)ccc21

>  <score_type>  (10) 
oracle

>  <origin>  (10) 
adg

>  <m_score__min__energy>  (10) 
-6.1600000000000001

>  <m_primary>  (10) 
energy

$$$$
10:0
     RDKit          3D

 50 52  0  0  0  0  0  0  0  0999 V2000
   56.6630   29.3120   44.5780 C   0  0  0  0  0  0  0  0  0  0  0  0
   57.3360   28.2370   45.4420 C   0  0  0  0  0  0  0  0  0  0  0  0
   58.7740   28.4770   45.7290 N   0  0  0  0  0  0  0  0  0  0  0  0
   59.6370   28.6190   44.5380 C   0  0  0  0  0  0  0  0  0  0  0  0
   61.1330   28.6040   44.8610 C   0  0  0  0  0  0  0  0  0  0  0  0
   59.3770   27.7010   46.8340 C   0  0  0  0  0  0  0  0  0  0  0  0
   59.2850   28.4650   48.1630 C   0  0  0  0  0  0  0  0  0  0  0  0
   60.3120   29.5040   48.2450 N   0  0  0  0  0  0  0  0  0  0  0  0
   60.2000   30.7560   47.5490 C   0  0  0  0  0  0  0  0  0  0  0  0
   59.0750   31.0230   46.8290 N   0  0  0  0  0  0  0  0  0  0  0  0
   58.8890   32.2080   46.1840 C   0  0  0  0  0  0  0  0  0  0  0  0
   57.6870   32.4430   45.4950 C   0  0  0  0  0  0  0  0  0  0  0  0
   57.4650   33.6640   44.8580 C   0  0  0  0  0  0  0  0  0  0  0  0
   58.4340   34.6640   44.9120 C   0  0  0  0  0  0  0  0  0  0  0  0
   59.6370   34.4460   45.5880 C   0  0  0  0  0  0  0  0  0  0  0  0
   59.8960   33.2060   46.2160 C   0  0  0  0  0  0  0  0  0  0  0  0
   61.1080   32.9220   46.8950 C   0  0  0  0  0  0  0  0  0  0  0  0
   61.2370   31.7110   47.6070 C   0  0  0  0  0  0  0  0  0  0  0  0
   62.4210   31.5610   48.5400 C   0  0  0  0  0  0  0  0  0  0  0  0
   63.7420   31.9630   47.8640 C   0  0  0  0  0  0  0  0  0  0  0  0
   63.6100   33.1120   46.8410 C   0  0  0  0  0  0  0  0  0  0  0  0
   62.2850   33.8820   46.9430 C   0  0  0  0  0  0  0  0  0  0  0  0
   56.1924   30.0638   45.2287 H   0  0  0  0  0  0  0  0  0  0  0  0
   57.4184   29.7980   43.9430 H   0  0  0  0  0  0  0  0  0  0  0  0
   55.8958   28.8448   43.9430 H   0  0  0  0  0  0  0  0  0  0  0  0
   56.8000   28.1841   46.4011 H   0  0  0  0  0  0  0  0  0  0  0  0
   57.2878   27.3017   44.8651 H   0  0  0  0  0  0  0  0  0  0  0  0
   59.4211   27.7876   43.8508 H   0  0  0  0  0  0  0  0  0  0  0  0
   59.4128   29.5991   44.0917 H   0  0  0  0  0  0  0  0  0  0  0  0
   61.2725   28.6026   45.9521 H   0  0  0  0  0  0  0  0  0  0  0  0
   61.5918   27.7012   44.4315 H   0  0  0  0  0  0  0  0  0  0  0  0
   61.6098   29.4974   44.4315 H   0  0  0  0  0  0  0  0  0  0  0  0
   58.8443   26.7437   46.9327 H   0  0  0  0  0  0  0  0  0  0  0  0
   60.4388   27.5315   46.6021 H   0  0  0  0  0  0  0  0  0  0  0  0
   58.2928   28.9336   48.2402 H   0  0  0  0  0  0  0  0  0  0  0  0
   59.4413   27.7532   48.9870 H   0  0  0  0  0  0  0  0  0  0  0  0
   61.1290   29.3370   48.8720 H   0  0  0  0  0  0  0  0  0  0  0  0
   58.3260   30.2960   46.7780 H   0  0  0  0  0  0  0  0  0  0  0  0
   56.9162   31.6591   45.4577 H   0  0  0  0  0  0  0  0  0  0  0  0
   56.5253   33.8374   44.3132 H   0  0  0  0  0  0  0  0  0  0  0  0
   58.2507   35.6304   44.4196 H   0  0  0  0  0  0  0  0  0  0  0  0
   60.3899   35.2467   45.6321 H   0  0  0  0  0  0  0  0  0  0  0  0
   62.2631   32.2019   49.4200 H   0  0  0  0  0  0  0  0  0  0  0  0
   62.4951   30.5017   48.8271 H   0  0  0  0  0  0  0  0  0  0  0  0
   64.4473   32.2785   48.6470 H   0  0  0  0  0  0  0  0  0  0  0  0
   64.0895   31.0821   47.3043 H   0  0  0  0  0  0  0  0  0  0  0  0
   64.4361   33.8195   47.0053 H   0  0  0  0  0  0  0  0  0  0  0  0
   63.6399   32.6559   45.8405 H   0  0  0  0  0  0  0  0  0  0  0  0
   62.2610   34.4374   47.8922 H   0  0  0  0  0  0  0  0  0  0  0  0
   62.2115   34.5786   46.0948 H   0  0  0  0  0  0  0  0  0  0  0  0
  1  2  1  0
  2  3  1  0
  3  4  1  0
  4  5  1  0
  3  6  1  0
  6  7  1  0
  7  8  1  0
  8  9  1  0
  9 10  2  0
 10 11  1  0
 11 12  2  0
 12 13  1  0
 13 14  2  0
 14 15  1  0
 15 16  2  0
 16 17  1  0
 17 18  2  0
 18 19  1  0
 19 20  1  0
 20 21  1  0
 21 22  1  0
 18  9  1  0
 16 11  1  0
 22 17  1  0
  1 23  1  0
  1 24  1  0
  1 25  1  0
  2 26  1  0
  2 27  1  0
  4 28  1  0
  4 29  1  0
  5 30  1  0
  5 31  1  0
  5 32  1  0
  6 33  1  0
  6 34  1  0
  7 35  1  0
  7 36  1  0
  8 37  1  0
 10 38  1  0
 12 39  1  0
 13 40  1  0
 14 41  1  0
 15 42  1  0
 19 43  1  0
 19 44  1  0
 20 45  1  0
 20 46  1  0
 21 47  1  0
 21 48  1  0
 22 49  1  0
 22 50  1  0
M  CHG  1  10   1
M  END
>  <UniqueID>  (11) 
11

>  <SMILES>  (11) 
CCN(CC)CCNc1[nH+]c2ccccc2c2c1CCCC2

>  <Energy>  (11) 
68.54221483770831

>  <Genealogy>  (11) 
CCN(CC)CCNc1[nH+]c2ccccc2c2c1CCCC2 (protonated)
CCN(CC)CCNc1[nH+]c2ccccc2c2c1CCCC2 (3D coordinates assigned)
CCN(CC)CCNc1[nH+]c2ccccc2c2c1CCCC2 (nonaromatic ring conformer: 68.54221483770831 kcal/mol)

>  <smiles>  (11) 
CCN(CC)CCNc1nc2ccccc2c2c1CCCC2

>  <score_type>  (11) 
oracle

>  <origin>  (11) 
adg

>  <m_score__min__energy>  (11) 
-5.7999999999999998

>  <m_primary>  (11) 
energy

$$$$
11:0
     RDKit          3D

 65 69  0  0  0  0  0  0  0  0999 V2000
   66.7640   32.7140   50.1730 C   0  0  0  0  0  0  0  0  0  0  0  0
   65.3470   33.2470   50.3470 C   0  0  0  0  0  0  0  0  0  0  0  0
   64.4140   32.4430   49.6240 O   0  0  0  0  0  0  0  0  0  0  0  0
   63.5360   32.9000   48.6270 C   0  0  0  0  0  0  0  0  0  0  0  0
   63.9940   33.4250   47.4070 C   0  0  0  0  0  0  0  0  0  0  0  0
   63.0850   33.8590   46.4470 C   0  0  0  0  0  0  0  0  0  0  0  0
   61.7160   33.8040   46.6970 C   0  0  0  0  0  0  0  0  0  0  0  0
   61.2200   33.3390   47.9350 C   0  0  0  0  0  0  0  0  0  0  0  0
   59.7060   33.2340   48.1770 C   0  0  0  0  0  0  0  0  0  0  0  0
   58.8910   33.0890   46.9050 C   0  0  0  0  0  0  0  0  0  0  0  0
   57.9250   34.0660   46.5940 C   0  0  0  0  0  0  0  0  0  0  0  0
   57.1960   33.9910   45.4070 C   0  0  0  0  0  0  0  0  0  0  0  0
   57.4230   32.9460   44.5130 C   0  0  0  0  0  0  0  0  0  0  0  0
   58.3590   31.9570   44.8170 C   0  0  0  0  0  0  0  0  0  0  0  0
   59.0770   31.9960   46.0230 C   0  0  0  0  0  0  0  0  0  0  0  0
   60.0240   30.8930   46.3020 C   0  0  0  0  0  0  0  0  0  0  0  0
   60.2230   30.3350   47.5040 C   0  0  0  0  0  0  0  0  0  0  0  0
   59.5580   30.7420   48.7650 C   0  0  0  0  0  0  0  0  0  0  0  0
   59.2370   29.7350   49.6910 C   0  0  0  0  0  0  0  0  0  0  0  0
   58.6360   30.0530   50.9110 C   0  0  0  0  0  0  0  0  0  0  0  0
   58.3610   31.3810   51.2270 C   0  0  0  0  0  0  0  0  0  0  0  0
   58.6950   32.3980   50.3330 C   0  0  0  0  0  0  0  0  0  0  0  0
   59.3070   32.0980   49.1000 C   0  0  0  0  0  0  0  0  0  0  0  0
   62.1540   32.8310   48.8760 C   0  0  0  0  0  0  0  0  0  0  0  0
   61.7170   32.2490   50.0670 O   0  0  0  0  0  0  0  0  0  0  0  0
   61.9270   32.8810   51.3260 C   0  0  0  0  0  0  0  0  0  0  0  0
   62.7120   31.9390   52.2480 C   0  0  0  0  0  0  0  0  0  0  0  0
   63.3510   30.8230   51.5090 N   0  0  0  0  0  0  0  0  0  0  0  0
   64.6460   30.4340   52.1260 C   0  0  0  0  0  0  0  0  0  0  0  0
   65.0180   28.9830   51.7700 C   0  0  0  0  0  0  0  0  0  0  0  0
   64.0670   28.0190   52.2060 O   0  0  0  0  0  0  0  0  0  0  0  0
   62.7590   28.5460   52.3830 C   0  0  0  0  0  0  0  0  0  0  0  0
   62.4190   29.6690   51.3860 C   0  0  0  0  0  0  0  0  0  0  0  0
   67.2158   32.5441   51.1614 H   0  0  0  0  0  0  0  0  0  0  0  0
   66.7333   31.7660   49.6160 H   0  0  0  0  0  0  0  0  0  0  0  0
   67.3657   33.4472   49.6160 H   0  0  0  0  0  0  0  0  0  0  0  0
   65.0844   33.2330   51.4151 H   0  0  0  0  0  0  0  0  0  0  0  0
   65.3050   34.2749   49.9576 H   0  0  0  0  0  0  0  0  0  0  0  0
   65.0741   33.4932   47.2102 H   0  0  0  0  0  0  0  0  0  0  0  0
   63.4499   34.2479   45.4849 H   0  0  0  0  0  0  0  0  0  0  0  0
   61.0100   34.1278   45.9181 H   0  0  0  0  0  0  0  0  0  0  0  0
   59.4764   34.1966   48.6573 H   0  0  0  0  0  0  0  0  0  0  0  0
   57.7439   34.8955   47.2934 H   0  0  0  0  0  0  0  0  0  0  0  0
   56.4413   34.7573   45.1763 H   0  0  0  0  0  0  0  0  0  0  0  0
   56.8637   32.9010   43.5669 H   0  0  0  0  0  0  0  0  0  0  0  0
   58.5363   31.1381   44.1043 H   0  0  0  0  0  0  0  0  0  0  0  0
   60.6096   30.5011   45.4573 H   0  0  0  0  0  0  0  0  0  0  0  0
   60.9413   29.5038   47.5598 H   0  0  0  0  0  0  0  0  0  0  0  0
   59.4615   28.6849   49.4525 H   0  0  0  0  0  0  0  0  0  0  0  0
   58.3798   29.2541   51.6225 H   0  0  0  0  0  0  0  0  0  0  0  0
   57.8790   31.6286   52.1843 H   0  0  0  0  0  0  0  0  0  0  0  0
   58.4785   33.4446   50.5931 H   0  0  0  0  0  0  0  0  0  0  0  0
   62.4979   33.8097   51.1791 H   0  0  0  0  0  0  0  0  0  0  0  0
   60.9550   33.1159   51.7844 H   0  0  0  0  0  0  0  0  0  0  0  0
   63.4953   32.5177   52.7593 H   0  0  0  0  0  0  0  0  0  0  0  0
   62.0001   31.5017   52.9635 H   0  0  0  0  0  0  0  0  0  0  0  0
   63.5490   31.1620   50.5360 H   0  0  0  0  0  0  0  0  0  0  0  0
   65.4349   31.1071   51.7592 H   0  0  0  0  0  0  0  0  0  0  0  0
   64.5484   30.5107   53.2190 H   0  0  0  0  0  0  0  0  0  0  0  0
   65.1105   28.9078   50.6765 H   0  0  0  0  0  0  0  0  0  0  0  0
   65.9606   28.7588   52.2908 H   0  0  0  0  0  0  0  0  0  0  0  0
   62.0326   27.7304   52.2524 H   0  0  0  0  0  0  0  0  0  0  0  0
   62.7147   28.9800   53.3928 H   0  0  0  0  0  0  0  0  0  0  0  0
   62.4829   29.2680   50.3637 H   0  0  0  0  0  0  0  0  0  0  0  0
   61.4031   30.0266   51.6096 H   0  0  0  0  0  0  0  0  0  0  0  0
  1  2  1  0
  2  3  1  0
  3  4  1  0
  4  5  2  0
  5  6  1  0
  6  7  2  0
  7  8  1  0
  8  9  1  0
  9 10  1  0
 10 11  2  0
 11 12  1  0
 12 13  2  0
 13 14  1  0
 14 15  2  0
 15 16  1  0
 16 17  2  0
 17 18  1  0
 18 19  2  0
 19 20  1  0
 20 21  2  0
 21 22  1  0
 22 23  2  0
  8 24  2  0
 24 25  1  0
 25 26  1  0
 26 27  1  0
 27 28  1  0
 28 29  1  0
 29 30  1  0
 30 31  1  0
 31 32  1  0
 32 33  1  0
 24  4  1  0
 33 28  1  0
 23  9  1  0
 15 10  1  0
 23 18  1  0
  1 34  1  0
  1 35  1  0
  1 36  1  0
  2 37  1  0
  2 38  1  0
  5 39  1  0
  6 40  1  0
  7 41  1  0
  9 42  1  0
 11 43  1  0
 12 44  1  0
 13 45  1  0
 14 46  1  0
 16 47  1  0
 17 48  1  0
 19 49  1  0
 20 50  1  0
 21 51  1  0
 22 52  1  0
 26 53  1  0
 26 54  1  0
 27 55  1  0
 27 56  1  0
 28 57  1  0
 29 58  1  0
 29 59  1  0
 30 60  1  0
 30 61  1  0
 32 62  1  0
 32 63  1  0
 33 64  1  0
 33 65  1  0
M  CHG  1  28   1
M  END
>  <UniqueID>  (12) 
12

>  <SMILES>  (12) 
CCOc1cccc(C2c3ccccc3C=Cc3ccccc32)c1OCC[NH+]1CCOCC1

>  <Energy>  (12) 
103.64830280132738

>  <Genealogy>  (12) 
CCOc1cccc(C2c3ccccc3C=Cc3ccccc32)c1OCC[NH+]1CCOCC1 (protonated)
CCOc1cccc(C2c3ccccc3C=Cc3ccccc32)c1OCC[NH+]1CCOCC1 (3D coordinates assigned)
CCOc1cccc(C2c3ccccc3C=Cc3ccccc32)c1OCC[NH+]1CCOCC1 (nonaromatic ring conformer: 103.64830280132738 kcal/mol)

>  <smiles>  (12) 
CCOc1cccc(C2c3ccccc3C=Cc3ccccc32)c1OCCN1CCOCC1

>  <score_type>  (12) 
oracle

>  <origin>  (12) 
adg

>  <m_score__min__energy>  (12) 
-5.1799999999999997

>  <m_primary>  (12) 
energy

$$$$
12:0
     RDKit          3D

 65 66  0  0  0  0  0  0  0  0999 V2000
   59.8220   34.0970   48.6570 C   0  0  0  0  0  0  0  0  0  0  0  0
   61.1060   33.9570   47.8240 C   0  0  0  0  0  0  0  0  0  0  0  0
   61.9770   32.8150   48.2200 N   0  0  0  0  0  0  0  0  0  0  0  0
   63.2030   32.6920   47.3860 C   0  0  0  0  0  0  0  0  0  0  0  0
   63.3560   33.8320   46.3720 C   0  0  0  0  0  0  0  0  0  0  0  0
   62.3190   32.8870   49.6680 C   0  0  0  0  0  0  0  0  0  0  0  0
   62.1510   31.5430   50.4090 C   0  0  0  0  0  0  0  0  0  0  0  0
   61.9640   30.4700   49.5030 O   0  0  0  0  0  0  0  0  0  0  0  0
   60.6940   29.8630   49.6670 C   0  0  0  0  0  0  0  0  0  0  0  0
   59.6880   30.3910   48.6400 C   0  0  0  0  0  0  0  0  0  0  0  0
   60.2470   30.2760   47.2690 N   0  0  0  0  0  0  0  0  0  0  0  0
   59.9960   28.9390   46.6730 C   0  0  0  0  0  0  0  0  0  0  0  0
   60.0410   28.9820   45.1390 C   0  0  0  0  0  0  0  0  0  0  0  0
   59.0030   29.8870   44.5800 N   0  0  0  0  0  0  0  0  0  0  0  0
   57.7840   29.1400   44.1830 C   0  0  0  0  0  0  0  0  0  0  0  0
   56.7730   28.9820   45.3420 C   0  0  1  0  0  0  0  0  0  0  0  0
   55.4520   28.9760   44.8660 O   0  0  0  0  0  0  0  0  0  0  0  0
   57.0340   27.7020   46.1500 C   0  0  0  0  0  0  0  0  0  0  0  0
   55.9850   26.7510   45.9530 O   0  0  0  0  0  0  0  0  0  0  0  0
   56.1210   25.5040   45.3220 C   0  0  0  0  0  0  0  0  0  0  0  0
   57.3500   25.1970   44.7250 C   0  0  0  0  0  0  0  0  0  0  0  0
   57.5430   23.9700   44.0840 C   0  0  0  0  0  0  0  0  0  0  0  0
   56.5040   23.0360   44.0320 C   0  0  0  0  0  0  0  0  0  0  0  0
   56.7670   21.3600   43.1550 Br  0  0  0  0  0  0  0  0  0  0  0  0
   55.2750   23.3280   44.6280 C   0  0  0  0  0  0  0  0  0  0  0  0
   55.0810   24.5530   45.2730 C   0  0  0  0  0  0  0  0  0  0  0  0
   58.6860   31.0320   45.4720 C   0  0  0  0  0  0  0  0  0  0  0  0
   59.8690   31.4000   46.3770 C   0  0  0  0  0  0  0  0  0  0  0  0
   60.0745   34.0695   49.7273 H   0  0  0  0  0  0  0  0  0  0  0  0
   59.3336   35.0537   48.4200 H   0  0  0  0  0  0  0  0  0  0  0  0
   59.1389   33.2680   48.4200 H   0  0  0  0  0  0  0  0  0  0  0  0
   60.8193   33.8215   46.7707 H   0  0  0  0  0  0  0  0  0  0  0  0
   61.6920   34.8720   47.9956 H   0  0  0  0  0  0  0  0  0  0  0  0
   61.4030   31.9530   48.0600 H   0  0  0  0  0  0  0  0  0  0  0  0
   64.0800   32.6937   48.0500 H   0  0  0  0  0  0  0  0  0  0  0  0
   63.1203   31.7546   46.8165 H   0  0  0  0  0  0  0  0  0  0  0  0
   63.4838   34.7843   46.9075 H   0  0  0  0  0  0  0  0  0  0  0  0
   64.2371   33.6453   45.7406 H   0  0  0  0  0  0  0  0  0  0  0  0
   62.4568   33.8842   45.7406 H   0  0  0  0  0  0  0  0  0  0  0  0
   63.3669   33.2079   49.7625 H   0  0  0  0  0  0  0  0  0  0  0  0
   61.6205   33.6002   50.1299 H   0  0  0  0  0  0  0  0  0  0  0  0
   63.0525   31.3508   51.0094 H   0  0  0  0  0  0  0  0  0  0  0  0
   61.2602   31.6119   51.0507 H   0  0  0  0  0  0  0  0  0  0  0  0
   60.7977   28.7752   49.5405 H   0  0  0  0  0  0  0  0  0  0  0  0
   60.3214   30.1040   50.6735 H   0  0  0  0  0  0  0  0  0  0  0  0
   58.7603   29.8034   48.7047 H   0  0  0  0  0  0  0  0  0  0  0  0
   59.4778   31.4492   48.8545 H   0  0  0  0  0  0  0  0  0  0  0  0
   60.7645   28.2388   47.0324 H   0  0  0  0  0  0  0  0  0  0  0  0
   58.9906   28.6120   46.9769 H   0  0  0  0  0  0  0  0  0  0  0  0
   61.0321   29.3387   44.8220 H   0  0  0  0  0  0  0  0  0  0  0  0
   59.8466   27.9666   44.7633 H   0  0  0  0  0  0  0  0  0  0  0  0
   57.2933   29.6803   43.3600 H   0  0  0  0  0  0  0  0  0  0  0  0
   58.0988   28.1309   43.8788 H   0  0  0  0  0  0  0  0  0  0  0  0
   56.9108   29.8488   46.0051 H   0  0  0  0  0  0  0  0  0  0  0  0
   55.1420   28.0330   44.8850 H   0  0  0  0  0  0  0  0  0  0  0  0
   57.9871   27.2592   45.8251 H   0  0  0  0  0  0  0  0  0  0  0  0
   57.0755   27.9630   47.2178 H   0  0  0  0  0  0  0  0  0  0  0  0
   58.1710   25.9282   44.7608 H   0  0  0  0  0  0  0  0  0  0  0  0
   58.5133   23.7390   43.6200 H   0  0  0  0  0  0  0  0  0  0  0  0
   54.4580   22.5925   44.5898 H   0  0  0  0  0  0  0  0  0  0  0  0
   54.1125   24.7761   45.7445 H   0  0  0  0  0  0  0  0  0  0  0  0
   58.4279   31.9038   44.8528 H   0  0  0  0  0  0  0  0  0  0  0  0
   57.8440   30.7382   46.1160 H   0  0  0  0  0  0  0  0  0  0  0  0
   60.7321   31.6612   45.7471 H   0  0  0  0  0  0  0  0  0  0  0  0
   59.5684   32.2511   47.0058 H   0  0  0  0  0  0  0  0  0  0  0  0
  1  2  1  0
  2  3  1  0
  3  4  1  0
  4  5  1  0
  3  6  1  0
  6  7  1  0
  7  8  1  0
  8  9  1  0
  9 10  1  0
 10 11  1  0
 11 12  1  0
 12 13  1  0
 13 14  1  0
 14 15  1  0
 15 16  1  0
 16 17  1  0
 16 18  1  0
 18 19  1  0
 19 20  1  0
 20 21  2  0
 21 22  1  0
 22 23  2  0
 23 24  1  0
 23 25  1  0
 25 26  2  0
 14 27  1  0
 27 28  1  0
 28 11  1  0
 26 20  1  0
  1 29  1  0
  1 30  1  0
  1 31  1  0
  2 32  1  0
  2 33  1  0
  3 34  1  0
  4 35  1  0
  4 36  1  0
  5 37  1  0
  5 38  1  0
  5 39  1  0
  6 40  1  0
  6 41  1  0
  7 42  1  0
  7 43  1  0
  9 44  1  0
  9 45  1  0
 10 46  1  0
 10 47  1  0
 12 48  1  0
 12 49  1  0
 13 50  1  0
 13 51  1  0
 15 52  1  0
 15 53  1  0
 16 54  1  1
 17 55  1  0
 18 56  1  0
 18 57  1  0
 21 58  1  0
 22 59  1  0
 25 60  1  0
 26 61  1  0
 27 62  1  0
 27 63  1  0
 28 64  1  0
 28 65  1  0
M  CHG  1   3   1
M  END
>  <UniqueID>  (13) 
13

>  <SMILES>  (13) 
CC[NH+](CC)CCOCCN1CCN(C[C@@H](O)COc2ccc(Br)cc2)CC1

>  <Energy>  (13) 
82.80573091640241

>  <Genealogy>  (13) 
CC[NH+](CC)CCOCCN1CCN(CC(O)COc2ccc(Br)cc2)CC1 (protonated)
CC[NH+](CC)CCOCCN1CCN(C[C@@H](O)COc2ccc(Br)cc2)CC1 (chirality)
CC[NH+](CC)CCOCCN1CCN(C[C@@H](O)COc2ccc(Br)cc2)CC1 (3D coordinates assigned)
CC[NH+](CC)CCOCCN1CCN(C[C@@H](O)COc2ccc(Br)cc2)CC1 (nonaromatic ring conformer: 82.80573091640241 kcal/mol)

>  <smiles>  (13) 
CCN(CC)CCOCCN1CCN(CC(O)COc2ccc(Br)cc2)CC1

>  <score_type>  (13) 
oracle

>  <origin>  (13) 
adg

>  <m_score__min__energy>  (13) 
-5.3300000000000001

>  <m_primary>  (13) 
energy

$$$$
13:0
     RDKit          3D

 32 34  0  0  0  0  0  0  0  0999 V2000
   63.6850   33.9840   50.9010 C   0  0  0  0  0  0  0  0  0  0  0  0
   62.7070   34.7620   50.2180 O   0  0  0  0  0  0  0  0  0  0  0  0
   61.8640   34.2660   49.2120 C   0  0  0  0  0  0  0  0  0  0  0  0
   60.4670   34.1960   49.3630 C   0  0  0  0  0  0  0  0  0  0  0  0
   59.6700   33.6940   48.3300 C   0  0  0  0  0  0  0  0  0  0  0  0
   60.2510   33.2520   47.1280 C   0  0  0  0  0  0  0  0  0  0  0  0
   59.4030   32.7190   46.0310 C   0  0  0  0  0  0  0  0  0  0  0  0
   58.9560   33.5670   45.0000 C   0  0  0  0  0  0  0  0  0  0  0  0
   58.1590   33.0710   43.9660 C   0  0  0  0  0  0  0  0  0  0  0  0
   57.7940   31.7190   43.9410 C   0  0  0  0  0  0  0  0  0  0  0  0
   56.9930   31.2120   42.9060 C   0  0  0  0  0  0  0  0  0  0  0  0
   56.6340   29.8610   42.8940 C   0  0  0  0  0  0  0  0  0  0  0  0
   57.0700   29.0080   43.9120 C   0  0  0  0  0  0  0  0  0  0  0  0
   57.8680   29.5010   44.9480 C   0  0  0  0  0  0  0  0  0  0  0  0
   58.2370   30.8560   44.9720 C   0  0  0  0  0  0  0  0  0  0  0  0
   59.0370   31.3610   46.0080 C   0  0  0  0  0  0  0  0  0  0  0  0
   61.6480   33.3230   46.9830 C   0  0  0  0  0  0  0  0  0  0  0  0
   62.4430   33.8260   48.0170 C   0  0  0  0  0  0  0  0  0  0  0  0
   63.5476   34.0933   51.9869 H   0  0  0  0  0  0  0  0  0  0  0  0
   63.5723   32.9260   50.6218 H   0  0  0  0  0  0  0  0  0  0  0  0
   64.6906   34.3318   50.6218 H   0  0  0  0  0  0  0  0  0  0  0  0
   59.9997   34.5379   50.2983 H   0  0  0  0  0  0  0  0  0  0  0  0
   58.5787   33.6443   48.4585 H   0  0  0  0  0  0  0  0  0  0  0  0
   59.2372   34.6304   45.0089 H   0  0  0  0  0  0  0  0  0  0  0  0
   57.8163   33.7454   43.1674 H   0  0  0  0  0  0  0  0  0  0  0  0
   56.6470   31.8790   42.1027 H   0  0  0  0  0  0  0  0  0  0  0  0
   56.0063   29.4678   42.0807 H   0  0  0  0  0  0  0  0  0  0  0  0
   56.7842   27.9459   43.8976 H   0  0  0  0  0  0  0  0  0  0  0  0
   58.2081   28.8258   45.7470 H   0  0  0  0  0  0  0  0  0  0  0  0
   59.3808   30.6896   46.8087 H   0  0  0  0  0  0  0  0  0  0  0  0
   62.1184   32.9804   46.0495 H   0  0  0  0  0  0  0  0  0  0  0  0
   63.5345   33.8763   47.8897 H   0  0  0  0  0  0  0  0  0  0  0  0
  1  2  1  0
  2  3  1  0
  3  4  2  0
  4  5  1  0
  5  6  2  0
  6  7  1  0
  7  8  2  0
  8  9  1  0
  9 10  2  0
 10 11  1  0
 11 12  2  0
 12 13  1  0
 13 14  2  0
 14 15  1  0
 15 16  2  0
  6 17  1  0
 17 18  2  0
 18  3  1  0
 16  7  1  0
 15 10  1  0
  1 19  1  0
  1 20  1  0
  1 21  1  0
  4 22  1  0
  5 23  1  0
  8 24  1  0
  9 25  1  0
 11 26  1  0
 12 27  1  0
 13 28  1  0
 14 29  1  0
 16 30  1  0
 17 31  1  0
 18 32  1  0
M  END
>  <UniqueID>  (14) 
14

>  <SMILES>  (14) 
COc1ccc(-c2ccc3ccccc3c2)cc1

>  <Energy>  (14) 
42.379332320188304

>  <Genealogy>  (14) 
COc1ccc(-c2ccc3ccccc3c2)cc1 (3D coordinates assigned)
COc1ccc(-c2ccc3ccccc3c2)cc1 (optimized conformer: 42.379332320188304 kcal/mol)

>  <smiles>  (14) 
COc1ccc(-c2ccc3ccccc3c2)cc1

>  <score_type>  (14) 
oracle

>  <origin>  (14) 
adg

>  <m_score__min__energy>  (14) 
-6.5199999999999996

>  <m_primary>  (14) 
energy

$$$$
14:0
     RDKit          3D

 39 40  0  0  0  0  0  0  0  0999 V2000
   59.9830   26.0688   46.8839 H   0  0  0  0  0  0  0  0  0  0  0  0
   59.0360   26.4860   46.5110 C   0  0  0  0  0  0  0  0  0  0  0  0
   57.8720   25.8250   46.7400 N   0  0  0  0  0  0  0  0  0  0  0  0
   56.6710   26.2920   46.3130 C   0  0  0  0  0  0  0  0  0  0  0  0
   55.6060   25.5870   46.5720 N   0  0  0  0  0  0  0  0  0  0  0  0
   54.7320   24.9040   45.6160 C   0  0  0  0  0  0  0  0  0  0  0  0
   54.7052   25.4773   44.6776 H   0  0  0  0  0  0  0  0  0  0  0  0
   53.7229   24.8320   46.0478 H   0  0  0  0  0  0  0  0  0  0  0  0
   55.2490   23.4840   45.3260 C   0  0  0  0  0  0  0  0  0  0  0  0
   54.9366   23.1936   44.3121 H   0  0  0  0  0  0  0  0  0  0  0  0
   54.8254   22.8093   46.0845 H   0  0  0  0  0  0  0  0  0  0  0  0
   56.7160   23.3970   45.4130 N   0  0  0  0  0  0  0  0  0  0  0  0
   57.0690   24.0920   46.1140 H   0  0  0  0  0  0  0  0  0  0  0  0
   57.3790   23.6340   44.1220 C   0  0  0  0  0  0  0  0  0  0  0  0
   58.4067   23.2441   44.1646 H   0  0  0  0  0  0  0  0  0  0  0  0
   57.3949   24.7153   43.9204 H   0  0  0  0  0  0  0  0  0  0  0  0
   56.6200   22.9310   43.0020 C   0  0  0  0  0  0  0  0  0  0  0  0
   55.8786   22.2443   43.4364 H   0  0  0  0  0  0  0  0  0  0  0  0
   56.1066   23.6797   42.3808 H   0  0  0  0  0  0  0  0  0  0  0  0
   57.3272   22.3618   42.3808 H   0  0  0  0  0  0  0  0  0  0  0  0
   56.6210   27.5170   45.6200 C   0  0  0  0  0  0  0  0  0  0  0  0
   55.6556   27.9135   45.2724 H   0  0  0  0  0  0  0  0  0  0  0  0
   57.8040   28.2320   45.3730 C   0  0  0  0  0  0  0  0  0  0  0  0
   57.7150   29.5270   44.6590 C   0  0  0  0  0  0  0  0  0  0  0  0
   58.2330   30.6980   45.2370 C   0  0  0  0  0  0  0  0  0  0  0  0
   58.7188   30.6542   46.2229 H   0  0  0  0  0  0  0  0  0  0  0  0
   58.1330   31.9190   44.5630 C   0  0  0  0  0  0  0  0  0  0  0  0
   58.5466   32.8318   45.0166 H   0  0  0  0  0  0  0  0  0  0  0  0
   57.5090   31.9820   43.3150 C   0  0  0  0  0  0  0  0  0  0  0  0
   57.4338   32.9432   42.7854 H   0  0  0  0  0  0  0  0  0  0  0  0
   56.9800   30.8230   42.7390 C   0  0  0  0  0  0  0  0  0  0  0  0
   56.4861   30.8736   41.7574 H   0  0  0  0  0  0  0  0  0  0  0  0
   57.0780   29.6000   43.4090 C   0  0  0  0  0  0  0  0  0  0  0  0
   56.6548   28.6914   42.9558 H   0  0  0  0  0  0  0  0  0  0  0  0
   59.0400   27.6960   45.8030 C   0  0  0  0  0  0  0  0  0  0  0  0
   60.3510   28.3890   45.5420 C   0  0  0  0  0  0  0  0  0  0  0  0
   60.8292   28.6418   46.4998 H   0  0  0  0  0  0  0  0  0  0  0  0
   61.0105   27.7217   44.9677 H   0  0  0  0  0  0  0  0  0  0  0  0
   60.1711   29.3098   44.9677 H   0  0  0  0  0  0  0  0  0  0  0  0
  1  2  1  0
  2  3  1  0
  3  4  1  0
  4  5  2  0
  5  6  1  0
  6  7  1  0
  6  8  1  0
  6  9  1  0
  9 10  1  0
  9 11  1  0
  9 12  1  0
 12 13  1  0
 12 14  1  0
 14 15  1  0
 14 16  1  0
 14 17  1  0
 17 18  1  0
 17 19  1  0
 17 20  1  0
  4 21  1  0
 21 22  1  0
 21 23  2  0
 23 24  1  0
 24 25  2  0
 25 26  1  0
 25 27  1  0
 27 28  1  0
 27 29  2  0
 29 30  1  0
 29 31  1  0
 31 32  1  0
 31 33  2  0
 33 34  1  0
 23 35  1  0
 35 36  1  0
 36 37  1  0
 36 38  1  0
 36 39  1  0
 35  2  2  0
 33 24  1  0
M  CHG  1   3  -1
M  END
>  <UniqueID>  (15) 
15

>  <SMILES>  (15) 
CCNCC/N=c1\cc(-c2ccccc2)c(C)c[n-]1

>  <Energy>  (15) 
46.16678554050418

>  <Genealogy>  (15) 
CCNCCN=c1cc(-c2ccccc2)c(C)c[n-]1 (protonated)
CCNCC/N=c1\cc(-c2ccccc2)c(C)c[n-]1 (cis-trans isomerization)
CCNCC/N=c1\cc(-c2ccccc2)c(C)c[n-]1 (3D coordinates assigned)
CCNCC/N=c1\cc(-c2ccccc2)c(C)c[n-]1 (optimized conformer: 46.16678554050418 kcal/mol)

>  <smiles>  (15) 
CCNCCN=c1cc(-c2ccccc2)c(C)c[nH]1

>  <score_type>  (15) 
oracle

>  <origin>  (15) 
adg

>  <m_score__min__energy>  (15) 
-8.3300000000000001

>  <m_primary>  (15) 
energy

$$$$
15:0
     RDKit          3D

 30 31  0  0  0  0  0  0  0  0999 V2000
   55.9730   25.9210   45.9900 C   0  0  0  0  0  0  0  0  0  0  0  0
   56.7780   27.1620   45.6400 C   0  0  0  0  0  0  0  0  0  0  0  0
   55.8950   28.2040   45.2430 O   0  0  0  0  0  0  0  0  0  0  0  0
   56.3470   29.4080   44.6970 C   0  0  0  0  0  0  0  0  0  0  0  0
   55.5500   30.3650   44.4990 O   0  0  0  0  0  0  0  0  0  0  0  0
   57.8000   29.5780   44.3940 C   0  0  0  0  0  0  0  0  0  0  0  0
   58.3060   30.8580   44.9950 C   0  0  0  0  0  0  0  0  0  0  0  0
   57.6240   32.0280   44.9030 N   0  0  0  0  0  0  0  0  0  0  0  0
   58.3480   32.8800   45.6420 C   0  0  0  0  0  0  0  0  0  0  0  0
   58.0570   34.1780   45.9070 N   0  0  0  0  0  0  0  0  0  0  0  0
   58.8910   34.8840   46.7300 C   0  0  0  0  0  0  0  0  0  0  0  0
   60.0270   34.2650   47.3060 C   0  0  0  0  0  0  0  0  0  0  0  0
   60.3040   32.9140   47.0290 C   0  0  0  0  0  0  0  0  0  0  0  0
   59.4300   32.2480   46.1710 C   0  0  0  0  0  0  0  0  0  0  0  0
   59.4310   30.9650   45.7620 N   0  0  0  0  0  0  0  0  0  0  0  0
   60.3370   29.9000   46.1940 C   0  0  0  0  0  0  0  0  0  0  0  0
   55.9088   25.8220   47.0837 H   0  0  0  0  0  0  0  0  0  0  0  0
   54.9603   26.0103   45.5698 H   0  0  0  0  0  0  0  0  0  0  0  0
   56.4673   25.0327   45.5698 H   0  0  0  0  0  0  0  0  0  0  0  0
   57.3544   27.4851   46.5194 H   0  0  0  0  0  0  0  0  0  0  0  0
   57.4671   26.9310   44.8143 H   0  0  0  0  0  0  0  0  0  0  0  0
   58.3612   28.7312   44.8158 H   0  0  0  0  0  0  0  0  0  0  0  0
   57.9388   29.6127   43.3033 H   0  0  0  0  0  0  0  0  0  0  0  0
   56.7240   32.2150   44.4070 H   0  0  0  0  0  0  0  0  0  0  0  0
   58.6775   35.9412   46.9461 H   0  0  0  0  0  0  0  0  0  0  0  0
   60.6913   34.8393   47.9685 H   0  0  0  0  0  0  0  0  0  0  0  0
   61.1732   32.4047   47.4706 H   0  0  0  0  0  0  0  0  0  0  0  0
   60.3656   29.8663   47.2931 H   0  0  0  0  0  0  0  0  0  0  0  0
   59.9791   28.9346   45.8068 H   0  0  0  0  0  0  0  0  0  0  0  0
   61.3473   30.0985   45.8068 H   0  0  0  0  0  0  0  0  0  0  0  0
  1  2  1  0
  2  3  1  0
  3  4  1  0
  4  5  2  0
  4  6  1  0
  6  7  1  0
  7  8  2  0
  8  9  1  0
  9 10  2  0
 10 11  1  0
 11 12  2  0
 12 13  1  0
 13 14  2  0
 14 15  1  0
 15 16  1  0
 15  7  1  0
 14  9  1  0
  1 17  1  0
  1 18  1  0
  1 19  1  0
  2 20  1  0
  2 21  1  0
  6 22  1  0
  6 23  1  0
  8 24  1  0
 11 25  1  0
 12 26  1  0
 13 27  1  0
 16 28  1  0
 16 29  1  0
 16 30  1  0
M  CHG  1   8   1
M  END
>  <UniqueID>  (16) 
16

>  <SMILES>  (16) 
CCOC(=O)Cc1[nH+]c2ncccc2n1C

>  <Energy>  (16) 
63.08370724604861

>  <Genealogy>  (16) 
CCOC(=O)Cc1[nH+]c2ncccc2n1C (protonated)
CCOC(=O)Cc1[nH+]c2ncccc2n1C (3D coordinates assigned)
CCOC(=O)Cc1[nH+]c2ncccc2n1C (optimized conformer: 63.08370724604861 kcal/mol)

>  <smiles>  (16) 
CCOC(=O)Cc1nc2ncccc2n1C

>  <score_type>  (16) 
oracle

>  <origin>  (16) 
adg

>  <m_score__min__energy>  (16) 
-4.25

>  <m_primary>  (16) 
energy

$$$$
16:0
     RDKit          3D

 47 50  0  0  0  0  0  0  0  0999 V2000
   64.6710   33.1150   49.3280 C   0  0  0  0  0  0  0  0  0  0  0  0
   63.3700   33.4290   48.6490 C   0  0  0  0  0  0  0  0  0  0  0  0
   63.2520   33.3030   47.2580 C   0  0  0  0  0  0  0  0  0  0  0  0
   62.0360   33.5820   46.6250 C   0  0  0  0  0  0  0  0  0  0  0  0
   60.9220   33.9680   47.3810 C   0  0  0  0  0  0  0  0  0  0  0  0
   59.4120   34.3960   46.5850 S   0  0  0  0  0  0  0  0  0  0  0  0
   58.9140   35.7150   47.1050 O   0  0  0  0  0  0  0  0  0  0  0  0
   59.6310   34.5120   45.1030 O   0  0  0  0  0  0  0  0  0  0  0  0
   58.2580   33.1860   46.9190 O   0  0  0  0  0  0  0  0  0  0  0  0
   58.0780   32.1060   46.0530 C   0  0  0  0  0  0  0  0  0  0  0  0
   57.3530   32.2870   44.8720 C   0  0  0  0  0  0  0  0  0  0  0  0
   57.1690   31.2280   43.9870 C   0  0  0  0  0  0  0  0  0  0  0  0
   57.6920   29.9620   44.2790 C   0  0  0  0  0  0  0  0  0  0  0  0
   57.4880   28.8980   43.3880 C   0  0  0  0  0  0  0  0  0  0  0  0
   57.9890   27.6230   43.6770 C   0  0  0  0  0  0  0  0  0  0  0  0
   57.7750   26.5420   42.7650 N   0  0  0  0  0  0  0  0  0  0  0  0
   58.6920   27.4100   44.8680 C   0  0  0  0  0  0  0  0  0  0  0  0
   58.9050   28.4600   45.7620 C   0  0  0  0  0  0  0  0  0  0  0  0
   58.4240   29.7560   45.4790 C   0  0  0  0  0  0  0  0  0  0  0  0
   58.6310   30.8470   46.3650 C   0  0  0  0  0  0  0  0  0  0  0  0
   59.4780   30.7230   47.5760 C   0  0  0  0  0  0  0  0  0  0  0  0
   58.9060   30.8040   48.8560 C   0  0  0  0  0  0  0  0  0  0  0  0
   59.7160   30.7380   49.9940 C   0  0  0  0  0  0  0  0  0  0  0  0
   61.1000   30.5930   49.8620 C   0  0  0  0  0  0  0  0  0  0  0  0
   61.6760   30.5130   48.5910 C   0  0  0  0  0  0  0  0  0  0  0  0
   60.8700   30.5800   47.4520 C   0  0  0  0  0  0  0  0  0  0  0  0
   61.0340   34.0790   48.7730 C   0  0  0  0  0  0  0  0  0  0  0  0
   62.2490   33.8030   49.4060 C   0  0  0  0  0  0  0  0  0  0  0  0
   64.5327   33.1484   50.4188 H   0  0  0  0  0  0  0  0  0  0  0  0
   65.0062   32.1102   49.0315 H   0  0  0  0  0  0  0  0  0  0  0  0
   65.4276   33.8563   49.0315 H   0  0  0  0  0  0  0  0  0  0  0  0
   64.1192   32.9834   46.6615 H   0  0  0  0  0  0  0  0  0  0  0  0
   61.9547   33.4980   45.5312 H   0  0  0  0  0  0  0  0  0  0  0  0
   56.9246   33.2732   44.6400 H   0  0  0  0  0  0  0  0  0  0  0  0
   56.6097   31.3866   43.0532 H   0  0  0  0  0  0  0  0  0  0  0  0
   56.9301   29.0667   42.4551 H   0  0  0  0  0  0  0  0  0  0  0  0
   56.8660   26.0280   42.7500 H   0  0  0  0  0  0  0  0  0  0  0  0
   58.5240   26.2480   42.1000 H   0  0  0  0  0  0  0  0  0  0  0  0
   59.0796   26.4073   45.1012 H   0  0  0  0  0  0  0  0  0  0  0  0
   59.4537   28.2754   46.6973 H   0  0  0  0  0  0  0  0  0  0  0  0
   57.8174   30.9197   48.9638 H   0  0  0  0  0  0  0  0  0  0  0  0
   59.2633   30.8003   50.9946 H   0  0  0  0  0  0  0  0  0  0  0  0
   61.7357   30.5419   50.7582 H   0  0  0  0  0  0  0  0  0  0  0  0
   62.7650   30.3972   48.4875 H   0  0  0  0  0  0  0  0  0  0  0  0
   61.3274   30.5205   46.4534 H   0  0  0  0  0  0  0  0  0  0  0  0
   60.1622   34.3846   49.3701 H   0  0  0  0  0  0  0  0  0  0  0  0
   62.3269   33.8791   50.5006 H   0  0  0  0  0  0  0  0  0  0  0  0
  1  2  1  0
  2  3  2  0
  3  4  1  0
  4  5  2  0
  5  6  1  0
  6  7  2  0
  6  8  2  0
  6  9  1  0
  9 10  1  0
 10 11  2  0
 11 12  1  0
 12 13  2  0
 13 14  1  0
 14 15  2  0
 15 16  1  0
 15 17  1  0
 17 18  2  0
 18 19  1  0
 19 20  2  0
 20 21  1  0
 21 22  2  0
 22 23  1  0
 23 24  2  0
 24 25  1  0
 25 26  2  0
  5 27  1  0
 27 28  2  0
 28  2  1  0
 20 10  1  0
 26 21  1  0
 19 13  1  0
  1 29  1  0
  1 30  1  0
  1 31  1  0
  3 32  1  0
  4 33  1  0
 11 34  1  0
 12 35  1  0
 14 36  1  0
 16 37  1  0
 16 38  1  0
 17 39  1  0
 18 40  1  0
 22 41  1  0
 23 42  1  0
 24 43  1  0
 25 44  1  0
 26 45  1  0
 27 46  1  0
 28 47  1  0
M  END
>  <UniqueID>  (17) 
17

>  <SMILES>  (17) 
Cc1ccc(S(=O)(=O)Oc2ccc3cc(N)ccc3c2-c2ccccc2)cc1

>  <Energy>  (17) 
63.090151653325876

>  <Genealogy>  (17) 
Cc1ccc(S(=O)(=O)Oc2ccc3cc(N)ccc3c2-c2ccccc2)cc1 (3D coordinates assigned)
Cc1ccc(S(=O)(=O)Oc2ccc3cc(N)ccc3c2-c2ccccc2)cc1 (optimized conformer: 63.090151653325876 kcal/mol)

>  <smiles>  (17) 
Cc1ccc(S(=O)(=O)Oc2ccc3cc(N)ccc3c2-c2ccccc2)cc1

>  <score_type>  (17) 
oracle

>  <origin>  (17) 
adg

>  <m_score__min__energy>  (17) 
-8.7899999999999991

>  <m_primary>  (17) 
energy

$$$$
17:0
     RDKit          3D

 54 56  0  0  0  0  0  0  0  0999 V2000
   63.8580   32.7680   49.7720 C   0  0  0  0  0  0  0  0  0  0  0  0
   63.1080   31.6740   50.2910 O   0  0  0  0  0  0  0  0  0  0  0  0
   62.1970   30.9050   49.5470 C   0  0  0  0  0  0  0  0  0  0  0  0
   61.7690   31.2940   48.2710 C   0  0  0  0  0  0  0  0  0  0  0  0
   60.8840   30.4950   47.5370 C   0  0  0  0  0  0  0  0  0  0  0  0
   60.3950   29.2980   48.0830 C   0  0  0  0  0  0  0  0  0  0  0  0
   60.7740   28.9310   49.4010 C   0  0  0  0  0  0  0  0  0  0  0  0
   60.2500   27.7730   49.9850 O   0  0  0  0  0  0  0  0  0  0  0  0
   61.0740   26.7510   50.5390 C   0  0  0  0  0  0  0  0  0  0  0  0
   61.7040   29.7260   50.1200 C   0  0  0  0  0  0  0  0  0  0  0  0
   62.1770   29.4060   51.4070 O   0  0  0  0  0  0  0  0  0  0  0  0
   61.5710   29.7510   52.6480 C   0  0  0  0  0  0  0  0  0  0  0  0
   59.6580   28.3130   47.2320 C   0  0  0  0  0  0  0  0  0  0  0  0
   60.3610   27.1170   47.0390 C   0  0  0  0  0  0  0  0  0  0  0  0
   59.9090   25.8910   46.5860 C   0  0  0  0  0  0  0  0  0  0  0  0
   58.5990   25.4410   46.4830 C   0  0  0  0  0  0  0  0  0  0  0  0
   58.4490   24.1970   46.3340 O   0  0  0  0  0  0  0  0  0  0  0  0
   57.4400   26.2210   46.5180 C   0  0  0  0  0  0  0  0  0  0  0  0
   56.2340   25.4880   46.5230 O   0  0  0  0  0  0  0  0  0  0  0  0
   55.7020   24.7410   45.4320 C   0  0  0  0  0  0  0  0  0  0  0  0
   57.3940   27.6230   46.4450 C   0  0  0  0  0  0  0  0  0  0  0  0
   58.3930   28.5980   46.6520 C   0  0  0  0  0  0  0  0  0  0  0  0
   57.9570   29.9950   46.1610 C   0  0  2  0  0  0  0  0  0  0  0  0
   57.7730   29.9370   44.7040 N   0  0  0  0  0  0  0  0  0  0  0  0
   56.4990   29.7100   44.0870 C   0  0  0  0  0  0  0  0  0  0  0  0
   56.3840   29.7110   42.5980 C   0  0  0  0  0  0  0  0  0  0  0  0
   55.4670   29.5350   44.7900 O   0  0  0  0  0  0  0  0  0  0  0  0
   58.8140   31.2300   46.4910 C   0  0  0  0  0  0  0  0  0  0  0  0
   60.3090   31.0120   46.2580 C   0  0  0  0  0  0  0  0  0  0  0  0
   64.2648   33.3613   50.6042 H   0  0  0  0  0  0  0  0  0  0  0  0
   64.6850   32.3859   49.1555 H   0  0  0  0  0  0  0  0  0  0  0  0
   63.2035   33.4016   49.1555 H   0  0  0  0  0  0  0  0  0  0  0  0
   62.1327   32.2387   47.8405 H   0  0  0  0  0  0  0  0  0  0  0  0
   61.0330   26.8019   51.6371 H   0  0  0  0  0  0  0  0  0  0  0  0
   60.7134   25.7673   50.2038 H   0  0  0  0  0  0  0  0  0  0  0  0
   62.1118   26.8948   50.2038 H   0  0  0  0  0  0  0  0  0  0  0  0
   62.2006   29.3925   53.4757 H   0  0  0  0  0  0  0  0  0  0  0  0
   61.4664   30.8440   52.7136 H   0  0  0  0  0  0  0  0  0  0  0  0
   60.5777   29.2830   52.7136 H   0  0  0  0  0  0  0  0  0  0  0  0
   61.4325   27.1592   47.2844 H   0  0  0  0  0  0  0  0  0  0  0  0
   60.6864   25.1815   46.2664 H   0  0  0  0  0  0  0  0  0  0  0  0
   55.1046   23.9022   45.8186 H   0  0  0  0  0  0  0  0  0  0  0  0
   55.0638   25.3932   44.8177 H   0  0  0  0  0  0  0  0  0  0  0  0
   56.5270   24.3511   44.8177 H   0  0  0  0  0  0  0  0  0  0  0  0
   56.4078   28.0321   46.1805 H   0  0  0  0  0  0  0  0  0  0  0  0
   57.0443   30.1765   46.7475 H   0  0  0  0  0  0  0  0  0  0  0  0
   58.5900   30.1560   44.0890 H   0  0  0  0  0  0  0  0  0  0  0  0
   55.3218   29.7202   42.3123 H   0  0  0  0  0  0  0  0  0  0  0  0
   56.8806   30.6049   42.1925 H   0  0  0  0  0  0  0  0  0  0  0  0
   56.8649   28.8086   42.1925 H   0  0  0  0  0  0  0  0  0  0  0  0
   58.4806   32.0651   45.8574 H   0  0  0  0  0  0  0  0  0  0  0  0
   58.6799   31.4412   47.5622 H   0  0  0  0  0  0  0  0  0  0  0  0
   60.4620   30.2789   45.4523 H   0  0  0  0  0  0  0  0  0  0  0  0
   60.7991   31.9507   45.9604 H   0  0  0  0  0  0  0  0  0  0  0  0
  1  2  1  0
  2  3  1  0
  3  4  2  0
  4  5  1  0
  5  6  2  0
  6  7  1  0
  7  8  1  0
  8  9  1  0
  7 10  2  0
 10 11  1  0
 11 12  1  0
  6 13  1  0
 13 14  1  0
 14 15  2  0
 15 16  1  0
 16 17  2  0
 16 18  1  0
 18 19  1  0
 19 20  1  0
 18 21  2  0
 21 22  1  0
 22 23  1  0
 23 24  1  0
 24 25  1  0
 25 26  1  0
 25 27  2  0
 23 28  1  0
 28 29  1  0
 10  3  1  0
 22 13  2  0
 29  5  1  0
  1 30  1  0
  1 31  1  0
  1 32  1  0
  4 33  1  0
  9 34  1  0
  9 35  1  0
  9 36  1  0
 12 37  1  0
 12 38  1  0
 12 39  1  0
 14 40  1  0
 15 41  1  0
 20 42  1  0
 20 43  1  0
 20 44  1  0
 21 45  1  0
 23 46  1  1
 24 47  1  0
 26 48  1  0
 26 49  1  0
 26 50  1  0
 28 51  1  0
 28 52  1  0
 29 53  1  0
 29 54  1  0
M  END
>  <UniqueID>  (18) 
18

>  <SMILES>  (18) 
COc1cc2c(c(OC)c1OC)-c1ccc(=O)c(OC)cc1[C@H](NC(C)=O)CC2

>  <Energy>  (18) 
115.1211576495464

>  <Genealogy>  (18) 
COc1cc2c(c(OC)c1OC)-c1ccc(=O)c(OC)cc1[C@H](NC(C)=O)CC2 (chirality)
COc1cc2c(c(OC)c1OC)-c1ccc(=O)c(OC)cc1[C@H](NC(C)=O)CC2 (3D coordinates assigned)
COc1cc2c(c(OC)c1OC)-c1ccc(=O)c(OC)cc1[C@H](NC(C)=O)CC2 (nonaromatic ring conformer: 115.1211576495464 kcal/mol)

>  <smiles>  (18) 
COc1cc2c(c(OC)c1OC)-c1ccc(=O)c(OC)cc1C(NC(C)=O)CC2

>  <score_type>  (18) 
oracle

>  <origin>  (18) 
adg

>  <m_score__min__energy>  (18) 
-5.2699999999999996

>  <m_primary>  (18) 
energy

$$$$
18:0
     RDKit          3D

 42 44  0  0  0  0  0  0  0  0999 V2000
   55.8100   29.7220   43.3710 C   0  0  0  0  0  0  0  0  0  0  0  0
   55.7900   29.5940   44.8310 N   0  0  0  0  0  0  0  0  0  0  0  0
   57.0500   29.0280   45.3530 C   0  0  0  0  0  0  0  0  0  0  0  0
   58.1820   30.0730   45.4730 C   0  0  2  0  0  0  0  0  0  0  0  0
   58.7710   30.1270   46.8950 C   0  0  0  0  0  0  0  0  0  0  0  0
   59.7240   31.2320   47.0150 N   0  0  0  0  0  0  0  0  0  0  0  0
   59.4940   32.4870   46.3480 C   0  0  0  0  0  0  0  0  0  0  0  0
   60.2600   33.6410   46.6300 C   0  0  0  0  0  0  0  0  0  0  0  0
   61.4280   33.6080   47.5370 C   0  0  0  0  0  0  0  0  0  0  0  0
   62.6990   33.2820   47.0390 C   0  0  0  0  0  0  0  0  0  0  0  0
   63.8000   33.2290   47.8990 C   0  0  0  0  0  0  0  0  0  0  0  0
   63.6500   33.4900   49.2660 C   0  0  0  0  0  0  0  0  0  0  0  0
   64.7860   33.4270   50.0870 O   0  0  0  0  0  0  0  0  0  0  0  0
   64.8410   33.9180   51.4210 C   0  0  0  0  0  0  0  0  0  0  0  0
   62.3720   33.8060   49.7680 C   0  0  0  0  0  0  0  0  0  0  0  0
   61.2700   33.8570   48.9080 C   0  0  0  0  0  0  0  0  0  0  0  0
   59.9080   34.8540   46.0210 C   0  0  0  0  0  0  0  0  0  0  0  0
   58.8320   34.9000   45.1340 C   0  0  0  0  0  0  0  0  0  0  0  0
   58.1290   33.7730   44.8490 N   0  0  0  0  0  0  0  0  0  0  0  0
   58.4400   32.5770   45.4240 C   0  0  0  0  0  0  0  0  0  0  0  0
   57.6850   31.4020   45.1010 N   0  0  0  0  0  0  0  0  0  0  0  0
   55.9745   30.7747   43.0974 H   0  0  0  0  0  0  0  0  0  0  0  0
   56.6226   29.1050   42.9599 H   0  0  0  0  0  0  0  0  0  0  0  0
   54.8479   29.3824   42.9599 H   0  0  0  0  0  0  0  0  0  0  0  0
   55.5900   30.5330   45.2490 H   0  0  0  0  0  0  0  0  0  0  0  0
   56.8570   28.6054   46.3501 H   0  0  0  0  0  0  0  0  0  0  0  0
   57.3858   28.2624   44.6381 H   0  0  0  0  0  0  0  0  0  0  0  0
   58.9829   29.7651   44.7847 H   0  0  0  0  0  0  0  0  0  0  0  0
   57.9557   30.2722   47.6190 H   0  0  0  0  0  0  0  0  0  0  0  0
   59.2957   29.1818   47.0983 H   0  0  0  0  0  0  0  0  0  0  0  0
   60.4540   31.1500   47.7560 H   0  0  0  0  0  0  0  0  0  0  0  0
   62.8294   33.0674   45.9680 H   0  0  0  0  0  0  0  0  0  0  0  0
   64.7934   32.9799   47.4976 H   0  0  0  0  0  0  0  0  0  0  0  0
   64.7469   33.0781   52.1250 H   0  0  0  0  0  0  0  0  0  0  0  0
   65.8019   34.4278   51.5847 H   0  0  0  0  0  0  0  0  0  0  0  0
   64.0167   34.6278   51.5847 H   0  0  0  0  0  0  0  0  0  0  0  0
   62.2404   34.0134   50.8402 H   0  0  0  0  0  0  0  0  0  0  0  0
   60.2736   34.0938   49.3095 H   0  0  0  0  0  0  0  0  0  0  0  0
   60.4792   35.7677   46.2422 H   0  0  0  0  0  0  0  0  0  0  0  0
   58.5515   35.8537   44.6630 H   0  0  0  0  0  0  0  0  0  0  0  0
   57.3360   33.8330   44.1720 H   0  0  0  0  0  0  0  0  0  0  0  0
   56.8140   31.4980   44.5300 H   0  0  0  0  0  0  0  0  0  0  0  0
  1  2  1  0
  2  3  1  0
  3  4  1  0
  4  5  1  0
  5  6  1  0
  6  7  1  0
  7  8  2  0
  8  9  1  0
  9 10  2  0
 10 11  1  0
 11 12  2  0
 12 13  1  0
 13 14  1  0
 12 15  1  0
 15 16  2  0
  8 17  1  0
 17 18  2  0
 18 19  1  0
 19 20  2  0
 20 21  1  0
 21  4  1  0
 20  7  1  0
 16  9  1  0
  1 22  1  0
  1 23  1  0
  1 24  1  0
  2 25  1  0
  3 26  1  0
  3 27  1  0
  4 28  1  6
  5 29  1  0
  5 30  1  0
  6 31  1  0
 10 32  1  0
 11 33  1  0
 14 34  1  0
 14 35  1  0
 14 36  1  0
 15 37  1  0
 16 38  1  0
 17 39  1  0
 18 40  1  0
 19 41  1  0
 21 42  1  0
M  CHG  1  19   1
M  END
>  <UniqueID>  (19) 
19

>  <SMILES>  (19) 
CNC[C@@H]1CNc2c(-c3ccc(OC)cc3)cc[nH+]c2N1

>  <Energy>  (19) 
51.065145732893555

>  <Genealogy>  (19) 
CNCC1CNc2c(-c3ccc(OC)cc3)cc[nH+]c2N1 (protonated)
CNC[C@@H]1CNc2c(-c3ccc(OC)cc3)cc[nH+]c2N1 (chirality)
CNC[C@@H]1CNc2c(-c3ccc(OC)cc3)cc[nH+]c2N1 (3D coordinates assigned)
CNC[C@@H]1CNc2c(-c3ccc(OC)cc3)cc[nH+]c2N1 (nonaromatic ring conformer: 51.065145732893555 kcal/mol)

>  <smiles>  (19) 
CNCC1CNc2c(-c3ccc(OC)cc3)ccnc2N1

>  <score_type>  (19) 
oracle

>  <origin>  (19) 
adg

>  <m_score__min__energy>  (19) 
-5.4100000000000001

>  <m_primary>  (19) 
energy

$$$$
19:0
     RDKit          3D

 51 53  0  0  0  0  0  0  0  0999 V2000
   56.3020   30.0460   43.3180 C   0  0  0  0  0  0  0  0  0  0  0  0
   57.2850   31.0960   43.8180 C   0  0  0  0  0  0  0  0  0  0  0  0
   56.7060   31.8090   44.8990 O   0  0  0  0  0  0  0  0  0  0  0  0
   57.0720   33.1760   44.8790 C   0  0  0  0  0  0  0  0  0  0  0  0
   58.1260   33.4630   45.9160 C   0  0  0  0  0  0  0  0  0  0  0  0
   59.3530   34.0700   45.5430 C   0  0  0  0  0  0  0  0  0  0  0  0
   60.3560   34.3020   46.5010 C   0  0  0  0  0  0  0  0  0  0  0  0
   60.1040   33.9080   47.8160 C   0  0  0  0  0  0  0  0  0  0  0  0
   58.9240   33.3290   48.1790 C   0  0  0  0  0  0  0  0  0  0  0  0
   57.9070   33.0870   47.2600 C   0  0  0  0  0  0  0  0  0  0  0  0
   58.9150   33.0600   49.4960 N   0  0  0  0  0  0  0  0  0  0  0  0
   60.1370   33.4870   49.9080 C   0  0  0  0  0  0  0  0  0  0  0  0
   60.5430   33.4460   51.3530 C   0  0  0  0  0  0  0  0  0  0  0  0
   59.3640   33.7960   52.2530 C   0  0  0  0  0  0  0  0  0  0  0  0
   60.8900   34.0170   48.9020 N   0  0  0  0  0  0  0  0  0  0  0  0
   62.2530   34.5590   48.9630 C   0  0  0  0  0  0  0  0  0  0  0  0
   63.1390   33.9880   47.8350 C   0  0  0  0  0  0  0  0  0  0  0  0
   63.9040   32.7840   48.2450 N   0  0  0  0  0  0  0  0  0  0  0  0
   64.6710   33.0730   49.4810 C   0  0  0  0  0  0  0  0  0  0  0  0
   65.0640   31.7700   50.2000 C   0  0  0  0  0  0  0  0  0  0  0  0
   63.9590   30.9680   50.5980 O   0  0  0  0  0  0  0  0  0  0  0  0
   62.7680   31.2400   49.8750 C   0  0  0  0  0  0  0  0  0  0  0  0
   63.0260   31.5880   48.3990 C   0  0  0  0  0  0  0  0  0  0  0  0
   55.8326   29.5446   44.1772 H   0  0  0  0  0  0  0  0  0  0  0  0
   55.5260   30.5313   42.7078 H   0  0  0  0  0  0  0  0  0  0  0  0
   56.8373   29.3036   42.7078 H   0  0  0  0  0  0  0  0  0  0  0  0
   58.2079   30.6025   44.1567 H   0  0  0  0  0  0  0  0  0  0  0  0
   57.5212   31.7951   43.0022 H   0  0  0  0  0  0  0  0  0  0  0  0
   57.4668   33.4291   43.8840 H   0  0  0  0  0  0  0  0  0  0  0  0
   56.1822   33.7824   45.1036 H   0  0  0  0  0  0  0  0  0  0  0  0
   59.5211   34.3615   44.4957 H   0  0  0  0  0  0  0  0  0  0  0  0
   61.3078   34.7783   46.2231 H   0  0  0  0  0  0  0  0  0  0  0  0
   56.9620   32.6175   47.5706 H   0  0  0  0  0  0  0  0  0  0  0  0
   60.8982   32.4346   51.5999 H   0  0  0  0  0  0  0  0  0  0  0  0
   61.3440   34.1819   51.5167 H   0  0  0  0  0  0  0  0  0  0  0  0
   59.6675   33.7059   53.3065 H   0  0  0  0  0  0  0  0  0  0  0  0
   59.0424   34.8284   52.0511 H   0  0  0  0  0  0  0  0  0  0  0  0
   58.5312   33.1064   52.0511 H   0  0  0  0  0  0  0  0  0  0  0  0
   62.2074   35.6535   48.8626 H   0  0  0  0  0  0  0  0  0  0  0  0
   62.6957   34.2728   49.9285 H   0  0  0  0  0  0  0  0  0  0  0  0
   62.4937   33.7197   46.9855 H   0  0  0  0  0  0  0  0  0  0  0  0
   63.8706   34.7651   47.5689 H   0  0  0  0  0  0  0  0  0  0  0  0
   64.6110   32.5690   47.5030 H   0  0  0  0  0  0  0  0  0  0  0  0
   65.5832   33.6283   49.2174 H   0  0  0  0  0  0  0  0  0  0  0  0
   64.0395   33.6701   50.1553 H   0  0  0  0  0  0  0  0  0  0  0  0
   65.6935   31.1771   49.5201 H   0  0  0  0  0  0  0  0  0  0  0  0
   65.5899   32.0631   51.1206 H   0  0  0  0  0  0  0  0  0  0  0  0
   62.1216   30.3510   49.9175 H   0  0  0  0  0  0  0  0  0  0  0  0
   62.2934   32.1161   50.3411 H   0  0  0  0  0  0  0  0  0  0  0  0
   63.5102   30.7286   47.9122 H   0  0  0  0  0  0  0  0  0  0  0  0
   62.0568   31.8196   47.9332 H   0  0  0  0  0  0  0  0  0  0  0  0
  1  2  1  0
  2  3  1  0
  3  4  1  0
  4  5  1  0
  5  6  2  0
  6  7  1  0
  7  8  2  0
  8  9  1  0
  9 10  2  0
  9 11  1  0
 11 12  2  0
 12 13  1  0
 13 14  1  0
 12 15  1  0
 15 16  1  0
 16 17  1  0
 17 18  1  0
 18 19  1  0
 19 20  1  0
 20 21  1  0
 21 22  1  0
 22 23  1  0
 10  5  1  0
 23 18  1  0
 15  8  1  0
  1 24  1  0
  1 25  1  0
  1 26  1  0
  2 27  1  0
  2 28  1  0
  4 29  1  0
  4 30  1  0
  6 31  1  0
  7 32  1  0
 10 33  1  0
 13 34  1  0
 13 35  1  0
 14 36  1  0
 14 37  1  0
 14 38  1  0
 16 39  1  0
 16 40  1  0
 17 41  1  0
 17 42  1  0
 18 43  1  0
 19 44  1  0
 19 45  1  0
 20 46  1  0
 20 47  1  0
 22 48  1  0
 22 49  1  0
 23 50  1  0
 23 51  1  0
M  CHG  1  18   1
M  END
>  <UniqueID>  (20) 
20

>  <SMILES>  (20) 
CCOCc1ccc2c(c1)nc(CC)n2CC[NH+]1CCOCC1

>  <Energy>  (20) 
98.19026291150172

>  <Genealogy>  (20) 
CCOCc1ccc2c(c1)nc(CC)n2CC[NH+]1CCOCC1 (protonated)
CCOCc1ccc2c(c1)nc(CC)n2CC[NH+]1CCOCC1 (3D coordinates assigned)
CCOCc1ccc2c(c1)nc(CC)n2CC[NH+]1CCOCC1 (nonaromatic ring conformer: 98.19026291150172 kcal/mol)

>  <smiles>  (20) 
CCOCc1ccc2c(c1)nc(CC)n2CCN1CCOCC1

>  <score_type>  (20) 
oracle

>  <origin>  (20) 
adg

>  <m_score__min__energy>  (20) 
-5.8700000000000001

>  <m_primary>  (20) 
energy

$$$$
20:0
     RDKit          3D

 50 53  0  0  0  0  0  0  0  0999 V2000
   61.2470   33.6290   51.0340 C   0  0  0  0  0  0  0  0  0  0  0  0
   60.5720   33.6500   49.7440 N   0  0  0  0  0  0  0  0  0  0  0  0
   60.8200   34.5560   48.8000 N   0  0  0  0  0  0  0  0  0  0  0  0
   59.9560   34.2660   47.8110 C   0  0  0  0  0  0  0  0  0  0  0  0
   59.7800   34.9070   46.5890 C   0  0  0  0  0  0  0  0  0  0  0  0
   58.7810   34.4050   45.7320 C   0  0  0  0  0  0  0  0  0  0  0  0
   57.9900   33.2850   46.1130 C   0  0  0  0  0  0  0  0  0  0  0  0
   56.9140   32.7800   45.1890 C   0  0  0  0  0  0  0  0  0  0  0  0
   57.1300   31.3500   44.8650 N   0  0  0  0  0  0  0  0  0  0  0  0
   58.4310   31.1560   44.1790 C   0  0  0  0  0  0  0  0  0  0  0  0
   58.9580   29.7130   44.2680 C   0  0  0  0  0  0  0  0  0  0  0  0
   57.9840   28.6200   43.7760 C   0  0  0  0  0  0  0  0  0  0  0  0
   56.8140   28.4450   44.6590 N   0  0  0  0  0  0  0  0  0  0  0  0
   56.8830   27.5780   45.8160 C   0  0  0  0  0  0  0  0  0  0  0  0
   55.9110   26.8220   46.0860 O   0  0  0  0  0  0  0  0  0  0  0  0
   58.0580   27.5540   46.7150 C   0  0  0  0  0  0  0  0  0  0  0  0
   58.7310   26.3490   46.9900 C   0  0  0  0  0  0  0  0  0  0  0  0
   58.2960   25.1750   46.4660 F   0  0  0  0  0  0  0  0  0  0  0  0
   59.8390   26.3420   47.8430 C   0  0  0  0  0  0  0  0  0  0  0  0
   60.2790   27.5280   48.4330 C   0  0  0  0  0  0  0  0  0  0  0  0
   59.6060   28.7260   48.1790 C   0  0  0  0  0  0  0  0  0  0  0  0
   58.4970   28.7410   47.3280 C   0  0  0  0  0  0  0  0  0  0  0  0
   57.8660   29.9190   47.0850 F   0  0  0  0  0  0  0  0  0  0  0  0
   55.6320   29.3230   44.5320 C   0  0  0  0  0  0  0  0  0  0  0  0
   55.9680   30.7790   44.1400 C   0  0  0  0  0  0  0  0  0  0  0  0
   58.1980   32.6710   47.3700 C   0  0  0  0  0  0  0  0  0  0  0  0
   59.1960   33.1980   48.1830 C   0  0  0  0  0  0  0  0  0  0  0  0
   59.5880   32.8210   49.4050 N   0  0  0  0  0  0  0  0  0  0  0  0
   60.4986   33.6523   51.8398 H   0  0  0  0  0  0  0  0  0  0  0  0
   61.8482   32.7117   51.1183 H   0  0  0  0  0  0  0  0  0  0  0  0
   61.9041   34.5071   51.1183 H   0  0  0  0  0  0  0  0  0  0  0  0
   60.3967   35.7719   46.3031 H   0  0  0  0  0  0  0  0  0  0  0  0
   58.6103   34.8844   44.7568 H   0  0  0  0  0  0  0  0  0  0  0  0
   55.9352   32.8957   45.6774 H   0  0  0  0  0  0  0  0  0  0  0  0
   56.9467   33.3626   44.2565 H   0  0  0  0  0  0  0  0  0  0  0  0
   58.3083   31.4178   43.1177 H   0  0  0  0  0  0  0  0  0  0  0  0
   59.1645   31.8019   44.6838 H   0  0  0  0  0  0  0  0  0  0  0  0
   59.8742   29.6485   43.6627 H   0  0  0  0  0  0  0  0  0  0  0  0
   59.1199   29.5151   45.3379 H   0  0  0  0  0  0  0  0  0  0  0  0
   57.6270   28.8955   42.7727 H   0  0  0  0  0  0  0  0  0  0  0  0
   58.5355   27.6683   43.7708 H   0  0  0  0  0  0  0  0  0  0  0  0
   60.3656   25.3987   48.0497 H   0  0  0  0  0  0  0  0  0  0  0  0
   61.1554   27.5196   49.0978 H   0  0  0  0  0  0  0  0  0  0  0  0
   59.9495   29.6590   48.6496 H   0  0  0  0  0  0  0  0  0  0  0  0
   54.9697   28.9017   43.7614 H   0  0  0  0  0  0  0  0  0  0  0  0
   55.1578   29.3625   45.5237 H   0  0  0  0  0  0  0  0  0  0  0  0
   56.1869   30.8046   43.0623 H   0  0  0  0  0  0  0  0  0  0  0  0
   55.0942   31.3897   44.4113 H   0  0  0  0  0  0  0  0  0  0  0  0
   57.5939   31.8100   47.6922 H   0  0  0  0  0  0  0  0  0  0  0  0
   59.2040   32.0470   49.9940 H   0  0  0  0  0  0  0  0  0  0  0  0
  1  2  1  0
  2  3  1  0
  3  4  2  0
  4  5  1  0
  5  6  2  0
  6  7  1  0
  7  8  1  0
  8  9  1  0
  9 10  1  0
 10 11  1  0
 11 12  1  0
 12 13  1  0
 13 14  1  0
 14 15  2  0
 14 16  1  0
 16 17  2  0
 17 18  1  0
 17 19  1  0
 19 20  2  0
 20 21  1  0
 21 22  2  0
 22 23  1  0
 13 24  1  0
 24 25  1  0
  7 26  2  0
 26 27  1  0
 27 28  2  0
 28  2  1  0
 27  4  1  0
 25  9  1  0
 22 16  1  0
  1 29  1  0
  1 30  1  0
  1 31  1  0
  5 32  1  0
  6 33  1  0
  8 34  1  0
  8 35  1  0
 10 36  1  0
 10 37  1  0
 11 38  1  0
 11 39  1  0
 12 40  1  0
 12 41  1  0
 19 42  1  0
 20 43  1  0
 21 44  1  0
 24 45  1  0
 24 46  1  0
 25 47  1  0
 25 48  1  0
 26 49  1  0
 28 50  1  0
M  CHG  1  28   1
M  END
>  <UniqueID>  (21) 
21

>  <SMILES>  (21) 
Cn1nc2ccc(CN3CCCN(C(=O)c4c(F)cccc4F)CC3)cc2[nH+]1

>  <Energy>  (21) 
115.3124998549748

>  <Genealogy>  (21) 
Cn1nc2ccc(CN3CCCN(C(=O)c4c(F)cccc4F)CC3)cc2[nH+]1 (protonated)
Cn1nc2ccc(CN3CCCN(C(=O)c4c(F)cccc4F)CC3)cc2[nH+]1 (3D coordinates assigned)
Cn1nc2ccc(CN3CCCN(C(=O)c4c(F)cccc4F)CC3)cc2[nH+]1 (nonaromatic ring conformer: 115.3124998549748 kcal/mol)

>  <smiles>  (21) 
Cn1nc2ccc(CN3CCCN(C(=O)c4c(F)cccc4F)CC3)cc2n1

>  <score_type>  (21) 
oracle

>  <origin>  (21) 
adg

>  <m_score__min__energy>  (21) 
-5.4500000000000002

>  <m_primary>  (21) 
energy

$$$$
21:0
     RDKit          3D

 50 51  0  0  0  0  0  0  0  0999 V2000
   57.2000   28.2748   47.7952 H   0  0  0  0  0  0  0  0  0  0  0  0
   58.1620   28.3330   47.2650 C   0  0  0  0  0  0  0  0  0  0  0  0
   58.7950   29.5300   47.1410 N   0  0  0  0  0  0  0  0  0  0  0  0
   59.9790   29.6650   46.4850 C   0  0  0  0  0  0  0  0  0  0  0  0
   60.5250   30.8470   46.4260 N   0  0  0  0  0  0  0  0  0  0  0  0
   60.7980   31.7570   47.5460 C   0  0  1  0  0  0  0  0  0  0  0  0
   60.7412   31.1525   48.4632 H   0  0  0  0  0  0  0  0  0  0  0  0
   62.1650   32.4260   47.3740 C   0  0  0  0  0  0  0  0  0  0  0  0
   62.8119   31.8065   46.7355 H   0  0  0  0  0  0  0  0  0  0  0  0
   62.6688   32.5483   48.3442 H   0  0  0  0  0  0  0  0  0  0  0  0
   61.9150   33.7810   46.7120 C   0  0  0  0  0  0  0  0  0  0  0  0
   62.3749   33.8051   45.7131 H   0  0  0  0  0  0  0  0  0  0  0  0
   62.3560   34.5968   47.3036 H   0  0  0  0  0  0  0  0  0  0  0  0
   60.4040   33.9430   46.5980 C   0  0  0  0  0  0  0  0  0  0  0  0
   60.0755   33.7476   45.5666 H   0  0  0  0  0  0  0  0  0  0  0  0
   60.0882   34.9654   46.8529 H   0  0  0  0  0  0  0  0  0  0  0  0
   59.7980   32.9180   47.5500 C   0  0  1  0  0  0  0  0  0  0  0  0
   59.6491   33.3105   48.5667 H   0  0  0  0  0  0  0  0  0  0  0  0
   58.4480   32.5160   47.1080 N   0  0  0  0  0  0  0  0  0  0  0  0
   58.5030   31.5900   46.6230 H   0  0  0  0  0  0  0  0  0  0  0  0
   57.8120   33.5020   46.2130 C   0  0  0  0  0  0  0  0  0  0  0  0
   58.5244   34.3201   46.0307 H   0  0  0  0  0  0  0  0  0  0  0  0
   56.8976   33.8559   46.7116 H   0  0  0  0  0  0  0  0  0  0  0  0
   57.3950   32.9060   44.8600 C   0  0  0  0  0  0  0  0  0  0  0  0
   58.2383   32.9719   44.1568 H   0  0  0  0  0  0  0  0  0  0  0  0
   56.5369   33.4694   44.4646 H   0  0  0  0  0  0  0  0  0  0  0  0
   57.0270   31.5520   45.0250 O   0  0  0  0  0  0  0  0  0  0  0  0
   56.7270   30.9620   43.7750 C   0  0  0  0  0  0  0  0  0  0  0  0
   57.6634   30.6797   43.2715 H   0  0  0  0  0  0  0  0  0  0  0  0
   56.1746   31.6858   43.1578 H   0  0  0  0  0  0  0  0  0  0  0  0
   55.8640   29.7130   43.9780 C   0  0  0  0  0  0  0  0  0  0  0  0
   55.4328   29.4097   43.0125 H   0  0  0  0  0  0  0  0  0  0  0  0
   55.0622   29.9463   44.6940 H   0  0  0  0  0  0  0  0  0  0  0  0
   56.6450   28.6510   44.4940 O   0  0  0  0  0  0  0  0  0  0  0  0
   57.8820   28.5390   43.8140 C   0  0  0  0  0  0  0  0  0  0  0  0
   58.7027   28.7319   44.5206 H   0  0  0  0  0  0  0  0  0  0  0  0
   57.9070   29.2737   42.9957 H   0  0  0  0  0  0  0  0  0  0  0  0
   58.0420   27.1410   43.2280 C   0  0  0  0  0  0  0  0  0  0  0  0
   58.1258   26.4086   44.0444 H   0  0  0  0  0  0  0  0  0  0  0  0
   57.1655   26.9006   42.6083 H   0  0  0  0  0  0  0  0  0  0  0  0
   58.9501   27.1049   42.6083 H   0  0  0  0  0  0  0  0  0  0  0  0
   60.5680   28.5280   45.8980 C   0  0  0  0  0  0  0  0  0  0  0  0
   61.5195   28.6159   45.3530 H   0  0  0  0  0  0  0  0  0  0  0  0
   59.9350   27.2880   46.0130 C   0  0  0  0  0  0  0  0  0  0  0  0
   60.3841   26.3987   45.5467 H   0  0  0  0  0  0  0  0  0  0  0  0
   58.7300   27.1720   46.7200 C   0  0  0  0  0  0  0  0  0  0  0  0
   58.0290   25.8390   46.8050 C   0  0  0  0  0  0  0  0  0  0  0  0
   58.1300   25.3310   48.0890 F   0  0  0  0  0  0  0  0  0  0  0  0
   58.6200   24.9550   45.9220 F   0  0  0  0  0  0  0  0  0  0  0  0
   56.6870   25.9620   46.4890 F   0  0  0  0  0  0  0  0  0  0  0  0
  1  2  1  0
  2  3  1  0
  3  4  1  0
  4  5  2  0
  5  6  1  0
  6  7  1  1
  6  8  1  0
  8  9  1  0
  8 10  1  0
  8 11  1  0
 11 12  1  0
 11 13  1  0
 11 14  1  0
 14 15  1  0
 14 16  1  0
 14 17  1  0
 17 18  1  1
 17 19  1  0
 19 20  1  0
 19 21  1  0
 21 22  1  0
 21 23  1  0
 21 24  1  0
 24 25  1  0
 24 26  1  0
 24 27  1  0
 27 28  1  0
 28 29  1  0
 28 30  1  0
 28 31  1  0
 31 32  1  0
 31 33  1  0
 31 34  1  0
 34 35  1  0
 35 36  1  0
 35 37  1  0
 35 38  1  0
 38 39  1  0
 38 40  1  0
 38 41  1  0
  4 42  1  0
 42 43  1  0
 42 44  2  0
 44 45  1  0
 44 46  1  0
 46 47  1  0
 47 48  1  0
 47 49  1  0
 47 50  1  0
 46  2  2  0
 17  6  1  0
M  CHG  1   3  -1
M  END
>  <UniqueID>  (22) 
22

>  <SMILES>  (22) 
CCOCCOCCN[C@@H]1CCC[C@@H]1/N=c1\ccc(C(F)(F)F)c[n-]1

>  <Energy>  (22) 
54.295253559101376

>  <Genealogy>  (22) 
CCOCCOCCNC1CCCC1N=c1ccc(C(F)(F)F)c[n-]1 (protonated)
CCOCCOCCN[C@@H]1CCC[C@@H]1N=c1ccc(C(F)(F)F)c[n-]1 (chirality)
CCOCCOCCN[C@@H]1CCC[C@@H]1/N=c1\ccc(C(F)(F)F)c[n-]1 (cis-trans isomerization)
CCOCCOCCN[C@@H]1CCC[C@@H]1/N=c1\ccc(C(F)(F)F)c[n-]1 (3D coordinates assigned)
CCOCCOCCN[C@@H]1CCC[C@@H]1/N=c1\ccc(C(F)(F)F)c[n-]1 (nonaromatic ring conformer: 54.295253559101376 kcal/mol)

>  <smiles>  (22) 
CCOCCOCCNC1CCCC1N=c1ccc(C(F)(F)F)c[nH]1

>  <score_type>  (22) 
oracle

>  <origin>  (22) 
adg

>  <m_score__min__energy>  (22) 
-8.8100000000000005

>  <m_primary>  (22) 
energy

$$$$
22:0
     RDKit          3D

 17 17  0  0  0  0  0  0  0  0999 V2000
   56.3170   26.5040   45.9670 C   0  0  0  0  0  0  0  0  0  0  0  0
   57.3040   27.5270   45.4720 C   0  0  0  0  0  0  0  0  0  0  0  0
   58.6720   27.2040   45.4600 C   0  0  0  0  0  0  0  0  0  0  0  0
   59.6140   28.1250   45.0080 C   0  0  0  0  0  0  0  0  0  0  0  0
   59.2080   29.3800   44.5620 C   0  0  0  0  0  0  0  0  0  0  0  0
   57.8530   29.7270   44.5610 C   0  0  0  0  0  0  0  0  0  0  0  0
   57.3880   31.4760   43.9280 Br  0  0  0  0  0  0  0  0  0  0  0  0
   56.8830   28.8040   45.0170 C   0  0  0  0  0  0  0  0  0  0  0  0
   55.4910   29.1590   45.0180 N   0  0  0  0  0  0  0  0  0  0  0  0
   56.3134   26.5002   47.0670 H   0  0  0  0  0  0  0  0  0  0  0  0
   55.3118   26.7557   45.5979 H   0  0  0  0  0  0  0  0  0  0  0  0
   56.6045   25.5085   45.5979 H   0  0  0  0  0  0  0  0  0  0  0  0
   59.0016   26.2149   45.8108 H   0  0  0  0  0  0  0  0  0  0  0  0
   60.6816   27.8602   45.0034 H   0  0  0  0  0  0  0  0  0  0  0  0
   59.9576   30.1031   44.2082 H   0  0  0  0  0  0  0  0  0  0  0  0
   54.7770   28.5920   44.5110 H   0  0  0  0  0  0  0  0  0  0  0  0
   55.1330   29.9990   45.5240 H   0  0  0  0  0  0  0  0  0  0  0  0
  1  2  1  0
  2  3  2  0
  3  4  1  0
  4  5  2  0
  5  6  1  0
  6  7  1  0
  6  8  2  0
  8  9  1  0
  8  2  1  0
  1 10  1  0
  1 11  1  0
  1 12  1  0
  3 13  1  0
  4 14  1  0
  5 15  1  0
  9 16  1  0
  9 17  1  0
M  END
>  <UniqueID>  (23) 
23

>  <SMILES>  (23) 
Cc1cccc(Br)c1N

>  <Energy>  (23) 
17.364012148650996

>  <Genealogy>  (23) 
Cc1cccc(Br)c1N (3D coordinates assigned)
Cc1cccc(Br)c1N (optimized conformer: 17.364012148650996 kcal/mol)

>  <smiles>  (23) 
Cc1cccc(Br)c1N

>  <score_type>  (23) 
oracle

>  <origin>  (23) 
adg

>  <m_score__min__energy>  (23) 
-5.1399999999999997

>  <m_primary>  (23) 
energy

$$$$
23:0
     RDKit          3D

 28 29  0  0  0  0  0  0  0  0999 V2000
   56.2610   29.7160   42.6860 C   0  0  0  0  0  0  0  0  0  0  0  0
   55.5940   30.1190   43.9920 C   0  0  0  0  0  0  0  0  0  0  0  0
   55.5220   28.9620   44.8800 N   0  0  0  0  0  0  0  0  0  0  0  0
   57.1240   28.4670   45.3350 S   0  0  0  0  0  0  0  0  0  0  0  0
   57.8330   27.8870   44.1420 O   0  0  0  0  0  0  0  0  0  0  0  0
   57.0300   27.4060   46.3940 O   0  0  0  0  0  0  0  0  0  0  0  0
   58.0260   29.8390   45.9740 C   0  0  0  0  0  0  0  0  0  0  0  0
   58.5790   29.7930   47.2610 C   0  0  0  0  0  0  0  0  0  0  0  0
   59.3130   30.8770   47.7490 C   0  0  0  0  0  0  0  0  0  0  0  0
   59.5040   32.0120   46.9540 C   0  0  0  0  0  0  0  0  0  0  0  0
   58.9210   32.0820   45.6750 C   0  0  0  0  0  0  0  0  0  0  0  0
   58.2000   30.9830   45.1830 C   0  0  0  0  0  0  0  0  0  0  0  0
   58.9850   33.2960   44.9100 N   0  0  0  0  0  0  0  0  0  0  0  0
   59.2250   34.5650   45.5340 C   0  0  0  0  0  0  0  0  0  0  0  0
   59.2320   35.6140   44.8360 O   0  0  0  0  0  0  0  0  0  0  0  0
   59.4150   34.6560   47.0190 C   0  0  0  0  0  0  0  0  0  0  0  0
   60.5570   33.3430   47.5490 S   0  0  0  0  0  0  0  0  0  0  0  0
   57.1841   29.1583   42.9026 H   0  0  0  0  0  0  0  0  0  0  0  0
   55.5762   29.0804   42.1054 H   0  0  0  0  0  0  0  0  0  0  0  0
   56.5051   30.6178   42.1054 H   0  0  0  0  0  0  0  0  0  0  0  0
   56.1817   30.9145   44.4735 H   0  0  0  0  0  0  0  0  0  0  0  0
   54.5779   30.4866   43.7862 H   0  0  0  0  0  0  0  0  0  0  0  0
   58.4347   28.9011   47.8885 H   0  0  0  0  0  0  0  0  0  0  0  0
   59.7419   30.8378   48.7612 H   0  0  0  0  0  0  0  0  0  0  0  0
   57.7693   31.0196   44.1715 H   0  0  0  0  0  0  0  0  0  0  0  0
   58.7430   33.2750   43.8940 H   0  0  0  0  0  0  0  0  0  0  0  0
   59.8365   35.6385   47.2777 H   0  0  0  0  0  0  0  0  0  0  0  0
   58.4467   34.5347   47.5266 H   0  0  0  0  0  0  0  0  0  0  0  0
  1  2  1  0
  2  3  1  0
  3  4  1  0
  4  5  2  0
  4  6  2  0
  4  7  1  0
  7  8  2  0
  8  9  1  0
  9 10  2  0
 10 11  1  0
 11 12  2  0
 11 13  1  0
 13 14  1  0
 14 15  2  0
 14 16  1  0
 16 17  1  0
 12  7  1  0
 17 10  1  0
  1 18  1  0
  1 19  1  0
  1 20  1  0
  2 21  1  0
  2 22  1  0
  8 23  1  0
  9 24  1  0
 12 25  1  0
 13 26  1  0
 16 27  1  0
 16 28  1  0
M  CHG  1   3  -1
M  END
>  <UniqueID>  (24) 
24

>  <SMILES>  (24) 
CC[N-]S(=O)(=O)c1ccc2c(c1)NC(=O)CS2

>  <Energy>  (24) 
26.510572412371786

>  <Genealogy>  (24) 
CC[N-]S(=O)(=O)c1ccc2c(c1)NC(=O)CS2 (protonated)
CC[N-]S(=O)(=O)c1ccc2c(c1)NC(=O)CS2 (3D coordinates assigned)
CC[N-]S(=O)(=O)c1ccc2c(c1)NC(=O)CS2 (nonaromatic ring conformer: 26.510572412371786 kcal/mol)

>  <smiles>  (24) 
CCNS(=O)(=O)c1ccc2c(c1)NC(=O)CS2

>  <score_type>  (24) 
oracle

>  <origin>  (24) 
adg

>  <m_score__min__energy>  (24) 
-8.1400000000000006

>  <m_primary>  (24) 
energy

$$$$
24:0
     RDKit          3D

 42 44  0  0  0  0  0  0  0  0999 V2000
   63.8540   31.8680   50.0670 C   0  0  0  0  0  0  0  0  0  0  0  0
   64.4230   33.1300   49.4150 C   0  0  0  0  0  0  0  0  0  0  0  0
   63.4510   33.7520   48.4880 N   0  0  0  0  0  0  0  0  0  0  0  0
   63.3710   33.0010   47.2070 C   0  0  0  0  0  0  0  0  0  0  0  0
   62.1410   32.0900   47.1200 C   0  0  0  0  0  0  0  0  0  0  0  0
   60.9200   32.8810   47.3100 N   0  0  0  0  0  0  0  0  0  0  0  0
   59.7180   32.6050   46.5640 C   0  0  0  0  0  0  0  0  0  0  0  0
   58.9520   33.6370   46.0950 N   0  0  0  0  0  0  0  0  0  0  0  0
   57.7940   33.4220   45.3920 C   0  0  0  0  0  0  0  0  0  0  0  0
   57.0170   34.5840   44.8700 C   0  0  0  0  0  0  0  0  0  0  0  0
   57.3760   32.1490   45.1240 N   0  0  0  0  0  0  0  0  0  0  0  0
   58.1280   31.1210   45.5850 C   0  0  0  0  0  0  0  0  0  0  0  0
   59.2690   31.3080   46.2980 C   0  0  0  0  0  0  0  0  0  0  0  0
   59.6840   30.0340   46.6460 C   0  0  0  0  0  0  0  0  0  0  0  0
   58.8000   29.1390   46.1360 N   0  0  0  0  0  0  0  0  0  0  0  0
   57.8610   29.8090   45.4790 N   0  0  0  0  0  0  0  0  0  0  0  0
   56.6910   29.1930   44.8600 C   0  0  0  0  0  0  0  0  0  0  0  0
   56.5030   29.7230   43.4440 C   0  0  0  0  0  0  0  0  0  0  0  0
   60.9850   34.0890   48.1420 C   0  0  0  0  0  0  0  0  0  0  0  0
   62.1370   33.9780   49.1470 C   0  0  0  0  0  0  0  0  0  0  0  0
   63.8993   31.9684   51.1615 H   0  0  0  0  0  0  0  0  0  0  0  0
   62.8081   31.7333   49.7541 H   0  0  0  0  0  0  0  0  0  0  0  0
   64.4456   30.9950   49.7541 H   0  0  0  0  0  0  0  0  0  0  0  0
   64.6784   33.8542   50.2026 H   0  0  0  0  0  0  0  0  0  0  0  0
   65.3149   32.8457   48.8373 H   0  0  0  0  0  0  0  0  0  0  0  0
   63.3303   33.7242   46.3791 H   0  0  0  0  0  0  0  0  0  0  0  0
   64.2610   32.3572   47.1480 H   0  0  0  0  0  0  0  0  0  0  0  0
   62.1133   31.6079   46.1317 H   0  0  0  0  0  0  0  0  0  0  0  0
   62.2018   31.3229   47.9060 H   0  0  0  0  0  0  0  0  0  0  0  0
   56.6244   35.1711   45.7133 H   0  0  0  0  0  0  0  0  0  0  0  0
   57.6735   35.2180   44.2559 H   0  0  0  0  0  0  0  0  0  0  0  0
   56.1803   34.2195   44.2559 H   0  0  0  0  0  0  0  0  0  0  0  0
   60.5791   29.7884   47.2363 H   0  0  0  0  0  0  0  0  0  0  0  0
   56.8311   28.1025   44.8240 H   0  0  0  0  0  0  0  0  0  0  0  0
   55.7994   29.4383   45.4558 H   0  0  0  0  0  0  0  0  0  0  0  0
   56.1355   30.7590   43.4860 H   0  0  0  0  0  0  0  0  0  0  0  0
   57.4653   29.6966   42.9118 H   0  0  0  0  0  0  0  0  0  0  0  0
   55.7724   29.0961   42.9118 H   0  0  0  0  0  0  0  0  0  0  0  0
   61.1480   34.9656   47.4978 H   0  0  0  0  0  0  0  0  0  0  0  0
   60.0384   34.1977   48.6916 H   0  0  0  0  0  0  0  0  0  0  0  0
   62.1896   34.9111   49.7271 H   0  0  0  0  0  0  0  0  0  0  0  0
   61.9341   33.1103   49.7919 H   0  0  0  0  0  0  0  0  0  0  0  0
  1  2  1  0
  2  3  1  0
  3  4  1  0
  4  5  1  0
  5  6  1  0
  6  7  1  0
  7  8  2  0
  8  9  1  0
  9 10  1  0
  9 11  2  0
 11 12  1  0
 12 13  2  0
 13 14  1  0
 14 15  2  0
 15 16  1  0
 16 17  1  0
 17 18  1  0
  6 19  1  0
 19 20  1  0
 20  3  1  0
 13  7  1  0
 16 12  1  0
  1 21  1  0
  1 22  1  0
  1 23  1  0
  2 24  1  0
  2 25  1  0
  4 26  1  0
  4 27  1  0
  5 28  1  0
  5 29  1  0
 10 30  1  0
 10 31  1  0
 10 32  1  0
 14 33  1  0
 17 34  1  0
 17 35  1  0
 18 36  1  0
 18 37  1  0
 18 38  1  0
 19 39  1  0
 19 40  1  0
 20 41  1  0
 20 42  1  0
M  END
>  <UniqueID>  (25) 
25

>  <SMILES>  (25) 
CCN1CCN(c2nc(C)nc3c2cnn3CC)CC1

>  <Energy>  (25) 
88.37122585249013

>  <Genealogy>  (25) 
CCN1CCN(c2nc(C)nc3c2cnn3CC)CC1 (3D coordinates assigned)
CCN1CCN(c2nc(C)nc3c2cnn3CC)CC1 (nonaromatic ring conformer: 88.37122585249013 kcal/mol)

>  <smiles>  (25) 
CCN1CCN(c2nc(C)nc3c2cnn3CC)CC1

>  <score_type>  (25) 
oracle

>  <origin>  (25) 
adg

>  <m_score__min__energy>  (25) 
-6.1900000000000004

>  <m_primary>  (25) 
energy

$$$$
25:0
     RDKit          3D

 40 43  0  0  0  0  0  0  0  0999 V2000
   56.4740   30.6540   53.4120 C   0  0  0  0  0  0  0  0  0  0  0  0
   57.1680   30.7610   52.1360 N   0  0  0  0  0  0  0  0  0  0  0  0
   57.3800   31.8970   51.4500 C   0  0  0  0  0  0  0  0  0  0  0  0
   58.1400   31.5910   50.3330 C   0  0  0  0  0  0  0  0  0  0  0  0
   58.6250   32.5260   49.2820 C   0  0  0  0  0  0  0  0  0  0  0  0
   59.6520   33.4400   49.5630 C   0  0  0  0  0  0  0  0  0  0  0  0
   60.1130   34.3150   48.5820 C   0  0  0  0  0  0  0  0  0  0  0  0
   59.5590   34.2940   47.2950 C   0  0  0  0  0  0  0  0  0  0  0  0
   60.0370   35.1800   46.3200 C   0  0  0  0  0  0  0  0  0  0  0  0
   59.5010   35.1670   45.0360 C   0  0  0  0  0  0  0  0  0  0  0  0
   58.4850   34.2710   44.7090 C   0  0  0  0  0  0  0  0  0  0  0  0
   57.9770   33.3670   45.6620 C   0  0  0  0  0  0  0  0  0  0  0  0
   56.9390   32.4390   45.2590 N   0  0  0  0  0  0  0  0  0  0  0  0
   57.4990   31.1600   44.8860 C   0  0  0  0  0  0  0  0  0  0  0  0
   56.7430   30.2270   44.1510 C   0  0  0  0  0  0  0  0  0  0  0  0
   57.2720   29.0160   43.8270 N   0  0  0  0  0  0  0  0  0  0  0  0
   58.5260   28.6590   44.2070 C   0  0  0  0  0  0  0  0  0  0  0  0
   59.3040   29.5380   44.9610 C   0  0  0  0  0  0  0  0  0  0  0  0
   60.5510   29.1800   45.3560 F   0  0  0  0  0  0  0  0  0  0  0  0
   58.7860   30.7860   45.3090 C   0  0  0  0  0  0  0  0  0  0  0  0
   58.5210   33.3790   46.9810 C   0  0  0  0  0  0  0  0  0  0  0  0
   58.0630   32.5070   47.9920 C   0  0  0  0  0  0  0  0  0  0  0  0
   58.3620   30.2230   50.4250 C   0  0  0  0  0  0  0  0  0  0  0  0
   57.7660   29.7450   51.5360 N   0  0  0  0  0  0  0  0  0  0  0  0
   57.1973   30.7655   54.2332 H   0  0  0  0  0  0  0  0  0  0  0  0
   55.7134   31.4455   53.4832 H   0  0  0  0  0  0  0  0  0  0  0  0
   55.9871   29.6702   53.4832 H   0  0  0  0  0  0  0  0  0  0  0  0
   57.0136   32.8964   51.7274 H   0  0  0  0  0  0  0  0  0  0  0  0
   60.0977   33.4658   50.5683 H   0  0  0  0  0  0  0  0  0  0  0  0
   60.9172   35.0271   48.8192 H   0  0  0  0  0  0  0  0  0  0  0  0
   60.8397   35.8890   46.5710 H   0  0  0  0  0  0  0  0  0  0  0  0
   59.8805   35.8663   44.2765 H   0  0  0  0  0  0  0  0  0  0  0  0
   58.0728   34.2698   43.6892 H   0  0  0  0  0  0  0  0  0  0  0  0
   56.4130   32.8120   44.4330 H   0  0  0  0  0  0  0  0  0  0  0  0
   56.2320   32.3460   46.0240 H   0  0  0  0  0  0  0  0  0  0  0  0
   55.7192   30.4784   43.8370 H   0  0  0  0  0  0  0  0  0  0  0  0
   58.9285   27.6763   43.9202 H   0  0  0  0  0  0  0  0  0  0  0  0
   59.3867   31.4792   45.9162 H   0  0  0  0  0  0  0  0  0  0  0  0
   57.2515   31.7992   47.7673 H   0  0  0  0  0  0  0  0  0  0  0  0
   58.9352   29.6226   49.7033 H   0  0  0  0  0  0  0  0  0  0  0  0
  1  2  1  0
  2  3  1  0
  3  4  2  0
  4  5  1  0
  5  6  2  0
  6  7  1  0
  7  8  2  0
  8  9  1  0
  9 10  2  0
 10 11  1  0
 11 12  2  0
 12 13  1  0
 13 14  1  0
 14 15  2  0
 15 16  1  0
 16 17  2  0
 17 18  1  0
 18 19  1  0
 18 20  2  0
 12 21  1  0
 21 22  2  0
  4 23  1  0
 23 24  2  0
 24  2  1  0
 22  5  1  0
 21  8  1  0
 20 14  1  0
  1 25  1  0
  1 26  1  0
  1 27  1  0
  3 28  1  0
  6 29  1  0
  7 30  1  0
  9 31  1  0
 10 32  1  0
 11 33  1  0
 13 34  1  0
 13 35  1  0
 15 36  1  0
 17 37  1  0
 20 38  1  0
 22 39  1  0
 23 40  1  0
M  CHG  1  13   1
M  END
>  <UniqueID>  (26) 
26

>  <SMILES>  (26) 
Cn1cc(-c2ccc3cccc([NH2+]c4cncc(F)c4)c3c2)cn1

>  <Energy>  (26) 
85.03651865439743

>  <Genealogy>  (26) 
Cn1cc(-c2ccc3cccc([NH2+]c4cncc(F)c4)c3c2)cn1 (protonated)
Cn1cc(-c2ccc3cccc([NH2+]c4cncc(F)c4)c3c2)cn1 (3D coordinates assigned)
Cn1cc(-c2ccc3cccc([NH2+]c4cncc(F)c4)c3c2)cn1 (optimized conformer: 85.03651865439743 kcal/mol)

>  <smiles>  (26) 
Cn1cc(-c2ccc3cccc(Nc4cncc(F)c4)c3c2)cn1

>  <score_type>  (26) 
oracle

>  <origin>  (26) 
adg

>  <m_score__min__energy>  (26) 
-5.9900000000000002

>  <m_primary>  (26) 
energy

$$$$
26:0
     RDKit          3D

 39 40  0  0  0  0  0  0  0  0999 V2000
   63.3620   33.8490   46.5150 C   0  0  0  0  0  0  0  0  0  0  0  0
   62.3040   33.1850   47.3820 C   0  0  0  0  0  0  0  0  0  0  0  0
   61.2840   34.1180   47.6670 O   0  0  0  0  0  0  0  0  0  0  0  0
   60.0540   33.4570   47.9000 C   0  0  0  0  0  0  0  0  0  0  0  0
   59.2490   33.4160   46.6310 C   0  0  0  0  0  0  0  0  0  0  0  0
   58.7050   34.5980   46.1070 C   0  0  0  0  0  0  0  0  0  0  0  0
   58.0040   34.5740   44.8990 C   0  0  0  0  0  0  0  0  0  0  0  0
   57.8460   33.3740   44.2020 C   0  0  0  0  0  0  0  0  0  0  0  0
   58.3760   32.1810   44.7150 C   0  0  0  0  0  0  0  0  0  0  0  0
   58.2390   30.9670   43.9540 N   0  0  0  0  0  0  0  0  0  0  0  0
   57.2330   29.9720   44.1990 C   0  0  0  0  0  0  0  0  0  0  0  0
   56.2030   30.2520   44.8680 O   0  0  0  0  0  0  0  0  0  0  0  0
   57.4090   28.5850   43.6640 C   0  0  0  0  0  0  0  0  0  0  0  0
   58.2990   27.7950   44.5810 C   0  0  0  0  0  0  0  0  0  0  0  0
   59.4890   28.3560   45.0750 C   0  0  0  0  0  0  0  0  0  0  0  0
   60.2930   27.6340   45.9620 C   0  0  0  0  0  0  0  0  0  0  0  0
   59.9140   26.3500   46.3650 C   0  0  0  0  0  0  0  0  0  0  0  0
   58.7250   25.7890   45.8890 C   0  0  0  0  0  0  0  0  0  0  0  0
   57.9170   26.5100   45.0050 C   0  0  0  0  0  0  0  0  0  0  0  0
   59.0940   32.2120   45.9250 C   0  0  0  0  0  0  0  0  0  0  0  0
   64.1180   34.3235   47.1579 H   0  0  0  0  0  0  0  0  0  0  0  0
   63.8441   33.0912   45.8799 H   0  0  0  0  0  0  0  0  0  0  0  0
   62.8893   34.6127   45.8799 H   0  0  0  0  0  0  0  0  0  0  0  0
   61.8763   32.3247   46.8462 H   0  0  0  0  0  0  0  0  0  0  0  0
   62.7603   32.8385   48.3210 H   0  0  0  0  0  0  0  0  0  0  0  0
   60.2504   32.4298   48.2411 H   0  0  0  0  0  0  0  0  0  0  0  0
   59.4893   34.0021   48.6707 H   0  0  0  0  0  0  0  0  0  0  0  0
   58.8308   35.5468   46.6491 H   0  0  0  0  0  0  0  0  0  0  0  0
   57.5751   35.5031   44.4954 H   0  0  0  0  0  0  0  0  0  0  0  0
   57.3029   33.3645   43.2455 H   0  0  0  0  0  0  0  0  0  0  0  0
   58.8910   30.8140   43.1520 H   0  0  0  0  0  0  0  0  0  0  0  0
   56.4276   28.0931   43.5945 H   0  0  0  0  0  0  0  0  0  0  0  0
   57.8694   28.6363   42.6663 H   0  0  0  0  0  0  0  0  0  0  0  0
   59.7890   29.3671   44.7626 H   0  0  0  0  0  0  0  0  0  0  0  0
   61.2250   28.0767   46.3433 H   0  0  0  0  0  0  0  0  0  0  0  0
   60.5518   25.7806   47.0571 H   0  0  0  0  0  0  0  0  0  0  0  0
   58.4254   24.7805   46.2101 H   0  0  0  0  0  0  0  0  0  0  0  0
   56.9776   26.0698   44.6393 H   0  0  0  0  0  0  0  0  0  0  0  0
   59.5371   31.2862   46.3207 H   0  0  0  0  0  0  0  0  0  0  0  0
  1  2  1  0
  2  3  1  0
  3  4  1  0
  4  5  1  0
  5  6  2  0
  6  7  1  0
  7  8  2  0
  8  9  1  0
  9 10  1  0
 10 11  1  0
 11 12  2  0
 11 13  1  0
 13 14  1  0
 14 15  2  0
 15 16  1  0
 16 17  2  0
 17 18  1  0
 18 19  2  0
  9 20  2  0
 20  5  1  0
 19 14  1  0
  1 21  1  0
  1 22  1  0
  1 23  1  0
  2 24  1  0
  2 25  1  0
  4 26  1  0
  4 27  1  0
  6 28  1  0
  7 29  1  0
  8 30  1  0
 10 31  1  0
 13 32  1  0
 13 33  1  0
 15 34  1  0
 16 35  1  0
 17 36  1  0
 18 37  1  0
 19 38  1  0
 20 39  1  0
M  END
>  <UniqueID>  (27) 
27

>  <SMILES>  (27) 
CCOCc1cccc(NC(=O)Cc2ccccc2)c1

>  <Energy>  (27) 
38.70374420991987

>  <Genealogy>  (27) 
CCOCc1cccc(NC(=O)Cc2ccccc2)c1 (3D coordinates assigned)
CCOCc1cccc(NC(=O)Cc2ccccc2)c1 (optimized conformer: 38.70374420991987 kcal/mol)

>  <smiles>  (27) 
CCOCc1cccc(NC(=O)Cc2ccccc2)c1

>  <score_type>  (27) 
oracle

>  <origin>  (27) 
adg

>  <m_score__min__energy>  (27) 
-7.5700000000000003

>  <m_primary>  (27) 
energy

$$$$
27:0
     RDKit          3D

 38 39  0  0  0  0  0  0  0  0999 V2000
   57.3730   33.7720   45.2930 C   0  0  0  0  0  0  0  0  0  0  0  0
   58.5000   33.2790   44.3920 C   0  0  0  0  0  0  0  0  0  0  0  0
   58.0110   32.2360   43.4790 N   0  0  0  0  0  0  0  0  0  0  0  0
   58.1270   32.4470   42.0300 C   0  0  0  0  0  0  0  0  0  0  0  0
   57.4420   31.0140   44.0150 C   0  0  0  0  0  0  0  0  0  0  0  0
   56.1780   30.5450   43.6110 C   0  0  0  0  0  0  0  0  0  0  0  0
   55.6720   29.3630   44.1540 C   0  0  0  0  0  0  0  0  0  0  0  0
   56.4050   28.6550   45.1090 C   0  0  0  0  0  0  0  0  0  0  0  0
   55.8670   27.4320   45.6310 N   0  0  0  0  0  0  0  0  0  0  0  0
   56.6010   26.2340   45.9210 C   0  0  0  0  0  0  0  0  0  0  0  0
   56.2670   25.4860   46.8790 O   0  0  0  0  0  0  0  0  0  0  0  0
   57.7720   25.8670   45.0670 C   0  0  0  0  0  0  0  0  0  0  0  0
   57.6020   24.4700   44.5390 C   0  0  0  0  0  0  0  0  0  0  0  0
   56.6510   24.2010   43.5400 C   0  0  0  0  0  0  0  0  0  0  0  0
   56.4690   22.8950   43.0760 C   0  0  0  0  0  0  0  0  0  0  0  0
   57.2260   21.8490   43.6090 C   0  0  0  0  0  0  0  0  0  0  0  0
   58.1650   22.1070   44.6130 C   0  0  0  0  0  0  0  0  0  0  0  0
   58.3500   23.4110   45.0800 C   0  0  0  0  0  0  0  0  0  0  0  0
   57.6720   29.1360   45.4740 C   0  0  0  0  0  0  0  0  0  0  0  0
   58.1470   30.2870   44.9290 N   0  0  0  0  0  0  0  0  0  0  0  0
   57.6634   33.6449   46.3463 H   0  0  0  0  0  0  0  0  0  0  0  0
   57.1812   34.8362   45.0913 H   0  0  0  0  0  0  0  0  0  0  0  0
   56.4613   33.1905   45.0913 H   0  0  0  0  0  0  0  0  0  0  0  0
   58.8878   34.1230   43.8027 H   0  0  0  0  0  0  0  0  0  0  0  0
   59.2981   32.8562   45.0199 H   0  0  0  0  0  0  0  0  0  0  0  0
   58.6488   33.3962   41.8383 H   0  0  0  0  0  0  0  0  0  0  0  0
   58.6966   31.6187   41.5833 H   0  0  0  0  0  0  0  0  0  0  0  0
   57.1225   32.4841   41.5833 H   0  0  0  0  0  0  0  0  0  0  0  0
   55.5912   31.1078   42.8702 H   0  0  0  0  0  0  0  0  0  0  0  0
   54.6909   28.9872   43.8281 H   0  0  0  0  0  0  0  0  0  0  0  0
   57.8428   26.5696   44.2236 H   0  0  0  0  0  0  0  0  0  0  0  0
   58.6903   25.9169   45.6705 H   0  0  0  0  0  0  0  0  0  0  0  0
   56.0480   25.0205   43.1219 H   0  0  0  0  0  0  0  0  0  0  0  0
   55.7279   22.6905   42.2893 H   0  0  0  0  0  0  0  0  0  0  0  0
   57.0837   20.8228   43.2393 H   0  0  0  0  0  0  0  0  0  0  0  0
   58.7584   21.2827   45.0354 H   0  0  0  0  0  0  0  0  0  0  0  0
   59.0844   23.6091   45.8746 H   0  0  0  0  0  0  0  0  0  0  0  0
   58.2815   28.5807   46.2022 H   0  0  0  0  0  0  0  0  0  0  0  0
  1  2  1  0
  2  3  1  0
  3  4  1  0
  3  5  1  0
  5  6  2  0
  6  7  1  0
  7  8  2  0
  8  9  1  0
  9 10  1  0
 10 11  2  0
 10 12  1  0
 12 13  1  0
 13 14  2  0
 14 15  1  0
 15 16  2  0
 16 17  1  0
 17 18  2  0
  8 19  1  0
 19 20  2  0
 20  5  1  0
 18 13  1  0
  1 21  1  0
  1 22  1  0
  1 23  1  0
  2 24  1  0
  2 25  1  0
  4 26  1  0
  4 27  1  0
  4 28  1  0
  6 29  1  0
  7 30  1  0
 12 31  1  0
 12 32  1  0
 14 33  1  0
 15 34  1  0
 16 35  1  0
 17 36  1  0
 18 37  1  0
 19 38  1  0
M  CHG  1   9  -1
M  END
>  <UniqueID>  (28) 
28

>  <SMILES>  (28) 
CCN(C)c1ccc([N-]C(=O)Cc2ccccc2)cn1

>  <Energy>  (28) 
37.202809519596435

>  <Genealogy>  (28) 
CCN(C)c1ccc([N-]C(=O)Cc2ccccc2)cn1 (protonated)
CCN(C)c1ccc([N-]C(=O)Cc2ccccc2)cn1 (3D coordinates assigned)
CCN(C)c1ccc([N-]C(=O)Cc2ccccc2)cn1 (optimized conformer: 37.202809519596435 kcal/mol)

>  <smiles>  (28) 
CCN(C)c1ccc(NC(=O)Cc2ccccc2)cn1

>  <score_type>  (28) 
oracle

>  <origin>  (28) 
adg

>  <m_score__min__energy>  (28) 
-8.9299999999999997

>  <m_primary>  (28) 
energy

$$$$
28:0
     RDKit          3D

 60 63  0  0  0  0  0  0  0  0999 V2000
   60.2210   30.6330   47.6150 C   0  0  0  0  0  0  0  0  0  0  0  0
   59.9250   30.9430   48.7440 C   0  0  0  0  0  0  0  0  0  0  0  0
   59.5660   31.3220   50.1170 C   0  0  0  0  0  0  0  0  0  0  0  0
   58.9260   32.7160   50.1610 C   0  0  0  0  0  0  0  0  0  0  0  0
   59.9380   33.8060   50.5410 C   0  0  0  0  0  0  0  0  0  0  0  0
   61.0620   33.8000   49.5990 N   0  0  0  0  0  0  0  0  0  0  0  0
   61.0770   34.2000   48.2960 C   0  0  0  0  0  0  0  0  0  0  0  0
   59.9130   34.8460   47.5800 C   0  0  0  0  0  0  0  0  0  0  0  0
   59.3570   33.9740   46.5160 N   0  0  0  0  0  0  0  0  0  0  0  0
   58.1270   33.2930   46.9760 C   0  0  0  0  0  0  0  0  0  0  0  0
   57.3790   32.5270   45.8540 C   0  0  0  0  0  0  0  0  0  0  0  0
   57.9760   32.6790   44.5100 N   0  0  0  0  0  0  0  0  0  0  0  0
   57.6810   31.7120   43.4770 C   0  0  0  0  0  0  0  0  0  0  0  0
   58.3930   31.6770   42.4340 O   0  0  0  0  0  0  0  0  0  0  0  0
   56.5710   30.7090   43.6240 C   0  0  0  0  0  0  0  0  0  0  0  0
   56.6730   30.0490   44.8860 O   0  0  0  0  0  0  0  0  0  0  0  0
   57.6750   29.1270   45.2220 C   0  0  0  0  0  0  0  0  0  0  0  0
   57.4420   28.0400   46.0890 C   0  0  0  0  0  0  0  0  0  0  0  0
   58.4770   27.1470   46.3890 C   0  0  0  0  0  0  0  0  0  0  0  0
   59.7480   27.3280   45.8310 C   0  0  0  0  0  0  0  0  0  0  0  0
   59.9850   28.4050   44.9750 C   0  0  0  0  0  0  0  0  0  0  0  0
   58.9520   29.3010   44.6720 C   0  0  0  0  0  0  0  0  0  0  0  0
   58.7730   33.8570   44.1330 C   0  0  0  0  0  0  0  0  0  0  0  0
   59.0460   34.7780   45.3210 C   0  0  0  0  0  0  0  0  0  0  0  0
   62.2880   34.0280   47.6980 N   0  0  0  0  0  0  0  0  0  0  0  0
   63.0320   33.4680   48.6660 C   0  0  0  0  0  0  0  0  0  0  0  0
   64.3650   33.0680   48.5900 C   0  0  0  0  0  0  0  0  0  0  0  0
   64.9450   32.4950   49.7390 C   0  0  0  0  0  0  0  0  0  0  0  0
   64.1870   32.3350   50.9220 C   0  0  0  0  0  0  0  0  0  0  0  0
   62.8420   32.7500   50.9670 C   0  0  0  0  0  0  0  0  0  0  0  0
   62.3000   33.3200   49.8090 C   0  0  0  0  0  0  0  0  0  0  0  0
   60.4906   30.3506   46.5866 H   0  0  0  0  0  0  0  0  0  0  0  0
   58.8518   30.5870   50.5166 H   0  0  0  0  0  0  0  0  0  0  0  0
   60.4838   31.3419   50.7231 H   0  0  0  0  0  0  0  0  0  0  0  0
   58.5119   32.9473   49.1685 H   0  0  0  0  0  0  0  0  0  0  0  0
   58.1390   32.7026   50.9295 H   0  0  0  0  0  0  0  0  0  0  0  0
   59.4434   34.7881   50.5112 H   0  0  0  0  0  0  0  0  0  0  0  0
   60.3165   33.6085   51.5547 H   0  0  0  0  0  0  0  0  0  0  0  0
   59.1209   35.0602   48.3126 H   0  0  0  0  0  0  0  0  0  0  0  0
   60.2781   35.7684   47.1048 H   0  0  0  0  0  0  0  0  0  0  0  0
   60.0780   33.2530   46.2610 H   0  0  0  0  0  0  0  0  0  0  0  0
   58.4017   32.5748   47.7626 H   0  0  0  0  0  0  0  0  0  0  0  0
   57.4446   34.0752   47.3399 H   0  0  0  0  0  0  0  0  0  0  0  0
   57.3759   31.4573   46.1104 H   0  0  0  0  0  0  0  0  0  0  0  0
   56.3680   32.9570   45.7996 H   0  0  0  0  0  0  0  0  0  0  0  0
   55.6021   31.2260   43.5606 H   0  0  0  0  0  0  0  0  0  0  0  0
   56.6494   29.9632   42.8192 H   0  0  0  0  0  0  0  0  0  0  0  0
   56.4451   27.8935   46.5304 H   0  0  0  0  0  0  0  0  0  0  0  0
   58.2911   26.2999   47.0657 H   0  0  0  0  0  0  0  0  0  0  0  0
   60.5586   26.6228   46.0666 H   0  0  0  0  0  0  0  0  0  0  0  0
   60.9840   28.5501   44.5380 H   0  0  0  0  0  0  0  0  0  0  0  0
   59.1447   30.1479   43.9970 H   0  0  0  0  0  0  0  0  0  0  0  0
   59.7346   33.5163   43.7215 H   0  0  0  0  0  0  0  0  0  0  0  0
   58.1973   34.4285   43.3900 H   0  0  0  0  0  0  0  0  0  0  0  0
   59.9001   35.4309   45.0880 H   0  0  0  0  0  0  0  0  0  0  0  0
   58.1536   35.3903   45.5179 H   0  0  0  0  0  0  0  0  0  0  0  0
   64.9448   33.1954   47.6639 H   0  0  0  0  0  0  0  0  0  0  0  0
   65.9955   32.1696   49.7157 H   0  0  0  0  0  0  0  0  0  0  0  0
   64.6504   31.8840   51.8118 H   0  0  0  0  0  0  0  0  0  0  0  0
   62.2390   32.6306   51.8792 H   0  0  0  0  0  0  0  0  0  0  0  0
  1  2  3  0
  2  3  1  0
  3  4  1  0
  4  5  1  0
  5  6  1  0
  6  7  1  0
  7  8  1  0
  8  9  1  0
  9 10  1  0
 10 11  1  0
 11 12  1  0
 12 13  1  0
 13 14  2  0
 13 15  1  0
 15 16  1  0
 16 17  1  0
 17 18  2  0
 18 19  1  0
 19 20  2  0
 20 21  1  0
 21 22  2  0
 12 23  1  0
 23 24  1  0
  7 25  2  0
 25 26  1  0
 26 27  2  0
 27 28  1  0
 28 29  2  0
 29 30  1  0
 30 31  2  0
 31  6  1  0
 24  9  1  0
 31 26  1  0
 22 17  1  0
  1 32  1  0
  3 33  1  0
  3 34  1  0
  4 35  1  0
  4 36  1  0
  5 37  1  0
  5 38  1  0
  8 39  1  0
  8 40  1  0
  9 41  1  0
 10 42  1  0
 10 43  1  0
 11 44  1  0
 11 45  1  0
 15 46  1  0
 15 47  1  0
 18 48  1  0
 19 49  1  0
 20 50  1  0
 21 51  1  0
 22 52  1  0
 23 53  1  0
 23 54  1  0
 24 55  1  0
 24 56  1  0
 27 57  1  0
 28 58  1  0
 29 59  1  0
 30 60  1  0
M  CHG  1   9   1
M  END
>  <UniqueID>  (29) 
29

>  <SMILES>  (29) 
C#CCCCn1c(C[NH+]2CCN(C(=O)COc3ccccc3)CC2)nc2ccccc21

>  <Energy>  (29) 
99.98633953264304

>  <Genealogy>  (29) 
C#CCCCn1c(C[NH+]2CCN(C(=O)COc3ccccc3)CC2)nc2ccccc21 (protonated)
C#CCCCn1c(C[NH+]2CCN(C(=O)COc3ccccc3)CC2)nc2ccccc21 (3D coordinates assigned)
C#CCCCn1c(C[NH+]2CCN(C(=O)COc3ccccc3)CC2)nc2ccccc21 (nonaromatic ring conformer: 99.98633953264304 kcal/mol)

>  <smiles>  (29) 
C#CCCCn1c(CN2CCN(C(=O)COc3ccccc3)CC2)nc2ccccc21

>  <score_type>  (29) 
oracle

>  <origin>  (29) 
adg

>  <m_score__min__energy>  (29) 
-6.2300000000000004

>  <m_primary>  (29) 
energy

$$$$
29:0
     RDKit          3D

 30 31  0  0  0  0  0  0  0  0999 V2000
   56.6050   29.8400   42.8120 C   0  0  0  0  0  0  0  0  0  0  0  0
   56.1790   30.1070   44.2560 C   0  0  0  0  0  0  0  0  0  0  0  0
   57.0070   31.1650   44.8730 N   0  0  0  0  0  0  0  0  0  0  0  0
   58.0220   30.5980   45.8010 C   0  0  0  0  0  0  0  0  0  0  0  0
   59.2980   31.4570   45.9410 C   0  0  0  0  0  0  0  0  0  0  0  0
   59.0200   32.8740   45.6730 N   0  0  0  0  0  0  0  0  0  0  0  0
   59.5230   33.9100   46.5390 C   0  0  0  0  0  0  0  0  0  0  0  0
   58.7920   34.9020   46.8050 O   0  0  0  0  0  0  0  0  0  0  0  0
   60.8760   33.8520   47.1260 C   0  0  0  0  0  0  0  0  0  0  0  0
   62.0510   33.8290   46.3740 C   0  0  0  0  0  0  0  0  0  0  0  0
   63.3480   33.8150   47.4440 S   0  0  0  0  0  0  0  0  0  0  0  0
   62.3690   33.8490   48.8050 C   0  0  0  0  0  0  0  0  0  0  0  0
   63.0070   33.8650   50.6010 Br  0  0  0  0  0  0  0  0  0  0  0  0
   61.0610   33.8750   48.4740 N   0  0  0  0  0  0  0  0  0  0  0  0
   58.2250   33.2490   44.4990 C   0  0  0  0  0  0  0  0  0  0  0  0
   57.6190   32.0120   43.8350 C   0  0  0  0  0  0  0  0  0  0  0  0
   57.5370   29.2558   42.8067 H   0  0  0  0  0  0  0  0  0  0  0  0
   55.8152   29.2750   42.2952 H   0  0  0  0  0  0  0  0  0  0  0  0
   56.7692   30.7971   42.2952 H   0  0  0  0  0  0  0  0  0  0  0  0
   55.1259   30.4245   44.2661 H   0  0  0  0  0  0  0  0  0  0  0  0
   56.3116   29.1807   44.8342 H   0  0  0  0  0  0  0  0  0  0  0  0
   57.5627   30.4970   46.7954 H   0  0  0  0  0  0  0  0  0  0  0  0
   58.3347   29.6322   45.3774 H   0  0  0  0  0  0  0  0  0  0  0  0
   59.6875   31.3557   46.9648 H   0  0  0  0  0  0  0  0  0  0  0  0
   60.0366   31.1034   45.2066 H   0  0  0  0  0  0  0  0  0  0  0  0
   62.1171   33.8214   45.2760 H   0  0  0  0  0  0  0  0  0  0  0  0
   57.4145   33.9232   44.8129 H   0  0  0  0  0  0  0  0  0  0  0  0
   58.8824   33.7515   43.7742 H   0  0  0  0  0  0  0  0  0  0  0  0
   56.8513   32.3207   43.1102 H   0  0  0  0  0  0  0  0  0  0  0  0
   58.4042   31.4487   43.3094 H   0  0  0  0  0  0  0  0  0  0  0  0
  1  2  1  0
  2  3  1  0
  3  4  1  0
  4  5  1  0
  5  6  1  0
  6  7  1  0
  7  8  2  0
  7  9  1  0
  9 10  2  0
 10 11  1  0
 11 12  1  0
 12 13  1  0
 12 14  2  0
  6 15  1  0
 15 16  1  0
 16  3  1  0
 14  9  1  0
  1 17  1  0
  1 18  1  0
  1 19  1  0
  2 20  1  0
  2 21  1  0
  4 22  1  0
  4 23  1  0
  5 24  1  0
  5 25  1  0
 10 26  1  0
 15 27  1  0
 15 28  1  0
 16 29  1  0
 16 30  1  0
M  END
>  <UniqueID>  (30) 
30

>  <SMILES>  (30) 
CCN1CCN(C(=O)c2csc(Br)n2)CC1

>  <Energy>  (30) 
65.93650214113866

>  <Genealogy>  (30) 
CCN1CCN(C(=O)c2csc(Br)n2)CC1 (3D coordinates assigned)
CCN1CCN(C(=O)c2csc(Br)n2)CC1 (nonaromatic ring conformer: 65.93650214113866 kcal/mol)

>  <smiles>  (30) 
CCN1CCN(C(=O)c2csc(Br)n2)CC1

>  <score_type>  (30) 
oracle

>  <origin>  (30) 
adg

>  <m_score__min__energy>  (30) 
-6.46

>  <m_primary>  (30) 
energy

$$$$
30:0
     RDKit          3D

 55 58  0  0  0  0  0  0  0  0999 V2000
   63.9530   33.1250   48.1830 C   0  0  0  0  0  0  0  0  0  0  0  0
   62.8500   33.0830   47.1270 C   0  0  0  0  0  0  0  0  0  0  0  0
   61.6910   32.3150   47.6090 N   0  0  0  0  0  0  0  0  0  0  0  0
   62.0470   30.9360   47.9880 C   0  0  0  0  0  0  0  0  0  0  0  0
   61.0690   29.8850   47.4310 C   0  0  0  0  0  0  0  0  0  0  0  0
   59.6750   30.3000   47.6240 N   0  0  0  0  0  0  0  0  0  0  0  0
   58.8010   30.4790   46.5000 C   0  0  0  0  0  0  0  0  0  0  0  0
   58.4340   31.7650   46.0070 C   0  0  0  0  0  0  0  0  0  0  0  0
   58.6690   32.9560   46.7540 C   0  0  0  0  0  0  0  0  0  0  0  0
   59.2280   32.8830   48.0440 O   0  0  0  0  0  0  0  0  0  0  0  0
   58.5170   32.6340   49.2580 C   0  0  0  0  0  0  0  0  0  0  0  0
   59.3220   33.0970   50.4690 C   0  0  0  0  0  0  0  0  0  0  0  0
   58.2960   34.1980   46.2080 C   0  0  0  0  0  0  0  0  0  0  0  0
   57.6690   34.2770   44.9740 C   0  0  0  0  0  0  0  0  0  0  0  0
   57.4010   33.1270   44.2450 C   0  0  0  0  0  0  0  0  0  0  0  0
   57.7830   31.8530   44.7210 C   0  0  0  0  0  0  0  0  0  0  0  0
   57.5260   30.7110   43.9750 N   0  0  0  0  0  0  0  0  0  0  0  0
   56.9850   30.7860   42.6050 C   0  0  0  0  0  0  0  0  0  0  0  0
   57.7610   29.4930   44.5510 C   0  0  0  0  0  0  0  0  0  0  0  0
   57.4280   28.2800   44.0380 N   0  0  0  0  0  0  0  0  0  0  0  0
   57.8320   27.3870   44.9630 C   0  0  0  0  0  0  0  0  0  0  0  0
   57.6640   26.0040   44.9140 C   0  0  0  0  0  0  0  0  0  0  0  0
   58.0970   25.2480   46.0170 C   0  0  0  0  0  0  0  0  0  0  0  0
   58.6610   25.8830   47.1430 C   0  0  0  0  0  0  0  0  0  0  0  0
   58.8110   27.2810   47.1740 C   0  0  0  0  0  0  0  0  0  0  0  0
   58.4090   28.0080   46.0490 C   0  0  0  0  0  0  0  0  0  0  0  0
   58.3720   29.3660   45.7780 C   0  0  0  0  0  0  0  0  0  0  0  0
   63.5013   33.1078   49.1858 H   0  0  0  0  0  0  0  0  0  0  0  0
   64.6101   32.2512   48.0618 H   0  0  0  0  0  0  0  0  0  0  0  0
   64.5418   34.0462   48.0618 H   0  0  0  0  0  0  0  0  0  0  0  0
   62.5312   34.1106   46.8980 H   0  0  0  0  0  0  0  0  0  0  0  0
   63.2455   32.5936   46.2248 H   0  0  0  0  0  0  0  0  0  0  0  0
   61.3000   32.7880   48.4580 H   0  0  0  0  0  0  0  0  0  0  0  0
   60.9450   32.2970   46.8740 H   0  0  0  0  0  0  0  0  0  0  0  0
   63.0538   30.7160   47.6033 H   0  0  0  0  0  0  0  0  0  0  0  0
   62.0033   30.8757   49.0855 H   0  0  0  0  0  0  0  0  0  0  0  0
   61.2583   29.7537   46.3554 H   0  0  0  0  0  0  0  0  0  0  0  0
   61.2286   28.9406   47.9720 H   0  0  0  0  0  0  0  0  0  0  0  0
   59.3080   30.4500   48.5900 H   0  0  0  0  0  0  0  0  0  0  0  0
   57.5609   33.1774   49.2327 H   0  0  0  0  0  0  0  0  0  0  0  0
   58.3432   31.5514   49.3462 H   0  0  0  0  0  0  0  0  0  0  0  0
   58.8020   32.7979   51.3911 H   0  0  0  0  0  0  0  0  0  0  0  0
   60.3199   32.6348   50.4444 H   0  0  0  0  0  0  0  0  0  0  0  0
   59.4243   34.1920   50.4444 H   0  0  0  0  0  0  0  0  0  0  0  0
   58.5052   35.1208   46.7690 H   0  0  0  0  0  0  0  0  0  0  0  0
   57.3817   35.2588   44.5697 H   0  0  0  0  0  0  0  0  0  0  0  0
   56.8816   33.2090   43.2788 H   0  0  0  0  0  0  0  0  0  0  0  0
   55.8963   30.9369   42.6485 H   0  0  0  0  0  0  0  0  0  0  0  0
   57.4509   31.6281   42.0724 H   0  0  0  0  0  0  0  0  0  0  0  0
   57.2043   29.8489   42.0724 H   0  0  0  0  0  0  0  0  0  0  0  0
   56.9170   28.0550   43.1580 H   0  0  0  0  0  0  0  0  0  0  0  0
   57.2066   25.5192   44.0389 H   0  0  0  0  0  0  0  0  0  0  0  0
   57.9952   24.1528   46.0019 H   0  0  0  0  0  0  0  0  0  0  0  0
   58.9861   25.2801   48.0037 H   0  0  0  0  0  0  0  0  0  0  0  0
   59.2314   27.7869   48.0557 H   0  0  0  0  0  0  0  0  0  0  0  0
  1  2  1  0
  2  3  1  0
  3  4  1  0
  4  5  1  0
  5  6  1  0
  6  7  1  0
  7  8  2  0
  8  9  1  0
  9 10  1  0
 10 11  1  0
 11 12  1  0
  9 13  2  0
 13 14  1  0
 14 15  2  0
 15 16  1  0
 16 17  2  0
 17 18  1  0
 17 19  1  0
 19 20  1  0
 20 21  1  0
 21 22  2  0
 22 23  1  0
 23 24  2  0
 24 25  1  0
 25 26  2  0
 26 27  1  0
 27  7  1  0
 16  8  1  0
 27 19  2  0
 26 21  1  0
  1 28  1  0
  1 29  1  0
  1 30  1  0
  2 31  1  0
  2 32  1  0
  3 33  1  0
  3 34  1  0
  4 35  1  0
  4 36  1  0
  5 37  1  0
  5 38  1  0
  6 39  1  0
 11 40  1  0
 11 41  1  0
 12 42  1  0
 12 43  1  0
 12 44  1  0
 13 45  1  0
 14 46  1  0
 15 47  1  0
 18 48  1  0
 18 49  1  0
 18 50  1  0
 20 51  1  0
 22 52  1  0
 23 53  1  0
 24 54  1  0
 25 55  1  0
M  CHG  2   3   1  17   1
M  END
>  <UniqueID>  (31) 
31

>  <SMILES>  (31) 
CC[NH2+]CCNc1c2c(OCC)cccc2[n+](C)c2[nH]c3ccccc3c12

>  <Energy>  (31) 
116.12996406406279

>  <Genealogy>  (31) 
CC[NH2+]CCNc1c2c(OCC)cccc2[n+](C)c2[nH]c3ccccc3c12 (protonated)
CC[NH2+]CCNc1c2c(OCC)cccc2[n+](C)c2[nH]c3ccccc3c12 (3D coordinates assigned)
CC[NH2+]CCNc1c2c(OCC)cccc2[n+](C)c2[nH]c3ccccc3c12 (optimized conformer: 116.12996406406279 kcal/mol)

>  <smiles>  (31) 
CCNCCNc1c2c(OCC)cccc2[n+](C)c2[nH]c3ccccc3c12

>  <score_type>  (31) 
oracle

>  <origin>  (31) 
adg

>  <m_score__min__energy>  (31) 
-4.1600000000000001

>  <m_primary>  (31) 
energy

$$$$
31:0
     RDKit          3D

 33 34  0  0  0  0  0  0  0  0999 V2000
   56.9310   20.9710   43.0610 C   0  0  0  0  0  0  0  0  0  0  0  0
   55.9420   21.8450   43.5950 O   0  0  0  0  0  0  0  0  0  0  0  0
   56.2080   23.1280   44.0970 C   0  0  0  0  0  0  0  0  0  0  0  0
   57.1010   23.9450   43.3940 C   0  0  0  0  0  0  0  0  0  0  0  0
   57.3980   25.2320   43.8540 C   0  0  0  0  0  0  0  0  0  0  0  0
   56.8000   25.7180   45.0230 C   0  0  0  0  0  0  0  0  0  0  0  0
   57.2020   27.3310   45.6040 S   0  0  0  0  0  0  0  0  0  0  0  0
   58.4740   27.8150   44.9630 O   0  0  0  0  0  0  0  0  0  0  0  0
   57.4090   27.2780   47.0910 O   0  0  0  0  0  0  0  0  0  0  0  0
   55.9090   28.4350   45.2480 N   0  0  0  0  0  0  0  0  0  0  0  0
   56.3270   29.3660   44.2030 C   0  0  0  0  0  0  0  0  0  0  0  0
   57.1970   30.4210   44.8090 C   0  0  0  0  0  0  0  0  0  0  0  0
   57.3840   31.6750   44.2310 C   0  0  0  0  0  0  0  0  0  0  0  0
   58.4910   32.5190   45.1790 S   0  0  0  0  0  0  0  0  0  0  0  0
   58.6780   31.2650   46.2840 C   0  0  0  0  0  0  0  0  0  0  0  0
   59.6330   31.2750   47.4300 C   0  0  0  0  0  0  0  0  0  0  0  0
   57.9300   30.1970   45.9340 N   0  0  0  0  0  0  0  0  0  0  0  0
   55.9090   24.9040   45.7340 C   0  0  0  0  0  0  0  0  0  0  0  0
   55.6110   23.6160   45.2750 C   0  0  0  0  0  0  0  0  0  0  0  0
   57.4772   20.4883   43.8849 H   0  0  0  0  0  0  0  0  0  0  0  0
   56.4452   20.2017   42.4428 H   0  0  0  0  0  0  0  0  0  0  0  0
   57.6347   21.5477   42.4428 H   0  0  0  0  0  0  0  0  0  0  0  0
   57.5727   23.5721   42.4729 H   0  0  0  0  0  0  0  0  0  0  0  0
   58.1037   25.8645   43.2955 H   0  0  0  0  0  0  0  0  0  0  0  0
   56.8902   28.8233   43.4295 H   0  0  0  0  0  0  0  0  0  0  0  0
   55.4420   29.8323   43.7455 H   0  0  0  0  0  0  0  0  0  0  0  0
   56.8957   32.0473   43.3183 H   0  0  0  0  0  0  0  0  0  0  0  0
   59.0711   31.2691   48.3756 H   0  0  0  0  0  0  0  0  0  0  0  0
   60.2755   30.3835   47.3797 H   0  0  0  0  0  0  0  0  0  0  0  0
   60.2567   32.1797   47.3797 H   0  0  0  0  0  0  0  0  0  0  0  0
   57.9250   29.2950   46.4610 H   0  0  0  0  0  0  0  0  0  0  0  0
   55.4417   25.2786   46.6567 H   0  0  0  0  0  0  0  0  0  0  0  0
   54.9081   22.9829   45.8363 H   0  0  0  0  0  0  0  0  0  0  0  0
  1  2  1  0
  2  3  1  0
  3  4  2  0
  4  5  1  0
  5  6  2  0
  6  7  1  0
  7  8  2  0
  7  9  2  0
  7 10  1  0
 10 11  1  0
 11 12  1  0
 12 13  2  0
 13 14  1  0
 14 15  1  0
 15 16  1  0
 15 17  2  0
  6 18  1  0
 18 19  2  0
 19  3  1  0
 17 12  1  0
  1 20  1  0
  1 21  1  0
  1 22  1  0
  4 23  1  0
  5 24  1  0
 11 25  1  0
 11 26  1  0
 13 27  1  0
 16 28  1  0
 16 29  1  0
 16 30  1  0
 17 31  1  0
 18 32  1  0
 19 33  1  0
M  CHG  2  10  -1  17   1
M  END
>  <UniqueID>  (32) 
32

>  <SMILES>  (32) 
COc1ccc(S(=O)(=O)[N-]Cc2csc(C)[nH+]2)cc1

>  <Energy>  (32) 
56.822380572460474

>  <Genealogy>  (32) 
COc1ccc(S(=O)(=O)[N-]Cc2csc(C)[nH+]2)cc1 (protonated)
COc1ccc(S(=O)(=O)[N-]Cc2csc(C)[nH+]2)cc1 (3D coordinates assigned)
COc1ccc(S(=O)(=O)[N-]Cc2csc(C)[nH+]2)cc1 (optimized conformer: 56.822380572460474 kcal/mol)

>  <smiles>  (32) 
COc1ccc(S(=O)(=O)NCc2csc(C)n2)cc1

>  <score_type>  (32) 
oracle

>  <origin>  (32) 
adg

>  <m_score__min__energy>  (32) 
-6.6500000000000004

>  <m_primary>  (32) 
energy

$$$$
32:0
     RDKit          3D

 45 47  0  0  0  0  0  0  0  0999 V2000
   60.0020   33.1970   48.8740 H   0  0  0  0  0  0  0  0  0  0  0  0
   60.1410   34.0190   48.2500 N   0  0  0  0  0  0  0  0  0  0  0  0
   59.6130   34.1540   47.0730 C   0  0  0  0  0  0  0  0  0  0  0  0
   59.9740   35.4410   46.0600 S   0  0  0  0  0  0  0  0  0  0  0  0
   58.9050   34.9410   44.8630 C   0  0  0  0  0  0  0  0  0  0  0  0
   58.7244   35.4509   43.9052 H   0  0  0  0  0  0  0  0  0  0  0  0
   58.2890   33.7720   45.2930 C   0  0  0  0  0  0  0  0  0  0  0  0
   57.5278   33.2528   44.6922 H   0  0  0  0  0  0  0  0  0  0  0  0
   58.6950   33.3120   46.5150 N   0  0  0  0  0  0  0  0  0  0  0  0
   58.1050   32.1150   47.1380 C   0  0  0  0  0  0  0  0  0  0  0  0
   58.2038   32.1935   48.2307 H   0  0  0  0  0  0  0  0  0  0  0  0
   57.0456   32.0573   46.8476 H   0  0  0  0  0  0  0  0  0  0  0  0
   58.8040   30.8480   46.6660 C   0  0  0  0  0  0  0  0  0  0  0  0
   59.9330   30.3750   47.3800 C   0  0  0  0  0  0  0  0  0  0  0  0
   60.3690   31.0980   48.5080 O   0  0  0  0  0  0  0  0  0  0  0  0
   61.3770   30.7130   49.4440 C   0  0  0  0  0  0  0  0  0  0  0  0
   60.9658   30.7843   50.4618 H   0  0  0  0  0  0  0  0  0  0  0  0
   61.6830   29.6811   49.2169 H   0  0  0  0  0  0  0  0  0  0  0  0
   62.6180   31.6190   49.3410 C   0  0  0  0  0  0  0  0  0  0  0  0
   62.8427   32.0146   50.3425 H   0  0  0  0  0  0  0  0  0  0  0  0
   63.4341   31.0000   48.9400 H   0  0  0  0  0  0  0  0  0  0  0  0
   62.4490   32.7580   48.4180 N   0  0  0  0  0  0  0  0  0  0  0  0
   62.1640   33.6100   48.9490 H   0  0  0  0  0  0  0  0  0  0  0  0
   61.6560   32.5440   47.7690 H   0  0  0  0  0  0  0  0  0  0  0  0
   63.6610   33.0590   47.6290 C   0  0  0  0  0  0  0  0  0  0  0  0
   64.3524   33.6451   48.2522 H   0  0  0  0  0  0  0  0  0  0  0  0
   64.1094   32.1025   47.3225 H   0  0  0  0  0  0  0  0  0  0  0  0
   63.3450   33.8560   46.3610 C   0  0  0  0  0  0  0  0  0  0  0  0
   62.9527   34.8456   46.6382 H   0  0  0  0  0  0  0  0  0  0  0  0
   64.2625   33.9786   45.7668 H   0  0  0  0  0  0  0  0  0  0  0  0
   62.5927   33.3166   45.7668 H   0  0  0  0  0  0  0  0  0  0  0  0
   60.5870   29.2070   46.9490 C   0  0  0  0  0  0  0  0  0  0  0  0
   61.4774   28.8527   47.4892 H   0  0  0  0  0  0  0  0  0  0  0  0
   60.1230   28.4940   45.8490 C   0  0  0  0  0  0  0  0  0  0  0  0
   60.6506   27.5844   45.5260 H   0  0  0  0  0  0  0  0  0  0  0  0
   58.9920   28.9240   45.1510 C   0  0  0  0  0  0  0  0  0  0  0  0
   58.5270   28.1820   44.0540 C   0  0  0  0  0  0  0  0  0  0  0  0
   59.0595   27.2704   43.7450 H   0  0  0  0  0  0  0  0  0  0  0  0
   57.3940   28.5940   43.3540 C   0  0  0  0  0  0  0  0  0  0  0  0
   57.0359   28.0087   42.4943 H   0  0  0  0  0  0  0  0  0  0  0  0
   56.7150   29.7470   43.7430 C   0  0  0  0  0  0  0  0  0  0  0  0
   55.8192   30.0669   43.1906 H   0  0  0  0  0  0  0  0  0  0  0  0
   57.1660   30.4990   44.8310 C   0  0  0  0  0  0  0  0  0  0  0  0
   56.6211   31.4072   45.1280 H   0  0  0  0  0  0  0  0  0  0  0  0
   58.3150   30.1050   45.5540 C   0  0  0  0  0  0  0  0  0  0  0  0
  1  2  1  0
  2  3  2  0
  3  4  1  0
  4  5  1  0
  5  6  1  0
  5  7  2  0
  7  8  1  0
  7  9  1  0
  9 10  1  0
 10 11  1  0
 10 12  1  0
 10 13  1  0
 13 14  2  0
 14 15  1  0
 15 16  1  0
 16 17  1  0
 16 18  1  0
 16 19  1  0
 19 20  1  0
 19 21  1  0
 19 22  1  0
 22 23  1  0
 22 24  1  0
 22 25  1  0
 25 26  1  0
 25 27  1  0
 25 28  1  0
 28 29  1  0
 28 30  1  0
 28 31  1  0
 14 32  1  0
 32 33  1  0
 32 34  2  0
 34 35  1  0
 34 36  1  0
 36 37  2  0
 37 38  1  0
 37 39  1  0
 39 40  1  0
 39 41  2  0
 41 42  1  0
 41 43  1  0
 43 44  1  0
 43 45  2  0
  9  3  1  0
 45 13  1  0
 45 36  1  0
M  CHG  1  22   1
M  END
>  <UniqueID>  (33) 
33

>  <SMILES>  (33) 
[H]/N=c1/sccn1Cc1c(OCC[NH2+]CC)ccc2ccccc12

>  <Energy>  (33) 
86.51026235561612

>  <Genealogy>  (33) 
CC[NH2+]CCOc1ccc2ccccc2c1Cn1ccsc1=N (protonated)
[H]/N=c1/sccn1Cc1c(OCC[NH2+]CC)ccc2ccccc12 (cis-trans isomerization)
[H]/N=c1/sccn1Cc1c(OCC[NH2+]CC)ccc2ccccc12 (3D coordinates assigned)
[H]/N=c1/sccn1Cc1c(OCC[NH2+]CC)ccc2ccccc12 (optimized conformer: 86.51026235561612 kcal/mol)

>  <smiles>  (33) 
CCNCCOc1ccc2ccccc2c1Cn1ccsc1=N

>  <score_type>  (33) 
oracle

>  <origin>  (33) 
adg

>  <m_score__min__energy>  (33) 
-4.7800000000000002

>  <m_primary>  (33) 
energy

$$$$
33:0
     RDKit          3D

 39 41  0  0  0  0  0  0  0  0999 V2000
   64.0210   33.0310   50.3580 C   0  0  0  0  0  0  0  0  0  0  0  0
   63.0120   32.8960   49.2950 N   0  0  0  0  0  0  0  0  0  0  0  0
   62.3970   34.2080   49.0310 C   0  0  0  0  0  0  0  0  0  0  0  0
   63.6300   32.3410   48.0710 C   0  0  0  0  0  0  0  0  0  0  0  0
   62.5690   31.7670   47.1220 C   0  0  0  0  0  0  0  0  0  0  0  0
   61.2840   31.6110   47.8050 N   0  0  0  0  0  0  0  0  0  0  0  0
   60.0680   31.3160   47.0940 C   0  0  0  0  0  0  0  0  0  0  0  0
   59.6340   30.0280   47.0390 N   0  0  0  0  0  0  0  0  0  0  0  0
   58.5110   29.6720   46.3650 C   0  0  0  0  0  0  0  0  0  0  0  0
   58.0800   28.2670   46.3390 C   0  0  0  0  0  0  0  0  0  0  0  0
   57.0100   27.7530   45.6150 C   0  0  0  0  0  0  0  0  0  0  0  0
   56.8420   26.3730   45.7850 C   0  0  0  0  0  0  0  0  0  0  0  0
   57.7740   25.7970   46.6370 C   0  0  0  0  0  0  0  0  0  0  0  0
   58.8090   27.0060   47.1820 S   0  0  0  0  0  0  0  0  0  0  0  0
   57.7880   30.6170   45.7130 N   0  0  0  0  0  0  0  0  0  0  0  0
   58.1600   31.9230   45.7310 C   0  0  0  0  0  0  0  0  0  0  0  0
   57.3810   32.8720   45.0590 C   0  0  0  0  0  0  0  0  0  0  0  0
   57.7370   34.2210   45.0940 C   0  0  0  0  0  0  0  0  0  0  0  0
   58.8660   34.6290   45.8060 C   0  0  0  0  0  0  0  0  0  0  0  0
   59.6540   33.6910   46.4810 C   0  0  0  0  0  0  0  0  0  0  0  0
   59.3190   32.3210   46.4390 C   0  0  0  0  0  0  0  0  0  0  0  0
   63.5300   32.9653   51.3401 H   0  0  0  0  0  0  0  0  0  0  0  0
   64.7627   32.2241   50.2642 H   0  0  0  0  0  0  0  0  0  0  0  0
   64.5245   34.0045   50.2642 H   0  0  0  0  0  0  0  0  0  0  0  0
   62.1650   34.7029   49.9856 H   0  0  0  0  0  0  0  0  0  0  0  0
   63.0966   34.8317   48.4551 H   0  0  0  0  0  0  0  0  0  0  0  0
   61.4701   34.0693   48.4551 H   0  0  0  0  0  0  0  0  0  0  0  0
   64.1794   33.1407   47.5527 H   0  0  0  0  0  0  0  0  0  0  0  0
   64.3106   31.5279   48.3636 H   0  0  0  0  0  0  0  0  0  0  0  0
   62.4424   32.4497   46.2688 H   0  0  0  0  0  0  0  0  0  0  0  0
   62.9052   30.7779   46.7775 H   0  0  0  0  0  0  0  0  0  0  0  0
   61.2670   31.8000   48.8310 H   0  0  0  0  0  0  0  0  0  0  0  0
   56.3613   28.3678   44.9738 H   0  0  0  0  0  0  0  0  0  0  0  0
   56.0453   25.7989   45.2893 H   0  0  0  0  0  0  0  0  0  0  0  0
   57.8268   24.7325   46.9092 H   0  0  0  0  0  0  0  0  0  0  0  0
   56.4870   32.5541   44.5025 H   0  0  0  0  0  0  0  0  0  0  0  0
   57.1268   34.9640   44.5595 H   0  0  0  0  0  0  0  0  0  0  0  0
   59.1377   35.6945   45.8365 H   0  0  0  0  0  0  0  0  0  0  0  0
   60.5375   34.0224   47.0463 H   0  0  0  0  0  0  0  0  0  0  0  0
  1  2  1  0
  2  3  1  0
  2  4  1  0
  4  5  1  0
  5  6  1  0
  6  7  1  0
  7  8  2  0
  8  9  1  0
  9 10  1  0
 10 11  2  0
 11 12  1  0
 12 13  2  0
 13 14  1  0
  9 15  2  0
 15 16  1  0
 16 17  2  0
 17 18  1  0
 18 19  2  0
 19 20  1  0
 20 21  2  0
 21  7  1  0
 14 10  1  0
 21 16  1  0
  1 22  1  0
  1 23  1  0
  1 24  1  0
  3 25  1  0
  3 26  1  0
  3 27  1  0
  4 28  1  0
  4 29  1  0
  5 30  1  0
  5 31  1  0
  6 32  1  0
 11 33  1  0
 12 34  1  0
 13 35  1  0
 17 36  1  0
 18 37  1  0
 19 38  1  0
 20 39  1  0
M  END
>  <UniqueID>  (34) 
34

>  <SMILES>  (34) 
CN(C)CCNc1nc(-c2cccs2)nc2ccccc12

>  <Energy>  (34) 
69.06578427423852

>  <Genealogy>  (34) 
CN(C)CCNc1nc(-c2cccs2)nc2ccccc12 (3D coordinates assigned)
CN(C)CCNc1nc(-c2cccs2)nc2ccccc12 (optimized conformer: 69.06578427423852 kcal/mol)

>  <smiles>  (34) 
CN(C)CCNc1nc(-c2cccs2)nc2ccccc12

>  <score_type>  (34) 
oracle

>  <origin>  (34) 
adg

>  <m_score__min__energy>  (34) 
-6.5199999999999996

>  <m_primary>  (34) 
energy

$$$$
34:0
     RDKit          3D

 21 22  0  0  0  0  0  0  0  0999 V2000
   57.0170   32.6930   40.5990 C   0  0  0  0  0  0  0  0  0  0  0  0
   58.2530   32.3620   41.4290 C   0  0  0  0  0  0  0  0  0  0  0  0
   57.8650   31.8940   42.8040 C   0  0  0  0  0  0  0  0  0  0  0  0
   57.1330   30.7240   43.0200 C   0  0  0  0  0  0  0  0  0  0  0  0
   56.8410   30.5490   44.6750 S   0  0  0  0  0  0  0  0  0  0  0  0
   57.6300   31.9590   45.1250 C   0  0  0  0  0  0  0  0  0  0  0  0
   57.7850   32.4830   46.4060 C   0  0  0  0  0  0  0  0  0  0  0  0
   58.4770   33.6940   46.5470 C   0  0  0  0  0  0  0  0  0  0  0  0
   58.9930   34.3530   45.4160 C   0  0  0  0  0  0  0  0  0  0  0  0
   58.8230   33.8060   44.1330 C   0  0  0  0  0  0  0  0  0  0  0  0
   58.1340   32.5930   43.9980 C   0  0  0  0  0  0  0  0  0  0  0  0
   56.1747   32.9186   41.2695 H   0  0  0  0  0  0  0  0  0  0  0  0
   57.2248   33.5672   39.9644 H   0  0  0  0  0  0  0  0  0  0  0  0
   56.7601   31.8320   39.9644 H   0  0  0  0  0  0  0  0  0  0  0  0
   58.8230   31.5674   40.9254 H   0  0  0  0  0  0  0  0  0  0  0  0
   58.8653   33.2707   41.5263 H   0  0  0  0  0  0  0  0  0  0  0  0
   56.7996   30.0272   42.2369 H   0  0  0  0  0  0  0  0  0  0  0  0
   57.3756   31.9608   47.2833 H   0  0  0  0  0  0  0  0  0  0  0  0
   58.6173   34.1311   47.5466 H   0  0  0  0  0  0  0  0  0  0  0  0
   59.5334   35.3034   45.5371 H   0  0  0  0  0  0  0  0  0  0  0  0
   59.2244   34.3218   43.2482 H   0  0  0  0  0  0  0  0  0  0  0  0
  1  2  1  0
  2  3  1  0
  3  4  2  0
  4  5  1  0
  5  6  1  0
  6  7  2  0
  7  8  1  0
  8  9  2  0
  9 10  1  0
 10 11  2  0
 11  3  1  0
 11  6  1  0
  1 12  1  0
  1 13  1  0
  1 14  1  0
  2 15  1  0
  2 16  1  0
  4 17  1  0
  7 18  1  0
  8 19  1  0
  9 20  1  0
 10 21  1  0
M  END
>  <UniqueID>  (35) 
35

>  <SMILES>  (35) 
CCc1csc2ccccc12

>  <Energy>  (35) 
48.66377641516721

>  <Genealogy>  (35) 
CCc1csc2ccccc12 (3D coordinates assigned)
CCc1csc2ccccc12 (optimized conformer: 48.66377641516721 kcal/mol)

>  <smiles>  (35) 
CCc1csc2ccccc12

>  <score_type>  (35) 
oracle

>  <origin>  (35) 
adg

>  <m_score__min__energy>  (35) 
-5.3399999999999999

>  <m_primary>  (35) 
energy

$$$$
35:0
     RDKit          3D

 45 47  0  0  0  0  0  0  0  0999 V2000
   61.1890   30.6160   46.7650 C   0  0  0  0  0  0  0  0  0  0  0  0
   61.7500   31.4850   47.8430 C   0  0  0  0  0  0  0  0  0  0  0  0
   62.1460   31.0190   49.0440 N   0  0  0  0  0  0  0  0  0  0  0  0
   62.5290   32.0560   49.7720 N   0  0  0  0  0  0  0  0  0  0  0  0
   63.0060   31.9430   51.1450 C   0  0  0  0  0  0  0  0  0  0  0  0
   62.3920   33.1940   49.0570 C   0  0  0  0  0  0  0  0  0  0  0  0
   62.6270   34.5770   49.5870 C   0  0  0  0  0  0  0  0  0  0  0  0
   61.8760   32.8660   47.8150 C   0  0  0  0  0  0  0  0  0  0  0  0
   61.4730   33.8100   46.7160 C   0  0  0  0  0  0  0  0  0  0  0  0
   60.2560   34.5560   47.1050 N   0  0  0  0  0  0  0  0  0  0  0  0
   59.6400   35.2730   45.9840 C   0  0  0  0  0  0  0  0  0  0  0  0
   59.1270   34.3250   44.8960 C   0  0  0  0  0  0  0  0  0  0  0  0
   58.4880   33.0960   45.4100 N   0  0  0  0  0  0  0  0  0  0  0  0
   57.8630   32.1770   44.4580 C   0  0  0  0  0  0  0  0  0  0  0  0
   57.2960   30.9490   44.8820 C   0  0  0  0  0  0  0  0  0  0  0  0
   56.7010   30.0750   43.9680 C   0  0  0  0  0  0  0  0  0  0  0  0
   56.6560   30.3970   42.6130 C   0  0  0  0  0  0  0  0  0  0  0  0
   57.2110   31.5950   42.1680 C   0  0  0  0  0  0  0  0  0  0  0  0
   57.8090   32.4760   43.0730 C   0  0  0  0  0  0  0  0  0  0  0  0
   58.5880   32.6910   46.8310 C   0  0  0  0  0  0  0  0  0  0  0  0
   59.2430   33.7230   47.7660 C   0  0  0  0  0  0  0  0  0  0  0  0
   60.6454   29.7740   47.2185 H   0  0  0  0  0  0  0  0  0  0  0  0
   60.4997   31.2042   46.1414 H   0  0  0  0  0  0  0  0  0  0  0  0
   62.0088   30.2299   46.1414 H   0  0  0  0  0  0  0  0  0  0  0  0
   62.1756   32.1397   51.8390 H   0  0  0  0  0  0  0  0  0  0  0  0
   63.3941   30.9281   51.3160 H   0  0  0  0  0  0  0  0  0  0  0  0
   63.8082   32.6760   51.3160 H   0  0  0  0  0  0  0  0  0  0  0  0
   62.6231   34.5538   50.6867 H   0  0  0  0  0  0  0  0  0  0  0  0
   63.6006   34.9454   49.2315 H   0  0  0  0  0  0  0  0  0  0  0  0
   61.8297   35.2463   49.2315 H   0  0  0  0  0  0  0  0  0  0  0  0
   62.2912   34.5212   46.5295 H   0  0  0  0  0  0  0  0  0  0  0  0
   61.2636   33.2314   45.8042 H   0  0  0  0  0  0  0  0  0  0  0  0
   58.7942   35.8643   46.3648 H   0  0  0  0  0  0  0  0  0  0  0  0
   60.4104   35.9157   45.5330 H   0  0  0  0  0  0  0  0  0  0  0  0
   58.3892   34.8675   44.2867 H   0  0  0  0  0  0  0  0  0  0  0  0
   60.0065   34.0040   44.3186 H   0  0  0  0  0  0  0  0  0  0  0  0
   57.3248   30.6795   45.9481 H   0  0  0  0  0  0  0  0  0  0  0  0
   56.2660   29.1280   44.3201 H   0  0  0  0  0  0  0  0  0  0  0  0
   56.1840   29.7078   41.8973 H   0  0  0  0  0  0  0  0  0  0  0  0
   57.1783   31.8488   41.0982 H   0  0  0  0  0  0  0  0  0  0  0  0
   58.2448   33.4166   42.7050 H   0  0  0  0  0  0  0  0  0  0  0  0
   57.5706   32.4954   47.2007 H   0  0  0  0  0  0  0  0  0  0  0  0
   59.2421   31.8068   46.8493 H   0  0  0  0  0  0  0  0  0  0  0  0
   58.4562   34.3815   48.1627 H   0  0  0  0  0  0  0  0  0  0  0  0
   59.7563   33.1595   48.5591 H   0  0  0  0  0  0  0  0  0  0  0  0
  1  2  1  0
  2  3  2  0
  3  4  1  0
  4  5  1  0
  4  6  1  0
  6  7  1  0
  6  8  2  0
  8  9  1  0
  9 10  1  0
 10 11  1  0
 11 12  1  0
 12 13  1  0
 13 14  1  0
 14 15  2  0
 15 16  1  0
 16 17  2  0
 17 18  1  0
 18 19  2  0
 13 20  1  0
 20 21  1  0
  8  2  1  0
 21 10  1  0
 19 14  1  0
  1 22  1  0
  1 23  1  0
  1 24  1  0
  5 25  1  0
  5 26  1  0
  5 27  1  0
  7 28  1  0
  7 29  1  0
  7 30  1  0
  9 31  1  0
  9 32  1  0
 11 33  1  0
 11 34  1  0
 12 35  1  0
 12 36  1  0
 15 37  1  0
 16 38  1  0
 17 39  1  0
 18 40  1  0
 19 41  1  0
 20 42  1  0
 20 43  1  0
 21 44  1  0
 21 45  1  0
M  END
>  <UniqueID>  (36) 
36

>  <SMILES>  (36) 
Cc1nn(C)c(C)c1CN1CCN(c2ccccc2)CC1

>  <Energy>  (36) 
83.24501396863815

>  <Genealogy>  (36) 
Cc1nn(C)c(C)c1CN1CCN(c2ccccc2)CC1 (3D coordinates assigned)
Cc1nn(C)c(C)c1CN1CCN(c2ccccc2)CC1 (nonaromatic ring conformer: 83.24501396863815 kcal/mol)

>  <smiles>  (36) 
Cc1nn(C)c(C)c1CN1CCN(c2ccccc2)CC1

>  <score_type>  (36) 
oracle

>  <origin>  (36) 
adg

>  <m_score__min__energy>  (36) 
-7.1900000000000004

>  <m_primary>  (36) 
energy

$$$$
36:0
     RDKit          3D

 51 53  0  0  0  0  0  0  0  0999 V2000
   57.8950   19.8380   46.9930 C   0  0  0  0  0  0  0  0  0  0  0  0
   57.7460   21.2370   46.7740 O   0  0  0  0  0  0  0  0  0  0  0  0
   57.3720   21.8200   45.5510 C   0  0  0  0  0  0  0  0  0  0  0  0
   57.0690   21.0360   44.4200 C   0  0  0  0  0  0  0  0  0  0  0  0
   56.7080   21.6430   43.2140 C   0  0  0  0  0  0  0  0  0  0  0  0
   56.6440   23.0340   43.1220 C   0  0  0  0  0  0  0  0  0  0  0  0
   56.9350   23.8230   44.2360 C   0  0  0  0  0  0  0  0  0  0  0  0
   57.2940   23.2280   45.4580 C   0  0  0  0  0  0  0  0  0  0  0  0
   57.6320   24.0970   46.6420 C   0  0  0  0  0  0  0  0  0  0  0  0
   56.5590   25.0580   46.8770 N   0  0  0  0  0  0  0  0  0  0  0  0
   56.3980   26.2950   46.1740 C   0  0  0  0  0  0  0  0  0  0  0  0
   55.2290   26.7140   45.9640 O   0  0  0  0  0  0  0  0  0  0  0  0
   57.5830   27.1390   45.7520 C   0  0  2  0  0  0  0  0  0  0  0  0
   57.7730   28.3060   46.7170 C   0  0  0  0  0  0  0  0  0  0  0  0
   59.0240   29.1150   46.3570 C   0  0  0  0  0  0  0  0  0  0  0  0
   59.2980   29.1770   44.8360 C   0  0  0  0  0  0  0  0  0  0  0  0
   58.0990   28.9370   44.0050 N   0  0  2  0  0  0  0  0  0  0  0  0
   57.0020   30.3160   44.0140 S   0  0  0  0  0  0  0  0  0  0  0  0
   55.8090   29.9680   44.8580 O   0  0  0  0  0  0  0  0  0  0  0  0
   56.4980   30.6240   42.6320 O   0  0  0  0  0  0  0  0  0  0  0  0
   57.7250   31.7780   44.6850 C   0  0  0  0  0  0  0  0  0  0  0  0
   57.7950   31.9520   46.0760 C   0  0  0  0  0  0  0  0  0  0  0  0
   58.3960   33.0950   46.6100 C   0  0  0  0  0  0  0  0  0  0  0  0
   58.9310   34.0680   45.7610 C   0  0  0  0  0  0  0  0  0  0  0  0
   58.8650   33.8990   44.3760 C   0  0  0  0  0  0  0  0  0  0  0  0
   58.2640   32.7580   43.8380 C   0  0  0  0  0  0  0  0  0  0  0  0
   57.4510   27.6260   44.2840 C   0  0  0  0  0  0  0  0  0  0  0  0
   57.9165   19.6364   48.0741 H   0  0  0  0  0  0  0  0  0  0  0  0
   57.0487   19.3033   46.5370 H   0  0  0  0  0  0  0  0  0  0  0  0
   58.8349   19.4935   46.5370 H   0  0  0  0  0  0  0  0  0  0  0  0
   57.1169   19.9391   44.4868 H   0  0  0  0  0  0  0  0  0  0  0  0
   56.4739   21.0233   42.3358 H   0  0  0  0  0  0  0  0  0  0  0  0
   56.3639   23.5092   42.1703 H   0  0  0  0  0  0  0  0  0  0  0  0
   56.8830   24.9189   44.1571 H   0  0  0  0  0  0  0  0  0  0  0  0
   57.7573   23.4653   47.5338 H   0  0  0  0  0  0  0  0  0  0  0  0
   58.5658   24.6408   46.4365 H   0  0  0  0  0  0  0  0  0  0  0  0
   58.4828   26.5076   45.7942 H   0  0  0  0  0  0  0  0  0  0  0  0
   56.8922   28.9629   46.6657 H   0  0  0  0  0  0  0  0  0  0  0  0
   57.8944   27.9049   47.7341 H   0  0  0  0  0  0  0  0  0  0  0  0
   58.8948   30.1416   46.7303 H   0  0  0  0  0  0  0  0  0  0  0  0
   59.8831   28.6090   46.8216 H   0  0  0  0  0  0  0  0  0  0  0  0
   59.6934   30.1748   44.5949 H   0  0  0  0  0  0  0  0  0  0  0  0
   60.0141   28.3744   44.6058 H   0  0  0  0  0  0  0  0  0  0  0  0
   58.4420   28.8850   43.0170 H   0  0  0  0  0  0  0  0  0  0  0  0
   57.3761   31.1875   46.7468 H   0  0  0  0  0  0  0  0  0  0  0  0
   58.4482   33.2293   47.7005 H   0  0  0  0  0  0  0  0  0  0  0  0
   59.4040   34.9668   46.1835 H   0  0  0  0  0  0  0  0  0  0  0  0
   59.2865   34.6648   43.7083 H   0  0  0  0  0  0  0  0  0  0  0  0
   58.2133   32.6277   42.7469 H   0  0  0  0  0  0  0  0  0  0  0  0
   56.3805   27.7151   44.0471 H   0  0  0  0  0  0  0  0  0  0  0  0
   57.9705   26.8828   43.6612 H   0  0  0  0  0  0  0  0  0  0  0  0
  1  2  1  0
  2  3  1  0
  3  4  2  0
  4  5  1  0
  5  6  2  0
  6  7  1  0
  7  8  2  0
  8  9  1  0
  9 10  1  0
 10 11  1  0
 11 12  2  0
 11 13  1  0
 13 14  1  0
 14 15  1  0
 15 16  1  0
 16 17  1  0
 17 18  1  0
 18 19  2  0
 18 20  2  0
 18 21  1  0
 21 22  2  0
 22 23  1  0
 23 24  2  0
 24 25  1  0
 25 26  2  0
 17 27  1  0
  8  3  1  0
 27 13  1  0
 26 21  1  0
  1 28  1  0
  1 29  1  0
  1 30  1  0
  4 31  1  0
  5 32  1  0
  6 33  1  0
  7 34  1  0
  9 35  1  0
  9 36  1  0
 13 37  1  6
 14 38  1  0
 14 39  1  0
 15 40  1  0
 15 41  1  0
 16 42  1  0
 16 43  1  0
 17 44  1  6
 22 45  1  0
 23 46  1  0
 24 47  1  0
 25 48  1  0
 26 49  1  0
 27 50  1  0
 27 51  1  0
M  CHG  2  10  -1  17   1
M  END
>  <UniqueID>  (37) 
37

>  <SMILES>  (37) 
COc1ccccc1C[N-]C(=O)[C@@H]1CCC[N@H+](S(=O)(=O)c2ccccc2)C1

>  <Energy>  (37) 
62.329959448284605

>  <Genealogy>  (37) 
COc1ccccc1C[N-]C(=O)C1CCC[NH+](S(=O)(=O)c2ccccc2)C1 (protonated)
COc1ccccc1C[N-]C(=O)[C@@H]1CCC[N@H+](S(=O)(=O)c2ccccc2)C1 (chirality)
COc1ccccc1C[N-]C(=O)[C@@H]1CCC[N@H+](S(=O)(=O)c2ccccc2)C1 (3D coordinates assigned)
COc1ccccc1C[N-]C(=O)[C@@H]1CCC[N@H+](S(=O)(=O)c2ccccc2)C1 (nonaromatic ring conformer: 62.329959448284605 kcal/mol)

>  <smiles>  (37) 
COc1ccccc1CNC(=O)C1CCCN(S(=O)(=O)c2ccccc2)C1

>  <score_type>  (37) 
oracle

>  <origin>  (37) 
adg

>  <m_score__min__energy>  (37) 
-10.460000000000001

>  <m_primary>  (37) 
energy

$$$$
37:0
     RDKit          3D

 53 55  0  0  0  0  0  0  0  0999 V2000
   57.3710   28.7210   43.3890 C   0  0  0  0  0  0  0  0  0  0  0  0
   56.2140   29.7200   43.3970 C   0  0  0  0  0  0  0  0  0  0  0  0
   56.4580   30.8930   44.3600 C   0  0  0  0  0  0  0  0  0  0  0  0
   57.8260   31.5820   44.1820 C   0  0  0  0  0  0  0  0  0  0  0  0
   58.3700   32.1820   45.4820 C   0  0  0  0  0  0  0  0  0  0  0  0
   58.2330   33.5630   45.7490 C   0  0  0  0  0  0  0  0  0  0  0  0
   57.4270   34.4900   44.8700 C   0  0  0  0  0  0  0  0  0  0  0  0
   58.8570   34.1040   46.8700 C   0  0  0  0  0  0  0  0  0  0  0  0
   59.5470   33.2930   47.7750 C   0  0  0  0  0  0  0  0  0  0  0  0
   60.2360   33.9990   48.9340 C   0  0  0  0  0  0  0  0  0  0  0  0
   61.7270   33.7570   48.9160 C   0  0  0  0  0  0  0  0  0  0  0  0
   62.4010   33.5340   47.7020 C   0  0  0  0  0  0  0  0  0  0  0  0
   63.7770   33.2890   47.6940 C   0  0  0  0  0  0  0  0  0  0  0  0
   64.4920   33.2600   48.8950 C   0  0  0  0  0  0  0  0  0  0  0  0
   63.8300   33.4760   50.1060 C   0  0  0  0  0  0  0  0  0  0  0  0
   62.4540   33.7210   50.1190 C   0  0  0  0  0  0  0  0  0  0  0  0
   59.5890   31.9270   47.5830 N   0  0  0  0  0  0  0  0  0  0  0  0
   60.2620   31.0700   48.5840 C   0  0  0  0  0  0  0  0  0  0  0  0
   59.0490   31.3680   46.4370 C   0  0  0  0  0  0  0  0  0  0  0  0
   59.1660   29.9060   46.1930 C   0  0  0  0  0  0  0  0  0  0  0  0
   58.2230   29.0200   46.7370 C   0  0  0  0  0  0  0  0  0  0  0  0
   58.3570   27.6420   46.5380 C   0  0  0  0  0  0  0  0  0  0  0  0
   59.4410   27.1410   45.8120 C   0  0  0  0  0  0  0  0  0  0  0  0
   60.3960   28.0160   45.2880 C   0  0  0  0  0  0  0  0  0  0  0  0
   60.2660   29.3950   45.4830 C   0  0  0  0  0  0  0  0  0  0  0  0
   57.6526   28.4778   44.4242 H   0  0  0  0  0  0  0  0  0  0  0  0
   57.0595   27.8033   42.8685 H   0  0  0  0  0  0  0  0  0  0  0  0
   58.2334   29.1629   42.8685 H   0  0  0  0  0  0  0  0  0  0  0  0
   56.0850   30.1190   42.3801 H   0  0  0  0  0  0  0  0  0  0  0  0
   55.3141   29.1876   43.7388 H   0  0  0  0  0  0  0  0  0  0  0  0
   55.6700   31.6430   44.1969 H   0  0  0  0  0  0  0  0  0  0  0  0
   56.4442   30.4752   45.3775 H   0  0  0  0  0  0  0  0  0  0  0  0
   58.5468   30.8385   43.8110 H   0  0  0  0  0  0  0  0  0  0  0  0
   57.6863   32.4102   43.4717 H   0  0  0  0  0  0  0  0  0  0  0  0
   56.8354   35.1705   45.5000 H   0  0  0  0  0  0  0  0  0  0  0  0
   58.1071   35.0766   44.2349 H   0  0  0  0  0  0  0  0  0  0  0  0
   56.7516   33.8980   44.2349 H   0  0  0  0  0  0  0  0  0  0  0  0
   58.8059   35.1886   47.0463 H   0  0  0  0  0  0  0  0  0  0  0  0
   60.0475   35.0801   48.8580 H   0  0  0  0  0  0  0  0  0  0  0  0
   59.8306   33.5984   49.8749 H   0  0  0  0  0  0  0  0  0  0  0  0
   61.8427   33.5525   46.7544 H   0  0  0  0  0  0  0  0  0  0  0  0
   64.2985   33.1186   46.7406 H   0  0  0  0  0  0  0  0  0  0  0  0
   65.5749   33.0673   48.8864 H   0  0  0  0  0  0  0  0  0  0  0  0
   64.3926   33.4532   51.0510 H   0  0  0  0  0  0  0  0  0  0  0  0
   61.9369   33.8866   51.0757 H   0  0  0  0  0  0  0  0  0  0  0  0
   59.9955   31.4094   49.5958 H   0  0  0  0  0  0  0  0  0  0  0  0
   59.9391   30.0270   48.4502 H   0  0  0  0  0  0  0  0  0  0  0  0
   61.3518   31.1364   48.4502 H   0  0  0  0  0  0  0  0  0  0  0  0
   57.3766   29.4103   47.3212 H   0  0  0  0  0  0  0  0  0  0  0  0
   57.6081   26.9517   46.9535 H   0  0  0  0  0  0  0  0  0  0  0  0
   59.5424   26.0573   45.6530 H   0  0  0  0  0  0  0  0  0  0  0  0
   61.2514   27.6198   44.7212 H   0  0  0  0  0  0  0  0  0  0  0  0
   61.0259   30.0806   45.0800 H   0  0  0  0  0  0  0  0  0  0  0  0
  1  2  1  0
  2  3  1  0
  3  4  1  0
  4  5  1  0
  5  6  2  0
  6  7  1  0
  6  8  1  0
  8  9  2  0
  9 10  1  0
 10 11  1  0
 11 12  2  0
 12 13  1  0
 13 14  2  0
 14 15  1  0
 15 16  2  0
  9 17  1  0
 17 18  1  0
 17 19  2  0
 19 20  1  0
 20 21  2  0
 21 22  1  0
 22 23  2  0
 23 24  1  0
 24 25  2  0
 19  5  1  0
 25 20  1  0
 16 11  1  0
  1 26  1  0
  1 27  1  0
  1 28  1  0
  2 29  1  0
  2 30  1  0
  3 31  1  0
  3 32  1  0
  4 33  1  0
  4 34  1  0
  7 35  1  0
  7 36  1  0
  7 37  1  0
  8 38  1  0
 10 39  1  0
 10 40  1  0
 12 41  1  0
 13 42  1  0
 14 43  1  0
 15 44  1  0
 16 45  1  0
 18 46  1  0
 18 47  1  0
 18 48  1  0
 21 49  1  0
 22 50  1  0
 23 51  1  0
 24 52  1  0
 25 53  1  0
M  CHG  1  17   1
M  END
>  <UniqueID>  (38) 
38

>  <SMILES>  (38) 
CCCCc1c(C)cc(Cc2ccccc2)[n+](C)c1-c1ccccc1

>  <Energy>  (38) 
68.98277216472152

>  <Genealogy>  (38) 
CCCCc1c(C)cc(Cc2ccccc2)[n+](C)c1-c1ccccc1 (3D coordinates assigned)
CCCCc1c(C)cc(Cc2ccccc2)[n+](C)c1-c1ccccc1 (optimized conformer: 68.98277216472152 kcal/mol)

>  <smiles>  (38) 
CCCCc1c(C)cc(Cc2ccccc2)[n+](C)c1-c1ccccc1

>  <score_type>  (38) 
oracle

>  <origin>  (38) 
adg

>  <m_score__min__energy>  (38) 
-7.0199999999999996

>  <m_primary>  (38) 
energy

$$$$
38:0
     RDKit          3D

 40 41  0  0  0  0  0  0  0  0999 V2000
   58.1450   26.8060   42.9880 C   0  0  0  0  0  0  0  0  0  0  0  0
   58.9300   27.7280   43.7380 O   0  0  0  0  0  0  0  0  0  0  0  0
   59.0140   27.7540   45.1400 C   0  0  0  0  0  0  0  0  0  0  0  0
   59.3950   26.6120   45.8740 C   0  0  0  0  0  0  0  0  0  0  0  0
   59.4890   26.6610   47.2640 C   0  0  0  0  0  0  0  0  0  0  0  0
   59.2030   27.8430   47.9430 C   0  0  0  0  0  0  0  0  0  0  0  0
   58.8200   28.9830   47.2330 C   0  0  0  0  0  0  0  0  0  0  0  0
   58.7210   28.9550   45.8290 C   0  0  0  0  0  0  0  0  0  0  0  0
   58.2930   30.1690   45.0890 C   0  0  0  0  0  0  0  0  0  0  0  0
   58.3560   30.3150   43.7440 N   0  0  0  0  0  0  0  0  0  0  0  0
   57.8830   31.5520   43.5150 C   0  0  0  0  0  0  0  0  0  0  0  0
   57.7610   32.1550   42.2150 C   0  0  0  0  0  0  0  0  0  0  0  0
   57.6630   32.6380   41.1680 N   0  0  0  0  0  0  0  0  0  0  0  0
   57.5500   32.1150   44.7250 C   0  0  0  0  0  0  0  0  0  0  0  0
   57.0180   33.4260   44.9410 N   0  0  0  0  0  0  0  0  0  0  0  0
   57.8550   34.5410   45.3790 C   0  0  0  0  0  0  0  0  0  0  0  0
   59.3420   34.2170   45.1820 C   0  0  0  0  0  0  0  0  0  0  0  0
   59.8960   33.5190   46.3630 N   0  0  0  0  0  0  0  0  0  0  0  0
   59.1730   33.8960   47.5900 C   0  0  0  0  0  0  0  0  0  0  0  0
   61.3270   33.8230   46.5210 C   0  0  0  0  0  0  0  0  0  0  0  0
   57.8060   31.2460   45.6740 O   0  0  0  0  0  0  0  0  0  0  0  0
   57.5889   26.1529   43.6766 H   0  0  0  0  0  0  0  0  0  0  0  0
   57.4361   27.3588   42.3541 H   0  0  0  0  0  0  0  0  0  0  0  0
   58.8038   26.1943   42.3541 H   0  0  0  0  0  0  0  0  0  0  0  0
   59.6201   25.6741   45.3451 H   0  0  0  0  0  0  0  0  0  0  0  0
   59.7897   25.7643   47.8257 H   0  0  0  0  0  0  0  0  0  0  0  0
   59.2789   27.8786   49.0398 H   0  0  0  0  0  0  0  0  0  0  0  0
   58.5934   29.9122   47.7763 H   0  0  0  0  0  0  0  0  0  0  0  0
   58.6780   29.6280   43.0280 H   0  0  0  0  0  0  0  0  0  0  0  0
   55.9920   33.5870   44.8180 H   0  0  0  0  0  0  0  0  0  0  0  0
   57.6001   35.4356   44.7919 H   0  0  0  0  0  0  0  0  0  0  0  0
   57.6721   34.7199   46.4488 H   0  0  0  0  0  0  0  0  0  0  0  0
   59.4552   33.5724   44.2979 H   0  0  0  0  0  0  0  0  0  0  0  0
   59.8901   35.1608   45.0450 H   0  0  0  0  0  0  0  0  0  0  0  0
   59.7589   33.5905   48.4694 H   0  0  0  0  0  0  0  0  0  0  0  0
   59.0254   34.9859   47.6084 H   0  0  0  0  0  0  0  0  0  0  0  0
   58.1948   33.3931   47.6084 H   0  0  0  0  0  0  0  0  0  0  0  0
   61.5747   33.8756   47.5915 H   0  0  0  0  0  0  0  0  0  0  0  0
   61.9247   33.0318   46.0448 H   0  0  0  0  0  0  0  0  0  0  0  0
   61.5514   34.7889   46.0448 H   0  0  0  0  0  0  0  0  0  0  0  0
  1  2  1  0
  2  3  1  0
  3  4  2  0
  4  5  1  0
  5  6  2  0
  6  7  1  0
  7  8  2  0
  8  9  1  0
  9 10  2  0
 10 11  1  0
 11 12  1  0
 12 13  3  0
 11 14  2  0
 14 15  1  0
 15 16  1  0
 16 17  1  0
 17 18  1  0
 18 19  1  0
 18 20  1  0
 14 21  1  0
  8  3  1  0
 21  9  1  0
  1 22  1  0
  1 23  1  0
  1 24  1  0
  4 25  1  0
  5 26  1  0
  6 27  1  0
  7 28  1  0
 10 29  1  0
 15 30  1  0
 16 31  1  0
 16 32  1  0
 17 33  1  0
 17 34  1  0
 19 35  1  0
 19 36  1  0
 19 37  1  0
 20 38  1  0
 20 39  1  0
 20 40  1  0
M  CHG  1  10   1
M  END
>  <UniqueID>  (39) 
39

>  <SMILES>  (39) 
COc1ccccc1-c1[nH+]c(C#N)c(NCCN(C)C)o1

>  <Energy>  (39) 
67.93186946818822

>  <Genealogy>  (39) 
COc1ccccc1-c1[nH+]c(C#N)c(NCCN(C)C)o1 (protonated)
COc1ccccc1-c1[nH+]c(C#N)c(NCCN(C)C)o1 (3D coordinates assigned)
COc1ccccc1-c1[nH+]c(C#N)c(NCCN(C)C)o1 (optimized conformer: 67.93186946818822 kcal/mol)

>  <smiles>  (39) 
COc1ccccc1-c1nc(C#N)c(NCCN(C)C)o1

>  <score_type>  (39) 
oracle

>  <origin>  (39) 
adg

>  <m_score__min__energy>  (39) 
-4.8600000000000003

>  <m_primary>  (39) 
energy

$$$$
39:0
     RDKit          3D

 43 44  0  0  0  0  0  0  0  0999 V2000
   54.4540   23.7050   46.3950 C   0  0  0  0  0  0  0  0  0  0  0  0
   54.4160   24.8640   45.4050 C   0  0  0  0  0  0  0  0  0  0  0  0
   54.9730   26.0430   45.9870 O   0  0  0  0  0  0  0  0  0  0  0  0
   56.3360   26.2610   46.2560 C   0  0  0  0  0  0  0  0  0  0  0  0
   57.1460   25.3000   46.8940 C   0  0  0  0  0  0  0  0  0  0  0  0
   58.4940   25.5690   47.1410 C   0  0  0  0  0  0  0  0  0  0  0  0
   59.0490   26.7890   46.7540 C   0  0  0  0  0  0  0  0  0  0  0  0
   58.2560   27.7470   46.1190 C   0  0  0  0  0  0  0  0  0  0  0  0
   56.8960   27.4880   45.8660 C   0  0  0  0  0  0  0  0  0  0  0  0
   56.0620   28.4240   45.2380 O   0  0  0  0  0  0  0  0  0  0  0  0
   56.4270   29.2160   44.1140 C   0  0  0  0  0  0  0  0  0  0  0  0
   55.9800   30.6780   44.3120 C   0  0  0  0  0  0  0  0  0  0  0  0
   57.0170   31.5850   44.8600 N   0  0  0  0  0  0  0  0  0  0  0  0
   57.7540   32.3570   43.8450 C   0  0  0  0  0  0  0  0  0  0  0  0
   58.5280   33.5080   44.5150 C   0  0  0  0  0  0  0  0  0  0  0  0
   59.0080   33.1840   45.8810 N   0  0  0  0  0  0  0  0  0  0  0  0
   58.1500   33.7730   46.9240 C   0  0  0  0  0  0  0  0  0  0  0  0
   59.2030   31.7350   46.0840 C   0  0  0  0  0  0  0  0  0  0  0  0
   57.9070   30.9320   45.8460 C   0  0  0  0  0  0  0  0  0  0  0  0
   54.4411   24.0993   47.4218 H   0  0  0  0  0  0  0  0  0  0  0  0
   53.5765   23.0603   46.2387 H   0  0  0  0  0  0  0  0  0  0  0  0
   55.3718   23.1192   46.2387 H   0  0  0  0  0  0  0  0  0  0  0  0
   54.9964   24.5940   44.5104 H   0  0  0  0  0  0  0  0  0  0  0  0
   53.3687   25.0639   45.1343 H   0  0  0  0  0  0  0  0  0  0  0  0
   56.7149   24.3348   47.1984 H   0  0  0  0  0  0  0  0  0  0  0  0
   59.1202   24.8164   47.6424 H   0  0  0  0  0  0  0  0  0  0  0  0
   60.1115   26.9963   46.9491 H   0  0  0  0  0  0  0  0  0  0  0  0
   58.6962   28.7082   45.8152 H   0  0  0  0  0  0  0  0  0  0  0  0
   57.5196   29.1857   43.9899 H   0  0  0  0  0  0  0  0  0  0  0  0
   55.9310   28.8117   43.2193 H   0  0  0  0  0  0  0  0  0  0  0  0
   55.6640   31.0728   43.3351 H   0  0  0  0  0  0  0  0  0  0  0  0
   55.1713   30.6524   45.0572 H   0  0  0  0  0  0  0  0  0  0  0  0
   58.4633   31.6941   43.3278 H   0  0  0  0  0  0  0  0  0  0  0  0
   57.0389   32.7766   43.1221 H   0  0  0  0  0  0  0  0  0  0  0  0
   59.3989   33.7523   43.8890 H   0  0  0  0  0  0  0  0  0  0  0  0
   57.8310   34.3537   44.6098 H   0  0  0  0  0  0  0  0  0  0  0  0
   58.5417   33.5041   47.9161 H   0  0  0  0  0  0  0  0  0  0  0  0
   58.1422   34.8678   46.8173 H   0  0  0  0  0  0  0  0  0  0  0  0
   57.1255   33.3869   46.8173 H   0  0  0  0  0  0  0  0  0  0  0  0
   59.9731   31.3799   45.3834 H   0  0  0  0  0  0  0  0  0  0  0  0
   59.5089   31.5792   47.1290 H   0  0  0  0  0  0  0  0  0  0  0  0
   58.1735   29.9315   45.4744 H   0  0  0  0  0  0  0  0  0  0  0  0
   57.3660   30.8734   46.8020 H   0  0  0  0  0  0  0  0  0  0  0  0
  1  2  1  0
  2  3  1  0
  3  4  1  0
  4  5  2  0
  5  6  1  0
  6  7  2  0
  7  8  1  0
  8  9  2  0
  9 10  1  0
 10 11  1  0
 11 12  1  0
 12 13  1  0
 13 14  1  0
 14 15  1  0
 15 16  1  0
 16 17  1  0
 16 18  1  0
 18 19  1  0
  9  4  1  0
 19 13  1  0
  1 20  1  0
  1 21  1  0
  1 22  1  0
  2 23  1  0
  2 24  1  0
  5 25  1  0
  6 26  1  0
  7 27  1  0
  8 28  1  0
 11 29  1  0
 11 30  1  0
 12 31  1  0
 12 32  1  0
 14 33  1  0
 14 34  1  0
 15 35  1  0
 15 36  1  0
 17 37  1  0
 17 38  1  0
 17 39  1  0
 18 40  1  0
 18 41  1  0
 19 42  1  0
 19 43  1  0
M  END
>  <UniqueID>  (40) 
40

>  <SMILES>  (40) 
CCOc1ccccc1OCCN1CCN(C)CC1

>  <Energy>  (40) 
52.047387276177986

>  <Genealogy>  (40) 
CCOc1ccccc1OCCN1CCN(C)CC1 (3D coordinates assigned)
CCOc1ccccc1OCCN1CCN(C)CC1 (nonaromatic ring conformer: 52.047387276177986 kcal/mol)

>  <smiles>  (40) 
CCOc1ccccc1OCCN1CCN(C)CC1

>  <score_type>  (40) 
oracle

>  <origin>  (40) 
adg

>  <m_score__min__energy>  (40) 
-6.7699999999999996

>  <m_primary>  (40) 
energy

$$$$
