0:0
     RDKit          3D

 73 75  0  0  0  0  0  0  0  0999 V2000
   62.8770   31.3010   50.5950 C   0  0  0  0  0  0  0  0  0  0  0  0
   62.9810   32.6920   49.9480 C   0  0  0  0  0  0  0  0  0  0  0  0
   64.4530   33.0700   49.6830 C   0  0  0  0  0  0  0  0  0  0  0  0
   62.0980   32.7990   48.7480 N   0  0  0  0  0  0  0  0  0  0  0  0
   61.4730   34.1340   48.5710 C   0  0  0  0  0  0  0  0  0  0  0  0
   60.0390   34.2060   49.1180 C   0  0  0  0  0  0  0  0  0  0  0  0
   59.5910   32.8960   49.5830 N   0  0  0  0  0  0  0  0  0  0  0  0
   62.7040   32.3060   47.4820 C   0  0  0  0  0  0  0  0  0  0  0  0
   62.1310   30.9350   47.1140 C   0  0  0  0  0  0  0  0  0  0  0  0
   60.7380   30.8090   47.5400 N   0  0  0  0  0  0  0  0  0  0  0  0
   59.7130   30.4940   46.5820 C   0  0  0  0  0  0  0  0  0  0  0  0
   58.9840   31.5240   45.9620 C   0  0  0  0  0  0  0  0  0  0  0  0
   59.2540   32.8780   46.2500 C   0  0  0  0  0  0  0  0  0  0  0  0
   58.4950   33.8930   45.6740 C   0  0  0  0  0  0  0  0  0  0  0  0
   57.4520   33.5790   44.8120 C   0  0  0  0  0  0  0  0  0  0  0  0
   57.1820   32.2490   44.4930 C   0  0  0  0  0  0  0  0  0  0  0  0
   57.9660   31.1930   45.0270 C   0  0  0  0  0  0  0  0  0  0  0  0
   57.7510   29.8750   44.6710 N   0  0  0  0  0  0  0  0  0  0  0  0
   56.9050   29.5520   43.5000 C   0  0  0  0  0  0  0  0  0  0  0  0
   58.3490   28.8570   45.3900 C   0  0  0  0  0  0  0  0  0  0  0  0
   57.9510   27.5040   45.2420 C   0  0  0  0  0  0  0  0  0  0  0  0
   58.5770   26.4740   45.9480 C   0  0  0  0  0  0  0  0  0  0  0  0
   58.1130   25.1630   45.7510 O   0  0  0  0  0  0  0  0  0  0  0  0
   57.7540   24.5800   44.4970 C   0  0  0  0  0  0  0  0  0  0  0  0
   56.9600   23.2620   44.6680 C   0  0  0  0  0  0  0  0  0  0  0  0
   57.7230   21.9960   44.4370 N   0  0  0  0  0  0  0  0  0  0  0  0
   59.1870   22.2260   44.4810 C   0  0  0  0  0  0  0  0  0  0  0  0
   57.3540   20.9530   45.4260 C   0  0  0  0  0  0  0  0  0  0  0  0
   57.3710   21.4960   43.0850 C   0  0  0  0  0  0  0  0  0  0  0  0
   59.6300   26.7810   46.8180 C   0  0  0  0  0  0  0  0  0  0  0  0
   60.0110   28.1040   47.0150 C   0  0  0  0  0  0  0  0  0  0  0  0
   59.3710   29.1540   46.3280 C   0  0  0  0  0  0  0  0  0  0  0  0
   62.8847   31.4045   51.6901 H   0  0  0  0  0  0  0  0  0  0  0  0
   61.9403   30.8187   50.2789 H   0  0  0  0  0  0  0  0  0  0  0  0
   63.7316   30.6847   50.2789 H   0  0  0  0  0  0  0  0  0  0  0  0
   62.6034   33.4437   50.6567 H   0  0  0  0  0  0  0  0  0  0  0  0
   64.9754   33.2042   50.6417 H   0  0  0  0  0  0  0  0  0  0  0  0
   64.9400   32.2678   49.1092 H   0  0  0  0  0  0  0  0  0  0  0  0
   64.4932   34.0076   49.1092 H   0  0  0  0  0  0  0  0  0  0  0  0
   62.0863   34.8801   49.0975 H   0  0  0  0  0  0  0  0  0  0  0  0
   61.4218   34.3312   47.4900 H   0  0  0  0  0  0  0  0  0  0  0  0
   60.0094   34.9156   49.9580 H   0  0  0  0  0  0  0  0  0  0  0  0
   59.3713   34.5387   48.3096 H   0  0  0  0  0  0  0  0  0  0  0  0
   60.4000   32.4140   50.0400 H   0  0  0  0  0  0  0  0  0  0  0  0
   59.3400   32.3260   48.7420 H   0  0  0  0  0  0  0  0  0  0  0  0
   62.4849   33.0191   46.6736 H   0  0  0  0  0  0  0  0  0  0  0  0
   63.7913   32.2128   47.6197 H   0  0  0  0  0  0  0  0  0  0  0  0
   62.1851   30.8053   46.0230 H   0  0  0  0  0  0  0  0  0  0  0  0
   62.7221   30.1627   47.6278 H   0  0  0  0  0  0  0  0  0  0  0  0
   60.4460   31.2780   48.4270 H   0  0  0  0  0  0  0  0  0  0  0  0
   60.0734   33.1349   46.9374 H   0  0  0  0  0  0  0  0  0  0  0  0
   58.7215   34.9450   45.9018 H   0  0  0  0  0  0  0  0  0  0  0  0
   56.8372   34.3822   44.3798 H   0  0  0  0  0  0  0  0  0  0  0  0
   56.3474   32.0140   43.8161 H   0  0  0  0  0  0  0  0  0  0  0  0
   55.9290   29.1794   43.8444 H   0  0  0  0  0  0  0  0  0  0  0  0
   56.7583   30.4574   42.8927 H   0  0  0  0  0  0  0  0  0  0  0  0
   57.3990   28.7792   42.8927 H   0  0  0  0  0  0  0  0  0  0  0  0
   57.1285   27.2594   44.5538 H   0  0  0  0  0  0  0  0  0  0  0  0
   57.1341   25.2966   43.9382 H   0  0  0  0  0  0  0  0  0  0  0  0
   58.6829   24.3457   43.9564 H   0  0  0  0  0  0  0  0  0  0  0  0
   56.5704   23.2360   45.6964 H   0  0  0  0  0  0  0  0  0  0  0  0
   56.1831   23.2835   43.8895 H   0  0  0  0  0  0  0  0  0  0  0  0
   59.5187   22.2781   45.5285 H   0  0  0  0  0  0  0  0  0  0  0  0
   59.7037   21.3980   43.9736 H   0  0  0  0  0  0  0  0  0  0  0  0
   59.4249   23.1725   43.9736 H   0  0  0  0  0  0  0  0  0  0  0  0
   57.4934   21.3469   46.4436 H   0  0  0  0  0  0  0  0  0  0  0  0
   56.3008   20.6690   45.2838 H   0  0  0  0  0  0  0  0  0  0  0  0
   57.9943   20.0699   45.2838 H   0  0  0  0  0  0  0  0  0  0  0  0
   56.7401   20.5998   43.1783 H   0  0  0  0  0  0  0  0  0  0  0  0
   56.8216   22.2758   42.5372 H   0  0  0  0  0  0  0  0  0  0  0  0
   58.2904   21.2418   42.5372 H   0  0  0  0  0  0  0  0  0  0  0  0
   60.1574   25.9737   47.3472 H   0  0  0  0  0  0  0  0  0  0  0  0
   60.8249   28.3340   47.7183 H   0  0  0  0  0  0  0  0  0  0  0  0
  1  2  1  0
  2  3  1  0
  2  4  1  0
  4  5  1  0
  5  6  1  0
  6  7  1  0
  4  8  1  0
  8  9  1  0
  9 10  1  0
 10 11  1  0
 11 12  2  0
 12 13  1  0
 13 14  2  0
 14 15  1  0
 15 16  2  0
 16 17  1  0
 17 18  2  0
 18 19  1  0
 18 20  1  0
 20 21  2  0
 21 22  1  0
 22 23  1  0
 23 24  1  0
 24 25  1  0
 25 26  1  0
 26 27  1  0
 26 28  1  0
 26 29  1  0
 22 30  2  0
 30 31  1  0
 31 32  2  0
 32 11  1  0
 17 12  1  0
 32 20  1  0
  1 33  1  0
  1 34  1  0
  1 35  1  0
  2 36  1  0
  3 37  1  0
  3 38  1  0
  3 39  1  0
  5 40  1  0
  5 41  1  0
  6 42  1  0
  6 43  1  0
  7 44  1  0
  7 45  1  0
  8 46  1  0
  8 47  1  0
  9 48  1  0
  9 49  1  0
 10 50  1  0
 13 51  1  0
 14 52  1  0
 15 53  1  0
 16 54  1  0
 19 55  1  0
 19 56  1  0
 19 57  1  0
 21 58  1  0
 24 59  1  0
 24 60  1  0
 25 61  1  0
 25 62  1  0
 27 63  1  0
 27 64  1  0
 27 65  1  0
 28 66  1  0
 28 67  1  0
 28 68  1  0
 29 69  1  0
 29 70  1  0
 29 71  1  0
 30 72  1  0
 31 73  1  0
M  CHG  2  18   1  26   1
M  END
>  <UniqueID>  (1) 
1

>  <SMILES>  (1) 
CC(C)N(CCN)CCNc1c2ccccc2[n+](C)c2cc(OCC[N+](C)(C)C)ccc12

>  <Energy>  (1) 
106.14285257899913

>  <Genealogy>  (1) 
CC(C)N(CCN)CCNc1c2ccccc2[n+](C)c2cc(OCC[N+](C)(C)C)ccc12 (3D coordinates assigned)
CC(C)N(CCN)CCNc1c2ccccc2[n+](C)c2cc(OCC[N+](C)(C)C)ccc12 (optimized conformer: 106.14285257899913 kcal/mol)

>  <smiles>  (1) 
CC(C)N(CCN)CCNc1c2ccccc2[n+](C)c2cc(OCC[N+](C)(C)C)ccc12

>  <score_type>  (1) 
oracle

>  <origin>  (1) 
adg

>  <m_score__min__energy>  (1) 
-5.4199999999999999

>  <m_primary>  (1) 
energy

$$$$
1:0
     RDKit          3D

 37 40  0  0  0  0  0  0  0  0999 V2000
   57.8880   29.4140   45.6790 C   0  0  0  0  0  0  0  0  0  0  0  0
   58.6870   30.5770   46.0550 N   0  0  0  0  0  0  0  0  0  0  0  0
   59.8350   30.5620   46.7690 C   0  0  0  0  0  0  0  0  0  0  0  0
   60.3330   31.8560   46.9130 C   0  0  0  0  0  0  0  0  0  0  0  0
   61.5540   32.2360   47.6500 C   0  0  0  0  0  0  0  0  0  0  0  0
   62.7900   31.9640   47.1970 C   0  0  0  0  0  0  0  0  0  0  0  0
   63.8910   32.3640   48.0520 N   0  0  1  0  0  0  0  0  0  0  0  0
   63.7900   33.8310   48.2810 C   0  0  0  0  0  0  0  0  0  0  0  0
   62.3910   34.1980   48.8710 C   0  0  0  0  0  0  0  0  0  0  0  0
   61.5550   32.9020   49.0120 C   0  0  2  0  0  0  0  0  0  0  0  0
   62.3310   31.9620   49.9680 C   0  0  0  0  0  0  0  0  0  0  0  0
   63.7360   31.6640   49.3550 C   0  0  0  0  0  0  0  0  0  0  0  0
   59.4450   32.6770   46.2310 C   0  0  0  0  0  0  0  0  0  0  0  0
   59.4650   34.0490   45.9660 C   0  0  0  0  0  0  0  0  0  0  0  0
   58.4190   34.5890   45.1970 C   0  0  0  0  0  0  0  0  0  0  0  0
   57.3950   33.7570   44.6980 C   0  0  0  0  0  0  0  0  0  0  0  0
   57.4110   32.3760   44.9540 C   0  0  0  0  0  0  0  0  0  0  0  0
   58.4580   31.8630   45.7250 C   0  0  0  0  0  0  0  0  0  0  0  0
   57.5362   28.9019   46.5867 H   0  0  0  0  0  0  0  0  0  0  0  0
   57.0227   29.7406   45.0835 H   0  0  0  0  0  0  0  0  0  0  0  0
   58.5033   28.7234   45.0835 H   0  0  0  0  0  0  0  0  0  0  0  0
   60.3086   29.6574   47.1781 H   0  0  0  0  0  0  0  0  0  0  0  0
   62.9572   31.4654   46.2308 H   0  0  0  0  0  0  0  0  0  0  0  0
   64.8080   32.1210   47.6100 H   0  0  0  0  0  0  0  0  0  0  0  0
   63.9289   34.3570   47.3249 H   0  0  0  0  0  0  0  0  0  0  0  0
   64.5683   34.1335   48.9970 H   0  0  0  0  0  0  0  0  0  0  0  0
   61.8770   34.8983   48.1961 H   0  0  0  0  0  0  0  0  0  0  0  0
   62.5129   34.6738   49.8552 H   0  0  0  0  0  0  0  0  0  0  0  0
   60.5374   33.1067   49.3762 H   0  0  0  0  0  0  0  0  0  0  0  0
   61.7752   31.0209   50.0920 H   0  0  0  0  0  0  0  0  0  0  0  0
   62.4476   32.4434   50.9502 H   0  0  0  0  0  0  0  0  0  0  0  0
   63.8412   30.5802   49.1992 H   0  0  0  0  0  0  0  0  0  0  0  0
   64.5115   32.0228   50.0478 H   0  0  0  0  0  0  0  0  0  0  0  0
   60.2752   34.6877   46.3478 H   0  0  0  0  0  0  0  0  0  0  0  0
   58.3991   35.6678   44.9830 H   0  0  0  0  0  0  0  0  0  0  0  0
   56.5781   34.1928   44.1041 H   0  0  0  0  0  0  0  0  0  0  0  0
   56.6230   31.7177   44.5594 H   0  0  0  0  0  0  0  0  0  0  0  0
  1  2  1  0
  2  3  1  0
  3  4  2  0
  4  5  1  0
  5  6  2  0
  6  7  1  0
  7  8  1  0
  8  9  1  0
  9 10  1  0
 10 11  1  0
 11 12  1  0
  4 13  1  0
 13 14  2  0
 14 15  1  0
 15 16  2  0
 16 17  1  0
 17 18  2  0
 18  2  1  0
 10  5  1  0
 18 13  1  0
 12  7  1  0
  1 19  1  0
  1 20  1  0
  1 21  1  0
  3 22  1  0
  6 23  1  0
  7 24  1  6
  8 25  1  0
  8 26  1  0
  9 27  1  0
  9 28  1  0
 10 29  1  1
 11 30  1  0
 11 31  1  0
 12 32  1  0
 12 33  1  0
 14 34  1  0
 15 35  1  0
 16 36  1  0
 17 37  1  0
M  CHG  1   7   1
M  END
>  <UniqueID>  (2) 
2

>  <SMILES>  (2) 
Cn1cc(C2=C[NH+]3CCC2CC3)c2ccccc21

>  <Energy>  (2) 
95.84945952647418

>  <Genealogy>  (2) 
Cn1cc(C2=C[NH+]3CCC2CC3)c2ccccc21 (protonated)
Cn1cc(C2=C[NH+]3CCC2CC3)c2ccccc21 (3D coordinates assigned)
Cn1cc(C2=C[NH+]3CCC2CC3)c2ccccc21 (nonaromatic ring conformer: 95.84945952647418 kcal/mol)

>  <smiles>  (2) 
Cn1cc(C2=CN3CCC2CC3)c2ccccc21

>  <score_type>  (2) 
oracle

>  <origin>  (2) 
adg

>  <m_score__min__energy>  (2) 
-5.5700000000000003

>  <m_primary>  (2) 
energy

$$$$
2:0
     RDKit          3D

 51 54  0  0  0  0  0  0  0  0999 V2000
   62.4280   34.2100   49.3290 C   0  0  0  0  0  0  0  0  0  0  0  0
   62.7300   33.7930   47.8920 C   0  0  0  0  0  0  0  0  0  0  0  0
   62.2690   32.4070   47.6490 N   0  0  0  0  0  0  0  0  0  0  0  0
   63.3850   31.5860   47.1450 C   0  0  0  0  0  0  0  0  0  0  0  0
   61.6910   31.8050   48.8720 C   0  0  0  0  0  0  0  0  0  0  0  0
   60.8260   30.5900   48.5040 C   0  0  0  0  0  0  0  0  0  0  0  0
   59.4000   30.9360   48.3570 N   0  0  0  0  0  0  0  0  0  0  0  0
   59.0660   31.2760   46.9860 C   0  0  0  0  0  0  0  0  0  0  0  0
   59.1040   32.6220   46.4970 C   0  0  0  0  0  0  0  0  0  0  0  0
   59.4270   33.7170   47.3360 C   0  0  0  0  0  0  0  0  0  0  0  0
   59.5190   35.0110   46.8310 C   0  0  0  0  0  0  0  0  0  0  0  0
   59.3010   35.2550   45.4850 C   0  0  0  0  0  0  0  0  0  0  0  0
   58.9570   34.2110   44.6310 C   0  0  0  0  0  0  0  0  0  0  0  0
   58.8140   32.8860   45.1110 C   0  0  0  0  0  0  0  0  0  0  0  0
   58.4200   31.8620   44.2660 N   0  0  0  0  0  0  0  0  0  0  0  0
   57.9820   32.1330   42.8820 C   0  0  0  0  0  0  0  0  0  0  0  0
   58.4420   30.5780   44.7380 C   0  0  0  0  0  0  0  0  0  0  0  0
   58.2050   29.4620   44.0060 N   0  0  0  0  0  0  0  0  0  0  0  0
   58.3140   28.4400   44.8700 C   0  0  0  0  0  0  0  0  0  0  0  0
   58.1440   27.0900   44.5670 C   0  0  0  0  0  0  0  0  0  0  0  0
   58.2860   26.1540   45.6030 C   0  0  0  0  0  0  0  0  0  0  0  0
   58.0580   24.2930   45.2420 Br  0  0  0  0  0  0  0  0  0  0  0  0
   58.5880   26.5860   46.9100 C   0  0  0  0  0  0  0  0  0  0  0  0
   58.7580   27.9520   47.1930 C   0  0  0  0  0  0  0  0  0  0  0  0
   58.6240   28.8760   46.1420 C   0  0  0  0  0  0  0  0  0  0  0  0
   58.7280   30.2700   46.0570 C   0  0  0  0  0  0  0  0  0  0  0  0
   62.9281   33.5194   50.0240 H   0  0  0  0  0  0  0  0  0  0  0  0
   62.7965   35.2323   49.4993 H   0  0  0  0  0  0  0  0  0  0  0  0
   61.3417   34.1787   49.4993 H   0  0  0  0  0  0  0  0  0  0  0  0
   62.2119   34.4738   47.2006 H   0  0  0  0  0  0  0  0  0  0  0  0
   63.8165   33.8417   47.7272 H   0  0  0  0  0  0  0  0  0  0  0  0
   63.9481   31.1717   47.9943 H   0  0  0  0  0  0  0  0  0  0  0  0
   62.9875   30.7634   46.5323 H   0  0  0  0  0  0  0  0  0  0  0  0
   64.0520   32.2103   46.5323 H   0  0  0  0  0  0  0  0  0  0  0  0
   62.5047   31.4838   49.5389 H   0  0  0  0  0  0  0  0  0  0  0  0
   61.0641   32.5528   49.3798 H   0  0  0  0  0  0  0  0  0  0  0  0
   61.1882   30.1744   47.5521 H   0  0  0  0  0  0  0  0  0  0  0  0
   60.9102   29.8596   49.3221 H   0  0  0  0  0  0  0  0  0  0  0  0
   58.7980   30.1850   48.7520 H   0  0  0  0  0  0  0  0  0  0  0  0
   59.1660   31.7490   48.9670 H   0  0  0  0  0  0  0  0  0  0  0  0
   59.6085   33.5414   48.4066 H   0  0  0  0  0  0  0  0  0  0  0  0
   59.7663   35.8446   47.5048 H   0  0  0  0  0  0  0  0  0  0  0  0
   59.4000   36.2768   45.0898 H   0  0  0  0  0  0  0  0  0  0  0  0
   58.7931   34.4188   43.5633 H   0  0  0  0  0  0  0  0  0  0  0  0
   57.0467   32.7117   42.9001 H   0  0  0  0  0  0  0  0  0  0  0  0
   58.7591   32.7084   42.3575 H   0  0  0  0  0  0  0  0  0  0  0  0
   57.8140   31.1808   42.3575 H   0  0  0  0  0  0  0  0  0  0  0  0
   58.0110   29.3720   42.9860 H   0  0  0  0  0  0  0  0  0  0  0  0
   57.9049   26.7669   43.5431 H   0  0  0  0  0  0  0  0  0  0  0  0
   58.6918   25.8461   47.7173 H   0  0  0  0  0  0  0  0  0  0  0  0
   58.9906   28.2905   48.2135 H   0  0  0  0  0  0  0  0  0  0  0  0
  1  2  1  0
  2  3  1  0
  3  4  1  0
  3  5  1  0
  5  6  1  0
  6  7  1  0
  7  8  1  0
  8  9  2  0
  9 10  1  0
 10 11  2  0
 11 12  1  0
 12 13  2  0
 13 14  1  0
 14 15  2  0
 15 16  1  0
 15 17  1  0
 17 18  1  0
 18 19  1  0
 19 20  2  0
 20 21  1  0
 21 22  1  0
 21 23  2  0
 23 24  1  0
 24 25  2  0
 25 26  1  0
 26  8  1  0
 14  9  1  0
 26 17  2  0
 25 19  1  0
  1 27  1  0
  1 28  1  0
  1 29  1  0
  2 30  1  0
  2 31  1  0
  4 32  1  0
  4 33  1  0
  4 34  1  0
  5 35  1  0
  5 36  1  0
  6 37  1  0
  6 38  1  0
  7 39  1  0
  7 40  1  0
 10 41  1  0
 11 42  1  0
 12 43  1  0
 13 44  1  0
 16 45  1  0
 16 46  1  0
 16 47  1  0
 18 48  1  0
 20 49  1  0
 23 50  1  0
 24 51  1  0
M  CHG  2   7   1  15   1
M  END
>  <UniqueID>  (3) 
3

>  <SMILES>  (3) 
CCN(C)CC[NH2+]c1c2ccccc2[n+](C)c2[nH]c3cc(Br)ccc3c12

>  <Energy>  (3) 
113.05736104983978

>  <Genealogy>  (3) 
CCN(C)CC[NH2+]c1c2ccccc2[n+](C)c2[nH]c3cc(Br)ccc3c12 (protonated)
CCN(C)CC[NH2+]c1c2ccccc2[n+](C)c2[nH]c3cc(Br)ccc3c12 (3D coordinates assigned)
CCN(C)CC[NH2+]c1c2ccccc2[n+](C)c2[nH]c3cc(Br)ccc3c12 (optimized conformer: 113.05736104983978 kcal/mol)

>  <smiles>  (3) 
CCN(C)CCNc1c2ccccc2[n+](C)c2[nH]c3cc(Br)ccc3c12

>  <score_type>  (3) 
oracle

>  <origin>  (3) 
adg

>  <m_score__min__energy>  (3) 
-5.5999999999999996

>  <m_primary>  (3) 
energy

$$$$
3:0
     RDKit          3D

 48 49  0  0  0  0  0  0  0  0999 V2000
   58.9160   29.2900   49.2360 C   0  0  0  0  0  0  0  0  0  0  0  0
   59.6970   30.3370   50.0160 C   0  0  0  0  0  0  0  0  0  0  0  0
   59.3710   31.6180   49.5220 O   0  0  0  0  0  0  0  0  0  0  0  0
   59.2640   32.5250   50.5990 C   0  0  0  0  0  0  0  0  0  0  0  0
   59.9360   33.8480   50.2240 C   0  0  0  0  0  0  0  0  0  0  0  0
   60.5760   33.7710   48.8990 N   0  0  0  0  0  0  0  0  0  0  0  0
   62.0110   34.1290   48.9600 C   0  0  0  0  0  0  0  0  0  0  0  0
   62.8620   33.4170   47.8830 C   0  0  0  0  0  0  0  0  0  0  0  0
   62.0810   32.6260   46.9140 N   0  0  0  0  0  0  0  0  0  0  0  0
   61.7400   31.2770   47.3900 C   0  0  0  0  0  0  0  0  0  0  0  0
   60.5560   30.7210   46.6390 C   0  0  0  0  0  0  0  0  0  0  0  0
   60.5720   29.3880   46.2030 C   0  0  0  0  0  0  0  0  0  0  0  0
   59.4730   28.8520   45.5290 C   0  0  0  0  0  0  0  0  0  0  0  0
   58.3660   29.6530   45.2440 C   0  0  0  0  0  0  0  0  0  0  0  0
   57.0210   28.9670   44.3430 Cl  0  0  0  0  0  0  0  0  0  0  0  0
   58.3500   31.0010   45.6300 C   0  0  0  0  0  0  0  0  0  0  0  0
   59.4260   31.5230   46.3870 C   0  0  0  0  0  0  0  0  0  0  0  0
   59.3800   32.8170   46.9270 O   0  0  0  0  0  0  0  0  0  0  0  0
   58.1590   33.5070   47.1810 C   0  0  0  0  0  0  0  0  0  0  0  0
   57.5830   34.1370   45.9110 C   0  0  0  0  0  0  0  0  0  0  0  0
   57.4530   33.1450   44.7540 C   0  0  0  0  0  0  0  0  0  0  0  0
   57.2800   31.8060   45.2160 O   0  0  0  0  0  0  0  0  0  0  0  0
   58.4099   28.6115   49.9384 H   0  0  0  0  0  0  0  0  0  0  0  0
   58.1668   29.7878   48.6028 H   0  0  0  0  0  0  0  0  0  0  0  0
   59.6066   28.7137   48.6028 H   0  0  0  0  0  0  0  0  0  0  0  0
   59.4332   30.2750   51.0821 H   0  0  0  0  0  0  0  0  0  0  0  0
   60.7760   30.1580   49.8993 H   0  0  0  0  0  0  0  0  0  0  0  0
   58.2020   32.7042   50.8227 H   0  0  0  0  0  0  0  0  0  0  0  0
   59.7601   32.1011   51.4845 H   0  0  0  0  0  0  0  0  0  0  0  0
   59.1762   34.6432   50.2085 H   0  0  0  0  0  0  0  0  0  0  0  0
   60.7136   34.0646   50.9713 H   0  0  0  0  0  0  0  0  0  0  0  0
   60.0900   34.4510   48.2670 H   0  0  0  0  0  0  0  0  0  0  0  0
   60.4440   32.8170   48.4880 H   0  0  0  0  0  0  0  0  0  0  0  0
   62.1066   35.2158   48.8193 H   0  0  0  0  0  0  0  0  0  0  0  0
   62.3876   33.8051   49.9415 H   0  0  0  0  0  0  0  0  0  0  0  0
   63.4250   34.1820   47.3282 H   0  0  0  0  0  0  0  0  0  0  0  0
   63.5126   32.7076   48.4154 H   0  0  0  0  0  0  0  0  0  0  0  0
   61.2070   33.1340   46.6520 H   0  0  0  0  0  0  0  0  0  0  0  0
   62.6046   30.6136   47.2402 H   0  0  0  0  0  0  0  0  0  0  0  0
   61.4805   31.3376   48.4572 H   0  0  0  0  0  0  0  0  0  0  0  0
   61.4557   28.7611   46.3932 H   0  0  0  0  0  0  0  0  0  0  0  0
   59.4796   27.7958   45.2218 H   0  0  0  0  0  0  0  0  0  0  0  0
   57.4263   32.7946   47.5881 H   0  0  0  0  0  0  0  0  0  0  0  0
   58.3676   34.3153   47.8973 H   0  0  0  0  0  0  0  0  0  0  0  0
   56.5852   34.5388   46.1412 H   0  0  0  0  0  0  0  0  0  0  0  0
   58.2808   34.9247   45.5905 H   0  0  0  0  0  0  0  0  0  0  0  0
   56.5829   33.4249   44.1420 H   0  0  0  0  0  0  0  0  0  0  0  0
   58.3818   33.1846   44.1659 H   0  0  0  0  0  0  0  0  0  0  0  0
  1  2  1  0
  2  3  1  0
  3  4  1  0
  4  5  1  0
  5  6  1  0
  6  7  1  0
  7  8  1  0
  8  9  1  0
  9 10  1  0
 10 11  1  0
 11 12  2  0
 12 13  1  0
 13 14  2  0
 14 15  1  0
 14 16  1  0
 16 17  2  0
 17 18  1  0
 18 19  1  0
 19 20  1  0
 20 21  1  0
 21 22  1  0
 17 11  1  0
 22 16  1  0
  1 23  1  0
  1 24  1  0
  1 25  1  0
  2 26  1  0
  2 27  1  0
  4 28  1  0
  4 29  1  0
  5 30  1  0
  5 31  1  0
  6 32  1  0
  6 33  1  0
  7 34  1  0
  7 35  1  0
  8 36  1  0
  8 37  1  0
  9 38  1  0
 10 39  1  0
 10 40  1  0
 12 41  1  0
 13 42  1  0
 19 43  1  0
 19 44  1  0
 20 45  1  0
 20 46  1  0
 21 47  1  0
 21 48  1  0
M  CHG  1   6   1
M  END
>  <UniqueID>  (4) 
4

>  <SMILES>  (4) 
CCOCC[NH2+]CCNCc1ccc(Cl)c2c1OCCCO2

>  <Energy>  (4) 
51.5718399853698

>  <Genealogy>  (4) 
CCOCC[NH2+]CCNCc1ccc(Cl)c2c1OCCCO2 (protonated)
CCOCC[NH2+]CCNCc1ccc(Cl)c2c1OCCCO2 (3D coordinates assigned)
CCOCC[NH2+]CCNCc1ccc(Cl)c2c1OCCCO2 (nonaromatic ring conformer: 51.5718399853698 kcal/mol)

>  <smiles>  (4) 
CCOCCNCCNCc1ccc(Cl)c2c1OCCCO2

>  <score_type>  (4) 
oracle

>  <origin>  (4) 
adg

>  <m_score__min__energy>  (4) 
-1.5700000000000001

>  <m_primary>  (4) 
energy

$$$$
4:0
     RDKit          3D

 47 48  0  0  0  0  0  0  0  0999 V2000
   62.6820   33.4790   46.7700 C   0  0  0  0  0  0  0  0  0  0  0  0
   61.4260   34.1170   47.3870 C   0  0  0  0  0  0  0  0  0  0  0  0
   60.1400   33.6620   46.7960 N   0  0  0  0  0  0  0  0  0  0  0  0
   59.2860   32.9830   47.8070 C   0  0  0  0  0  0  0  0  0  0  0  0
   59.2390   31.4660   47.6200 C   0  0  0  0  0  0  0  0  0  0  0  0
   59.4520   34.7610   46.1270 C   0  0  0  0  0  0  0  0  0  0  0  0
   59.6480   35.9120   46.4940 O   0  0  0  0  0  0  0  0  0  0  0  0
   58.4460   34.5400   44.9970 C   0  0  0  0  0  0  0  0  0  0  0  0
   58.9330   33.5460   43.9040 C   0  0  0  0  0  0  0  0  0  0  0  0
   57.7790   32.7460   43.2970 C   0  0  0  0  0  0  0  0  0  0  0  0
   57.0780   32.0270   44.3660 N   0  0  0  0  0  0  0  0  0  0  0  0
   56.5750   30.7000   44.1280 C   0  0  0  0  0  0  0  0  0  0  0  0
   56.1230   30.3960   42.9920 O   0  0  0  0  0  0  0  0  0  0  0  0
   56.5350   29.7230   45.1760 N   0  0  0  0  0  0  0  0  0  0  0  0
   57.6270   28.8720   45.5480 C   0  0  0  0  0  0  0  0  0  0  0  0
   57.3580   27.6710   46.2170 C   0  0  0  0  0  0  0  0  0  0  0  0
   58.4070   26.8280   46.6000 C   0  0  0  0  0  0  0  0  0  0  0  0
   59.7280   27.1710   46.2990 C   0  0  0  0  0  0  0  0  0  0  0  0
   60.0020   28.3530   45.6070 C   0  0  0  0  0  0  0  0  0  0  0  0
   58.9570   29.1990   45.2240 C   0  0  0  0  0  0  0  0  0  0  0  0
   56.7530   32.7130   45.6270 C   0  0  0  0  0  0  0  0  0  0  0  0
   57.0310   34.2180   45.5380 C   0  0  0  0  0  0  0  0  0  0  0  0
   63.3524   33.1385   47.5729 H   0  0  0  0  0  0  0  0  0  0  0  0
   62.3892   32.6203   46.1479 H   0  0  0  0  0  0  0  0  0  0  0  0
   63.2027   34.2219   46.1479 H   0  0  0  0  0  0  0  0  0  0  0  0
   61.4128   33.8773   48.4605 H   0  0  0  0  0  0  0  0  0  0  0  0
   61.4953   35.1958   47.1834 H   0  0  0  0  0  0  0  0  0  0  0  0
   60.3880   32.9430   46.0790 H   0  0  0  0  0  0  0  0  0  0  0  0
   59.6855   33.2015   48.8083 H   0  0  0  0  0  0  0  0  0  0  0  0
   58.2613   33.3638   47.6846 H   0  0  0  0  0  0  0  0  0  0  0  0
   59.2238   30.9755   48.6045 H   0  0  0  0  0  0  0  0  0  0  0  0
   58.3320   31.1935   47.0605 H   0  0  0  0  0  0  0  0  0  0  0  0
   60.1274   31.1378   47.0605 H   0  0  0  0  0  0  0  0  0  0  0  0
   58.3674   35.5017   44.4688 H   0  0  0  0  0  0  0  0  0  0  0  0
   59.4298   34.1144   43.1039 H   0  0  0  0  0  0  0  0  0  0  0  0
   59.6254   32.8346   44.3779 H   0  0  0  0  0  0  0  0  0  0  0  0
   57.0803   33.4310   42.7944 H   0  0  0  0  0  0  0  0  0  0  0  0
   58.1725   32.0270   42.5634 H   0  0  0  0  0  0  0  0  0  0  0  0
   56.3186   27.3897   46.4420 H   0  0  0  0  0  0  0  0  0  0  0  0
   58.1916   25.8936   47.1390 H   0  0  0  0  0  0  0  0  0  0  0  0
   60.5518   26.5103   46.6070 H   0  0  0  0  0  0  0  0  0  0  0  0
   61.0412   28.6185   45.3631 H   0  0  0  0  0  0  0  0  0  0  0  0
   59.1748   30.1227   44.6679 H   0  0  0  0  0  0  0  0  0  0  0  0
   55.6874   32.5595   45.8527 H   0  0  0  0  0  0  0  0  0  0  0  0
   57.3871   32.2921   46.4212 H   0  0  0  0  0  0  0  0  0  0  0  0
   56.2872   34.6730   44.8674 H   0  0  0  0  0  0  0  0  0  0  0  0
   56.9675   34.6256   46.5577 H   0  0  0  0  0  0  0  0  0  0  0  0
  1  2  1  0
  2  3  1  0
  3  4  1  0
  4  5  1  0
  3  6  1  0
  6  7  2  0
  6  8  1  0
  8  9  1  0
  9 10  1  0
 10 11  1  0
 11 12  1  0
 12 13  2  0
 12 14  1  0
 14 15  1  0
 15 16  2  0
 16 17  1  0
 17 18  2  0
 18 19  1  0
 19 20  2  0
 11 21  1  0
 21 22  1  0
 22  8  1  0
 20 15  1  0
  1 23  1  0
  1 24  1  0
  1 25  1  0
  2 26  1  0
  2 27  1  0
  3 28  1  0
  4 29  1  0
  4 30  1  0
  5 31  1  0
  5 32  1  0
  5 33  1  0
  8 34  1  0
  9 35  1  0
  9 36  1  0
 10 37  1  0
 10 38  1  0
 16 39  1  0
 17 40  1  0
 18 41  1  0
 19 42  1  0
 20 43  1  0
 21 44  1  0
 21 45  1  0
 22 46  1  0
 22 47  1  0
M  CHG  2   3   1  14  -1
M  END
>  <UniqueID>  (5) 
5

>  <SMILES>  (5) 
CC[NH+](CC)C(=O)C1CCN(C(=O)[N-]c2ccccc2)CC1

>  <Energy>  (5) 
53.95789842068224

>  <Genealogy>  (5) 
CC[NH+](CC)C(=O)C1CCN(C(=O)[N-]c2ccccc2)CC1 (protonated)
CC[NH+](CC)C(=O)C1CCN(C(=O)[N-]c2ccccc2)CC1 (3D coordinates assigned)
CC[NH+](CC)C(=O)C1CCN(C(=O)[N-]c2ccccc2)CC1 (nonaromatic ring conformer: 53.95789842068224 kcal/mol)

>  <smiles>  (5) 
CCN(CC)C(=O)C1CCN(C(=O)Nc2ccccc2)CC1

>  <score_type>  (5) 
oracle

>  <origin>  (5) 
adg

>  <m_score__min__energy>  (5) 
-7.21

>  <m_primary>  (5) 
energy

$$$$
5:0
     RDKit          3D

 75 77  0  0  0  0  0  0  0  0999 V2000
   58.1840   30.7880   50.6240 C   0  0  0  0  0  0  0  0  0  0  0  0
   58.4910   31.9240   49.6480 C   0  0  0  0  0  0  0  0  0  0  0  0
   59.1490   33.1330   50.3320 C   0  0  0  0  0  0  0  0  0  0  0  0
   59.8380   32.7580   51.6490 C   0  0  0  0  0  0  0  0  0  0  0  0
   61.2210   33.2560   51.6520 N   0  0  0  0  0  0  0  0  0  0  0  0
   61.5280   34.1330   50.5070 C   0  0  0  0  0  0  0  0  0  0  0  0
   63.0140   34.5350   50.4130 C   0  0  0  0  0  0  0  0  0  0  0  0
   63.9640   33.4410   50.9060 C   0  0  0  0  0  0  0  0  0  0  0  0
   64.1200   32.4650   49.8790 O   0  0  0  0  0  0  0  0  0  0  0  0
   63.0780   31.6210   49.4620 C   0  0  0  0  0  0  0  0  0  0  0  0
   62.5150   30.6790   50.3290 C   0  0  0  0  0  0  0  0  0  0  0  0
   62.9850   30.5950   51.6490 O   0  0  0  0  0  0  0  0  0  0  0  0
   64.2680   30.1150   52.0290 C   0  0  0  0  0  0  0  0  0  0  0  0
   61.5280   29.8090   49.8400 C   0  0  0  0  0  0  0  0  0  0  0  0
   61.0120   29.9430   48.5320 C   0  0  0  0  0  0  0  0  0  0  0  0
   61.4130   31.0580   47.7550 C   0  0  0  0  0  0  0  0  0  0  0  0
   62.6120   31.7320   48.1390 C   0  0  0  0  0  0  0  0  0  0  0  0
   63.5070   32.4210   47.1360 C   0  0  0  0  0  0  0  0  0  0  0  0
   60.5560   31.4880   46.6960 C   0  0  0  0  0  0  0  0  0  0  0  0
   60.5680   32.8720   46.2460 N   0  0  0  0  0  0  0  0  0  0  0  0
   60.2110   33.8370   47.3110 C   0  0  0  0  0  0  0  0  0  0  0  0
   59.2630   34.9250   46.7810 C   0  0  0  0  0  0  0  0  0  0  0  0
   59.1300   34.8300   45.3180 N   0  0  0  0  0  0  0  0  0  0  0  0
   57.8450   34.2430   44.8990 C   0  0  0  0  0  0  0  0  0  0  0  0
   57.0520   33.6860   46.0830 C   0  0  0  0  0  0  0  0  0  0  0  0
   59.4770   30.6400   46.3140 C   0  0  0  0  0  0  0  0  0  0  0  0
   58.5560   31.0200   45.3030 C   0  0  0  0  0  0  0  0  0  0  0  0
   57.5160   30.1790   44.9230 C   0  0  0  0  0  0  0  0  0  0  0  0
   57.3410   28.9560   45.5530 C   0  0  0  0  0  0  0  0  0  0  0  0
   58.2000   28.5700   46.5770 C   0  0  0  0  0  0  0  0  0  0  0  0
   59.2870   29.3930   46.9750 C   0  0  0  0  0  0  0  0  0  0  0  0
   60.1030   29.0380   48.0300 N   0  0  0  0  0  0  0  0  0  0  0  0
   60.0200   27.6840   48.6190 C   0  0  0  0  0  0  0  0  0  0  0  0
   58.2831   31.1547   51.6563 H   0  0  0  0  0  0  0  0  0  0  0  0
   57.1570   30.4303   50.4590 H   0  0  0  0  0  0  0  0  0  0  0  0
   58.8910   29.9617   50.4590 H   0  0  0  0  0  0  0  0  0  0  0  0
   59.1717   31.5459   48.8710 H   0  0  0  0  0  0  0  0  0  0  0  0
   57.5352   32.2631   49.2221 H   0  0  0  0  0  0  0  0  0  0  0  0
   59.8994   33.5592   49.6499 H   0  0  0  0  0  0  0  0  0  0  0  0
   58.3557   33.8588   50.5642 H   0  0  0  0  0  0  0  0  0  0  0  0
   59.2874   33.2067   52.4889 H   0  0  0  0  0  0  0  0  0  0  0  0
   59.8482   31.6629   51.7523 H   0  0  0  0  0  0  0  0  0  0  0  0
   61.8850   32.4510   51.6870 H   0  0  0  0  0  0  0  0  0  0  0  0
   61.2521   33.6054   49.5821 H   0  0  0  0  0  0  0  0  0  0  0  0
   60.9533   35.0600   50.6498 H   0  0  0  0  0  0  0  0  0  0  0  0
   63.2509   34.7569   49.3620 H   0  0  0  0  0  0  0  0  0  0  0  0
   63.1584   35.4117   51.0615 H   0  0  0  0  0  0  0  0  0  0  0  0
   64.9422   33.8828   51.1466 H   0  0  0  0  0  0  0  0  0  0  0  0
   63.5499   32.9680   51.8086 H   0  0  0  0  0  0  0  0  0  0  0  0
   64.3393   30.0883   53.1264 H   0  0  0  0  0  0  0  0  0  0  0  0
   64.4140   29.1014   51.6273 H   0  0  0  0  0  0  0  0  0  0  0  0
   65.0435   30.7838   51.6273 H   0  0  0  0  0  0  0  0  0  0  0  0
   61.1484   29.0061   50.4890 H   0  0  0  0  0  0  0  0  0  0  0  0
   64.2699   33.0083   47.6680 H   0  0  0  0  0  0  0  0  0  0  0  0
   63.9993   31.6665   46.5048 H   0  0  0  0  0  0  0  0  0  0  0  0
   62.9035   33.0899   46.5048 H   0  0  0  0  0  0  0  0  0  0  0  0
   59.9510   33.0050   45.4170 H   0  0  0  0  0  0  0  0  0  0  0  0
   61.5190   33.0870   45.8670 H   0  0  0  0  0  0  0  0  0  0  0  0
   59.7153   33.2981   48.1319 H   0  0  0  0  0  0  0  0  0  0  0  0
   61.1330   34.3211   47.6655 H   0  0  0  0  0  0  0  0  0  0  0  0
   58.2728   34.7977   47.2428 H   0  0  0  0  0  0  0  0  0  0  0  0
   59.6783   35.9113   47.0356 H   0  0  0  0  0  0  0  0  0  0  0  0
   59.2400   35.7850   44.9040 H   0  0  0  0  0  0  0  0  0  0  0  0
   57.2444   35.0208   44.4046 H   0  0  0  0  0  0  0  0  0  0  0  0
   58.0611   33.4094   44.2146 H   0  0  0  0  0  0  0  0  0  0  0  0
   57.5187   34.0138   47.0236 H   0  0  0  0  0  0  0  0  0  0  0  0
   56.0174   34.0568   46.0383 H   0  0  0  0  0  0  0  0  0  0  0  0
   57.0498   32.5869   46.0383 H   0  0  0  0  0  0  0  0  0  0  0  0
   58.6671   31.9976   44.8112 H   0  0  0  0  0  0  0  0  0  0  0  0
   56.8295   30.4848   44.1197 H   0  0  0  0  0  0  0  0  0  0  0  0
   56.5221   28.2904   45.2427 H   0  0  0  0  0  0  0  0  0  0  0  0
   58.0343   27.6099   47.0877 H   0  0  0  0  0  0  0  0  0  0  0  0
   60.0247   27.7606   49.7163 H   0  0  0  0  0  0  0  0  0  0  0  0
   59.0903   27.1971   48.2894 H   0  0  0  0  0  0  0  0  0  0  0  0
   60.8832   27.0872   48.2894 H   0  0  0  0  0  0  0  0  0  0  0  0
  1  2  1  0
  2  3  1  0
  3  4  1  0
  4  5  1  0
  5  6  1  0
  6  7  1  0
  7  8  1  0
  8  9  1  0
  9 10  1  0
 10 11  2  0
 11 12  1  0
 12 13  1  0
 11 14  1  0
 14 15  2  0
 15 16  1  0
 16 17  2  0
 17 18  1  0
 16 19  1  0
 19 20  1  0
 20 21  1  0
 21 22  1  0
 22 23  1  0
 23 24  1  0
 24 25  1  0
 19 26  2  0
 26 27  1  0
 27 28  2  0
 28 29  1  0
 29 30  2  0
 30 31  1  0
 31 32  2  0
 32 33  1  0
 17 10  1  0
 31 26  1  0
 32 15  1  0
  1 34  1  0
  1 35  1  0
  1 36  1  0
  2 37  1  0
  2 38  1  0
  3 39  1  0
  3 40  1  0
  4 41  1  0
  4 42  1  0
  5 43  1  0
  6 44  1  0
  6 45  1  0
  7 46  1  0
  7 47  1  0
  8 48  1  0
  8 49  1  0
 13 50  1  0
 13 51  1  0
 13 52  1  0
 14 53  1  0
 18 54  1  0
 18 55  1  0
 18 56  1  0
 20 57  1  0
 20 58  1  0
 21 59  1  0
 21 60  1  0
 22 61  1  0
 22 62  1  0
 23 63  1  0
 24 64  1  0
 24 65  1  0
 25 66  1  0
 25 67  1  0
 25 68  1  0
 27 69  1  0
 28 70  1  0
 29 71  1  0
 30 72  1  0
 33 73  1  0
 33 74  1  0
 33 75  1  0
M  CHG  2  20   1  32   1
M  END
>  <UniqueID>  (6) 
6

>  <SMILES>  (6) 
CCCCNCCCOc1c(OC)cc2c(c1C)c([NH2+]CCNCC)c1ccccc1[n+]2C

>  <Energy>  (6) 
117.79058327039971

>  <Genealogy>  (6) 
CCCCNCCCOc1c(OC)cc2c(c1C)c([NH2+]CCNCC)c1ccccc1[n+]2C (protonated)
CCCCNCCCOc1c(OC)cc2c(c1C)c([NH2+]CCNCC)c1ccccc1[n+]2C (3D coordinates assigned)
CCCCNCCCOc1c(OC)cc2c(c1C)c([NH2+]CCNCC)c1ccccc1[n+]2C (optimized conformer: 117.79058327039971 kcal/mol)

>  <smiles>  (6) 
CCCCNCCCOc1c(OC)cc2c(c1C)c(NCCNCC)c1ccccc1[n+]2C

>  <score_type>  (6) 
oracle

>  <origin>  (6) 
adg

>  <m_score__min__energy>  (6) 
-4.6699999999999999

>  <m_primary>  (6) 
energy

$$$$
6:0
     RDKit          3D

 24 25  0  0  0  0  0  0  0  0999 V2000
   52.4251   24.2537   45.4007 H   0  0  0  0  0  0  0  0  0  0  0  0
   53.5110   24.4150   45.3320 C   0  0  0  0  0  0  0  0  0  0  0  0
   54.0460   25.6040   45.7140 N   0  0  0  0  0  0  0  0  0  0  0  0
   55.3830   25.8260   45.6370 C   0  0  0  0  0  0  0  0  0  0  0  0
   55.8620   26.9750   46.0120 N   0  0  0  0  0  0  0  0  0  0  0  0
   57.2670   27.3690   45.9190 C   0  0  0  0  0  0  0  0  0  0  0  0
   57.3514   28.4502   46.1033 H   0  0  0  0  0  0  0  0  0  0  0  0
   57.6366   27.1223   44.9128 H   0  0  0  0  0  0  0  0  0  0  0  0
   58.1090   26.6190   46.9470 C   0  0  0  0  0  0  0  0  0  0  0  0
   57.7896   26.9035   47.9604 H   0  0  0  0  0  0  0  0  0  0  0  0
   57.9748   25.5357   46.8108 H   0  0  0  0  0  0  0  0  0  0  0  0
   59.1696   26.8771   46.8108 H   0  0  0  0  0  0  0  0  0  0  0  0
   56.2050   24.8420   45.1730 N   0  0  0  0  0  0  0  0  0  0  0  0
   55.7170   23.6360   44.7780 C   0  0  0  0  0  0  0  0  0  0  0  0
   56.6580   22.6160   44.2830 C   0  0  0  0  0  0  0  0  0  0  0  0
   56.2820   21.4840   43.7320 O   0  0  0  0  0  0  0  0  0  0  0  0
   57.3190   20.7800   43.3900 N   0  0  0  0  0  0  0  0  0  0  0  0
   57.2820   19.8410   42.9350 H   0  0  0  0  0  0  0  0  0  0  0  0
   58.4250   21.4660   43.7230 C   0  0  0  0  0  0  0  0  0  0  0  0
   59.4607   21.1330   43.5604 H   0  0  0  0  0  0  0  0  0  0  0  0
   58.0440   22.6580   44.3030 C   0  0  0  0  0  0  0  0  0  0  0  0
   58.6909   23.4581   44.6920 H   0  0  0  0  0  0  0  0  0  0  0  0
   54.3370   23.3990   44.8530 C   0  0  0  0  0  0  0  0  0  0  0  0
   53.9152   22.4323   44.5407 H   0  0  0  0  0  0  0  0  0  0  0  0
  1  2  1  0
  2  3  1  0
  3  4  1  0
  4  5  2  0
  5  6  1  0
  6  7  1  0
  6  8  1  0
  6  9  1  0
  9 10  1  0
  9 11  1  0
  9 12  1  0
  4 13  1  0
 13 14  2  0
 14 15  1  0
 15 16  1  0
 16 17  1  0
 17 18  1  0
 17 19  2  0
 19 20  1  0
 19 21  1  0
 21 22  1  0
 14 23  1  0
 23 24  1  0
 23  2  2  0
 21 15  2  0
M  CHG  2   3  -1  17   1
M  END
>  <UniqueID>  (7) 
7

>  <SMILES>  (7) 
CC/N=c1\nc(-c2cc[nH+]o2)cc[n-]1

>  <Energy>  (7) 
52.89683883903852

>  <Genealogy>  (7) 
CCN=c1nc(-c2cc[nH+]o2)cc[n-]1 (protonated)
CC/N=c1\nc(-c2cc[nH+]o2)cc[n-]1 (cis-trans isomerization)
CC/N=c1\nc(-c2cc[nH+]o2)cc[n-]1 (3D coordinates assigned)
CC/N=c1\nc(-c2cc[nH+]o2)cc[n-]1 (optimized conformer: 52.89683883903852 kcal/mol)

>  <smiles>  (7) 
CCN=c1nc(-c2ccno2)cc[nH]1

>  <score_type>  (7) 
oracle

>  <origin>  (7) 
adg

>  <m_score__min__energy>  (7) 
-6.2000000000000002

>  <m_primary>  (7) 
energy

$$$$
7:0
     RDKit          3D

 48 50  0  0  0  0  0  0  0  0999 V2000
   58.1470   26.6940   43.5690 C   0  0  0  0  0  0  0  0  0  0  0  0
   57.4090   26.3300   44.8530 C   0  0  0  0  0  0  0  0  0  0  0  0
   56.6630   27.4450   45.3390 O   0  0  0  0  0  0  0  0  0  0  0  0
   57.1800   28.7400   45.4660 C   0  0  0  0  0  0  0  0  0  0  0  0
   58.1350   29.1560   46.3970 C   0  0  0  0  0  0  0  0  0  0  0  0
   58.3090   30.5020   46.1450 C   0  0  0  0  0  0  0  0  0  0  0  0
   59.1350   31.4320   46.7680 C   0  0  0  0  0  0  0  0  0  0  0  0
   59.1060   32.7620   46.3030 C   0  0  0  0  0  0  0  0  0  0  0  0
   60.1520   33.9640   47.0510 S   0  0  0  0  0  0  0  0  0  0  0  0
   59.2910   35.0350   47.6630 O   0  0  0  0  0  0  0  0  0  0  0  0
   61.0370   34.5960   46.0120 O   0  0  0  0  0  0  0  0  0  0  0  0
   61.1320   33.2100   48.2880 N   0  0  1  0  0  0  0  0  0  0  0  0
   62.1990   32.3670   47.6810 C   0  0  0  0  0  0  0  0  0  0  0  0
   63.5660   33.0680   47.6440 C   0  0  0  0  0  0  0  0  0  0  0  0
   64.0370   33.4720   49.0630 C   0  0  2  0  0  0  0  0  0  0  0  0
   64.9700   32.4130   49.6650 C   0  0  0  0  0  0  0  0  0  0  0  0
   62.8480   33.7480   50.0140 C   0  0  0  0  0  0  0  0  0  0  0  0
   61.6300   34.2440   49.2270 C   0  0  0  0  0  0  0  0  0  0  0  0
   58.2520   33.1170   45.2290 C   0  0  0  0  0  0  0  0  0  0  0  0
   57.4280   32.1540   44.6210 C   0  0  0  0  0  0  0  0  0  0  0  0
   57.4820   30.8450   45.1060 C   0  0  0  0  0  0  0  0  0  0  0  0
   56.7890   29.7720   44.6800 N   0  0  0  0  0  0  0  0  0  0  0  0
   55.7910   29.7360   43.6120 C   0  0  0  0  0  0  0  0  0  0  0  0
   59.1075   27.1678   43.8199 H   0  0  0  0  0  0  0  0  0  0  0  0
   58.3302   25.7829   42.9805 H   0  0  0  0  0  0  0  0  0  0  0  0
   57.5356   27.3939   42.9805 H   0  0  0  0  0  0  0  0  0  0  0  0
   56.7211   25.4960   44.6501 H   0  0  0  0  0  0  0  0  0  0  0  0
   58.1471   26.0390   45.6149 H   0  0  0  0  0  0  0  0  0  0  0  0
   58.6374   28.5457   47.1620 H   0  0  0  0  0  0  0  0  0  0  0  0
   59.7919   31.1376   47.5997 H   0  0  0  0  0  0  0  0  0  0  0  0
   60.4930   32.5760   48.8230 H   0  0  0  0  0  0  0  0  0  0  0  0
   61.9050   32.1164   46.6511 H   0  0  0  0  0  0  0  0  0  0  0  0
   62.3056   31.4683   48.3063 H   0  0  0  0  0  0  0  0  0  0  0  0
   63.4869   33.9725   47.0229 H   0  0  0  0  0  0  0  0  0  0  0  0
   64.3016   32.3665   47.2236 H   0  0  0  0  0  0  0  0  0  0  0  0
   64.6009   34.4100   48.9529 H   0  0  0  0  0  0  0  0  0  0  0  0
   64.9240   32.4652   50.7628 H   0  0  0  0  0  0  0  0  0  0  0  0
   64.6535   31.4136   49.3319 H   0  0  0  0  0  0  0  0  0  0  0  0
   66.0014   32.6010   49.3319 H   0  0  0  0  0  0  0  0  0  0  0  0
   63.1415   34.5145   50.7464 H   0  0  0  0  0  0  0  0  0  0  0  0
   62.5808   32.8126   50.5275 H   0  0  0  0  0  0  0  0  0  0  0  0
   61.9146   35.1393   48.6547 H   0  0  0  0  0  0  0  0  0  0  0  0
   60.8275   34.4756   49.9428 H   0  0  0  0  0  0  0  0  0  0  0  0
   58.2338   34.1559   44.8678 H   0  0  0  0  0  0  0  0  0  0  0  0
   56.7610   32.4229   43.7887 H   0  0  0  0  0  0  0  0  0  0  0  0
   54.7837   29.6997   44.0525 H   0  0  0  0  0  0  0  0  0  0  0  0
   55.8869   30.6382   42.9900 H   0  0  0  0  0  0  0  0  0  0  0  0
   55.9516   28.8431   42.9900 H   0  0  0  0  0  0  0  0  0  0  0  0
  1  2  1  0
  2  3  1  0
  3  4  1  0
  4  5  2  0
  5  6  1  0
  6  7  2  0
  7  8  1  0
  8  9  1  0
  9 10  2  0
  9 11  2  0
  9 12  1  0
 12 13  1  0
 13 14  1  0
 14 15  1  0
 15 16  1  0
 15 17  1  0
 17 18  1  0
  8 19  2  0
 19 20  1  0
 20 21  2  0
 21 22  1  0
 22 23  1  0
 22  4  1  0
 21  6  1  0
 18 12  1  0
  1 24  1  0
  1 25  1  0
  1 26  1  0
  2 27  1  0
  2 28  1  0
  5 29  1  0
  7 30  1  0
 12 31  1  1
 13 32  1  0
 13 33  1  0
 14 34  1  0
 14 35  1  0
 15 36  1  6
 16 37  1  0
 16 38  1  0
 16 39  1  0
 17 40  1  0
 17 41  1  0
 18 42  1  0
 18 43  1  0
 19 44  1  0
 20 45  1  0
 23 46  1  0
 23 47  1  0
 23 48  1  0
M  CHG  1  12   1
M  END
>  <UniqueID>  (8) 
8

>  <SMILES>  (8) 
CCOc1cc2cc(S(=O)(=O)[NH+]3CCC(C)CC3)ccc2n1C

>  <Energy>  (8) 
82.30103482093583

>  <Genealogy>  (8) 
CCOc1cc2cc(S(=O)(=O)[NH+]3CCC(C)CC3)ccc2n1C (protonated)
CCOc1cc2cc(S(=O)(=O)[NH+]3CCC(C)CC3)ccc2n1C (3D coordinates assigned)
CCOc1cc2cc(S(=O)(=O)[NH+]3CCC(C)CC3)ccc2n1C (nonaromatic ring conformer: 82.30103482093583 kcal/mol)

>  <smiles>  (8) 
CCOc1cc2cc(S(=O)(=O)N3CCC(C)CC3)ccc2n1C

>  <score_type>  (8) 
oracle

>  <origin>  (8) 
adg

>  <m_score__min__energy>  (8) 
-7.1699999999999999

>  <m_primary>  (8) 
energy

$$$$
8:0
     RDKit          3D

 51 53  0  0  0  0  0  0  0  0999 V2000
   60.4630   28.9280   44.8220 C   0  0  0  0  0  0  0  0  0  0  0  0
   59.6870   28.9890   46.0700 N   0  0  0  0  0  0  0  0  0  0  0  0
   60.3960   29.7560   47.1020 C   0  0  0  0  0  0  0  0  0  0  0  0
   59.2450   27.6580   46.5450 C   0  0  0  0  0  0  0  0  0  0  0  0
   57.7380   27.5610   46.8650 C   0  0  0  0  0  0  0  0  0  0  0  0
   56.9420   27.1950   45.6110 C   0  0  0  0  0  0  0  0  0  0  0  0
   56.0690   28.2630   45.2470 O   0  0  0  0  0  0  0  0  0  0  0  0
   56.4800   29.4070   44.5540 C   0  0  0  0  0  0  0  0  0  0  0  0
   56.1910   29.5180   43.1790 C   0  0  0  0  0  0  0  0  0  0  0  0
   56.6440   30.6290   42.4550 C   0  0  0  0  0  0  0  0  0  0  0  0
   57.3610   31.5920   43.1530 C   0  0  0  0  0  0  0  0  0  0  0  0
   57.9470   32.6930   42.6480 N   0  0  0  0  0  0  0  0  0  0  0  0
   58.5730   33.2670   43.7030 C   0  0  0  0  0  0  0  0  0  0  0  0
   58.3400   32.5010   44.8410 C   0  0  0  0  0  0  0  0  0  0  0  0
   58.8500   32.7620   46.2010 C   0  0  0  0  0  0  0  0  0  0  0  0
   58.0390   32.5050   47.3170 C   0  0  0  0  0  0  0  0  0  0  0  0
   58.5220   32.7370   48.6060 C   0  0  0  0  0  0  0  0  0  0  0  0
   59.8250   33.2010   48.7950 C   0  0  0  0  0  0  0  0  0  0  0  0
   60.6610   33.4360   47.6910 C   0  0  0  0  0  0  0  0  0  0  0  0
   62.0290   33.8400   47.8860 N   0  0  0  0  0  0  0  0  0  0  0  0
   62.5000   34.2340   49.2150 C   0  0  0  0  0  0  0  0  0  0  0  0
   63.0020   33.6000   46.8190 C   0  0  0  0  0  0  0  0  0  0  0  0
   60.1600   33.2280   46.3940 C   0  0  0  0  0  0  0  0  0  0  0  0
   57.5770   31.4580   44.4680 N   0  0  0  0  0  0  0  0  0  0  0  0
   57.1800   30.4020   45.1780 N   0  0  0  0  0  0  0  0  0  0  0  0
   61.5337   28.8438   45.0597 H   0  0  0  0  0  0  0  0  0  0  0  0
   60.1474   28.0519   44.2365 H   0  0  0  0  0  0  0  0  0  0  0  0
   60.2882   29.8427   44.2365 H   0  0  0  0  0  0  0  0  0  0  0  0
   60.0783   29.4123   48.0974 H   0  0  0  0  0  0  0  0  0  0  0  0
   61.4800   29.6055   46.9908 H   0  0  0  0  0  0  0  0  0  0  0  0
   60.1609   30.8248   46.9908 H   0  0  0  0  0  0  0  0  0  0  0  0
   59.4787   26.9194   45.7641 H   0  0  0  0  0  0  0  0  0  0  0  0
   59.7781   27.4694   47.4885 H   0  0  0  0  0  0  0  0  0  0  0  0
   57.5805   26.7877   47.6313 H   0  0  0  0  0  0  0  0  0  0  0  0
   57.3906   28.5380   47.2321 H   0  0  0  0  0  0  0  0  0  0  0  0
   57.6395   26.9988   44.7833 H   0  0  0  0  0  0  0  0  0  0  0  0
   56.3407   26.2977   45.8192 H   0  0  0  0  0  0  0  0  0  0  0  0
   55.6097   28.7324   42.6741 H   0  0  0  0  0  0  0  0  0  0  0  0
   56.4403   30.7339   41.3791 H   0  0  0  0  0  0  0  0  0  0  0  0
   57.9450   33.0220   41.6560 H   0  0  0  0  0  0  0  0  0  0  0  0
   59.1697   34.1903   43.6661 H   0  0  0  0  0  0  0  0  0  0  0  0
   57.0186   32.1192   47.1755 H   0  0  0  0  0  0  0  0  0  0  0  0
   57.8738   32.5536   49.4756 H   0  0  0  0  0  0  0  0  0  0  0  0
   60.1988   33.3834   49.8133 H   0  0  0  0  0  0  0  0  0  0  0  0
   61.8959   33.7286   49.9829 H   0  0  0  0  0  0  0  0  0  0  0  0
   63.5553   33.9458   49.3304 H   0  0  0  0  0  0  0  0  0  0  0  0
   62.4027   35.3236   49.3304 H   0  0  0  0  0  0  0  0  0  0  0  0
   63.9797   33.3588   47.2617 H   0  0  0  0  0  0  0  0  0  0  0  0
   62.6637   32.7584   46.1967 H   0  0  0  0  0  0  0  0  0  0  0  0
   63.0938   34.5024   46.1967 H   0  0  0  0  0  0  0  0  0  0  0  0
   60.8000   33.4322   45.5230 H   0  0  0  0  0  0  0  0  0  0  0  0
  1  2  1  0
  2  3  1  0
  2  4  1  0
  4  5  1  0
  5  6  1  0
  6  7  1  0
  7  8  1  0
  8  9  1  0
  9 10  2  0
 10 11  1  0
 11 12  2  0
 12 13  1  0
 13 14  2  0
 14 15  1  0
 15 16  2  0
 16 17  1  0
 17 18  2  0
 18 19  1  0
 19 20  1  0
 20 21  1  0
 20 22  1  0
 19 23  2  0
 14 24  1  0
 24 25  1  0
 25  8  2  0
 24 11  1  0
 23 15  1  0
  1 26  1  0
  1 27  1  0
  1 28  1  0
  3 29  1  0
  3 30  1  0
  3 31  1  0
  4 32  1  0
  4 33  1  0
  5 34  1  0
  5 35  1  0
  6 36  1  0
  6 37  1  0
  9 38  1  0
 10 39  1  0
 12 40  1  0
 13 41  1  0
 16 42  1  0
 17 43  1  0
 18 44  1  0
 21 45  1  0
 21 46  1  0
 21 47  1  0
 22 48  1  0
 22 49  1  0
 22 50  1  0
 23 51  1  0
M  CHG  1  12   1
M  END
>  <UniqueID>  (9) 
9

>  <SMILES>  (9) 
CN(C)CCCOc1ccc2[nH+]cc(-c3cccc(N(C)C)c3)n2n1

>  <Energy>  (9) 
92.44030030800054

>  <Genealogy>  (9) 
CN(C)CCCOc1ccc2[nH+]cc(-c3cccc(N(C)C)c3)n2n1 (protonated)
CN(C)CCCOc1ccc2[nH+]cc(-c3cccc(N(C)C)c3)n2n1 (3D coordinates assigned)
CN(C)CCCOc1ccc2[nH+]cc(-c3cccc(N(C)C)c3)n2n1 (optimized conformer: 92.44030030800054 kcal/mol)

>  <smiles>  (9) 
CN(C)CCCOc1ccc2ncc(-c3cccc(N(C)C)c3)n2n1

>  <score_type>  (9) 
oracle

>  <origin>  (9) 
adg

>  <m_score__min__energy>  (9) 
-5.9500000000000002

>  <m_primary>  (9) 
energy

$$$$
9:0
     RDKit          3D

 49 50  0  0  0  0  0  0  0  0999 V2000
   64.1990   32.0090   49.2080 C   0  0  0  0  0  0  0  0  0  0  0  0
   63.6910   32.4660   47.8430 C   0  0  0  0  0  0  0  0  0  0  0  0
   62.9820   33.8280   47.8890 C   0  0  0  0  0  0  0  0  0  0  0  0
   61.5400   33.7070   47.5800 N   0  0  0  0  0  0  0  0  0  0  0  0
   61.1400   34.2100   46.3710 C   0  0  0  0  0  0  0  0  0  0  0  0
   59.8110   34.1750   45.9730 C   0  0  0  0  0  0  0  0  0  0  0  0
   58.8420   33.6130   46.8040 C   0  0  0  0  0  0  0  0  0  0  0  0
   57.4590   33.6310   46.4010 N   0  0  0  0  0  0  0  0  0  0  0  0
   57.0170   33.3260   45.0390 C   0  0  0  0  0  0  0  0  0  0  0  0
   57.6880   32.0320   44.5330 C   0  0  0  0  0  0  0  0  0  0  0  0
   57.0020   30.7970   44.9710 N   0  0  0  0  0  0  0  0  0  0  0  0
   57.9450   29.7390   45.3960 C   0  0  0  0  0  0  0  0  0  0  0  0
   59.2890   30.3400   45.8010 C   0  0  0  0  0  0  0  0  0  0  0  0
   55.9820   30.3270   44.0040 C   0  0  0  0  0  0  0  0  0  0  0  0
   56.6440   29.4420   42.9580 C   0  0  0  0  0  0  0  0  0  0  0  0
   59.2410   33.0570   48.0390 C   0  0  0  0  0  0  0  0  0  0  0  0
   58.3070   32.4160   48.8810 C   0  0  0  0  0  0  0  0  0  0  0  0
   58.7060   31.8600   50.0920 C   0  0  0  0  0  0  0  0  0  0  0  0
   60.0390   31.9180   50.4830 C   0  0  0  0  0  0  0  0  0  0  0  0
   60.5330   31.2000   52.0070 Cl  0  0  0  0  0  0  0  0  0  0  0  0
   60.9860   32.5310   49.6620 C   0  0  0  0  0  0  0  0  0  0  0  0
   60.6160   33.1120   48.4220 C   0  0  0  0  0  0  0  0  0  0  0  0
   63.6316   32.5195   50.0001 H   0  0  0  0  0  0  0  0  0  0  0  0
   64.0651   30.9214   49.3038 H   0  0  0  0  0  0  0  0  0  0  0  0
   65.2664   32.2568   49.3038 H   0  0  0  0  0  0  0  0  0  0  0  0
   64.5480   32.5404   47.1575 H   0  0  0  0  0  0  0  0  0  0  0  0
   62.9541   31.7239   47.5020 H   0  0  0  0  0  0  0  0  0  0  0  0
   63.0958   34.2549   48.8964 H   0  0  0  0  0  0  0  0  0  0  0  0
   63.4411   34.4785   47.1300 H   0  0  0  0  0  0  0  0  0  0  0  0
   61.8901   34.6525   45.6990 H   0  0  0  0  0  0  0  0  0  0  0  0
   59.5204   34.5924   44.9976 H   0  0  0  0  0  0  0  0  0  0  0  0
   56.7250   33.8540   47.1090 H   0  0  0  0  0  0  0  0  0  0  0  0
   55.9249   33.1942   45.0333 H   0  0  0  0  0  0  0  0  0  0  0  0
   57.3007   34.1575   44.3771 H   0  0  0  0  0  0  0  0  0  0  0  0
   57.6976   32.0527   43.4332 H   0  0  0  0  0  0  0  0  0  0  0  0
   58.7011   32.0064   44.9607 H   0  0  0  0  0  0  0  0  0  0  0  0
   57.5182   29.1993   46.2542 H   0  0  0  0  0  0  0  0  0  0  0  0
   58.1064   29.0516   44.5526 H   0  0  0  0  0  0  0  0  0  0  0  0
   59.3606   30.3720   46.8982 H   0  0  0  0  0  0  0  0  0  0  0  0
   60.1039   29.7206   45.3983 H   0  0  0  0  0  0  0  0  0  0  0  0
   59.3707   31.3604   45.3983 H   0  0  0  0  0  0  0  0  0  0  0  0
   55.2103   29.7513   44.5360 H   0  0  0  0  0  0  0  0  0  0  0  0
   55.5181   31.1937   43.5104 H   0  0  0  0  0  0  0  0  0  0  0  0
   57.2305   28.6579   43.4592 H   0  0  0  0  0  0  0  0  0  0  0  0
   55.8708   28.9762   42.3293 H   0  0  0  0  0  0  0  0  0  0  0  0
   57.3092   30.0522   42.3293 H   0  0  0  0  0  0  0  0  0  0  0  0
   57.2518   32.3555   48.5761 H   0  0  0  0  0  0  0  0  0  0  0  0
   57.9646   31.3729   50.7424 H   0  0  0  0  0  0  0  0  0  0  0  0
   62.0379   32.5643   49.9819 H   0  0  0  0  0  0  0  0  0  0  0  0
  1  2  1  0
  2  3  1  0
  3  4  1  0
  4  5  2  0
  5  6  1  0
  6  7  2  0
  7  8  1  0
  8  9  1  0
  9 10  1  0
 10 11  1  0
 11 12  1  0
 12 13  1  0
 11 14  1  0
 14 15  1  0
  7 16  1  0
 16 17  2  0
 17 18  1  0
 18 19  2  0
 19 20  1  0
 19 21  1  0
 21 22  2  0
 22  4  1  0
 22 16  1  0
  1 23  1  0
  1 24  1  0
  1 25  1  0
  2 26  1  0
  2 27  1  0
  3 28  1  0
  3 29  1  0
  5 30  1  0
  6 31  1  0
  8 32  1  0
  9 33  1  0
  9 34  1  0
 10 35  1  0
 10 36  1  0
 12 37  1  0
 12 38  1  0
 13 39  1  0
 13 40  1  0
 13 41  1  0
 14 42  1  0
 14 43  1  0
 15 44  1  0
 15 45  1  0
 15 46  1  0
 17 47  1  0
 18 48  1  0
 21 49  1  0
M  CHG  1   4   1
M  END
>  <UniqueID>  (10) 
10

>  <SMILES>  (10) 
CCC[n+]1ccc(NCCN(CC)CC)c2ccc(Cl)cc21

>  <Energy>  (10) 
56.34329316912815

>  <Genealogy>  (10) 
CCC[n+]1ccc(NCCN(CC)CC)c2ccc(Cl)cc21 (3D coordinates assigned)
CCC[n+]1ccc(NCCN(CC)CC)c2ccc(Cl)cc21 (optimized conformer: 56.34329316912815 kcal/mol)

>  <smiles>  (10) 
CCC[n+]1ccc(NCCN(CC)CC)c2ccc(Cl)cc21

>  <score_type>  (10) 
oracle

>  <origin>  (10) 
adg

>  <m_score__min__energy>  (10) 
-5.2400000000000002

>  <m_primary>  (10) 
energy

$$$$
10:0
     RDKit          3D

 55 56  0  0  0  0  0  0  0  0999 V2000
   60.7270   30.4500   48.5600 C   0  0  0  0  0  0  0  0  0  0  0  0
   61.1440   30.5710   47.0960 C   0  0  0  0  0  0  0  0  0  0  0  0
   60.3210   29.6720   46.1590 C   0  0  0  0  0  0  0  0  0  0  0  0
   59.2330   28.8560   46.8890 C   0  0  0  0  0  0  0  0  0  0  0  0
   58.6440   27.7460   46.0000 C   0  0  0  0  0  0  0  0  0  0  0  0
   57.3450   28.1660   45.2890 C   0  0  0  0  0  0  0  0  0  0  0  0
   57.5760   28.8950   43.9530 C   0  0  0  0  0  0  0  0  0  0  0  0
   56.6210   30.0440   43.7480 C   0  0  0  0  0  0  0  0  0  0  0  0
   56.0130   30.1510   42.6500 O   0  0  0  0  0  0  0  0  0  0  0  0
   56.4130   31.0490   44.7500 N   0  0  0  0  0  0  0  0  0  0  0  0
   57.3910   31.9760   45.2400 C   0  0  0  0  0  0  0  0  0  0  0  0
   57.8710   32.9710   44.3800 C   0  0  0  0  0  0  0  0  0  0  0  0
   58.7990   33.9110   44.8360 C   0  0  0  0  0  0  0  0  0  0  0  0
   59.2530   33.8760   46.1660 C   0  0  0  0  0  0  0  0  0  0  0  0
   60.1850   34.8650   46.6460 N   0  0  0  0  0  0  0  0  0  0  0  0
   61.2680   34.2150   47.3380 C   0  0  0  0  0  0  0  0  0  0  0  0
   62.3510   33.6810   46.6240 C   0  0  0  0  0  0  0  0  0  0  0  0
   63.4080   33.0820   47.3120 C   0  0  0  0  0  0  0  0  0  0  0  0
   63.4050   33.0230   48.6790 N   0  0  0  0  0  0  0  0  0  0  0  0
   64.5130   32.3670   49.3840 C   0  0  0  0  0  0  0  0  0  0  0  0
   65.1360   33.3200   50.3970 C   0  0  0  0  0  0  0  0  0  0  0  0
   62.3550   33.5350   49.3910 C   0  0  0  0  0  0  0  0  0  0  0  0
   61.2810   34.1410   48.7380 C   0  0  0  0  0  0  0  0  0  0  0  0
   58.7410   32.8990   47.0370 C   0  0  0  0  0  0  0  0  0  0  0  0
   57.8120   31.9600   46.5790 C   0  0  0  0  0  0  0  0  0  0  0  0
   61.5818   30.6980   49.2064 H   0  0  0  0  0  0  0  0  0  0  0  0
   59.8991   31.1450   48.7641 H   0  0  0  0  0  0  0  0  0  0  0  0
   60.3997   29.4198   48.7641 H   0  0  0  0  0  0  0  0  0  0  0  0
   61.0151   31.6168   46.7804 H   0  0  0  0  0  0  0  0  0  0  0  0
   62.1926   30.2461   47.0254 H   0  0  0  0  0  0  0  0  0  0  0  0
   59.8329   30.3081   45.4059 H   0  0  0  0  0  0  0  0  0  0  0  0
   61.0180   28.9511   45.7069 H   0  0  0  0  0  0  0  0  0  0  0  0
   59.6766   28.3951   47.7839 H   0  0  0  0  0  0  0  0  0  0  0  0
   58.4170   29.5438   47.1555 H   0  0  0  0  0  0  0  0  0  0  0  0
   59.3891   27.4765   45.2370 H   0  0  0  0  0  0  0  0  0  0  0  0
   58.3990   26.8970   46.6552 H   0  0  0  0  0  0  0  0  0  0  0  0
   56.7493   27.2623   45.0926 H   0  0  0  0  0  0  0  0  0  0  0  0
   56.8294   28.8734   45.9551 H   0  0  0  0  0  0  0  0  0  0  0  0
   58.6046   29.2844   43.9372 H   0  0  0  0  0  0  0  0  0  0  0  0
   57.4047   28.1702   43.1434 H   0  0  0  0  0  0  0  0  0  0  0  0
   57.5157   33.0131   43.3398 H   0  0  0  0  0  0  0  0  0  0  0  0
   59.1767   34.6833   44.1498 H   0  0  0  0  0  0  0  0  0  0  0  0
   60.5540   35.4280   45.8430 H   0  0  0  0  0  0  0  0  0  0  0  0
   59.7010   35.5370   47.2880 H   0  0  0  0  0  0  0  0  0  0  0  0
   62.3674   33.7340   45.5254 H   0  0  0  0  0  0  0  0  0  0  0  0
   64.2509   32.6536   46.7499 H   0  0  0  0  0  0  0  0  0  0  0  0
   64.1331   31.4779   49.9086 H   0  0  0  0  0  0  0  0  0  0  0  0
   65.2792   32.0744   48.6509 H   0  0  0  0  0  0  0  0  0  0  0  0
   64.9087   32.9723   51.4155 H   0  0  0  0  0  0  0  0  0  0  0  0
   66.2263   33.3463   50.2533 H   0  0  0  0  0  0  0  0  0  0  0  0
   64.7227   34.3292   50.2533 H   0  0  0  0  0  0  0  0  0  0  0  0
   62.3574   33.4683   50.4890 H   0  0  0  0  0  0  0  0  0  0  0  0
   60.4468   34.5595   49.3201 H   0  0  0  0  0  0  0  0  0  0  0  0
   59.0732   32.8730   48.0853 H   0  0  0  0  0  0  0  0  0  0  0  0
   57.4093   31.2055   47.2708 H   0  0  0  0  0  0  0  0  0  0  0  0
  1  2  1  0
  2  3  1  0
  3  4  1  0
  4  5  1  0
  5  6  1  0
  6  7  1  0
  7  8  1  0
  8  9  2  0
  8 10  1  0
 10 11  1  0
 11 12  2  0
 12 13  1  0
 13 14  2  0
 14 15  1  0
 15 16  1  0
 16 17  2  0
 17 18  1  0
 18 19  2  0
 19 20  1  0
 20 21  1  0
 19 22  1  0
 22 23  2  0
 14 24  1  0
 24 25  2  0
 25 11  1  0
 23 16  1  0
  1 26  1  0
  1 27  1  0
  1 28  1  0
  2 29  1  0
  2 30  1  0
  3 31  1  0
  3 32  1  0
  4 33  1  0
  4 34  1  0
  5 35  1  0
  5 36  1  0
  6 37  1  0
  6 38  1  0
  7 39  1  0
  7 40  1  0
 12 41  1  0
 13 42  1  0
 15 43  1  0
 15 44  1  0
 17 45  1  0
 18 46  1  0
 20 47  1  0
 20 48  1  0
 21 49  1  0
 21 50  1  0
 21 51  1  0
 22 52  1  0
 23 53  1  0
 24 54  1  0
 25 55  1  0
M  CHG  3  10  -1  15   1  19   1
M  END
>  <UniqueID>  (11) 
11

>  <SMILES>  (11) 
CCCCCCCC(=O)[N-]c1ccc([NH2+]c2cc[n+](CC)cc2)cc1

>  <Energy>  (11) 
50.647911378234745

>  <Genealogy>  (11) 
CCCCCCCC(=O)[N-]c1ccc([NH2+]c2cc[n+](CC)cc2)cc1 (protonated)
CCCCCCCC(=O)[N-]c1ccc([NH2+]c2cc[n+](CC)cc2)cc1 (3D coordinates assigned)
CCCCCCCC(=O)[N-]c1ccc([NH2+]c2cc[n+](CC)cc2)cc1 (optimized conformer: 50.647911378234745 kcal/mol)

>  <smiles>  (11) 
CCCCCCCC(=O)Nc1ccc(Nc2cc[n+](CC)cc2)cc1

>  <score_type>  (11) 
oracle

>  <origin>  (11) 
adg

>  <m_score__min__energy>  (11) 
-6.4299999999999997

>  <m_primary>  (11) 
energy

$$$$
11:0
     RDKit          3D

 43 45  0  0  0  0  0  0  0  0999 V2000
   61.7560   33.4120   49.4110 C   0  0  0  0  0  0  0  0  0  0  0  0
   60.3740   33.7620   49.9540 C   0  0  0  0  0  0  0  0  0  0  0  0
   59.6450   34.6080   49.0080 N   0  0  0  0  0  0  0  0  0  0  0  0
   59.4080   34.2800   47.6230 C   0  0  0  0  0  0  0  0  0  0  0  0
   59.6190   35.2110   46.5950 C   0  0  0  0  0  0  0  0  0  0  0  0
   59.3080   34.8850   45.2790 C   0  0  0  0  0  0  0  0  0  0  0  0
   58.8180   33.6100   44.9570 C   0  0  0  0  0  0  0  0  0  0  0  0
   58.4200   33.3390   43.6500 C   0  0  0  0  0  0  0  0  0  0  0  0
   57.8660   32.1400   43.3110 N   0  0  0  0  0  0  0  0  0  0  0  0
   57.4020   31.9690   41.9220 C   0  0  0  0  0  0  0  0  0  0  0  0
   57.7770   31.1210   44.2370 C   0  0  0  0  0  0  0  0  0  0  0  0
   57.2210   29.8710   43.8850 C   0  0  0  0  0  0  0  0  0  0  0  0
   57.1860   28.8180   44.7880 C   0  0  0  0  0  0  0  0  0  0  0  0
   57.7690   28.9470   46.0520 C   0  0  0  0  0  0  0  0  0  0  0  0
   57.7730   27.8890   46.9740 O   0  0  0  0  0  0  0  0  0  0  0  0
   58.8240   26.9380   47.1130 C   0  0  0  0  0  0  0  0  0  0  0  0
   58.3650   30.1660   46.4190 C   0  0  0  0  0  0  0  0  0  0  0  0
   59.1010   30.2150   47.6070 O   0  0  0  0  0  0  0  0  0  0  0  0
   60.5080   29.9940   47.6450 C   0  0  0  0  0  0  0  0  0  0  0  0
   58.2650   31.3080   45.5680 C   0  0  0  0  0  0  0  0  0  0  0  0
   58.6880   32.6170   45.9540 C   0  0  0  0  0  0  0  0  0  0  0  0
   58.9200   33.0040   47.2970 C   0  0  0  0  0  0  0  0  0  0  0  0
   62.4460   33.2372   50.2497 H   0  0  0  0  0  0  0  0  0  0  0  0
   61.6887   32.5025   48.7959 H   0  0  0  0  0  0  0  0  0  0  0  0
   62.1297   34.2438   48.7959 H   0  0  0  0  0  0  0  0  0  0  0  0
   59.8062   32.8348   50.1208 H   0  0  0  0  0  0  0  0  0  0  0  0
   60.4944   34.3114   50.8993 H   0  0  0  0  0  0  0  0  0  0  0  0
   59.2760   35.5150   49.3750 H   0  0  0  0  0  0  0  0  0  0  0  0
   60.0321   36.2029   46.8306 H   0  0  0  0  0  0  0  0  0  0  0  0
   59.4473   35.6326   44.4843 H   0  0  0  0  0  0  0  0  0  0  0  0
   58.5554   34.1081   42.8753 H   0  0  0  0  0  0  0  0  0  0  0  0
   56.3699   31.5886   41.9244 H   0  0  0  0  0  0  0  0  0  0  0  0
   57.4344   32.9381   41.4027 H   0  0  0  0  0  0  0  0  0  0  0  0
   58.0556   31.2527   41.4027 H   0  0  0  0  0  0  0  0  0  0  0  0
   56.8078   29.7296   42.8754 H   0  0  0  0  0  0  0  0  0  0  0  0
   56.6956   27.8743   44.5070 H   0  0  0  0  0  0  0  0  0  0  0  0
   59.0195   26.7611   48.1809 H   0  0  0  0  0  0  0  0  0  0  0  0
   58.5295   25.9932   46.6327 H   0  0  0  0  0  0  0  0  0  0  0  0
   59.7347   27.3252   46.6327 H   0  0  0  0  0  0  0  0  0  0  0  0
   60.8428   29.9414   48.6915 H   0  0  0  0  0  0  0  0  0  0  0  0
   60.7444   29.0477   47.1364 H   0  0  0  0  0  0  0  0  0  0  0  0
   61.0231   30.8222   47.1364 H   0  0  0  0  0  0  0  0  0  0  0  0
   58.7127   32.2869   48.1049 H   0  0  0  0  0  0  0  0  0  0  0  0
  1  2  1  0
  2  3  1  0
  3  4  1  0
  4  5  2  0
  5  6  1  0
  6  7  2  0
  7  8  1  0
  8  9  2  0
  9 10  1  0
  9 11  1  0
 11 12  2  0
 12 13  1  0
 13 14  2  0
 14 15  1  0
 15 16  1  0
 14 17  1  0
 17 18  1  0
 18 19  1  0
 17 20  2  0
 20 21  1  0
 21 22  2  0
 22  4  1  0
 21  7  1  0
 20 11  1  0
  1 23  1  0
  1 24  1  0
  1 25  1  0
  2 26  1  0
  2 27  1  0
  3 28  1  0
  5 29  1  0
  6 30  1  0
  8 31  1  0
 10 32  1  0
 10 33  1  0
 10 34  1  0
 12 35  1  0
 13 36  1  0
 16 37  1  0
 16 38  1  0
 16 39  1  0
 19 40  1  0
 19 41  1  0
 19 42  1  0
 22 43  1  0
M  CHG  1   9   1
M  END
>  <UniqueID>  (12) 
12

>  <SMILES>  (12) 
CCNc1ccc2c[n+](C)c3ccc(OC)c(OC)c3c2c1

>  <Energy>  (12) 
69.61385218800923

>  <Genealogy>  (12) 
CCNc1ccc2c[n+](C)c3ccc(OC)c(OC)c3c2c1 (3D coordinates assigned)
CCNc1ccc2c[n+](C)c3ccc(OC)c(OC)c3c2c1 (optimized conformer: 69.61385218800923 kcal/mol)

>  <smiles>  (12) 
CCNc1ccc2c[n+](C)c3ccc(OC)c(OC)c3c2c1

>  <score_type>  (12) 
oracle

>  <origin>  (12) 
adg

>  <m_score__min__energy>  (12) 
-5.0700000000000003

>  <m_primary>  (12) 
energy

$$$$
12:0
     RDKit          3D

 67 70  0  0  0  0  0  0  0  0999 V2000
   59.6050   33.5660   50.9840 C   0  0  0  0  0  0  0  0  0  0  0  0
   60.5690   32.3740   51.0740 C   0  0  0  0  0  0  0  0  0  0  0  0
   60.1720   31.2070   50.2470 N   0  0  0  0  0  0  0  0  0  0  0  0
   59.4020   30.1800   50.9890 C   0  0  0  0  0  0  0  0  0  0  0  0
   57.9300   30.5650   51.1320 C   0  0  0  0  0  0  0  0  0  0  0  0
   61.3240   30.6140   49.5300 C   0  0  0  0  0  0  0  0  0  0  0  0
   60.9450   30.3080   48.0780 C   0  0  0  0  0  0  0  0  0  0  0  0
   59.5190   30.5470   47.8480 N   0  0  0  0  0  0  0  0  0  0  0  0
   59.0280   30.7390   46.5130 C   0  0  0  0  0  0  0  0  0  0  0  0
   58.7180   29.6050   45.7380 C   0  0  0  0  0  0  0  0  0  0  0  0
   58.9960   28.3050   46.2180 C   0  0  0  0  0  0  0  0  0  0  0  0
   58.6490   27.1810   45.4750 C   0  0  0  0  0  0  0  0  0  0  0  0
   58.0080   27.3270   44.2520 C   0  0  0  0  0  0  0  0  0  0  0  0
   57.7230   28.5990   43.7560 C   0  0  0  0  0  0  0  0  0  0  0  0
   58.0940   29.7660   44.4740 C   0  0  0  0  0  0  0  0  0  0  0  0
   57.8260   31.0310   43.9920 N   0  0  0  0  0  0  0  0  0  0  0  0
   57.4080   31.2100   42.5830 C   0  0  0  0  0  0  0  0  0  0  0  0
   57.9720   32.1330   44.8130 C   0  0  0  0  0  0  0  0  0  0  0  0
   57.3950   33.3790   44.4700 C   0  0  0  0  0  0  0  0  0  0  0  0
   57.6050   34.5070   45.2530 C   0  0  0  0  0  0  0  0  0  0  0  0
   58.4260   34.4400   46.3670 C   0  0  0  0  0  0  0  0  0  0  0  0
   59.0030   33.2240   46.7630 C   0  0  0  0  0  0  0  0  0  0  0  0
   59.9980   33.2360   47.8050 N   0  0  0  0  0  0  0  0  0  0  0  0
   61.0780   34.2250   47.8500 C   0  0  0  0  0  0  0  0  0  0  0  0
   62.4180   33.5910   47.4720 C   0  0  0  0  0  0  0  0  0  0  0  0
   63.2200   33.3420   48.6750 N   0  0  0  0  0  0  0  0  0  0  0  0
   64.1400   32.3290   48.6810 C   0  0  0  0  0  0  0  0  0  0  0  0
   64.9350   32.0990   49.8070 C   0  0  0  0  0  0  0  0  0  0  0  0
   64.7870   32.9140   50.9270 C   0  0  0  0  0  0  0  0  0  0  0  0
   63.8570   33.9520   50.9080 C   0  0  0  0  0  0  0  0  0  0  0  0
   63.0820   34.1580   49.7640 C   0  0  0  0  0  0  0  0  0  0  0  0
   58.6890   32.0300   46.0410 C   0  0  0  0  0  0  0  0  0  0  0  0
   59.3366   33.8979   51.9978 H   0  0  0  0  0  0  0  0  0  0  0  0
   60.0923   34.3918   50.4449 H   0  0  0  0  0  0  0  0  0  0  0  0
   58.6956   33.2622   50.4449 H   0  0  0  0  0  0  0  0  0  0  0  0
   61.5634   32.7087   50.7436 H   0  0  0  0  0  0  0  0  0  0  0  0
   60.5590   32.0375   52.1212 H   0  0  0  0  0  0  0  0  0  0  0  0
   59.4689   29.2250   50.4473 H   0  0  0  0  0  0  0  0  0  0  0  0
   59.8317   30.0943   51.9979 H   0  0  0  0  0  0  0  0  0  0  0  0
   57.6707   30.6328   52.1989 H   0  0  0  0  0  0  0  0  0  0  0  0
   57.7571   31.5386   50.6500 H   0  0  0  0  0  0  0  0  0  0  0  0
   57.3026   29.8007   50.6500 H   0  0  0  0  0  0  0  0  0  0  0  0
   62.1645   31.3234   49.5440 H   0  0  0  0  0  0  0  0  0  0  0  0
   61.6133   29.6777   50.0296 H   0  0  0  0  0  0  0  0  0  0  0  0
   61.5310   30.9552   47.4089 H   0  0  0  0  0  0  0  0  0  0  0  0
   61.1608   29.2487   47.8746 H   0  0  0  0  0  0  0  0  0  0  0  0
   58.9070   30.8500   48.6410 H   0  0  0  0  0  0  0  0  0  0  0  0
   59.4930   28.1803   47.1914 H   0  0  0  0  0  0  0  0  0  0  0  0
   58.8826   26.1761   45.8567 H   0  0  0  0  0  0  0  0  0  0  0  0
   57.7240   26.4363   43.6723 H   0  0  0  0  0  0  0  0  0  0  0  0
   57.2021   28.6996   42.7924 H   0  0  0  0  0  0  0  0  0  0  0  0
   56.3972   31.6429   42.5526 H   0  0  0  0  0  0  0  0  0  0  0  0
   58.1117   31.8857   42.0748 H   0  0  0  0  0  0  0  0  0  0  0  0
   57.4046   30.2344   42.0748 H   0  0  0  0  0  0  0  0  0  0  0  0
   56.7697   33.4555   43.5682 H   0  0  0  0  0  0  0  0  0  0  0  0
   57.1177   35.4568   44.9876 H   0  0  0  0  0  0  0  0  0  0  0  0
   58.6280   35.3517   46.9483 H   0  0  0  0  0  0  0  0  0  0  0  0
   59.9730   32.4810   48.5270 H   0  0  0  0  0  0  0  0  0  0  0  0
   60.8520   35.0369   47.1430 H   0  0  0  0  0  0  0  0  0  0  0  0
   61.1523   34.6164   48.8753 H   0  0  0  0  0  0  0  0  0  0  0  0
   62.2354   32.6381   46.9538 H   0  0  0  0  0  0  0  0  0  0  0  0
   62.9664   34.2793   46.8121 H   0  0  0  0  0  0  0  0  0  0  0  0
   64.2546   31.6907   47.7925 H   0  0  0  0  0  0  0  0  0  0  0  0
   65.6711   31.2816   49.8089 H   0  0  0  0  0  0  0  0  0  0  0  0
   65.4014   32.7391   51.8225 H   0  0  0  0  0  0  0  0  0  0  0  0
   63.7343   34.6032   51.7860 H   0  0  0  0  0  0  0  0  0  0  0  0
   62.3550   34.9831   49.7389 H   0  0  0  0  0  0  0  0  0  0  0  0
  1  2  1  0
  2  3  1  0
  3  4  1  0
  4  5  1  0
  3  6  1  0
  6  7  1  0
  7  8  1  0
  8  9  1  0
  9 10  2  0
 10 11  1  0
 11 12  2  0
 12 13  1  0
 13 14  2  0
 14 15  1  0
 15 16  2  0
 16 17  1  0
 16 18  1  0
 18 19  2  0
 19 20  1  0
 20 21  2  0
 21 22  1  0
 22 23  1  0
 23 24  1  0
 24 25  1  0
 25 26  1  0
 26 27  2  0
 27 28  1  0
 28 29  2  0
 29 30  1  0
 30 31  2  0
 22 32  2  0
 32  9  1  0
 15 10  1  0
 32 18  1  0
 31 26  1  0
  1 33  1  0
  1 34  1  0
  1 35  1  0
  2 36  1  0
  2 37  1  0
  4 38  1  0
  4 39  1  0
  5 40  1  0
  5 41  1  0
  5 42  1  0
  6 43  1  0
  6 44  1  0
  7 45  1  0
  7 46  1  0
  8 47  1  0
 11 48  1  0
 12 49  1  0
 13 50  1  0
 14 51  1  0
 17 52  1  0
 17 53  1  0
 17 54  1  0
 19 55  1  0
 20 56  1  0
 21 57  1  0
 23 58  1  0
 24 59  1  0
 24 60  1  0
 25 61  1  0
 25 62  1  0
 27 63  1  0
 28 64  1  0
 29 65  1  0
 30 66  1  0
 31 67  1  0
M  CHG  2  16   1  26   1
M  END
>  <UniqueID>  (13) 
13

>  <SMILES>  (13) 
CCN(CC)CCNc1c2ccccc2[n+](C)c2cccc(NCC[n+]3ccccc3)c12

>  <Energy>  (13) 
100.83553446698996

>  <Genealogy>  (13) 
CCN(CC)CCNc1c2ccccc2[n+](C)c2cccc(NCC[n+]3ccccc3)c12 (3D coordinates assigned)
CCN(CC)CCNc1c2ccccc2[n+](C)c2cccc(NCC[n+]3ccccc3)c12 (optimized conformer: 100.83553446698996 kcal/mol)

>  <smiles>  (13) 
CCN(CC)CCNc1c2ccccc2[n+](C)c2cccc(NCC[n+]3ccccc3)c12

>  <score_type>  (13) 
oracle

>  <origin>  (13) 
adg

>  <m_score__min__energy>  (13) 
-4.9299999999999997

>  <m_primary>  (13) 
energy

$$$$
13:0
     RDKit          3D

 43 46  0  0  0  0  0  0  0  0999 V2000
   61.6220   30.4830   49.5590 C   0  0  0  0  0  0  0  0  0  0  0  0
   60.5720   31.3840   49.2150 O   0  0  0  0  0  0  0  0  0  0  0  0
   59.7090   31.2260   48.1180 C   0  0  0  0  0  0  0  0  0  0  0  0
   59.6620   30.0330   47.3710 C   0  0  0  0  0  0  0  0  0  0  0  0
   58.7850   29.9070   46.2790 C   0  0  0  0  0  0  0  0  0  0  0  0
   57.9470   31.0060   45.9370 C   0  0  0  0  0  0  0  0  0  0  0  0
   58.0020   32.1860   46.6820 C   0  0  0  0  0  0  0  0  0  0  0  0
   58.8760   32.3020   47.7760 C   0  0  0  0  0  0  0  0  0  0  0  0
   58.9520   33.4710   48.5540 O   0  0  0  0  0  0  0  0  0  0  0  0
   59.7910   34.5940   48.2840 C   0  0  0  0  0  0  0  0  0  0  0  0
   61.2290   34.1670   48.1490 C   0  0  0  0  0  0  0  0  0  0  0  0
   62.0730   34.1340   49.2710 C   0  0  0  0  0  0  0  0  0  0  0  0
   63.4090   33.7440   49.1370 C   0  0  0  0  0  0  0  0  0  0  0  0
   63.9130   33.3930   47.8810 C   0  0  0  0  0  0  0  0  0  0  0  0
   63.0830   33.4350   46.7580 C   0  0  0  0  0  0  0  0  0  0  0  0
   61.7460   33.8250   46.8880 C   0  0  0  0  0  0  0  0  0  0  0  0
   57.0810   30.9220   44.8790 N   0  0  0  0  0  0  0  0  0  0  0  0
   56.9740   29.8020   44.1090 C   0  0  0  0  0  0  0  0  0  0  0  0
   56.0120   29.7570   42.9640 C   0  0  0  0  0  0  0  0  0  0  0  0
   57.7820   28.7170   44.4260 C   0  0  0  0  0  0  0  0  0  0  0  0
   57.8510   27.5200   43.8190 N   0  0  0  0  0  0  0  0  0  0  0  0
   58.7670   26.8310   44.4900 N   0  0  0  0  0  0  0  0  0  0  0  0
   59.2730   27.5460   45.4900 N   0  0  0  0  0  0  0  0  0  0  0  0
   60.2980   27.0250   46.3880 C   0  0  0  0  0  0  0  0  0  0  0  0
   58.6610   28.7540   45.4720 C   0  0  0  0  0  0  0  0  0  0  0  0
   61.7021   30.4142   50.6539 H   0  0  0  0  0  0  0  0  0  0  0  0
   61.4021   29.4882   49.1442 H   0  0  0  0  0  0  0  0  0  0  0  0
   62.5719   30.8514   49.1442 H   0  0  0  0  0  0  0  0  0  0  0  0
   60.3170   29.1925   47.6441 H   0  0  0  0  0  0  0  0  0  0  0  0
   57.3548   33.0328   46.4097 H   0  0  0  0  0  0  0  0  0  0  0  0
   59.4665   35.0695   47.3467 H   0  0  0  0  0  0  0  0  0  0  0  0
   59.7109   35.3033   49.1209 H   0  0  0  0  0  0  0  0  0  0  0  0
   61.6813   34.4162   50.2594 H   0  0  0  0  0  0  0  0  0  0  0  0
   64.0639   33.7133   50.0203 H   0  0  0  0  0  0  0  0  0  0  0  0
   64.9635   33.0837   47.7770 H   0  0  0  0  0  0  0  0  0  0  0  0
   63.4815   33.1610   45.7700 H   0  0  0  0  0  0  0  0  0  0  0  0
   61.0974   33.8641   46.0004 H   0  0  0  0  0  0  0  0  0  0  0  0
   54.9834   29.7089   43.3510 H   0  0  0  0  0  0  0  0  0  0  0  0
   56.1307   30.6617   42.3496 H   0  0  0  0  0  0  0  0  0  0  0  0
   56.2146   28.8674   42.3496 H   0  0  0  0  0  0  0  0  0  0  0  0
   59.9865   27.1833   47.4310 H   0  0  0  0  0  0  0  0  0  0  0  0
   60.4332   25.9488   46.2050 H   0  0  0  0  0  0  0  0  0  0  0  0
   61.2471   27.5501   46.2050 H   0  0  0  0  0  0  0  0  0  0  0  0
  1  2  1  0
  2  3  1  0
  3  4  2  0
  4  5  1  0
  5  6  2  0
  6  7  1  0
  7  8  2  0
  8  9  1  0
  9 10  1  0
 10 11  1  0
 11 12  2  0
 12 13  1  0
 13 14  2  0
 14 15  1  0
 15 16  2  0
  6 17  1  0
 17 18  2  0
 18 19  1  0
 18 20  1  0
 20 21  1  0
 21 22  2  0
 22 23  1  0
 23 24  1  0
 23 25  1  0
  8  3  1  0
 16 11  1  0
 25 20  2  0
 25  5  1  0
  1 26  1  0
  1 27  1  0
  1 28  1  0
  4 29  1  0
  7 30  1  0
 10 31  1  0
 10 32  1  0
 12 33  1  0
 13 34  1  0
 14 35  1  0
 15 36  1  0
 16 37  1  0
 19 38  1  0
 19 39  1  0
 19 40  1  0
 24 41  1  0
 24 42  1  0
 24 43  1  0
M  END
>  <UniqueID>  (14) 
14

>  <SMILES>  (14) 
COc1cc2c(cc1OCc1ccccc1)nc(C)c1nnn(C)c12

>  <Energy>  (14) 
96.80285404408579

>  <Genealogy>  (14) 
COc1cc2c(cc1OCc1ccccc1)nc(C)c1nnn(C)c12 (3D coordinates assigned)
COc1cc2c(cc1OCc1ccccc1)nc(C)c1nnn(C)c12 (optimized conformer: 96.80285404408579 kcal/mol)

>  <smiles>  (14) 
COc1cc2c(cc1OCc1ccccc1)nc(C)c1nnn(C)c12

>  <score_type>  (14) 
oracle

>  <origin>  (14) 
adg

>  <m_score__min__energy>  (14) 
-7.3200000000000003

>  <m_primary>  (14) 
energy

$$$$
14:0
     RDKit          3D

 68 72  0  0  0  0  0  0  0  0999 V2000
   51.1700   24.0050   44.4660 C   0  0  0  0  0  0  0  0  0  0  0  0
   52.5790   23.6480   44.9460 C   0  0  0  0  0  0  0  0  0  0  0  0
   52.6540   22.2780   45.4860 N   0  0  0  0  0  0  0  0  0  0  0  0
   54.0330   21.8200   45.7300 C   0  0  0  0  0  0  0  0  0  0  0  0
   55.0200   22.9660   45.7600 C   0  0  0  0  0  0  0  0  0  0  0  0
   55.0830   23.8050   46.8810 C   0  0  0  0  0  0  0  0  0  0  0  0
   55.9500   24.8490   46.9080 N   0  0  0  0  0  0  0  0  0  0  0  0
   56.7880   25.1280   45.8720 C   0  0  0  0  0  0  0  0  0  0  0  0
   57.7050   26.2930   45.9750 C   0  0  0  0  0  0  0  0  0  0  0  0
   59.0330   26.1100   46.3910 C   0  0  0  0  0  0  0  0  0  0  0  0
   59.8730   27.1720   46.5010 N   0  0  0  0  0  0  0  0  0  0  0  0
   59.4780   28.4350   46.1980 C   0  0  0  0  0  0  0  0  0  0  0  0
   58.1730   28.6760   45.7470 C   0  0  0  0  0  0  0  0  0  0  0  0
   57.7060   30.0450   45.4460 C   0  0  0  0  0  0  0  0  0  0  0  0
   56.5190   30.3150   44.8520 N   0  0  0  0  0  0  0  0  0  0  0  0
   56.3680   31.6320   44.7520 N   0  0  0  0  0  0  0  0  0  0  0  0
   57.4650   32.2010   45.2810 C   0  0  0  0  0  0  0  0  0  0  0  0
   57.7520   33.5570   45.3790 C   0  0  0  0  0  0  0  0  0  0  0  0
   58.9880   33.9270   45.9380 C   0  0  0  0  0  0  0  0  0  0  0  0
   59.9170   32.9440   46.3700 C   0  0  0  0  0  0  0  0  0  0  0  0
   61.1820   33.3730   46.9130 N   0  0  0  0  0  0  0  0  0  0  0  0
   62.2560   32.4740   47.3380 C   0  0  0  0  0  0  0  0  0  0  0  0
   62.0600   32.0030   48.7840 C   0  0  0  0  0  0  0  0  0  0  0  0
   60.7900   31.2520   48.9060 N   0  0  0  0  0  0  0  0  0  0  0  0
   61.0080   29.8900   49.4270 C   0  0  0  0  0  0  0  0  0  0  0  0
   59.6710   29.1240   49.4940 C   0  0  0  0  0  0  0  0  0  0  0  0
   58.5640   29.9530   49.1850 O   0  0  0  0  0  0  0  0  0  0  0  0
   58.5730   31.0940   50.0210 C   0  0  0  0  0  0  0  0  0  0  0  0
   59.8210   31.9620   49.7620 C   0  0  0  0  0  0  0  0  0  0  0  0
   59.5850   31.5710   46.2460 C   0  0  0  0  0  0  0  0  0  0  0  0
   58.3350   31.2450   45.7200 C   0  0  0  0  0  0  0  0  0  0  0  0
   57.2860   27.5950   45.6470 C   0  0  0  0  0  0  0  0  0  0  0  0
   56.7450   24.3200   44.7220 C   0  0  0  0  0  0  0  0  0  0  0  0
   55.8610   23.2270   44.6630 C   0  0  0  0  0  0  0  0  0  0  0  0
   55.7920   22.3900   43.5380 O   0  0  0  0  0  0  0  0  0  0  0  0
   56.8930   21.6620   43.0020 C   0  0  0  0  0  0  0  0  0  0  0  0
   50.5172   24.1704   45.3358 H   0  0  0  0  0  0  0  0  0  0  0  0
   51.2107   24.9212   43.8586 H   0  0  0  0  0  0  0  0  0  0  0  0
   50.7695   23.1799   43.8586 H   0  0  0  0  0  0  0  0  0  0  0  0
   53.2741   23.7328   44.0977 H   0  0  0  0  0  0  0  0  0  0  0  0
   52.8464   24.3443   45.7545 H   0  0  0  0  0  0  0  0  0  0  0  0
   52.1460   21.5930   44.8770 H   0  0  0  0  0  0  0  0  0  0  0  0
   54.0668   21.2983   46.6978 H   0  0  0  0  0  0  0  0  0  0  0  0
   54.3174   21.1515   44.9040 H   0  0  0  0  0  0  0  0  0  0  0  0
   54.4265   23.6164   47.7432 H   0  0  0  0  0  0  0  0  0  0  0  0
   59.3962   25.0995   46.6296 H   0  0  0  0  0  0  0  0  0  0  0  0
   60.1840   29.2715   46.3067 H   0  0  0  0  0  0  0  0  0  0  0  0
   57.0359   34.3159   45.0308 H   0  0  0  0  0  0  0  0  0  0  0  0
   59.2387   34.9930   46.0421 H   0  0  0  0  0  0  0  0  0  0  0  0
   61.3680   34.3990   46.9870 H   0  0  0  0  0  0  0  0  0  0  0  0
   62.2695   31.5960   46.6755 H   0  0  0  0  0  0  0  0  0  0  0  0
   63.2070   33.0239   47.2816 H   0  0  0  0  0  0  0  0  0  0  0  0
   62.8977   31.3504   49.0709 H   0  0  0  0  0  0  0  0  0  0  0  0
   62.0251   32.8800   49.4470 H   0  0  0  0  0  0  0  0  0  0  0  0
   61.7010   29.3535   48.7623 H   0  0  0  0  0  0  0  0  0  0  0  0
   61.4338   29.9571   50.4390 H   0  0  0  0  0  0  0  0  0  0  0  0
   59.7026   28.2923   48.7748 H   0  0  0  0  0  0  0  0  0  0  0  0
   59.5423   28.7579   50.5233 H   0  0  0  0  0  0  0  0  0  0  0  0
   57.6716   31.6923   49.8220 H   0  0  0  0  0  0  0  0  0  0  0  0
   58.5914   30.7594   51.0687 H   0  0  0  0  0  0  0  0  0  0  0  0
   59.5144   32.8930   49.2627 H   0  0  0  0  0  0  0  0  0  0  0  0
   60.3011   32.1824   50.7268 H   0  0  0  0  0  0  0  0  0  0  0  0
   60.2918   30.7869   46.5552 H   0  0  0  0  0  0  0  0  0  0  0  0
   56.2533   27.7665   45.3091 H   0  0  0  0  0  0  0  0  0  0  0  0
   57.4024   24.5424   43.8686 H   0  0  0  0  0  0  0  0  0  0  0  0
   57.5019   21.2594   43.8249 H   0  0  0  0  0  0  0  0  0  0  0  0
   56.5183   20.8331   42.3836 H   0  0  0  0  0  0  0  0  0  0  0  0
   57.5090   22.3314   42.3836 H   0  0  0  0  0  0  0  0  0  0  0  0
  1  2  1  0
  2  3  1  0
  3  4  1  0
  4  5  1  0
  5  6  2  0
  6  7  1  0
  7  8  2  0
  8  9  1  0
  9 10  2  0
 10 11  1  0
 11 12  2  0
 12 13  1  0
 13 14  1  0
 14 15  2  0
 15 16  1  0
 16 17  1  0
 17 18  2  0
 18 19  1  0
 19 20  2  0
 20 21  1  0
 21 22  1  0
 22 23  1  0
 23 24  1  0
 24 25  1  0
 25 26  1  0
 26 27  1  0
 27 28  1  0
 28 29  1  0
 20 30  1  0
 30 31  2  0
 13 32  2  0
  8 33  1  0
 33 34  2  0
 34 35  1  0
 35 36  1  0
 34  5  1  0
 32  9  1  0
 31 14  1  0
 31 17  1  0
 29 24  1  0
  1 37  1  0
  1 38  1  0
  1 39  1  0
  2 40  1  0
  2 41  1  0
  3 42  1  0
  4 43  1  0
  4 44  1  0
  6 45  1  0
 10 46  1  0
 12 47  1  0
 18 48  1  0
 19 49  1  0
 21 50  1  0
 22 51  1  0
 22 52  1  0
 23 53  1  0
 23 54  1  0
 25 55  1  0
 25 56  1  0
 26 57  1  0
 26 58  1  0
 28 59  1  0
 28 60  1  0
 29 61  1  0
 29 62  1  0
 30 63  1  0
 32 64  1  0
 33 65  1  0
 36 66  1  0
 36 67  1  0
 36 68  1  0
M  CHG  1  16  -1
M  END
>  <UniqueID>  (15) 
15

>  <SMILES>  (15) 
CCNCc1cnc(-c2cncc(-c3n[n-]c4ccc(NCCN5CCOCC5)cc34)c2)cc1OC

>  <Energy>  (15) 
127.6836272890509

>  <Genealogy>  (15) 
CCNCc1cnc(-c2cncc(-c3n[n-]c4ccc(NCCN5CCOCC5)cc34)c2)cc1OC (protonated)
CCNCc1cnc(-c2cncc(-c3n[n-]c4ccc(NCCN5CCOCC5)cc34)c2)cc1OC (3D coordinates assigned)
CCNCc1cnc(-c2cncc(-c3n[n-]c4ccc(NCCN5CCOCC5)cc34)c2)cc1OC (nonaromatic ring conformer: 127.6836272890509 kcal/mol)

>  <smiles>  (15) 
CCNCc1cnc(-c2cncc(-c3n[nH]c4ccc(NCCN5CCOCC5)cc34)c2)cc1OC

>  <score_type>  (15) 
oracle

>  <origin>  (15) 
adg

>  <m_score__min__energy>  (15) 
-10.130000000000001

>  <m_primary>  (15) 
energy

$$$$
15:0
     RDKit          3D

 54 56  0  0  0  0  0  0  0  0999 V2000
   58.1380   27.0800   42.6770 C   0  0  0  0  0  0  0  0  0  0  0  0
   57.7720   26.2930   43.9480 C   0  0  0  0  0  0  0  0  0  0  0  0
   58.1930   26.9360   45.2180 N   0  0  0  0  0  0  0  0  0  0  0  0
   58.3720   25.9560   46.3120 C   0  0  0  0  0  0  0  0  0  0  0  0
   57.0240   25.4360   46.8060 C   0  0  0  0  0  0  0  0  0  0  0  0
   59.3620   27.8340   45.0550 C   0  0  0  0  0  0  0  0  0  0  0  0
   60.1380   27.9860   46.3730 C   0  0  0  0  0  0  0  0  0  0  0  0
   59.3390   28.7320   47.4600 C   0  0  0  0  0  0  0  0  0  0  0  0
   58.1370   29.3490   46.8960 N   0  0  0  0  0  0  0  0  0  0  0  0
   58.1540   30.6900   46.3790 C   0  0  0  0  0  0  0  0  0  0  0  0
   58.6680   31.7320   47.1710 C   0  0  0  0  0  0  0  0  0  0  0  0
   58.9290   31.5440   48.5470 C   0  0  0  0  0  0  0  0  0  0  0  0
   59.4040   32.5920   49.3300 C   0  0  0  0  0  0  0  0  0  0  0  0
   59.6200   33.8430   48.7640 C   0  0  0  0  0  0  0  0  0  0  0  0
   59.3960   34.0430   47.4030 C   0  0  0  0  0  0  0  0  0  0  0  0
   58.9550   32.9830   46.5710 C   0  0  0  0  0  0  0  0  0  0  0  0
   58.8340   33.1340   45.2040 N   0  0  0  0  0  0  0  0  0  0  0  0
   59.4890   34.2760   44.5280 C   0  0  0  0  0  0  0  0  0  0  0  0
   58.1260   32.2030   44.4670 C   0  0  0  0  0  0  0  0  0  0  0  0
   57.7690   32.4520   43.1180 C   0  0  0  0  0  0  0  0  0  0  0  0
   57.0860   31.5050   42.3670 C   0  0  0  0  0  0  0  0  0  0  0  0
   56.6730   30.3170   42.9510 C   0  0  0  0  0  0  0  0  0  0  0  0
   56.9360   30.0540   44.2970 C   0  0  0  0  0  0  0  0  0  0  0  0
   56.2880   28.9200   44.8890 N   0  0  0  0  0  0  0  0  0  0  0  0
   57.7300   30.9670   45.0580 C   0  0  0  0  0  0  0  0  0  0  0  0
   58.5863   28.0441   42.9591 H   0  0  0  0  0  0  0  0  0  0  0  0
   58.8590   26.5005   42.0818 H   0  0  0  0  0  0  0  0  0  0  0  0
   57.2302   27.2579   42.0818 H   0  0  0  0  0  0  0  0  0  0  0  0
   56.6792   26.1698   43.9720 H   0  0  0  0  0  0  0  0  0  0  0  0
   58.3138   25.3375   43.8888 H   0  0  0  0  0  0  0  0  0  0  0  0
   58.9707   25.1102   45.9430 H   0  0  0  0  0  0  0  0  0  0  0  0
   58.8838   26.4540   47.1487 H   0  0  0  0  0  0  0  0  0  0  0  0
   57.0133   25.4319   47.9059 H   0  0  0  0  0  0  0  0  0  0  0  0
   56.2205   26.0887   46.4340 H   0  0  0  0  0  0  0  0  0  0  0  0
   56.8670   24.4128   46.4340 H   0  0  0  0  0  0  0  0  0  0  0  0
   60.0326   27.4140   44.2908 H   0  0  0  0  0  0  0  0  0  0  0  0
   58.9976   28.8262   44.7504 H   0  0  0  0  0  0  0  0  0  0  0  0
   60.3898   26.9834   46.7491 H   0  0  0  0  0  0  0  0  0  0  0  0
   61.0373   28.5820   46.1584 H   0  0  0  0  0  0  0  0  0  0  0  0
   59.0435   28.0182   48.2431 H   0  0  0  0  0  0  0  0  0  0  0  0
   59.9752   29.5242   47.8815 H   0  0  0  0  0  0  0  0  0  0  0  0
   57.2260   28.8490   47.0010 H   0  0  0  0  0  0  0  0  0  0  0  0
   58.7549   30.5588   49.0042 H   0  0  0  0  0  0  0  0  0  0  0  0
   59.6088   32.4300   50.3986 H   0  0  0  0  0  0  0  0  0  0  0  0
   59.9684   34.6767   49.3914 H   0  0  0  0  0  0  0  0  0  0  0  0
   59.5640   35.0390   46.9674 H   0  0  0  0  0  0  0  0  0  0  0  0
   59.8870   34.9699   45.2831 H   0  0  0  0  0  0  0  0  0  0  0  0
   60.3125   33.9066   43.8992 H   0  0  0  0  0  0  0  0  0  0  0  0
   58.7543   34.8003   43.8992 H   0  0  0  0  0  0  0  0  0  0  0  0
   58.0383   33.4139   42.6574 H   0  0  0  0  0  0  0  0  0  0  0  0
   56.8718   31.6976   41.3054 H   0  0  0  0  0  0  0  0  0  0  0  0
   56.1321   29.5734   42.3472 H   0  0  0  0  0  0  0  0  0  0  0  0
   55.8810   28.9860   45.8480 H   0  0  0  0  0  0  0  0  0  0  0  0
   56.4100   27.9620   44.4940 H   0  0  0  0  0  0  0  0  0  0  0  0
  1  2  1  0
  2  3  1  0
  3  4  1  0
  4  5  1  0
  3  6  1  0
  6  7  1  0
  7  8  1  0
  8  9  1  0
  9 10  1  0
 10 11  2  0
 11 12  1  0
 12 13  2  0
 13 14  1  0
 14 15  2  0
 15 16  1  0
 16 17  2  0
 17 18  1  0
 17 19  1  0
 19 20  2  0
 20 21  1  0
 21 22  2  0
 22 23  1  0
 23 24  1  0
 23 25  2  0
 25 10  1  0
 16 11  1  0
 25 19  1  0
  1 26  1  0
  1 27  1  0
  1 28  1  0
  2 29  1  0
  2 30  1  0
  4 31  1  0
  4 32  1  0
  5 33  1  0
  5 34  1  0
  5 35  1  0
  6 36  1  0
  6 37  1  0
  7 38  1  0
  7 39  1  0
  8 40  1  0
  8 41  1  0
  9 42  1  0
 12 43  1  0
 13 44  1  0
 14 45  1  0
 15 46  1  0
 18 47  1  0
 18 48  1  0
 18 49  1  0
 20 50  1  0
 21 51  1  0
 22 52  1  0
 24 53  1  0
 24 54  1  0
M  CHG  1  17   1
M  END
>  <UniqueID>  (16) 
16

>  <SMILES>  (16) 
CCN(CC)CCCNc1c2ccccc2[n+](C)c2cccc(N)c12

>  <Energy>  (16) 
84.79093956290203

>  <Genealogy>  (16) 
CCN(CC)CCCNc1c2ccccc2[n+](C)c2cccc(N)c12 (3D coordinates assigned)
CCN(CC)CCCNc1c2ccccc2[n+](C)c2cccc(N)c12 (optimized conformer: 84.79093956290203 kcal/mol)

>  <smiles>  (16) 
CCN(CC)CCCNc1c2ccccc2[n+](C)c2cccc(N)c12

>  <score_type>  (16) 
oracle

>  <origin>  (16) 
adg

>  <m_score__min__energy>  (16) 
-5.7400000000000002

>  <m_primary>  (16) 
energy

$$$$
16:0
     RDKit          3D

 69 71  0  0  0  0  0  0  0  0999 V2000
   63.1790   34.3530   50.4980 C   0  0  0  0  0  0  0  0  0  0  0  0
   63.0150   32.9020   50.0610 C   0  0  0  0  0  0  0  0  0  0  0  0
   62.7970   32.8450   48.5970 N   0  0  0  0  0  0  0  0  0  0  0  0
   63.2710   34.0700   47.9050 C   0  0  0  0  0  0  0  0  0  0  0  0
   63.3910   33.9280   46.3800 C   0  0  0  0  0  0  0  0  0  0  0  0
   63.2700   31.5730   48.0040 C   0  0  0  0  0  0  0  0  0  0  0  0
   62.1990   30.9260   47.1090 C   0  0  0  0  0  0  0  0  0  0  0  0
   60.8720   30.9820   47.7520 N   0  0  0  0  0  0  0  0  0  0  0  0
   59.8120   30.7740   46.7780 C   0  0  0  0  0  0  0  0  0  0  0  0
   59.4850   29.4370   46.3930 C   0  0  0  0  0  0  0  0  0  0  0  0
   60.0760   28.3040   47.0170 C   0  0  0  0  0  0  0  0  0  0  0  0
   59.7320   27.0090   46.6430 C   0  0  0  0  0  0  0  0  0  0  0  0
   58.7990   26.7980   45.6410 C   0  0  0  0  0  0  0  0  0  0  0  0
   58.2100   27.8810   45.0030 C   0  0  0  0  0  0  0  0  0  0  0  0
   58.5460   29.2160   45.3530 C   0  0  0  0  0  0  0  0  0  0  0  0
   57.9570   30.2820   44.7200 N   0  0  0  0  0  0  0  0  0  0  0  0
   57.2640   30.0800   43.4270 C   0  0  0  0  0  0  0  0  0  0  0  0
   58.0140   31.5370   45.2820 C   0  0  0  0  0  0  0  0  0  0  0  0
   57.0790   32.5230   44.8890 C   0  0  0  0  0  0  0  0  0  0  0  0
   57.1510   33.8170   45.3700 C   0  0  0  0  0  0  0  0  0  0  0  0
   58.1730   34.1780   46.2210 C   0  0  0  0  0  0  0  0  0  0  0  0
   59.1260   33.2460   46.6510 C   0  0  0  0  0  0  0  0  0  0  0  0
   60.1930   33.7680   47.4530 N   0  0  0  0  0  0  0  0  0  0  0  0
   59.9600   34.5900   48.6460 C   0  0  0  0  0  0  0  0  0  0  0  0
   59.9110   33.7480   49.9380 C   0  0  0  0  0  0  0  0  0  0  0  0
   58.8880   32.6000   49.8850 C   0  0  0  0  0  0  0  0  0  0  0  0
   59.5500   31.2800   49.9730 N   0  0  0  0  0  0  0  0  0  0  0  0
   60.3700   31.1930   51.1930 C   0  0  0  0  0  0  0  0  0  0  0  0
   58.5620   30.1850   49.9670 C   0  0  0  0  0  0  0  0  0  0  0  0
   59.0100   31.8580   46.2630 C   0  0  0  0  0  0  0  0  0  0  0  0
   63.1851   34.4066   51.5967 H   0  0  0  0  0  0  0  0  0  0  0  0
   64.1276   34.7489   50.1063 H   0  0  0  0  0  0  0  0  0  0  0  0
   62.3427   34.9507   50.1063 H   0  0  0  0  0  0  0  0  0  0  0  0
   63.9234   32.3375   50.3180 H   0  0  0  0  0  0  0  0  0  0  0  0
   62.1490   32.4612   50.5765 H   0  0  0  0  0  0  0  0  0  0  0  0
   62.5626   34.8835   48.1206 H   0  0  0  0  0  0  0  0  0  0  0  0
   64.2837   34.2737   48.2832 H   0  0  0  0  0  0  0  0  0  0  0  0
   64.0841   33.1078   46.1415 H   0  0  0  0  0  0  0  0  0  0  0  0
   62.4014   33.7075   45.9533 H   0  0  0  0  0  0  0  0  0  0  0  0
   63.7734   34.8670   45.9533 H   0  0  0  0  0  0  0  0  0  0  0  0
   64.1659   31.7741   47.3983 H   0  0  0  0  0  0  0  0  0  0  0  0
   63.4955   30.8764   48.8249 H   0  0  0  0  0  0  0  0  0  0  0  0
   62.1578   31.4639   46.1504 H   0  0  0  0  0  0  0  0  0  0  0  0
   62.4668   29.8715   46.9465 H   0  0  0  0  0  0  0  0  0  0  0  0
   60.8050   30.3320   48.5540 H   0  0  0  0  0  0  0  0  0  0  0  0
   60.7470   31.8970   48.2370 H   0  0  0  0  0  0  0  0  0  0  0  0
   60.8209   28.4548   47.8122 H   0  0  0  0  0  0  0  0  0  0  0  0
   60.2022   26.1502   47.1443 H   0  0  0  0  0  0  0  0  0  0  0  0
   58.5251   25.7729   45.3511 H   0  0  0  0  0  0  0  0  0  0  0  0
   57.4683   27.7018   44.2106 H   0  0  0  0  0  0  0  0  0  0  0  0
   56.2231   29.7766   43.6124 H   0  0  0  0  0  0  0  0  0  0  0  0
   57.2758   31.0189   42.8541 H   0  0  0  0  0  0  0  0  0  0  0  0
   57.7784   29.2944   42.8541 H   0  0  0  0  0  0  0  0  0  0  0  0
   56.2773   32.2543   44.1854 H   0  0  0  0  0  0  0  0  0  0  0  0
   56.3935   34.5576   45.0738 H   0  0  0  0  0  0  0  0  0  0  0  0
   58.2417   35.2190   46.5696 H   0  0  0  0  0  0  0  0  0  0  0  0
   61.1330   33.3260   47.3640 H   0  0  0  0  0  0  0  0  0  0  0  0
   60.7739   35.3248   48.7335 H   0  0  0  0  0  0  0  0  0  0  0  0
   58.9837   35.0831   48.5290 H   0  0  0  0  0  0  0  0  0  0  0  0
   60.9084   33.3176   50.1109 H   0  0  0  0  0  0  0  0  0  0  0  0
   59.5998   34.4209   50.7507 H   0  0  0  0  0  0  0  0  0  0  0  0
   58.1880   32.7057   50.7269 H   0  0  0  0  0  0  0  0  0  0  0  0
   58.3556   32.6559   48.9240 H   0  0  0  0  0  0  0  0  0  0  0  0
   59.7197   31.2620   52.0775 H   0  0  0  0  0  0  0  0  0  0  0  0
   60.9066   30.2329   51.2064 H   0  0  0  0  0  0  0  0  0  0  0  0
   61.0962   32.0191   51.2064 H   0  0  0  0  0  0  0  0  0  0  0  0
   58.3135   29.9096   51.0026 H   0  0  0  0  0  0  0  0  0  0  0  0
   57.6510   30.5160   49.4470 H   0  0  0  0  0  0  0  0  0  0  0  0
   58.9846   29.3127   49.4470 H   0  0  0  0  0  0  0  0  0  0  0  0
  1  2  1  0
  2  3  1  0
  3  4  1  0
  4  5  1  0
  3  6  1  0
  6  7  1  0
  7  8  1  0
  8  9  1  0
  9 10  2  0
 10 11  1  0
 11 12  2  0
 12 13  1  0
 13 14  2  0
 14 15  1  0
 15 16  2  0
 16 17  1  0
 16 18  1  0
 18 19  2  0
 19 20  1  0
 20 21  2  0
 21 22  1  0
 22 23  1  0
 23 24  1  0
 24 25  1  0
 25 26  1  0
 26 27  1  0
 27 28  1  0
 27 29  1  0
 22 30  2  0
 30  9  1  0
 15 10  1  0
 30 18  1  0
  1 31  1  0
  1 32  1  0
  1 33  1  0
  2 34  1  0
  2 35  1  0
  4 36  1  0
  4 37  1  0
  5 38  1  0
  5 39  1  0
  5 40  1  0
  6 41  1  0
  6 42  1  0
  7 43  1  0
  7 44  1  0
  8 45  1  0
  8 46  1  0
 11 47  1  0
 12 48  1  0
 13 49  1  0
 14 50  1  0
 17 51  1  0
 17 52  1  0
 17 53  1  0
 19 54  1  0
 20 55  1  0
 21 56  1  0
 23 57  1  0
 24 58  1  0
 24 59  1  0
 25 60  1  0
 25 61  1  0
 26 62  1  0
 26 63  1  0
 28 64  1  0
 28 65  1  0
 28 66  1  0
 29 67  1  0
 29 68  1  0
 29 69  1  0
M  CHG  2   8   1  16   1
M  END
>  <UniqueID>  (17) 
17

>  <SMILES>  (17) 
CCN(CC)CC[NH2+]c1c2ccccc2[n+](C)c2cccc(NCCCN(C)C)c12

>  <Energy>  (17) 
110.03104425431107

>  <Genealogy>  (17) 
CCN(CC)CC[NH2+]c1c2ccccc2[n+](C)c2cccc(NCCCN(C)C)c12 (protonated)
CCN(CC)CC[NH2+]c1c2ccccc2[n+](C)c2cccc(NCCCN(C)C)c12 (3D coordinates assigned)
CCN(CC)CC[NH2+]c1c2ccccc2[n+](C)c2cccc(NCCCN(C)C)c12 (optimized conformer: 110.03104425431107 kcal/mol)

>  <smiles>  (17) 
CCN(CC)CCNc1c2ccccc2[n+](C)c2cccc(NCCCN(C)C)c12

>  <score_type>  (17) 
oracle

>  <origin>  (17) 
adg

>  <m_score__min__energy>  (17) 
-4.71

>  <m_primary>  (17) 
energy

$$$$
17:0
     RDKit          3D

 52 55  0  0  0  0  0  0  0  0999 V2000
   63.7770   32.9060   46.9700 C   0  0  0  0  0  0  0  0  0  0  0  0
   62.7210   32.9500   48.0000 N   0  0  0  0  0  0  0  0  0  0  0  0
   62.9460   32.4220   49.2560 C   0  0  0  0  0  0  0  0  0  0  0  0
   61.8560   32.0350   50.0600 C   0  0  0  0  0  0  0  0  0  0  0  0
   60.5570   32.4210   49.6970 C   0  0  0  0  0  0  0  0  0  0  0  0
   59.4510   32.0760   50.5410 N   0  0  0  0  0  0  0  0  0  0  0  0
   58.6190   30.9120   50.2330 C   0  0  0  0  0  0  0  0  0  0  0  0
   57.6630   30.5730   51.3910 C   0  0  0  0  0  0  0  0  0  0  0  0
   56.6170   31.6040   51.6080 N   0  0  0  0  0  0  0  0  0  0  0  0
   57.1300   32.7430   52.3920 C   0  0  0  0  0  0  0  0  0  0  0  0
   55.4650   31.0070   52.3090 C   0  0  0  0  0  0  0  0  0  0  0  0
   60.3610   33.1740   48.5280 C   0  0  0  0  0  0  0  0  0  0  0  0
   59.0860   33.6770   48.1940 C   0  0  0  0  0  0  0  0  0  0  0  0
   58.8970   34.4080   47.0230 C   0  0  0  0  0  0  0  0  0  0  0  0
   59.9700   34.6550   46.1740 C   0  0  0  0  0  0  0  0  0  0  0  0
   61.2420   34.1770   46.4890 C   0  0  0  0  0  0  0  0  0  0  0  0
   61.4650   33.4240   47.6690 C   0  0  0  0  0  0  0  0  0  0  0  0
   62.1090   31.2410   51.3240 C   0  0  0  0  0  0  0  0  0  0  0  0
   63.3600   30.3710   51.1650 C   0  0  0  0  0  0  0  0  0  0  0  0
   64.5010   31.1990   50.7500 N   0  0  0  0  0  0  0  0  0  0  0  0
   65.7370   30.9600   51.2890 C   0  0  0  0  0  0  0  0  0  0  0  0
   66.8170   31.7830   50.9750 C   0  0  0  0  0  0  0  0  0  0  0  0
   66.6250   32.8650   50.1210 C   0  0  0  0  0  0  0  0  0  0  0  0
   65.3700   33.0890   49.5580 C   0  0  0  0  0  0  0  0  0  0  0  0
   64.3150   32.1970   49.8250 C   0  0  0  0  0  0  0  0  0  0  0  0
   64.7626   32.8649   47.4568 H   0  0  0  0  0  0  0  0  0  0  0  0
   63.6404   32.0128   46.3427 H   0  0  0  0  0  0  0  0  0  0  0  0
   63.7152   33.8075   46.3427 H   0  0  0  0  0  0  0  0  0  0  0  0
   59.3360   32.5960   51.4410 H   0  0  0  0  0  0  0  0  0  0  0  0
   58.0256   31.1264   49.3320 H   0  0  0  0  0  0  0  0  0  0  0  0
   59.2823   30.0493   50.0722 H   0  0  0  0  0  0  0  0  0  0  0  0
   57.1691   29.6158   51.1676 H   0  0  0  0  0  0  0  0  0  0  0  0
   58.2671   30.5225   52.3089 H   0  0  0  0  0  0  0  0  0  0  0  0
   56.2700   31.9650   50.6900 H   0  0  0  0  0  0  0  0  0  0  0  0
   57.0311   32.5235   53.4653 H   0  0  0  0  0  0  0  0  0  0  0  0
   58.1897   32.9087   52.1477 H   0  0  0  0  0  0  0  0  0  0  0  0
   56.5518   33.6463   52.1477 H   0  0  0  0  0  0  0  0  0  0  0  0
   55.6163   31.0854   53.3957 H   0  0  0  0  0  0  0  0  0  0  0  0
   54.5465   31.5426   52.0271 H   0  0  0  0  0  0  0  0  0  0  0  0
   55.3730   29.9477   52.0271 H   0  0  0  0  0  0  0  0  0  0  0  0
   58.2337   33.4905   48.8639 H   0  0  0  0  0  0  0  0  0  0  0  0
   57.8972   34.7904   46.7698 H   0  0  0  0  0  0  0  0  0  0  0  0
   59.8150   35.2302   45.2493 H   0  0  0  0  0  0  0  0  0  0  0  0
   62.0835   34.3873   45.8125 H   0  0  0  0  0  0  0  0  0  0  0  0
   62.2542   31.9348   52.1652 H   0  0  0  0  0  0  0  0  0  0  0  0
   61.2433   30.5904   51.5167 H   0  0  0  0  0  0  0  0  0  0  0  0
   63.5915   29.8875   52.1255 H   0  0  0  0  0  0  0  0  0  0  0  0
   63.1717   29.6062   50.3971 H   0  0  0  0  0  0  0  0  0  0  0  0
   65.8785   30.1119   51.9751 H   0  0  0  0  0  0  0  0  0  0  0  0
   67.8117   31.5793   51.3981 H   0  0  0  0  0  0  0  0  0  0  0  0
   67.4614   33.5414   49.8911 H   0  0  0  0  0  0  0  0  0  0  0  0
   65.2047   33.9602   48.9071 H   0  0  0  0  0  0  0  0  0  0  0  0
  1  2  1  0
  2  3  2  0
  3  4  1  0
  4  5  2  0
  5  6  1  0
  6  7  1  0
  7  8  1  0
  8  9  1  0
  9 10  1  0
  9 11  1  0
  5 12  1  0
 12 13  2  0
 13 14  1  0
 14 15  2  0
 15 16  1  0
 16 17  2  0
  4 18  1  0
 18 19  1  0
 19 20  1  0
 20 21  2  0
 21 22  1  0
 22 23  2  0
 23 24  1  0
 24 25  2  0
 17  2  1  0
 25 20  1  0
 25  3  1  0
 17 12  1  0
  1 26  1  0
  1 27  1  0
  1 28  1  0
  6 29  1  0
  7 30  1  0
  7 31  1  0
  8 32  1  0
  8 33  1  0
  9 34  1  0
 10 35  1  0
 10 36  1  0
 10 37  1  0
 11 38  1  0
 11 39  1  0
 11 40  1  0
 13 41  1  0
 14 42  1  0
 15 43  1  0
 16 44  1  0
 18 45  1  0
 18 46  1  0
 19 47  1  0
 19 48  1  0
 21 49  1  0
 22 50  1  0
 23 51  1  0
 24 52  1  0
M  CHG  3   2   1   9   1  20   1
M  END
>  <UniqueID>  (18) 
18

>  <SMILES>  (18) 
C[n+]1c2c(c(NCC[NH+](C)C)c3ccccc31)CC[n+]1ccccc1-2

>  <Energy>  (18) 
85.08265029460857

>  <Genealogy>  (18) 
C[n+]1c2c(c(NCC[NH+](C)C)c3ccccc31)CC[n+]1ccccc1-2 (protonated)
C[n+]1c2c(c(NCC[NH+](C)C)c3ccccc31)CC[n+]1ccccc1-2 (3D coordinates assigned)
C[n+]1c2c(c(NCC[NH+](C)C)c3ccccc31)CC[n+]1ccccc1-2 (nonaromatic ring conformer: 85.08265029460857 kcal/mol)

>  <smiles>  (18) 
CN(C)CCNc1c2c([n+](C)c3ccccc13)-c1cccc[n+]1CC2

>  <score_type>  (18) 
oracle

>  <origin>  (18) 
adg

>  <m_score__min__energy>  (18) 
-3.6800000000000002

>  <m_primary>  (18) 
energy

$$$$
18:0
     RDKit          3D

 63 65  0  0  0  0  0  0  0  0999 V2000
   59.5090   28.2940   44.6470 C   0  0  0  0  0  0  0  0  0  0  0  0
   57.9860   28.1350   44.6350 C   0  0  0  0  0  0  0  0  0  0  0  0
   57.4000   28.5120   43.3350 N   0  0  0  0  0  0  0  0  0  0  0  0
   56.5530   29.7270   43.4140 C   0  0  0  0  0  0  0  0  0  0  0  0
   57.3610   31.0290   43.2590 C   0  0  0  0  0  0  0  0  0  0  0  0
   58.1420   31.3930   44.5260 C   0  0  0  0  0  0  0  0  0  0  0  0
   57.2150   31.7960   45.5880 N   0  0  0  0  0  0  0  0  0  0  0  0
   57.3780   33.2210   45.8980 C   0  0  0  0  0  0  0  0  0  0  0  0
   58.2100   33.3950   47.1720 C   0  0  0  0  0  0  0  0  0  0  0  0
   58.8080   32.1280   47.5990 N   0  0  0  0  0  0  0  0  0  0  0  0
   59.9690   32.0830   48.4500 C   0  0  0  0  0  0  0  0  0  0  0  0
   61.2020   32.5820   48.0000 C   0  0  0  0  0  0  0  0  0  0  0  0
   61.2910   33.3170   46.7990 C   0  0  0  0  0  0  0  0  0  0  0  0
   62.5100   33.8380   46.3720 C   0  0  0  0  0  0  0  0  0  0  0  0
   63.6520   33.6620   47.1460 C   0  0  0  0  0  0  0  0  0  0  0  0
   63.5850   32.9540   48.3440 C   0  0  0  0  0  0  0  0  0  0  0  0
   62.3660   32.3800   48.7890 C   0  0  0  0  0  0  0  0  0  0  0  0
   62.2870   31.6590   49.9650 N   0  0  0  0  0  0  0  0  0  0  0  0
   63.5240   31.1920   50.6310 C   0  0  0  0  0  0  0  0  0  0  0  0
   61.0530   31.3670   50.5140 C   0  0  0  0  0  0  0  0  0  0  0  0
   60.9210   30.8850   51.8390 C   0  0  0  0  0  0  0  0  0  0  0  0
   59.6740   30.5480   52.3650 C   0  0  0  0  0  0  0  0  0  0  0  0
   58.5110   30.6990   51.6010 C   0  0  0  0  0  0  0  0  0  0  0  0
   57.2200   30.3570   52.1560 N   0  0  0  0  0  0  0  0  0  0  0  0
   57.0340   29.0930   52.8770 C   0  0  0  0  0  0  0  0  0  0  0  0
   56.0840   31.2720   51.9990 C   0  0  0  0  0  0  0  0  0  0  0  0
   58.6190   31.2080   50.2990 C   0  0  0  0  0  0  0  0  0  0  0  0
   59.8720   31.5550   49.7500 C   0  0  0  0  0  0  0  0  0  0  0  0
   59.8656   28.3312   45.6869 H   0  0  0  0  0  0  0  0  0  0  0  0
   59.9710   27.4392   44.1313 H   0  0  0  0  0  0  0  0  0  0  0  0
   59.7845   29.2258   44.1313 H   0  0  0  0  0  0  0  0  0  0  0  0
   57.7372   27.0843   44.8451 H   0  0  0  0  0  0  0  0  0  0  0  0
   57.5690   28.8044   45.4019 H   0  0  0  0  0  0  0  0  0  0  0  0
   56.8270   27.7150   42.9700 H   0  0  0  0  0  0  0  0  0  0  0  0
   58.1790   28.6490   42.6490 H   0  0  0  0  0  0  0  0  0  0  0  0
   55.8001   29.6832   42.6133 H   0  0  0  0  0  0  0  0  0  0  0  0
   56.0882   29.7424   44.4108 H   0  0  0  0  0  0  0  0  0  0  0  0
   58.0731   30.9050   42.4298 H   0  0  0  0  0  0  0  0  0  0  0  0
   56.6470   31.8425   43.0629 H   0  0  0  0  0  0  0  0  0  0  0  0
   58.7214   30.5198   44.8602 H   0  0  0  0  0  0  0  0  0  0  0  0
   58.8217   32.2288   44.3036 H   0  0  0  0  0  0  0  0  0  0  0  0
   56.2370   31.6540   45.2410 H   0  0  0  0  0  0  0  0  0  0  0  0
   57.8884   33.7187   45.0603 H   0  0  0  0  0  0  0  0  0  0  0  0
   56.3858   33.6694   46.0541 H   0  0  0  0  0  0  0  0  0  0  0  0
   59.0126   34.1219   46.9784 H   0  0  0  0  0  0  0  0  0  0  0  0
   57.5451   33.7504   47.9730 H   0  0  0  0  0  0  0  0  0  0  0  0
   58.4340   31.2350   47.2050 H   0  0  0  0  0  0  0  0  0  0  0  0
   60.3876   33.4804   46.1931 H   0  0  0  0  0  0  0  0  0  0  0  0
   62.5696   34.3891   45.4219 H   0  0  0  0  0  0  0  0  0  0  0  0
   64.6114   34.0832   46.8112 H   0  0  0  0  0  0  0  0  0  0  0  0
   64.4922   32.8380   48.9551 H   0  0  0  0  0  0  0  0  0  0  0  0
   63.3939   31.2411   51.7222 H   0  0  0  0  0  0  0  0  0  0  0  0
   63.7314   30.1537   50.3328 H   0  0  0  0  0  0  0  0  0  0  0  0
   64.3658   31.8342   50.3328 H   0  0  0  0  0  0  0  0  0  0  0  0
   61.8187   30.7743   52.4650 H   0  0  0  0  0  0  0  0  0  0  0  0
   59.6037   30.1593   53.3916 H   0  0  0  0  0  0  0  0  0  0  0  0
   57.0617   29.2814   53.9604 H   0  0  0  0  0  0  0  0  0  0  0  0
   56.0618   28.6557   52.6056 H   0  0  0  0  0  0  0  0  0  0  0  0
   57.8390   28.3942   52.6056 H   0  0  0  0  0  0  0  0  0  0  0  0
   55.7137   31.5703   52.9909 H   0  0  0  0  0  0  0  0  0  0  0  0
   56.4067   32.1653   51.4442 H   0  0  0  0  0  0  0  0  0  0  0  0
   55.2799   30.7664   51.4442 H   0  0  0  0  0  0  0  0  0  0  0  0
   57.7098   31.3394   49.6939 H   0  0  0  0  0  0  0  0  0  0  0  0
  1  2  1  0
  2  3  1  0
  3  4  1  0
  4  5  1  0
  5  6  1  0
  6  7  1  0
  7  8  1  0
  8  9  1  0
  9 10  1  0
 10 11  1  0
 11 12  2  0
 12 13  1  0
 13 14  2  0
 14 15  1  0
 15 16  2  0
 16 17  1  0
 17 18  2  0
 18 19  1  0
 18 20  1  0
 20 21  2  0
 21 22  1  0
 22 23  2  0
 23 24  1  0
 24 25  1  0
 24 26  1  0
 23 27  1  0
 27 28  2  0
 28 11  1  0
 17 12  1  0
 28 20  1  0
  1 29  1  0
  1 30  1  0
  1 31  1  0
  2 32  1  0
  2 33  1  0
  3 34  1  0
  3 35  1  0
  4 36  1  0
  4 37  1  0
  5 38  1  0
  5 39  1  0
  6 40  1  0
  6 41  1  0
  7 42  1  0
  8 43  1  0
  8 44  1  0
  9 45  1  0
  9 46  1  0
 10 47  1  0
 13 48  1  0
 14 49  1  0
 15 50  1  0
 16 51  1  0
 19 52  1  0
 19 53  1  0
 19 54  1  0
 21 55  1  0
 22 56  1  0
 25 57  1  0
 25 58  1  0
 25 59  1  0
 26 60  1  0
 26 61  1  0
 26 62  1  0
 27 63  1  0
M  CHG  2   3   1  18   1
M  END
>  <UniqueID>  (19) 
19

>  <SMILES>  (19) 
CC[NH2+]CCCNCCNc1c2ccccc2[n+](C)c2ccc(N(C)C)cc12

>  <Energy>  (19) 
81.81187024585496

>  <Genealogy>  (19) 
CC[NH2+]CCCNCCNc1c2ccccc2[n+](C)c2ccc(N(C)C)cc12 (protonated)
CC[NH2+]CCCNCCNc1c2ccccc2[n+](C)c2ccc(N(C)C)cc12 (3D coordinates assigned)
CC[NH2+]CCCNCCNc1c2ccccc2[n+](C)c2ccc(N(C)C)cc12 (optimized conformer: 81.81187024585496 kcal/mol)

>  <smiles>  (19) 
CCNCCCNCCNc1c2ccccc2[n+](C)c2ccc(N(C)C)cc12

>  <score_type>  (19) 
oracle

>  <origin>  (19) 
adg

>  <m_score__min__energy>  (19) 
-4.5199999999999996

>  <m_primary>  (19) 
energy

$$$$
19:0
     RDKit          3D

 58 60  0  0  0  0  0  0  0  0999 V2000
   61.8830   33.6540   46.6900 C   0  0  0  0  0  0  0  0  0  0  0  0
   63.3920   33.8700   46.5950 C   0  0  0  0  0  0  0  0  0  0  0  0
   64.1210   32.7170   47.1440 N   0  0  0  0  0  0  0  0  0  0  0  0
   63.2150   31.8450   47.9070 C   0  0  0  0  0  0  0  0  0  0  0  0
   63.4140   32.0530   49.4170 C   0  0  0  0  0  0  0  0  0  0  0  0
   62.0950   32.3220   50.1630 C   0  0  0  0  0  0  0  0  0  0  0  0
   61.7330   33.8100   50.2820 C   0  0  0  0  0  0  0  0  0  0  0  0
   60.3680   34.0500   49.7830 N   0  0  0  0  0  0  0  0  0  0  0  0
   59.3880   33.1650   50.4260 C   0  0  0  0  0  0  0  0  0  0  0  0
   58.7150   32.2880   49.3750 C   0  0  0  0  0  0  0  0  0  0  0  0
   59.5880   32.1240   48.2120 N   0  0  0  0  0  0  0  0  0  0  0  0
   59.2530   31.2120   47.1480 C   0  0  0  0  0  0  0  0  0  0  0  0
   58.7220   31.6980   45.9380 C   0  0  0  0  0  0  0  0  0  0  0  0
   58.5120   33.0810   45.7410 C   0  0  0  0  0  0  0  0  0  0  0  0
   58.0530   33.5660   44.5200 C   0  0  0  0  0  0  0  0  0  0  0  0
   57.8000   32.6890   43.4740 C   0  0  0  0  0  0  0  0  0  0  0  0
   57.9800   31.3180   43.6490 C   0  0  0  0  0  0  0  0  0  0  0  0
   58.4140   30.7870   44.8910 C   0  0  0  0  0  0  0  0  0  0  0  0
   58.5560   29.4270   45.0890 N   0  0  0  0  0  0  0  0  0  0  0  0
   57.9710   28.4720   44.1200 C   0  0  0  0  0  0  0  0  0  0  0  0
   59.2030   28.9540   46.2140 C   0  0  0  0  0  0  0  0  0  0  0  0
   59.5880   27.5940   46.3380 C   0  0  0  0  0  0  0  0  0  0  0  0
   60.1550   27.1100   47.5160 C   0  0  0  0  0  0  0  0  0  0  0  0
   60.3590   27.9630   48.5950 C   0  0  0  0  0  0  0  0  0  0  0  0
   60.0380   29.3130   48.4860 C   0  0  0  0  0  0  0  0  0  0  0  0
   59.5050   29.8350   47.2880 C   0  0  0  0  0  0  0  0  0  0  0  0
   61.5846   33.6113   47.7479 H   0  0  0  0  0  0  0  0  0  0  0  0
   61.3615   34.4867   46.1953 H   0  0  0  0  0  0  0  0  0  0  0  0
   61.6161   32.7085   46.1953 H   0  0  0  0  0  0  0  0  0  0  0  0
   63.6713   34.0037   45.5395 H   0  0  0  0  0  0  0  0  0  0  0  0
   63.6571   34.7644   47.1779 H   0  0  0  0  0  0  0  0  0  0  0  0
   64.8840   33.0590   47.7750 H   0  0  0  0  0  0  0  0  0  0  0  0
   64.5400   32.1720   46.3530 H   0  0  0  0  0  0  0  0  0  0  0  0
   62.1743   32.0840   47.6425 H   0  0  0  0  0  0  0  0  0  0  0  0
   63.4375   30.7965   47.6595 H   0  0  0  0  0  0  0  0  0  0  0  0
   63.8772   31.1484   49.8379 H   0  0  0  0  0  0  0  0  0  0  0  0
   64.0535   32.9385   49.5470 H   0  0  0  0  0  0  0  0  0  0  0  0
   61.2833   31.8112   49.6243 H   0  0  0  0  0  0  0  0  0  0  0  0
   62.2282   31.9454   51.1879 H   0  0  0  0  0  0  0  0  0  0  0  0
   61.7911   34.1135   51.3377 H   0  0  0  0  0  0  0  0  0  0  0  0
   62.4408   34.3978   49.6791 H   0  0  0  0  0  0  0  0  0  0  0  0
   60.3460   33.8600   48.7540 H   0  0  0  0  0  0  0  0  0  0  0  0
   59.8999   32.5264   51.1610 H   0  0  0  0  0  0  0  0  0  0  0  0
   58.6253   33.7750   50.9320 H   0  0  0  0  0  0  0  0  0  0  0  0
   58.5014   31.3005   49.8099 H   0  0  0  0  0  0  0  0  0  0  0  0
   57.7799   32.7701   49.0539 H   0  0  0  0  0  0  0  0  0  0  0  0
   60.5800   32.4400   48.3000 H   0  0  0  0  0  0  0  0  0  0  0  0
   58.7138   33.7834   46.5631 H   0  0  0  0  0  0  0  0  0  0  0  0
   57.8905   34.6453   44.3836 H   0  0  0  0  0  0  0  0  0  0  0  0
   57.4564   33.0774   42.5039 H   0  0  0  0  0  0  0  0  0  0  0  0
   57.7821   30.6356   42.8093 H   0  0  0  0  0  0  0  0  0  0  0  0
   57.4717   27.6569   44.6644 H   0  0  0  0  0  0  0  0  0  0  0  0
   57.2375   28.9940   43.4879 H   0  0  0  0  0  0  0  0  0  0  0  0
   58.7693   28.0557   43.4879 H   0  0  0  0  0  0  0  0  0  0  0  0
   59.4365   26.9098   45.4901 H   0  0  0  0  0  0  0  0  0  0  0  0
   60.4417   26.0508   47.5921 H   0  0  0  0  0  0  0  0  0  0  0  0
   60.7742   27.5708   49.5351 H   0  0  0  0  0  0  0  0  0  0  0  0
   60.2018   29.9813   49.3442 H   0  0  0  0  0  0  0  0  0  0  0  0
  1  2  1  0
  2  3  1  0
  3  4  1  0
  4  5  1  0
  5  6  1  0
  6  7  1  0
  7  8  1  0
  8  9  1  0
  9 10  1  0
 10 11  1  0
 11 12  1  0
 12 13  2  0
 13 14  1  0
 14 15  2  0
 15 16  1  0
 16 17  2  0
 17 18  1  0
 18 19  2  0
 19 20  1  0
 19 21  1  0
 21 22  2  0
 22 23  1  0
 23 24  2  0
 24 25  1  0
 25 26  2  0
 26 12  1  0
 18 13  1  0
 26 21  1  0
  1 27  1  0
  1 28  1  0
  1 29  1  0
  2 30  1  0
  2 31  1  0
  3 32  1  0
  3 33  1  0
  4 34  1  0
  4 35  1  0
  5 36  1  0
  5 37  1  0
  6 38  1  0
  6 39  1  0
  7 40  1  0
  7 41  1  0
  8 42  1  0
  9 43  1  0
  9 44  1  0
 10 45  1  0
 10 46  1  0
 11 47  1  0
 14 48  1  0
 15 49  1  0
 16 50  1  0
 17 51  1  0
 20 52  1  0
 20 53  1  0
 20 54  1  0
 22 55  1  0
 23 56  1  0
 24 57  1  0
 25 58  1  0
M  CHG  2   3   1  19   1
M  END
>  <UniqueID>  (20) 
20

>  <SMILES>  (20) 
CC[NH2+]CCCCNCCNc1c2ccccc2[n+](C)c2ccccc12

>  <Energy>  (20) 
70.21084685539165

>  <Genealogy>  (20) 
CC[NH2+]CCCCNCCNc1c2ccccc2[n+](C)c2ccccc12 (protonated)
CC[NH2+]CCCCNCCNc1c2ccccc2[n+](C)c2ccccc12 (3D coordinates assigned)
CC[NH2+]CCCCNCCNc1c2ccccc2[n+](C)c2ccccc12 (optimized conformer: 70.21084685539165 kcal/mol)

>  <smiles>  (20) 
CCNCCCCNCCNc1c2ccccc2[n+](C)c2ccccc12

>  <score_type>  (20) 
oracle

>  <origin>  (20) 
adg

>  <m_score__min__energy>  (20) 
-4.4800000000000004

>  <m_primary>  (20) 
energy

$$$$
20:0
     RDKit          3D

 81 85  0  0  0  0  0  0  0  0999 V2000
   59.5730   30.8190   54.1460 C   0  0  0  0  0  0  0  0  0  0  0  0
   60.7390   31.7880   54.3450 C   0  0  0  0  0  0  0  0  0  0  0  0
   60.6980   32.8700   53.3330 N   0  0  0  0  0  0  0  0  0  0  0  0
   59.6900   33.8830   53.7090 C   0  0  0  0  0  0  0  0  0  0  0  0
   62.0320   33.4940   53.1580 C   0  0  0  0  0  0  0  0  0  0  0  0
   62.8310   32.8690   51.9840 C   0  0  0  0  0  0  0  0  0  0  0  0
   62.3200   31.5840   51.3940 N   0  0  2  0  0  0  0  0  0  0  0  0
   63.1070   30.3470   51.6520 C   0  0  0  0  0  0  0  0  0  0  0  0
   62.3160   29.1060   51.6100 C   0  0  0  0  0  0  0  0  0  0  0  0
   61.6920   28.1320   51.5720 N   0  0  0  0  0  0  0  0  0  0  0  0
   61.8200   31.6920   49.9780 C   0  0  2  0  0  0  0  0  0  0  0  0
   62.9330   32.0990   48.9510 C   0  0  0  0  0  0  0  0  0  0  0  0
   62.6860   33.4250   48.2300 C   0  0  0  0  0  0  0  0  0  0  0  0
   61.3020   33.4520   47.6580 C   0  0  0  0  0  0  0  0  0  0  0  0
   61.0730   33.9690   46.3660 C   0  0  0  0  0  0  0  0  0  0  0  0
   59.7570   34.0700   45.9180 C   0  0  0  0  0  0  0  0  0  0  0  0
   58.7160   33.7170   46.6930 C   0  0  0  0  0  0  0  0  0  0  0  0
   58.8950   33.2150   47.9820 C   0  0  0  0  0  0  0  0  0  0  0  0
   60.2160   33.0380   48.4690 C   0  0  0  0  0  0  0  0  0  0  0  0
   60.5130   32.5700   49.8900 C   0  0  1  0  0  0  0  0  0  0  0  0
   59.3350   31.8350   50.5230 C   0  0  0  0  0  0  0  0  0  0  0  0
   59.3080   30.4300   50.5430 C   0  0  0  0  0  0  0  0  0  0  0  0
   58.2280   29.7480   51.1110 C   0  0  0  0  0  0  0  0  0  0  0  0
   57.1530   30.4620   51.6730 C   0  0  0  0  0  0  0  0  0  0  0  0
   56.0500   29.8240   52.2580 O   0  0  0  0  0  0  0  0  0  0  0  0
   54.6950   30.0480   51.8780 C   0  0  0  0  0  0  0  0  0  0  0  0
   53.7940   30.0100   53.1150 C   0  0  0  0  0  0  0  0  0  0  0  0
   52.3720   30.2370   52.7710 N   0  0  0  0  0  0  0  0  0  0  0  0
   51.7780   31.3230   53.5880 C   0  0  0  0  0  0  0  0  0  0  0  0
   50.6000   31.9930   52.8580 C   0  0  0  0  0  0  0  0  0  0  0  0
   50.9640   32.5910   51.6210 O   0  0  0  0  0  0  0  0  0  0  0  0
   52.0670   31.9610   50.9840 C   0  0  0  0  0  0  0  0  0  0  0  0
   52.1990   30.4640   51.3160 C   0  0  0  0  0  0  0  0  0  0  0  0
   57.1790   31.8590   51.6530 C   0  0  0  0  0  0  0  0  0  0  0  0
   58.2560   32.5430   51.0830 C   0  0  0  0  0  0  0  0  0  0  0  0
   57.4650   33.9990   45.9710 C   0  0  0  0  0  0  0  0  0  0  0  0
   57.8270   34.5440   44.7080 O   0  0  0  0  0  0  0  0  0  0  0  0
   59.2470   34.5990   44.6430 C   0  0  0  0  0  0  0  0  0  0  0  0
   59.1896   30.5004   55.1266 H   0  0  0  0  0  0  0  0  0  0  0  0
   58.7713   31.3205   53.5841 H   0  0  0  0  0  0  0  0  0  0  0  0
   59.9193   29.9390   53.5841 H   0  0  0  0  0  0  0  0  0  0  0  0
   60.6735   32.2305   55.3499 H   0  0  0  0  0  0  0  0  0  0  0  0
   61.6828   31.2341   54.2333 H   0  0  0  0  0  0  0  0  0  0  0  0
   59.6260   33.9473   54.8053 H   0  0  0  0  0  0  0  0  0  0  0  0
   59.9835   34.8614   53.3008 H   0  0  0  0  0  0  0  0  0  0  0  0
   58.7102   33.5944   53.3008 H   0  0  0  0  0  0  0  0  0  0  0  0
   61.8961   34.5675   52.9602 H   0  0  0  0  0  0  0  0  0  0  0  0
   62.6050   33.3222   54.0811 H   0  0  0  0  0  0  0  0  0  0  0  0
   62.8604   33.6130   51.1743 H   0  0  0  0  0  0  0  0  0  0  0  0
   63.8051   32.6049   52.4214 H   0  0  0  0  0  0  0  0  0  0  0  0
   61.4630   31.3860   51.9630 H   0  0  0  0  0  0  0  0  0  0  0  0
   63.8983   30.2771   50.8911 H   0  0  0  0  0  0  0  0  0  0  0  0
   63.5036   30.4334   52.6744 H   0  0  0  0  0  0  0  0  0  0  0  0
   61.5299   30.6781   49.6651 H   0  0  0  0  0  0  0  0  0  0  0  0
   63.8870   32.1767   49.4931 H   0  0  0  0  0  0  0  0  0  0  0  0
   62.9376   31.3202   48.1742 H   0  0  0  0  0  0  0  0  0  0  0  0
   62.8004   34.2538   48.9441 H   0  0  0  0  0  0  0  0  0  0  0  0
   63.4146   33.5306   47.4127 H   0  0  0  0  0  0  0  0  0  0  0  0
   61.9117   34.2845   45.7280 H   0  0  0  0  0  0  0  0  0  0  0  0
   58.0280   32.9610   48.6095 H   0  0  0  0  0  0  0  0  0  0  0  0
   60.6862   33.4890   50.4691 H   0  0  0  0  0  0  0  0  0  0  0  0
   60.1437   29.8622   50.1080 H   0  0  0  0  0  0  0  0  0  0  0  0
   58.2182   28.6481   51.1188 H   0  0  0  0  0  0  0  0  0  0  0  0
   54.6097   31.0325   51.3947 H   0  0  0  0  0  0  0  0  0  0  0  0
   54.3807   29.2610   51.1767 H   0  0  0  0  0  0  0  0  0  0  0  0
   53.8907   29.0250   53.5949 H   0  0  0  0  0  0  0  0  0  0  0  0
   54.1128   30.8153   53.7932 H   0  0  0  0  0  0  0  0  0  0  0  0
   51.4174   30.9006   54.5375 H   0  0  0  0  0  0  0  0  0  0  0  0
   52.5517   32.0837   53.7689 H   0  0  0  0  0  0  0  0  0  0  0  0
   49.8322   31.2298   52.6629 H   0  0  0  0  0  0  0  0  0  0  0  0
   50.2321   32.7987   53.5103 H   0  0  0  0  0  0  0  0  0  0  0  0
   51.9464   32.0663   49.8957 H   0  0  0  0  0  0  0  0  0  0  0  0
   52.9777   32.4545   51.3543 H   0  0  0  0  0  0  0  0  0  0  0  0
   51.2904   29.9430   50.9797 H   0  0  0  0  0  0  0  0  0  0  0  0
   53.0901   30.0762   50.8006 H   0  0  0  0  0  0  0  0  0  0  0  0
   56.3437   32.4257   52.0901 H   0  0  0  0  0  0  0  0  0  0  0  0
   58.2601   33.6429   51.0721 H   0  0  0  0  0  0  0  0  0  0  0  0
   56.8919   33.0705   45.8314 H   0  0  0  0  0  0  0  0  0  0  0  0
   56.8359   34.7025   46.5361 H   0  0  0  0  0  0  0  0  0  0  0  0
   59.6109   33.9844   43.8064 H   0  0  0  0  0  0  0  0  0  0  0  0
   59.5928   35.6304   44.4796 H   0  0  0  0  0  0  0  0  0  0  0  0
  1  2  1  0
  2  3  1  0
  3  4  1  0
  3  5  1  0
  5  6  1  0
  6  7  1  0
  7  8  1  0
  8  9  1  0
  9 10  3  0
  7 11  1  0
 11 12  1  0
 12 13  1  0
 13 14  1  0
 14 15  2  0
 15 16  1  0
 16 17  2  0
 17 18  1  0
 18 19  2  0
 19 20  1  0
 20 21  1  0
 21 22  2  0
 22 23  1  0
 23 24  2  0
 24 25  1  0
 25 26  1  0
 26 27  1  0
 27 28  1  0
 28 29  1  0
 29 30  1  0
 30 31  1  0
 31 32  1  0
 32 33  1  0
 24 34  1  0
 34 35  2  0
 17 36  1  0
 36 37  1  0
 37 38  1  0
 20 11  1  0
 35 21  1  0
 19 14  1  0
 33 28  1  0
 38 16  1  0
  1 39  1  0
  1 40  1  0
  1 41  1  0
  2 42  1  0
  2 43  1  0
  4 44  1  0
  4 45  1  0
  4 46  1  0
  5 47  1  0
  5 48  1  0
  6 49  1  0
  6 50  1  0
  7 51  1  1
  8 52  1  0
  8 53  1  0
 11 54  1  6
 12 55  1  0
 12 56  1  0
 13 57  1  0
 13 58  1  0
 15 59  1  0
 18 60  1  0
 20 61  1  1
 22 62  1  0
 23 63  1  0
 26 64  1  0
 26 65  1  0
 27 66  1  0
 27 67  1  0
 29 68  1  0
 29 69  1  0
 30 70  1  0
 30 71  1  0
 32 72  1  0
 32 73  1  0
 33 74  1  0
 33 75  1  0
 34 76  1  0
 35 77  1  0
 36 78  1  0
 36 79  1  0
 38 80  1  0
 38 81  1  0
M  CHG  1   7   1
M  END
>  <UniqueID>  (21) 
21

>  <SMILES>  (21) 
CCN(C)CC[N@H+](CC#N)[C@@H]1CCc2cc3c(cc2C1c1ccc(OCCN2CCOCC2)cc1)COC3

>  <Energy>  (21) 
138.15613761938656

>  <Genealogy>  (21) 
CCN(C)CC[NH+](CC#N)C1CCc2cc3c(cc2C1c1ccc(OCCN2CCOCC2)cc1)COC3 (protonated)
CCN(C)CC[N@H+](CC#N)[C@@H]1CCc2cc3c(cc2C1c1ccc(OCCN2CCOCC2)cc1)COC3 (chirality)
CCN(C)CC[N@H+](CC#N)[C@@H]1CCc2cc3c(cc2C1c1ccc(OCCN2CCOCC2)cc1)COC3 (3D coordinates assigned)
CCN(C)CC[N@H+](CC#N)[C@@H]1CCc2cc3c(cc2C1c1ccc(OCCN2CCOCC2)cc1)COC3 (nonaromatic ring conformer: 138.15613761938656 kcal/mol)

>  <smiles>  (21) 
CCN(C)CCN(CC#N)C1CCc2cc3c(cc2C1c1ccc(OCCN2CCOCC2)cc1)COC3

>  <score_type>  (21) 
oracle

>  <origin>  (21) 
adg

>  <m_score__min__energy>  (21) 
-7.8099999999999996

>  <m_primary>  (21) 
energy

$$$$
21:0
     RDKit          3D

 56 58  0  0  0  0  0  0  0  0999 V2000
   59.6430   33.7710   49.6720 C   0  0  0  0  0  0  0  0  0  0  0  0
   59.0910   32.6340   50.4040 N   0  0  0  0  0  0  0  0  0  0  0  0
   57.7870   32.2980   50.4650 C   0  0  0  0  0  0  0  0  0  0  0  0
   57.6220   31.1940   51.2770 C   0  0  0  0  0  0  0  0  0  0  0  0
   58.8790   30.8480   51.7360 C   0  0  0  0  0  0  0  0  0  0  0  0
   59.7610   31.7540   51.1800 C   0  0  0  0  0  0  0  0  0  0  0  0
   61.2450   31.7520   51.4180 C   0  0  0  0  0  0  0  0  0  0  0  0
   61.9180   30.9090   50.4060 N   0  0  0  0  0  0  0  0  0  0  0  0
   61.4740   29.5010   50.5130 C   0  0  0  0  0  0  0  0  0  0  0  0
   60.5920   29.1370   49.3140 C   0  0  0  0  0  0  0  0  0  0  0  0
   61.0470   29.8310   48.1110 N   0  0  0  0  0  0  0  0  0  0  0  0
   60.1790   30.6670   47.3310 C   0  0  0  0  0  0  0  0  0  0  0  0
   59.0070   30.1390   46.7770 C   0  0  0  0  0  0  0  0  0  0  0  0
   58.1660   30.9590   46.0180 C   0  0  0  0  0  0  0  0  0  0  0  0
   57.1130   30.4750   45.5200 O   0  0  0  0  0  0  0  0  0  0  0  0
   58.5020   32.3110   45.8200 C   0  0  0  0  0  0  0  0  0  0  0  0
   57.6910   33.1820   45.0690 C   0  0  0  0  0  0  0  0  0  0  0  0
   58.0620   34.5200   44.9040 C   0  0  0  0  0  0  0  0  0  0  0  0
   59.2380   35.0000   45.4850 C   0  0  0  0  0  0  0  0  0  0  0  0
   60.0560   34.1450   46.2270 C   0  0  0  0  0  0  0  0  0  0  0  0
   59.6950   32.8040   46.3990 C   0  0  0  0  0  0  0  0  0  0  0  0
   60.4910   31.9750   47.1250 N   0  0  0  0  0  0  0  0  0  0  0  0
   63.3910   31.0180   50.5160 C   0  0  0  0  0  0  0  0  0  0  0  0
   63.9150   32.0850   49.5370 C   0  0  0  0  0  0  0  0  0  0  0  0
   62.9500   32.3830   48.4510 N   0  0  0  0  0  0  0  0  0  0  0  0
   62.6540   33.8270   48.4300 C   0  0  0  0  0  0  0  0  0  0  0  0
   63.4660   31.9660   47.1320 C   0  0  0  0  0  0  0  0  0  0  0  0
   60.0086   34.5240   50.3857 H   0  0  0  0  0  0  0  0  0  0  0  0
   60.4760   33.4304   49.0395 H   0  0  0  0  0  0  0  0  0  0  0  0
   58.8601   34.2149   49.0395 H   0  0  0  0  0  0  0  0  0  0  0  0
   56.9743   32.8257   49.9445 H   0  0  0  0  0  0  0  0  0  0  0  0
   56.6743   30.6879   51.5130 H   0  0  0  0  0  0  0  0  0  0  0  0
   59.1278   30.0156   52.4107 H   0  0  0  0  0  0  0  0  0  0  0  0
   61.6268   32.7812   51.3471 H   0  0  0  0  0  0  0  0  0  0  0  0
   61.4497   31.3466   52.4199 H   0  0  0  0  0  0  0  0  0  0  0  0
   62.3544   28.8418   50.5310 H   0  0  0  0  0  0  0  0  0  0  0  0
   60.8943   29.3746   51.4393 H   0  0  0  0  0  0  0  0  0  0  0  0
   60.6414   28.0511   49.1454 H   0  0  0  0  0  0  0  0  0  0  0  0
   59.5573   29.4421   49.5294 H   0  0  0  0  0  0  0  0  0  0  0  0
   62.0570   29.7580   47.8510 H   0  0  0  0  0  0  0  0  0  0  0  0
   58.7482   29.0821   46.9382 H   0  0  0  0  0  0  0  0  0  0  0  0
   56.7630   32.8094   44.6107 H   0  0  0  0  0  0  0  0  0  0  0  0
   57.4257   35.1967   44.3148 H   0  0  0  0  0  0  0  0  0  0  0  0
   59.5210   36.0553   45.3577 H   0  0  0  0  0  0  0  0  0  0  0  0
   60.9848   34.5261   46.6766 H   0  0  0  0  0  0  0  0  0  0  0  0
   63.6593   31.3036   51.5438 H   0  0  0  0  0  0  0  0  0  0  0  0
   63.8443   30.0469   50.2681 H   0  0  0  0  0  0  0  0  0  0  0  0
   64.1125   33.0109   50.0971 H   0  0  0  0  0  0  0  0  0  0  0  0
   64.8302   31.6905   49.0715 H   0  0  0  0  0  0  0  0  0  0  0  0
   62.0510   31.8780   48.6360 H   0  0  0  0  0  0  0  0  0  0  0  0
   62.5774   34.2006   49.4618 H   0  0  0  0  0  0  0  0  0  0  0  0
   63.4617   34.3593   47.9063 H   0  0  0  0  0  0  0  0  0  0  0  0
   61.7020   33.9986   47.9063 H   0  0  0  0  0  0  0  0  0  0  0  0
   64.3147   31.2801   47.2704 H   0  0  0  0  0  0  0  0  0  0  0  0
   62.6693   31.4551   46.5714 H   0  0  0  0  0  0  0  0  0  0  0  0
   63.7984   32.8522   46.5714 H   0  0  0  0  0  0  0  0  0  0  0  0
  1  2  1  0
  2  3  1  0
  3  4  2  0
  4  5  1  0
  5  6  2  0
  6  7  1  0
  7  8  1  0
  8  9  1  0
  9 10  1  0
 10 11  1  0
 11 12  1  0
 12 13  2  0
 13 14  1  0
 14 15  2  0
 14 16  1  0
 16 17  2  0
 17 18  1  0
 18 19  2  0
 19 20  1  0
 20 21  2  0
 21 22  1  0
  8 23  1  0
 23 24  1  0
 24 25  1  0
 25 26  1  0
 25 27  1  0
  6  2  1  0
 22 12  1  0
 21 16  1  0
  1 28  1  0
  1 29  1  0
  1 30  1  0
  3 31  1  0
  4 32  1  0
  5 33  1  0
  7 34  1  0
  7 35  1  0
  9 36  1  0
  9 37  1  0
 10 38  1  0
 10 39  1  0
 11 40  1  0
 13 41  1  0
 17 42  1  0
 18 43  1  0
 19 44  1  0
 20 45  1  0
 23 46  1  0
 23 47  1  0
 24 48  1  0
 24 49  1  0
 25 50  1  0
 26 51  1  0
 26 52  1  0
 26 53  1  0
 27 54  1  0
 27 55  1  0
 27 56  1  0
M  CHG  2  22  -1  25   1
M  END
>  <UniqueID>  (22) 
22

>  <SMILES>  (22) 
Cn1cccc1CN(CCNc1cc(=O)c2ccccc2[n-]1)CC[NH+](C)C

>  <Energy>  (22) 
84.57937593106121

>  <Genealogy>  (22) 
Cn1cccc1CN(CCNc1cc(=O)c2ccccc2[n-]1)CC[NH+](C)C (protonated)
Cn1cccc1CN(CCNc1cc(=O)c2ccccc2[n-]1)CC[NH+](C)C (3D coordinates assigned)
Cn1cccc1CN(CCNc1cc(=O)c2ccccc2[n-]1)CC[NH+](C)C (optimized conformer: 84.57937593106121 kcal/mol)

>  <smiles>  (22) 
CN(C)CCN(CCNc1cc(=O)c2ccccc2[nH]1)Cc1cccn1C

>  <score_type>  (22) 
oracle

>  <origin>  (22) 
adg

>  <m_score__min__energy>  (22) 
-7.29

>  <m_primary>  (22) 
energy

$$$$
22:0
     RDKit          3D

 47 50  0  0  0  0  0  0  0  0999 V2000
   63.4590   33.7980   47.6850 C   0  0  0  0  0  0  0  0  0  0  0  0
   63.4620   32.7480   48.7150 N   0  0  0  0  0  0  0  0  0  0  0  0
   64.6710   32.8800   49.5460 C   0  0  0  0  0  0  0  0  0  0  0  0
   62.2300   32.8290   49.5320 C   0  0  0  0  0  0  0  0  0  0  0  0
   61.0610   32.0440   48.9020 C   0  0  0  0  0  0  0  0  0  0  0  0
   61.4350   31.3400   47.6600 N   0  0  0  0  0  0  0  0  0  0  0  0
   60.3250   31.2390   46.7320 C   0  0  0  0  0  0  0  0  0  0  0  0
   59.6930   32.3730   46.1440 C   0  0  0  0  0  0  0  0  0  0  0  0
   60.1770   33.6800   46.3640 C   0  0  0  0  0  0  0  0  0  0  0  0
   59.5780   34.7770   45.7500 C   0  0  0  0  0  0  0  0  0  0  0  0
   58.5000   34.5970   44.8920 C   0  0  0  0  0  0  0  0  0  0  0  0
   57.9920   33.3210   44.6570 C   0  0  0  0  0  0  0  0  0  0  0  0
   58.5450   32.1850   45.2940 C   0  0  0  0  0  0  0  0  0  0  0  0
   58.0180   30.9170   45.0960 N   0  0  0  0  0  0  0  0  0  0  0  0
   56.6960   30.7110   44.4800 C   0  0  0  0  0  0  0  0  0  0  0  0
   58.7350   29.8450   45.5560 C   0  0  0  0  0  0  0  0  0  0  0  0
   59.8350   29.9870   46.3710 C   0  0  0  0  0  0  0  0  0  0  0  0
   60.3090   28.8160   46.7410 O   0  0  0  0  0  0  0  0  0  0  0  0
   59.5600   27.9000   46.1690 C   0  0  0  0  0  0  0  0  0  0  0  0
   59.7110   26.5190   46.2660 C   0  0  0  0  0  0  0  0  0  0  0  0
   60.6860   25.9770   47.0350 F   0  0  0  0  0  0  0  0  0  0  0  0
   58.8330   25.7040   45.5330 C   0  0  0  0  0  0  0  0  0  0  0  0
   57.8430   26.2820   44.7120 C   0  0  0  0  0  0  0  0  0  0  0  0
   57.7050   27.6790   44.6290 C   0  0  0  0  0  0  0  0  0  0  0  0
   58.5630   28.4730   45.4020 C   0  0  0  0  0  0  0  0  0  0  0  0
   63.4562   34.7860   48.1686 H   0  0  0  0  0  0  0  0  0  0  0  0
   64.3574   33.6992   47.0581 H   0  0  0  0  0  0  0  0  0  0  0  0
   62.5611   33.6941   47.0581 H   0  0  0  0  0  0  0  0  0  0  0  0
   64.3903   32.8494   50.6091 H   0  0  0  0  0  0  0  0  0  0  0  0
   65.3603   32.0518   49.3247 H   0  0  0  0  0  0  0  0  0  0  0  0
   65.1653   33.8375   49.3247 H   0  0  0  0  0  0  0  0  0  0  0  0
   62.4384   32.4146   50.5294 H   0  0  0  0  0  0  0  0  0  0  0  0
   61.9333   33.8865   49.5922 H   0  0  0  0  0  0  0  0  0  0  0  0
   60.7056   31.3012   49.6313 H   0  0  0  0  0  0  0  0  0  0  0  0
   60.2804   32.7739   48.6413 H   0  0  0  0  0  0  0  0  0  0  0  0
   61.8080   30.3930   47.8980 H   0  0  0  0  0  0  0  0  0  0  0  0
   62.2290   31.8390   47.1980 H   0  0  0  0  0  0  0  0  0  0  0  0
   61.0391   33.8345   47.0295 H   0  0  0  0  0  0  0  0  0  0  0  0
   59.9598   35.7900   45.9450 H   0  0  0  0  0  0  0  0  0  0  0  0
   58.0451   35.4668   44.3955 H   0  0  0  0  0  0  0  0  0  0  0  0
   57.1467   33.1947   43.9645 H   0  0  0  0  0  0  0  0  0  0  0  0
   55.9384   30.5929   45.2687 H   0  0  0  0  0  0  0  0  0  0  0  0
   56.4429   31.5805   43.8556 H   0  0  0  0  0  0  0  0  0  0  0  0
   56.7195   29.8057   43.8556 H   0  0  0  0  0  0  0  0  0  0  0  0
   58.9181   24.6093   45.5997 H   0  0  0  0  0  0  0  0  0  0  0  0
   57.1715   25.6333   44.1303 H   0  0  0  0  0  0  0  0  0  0  0  0
   56.9459   28.1352   43.9765 H   0  0  0  0  0  0  0  0  0  0  0  0
  1  2  1  0
  2  3  1  0
  2  4  1  0
  4  5  1  0
  5  6  1  0
  6  7  1  0
  7  8  2  0
  8  9  1  0
  9 10  2  0
 10 11  1  0
 11 12  2  0
 12 13  1  0
 13 14  2  0
 14 15  1  0
 14 16  1  0
 16 17  2  0
 17 18  1  0
 18 19  1  0
 19 20  2  0
 20 21  1  0
 20 22  1  0
 22 23  2  0
 23 24  1  0
 24 25  2  0
 17  7  1  0
 25 19  1  0
 13  8  1  0
 25 16  1  0
  1 26  1  0
  1 27  1  0
  1 28  1  0
  3 29  1  0
  3 30  1  0
  3 31  1  0
  4 32  1  0
  4 33  1  0
  5 34  1  0
  5 35  1  0
  6 36  1  0
  6 37  1  0
  9 38  1  0
 10 39  1  0
 11 40  1  0
 12 41  1  0
 15 42  1  0
 15 43  1  0
 15 44  1  0
 22 45  1  0
 23 46  1  0
 24 47  1  0
M  CHG  2   6   1  14   1
M  END
>  <UniqueID>  (23) 
23

>  <SMILES>  (23) 
CN(C)CC[NH2+]c1c2ccccc2[n+](C)c2c1oc1c(F)cccc12

>  <Energy>  (23) 
108.82168286612671

>  <Genealogy>  (23) 
CN(C)CC[NH2+]c1c2ccccc2[n+](C)c2c1oc1c(F)cccc12 (protonated)
CN(C)CC[NH2+]c1c2ccccc2[n+](C)c2c1oc1c(F)cccc12 (3D coordinates assigned)
CN(C)CC[NH2+]c1c2ccccc2[n+](C)c2c1oc1c(F)cccc12 (optimized conformer: 108.82168286612671 kcal/mol)

>  <smiles>  (23) 
CN(C)CCNc1c2ccccc2[n+](C)c2c1oc1c(F)cccc12

>  <score_type>  (23) 
oracle

>  <origin>  (23) 
adg

>  <m_score__min__energy>  (23) 
-4.3399999999999999

>  <m_primary>  (23) 
energy

$$$$
23:0
     RDKit          3D

 45 46  0  0  0  0  0  0  0  0999 V2000
   57.0190   25.2600   44.8690 C   0  0  0  0  0  0  0  0  0  0  0  0
   56.3300   25.9290   46.0480 C   0  0  0  0  0  0  0  0  0  0  0  0
   56.2930   27.3380   45.8340 O   0  0  0  0  0  0  0  0  0  0  0  0
   57.4110   28.1850   45.8420 C   0  0  0  0  0  0  0  0  0  0  0  0
   58.6620   27.7230   46.2960 C   0  0  0  0  0  0  0  0  0  0  0  0
   59.7760   28.5590   46.2860 C   0  0  0  0  0  0  0  0  0  0  0  0
   59.6640   29.8680   45.8290 C   0  0  0  0  0  0  0  0  0  0  0  0
   58.4270   30.3640   45.3920 C   0  0  0  0  0  0  0  0  0  0  0  0
   58.3520   31.7740   44.8530 C   0  0  0  0  0  0  0  0  0  0  0  0
   57.0320   32.3600   45.1420 N   0  0  0  0  0  0  0  0  0  0  0  0
   57.1010   33.8070   45.4220 C   0  0  0  0  0  0  0  0  0  0  0  0
   58.5320   34.3330   45.6420 C   0  0  0  0  0  0  0  0  0  0  0  0
   59.0730   33.9670   46.9900 C   0  0  0  0  0  0  0  0  0  0  0  0
   60.1160   34.6050   47.6480 C   0  0  0  0  0  0  0  0  0  0  0  0
   60.3590   34.0890   48.9260 C   0  0  0  0  0  0  0  0  0  0  0  0
   59.5040   33.0540   49.2800 C   0  0  0  0  0  0  0  0  0  0  0  0
   58.4440   32.7820   48.0030 S   0  0  0  0  0  0  0  0  0  0  0  0
   57.2920   29.5240   45.3820 C   0  0  0  0  0  0  0  0  0  0  0  0
   56.0870   30.0740   44.9000 O   0  0  0  0  0  0  0  0  0  0  0  0
   55.4990   29.8540   43.6230 C   0  0  0  0  0  0  0  0  0  0  0  0
   56.5760   29.4140   42.6450 C   0  0  0  0  0  0  0  0  0  0  0  0
   57.7620   24.5385   45.2397 H   0  0  0  0  0  0  0  0  0  0  0  0
   56.2710   24.7344   44.2572 H   0  0  0  0  0  0  0  0  0  0  0  0
   57.5224   26.0231   44.2572 H   0  0  0  0  0  0  0  0  0  0  0  0
   55.3037   25.5442   46.1406 H   0  0  0  0  0  0  0  0  0  0  0  0
   56.8856   25.7109   46.9720 H   0  0  0  0  0  0  0  0  0  0  0  0
   58.7601   26.6905   46.6625 H   0  0  0  0  0  0  0  0  0  0  0  0
   60.7471   28.1830   46.6405 H   0  0  0  0  0  0  0  0  0  0  0  0
   60.5511   30.5182   45.8102 H   0  0  0  0  0  0  0  0  0  0  0  0
   59.1330   32.3863   45.3275 H   0  0  0  0  0  0  0  0  0  0  0  0
   58.5032   31.7501   43.7637 H   0  0  0  0  0  0  0  0  0  0  0  0
   56.6460   31.8960   45.9980 H   0  0  0  0  0  0  0  0  0  0  0  0
   56.3720   32.1680   44.3550 H   0  0  0  0  0  0  0  0  0  0  0  0
   56.6612   34.3459   44.5699 H   0  0  0  0  0  0  0  0  0  0  0  0
   56.5508   33.9773   46.3592 H   0  0  0  0  0  0  0  0  0  0  0  0
   59.1883   33.9054   44.8698 H   0  0  0  0  0  0  0  0  0  0  0  0
   58.4995   35.4308   45.5800 H   0  0  0  0  0  0  0  0  0  0  0  0
   60.6930   35.4324   47.2092 H   0  0  0  0  0  0  0  0  0  0  0  0
   61.1523   34.4676   49.5874 H   0  0  0  0  0  0  0  0  0  0  0  0
   59.5176   32.5054   50.2333 H   0  0  0  0  0  0  0  0  0  0  0  0
   54.7313   29.0701   43.7017 H   0  0  0  0  0  0  0  0  0  0  0  0
   55.0336   30.7844   43.2656 H   0  0  0  0  0  0  0  0  0  0  0  0
   57.4536   29.0555   43.2029 H   0  0  0  0  0  0  0  0  0  0  0  0
   56.1873   28.6026   42.0121 H   0  0  0  0  0  0  0  0  0  0  0  0
   56.8666   30.2655   42.0121 H   0  0  0  0  0  0  0  0  0  0  0  0
  1  2  1  0
  2  3  1  0
  3  4  1  0
  4  5  2  0
  5  6  1  0
  6  7  2  0
  7  8  1  0
  8  9  1  0
  9 10  1  0
 10 11  1  0
 11 12  1  0
 12 13  1  0
 13 14  2  0
 14 15  1  0
 15 16  2  0
 16 17  1  0
  8 18  2  0
 18 19  1  0
 19 20  1  0
 20 21  1  0
 18  4  1  0
 17 13  1  0
  1 22  1  0
  1 23  1  0
  1 24  1  0
  2 25  1  0
  2 26  1  0
  5 27  1  0
  6 28  1  0
  7 29  1  0
  9 30  1  0
  9 31  1  0
 10 32  1  0
 10 33  1  0
 11 34  1  0
 11 35  1  0
 12 36  1  0
 12 37  1  0
 14 38  1  0
 15 39  1  0
 16 40  1  0
 20 41  1  0
 20 42  1  0
 21 43  1  0
 21 44  1  0
 21 45  1  0
M  CHG  1  10   1
M  END
>  <UniqueID>  (24) 
24

>  <SMILES>  (24) 
CCOc1cccc(C[NH2+]CCc2cccs2)c1OCC

>  <Energy>  (24) 
63.53439273152925

>  <Genealogy>  (24) 
CCOc1cccc(C[NH2+]CCc2cccs2)c1OCC (protonated)
CCOc1cccc(C[NH2+]CCc2cccs2)c1OCC (3D coordinates assigned)
CCOc1cccc(C[NH2+]CCc2cccs2)c1OCC (optimized conformer: 63.53439273152925 kcal/mol)

>  <smiles>  (24) 
CCOc1cccc(CNCCc2cccs2)c1OCC

>  <score_type>  (24) 
oracle

>  <origin>  (24) 
adg

>  <m_score__min__energy>  (24) 
-5

>  <m_primary>  (24) 
energy

$$$$
24:0
     RDKit          3D

 46 47  0  0  0  0  0  0  0  0999 V2000
   63.9390   30.2380   51.2830 C   0  0  0  0  0  0  0  0  0  0  0  0
   65.2320   31.0160   50.9940 C   0  0  0  0  0  0  0  0  0  0  0  0
   64.9700   32.4230   50.5800 N   0  0  0  0  0  0  0  0  0  0  0  0
   66.2200   33.0950   50.1270 C   0  0  0  0  0  0  0  0  0  0  0  0
   67.4920   32.6270   50.8540 C   0  0  0  0  0  0  0  0  0  0  0  0
   64.2590   33.1670   51.6560 C   0  0  0  0  0  0  0  0  0  0  0  0
   63.7540   34.5710   51.2420 C   0  0  0  0  0  0  0  0  0  0  0  0
   62.9720   34.5780   49.9230 C   0  0  0  0  0  0  0  0  0  0  0  0
   62.7020   33.2390   49.5110 O   0  0  0  0  0  0  0  0  0  0  0  0
   62.7170   32.8130   48.1800 C   0  0  0  0  0  0  0  0  0  0  0  0
   63.7750   32.3760   47.6550 O   0  0  0  0  0  0  0  0  0  0  0  0
   61.4760   32.8470   47.4030 C   0  0  0  0  0  0  0  0  0  0  0  0
   60.6790   31.7450   47.0860 C   0  0  0  0  0  0  0  0  0  0  0  0
   59.5340   32.1070   46.3710 C   0  0  0  0  0  0  0  0  0  0  0  0
   58.5420   31.2380   45.9080 C   0  0  0  0  0  0  0  0  0  0  0  0
   57.4440   31.7700   45.1900 C   0  0  0  0  0  0  0  0  0  0  0  0
   56.4070   30.9620   44.7000 O   0  0  0  0  0  0  0  0  0  0  0  0
   56.4960   30.1730   43.5130 C   0  0  0  0  0  0  0  0  0  0  0  0
   57.3770   33.1600   44.9460 C   0  0  0  0  0  0  0  0  0  0  0  0
   58.3790   34.0220   45.4180 C   0  0  0  0  0  0  0  0  0  0  0  0
   59.4410   33.4680   46.1270 C   0  0  0  0  0  0  0  0  0  0  0  0
   60.7620   34.2550   46.7990 S   0  0  0  0  0  0  0  0  0  0  0  0
   63.7976   30.1529   52.3705 H   0  0  0  0  0  0  0  0  0  0  0  0
   63.0838   30.7716   50.8427 H   0  0  0  0  0  0  0  0  0  0  0  0
   64.0099   29.2325   50.8427 H   0  0  0  0  0  0  0  0  0  0  0  0
   65.8493   31.0252   51.9044 H   0  0  0  0  0  0  0  0  0  0  0  0
   65.7464   30.5127   50.1621 H   0  0  0  0  0  0  0  0  0  0  0  0
   64.3470   32.3820   49.7390 H   0  0  0  0  0  0  0  0  0  0  0  0
   66.3461   32.8986   49.0520 H   0  0  0  0  0  0  0  0  0  0  0  0
   66.1026   34.1644   50.3565 H   0  0  0  0  0  0  0  0  0  0  0  0
   67.3352   32.6847   51.9412 H   0  0  0  0  0  0  0  0  0  0  0  0
   67.7151   31.5879   50.5704 H   0  0  0  0  0  0  0  0  0  0  0  0
   68.3354   33.2737   50.5704 H   0  0  0  0  0  0  0  0  0  0  0  0
   63.3911   32.5691   51.9710 H   0  0  0  0  0  0  0  0  0  0  0  0
   64.9901   33.3235   52.4629 H   0  0  0  0  0  0  0  0  0  0  0  0
   63.0973   34.9529   52.0376 H   0  0  0  0  0  0  0  0  0  0  0  0
   64.6424   35.2025   51.0936 H   0  0  0  0  0  0  0  0  0  0  0  0
   62.0222   35.1144   50.0650 H   0  0  0  0  0  0  0  0  0  0  0  0
   63.5712   35.0808   49.1496 H   0  0  0  0  0  0  0  0  0  0  0  0
   60.9244   30.7102   47.3670 H   0  0  0  0  0  0  0  0  0  0  0  0
   58.6134   30.1570   46.0986 H   0  0  0  0  0  0  0  0  0  0  0  0
   56.6155   29.1138   43.7849 H   0  0  0  0  0  0  0  0  0  0  0  0
   55.5781   30.2980   42.9199 H   0  0  0  0  0  0  0  0  0  0  0  0
   57.3630   30.4994   42.9199 H   0  0  0  0  0  0  0  0  0  0  0  0
   56.5290   33.5717   44.3791 H   0  0  0  0  0  0  0  0  0  0  0  0
   58.3265   35.1050   45.2328 H   0  0  0  0  0  0  0  0  0  0  0  0
  1  2  1  0
  2  3  1  0
  3  4  1  0
  4  5  1  0
  3  6  1  0
  6  7  1  0
  7  8  1  0
  8  9  1  0
  9 10  1  0
 10 11  2  0
 10 12  1  0
 12 13  2  0
 13 14  1  0
 14 15  2  0
 15 16  1  0
 16 17  1  0
 17 18  1  0
 16 19  2  0
 19 20  1  0
 20 21  2  0
 21 22  1  0
 22 12  1  0
 21 14  1  0
  1 23  1  0
  1 24  1  0
  1 25  1  0
  2 26  1  0
  2 27  1  0
  3 28  1  0
  4 29  1  0
  4 30  1  0
  5 31  1  0
  5 32  1  0
  5 33  1  0
  6 34  1  0
  6 35  1  0
  7 36  1  0
  7 37  1  0
  8 38  1  0
  8 39  1  0
 13 40  1  0
 15 41  1  0
 18 42  1  0
 18 43  1  0
 18 44  1  0
 19 45  1  0
 20 46  1  0
M  CHG  1   3   1
M  END
>  <UniqueID>  (25) 
25

>  <SMILES>  (25) 
CC[NH+](CC)CCCOC(=O)c1cc2cc(OC)ccc2s1

>  <Energy>  (25) 
74.48271314510303

>  <Genealogy>  (25) 
CC[NH+](CC)CCCOC(=O)c1cc2cc(OC)ccc2s1 (protonated)
CC[NH+](CC)CCCOC(=O)c1cc2cc(OC)ccc2s1 (3D coordinates assigned)
CC[NH+](CC)CCCOC(=O)c1cc2cc(OC)ccc2s1 (optimized conformer: 74.48271314510303 kcal/mol)

>  <smiles>  (25) 
CCN(CC)CCCOC(=O)c1cc2cc(OC)ccc2s1

>  <score_type>  (25) 
oracle

>  <origin>  (25) 
adg

>  <m_score__min__energy>  (25) 
-4.5800000000000001

>  <m_primary>  (25) 
energy

$$$$
25:0
     RDKit          3D

 78 81  0  0  0  0  0  0  0  0999 V2000
   56.5470   29.3510   44.6360 C   0  0  0  0  0  0  0  0  0  0  0  0
   56.4810   30.6230   43.7880 C   0  0  0  0  0  0  0  0  0  0  0  0
   57.4720   31.6410   44.2140 N   0  0  0  0  0  0  0  0  0  0  0  0
   58.1910   32.1780   43.0330 C   0  0  0  0  0  0  0  0  0  0  0  0
   57.3980   32.0020   41.7370 C   0  0  0  0  0  0  0  0  0  0  0  0
   56.9150   32.6860   45.1180 C   0  0  0  0  0  0  0  0  0  0  0  0
   57.8780   33.1640   46.2270 C   0  0  0  0  0  0  0  0  0  0  0  0
   59.2520   32.6570   46.0310 N   0  0  0  0  0  0  0  0  0  0  0  0
   59.6890   31.7810   47.1120 C   0  0  0  0  0  0  0  0  0  0  0  0
   59.9330   30.3940   46.8900 C   0  0  0  0  0  0  0  0  0  0  0  0
   59.9880   29.8270   45.5940 C   0  0  0  0  0  0  0  0  0  0  0  0
   60.1690   28.4570   45.4160 C   0  0  0  0  0  0  0  0  0  0  0  0
   60.2810   27.6170   46.5150 C   0  0  0  0  0  0  0  0  0  0  0  0
   60.2260   28.1420   47.8010 C   0  0  0  0  0  0  0  0  0  0  0  0
   60.0700   29.5320   48.0140 C   0  0  0  0  0  0  0  0  0  0  0  0
   60.0500   30.0490   49.2870 N   0  0  0  0  0  0  0  0  0  0  0  0
   59.5920   29.1930   50.4070 C   0  0  0  0  0  0  0  0  0  0  0  0
   60.2240   31.4010   49.4770 C   0  0  0  0  0  0  0  0  0  0  0  0
   59.8350   32.2840   48.4370 C   0  0  0  0  0  0  0  0  0  0  0  0
   59.5510   33.6290   48.7670 C   0  0  0  0  0  0  0  0  0  0  0  0
   59.6560   34.0810   50.0780 C   0  0  0  0  0  0  0  0  0  0  0  0
   60.2090   33.2620   51.0630 C   0  0  0  0  0  0  0  0  0  0  0  0
   60.3850   33.7570   52.3620 C   0  0  0  0  0  0  0  0  0  0  0  0
   61.0590   32.9980   53.3140 C   0  0  0  0  0  0  0  0  0  0  0  0
   61.6510   31.7910   52.9490 C   0  0  0  0  0  0  0  0  0  0  0  0
   61.5090   31.2830   51.6440 C   0  0  0  0  0  0  0  0  0  0  0  0
   62.5550   30.2790   51.1930 C   0  0  0  0  0  0  0  0  0  0  0  0
   63.3470   30.8470   50.0960 N   0  0  0  0  0  0  0  0  0  0  0  0
   64.5000   31.6000   50.6110 C   0  0  0  0  0  0  0  0  0  0  0  0
   64.7740   32.8150   49.7180 C   0  0  0  0  0  0  0  0  0  0  0  0
   64.1910   32.6350   48.3120 C   0  0  0  0  0  0  0  0  0  0  0  0
   62.8420   33.2420   48.2450 N   0  0  0  0  0  0  0  0  0  0  0  0
   62.7110   34.3760   49.1740 C   0  0  0  0  0  0  0  0  0  0  0  0
   62.5130   33.6670   46.8760 C   0  0  0  0  0  0  0  0  0  0  0  0
   60.6360   31.9500   50.7310 C   0  0  0  0  0  0  0  0  0  0  0  0
   56.5330   29.6202   45.7025 H   0  0  0  0  0  0  0  0  0  0  0  0
   55.6808   28.7127   44.4076 H   0  0  0  0  0  0  0  0  0  0  0  0
   57.4746   28.8058   44.4076 H   0  0  0  0  0  0  0  0  0  0  0  0
   56.6763   30.3579   42.7384 H   0  0  0  0  0  0  0  0  0  0  0  0
   55.4787   31.0581   43.9151 H   0  0  0  0  0  0  0  0  0  0  0  0
   58.3768   33.2507   43.1904 H   0  0  0  0  0  0  0  0  0  0  0  0
   59.1313   31.6166   42.9294 H   0  0  0  0  0  0  0  0  0  0  0  0
   56.3500   31.7694   41.9771 H   0  0  0  0  0  0  0  0  0  0  0  0
   57.4422   32.9318   41.1509 H   0  0  0  0  0  0  0  0  0  0  0  0
   57.8314   31.1782   41.1509 H   0  0  0  0  0  0  0  0  0  0  0  0
   56.6396   33.5570   44.5052 H   0  0  0  0  0  0  0  0  0  0  0  0
   56.0568   32.2266   45.6303 H   0  0  0  0  0  0  0  0  0  0  0  0
   57.9027   34.2637   46.2247 H   0  0  0  0  0  0  0  0  0  0  0  0
   57.5080   32.7734   47.1864 H   0  0  0  0  0  0  0  0  0  0  0  0
   59.2930   32.1290   45.1300 H   0  0  0  0  0  0  0  0  0  0  0  0
   59.9120   33.4430   45.8530 H   0  0  0  0  0  0  0  0  0  0  0  0
   59.8862   30.4784   44.7135 H   0  0  0  0  0  0  0  0  0  0  0  0
   60.2234   28.0394   44.3998 H   0  0  0  0  0  0  0  0  0  0  0  0
   60.4134   26.5349   46.3684 H   0  0  0  0  0  0  0  0  0  0  0  0
   60.3049   27.4668   48.6658 H   0  0  0  0  0  0  0  0  0  0  0  0
   59.8484   29.6722   51.3634 H   0  0  0  0  0  0  0  0  0  0  0  0
   58.5019   29.0595   50.3444 H   0  0  0  0  0  0  0  0  0  0  0  0
   60.0858   28.2120   50.3444 H   0  0  0  0  0  0  0  0  0  0  0  0
   59.2426   34.3279   47.9756 H   0  0  0  0  0  0  0  0  0  0  0  0
   59.3014   35.0889   50.3396 H   0  0  0  0  0  0  0  0  0  0  0  0
   59.9895   34.7479   52.6299 H   0  0  0  0  0  0  0  0  0  0  0  0
   61.1242   33.3509   54.3538 H   0  0  0  0  0  0  0  0  0  0  0  0
   62.2370   31.2277   53.6901 H   0  0  0  0  0  0  0  0  0  0  0  0
   63.2187   30.0389   52.0367 H   0  0  0  0  0  0  0  0  0  0  0  0
   62.0542   29.3639   50.8441 H   0  0  0  0  0  0  0  0  0  0  0  0
   62.7490   31.5160   49.5520 H   0  0  0  0  0  0  0  0  0  0  0  0
   64.2845   31.9413   51.6343 H   0  0  0  0  0  0  0  0  0  0  0  0
   65.3853   30.9472   50.6140 H   0  0  0  0  0  0  0  0  0  0  0  0
   64.3209   33.7048   50.1795 H   0  0  0  0  0  0  0  0  0  0  0  0
   65.8639   32.9288   49.6227 H   0  0  0  0  0  0  0  0  0  0  0  0
   64.8485   33.1252   47.5789 H   0  0  0  0  0  0  0  0  0  0  0  0
   64.1170   31.5612   48.0851 H   0  0  0  0  0  0  0  0  0  0  0  0
   62.7535   34.0082   50.2098 H   0  0  0  0  0  0  0  0  0  0  0  0
   63.5330   35.0867   49.0033 H   0  0  0  0  0  0  0  0  0  0  0  0
   61.7486   34.8806   49.0033 H   0  0  0  0  0  0  0  0  0  0  0  0
   61.8400   34.5363   46.9137 H   0  0  0  0  0  0  0  0  0  0  0  0
   63.4367   33.9411   46.3452 H   0  0  0  0  0  0  0  0  0  0  0  0
   62.0162   32.8415   46.3452 H   0  0  0  0  0  0  0  0  0  0  0  0
  1  2  1  0
  2  3  1  0
  3  4  1  0
  4  5  1  0
  3  6  1  0
  6  7  1  0
  7  8  1  0
  8  9  1  0
  9 10  2  0
 10 11  1  0
 11 12  2  0
 12 13  1  0
 13 14  2  0
 14 15  1  0
 15 16  2  0
 16 17  1  0
 16 18  1  0
 18 19  2  0
 19 20  1  0
 20 21  2  0
 21 22  1  0
 22 23  2  0
 23 24  1  0
 24 25  2  0
 25 26  1  0
 26 27  1  0
 27 28  1  0
 28 29  1  0
 29 30  1  0
 30 31  1  0
 31 32  1  0
 32 33  1  0
 32 34  1  0
 26 35  2  0
 19  9  1  0
 35 22  1  0
 15 10  1  0
 35 18  1  0
  1 36  1  0
  1 37  1  0
  1 38  1  0
  2 39  1  0
  2 40  1  0
  4 41  1  0
  4 42  1  0
  5 43  1  0
  5 44  1  0
  5 45  1  0
  6 46  1  0
  6 47  1  0
  7 48  1  0
  7 49  1  0
  8 50  1  0
  8 51  1  0
 11 52  1  0
 12 53  1  0
 13 54  1  0
 14 55  1  0
 17 56  1  0
 17 57  1  0
 17 58  1  0
 20 59  1  0
 21 60  1  0
 23 61  1  0
 24 62  1  0
 25 63  1  0
 27 64  1  0
 27 65  1  0
 28 66  1  0
 29 67  1  0
 29 68  1  0
 30 69  1  0
 30 70  1  0
 31 71  1  0
 31 72  1  0
 33 73  1  0
 33 74  1  0
 33 75  1  0
 34 76  1  0
 34 77  1  0
 34 78  1  0
M  CHG  2   8   1  16   1
M  END
>  <UniqueID>  (26) 
26

>  <SMILES>  (26) 
CCN(CC)CC[NH2+]c1c2ccccc2[n+](C)c2c1ccc1cccc(CNCCCN(C)C)c12

>  <Energy>  (26) 
129.44178301798732

>  <Genealogy>  (26) 
CCN(CC)CC[NH2+]c1c2ccccc2[n+](C)c2c1ccc1cccc(CNCCCN(C)C)c12 (protonated)
CCN(CC)CC[NH2+]c1c2ccccc2[n+](C)c2c1ccc1cccc(CNCCCN(C)C)c12 (3D coordinates assigned)
CCN(CC)CC[NH2+]c1c2ccccc2[n+](C)c2c1ccc1cccc(CNCCCN(C)C)c12 (optimized conformer: 129.44178301798732 kcal/mol)

>  <smiles>  (26) 
CCN(CC)CCNc1c2ccccc2[n+](C)c2c1ccc1cccc(CNCCCN(C)C)c12

>  <score_type>  (26) 
oracle

>  <origin>  (26) 
adg

>  <m_score__min__energy>  (26) 
-6.4699999999999998

>  <m_primary>  (26) 
energy

$$$$
26:0
     RDKit          3D

 51 53  0  0  0  0  0  0  0  0999 V2000
   56.2830   30.1070   43.3380 C   0  0  0  0  0  0  0  0  0  0  0  0
   57.3710   29.3710   44.0640 C   0  0  0  0  0  0  0  0  0  0  0  0
   57.7650   28.0970   43.6340 C   0  0  0  0  0  0  0  0  0  0  0  0
   58.7480   27.3910   44.3290 C   0  0  0  0  0  0  0  0  0  0  0  0
   59.3400   27.9370   45.4780 C   0  0  0  0  0  0  0  0  0  0  0  0
   60.4040   27.1630   46.2060 C   0  0  0  0  0  0  0  0  0  0  0  0
   58.9490   29.2230   45.9120 C   0  0  0  0  0  0  0  0  0  0  0  0
   59.5510   29.8260   47.0640 N   0  0  0  0  0  0  0  0  0  0  0  0
   58.9580   29.6410   48.3870 C   0  0  0  0  0  0  0  0  0  0  0  0
   59.1220   30.9360   49.1850 C   0  0  0  0  0  0  0  0  0  0  0  0
   60.5390   31.3690   49.3030 N   0  0  0  0  0  0  0  0  0  0  0  0
   60.6420   32.8410   49.3640 C   0  0  0  0  0  0  0  0  0  0  0  0
   60.6360   33.4290   47.9790 C   0  0  0  0  0  0  0  0  0  0  0  0
   61.7340   33.7990   47.2200 C   0  0  0  0  0  0  0  0  0  0  0  0
   63.1690   33.6610   47.6080 C   0  0  0  0  0  0  0  0  0  0  0  0
   61.3250   34.2220   46.0070 N   0  0  0  0  0  0  0  0  0  0  0  0
   60.0020   34.1540   45.9830 N   0  0  0  0  0  0  0  0  0  0  0  0
   59.2030   34.5180   44.8170 C   0  0  0  0  0  0  0  0  0  0  0  0
   59.5460   33.6830   47.1650 C   0  0  0  0  0  0  0  0  0  0  0  0
   58.1080   33.4100   47.4980 C   0  0  0  0  0  0  0  0  0  0  0  0
   61.4620   30.7830   48.2950 C   0  0  0  0  0  0  0  0  0  0  0  0
   60.8030   30.5720   46.9240 C   0  0  0  0  0  0  0  0  0  0  0  0
   57.9560   29.9230   45.2120 C   0  0  0  0  0  0  0  0  0  0  0  0
   55.6017   30.5679   44.0683 H   0  0  0  0  0  0  0  0  0  0  0  0
   56.7282   30.8902   42.7068 H   0  0  0  0  0  0  0  0  0  0  0  0
   55.7217   29.4023   42.7068 H   0  0  0  0  0  0  0  0  0  0  0  0
   57.2971   27.6510   42.7440 H   0  0  0  0  0  0  0  0  0  0  0  0
   59.0612   26.3984   43.9731 H   0  0  0  0  0  0  0  0  0  0  0  0
   60.2574   27.2696   47.2910 H   0  0  0  0  0  0  0  0  0  0  0  0
   60.3381   26.1003   45.9298 H   0  0  0  0  0  0  0  0  0  0  0  0
   61.3948   27.5529   45.9298 H   0  0  0  0  0  0  0  0  0  0  0  0
   57.8890   29.4033   48.2833 H   0  0  0  0  0  0  0  0  0  0  0  0
   59.4598   28.8133   48.9096 H   0  0  0  0  0  0  0  0  0  0  0  0
   58.5528   31.7320   48.6826 H   0  0  0  0  0  0  0  0  0  0  0  0
   58.7500   30.7453   50.2025 H   0  0  0  0  0  0  0  0  0  0  0  0
   59.7876   33.2402   49.9302 H   0  0  0  0  0  0  0  0  0  0  0  0
   61.5860   33.1107   49.8602 H   0  0  0  0  0  0  0  0  0  0  0  0
   63.2531   33.6529   48.7047 H   0  0  0  0  0  0  0  0  0  0  0  0
   63.5696   32.7202   47.2026 H   0  0  0  0  0  0  0  0  0  0  0  0
   63.7416   34.5082   47.2026 H   0  0  0  0  0  0  0  0  0  0  0  0
   58.2484   34.9529   45.1479 H   0  0  0  0  0  0  0  0  0  0  0  0
   59.7516   35.2550   44.2122 H   0  0  0  0  0  0  0  0  0  0  0  0
   59.0069   33.6204   44.2122 H   0  0  0  0  0  0  0  0  0  0  0  0
   57.9828   33.3862   48.5906 H   0  0  0  0  0  0  0  0  0  0  0  0
   57.4762   34.2042   47.0737 H   0  0  0  0  0  0  0  0  0  0  0  0
   57.8112   32.4395   47.0737 H   0  0  0  0  0  0  0  0  0  0  0  0
   62.3197   31.4604   48.1704 H   0  0  0  0  0  0  0  0  0  0  0  0
   61.7681   29.7941   48.6670 H   0  0  0  0  0  0  0  0  0  0  0  0
   60.5916   31.5513   46.4698 H   0  0  0  0  0  0  0  0  0  0  0  0
   61.4893   29.9968   46.2851 H   0  0  0  0  0  0  0  0  0  0  0  0
   57.6335   30.9131   45.5665 H   0  0  0  0  0  0  0  0  0  0  0  0
  1  2  1  0
  2  3  2  0
  3  4  1  0
  4  5  2  0
  5  6  1  0
  5  7  1  0
  7  8  1  0
  8  9  1  0
  9 10  1  0
 10 11  1  0
 11 12  1  0
 12 13  1  0
 13 14  1  0
 14 15  1  0
 14 16  2  0
 16 17  1  0
 17 18  1  0
 17 19  1  0
 19 20  1  0
 11 21  1  0
 21 22  1  0
  7 23  2  0
 23  2  1  0
 22  8  1  0
 19 13  2  0
  1 24  1  0
  1 25  1  0
  1 26  1  0
  3 27  1  0
  4 28  1  0
  6 29  1  0
  6 30  1  0
  6 31  1  0
  9 32  1  0
  9 33  1  0
 10 34  1  0
 10 35  1  0
 12 36  1  0
 12 37  1  0
 15 38  1  0
 15 39  1  0
 15 40  1  0
 18 41  1  0
 18 42  1  0
 18 43  1  0
 20 44  1  0
 20 45  1  0
 20 46  1  0
 21 47  1  0
 21 48  1  0
 22 49  1  0
 22 50  1  0
 23 51  1  0
M  END
>  <UniqueID>  (27) 
27

>  <SMILES>  (27) 
Cc1ccc(C)c(N2CCN(Cc3c(C)nn(C)c3C)CC2)c1

>  <Energy>  (27) 
89.82757074676634

>  <Genealogy>  (27) 
Cc1ccc(C)c(N2CCN(Cc3c(C)nn(C)c3C)CC2)c1 (3D coordinates assigned)
Cc1ccc(C)c(N2CCN(Cc3c(C)nn(C)c3C)CC2)c1 (nonaromatic ring conformer: 89.82757074676634 kcal/mol)

>  <smiles>  (27) 
Cc1ccc(C)c(N2CCN(Cc3c(C)nn(C)c3C)CC2)c1

>  <score_type>  (27) 
oracle

>  <origin>  (27) 
adg

>  <m_score__min__energy>  (27) 
-7.4000000000000004

>  <m_primary>  (27) 
energy

$$$$
27:0
     RDKit          3D

 73 76  0  0  0  0  0  0  0  0999 V2000
   56.7100   25.4310   46.7370 C   0  0  0  0  0  0  0  0  0  0  0  0
   58.0290   26.1190   47.0930 C   0  0  0  0  0  0  0  0  0  0  0  0
   58.4650   27.0640   46.0410 N   0  0  0  0  0  0  0  0  0  0  0  0
   58.1840   26.5170   44.7030 C   0  0  0  0  0  0  0  0  0  0  0  0
   59.8660   27.5380   46.1670 C   0  0  0  0  0  0  0  0  0  0  0  0
   60.0270   28.8820   46.9120 C   0  0  0  0  0  0  0  0  0  0  0  0
   58.7150   29.4090   47.3190 N   0  0  0  0  0  0  0  0  0  0  0  0
   58.4690   30.7060   46.7060 C   0  0  0  0  0  0  0  0  0  0  0  0
   57.9190   30.7970   45.4010 C   0  0  0  0  0  0  0  0  0  0  0  0
   57.4460   29.6540   44.7100 C   0  0  0  0  0  0  0  0  0  0  0  0
   56.9990   29.7410   43.3950 C   0  0  0  0  0  0  0  0  0  0  0  0
   57.0180   30.9600   42.7330 C   0  0  0  0  0  0  0  0  0  0  0  0
   57.4300   32.1090   43.4010 C   0  0  0  0  0  0  0  0  0  0  0  0
   57.8320   32.0670   44.7620 C   0  0  0  0  0  0  0  0  0  0  0  0
   58.1470   33.2210   45.4540 N   0  0  0  0  0  0  0  0  0  0  0  0
   57.7840   34.5410   44.8890 C   0  0  0  0  0  0  0  0  0  0  0  0
   58.7420   33.1470   46.6970 C   0  0  0  0  0  0  0  0  0  0  0  0
   59.2920   34.2960   47.3210 C   0  0  0  0  0  0  0  0  0  0  0  0
   59.7940   34.2440   48.6180 C   0  0  0  0  0  0  0  0  0  0  0  0
   59.7560   33.0580   49.3420 C   0  0  0  0  0  0  0  0  0  0  0  0
   60.2310   33.0630   50.6620 O   0  0  0  0  0  0  0  0  0  0  0  0
   61.3640   33.8050   51.1190 C   0  0  0  0  0  0  0  0  0  0  0  0
   62.6300   32.9150   51.1750 C   0  0  0  0  0  0  0  0  0  0  0  0
   63.5680   32.9830   50.0010 N   0  0  0  0  0  0  0  0  0  0  0  0
   64.9370   33.3430   50.4610 C   0  0  0  0  0  0  0  0  0  0  0  0
   63.6360   31.6700   49.2740 C   0  0  0  0  0  0  0  0  0  0  0  0
   62.5500   31.5250   48.1970 C   0  0  0  0  0  0  0  0  0  0  0  0
   62.7300   32.5840   47.0970 C   0  0  0  0  0  0  0  0  0  0  0  0
   63.4080   33.8630   47.6190 C   0  0  0  0  0  0  0  0  0  0  0  0
   63.0750   34.0890   49.1040 C   0  0  0  0  0  0  0  0  0  0  0  0
   59.2980   31.8910   48.7170 C   0  0  0  0  0  0  0  0  0  0  0  0
   58.8360   31.9030   47.3770 C   0  0  0  0  0  0  0  0  0  0  0  0
   56.1798   25.1545   47.6603 H   0  0  0  0  0  0  0  0  0  0  0  0
   56.0855   26.1182   46.1474 H   0  0  0  0  0  0  0  0  0  0  0  0
   56.9162   24.5256   46.1474 H   0  0  0  0  0  0  0  0  0  0  0  0
   57.8977   26.6723   48.0346 H   0  0  0  0  0  0  0  0  0  0  0  0
   58.8010   25.3416   47.1914 H   0  0  0  0  0  0  0  0  0  0  0  0
   57.6834   25.5426   44.8029 H   0  0  0  0  0  0  0  0  0  0  0  0
   57.5304   27.2103   44.1533 H   0  0  0  0  0  0  0  0  0  0  0  0
   59.1282   26.3895   44.1533 H   0  0  0  0  0  0  0  0  0  0  0  0
   60.4390   26.7732   46.7117 H   0  0  0  0  0  0  0  0  0  0  0  0
   60.2317   27.7041   45.1429 H   0  0  0  0  0  0  0  0  0  0  0  0
   60.6478   28.7272   47.8068 H   0  0  0  0  0  0  0  0  0  0  0  0
   60.5062   29.6064   46.2370 H   0  0  0  0  0  0  0  0  0  0  0  0
   57.9550   28.7330   47.0820 H   0  0  0  0  0  0  0  0  0  0  0  0
   58.6540   29.4640   48.3610 H   0  0  0  0  0  0  0  0  0  0  0  0
   57.4319   28.6806   45.2221 H   0  0  0  0  0  0  0  0  0  0  0  0
   56.6301   28.8419   42.8797 H   0  0  0  0  0  0  0  0  0  0  0  0
   56.7072   31.0183   41.6794 H   0  0  0  0  0  0  0  0  0  0  0  0
   57.4445   33.0689   42.8640 H   0  0  0  0  0  0  0  0  0  0  0  0
   57.5892   35.2493   45.7078 H   0  0  0  0  0  0  0  0  0  0  0  0
   58.6126   34.9152   44.2698 H   0  0  0  0  0  0  0  0  0  0  0  0
   56.8806   34.4389   44.2698 H   0  0  0  0  0  0  0  0  0  0  0  0
   59.3223   35.2469   46.7689 H   0  0  0  0  0  0  0  0  0  0  0  0
   60.2240   35.1482   49.0736 H   0  0  0  0  0  0  0  0  0  0  0  0
   61.5451   34.6438   50.4308 H   0  0  0  0  0  0  0  0  0  0  0  0
   61.1526   34.1746   52.1333 H   0  0  0  0  0  0  0  0  0  0  0  0
   63.1990   33.2042   52.0709 H   0  0  0  0  0  0  0  0  0  0  0  0
   62.2518   31.8821   51.1775 H   0  0  0  0  0  0  0  0  0  0  0  0
   64.9643   33.3502   51.5606 H   0  0  0  0  0  0  0  0  0  0  0  0
   65.6577   32.6038   50.0812 H   0  0  0  0  0  0  0  0  0  0  0  0
   65.2008   34.3411   50.0812 H   0  0  0  0  0  0  0  0  0  0  0  0
   64.6213   31.5864   48.7922 H   0  0  0  0  0  0  0  0  0  0  0  0
   63.4735   30.8738   50.0154 H   0  0  0  0  0  0  0  0  0  0  0  0
   62.6182   30.5231   47.7481 H   0  0  0  0  0  0  0  0  0  0  0  0
   61.5654   31.6669   48.6665 H   0  0  0  0  0  0  0  0  0  0  0  0
   63.3500   32.1579   46.2945 H   0  0  0  0  0  0  0  0  0  0  0  0
   61.7302   32.8601   46.7306 H   0  0  0  0  0  0  0  0  0  0  0  0
   64.4977   33.7664   47.5041 H   0  0  0  0  0  0  0  0  0  0  0  0
   63.0372   34.7211   47.0393 H   0  0  0  0  0  0  0  0  0  0  0  0
   63.5393   35.0328   49.4261 H   0  0  0  0  0  0  0  0  0  0  0  0
   61.9788   34.1149   49.1915 H   0  0  0  0  0  0  0  0  0  0  0  0
   59.2969   30.9449   49.2782 H   0  0  0  0  0  0  0  0  0  0  0  0
  1  2  1  0
  2  3  1  0
  3  4  1  0
  3  5  1  0
  5  6  1  0
  6  7  1  0
  7  8  1  0
  8  9  2  0
  9 10  1  0
 10 11  2  0
 11 12  1  0
 12 13  2  0
 13 14  1  0
 14 15  2  0
 15 16  1  0
 15 17  1  0
 17 18  2  0
 18 19  1  0
 19 20  2  0
 20 21  1  0
 21 22  1  0
 22 23  1  0
 23 24  1  0
 24 25  1  0
 24 26  1  0
 26 27  1  0
 27 28  1  0
 28 29  1  0
 29 30  1  0
 20 31  1  0
 31 32  2  0
 32  8  1  0
 14  9  1  0
 32 17  1  0
 30 24  1  0
  1 33  1  0
  1 34  1  0
  1 35  1  0
  2 36  1  0
  2 37  1  0
  4 38  1  0
  4 39  1  0
  4 40  1  0
  5 41  1  0
  5 42  1  0
  6 43  1  0
  6 44  1  0
  7 45  1  0
  7 46  1  0
 10 47  1  0
 11 48  1  0
 12 49  1  0
 13 50  1  0
 16 51  1  0
 16 52  1  0
 16 53  1  0
 18 54  1  0
 19 55  1  0
 22 56  1  0
 22 57  1  0
 23 58  1  0
 23 59  1  0
 25 60  1  0
 25 61  1  0
 25 62  1  0
 26 63  1  0
 26 64  1  0
 27 65  1  0
 27 66  1  0
 28 67  1  0
 28 68  1  0
 29 69  1  0
 29 70  1  0
 30 71  1  0
 30 72  1  0
 31 73  1  0
M  CHG  3   7   1  15   1  24   1
M  END
>  <UniqueID>  (28) 
28

>  <SMILES>  (28) 
CCN(C)CC[NH2+]c1c2ccccc2[n+](C)c2ccc(OCC[N+]3(C)CCCCC3)cc12

>  <Energy>  (28) 
125.00917774657475

>  <Genealogy>  (28) 
CCN(C)CC[NH2+]c1c2ccccc2[n+](C)c2ccc(OCC[N+]3(C)CCCCC3)cc12 (protonated)
CCN(C)CC[NH2+]c1c2ccccc2[n+](C)c2ccc(OCC[N+]3(C)CCCCC3)cc12 (3D coordinates assigned)
CCN(C)CC[NH2+]c1c2ccccc2[n+](C)c2ccc(OCC[N+]3(C)CCCCC3)cc12 (nonaromatic ring conformer: 125.00917774657475 kcal/mol)

>  <smiles>  (28) 
CCN(C)CCNc1c2ccccc2[n+](C)c2ccc(OCC[N+]3(C)CCCCC3)cc12

>  <score_type>  (28) 
oracle

>  <origin>  (28) 
adg

>  <m_score__min__energy>  (28) 
-4.0099999999999998

>  <m_primary>  (28) 
energy

$$$$
28:0
     RDKit          3D

 87 89  0  0  0  0  0  0  0  0999 V2000
   63.3490   32.6470   47.4380 C   0  0  0  0  0  0  0  0  0  0  0  0
   62.2840   31.5480   47.3430 C   0  0  0  0  0  0  0  0  0  0  0  0
   61.7340   31.1170   48.6500 N   0  0  0  0  0  0  0  0  0  0  0  0
   62.7430   30.9530   49.7250 C   0  0  0  0  0  0  0  0  0  0  0  0
   62.2400   30.1830   50.9600 C   0  0  0  0  0  0  0  0  0  0  0  0
   60.6930   30.0660   48.5900 C   0  0  0  0  0  0  0  0  0  0  0  0
   59.9560   30.0900   47.2490 C   0  0  0  0  0  0  0  0  0  0  0  0
   59.0530   31.1760   47.2330 O   0  0  0  0  0  0  0  0  0  0  0  0
   58.1340   31.0200   46.1760 C   0  0  0  0  0  0  0  0  0  0  0  0
   58.3520   32.1230   45.1360 C   0  0  0  0  0  0  0  0  0  0  0  0
   57.6320   33.4330   45.4980 C   0  0  0  0  0  0  0  0  0  0  0  0
   57.8420   33.7670   46.9200 N   0  0  0  0  0  0  0  0  0  0  0  0
   58.8800   34.7970   47.1160 C   0  0  0  0  0  0  0  0  0  0  0  0
   59.6550   34.5830   48.4310 C   0  0  0  0  0  0  0  0  0  0  0  0
   59.6490   33.1790   48.8910 N   0  0  0  0  0  0  0  0  0  0  0  0
   59.9270   33.0680   50.3200 C   0  0  0  0  0  0  0  0  0  0  0  0
   58.9670   32.4790   51.1900 C   0  0  0  0  0  0  0  0  0  0  0  0
   57.7300   31.9750   50.7090 C   0  0  0  0  0  0  0  0  0  0  0  0
   56.8390   31.3210   51.5540 C   0  0  0  0  0  0  0  0  0  0  0  0
   57.1530   31.1440   52.8920 C   0  0  0  0  0  0  0  0  0  0  0  0
   58.3370   31.6630   53.4050 C   0  0  0  0  0  0  0  0  0  0  0  0
   59.2400   32.3870   52.5830 C   0  0  0  0  0  0  0  0  0  0  0  0
   60.3620   32.9890   53.1130 N   0  0  0  0  0  0  0  0  0  0  0  0
   60.4640   33.2040   54.5740 C   0  0  0  0  0  0  0  0  0  0  0  0
   61.3700   33.4370   52.2820 C   0  0  0  0  0  0  0  0  0  0  0  0
   62.6270   33.8290   52.8090 C   0  0  0  0  0  0  0  0  0  0  0  0
   63.6240   34.3770   52.0050 C   0  0  0  0  0  0  0  0  0  0  0  0
   64.8170   34.7950   52.6190 O   0  0  0  0  0  0  0  0  0  0  0  0
   65.9380   33.9600   52.9040 C   0  0  0  0  0  0  0  0  0  0  0  0
   65.7780   32.5920   52.2040 C   0  0  0  0  0  0  0  0  0  0  0  0
   66.6260   32.3990   50.9870 N   0  0  0  0  0  0  0  0  0  0  0  0
   67.8550   33.2260   51.0460 C   0  0  0  0  0  0  0  0  0  0  0  0
   65.8670   32.7180   49.7540 C   0  0  0  0  0  0  0  0  0  0  0  0
   67.0260   30.9720   50.9310 C   0  0  0  0  0  0  0  0  0  0  0  0
   63.3970   34.5000   50.6340 C   0  0  0  0  0  0  0  0  0  0  0  0
   62.2020   34.0630   50.0750 C   0  0  0  0  0  0  0  0  0  0  0  0
   61.1640   33.5170   50.8750 C   0  0  0  0  0  0  0  0  0  0  0  0
   63.5590   32.8637   48.4958 H   0  0  0  0  0  0  0  0  0  0  0  0
   64.2710   32.3079   46.9432 H   0  0  0  0  0  0  0  0  0  0  0  0
   62.9811   33.5579   46.9432 H   0  0  0  0  0  0  0  0  0  0  0  0
   61.4540   31.9249   46.7274 H   0  0  0  0  0  0  0  0  0  0  0  0
   62.7773   30.6685   46.9034 H   0  0  0  0  0  0  0  0  0  0  0  0
   63.6039   30.4096   49.3083 H   0  0  0  0  0  0  0  0  0  0  0  0
   62.9999   31.9653   50.0704 H   0  0  0  0  0  0  0  0  0  0  0  0
   62.5751   30.6960   51.8735 H   0  0  0  0  0  0  0  0  0  0  0  0
   61.1409   30.1427   50.9444 H   0  0  0  0  0  0  0  0  0  0  0  0
   62.6447   29.1603   50.9444 H   0  0  0  0  0  0  0  0  0  0  0  0
   61.1685   29.0827   48.7201 H   0  0  0  0  0  0  0  0  0  0  0  0
   59.9630   30.2540   49.3911 H   0  0  0  0  0  0  0  0  0  0  0  0
   60.6833   30.2046   46.4318 H   0  0  0  0  0  0  0  0  0  0  0  0
   59.4031   29.1485   47.1150 H   0  0  0  0  0  0  0  0  0  0  0  0
   58.2828   30.0377   45.7039 H   0  0  0  0  0  0  0  0  0  0  0  0
   57.1095   31.0885   46.5707 H   0  0  0  0  0  0  0  0  0  0  0  0
   59.4306   32.3245   45.0580 H   0  0  0  0  0  0  0  0  0  0  0  0
   57.9338   31.7673   44.1828 H   0  0  0  0  0  0  0  0  0  0  0  0
   58.0279   34.2473   44.8734 H   0  0  0  0  0  0  0  0  0  0  0  0
   56.5541   33.3054   45.3198 H   0  0  0  0  0  0  0  0  0  0  0  0
   58.1240   32.8910   47.4170 H   0  0  0  0  0  0  0  0  0  0  0  0
   59.5873   34.7549   46.2746 H   0  0  0  0  0  0  0  0  0  0  0  0
   58.3844   35.7778   47.1660 H   0  0  0  0  0  0  0  0  0  0  0  0
   60.6983   34.8952   48.2762 H   0  0  0  0  0  0  0  0  0  0  0  0
   59.1538   35.1818   49.2057 H   0  0  0  0  0  0  0  0  0  0  0  0
   58.7200   32.7540   48.6790 H   0  0  0  0  0  0  0  0  0  0  0  0
   60.2700   32.5900   48.3050 H   0  0  0  0  0  0  0  0  0  0  0  0
   57.4710   32.1041   49.6477 H   0  0  0  0  0  0  0  0  0  0  0  0
   55.8840   30.9439   51.1594 H   0  0  0  0  0  0  0  0  0  0  0  0
   56.4649   30.5922   53.5493 H   0  0  0  0  0  0  0  0  0  0  0  0
   58.5782   31.5097   54.4672 H   0  0  0  0  0  0  0  0  0  0  0  0
   60.0505   32.3325   55.1026 H   0  0  0  0  0  0  0  0  0  0  0  0
   61.5201   33.3347   54.8525 H   0  0  0  0  0  0  0  0  0  0  0  0
   59.8972   34.1046   54.8525 H   0  0  0  0  0  0  0  0  0  0  0  0
   62.8203   33.6965   53.8837 H   0  0  0  0  0  0  0  0  0  0  0  0
   66.8553   34.4478   52.5425 H   0  0  0  0  0  0  0  0  0  0  0  0
   65.9994   33.8013   53.9908 H   0  0  0  0  0  0  0  0  0  0  0  0
   66.0377   31.8061   52.9285 H   0  0  0  0  0  0  0  0  0  0  0  0
   64.7340   32.5437   51.8608 H   0  0  0  0  0  0  0  0  0  0  0  0
   68.1247   33.4075   52.0969 H   0  0  0  0  0  0  0  0  0  0  0  0
   68.6775   32.6969   50.5425 H   0  0  0  0  0  0  0  0  0  0  0  0
   67.6747   34.1872   50.5425 H   0  0  0  0  0  0  0  0  0  0  0  0
   64.8842   33.1311   50.0250 H   0  0  0  0  0  0  0  0  0  0  0  0
   66.4248   33.4578   49.1611 H   0  0  0  0  0  0  0  0  0  0  0  0
   65.7288   31.8018   49.1611 H   0  0  0  0  0  0  0  0  0  0  0  0
   67.1355   30.5815   51.9535 H   0  0  0  0  0  0  0  0  0  0  0  0
   66.2548   30.3956   50.3990 H   0  0  0  0  0  0  0  0  0  0  0  0
   67.9844   30.8805   50.3990 H   0  0  0  0  0  0  0  0  0  0  0  0
   64.1696   34.9462   49.9906 H   0  0  0  0  0  0  0  0  0  0  0  0
   62.0570   34.1420   48.9875 H   0  0  0  0  0  0  0  0  0  0  0  0
  1  2  1  0
  2  3  1  0
  3  4  1  0
  4  5  1  0
  3  6  1  0
  6  7  1  0
  7  8  1  0
  8  9  1  0
  9 10  1  0
 10 11  1  0
 11 12  1  0
 12 13  1  0
 13 14  1  0
 14 15  1  0
 15 16  1  0
 16 17  2  0
 17 18  1  0
 18 19  2  0
 19 20  1  0
 20 21  2  0
 21 22  1  0
 22 23  2  0
 23 24  1  0
 23 25  1  0
 25 26  2  0
 26 27  1  0
 27 28  1  0
 28 29  1  0
 29 30  1  0
 30 31  1  0
 31 32  1  0
 31 33  1  0
 31 34  1  0
 27 35  2  0
 35 36  1  0
 36 37  2  0
 37 16  1  0
 22 17  1  0
 37 25  1  0
  1 38  1  0
  1 39  1  0
  1 40  1  0
  2 41  1  0
  2 42  1  0
  4 43  1  0
  4 44  1  0
  5 45  1  0
  5 46  1  0
  5 47  1  0
  6 48  1  0
  6 49  1  0
  7 50  1  0
  7 51  1  0
  9 52  1  0
  9 53  1  0
 10 54  1  0
 10 55  1  0
 11 56  1  0
 11 57  1  0
 12 58  1  0
 13 59  1  0
 13 60  1  0
 14 61  1  0
 14 62  1  0
 15 63  1  0
 15 64  1  0
 18 65  1  0
 19 66  1  0
 20 67  1  0
 21 68  1  0
 24 69  1  0
 24 70  1  0
 24 71  1  0
 26 72  1  0
 29 73  1  0
 29 74  1  0
 30 75  1  0
 30 76  1  0
 32 77  1  0
 32 78  1  0
 32 79  1  0
 33 80  1  0
 33 81  1  0
 33 82  1  0
 34 83  1  0
 34 84  1  0
 34 85  1  0
 35 86  1  0
 36 87  1  0
M  CHG  3  15   1  23   1  31   1
M  END
>  <UniqueID>  (29) 
29

>  <SMILES>  (29) 
CCN(CC)CCOCCCNCC[NH2+]c1c2ccccc2[n+](C)c2cc(OCC[N+](C)(C)C)ccc12

>  <Energy>  (29) 
127.39823842343388

>  <Genealogy>  (29) 
CCN(CC)CCOCCCNCC[NH2+]c1c2ccccc2[n+](C)c2cc(OCC[N+](C)(C)C)ccc12 (protonated)
CCN(CC)CCOCCCNCC[NH2+]c1c2ccccc2[n+](C)c2cc(OCC[N+](C)(C)C)ccc12 (3D coordinates assigned)
CCN(CC)CCOCCCNCC[NH2+]c1c2ccccc2[n+](C)c2cc(OCC[N+](C)(C)C)ccc12 (optimized conformer: 127.39823842343388 kcal/mol)

>  <smiles>  (29) 
CCN(CC)CCOCCCNCCNc1c2ccccc2[n+](C)c2cc(OCC[N+](C)(C)C)ccc12

>  <score_type>  (29) 
oracle

>  <origin>  (29) 
adg

>  <m_score__min__energy>  (29) 
-3.6200000000000001

>  <m_primary>  (29) 
energy

$$$$
29:0
     RDKit          3D

 64 66  0  0  0  0  0  0  0  0999 V2000
   60.0420   29.2170   49.1190 C   0  0  0  0  0  0  0  0  0  0  0  0
   58.9990   29.3480   48.0120 C   0  0  0  0  0  0  0  0  0  0  0  0
   59.6010   29.9830   46.8150 N   0  0  0  0  0  0  0  0  0  0  0  0
   61.0730   30.0210   46.9380 C   0  0  0  0  0  0  0  0  0  0  0  0
   59.2190   29.2660   45.5770 C   0  0  0  0  0  0  0  0  0  0  0  0
   57.7180   29.4320   45.2950 C   0  0  0  0  0  0  0  0  0  0  0  0
   57.3500   30.7920   45.4320 O   0  0  0  0  0  0  0  0  0  0  0  0
   57.0050   31.3570   44.1810 C   0  0  0  0  0  0  0  0  0  0  0  0
   58.0960   32.3300   43.7520 C   0  0  0  0  0  0  0  0  0  0  0  0
   58.7330   32.8670   44.8960 O   0  0  0  0  0  0  0  0  0  0  0  0
   57.9700   33.9300   45.4380 C   0  0  0  0  0  0  0  0  0  0  0  0
   57.8970   33.8330   46.9640 C   0  0  0  0  0  0  0  0  0  0  0  0
   58.6470   32.6700   47.4530 N   0  0  0  0  0  0  0  0  0  0  0  0
   59.6550   32.8050   48.4730 C   0  0  0  0  0  0  0  0  0  0  0  0
   60.9750   33.1360   48.1140 C   0  0  0  0  0  0  0  0  0  0  0  0
   61.9470   33.3300   49.1320 C   0  0  0  0  0  0  0  0  0  0  0  0
   61.5720   33.2850   50.4640 N   0  0  0  0  0  0  0  0  0  0  0  0
   62.5260   33.7150   51.5140 C   0  0  0  0  0  0  0  0  0  0  0  0
   60.3230   32.8100   50.8210 C   0  0  0  0  0  0  0  0  0  0  0  0
   59.9890   32.5280   52.1720 C   0  0  0  0  0  0  0  0  0  0  0  0
   58.7210   32.0630   52.5210 C   0  0  0  0  0  0  0  0  0  0  0  0
   57.7630   31.8370   51.5380 C   0  0  0  0  0  0  0  0  0  0  0  0
   56.1750   31.2380   51.9890 Cl  0  0  0  0  0  0  0  0  0  0  0  0
   58.0720   32.0700   50.1990 C   0  0  0  0  0  0  0  0  0  0  0  0
   59.3400   32.5720   49.8250 C   0  0  0  0  0  0  0  0  0  0  0  0
   63.3820   33.6730   48.7460 C   0  0  0  0  0  0  0  0  0  0  0  0
   63.7410   33.2830   47.3120 C   0  0  0  0  0  0  0  0  0  0  0  0
   62.6980   33.8420   46.3590 C   0  0  0  0  0  0  0  0  0  0  0  0
   61.3430   33.1980   46.6380 C   0  0  0  0  0  0  0  0  0  0  0  0
   59.5463   29.2793   50.0990 H   0  0  0  0  0  0  0  0  0  0  0  0
   60.5537   28.2475   49.0278 H   0  0  0  0  0  0  0  0  0  0  0  0
   60.7775   30.0298   49.0278 H   0  0  0  0  0  0  0  0  0  0  0  0
   58.6256   28.3486   47.7443 H   0  0  0  0  0  0  0  0  0  0  0  0
   58.1695   29.9743   48.3722 H   0  0  0  0  0  0  0  0  0  0  0  0
   61.3520   30.0282   48.0020 H   0  0  0  0  0  0  0  0  0  0  0  0
   61.5046   29.1337   46.4518 H   0  0  0  0  0  0  0  0  0  0  0  0
   61.4582   30.9294   46.4518 H   0  0  0  0  0  0  0  0  0  0  0  0
   59.7926   29.6740   44.7317 H   0  0  0  0  0  0  0  0  0  0  0  0
   59.4386   28.1959   45.7058 H   0  0  0  0  0  0  0  0  0  0  0  0
   57.5000   29.0965   44.2703 H   0  0  0  0  0  0  0  0  0  0  0  0
   57.1453   28.8275   46.0137 H   0  0  0  0  0  0  0  0  0  0  0  0
   56.9087   30.5583   43.4308 H   0  0  0  0  0  0  0  0  0  0  0  0
   56.0474   31.8912   44.2686 H   0  0  0  0  0  0  0  0  0  0  0  0
   58.8371   31.7998   43.1358 H   0  0  0  0  0  0  0  0  0  0  0  0
   57.6466   33.1468   43.1681 H   0  0  0  0  0  0  0  0  0  0  0  0
   58.4379   34.8861   45.1607 H   0  0  0  0  0  0  0  0  0  0  0  0
   56.9485   33.8684   45.0345 H   0  0  0  0  0  0  0  0  0  0  0  0
   58.3234   34.7468   47.4035 H   0  0  0  0  0  0  0  0  0  0  0  0
   56.8431   33.7197   47.2582 H   0  0  0  0  0  0  0  0  0  0  0  0
   58.6510   31.8160   46.8500 H   0  0  0  0  0  0  0  0  0  0  0  0
   62.0923   33.5195   52.5058 H   0  0  0  0  0  0  0  0  0  0  0  0
   63.4659   33.1535   51.4077 H   0  0  0  0  0  0  0  0  0  0  0  0
   62.7278   34.7911   51.4077 H   0  0  0  0  0  0  0  0  0  0  0  0
   60.7439   32.6790   52.9577 H   0  0  0  0  0  0  0  0  0  0  0  0
   58.4778   31.8744   53.5771 H   0  0  0  0  0  0  0  0  0  0  0  0
   57.3203   31.8608   49.4237 H   0  0  0  0  0  0  0  0  0  0  0  0
   63.5216   34.7585   48.8563 H   0  0  0  0  0  0  0  0  0  0  0  0
   64.0412   33.0962   49.4114 H   0  0  0  0  0  0  0  0  0  0  0  0
   64.7288   33.6940   47.0566 H   0  0  0  0  0  0  0  0  0  0  0  0
   63.7666   32.1867   47.2256 H   0  0  0  0  0  0  0  0  0  0  0  0
   62.6208   34.9302   46.4999 H   0  0  0  0  0  0  0  0  0  0  0  0
   62.9978   33.6220   45.3237 H   0  0  0  0  0  0  0  0  0  0  0  0
   60.5701   33.7791   46.1136 H   0  0  0  0  0  0  0  0  0  0  0  0
   61.4075   32.1586   46.2838 H   0  0  0  0  0  0  0  0  0  0  0  0
  1  2  1  0
  2  3  1  0
  3  4  1  0
  3  5  1  0
  5  6  1  0
  6  7  1  0
  7  8  1  0
  8  9  1  0
  9 10  1  0
 10 11  1  0
 11 12  1  0
 12 13  1  0
 13 14  1  0
 14 15  2  0
 15 16  1  0
 16 17  2  0
 17 18  1  0
 17 19  1  0
 19 20  2  0
 20 21  1  0
 21 22  2  0
 22 23  1  0
 22 24  1  0
 24 25  2  0
 16 26  1  0
 26 27  1  0
 27 28  1  0
 28 29  1  0
 25 14  1  0
 29 15  1  0
 25 19  1  0
  1 30  1  0
  1 31  1  0
  1 32  1  0
  2 33  1  0
  2 34  1  0
  4 35  1  0
  4 36  1  0
  4 37  1  0
  5 38  1  0
  5 39  1  0
  6 40  1  0
  6 41  1  0
  8 42  1  0
  8 43  1  0
  9 44  1  0
  9 45  1  0
 11 46  1  0
 11 47  1  0
 12 48  1  0
 12 49  1  0
 13 50  1  0
 18 51  1  0
 18 52  1  0
 18 53  1  0
 20 54  1  0
 21 55  1  0
 24 56  1  0
 26 57  1  0
 26 58  1  0
 27 59  1  0
 27 60  1  0
 28 61  1  0
 28 62  1  0
 29 63  1  0
 29 64  1  0
M  CHG  1  17   1
M  END
>  <UniqueID>  (30) 
30

>  <SMILES>  (30) 
CCN(C)CCOCCOCCNc1c2c([n+](C)c3ccc(Cl)cc13)CCCC2

>  <Energy>  (30) 
83.22029415391202

>  <Genealogy>  (30) 
CCN(C)CCOCCOCCNc1c2c([n+](C)c3ccc(Cl)cc13)CCCC2 (3D coordinates assigned)
CCN(C)CCOCCOCCNc1c2c([n+](C)c3ccc(Cl)cc13)CCCC2 (nonaromatic ring conformer: 83.22029415391202 kcal/mol)

>  <smiles>  (30) 
CCN(C)CCOCCOCCNc1c2c([n+](C)c3ccc(Cl)cc13)CCCC2

>  <score_type>  (30) 
oracle

>  <origin>  (30) 
adg

>  <m_score__min__energy>  (30) 
-6.6299999999999999

>  <m_primary>  (30) 
energy

$$$$
30:0
     RDKit          3D

 75 77  0  0  0  0  0  0  0  0999 V2000
   60.5570   29.3340   50.9280 C   0  0  0  0  0  0  0  0  0  0  0  0
   59.1300   29.7810   51.2500 C   0  0  0  0  0  0  0  0  0  0  0  0
   58.9230   31.1970   50.8690 N   0  0  0  0  0  0  0  0  0  0  0  0
   57.4790   31.5570   50.8620 C   0  0  0  0  0  0  0  0  0  0  0  0
   56.9880   31.7420   52.2940 C   0  0  0  0  0  0  0  0  0  0  0  0
   59.7140   32.0880   51.7510 C   0  0  0  0  0  0  0  0  0  0  0  0
   60.0030   33.4360   51.0810 C   0  0  0  0  0  0  0  0  0  0  0  0
   61.1570   33.3020   50.2710 O   0  0  0  0  0  0  0  0  0  0  0  0
   62.2160   32.6650   50.9600 C   0  0  0  0  0  0  0  0  0  0  0  0
   63.3370   33.6630   51.2920 C   0  0  0  0  0  0  0  0  0  0  0  0
   63.8860   34.2180   50.1120 O   0  0  0  0  0  0  0  0  0  0  0  0
   64.1570   33.2040   49.1620 C   0  0  0  0  0  0  0  0  0  0  0  0
   63.7470   33.7040   47.7770 C   0  0  0  0  0  0  0  0  0  0  0  0
   62.7830   32.8470   47.1970 O   0  0  0  0  0  0  0  0  0  0  0  0
   63.0480   31.4770   47.4540 C   0  0  0  0  0  0  0  0  0  0  0  0
   61.8720   30.8320   48.2010 C   0  0  0  0  0  0  0  0  0  0  0  0
   60.7270   31.7440   48.3970 N   0  0  0  0  0  0  0  0  0  0  0  0
   59.8160   31.7530   47.2590 C   0  0  0  0  0  0  0  0  0  0  0  0
   59.1660   30.5670   46.7830 C   0  0  0  0  0  0  0  0  0  0  0  0
   58.5570   30.5970   45.4800 C   0  0  0  0  0  0  0  0  0  0  0  0
   58.3420   31.8010   44.8330 N   0  0  0  0  0  0  0  0  0  0  0  0
   57.6140   31.8710   43.5510 C   0  0  0  0  0  0  0  0  0  0  0  0
   58.8460   32.9420   45.3890 C   0  0  0  0  0  0  0  0  0  0  0  0
   58.7490   34.5160   44.7840 S   0  0  0  0  0  0  0  0  0  0  0  0
   59.6270   35.2300   46.0290 C   0  0  0  0  0  0  0  0  0  0  0  0
   60.0110   34.2420   46.9310 C   0  0  0  0  0  0  0  0  0  0  0  0
   59.5790   32.9500   46.5620 C   0  0  0  0  0  0  0  0  0  0  0  0
   58.1460   29.2920   44.8230 C   0  0  0  0  0  0  0  0  0  0  0  0
   59.3300   28.3230   44.7060 C   0  0  0  0  0  0  0  0  0  0  0  0
   59.5030   27.4350   45.9470 C   0  0  0  0  0  0  0  0  0  0  0  0
   58.6690   27.9550   47.1250 C   0  0  0  0  0  0  0  0  0  0  0  0
   59.1350   29.3210   47.6880 C   0  0  0  0  0  0  0  0  0  0  0  0
   61.1074   29.1616   51.8647 H   0  0  0  0  0  0  0  0  0  0  0  0
   60.5264   28.4024   50.3439 H   0  0  0  0  0  0  0  0  0  0  0  0
   61.0634   30.1166   50.3439 H   0  0  0  0  0  0  0  0  0  0  0  0
   58.4206   29.1506   50.6938 H   0  0  0  0  0  0  0  0  0  0  0  0
   58.9651   29.6799   52.3329 H   0  0  0  0  0  0  0  0  0  0  0  0
   57.3386   32.4942   50.3034 H   0  0  0  0  0  0  0  0  0  0  0  0
   56.9051   30.7509   50.3816 H   0  0  0  0  0  0  0  0  0  0  0  0
   57.7812   31.4431   52.9951 H   0  0  0  0  0  0  0  0  0  0  0  0
   56.7310   32.7986   52.4599 H   0  0  0  0  0  0  0  0  0  0  0  0
   56.0977   31.1177   52.4599 H   0  0  0  0  0  0  0  0  0  0  0  0
   59.1495   32.2644   52.6785 H   0  0  0  0  0  0  0  0  0  0  0  0
   60.6751   31.5966   51.9626 H   0  0  0  0  0  0  0  0  0  0  0  0
   59.1457   33.7312   50.4581 H   0  0  0  0  0  0  0  0  0  0  0  0
   60.1703   34.2073   51.8472 H   0  0  0  0  0  0  0  0  0  0  0  0
   61.8290   32.2346   51.8954 H   0  0  0  0  0  0  0  0  0  0  0  0
   62.6293   31.8760   50.3145 H   0  0  0  0  0  0  0  0  0  0  0  0
   62.9260   34.4725   51.9131 H   0  0  0  0  0  0  0  0  0  0  0  0
   64.1330   33.1298   51.8324 H   0  0  0  0  0  0  0  0  0  0  0  0
   65.2318   32.9701   49.1674 H   0  0  0  0  0  0  0  0  0  0  0  0
   63.5909   32.2951   49.4138 H   0  0  0  0  0  0  0  0  0  0  0  0
   63.3217   34.7142   47.8699 H   0  0  0  0  0  0  0  0  0  0  0  0
   64.6372   33.7204   47.1311 H   0  0  0  0  0  0  0  0  0  0  0  0
   63.2014   30.9528   46.4992 H   0  0  0  0  0  0  0  0  0  0  0  0
   63.9505   31.4006   48.0783 H   0  0  0  0  0  0  0  0  0  0  0  0
   61.5285   29.9610   47.6236 H   0  0  0  0  0  0  0  0  0  0  0  0
   62.2376   30.5525   49.2001 H   0  0  0  0  0  0  0  0  0  0  0  0
   60.2710   31.4860   49.2960 H   0  0  0  0  0  0  0  0  0  0  0  0
   61.0920   32.7110   48.5410 H   0  0  0  0  0  0  0  0  0  0  0  0
   56.5365   31.9746   43.7464 H   0  0  0  0  0  0  0  0  0  0  0  0
   57.9674   32.7393   42.9756 H   0  0  0  0  0  0  0  0  0  0  0  0
   57.7955   30.9513   42.9756 H   0  0  0  0  0  0  0  0  0  0  0  0
   59.8594   36.3017   46.1158 H   0  0  0  0  0  0  0  0  0  0  0  0
   60.5934   34.4477   47.8412 H   0  0  0  0  0  0  0  0  0  0  0  0
   57.3570   28.8207   45.4274 H   0  0  0  0  0  0  0  0  0  0  0  0
   57.7823   29.5159   43.8093 H   0  0  0  0  0  0  0  0  0  0  0  0
   59.1682   27.6757   43.8315 H   0  0  0  0  0  0  0  0  0  0  0  0
   60.2425   28.9289   44.6049 H   0  0  0  0  0  0  0  0  0  0  0  0
   59.1803   26.4120   45.7034 H   0  0  0  0  0  0  0  0  0  0  0  0
   60.5634   27.4493   46.2392 H   0  0  0  0  0  0  0  0  0  0  0  0
   57.6269   28.0594   46.7887 H   0  0  0  0  0  0  0  0  0  0  0  0
   58.7870   27.2243   47.9388 H   0  0  0  0  0  0  0  0  0  0  0  0
   58.4688   29.5591   48.5303 H   0  0  0  0  0  0  0  0  0  0  0  0
   60.1984   29.1486   47.9102 H   0  0  0  0  0  0  0  0  0  0  0  0
  1  2  1  0
  2  3  1  0
  3  4  1  0
  4  5  1  0
  3  6  1  0
  6  7  1  0
  7  8  1  0
  8  9  1  0
  9 10  1  0
 10 11  1  0
 11 12  1  0
 12 13  1  0
 13 14  1  0
 14 15  1  0
 15 16  1  0
 16 17  1  0
 17 18  1  0
 18 19  2  0
 19 20  1  0
 20 21  2  0
 21 22  1  0
 21 23  1  0
 23 24  1  0
 24 25  1  0
 25 26  2  0
 26 27  1  0
 20 28  1  0
 28 29  1  0
 29 30  1  0
 30 31  1  0
 31 32  1  0
 27 18  1  0
 32 19  1  0
 27 23  2  0
  1 33  1  0
  1 34  1  0
  1 35  1  0
  2 36  1  0
  2 37  1  0
  4 38  1  0
  4 39  1  0
  5 40  1  0
  5 41  1  0
  5 42  1  0
  6 43  1  0
  6 44  1  0
  7 45  1  0
  7 46  1  0
  9 47  1  0
  9 48  1  0
 10 49  1  0
 10 50  1  0
 12 51  1  0
 12 52  1  0
 13 53  1  0
 13 54  1  0
 15 55  1  0
 15 56  1  0
 16 57  1  0
 16 58  1  0
 17 59  1  0
 17 60  1  0
 22 61  1  0
 22 62  1  0
 22 63  1  0
 25 64  1  0
 26 65  1  0
 28 66  1  0
 28 67  1  0
 29 68  1  0
 29 69  1  0
 30 70  1  0
 30 71  1  0
 31 72  1  0
 31 73  1  0
 32 74  1  0
 32 75  1  0
M  CHG  2  17   1  21   1
M  END
>  <UniqueID>  (31) 
31

>  <SMILES>  (31) 
CCN(CC)CCOCCOCCOCC[NH2+]c1c2c([n+](C)c3sccc13)CCCCC2

>  <Energy>  (31) 
133.62274281216963

>  <Genealogy>  (31) 
CCN(CC)CCOCCOCCOCC[NH2+]c1c2c([n+](C)c3sccc13)CCCCC2 (protonated)
CCN(CC)CCOCCOCCOCC[NH2+]c1c2c([n+](C)c3sccc13)CCCCC2 (3D coordinates assigned)
CCN(CC)CCOCCOCCOCC[NH2+]c1c2c([n+](C)c3sccc13)CCCCC2 (nonaromatic ring conformer: 133.62274281216963 kcal/mol)

>  <smiles>  (31) 
CCN(CC)CCOCCOCCOCCNc1c2c([n+](C)c3sccc13)CCCCC2

>  <score_type>  (31) 
oracle

>  <origin>  (31) 
adg

>  <m_score__min__energy>  (31) 
-2.21

>  <m_primary>  (31) 
energy

$$$$
31:0
     RDKit          3D

 50 52  0  0  0  0  0  0  0  0999 V2000
   58.8460   29.3420   47.9680 C   0  0  0  0  0  0  0  0  0  0  0  0
   58.9830   29.6580   46.4870 C   0  0  0  0  0  0  0  0  0  0  0  0
   57.8260   30.3380   46.0500 O   0  0  0  0  0  0  0  0  0  0  0  0
   57.8920   30.5870   44.6580 C   0  0  0  0  0  0  0  0  0  0  0  0
   57.4430   32.0140   44.3330 C   0  0  0  0  0  0  0  0  0  0  0  0
   56.9620   32.6880   45.5500 N   0  0  0  0  0  0  0  0  0  0  0  0
   57.3750   34.1000   45.5930 C   0  0  0  0  0  0  0  0  0  0  0  0
   58.6090   34.2770   46.4860 C   0  0  0  0  0  0  0  0  0  0  0  0
   59.0990   33.0010   47.0150 N   0  0  0  0  0  0  0  0  0  0  0  0
   60.0000   32.9060   48.1340 C   0  0  0  0  0  0  0  0  0  0  0  0
   61.3730   33.1450   47.9450 C   0  0  0  0  0  0  0  0  0  0  0  0
   61.8710   33.5270   46.6810 C   0  0  0  0  0  0  0  0  0  0  0  0
   63.2390   33.6760   46.4700 C   0  0  0  0  0  0  0  0  0  0  0  0
   64.1330   33.4360   47.5060 C   0  0  0  0  0  0  0  0  0  0  0  0
   63.6630   33.0770   48.7690 C   0  0  0  0  0  0  0  0  0  0  0  0
   62.2730   32.9610   49.0300 C   0  0  0  0  0  0  0  0  0  0  0  0
   61.7920   32.6540   50.2900 N   0  0  0  0  0  0  0  0  0  0  0  0
   62.6930   32.7270   51.4610 C   0  0  0  0  0  0  0  0  0  0  0  0
   60.4600   32.3250   50.4610 C   0  0  0  0  0  0  0  0  0  0  0  0
   59.9740   31.7890   51.6830 C   0  0  0  0  0  0  0  0  0  0  0  0
   58.6130   31.5620   51.8790 C   0  0  0  0  0  0  0  0  0  0  0  0
   57.7030   31.8610   50.8720 C   0  0  0  0  0  0  0  0  0  0  0  0
   58.1550   32.3330   49.6430 C   0  0  0  0  0  0  0  0  0  0  0  0
   59.5330   32.5150   49.4020 C   0  0  0  0  0  0  0  0  0  0  0  0
   59.2148   30.1926   48.5600 H   0  0  0  0  0  0  0  0  0  0  0  0
   57.7880   29.1597   48.2077 H   0  0  0  0  0  0  0  0  0  0  0  0
   59.4361   28.4451   48.2077 H   0  0  0  0  0  0  0  0  0  0  0  0
   59.8663   30.2935   46.3263 H   0  0  0  0  0  0  0  0  0  0  0  0
   59.1002   28.7237   45.9184 H   0  0  0  0  0  0  0  0  0  0  0  0
   58.9288   30.4499   44.3170 H   0  0  0  0  0  0  0  0  0  0  0  0
   57.2205   29.8832   44.1443 H   0  0  0  0  0  0  0  0  0  0  0  0
   58.2928   32.5763   43.9186 H   0  0  0  0  0  0  0  0  0  0  0  0
   56.6244   31.9731   43.5994 H   0  0  0  0  0  0  0  0  0  0  0  0
   57.3980   32.2040   46.3680 H   0  0  0  0  0  0  0  0  0  0  0  0
   57.6155   34.4371   44.5739 H   0  0  0  0  0  0  0  0  0  0  0  0
   56.5497   34.6973   46.0079 H   0  0  0  0  0  0  0  0  0  0  0  0
   59.4094   34.7459   45.8948 H   0  0  0  0  0  0  0  0  0  0  0  0
   58.3195   34.9070   47.3400 H   0  0  0  0  0  0  0  0  0  0  0  0
   58.7280   32.1140   46.6020 H   0  0  0  0  0  0  0  0  0  0  0  0
   61.1702   33.7091   45.8529 H   0  0  0  0  0  0  0  0  0  0  0  0
   63.6124   33.9840   45.4822 H   0  0  0  0  0  0  0  0  0  0  0  0
   65.2147   33.5294   47.3296 H   0  0  0  0  0  0  0  0  0  0  0  0
   64.3826   32.8802   49.5773 H   0  0  0  0  0  0  0  0  0  0  0  0
   62.0981   32.6788   52.3850 H   0  0  0  0  0  0  0  0  0  0  0  0
   63.3980   31.8830   51.4344 H   0  0  0  0  0  0  0  0  0  0  0  0
   63.2529   33.6735   51.4344 H   0  0  0  0  0  0  0  0  0  0  0  0
   60.6837   31.5490   52.4884 H   0  0  0  0  0  0  0  0  0  0  0  0
   58.2581   31.1451   52.8331 H   0  0  0  0  0  0  0  0  0  0  0  0
   56.6255   31.7246   51.0462 H   0  0  0  0  0  0  0  0  0  0  0  0
   57.4291   32.5669   48.8503 H   0  0  0  0  0  0  0  0  0  0  0  0
  1  2  1  0
  2  3  1  0
  3  4  1  0
  4  5  1  0
  5  6  1  0
  6  7  1  0
  7  8  1  0
  8  9  1  0
  9 10  1  0
 10 11  2  0
 11 12  1  0
 12 13  2  0
 13 14  1  0
 14 15  2  0
 15 16  1  0
 16 17  2  0
 17 18  1  0
 17 19  1  0
 19 20  2  0
 20 21  1  0
 21 22  2  0
 22 23  1  0
 23 24  2  0
 24 10  1  0
 16 11  1  0
 24 19  1  0
  1 25  1  0
  1 26  1  0
  1 27  1  0
  2 28  1  0
  2 29  1  0
  4 30  1  0
  4 31  1  0
  5 32  1  0
  5 33  1  0
  6 34  1  0
  7 35  1  0
  7 36  1  0
  8 37  1  0
  8 38  1  0
  9 39  1  0
 12 40  1  0
 13 41  1  0
 14 42  1  0
 15 43  1  0
 18 44  1  0
 18 45  1  0
 18 46  1  0
 20 47  1  0
 21 48  1  0
 22 49  1  0
 23 50  1  0
M  CHG  1  17   1
M  END
>  <UniqueID>  (32) 
32

>  <SMILES>  (32) 
CCOCCNCCNc1c2ccccc2[n+](C)c2ccccc12

>  <Energy>  (32) 
74.30861112593915

>  <Genealogy>  (32) 
CCOCCNCCNc1c2ccccc2[n+](C)c2ccccc12 (3D coordinates assigned)
CCOCCNCCNc1c2ccccc2[n+](C)c2ccccc12 (optimized conformer: 74.30861112593915 kcal/mol)

>  <smiles>  (32) 
CCOCCNCCNc1c2ccccc2[n+](C)c2ccccc12

>  <score_type>  (32) 
oracle

>  <origin>  (32) 
adg

>  <m_score__min__energy>  (32) 
-4.5599999999999996

>  <m_primary>  (32) 
energy

$$$$
32:0
     RDKit          3D

 22 22  0  0  0  0  0  0  0  0999 V2000
   58.2618   34.8076   44.2163 H   0  0  0  0  0  0  0  0  0  0  0  0
   58.1870   33.8230   44.7010 C   0  0  0  0  0  0  0  0  0  0  0  0
   57.4040   32.8190   44.1220 C   0  0  0  0  0  0  0  0  0  0  0  0
   56.8672   33.0183   43.1828 H   0  0  0  0  0  0  0  0  0  0  0  0
   57.2980   31.5530   44.7340 C   0  0  0  0  0  0  0  0  0  0  0  0
   56.4710   30.4740   44.1280 C   0  0  0  0  0  0  0  0  0  0  0  0
   55.6420   29.8170   44.8850 N   0  0  0  0  0  0  0  0  0  0  0  0
   55.8190   28.4880   45.2020 O   0  0  0  0  0  0  0  0  0  0  0  0
   57.0860   28.0180   45.6280 C   0  0  0  0  0  0  0  0  0  0  0  0
   57.1215   28.0048   46.7273 H   0  0  0  0  0  0  0  0  0  0  0  0
   57.2477   27.0001   45.2437 H   0  0  0  0  0  0  0  0  0  0  0  0
   57.8724   28.6842   45.2437 H   0  0  0  0  0  0  0  0  0  0  0  0
   56.6430   30.0950   42.6780 C   0  0  0  0  0  0  0  0  0  0  0  0
   57.0968   29.0951   42.6117 H   0  0  0  0  0  0  0  0  0  0  0  0
   55.6610   30.0856   42.1825 H   0  0  0  0  0  0  0  0  0  0  0  0
   57.2967   30.8279   42.1825 H   0  0  0  0  0  0  0  0  0  0  0  0
   58.0020   31.3200   45.9310 C   0  0  0  0  0  0  0  0  0  0  0  0
   57.9370   30.3363   46.4189 H   0  0  0  0  0  0  0  0  0  0  0  0
   58.7830   32.3280   46.5050 C   0  0  0  0  0  0  0  0  0  0  0  0
   59.3269   32.1346   47.4413 H   0  0  0  0  0  0  0  0  0  0  0  0
   58.8740   33.5800   45.8920 C   0  0  0  0  0  0  0  0  0  0  0  0
   59.9420   34.9540   46.6790 Br  0  0  0  0  0  0  0  0  0  0  0  0
  1  2  1  0
  2  3  2  0
  3  4  1  0
  3  5  1  0
  5  6  1  0
  6  7  2  0
  7  8  1  0
  8  9  1  0
  9 10  1  0
  9 11  1  0
  9 12  1  0
  6 13  1  0
 13 14  1  0
 13 15  1  0
 13 16  1  0
  5 17  2  0
 17 18  1  0
 17 19  1  0
 19 20  1  0
 19 21  2  0
 21 22  1  0
 21  2  1  0
M  END
>  <UniqueID>  (33) 
33

>  <SMILES>  (33) 
CO/N=C(\C)c1ccc(Br)cc1

>  <Energy>  (33) 
18.537551552887773

>  <Genealogy>  (33) 
CO/N=C(\C)c1ccc(Br)cc1 (cis-trans isomerization)
CO/N=C(\C)c1ccc(Br)cc1 (3D coordinates assigned)
CO/N=C(\C)c1ccc(Br)cc1 (optimized conformer: 18.537551552887773 kcal/mol)

>  <smiles>  (33) 
CON=C(C)c1ccc(Br)cc1

>  <score_type>  (33) 
oracle

>  <origin>  (33) 
adg

>  <m_score__min__energy>  (33) 
-6.1699999999999999

>  <m_primary>  (33) 
energy

$$$$
