0:0
     RDKit          3D

 52 54  0  0  0  0  0  0  0  0999 V2000
   65.5280   33.0770   50.2100 C   0  0  0  0  0  0  0  0  0  0  0  0
   64.0090   33.2240   50.3800 C   0  0  0  0  0  0  0  0  0  0  0  0
   63.2420   32.3700   49.4620 N   0  0  0  0  0  0  0  0  0  0  0  0
   63.6910   32.4580   48.0670 C   0  0  0  0  0  0  0  0  0  0  0  0
   62.7240   31.7130   47.1220 C   0  0  0  0  0  0  0  0  0  0  0  0
   61.6390   31.0250   47.8530 N   0  0  0  0  0  0  0  0  0  0  0  0
   60.3400   31.1480   47.1830 C   0  0  0  0  0  0  0  0  0  0  0  0
   59.7650   30.0210   46.5450 C   0  0  0  0  0  0  0  0  0  0  0  0
   60.0270   28.7040   46.9950 C   0  0  0  0  0  0  0  0  0  0  0  0
   59.5750   27.5990   46.2840 C   0  0  0  0  0  0  0  0  0  0  0  0
   58.8690   27.7770   45.1070 C   0  0  0  0  0  0  0  0  0  0  0  0
   58.5400   29.0590   44.6760 C   0  0  0  0  0  0  0  0  0  0  0  0
   58.9160   30.2070   45.4210 C   0  0  0  0  0  0  0  0  0  0  0  0
   58.5200   31.4780   45.0500 N   0  0  0  0  0  0  0  0  0  0  0  0
   57.5100   31.6600   43.9830 C   0  0  0  0  0  0  0  0  0  0  0  0
   59.0260   32.5840   45.7050 C   0  0  0  0  0  0  0  0  0  0  0  0
   58.8250   33.8960   45.2060 C   0  0  0  0  0  0  0  0  0  0  0  0
   59.2640   35.0090   45.9140 C   0  0  0  0  0  0  0  0  0  0  0  0
   59.8530   34.8520   47.1580 C   0  0  0  0  0  0  0  0  0  0  0  0
   60.0880   33.5770   47.6720 C   0  0  0  0  0  0  0  0  0  0  0  0
   60.5130   33.4740   49.0360 N   0  0  0  0  0  0  0  0  0  0  0  0
   59.5270   33.4640   50.1210 C   0  0  0  0  0  0  0  0  0  0  0  0
   58.5340   32.3230   49.9360 C   0  0  0  0  0  0  0  0  0  0  0  0
   59.2440   30.7590   50.4090 Cl  0  0  0  0  0  0  0  0  0  0  0  0
   59.8040   32.4270   46.8840 C   0  0  0  0  0  0  0  0  0  0  0  0
   66.0050   33.0308   51.2001 H   0  0  0  0  0  0  0  0  0  0  0  0
   65.7471   32.1535   49.6540 H   0  0  0  0  0  0  0  0  0  0  0  0
   65.9201   33.9414   49.6540 H   0  0  0  0  0  0  0  0  0  0  0  0
   63.7444   32.9542   51.4130 H   0  0  0  0  0  0  0  0  0  0  0  0
   63.7521   34.2684   50.1491 H   0  0  0  0  0  0  0  0  0  0  0  0
   63.3270   31.3800   49.7760 H   0  0  0  0  0  0  0  0  0  0  0  0
   63.7378   33.5164   47.7711 H   0  0  0  0  0  0  0  0  0  0  0  0
   64.6834   31.9899   47.9900 H   0  0  0  0  0  0  0  0  0  0  0  0
   62.2767   32.4408   46.4291 H   0  0  0  0  0  0  0  0  0  0  0  0
   63.3036   30.9479   46.5847 H   0  0  0  0  0  0  0  0  0  0  0  0
   61.5880   31.3830   48.8290 H   0  0  0  0  0  0  0  0  0  0  0  0
   61.9470   30.0390   47.9590 H   0  0  0  0  0  0  0  0  0  0  0  0
   60.5980   28.5533   47.9230 H   0  0  0  0  0  0  0  0  0  0  0  0
   59.7781   26.5840   46.6562 H   0  0  0  0  0  0  0  0  0  0  0  0
   58.5672   26.9033   44.5107 H   0  0  0  0  0  0  0  0  0  0  0  0
   57.9773   29.1849   43.7392 H   0  0  0  0  0  0  0  0  0  0  0  0
   56.5242   31.8376   44.4377 H   0  0  0  0  0  0  0  0  0  0  0  0
   57.7869   32.5227   43.3593 H   0  0  0  0  0  0  0  0  0  0  0  0
   57.4684   30.7549   43.3593 H   0  0  0  0  0  0  0  0  0  0  0  0
   58.3131   34.0355   44.2424 H   0  0  0  0  0  0  0  0  0  0  0  0
   59.1436   36.0152   45.4860 H   0  0  0  0  0  0  0  0  0  0  0  0
   60.1371   35.7385   47.7440 H   0  0  0  0  0  0  0  0  0  0  0  0
   61.5130   33.6230   49.2670 H   0  0  0  0  0  0  0  0  0  0  0  0
   60.0482   33.3370   51.0813 H   0  0  0  0  0  0  0  0  0  0  0  0
   58.9773   34.4167   50.1081 H   0  0  0  0  0  0  0  0  0  0  0  0
   57.6474   32.5160   50.5578 H   0  0  0  0  0  0  0  0  0  0  0  0
   58.2611   32.2712   48.8716 H   0  0  0  0  0  0  0  0  0  0  0  0
  1  2  1  0
  2  3  1  0
  3  4  1  0
  4  5  1  0
  5  6  1  0
  6  7  1  0
  7  8  2  0
  8  9  1  0
  9 10  2  0
 10 11  1  0
 11 12  2  0
 12 13  1  0
 13 14  2  0
 14 15  1  0
 14 16  1  0
 16 17  2  0
 17 18  1  0
 18 19  2  0
 19 20  1  0
 20 21  1  0
 21 22  1  0
 22 23  1  0
 23 24  1  0
 20 25  2  0
 25  7  1  0
 13  8  1  0
 25 16  1  0
  1 26  1  0
  1 27  1  0
  1 28  1  0
  2 29  1  0
  2 30  1  0
  3 31  1  0
  4 32  1  0
  4 33  1  0
  5 34  1  0
  5 35  1  0
  6 36  1  0
  6 37  1  0
  9 38  1  0
 10 39  1  0
 11 40  1  0
 12 41  1  0
 15 42  1  0
 15 43  1  0
 15 44  1  0
 17 45  1  0
 18 46  1  0
 19 47  1  0
 21 48  1  0
 22 49  1  0
 22 50  1  0
 23 51  1  0
 23 52  1  0
M  CHG  2   6   1  14   1
M  END
>  <UniqueID>  (1) 
1

>  <SMILES>  (1) 
CCNCC[NH2+]c1c2ccccc2[n+](C)c2cccc(NCCCl)c12

>  <Energy>  (1) 
95.06149613175782

>  <Genealogy>  (1) 
CCNCC[NH2+]c1c2ccccc2[n+](C)c2cccc(NCCCl)c12 (protonated)
CCNCC[NH2+]c1c2ccccc2[n+](C)c2cccc(NCCCl)c12 (3D coordinates assigned)
CCNCC[NH2+]c1c2ccccc2[n+](C)c2cccc(NCCCl)c12 (optimized conformer: 95.06149613175782 kcal/mol)

>  <smiles>  (1) 
CCNCCNc1c2ccccc2[n+](C)c2cccc(NCCCl)c12

>  <score_type>  (1) 
oracle

>  <origin>  (1) 
adg

>  <m_score__min__energy>  (1) 
-3.52

>  <m_primary>  (1) 
energy

$$$$
1:0
     RDKit          3D

 66 68  0  0  0  0  0  0  0  0999 V2000
   63.0350   33.8080   46.6790 C   0  0  0  0  0  0  0  0  0  0  0  0
   63.1120   32.3540   47.1510 C   0  0  0  0  0  0  0  0  0  0  0  0
   63.1020   32.2460   48.6210 N   0  0  0  0  0  0  0  0  0  0  0  0
   64.4400   32.4590   49.1960 C   0  0  0  0  0  0  0  0  0  0  0  0
   64.4890   31.9970   50.6570 C   0  0  0  0  0  0  0  0  0  0  0  0
   63.2190   31.5120   51.0540 O   0  0  0  0  0  0  0  0  0  0  0  0
   62.5870   32.4010   51.9590 C   0  0  0  0  0  0  0  0  0  0  0  0
   61.8530   33.5150   51.2000 C   0  0  0  0  0  0  0  0  0  0  0  0
   60.5420   33.0340   50.5640 C   0  0  0  0  0  0  0  0  0  0  0  0
   60.7710   31.8360   49.7450 N   0  0  0  0  0  0  0  0  0  0  0  0
   59.8840   30.7250   50.1250 C   0  0  0  0  0  0  0  0  0  0  0  0
   59.2920   30.0010   48.9030 C   0  0  0  0  0  0  0  0  0  0  0  0
   59.9410   30.4520   47.6730 N   0  0  0  0  0  0  0  0  0  0  0  0
   59.1930   30.5570   46.4520 C   0  0  0  0  0  0  0  0  0  0  0  0
   58.8400   31.8180   45.9450 C   0  0  0  0  0  0  0  0  0  0  0  0
   59.1910   32.9980   46.6350 C   0  0  0  0  0  0  0  0  0  0  0  0
   58.9060   34.2490   46.0940 C   0  0  0  0  0  0  0  0  0  0  0  0
   58.2770   34.3450   44.8580 C   0  0  0  0  0  0  0  0  0  0  0  0
   57.8930   33.1930   44.1750 C   0  0  0  0  0  0  0  0  0  0  0  0
   58.1230   31.9050   44.7210 C   0  0  0  0  0  0  0  0  0  0  0  0
   57.6820   30.7540   44.0930 N   0  0  0  0  0  0  0  0  0  0  0  0
   56.6930   30.8450   42.9960 C   0  0  0  0  0  0  0  0  0  0  0  0
   58.1350   29.5170   44.5150 C   0  0  0  0  0  0  0  0  0  0  0  0
   57.9100   28.3390   43.7550 C   0  0  0  0  0  0  0  0  0  0  0  0
   58.3260   27.0790   44.2190 C   0  0  0  0  0  0  0  0  0  0  0  0
   58.1020   25.8950   43.4980 O   0  0  0  0  0  0  0  0  0  0  0  0
   57.3550   24.7830   43.9820 C   0  0  0  0  0  0  0  0  0  0  0  0
   58.9910   26.9870   45.4380 C   0  0  0  0  0  0  0  0  0  0  0  0
   59.2690   28.1290   46.1810 C   0  0  0  0  0  0  0  0  0  0  0  0
   58.8650   29.4010   45.7260 C   0  0  0  0  0  0  0  0  0  0  0  0
   62.9996   34.4757   47.5525 H   0  0  0  0  0  0  0  0  0  0  0  0
   63.9219   34.0441   46.0727 H   0  0  0  0  0  0  0  0  0  0  0  0
   62.1281   33.9491   46.0727 H   0  0  0  0  0  0  0  0  0  0  0  0
   62.2478   31.8046   46.7493 H   0  0  0  0  0  0  0  0  0  0  0  0
   64.0594   31.9299   46.7870 H   0  0  0  0  0  0  0  0  0  0  0  0
   62.4620   32.9840   48.9980 H   0  0  0  0  0  0  0  0  0  0  0  0
   62.7270   31.3130   48.9150 H   0  0  0  0  0  0  0  0  0  0  0  0
   65.1774   31.8877   48.6130 H   0  0  0  0  0  0  0  0  0  0  0  0
   64.6703   33.5340   49.1601 H   0  0  0  0  0  0  0  0  0  0  0  0
   65.2342   31.1945   50.7606 H   0  0  0  0  0  0  0  0  0  0  0  0
   64.7666   32.8483   51.2960 H   0  0  0  0  0  0  0  0  0  0  0  0
   61.8625   31.8412   52.5687 H   0  0  0  0  0  0  0  0  0  0  0  0
   63.3545   32.8568   52.6018 H   0  0  0  0  0  0  0  0  0  0  0  0
   61.6248   34.3290   51.9038 H   0  0  0  0  0  0  0  0  0  0  0  0
   62.5122   33.8530   50.3869 H   0  0  0  0  0  0  0  0  0  0  0  0
   59.8210   32.7950   51.3597 H   0  0  0  0  0  0  0  0  0  0  0  0
   60.1477   33.8332   49.9191 H   0  0  0  0  0  0  0  0  0  0  0  0
   60.6200   32.0760   48.7360 H   0  0  0  0  0  0  0  0  0  0  0  0
   60.4602   30.0007   50.7195 H   0  0  0  0  0  0  0  0  0  0  0  0
   59.0477   31.1465   50.7020 H   0  0  0  0  0  0  0  0  0  0  0  0
   59.4446   28.9175   49.0159 H   0  0  0  0  0  0  0  0  0  0  0  0
   58.2178   30.2298   48.8415 H   0  0  0  0  0  0  0  0  0  0  0  0
   60.9340   30.7800   47.6770 H   0  0  0  0  0  0  0  0  0  0  0  0
   59.6950   32.9288   47.6103 H   0  0  0  0  0  0  0  0  0  0  0  0
   59.1786   35.1614   46.6447 H   0  0  0  0  0  0  0  0  0  0  0  0
   58.0818   35.3340   44.4177 H   0  0  0  0  0  0  0  0  0  0  0  0
   57.4026   33.2844   43.1946 H   0  0  0  0  0  0  0  0  0  0  0  0
   55.6824   30.9380   43.4202 H   0  0  0  0  0  0  0  0  0  0  0  0
   56.9130   31.7267   42.3762 H   0  0  0  0  0  0  0  0  0  0  0  0
   56.7484   29.9380   42.3762 H   0  0  0  0  0  0  0  0  0  0  0  0
   57.3998   28.4139   42.7834 H   0  0  0  0  0  0  0  0  0  0  0  0
   57.3592   24.7893   45.0820 H   0  0  0  0  0  0  0  0  0  0  0  0
   56.3189   24.8513   43.6189 H   0  0  0  0  0  0  0  0  0  0  0  0
   57.8100   23.8497   43.6189 H   0  0  0  0  0  0  0  0  0  0  0  0
   59.2996   26.0017   45.8173 H   0  0  0  0  0  0  0  0  0  0  0  0
   59.8102   28.0391   47.1344 H   0  0  0  0  0  0  0  0  0  0  0  0
  1  2  1  0
  2  3  1  0
  3  4  1  0
  4  5  1  0
  5  6  1  0
  6  7  1  0
  7  8  1  0
  8  9  1  0
  9 10  1  0
 10 11  1  0
 11 12  1  0
 12 13  1  0
 13 14  1  0
 14 15  2  0
 15 16  1  0
 16 17  2  0
 17 18  1  0
 18 19  2  0
 19 20  1  0
 20 21  2  0
 21 22  1  0
 21 23  1  0
 23 24  2  0
 24 25  1  0
 25 26  1  0
 26 27  1  0
 25 28  2  0
 28 29  1  0
 29 30  2  0
 30 14  1  0
 20 15  1  0
 30 23  1  0
  1 31  1  0
  1 32  1  0
  1 33  1  0
  2 34  1  0
  2 35  1  0
  3 36  1  0
  3 37  1  0
  4 38  1  0
  4 39  1  0
  5 40  1  0
  5 41  1  0
  7 42  1  0
  7 43  1  0
  8 44  1  0
  8 45  1  0
  9 46  1  0
  9 47  1  0
 10 48  1  0
 11 49  1  0
 11 50  1  0
 12 51  1  0
 12 52  1  0
 13 53  1  0
 16 54  1  0
 17 55  1  0
 18 56  1  0
 19 57  1  0
 22 58  1  0
 22 59  1  0
 22 60  1  0
 24 61  1  0
 27 62  1  0
 27 63  1  0
 27 64  1  0
 28 65  1  0
 29 66  1  0
M  CHG  2   3   1  21   1
M  END
>  <UniqueID>  (2) 
2

>  <SMILES>  (2) 
CC[NH2+]CCOCCCNCCNc1c2ccccc2[n+](C)c2cc(OC)ccc12

>  <Energy>  (2) 
87.8563175593847

>  <Genealogy>  (2) 
CC[NH2+]CCOCCCNCCNc1c2ccccc2[n+](C)c2cc(OC)ccc12 (protonated)
CC[NH2+]CCOCCCNCCNc1c2ccccc2[n+](C)c2cc(OC)ccc12 (3D coordinates assigned)
CC[NH2+]CCOCCCNCCNc1c2ccccc2[n+](C)c2cc(OC)ccc12 (optimized conformer: 87.8563175593847 kcal/mol)

>  <smiles>  (2) 
CCNCCOCCCNCCNc1c2ccccc2[n+](C)c2cc(OC)ccc12

>  <score_type>  (2) 
oracle

>  <origin>  (2) 
adg

>  <m_score__min__energy>  (2) 
-4.7800000000000002

>  <m_primary>  (2) 
energy

$$$$
2:0
     RDKit          3D

 53 55  0  0  0  0  0  0  0  0999 V2000
   57.5240   32.3150   41.4610 C   0  0  0  0  0  0  0  0  0  0  0  0
   57.5150   31.6020   42.8120 C   0  0  0  0  0  0  0  0  0  0  0  0
   56.6440   30.3370   42.8080 C   0  0  0  0  0  0  0  0  0  0  0  0
   55.9250   30.1060   44.1430 C   0  0  0  0  0  0  0  0  0  0  0  0
   56.4720   28.9060   44.7890 N   0  0  0  0  0  0  0  0  0  0  0  0
   57.8530   28.6220   44.3720 C   0  0  0  0  0  0  0  0  0  0  0  0
   58.8750   28.9620   45.4740 C   0  0  0  0  0  0  0  0  0  0  0  0
   58.2710   29.5080   46.7120 N   0  0  0  0  0  0  0  0  0  0  0  0
   59.1520   30.4220   47.4320 C   0  0  0  0  0  0  0  0  0  0  0  0
   60.0000   29.9600   48.4840 C   0  0  0  0  0  0  0  0  0  0  0  0
   59.9960   28.6090   48.9250 C   0  0  0  0  0  0  0  0  0  0  0  0
   60.7830   28.1950   49.9950 C   0  0  0  0  0  0  0  0  0  0  0  0
   61.5810   29.1050   50.6680 C   0  0  0  0  0  0  0  0  0  0  0  0
   61.6180   30.4330   50.2580 C   0  0  0  0  0  0  0  0  0  0  0  0
   60.8650   30.8830   49.1430 C   0  0  0  0  0  0  0  0  0  0  0  0
   60.9440   32.1920   48.7180 N   0  0  0  0  0  0  0  0  0  0  0  0
   62.0560   33.0540   49.1810 C   0  0  0  0  0  0  0  0  0  0  0  0
   60.0080   32.6930   47.8390 C   0  0  0  0  0  0  0  0  0  0  0  0
   59.8790   34.0890   47.6260 C   0  0  0  0  0  0  0  0  0  0  0  0
   58.9960   34.5990   46.6810 C   0  0  0  0  0  0  0  0  0  0  0  0
   58.2020   33.7400   45.9270 C   0  0  0  0  0  0  0  0  0  0  0  0
   57.2940   34.2860   44.8630 C   0  0  0  0  0  0  0  0  0  0  0  0
   58.2880   32.3610   46.1390 C   0  0  0  0  0  0  0  0  0  0  0  0
   59.1420   31.8150   47.1310 C   0  0  0  0  0  0  0  0  0  0  0  0
   57.5377   33.4032   41.6208 H   0  0  0  0  0  0  0  0  0  0  0  0
   58.4184   32.0162   40.8947 H   0  0  0  0  0  0  0  0  0  0  0  0
   56.6223   32.0389   40.8947 H   0  0  0  0  0  0  0  0  0  0  0  0
   58.5467   31.3183   43.0672 H   0  0  0  0  0  0  0  0  0  0  0  0
   57.0897   32.2963   43.5516 H   0  0  0  0  0  0  0  0  0  0  0  0
   55.8887   30.4329   42.0141 H   0  0  0  0  0  0  0  0  0  0  0  0
   57.3090   29.4776   42.6370 H   0  0  0  0  0  0  0  0  0  0  0  0
   56.0770   30.9770   44.7975 H   0  0  0  0  0  0  0  0  0  0  0  0
   54.8487   29.9684   43.9623 H   0  0  0  0  0  0  0  0  0  0  0  0
   55.8780   28.0920   44.5020 H   0  0  0  0  0  0  0  0  0  0  0  0
   57.9368   27.5525   44.1288 H   0  0  0  0  0  0  0  0  0  0  0  0
   58.0778   29.2501   43.4974 H   0  0  0  0  0  0  0  0  0  0  0  0
   59.4224   28.0436   45.7327 H   0  0  0  0  0  0  0  0  0  0  0  0
   59.5299   29.7469   45.0678 H   0  0  0  0  0  0  0  0  0  0  0  0
   57.3350   29.9090   46.5020 H   0  0  0  0  0  0  0  0  0  0  0  0
   58.0230   28.7120   47.3420 H   0  0  0  0  0  0  0  0  0  0  0  0
   59.3578   27.8759   48.4100 H   0  0  0  0  0  0  0  0  0  0  0  0
   60.7713   27.1405   50.3077 H   0  0  0  0  0  0  0  0  0  0  0  0
   62.1854   28.7772   51.5267 H   0  0  0  0  0  0  0  0  0  0  0  0
   62.2442   31.1497   50.8096 H   0  0  0  0  0  0  0  0  0  0  0  0
   62.0751   33.0688   50.2807 H   0  0  0  0  0  0  0  0  0  0  0  0
   63.0096   32.6568   48.8031 H   0  0  0  0  0  0  0  0  0  0  0  0
   61.9091   34.0765   48.8031 H   0  0  0  0  0  0  0  0  0  0  0  0
   60.4906   34.7831   48.2211 H   0  0  0  0  0  0  0  0  0  0  0  0
   58.9246   35.6861   46.5286 H   0  0  0  0  0  0  0  0  0  0  0  0
   56.4425   34.7980   45.3350 H   0  0  0  0  0  0  0  0  0  0  0  0
   57.8500   34.9997   44.2373 H   0  0  0  0  0  0  0  0  0  0  0  0
   56.9243   33.4603   44.2373 H   0  0  0  0  0  0  0  0  0  0  0  0
   57.6792   31.6836   45.5221 H   0  0  0  0  0  0  0  0  0  0  0  0
  1  2  1  0
  2  3  1  0
  3  4  1  0
  4  5  1  0
  5  6  1  0
  6  7  1  0
  7  8  1  0
  8  9  1  0
  9 10  2  0
 10 11  1  0
 11 12  2  0
 12 13  1  0
 13 14  2  0
 14 15  1  0
 15 16  2  0
 16 17  1  0
 16 18  1  0
 18 19  2  0
 19 20  1  0
 20 21  2  0
 21 22  1  0
 21 23  1  0
 23 24  2  0
 24  9  1  0
 15 10  1  0
 24 18  1  0
  1 25  1  0
  1 26  1  0
  1 27  1  0
  2 28  1  0
  2 29  1  0
  3 30  1  0
  3 31  1  0
  4 32  1  0
  4 33  1  0
  5 34  1  0
  6 35  1  0
  6 36  1  0
  7 37  1  0
  7 38  1  0
  8 39  1  0
  8 40  1  0
 11 41  1  0
 12 42  1  0
 13 43  1  0
 14 44  1  0
 17 45  1  0
 17 46  1  0
 17 47  1  0
 19 48  1  0
 20 49  1  0
 22 50  1  0
 22 51  1  0
 22 52  1  0
 23 53  1  0
M  CHG  2   8   1  16   1
M  END
>  <UniqueID>  (3) 
3

>  <SMILES>  (3) 
CCCCNCC[NH2+]c1c2ccccc2[n+](C)c2ccc(C)cc12

>  <Energy>  (3) 
74.38740441953904

>  <Genealogy>  (3) 
CCCCNCC[NH2+]c1c2ccccc2[n+](C)c2ccc(C)cc12 (protonated)
CCCCNCC[NH2+]c1c2ccccc2[n+](C)c2ccc(C)cc12 (3D coordinates assigned)
CCCCNCC[NH2+]c1c2ccccc2[n+](C)c2ccc(C)cc12 (optimized conformer: 74.38740441953904 kcal/mol)

>  <smiles>  (3) 
CCCCNCCNc1c2ccccc2[n+](C)c2ccc(C)cc12

>  <score_type>  (3) 
oracle

>  <origin>  (3) 
adg

>  <m_score__min__energy>  (3) 
-4.8600000000000003

>  <m_primary>  (3) 
energy

$$$$
3:0
     RDKit          3D

 46 50  0  0  0  0  0  0  0  0999 V2000
   62.6090   33.4840   46.8020 C   0  0  0  0  0  0  0  0  0  0  0  0
   63.1210   32.0810   47.1130 C   0  0  0  0  0  0  0  0  0  0  0  0
   62.0290   31.2380   47.5960 N   0  0  0  0  0  0  0  0  0  0  0  0
   61.2120   30.4760   46.8290 C   0  0  0  0  0  0  0  0  0  0  0  0
   60.2350   29.8710   47.6160 C   0  0  0  0  0  0  0  0  0  0  0  0
   59.1530   28.9960   47.1300 C   0  0  0  0  0  0  0  0  0  0  0  0
   58.2130   29.2960   46.2330 C   0  0  0  0  0  0  0  0  0  0  0  0
   58.1220   30.5290   45.4270 C   0  0  0  0  0  0  0  0  0  0  0  0
   57.9550   30.6060   44.0470 C   0  0  0  0  0  0  0  0  0  0  0  0
   57.9430   31.8990   43.6490 N   0  0  0  0  0  0  0  0  0  0  0  0
   57.8560   32.3760   42.2730 C   0  0  0  0  0  0  0  0  0  0  0  0
   58.1150   32.6420   44.7600 C   0  0  0  0  0  0  0  0  0  0  0  0
   58.2240   34.0320   44.8540 C   0  0  0  0  0  0  0  0  0  0  0  0
   58.4480   34.5910   46.1250 C   0  0  0  0  0  0  0  0  0  0  0  0
   58.5740   33.7610   47.2600 C   0  0  0  0  0  0  0  0  0  0  0  0
   58.4690   32.3640   47.1370 C   0  0  0  0  0  0  0  0  0  0  0  0
   58.2230   31.8360   45.8690 C   0  0  0  0  0  0  0  0  0  0  0  0
   57.3830   28.1020   46.0600 C   0  0  0  0  0  0  0  0  0  0  0  0
   56.4290   27.9960   45.2460 O   0  0  0  0  0  0  0  0  0  0  0  0
   57.8210   27.0280   46.8830 N   0  0  0  0  0  0  0  0  0  0  0  0
   58.9390   27.6090   47.5410 C   0  0  0  0  0  0  0  0  0  0  0  0
   59.6410   26.9900   48.3820 O   0  0  0  0  0  0  0  0  0  0  0  0
   60.4890   30.2840   48.9140 C   0  0  0  0  0  0  0  0  0  0  0  0
   59.8810   29.9760   50.1310 C   0  0  0  0  0  0  0  0  0  0  0  0
   60.3960   30.5890   51.2850 C   0  0  0  0  0  0  0  0  0  0  0  0
   61.4960   31.4670   51.1840 C   0  0  0  0  0  0  0  0  0  0  0  0
   62.0760   31.7190   49.9710 N   0  0  0  0  0  0  0  0  0  0  0  0
   61.5700   31.1200   48.8600 C   0  0  0  0  0  0  0  0  0  0  0  0
   62.4135   34.0198   47.7426 H   0  0  0  0  0  0  0  0  0  0  0  0
   63.3659   34.0298   46.2196 H   0  0  0  0  0  0  0  0  0  0  0  0
   61.6785   33.4140   46.2196 H   0  0  0  0  0  0  0  0  0  0  0  0
   63.5443   31.6384   46.1993 H   0  0  0  0  0  0  0  0  0  0  0  0
   63.8940   32.1469   47.8928 H   0  0  0  0  0  0  0  0  0  0  0  0
   61.3069   30.3528   45.7400 H   0  0  0  0  0  0  0  0  0  0  0  0
   57.8482   29.7403   43.3768 H   0  0  0  0  0  0  0  0  0  0  0  0
   57.6586   33.4581   42.2719 H   0  0  0  0  0  0  0  0  0  0  0  0
   58.8055   32.1759   41.7548 H   0  0  0  0  0  0  0  0  0  0  0  0
   57.0383   31.8536   41.7548 H   0  0  0  0  0  0  0  0  0  0  0  0
   58.1373   34.6692   43.9616 H   0  0  0  0  0  0  0  0  0  0  0  0
   58.5256   35.6827   46.2355 H   0  0  0  0  0  0  0  0  0  0  0  0
   58.7556   34.2102   48.2476 H   0  0  0  0  0  0  0  0  0  0  0  0
   58.5774   31.7079   48.0132 H   0  0  0  0  0  0  0  0  0  0  0  0
   59.0310   29.2799   50.1849 H   0  0  0  0  0  0  0  0  0  0  0  0
   59.9425   30.3849   52.2661 H   0  0  0  0  0  0  0  0  0  0  0  0
   61.8905   31.9530   52.0885 H   0  0  0  0  0  0  0  0  0  0  0  0
   62.8960   32.3620   49.9140 H   0  0  0  0  0  0  0  0  0  0  0  0
  1  2  1  0
  2  3  1  0
  3  4  1  0
  4  5  2  0
  5  6  1  0
  6  7  2  0
  7  8  1  0
  8  9  2  0
  9 10  1  0
 10 11  1  0
 10 12  1  0
 12 13  2  0
 13 14  1  0
 14 15  2  0
 15 16  1  0
 16 17  2  0
  7 18  1  0
 18 19  2  0
 18 20  1  0
 20 21  1  0
 21 22  2  0
  5 23  1  0
 23 24  2  0
 24 25  1  0
 25 26  2  0
 26 27  1  0
 27 28  2  0
 28  3  1  0
 21  6  1  0
 28 23  1  0
 17  8  1  0
 17 12  1  0
  1 29  1  0
  1 30  1  0
  1 31  1  0
  2 32  1  0
  2 33  1  0
  4 34  1  0
  9 35  1  0
 11 36  1  0
 11 37  1  0
 11 38  1  0
 13 39  1  0
 14 40  1  0
 15 41  1  0
 16 42  1  0
 24 43  1  0
 25 44  1  0
 26 45  1  0
 27 46  1  0
M  CHG  2  20  -1  27   1
M  END
>  <UniqueID>  (4) 
4

>  <SMILES>  (4) 
CCn1cc(C2=C(c3cn(C)c4ccccc34)C(=O)[N-]C2=O)c2ccc[nH+]c21

>  <Energy>  (4) 
148.3917897524997

>  <Genealogy>  (4) 
CCn1cc(C2=C(c3cn(C)c4ccccc34)C(=O)[N-]C2=O)c2ccc[nH+]c21 (protonated)
CCn1cc(C2=C(c3cn(C)c4ccccc34)C(=O)[N-]C2=O)c2ccc[nH+]c21 (3D coordinates assigned)
CCn1cc(C2=C(c3cn(C)c4ccccc34)C(=O)[N-]C2=O)c2ccc[nH+]c21 (nonaromatic ring conformer: 148.3917897524997 kcal/mol)

>  <smiles>  (4) 
CCn1cc(C2=C(c3cn(C)c4ccccc34)C(=O)NC2=O)c2cccnc21

>  <score_type>  (4) 
oracle

>  <origin>  (4) 
adg

>  <m_score__min__energy>  (4) 
-8.4299999999999997

>  <m_primary>  (4) 
energy

$$$$
4:0
     RDKit          3D

 53 56  0  0  0  0  0  0  0  0999 V2000
   63.5790   33.1360   47.1060 C   0  0  0  0  0  0  0  0  0  0  0  0
   63.0610   32.6400   48.4530 C   0  0  0  0  0  0  0  0  0  0  0  0
   61.5970   32.8330   48.5540 N   0  0  0  0  0  0  0  0  0  0  0  0
   61.2440   34.1960   48.9970 C   0  0  0  0  0  0  0  0  0  0  0  0
   60.9330   31.7920   49.3740 C   0  0  0  0  0  0  0  0  0  0  0  0
   60.2990   30.6490   48.5420 C   0  0  0  0  0  0  0  0  0  0  0  0
   60.7760   30.6240   47.1440 N   0  0  0  0  0  0  0  0  0  0  0  0
   59.6880   30.6150   46.1840 C   0  0  0  0  0  0  0  0  0  0  0  0
   59.1120   31.8400   45.7130 C   0  0  0  0  0  0  0  0  0  0  0  0
   59.5910   33.1020   46.1480 C   0  0  0  0  0  0  0  0  0  0  0  0
   58.9850   34.2850   45.7370 C   0  0  0  0  0  0  0  0  0  0  0  0
   57.8860   34.2510   44.8930 C   0  0  0  0  0  0  0  0  0  0  0  0
   57.4010   33.0340   44.4240 C   0  0  0  0  0  0  0  0  0  0  0  0
   58.0170   31.8090   44.7850 C   0  0  0  0  0  0  0  0  0  0  0  0
   57.5690   30.6070   44.2710 N   0  0  0  0  0  0  0  0  0  0  0  0
   56.5610   30.5550   43.1920 C   0  0  0  0  0  0  0  0  0  0  0  0
   58.0780   29.4440   44.7800 C   0  0  0  0  0  0  0  0  0  0  0  0
   57.6440   28.2000   44.4700 N   0  0  0  0  0  0  0  0  0  0  0  0
   58.4240   27.3620   45.1680 C   0  0  0  0  0  0  0  0  0  0  0  0
   58.3380   25.9710   45.1510 C   0  0  0  0  0  0  0  0  0  0  0  0
   59.2360   25.2260   45.9390 C   0  0  0  0  0  0  0  0  0  0  0  0
   59.1800   23.7880   45.9400 N   0  0  0  0  0  0  0  0  0  0  0  0
   58.1240   23.1900   46.2300 O   0  0  0  0  0  0  0  0  0  0  0  0
   60.2960   23.0430   45.6180 O   0  0  0  0  0  0  0  0  0  0  0  0
   60.1940   25.9120   46.7240 C   0  0  0  0  0  0  0  0  0  0  0  0
   60.2600   27.3160   46.7290 C   0  0  0  0  0  0  0  0  0  0  0  0
   59.3520   28.0420   45.9370 C   0  0  0  0  0  0  0  0  0  0  0  0
   59.1210   29.4110   45.7000 C   0  0  0  0  0  0  0  0  0  0  0  0
   64.3646   33.8883   47.2697 H   0  0  0  0  0  0  0  0  0  0  0  0
   63.9940   32.2899   46.5386 H   0  0  0  0  0  0  0  0  0  0  0  0
   62.7517   33.5873   46.5386 H   0  0  0  0  0  0  0  0  0  0  0  0
   63.2921   31.5696   48.5567 H   0  0  0  0  0  0  0  0  0  0  0  0
   63.5495   33.2153   49.2533 H   0  0  0  0  0  0  0  0  0  0  0  0
   61.2343   34.2333   50.0963 H   0  0  0  0  0  0  0  0  0  0  0  0
   61.9867   34.9104   48.6124 H   0  0  0  0  0  0  0  0  0  0  0  0
   60.2478   34.4601   48.6124 H   0  0  0  0  0  0  0  0  0  0  0  0
   61.6816   31.3541   50.0507 H   0  0  0  0  0  0  0  0  0  0  0  0
   60.1130   32.2862   49.9156 H   0  0  0  0  0  0  0  0  0  0  0  0
   60.5502   29.6887   49.0160 H   0  0  0  0  0  0  0  0  0  0  0  0
   59.2128   30.8212   48.5176 H   0  0  0  0  0  0  0  0  0  0  0  0
   61.4340   29.8430   46.9940 H   0  0  0  0  0  0  0  0  0  0  0  0
   61.3790   31.4590   46.9760 H   0  0  0  0  0  0  0  0  0  0  0  0
   60.4582   33.1464   46.8232 H   0  0  0  0  0  0  0  0  0  0  0  0
   59.3798   35.2515   46.0834 H   0  0  0  0  0  0  0  0  0  0  0  0
   57.3958   35.1889   44.5931 H   0  0  0  0  0  0  0  0  0  0  0  0
   56.5234   33.0221   43.7609 H   0  0  0  0  0  0  0  0  0  0  0  0
   55.5545   30.5031   43.6327 H   0  0  0  0  0  0  0  0  0  0  0  0
   56.6428   31.4586   42.5700 H   0  0  0  0  0  0  0  0  0  0  0  0
   56.7353   29.6647   42.5700 H   0  0  0  0  0  0  0  0  0  0  0  0
   56.8540   27.9140   43.8510 H   0  0  0  0  0  0  0  0  0  0  0  0
   57.5821   25.4643   44.5330 H   0  0  0  0  0  0  0  0  0  0  0  0
   60.8993   25.3359   47.3410 H   0  0  0  0  0  0  0  0  0  0  0  0
   61.0092   27.8384   47.3420 H   0  0  0  0  0  0  0  0  0  0  0  0
  1  2  1  0
  2  3  1  0
  3  4  1  0
  3  5  1  0
  5  6  1  0
  6  7  1  0
  7  8  1  0
  8  9  2  0
  9 10  1  0
 10 11  2  0
 11 12  1  0
 12 13  2  0
 13 14  1  0
 14 15  2  0
 15 16  1  0
 15 17  1  0
 17 18  1  0
 18 19  1  0
 19 20  2  0
 20 21  1  0
 21 22  1  0
 22 23  2  0
 22 24  1  0
 21 25  2  0
 25 26  1  0
 26 27  2  0
 27 28  1  0
 28  8  1  0
 14  9  1  0
 28 17  2  0
 27 19  1  0
  1 29  1  0
  1 30  1  0
  1 31  1  0
  2 32  1  0
  2 33  1  0
  4 34  1  0
  4 35  1  0
  4 36  1  0
  5 37  1  0
  5 38  1  0
  6 39  1  0
  6 40  1  0
  7 41  1  0
  7 42  1  0
 10 43  1  0
 11 44  1  0
 12 45  1  0
 13 46  1  0
 16 47  1  0
 16 48  1  0
 16 49  1  0
 18 50  1  0
 20 51  1  0
 25 52  1  0
 26 53  1  0
M  CHG  4   7   1  15   1  22   1  24  -1
M  END
>  <UniqueID>  (5) 
5

>  <SMILES>  (5) 
CCN(C)CC[NH2+]c1c2ccccc2[n+](C)c2[nH]c3cc([N+](=O)[O-])ccc3c12

>  <Energy>  (5) 
120.31766451550251

>  <Genealogy>  (5) 
CCN(C)CC[NH2+]c1c2ccccc2[n+](C)c2[nH]c3cc([N+](=O)[O-])ccc3c12 (protonated)
CCN(C)CC[NH2+]c1c2ccccc2[n+](C)c2[nH]c3cc([N+](=O)[O-])ccc3c12 (3D coordinates assigned)
CCN(C)CC[NH2+]c1c2ccccc2[n+](C)c2[nH]c3cc([N+](=O)[O-])ccc3c12 (optimized conformer: 120.31766451550251 kcal/mol)

>  <smiles>  (5) 
CCN(C)CCNc1c2ccccc2[n+](C)c2[nH]c3cc([N+](=O)[O-])ccc3c12

>  <score_type>  (5) 
oracle

>  <origin>  (5) 
adg

>  <m_score__min__energy>  (5) 
-5.2999999999999998

>  <m_primary>  (5) 
energy

$$$$
5:0
     RDKit          3D

 56 57  0  0  0  0  0  0  0  0999 V2000
   62.0610   31.6190   47.2480 C   0  0  0  0  0  0  0  0  0  0  0  0
   61.6350   30.6730   48.3730 C   0  0  0  0  0  0  0  0  0  0  0  0
   60.3200   31.0230   48.9390 N   0  0  0  0  0  0  0  0  0  0  0  0
   59.4850   29.8410   49.2510 C   0  0  0  0  0  0  0  0  0  0  0  0
   60.2470   28.5230   49.0110 C   0  0  0  0  0  0  0  0  0  0  0  0
   59.5650   27.6360   47.9590 C   0  0  0  0  0  0  0  0  0  0  0  0
   59.1170   28.4320   46.7580 C   0  0  0  0  0  0  0  0  0  0  0  0
   60.0330   29.2190   46.0440 C   0  0  0  0  0  0  0  0  0  0  0  0
   59.6090   29.9790   44.9500 C   0  0  0  0  0  0  0  0  0  0  0  0
   58.2590   29.9630   44.5510 C   0  0  0  0  0  0  0  0  0  0  0  0
   57.7900   30.7280   43.4230 N   0  0  0  0  0  0  0  0  0  0  0  0
   57.4210   32.1420   43.4790 C   0  0  0  0  0  0  0  0  0  0  0  0
   57.9780   32.7900   44.7200 C   0  0  0  0  0  0  0  0  0  0  0  0
   57.4050   32.5410   45.9760 C   0  0  0  0  0  0  0  0  0  0  0  0
   57.9380   33.1310   47.1260 C   0  0  0  0  0  0  0  0  0  0  0  0
   59.0500   33.9830   47.0360 C   0  0  0  0  0  0  0  0  0  0  0  0
   59.6400   34.6070   48.2850 C   0  0  0  0  0  0  0  0  0  0  0  0
   60.1690   33.6210   49.2540 N   0  0  0  0  0  0  0  0  0  0  0  0
   59.3290   33.5000   50.4570 C   0  0  0  0  0  0  0  0  0  0  0  0
   61.5720   33.8770   49.6160 C   0  0  0  0  0  0  0  0  0  0  0  0
   59.6070   34.2540   45.7760 C   0  0  0  0  0  0  0  0  0  0  0  0
   59.0740   33.6620   44.6260 C   0  0  0  0  0  0  0  0  0  0  0  0
   57.3460   29.1840   45.2770 C   0  0  0  0  0  0  0  0  0  0  0  0
   57.7690   28.4230   46.3690 C   0  0  0  0  0  0  0  0  0  0  0  0
   62.4761   32.5408   47.6815 H   0  0  0  0  0  0  0  0  0  0  0  0
   62.8255   31.1293   46.6269 H   0  0  0  0  0  0  0  0  0  0  0  0
   61.1876   31.8669   46.6269 H   0  0  0  0  0  0  0  0  0  0  0  0
   61.5855   29.6495   47.9731 H   0  0  0  0  0  0  0  0  0  0  0  0
   62.3784   30.7575   49.1793 H   0  0  0  0  0  0  0  0  0  0  0  0
   60.4960   31.5440   49.8310 H   0  0  0  0  0  0  0  0  0  0  0  0
   59.8260   31.6880   48.2970 H   0  0  0  0  0  0  0  0  0  0  0  0
   59.1802   29.8890   50.3068 H   0  0  0  0  0  0  0  0  0  0  0  0
   58.6091   29.8557   48.5858 H   0  0  0  0  0  0  0  0  0  0  0  0
   61.2644   28.7607   48.6668 H   0  0  0  0  0  0  0  0  0  0  0  0
   60.2623   27.9667   49.9599 H   0  0  0  0  0  0  0  0  0  0  0  0
   60.2762   26.8643   47.6292 H   0  0  0  0  0  0  0  0  0  0  0  0
   58.6746   27.1833   48.4198 H   0  0  0  0  0  0  0  0  0  0  0  0
   61.0904   29.2381   46.3466 H   0  0  0  0  0  0  0  0  0  0  0  0
   60.3349   30.5935   44.3973 H   0  0  0  0  0  0  0  0  0  0  0  0
   57.7620   30.2660   42.4850 H   0  0  0  0  0  0  0  0  0  0  0  0
   57.8224   32.6551   42.5927 H   0  0  0  0  0  0  0  0  0  0  0  0
   56.3240   32.2202   43.5017 H   0  0  0  0  0  0  0  0  0  0  0  0
   56.5312   31.8777   46.0566 H   0  0  0  0  0  0  0  0  0  0  0  0
   57.4835   32.9265   48.1066 H   0  0  0  0  0  0  0  0  0  0  0  0
   60.4622   35.2731   47.9845 H   0  0  0  0  0  0  0  0  0  0  0  0
   58.8242   35.1454   48.7896 H   0  0  0  0  0  0  0  0  0  0  0  0
   59.9586   33.5907   51.3544 H   0  0  0  0  0  0  0  0  0  0  0  0
   58.5723   34.2984   50.4577 H   0  0  0  0  0  0  0  0  0  0  0  0
   58.8285   32.5205   50.4577 H   0  0  0  0  0  0  0  0  0  0  0  0
   61.6706   33.8950   50.7114 H   0  0  0  0  0  0  0  0  0  0  0  0
   62.2083   33.0801   49.2036 H   0  0  0  0  0  0  0  0  0  0  0  0
   61.8859   34.8473   49.2036 H   0  0  0  0  0  0  0  0  0  0  0  0
   60.4667   34.9352   45.6927 H   0  0  0  0  0  0  0  0  0  0  0  0
   59.5161   33.8810   43.6429 H   0  0  0  0  0  0  0  0  0  0  0  0
   56.2860   29.1724   44.9833 H   0  0  0  0  0  0  0  0  0  0  0  0
   57.0422   27.8139   46.9265 H   0  0  0  0  0  0  0  0  0  0  0  0
  1  2  1  0
  2  3  1  0
  3  4  1  0
  4  5  1  0
  5  6  1  0
  6  7  1  0
  7  8  2  0
  8  9  1  0
  9 10  2  0
 10 11  1  0
 11 12  1  0
 12 13  1  0
 13 14  2  0
 14 15  1  0
 15 16  2  0
 16 17  1  0
 17 18  1  0
 18 19  1  0
 18 20  1  0
 16 21  1  0
 21 22  2  0
 10 23  1  0
 23 24  2  0
 24  7  1  0
 22 13  1  0
  1 25  1  0
  1 26  1  0
  1 27  1  0
  2 28  1  0
  2 29  1  0
  3 30  1  0
  3 31  1  0
  4 32  1  0
  4 33  1  0
  5 34  1  0
  5 35  1  0
  6 36  1  0
  6 37  1  0
  8 38  1  0
  9 39  1  0
 11 40  1  0
 12 41  1  0
 12 42  1  0
 14 43  1  0
 15 44  1  0
 17 45  1  0
 17 46  1  0
 19 47  1  0
 19 48  1  0
 19 49  1  0
 20 50  1  0
 20 51  1  0
 20 52  1  0
 21 53  1  0
 22 54  1  0
 23 55  1  0
 24 56  1  0
M  CHG  1   3   1
M  END
>  <UniqueID>  (6) 
6

>  <SMILES>  (6) 
CC[NH2+]CCCc1ccc(NCc2ccc(CN(C)C)cc2)cc1

>  <Energy>  (6) 
51.85741518076927

>  <Genealogy>  (6) 
CC[NH2+]CCCc1ccc(NCc2ccc(CN(C)C)cc2)cc1 (protonated)
CC[NH2+]CCCc1ccc(NCc2ccc(CN(C)C)cc2)cc1 (3D coordinates assigned)
CC[NH2+]CCCc1ccc(NCc2ccc(CN(C)C)cc2)cc1 (optimized conformer: 51.85741518076927 kcal/mol)

>  <smiles>  (6) 
CCNCCCc1ccc(NCc2ccc(CN(C)C)cc2)cc1

>  <score_type>  (6) 
oracle

>  <origin>  (6) 
adg

>  <m_score__min__energy>  (6) 
-6.2199999999999998

>  <m_primary>  (6) 
energy

$$$$
6:0
     RDKit          3D

 52 55  0  0  0  0  0  0  0  0999 V2000
   56.6140   29.3840   42.7600 C   0  0  0  0  0  0  0  0  0  0  0  0
   56.1440   29.6930   44.1840 C   0  0  0  0  0  0  0  0  0  0  0  0
   56.1740   31.1310   44.4920 N   0  0  0  0  0  0  0  0  0  0  0  0
   57.3020   31.8140   43.8460 C   0  0  0  0  0  0  0  0  0  0  0  0
   58.4990   31.8450   44.7950 C   0  0  0  0  0  0  0  0  0  0  0  0
   58.1230   31.3940   46.1370 N   0  0  0  0  0  0  0  0  0  0  0  0
   59.0780   30.9160   47.1020 C   0  0  0  0  0  0  0  0  0  0  0  0
   59.1980   29.5390   47.3690 C   0  0  0  0  0  0  0  0  0  0  0  0
   60.1310   29.0970   48.3460 C   0  0  0  0  0  0  0  0  0  0  0  0
   60.8720   30.0190   49.0630 N   0  0  0  0  0  0  0  0  0  0  0  0
   61.6820   29.5790   50.2170 C   0  0  0  0  0  0  0  0  0  0  0  0
   60.8360   31.3560   48.7220 C   0  0  0  0  0  0  0  0  0  0  0  0
   59.8640   31.8360   47.8140 C   0  0  0  0  0  0  0  0  0  0  0  0
   59.7620   33.3340   47.5220 C   0  0  0  0  0  0  0  0  0  0  0  0
   60.1620   34.2050   48.7250 C   0  0  0  0  0  0  0  0  0  0  0  0
   61.4710   33.7260   49.2670 C   0  0  0  0  0  0  0  0  0  0  0  0
   62.5060   34.5500   49.7290 C   0  0  0  0  0  0  0  0  0  0  0  0
   63.6470   33.8410   50.0840 C   0  0  0  0  0  0  0  0  0  0  0  0
   63.3560   32.2040   49.8180 S   0  0  0  0  0  0  0  0  0  0  0  0
   61.7600   32.3730   49.3010 C   0  0  0  0  0  0  0  0  0  0  0  0
   60.2370   27.6080   48.6740 C   0  0  0  0  0  0  0  0  0  0  0  0
   59.6350   26.6890   47.6130 C   0  0  0  0  0  0  0  0  0  0  0  0
   58.2480   27.1840   47.2320 C   0  0  0  0  0  0  0  0  0  0  0  0
   58.3660   28.5510   46.5670 C   0  0  0  0  0  0  0  0  0  0  0  0
   57.5325   28.7801   42.8000 H   0  0  0  0  0  0  0  0  0  0  0  0
   55.8302   28.8245   42.2285 H   0  0  0  0  0  0  0  0  0  0  0  0
   56.8170   30.3254   42.2285 H   0  0  0  0  0  0  0  0  0  0  0  0
   55.1124   29.3295   44.3008 H   0  0  0  0  0  0  0  0  0  0  0  0
   56.8335   29.1900   44.8780 H   0  0  0  0  0  0  0  0  0  0  0  0
   55.2780   31.5710   44.1730 H   0  0  0  0  0  0  0  0  0  0  0  0
   57.5778   31.2753   42.9275 H   0  0  0  0  0  0  0  0  0  0  0  0
   57.0087   32.8445   43.5968 H   0  0  0  0  0  0  0  0  0  0  0  0
   59.2858   31.1844   44.4018 H   0  0  0  0  0  0  0  0  0  0  0  0
   58.8615   32.8812   44.8646 H   0  0  0  0  0  0  0  0  0  0  0  0
   57.1200   31.4530   46.4220 H   0  0  0  0  0  0  0  0  0  0  0  0
   61.1710   29.8566   51.1507 H   0  0  0  0  0  0  0  0  0  0  0  0
   61.8104   28.4872   50.1799 H   0  0  0  0  0  0  0  0  0  0  0  0
   62.6678   30.0656   50.1799 H   0  0  0  0  0  0  0  0  0  0  0  0
   60.4262   33.5735   46.6785 H   0  0  0  0  0  0  0  0  0  0  0  0
   58.7099   33.5548   47.2889 H   0  0  0  0  0  0  0  0  0  0  0  0
   60.2581   35.2529   48.4045 H   0  0  0  0  0  0  0  0  0  0  0  0
   59.3906   34.1325   49.5058 H   0  0  0  0  0  0  0  0  0  0  0  0
   62.4237   35.6444   49.8029 H   0  0  0  0  0  0  0  0  0  0  0  0
   64.5803   34.2747   50.4722 H   0  0  0  0  0  0  0  0  0  0  0  0
   61.3015   27.3544   48.7863 H   0  0  0  0  0  0  0  0  0  0  0  0
   59.6606   27.4457   49.5967 H   0  0  0  0  0  0  0  0  0  0  0  0
   60.2801   26.6876   46.7220 H   0  0  0  0  0  0  0  0  0  0  0  0
   59.5591   25.6684   48.0162 H   0  0  0  0  0  0  0  0  0  0  0  0
   57.7838   26.4737   46.5320 H   0  0  0  0  0  0  0  0  0  0  0  0
   57.6250   27.2659   48.1349 H   0  0  0  0  0  0  0  0  0  0  0  0
   58.8342   28.4202   45.5802 H   0  0  0  0  0  0  0  0  0  0  0  0
   57.3500   28.9658   46.4915 H   0  0  0  0  0  0  0  0  0  0  0  0
  1  2  1  0
  2  3  1  0
  3  4  1  0
  4  5  1  0
  5  6  1  0
  6  7  1  0
  7  8  2  0
  8  9  1  0
  9 10  2  0
 10 11  1  0
 10 12  1  0
 12 13  2  0
 13 14  1  0
 14 15  1  0
 15 16  1  0
 16 17  1  0
 17 18  2  0
 18 19  1  0
 19 20  1  0
  9 21  1  0
 21 22  1  0
 22 23  1  0
 23 24  1  0
 13  7  1  0
 20 16  2  0
 24  8  1  0
 20 12  1  0
  1 25  1  0
  1 26  1  0
  1 27  1  0
  2 28  1  0
  2 29  1  0
  3 30  1  0
  4 31  1  0
  4 32  1  0
  5 33  1  0
  5 34  1  0
  6 35  1  0
 11 36  1  0
 11 37  1  0
 11 38  1  0
 14 39  1  0
 14 40  1  0
 15 41  1  0
 15 42  1  0
 17 43  1  0
 18 44  1  0
 21 45  1  0
 21 46  1  0
 22 47  1  0
 22 48  1  0
 23 49  1  0
 23 50  1  0
 24 51  1  0
 24 52  1  0
M  CHG  1  10   1
M  END
>  <UniqueID>  (7) 
7

>  <SMILES>  (7) 
CCNCCNc1c2c([n+](C)c3c1CCc1ccsc1-3)CCCC2

>  <Energy>  (7) 
98.46497820261442

>  <Genealogy>  (7) 
CCNCCNc1c2c([n+](C)c3c1CCc1ccsc1-3)CCCC2 (3D coordinates assigned)
CCNCCNc1c2c([n+](C)c3c1CCc1ccsc1-3)CCCC2 (nonaromatic ring conformer: 98.46497820261442 kcal/mol)

>  <smiles>  (7) 
CCNCCNc1c2c([n+](C)c3c1CCc1ccsc1-3)CCCC2

>  <score_type>  (7) 
oracle

>  <origin>  (7) 
adg

>  <m_score__min__energy>  (7) 
-6.5099999999999998

>  <m_primary>  (7) 
energy

$$$$
7:0
     RDKit          3D

 40 41  0  0  0  0  0  0  0  0999 V2000
   56.6120   29.9370   42.5040 C   0  0  0  0  0  0  0  0  0  0  0  0
   56.2870   29.3730   43.8850 C   0  0  0  0  0  0  0  0  0  0  0  0
   56.0670   30.4620   44.8470 N   0  0  0  0  0  0  0  0  0  0  0  0
   57.0020   31.5730   44.6230 C   0  0  0  0  0  0  0  0  0  0  0  0
   57.9990   31.6640   45.7750 C   0  0  0  0  0  0  0  0  0  0  0  0
   57.8280   30.5530   46.6290 O   0  0  0  0  0  0  0  0  0  0  0  0
   59.0820   30.0100   47.0000 C   0  0  0  0  0  0  0  0  0  0  0  0
   59.1480   28.5190   46.6540 C   0  0  0  0  0  0  0  0  0  0  0  0
   57.8400   28.0220   46.2290 N   0  0  0  0  0  0  0  0  0  0  0  0
   57.5680   26.6240   46.0270 C   0  0  0  0  0  0  0  0  0  0  0  0
   58.5960   25.7380   45.9470 N   0  0  0  0  0  0  0  0  0  0  0  0
   58.3880   24.4350   45.7630 N   0  0  0  0  0  0  0  0  0  0  0  0
   59.4780   23.5970   45.6900 O   0  0  0  0  0  0  0  0  0  0  0  0
   57.1210   23.9440   45.6500 C   0  0  0  0  0  0  0  0  0  0  0  0
   56.8780   22.5730   45.4540 C   0  0  0  0  0  0  0  0  0  0  0  0
   55.5680   22.1010   45.3410 C   0  0  0  0  0  0  0  0  0  0  0  0
   54.4940   22.9890   45.4220 C   0  0  0  0  0  0  0  0  0  0  0  0
   54.7210   24.3540   45.6150 C   0  0  0  0  0  0  0  0  0  0  0  0
   56.0360   24.8440   45.7310 C   0  0  0  0  0  0  0  0  0  0  0  0
   56.2840   26.1750   45.9210 N   0  0  0  0  0  0  0  0  0  0  0  0
   55.2390   27.0700   45.9970 O   0  0  0  0  0  0  0  0  0  0  0  0
   57.1584   30.8853   42.6145 H   0  0  0  0  0  0  0  0  0  0  0  0
   57.2341   29.2176   41.9512 H   0  0  0  0  0  0  0  0  0  0  0  0
   55.6777   30.1145   41.9512 H   0  0  0  0  0  0  0  0  0  0  0  0
   55.3772   28.7581   43.8200 H   0  0  0  0  0  0  0  0  0  0  0  0
   57.1344   28.7612   44.2279 H   0  0  0  0  0  0  0  0  0  0  0  0
   56.2530   30.0820   45.8050 H   0  0  0  0  0  0  0  0  0  0  0  0
   57.5476   31.4046   43.6828 H   0  0  0  0  0  0  0  0  0  0  0  0
   56.4343   32.5134   44.5648 H   0  0  0  0  0  0  0  0  0  0  0  0
   59.0236   31.6656   45.3749 H   0  0  0  0  0  0  0  0  0  0  0  0
   57.8264   32.5924   46.3392 H   0  0  0  0  0  0  0  0  0  0  0  0
   59.8799   30.5418   46.4610 H   0  0  0  0  0  0  0  0  0  0  0  0
   59.2121   30.1280   48.0859 H   0  0  0  0  0  0  0  0  0  0  0  0
   59.8716   28.3704   45.8390 H   0  0  0  0  0  0  0  0  0  0  0  0
   59.4595   27.9641   47.5513 H   0  0  0  0  0  0  0  0  0  0  0  0
   57.0740   28.7210   46.1070 H   0  0  0  0  0  0  0  0  0  0  0  0
   57.7217   21.8702   45.3895 H   0  0  0  0  0  0  0  0  0  0  0  0
   55.3825   21.0276   45.1879 H   0  0  0  0  0  0  0  0  0  0  0  0
   53.4643   22.6124   45.3335 H   0  0  0  0  0  0  0  0  0  0  0  0
   53.8698   25.0481   45.6765 H   0  0  0  0  0  0  0  0  0  0  0  0
  1  2  1  0
  2  3  1  0
  3  4  1  0
  4  5  1  0
  5  6  1  0
  6  7  1  0
  7  8  1  0
  8  9  1  0
  9 10  1  0
 10 11  2  0
 11 12  1  0
 12 13  1  0
 12 14  2  0
 14 15  1  0
 15 16  2  0
 16 17  1  0
 17 18  2  0
 18 19  1  0
 19 20  2  0
 20 21  1  0
 20 10  1  0
 19 14  1  0
  1 22  1  0
  1 23  1  0
  1 24  1  0
  2 25  1  0
  2 26  1  0
  3 27  1  0
  4 28  1  0
  4 29  1  0
  5 30  1  0
  5 31  1  0
  7 32  1  0
  7 33  1  0
  8 34  1  0
  8 35  1  0
  9 36  1  0
 15 37  1  0
 16 38  1  0
 17 39  1  0
 18 40  1  0
M  CHG  4  12   1  13  -1  20   1  21  -1
M  END
>  <UniqueID>  (8) 
8

>  <SMILES>  (8) 
CCNCCOCCNc1n[n+]([O-])c2ccccc2[n+]1[O-]

>  <Energy>  (8) 
39.2513836153088

>  <Genealogy>  (8) 
CCNCCOCCNc1n[n+]([O-])c2ccccc2[n+]1[O-] (3D coordinates assigned)
CCNCCOCCNc1n[n+]([O-])c2ccccc2[n+]1[O-] (optimized conformer: 39.2513836153088 kcal/mol)

>  <smiles>  (8) 
CCNCCOCCNc1n[n+]([O-])c2ccccc2[n+]1[O-]

>  <score_type>  (8) 
oracle

>  <origin>  (8) 
adg

>  <m_score__min__energy>  (8) 
-6.7400000000000002

>  <m_primary>  (8) 
energy

$$$$
8:0
     RDKit          3D

 72 74  0  0  0  0  0  0  0  0999 V2000
   60.7080   28.8310   45.2100 C   0  0  0  0  0  0  0  0  0  0  0  0
   60.2800   30.0310   46.0490 C   0  0  0  0  0  0  0  0  0  0  0  0
   59.0860   29.6950   46.8540 N   0  0  0  0  0  0  0  0  0  0  0  0
   57.8410   29.6770   46.0510 C   0  0  0  0  0  0  0  0  0  0  0  0
   57.8160   30.6990   44.9030 C   0  0  0  0  0  0  0  0  0  0  0  0
   59.2850   28.4640   47.6530 C   0  0  0  0  0  0  0  0  0  0  0  0
   59.3000   28.7730   49.0900 N   0  0  0  0  0  0  0  0  0  0  0  0
   60.5420   28.2940   49.7150 C   0  0  0  0  0  0  0  0  0  0  0  0
   60.3540   28.0950   51.2260 C   0  0  0  0  0  0  0  0  0  0  0  0
   59.6090   29.2490   51.9040 C   0  0  0  0  0  0  0  0  0  0  0  0
   58.3090   29.3650   51.3640 O   0  0  0  0  0  0  0  0  0  0  0  0
   57.3770   29.7270   52.3690 C   0  0  0  0  0  0  0  0  0  0  0  0
   56.7640   31.0890   52.0540 C   0  0  0  0  0  0  0  0  0  0  0  0
   57.6060   32.1130   52.5420 O   0  0  0  0  0  0  0  0  0  0  0  0
   58.6050   32.4320   51.5930 C   0  0  0  0  0  0  0  0  0  0  0  0
   58.0940   32.1520   50.1750 C   0  0  0  0  0  0  0  0  0  0  0  0
   59.0420   31.3070   49.4280 N   0  0  0  0  0  0  0  0  0  0  0  0
   60.0620   32.1190   48.7830 C   0  0  0  0  0  0  0  0  0  0  0  0
   59.7280   32.9680   47.6940 C   0  0  0  0  0  0  0  0  0  0  0  0
   58.3830   33.1890   47.3060 C   0  0  0  0  0  0  0  0  0  0  0  0
   58.0690   34.0460   46.2550 C   0  0  0  0  0  0  0  0  0  0  0  0
   59.0780   34.7170   45.5790 C   0  0  0  0  0  0  0  0  0  0  0  0
   60.4080   34.5240   45.9380 C   0  0  0  0  0  0  0  0  0  0  0  0
   60.7660   33.6300   46.9800 C   0  0  0  0  0  0  0  0  0  0  0  0
   62.0870   33.4130   47.3150 N   0  0  0  0  0  0  0  0  0  0  0  0
   63.1640   33.8280   46.3880 C   0  0  0  0  0  0  0  0  0  0  0  0
   62.4030   32.8050   48.5130 C   0  0  0  0  0  0  0  0  0  0  0  0
   63.7190   32.8580   49.0400 C   0  0  0  0  0  0  0  0  0  0  0  0
   64.0450   32.2180   50.2320 C   0  0  0  0  0  0  0  0  0  0  0  0
   63.0730   31.5230   50.9380 C   0  0  0  0  0  0  0  0  0  0  0  0
   61.7630   31.4790   50.4660 C   0  0  0  0  0  0  0  0  0  0  0  0
   61.3990   32.1230   49.2570 C   0  0  0  0  0  0  0  0  0  0  0  0
   61.0025   28.0053   45.8745 H   0  0  0  0  0  0  0  0  0  0  0  0
   59.8691   28.5095   44.5753 H   0  0  0  0  0  0  0  0  0  0  0  0
   61.5610   29.1129   44.5753 H   0  0  0  0  0  0  0  0  0  0  0  0
   61.1027   30.3155   46.7215 H   0  0  0  0  0  0  0  0  0  0  0  0
   60.0352   30.8676   45.3780 H   0  0  0  0  0  0  0  0  0  0  0  0
   57.7229   28.6717   45.6204 H   0  0  0  0  0  0  0  0  0  0  0  0
   57.0215   29.9479   46.7329 H   0  0  0  0  0  0  0  0  0  0  0  0
   57.7911   31.7170   45.3189 H   0  0  0  0  0  0  0  0  0  0  0  0
   58.7174   30.5776   44.2843 H   0  0  0  0  0  0  0  0  0  0  0  0
   56.9216   30.5337   44.2843 H   0  0  0  0  0  0  0  0  0  0  0  0
   58.4651   27.7612   47.4435 H   0  0  0  0  0  0  0  0  0  0  0  0
   60.2515   28.0166   47.3778 H   0  0  0  0  0  0  0  0  0  0  0  0
   58.5010   28.2530   49.5230 H   0  0  0  0  0  0  0  0  0  0  0  0
   60.8283   27.3351   49.2584 H   0  0  0  0  0  0  0  0  0  0  0  0
   61.3286   29.0460   49.5549 H   0  0  0  0  0  0  0  0  0  0  0  0
   59.7828   27.1688   51.3872 H   0  0  0  0  0  0  0  0  0  0  0  0
   61.3573   28.0484   51.6745 H   0  0  0  0  0  0  0  0  0  0  0  0
   59.5392   29.0534   52.9842 H   0  0  0  0  0  0  0  0  0  0  0  0
   60.1582   30.1862   51.7306 H   0  0  0  0  0  0  0  0  0  0  0  0
   56.5791   28.9711   52.4138 H   0  0  0  0  0  0  0  0  0  0  0  0
   57.8966   29.7826   53.3369 H   0  0  0  0  0  0  0  0  0  0  0  0
   56.6507   31.1963   50.9651 H   0  0  0  0  0  0  0  0  0  0  0  0
   55.7785   31.1660   52.5366 H   0  0  0  0  0  0  0  0  0  0  0  0
   58.8647   33.4972   51.6823 H   0  0  0  0  0  0  0  0  0  0  0  0
   59.4937   31.8125   51.7841 H   0  0  0  0  0  0  0  0  0  0  0  0
   57.1246   31.6359   50.2376 H   0  0  0  0  0  0  0  0  0  0  0  0
   57.9876   33.1105   49.6458 H   0  0  0  0  0  0  0  0  0  0  0  0
   59.4750   30.5990   50.0640 H   0  0  0  0  0  0  0  0  0  0  0  0
   58.5390   30.7230   48.7230 H   0  0  0  0  0  0  0  0  0  0  0  0
   57.5734   32.6746   47.8445 H   0  0  0  0  0  0  0  0  0  0  0  0
   57.0194   34.1915   45.9599 H   0  0  0  0  0  0  0  0  0  0  0  0
   58.8256   35.4032   44.7572 H   0  0  0  0  0  0  0  0  0  0  0  0
   61.1967   35.0746   45.4043 H   0  0  0  0  0  0  0  0  0  0  0  0
   64.0367   34.1643   46.9670 H   0  0  0  0  0  0  0  0  0  0  0  0
   63.4507   32.9760   45.7541 H   0  0  0  0  0  0  0  0  0  0  0  0
   62.8048   34.6521   45.7541 H   0  0  0  0  0  0  0  0  0  0  0  0
   64.4962   33.4153   48.4964 H   0  0  0  0  0  0  0  0  0  0  0  0
   65.0750   32.2630   50.6154 H   0  0  0  0  0  0  0  0  0  0  0  0
   63.3375   31.0059   51.8721 H   0  0  0  0  0  0  0  0  0  0  0  0
   60.9987   30.9356   51.0410 H   0  0  0  0  0  0  0  0  0  0  0  0
  1  2  1  0
  2  3  1  0
  3  4  1  0
  4  5  1  0
  3  6  1  0
  6  7  1  0
  7  8  1  0
  8  9  1  0
  9 10  1  0
 10 11  1  0
 11 12  1  0
 12 13  1  0
 13 14  1  0
 14 15  1  0
 15 16  1  0
 16 17  1  0
 17 18  1  0
 18 19  2  0
 19 20  1  0
 20 21  2  0
 21 22  1  0
 22 23  2  0
 23 24  1  0
 24 25  2  0
 25 26  1  0
 25 27  1  0
 27 28  2  0
 28 29  1  0
 29 30  2  0
 30 31  1  0
 31 32  2  0
 32 18  1  0
 24 19  1  0
 32 27  1  0
  1 33  1  0
  1 34  1  0
  1 35  1  0
  2 36  1  0
  2 37  1  0
  4 38  1  0
  4 39  1  0
  5 40  1  0
  5 41  1  0
  5 42  1  0
  6 43  1  0
  6 44  1  0
  7 45  1  0
  8 46  1  0
  8 47  1  0
  9 48  1  0
  9 49  1  0
 10 50  1  0
 10 51  1  0
 12 52  1  0
 12 53  1  0
 13 54  1  0
 13 55  1  0
 15 56  1  0
 15 57  1  0
 16 58  1  0
 16 59  1  0
 17 60  1  0
 17 61  1  0
 20 62  1  0
 21 63  1  0
 22 64  1  0
 23 65  1  0
 26 66  1  0
 26 67  1  0
 26 68  1  0
 28 69  1  0
 29 70  1  0
 30 71  1  0
 31 72  1  0
M  CHG  2  17   1  25   1
M  END
>  <UniqueID>  (9) 
9

>  <SMILES>  (9) 
CCN(CC)CNCCCOCCOCC[NH2+]c1c2ccccc2[n+](C)c2ccccc12

>  <Energy>  (9) 
96.16767038300756

>  <Genealogy>  (9) 
CCN(CC)CNCCCOCCOCC[NH2+]c1c2ccccc2[n+](C)c2ccccc12 (protonated)
CCN(CC)CNCCCOCCOCC[NH2+]c1c2ccccc2[n+](C)c2ccccc12 (3D coordinates assigned)
CCN(CC)CNCCCOCCOCC[NH2+]c1c2ccccc2[n+](C)c2ccccc12 (optimized conformer: 96.16767038300756 kcal/mol)

>  <smiles>  (9) 
CCN(CC)CNCCCOCCOCCNc1c2ccccc2[n+](C)c2ccccc12

>  <score_type>  (9) 
oracle

>  <origin>  (9) 
adg

>  <m_score__min__energy>  (9) 
-3.5800000000000001

>  <m_primary>  (9) 
energy

$$$$
10:0
     RDKit          3D

 79 81  0  0  0  0  0  0  0  0999 V2000
   62.2150   29.6000   51.8380 C   0  0  0  0  0  0  0  0  0  0  0  0
   61.4670   28.6780   50.8810 C   0  0  0  0  0  0  0  0  0  0  0  0
   60.0350   28.9920   50.8930 N   0  0  0  0  0  0  0  0  0  0  0  0
   59.5100   28.9170   52.2610 C   0  0  0  0  0  0  0  0  0  0  0  0
   58.0820   29.4570   52.3060 C   0  0  0  0  0  0  0  0  0  0  0  0
   57.7850   30.0690   51.0680 O   0  0  0  0  0  0  0  0  0  0  0  0
   56.9890   31.2170   51.2770 C   0  0  0  0  0  0  0  0  0  0  0  0
   57.8830   32.4550   51.2500 C   0  0  0  0  0  0  0  0  0  0  0  0
   59.2910   32.0870   51.0850 N   0  0  0  0  0  0  0  0  0  0  0  0
   60.2790   33.0680   50.7520 C   0  0  0  0  0  0  0  0  0  0  0  0
   59.9360   34.1610   50.2300 O   0  0  0  0  0  0  0  0  0  0  0  0
   61.7300   32.8030   51.0200 C   0  0  0  0  0  0  0  0  0  0  0  0
   62.5700   33.9280   50.5650 N   0  0  0  0  0  0  0  0  0  0  0  0
   63.6210   34.2370   51.5470 C   0  0  0  0  0  0  0  0  0  0  0  0
   63.0780   33.8030   49.1750 C   0  0  0  0  0  0  0  0  0  0  0  0
   63.2440   32.3600   48.6420 C   0  0  0  0  0  0  0  0  0  0  0  0
   62.6640   32.2030   47.2910 N   0  0  0  0  0  0  0  0  0  0  0  0
   62.2030   33.4850   46.7280 C   0  0  0  0  0  0  0  0  0  0  0  0
   61.6320   31.1450   47.2200 C   0  0  0  0  0  0  0  0  0  0  0  0
   61.0360   30.7640   48.5870 C   0  0  0  0  0  0  0  0  0  0  0  0
   59.6250   30.4170   48.4320 N   0  0  0  0  0  0  0  0  0  0  0  0
   58.9270   30.5100   47.1760 C   0  0  0  0  0  0  0  0  0  0  0  0
   58.7440   29.3580   46.3950 C   0  0  0  0  0  0  0  0  0  0  0  0
   59.1140   28.0900   46.8890 C   0  0  0  0  0  0  0  0  0  0  0  0
   58.9780   26.9510   46.1000 C   0  0  0  0  0  0  0  0  0  0  0  0
   58.5050   27.0580   44.7990 C   0  0  0  0  0  0  0  0  0  0  0  0
   58.1270   28.3010   44.2910 C   0  0  0  0  0  0  0  0  0  0  0  0
   58.1830   29.4700   45.0940 C   0  0  0  0  0  0  0  0  0  0  0  0
   57.7280   30.6930   44.6380 N   0  0  0  0  0  0  0  0  0  0  0  0
   56.9370   30.7750   43.3890 C   0  0  0  0  0  0  0  0  0  0  0  0
   57.9960   31.8450   45.3550 C   0  0  0  0  0  0  0  0  0  0  0  0
   57.7430   33.1340   44.8170 C   0  0  0  0  0  0  0  0  0  0  0  0
   57.9870   34.2880   45.5610 C   0  0  0  0  0  0  0  0  0  0  0  0
   58.5190   34.1950   46.8400 C   0  0  0  0  0  0  0  0  0  0  0  0
   58.8260   32.9490   47.3770 C   0  0  0  0  0  0  0  0  0  0  0  0
   58.5760   31.7640   46.6500 C   0  0  0  0  0  0  0  0  0  0  0  0
   61.9848   29.3163   52.8755 H   0  0  0  0  0  0  0  0  0  0  0  0
   63.2974   29.5086   51.6644 H   0  0  0  0  0  0  0  0  0  0  0  0
   61.9024   30.6403   51.6644 H   0  0  0  0  0  0  0  0  0  0  0  0
   61.8606   28.8141   49.8629 H   0  0  0  0  0  0  0  0  0  0  0  0
   61.6091   27.6354   51.2016 H   0  0  0  0  0  0  0  0  0  0  0  0
   59.9160   29.9790   50.5590 H   0  0  0  0  0  0  0  0  0  0  0  0
   59.5132   27.8689   52.5949 H   0  0  0  0  0  0  0  0  0  0  0  0
   60.1450   29.5232   52.9238 H   0  0  0  0  0  0  0  0  0  0  0  0
   57.3799   28.6297   52.4868 H   0  0  0  0  0  0  0  0  0  0  0  0
   57.9874   30.1932   53.1179 H   0  0  0  0  0  0  0  0  0  0  0  0
   56.2328   31.2910   50.4816 H   0  0  0  0  0  0  0  0  0  0  0  0
   56.4832   31.1456   52.2512 H   0  0  0  0  0  0  0  0  0  0  0  0
   57.5795   33.0987   50.4112 H   0  0  0  0  0  0  0  0  0  0  0  0
   57.7713   32.9867   52.2065 H   0  0  0  0  0  0  0  0  0  0  0  0
   59.6070   31.1170   51.3100 H   0  0  0  0  0  0  0  0  0  0  0  0
   61.8752   32.6608   52.1011 H   0  0  0  0  0  0  0  0  0  0  0  0
   62.0275   31.8998   50.4671 H   0  0  0  0  0  0  0  0  0  0  0  0
   63.2188   34.1188   52.5640 H   0  0  0  0  0  0  0  0  0  0  0  0
   64.4683   33.5500   51.4056 H   0  0  0  0  0  0  0  0  0  0  0  0
   63.9617   35.2733   51.4056 H   0  0  0  0  0  0  0  0  0  0  0  0
   62.3757   34.3285   48.5112 H   0  0  0  0  0  0  0  0  0  0  0  0
   64.0904   34.2329   49.1889 H   0  0  0  0  0  0  0  0  0  0  0  0
   64.3161   32.1173   48.5995 H   0  0  0  0  0  0  0  0  0  0  0  0
   62.7113   31.6806   49.3236 H   0  0  0  0  0  0  0  0  0  0  0  0
   61.9543   34.1766   47.5464 H   0  0  0  0  0  0  0  0  0  0  0  0
   63.0005   33.9214   46.1087 H   0  0  0  0  0  0  0  0  0  0  0  0
   61.3102   33.3136   46.1087 H   0  0  0  0  0  0  0  0  0  0  0  0
   60.8162   31.4995   46.5729 H   0  0  0  0  0  0  0  0  0  0  0  0
   62.1239   30.2446   46.8234 H   0  0  0  0  0  0  0  0  0  0  0  0
   61.5817   29.9007   48.9956 H   0  0  0  0  0  0  0  0  0  0  0  0
   61.1267   31.6184   49.2738 H   0  0  0  0  0  0  0  0  0  0  0  0
   59.0750   30.1800   49.2880 H   0  0  0  0  0  0  0  0  0  0  0  0
   59.5147   27.9998   47.9095 H   0  0  0  0  0  0  0  0  0  0  0  0
   59.2456   25.9651   46.5078 H   0  0  0  0  0  0  0  0  0  0  0  0
   58.4282   26.1606   44.1675 H   0  0  0  0  0  0  0  0  0  0  0  0
   57.7795   28.3765   43.2501 H   0  0  0  0  0  0  0  0  0  0  0  0
   55.8710   30.8855   43.6367 H   0  0  0  0  0  0  0  0  0  0  0  0
   57.2688   31.6436   42.8012 H   0  0  0  0  0  0  0  0  0  0  0  0
   57.0836   29.8568   42.8012 H   0  0  0  0  0  0  0  0  0  0  0  0
   57.3473   33.2243   43.7946 H   0  0  0  0  0  0  0  0  0  0  0  0
   57.7572   35.2750   45.1332 H   0  0  0  0  0  0  0  0  0  0  0  0
   58.6978   35.1068   47.4288 H   0  0  0  0  0  0  0  0  0  0  0  0
   59.2696   32.8857   48.3816 H   0  0  0  0  0  0  0  0  0  0  0  0
  1  2  1  0
  2  3  1  0
  3  4  1  0
  4  5  1  0
  5  6  1  0
  6  7  1  0
  7  8  1  0
  8  9  1  0
  9 10  1  0
 10 11  2  0
 10 12  1  0
 12 13  1  0
 13 14  1  0
 13 15  1  0
 15 16  1  0
 16 17  1  0
 17 18  1  0
 17 19  1  0
 19 20  1  0
 20 21  1  0
 21 22  1  0
 22 23  2  0
 23 24  1  0
 24 25  2  0
 25 26  1  0
 26 27  2  0
 27 28  1  0
 28 29  2  0
 29 30  1  0
 29 31  1  0
 31 32  2  0
 32 33  1  0
 33 34  2  0
 34 35  1  0
 35 36  2  0
 36 22  1  0
 28 23  1  0
 36 31  1  0
  1 37  1  0
  1 38  1  0
  1 39  1  0
  2 40  1  0
  2 41  1  0
  3 42  1  0
  4 43  1  0
  4 44  1  0
  5 45  1  0
  5 46  1  0
  7 47  1  0
  7 48  1  0
  8 49  1  0
  8 50  1  0
  9 51  1  0
 12 52  1  0
 12 53  1  0
 14 54  1  0
 14 55  1  0
 14 56  1  0
 15 57  1  0
 15 58  1  0
 16 59  1  0
 16 60  1  0
 18 61  1  0
 18 62  1  0
 18 63  1  0
 19 64  1  0
 19 65  1  0
 20 66  1  0
 20 67  1  0
 21 68  1  0
 24 69  1  0
 25 70  1  0
 26 71  1  0
 27 72  1  0
 30 73  1  0
 30 74  1  0
 30 75  1  0
 32 76  1  0
 33 77  1  0
 34 78  1  0
 35 79  1  0
M  CHG  1  29   1
M  END
>  <UniqueID>  (10) 
10

>  <SMILES>  (10) 
CCNCCOCCNC(=O)CN(C)CCN(C)CCNc1c2ccccc2[n+](C)c2ccccc12

>  <Energy>  (10) 
98.87152566506698

>  <Genealogy>  (10) 
CCNCCOCCNC(=O)CN(C)CCN(C)CCNc1c2ccccc2[n+](C)c2ccccc12 (3D coordinates assigned)
CCNCCOCCNC(=O)CN(C)CCN(C)CCNc1c2ccccc2[n+](C)c2ccccc12 (optimized conformer: 98.87152566506698 kcal/mol)

>  <smiles>  (10) 
CCNCCOCCNC(=O)CN(C)CCN(C)CCNc1c2ccccc2[n+](C)c2ccccc12

>  <score_type>  (10) 
oracle

>  <origin>  (10) 
adg

>  <m_score__min__energy>  (10) 
-6.3300000000000001

>  <m_primary>  (10) 
energy

$$$$
11:0
     RDKit          3D

 36 38  0  0  0  0  0  0  0  0999 V2000
   56.3510   23.7100   42.9980 C   0  0  0  0  0  0  0  0  0  0  0  0
   57.3860   24.3750   43.9020 C   0  0  0  0  0  0  0  0  0  0  0  0
   57.5420   25.7950   43.5620 N   0  0  0  0  0  0  0  0  0  0  0  0
   57.8250   26.5600   44.7530 C   0  0  0  0  0  0  0  0  0  0  0  0
   58.0590   25.9090   45.9760 C   0  0  0  0  0  0  0  0  0  0  0  0
   58.3620   26.6490   47.1210 C   0  0  0  0  0  0  0  0  0  0  0  0
   58.4450   28.0420   47.0570 C   0  0  0  0  0  0  0  0  0  0  0  0
   58.2280   28.7100   45.8400 C   0  0  0  0  0  0  0  0  0  0  0  0
   58.3230   30.1820   45.7630 C   0  0  0  0  0  0  0  0  0  0  0  0
   57.3730   30.9660   45.1830 N   0  0  0  0  0  0  0  0  0  0  0  0
   57.8840   32.1980   45.3530 C   0  0  0  0  0  0  0  0  0  0  0  0
   57.3300   33.4140   44.9590 C   0  0  0  0  0  0  0  0  0  0  0  0
   58.0480   34.5850   45.2610 C   0  0  0  0  0  0  0  0  0  0  0  0
   59.2880   34.5130   45.9400 C   0  0  0  0  0  0  0  0  0  0  0  0
   59.8300   33.2630   46.3100 C   0  0  0  0  0  0  0  0  0  0  0  0
   61.1200   33.1630   47.0670 C   0  0  0  0  0  0  0  0  0  0  0  0
   59.0780   32.1270   46.0030 C   0  0  0  0  0  0  0  0  0  0  0  0
   59.3400   30.8730   46.2540 O   0  0  0  0  0  0  0  0  0  0  0  0
   57.9230   27.9620   44.6920 C   0  0  0  0  0  0  0  0  0  0  0  0
   55.5858   23.2183   43.6166 H   0  0  0  0  0  0  0  0  0  0  0  0
   55.8753   24.4719   42.3630 H   0  0  0  0  0  0  0  0  0  0  0  0
   56.8462   22.9606   42.3630 H   0  0  0  0  0  0  0  0  0  0  0  0
   57.0587   24.2889   44.9486 H   0  0  0  0  0  0  0  0  0  0  0  0
   58.3532   23.8708   43.7598 H   0  0  0  0  0  0  0  0  0  0  0  0
   56.6650   26.1520   43.1150 H   0  0  0  0  0  0  0  0  0  0  0  0
   58.3250   25.9120   42.8750 H   0  0  0  0  0  0  0  0  0  0  0  0
   58.0033   24.8118   46.0318 H   0  0  0  0  0  0  0  0  0  0  0  0
   58.5359   26.1330   48.0768 H   0  0  0  0  0  0  0  0  0  0  0  0
   58.6813   28.6186   47.9635 H   0  0  0  0  0  0  0  0  0  0  0  0
   56.3660   33.4567   44.4309 H   0  0  0  0  0  0  0  0  0  0  0  0
   57.6428   35.5646   44.9673 H   0  0  0  0  0  0  0  0  0  0  0  0
   59.8331   35.4375   46.1810 H   0  0  0  0  0  0  0  0  0  0  0  0
   60.9134   33.1790   48.1473 H   0  0  0  0  0  0  0  0  0  0  0  0
   61.6272   32.2228   46.8046 H   0  0  0  0  0  0  0  0  0  0  0  0
   61.7660   34.0138   46.8046 H   0  0  0  0  0  0  0  0  0  0  0  0
   57.7588   28.4777   43.7343 H   0  0  0  0  0  0  0  0  0  0  0  0
  1  2  1  0
  2  3  1  0
  3  4  1  0
  4  5  2  0
  5  6  1  0
  6  7  2  0
  7  8  1  0
  8  9  1  0
  9 10  2  0
 10 11  1  0
 11 12  2  0
 12 13  1  0
 13 14  2  0
 14 15  1  0
 15 16  1  0
 15 17  2  0
 17 18  1  0
  8 19  2  0
 19  4  1  0
 18  9  1  0
 17 11  1  0
  1 20  1  0
  1 21  1  0
  1 22  1  0
  2 23  1  0
  2 24  1  0
  3 25  1  0
  3 26  1  0
  5 27  1  0
  6 28  1  0
  7 29  1  0
 12 30  1  0
 13 31  1  0
 14 32  1  0
 16 33  1  0
 16 34  1  0
 16 35  1  0
 19 36  1  0
M  CHG  1   3   1
M  END
>  <UniqueID>  (11) 
11

>  <SMILES>  (11) 
CC[NH2+]c1cccc(-c2nc3cccc(C)c3o2)c1

>  <Energy>  (11) 
72.27729030295501

>  <Genealogy>  (11) 
CC[NH2+]c1cccc(-c2nc3cccc(C)c3o2)c1 (protonated)
CC[NH2+]c1cccc(-c2nc3cccc(C)c3o2)c1 (3D coordinates assigned)
CC[NH2+]c1cccc(-c2nc3cccc(C)c3o2)c1 (optimized conformer: 72.27729030295501 kcal/mol)

>  <smiles>  (11) 
CCNc1cccc(-c2nc3cccc(C)c3o2)c1

>  <score_type>  (11) 
oracle

>  <origin>  (11) 
adg

>  <m_score__min__energy>  (11) 
-5.3700000000000001

>  <m_primary>  (11) 
energy

$$$$
12:0
     RDKit          3D

 45 47  0  0  0  0  0  0  0  0999 V2000
   56.2780   24.4630   46.8250 C   0  0  0  0  0  0  0  0  0  0  0  0
   55.5720   25.4980   45.9550 C   0  0  0  0  0  0  0  0  0  0  0  0
   56.3710   26.7270   45.8680 N   0  0  0  0  0  0  0  0  0  0  0  0
   57.7870   26.4700   46.1710 C   0  0  0  0  0  0  0  0  0  0  0  0
   58.5880   27.7750   46.1330 C   0  0  0  0  0  0  0  0  0  0  0  0
   57.7220   28.9330   46.3510 N   0  0  0  0  0  0  0  0  0  0  0  0
   58.1350   30.2340   45.9020 C   0  0  0  0  0  0  0  0  0  0  0  0
   57.7290   30.7090   44.6440 C   0  0  0  0  0  0  0  0  0  0  0  0
   56.9450   29.9080   43.7860 C   0  0  0  0  0  0  0  0  0  0  0  0
   56.5930   30.3560   42.5170 C   0  0  0  0  0  0  0  0  0  0  0  0
   57.0260   31.6000   42.0720 C   0  0  0  0  0  0  0  0  0  0  0  0
   57.7940   32.4130   42.9050 C   0  0  0  0  0  0  0  0  0  0  0  0
   58.1350   32.0040   44.2200 C   0  0  0  0  0  0  0  0  0  0  0  0
   58.8590   32.8180   45.0710 N   0  0  0  0  0  0  0  0  0  0  0  0
   59.0350   34.2520   44.7490 C   0  0  0  0  0  0  0  0  0  0  0  0
   59.3910   32.3020   46.2390 C   0  0  0  0  0  0  0  0  0  0  0  0
   60.3450   33.0190   47.0060 C   0  0  0  0  0  0  0  0  0  0  0  0
   60.8240   32.5230   48.2210 C   0  0  0  0  0  0  0  0  0  0  0  0
   61.7830   33.2990   48.9550 N   0  0  0  0  0  0  0  0  0  0  0  0
   62.9610   33.3900   48.6100 N   0  0  0  0  0  0  0  0  0  0  0  0
   64.1390   33.4790   48.2650 N   0  0  0  0  0  0  0  0  0  0  0  0
   60.3620   31.2890   48.6930 C   0  0  0  0  0  0  0  0  0  0  0  0
   59.4620   30.5430   47.9370 C   0  0  0  0  0  0  0  0  0  0  0  0
   58.9950   31.0170   46.6940 C   0  0  0  0  0  0  0  0  0  0  0  0
   56.1144   24.7029   47.8860 H   0  0  0  0  0  0  0  0  0  0  0  0
   55.8724   23.4637   46.6082 H   0  0  0  0  0  0  0  0  0  0  0  0
   57.3563   24.4760   46.6082 H   0  0  0  0  0  0  0  0  0  0  0  0
   55.4303   25.0860   44.9450 H   0  0  0  0  0  0  0  0  0  0  0  0
   54.5980   25.7378   46.4065 H   0  0  0  0  0  0  0  0  0  0  0  0
   56.3170   27.0680   44.8790 H   0  0  0  0  0  0  0  0  0  0  0  0
   57.8678   26.0245   47.1735 H   0  0  0  0  0  0  0  0  0  0  0  0
   58.1933   25.7805   45.4163 H   0  0  0  0  0  0  0  0  0  0  0  0
   59.3559   27.7478   46.9202 H   0  0  0  0  0  0  0  0  0  0  0  0
   59.0533   27.8696   45.1407 H   0  0  0  0  0  0  0  0  0  0  0  0
   56.6950   28.7680   46.4610 H   0  0  0  0  0  0  0  0  0  0  0  0
   56.6082   28.9172   44.1251 H   0  0  0  0  0  0  0  0  0  0  0  0
   55.9712   29.7252   41.8647 H   0  0  0  0  0  0  0  0  0  0  0  0
   56.7623   31.9436   41.0609 H   0  0  0  0  0  0  0  0  0  0  0  0
   58.1417   33.3891   42.5358 H   0  0  0  0  0  0  0  0  0  0  0  0
   59.1061   34.8311   45.6815 H   0  0  0  0  0  0  0  0  0  0  0  0
   59.9563   34.3858   44.1631 H   0  0  0  0  0  0  0  0  0  0  0  0
   58.1734   34.6047   44.1631 H   0  0  0  0  0  0  0  0  0  0  0  0
   60.7156   33.9864   46.6361 H   0  0  0  0  0  0  0  0  0  0  0  0
   60.7110   30.9076   49.6639 H   0  0  0  0  0  0  0  0  0  0  0  0
   59.1107   29.5713   48.3143 H   0  0  0  0  0  0  0  0  0  0  0  0
  1  2  1  0
  2  3  1  0
  3  4  1  0
  4  5  1  0
  5  6  1  0
  6  7  1  0
  7  8  2  0
  8  9  1  0
  9 10  2  0
 10 11  1  0
 11 12  2  0
 12 13  1  0
 13 14  2  0
 14 15  1  0
 14 16  1  0
 16 17  2  0
 17 18  1  0
 18 19  1  0
 19 20  2  0
 20 21  2  0
 18 22  2  0
 22 23  1  0
 23 24  2  0
 24  7  1  0
 13  8  1  0
 24 16  1  0
  1 25  1  0
  1 26  1  0
  1 27  1  0
  2 28  1  0
  2 29  1  0
  3 30  1  0
  4 31  1  0
  4 32  1  0
  5 33  1  0
  5 34  1  0
  6 35  1  0
  9 36  1  0
 10 37  1  0
 11 38  1  0
 12 39  1  0
 15 40  1  0
 15 41  1  0
 15 42  1  0
 17 43  1  0
 22 44  1  0
 23 45  1  0
M  CHG  3  14   1  20   1  21  -1
M  END
>  <UniqueID>  (12) 
12

>  <SMILES>  (12) 
CCNCCNc1c2ccccc2[n+](C)c2cc(N=[N+]=[N-])ccc12

>  <Energy>  (12) 
68.52029206672682

>  <Genealogy>  (12) 
CCNCCNc1c2ccccc2[n+](C)c2cc(N=[N+]=[N-])ccc12 (3D coordinates assigned)
CCNCCNc1c2ccccc2[n+](C)c2cc(N=[N+]=[N-])ccc12 (optimized conformer: 68.52029206672682 kcal/mol)

>  <smiles>  (12) 
CCNCCNc1c2ccccc2[n+](C)c2cc(N=[N+]=[N-])ccc12

>  <score_type>  (12) 
oracle

>  <origin>  (12) 
adg

>  <m_score__min__energy>  (12) 
-6.4400000000000004

>  <m_primary>  (12) 
energy

$$$$
13:0
     RDKit          3D

 45 45  0  0  0  0  0  0  0  0999 V2000
   57.3640   28.5310   44.8800 C   0  0  0  0  0  0  0  0  0  0  0  0
   56.3000   29.5060   44.4680 C   0  0  0  0  0  0  0  0  0  0  0  0
   55.1550   29.3390   44.8600 O   0  0  0  0  0  0  0  0  0  0  0  0
   56.6230   30.7010   43.6100 C   0  0  0  0  0  0  0  0  0  0  0  0
   57.8450   31.4840   44.1190 C   0  0  0  0  0  0  0  0  0  0  0  0
   57.8320   32.9770   43.7240 C   0  0  0  0  0  0  0  0  0  0  0  0
   57.3770   33.9210   44.8510 C   0  0  0  0  0  0  0  0  0  0  0  0
   58.2720   33.8390   46.0620 C   0  0  0  0  0  0  0  0  0  0  0  0
   59.4950   34.5260   46.0920 C   0  0  0  0  0  0  0  0  0  0  0  0
   60.3130   34.4620   47.2230 C   0  0  0  0  0  0  0  0  0  0  0  0
   59.9270   33.7130   48.3410 C   0  0  0  0  0  0  0  0  0  0  0  0
   60.7890   33.6850   49.4490 O   0  0  0  0  0  0  0  0  0  0  0  0
   61.2250   32.5080   50.1310 C   0  0  0  0  0  0  0  0  0  0  0  0
   62.4770   31.9240   49.4440 C   0  0  0  0  0  0  0  0  0  0  0  0
   63.3230   32.9260   48.7500 N   0  0  0  0  0  0  0  0  0  0  0  0
   63.3960   32.6980   47.2960 C   0  0  0  0  0  0  0  0  0  0  0  0
   64.6720   33.0270   49.3350 C   0  0  0  0  0  0  0  0  0  0  0  0
   58.7020   33.0180   48.3100 C   0  0  0  0  0  0  0  0  0  0  0  0
   57.8830   33.0830   47.1790 C   0  0  0  0  0  0  0  0  0  0  0  0
   57.4140   28.4851   45.9779 H   0  0  0  0  0  0  0  0  0  0  0  0
   57.1221   27.5344   44.4820 H   0  0  0  0  0  0  0  0  0  0  0  0
   58.3357   28.8588   44.4820 H   0  0  0  0  0  0  0  0  0  0  0  0
   56.8286   30.3542   42.5865 H   0  0  0  0  0  0  0  0  0  0  0  0
   55.7568   31.3782   43.6437 H   0  0  0  0  0  0  0  0  0  0  0  0
   57.8695   31.4150   45.2166 H   0  0  0  0  0  0  0  0  0  0  0  0
   58.7334   31.0346   43.6512 H   0  0  0  0  0  0  0  0  0  0  0  0
   58.8505   33.2637   43.4233 H   0  0  0  0  0  0  0  0  0  0  0  0
   57.1024   33.0828   42.9076 H   0  0  0  0  0  0  0  0  0  0  0  0
   57.3870   34.9539   44.4730 H   0  0  0  0  0  0  0  0  0  0  0  0
   56.3659   33.6157   45.1583 H   0  0  0  0  0  0  0  0  0  0  0  0
   59.8115   35.1181   45.2206 H   0  0  0  0  0  0  0  0  0  0  0  0
   61.2694   35.0053   47.2350 H   0  0  0  0  0  0  0  0  0  0  0  0
   61.4681   32.7616   51.1734 H   0  0  0  0  0  0  0  0  0  0  0  0
   60.4196   31.7593   50.1034 H   0  0  0  0  0  0  0  0  0  0  0  0
   63.0904   31.4291   50.2114 H   0  0  0  0  0  0  0  0  0  0  0  0
   62.1143   31.2316   48.6700 H   0  0  0  0  0  0  0  0  0  0  0  0
   62.8610   33.8560   48.8900 H   0  0  0  0  0  0  0  0  0  0  0  0
   63.7262   31.6667   47.1027 H   0  0  0  0  0  0  0  0  0  0  0  0
   62.4028   32.8547   46.8500 H   0  0  0  0  0  0  0  0  0  0  0  0
   64.1135   33.4024   46.8500 H   0  0  0  0  0  0  0  0  0  0  0  0
   64.5971   33.0214   50.4324 H   0  0  0  0  0  0  0  0  0  0  0  0
   65.2799   32.1719   49.0046 H   0  0  0  0  0  0  0  0  0  0  0  0
   65.1458   33.9631   49.0046 H   0  0  0  0  0  0  0  0  0  0  0  0
   58.3886   32.4216   49.1795 H   0  0  0  0  0  0  0  0  0  0  0  0
   56.9275   32.5382   47.1642 H   0  0  0  0  0  0  0  0  0  0  0  0
  1  2  1  0
  2  3  2  0
  2  4  1  0
  4  5  1  0
  5  6  1  0
  6  7  1  0
  7  8  1  0
  8  9  2  0
  9 10  1  0
 10 11  2  0
 11 12  1  0
 12 13  1  0
 13 14  1  0
 14 15  1  0
 15 16  1  0
 15 17  1  0
 11 18  1  0
 18 19  2  0
 19  8  1  0
  1 20  1  0
  1 21  1  0
  1 22  1  0
  4 23  1  0
  4 24  1  0
  5 25  1  0
  5 26  1  0
  6 27  1  0
  6 28  1  0
  7 29  1  0
  7 30  1  0
  9 31  1  0
 10 32  1  0
 13 33  1  0
 13 34  1  0
 14 35  1  0
 14 36  1  0
 15 37  1  0
 16 38  1  0
 16 39  1  0
 16 40  1  0
 17 41  1  0
 17 42  1  0
 17 43  1  0
 18 44  1  0
 19 45  1  0
M  CHG  1  15   1
M  END
>  <UniqueID>  (13) 
13

>  <SMILES>  (13) 
CC(=O)CCCCc1ccc(OCC[NH+](C)C)cc1

>  <Energy>  (13) 
36.08870032638407

>  <Genealogy>  (13) 
CC(=O)CCCCc1ccc(OCC[NH+](C)C)cc1 (protonated)
CC(=O)CCCCc1ccc(OCC[NH+](C)C)cc1 (3D coordinates assigned)
CC(=O)CCCCc1ccc(OCC[NH+](C)C)cc1 (optimized conformer: 36.08870032638407 kcal/mol)

>  <smiles>  (13) 
CC(=O)CCCCc1ccc(OCCN(C)C)cc1

>  <score_type>  (13) 
oracle

>  <origin>  (13) 
adg

>  <m_score__min__energy>  (13) 
-5.9100000000000001

>  <m_primary>  (13) 
energy

$$$$
14:0
     RDKit          3D

 58 60  0  0  0  0  0  0  0  0999 V2000
   56.9325   32.2509   50.8317 H   0  0  0  0  0  0  0  0  0  0  0  0
   57.9790   32.0730   51.1200 C   0  0  0  0  0  0  0  0  0  0  0  0
   58.7440   33.0920   51.3260 N   0  0  0  0  0  0  0  0  0  0  0  0
   58.5390   34.0730   52.3730 C   0  0  0  0  0  0  0  0  0  0  0  0
   58.6404   33.5878   53.3550 H   0  0  0  0  0  0  0  0  0  0  0  0
   59.2897   34.8716   52.2793 H   0  0  0  0  0  0  0  0  0  0  0  0
   57.5314   34.5041   52.2793 H   0  0  0  0  0  0  0  0  0  0  0  0
   58.4560   30.6520   51.2570 C   0  0  0  0  0  0  0  0  0  0  0  0
   57.7288   29.9763   50.7830 H   0  0  0  0  0  0  0  0  0  0  0  0
   58.5537   30.4051   52.3245 H   0  0  0  0  0  0  0  0  0  0  0  0
   59.7530   30.4970   50.6090 N   0  0  0  0  0  0  0  0  0  0  0  0
   60.5980   30.3770   51.2110 H   0  0  0  0  0  0  0  0  0  0  0  0
   59.8540   30.1570   49.2210 C   0  0  0  0  0  0  0  0  0  0  0  0
   60.0300   28.8060   48.9210 C   0  0  0  0  0  0  0  0  0  0  0  0
   60.2898   28.1010   49.7244 H   0  0  0  0  0  0  0  0  0  0  0  0
   59.8820   28.3410   47.6260 C   0  0  0  0  0  0  0  0  0  0  0  0
   60.0934   27.2875   47.3904 H   0  0  0  0  0  0  0  0  0  0  0  0
   59.4670   29.2060   46.6280 C   0  0  0  0  0  0  0  0  0  0  0  0
   59.2747   28.8145   45.6182 H   0  0  0  0  0  0  0  0  0  0  0  0
   59.2860   30.5870   46.8860 C   0  0  0  0  0  0  0  0  0  0  0  0
   59.6430   31.1060   48.1640 C   0  0  0  0  0  0  0  0  0  0  0  0
   59.8450   32.5270   48.2880 C   0  0  0  0  0  0  0  0  0  0  0  0
   60.5380   33.1000   49.4330 N   0  0  0  0  0  0  0  0  0  0  0  0
   60.5430   32.5020   50.2740 H   0  0  0  0  0  0  0  0  0  0  0  0
   60.0340   33.9400   49.7900 H   0  0  0  0  0  0  0  0  0  0  0  0
   61.9250   33.4540   49.0960 C   0  0  0  0  0  0  0  0  0  0  0  0
   62.4142   33.8835   49.9827 H   0  0  0  0  0  0  0  0  0  0  0  0
   61.9150   34.1862   48.2752 H   0  0  0  0  0  0  0  0  0  0  0  0
   62.6780   32.2530   48.6570 N   0  0  0  0  0  0  0  0  0  0  0  0
   63.2090   32.3800   47.2760 C   0  0  0  0  0  0  0  0  0  0  0  0
   62.5810   31.7745   46.6059 H   0  0  0  0  0  0  0  0  0  0  0  0
   64.2530   32.0343   47.3011 H   0  0  0  0  0  0  0  0  0  0  0  0
   63.2280   33.8240   46.7490 C   0  0  0  0  0  0  0  0  0  0  0  0
   63.2372   34.5239   47.5976 H   0  0  0  0  0  0  0  0  0  0  0  0
   64.1283   33.9789   46.1362 H   0  0  0  0  0  0  0  0  0  0  0  0
   62.3321   34.0025   46.1362 H   0  0  0  0  0  0  0  0  0  0  0  0
   63.6670   31.8060   49.6640 C   0  0  0  0  0  0  0  0  0  0  0  0
   63.1884   31.7972   50.6544 H   0  0  0  0  0  0  0  0  0  0  0  0
   64.0110   30.7995   49.3837 H   0  0  0  0  0  0  0  0  0  0  0  0
   64.8850   32.7310   49.7100 C   0  0  0  0  0  0  0  0  0  0  0  0
   65.1520   32.9338   50.7576 H   0  0  0  0  0  0  0  0  0  0  0  0
   65.7325   32.2468   49.2027 H   0  0  0  0  0  0  0  0  0  0  0  0
   64.6461   33.6774   49.2027 H   0  0  0  0  0  0  0  0  0  0  0  0
   59.5900   33.3520   47.1490 C   0  0  0  0  0  0  0  0  0  0  0  0
   59.8800   34.7460   47.1460 C   0  0  0  0  0  0  0  0  0  0  0  0
   60.2999   35.2084   48.0515 H   0  0  0  0  0  0  0  0  0  0  0  0
   59.6460   35.5360   46.0290 C   0  0  0  0  0  0  0  0  0  0  0  0
   59.8667   36.6132   46.0608 H   0  0  0  0  0  0  0  0  0  0  0  0
   59.1370   34.9700   44.8800 C   0  0  0  0  0  0  0  0  0  0  0  0
   58.9539   35.5961   43.9943 H   0  0  0  0  0  0  0  0  0  0  0  0
   58.8540   33.6070   44.8380 C   0  0  0  0  0  0  0  0  0  0  0  0
   58.4623   33.1672   43.9089 H   0  0  0  0  0  0  0  0  0  0  0  0
   59.0600   32.7730   45.9680 C   0  0  0  0  0  0  0  0  0  0  0  0
   58.8150   31.4220   45.9020 N   0  0  0  0  0  0  0  0  0  0  0  0
   58.0320   30.8660   44.7750 C   0  0  0  0  0  0  0  0  0  0  0  0
   57.1945   30.2713   45.1686 H   0  0  0  0  0  0  0  0  0  0  0  0
   57.6399   31.6891   44.1596 H   0  0  0  0  0  0  0  0  0  0  0  0
   58.6799   30.2245   44.1596 H   0  0  0  0  0  0  0  0  0  0  0  0
  1  2  1  0
  2  3  2  0
  3  4  1  0
  4  5  1  0
  4  6  1  0
  4  7  1  0
  2  8  1  0
  8  9  1  0
  8 10  1  0
  8 11  1  0
 11 12  1  0
 11 13  1  0
 13 14  2  0
 14 15  1  0
 14 16  1  0
 16 17  1  0
 16 18  2  0
 18 19  1  0
 18 20  1  0
 20 21  2  0
 21 22  1  0
 22 23  1  0
 23 24  1  0
 23 25  1  0
 23 26  1  0
 26 27  1  0
 26 28  1  0
 26 29  1  0
 29 30  1  0
 30 31  1  0
 30 32  1  0
 30 33  1  0
 33 34  1  0
 33 35  1  0
 33 36  1  0
 29 37  1  0
 37 38  1  0
 37 39  1  0
 37 40  1  0
 40 41  1  0
 40 42  1  0
 40 43  1  0
 22 44  2  0
 44 45  1  0
 45 46  1  0
 45 47  2  0
 47 48  1  0
 47 49  1  0
 49 50  1  0
 49 51  2  0
 51 52  1  0
 51 53  1  0
 53 54  2  0
 54 55  1  0
 55 56  1  0
 55 57  1  0
 55 58  1  0
 21 13  1  0
 53 44  1  0
 54 20  1  0
M  CHG  2  23   1  54   1
M  END
>  <UniqueID>  (14) 
14

>  <SMILES>  (14) 
CCN(CC)C[NH2+]c1c2ccccc2[n+](C)c2cccc(NC/C=N\C)c12

>  <Energy>  (14) 
104.16629567311334

>  <Genealogy>  (14) 
CCN(CC)C[NH2+]c1c2ccccc2[n+](C)c2cccc(NCC=NC)c12 (protonated)
CCN(CC)C[NH2+]c1c2ccccc2[n+](C)c2cccc(NC/C=N\C)c12 (cis-trans isomerization)
CCN(CC)C[NH2+]c1c2ccccc2[n+](C)c2cccc(NC/C=N\C)c12 (3D coordinates assigned)
CCN(CC)C[NH2+]c1c2ccccc2[n+](C)c2cccc(NC/C=N\C)c12 (optimized conformer: 104.16629567311334 kcal/mol)

>  <smiles>  (14) 
CCN(CC)CNc1c2ccccc2[n+](C)c2cccc(NCC=NC)c12

>  <score_type>  (14) 
oracle

>  <origin>  (14) 
adg

>  <m_score__min__energy>  (14) 
-3.6400000000000001

>  <m_primary>  (14) 
energy

$$$$
15:0
     RDKit          3D

 63 65  0  0  0  0  0  0  0  0999 V2000
   59.2040   33.6520   51.5360 C   0  0  0  0  0  0  0  0  0  0  0  0
   59.6760   33.5120   50.0880 C   0  0  0  0  0  0  0  0  0  0  0  0
   60.0310   32.1110   49.7580 N   0  0  0  0  0  0  0  0  0  0  0  0
   61.0360   31.5880   50.7080 C   0  0  0  0  0  0  0  0  0  0  0  0
   58.8220   31.2550   49.7670 C   0  0  0  0  0  0  0  0  0  0  0  0
   58.9540   30.1320   48.7210 C   0  0  0  0  0  0  0  0  0  0  0  0
   60.0900   30.3590   47.8050 N   0  0  0  0  0  0  0  0  0  0  0  0
   59.6430   30.6500   46.4450 C   0  0  0  0  0  0  0  0  0  0  0  0
   59.1860   29.5930   45.6120 C   0  0  0  0  0  0  0  0  0  0  0  0
   59.5140   28.2430   45.8900 C   0  0  0  0  0  0  0  0  0  0  0  0
   58.9980   27.2030   45.1210 C   0  0  0  0  0  0  0  0  0  0  0  0
   58.1400   27.4780   44.0680 C   0  0  0  0  0  0  0  0  0  0  0  0
   57.8180   28.7960   43.7550 C   0  0  0  0  0  0  0  0  0  0  0  0
   58.3640   29.8830   44.4870 C   0  0  0  0  0  0  0  0  0  0  0  0
   58.0690   31.1920   44.1600 N   0  0  0  0  0  0  0  0  0  0  0  0
   57.3900   31.5010   42.8800 C   0  0  0  0  0  0  0  0  0  0  0  0
   58.4580   32.2200   44.9930 C   0  0  0  0  0  0  0  0  0  0  0  0
   57.9210   33.5220   44.8520 C   0  0  0  0  0  0  0  0  0  0  0  0
   58.4040   34.5840   45.6090 C   0  0  0  0  0  0  0  0  0  0  0  0
   59.4850   34.3940   46.4560 C   0  0  0  0  0  0  0  0  0  0  0  0
   60.0400   33.1220   46.6230 C   0  0  0  0  0  0  0  0  0  0  0  0
   61.3330   33.0440   47.2500 N   0  0  0  0  0  0  0  0  0  0  0  0
   62.4940   33.7060   46.6530 C   0  0  0  0  0  0  0  0  0  0  0  0
   63.7600   33.4540   47.4810 C   0  0  0  0  0  0  0  0  0  0  0  0
   63.4320   33.0540   48.8680 N   0  0  0  0  0  0  0  0  0  0  0  0
   64.5990   32.4180   49.4990 C   0  0  0  0  0  0  0  0  0  0  0  0
   63.0170   34.2160   49.6730 C   0  0  0  0  0  0  0  0  0  0  0  0
   59.4050   31.9900   46.0270 C   0  0  0  0  0  0  0  0  0  0  0  0
   60.0322   33.4064   52.2170 H   0  0  0  0  0  0  0  0  0  0  0  0
   58.8756   34.6862   51.7162 H   0  0  0  0  0  0  0  0  0  0  0  0
   58.3648   32.9641   51.7162 H   0  0  0  0  0  0  0  0  0  0  0  0
   58.8694   33.8425   49.4170 H   0  0  0  0  0  0  0  0  0  0  0  0
   60.5755   34.1320   49.9600 H   0  0  0  0  0  0  0  0  0  0  0  0
   60.6941   31.7659   51.7383 H   0  0  0  0  0  0  0  0  0  0  0  0
   61.1662   30.5078   50.5463 H   0  0  0  0  0  0  0  0  0  0  0  0
   61.9954   32.1012   50.5463 H   0  0  0  0  0  0  0  0  0  0  0  0
   58.7008   30.8088   50.7651 H   0  0  0  0  0  0  0  0  0  0  0  0
   57.9451   31.8718   49.5209 H   0  0  0  0  0  0  0  0  0  0  0  0
   59.1050   29.1760   49.2437 H   0  0  0  0  0  0  0  0  0  0  0  0
   58.0321   30.1167   48.1212 H   0  0  0  0  0  0  0  0  0  0  0  0
   60.7240   29.5300   47.8080 H   0  0  0  0  0  0  0  0  0  0  0  0
   60.6530   31.1190   48.2290 H   0  0  0  0  0  0  0  0  0  0  0  0
   60.1881   28.0123   46.7281 H   0  0  0  0  0  0  0  0  0  0  0  0
   59.2716   26.1624   45.3495 H   0  0  0  0  0  0  0  0  0  0  0  0
   57.7126   26.6536   43.4784 H   0  0  0  0  0  0  0  0  0  0  0  0
   57.1267   28.9991   42.9238 H   0  0  0  0  0  0  0  0  0  0  0  0
   56.4064   31.9486   43.0854 H   0  0  0  0  0  0  0  0  0  0  0  0
   58.0017   32.2094   42.3021 H   0  0  0  0  0  0  0  0  0  0  0  0
   57.2577   30.5744   42.3021 H   0  0  0  0  0  0  0  0  0  0  0  0
   57.1082   33.6968   44.1317 H   0  0  0  0  0  0  0  0  0  0  0  0
   57.9289   35.5734   45.5358 H   0  0  0  0  0  0  0  0  0  0  0  0
   59.9090   35.2505   47.0006 H   0  0  0  0  0  0  0  0  0  0  0  0
   61.3500   32.9010   48.2850 H   0  0  0  0  0  0  0  0  0  0  0  0
   62.6464   33.3157   45.6359 H   0  0  0  0  0  0  0  0  0  0  0  0
   62.3034   34.7891   46.6272 H   0  0  0  0  0  0  0  0  0  0  0  0
   64.3434   32.6513   47.0063 H   0  0  0  0  0  0  0  0  0  0  0  0
   64.3382   34.3890   47.5196 H   0  0  0  0  0  0  0  0  0  0  0  0
   64.4993   32.4723   50.5931 H   0  0  0  0  0  0  0  0  0  0  0  0
   64.6553   31.3644   49.1878 H   0  0  0  0  0  0  0  0  0  0  0  0
   65.5149   32.9417   49.1878 H   0  0  0  0  0  0  0  0  0  0  0  0
   63.1043   33.9715   50.7419 H   0  0  0  0  0  0  0  0  0  0  0  0
   63.6642   35.0741   49.4391 H   0  0  0  0  0  0  0  0  0  0  0  0
   61.9726   34.4700   49.4391 H   0  0  0  0  0  0  0  0  0  0  0  0
  1  2  1  0
  2  3  1  0
  3  4  1  0
  3  5  1  0
  5  6  1  0
  6  7  1  0
  7  8  1  0
  8  9  2  0
  9 10  1  0
 10 11  2  0
 11 12  1  0
 12 13  2  0
 13 14  1  0
 14 15  2  0
 15 16  1  0
 15 17  1  0
 17 18  2  0
 18 19  1  0
 19 20  2  0
 20 21  1  0
 21 22  1  0
 22 23  1  0
 23 24  1  0
 24 25  1  0
 25 26  1  0
 25 27  1  0
 21 28  2  0
 28  8  1  0
 14  9  1  0
 28 17  1  0
  1 29  1  0
  1 30  1  0
  1 31  1  0
  2 32  1  0
  2 33  1  0
  4 34  1  0
  4 35  1  0
  4 36  1  0
  5 37  1  0
  5 38  1  0
  6 39  1  0
  6 40  1  0
  7 41  1  0
  7 42  1  0
 10 43  1  0
 11 44  1  0
 12 45  1  0
 13 46  1  0
 16 47  1  0
 16 48  1  0
 16 49  1  0
 18 50  1  0
 19 51  1  0
 20 52  1  0
 22 53  1  0
 23 54  1  0
 23 55  1  0
 24 56  1  0
 24 57  1  0
 26 58  1  0
 26 59  1  0
 26 60  1  0
 27 61  1  0
 27 62  1  0
 27 63  1  0
M  CHG  2   7   1  15   1
M  END
>  <UniqueID>  (15) 
15

>  <SMILES>  (15) 
CCN(C)CC[NH2+]c1c2ccccc2[n+](C)c2cccc(NCCN(C)C)c12

>  <Energy>  (15) 
104.97580650244105

>  <Genealogy>  (15) 
CCN(C)CC[NH2+]c1c2ccccc2[n+](C)c2cccc(NCCN(C)C)c12 (protonated)
CCN(C)CC[NH2+]c1c2ccccc2[n+](C)c2cccc(NCCN(C)C)c12 (3D coordinates assigned)
CCN(C)CC[NH2+]c1c2ccccc2[n+](C)c2cccc(NCCN(C)C)c12 (optimized conformer: 104.97580650244105 kcal/mol)

>  <smiles>  (15) 
CCN(C)CCNc1c2ccccc2[n+](C)c2cccc(NCCN(C)C)c12

>  <score_type>  (15) 
oracle

>  <origin>  (15) 
adg

>  <m_score__min__energy>  (15) 
-3.71

>  <m_primary>  (15) 
energy

$$$$
16:0
     RDKit          3D

 29 30  0  0  0  0  0  0  0  0999 V2000
   63.3000   33.8570   46.3600 C   0  0  0  0  0  0  0  0  0  0  0  0
   62.3500   33.2270   47.2910 N   0  0  0  0  0  0  0  0  0  0  0  0
   63.0680   32.7880   48.5020 C   0  0  0  0  0  0  0  0  0  0  0  0
   61.2750   34.1800   47.6340 C   0  0  0  0  0  0  0  0  0  0  0  0
   60.0990   33.9930   46.7260 C   0  0  0  0  0  0  0  0  0  0  0  0
   59.1940   34.9570   46.4620 N   0  0  0  0  0  0  0  0  0  0  0  0
   58.3710   34.4210   45.6080 O   0  0  0  0  0  0  0  0  0  0  0  0
   58.7380   33.1890   45.3400 C   0  0  0  0  0  0  0  0  0  0  0  0
   58.0200   32.2980   44.4000 C   0  0  0  0  0  0  0  0  0  0  0  0
   58.0800   32.4950   43.0070 C   0  0  0  0  0  0  0  0  0  0  0  0
   57.3910   31.6400   42.1410 C   0  0  0  0  0  0  0  0  0  0  0  0
   56.6380   30.5800   42.6530 C   0  0  0  0  0  0  0  0  0  0  0  0
   56.5730   30.3740   44.0330 C   0  0  0  0  0  0  0  0  0  0  0  0
   55.8420   29.3440   44.5290 F   0  0  0  0  0  0  0  0  0  0  0  0
   57.2580   31.2260   44.9030 C   0  0  0  0  0  0  0  0  0  0  0  0
   59.8470   32.8680   46.0340 N   0  0  0  0  0  0  0  0  0  0  0  0
   64.0834   34.3765   46.9313 H   0  0  0  0  0  0  0  0  0  0  0  0
   63.7597   33.0842   45.7264 H   0  0  0  0  0  0  0  0  0  0  0  0
   62.7669   34.5812   45.7264 H   0  0  0  0  0  0  0  0  0  0  0  0
   62.5199   33.1231   49.3949 H   0  0  0  0  0  0  0  0  0  0  0  0
   63.1413   31.6905   48.5072 H   0  0  0  0  0  0  0  0  0  0  0  0
   64.0783   33.2230   48.5072 H   0  0  0  0  0  0  0  0  0  0  0  0
   60.9597   34.0110   48.6742 H   0  0  0  0  0  0  0  0  0  0  0  0
   61.6568   35.2048   47.5152 H   0  0  0  0  0  0  0  0  0  0  0  0
   58.6724   33.3265   42.5975 H   0  0  0  0  0  0  0  0  0  0  0  0
   57.4419   31.8023   41.0542 H   0  0  0  0  0  0  0  0  0  0  0  0
   56.0970   29.9085   41.9700 H   0  0  0  0  0  0  0  0  0  0  0  0
   57.2017   31.0582   45.9887 H   0  0  0  0  0  0  0  0  0  0  0  0
   60.3960   31.9810   46.0390 H   0  0  0  0  0  0  0  0  0  0  0  0
  1  2  1  0
  2  3  1  0
  2  4  1  0
  4  5  1  0
  5  6  2  0
  6  7  1  0
  7  8  1  0
  8  9  1  0
  9 10  2  0
 10 11  1  0
 11 12  2  0
 12 13  1  0
 13 14  1  0
 13 15  2  0
  8 16  2  0
 16  5  1  0
 15  9  1  0
  1 17  1  0
  1 18  1  0
  1 19  1  0
  3 20  1  0
  3 21  1  0
  3 22  1  0
  4 23  1  0
  4 24  1  0
 10 25  1  0
 11 26  1  0
 12 27  1  0
 15 28  1  0
 16 29  1  0
M  CHG  1  16   1
M  END
>  <UniqueID>  (16) 
16

>  <SMILES>  (16) 
CN(C)Cc1noc(-c2cccc(F)c2)[nH+]1

>  <Energy>  (16) 
63.806061286957025

>  <Genealogy>  (16) 
CN(C)Cc1noc(-c2cccc(F)c2)[nH+]1 (protonated)
CN(C)Cc1noc(-c2cccc(F)c2)[nH+]1 (3D coordinates assigned)
CN(C)Cc1noc(-c2cccc(F)c2)[nH+]1 (optimized conformer: 63.806061286957025 kcal/mol)

>  <smiles>  (16) 
CN(C)Cc1noc(-c2cccc(F)c2)n1

>  <score_type>  (16) 
oracle

>  <origin>  (16) 
adg

>  <m_score__min__energy>  (16) 
-4.5099999999999998

>  <m_primary>  (16) 
energy

$$$$
17:0
     RDKit          3D

 34 35  0  0  0  0  0  0  0  0999 V2000
   56.4660   23.6330   43.3260 C   0  0  0  0  0  0  0  0  0  0  0  0
   56.0630   23.5190   44.7930 C   0  0  0  0  0  0  0  0  0  0  0  0
   56.1310   24.8560   45.4640 C   0  0  0  0  0  0  0  0  0  0  0  0
   55.0490   25.5920   45.7980 N   0  0  0  0  0  0  0  0  0  0  0  0
   55.4890   26.7000   46.3280 O   0  0  0  0  0  0  0  0  0  0  0  0
   56.8010   26.7210   46.3450 C   0  0  0  0  0  0  0  0  0  0  0  0
   57.2700   25.5670   45.7800 C   0  0  0  0  0  0  0  0  0  0  0  0
   58.7130   25.1910   45.6940 C   0  0  0  0  0  0  0  0  0  0  0  0
   59.5750   26.4650   45.7020 C   0  0  0  0  0  0  0  0  0  0  0  0
   59.1890   27.4330   46.8500 C   0  0  0  0  0  0  0  0  0  0  0  0
   57.6770   27.8170   46.8900 C   0  0  1  0  0  0  0  0  0  0  0  0
   57.3990   29.1250   46.2600 N   0  0  0  0  0  0  0  0  0  0  0  0
   57.7320   29.1880   44.8270 C   0  0  0  0  0  0  0  0  0  0  0  0
   56.4700   29.4010   43.9850 C   0  0  0  0  0  0  0  0  0  0  0  0
   55.2820   29.4160   44.8330 N   0  0  0  0  0  0  0  0  0  0  0  0
   57.5224   23.9318   43.2581 H   0  0  0  0  0  0  0  0  0  0  0  0
   56.3275   22.6604   42.8311 H   0  0  0  0  0  0  0  0  0  0  0  0
   55.8386   24.3889   42.8311 H   0  0  0  0  0  0  0  0  0  0  0  0
   55.0343   23.1347   44.8564 H   0  0  0  0  0  0  0  0  0  0  0  0
   56.7577   22.8326   45.2992 H   0  0  0  0  0  0  0  0  0  0  0  0
   58.9802   24.5618   46.5558 H   0  0  0  0  0  0  0  0  0  0  0  0
   58.8920   24.6324   44.7634 H   0  0  0  0  0  0  0  0  0  0  0  0
   60.6298   26.1770   45.8225 H   0  0  0  0  0  0  0  0  0  0  0  0
   59.4065   26.9898   44.7501 H   0  0  0  0  0  0  0  0  0  0  0  0
   59.4473   26.9534   47.8056 H   0  0  0  0  0  0  0  0  0  0  0  0
   59.7447   28.3658   46.6736 H   0  0  0  0  0  0  0  0  0  0  0  0
   57.4174   27.9336   47.9525 H   0  0  0  0  0  0  0  0  0  0  0  0
   56.3770   29.3240   46.3770 H   0  0  0  0  0  0  0  0  0  0  0  0
   58.4262   30.0236   44.6543 H   0  0  0  0  0  0  0  0  0  0  0  0
   58.1976   28.2365   44.5307 H   0  0  0  0  0  0  0  0  0  0  0  0
   56.5474   30.3615   43.4545 H   0  0  0  0  0  0  0  0  0  0  0  0
   56.3808   28.5742   43.2650 H   0  0  0  0  0  0  0  0  0  0  0  0
   55.4700   30.0640   45.6320 H   0  0  0  0  0  0  0  0  0  0  0  0
   55.1630   28.4620   45.2470 H   0  0  0  0  0  0  0  0  0  0  0  0
  1  2  1  0
  2  3  1  0
  3  4  2  0
  4  5  1  0
  5  6  1  0
  6  7  2  0
  7  8  1  0
  8  9  1  0
  9 10  1  0
 10 11  1  0
 11 12  1  0
 12 13  1  0
 13 14  1  0
 14 15  1  0
  7  3  1  0
 11  6  1  0
  1 16  1  0
  1 17  1  0
  1 18  1  0
  2 19  1  0
  2 20  1  0
  8 21  1  0
  8 22  1  0
  9 23  1  0
  9 24  1  0
 10 25  1  0
 10 26  1  0
 11 27  1  1
 12 28  1  0
 13 29  1  0
 13 30  1  0
 14 31  1  0
 14 32  1  0
 15 33  1  0
 15 34  1  0
M  END
>  <UniqueID>  (17) 
17

>  <SMILES>  (17) 
CCc1noc2c1CCC[C@H]2NCCN

>  <Energy>  (17) 
61.18085031698413

>  <Genealogy>  (17) 
CCc1noc2c1CCC[C@H]2NCCN (chirality)
CCc1noc2c1CCC[C@H]2NCCN (3D coordinates assigned)
CCc1noc2c1CCC[C@H]2NCCN (nonaromatic ring conformer: 61.18085031698413 kcal/mol)

>  <smiles>  (17) 
CCc1noc2c1CCCC2NCCN

>  <score_type>  (17) 
oracle

>  <origin>  (17) 
adg

>  <m_score__min__energy>  (17) 
-6.9400000000000004

>  <m_primary>  (17) 
energy

$$$$
18:0
     RDKit          3D

 60 62  0  0  0  0  0  0  0  0999 V2000
   59.0070   34.5830   44.9000 C   0  0  0  0  0  0  0  0  0  0  0  0
   57.8030   33.6920   44.5790 C   0  0  0  0  0  0  0  0  0  0  0  0
   58.2070   32.3200   44.2230 N   0  0  0  0  0  0  0  0  0  0  0  0
   57.6950   31.9040   42.9070 C   0  0  0  0  0  0  0  0  0  0  0  0
   56.6370   30.8070   43.0790 C   0  0  0  0  0  0  0  0  0  0  0  0
   57.1790   29.5930   43.8480 C   0  0  0  0  0  0  0  0  0  0  0  0
   56.9600   29.7220   45.2430 O   0  0  0  0  0  0  0  0  0  0  0  0
   57.9460   29.0150   45.9670 C   0  0  0  0  0  0  0  0  0  0  0  0
   58.4710   29.8960   47.1010 C   0  0  0  0  0  0  0  0  0  0  0  0
   58.4310   31.2660   46.7390 O   0  0  0  0  0  0  0  0  0  0  0  0
   59.0660   32.0790   47.7090 C   0  0  0  0  0  0  0  0  0  0  0  0
   58.3580   33.4290   47.8340 C   0  0  0  0  0  0  0  0  0  0  0  0
   59.2520   34.4120   48.4390 N   0  0  0  0  0  0  0  0  0  0  0  0
   60.4210   34.0140   49.1730 C   0  0  0  0  0  0  0  0  0  0  0  0
   61.6360   33.7900   48.5020 C   0  0  0  0  0  0  0  0  0  0  0  0
   61.7120   33.8860   47.0950 C   0  0  0  0  0  0  0  0  0  0  0  0
   62.8980   33.6000   46.4260 C   0  0  0  0  0  0  0  0  0  0  0  0
   64.0230   33.2030   47.1410 C   0  0  0  0  0  0  0  0  0  0  0  0
   63.9750   33.1100   48.5300 C   0  0  0  0  0  0  0  0  0  0  0  0
   62.7910   33.4300   49.2460 C   0  0  0  0  0  0  0  0  0  0  0  0
   62.7360   33.3750   50.6280 N   0  0  0  0  0  0  0  0  0  0  0  0
   63.9870   33.2860   51.4140 C   0  0  0  0  0  0  0  0  0  0  0  0
   61.5130   33.4200   51.2750 C   0  0  0  0  0  0  0  0  0  0  0  0
   61.3840   33.1100   52.6540 C   0  0  0  0  0  0  0  0  0  0  0  0
   60.1510   33.2090   53.3040 C   0  0  0  0  0  0  0  0  0  0  0  0
   60.0250   32.8260   55.0130 Cl  0  0  0  0  0  0  0  0  0  0  0  0
   59.0170   33.5970   52.5970 C   0  0  0  0  0  0  0  0  0  0  0  0
   59.1050   33.8670   51.2340 C   0  0  0  0  0  0  0  0  0  0  0  0
   60.3390   33.7690   50.5550 C   0  0  0  0  0  0  0  0  0  0  0  0
   59.1205   34.6670   45.9909 H   0  0  0  0  0  0  0  0  0  0  0  0
   59.9168   34.1390   44.4698 H   0  0  0  0  0  0  0  0  0  0  0  0
   58.8483   35.5829   44.4698 H   0  0  0  0  0  0  0  0  0  0  0  0
   57.1471   33.6509   45.4611 H   0  0  0  0  0  0  0  0  0  0  0  0
   57.2816   34.1266   43.7134 H   0  0  0  0  0  0  0  0  0  0  0  0
   57.8680   31.6500   44.9550 H   0  0  0  0  0  0  0  0  0  0  0  0
   57.2429   32.7701   42.4015 H   0  0  0  0  0  0  0  0  0  0  0  0
   58.5268   31.5121   42.3032 H   0  0  0  0  0  0  0  0  0  0  0  0
   55.7818   31.2233   43.6316 H   0  0  0  0  0  0  0  0  0  0  0  0
   56.3386   30.4658   42.0767 H   0  0  0  0  0  0  0  0  0  0  0  0
   56.6707   28.6861   43.4886 H   0  0  0  0  0  0  0  0  0  0  0  0
   58.2631   29.5293   43.6731 H   0  0  0  0  0  0  0  0  0  0  0  0
   57.5063   28.0985   46.3874 H   0  0  0  0  0  0  0  0  0  0  0  0
   58.7748   28.7475   45.2950 H   0  0  0  0  0  0  0  0  0  0  0  0
   57.8483   29.7415   47.9945 H   0  0  0  0  0  0  0  0  0  0  0  0
   59.5152   29.6178   47.3067 H   0  0  0  0  0  0  0  0  0  0  0  0
   59.0398   31.5666   48.6820 H   0  0  0  0  0  0  0  0  0  0  0  0
   60.1060   32.2540   47.3962 H   0  0  0  0  0  0  0  0  0  0  0  0
   58.0588   33.7765   46.8341 H   0  0  0  0  0  0  0  0  0  0  0  0
   57.4694   33.3111   48.4715 H   0  0  0  0  0  0  0  0  0  0  0  0
   59.1120   35.4250   48.2250 H   0  0  0  0  0  0  0  0  0  0  0  0
   60.8238   34.1902   46.5218 H   0  0  0  0  0  0  0  0  0  0  0  0
   62.9459   33.6880   45.3306 H   0  0  0  0  0  0  0  0  0  0  0  0
   64.9542   32.9615   46.6076 H   0  0  0  0  0  0  0  0  0  0  0  0
   64.8690   32.7833   49.0814 H   0  0  0  0  0  0  0  0  0  0  0  0
   63.7476   33.3030   52.4875 H   0  0  0  0  0  0  0  0  0  0  0  0
   64.5079   32.3485   51.1693 H   0  0  0  0  0  0  0  0  0  0  0  0
   64.6353   34.1403   51.1693 H   0  0  0  0  0  0  0  0  0  0  0  0
   62.2695   32.7864   53.2206 H   0  0  0  0  0  0  0  0  0  0  0  0
   58.0511   33.6904   53.1150 H   0  0  0  0  0  0  0  0  0  0  0  0
   58.2017   34.1604   50.6791 H   0  0  0  0  0  0  0  0  0  0  0  0
  1  2  1  0
  2  3  1  0
  3  4  1  0
  4  5  1  0
  5  6  1  0
  6  7  1  0
  7  8  1  0
  8  9  1  0
  9 10  1  0
 10 11  1  0
 11 12  1  0
 12 13  1  0
 13 14  1  0
 14 15  2  0
 15 16  1  0
 16 17  2  0
 17 18  1  0
 18 19  2  0
 19 20  1  0
 20 21  2  0
 21 22  1  0
 21 23  1  0
 23 24  2  0
 24 25  1  0
 25 26  1  0
 25 27  2  0
 27 28  1  0
 28 29  2  0
 29 14  1  0
 20 15  1  0
 29 23  1  0
  1 30  1  0
  1 31  1  0
  1 32  1  0
  2 33  1  0
  2 34  1  0
  3 35  1  0
  4 36  1  0
  4 37  1  0
  5 38  1  0
  5 39  1  0
  6 40  1  0
  6 41  1  0
  8 42  1  0
  8 43  1  0
  9 44  1  0
  9 45  1  0
 11 46  1  0
 11 47  1  0
 12 48  1  0
 12 49  1  0
 13 50  1  0
 16 51  1  0
 17 52  1  0
 18 53  1  0
 19 54  1  0
 22 55  1  0
 22 56  1  0
 22 57  1  0
 24 58  1  0
 27 59  1  0
 28 60  1  0
M  CHG  1  21   1
M  END
>  <UniqueID>  (18) 
18

>  <SMILES>  (18) 
CCNCCCOCCOCCNc1c2ccccc2[n+](C)c2cc(Cl)ccc12

>  <Energy>  (18) 
84.42249532889812

>  <Genealogy>  (18) 
CCNCCCOCCOCCNc1c2ccccc2[n+](C)c2cc(Cl)ccc12 (3D coordinates assigned)
CCNCCCOCCOCCNc1c2ccccc2[n+](C)c2cc(Cl)ccc12 (optimized conformer: 84.42249532889812 kcal/mol)

>  <smiles>  (18) 
CCNCCCOCCOCCNc1c2ccccc2[n+](C)c2cc(Cl)ccc12

>  <score_type>  (18) 
oracle

>  <origin>  (18) 
adg

>  <m_score__min__energy>  (18) 
-6.0300000000000002

>  <m_primary>  (18) 
energy

$$$$
19:0
     RDKit          3D

 71 72  0  0  0  0  0  0  0  0999 V2000
   54.6790   29.9500   53.0810 C   0  0  0  0  0  0  0  0  0  0  0  0
   55.2990   30.8870   52.0470 C   0  0  0  0  0  0  0  0  0  0  0  0
   56.7480   30.9080   52.1850 N   0  0  0  0  0  0  0  0  0  0  0  0
   57.3630   31.8680   53.1030 C   0  0  0  0  0  0  0  0  0  0  0  0
   57.7800   33.1570   52.3930 C   0  0  0  0  0  0  0  0  0  0  0  0
   57.4000   30.0630   51.5210 N   0  0  0  0  0  0  0  0  0  0  0  0
   58.5740   30.3660   50.2830 S   0  0  0  0  0  0  0  0  0  0  0  0
   58.2130   31.6650   49.6200 O   0  0  0  0  0  0  0  0  0  0  0  0
   58.5750   29.2960   49.2290 O   0  0  0  0  0  0  0  0  0  0  0  0
   60.2110   30.5440   50.9860 C   0  0  0  0  0  0  0  0  0  0  0  0
   60.7930   31.9250   50.6780 C   0  0  0  0  0  0  0  0  0  0  0  0
   62.0120   31.8160   49.7510 C   0  0  0  0  0  0  0  0  0  0  0  0
   61.6650   32.0520   48.2690 C   0  0  0  0  0  0  0  0  0  0  0  0
   61.9500   30.8650   47.3300 C   0  0  0  0  0  0  0  0  0  0  0  0
   60.7640   29.8970   47.2010 C   0  0  0  0  0  0  0  0  0  0  0  0
   60.3840   29.6880   45.7270 C   0  0  0  0  0  0  0  0  0  0  0  0
   60.6520   28.2520   45.2460 C   0  0  0  0  0  0  0  0  0  0  0  0
   59.5020   27.2940   45.5830 C   0  0  0  0  0  0  0  0  0  0  0  0
   58.2140   28.0710   45.8890 C   0  0  0  0  0  0  0  0  0  0  0  0
   57.4880   28.4970   44.6070 C   0  0  0  0  0  0  0  0  0  0  0  0
   56.7850   29.7270   44.7860 O   0  0  0  0  0  0  0  0  0  0  0  0
   57.3570   31.0110   44.7840 C   0  0  0  0  0  0  0  0  0  0  0  0
   57.4150   31.8030   43.6250 C   0  0  0  0  0  0  0  0  0  0  0  0
   57.9890   33.0720   43.6640 C   0  0  0  0  0  0  0  0  0  0  0  0
   58.5200   33.5740   44.8560 C   0  0  0  0  0  0  0  0  0  0  0  0
   59.0970   34.8540   44.8770 C   0  0  0  0  0  0  0  0  0  0  0  0
   59.6350   35.3640   46.0580 C   0  0  0  0  0  0  0  0  0  0  0  0
   59.6040   34.6020   47.2250 C   0  0  0  0  0  0  0  0  0  0  0  0
   59.0330   33.3260   47.2230 C   0  0  0  0  0  0  0  0  0  0  0  0
   58.4790   32.7890   46.0400 C   0  0  0  0  0  0  0  0  0  0  0  0
   57.8880   31.4970   45.9910 C   0  0  0  0  0  0  0  0  0  0  0  0
   57.7970   30.6610   47.1100 O   0  0  0  0  0  0  0  0  0  0  0  0
   54.9177   30.3107   54.0924 H   0  0  0  0  0  0  0  0  0  0  0  0
   53.5873   29.9278   52.9477 H   0  0  0  0  0  0  0  0  0  0  0  0
   55.0854   28.9365   52.9477 H   0  0  0  0  0  0  0  0  0  0  0  0
   55.0361   30.5376   51.0376 H   0  0  0  0  0  0  0  0  0  0  0  0
   54.9106   31.9034   52.2084 H   0  0  0  0  0  0  0  0  0  0  0  0
   56.6395   32.1165   53.8934 H   0  0  0  0  0  0  0  0  0  0  0  0
   58.2681   31.4040   53.5220 H   0  0  0  0  0  0  0  0  0  0  0  0
   58.0281   33.9240   53.1414 H   0  0  0  0  0  0  0  0  0  0  0  0
   58.6604   32.9605   51.7635 H   0  0  0  0  0  0  0  0  0  0  0  0
   56.9513   33.5134   51.7635 H   0  0  0  0  0  0  0  0  0  0  0  0
   60.1501   30.4144   52.0766 H   0  0  0  0  0  0  0  0  0  0  0  0
   60.8674   29.7804   50.5432 H   0  0  0  0  0  0  0  0  0  0  0  0
   60.0226   32.5386   50.1880 H   0  0  0  0  0  0  0  0  0  0  0  0
   61.1126   32.3885   51.6230 H   0  0  0  0  0  0  0  0  0  0  0  0
   62.7556   32.5652   50.0604 H   0  0  0  0  0  0  0  0  0  0  0  0
   62.4008   30.7907   49.8383 H   0  0  0  0  0  0  0  0  0  0  0  0
   60.5923   32.2868   48.2042 H   0  0  0  0  0  0  0  0  0  0  0  0
   62.3163   32.8713   47.9305 H   0  0  0  0  0  0  0  0  0  0  0  0
   62.1899   31.2590   46.3314 H   0  0  0  0  0  0  0  0  0  0  0  0
   62.7880   30.2993   47.7633 H   0  0  0  0  0  0  0  0  0  0  0  0
   61.0404   28.9281   47.6424 H   0  0  0  0  0  0  0  0  0  0  0  0
   59.9002   30.3275   47.7287 H   0  0  0  0  0  0  0  0  0  0  0  0
   59.3129   29.9065   45.6047 H   0  0  0  0  0  0  0  0  0  0  0  0
   61.0070   30.3639   45.1228 H   0  0  0  0  0  0  0  0  0  0  0  0
   60.7911   28.2659   44.1549 H   0  0  0  0  0  0  0  0  0  0  0  0
   61.5517   27.8888   45.7644 H   0  0  0  0  0  0  0  0  0  0  0  0
   59.3256   26.6275   44.7259 H   0  0  0  0  0  0  0  0  0  0  0  0
   59.7801   26.7101   46.4728 H   0  0  0  0  0  0  0  0  0  0  0  0
   57.5441   27.4307   46.4816 H   0  0  0  0  0  0  0  0  0  0  0  0
   58.4868   28.9797   46.4457 H   0  0  0  0  0  0  0  0  0  0  0  0
   58.2277   28.6222   43.8025 H   0  0  0  0  0  0  0  0  0  0  0  0
   56.7567   27.7166   44.3497 H   0  0  0  0  0  0  0  0  0  0  0  0
   57.0042   31.4184   42.6798 H   0  0  0  0  0  0  0  0  0  0  0  0
   58.0247   33.6834   42.7503 H   0  0  0  0  0  0  0  0  0  0  0  0
   59.1247   35.4572   43.9575 H   0  0  0  0  0  0  0  0  0  0  0  0
   60.0841   36.3681   46.0689 H   0  0  0  0  0  0  0  0  0  0  0  0
   60.0318   35.0076   48.1537 H   0  0  0  0  0  0  0  0  0  0  0  0
   59.0150   32.7352   48.1507 H   0  0  0  0  0  0  0  0  0  0  0  0
   58.4750   30.6190   47.8550 H   0  0  0  0  0  0  0  0  0  0  0  0
  1  2  1  0
  2  3  1  0
  3  4  1  0
  4  5  1  0
  3  6  2  3
  6  7  1  0
  7  8  2  0
  7  9  2  0
  7 10  1  0
 10 11  1  0
 11 12  1  0
 12 13  1  0
 13 14  1  0
 14 15  1  0
 15 16  1  0
 16 17  1  0
 17 18  1  0
 18 19  1  0
 19 20  1  0
 20 21  1  0
 21 22  1  0
 22 23  2  0
 23 24  1  0
 24 25  2  0
 25 26  1  0
 26 27  2  0
 27 28  1  0
 28 29  2  0
 29 30  1  0
 30 31  2  0
 31 32  1  0
 31 22  1  0
 30 25  1  0
  1 33  1  0
  1 34  1  0
  1 35  1  0
  2 36  1  0
  2 37  1  0
  4 38  1  0
  4 39  1  0
  5 40  1  0
  5 41  1  0
  5 42  1  0
 10 43  1  0
 10 44  1  0
 11 45  1  0
 11 46  1  0
 12 47  1  0
 12 48  1  0
 13 49  1  0
 13 50  1  0
 14 51  1  0
 14 52  1  0
 15 53  1  0
 15 54  1  0
 16 55  1  0
 16 56  1  0
 17 57  1  0
 17 58  1  0
 18 59  1  0
 18 60  1  0
 19 61  1  0
 19 62  1  0
 20 63  1  0
 20 64  1  0
 23 65  1  0
 24 66  1  0
 26 67  1  0
 27 68  1  0
 28 69  1  0
 29 70  1  0
 32 71  1  0
M  CHG  1   3   1
M  END
>  <UniqueID>  (19) 
19

>  <SMILES>  (19) 
CC[N+](CC)=NS(=O)(=O)CCCCCCCCCCCOc1ccc2ccccc2c1O

>  <Energy>  (19) 
56.95423190700115

>  <Genealogy>  (19) 
CC[N+](CC)=NS(=O)(=O)CCCCCCCCCCCOc1ccc2ccccc2c1O (3D coordinates assigned)
CC[N+](CC)=NS(=O)(=O)CCCCCCCCCCCOc1ccc2ccccc2c1O (optimized conformer: 56.95423190700115 kcal/mol)

>  <smiles>  (19) 
CC[N+](CC)=NS(=O)(=O)CCCCCCCCCCCOc1ccc2ccccc2c1O

>  <score_type>  (19) 
oracle

>  <origin>  (19) 
adg

>  <m_score__min__energy>  (19) 
-7.9299999999999997

>  <m_primary>  (19) 
energy

$$$$
20:0
     RDKit          3D

 80 84  0  0  0  0  0  0  0  0999 V2000
   56.8150   26.4440   46.0620 C   0  0  0  0  0  0  0  0  0  0  0  0
   57.7890   25.8050   47.0520 C   0  0  0  0  0  0  0  0  0  0  0  0
   58.9290   26.6820   47.3720 N   0  0  0  0  0  0  0  0  0  0  0  0
   59.8840   26.7980   46.2600 C   0  0  0  0  0  0  0  0  0  0  0  0
   60.4000   28.2470   46.1400 C   0  0  0  0  0  0  0  0  0  0  0  0
   59.8220   29.1740   47.1360 N   0  0  0  0  0  0  0  0  0  0  0  0
   59.4900   30.4750   46.5850 C   0  0  0  0  0  0  0  0  0  0  0  0
   58.5060   30.6070   45.5560 C   0  0  0  0  0  0  0  0  0  0  0  0
   57.7520   29.4950   45.1060 C   0  0  0  0  0  0  0  0  0  0  0  0
   56.8370   29.6160   44.0640 C   0  0  0  0  0  0  0  0  0  0  0  0
   56.6470   30.8380   43.4380 C   0  0  0  0  0  0  0  0  0  0  0  0
   57.3520   31.9580   43.8660 C   0  0  0  0  0  0  0  0  0  0  0  0
   58.2700   31.8840   44.9450 C   0  0  0  0  0  0  0  0  0  0  0  0
   58.9390   33.0100   45.3910 N   0  0  0  0  0  0  0  0  0  0  0  0
   58.6130   34.3500   44.8620 C   0  0  0  0  0  0  0  0  0  0  0  0
   59.9130   32.8650   46.3420 C   0  0  0  0  0  0  0  0  0  0  0  0
   60.7450   33.8440   46.7660 N   0  0  0  0  0  0  0  0  0  0  0  0
   61.5370   33.2700   47.6840 C   0  0  0  0  0  0  0  0  0  0  0  0
   62.5800   33.8990   48.3620 C   0  0  0  0  0  0  0  0  0  0  0  0
   63.3350   33.1570   49.2830 C   0  0  0  0  0  0  0  0  0  0  0  0
   64.4040   33.8010   49.9270 O   0  0  0  0  0  0  0  0  0  0  0  0
   64.6880   33.7490   51.3250 C   0  0  0  0  0  0  0  0  0  0  0  0
   66.1650   34.1130   51.6010 C   0  0  0  0  0  0  0  0  0  0  0  0
   67.1730   33.0350   51.3120 N   0  0  0  0  0  0  0  0  0  0  0  0
   68.3120   33.6050   50.5390 C   0  0  0  0  0  0  0  0  0  0  0  0
   66.5100   31.9890   50.4520 C   0  0  0  0  0  0  0  0  0  0  0  0
   65.9330   30.8190   51.2730 C   0  0  0  0  0  0  0  0  0  0  0  0
   66.9970   30.0810   52.0280 N   0  0  0  0  0  0  0  0  0  0  0  0
   67.5250   28.9720   51.1920 C   0  0  0  0  0  0  0  0  0  0  0  0
   66.3960   29.4860   53.2470 C   0  0  0  0  0  0  0  0  0  0  0  0
   68.1340   30.9770   52.4150 C   0  0  0  0  0  0  0  0  0  0  0  0
   67.6820   32.4390   52.5890 C   0  0  0  0  0  0  0  0  0  0  0  0
   63.0240   31.7910   49.4900 C   0  0  0  0  0  0  0  0  0  0  0  0
   61.9740   31.1760   48.7910 C   0  0  0  0  0  0  0  0  0  0  0  0
   61.2330   31.9340   47.8650 C   0  0  0  0  0  0  0  0  0  0  0  0
   60.1840   31.6520   46.9670 C   0  0  0  0  0  0  0  0  0  0  0  0
   56.0198   26.9657   46.6148 H   0  0  0  0  0  0  0  0  0  0  0  0
   57.3548   27.1640   45.4294 H   0  0  0  0  0  0  0  0  0  0  0  0
   56.3695   25.6621   45.4294 H   0  0  0  0  0  0  0  0  0  0  0  0
   57.2474   25.5778   47.9821 H   0  0  0  0  0  0  0  0  0  0  0  0
   58.1906   24.8944   46.5834 H   0  0  0  0  0  0  0  0  0  0  0  0
   59.4250   26.3140   48.2170 H   0  0  0  0  0  0  0  0  0  0  0  0
   60.7347   26.1247   46.4416 H   0  0  0  0  0  0  0  0  0  0  0  0
   59.3756   26.5227   45.3242 H   0  0  0  0  0  0  0  0  0  0  0  0
   61.4924   28.2373   46.2691 H   0  0  0  0  0  0  0  0  0  0  0  0
   60.0947   28.6132   45.1487 H   0  0  0  0  0  0  0  0  0  0  0  0
   60.4390   29.2500   47.9600 H   0  0  0  0  0  0  0  0  0  0  0  0
   58.9670   28.7380   47.5450 H   0  0  0  0  0  0  0  0  0  0  0  0
   57.8924   28.5170   45.5895 H   0  0  0  0  0  0  0  0  0  0  0  0
   56.2619   28.7376   43.7358 H   0  0  0  0  0  0  0  0  0  0  0  0
   55.9376   30.9221   42.6015 H   0  0  0  0  0  0  0  0  0  0  0  0
   57.1945   32.9206   43.3575 H   0  0  0  0  0  0  0  0  0  0  0  0
   58.4443   35.0435   45.6990 H   0  0  0  0  0  0  0  0  0  0  0  0
   59.4487   34.7145   44.2465 H   0  0  0  0  0  0  0  0  0  0  0  0
   57.7033   34.2899   44.2465 H   0  0  0  0  0  0  0  0  0  0  0  0
   60.8290   34.8290   46.4360 H   0  0  0  0  0  0  0  0  0  0  0  0
   62.8074   34.9594   48.1781 H   0  0  0  0  0  0  0  0  0  0  0  0
   64.0367   34.4620   51.8517 H   0  0  0  0  0  0  0  0  0  0  0  0
   64.5051   32.7252   51.6833 H   0  0  0  0  0  0  0  0  0  0  0  0
   66.4183   34.9859   50.9814 H   0  0  0  0  0  0  0  0  0  0  0  0
   66.2286   34.2970   52.6836 H   0  0  0  0  0  0  0  0  0  0  0  0
   69.0735   33.9861   51.2353 H   0  0  0  0  0  0  0  0  0  0  0  0
   68.7537   32.8217   49.9055 H   0  0  0  0  0  0  0  0  0  0  0  0
   67.9498   34.4281   49.9055 H   0  0  0  0  0  0  0  0  0  0  0  0
   65.6907   32.4627   49.8913 H   0  0  0  0  0  0  0  0  0  0  0  0
   67.2780   31.5761   49.7814 H   0  0  0  0  0  0  0  0  0  0  0  0
   65.2001   31.2166   51.9904 H   0  0  0  0  0  0  0  0  0  0  0  0
   65.4633   30.1129   50.5724 H   0  0  0  0  0  0  0  0  0  0  0  0
   67.9061   28.1715   51.8430 H   0  0  0  0  0  0  0  0  0  0  0  0
   66.7190   28.5757   50.5570 H   0  0  0  0  0  0  0  0  0  0  0  0
   68.3408   29.3478   50.5570 H   0  0  0  0  0  0  0  0  0  0  0  0
   66.8530   29.9385   54.1394 H   0  0  0  0  0  0  0  0  0  0  0  0
   65.3128   29.6775   53.2527 H   0  0  0  0  0  0  0  0  0  0  0  0
   66.5766   28.4009   53.2527 H   0  0  0  0  0  0  0  0  0  0  0  0
   68.5593   30.6212   53.3650 H   0  0  0  0  0  0  0  0  0  0  0  0
   68.8814   30.9458   51.6085 H   0  0  0  0  0  0  0  0  0  0  0  0
   66.8788   32.4735   53.3398 H   0  0  0  0  0  0  0  0  0  0  0  0
   68.5567   33.0250   52.9075 H   0  0  0  0  0  0  0  0  0  0  0  0
   63.6139   31.2036   50.2090 H   0  0  0  0  0  0  0  0  0  0  0  0
   61.7335   30.1167   48.9643 H   0  0  0  0  0  0  0  0  0  0  0  0
  1  2  1  0
  2  3  1  0
  3  4  1  0
  4  5  1  0
  5  6  1  0
  6  7  1  0
  7  8  2  0
  8  9  1  0
  9 10  2  0
 10 11  1  0
 11 12  2  0
 12 13  1  0
 13 14  2  0
 14 15  1  0
 14 16  1  0
 16 17  1  0
 17 18  1  0
 18 19  2  0
 19 20  1  0
 20 21  1  0
 21 22  1  0
 22 23  1  0
 23 24  1  0
 24 25  1  0
 24 26  1  0
 26 27  1  0
 27 28  1  0
 28 29  1  0
 28 30  1  0
 28 31  1  0
 31 32  1  0
 20 33  2  0
 33 34  1  0
 34 35  2  0
 35 36  1  0
 36  7  1  0
 13  8  1  0
 36 16  2  0
 35 18  1  0
 32 24  1  0
  1 37  1  0
  1 38  1  0
  1 39  1  0
  2 40  1  0
  2 41  1  0
  3 42  1  0
  4 43  1  0
  4 44  1  0
  5 45  1  0
  5 46  1  0
  6 47  1  0
  6 48  1  0
  9 49  1  0
 10 50  1  0
 11 51  1  0
 12 52  1  0
 15 53  1  0
 15 54  1  0
 15 55  1  0
 17 56  1  0
 19 57  1  0
 22 58  1  0
 22 59  1  0
 23 60  1  0
 23 61  1  0
 25 62  1  0
 25 63  1  0
 25 64  1  0
 26 65  1  0
 26 66  1  0
 27 67  1  0
 27 68  1  0
 29 69  1  0
 29 70  1  0
 29 71  1  0
 30 72  1  0
 30 73  1  0
 30 74  1  0
 31 75  1  0
 31 76  1  0
 32 77  1  0
 32 78  1  0
 33 79  1  0
 34 80  1  0
M  CHG  4   6   1  14   1  24   1  28   1
M  END
>  <UniqueID>  (20) 
20

>  <SMILES>  (20) 
CCNCC[NH2+]c1c2ccccc2[n+](C)c2[nH]c3cc(OCC[N+]4(C)CC[N+](C)(C)CC4)ccc3c12

>  <Energy>  (20) 
170.8780729945256

>  <Genealogy>  (20) 
CCNCC[NH2+]c1c2ccccc2[n+](C)c2[nH]c3cc(OCC[N+]4(C)CC[N+](C)(C)CC4)ccc3c12 (protonated)
CCNCC[NH2+]c1c2ccccc2[n+](C)c2[nH]c3cc(OCC[N+]4(C)CC[N+](C)(C)CC4)ccc3c12 (3D coordinates assigned)
CCNCC[NH2+]c1c2ccccc2[n+](C)c2[nH]c3cc(OCC[N+]4(C)CC[N+](C)(C)CC4)ccc3c12 (nonaromatic ring conformer: 170.8780729945256 kcal/mol)

>  <smiles>  (20) 
CCNCCNc1c2ccccc2[n+](C)c2[nH]c3cc(OCC[N+]4(C)CC[N+](C)(C)CC4)ccc3c12

>  <score_type>  (20) 
oracle

>  <origin>  (20) 
adg

>  <m_score__min__energy>  (20) 
-3.1600000000000001

>  <m_primary>  (20) 
energy

$$$$
21:0
     RDKit          3D

 47 49  0  0  0  0  0  0  0  0999 V2000
   56.4607   26.1320   45.4330 H   0  0  0  0  0  0  0  0  0  0  0  0
   57.0700   27.0190   45.6610 C   0  0  0  0  0  0  0  0  0  0  0  0
   58.2570   26.8860   46.3740 C   0  0  0  0  0  0  0  0  0  0  0  0
   58.5705   25.8947   46.7332 H   0  0  0  0  0  0  0  0  0  0  0  0
   59.0540   28.0040   46.6370 C   0  0  0  0  0  0  0  0  0  0  0  0
   59.9769   27.8824   47.2231 H   0  0  0  0  0  0  0  0  0  0  0  0
   58.6960   29.2920   46.1630 C   0  0  0  0  0  0  0  0  0  0  0  0
   59.4770   30.4880   46.3430 C   0  0  0  0  0  0  0  0  0  0  0  0
   60.7220   30.5230   46.7560 N   0  0  0  0  0  0  0  0  0  0  0  0
   61.3430   30.5050   48.0750 C   0  0  0  0  0  0  0  0  0  0  0  0
   61.7252   29.4959   48.2885 H   0  0  0  0  0  0  0  0  0  0  0  0
   60.6001   30.7797   48.8383 H   0  0  0  0  0  0  0  0  0  0  0  0
   62.4980   31.5050   48.0970 C   0  0  0  0  0  0  0  0  0  0  0  0
   63.0965   31.3898   47.1813 H   0  0  0  0  0  0  0  0  0  0  0  0
   63.1245   31.3121   48.9803 H   0  0  0  0  0  0  0  0  0  0  0  0
   61.9720   32.8890   48.1680 N   0  0  0  0  0  0  0  0  0  0  0  0
   61.3450   33.1560   49.4840 C   0  0  0  0  0  0  0  0  0  0  0  0
   62.0601   33.6920   50.1254 H   0  0  0  0  0  0  0  0  0  0  0  0
   61.0669   32.1993   49.9504 H   0  0  0  0  0  0  0  0  0  0  0  0
   60.0910   34.0070   49.3060 C   0  0  0  0  0  0  0  0  0  0  0  0
   59.6896   34.2794   50.2932 H   0  0  0  0  0  0  0  0  0  0  0  0
   60.3441   34.9207   48.7482 H   0  0  0  0  0  0  0  0  0  0  0  0
   59.3354   33.4344   48.7482 H   0  0  0  0  0  0  0  0  0  0  0  0
   63.0320   33.8810   47.8700 C   0  0  0  0  0  0  0  0  0  0  0  0
   62.6735   34.8865   48.1353 H   0  0  0  0  0  0  0  0  0  0  0  0
   63.9290   33.6348   48.4571 H   0  0  0  0  0  0  0  0  0  0  0  0
   63.3840   33.8470   46.3860 C   0  0  0  0  0  0  0  0  0  0  0  0
   64.4728   33.7418   46.2697 H   0  0  0  0  0  0  0  0  0  0  0  0
   62.8802   32.9933   45.9091 H   0  0  0  0  0  0  0  0  0  0  0  0
   63.0529   34.7813   45.9091 H   0  0  0  0  0  0  0  0  0  0  0  0
   58.9010   31.7350   45.9760 C   0  0  0  0  0  0  0  0  0  0  0  0
   59.5770   32.9610   46.1870 C   0  0  0  0  0  0  0  0  0  0  0  0
   60.5638   32.9604   46.6730 H   0  0  0  0  0  0  0  0  0  0  0  0
   59.0040   34.1770   45.7840 C   0  0  0  0  0  0  0  0  0  0  0  0
   59.7140   35.4710   46.0540 C   0  0  0  0  0  0  0  0  0  0  0  0
   59.7977   35.6236   47.1401 H   0  0  0  0  0  0  0  0  0  0  0  0
   60.7198   35.4370   45.6099 H   0  0  0  0  0  0  0  0  0  0  0  0
   59.1450   36.3011   45.6099 H   0  0  0  0  0  0  0  0  0  0  0  0
   57.7370   34.1810   45.1890 C   0  0  0  0  0  0  0  0  0  0  0  0
   57.2733   35.1336   44.8933 H   0  0  0  0  0  0  0  0  0  0  0  0
   57.0610   32.9820   44.9700 C   0  0  0  0  0  0  0  0  0  0  0  0
   56.0713   32.9920   44.4901 H   0  0  0  0  0  0  0  0  0  0  0  0
   57.6340   31.7660   45.3570 C   0  0  0  0  0  0  0  0  0  0  0  0
   56.9630   30.6170   45.1240 N   0  0  0  0  0  0  0  0  0  0  0  0
   57.4400   29.4060   45.4970 C   0  0  0  0  0  0  0  0  0  0  0  0
   56.6570   28.2760   45.2380 C   0  0  0  0  0  0  0  0  0  0  0  0
   55.7065   28.3838   44.6949 H   0  0  0  0  0  0  0  0  0  0  0  0
  1  2  1  0
  2  3  2  0
  3  4  1  0
  3  5  1  0
  5  6  1  0
  5  7  2  0
  7  8  1  0
  8  9  2  0
  9 10  1  0
 10 11  1  0
 10 12  1  0
 10 13  1  0
 13 14  1  0
 13 15  1  0
 13 16  1  0
 16 17  1  0
 17 18  1  0
 17 19  1  0
 17 20  1  0
 20 21  1  0
 20 22  1  0
 20 23  1  0
 16 24  1  0
 24 25  1  0
 24 26  1  0
 24 27  1  0
 27 28  1  0
 27 29  1  0
 27 30  1  0
  8 31  1  0
 31 32  2  0
 32 33  1  0
 32 34  1  0
 34 35  1  0
 35 36  1  0
 35 37  1  0
 35 38  1  0
 34 39  2  0
 39 40  1  0
 39 41  1  0
 41 42  1  0
 41 43  2  0
 43 44  1  0
 44 45  1  0
 45 46  2  0
 46 47  1  0
 46  2  1  0
 45  7  1  0
 43 31  1  0
M  CHG  1  44  -1
M  END
>  <UniqueID>  (21) 
21

>  <SMILES>  (21) 
CCN(CC)CC/N=c1\c2ccccc2[n-]c2ccc(C)cc12

>  <Energy>  (21) 
68.24692823532003

>  <Genealogy>  (21) 
CCN(CC)CCN=c1c2ccccc2[n-]c2ccc(C)cc12 (protonated)
CCN(CC)CC/N=c1\c2ccccc2[n-]c2ccc(C)cc12 (cis-trans isomerization)
CCN(CC)CC/N=c1\c2ccccc2[n-]c2ccc(C)cc12 (3D coordinates assigned)
CCN(CC)CC/N=c1\c2ccccc2[n-]c2ccc(C)cc12 (optimized conformer: 68.24692823532003 kcal/mol)

>  <smiles>  (21) 
CCN(CC)CCN=c1c2ccccc2[nH]c2ccc(C)cc12

>  <score_type>  (21) 
oracle

>  <origin>  (21) 
adg

>  <m_score__min__energy>  (21) 
-8.4199999999999999

>  <m_primary>  (21) 
energy

$$$$
22:0
     RDKit          3D

 74 78  0  0  0  0  0  0  0  0999 V2000
   58.6210   33.8850   52.2000 C   0  0  0  0  0  0  0  0  0  0  0  0
   59.3790   33.8310   50.8750 C   0  0  0  0  0  0  0  0  0  0  0  0
   60.3510   32.7140   50.8810 N   0  0  0  0  0  0  0  0  0  0  0  0
   61.2640   32.8350   52.0320 C   0  0  0  0  0  0  0  0  0  0  0  0
   59.6780   31.3980   50.9190 C   0  0  0  0  0  0  0  0  0  0  0  0
   58.8890   31.1190   49.6320 C   0  0  0  0  0  0  0  0  0  0  0  0
   59.6930   30.4190   48.6250 N   0  0  0  0  0  0  0  0  0  0  0  0
   59.6210   30.8040   47.2470 C   0  0  0  0  0  0  0  0  0  0  0  0
   59.2840   29.8320   46.2920 C   0  0  0  0  0  0  0  0  0  0  0  0
   59.5450   28.4670   46.5260 C   0  0  0  0  0  0  0  0  0  0  0  0
   59.2160   27.5080   45.5710 C   0  0  0  0  0  0  0  0  0  0  0  0
   58.6280   27.8940   44.3700 C   0  0  0  0  0  0  0  0  0  0  0  0
   58.3550   29.2400   44.1250 C   0  0  0  0  0  0  0  0  0  0  0  0
   58.6560   30.2330   45.0910 C   0  0  0  0  0  0  0  0  0  0  0  0
   58.3410   31.5620   44.8970 N   0  0  0  0  0  0  0  0  0  0  0  0
   57.3780   31.9440   43.8410 C   0  0  0  0  0  0  0  0  0  0  0  0
   58.9450   32.5300   45.6780 C   0  0  0  0  0  0  0  0  0  0  0  0
   58.9210   33.8910   45.2920 C   0  0  0  0  0  0  0  0  0  0  0  0
   59.6090   34.8510   46.0130 C   0  0  0  0  0  0  0  0  0  0  0  0
   60.3750   34.4890   47.1080 C   0  0  0  0  0  0  0  0  0  0  0  0
   60.4140   33.1620   47.5770 C   0  0  0  0  0  0  0  0  0  0  0  0
   61.4720   32.8250   48.5170 N   0  0  0  0  0  0  0  0  0  0  0  0
   62.8200   32.5960   47.9490 C   0  0  0  0  0  0  0  0  0  0  0  0
   64.0150   33.1080   48.7900 C   0  0  0  0  0  0  0  0  0  0  0  0
   64.3780   32.1500   49.8590 N   0  0  0  0  0  0  0  0  0  0  0  0
   63.4470   31.2260   50.2330 C   0  0  0  0  0  0  0  0  0  0  0  0
   63.7560   30.2320   51.1530 C   0  0  0  0  0  0  0  0  0  0  0  0
   64.9930   30.1700   51.7190 N   0  0  0  0  0  0  0  0  0  0  0  0
   65.2760   29.0700   52.6560 C   0  0  0  0  0  0  0  0  0  0  0  0
   65.9350   31.1280   51.4140 C   0  0  0  0  0  0  0  0  0  0  0  0
   67.2170   31.1200   52.0120 C   0  0  0  0  0  0  0  0  0  0  0  0
   68.1640   32.0890   51.6890 C   0  0  0  0  0  0  0  0  0  0  0  0
   67.8560   33.0870   50.7730 C   0  0  0  0  0  0  0  0  0  0  0  0
   66.6020   33.1250   50.1680 C   0  0  0  0  0  0  0  0  0  0  0  0
   65.6190   32.1480   50.4680 C   0  0  0  0  0  0  0  0  0  0  0  0
   59.6500   32.1660   46.8680 C   0  0  0  0  0  0  0  0  0  0  0  0
   59.3364   33.8340   53.0340 H   0  0  0  0  0  0  0  0  0  0  0  0
   58.0542   34.8258   52.2601 H   0  0  0  0  0  0  0  0  0  0  0  0
   57.9265   33.0340   52.2601 H   0  0  0  0  0  0  0  0  0  0  0  0
   58.6626   33.6835   50.0534 H   0  0  0  0  0  0  0  0  0  0  0  0
   59.9235   34.7768   50.7368 H   0  0  0  0  0  0  0  0  0  0  0  0
   60.6883   32.7587   52.9662 H   0  0  0  0  0  0  0  0  0  0  0  0
   62.0105   32.0279   51.9943 H   0  0  0  0  0  0  0  0  0  0  0  0
   61.7745   33.8086   51.9943 H   0  0  0  0  0  0  0  0  0  0  0  0
   60.4385   30.6136   51.0466 H   0  0  0  0  0  0  0  0  0  0  0  0
   58.9677   31.4034   51.7589 H   0  0  0  0  0  0  0  0  0  0  0  0
   58.0154   30.4985   49.8805 H   0  0  0  0  0  0  0  0  0  0  0  0
   58.5871   32.0875   49.2067 H   0  0  0  0  0  0  0  0  0  0  0  0
   60.1940   29.5420   48.8930 H   0  0  0  0  0  0  0  0  0  0  0  0
   60.0129   28.1560   47.4717 H   0  0  0  0  0  0  0  0  0  0  0  0
   59.4210   26.4450   45.7661 H   0  0  0  0  0  0  0  0  0  0  0  0
   58.3781   27.1364   43.6126 H   0  0  0  0  0  0  0  0  0  0  0  0
   57.8995   29.5351   43.1682 H   0  0  0  0  0  0  0  0  0  0  0  0
   56.4512   32.3117   44.3056 H   0  0  0  0  0  0  0  0  0  0  0  0
   57.8146   32.7371   43.2161 H   0  0  0  0  0  0  0  0  0  0  0  0
   57.1522   31.0673   43.2161 H   0  0  0  0  0  0  0  0  0  0  0  0
   58.3457   34.1910   44.4037 H   0  0  0  0  0  0  0  0  0  0  0  0
   59.5470   35.9079   45.7144 H   0  0  0  0  0  0  0  0  0  0  0  0
   60.9683   35.2577   47.6248 H   0  0  0  0  0  0  0  0  0  0  0  0
   61.1970   31.9620   49.0450 H   0  0  0  0  0  0  0  0  0  0  0  0
   61.5440   33.5650   49.2510 H   0  0  0  0  0  0  0  0  0  0  0  0
   62.9464   31.5118   47.8125 H   0  0  0  0  0  0  0  0  0  0  0  0
   62.8476   33.1776   47.0158 H   0  0  0  0  0  0  0  0  0  0  0  0
   64.8823   33.2505   48.1285 H   0  0  0  0  0  0  0  0  0  0  0  0
   63.7221   34.0570   49.2628 H   0  0  0  0  0  0  0  0  0  0  0  0
   62.4368   31.2685   49.7998 H   0  0  0  0  0  0  0  0  0  0  0  0
   62.9939   29.4876   51.4270 H   0  0  0  0  0  0  0  0  0  0  0  0
   65.1820   29.4352   53.6893 H   0  0  0  0  0  0  0  0  0  0  0  0
   64.5589   28.2527   52.4893 H   0  0  0  0  0  0  0  0  0  0  0  0
   66.2985   28.7003   52.4893 H   0  0  0  0  0  0  0  0  0  0  0  0
   67.4696   30.3373   52.7425 H   0  0  0  0  0  0  0  0  0  0  0  0
   69.1577   32.0640   52.1601 H   0  0  0  0  0  0  0  0  0  0  0  0
   68.6067   33.8515   50.5241 H   0  0  0  0  0  0  0  0  0  0  0  0
   66.3711   33.9237   49.4477 H   0  0  0  0  0  0  0  0  0  0  0  0
  1  2  1  0
  2  3  1  0
  3  4  1  0
  3  5  1  0
  5  6  1  0
  6  7  1  0
  7  8  1  0
  8  9  2  0
  9 10  1  0
 10 11  2  0
 11 12  1  0
 12 13  2  0
 13 14  1  0
 14 15  2  0
 15 16  1  0
 15 17  1  0
 17 18  2  0
 18 19  1  0
 19 20  2  0
 20 21  1  0
 21 22  1  0
 22 23  1  0
 23 24  1  0
 24 25  1  0
 25 26  2  0
 26 27  1  0
 27 28  2  0
 28 29  1  0
 28 30  1  0
 30 31  2  0
 31 32  1  0
 32 33  2  0
 33 34  1  0
 34 35  2  0
 21 36  2  0
 36  8  1  0
 14  9  1  0
 36 17  1  0
 35 25  1  0
 35 30  1  0
  1 37  1  0
  1 38  1  0
  1 39  1  0
  2 40  1  0
  2 41  1  0
  4 42  1  0
  4 43  1  0
  4 44  1  0
  5 45  1  0
  5 46  1  0
  6 47  1  0
  6 48  1  0
  7 49  1  0
 10 50  1  0
 11 51  1  0
 12 52  1  0
 13 53  1  0
 16 54  1  0
 16 55  1  0
 16 56  1  0
 18 57  1  0
 19 58  1  0
 20 59  1  0
 22 60  1  0
 22 61  1  0
 23 62  1  0
 23 63  1  0
 24 64  1  0
 24 65  1  0
 26 66  1  0
 27 67  1  0
 29 68  1  0
 29 69  1  0
 29 70  1  0
 31 71  1  0
 32 72  1  0
 33 73  1  0
 34 74  1  0
M  CHG  4  15   1  22   1  25   1  28   1
M  END
>  <UniqueID>  (22) 
22

>  <SMILES>  (22) 
CCN(C)CCNc1c2ccccc2[n+](C)c2cccc([NH2+]CC[n+]3cc[n+](C)c4ccccc43)c12

>  <Energy>  (22) 
131.61395407921214

>  <Genealogy>  (22) 
CCN(C)CCNc1c2ccccc2[n+](C)c2cccc([NH2+]CC[n+]3cc[n+](C)c4ccccc43)c12 (protonated)
CCN(C)CCNc1c2ccccc2[n+](C)c2cccc([NH2+]CC[n+]3cc[n+](C)c4ccccc43)c12 (3D coordinates assigned)
CCN(C)CCNc1c2ccccc2[n+](C)c2cccc([NH2+]CC[n+]3cc[n+](C)c4ccccc43)c12 (optimized conformer: 131.61395407921214 kcal/mol)

>  <smiles>  (22) 
CCN(C)CCNc1c2ccccc2[n+](C)c2cccc(NCC[n+]3cc[n+](C)c4ccccc43)c12

>  <score_type>  (22) 
oracle

>  <origin>  (22) 
adg

>  <m_score__min__energy>  (22) 
-3.2799999999999998

>  <m_primary>  (22) 
energy

$$$$
23:0
     RDKit          3D

 64 66  0  0  0  0  0  0  0  0999 V2000
   56.9550   31.6170   51.9980 C   0  0  0  0  0  0  0  0  0  0  0  0
   58.3170   30.9260   51.9740 C   0  0  0  0  0  0  0  0  0  0  0  0
   59.0030   31.2000   50.6910 N   0  0  0  0  0  0  0  0  0  0  0  0
   59.0960   29.9830   49.8540 C   0  0  0  0  0  0  0  0  0  0  0  0
   60.3510   29.1840   50.2120 C   0  0  0  0  0  0  0  0  0  0  0  0
   61.4090   30.0570   50.5020 O   0  0  0  0  0  0  0  0  0  0  0  0
   58.3530   32.3080   49.9530 C   0  0  0  0  0  0  0  0  0  0  0  0
   59.3360   33.4620   49.7740 C   0  0  0  0  0  0  0  0  0  0  0  0
   60.6390   32.9350   49.6480 O   0  0  0  0  0  0  0  0  0  0  0  0
   61.5650   33.7860   50.2860 C   0  0  0  0  0  0  0  0  0  0  0  0
   62.9580   33.1510   50.2340 C   0  0  0  0  0  0  0  0  0  0  0  0
   62.9550   31.9240   49.5270 O   0  0  0  0  0  0  0  0  0  0  0  0
   63.6540   32.0330   48.3030 C   0  0  0  0  0  0  0  0  0  0  0  0
   62.7290   31.6350   47.1560 C   0  0  0  0  0  0  0  0  0  0  0  0
   61.3720   31.3950   47.6460 N   0  0  0  0  0  0  0  0  0  0  0  0
   60.2690   31.2260   46.7380 C   0  0  0  0  0  0  0  0  0  0  0  0
   59.5960   32.3480   46.2250 C   0  0  0  0  0  0  0  0  0  0  0  0
   59.9390   33.6500   46.6480 C   0  0  0  0  0  0  0  0  0  0  0  0
   59.2470   34.7590   46.1720 C   0  0  0  0  0  0  0  0  0  0  0  0
   58.1900   34.5920   45.2860 C   0  0  0  0  0  0  0  0  0  0  0  0
   57.8280   33.3150   44.8580 C   0  0  0  0  0  0  0  0  0  0  0  0
   58.5360   32.1670   45.2970 C   0  0  0  0  0  0  0  0  0  0  0  0
   58.2040   30.8960   44.8620 N   0  0  0  0  0  0  0  0  0  0  0  0
   57.2990   30.7290   43.7030 C   0  0  0  0  0  0  0  0  0  0  0  0
   58.7350   29.7880   45.4950 C   0  0  0  0  0  0  0  0  0  0  0  0
   58.2370   28.4800   45.2570 C   0  0  0  0  0  0  0  0  0  0  0  0
   58.8420   27.3630   45.8330 C   0  0  0  0  0  0  0  0  0  0  0  0
   59.9340   27.5170   46.6780 C   0  0  0  0  0  0  0  0  0  0  0  0
   60.4080   28.7910   46.9790 C   0  0  0  0  0  0  0  0  0  0  0  0
   59.8080   29.9360   46.4150 C   0  0  0  0  0  0  0  0  0  0  0  0
   56.6426   31.7755   53.0407 H   0  0  0  0  0  0  0  0  0  0  0  0
   57.0271   32.5875   51.4853 H   0  0  0  0  0  0  0  0  0  0  0  0
   56.2144   30.9856   51.4853 H   0  0  0  0  0  0  0  0  0  0  0  0
   58.9320   31.3047   52.8037 H   0  0  0  0  0  0  0  0  0  0  0  0
   58.1725   29.8408   52.0808 H   0  0  0  0  0  0  0  0  0  0  0  0
   58.2073   29.3574   50.0240 H   0  0  0  0  0  0  0  0  0  0  0  0
   59.1521   30.2807   48.7965 H   0  0  0  0  0  0  0  0  0  0  0  0
   60.1448   28.5567   51.0918 H   0  0  0  0  0  0  0  0  0  0  0  0
   60.6305   28.5492   49.3583 H   0  0  0  0  0  0  0  0  0  0  0  0
   61.1120   30.9620   50.2260 H   0  0  0  0  0  0  0  0  0  0  0  0
   58.0300   31.9478   48.9651 H   0  0  0  0  0  0  0  0  0  0  0  0
   57.4816   32.6607   50.5242 H   0  0  0  0  0  0  0  0  0  0  0  0
   59.0779   34.0301   48.8681 H   0  0  0  0  0  0  0  0  0  0  0  0
   59.2870   34.1327   50.6445 H   0  0  0  0  0  0  0  0  0  0  0  0
   61.5852   34.7581   49.7716 H   0  0  0  0  0  0  0  0  0  0  0  0
   61.2670   33.9336   51.3345 H   0  0  0  0  0  0  0  0  0  0  0  0
   63.6474   33.8473   49.7342 H   0  0  0  0  0  0  0  0  0  0  0  0
   63.2778   32.9476   51.2667 H   0  0  0  0  0  0  0  0  0  0  0  0
   63.9881   33.0715   48.1620 H   0  0  0  0  0  0  0  0  0  0  0  0
   64.5293   31.3670   48.3182 H   0  0  0  0  0  0  0  0  0  0  0  0
   62.7064   32.4453   46.4125 H   0  0  0  0  0  0  0  0  0  0  0  0
   63.1093   30.7091   46.6998 H   0  0  0  0  0  0  0  0  0  0  0  0
   61.2460   31.1230   48.6460 H   0  0  0  0  0  0  0  0  0  0  0  0
   60.7635   33.7896   47.3627 H   0  0  0  0  0  0  0  0  0  0  0  0
   59.5370   35.7690   46.4974 H   0  0  0  0  0  0  0  0  0  0  0  0
   57.6368   35.4699   44.9209 H   0  0  0  0  0  0  0  0  0  0  0  0
   56.9792   33.1961   44.1685 H   0  0  0  0  0  0  0  0  0  0  0  0
   56.2761   30.5402   44.0608 H   0  0  0  0  0  0  0  0  0  0  0  0
   57.3111   31.6446   43.0934 H   0  0  0  0  0  0  0  0  0  0  0  0
   57.6371   29.8781   43.0934 H   0  0  0  0  0  0  0  0  0  0  0  0
   57.3595   28.3452   44.6076 H   0  0  0  0  0  0  0  0  0  0  0  0
   58.4532   26.3568   45.6175 H   0  0  0  0  0  0  0  0  0  0  0  0
   60.4243   26.6319   47.1094 H   0  0  0  0  0  0  0  0  0  0  0  0
   61.2604   28.9059   47.6647 H   0  0  0  0  0  0  0  0  0  0  0  0
  1  2  1  0
  2  3  1  0
  3  4  1  0
  4  5  1  0
  5  6  1  0
  3  7  1  0
  7  8  1  0
  8  9  1  0
  9 10  1  0
 10 11  1  0
 11 12  1  0
 12 13  1  0
 13 14  1  0
 14 15  1  0
 15 16  1  0
 16 17  2  0
 17 18  1  0
 18 19  2  0
 19 20  1  0
 20 21  2  0
 21 22  1  0
 22 23  2  0
 23 24  1  0
 23 25  1  0
 25 26  2  0
 26 27  1  0
 27 28  2  0
 28 29  1  0
 29 30  2  0
 30 16  1  0
 22 17  1  0
 30 25  1  0
  1 31  1  0
  1 32  1  0
  1 33  1  0
  2 34  1  0
  2 35  1  0
  4 36  1  0
  4 37  1  0
  5 38  1  0
  5 39  1  0
  6 40  1  0
  7 41  1  0
  7 42  1  0
  8 43  1  0
  8 44  1  0
 10 45  1  0
 10 46  1  0
 11 47  1  0
 11 48  1  0
 13 49  1  0
 13 50  1  0
 14 51  1  0
 14 52  1  0
 15 53  1  0
 18 54  1  0
 19 55  1  0
 20 56  1  0
 21 57  1  0
 24 58  1  0
 24 59  1  0
 24 60  1  0
 26 61  1  0
 27 62  1  0
 28 63  1  0
 29 64  1  0
M  CHG  1  23   1
M  END
>  <UniqueID>  (23) 
23

>  <SMILES>  (23) 
CCN(CCO)CCOCCOCCNc1c2ccccc2[n+](C)c2ccccc12

>  <Energy>  (23) 
81.79836580769043

>  <Genealogy>  (23) 
CCN(CCO)CCOCCOCCNc1c2ccccc2[n+](C)c2ccccc12 (3D coordinates assigned)
CCN(CCO)CCOCCOCCNc1c2ccccc2[n+](C)c2ccccc12 (optimized conformer: 81.79836580769043 kcal/mol)

>  <smiles>  (23) 
CCN(CCO)CCOCCOCCNc1c2ccccc2[n+](C)c2ccccc12

>  <score_type>  (23) 
oracle

>  <origin>  (23) 
adg

>  <m_score__min__energy>  (23) 
-6.3600000000000003

>  <m_primary>  (23) 
energy

$$$$
24:0
     RDKit          3D

 32 32  0  0  0  0  0  0  0  0999 V2000
   57.9310   27.3570   45.1960 C   0  0  0  0  0  0  0  0  0  0  0  0
   58.8630   27.9420   44.1370 C   0  0  0  0  0  0  0  0  0  0  0  0
   59.8960   28.9040   44.7360 C   0  0  0  0  0  0  0  0  0  0  0  0
   59.6060   29.2330   46.5150 S   0  0  0  0  0  0  0  0  0  0  0  0
   59.5970   31.0330   46.3560 C   0  0  0  0  0  0  0  0  0  0  0  0
   60.6390   31.7350   46.8720 N   0  0  0  0  0  0  0  0  0  0  0  0
   60.7060   33.0940   46.8070 C   0  0  0  0  0  0  0  0  0  0  0  0
   61.9120   33.7850   47.3940 C   0  0  0  0  0  0  0  0  0  0  0  0
   59.6450   33.8260   46.2190 C   0  0  0  0  0  0  0  0  0  0  0  0
   59.6780   35.3420   46.1850 C   0  0  0  0  0  0  0  0  0  0  0  0
   58.5750   33.1130   45.6170 C   0  0  0  0  0  0  0  0  0  0  0  0
   57.4610   33.8570   44.9050 C   0  0  0  0  0  0  0  0  0  0  0  0
   58.5340   31.7040   45.7320 C   0  0  0  0  0  0  0  0  0  0  0  0
   57.3980   30.9480   45.2460 C   0  0  0  0  0  0  0  0  0  0  0  0
   56.4910   30.3450   44.8570 N   0  0  0  0  0  0  0  0  0  0  0  0
   58.3163   27.5989   46.1975 H   0  0  0  0  0  0  0  0  0  0  0  0
   56.9252   27.7861   45.0766 H   0  0  0  0  0  0  0  0  0  0  0  0
   57.8802   26.2647   45.0766 H   0  0  0  0  0  0  0  0  0  0  0  0
   59.3947   27.1174   43.6397 H   0  0  0  0  0  0  0  0  0  0  0  0
   58.2472   28.5112   43.4252 H   0  0  0  0  0  0  0  0  0  0  0  0
   60.8971   28.4637   44.6180 H   0  0  0  0  0  0  0  0  0  0  0  0
   59.8078   29.8616   44.2019 H   0  0  0  0  0  0  0  0  0  0  0  0
   61.4120   31.2040   47.3320 H   0  0  0  0  0  0  0  0  0  0  0  0
   61.8550   33.7523   48.4920 H   0  0  0  0  0  0  0  0  0  0  0  0
   62.8266   33.2739   47.0590 H   0  0  0  0  0  0  0  0  0  0  0  0
   61.9336   34.8325   47.0590 H   0  0  0  0  0  0  0  0  0  0  0  0
   59.6865   35.7317   47.2136 H   0  0  0  0  0  0  0  0  0  0  0  0
   60.5837   35.6773   45.6584 H   0  0  0  0  0  0  0  0  0  0  0  0
   58.7878   35.7164   45.6584 H   0  0  0  0  0  0  0  0  0  0  0  0
   56.7870   34.3071   45.6487 H   0  0  0  0  0  0  0  0  0  0  0  0
   57.8930   34.6485   44.2750 H   0  0  0  0  0  0  0  0  0  0  0  0
   56.8953   33.1548   44.2750 H   0  0  0  0  0  0  0  0  0  0  0  0
  1  2  1  0
  2  3  1  0
  3  4  1  0
  4  5  1  0
  5  6  2  0
  6  7  1  0
  7  8  1  0
  7  9  2  0
  9 10  1  0
  9 11  1  0
 11 12  1  0
 11 13  2  0
 13 14  1  0
 14 15  3  0
 13  5  1  0
  1 16  1  0
  1 17  1  0
  1 18  1  0
  2 19  1  0
  2 20  1  0
  3 21  1  0
  3 22  1  0
  6 23  1  0
  8 24  1  0
  8 25  1  0
  8 26  1  0
 10 27  1  0
 10 28  1  0
 10 29  1  0
 12 30  1  0
 12 31  1  0
 12 32  1  0
M  CHG  1   6   1
M  END
>  <UniqueID>  (24) 
24

>  <SMILES>  (24) 
CCCSc1[nH+]c(C)c(C)c(C)c1C#N

>  <Energy>  (24) 
27.19744428241671

>  <Genealogy>  (24) 
CCCSc1[nH+]c(C)c(C)c(C)c1C#N (protonated)
CCCSc1[nH+]c(C)c(C)c(C)c1C#N (3D coordinates assigned)
CCCSc1[nH+]c(C)c(C)c(C)c1C#N (optimized conformer: 27.19744428241671 kcal/mol)

>  <smiles>  (24) 
CCCSc1nc(C)c(C)c(C)c1C#N

>  <score_type>  (24) 
oracle

>  <origin>  (24) 
adg

>  <m_score__min__energy>  (24) 
-4.3799999999999999

>  <m_primary>  (24) 
energy

$$$$
