0:0
     RDKit          3D

 52 54  0  0  0  0  0  0  0  0999 V2000
   -9.1040   18.5480  -31.9480 C   0  0  0  0  0  0  0  0  0  0  0  0
   -8.0210   18.2290  -32.8150 O   0  0  0  0  0  0  0  0  0  0  0  0
   -6.7720   18.8670  -32.7910 C   0  0  0  0  0  0  0  0  0  0  0  0
   -6.3880   19.5360  -31.6240 C   0  0  0  0  0  0  0  0  0  0  0  0
   -5.1570   20.1930  -31.5530 C   0  0  0  0  0  0  0  0  0  0  0  0
   -4.2920   20.1980  -32.6620 C   0  0  0  0  0  0  0  0  0  0  0  0
   -3.0470   20.8440  -32.6310 O   0  0  0  0  0  0  0  0  0  0  0  0
   -2.6160   21.7020  -31.6090 C   0  0  0  0  0  0  0  0  0  0  0  0
   -3.4430   22.7630  -31.2390 C   0  0  0  0  0  0  0  0  0  0  0  0
   -3.0540   23.6790  -30.2460 C   0  0  0  0  0  0  0  0  0  0  0  0
   -3.9120   24.7880  -29.9160 N   0  0  0  0  0  0  0  0  0  0  0  0
   -5.0030   25.2520  -30.7760 C   0  0  0  0  0  0  0  0  0  0  0  0
   -6.0560   24.1850  -30.9140 C   0  0  0  0  0  0  0  0  0  0  0  0
   -6.5490   23.8240  -32.1800 C   0  0  0  0  0  0  0  0  0  0  0  0
   -7.5630   22.8680  -32.2950 C   0  0  0  0  0  0  0  0  0  0  0  0
   -8.0930   22.2680  -31.1490 C   0  0  0  0  0  0  0  0  0  0  0  0
   -7.6060   22.6190  -29.8870 C   0  0  0  0  0  0  0  0  0  0  0  0
   -6.5920   23.5730  -29.7680 C   0  0  0  0  0  0  0  0  0  0  0  0
   -1.8220   23.4830  -29.5770 C   0  0  0  0  0  0  0  0  0  0  0  0
   -1.2490   24.5980  -28.3230 S   0  0  0  0  0  0  0  0  0  0  0  0
   -1.9400   24.1680  -26.7400 C   0  0  0  0  0  0  0  0  0  0  0  0
    0.2520   24.5620  -28.2580 O   0  0  0  0  0  0  0  0  0  0  0  0
   -1.6770   26.0020  -28.6470 O   0  0  0  0  0  0  0  0  0  0  0  0
   -1.0110   22.3910  -29.9280 C   0  0  0  0  0  0  0  0  0  0  0  0
   -1.4000   21.4940  -30.9380 C   0  0  0  0  0  0  0  0  0  0  0  0
   -0.6160   20.3790  -31.2820 O   0  0  0  0  0  0  0  0  0  0  0  0
   -0.0950   20.1250  -32.5820 C   0  0  0  0  0  0  0  0  0  0  0  0
   -4.6660   19.5140  -33.8230 C   0  0  0  0  0  0  0  0  0  0  0  0
   -5.8970   18.8570  -33.8940 C   0  0  0  0  0  0  0  0  0  0  0  0
   -8.7770   18.4517  -30.9021 H   0  0  0  0  0  0  0  0  0  0  0  0
   -9.4322   19.5810  -32.1359 H   0  0  0  0  0  0  0  0  0  0  0  0
   -9.9397   17.8579  -32.1359 H   0  0  0  0  0  0  0  0  0  0  0  0
   -7.0614   19.5449  -30.7543 H   0  0  0  0  0  0  0  0  0  0  0  0
   -4.8633   20.7082  -30.6265 H   0  0  0  0  0  0  0  0  0  0  0  0
   -4.4179   22.8851  -31.7336 H   0  0  0  0  0  0  0  0  0  0  0  0
   -3.7240   25.3430  -29.0520 H   0  0  0  0  0  0  0  0  0  0  0  0
   -5.4552   26.1517  -30.3333 H   0  0  0  0  0  0  0  0  0  0  0  0
   -4.5973   25.4823  -31.7722 H   0  0  0  0  0  0  0  0  0  0  0  0
   -6.1355   24.2954  -33.0838 H   0  0  0  0  0  0  0  0  0  0  0  0
   -7.9440   22.5878  -33.2882 H   0  0  0  0  0  0  0  0  0  0  0  0
   -8.8937   21.5193  -31.2406 H   0  0  0  0  0  0  0  0  0  0  0  0
   -8.0214   22.1437  -28.9862 H   0  0  0  0  0  0  0  0  0  0  0  0
   -6.2115   23.8463  -28.7727 H   0  0  0  0  0  0  0  0  0  0  0  0
   -1.2993   24.5667  -25.9397 H   0  0  0  0  0  0  0  0  0  0  0  0
   -2.9484   24.5983  -26.6510 H   0  0  0  0  0  0  0  0  0  0  0  0
   -1.9994   23.0732  -26.6510 H   0  0  0  0  0  0  0  0  0  0  0  0
   -0.0563   22.2354  -29.4042 H   0  0  0  0  0  0  0  0  0  0  0  0
    0.8906   19.6445  -32.4946 H   0  0  0  0  0  0  0  0  0  0  0  0
   -0.7801   19.4598  -33.1281 H   0  0  0  0  0  0  0  0  0  0  0  0
    0.0071   21.0744  -33.1281 H   0  0  0  0  0  0  0  0  0  0  0  0
   -3.9857   19.4931  -34.6871 H   0  0  0  0  0  0  0  0  0  0  0  0
   -6.1838   18.3296  -34.8157 H   0  0  0  0  0  0  0  0  0  0  0  0
  1  2  1  0
  2  3  1  0
  3  4  2  0
  4  5  1  0
  5  6  2  0
  6  7  1  0
  7  8  1  0
  8  9  2  0
  9 10  1  0
 10 11  1  0
 11 12  1  0
 12 13  1  0
 13 14  2  0
 14 15  1  0
 15 16  2  0
 16 17  1  0
 17 18  2  0
 10 19  2  0
 19 20  1  0
 20 21  1  0
 20 22  2  0
 20 23  2  0
 19 24  1  0
 24 25  2  0
 25 26  1  0
 26 27  1  0
  6 28  1  0
 28 29  2  0
 29  3  1  0
 25  8  1  0
 18 13  1  0
  1 30  1  0
  1 31  1  0
  1 32  1  0
  4 33  1  0
  5 34  1  0
  9 35  1  0
 11 36  1  0
 12 37  1  0
 12 38  1  0
 14 39  1  0
 15 40  1  0
 16 41  1  0
 17 42  1  0
 18 43  1  0
 21 44  1  0
 21 45  1  0
 21 46  1  0
 24 47  1  0
 27 48  1  0
 27 49  1  0
 27 50  1  0
 28 51  1  0
 29 52  1  0
M  END
>  <UniqueID>  (1) 
1

>  <SMILES>  (1) 
COc1ccc(Oc2cc(NCc3ccccc3)c(S(C)(=O)=O)cc2OC)cc1

>  <Energy>  (1) 
58.908952874557045

>  <Genealogy>  (1) 
COc1ccc(Oc2cc(NCc3ccccc3)c(S(C)(=O)=O)cc2OC)cc1 (3D coordinates assigned)
COc1ccc(Oc2cc(NCc3ccccc3)c(S(C)(=O)=O)cc2OC)cc1 (optimized conformer: 58.908952874557045 kcal/mol)

>  <smiles>  (1) 
COc1ccc(Oc2cc(NCc3ccccc3)c(S(C)(=O)=O)cc2OC)cc1

>  <score_type>  (1) 
oracle

>  <origin>  (1) 
adgpu

>  <m_score__min__energy>  (1) 
-9.1999999999999993

>  <m_primary>  (1) 
energy

$$$$
1:0
     RDKit          3D

 26 27  0  0  0  0  0  0  0  0999 V2000
   -2.3470   21.1810  -34.6740 H   0  0  0  0  0  0  0  0  0  0  0  0
   -1.6610   21.0400  -33.8990 N   0  0  0  0  0  0  0  0  0  0  0  0
   -1.9040   21.4490  -32.6960 C   0  0  0  0  0  0  0  0  0  0  0  0
   -3.0770   22.0820  -32.4140 N   0  0  0  0  0  0  0  0  0  0  0  0
   -3.3770   22.5260  -31.1610 C   0  0  0  0  0  0  0  0  0  0  0  0
   -4.6670   23.2150  -30.9200 C   0  0  0  0  0  0  0  0  0  0  0  0
   -4.6750   24.5850  -30.5850 C   0  0  0  0  0  0  0  0  0  0  0  0
   -3.4850   25.2940  -30.4580 O   0  0  0  0  0  0  0  0  0  0  0  0
   -5.8850   25.2460  -30.3560 C   0  0  0  0  0  0  0  0  0  0  0  0
   -5.8845   26.3146  -30.0950 H   0  0  0  0  0  0  0  0  0  0  0  0
   -7.0920   24.5570  -30.4570 C   0  0  0  0  0  0  0  0  0  0  0  0
   -8.0406   25.0813  -30.2690 H   0  0  0  0  0  0  0  0  0  0  0  0
   -7.1000   23.2040  -30.7960 C   0  0  0  0  0  0  0  0  0  0  0  0
   -8.0566   22.6666  -30.8735 H   0  0  0  0  0  0  0  0  0  0  0  0
   -5.8920   22.5200  -31.0400 C   0  0  0  0  0  0  0  0  0  0  0  0
   -5.8790   21.1680  -31.4220 O   0  0  0  0  0  0  0  0  0  0  0  0
   -5.9090   20.7050  -32.7680 C   0  0  0  0  0  0  0  0  0  0  0  0
   -5.9801   19.6073  -32.7767 H   0  0  0  0  0  0  0  0  0  0  0  0
   -6.7813   21.1330  -33.2836 H   0  0  0  0  0  0  0  0  0  0  0  0
   -4.9888   21.0169  -33.2836 H   0  0  0  0  0  0  0  0  0  0  0  0
   -2.4460   22.3450  -30.1250 C   0  0  0  0  0  0  0  0  0  0  0  0
   -2.6667   22.7099  -29.1110 H   0  0  0  0  0  0  0  0  0  0  0  0
   -1.2380   21.6980  -30.3930 C   0  0  0  0  0  0  0  0  0  0  0  0
   -0.5044   21.5464  -29.5875 H   0  0  0  0  0  0  0  0  0  0  0  0
   -0.9620   21.2440  -31.6830 C   0  0  0  0  0  0  0  0  0  0  0  0
   -0.0139   20.7305  -31.9009 H   0  0  0  0  0  0  0  0  0  0  0  0
  1  2  1  0
  2  3  2  0
  3  4  1  0
  4  5  1  0
  5  6  1  0
  6  7  2  0
  7  8  1  0
  7  9  1  0
  9 10  1  0
  9 11  2  0
 11 12  1  0
 11 13  1  0
 13 14  1  0
 13 15  2  0
 15 16  1  0
 16 17  1  0
 17 18  1  0
 17 19  1  0
 17 20  1  0
  5 21  2  0
 21 22  1  0
 21 23  1  0
 23 24  1  0
 23 25  2  0
 25 26  1  0
 25  3  1  0
 15  6  1  0
M  CHG  2   4  -1   8  -1
M  END
>  <UniqueID>  (2) 
2

>  <SMILES>  (2) 
[H]/N=c1/cccc(-c2c([O-])cccc2OC)[n-]1

>  <Energy>  (2) 
33.45755703673905

>  <Genealogy>  (2) 
COc1cccc([O-])c1-c1cccc(=N)[n-]1 (protonated)
[H]/N=c1/cccc(-c2c([O-])cccc2OC)[n-]1 (cis-trans isomerization)
[H]/N=c1/cccc(-c2c([O-])cccc2OC)[n-]1 (3D coordinates assigned)
[H]/N=c1/cccc(-c2c([O-])cccc2OC)[n-]1 (optimized conformer: 33.45755703673905 kcal/mol)

>  <smiles>  (2) 
COc1cccc(O)c1-c1cccc(=N)[nH]1

>  <score_type>  (2) 
oracle

>  <origin>  (2) 
adgpu

>  <m_score__min__energy>  (2) 
-9.9100000000000001

>  <m_primary>  (2) 
energy

$$$$
2:0
     RDKit          3D

 36 39  0  0  0  0  0  0  0  0999 V2000
   -2.3720   18.5780  -26.3410 C   0  0  0  0  0  0  0  0  0  0  0  0
   -2.1800   19.6540  -27.3040 N   0  0  0  0  0  0  0  0  0  0  0  0
   -2.9710   20.7310  -27.4470 C   0  0  0  0  0  0  0  0  0  0  0  0
   -2.4130   21.5460  -28.4110 C   0  0  0  0  0  0  0  0  0  0  0  0
   -2.9730   22.8100  -28.9240 C   0  0  0  0  0  0  0  0  0  0  0  0
   -2.4110   24.0720  -28.7480 C   0  0  0  0  0  0  0  0  0  0  0  0
   -3.1830   25.0200  -29.3230 N   0  0  0  0  0  0  0  0  0  0  0  0
   -4.2210   24.3700  -29.8740 C   0  0  0  0  0  0  0  0  0  0  0  0
   -5.2690   24.9300  -30.5990 C   0  0  0  0  0  0  0  0  0  0  0  0
   -6.2440   24.0670  -31.1260 C   0  0  0  0  0  0  0  0  0  0  0  0
   -6.1530   22.6620  -30.9350 C   0  0  0  0  0  0  0  0  0  0  0  0
   -7.1770   21.7590  -31.5150 C   0  0  0  0  0  0  0  0  0  0  0  0
   -6.7980   20.5740  -32.1740 C   0  0  0  0  0  0  0  0  0  0  0  0
   -7.7670   19.7260  -32.7190 C   0  0  0  0  0  0  0  0  0  0  0  0
   -9.1210   20.0490  -32.6130 C   0  0  0  0  0  0  0  0  0  0  0  0
  -10.0590   19.2240  -33.1420 F   0  0  0  0  0  0  0  0  0  0  0  0
   -9.5110   21.2210  -31.9620 C   0  0  0  0  0  0  0  0  0  0  0  0
   -8.5460   22.0730  -31.4160 C   0  0  0  0  0  0  0  0  0  0  0  0
   -5.0690   22.1320  -30.1940 C   0  0  0  0  0  0  0  0  0  0  0  0
   -4.1310   23.0180  -29.6590 C   0  0  0  0  0  0  0  0  0  0  0  0
   -1.2660   20.8840  -28.8210 C   0  0  0  0  0  0  0  0  0  0  0  0
   -1.1430   19.7380  -28.1220 N   0  0  0  0  0  0  0  0  0  0  0  0
   -2.2999   18.9821  -25.3205 H   0  0  0  0  0  0  0  0  0  0  0  0
   -3.3647   18.1275  -26.4877 H   0  0  0  0  0  0  0  0  0  0  0  0
   -1.5964   17.8119  -26.4877 H   0  0  0  0  0  0  0  0  0  0  0  0
   -3.9004   20.9284  -26.8928 H   0  0  0  0  0  0  0  0  0  0  0  0
   -1.4693   24.2695  -28.2149 H   0  0  0  0  0  0  0  0  0  0  0  0
   -3.0000   26.0480  -29.3420 H   0  0  0  0  0  0  0  0  0  0  0  0
   -5.3319   26.0171  -30.7548 H   0  0  0  0  0  0  0  0  0  0  0  0
   -7.0887   24.4842  -31.6938 H   0  0  0  0  0  0  0  0  0  0  0  0
   -5.7328   20.3136  -32.2607 H   0  0  0  0  0  0  0  0  0  0  0  0
   -7.4617   18.8023  -33.2324 H   0  0  0  0  0  0  0  0  0  0  0  0
  -10.5782   21.4743  -31.8786 H   0  0  0  0  0  0  0  0  0  0  0  0
   -8.8588   22.9956  -30.9052 H   0  0  0  0  0  0  0  0  0  0  0  0
   -4.9679   21.0471  -30.0431 H   0  0  0  0  0  0  0  0  0  0  0  0
   -0.5675   21.2376  -29.5937 H   0  0  0  0  0  0  0  0  0  0  0  0
  1  2  1  0
  2  3  1  0
  3  4  2  0
  4  5  1  0
  5  6  2  0
  6  7  1  0
  7  8  1  0
  8  9  2  0
  9 10  1  0
 10 11  2  0
 11 12  1  0
 12 13  2  0
 13 14  1  0
 14 15  2  0
 15 16  1  0
 15 17  1  0
 17 18  2  0
 11 19  1  0
 19 20  2  0
  4 21  1  0
 21 22  2  0
 22  2  1  0
 20  5  1  0
 20  8  1  0
 18 12  1  0
  1 23  1  0
  1 24  1  0
  1 25  1  0
  3 26  1  0
  6 27  1  0
  7 28  1  0
  9 29  1  0
 10 30  1  0
 13 31  1  0
 14 32  1  0
 17 33  1  0
 18 34  1  0
 19 35  1  0
 21 36  1  0
M  END
>  <UniqueID>  (3) 
3

>  <SMILES>  (3) 
Cn1cc(-c2c[nH]c3ccc(-c4ccc(F)cc4)cc23)cn1

>  <Energy>  (3) 
110.11630072988851

>  <Genealogy>  (3) 
Cn1cc(-c2c[nH]c3ccc(-c4ccc(F)cc4)cc23)cn1 (3D coordinates assigned)
Cn1cc(-c2c[nH]c3ccc(-c4ccc(F)cc4)cc23)cn1 (optimized conformer: 110.11630072988851 kcal/mol)

>  <smiles>  (3) 
Cn1cc(-c2c[nH]c3ccc(-c4ccc(F)cc4)cc23)cn1

>  <score_type>  (3) 
oracle

>  <origin>  (3) 
adgpu

>  <m_score__min__energy>  (3) 
-8.4600000000000009

>  <m_primary>  (3) 
energy

$$$$
3:0
     RDKit          3D

 29 31  0  0  0  0  0  0  0  0999 V2000
   -1.6090   26.0440  -28.0320 C   0  0  0  0  0  0  0  0  0  0  0  0
   -0.9750   24.7860  -28.5320 C   0  0  0  0  0  0  0  0  0  0  0  0
    0.2710   24.3960  -28.2000 N   0  0  0  0  0  0  0  0  0  0  0  0
    0.4950   23.2670  -28.8080 O   0  0  0  0  0  0  0  0  0  0  0  0
   -0.5420   22.8980  -29.5240 C   0  0  0  0  0  0  0  0  0  0  0  0
   -0.5950   21.6480  -30.3390 C   0  0  0  0  0  0  0  0  0  0  0  0
   -1.5360   23.8500  -29.3840 C   0  0  0  0  0  0  0  0  0  0  0  0
   -2.8740   23.8580  -30.0020 C   0  0  0  0  0  0  0  0  0  0  0  0
   -3.6200   22.7560  -30.2090 N   0  0  0  0  0  0  0  0  0  0  0  0
   -4.7240   23.2800  -30.7840 C   0  0  0  0  0  0  0  0  0  0  0  0
   -5.8850   22.4760  -31.2200 C   0  0  0  0  0  0  0  0  0  0  0  0
   -7.1450   22.6660  -30.6240 C   0  0  0  0  0  0  0  0  0  0  0  0
   -8.2440   21.9060  -31.0380 C   0  0  0  0  0  0  0  0  0  0  0  0
   -8.0950   20.9500  -32.0480 C   0  0  0  0  0  0  0  0  0  0  0  0
   -9.4750   19.9970  -32.5640 Cl  0  0  0  0  0  0  0  0  0  0  0  0
   -6.8470   20.7540  -32.6450 C   0  0  0  0  0  0  0  0  0  0  0  0
   -5.7470   21.5120  -32.2340 C   0  0  0  0  0  0  0  0  0  0  0  0
   -4.6450   24.6200  -30.9140 N   0  0  0  0  0  0  0  0  0  0  0  0
   -3.4870   24.9380  -30.4200 O   0  0  0  0  0  0  0  0  0  0  0  0
   -1.6084   26.0428  -26.9320 H   0  0  0  0  0  0  0  0  0  0  0  0
   -1.0405   26.9117  -28.3980 H   0  0  0  0  0  0  0  0  0  0  0  0
   -2.6446   26.1033  -28.3980 H   0  0  0  0  0  0  0  0  0  0  0  0
   -0.6320   20.7755  -29.6702 H   0  0  0  0  0  0  0  0  0  0  0  0
   -1.4934   21.6619  -30.9736 H   0  0  0  0  0  0  0  0  0  0  0  0
    0.3013   21.5858  -30.9736 H   0  0  0  0  0  0  0  0  0  0  0  0
   -7.2667   23.4159  -29.8285 H   0  0  0  0  0  0  0  0  0  0  0  0
   -9.2267   22.0604  -30.5686 H   0  0  0  0  0  0  0  0  0  0  0  0
   -6.7301   20.0022  -33.4394 H   0  0  0  0  0  0  0  0  0  0  0  0
   -4.7667   21.3532  -32.7071 H   0  0  0  0  0  0  0  0  0  0  0  0
  1  2  1  0
  2  3  2  0
  3  4  1  0
  4  5  1  0
  5  6  1  0
  5  7  2  0
  7  8  1  0
  8  9  2  0
  9 10  1  0
 10 11  1  0
 11 12  2  0
 12 13  1  0
 13 14  2  0
 14 15  1  0
 14 16  1  0
 16 17  2  0
 10 18  2  0
 18 19  1  0
  7  2  1  0
 19  8  1  0
 17 11  1  0
  1 20  1  0
  1 21  1  0
  1 22  1  0
  6 23  1  0
  6 24  1  0
  6 25  1  0
 12 26  1  0
 13 27  1  0
 16 28  1  0
 17 29  1  0
M  END
>  <UniqueID>  (4) 
4

>  <SMILES>  (4) 
Cc1noc(C)c1-c1nc(-c2ccc(Cl)cc2)no1

>  <Energy>  (4) 
93.21097497260459

>  <Genealogy>  (4) 
Cc1noc(C)c1-c1nc(-c2ccc(Cl)cc2)no1 (3D coordinates assigned)
Cc1noc(C)c1-c1nc(-c2ccc(Cl)cc2)no1 (optimized conformer: 93.21097497260459 kcal/mol)

>  <smiles>  (4) 
Cc1noc(C)c1-c1nc(-c2ccc(Cl)cc2)no1

>  <score_type>  (4) 
oracle

>  <origin>  (4) 
adgpu

>  <m_score__min__energy>  (4) 
-8.0899999999999999

>  <m_primary>  (4) 
energy

$$$$
4:0
     RDKit          3D

 32 34  0  0  0  0  0  0  0  0999 V2000
   -7.2660   23.8030  -31.5590 C   0  0  0  0  0  0  0  0  0  0  0  0
   -8.3650   22.9430  -31.6080 C   0  0  0  0  0  0  0  0  0  0  0  0
   -8.1940   21.6070  -31.9810 C   0  0  0  0  0  0  0  0  0  0  0  0
   -6.9160   21.1160  -32.3120 C   0  0  0  0  0  0  0  0  0  0  0  0
   -6.7310   19.6970  -32.7090 C   0  0  0  0  0  0  0  0  0  0  0  0
   -7.3080   18.6620  -31.9530 C   0  0  0  0  0  0  0  0  0  0  0  0
   -7.1350   17.3270  -32.3250 C   0  0  0  0  0  0  0  0  0  0  0  0
   -6.3780   16.9950  -33.4620 C   0  0  0  0  0  0  0  0  0  0  0  0
   -6.1930   15.5740  -33.8580 C   0  0  0  0  0  0  0  0  0  0  0  0
   -4.9750   14.9140  -33.6070 C   0  0  0  0  0  0  0  0  0  0  0  0
   -4.8040   13.5780  -33.9810 C   0  0  0  0  0  0  0  0  0  0  0  0
   -5.8420   12.8870  -34.6080 C   0  0  0  0  0  0  0  0  0  0  0  0
   -7.0550   13.5310  -34.8640 C   0  0  0  0  0  0  0  0  0  0  0  0
   -7.2330   14.8670  -34.4920 C   0  0  0  0  0  0  0  0  0  0  0  0
   -5.8000   18.0290  -34.2200 C   0  0  0  0  0  0  0  0  0  0  0  0
   -5.9740   19.3650  -33.8470 C   0  0  0  0  0  0  0  0  0  0  0  0
   -5.8170   21.9940  -32.2590 C   0  0  0  0  0  0  0  0  0  0  0  0
   -5.9940   23.3290  -31.8840 C   0  0  0  0  0  0  0  0  0  0  0  0
   -7.4027   24.8539  -31.2643 H   0  0  0  0  0  0  0  0  0  0  0  0
   -9.3672   23.3177  -31.3526 H   0  0  0  0  0  0  0  0  0  0  0  0
   -9.0636   20.9342  -32.0163 H   0  0  0  0  0  0  0  0  0  0  0  0
   -7.9016   18.9059  -31.0596 H   0  0  0  0  0  0  0  0  0  0  0  0
   -7.5948   16.5290  -31.7235 H   0  0  0  0  0  0  0  0  0  0  0  0
   -4.1528   15.4530  -33.1135 H   0  0  0  0  0  0  0  0  0  0  0  0
   -3.8491   13.0701  -33.7807 H   0  0  0  0  0  0  0  0  0  0  0  0
   -5.7050   11.8355  -34.9005 H   0  0  0  0  0  0  0  0  0  0  0  0
   -7.8719   12.9858  -35.3594 H   0  0  0  0  0  0  0  0  0  0  0  0
   -8.1906   15.3686  -34.6956 H   0  0  0  0  0  0  0  0  0  0  0  0
   -5.2064   17.7846  -35.1133 H   0  0  0  0  0  0  0  0  0  0  0  0
   -5.5150   20.1634  -34.4486 H   0  0  0  0  0  0  0  0  0  0  0  0
   -4.8120   21.6271  -32.5144 H   0  0  0  0  0  0  0  0  0  0  0  0
   -5.1290   24.0074  -31.8450 H   0  0  0  0  0  0  0  0  0  0  0  0
  1  2  2  0
  2  3  1  0
  3  4  2  0
  4  5  1  0
  5  6  2  0
  6  7  1  0
  7  8  2  0
  8  9  1  0
  9 10  2  0
 10 11  1  0
 11 12  2  0
 12 13  1  0
 13 14  2  0
  8 15  1  0
 15 16  2  0
  4 17  1  0
 17 18  2  0
 18  1  1  0
 16  5  1  0
 14  9  1  0
  1 19  1  0
  2 20  1  0
  3 21  1  0
  6 22  1  0
  7 23  1  0
 10 24  1  0
 11 25  1  0
 12 26  1  0
 13 27  1  0
 14 28  1  0
 15 29  1  0
 16 30  1  0
 17 31  1  0
 18 32  1  0
M  END
>  <UniqueID>  (5) 
5

>  <SMILES>  (5) 
c1ccc(-c2ccc(-c3ccccc3)cc2)cc1

>  <Energy>  (5) 
45.553299164012465

>  <Genealogy>  (5) 
c1ccc(-c2ccc(-c3ccccc3)cc2)cc1 (3D coordinates assigned)
c1ccc(-c2ccc(-c3ccccc3)cc2)cc1 (optimized conformer: 45.553299164012465 kcal/mol)

>  <smiles>  (5) 
c1ccc(-c2ccc(-c3ccccc3)cc2)cc1

>  <score_type>  (5) 
oracle

>  <origin>  (5) 
adgpu

>  <m_score__min__energy>  (5) 
-6.8700000000000001

>  <m_primary>  (5) 
energy

$$$$
5:0
     RDKit          3D

 27 28  0  0  0  0  0  0  0  0999 V2000
   -6.1760   19.0800  -31.6210 C   0  0  0  0  0  0  0  0  0  0  0  0
   -6.0850   20.3230  -32.8890 S   0  0  0  0  0  0  0  0  0  0  0  0
   -4.7970   20.1740  -33.6500 O   0  0  0  0  0  0  0  0  0  0  0  0
   -7.2320   20.1510  -33.8440 O   0  0  0  0  0  0  0  0  0  0  0  0
   -6.1560   21.9190  -32.1490 C   0  0  0  0  0  0  0  0  0  0  0  0
   -7.3930   22.5220  -31.8900 C   0  0  0  0  0  0  0  0  0  0  0  0
   -7.4470   23.7740  -31.2720 C   0  0  0  0  0  0  0  0  0  0  0  0
   -6.2660   24.4330  -30.9150 C   0  0  0  0  0  0  0  0  0  0  0  0
   -5.0230   23.8510  -31.1930 C   0  0  0  0  0  0  0  0  0  0  0  0
   -3.8270   24.5200  -30.7630 N   0  0  0  0  0  0  0  0  0  0  0  0
   -3.3010   24.5190  -29.5690 C   0  0  0  0  0  0  0  0  0  0  0  0
   -3.7880   23.7150  -28.5170 C   0  0  0  0  0  0  0  0  0  0  0  0
   -3.1750   23.7570  -27.3050 N   0  0  0  0  0  0  0  0  0  0  0  0
   -2.1000   24.5560  -27.0830 C   0  0  0  0  0  0  0  0  0  0  0  0
   -1.6030   25.3390  -28.1250 C   0  0  0  0  0  0  0  0  0  0  0  0
   -2.2100   25.2990  -29.3390 N   0  0  0  0  0  0  0  0  0  0  0  0
   -4.9740   22.5750  -31.7810 C   0  0  0  0  0  0  0  0  0  0  0  0
   -6.1408   19.5613  -30.6325 H   0  0  0  0  0  0  0  0  0  0  0  0
   -7.1175   18.5204  -31.7230 H   0  0  0  0  0  0  0  0  0  0  0  0
   -5.3260   18.3893  -31.7230 H   0  0  0  0  0  0  0  0  0  0  0  0
   -8.3239   22.0091  -32.1736 H   0  0  0  0  0  0  0  0  0  0  0  0
   -8.4206   24.2425  -31.0657 H   0  0  0  0  0  0  0  0  0  0  0  0
   -6.3138   25.4113  -30.4144 H   0  0  0  0  0  0  0  0  0  0  0  0
   -4.6568   23.0595  -28.6766 H   0  0  0  0  0  0  0  0  0  0  0  0
   -1.6255   24.5856  -26.0910 H   0  0  0  0  0  0  0  0  0  0  0  0
   -0.7263   25.9837  -27.9645 H   0  0  0  0  0  0  0  0  0  0  0  0
   -4.0023   22.0890  -31.9531 H   0  0  0  0  0  0  0  0  0  0  0  0
  1  2  1  0
  2  3  2  0
  2  4  2  0
  2  5  1  0
  5  6  2  0
  6  7  1  0
  7  8  2  0
  8  9  1  0
  9 10  1  0
 10 11  2  3
 11 12  1  0
 12 13  2  0
 13 14  1  0
 14 15  2  0
 15 16  1  0
  9 17  2  0
 17  5  1  0
 16 11  1  0
  1 18  1  0
  1 19  1  0
  1 20  1  0
  6 21  1  0
  7 22  1  0
  8 23  1  0
 12 24  1  0
 14 25  1  0
 15 26  1  0
 17 27  1  0
M  CHG  1  16  -1
M  END
>  <UniqueID>  (6) 
6

>  <SMILES>  (6) 
CS(=O)(=O)c1cccc(N=c2cncc[n-]2)c1

>  <Energy>  (6) 
36.216316124649346

>  <Genealogy>  (6) 
CS(=O)(=O)c1cccc(N=c2cncc[n-]2)c1 (protonated)
CS(=O)(=O)c1cccc(N=c2cncc[n-]2)c1 (3D coordinates assigned)
CS(=O)(=O)c1cccc(N=c2cncc[n-]2)c1 (optimized conformer: 36.216316124649346 kcal/mol)

>  <smiles>  (6) 
CS(=O)(=O)c1cccc(N=c2cncc[nH]2)c1

>  <score_type>  (6) 
oracle

>  <origin>  (6) 
adgpu

>  <m_score__min__energy>  (6) 
-8.3900000000000006

>  <m_primary>  (6) 
energy

$$$$
6:0
     RDKit          3D

 30 32  0  0  0  0  0  0  0  0999 V2000
   -3.4840   16.3540  -35.6720 N   0  0  0  0  0  0  0  0  0  0  0  0
   -4.6140   16.6680  -34.8550 C   0  0  0  0  0  0  0  0  0  0  0  0
   -5.5760   15.6870  -34.5780 C   0  0  0  0  0  0  0  0  0  0  0  0
   -6.6780   15.9930  -33.7750 C   0  0  0  0  0  0  0  0  0  0  0  0
   -6.8250   17.2760  -33.2430 C   0  0  0  0  0  0  0  0  0  0  0  0
   -5.8690   18.2710  -33.5110 C   0  0  0  0  0  0  0  0  0  0  0  0
   -6.0200   19.5930  -32.9660 N   0  0  0  0  0  0  0  0  0  0  0  0
   -7.2360   20.2770  -32.6470 C   0  0  0  0  0  0  0  0  0  0  0  0
   -8.3880   19.7810  -32.7660 O   0  0  0  0  0  0  0  0  0  0  0  0
   -6.9390   21.6020  -32.1130 C   0  0  0  0  0  0  0  0  0  0  0  0
   -7.7880   22.6130  -31.6700 C   0  0  0  0  0  0  0  0  0  0  0  0
   -7.2080   23.8040  -31.1990 C   0  0  0  0  0  0  0  0  0  0  0  0
   -5.7980   23.9690  -31.1750 C   0  0  0  0  0  0  0  0  0  0  0  0
   -5.2210   25.1940  -30.6900 N   0  0  0  0  0  0  0  0  0  0  0  0
   -5.9290   26.0520  -30.1230 O   0  0  0  0  0  0  0  0  0  0  0  0
   -3.8750   25.4410  -30.8420 O   0  0  0  0  0  0  0  0  0  0  0  0
   -4.9680   22.9170  -31.6320 C   0  0  0  0  0  0  0  0  0  0  0  0
   -5.5710   21.7480  -32.0910 C   0  0  0  0  0  0  0  0  0  0  0  0
   -4.9850   20.5200  -32.6160 C   0  0  0  0  0  0  0  0  0  0  0  0
   -3.7540   20.3140  -32.7860 O   0  0  0  0  0  0  0  0  0  0  0  0
   -4.7630   17.9570  -34.3220 C   0  0  0  0  0  0  0  0  0  0  0  0
   -2.5700   16.0880  -35.2420 H   0  0  0  0  0  0  0  0  0  0  0  0
   -3.5520   16.3870  -36.7140 H   0  0  0  0  0  0  0  0  0  0  0  0
   -5.4634   14.6747  -34.9933 H   0  0  0  0  0  0  0  0  0  0  0  0
   -7.4319   15.2211  -33.5613 H   0  0  0  0  0  0  0  0  0  0  0  0
   -7.6942   17.5092  -32.6104 H   0  0  0  0  0  0  0  0  0  0  0  0
   -8.8802   22.4836  -31.6880 H   0  0  0  0  0  0  0  0  0  0  0  0
   -7.8556   24.6193  -30.8442 H   0  0  0  0  0  0  0  0  0  0  0  0
   -3.8729   23.0202  -31.6248 H   0  0  0  0  0  0  0  0  0  0  0  0
   -4.0094   18.7282  -34.5398 H   0  0  0  0  0  0  0  0  0  0  0  0
  1  2  1  0
  2  3  2  0
  3  4  1  0
  4  5  2  0
  5  6  1  0
  6  7  1  0
  7  8  1  0
  8  9  2  0
  8 10  1  0
 10 11  2  0
 11 12  1  0
 12 13  2  0
 13 14  1  0
 14 15  2  0
 14 16  1  0
 13 17  1  0
 17 18  2  0
 18 19  1  0
 19 20  2  0
  6 21  2  0
 21  2  1  0
 19  7  1  0
 18 10  1  0
  1 22  1  0
  1 23  1  0
  3 24  1  0
  4 25  1  0
  5 26  1  0
 11 27  1  0
 12 28  1  0
 17 29  1  0
 21 30  1  0
M  CHG  2  14   1  16  -1
M  END
>  <UniqueID>  (7) 
7

>  <SMILES>  (7) 
Nc1cccc(N2C(=O)c3ccc([N+](=O)[O-])cc3C2=O)c1

>  <Energy>  (7) 
69.89947659181584

>  <Genealogy>  (7) 
Nc1cccc(N2C(=O)c3ccc([N+](=O)[O-])cc3C2=O)c1 (3D coordinates assigned)
Nc1cccc(N2C(=O)c3ccc([N+](=O)[O-])cc3C2=O)c1 (nonaromatic ring conformer: 69.89947659181584 kcal/mol)

>  <smiles>  (7) 
Nc1cccc(N2C(=O)c3ccc([N+](=O)[O-])cc3C2=O)c1

>  <score_type>  (7) 
oracle

>  <origin>  (7) 
adgpu

>  <m_score__min__energy>  (7) 
-8.1500000000000004

>  <m_primary>  (7) 
energy

$$$$
7:0
     RDKit          3D

 17 18  0  0  0  0  0  0  0  0999 V2000
   -8.4460   21.3610  -31.9690 C   0  0  0  0  0  0  0  0  0  0  0  0
   -7.3260   20.7050  -32.4860 C   0  0  0  0  0  0  0  0  0  0  0  0
   -6.0520   21.2610  -32.3360 C   0  0  0  0  0  0  0  0  0  0  0  0
   -5.8950   22.4830  -31.6640 C   0  0  0  0  0  0  0  0  0  0  0  0
   -4.6300   23.0640  -31.5000 C   0  0  0  0  0  0  0  0  0  0  0  0
   -4.5040   24.2490  -30.8450 N   0  0  0  0  0  0  0  0  0  0  0  0
   -5.5790   24.9040  -30.3340 C   0  0  0  0  0  0  0  0  0  0  0  0
   -6.8620   24.3680  -30.4710 C   0  0  0  0  0  0  0  0  0  0  0  0
   -7.0280   23.1480  -31.1400 C   0  0  0  0  0  0  0  0  0  0  0  0
   -8.3010   22.5790  -31.2970 C   0  0  0  0  0  0  0  0  0  0  0  0
   -9.4454   20.9179  -32.0909 H   0  0  0  0  0  0  0  0  0  0  0  0
   -7.4470   19.7472  -33.0132 H   0  0  0  0  0  0  0  0  0  0  0  0
   -5.1731   20.7408  -32.7445 H   0  0  0  0  0  0  0  0  0  0  0  0
   -3.7381   22.5608  -31.9016 H   0  0  0  0  0  0  0  0  0  0  0  0
   -5.4386   25.8609  -29.8099 H   0  0  0  0  0  0  0  0  0  0  0  0
   -7.7328   24.8982  -30.0580 H   0  0  0  0  0  0  0  0  0  0  0  0
   -9.1857   23.0914  -30.8912 H   0  0  0  0  0  0  0  0  0  0  0  0
  1  2  2  0
  2  3  1  0
  3  4  2  0
  4  5  1  0
  5  6  2  0
  6  7  1  0
  7  8  2  0
  8  9  1  0
  9 10  2  0
 10  1  1  0
  9  4  1  0
  1 11  1  0
  2 12  1  0
  3 13  1  0
  5 14  1  0
  7 15  1  0
  8 16  1  0
 10 17  1  0
M  END
>  <UniqueID>  (8) 
8

>  <SMILES>  (8) 
c1ccc2cnccc2c1

>  <Energy>  (8) 
21.622299077643923

>  <Genealogy>  (8) 
c1ccc2cnccc2c1 (3D coordinates assigned)
c1ccc2cnccc2c1 (optimized conformer: 21.622299077643923 kcal/mol)

>  <smiles>  (8) 
c1ccc2cnccc2c1

>  <score_type>  (8) 
oracle

>  <origin>  (8) 
adgpu

>  <m_score__min__energy>  (8) 
-5.2999999999999998

>  <m_primary>  (8) 
energy

$$$$
8:0
     RDKit          3D

 28 30  0  0  0  0  0  0  0  0999 V2000
   -9.3210   21.3360  -31.6800 C   0  0  0  0  0  0  0  0  0  0  0  0
   -8.4320   22.3380  -31.2960 C   0  0  0  0  0  0  0  0  0  0  0  0
   -7.0540   22.1820  -31.5470 C   0  0  0  0  0  0  0  0  0  0  0  0
   -6.0340   23.2090  -31.1660 C   0  0  0  0  0  0  0  0  0  0  0  0
   -6.3740   24.5440  -30.8570 C   0  0  0  0  0  0  0  0  0  0  0  0
   -5.3750   25.4570  -30.5090 C   0  0  0  0  0  0  0  0  0  0  0  0
   -4.0760   25.0670  -30.4670 N   0  0  0  0  0  0  0  0  0  0  0  0
   -3.7070   23.7930  -30.7590 C   0  0  0  0  0  0  0  0  0  0  0  0
   -4.6720   22.8480  -31.1110 C   0  0  0  0  0  0  0  0  0  0  0  0
   -6.6380   21.0390  -32.1640 N   0  0  0  0  0  0  0  0  0  0  0  0
   -7.4770   20.0390  -32.5540 C   0  0  0  0  0  0  0  0  0  0  0  0
   -6.8860   18.8470  -33.2170 C   0  0  0  0  0  0  0  0  0  0  0  0
   -7.1200   17.5270  -32.7860 C   0  0  0  0  0  0  0  0  0  0  0  0
   -6.5170   16.4770  -33.4780 C   0  0  0  0  0  0  0  0  0  0  0  0
   -5.7210   16.7330  -34.5470 N   0  0  0  0  0  0  0  0  0  0  0  0
   -5.5010   18.0080  -34.9570 C   0  0  0  0  0  0  0  0  0  0  0  0
   -6.0790   19.0440  -34.2970 N   0  0  0  0  0  0  0  0  0  0  0  0
   -8.8540   20.1830  -32.3090 C   0  0  0  0  0  0  0  0  0  0  0  0
  -10.3971   21.4555  -31.4857 H   0  0  0  0  0  0  0  0  0  0  0  0
   -8.8040   23.2463  -30.7994 H   0  0  0  0  0  0  0  0  0  0  0  0
   -7.4255   24.8655  -30.8902 H   0  0  0  0  0  0  0  0  0  0  0  0
   -5.6428   26.4963  -30.2681 H   0  0  0  0  0  0  0  0  0  0  0  0
   -2.6460   23.5055  -30.7180 H   0  0  0  0  0  0  0  0  0  0  0  0
   -4.3687   21.8172  -31.3465 H   0  0  0  0  0  0  0  0  0  0  0  0
   -7.7669   17.3276  -31.9189 H   0  0  0  0  0  0  0  0  0  0  0  0
   -6.6870   15.4388  -33.1566 H   0  0  0  0  0  0  0  0  0  0  0  0
   -4.8537   18.2021  -35.8250 H   0  0  0  0  0  0  0  0  0  0  0  0
   -9.5568   19.3925  -32.6111 H   0  0  0  0  0  0  0  0  0  0  0  0
  1  2  2  0
  2  3  1  0
  3  4  1  0
  4  5  2  0
  5  6  1  0
  6  7  2  0
  7  8  1  0
  8  9  2  0
  3 10  2  0
 10 11  1  0
 11 12  1  0
 12 13  2  0
 13 14  1  0
 14 15  2  0
 15 16  1  0
 16 17  2  0
 11 18  2  0
 18  1  1  0
  9  4  1  0
 17 12  1  0
  1 19  1  0
  2 20  1  0
  5 21  1  0
  6 22  1  0
  8 23  1  0
  9 24  1  0
 13 25  1  0
 14 26  1  0
 16 27  1  0
 18 28  1  0
M  END
>  <UniqueID>  (9) 
9

>  <SMILES>  (9) 
c1cc(-c2ccncc2)nc(-c2ccncn2)c1

>  <Energy>  (9) 
41.39503476052613

>  <Genealogy>  (9) 
c1cc(-c2ccncc2)nc(-c2ccncn2)c1 (3D coordinates assigned)
c1cc(-c2ccncc2)nc(-c2ccncn2)c1 (optimized conformer: 41.39503476052613 kcal/mol)

>  <smiles>  (9) 
c1cc(-c2ccncc2)nc(-c2ccncn2)c1

>  <score_type>  (9) 
oracle

>  <origin>  (9) 
adgpu

>  <m_score__min__energy>  (9) 
-7.8799999999999999

>  <m_primary>  (9) 
energy

$$$$
9:0
     RDKit          3D

 34 34  0  0  0  0  0  0  0  0999 V2000
   -9.3090   21.5530  -30.4230 C   0  0  0  0  0  0  0  0  0  0  0  0
   -9.7880   21.0230  -32.0970 S   0  0  0  0  0  0  0  0  0  0  0  0
   -8.1460   20.4310  -32.5400 C   0  0  0  0  0  0  0  0  0  0  0  0
   -7.9540   19.0560  -32.7190 C   0  0  0  0  0  0  0  0  0  0  0  0
   -6.6850   18.5450  -33.0110 C   0  0  0  0  0  0  0  0  0  0  0  0
   -6.5080   16.8070  -33.2340 Cl  0  0  0  0  0  0  0  0  0  0  0  0
   -5.5820   19.4140  -33.1100 C   0  0  0  0  0  0  0  0  0  0  0  0
   -4.2080   18.8850  -33.4120 C   0  0  0  0  0  0  0  0  0  0  0  0
   -5.7730   20.7910  -32.9090 C   0  0  0  0  0  0  0  0  0  0  0  0
   -7.0470   21.3060  -32.6360 C   0  0  0  0  0  0  0  0  0  0  0  0
   -7.2240   23.0740  -32.3500 S   0  0  0  0  0  0  0  0  0  0  0  0
   -6.1580   23.0880  -30.8660 C   0  0  0  0  0  0  0  0  0  0  0  0
   -4.7050   23.3790  -31.2530 C   0  0  0  0  0  0  0  0  0  0  0  0
   -4.2680   24.6940  -30.7340 N   0  0  0  0  0  0  0  0  0  0  0  0
   -5.4230   25.5700  -30.4680 C   0  0  0  0  0  0  0  0  0  0  0  0
   -3.4900   24.5220  -29.4960 C   0  0  0  0  0  0  0  0  0  0  0  0
   -9.8521   20.9521  -29.6787 H   0  0  0  0  0  0  0  0  0  0  0  0
   -8.2264   21.4114  -30.2893 H   0  0  0  0  0  0  0  0  0  0  0  0
   -9.5590   22.6158  -30.2893 H   0  0  0  0  0  0  0  0  0  0  0  0
   -8.8096   18.3705  -32.6291 H   0  0  0  0  0  0  0  0  0  0  0  0
   -3.6783   18.6811  -32.4697 H   0  0  0  0  0  0  0  0  0  0  0  0
   -4.2927   17.9552  -33.9936 H   0  0  0  0  0  0  0  0  0  0  0  0
   -3.6473   19.6316  -33.9936 H   0  0  0  0  0  0  0  0  0  0  0  0
   -4.9120   21.4732  -32.9666 H   0  0  0  0  0  0  0  0  0  0  0  0
   -6.5112   23.8664  -30.1737 H   0  0  0  0  0  0  0  0  0  0  0  0
   -6.2070   22.1009  -30.3830 H   0  0  0  0  0  0  0  0  0  0  0  0
   -4.0577   22.5944  -30.8341 H   0  0  0  0  0  0  0  0  0  0  0  0
   -4.6326   23.3952  -32.3505 H   0  0  0  0  0  0  0  0  0  0  0  0
   -5.5612   25.6748  -29.3818 H   0  0  0  0  0  0  0  0  0  0  0  0
   -5.2422   26.5601  -30.9119 H   0  0  0  0  0  0  0  0  0  0  0  0
   -6.3277   25.1289  -30.9119 H   0  0  0  0  0  0  0  0  0  0  0  0
   -4.1478   24.6674  -28.6264 H   0  0  0  0  0  0  0  0  0  0  0  0
   -3.0644   23.5081  -29.4683 H   0  0  0  0  0  0  0  0  0  0  0  0
   -2.6766   25.2620  -29.4683 H   0  0  0  0  0  0  0  0  0  0  0  0
  1  2  1  0
  2  3  1  0
  3  4  2  0
  4  5  1  0
  5  6  1  0
  5  7  2  0
  7  8  1  0
  7  9  1  0
  9 10  2  0
 10 11  1  0
 11 12  1  0
 12 13  1  0
 13 14  1  0
 14 15  1  0
 14 16  1  0
 10  3  1  0
  1 17  1  0
  1 18  1  0
  1 19  1  0
  4 20  1  0
  8 21  1  0
  8 22  1  0
  8 23  1  0
  9 24  1  0
 12 25  1  0
 12 26  1  0
 13 27  1  0
 13 28  1  0
 15 29  1  0
 15 30  1  0
 15 31  1  0
 16 32  1  0
 16 33  1  0
 16 34  1  0
M  END
>  <UniqueID>  (10) 
10

>  <SMILES>  (10) 
CSc1cc(Cl)c(C)cc1SCCN(C)C

>  <Energy>  (10) 
24.15814877239614

>  <Genealogy>  (10) 
CSc1cc(Cl)c(C)cc1SCCN(C)C (3D coordinates assigned)
CSc1cc(Cl)c(C)cc1SCCN(C)C (optimized conformer: 24.15814877239614 kcal/mol)

>  <smiles>  (10) 
CSc1cc(Cl)c(C)cc1SCCN(C)C

>  <score_type>  (10) 
oracle

>  <origin>  (10) 
adgpu

>  <m_score__min__energy>  (10) 
-6.9299999999999997

>  <m_primary>  (10) 
energy

$$$$
10:0
     RDKit          3D

 31 33  0  0  0  0  0  0  0  0999 V2000
  -10.5534   20.3294  -31.8198 H   0  0  0  0  0  0  0  0  0  0  0  0
   -9.4880   20.5740  -31.9430 C   0  0  0  0  0  0  0  0  0  0  0  0
   -8.9570   21.6380  -31.2840 N   0  0  0  0  0  0  0  0  0  0  0  0
   -7.6430   21.9730  -31.4090 C   0  0  0  0  0  0  0  0  0  0  0  0
   -7.1300   23.0750  -30.7150 C   0  0  0  0  0  0  0  0  0  0  0  0
   -7.7883   23.6697  -30.0646 H   0  0  0  0  0  0  0  0  0  0  0  0
   -5.7770   23.4220  -30.8480 C   0  0  0  0  0  0  0  0  0  0  0  0
   -5.1290   24.8140  -29.9880 S   0  0  0  0  0  0  0  0  0  0  0  0
   -4.1320   25.5500  -30.8400 O   0  0  0  0  0  0  0  0  0  0  0  0
   -6.2600   25.7430  -29.6500 O   0  0  0  0  0  0  0  0  0  0  0  0
   -4.3570   24.3070  -28.5170 N   0  0  0  0  0  0  0  0  0  0  0  0
   -3.1240   24.5470  -28.1710 C   0  0  0  0  0  0  0  0  0  0  0  0
   -2.6650   24.0450  -26.9460 C   0  0  0  0  0  0  0  0  0  0  0  0
   -3.3403   23.4677  -26.2973 H   0  0  0  0  0  0  0  0  0  0  0  0
   -1.3470   24.2810  -26.5530 C   0  0  0  0  0  0  0  0  0  0  0  0
   -0.9794   23.8901  -25.5928 H   0  0  0  0  0  0  0  0  0  0  0  0
   -0.4980   25.0130  -27.3800 C   0  0  0  0  0  0  0  0  0  0  0  0
    0.7850   25.2470  -27.0090 F   0  0  0  0  0  0  0  0  0  0  0  0
   -0.9810   25.5030  -28.5940 C   0  0  0  0  0  0  0  0  0  0  0  0
   -0.3177   26.0817  -29.2536 H   0  0  0  0  0  0  0  0  0  0  0  0
   -2.2700   25.2680  -28.9660 N   0  0  0  0  0  0  0  0  0  0  0  0
   -2.5770   25.6610  -29.8820 H   0  0  0  0  0  0  0  0  0  0  0  0
   -4.9390   22.6550  -31.6710 C   0  0  0  0  0  0  0  0  0  0  0  0
   -3.8767   22.9226  -31.7700 H   0  0  0  0  0  0  0  0  0  0  0  0
   -5.4450   21.5530  -32.3660 C   0  0  0  0  0  0  0  0  0  0  0  0
   -4.7819   20.9580  -33.0112 H   0  0  0  0  0  0  0  0  0  0  0  0
   -6.7970   21.2060  -32.2410 C   0  0  0  0  0  0  0  0  0  0  0  0
   -7.3340   20.1080  -32.9250 C   0  0  0  0  0  0  0  0  0  0  0  0
   -6.6927   19.4977  -33.5778 H   0  0  0  0  0  0  0  0  0  0  0  0
   -8.6860   19.7900  -32.7760 C   0  0  0  0  0  0  0  0  0  0  0  0
   -9.1156   18.9296  -33.3100 H   0  0  0  0  0  0  0  0  0  0  0  0
  1  2  1  0
  2  3  2  0
  3  4  1  0
  4  5  2  0
  5  6  1  0
  5  7  1  0
  7  8  1  0
  8  9  2  0
  8 10  2  0
  8 11  1  0
 11 12  2  0
 12 13  1  0
 13 14  1  0
 13 15  2  0
 15 16  1  0
 15 17  1  0
 17 18  1  0
 17 19  2  0
 19 20  1  0
 19 21  1  0
 21 22  1  0
  7 23  2  0
 23 24  1  0
 23 25  1  0
 25 26  1  0
 25 27  2  0
 27 28  1  0
 28 29  1  0
 28 30  2  0
 30 31  1  0
 30  2  1  0
 27  4  1  0
 21 12  1  0
M  END
>  <UniqueID>  (11) 
11

>  <SMILES>  (11) 
O=S(=O)(/N=c1/ccc(F)c[nH]1)c1ccc2cccnc2c1

>  <Energy>  (11) 
42.2395493645616

>  <Genealogy>  (11) 
O=S(=O)(/N=c1/ccc(F)c[nH]1)c1ccc2cccnc2c1 (cis-trans isomerization)
O=S(=O)(/N=c1/ccc(F)c[nH]1)c1ccc2cccnc2c1 (3D coordinates assigned)
O=S(=O)(/N=c1/ccc(F)c[nH]1)c1ccc2cccnc2c1 (optimized conformer: 42.2395493645616 kcal/mol)

>  <smiles>  (11) 
O=S(=O)(N=c1ccc(F)c[nH]1)c1ccc2cccnc2c1

>  <score_type>  (11) 
oracle

>  <origin>  (11) 
adgpu

>  <m_score__min__energy>  (11) 
-8.9600000000000009

>  <m_primary>  (11) 
energy

$$$$
11:0
     RDKit          3D

 24 25  0  0  0  0  0  0  0  0999 V2000
   -2.8060   24.5460  -29.4110 C   0  0  0  0  0  0  0  0  0  0  0  0
   -3.5070   25.2640  -30.4650 N   0  0  0  0  0  0  0  0  0  0  0  0
   -4.9270   25.3280  -30.6720 C   0  0  0  0  0  0  0  0  0  0  0  0
   -5.5000   26.4310  -30.4600 O   0  0  0  0  0  0  0  0  0  0  0  0
   -5.7440   24.1670  -31.1210 C   0  0  0  0  0  0  0  0  0  0  0  0
   -7.1330   24.1520  -30.9100 C   0  0  0  0  0  0  0  0  0  0  0  0
   -7.8840   23.0560  -31.3380 C   0  0  0  0  0  0  0  0  0  0  0  0
   -7.2550   21.9830  -31.9680 C   0  0  0  0  0  0  0  0  0  0  0  0
   -5.8670   22.0190  -32.1680 C   0  0  0  0  0  0  0  0  0  0  0  0
   -5.1570   20.9070  -32.8320 C   0  0  0  0  0  0  0  0  0  0  0  0
   -5.7540   19.7680  -33.3670 C   0  0  0  0  0  0  0  0  0  0  0  0
   -4.8370   18.8750  -33.9370 C   0  0  0  0  0  0  0  0  0  0  0  0
   -3.5180   19.3000  -33.8560 C   0  0  0  0  0  0  0  0  0  0  0  0
   -3.4930   20.7870  -33.0760 S   0  0  0  0  0  0  0  0  0  0  0  0
   -5.1620   23.1030  -31.7400 N   0  0  0  0  0  0  0  0  0  0  0  0
   -3.1541   24.9025  -28.4303 H   0  0  0  0  0  0  0  0  0  0  0  0
   -3.0097   23.4689  -29.5030 H   0  0  0  0  0  0  0  0  0  0  0  0
   -1.7244   24.7238  -29.5030 H   0  0  0  0  0  0  0  0  0  0  0  0
   -7.6258   24.9991  -30.4104 H   0  0  0  0  0  0  0  0  0  0  0  0
   -8.9722   23.0389  -31.1782 H   0  0  0  0  0  0  0  0  0  0  0  0
   -7.8419   21.1159  -32.3052 H   0  0  0  0  0  0  0  0  0  0  0  0
   -6.8388   19.5873  -33.3443 H   0  0  0  0  0  0  0  0  0  0  0  0
   -5.1347   17.9252  -34.4053 H   0  0  0  0  0  0  0  0  0  0  0  0
   -2.6407   18.7566  -34.2369 H   0  0  0  0  0  0  0  0  0  0  0  0
  1  2  1  0
  2  3  1  0
  3  4  2  0
  3  5  1  0
  5  6  2  0
  6  7  1  0
  7  8  2  0
  8  9  1  0
  9 10  1  0
 10 11  2  0
 11 12  1  0
 12 13  2  0
 13 14  1  0
  9 15  2  0
 15  5  1  0
 14 10  1  0
  1 16  1  0
  1 17  1  0
  1 18  1  0
  6 19  1  0
  7 20  1  0
  8 21  1  0
 11 22  1  0
 12 23  1  0
 13 24  1  0
M  CHG  1   2  -1
M  END
>  <UniqueID>  (12) 
12

>  <SMILES>  (12) 
C[N-]C(=O)c1cccc(-c2cccs2)n1

>  <Energy>  (12) 
51.5030527608789

>  <Genealogy>  (12) 
C[N-]C(=O)c1cccc(-c2cccs2)n1 (protonated)
C[N-]C(=O)c1cccc(-c2cccs2)n1 (3D coordinates assigned)
C[N-]C(=O)c1cccc(-c2cccs2)n1 (optimized conformer: 51.5030527608789 kcal/mol)

>  <smiles>  (12) 
CNC(=O)c1cccc(-c2cccs2)n1

>  <score_type>  (12) 
oracle

>  <origin>  (12) 
adgpu

>  <m_score__min__energy>  (12) 
-8.0999999999999996

>  <m_primary>  (12) 
energy

$$$$
12:0
     RDKit          3D

 26 27  0  0  0  0  0  0  0  0999 V2000
   -5.3720   18.2480  -34.6920 C   0  0  0  0  0  0  0  0  0  0  0  0
   -6.3450   18.6260  -33.6150 C   0  0  0  0  0  0  0  0  0  0  0  0
   -7.1640   17.6500  -33.0290 C   0  0  0  0  0  0  0  0  0  0  0  0
   -8.0880   18.0080  -32.0450 C   0  0  0  0  0  0  0  0  0  0  0  0
   -8.2140   19.3420  -31.6500 C   0  0  0  0  0  0  0  0  0  0  0  0
   -7.4220   20.3380  -32.2460 C   0  0  0  0  0  0  0  0  0  0  0  0
   -7.5600   21.7130  -31.8380 N   0  0  0  0  0  0  0  0  0  0  0  0
   -8.5420   22.5800  -32.1780 C   0  0  0  0  0  0  0  0  0  0  0  0
   -8.3560   23.7930  -31.6100 N   0  0  0  0  0  0  0  0  0  0  0  0
   -7.2340   23.7050  -30.9130 N   0  0  0  0  0  0  0  0  0  0  0  0
   -6.6820   24.7850  -30.1000 C   0  0  0  0  0  0  0  0  0  0  0  0
   -5.3060   25.0710  -30.5170 C   0  0  0  0  0  0  0  0  0  0  0  0
   -4.2210   25.2960  -30.8470 N   0  0  0  0  0  0  0  0  0  0  0  0
   -6.7610   22.4550  -31.0450 C   0  0  0  0  0  0  0  0  0  0  0  0
   -5.6930   22.0430  -30.5170 O   0  0  0  0  0  0  0  0  0  0  0  0
   -6.4870   19.9690  -33.2310 C   0  0  0  0  0  0  0  0  0  0  0  0
   -4.4400   17.8859  -34.2335 H   0  0  0  0  0  0  0  0  0  0  0  0
   -5.8065   17.4532  -35.3162 H   0  0  0  0  0  0  0  0  0  0  0  0
   -5.1560   19.1276  -35.3162 H   0  0  0  0  0  0  0  0  0  0  0  0
   -7.0784   16.5999  -33.3452 H   0  0  0  0  0  0  0  0  0  0  0  0
   -8.7190   17.2367  -31.5792 H   0  0  0  0  0  0  0  0  0  0  0  0
   -8.9376   19.6144  -30.8676 H   0  0  0  0  0  0  0  0  0  0  0  0
   -9.3874   22.3289  -32.8355 H   0  0  0  0  0  0  0  0  0  0  0  0
   -7.2968   25.6882  -30.2275 H   0  0  0  0  0  0  0  0  0  0  0  0
   -6.6838   24.4797  -29.0432 H   0  0  0  0  0  0  0  0  0  0  0  0
   -5.8615   20.7401  -33.7045 H   0  0  0  0  0  0  0  0  0  0  0  0
  1  2  1  0
  2  3  2  0
  3  4  1  0
  4  5  2  0
  5  6  1  0
  6  7  1  0
  7  8  1  0
  8  9  2  0
  9 10  1  0
 10 11  1  0
 11 12  1  0
 12 13  3  0
 10 14  1  0
 14 15  2  0
  6 16  2  0
 16  2  1  0
 14  7  1  0
  1 17  1  0
  1 18  1  0
  1 19  1  0
  3 20  1  0
  4 21  1  0
  5 22  1  0
  8 23  1  0
 11 24  1  0
 11 25  1  0
 16 26  1  0
M  END
>  <UniqueID>  (13) 
13

>  <SMILES>  (13) 
Cc1cccc(-n2cnn(CC#N)c2=O)c1

>  <Energy>  (13) 
65.34686051557192

>  <Genealogy>  (13) 
Cc1cccc(-n2cnn(CC#N)c2=O)c1 (3D coordinates assigned)
Cc1cccc(-n2cnn(CC#N)c2=O)c1 (optimized conformer: 65.34686051557192 kcal/mol)

>  <smiles>  (13) 
Cc1cccc(-n2cnn(CC#N)c2=O)c1

>  <score_type>  (13) 
oracle

>  <origin>  (13) 
adgpu

>  <m_score__min__energy>  (13) 
-6.8399999999999999

>  <m_primary>  (13) 
energy

$$$$
13:0
     RDKit          3D

 34 37  0  0  0  0  0  0  0  0999 V2000
   -5.9290   25.2970  -29.4120 N   0  0  0  0  0  0  0  0  0  0  0  0
   -5.5270   24.1230  -29.7430 C   0  0  0  0  0  0  0  0  0  0  0  0
   -4.3650   23.5660  -29.2610 C   0  0  0  0  0  0  0  0  0  0  0  0
   -3.4390   24.2540  -28.3780 C   0  0  0  0  0  0  0  0  0  0  0  0
   -3.6990   24.5350  -27.0560 C   0  0  0  0  0  0  0  0  0  0  0  0
   -2.7310   25.1870  -26.2920 C   0  0  0  0  0  0  0  0  0  0  0  0
   -1.5130   25.5560  -26.8490 C   0  0  0  0  0  0  0  0  0  0  0  0
   -1.2520   25.2710  -28.1880 C   0  0  0  0  0  0  0  0  0  0  0  0
   -2.2140   24.6220  -28.9450 C   0  0  0  0  0  0  0  0  0  0  0  0
   -3.9990   22.2690  -29.6400 C   0  0  0  0  0  0  0  0  0  0  0  0
   -4.8220   21.6290  -30.4720 N   0  0  0  0  0  0  0  0  0  0  0  0
   -5.9420   22.1910  -30.9250 C   0  0  0  0  0  0  0  0  0  0  0  0
   -6.9030   21.6650  -31.7920 C   0  0  0  0  0  0  0  0  0  0  0  0
   -6.8640   20.3370  -32.3960 C   0  0  0  0  0  0  0  0  0  0  0  0
   -7.7470   19.3660  -31.9410 C   0  0  0  0  0  0  0  0  0  0  0  0
   -7.7210   18.1360  -32.4900 N   0  0  0  0  0  0  0  0  0  0  0  0
   -6.8580   17.8090  -33.4780 C   0  0  0  0  0  0  0  0  0  0  0  0
   -5.9970   18.7400  -33.9270 N   0  0  0  0  0  0  0  0  0  0  0  0
   -5.9860   19.9960  -33.4040 C   0  0  0  0  0  0  0  0  0  0  0  0
   -7.8640   22.6430  -31.9450 C   0  0  0  0  0  0  0  0  0  0  0  0
   -7.4910   23.7170  -31.1960 N   0  0  0  0  0  0  0  0  0  0  0  0
   -6.3480   23.4380  -30.5940 N   0  0  0  0  0  0  0  0  0  0  0  0
   -5.3530   25.8480  -28.7530 H   0  0  0  0  0  0  0  0  0  0  0  0
   -4.6610   24.2482  -26.6062 H   0  0  0  0  0  0  0  0  0  0  0  0
   -2.9347   25.4119  -25.2347 H   0  0  0  0  0  0  0  0  0  0  0  0
   -0.7583   26.0706  -26.2362 H   0  0  0  0  0  0  0  0  0  0  0  0
   -0.2911   25.5586  -28.6397 H   0  0  0  0  0  0  0  0  0  0  0  0
   -2.0127   24.3938  -30.0021 H   0  0  0  0  0  0  0  0  0  0  0  0
   -3.0759   21.7996  -29.2690 H   0  0  0  0  0  0  0  0  0  0  0  0
   -8.4621   19.5996  -31.1385 H   0  0  0  0  0  0  0  0  0  0  0  0
   -6.8599   16.7967  -33.9083 H   0  0  0  0  0  0  0  0  0  0  0  0
   -5.2743   20.7425  -33.7864 H   0  0  0  0  0  0  0  0  0  0  0  0
   -8.7710   22.5683  -32.5628 H   0  0  0  0  0  0  0  0  0  0  0  0
   -8.0040   24.6350  -31.0900 H   0  0  0  0  0  0  0  0  0  0  0  0
  1  2  2  3
  2  3  1  0
  3  4  1  0
  4  5  2  0
  5  6  1  0
  6  7  2  0
  7  8  1  0
  8  9  2  0
  3 10  2  0
 10 11  1  0
 11 12  2  0
 12 13  1  0
 13 14  1  0
 14 15  2  0
 15 16  1  0
 16 17  2  0
 17 18  1  0
 18 19  2  0
 13 20  2  0
 20 21  1  0
 21 22  1  0
 22  2  1  0
  9  4  1  0
 22 12  1  0
 19 14  1  0
  1 23  1  0
  5 24  1  0
  6 25  1  0
  7 26  1  0
  8 27  1  0
  9 28  1  0
 10 29  1  0
 15 30  1  0
 17 31  1  0
 19 32  1  0
 20 33  1  0
 21 34  1  0
M  END
>  <smiles>  (14) 
N=c1c(-c2ccccc2)cnc2c(-c3cncnc3)c[nH]n12

>  <score_type>  (14) 
oracle

>  <origin>  (14) 
adgpu

>  <m_score__min__energy>  (14) 
-7.5599999999999996

>  <m_primary>  (14) 
energy

$$$$
14:0
     RDKit          3D

 47 50  0  0  0  0  0  0  0  0999 V2000
   -0.8680   26.4040  -24.1450 C   0  0  0  0  0  0  0  0  0  0  0  0
   -2.0230   26.5880  -24.9580 O   0  0  0  0  0  0  0  0  0  0  0  0
   -2.4330   25.6990  -25.9620 C   0  0  0  0  0  0  0  0  0  0  0  0
   -3.7730   25.2980  -26.1170 C   0  0  0  0  0  0  0  0  0  0  0  0
   -4.1310   24.4080  -27.1340 C   0  0  0  0  0  0  0  0  0  0  0  0
   -3.1540   23.8940  -28.0060 C   0  0  0  0  0  0  0  0  0  0  0  0
   -3.5010   23.0030  -29.0810 N   0  0  0  0  0  0  0  0  0  0  0  0
   -3.5720   23.3980  -30.4590 C   0  0  0  0  0  0  0  0  0  0  0  0
   -3.8580   24.5890  -30.7600 O   0  0  0  0  0  0  0  0  0  0  0  0
   -3.4000   22.4030  -31.5350 C   0  0  0  0  0  0  0  0  0  0  0  0
   -2.1830   21.9260  -31.9770 C   0  0  0  0  0  0  0  0  0  0  0  0
   -2.4990   21.1100  -33.0540 C   0  0  0  0  0  0  0  0  0  0  0  0
   -1.5530   20.3550  -33.9120 C   0  0  0  0  0  0  0  0  0  0  0  0
   -0.5210   21.0350  -34.5860 C   0  0  0  0  0  0  0  0  0  0  0  0
    0.3780   20.3360  -35.3970 C   0  0  0  0  0  0  0  0  0  0  0  0
    0.2600   18.9540  -35.5440 C   0  0  0  0  0  0  0  0  0  0  0  0
   -0.7580   18.2660  -34.8820 C   0  0  0  0  0  0  0  0  0  0  0  0
   -1.6620   18.9590  -34.0690 C   0  0  0  0  0  0  0  0  0  0  0  0
   -3.8370   21.0970  -33.2280 N   0  0  0  0  0  0  0  0  0  0  0  0
   -4.3800   21.8740  -32.3040 N   0  0  0  0  0  0  0  0  0  0  0  0
   -5.8010   22.0150  -32.1520 C   0  0  0  0  0  0  0  0  0  0  0  0
   -6.6170   20.8740  -32.1080 C   0  0  0  0  0  0  0  0  0  0  0  0
   -8.0010   21.0030  -31.9510 C   0  0  0  0  0  0  0  0  0  0  0  0
   -8.5770   22.2700  -31.8240 C   0  0  0  0  0  0  0  0  0  0  0  0
   -7.7690   23.4110  -31.8440 C   0  0  0  0  0  0  0  0  0  0  0  0
   -6.3850   23.2850  -31.9970 C   0  0  0  0  0  0  0  0  0  0  0  0
   -1.8240   24.3120  -27.8620 C   0  0  0  0  0  0  0  0  0  0  0  0
   -1.4670   25.2010  -26.8440 C   0  0  0  0  0  0  0  0  0  0  0  0
   -1.1553   26.4498  -23.0842 H   0  0  0  0  0  0  0  0  0  0  0  0
   -0.4197   25.4231  -24.3615 H   0  0  0  0  0  0  0  0  0  0  0  0
   -0.1371   27.1970  -24.3615 H   0  0  0  0  0  0  0  0  0  0  0  0
   -4.5429   25.6869  -25.4343 H   0  0  0  0  0  0  0  0  0  0  0  0
   -5.1826   24.1079  -27.2530 H   0  0  0  0  0  0  0  0  0  0  0  0
   -3.7590   22.0190  -28.8430 H   0  0  0  0  0  0  0  0  0  0  0  0
   -1.1856   22.1438  -31.5673 H   0  0  0  0  0  0  0  0  0  0  0  0
   -0.4212   22.1247  -34.4737 H   0  0  0  0  0  0  0  0  0  0  0  0
    1.1801   20.8771  -35.9203 H   0  0  0  0  0  0  0  0  0  0  0  0
    0.9694   18.4063  -36.1818 H   0  0  0  0  0  0  0  0  0  0  0  0
   -0.8500   17.1762  -34.9996 H   0  0  0  0  0  0  0  0  0  0  0  0
   -2.4620   18.4109  -33.5497 H   0  0  0  0  0  0  0  0  0  0  0  0
   -6.1665   19.8745  -32.1973 H   0  0  0  0  0  0  0  0  0  0  0  0
   -8.6370   20.1058  -31.9275 H   0  0  0  0  0  0  0  0  0  0  0  0
   -9.6663   22.3697  -31.7083 H   0  0  0  0  0  0  0  0  0  0  0  0
   -8.2223   24.4078  -31.7394 H   0  0  0  0  0  0  0  0  0  0  0  0
   -5.7500   24.1832  -31.9961 H   0  0  0  0  0  0  0  0  0  0  0  0
   -1.0558   23.9379  -28.5548 H   0  0  0  0  0  0  0  0  0  0  0  0
   -0.4175   25.5120  -26.7351 H   0  0  0  0  0  0  0  0  0  0  0  0
  1  2  1  0
  2  3  1  0
  3  4  2  0
  4  5  1  0
  5  6  2  0
  6  7  1  0
  7  8  1  0
  8  9  2  0
  8 10  1  0
 10 11  2  0
 11 12  1  0
 12 13  1  0
 13 14  2  0
 14 15  1  0
 15 16  2  0
 16 17  1  0
 17 18  2  0
 12 19  2  0
 19 20  1  0
 20 21  1  0
 21 22  2  0
 22 23  1  0
 23 24  2  0
 24 25  1  0
 25 26  2  0
  6 27  1  0
 27 28  2  0
 28  3  1  0
 20 10  1  0
 26 21  1  0
 18 13  1  0
  1 29  1  0
  1 30  1  0
  1 31  1  0
  4 32  1  0
  5 33  1  0
  7 34  1  0
 11 35  1  0
 14 36  1  0
 15 37  1  0
 16 38  1  0
 17 39  1  0
 18 40  1  0
 22 41  1  0
 23 42  1  0
 24 43  1  0
 25 44  1  0
 26 45  1  0
 27 46  1  0
 28 47  1  0
M  END
>  <UniqueID>  (15) 
14

>  <SMILES>  (15) 
COc1ccc(NC(=O)c2cc(-c3ccccc3)nn2-c2ccccc2)cc1

>  <Energy>  (15) 
92.16835310392419

>  <Genealogy>  (15) 
COc1ccc(NC(=O)c2cc(-c3ccccc3)nn2-c2ccccc2)cc1 (3D coordinates assigned)
COc1ccc(NC(=O)c2cc(-c3ccccc3)nn2-c2ccccc2)cc1 (optimized conformer: 92.16835310392419 kcal/mol)

>  <smiles>  (15) 
COc1ccc(NC(=O)c2cc(-c3ccccc3)nn2-c2ccccc2)cc1

>  <score_type>  (15) 
oracle

>  <origin>  (15) 
adgpu

>  <m_score__min__energy>  (15) 
-8.6899999999999995

>  <m_primary>  (15) 
energy

$$$$
15:0
     RDKit          3D

 37 38  0  0  0  0  0  0  0  0999 V2000
   -3.4470   24.1650  -28.0100 C   0  0  0  0  0  0  0  0  0  0  0  0
   -2.9840   24.7910  -29.2890 C   0  0  0  0  0  0  0  0  0  0  0  0
   -1.8310   25.2940  -29.3410 O   0  0  0  0  0  0  0  0  0  0  0  0
   -3.8280   24.8730  -30.4460 N   0  0  0  0  0  0  0  0  0  0  0  0
   -4.9130   23.9950  -30.7750 C   0  0  0  0  0  0  0  0  0  0  0  0
   -4.8680   22.6230  -30.4760 C   0  0  0  0  0  0  0  0  0  0  0  0
   -5.9340   21.7900  -30.8290 C   0  0  0  0  0  0  0  0  0  0  0  0
   -7.0500   22.3140  -31.4940 C   0  0  0  0  0  0  0  0  0  0  0  0
   -8.4110   21.2690  -31.9080 S   0  0  0  0  0  0  0  0  0  0  0  0
   -8.9640   20.6580  -30.6500 O   0  0  0  0  0  0  0  0  0  0  0  0
   -9.4960   22.0980  -32.5360 O   0  0  0  0  0  0  0  0  0  0  0  0
   -7.9370   19.9980  -33.0140 N   0  0  0  0  0  0  0  0  0  0  0  0
   -6.5790   20.2500  -33.5750 C   0  0  0  0  0  0  0  0  0  0  0  0
   -5.4890   19.3970  -32.9080 C   0  0  0  0  0  0  0  0  0  0  0  0
   -5.7880   17.8960  -33.0650 C   0  0  0  0  0  0  0  0  0  0  0  0
   -7.2950   17.5900  -33.0970 C   0  0  0  0  0  0  0  0  0  0  0  0
   -8.0930   18.6740  -32.3640 C   0  0  0  0  0  0  0  0  0  0  0  0
   -7.0770   23.6760  -31.8280 C   0  0  0  0  0  0  0  0  0  0  0  0
   -6.0110   24.5080  -31.4760 C   0  0  0  0  0  0  0  0  0  0  0  0
   -3.0336   24.7239  -27.1575 H   0  0  0  0  0  0  0  0  0  0  0  0
   -4.5459   24.1897  -27.9664 H   0  0  0  0  0  0  0  0  0  0  0  0
   -3.1017   23.1215  -27.9664 H   0  0  0  0  0  0  0  0  0  0  0  0
   -3.9909   22.2026  -29.9623 H   0  0  0  0  0  0  0  0  0  0  0  0
   -5.8962   20.7184  -30.5834 H   0  0  0  0  0  0  0  0  0  0  0  0
   -8.6170   20.0410  -33.8090 H   0  0  0  0  0  0  0  0  0  0  0  0
   -6.5954   20.0202  -34.6506 H   0  0  0  0  0  0  0  0  0  0  0  0
   -6.3342   21.3056  -33.3856 H   0  0  0  0  0  0  0  0  0  0  0  0
   -4.5197   19.6214  -33.3772 H   0  0  0  0  0  0  0  0  0  0  0  0
   -5.4638   19.6382  -31.8351 H   0  0  0  0  0  0  0  0  0  0  0  0
   -5.3376   17.5441  -34.0049 H   0  0  0  0  0  0  0  0  0  0  0  0
   -5.3631   17.3799  -32.1914 H   0  0  0  0  0  0  0  0  0  0  0  0
   -7.6300   17.5429  -34.1437 H   0  0  0  0  0  0  0  0  0  0  0  0
   -7.4673   16.6277  -32.5927 H   0  0  0  0  0  0  0  0  0  0  0  0
   -9.1577   18.3976  -32.3673 H   0  0  0  0  0  0  0  0  0  0  0  0
   -7.7103   18.7477  -31.3354 H   0  0  0  0  0  0  0  0  0  0  0  0
   -7.9404   24.0906  -32.3689 H   0  0  0  0  0  0  0  0  0  0  0  0
   -6.0346   25.5727  -31.7514 H   0  0  0  0  0  0  0  0  0  0  0  0
  1  2  1  0
  2  3  2  0
  2  4  1  0
  4  5  1  0
  5  6  2  0
  6  7  1  0
  7  8  2  0
  8  9  1  0
  9 10  2  0
  9 11  2  0
  9 12  1  0
 12 13  1  0
 13 14  1  0
 14 15  1  0
 15 16  1  0
 16 17  1  0
  8 18  1  0
 18 19  2  0
 19  5  1  0
 17 12  1  0
  1 20  1  0
  1 21  1  0
  1 22  1  0
  6 23  1  0
  7 24  1  0
 12 25  1  0
 13 26  1  0
 13 27  1  0
 14 28  1  0
 14 29  1  0
 15 30  1  0
 15 31  1  0
 16 32  1  0
 16 33  1  0
 17 34  1  0
 17 35  1  0
 18 36  1  0
 19 37  1  0
M  CHG  2   4  -1  12   1
M  END
>  <UniqueID>  (16) 
15

>  <SMILES>  (16) 
CC(=O)[N-]c1ccc(S(=O)(=O)[NH+]2CCCCC2)cc1

>  <Energy>  (16) 
43.49710338442651

>  <Genealogy>  (16) 
CC(=O)[N-]c1ccc(S(=O)(=O)[NH+]2CCCCC2)cc1 (protonated)
CC(=O)[N-]c1ccc(S(=O)(=O)[NH+]2CCCCC2)cc1 (3D coordinates assigned)
CC(=O)[N-]c1ccc(S(=O)(=O)[NH+]2CCCCC2)cc1 (nonaromatic ring conformer: 43.49710338442651 kcal/mol)

>  <smiles>  (16) 
CC(=O)Nc1ccc(S(=O)(=O)N2CCCCC2)cc1

>  <score_type>  (16) 
oracle

>  <origin>  (16) 
adgpu

>  <m_score__min__energy>  (16) 
-9.5399999999999991

>  <m_primary>  (16) 
energy

$$$$
16:0
     RDKit          3D

 17 18  0  0  0  0  0  0  0  0999 V2000
   -6.1880   25.7930  -29.3560 C   0  0  0  0  0  0  0  0  0  0  0  0
   -5.8210   24.6300  -30.2120 C   0  0  0  0  0  0  0  0  0  0  0  0
   -4.6330   24.5120  -30.8450 N   0  0  0  0  0  0  0  0  0  0  0  0
   -4.5500   23.4240  -31.6090 N   0  0  0  0  0  0  0  0  0  0  0  0
   -5.6760   22.6750  -31.6020 C   0  0  0  0  0  0  0  0  0  0  0  0
   -5.8270   21.4330  -32.3700 C   0  0  0  0  0  0  0  0  0  0  0  0
   -7.0180   20.7650  -32.6270 C   0  0  0  0  0  0  0  0  0  0  0  0
   -6.8450   19.6030  -33.3900 C   0  0  0  0  0  0  0  0  0  0  0  0
   -5.5220   19.3540  -33.7350 C   0  0  0  0  0  0  0  0  0  0  0  0
   -4.5690   20.5810  -33.0910 S   0  0  0  0  0  0  0  0  0  0  0  0
   -6.8570   23.3640  -30.6140 S   0  0  0  0  0  0  0  0  0  0  0  0
   -6.0990   25.5110  -28.2965 H   0  0  0  0  0  0  0  0  0  0  0  0
   -5.5115   26.6336  -29.5698 H   0  0  0  0  0  0  0  0  0  0  0  0
   -7.2245   26.0930  -29.5698 H   0  0  0  0  0  0  0  0  0  0  0  0
   -7.9976   21.1134  -32.2677 H   0  0  0  0  0  0  0  0  0  0  0  0
   -7.6779   18.9492  -33.6880 H   0  0  0  0  0  0  0  0  0  0  0  0
   -5.1602   18.5008  -34.3276 H   0  0  0  0  0  0  0  0  0  0  0  0
  1  2  1  0
  2  3  2  0
  3  4  1  0
  4  5  2  0
  5  6  1  0
  6  7  2  0
  7  8  1  0
  8  9  2  0
  9 10  1  0
  5 11  1  0
 11  2  1  0
 10  6  1  0
  1 12  1  0
  1 13  1  0
  1 14  1  0
  7 15  1  0
  8 16  1  0
  9 17  1  0
M  END
>  <UniqueID>  (17) 
16

>  <SMILES>  (17) 
Cc1nnc(-c2cccs2)s1

>  <Energy>  (17) 
74.78901192191684

>  <Genealogy>  (17) 
Cc1nnc(-c2cccs2)s1 (3D coordinates assigned)
Cc1nnc(-c2cccs2)s1 (optimized conformer: 74.78901192191684 kcal/mol)

>  <smiles>  (17) 
Cc1nnc(-c2cccs2)s1

>  <score_type>  (17) 
oracle

>  <origin>  (17) 
adgpu

>  <m_score__min__energy>  (17) 
-5.8300000000000001

>  <m_primary>  (17) 
energy

$$$$
17:0
     RDKit          3D

 38 39  0  0  0  0  0  0  0  0999 V2000
   -2.6990   20.6390  -28.2040 C   0  0  0  0  0  0  0  0  0  0  0  0
   -2.7700   22.0420  -27.6100 C   0  0  0  0  0  0  0  0  0  0  0  0
   -3.3420   23.0220  -28.6080 C   0  0  0  0  0  0  0  0  0  0  0  0
   -4.7070   22.9490  -28.9240 C   0  0  0  0  0  0  0  0  0  0  0  0
   -5.2880   23.8530  -29.8300 C   0  0  0  0  0  0  0  0  0  0  0  0
   -6.6870   23.7860  -30.1760 N   0  0  0  0  0  0  0  0  0  0  0  0
   -7.5060   22.5730  -30.1050 C   0  0  0  0  0  0  0  0  0  0  0  0
   -8.1610   22.2570  -31.4570 C   0  0  0  0  0  0  0  0  0  0  0  0
   -7.9260   20.8210  -31.8670 C   0  0  0  0  0  0  0  0  0  0  0  0
   -8.9640   19.8850  -31.7090 C   0  0  0  0  0  0  0  0  0  0  0  0
   -8.7670   18.5430  -32.0460 C   0  0  0  0  0  0  0  0  0  0  0  0
   -7.5330   18.1200  -32.5400 C   0  0  0  0  0  0  0  0  0  0  0  0
   -6.4900   19.0370  -32.6960 C   0  0  0  0  0  0  0  0  0  0  0  0
   -6.6750   20.3840  -32.3600 C   0  0  0  0  0  0  0  0  0  0  0  0
   -5.3210   21.4880  -32.5710 Cl  0  0  0  0  0  0  0  0  0  0  0  0
   -4.4680   24.8440  -30.3960 C   0  0  0  0  0  0  0  0  0  0  0  0
   -4.9410   25.6740  -31.2170 O   0  0  0  0  0  0  0  0  0  0  0  0
   -3.1520   24.9110  -30.0690 N   0  0  0  0  0  0  0  0  0  0  0  0
   -2.5680   24.0470  -29.1970 C   0  0  0  0  0  0  0  0  0  0  0  0
   -1.1020   24.2050  -28.9140 C   0  0  0  0  0  0  0  0  0  0  0  0
   -2.6615   19.8983  -27.3916 H   0  0  0  0  0  0  0  0  0  0  0  0
   -3.5891   20.4580  -28.8244 H   0  0  0  0  0  0  0  0  0  0  0  0
   -1.7951   20.5488  -28.8244 H   0  0  0  0  0  0  0  0  0  0  0  0
   -3.4110   22.0227  -26.7163 H   0  0  0  0  0  0  0  0  0  0  0  0
   -1.7518   22.3636  -27.3457 H   0  0  0  0  0  0  0  0  0  0  0  0
   -5.3312   22.1735  -28.4562 H   0  0  0  0  0  0  0  0  0  0  0  0
   -7.1560   24.6460  -30.5420 H   0  0  0  0  0  0  0  0  0  0  0  0
   -6.8673   21.7271  -29.8107 H   0  0  0  0  0  0  0  0  0  0  0  0
   -8.3032   22.7374  -29.3651 H   0  0  0  0  0  0  0  0  0  0  0  0
   -9.2440   22.4333  -31.3789 H   0  0  0  0  0  0  0  0  0  0  0  0
   -7.7106   22.9104  -32.2187 H   0  0  0  0  0  0  0  0  0  0  0  0
   -9.9385   20.2118  -31.3171 H   0  0  0  0  0  0  0  0  0  0  0  0
   -9.5861   17.8194  -31.9215 H   0  0  0  0  0  0  0  0  0  0  0  0
   -7.3807   17.0638  -32.8070 H   0  0  0  0  0  0  0  0  0  0  0  0
   -5.5182   18.6989  -33.0849 H   0  0  0  0  0  0  0  0  0  0  0  0
   -0.9383   24.2226  -27.8264 H   0  0  0  0  0  0  0  0  0  0  0  0
   -0.5506   23.3611  -29.3541 H   0  0  0  0  0  0  0  0  0  0  0  0
   -0.7430   25.1470  -29.3541 H   0  0  0  0  0  0  0  0  0  0  0  0
  1  2  1  0
  2  3  1  0
  3  4  1  0
  4  5  2  0
  5  6  1  0
  6  7  1  0
  7  8  1  0
  8  9  1  0
  9 10  2  0
 10 11  1  0
 11 12  2  0
 12 13  1  0
 13 14  2  0
 14 15  1  0
  5 16  1  0
 16 17  2  0
 16 18  1  0
 18 19  1  0
 19 20  1  0
 19  3  2  0
 14  9  1  0
  1 21  1  0
  1 22  1  0
  1 23  1  0
  2 24  1  0
  2 25  1  0
  4 26  1  0
  6 27  1  0
  7 28  1  0
  7 29  1  0
  8 30  1  0
  8 31  1  0
 10 32  1  0
 11 33  1  0
 12 34  1  0
 13 35  1  0
 20 36  1  0
 20 37  1  0
 20 38  1  0
M  CHG  1  18  -1
M  END
>  <UniqueID>  (18) 
17

>  <SMILES>  (18) 
CCc1cc(NCCc2ccccc2Cl)c(=O)[n-]c1C

>  <Energy>  (18) 
34.57341841646191

>  <Genealogy>  (18) 
CCc1cc(NCCc2ccccc2Cl)c(=O)[n-]c1C (protonated)
CCc1cc(NCCc2ccccc2Cl)c(=O)[n-]c1C (3D coordinates assigned)
CCc1cc(NCCc2ccccc2Cl)c(=O)[n-]c1C (optimized conformer: 34.57341841646191 kcal/mol)

>  <smiles>  (18) 
CCc1cc(NCCc2ccccc2Cl)c(=O)[nH]c1C

>  <score_type>  (18) 
oracle

>  <origin>  (18) 
adgpu

>  <m_score__min__energy>  (18) 
-10.17

>  <m_primary>  (18) 
energy

$$$$
18:0
     RDKit          3D

 39 41  0  0  0  0  0  0  0  0999 V2000
   -4.2410   24.5580  -26.7180 C   0  0  0  0  0  0  0  0  0  0  0  0
   -3.1160   24.4350  -27.7410 C   0  0  0  0  0  0  0  0  0  0  0  0
   -3.4000   23.3440  -28.6790 N   0  0  0  0  0  0  0  0  0  0  0  0
   -2.6940   22.1020  -28.5380 C   0  0  0  0  0  0  0  0  0  0  0  0
   -1.5800   21.8270  -29.3460 C   0  0  0  0  0  0  0  0  0  0  0  0
   -0.8870   20.6230  -29.1980 C   0  0  0  0  0  0  0  0  0  0  0  0
   -1.3030   19.6860  -28.2460 C   0  0  0  0  0  0  0  0  0  0  0  0
   -2.4230   19.9470  -27.4400 C   0  0  0  0  0  0  0  0  0  0  0  0
   -2.8250   18.9710  -26.3750 C   0  0  0  0  0  0  0  0  0  0  0  0
   -3.1120   21.1610  -27.5860 C   0  0  0  0  0  0  0  0  0  0  0  0
   -4.4560   23.4700  -29.6500 C   0  0  0  0  0  0  0  0  0  0  0  0
   -5.2530   22.4450  -30.0200 N   0  0  0  0  0  0  0  0  0  0  0  0
   -6.1910   22.8200  -30.9330 C   0  0  0  0  0  0  0  0  0  0  0  0
   -7.1700   21.8440  -31.4790 C   0  0  0  0  0  0  0  0  0  0  0  0
   -6.7510   20.6310  -32.0610 C   0  0  0  0  0  0  0  0  0  0  0  0
   -7.6900   19.7310  -32.5740 C   0  0  0  0  0  0  0  0  0  0  0  0
   -9.0530   20.0280  -32.5160 C   0  0  0  0  0  0  0  0  0  0  0  0
   -9.4810   21.2270  -31.9410 C   0  0  0  0  0  0  0  0  0  0  0  0
   -8.5470   22.1320  -31.4300 C   0  0  0  0  0  0  0  0  0  0  0  0
   -6.1370   24.1690  -31.2970 C   0  0  0  0  0  0  0  0  0  0  0  0
   -4.8870   24.8940  -30.4370 S   0  0  0  0  0  0  0  0  0  0  0  0
   -3.8201   24.5120  -25.7028 H   0  0  0  0  0  0  0  0  0  0  0  0
   -4.7594   25.5182  -26.8568 H   0  0  0  0  0  0  0  0  0  0  0  0
   -4.9547   23.7325  -26.8568 H   0  0  0  0  0  0  0  0  0  0  0  0
   -3.0271   25.3792  -28.2983 H   0  0  0  0  0  0  0  0  0  0  0  0
   -2.1747   24.2191  -27.2144 H   0  0  0  0  0  0  0  0  0  0  0  0
   -1.2519   22.5606  -30.0971 H   0  0  0  0  0  0  0  0  0  0  0  0
   -0.0127   20.4113  -29.8311 H   0  0  0  0  0  0  0  0  0  0  0  0
   -0.7510   18.7418  -28.1284 H   0  0  0  0  0  0  0  0  0  0  0  0
   -2.6428   19.4134  -25.3845 H   0  0  0  0  0  0  0  0  0  0  0  0
   -3.8940   18.7338  -26.4796 H   0  0  0  0  0  0  0  0  0  0  0  0
   -2.2331   18.0497  -26.4796 H   0  0  0  0  0  0  0  0  0  0  0  0
   -3.9840   21.3754  -26.9507 H   0  0  0  0  0  0  0  0  0  0  0  0
   -5.6788   20.3907  -32.1120 H   0  0  0  0  0  0  0  0  0  0  0  0
   -7.3537   18.7857  -33.0249 H   0  0  0  0  0  0  0  0  0  0  0  0
   -9.7889   19.3187  -32.9226 H   0  0  0  0  0  0  0  0  0  0  0  0
  -10.5550   21.4591  -31.8904 H   0  0  0  0  0  0  0  0  0  0  0  0
   -8.8908   23.0777  -30.9856 H   0  0  0  0  0  0  0  0  0  0  0  0
   -6.7976   24.6692  -32.0204 H   0  0  0  0  0  0  0  0  0  0  0  0
  1  2  1  0
  2  3  1  0
  3  4  1  0
  4  5  2  0
  5  6  1  0
  6  7  2  0
  7  8  1  0
  8  9  1  0
  8 10  2  0
  3 11  1  0
 11 12  2  0
 12 13  1  0
 13 14  1  0
 14 15  2  0
 15 16  1  0
 16 17  2  0
 17 18  1  0
 18 19  2  0
 13 20  2  0
 20 21  1  0
 10  4  1  0
 21 11  1  0
 19 14  1  0
  1 22  1  0
  1 23  1  0
  1 24  1  0
  2 25  1  0
  2 26  1  0
  5 27  1  0
  6 28  1  0
  7 29  1  0
  9 30  1  0
  9 31  1  0
  9 32  1  0
 10 33  1  0
 15 34  1  0
 16 35  1  0
 17 36  1  0
 18 37  1  0
 19 38  1  0
 20 39  1  0
M  END
>  <UniqueID>  (19) 
18

>  <SMILES>  (19) 
CCN(c1cccc(C)c1)c1nc(-c2ccccc2)cs1

>  <Energy>  (19) 
75.33496580683315

>  <Genealogy>  (19) 
CCN(c1cccc(C)c1)c1nc(-c2ccccc2)cs1 (3D coordinates assigned)
CCN(c1cccc(C)c1)c1nc(-c2ccccc2)cs1 (optimized conformer: 75.33496580683315 kcal/mol)

>  <smiles>  (19) 
CCN(c1cccc(C)c1)c1nc(-c2ccccc2)cs1

>  <score_type>  (19) 
oracle

>  <origin>  (19) 
adgpu

>  <m_score__min__energy>  (19) 
-7.75

>  <m_primary>  (19) 
energy

$$$$
19:0
     RDKit          3D

 49 52  0  0  0  0  0  0  0  0999 V2000
   -0.5020   27.4780  -23.9140 C   0  0  0  0  0  0  0  0  0  0  0  0
   -0.6640   26.0530  -23.3720 C   0  0  0  0  0  0  0  0  0  0  0  0
    0.1220   25.0570  -24.1430 N   0  0  1  0  0  0  0  0  0  0  0  0
   -0.4760   23.7080  -24.0690 C   0  0  0  0  0  0  0  0  0  0  0  0
    0.3250   25.4870  -25.5490 C   0  0  0  0  0  0  0  0  0  0  0  0
   -0.8120   25.1040  -26.4790 C   0  0  0  0  0  0  0  0  0  0  0  0
   -2.1460   25.2370  -26.0620 C   0  0  0  0  0  0  0  0  0  0  0  0
   -3.1930   24.8910  -26.9200 C   0  0  0  0  0  0  0  0  0  0  0  0
   -2.9240   24.3990  -28.2080 C   0  0  0  0  0  0  0  0  0  0  0  0
   -4.0360   24.0370  -29.1110 C   0  0  0  0  0  0  0  0  0  0  0  0
   -5.0680   23.2290  -28.7440 N   0  0  0  0  0  0  0  0  0  0  0  0
   -5.8070   23.1890  -29.8660 C   0  0  0  0  0  0  0  0  0  0  0  0
   -7.0030   22.5090  -30.0780 C   0  0  0  0  0  0  0  0  0  0  0  0
   -7.6050   22.6130  -31.3570 C   0  0  0  0  0  0  0  0  0  0  0  0
   -8.8490   21.9680  -31.6640 N   0  0  0  0  0  0  0  0  0  0  0  0
   -9.0190   20.7010  -32.3140 C   0  0  0  0  0  0  0  0  0  0  0  0
  -10.1620   20.3210  -32.6870 O   0  0  0  0  0  0  0  0  0  0  0  0
   -7.8580   19.8120  -32.4980 C   0  0  0  0  0  0  0  0  0  0  0  0
   -7.6480   18.6450  -31.7410 C   0  0  0  0  0  0  0  0  0  0  0  0
   -6.4920   17.9600  -32.0840 C   0  0  0  0  0  0  0  0  0  0  0  0
   -5.7330   18.8020  -33.3240 S   0  0  0  0  0  0  0  0  0  0  0  0
   -6.8590   20.0440  -33.4410 C   0  0  0  0  0  0  0  0  0  0  0  0
   -6.9990   23.4190  -32.3520 C   0  0  0  0  0  0  0  0  0  0  0  0
   -5.7890   24.0910  -32.0980 C   0  0  0  0  0  0  0  0  0  0  0  0
   -5.2270   23.9450  -30.8340 C   0  0  0  0  0  0  0  0  0  0  0  0
   -4.1290   24.4670  -30.3600 O   0  0  0  0  0  0  0  0  0  0  0  0
   -1.5900   24.2560  -28.6200 C   0  0  0  0  0  0  0  0  0  0  0  0
   -0.5430   24.6020  -27.7620 C   0  0  0  0  0  0  0  0  0  0  0  0
   -0.4218   28.1831  -23.0735 H   0  0  0  0  0  0  0  0  0  0  0  0
    0.4084   27.5352  -24.5287 H   0  0  0  0  0  0  0  0  0  0  0  0
   -1.3764   27.7381  -24.5287 H   0  0  0  0  0  0  0  0  0  0  0  0
   -0.3272   26.0337  -22.3250 H   0  0  0  0  0  0  0  0  0  0  0  0
   -1.7261   25.7810  -23.4611 H   0  0  0  0  0  0  0  0  0  0  0  0
    1.0770   24.9960  -23.7170 H   0  0  0  0  0  0  0  0  0  0  0  0
   -0.6034   23.4207  -23.0148 H   0  0  0  0  0  0  0  0  0  0  0  0
   -1.4560   23.7134  -24.5685 H   0  0  0  0  0  0  0  0  0  0  0  0
    0.1862   22.9855  -24.5685 H   0  0  0  0  0  0  0  0  0  0  0  0
    0.4315   26.5817  -25.5646 H   0  0  0  0  0  0  0  0  0  0  0  0
    1.2246   24.9702  -25.9145 H   0  0  0  0  0  0  0  0  0  0  0  0
   -2.3682   25.6160  -25.0535 H   0  0  0  0  0  0  0  0  0  0  0  0
   -4.2345   25.0046  -26.5848 H   0  0  0  0  0  0  0  0  0  0  0  0
   -7.4656   21.9107  -29.2793 H   0  0  0  0  0  0  0  0  0  0  0  0
   -8.3358   18.3077  -30.9516 H   0  0  0  0  0  0  0  0  0  0  0  0
   -6.1341   17.0271  -31.6240 H   0  0  0  0  0  0  0  0  0  0  0  0
   -6.8150   20.8921  -34.1401 H   0  0  0  0  0  0  0  0  0  0  0  0
   -7.4805   23.5209  -33.3358 H   0  0  0  0  0  0  0  0  0  0  0  0
   -5.3059   24.7083  -32.8697 H   0  0  0  0  0  0  0  0  0  0  0  0
   -1.3672   23.8689  -29.6252 H   0  0  0  0  0  0  0  0  0  0  0  0
    0.4986   24.4803  -28.0940 H   0  0  0  0  0  0  0  0  0  0  0  0
  1  2  1  0
  2  3  1  0
  3  4  1  0
  3  5  1  0
  5  6  1  0
  6  7  2  0
  7  8  1  0
  8  9  2  0
  9 10  1  0
 10 11  2  0
 11 12  1  0
 12 13  2  0
 13 14  1  0
 14 15  1  0
 15 16  1  0
 16 17  2  0
 16 18  1  0
 18 19  1  0
 19 20  2  0
 20 21  1  0
 21 22  1  0
 14 23  2  0
 23 24  1  0
 24 25  2  0
 25 26  1  0
  9 27  1  0
 27 28  2  0
 28  6  1  0
 26 10  1  0
 25 12  1  0
 22 18  2  0
  1 29  1  0
  1 30  1  0
  1 31  1  0
  2 32  1  0
  2 33  1  0
  3 34  1  1
  4 35  1  0
  4 36  1  0
  4 37  1  0
  5 38  1  0
  5 39  1  0
  7 40  1  0
  8 41  1  0
 13 42  1  0
 19 43  1  0
 20 44  1  0
 22 45  1  0
 23 46  1  0
 24 47  1  0
 27 48  1  0
 28 49  1  0
M  CHG  2   3   1  15  -1
M  END
>  <UniqueID>  (20) 
19

>  <SMILES>  (20) 
CC[N@@H+](C)Cc1ccc(-c2nc3cc([N-]C(=O)c4ccsc4)ccc3o2)cc1

>  <Energy>  (20) 
120.87643842896944

>  <Genealogy>  (20) 
CC[NH+](C)Cc1ccc(-c2nc3cc([N-]C(=O)c4ccsc4)ccc3o2)cc1 (protonated)
CC[N@@H+](C)Cc1ccc(-c2nc3cc([N-]C(=O)c4ccsc4)ccc3o2)cc1 (chirality)
CC[N@@H+](C)Cc1ccc(-c2nc3cc([N-]C(=O)c4ccsc4)ccc3o2)cc1 (3D coordinates assigned)
CC[N@@H+](C)Cc1ccc(-c2nc3cc([N-]C(=O)c4ccsc4)ccc3o2)cc1 (optimized conformer: 120.87643842896944 kcal/mol)

>  <smiles>  (20) 
CCN(C)Cc1ccc(-c2nc3cc(NC(=O)c4ccsc4)ccc3o2)cc1

>  <score_type>  (20) 
oracle

>  <origin>  (20) 
adgpu

>  <m_score__min__energy>  (20) 
-9.2599999999999998

>  <m_primary>  (20) 
energy

$$$$
20:0
     RDKit          3D

 39 40  0  0  0  0  0  0  0  0999 V2000
  -10.5129   20.9644  -31.7996 H   0  0  0  0  0  0  0  0  0  0  0  0
   -9.4400   21.1510  -31.9550 C   0  0  0  0  0  0  0  0  0  0  0  0
   -8.8780   22.3700  -31.5600 C   0  0  0  0  0  0  0  0  0  0  0  0
   -9.5086   23.1362  -31.0854 H   0  0  0  0  0  0  0  0  0  0  0  0
   -7.5080   22.6190  -31.7680 C   0  0  0  0  0  0  0  0  0  0  0  0
   -6.9040   23.8210  -31.3710 O   0  0  0  0  0  0  0  0  0  0  0  0
   -5.7730   23.9290  -30.5460 C   0  0  0  0  0  0  0  0  0  0  0  0
   -5.6220   23.1660  -29.3800 C   0  0  0  0  0  0  0  0  0  0  0  0
   -6.3974   22.4406  -29.0927 H   0  0  0  0  0  0  0  0  0  0  0  0
   -4.4890   23.3270  -28.5850 C   0  0  0  0  0  0  0  0  0  0  0  0
   -4.3599   22.7160  -27.6794 H   0  0  0  0  0  0  0  0  0  0  0  0
   -3.5150   24.2680  -28.9410 C   0  0  0  0  0  0  0  0  0  0  0  0
   -2.4650   24.3880  -28.1760 N   0  0  0  0  0  0  0  0  0  0  0  0
   -1.3900   25.3350  -28.2660 C   0  0  0  0  0  0  0  0  0  0  0  0
   -1.2490   26.0490  -29.2940 O   0  0  0  0  0  0  0  0  0  0  0  0
   -0.5150   25.5540  -27.1530 N   0  0  0  0  0  0  0  0  0  0  0  0
   -0.8610   25.5320  -25.7270 C   0  0  0  0  0  0  0  0  0  0  0  0
   -0.0070   26.6010  -25.0260 C   0  0  0  0  0  0  0  0  0  0  0  0
   -0.0985   26.4865  -23.9358 H   0  0  0  0  0  0  0  0  0  0  0  0
    1.0460   26.4801  -25.3203 H   0  0  0  0  0  0  0  0  0  0  0  0
   -0.3575   27.6013  -25.3203 H   0  0  0  0  0  0  0  0  0  0  0  0
   -0.5360   24.1550  -25.1170 C   0  0  0  0  0  0  0  0  0  0  0  0
   -0.5530   24.2269  -24.0195 H   0  0  0  0  0  0  0  0  0  0  0  0
   -1.2856   23.4212  -25.4480 H   0  0  0  0  0  0  0  0  0  0  0  0
    0.4626   23.8338  -25.4480 H   0  0  0  0  0  0  0  0  0  0  0  0
   -2.3500   25.8750  -25.5290 C   0  0  0  0  0  0  0  0  0  0  0  0
   -2.5745   25.9267  -24.4534 H   0  0  0  0  0  0  0  0  0  0  0  0
   -2.5677   26.8468  -25.9961 H   0  0  0  0  0  0  0  0  0  0  0  0
   -2.9709   25.0964  -25.9961 H   0  0  0  0  0  0  0  0  0  0  0  0
   -3.6800   25.0030  -30.0860 N   0  0  0  0  0  0  0  0  0  0  0  0
   -2.9530   25.6690  -30.4210 H   0  0  0  0  0  0  0  0  0  0  0  0
   -4.7820   24.8580  -30.8730 C   0  0  0  0  0  0  0  0  0  0  0  0
   -4.8929   25.4782  -31.7747 H   0  0  0  0  0  0  0  0  0  0  0  0
   -6.7100   21.6220  -32.3430 C   0  0  0  0  0  0  0  0  0  0  0  0
   -5.6335   21.7975  -32.4854 H   0  0  0  0  0  0  0  0  0  0  0  0
   -7.2740   20.4050  -32.7370 C   0  0  0  0  0  0  0  0  0  0  0  0
   -6.6426   19.6308  -33.1974 H   0  0  0  0  0  0  0  0  0  0  0  0
   -8.6390   20.1700  -32.5470 C   0  0  0  0  0  0  0  0  0  0  0  0
   -9.1840   18.9880  -32.9280 F   0  0  0  0  0  0  0  0  0  0  0  0
  1  2  1  0
  2  3  2  0
  3  4  1  0
  3  5  1  0
  5  6  1  0
  6  7  1  0
  7  8  1  0
  8  9  1  0
  8 10  2  0
 10 11  1  0
 10 12  1  0
 12 13  2  0
 13 14  1  0
 14 15  2  0
 14 16  1  0
 16 17  1  0
 17 18  1  0
 18 19  1  0
 18 20  1  0
 18 21  1  0
 17 22  1  0
 22 23  1  0
 22 24  1  0
 22 25  1  0
 17 26  1  0
 26 27  1  0
 26 28  1  0
 26 29  1  0
 12 30  1  0
 30 31  1  0
 30 32  1  0
 32 33  1  0
  5 34  2  0
 34 35  1  0
 34 36  1  0
 36 37  1  0
 36 38  2  0
 38 39  1  0
 38  2  1  0
 32  7  2  0
M  CHG  1  16  -1
M  END
>  <UniqueID>  (21) 
20

>  <SMILES>  (21) 
CC(C)(C)[N-]C(=O)/N=c1/ccc(Oc2ccc(F)cc2)c[nH]1

>  <Energy>  (21) 
47.318198101653806

>  <Genealogy>  (21) 
CC(C)(C)[N-]C(=O)N=c1ccc(Oc2ccc(F)cc2)c[nH]1 (protonated)
CC(C)(C)[N-]C(=O)/N=c1/ccc(Oc2ccc(F)cc2)c[nH]1 (cis-trans isomerization)
CC(C)(C)[N-]C(=O)/N=c1/ccc(Oc2ccc(F)cc2)c[nH]1 (3D coordinates assigned)
CC(C)(C)[N-]C(=O)/N=c1/ccc(Oc2ccc(F)cc2)c[nH]1 (optimized conformer: 47.318198101653806 kcal/mol)

>  <smiles>  (21) 
CC(C)(C)NC(=O)N=c1ccc(Oc2ccc(F)cc2)c[nH]1

>  <score_type>  (21) 
oracle

>  <origin>  (21) 
adgpu

>  <m_score__min__energy>  (21) 
-8.9499999999999993

>  <m_primary>  (21) 
energy

$$$$
21:0
     RDKit          3D

 41 43  0  0  0  0  0  0  0  0999 V2000
   -0.8010   26.8700  -27.6690 C   0  0  0  0  0  0  0  0  0  0  0  0
   -1.3980   25.5650  -28.0760 C   0  0  0  0  0  0  0  0  0  0  0  0
   -1.5750   24.4700  -27.2530 C   0  0  0  0  0  0  0  0  0  0  0  0
   -2.1530   23.4990  -28.0430 C   0  0  0  0  0  0  0  0  0  0  0  0
   -2.2910   24.0670  -29.2940 C   0  0  0  0  0  0  0  0  0  0  0  0
   -2.8490   23.3870  -30.5050 C   0  0  0  0  0  0  0  0  0  0  0  0
   -4.3050   23.6070  -30.5960 N   0  0  0  0  0  0  0  0  0  0  0  0
   -5.0050   22.9340  -29.4890 C   0  0  0  0  0  0  0  0  0  0  0  0
   -6.5310   22.9800  -29.7150 C   0  0  0  0  0  0  0  0  0  0  0  0
   -6.9680   24.1210  -30.5580 N   0  0  0  0  0  0  0  0  0  0  0  0
   -7.0750   23.7560  -31.9900 C   0  0  0  0  0  0  0  0  0  0  0  0
   -7.6180   22.3600  -32.1530 C   0  0  0  0  0  0  0  0  0  0  0  0
   -8.9540   22.0810  -31.8310 C   0  0  0  0  0  0  0  0  0  0  0  0
   -9.4490   20.7860  -32.0060 C   0  0  0  0  0  0  0  0  0  0  0  0
   -8.6380   19.8060  -32.4880 N   0  0  0  0  0  0  0  0  0  0  0  0
   -7.3410   20.0500  -32.8110 C   0  0  0  0  0  0  0  0  0  0  0  0
   -6.8060   21.3310  -32.6510 C   0  0  0  0  0  0  0  0  0  0  0  0
   -6.1280   25.3140  -30.3230 C   0  0  0  0  0  0  0  0  0  0  0  0
   -4.6330   25.0510  -30.6120 C   0  0  0  0  0  0  0  0  0  0  0  0
   -1.8320   25.2980  -29.2860 O   0  0  0  0  0  0  0  0  0  0  0  0
   -0.7720   26.9335  -26.5712 H   0  0  0  0  0  0  0  0  0  0  0  0
    0.2213   26.9458  -28.0678 H   0  0  0  0  0  0  0  0  0  0  0  0
   -1.4121   27.6931  -28.0678 H   0  0  0  0  0  0  0  0  0  0  0  0
   -1.3099   24.3894  -26.1885 H   0  0  0  0  0  0  0  0  0  0  0  0
   -2.4439   22.4825  -27.7396 H   0  0  0  0  0  0  0  0  0  0  0  0
   -2.3644   23.7944  -31.4045 H   0  0  0  0  0  0  0  0  0  0  0  0
   -2.6565   22.3068  -30.4270 H   0  0  0  0  0  0  0  0  0  0  0  0
   -4.6772   21.8853  -29.4363 H   0  0  0  0  0  0  0  0  0  0  0  0
   -4.7665   23.4505  -28.5476 H   0  0  0  0  0  0  0  0  0  0  0  0
   -6.8390   22.0453  -30.2064 H   0  0  0  0  0  0  0  0  0  0  0  0
   -7.0017   23.1059  -28.7288 H   0  0  0  0  0  0  0  0  0  0  0  0
   -7.7494   24.4651  -32.4924 H   0  0  0  0  0  0  0  0  0  0  0  0
   -6.0709   23.7956  -32.4374 H   0  0  0  0  0  0  0  0  0  0  0  0
   -9.6079   22.8761  -31.4433 H   0  0  0  0  0  0  0  0  0  0  0  0
  -10.4953   20.5589  -31.7538 H   0  0  0  0  0  0  0  0  0  0  0  0
   -6.7103   19.2369  -33.1996 H   0  0  0  0  0  0  0  0  0  0  0  0
   -5.7566   21.5305  -32.9135 H   0  0  0  0  0  0  0  0  0  0  0  0
   -6.4766   26.1256  -30.9785 H   0  0  0  0  0  0  0  0  0  0  0  0
   -6.2207   25.5842  -29.2607 H   0  0  0  0  0  0  0  0  0  0  0  0
   -4.3869   25.4591  -31.6034 H   0  0  0  0  0  0  0  0  0  0  0  0
   -4.0454   25.5392  -29.8205 H   0  0  0  0  0  0  0  0  0  0  0  0
  1  2  1  0
  2  3  2  0
  3  4  1  0
  4  5  2  0
  5  6  1  0
  6  7  1  0
  7  8  1  0
  8  9  1  0
  9 10  1  0
 10 11  1  0
 11 12  1  0
 12 13  2  0
 13 14  1  0
 14 15  2  0
 15 16  1  0
 16 17  2  0
 10 18  1  0
 18 19  1  0
  5 20  1  0
 20  2  1  0
 19  7  1  0
 17 12  1  0
  1 21  1  0
  1 22  1  0
  1 23  1  0
  3 24  1  0
  4 25  1  0
  6 26  1  0
  6 27  1  0
  8 28  1  0
  8 29  1  0
  9 30  1  0
  9 31  1  0
 11 32  1  0
 11 33  1  0
 13 34  1  0
 14 35  1  0
 16 36  1  0
 17 37  1  0
 18 38  1  0
 18 39  1  0
 19 40  1  0
 19 41  1  0
M  END
>  <UniqueID>  (22) 
21

>  <SMILES>  (22) 
Cc1ccc(CN2CCN(Cc3ccncc3)CC2)o1

>  <Energy>  (22) 
77.8444891375178

>  <Genealogy>  (22) 
Cc1ccc(CN2CCN(Cc3ccncc3)CC2)o1 (3D coordinates assigned)
Cc1ccc(CN2CCN(Cc3ccncc3)CC2)o1 (nonaromatic ring conformer: 77.8444891375178 kcal/mol)

>  <smiles>  (22) 
Cc1ccc(CN2CCN(Cc3ccncc3)CC2)o1

>  <score_type>  (22) 
oracle

>  <origin>  (22) 
adgpu

>  <m_score__min__energy>  (22) 
-7.7199999999999998

>  <m_primary>  (22) 
energy

$$$$
22:0
     RDKit          3D

 40 43  0  0  0  0  0  0  0  0999 V2000
   -4.4370   25.7080  -30.8410 O   0  0  0  0  0  0  0  0  0  0  0  0
   -3.8450   24.6830  -30.4150 C   0  0  0  0  0  0  0  0  0  0  0  0
   -2.7860   24.8390  -29.4570 N   0  0  0  0  0  0  0  0  0  0  0  0
   -1.5260   24.0940  -29.4360 C   0  0  0  0  0  0  0  0  0  0  0  0
   -1.6700   22.8070  -28.6790 C   0  0  0  0  0  0  0  0  0  0  0  0
   -0.6940   21.8130  -28.5970 C   0  0  0  0  0  0  0  0  0  0  0  0
   -1.1550   20.6690  -27.9400 C   0  0  0  0  0  0  0  0  0  0  0  0
   -0.4370   19.4870  -27.7430 C   0  0  0  0  0  0  0  0  0  0  0  0
   -1.0650   18.4160  -27.0860 C   0  0  0  0  0  0  0  0  0  0  0  0
   -2.3950   18.5360  -26.6350 C   0  0  0  0  0  0  0  0  0  0  0  0
   -3.1080   19.7270  -26.8410 C   0  0  0  0  0  0  0  0  0  0  0  0
   -2.4650   20.7750  -27.4960 C   0  0  0  0  0  0  0  0  0  0  0  0
   -3.0850   22.2790  -27.9150 S   0  0  0  0  0  0  0  0  0  0  0  0
   -4.3060   23.3550  -30.8510 C   0  0  0  0  0  0  0  0  0  0  0  0
   -5.6310   22.9530  -30.6420 C   0  0  0  0  0  0  0  0  0  0  0  0
   -6.0920   21.7430  -31.1700 C   0  0  0  0  0  0  0  0  0  0  0  0
   -5.2300   20.9140  -31.9120 C   0  0  0  0  0  0  0  0  0  0  0  0
   -5.7330   19.6630  -32.5320 C   0  0  0  0  0  0  0  0  0  0  0  0
   -6.7580   18.9240  -31.9170 C   0  0  0  0  0  0  0  0  0  0  0  0
   -7.2320   17.7590  -32.5240 C   0  0  0  0  0  0  0  0  0  0  0  0
   -6.7020   17.3410  -33.7040 N   0  0  0  0  0  0  0  0  0  0  0  0
   -5.7100   18.0330  -34.3230 C   0  0  0  0  0  0  0  0  0  0  0  0
   -5.2090   19.2050  -33.7520 C   0  0  0  0  0  0  0  0  0  0  0  0
   -3.8880   21.3040  -32.0810 C   0  0  0  0  0  0  0  0  0  0  0  0
   -3.4300   22.5110  -31.5480 C   0  0  0  0  0  0  0  0  0  0  0  0
   -1.2240   23.8704  -30.4698 H   0  0  0  0  0  0  0  0  0  0  0  0
   -0.7651   24.7101  -28.9345 H   0  0  0  0  0  0  0  0  0  0  0  0
    0.3228   21.9180  -29.0034 H   0  0  0  0  0  0  0  0  0  0  0  0
    0.6009   19.3966  -28.0958 H   0  0  0  0  0  0  0  0  0  0  0  0
   -0.5152   17.4774  -26.9224 H   0  0  0  0  0  0  0  0  0  0  0  0
   -2.8763   17.6921  -26.1191 H   0  0  0  0  0  0  0  0  0  0  0  0
   -4.1469   19.8303  -26.4945 H   0  0  0  0  0  0  0  0  0  0  0  0
   -6.3119   23.5916  -30.0602 H   0  0  0  0  0  0  0  0  0  0  0  0
   -7.1355   21.4370  -31.0043 H   0  0  0  0  0  0  0  0  0  0  0  0
   -7.1852   19.2618  -30.9613 H   0  0  0  0  0  0  0  0  0  0  0  0
   -8.0354   17.1788  -32.0466 H   0  0  0  0  0  0  0  0  0  0  0  0
   -5.3002   17.6691  -35.2768 H   0  0  0  0  0  0  0  0  0  0  0  0
   -4.4081   19.7665  -34.2552 H   0  0  0  0  0  0  0  0  0  0  0  0
   -3.1957   20.6541  -32.6363 H   0  0  0  0  0  0  0  0  0  0  0  0
   -2.3766   22.8009  -31.6757 H   0  0  0  0  0  0  0  0  0  0  0  0
  1  2  2  0
  2  3  1  0
  3  4  1  0
  4  5  1  0
  5  6  2  0
  6  7  1  0
  7  8  2  0
  8  9  1  0
  9 10  2  0
 10 11  1  0
 11 12  2  0
 12 13  1  0
  2 14  1  0
 14 15  2  0
 15 16  1  0
 16 17  2  0
 17 18  1  0
 18 19  2  0
 19 20  1  0
 20 21  2  0
 21 22  1  0
 22 23  2  0
 17 24  1  0
 24 25  2  0
 13  5  1  0
 25 14  1  0
 12  7  1  0
 23 18  1  0
  4 26  1  0
  4 27  1  0
  6 28  1  0
  8 29  1  0
  9 30  1  0
 10 31  1  0
 11 32  1  0
 15 33  1  0
 16 34  1  0
 19 35  1  0
 20 36  1  0
 22 37  1  0
 23 38  1  0
 24 39  1  0
 25 40  1  0
M  CHG  1   3  -1
M  END
>  <UniqueID>  (23) 
22

>  <SMILES>  (23) 
O=C([N-]Cc1cc2ccccc2s1)c1ccc(-c2ccncc2)cc1

>  <Energy>  (23) 
81.51947399511428

>  <Genealogy>  (23) 
O=C([N-]Cc1cc2ccccc2s1)c1ccc(-c2ccncc2)cc1 (protonated)
O=C([N-]Cc1cc2ccccc2s1)c1ccc(-c2ccncc2)cc1 (3D coordinates assigned)
O=C([N-]Cc1cc2ccccc2s1)c1ccc(-c2ccncc2)cc1 (optimized conformer: 81.51947399511428 kcal/mol)

>  <smiles>  (23) 
O=C(NCc1cc2ccccc2s1)c1ccc(-c2ccncc2)cc1

>  <score_type>  (23) 
oracle

>  <origin>  (23) 
adgpu

>  <m_score__min__energy>  (23) 
-11.19

>  <m_primary>  (23) 
energy

$$$$
23:0
     RDKit          3D

 30 30  0  0  0  0  0  0  0  0999 V2000
   -2.3390   24.3110  -29.0420 C   0  0  0  0  0  0  0  0  0  0  0  0
   -3.1670   24.9260  -30.0250 O   0  0  0  0  0  0  0  0  0  0  0  0
   -4.4190   24.4350  -30.4230 C   0  0  0  0  0  0  0  0  0  0  0  0
   -4.4590   23.2780  -31.2100 C   0  0  0  0  0  0  0  0  0  0  0  0
   -5.6810   22.7510  -31.6370 C   0  0  0  0  0  0  0  0  0  0  0  0
   -6.8870   23.3830  -31.2900 C   0  0  0  0  0  0  0  0  0  0  0  0
   -8.2040   22.8200  -31.7600 C   0  0  0  0  0  0  0  0  0  0  0  0
   -8.5160   21.4440  -31.1550 C   0  0  0  0  0  0  0  0  0  0  0  0
   -8.4600   20.1160  -32.3540 S   0  0  0  0  0  0  0  0  0  0  0  0
   -6.9160   20.0470  -33.2370 C   0  0  0  0  0  0  0  0  0  0  0  0
   -8.8770   18.5350  -31.6540 C   0  0  0  0  0  0  0  0  0  0  0  0
   -6.8500   24.5340  -30.4870 C   0  0  0  0  0  0  0  0  0  0  0  0
   -5.6260   25.0600  -30.0590 C   0  0  0  0  0  0  0  0  0  0  0  0
   -2.7003   24.5794  -28.0383 H   0  0  0  0  0  0  0  0  0  0  0  0
   -2.3743   23.2184  -29.1644 H   0  0  0  0  0  0  0  0  0  0  0  0
   -1.3032   24.6604  -29.1644 H   0  0  0  0  0  0  0  0  0  0  0  0
   -3.5207   22.7794  -31.4947 H   0  0  0  0  0  0  0  0  0  0  0  0
   -5.6987   21.8365  -32.2480 H   0  0  0  0  0  0  0  0  0  0  0  0
   -9.0054   23.5180  -31.4761 H   0  0  0  0  0  0  0  0  0  0  0  0
   -8.1383   22.6936  -32.8507 H   0  0  0  0  0  0  0  0  0  0  0  0
   -7.7787   21.2338  -30.3662 H   0  0  0  0  0  0  0  0  0  0  0  0
   -9.5424   21.4855  -30.7616 H   0  0  0  0  0  0  0  0  0  0  0  0
   -6.0840   20.0098  -32.5184 H   0  0  0  0  0  0  0  0  0  0  0  0
   -6.8950   19.1470  -33.8691 H   0  0  0  0  0  0  0  0  0  0  0  0
   -6.8148   20.9415  -33.8691 H   0  0  0  0  0  0  0  0  0  0  0  0
   -8.8589   18.6037  -30.5563 H   0  0  0  0  0  0  0  0  0  0  0  0
   -9.8835   18.2408  -31.9864 H   0  0  0  0  0  0  0  0  0  0  0  0
   -8.1466   17.7827  -31.9864 H   0  0  0  0  0  0  0  0  0  0  0  0
   -7.7890   25.0254  -30.1925 H   0  0  0  0  0  0  0  0  0  0  0  0
   -5.6073   25.9659  -29.4353 H   0  0  0  0  0  0  0  0  0  0  0  0
  1  2  1  0
  2  3  1  0
  3  4  2  0
  4  5  1  0
  5  6  2  0
  6  7  1  0
  7  8  1  0
  8  9  1  0
  9 10  1  0
  9 11  1  0
  6 12  1  0
 12 13  2  0
 13  3  1  0
  1 14  1  0
  1 15  1  0
  1 16  1  0
  4 17  1  0
  5 18  1  0
  7 19  1  0
  7 20  1  0
  8 21  1  0
  8 22  1  0
 10 23  1  0
 10 24  1  0
 10 25  1  0
 11 26  1  0
 11 27  1  0
 11 28  1  0
 12 29  1  0
 13 30  1  0
M  CHG  1   9   1
M  END
>  <UniqueID>  (24) 
23

>  <SMILES>  (24) 
COc1ccc(CC[S+](C)C)cc1

>  <Energy>  (24) 
15.10446757481479

>  <Genealogy>  (24) 
COc1ccc(CC[S+](C)C)cc1 (3D coordinates assigned)
COc1ccc(CC[S+](C)C)cc1 (optimized conformer: 15.10446757481479 kcal/mol)

>  <smiles>  (24) 
COc1ccc(CC[S+](C)C)cc1

>  <score_type>  (24) 
oracle

>  <origin>  (24) 
adgpu

>  <m_score__min__energy>  (24) 
-5.79

>  <m_primary>  (24) 
energy

$$$$
24:0
     RDKit          3D

 48 50  0  0  0  0  0  0  0  0999 V2000
   -8.2100   23.2500  -31.7880 O   0  0  0  0  0  0  0  0  0  0  0  0
   -7.4330   22.4540  -30.7760 S   0  0  0  0  0  0  0  0  0  0  0  0
   -8.2770   22.3040  -29.5410 O   0  0  0  0  0  0  0  0  0  0  0  0
   -5.9610   23.3170  -30.3330 C   0  0  0  0  0  0  0  0  0  0  0  0
   -5.0220   22.7020  -29.4960 C   0  0  0  0  0  0  0  0  0  0  0  0
   -3.8410   23.3670  -29.1530 C   0  0  0  0  0  0  0  0  0  0  0  0
   -3.5830   24.6520  -29.6440 C   0  0  0  0  0  0  0  0  0  0  0  0
   -2.3810   25.2760  -29.2750 O   0  0  0  0  0  0  0  0  0  0  0  0
   -1.3000   24.6210  -28.6200 C   0  0  0  0  0  0  0  0  0  0  0  0
   -1.1580   25.1730  -27.2320 C   0  0  0  0  0  0  0  0  0  0  0  0
   -0.9740   24.3080  -26.1400 C   0  0  0  0  0  0  0  0  0  0  0  0
   -0.8040   24.8260  -24.8520 C   0  0  0  0  0  0  0  0  0  0  0  0
   -0.8020   26.2080  -24.6480 C   0  0  0  0  0  0  0  0  0  0  0  0
   -0.9670   27.0760  -25.7320 C   0  0  0  0  0  0  0  0  0  0  0  0
   -1.1390   26.5610  -27.0210 C   0  0  0  0  0  0  0  0  0  0  0  0
   -4.5270   25.2710  -30.4860 C   0  0  0  0  0  0  0  0  0  0  0  0
   -5.7070   24.6040  -30.8280 C   0  0  0  0  0  0  0  0  0  0  0  0
   -7.0380   20.8760  -31.4240 N   0  0  0  0  0  0  0  0  0  0  0  0
   -8.2050   19.9810  -31.2640 C   0  0  0  0  0  0  0  0  0  0  0  0
   -8.5560   19.1930  -32.5430 C   0  0  0  0  0  0  0  0  0  0  0  0
   -7.5870   18.0520  -32.9210 C   0  0  0  0  0  0  0  0  0  0  0  0
   -6.0960   18.3920  -32.7590 C   0  0  0  0  0  0  0  0  0  0  0  0
   -5.6700   19.7830  -33.2950 C   0  0  0  0  0  0  0  0  0  0  0  0
   -6.5070   20.9890  -32.8080 C   0  0  0  0  0  0  0  0  0  0  0  0
   -5.2143   21.6913  -29.1067 H   0  0  0  0  0  0  0  0  0  0  0  0
   -3.1099   22.8772  -28.4930 H   0  0  0  0  0  0  0  0  0  0  0  0
   -1.5014   23.5409  -28.5677 H   0  0  0  0  0  0  0  0  0  0  0  0
   -0.3698   24.7899  -29.1823 H   0  0  0  0  0  0  0  0  0  0  0  0
   -0.9636   23.2196  -26.2987 H   0  0  0  0  0  0  0  0  0  0  0  0
   -0.6717   24.1445  -23.9987 H   0  0  0  0  0  0  0  0  0  0  0  0
   -0.6706   26.6137  -23.6340 H   0  0  0  0  0  0  0  0  0  0  0  0
   -0.9615   28.1641  -25.5709 H   0  0  0  0  0  0  0  0  0  0  0  0
   -1.2599   27.2462  -27.8730 H   0  0  0  0  0  0  0  0  0  0  0  0
   -4.3354   26.2817  -30.8755 H   0  0  0  0  0  0  0  0  0  0  0  0
   -6.4395   25.0910  -31.4884 H   0  0  0  0  0  0  0  0  0  0  0  0
   -6.2680   20.5020  -30.8210 H   0  0  0  0  0  0  0  0  0  0  0  0
   -7.9848   19.2618  -30.4614 H   0  0  0  0  0  0  0  0  0  0  0  0
   -9.0708   20.6172  -31.0281 H   0  0  0  0  0  0  0  0  0  0  0  0
   -9.5552   18.7543  -32.4047 H   0  0  0  0  0  0  0  0  0  0  0  0
   -8.4943   19.9200  -33.3662 H   0  0  0  0  0  0  0  0  0  0  0  0
   -7.8120   17.1859  -32.2812 H   0  0  0  0  0  0  0  0  0  0  0  0
   -7.7448   17.8535  -33.9914 H   0  0  0  0  0  0  0  0  0  0  0  0
   -5.8533   18.3524  -31.6869 H   0  0  0  0  0  0  0  0  0  0  0  0
   -5.5489   17.6534  -33.3632 H   0  0  0  0  0  0  0  0  0  0  0  0
   -4.6267   19.9543  -32.9915 H   0  0  0  0  0  0  0  0  0  0  0  0
   -5.8240   19.7385  -34.3833 H   0  0  0  0  0  0  0  0  0  0  0  0
   -5.8713   21.8855  -32.8560 H   0  0  0  0  0  0  0  0  0  0  0  0
   -7.3856   21.0360  -33.4681 H   0  0  0  0  0  0  0  0  0  0  0  0
  1  2  2  0
  2  3  2  0
  2  4  1  0
  4  5  2  0
  5  6  1  0
  6  7  2  0
  7  8  1  0
  8  9  1  0
  9 10  1  0
 10 11  2  0
 11 12  1  0
 12 13  2  0
 13 14  1  0
 14 15  2  0
  7 16  1  0
 16 17  2  0
  2 18  1  0
 18 19  1  0
 19 20  1  0
 20 21  1  0
 21 22  1  0
 22 23  1  0
 23 24  1  0
 17  4  1  0
 24 18  1  0
 15 10  1  0
  5 25  1  0
  6 26  1  0
  9 27  1  0
  9 28  1  0
 11 29  1  0
 12 30  1  0
 13 31  1  0
 14 32  1  0
 15 33  1  0
 16 34  1  0
 17 35  1  0
 18 36  1  0
 19 37  1  0
 19 38  1  0
 20 39  1  0
 20 40  1  0
 21 41  1  0
 21 42  1  0
 22 43  1  0
 22 44  1  0
 23 45  1  0
 23 46  1  0
 24 47  1  0
 24 48  1  0
M  CHG  1  18   1
M  END
>  <UniqueID>  (25) 
24

>  <SMILES>  (25) 
O=S(=O)(c1ccc(OCc2ccccc2)cc1)[NH+]1CCCCCC1

>  <Energy>  (25) 
60.64689939811589

>  <Genealogy>  (25) 
O=S(=O)(c1ccc(OCc2ccccc2)cc1)[NH+]1CCCCCC1 (protonated)
O=S(=O)(c1ccc(OCc2ccccc2)cc1)[NH+]1CCCCCC1 (3D coordinates assigned)
O=S(=O)(c1ccc(OCc2ccccc2)cc1)[NH+]1CCCCCC1 (nonaromatic ring conformer: 60.64689939811589 kcal/mol)

>  <smiles>  (25) 
O=S(=O)(c1ccc(OCc2ccccc2)cc1)N1CCCCCC1

>  <score_type>  (25) 
oracle

>  <origin>  (25) 
adgpu

>  <m_score__min__energy>  (25) 
-6.8099999999999996

>  <m_primary>  (25) 
energy

$$$$
25:0
     RDKit          3D

 42 44  0  0  0  0  0  0  0  0999 V2000
   -3.6801   21.9205  -27.6670 H   0  0  0  0  0  0  0  0  0  0  0  0
   -3.2500   22.8440  -28.0820 C   0  0  0  0  0  0  0  0  0  0  0  0
   -2.0400   23.2290  -27.6460 C   0  0  0  0  0  0  0  0  0  0  0  0
   -1.3600   22.4130  -26.6750 C   0  0  0  0  0  0  0  0  0  0  0  0
   -0.8130   21.7570  -25.8950 N   0  0  0  0  0  0  0  0  0  0  0  0
   -1.2470   24.7130  -28.1890 S   0  0  0  0  0  0  0  0  0  0  0  0
   -2.0150   25.3000  -29.3410 O   0  0  0  0  0  0  0  0  0  0  0  0
    0.1430   24.3950  -28.6640 O   0  0  0  0  0  0  0  0  0  0  0  0
   -1.1250   25.8710  -26.8680 C   0  0  0  0  0  0  0  0  0  0  0  0
   -0.4920   27.1090  -27.0560 C   0  0  0  0  0  0  0  0  0  0  0  0
   -0.0972   27.3800  -28.0463 H   0  0  0  0  0  0  0  0  0  0  0  0
   -0.3630   27.9980  -25.9850 C   0  0  0  0  0  0  0  0  0  0  0  0
    0.1358   28.9671  -26.1336 H   0  0  0  0  0  0  0  0  0  0  0  0
   -0.8660   27.6590  -24.7260 C   0  0  0  0  0  0  0  0  0  0  0  0
   -0.7522   28.3553  -23.8821 H   0  0  0  0  0  0  0  0  0  0  0  0
   -1.5140   26.4340  -24.5400 C   0  0  0  0  0  0  0  0  0  0  0  0
   -1.9240   26.1732  -23.5531 H   0  0  0  0  0  0  0  0  0  0  0  0
   -1.6410   25.5410  -25.6070 C   0  0  0  0  0  0  0  0  0  0  0  0
   -2.1474   24.5761  -25.4571 H   0  0  0  0  0  0  0  0  0  0  0  0
   -4.0360   23.5860  -29.0840 C   0  0  0  0  0  0  0  0  0  0  0  0
   -3.9020   23.4330  -30.5010 C   0  0  0  0  0  0  0  0  0  0  0  0
   -2.9880   22.4990  -31.1530 N   0  0  0  0  0  0  0  0  0  0  0  0
   -3.5390   21.7050  -32.2730 C   0  0  0  0  0  0  0  0  0  0  0  0
   -4.3092   21.0302  -31.8713 H   0  0  0  0  0  0  0  0  0  0  0  0
   -3.9405   22.4237  -33.0025 H   0  0  0  0  0  0  0  0  0  0  0  0
   -2.4970   20.8580  -33.0160 C   0  0  0  0  0  0  0  0  0  0  0  0
   -3.0019   19.9991  -33.4821 H   0  0  0  0  0  0  0  0  0  0  0  0
   -2.0173   21.4920  -33.7762 H   0  0  0  0  0  0  0  0  0  0  0  0
   -1.4980   20.3830  -32.1450 O   0  0  0  0  0  0  0  0  0  0  0  0
   -0.7600   21.4850  -31.6760 C   0  0  0  0  0  0  0  0  0  0  0  0
    0.1439   21.1244  -31.1633 H   0  0  0  0  0  0  0  0  0  0  0  0
   -0.4815   22.1186  -32.5310 H   0  0  0  0  0  0  0  0  0  0  0  0
   -1.5970   22.3080  -30.7010 C   0  0  0  0  0  0  0  0  0  0  0  0
   -1.6120   21.7918  -29.7298 H   0  0  0  0  0  0  0  0  0  0  0  0
   -1.1348   23.3037  -30.6303 H   0  0  0  0  0  0  0  0  0  0  0  0
   -4.7120   24.1900  -31.3000 N   0  0  0  0  0  0  0  0  0  0  0  0
   -5.6130   25.0840  -30.8240 C   0  0  0  0  0  0  0  0  0  0  0  0
   -6.2388   25.6598  -31.5218 H   0  0  0  0  0  0  0  0  0  0  0  0
   -5.7450   25.2720  -29.4550 C   0  0  0  0  0  0  0  0  0  0  0  0
   -6.4690   26.0000  -29.0603 H   0  0  0  0  0  0  0  0  0  0  0  0
   -4.9510   24.5290  -28.5890 C   0  0  0  0  0  0  0  0  0  0  0  0
   -5.0406   24.6816  -27.5033 H   0  0  0  0  0  0  0  0  0  0  0  0
  1  2  1  0
  2  3  2  0
  3  4  1  0
  4  5  3  0
  3  6  1  0
  6  7  2  0
  6  8  2  0
  6  9  1  0
  9 10  2  0
 10 11  1  0
 10 12  1  0
 12 13  1  0
 12 14  2  0
 14 15  1  0
 14 16  1  0
 16 17  1  0
 16 18  2  0
 18 19  1  0
  2 20  1  0
 20 21  1  0
 21 22  1  0
 22 23  1  0
 23 24  1  0
 23 25  1  0
 23 26  1  0
 26 27  1  0
 26 28  1  0
 26 29  1  0
 29 30  1  0
 30 31  1  0
 30 32  1  0
 30 33  1  0
 33 34  1  0
 33 35  1  0
 21 36  2  0
 36 37  1  0
 37 38  1  0
 37 39  2  0
 39 40  1  0
 39 41  1  0
 41 42  1  0
 18  9  1  0
 41 20  2  0
 33 22  1  0
M  END
>  <UniqueID>  (26) 
25

>  <SMILES>  (26) 
N#C/C(=C/c1cccnc1N1CCOCC1)S(=O)(=O)c1ccccc1

>  <Energy>  (26) 
59.45251793396467

>  <Genealogy>  (26) 
N#C/C(=C/c1cccnc1N1CCOCC1)S(=O)(=O)c1ccccc1 (cis-trans isomerization)
N#C/C(=C/c1cccnc1N1CCOCC1)S(=O)(=O)c1ccccc1 (3D coordinates assigned)
N#C/C(=C/c1cccnc1N1CCOCC1)S(=O)(=O)c1ccccc1 (nonaromatic ring conformer: 59.45251793396467 kcal/mol)

>  <smiles>  (26) 
N#CC(=Cc1cccnc1N1CCOCC1)S(=O)(=O)c1ccccc1

>  <score_type>  (26) 
oracle

>  <origin>  (26) 
adgpu

>  <m_score__min__energy>  (26) 
-8.5399999999999991

>  <m_primary>  (26) 
energy

$$$$
26:0
     RDKit          3D

 29 30  0  0  0  0  0  0  0  0999 V2000
    1.3030   25.0490  -26.6970 C   0  0  0  0  0  0  0  0  0  0  0  0
    0.6710   24.6340  -27.9030 O   0  0  0  0  0  0  0  0  0  0  0  0
   -0.7050   24.3980  -28.0370 C   0  0  0  0  0  0  0  0  0  0  0  0
   -1.3740   23.7580  -26.9890 C   0  0  0  0  0  0  0  0  0  0  0  0
   -2.7420   23.4900  -27.0810 C   0  0  0  0  0  0  0  0  0  0  0  0
   -3.4570   23.8710  -28.2190 C   0  0  0  0  0  0  0  0  0  0  0  0
   -2.8060   24.5390  -29.2720 C   0  0  0  0  0  0  0  0  0  0  0  0
   -3.4970   24.9260  -30.4680 N   0  0  0  0  0  0  0  0  0  0  0  0
   -4.9170   25.0250  -30.6420 C   0  0  0  0  0  0  0  0  0  0  0  0
   -5.4780   26.1540  -30.6060 O   0  0  0  0  0  0  0  0  0  0  0  0
   -5.7200   23.8220  -30.9650 C   0  0  0  0  0  0  0  0  0  0  0  0
   -7.1080   23.8490  -30.7290 C   0  0  0  0  0  0  0  0  0  0  0  0
   -7.9070   22.7460  -31.0360 C   0  0  0  0  0  0  0  0  0  0  0  0
   -7.3340   21.5950  -31.5770 C   0  0  0  0  0  0  0  0  0  0  0  0
   -8.3410   20.2100  -31.9600 Cl  0  0  0  0  0  0  0  0  0  0  0  0
   -5.9570   21.5430  -31.8040 C   0  0  0  0  0  0  0  0  0  0  0  0
   -5.1430   22.6420  -31.5000 C   0  0  0  0  0  0  0  0  0  0  0  0
   -3.4080   22.4540  -31.7410 Cl  0  0  0  0  0  0  0  0  0  0  0  0
   -1.4290   24.7810  -29.1840 C   0  0  0  0  0  0  0  0  0  0  0  0
    0.7313   24.6736  -25.8355 H   0  0  0  0  0  0  0  0  0  0  0  0
    2.3260   24.6463  -26.6618 H   0  0  0  0  0  0  0  0  0  0  0  0
    1.3401   26.1478  -26.6618 H   0  0  0  0  0  0  0  0  0  0  0  0
   -0.8193   23.4635  -26.0859 H   0  0  0  0  0  0  0  0  0  0  0  0
   -3.2574   22.9777  -26.2552 H   0  0  0  0  0  0  0  0  0  0  0  0
   -4.5317   23.6481  -28.2919 H   0  0  0  0  0  0  0  0  0  0  0  0
   -7.5683   24.7501  -30.2975 H   0  0  0  0  0  0  0  0  0  0  0  0
   -8.9906   22.7847  -30.8509 H   0  0  0  0  0  0  0  0  0  0  0  0
   -5.5077   20.6315  -32.2250 H   0  0  0  0  0  0  0  0  0  0  0  0
   -0.9080   25.2745  -30.0177 H   0  0  0  0  0  0  0  0  0  0  0  0
  1  2  1  0
  2  3  1  0
  3  4  2  0
  4  5  1  0
  5  6  2  0
  6  7  1  0
  7  8  1  0
  8  9  1  0
  9 10  2  0
  9 11  1  0
 11 12  2  0
 12 13  1  0
 13 14  2  0
 14 15  1  0
 14 16  1  0
 16 17  2  0
 17 18  1  0
  7 19  2  0
 19  3  1  0
 17 11  1  0
  1 20  1  0
  1 21  1  0
  1 22  1  0
  4 23  1  0
  5 24  1  0
  6 25  1  0
 12 26  1  0
 13 27  1  0
 16 28  1  0
 19 29  1  0
M  CHG  1   8  -1
M  END
>  <UniqueID>  (27) 
26

>  <SMILES>  (27) 
COc1cccc([N-]C(=O)c2ccc(Cl)cc2Cl)c1

>  <Energy>  (27) 
37.369368874082774

>  <Genealogy>  (27) 
COc1cccc([N-]C(=O)c2ccc(Cl)cc2Cl)c1 (protonated)
COc1cccc([N-]C(=O)c2ccc(Cl)cc2Cl)c1 (3D coordinates assigned)
COc1cccc([N-]C(=O)c2ccc(Cl)cc2Cl)c1 (optimized conformer: 37.369368874082774 kcal/mol)

>  <smiles>  (27) 
COc1cccc(NC(=O)c2ccc(Cl)cc2Cl)c1

>  <score_type>  (27) 
oracle

>  <origin>  (27) 
adgpu

>  <m_score__min__energy>  (27) 
-9.0700000000000003

>  <m_primary>  (27) 
energy

$$$$
27:0
     RDKit          3D

 20 21  0  0  0  0  0  0  0  0999 V2000
   -3.8810   26.4330  -30.4020 H   0  0  0  0  0  0  0  0  0  0  0  0
   -3.8620   25.4790  -30.8270 N   0  0  0  0  0  0  0  0  0  0  0  0
   -4.8920   24.7000  -30.7700 C   0  0  0  0  0  0  0  0  0  0  0  0
   -6.3490   25.0910  -30.0340 S   0  0  0  0  0  0  0  0  0  0  0  0
   -7.0460   23.6020  -30.4060 C   0  0  0  0  0  0  0  0  0  0  0  0
   -8.0662   23.2862  -30.1423 H   0  0  0  0  0  0  0  0  0  0  0  0
   -6.1080   22.8350  -31.1070 C   0  0  0  0  0  0  0  0  0  0  0  0
   -6.3810   21.4620  -31.6010 C   0  0  0  0  0  0  0  0  0  0  0  0
   -7.6780   20.9220  -31.5270 C   0  0  0  0  0  0  0  0  0  0  0  0
   -8.4950   21.5216  -31.0992 H   0  0  0  0  0  0  0  0  0  0  0  0
   -7.9370   19.6290  -31.9930 C   0  0  0  0  0  0  0  0  0  0  0  0
   -8.9545   19.2160  -31.9296 H   0  0  0  0  0  0  0  0  0  0  0  0
   -6.9050   18.8610  -32.5390 C   0  0  0  0  0  0  0  0  0  0  0  0
   -7.2320   17.2390  -33.1230 Cl  0  0  0  0  0  0  0  0  0  0  0  0
   -5.6120   19.3870  -32.6180 C   0  0  0  0  0  0  0  0  0  0  0  0
   -4.7992   18.7832  -33.0479 H   0  0  0  0  0  0  0  0  0  0  0  0
   -5.3500   20.6780  -32.1520 C   0  0  0  0  0  0  0  0  0  0  0  0
   -4.3300   21.0848  -32.2163 H   0  0  0  0  0  0  0  0  0  0  0  0
   -4.9110   23.4600  -31.3030 N   0  0  0  0  0  0  0  0  0  0  0  0
   -4.0880   23.0320  -31.7830 H   0  0  0  0  0  0  0  0  0  0  0  0
  1  2  1  0
  2  3  2  0
  3  4  1  0
  4  5  1  0
  5  6  1  0
  5  7  2  0
  7  8  1  0
  8  9  2  0
  9 10  1  0
  9 11  1  0
 11 12  1  0
 11 13  2  0
 13 14  1  0
 13 15  1  0
 15 16  1  0
 15 17  2  0
 17 18  1  0
  7 19  1  0
 19 20  1  0
 19  3  1  0
 17  8  1  0
M  END
>  <UniqueID>  (28) 
27

>  <SMILES>  (28) 
[H]/N=c1/[nH]c(-c2ccc(Cl)cc2)cs1

>  <Energy>  (28) 
53.706812985857724

>  <Genealogy>  (28) 
[H]/N=c1/[nH]c(-c2ccc(Cl)cc2)cs1 (cis-trans isomerization)
[H]/N=c1/[nH]c(-c2ccc(Cl)cc2)cs1 (3D coordinates assigned)
[H]/N=c1/[nH]c(-c2ccc(Cl)cc2)cs1 (optimized conformer: 53.706812985857724 kcal/mol)

>  <smiles>  (28) 
N=c1[nH]c(-c2ccc(Cl)cc2)cs1

>  <score_type>  (28) 
oracle

>  <origin>  (28) 
adgpu

>  <m_score__min__energy>  (28) 
-6.5599999999999996

>  <m_primary>  (28) 
energy

$$$$
28:0
     RDKit          3D

 33 34  0  0  0  0  0  0  0  0999 V2000
   -2.7150   23.3370  -28.6560 C   0  0  0  0  0  0  0  0  0  0  0  0
   -4.2070   23.2320  -28.3610 C   0  0  0  0  0  0  0  0  0  0  0  0
   -4.8350   24.5480  -28.4910 N   0  0  0  0  0  0  0  0  0  0  0  0
   -5.2960   24.8180  -30.1440 S   0  0  0  0  0  0  0  0  0  0  0  0
   -4.2340   25.6240  -30.8410 O   0  0  0  0  0  0  0  0  0  0  0  0
   -6.5810   25.5980  -30.1780 O   0  0  0  0  0  0  0  0  0  0  0  0
   -5.5330   23.2830  -30.9760 C   0  0  0  0  0  0  0  0  0  0  0  0
   -6.7720   22.6350  -30.9030 C   0  0  0  0  0  0  0  0  0  0  0  0
   -6.9640   21.4070  -31.5430 C   0  0  0  0  0  0  0  0  0  0  0  0
   -5.9150   20.8050  -32.2620 C   0  0  0  0  0  0  0  0  0  0  0  0
   -6.1170   19.5000  -32.9410 C   0  0  0  0  0  0  0  0  0  0  0  0
   -5.5180   19.2420  -34.1890 C   0  0  0  0  0  0  0  0  0  0  0  0
   -5.7110   18.0130  -34.8270 C   0  0  0  0  0  0  0  0  0  0  0  0
   -6.5010   17.0290  -34.2290 C   0  0  0  0  0  0  0  0  0  0  0  0
   -7.1000   17.2720  -32.9910 C   0  0  0  0  0  0  0  0  0  0  0  0
   -6.9110   18.4990  -32.3490 C   0  0  0  0  0  0  0  0  0  0  0  0
   -4.6720   21.4600  -32.3260 C   0  0  0  0  0  0  0  0  0  0  0  0
   -4.4820   22.6870  -31.6850 C   0  0  0  0  0  0  0  0  0  0  0  0
   -2.1560   23.3763  -27.7095 H   0  0  0  0  0  0  0  0  0  0  0  0
   -2.3932   22.4593  -29.2357 H   0  0  0  0  0  0  0  0  0  0  0  0
   -2.5193   24.2511  -29.2357 H   0  0  0  0  0  0  0  0  0  0  0  0
   -4.6714   22.5344  -29.0735 H   0  0  0  0  0  0  0  0  0  0  0  0
   -4.3478   22.8636  -27.3341 H   0  0  0  0  0  0  0  0  0  0  0  0
   -5.7170   24.5460  -27.9290 H   0  0  0  0  0  0  0  0  0  0  0  0
   -7.5978   23.0941  -30.3397 H   0  0  0  0  0  0  0  0  0  0  0  0
   -7.9424   20.9077  -31.4840 H   0  0  0  0  0  0  0  0  0  0  0  0
   -4.8940   20.0126  -34.6652 H   0  0  0  0  0  0  0  0  0  0  0  0
   -5.2395   17.8208  -35.8021 H   0  0  0  0  0  0  0  0  0  0  0  0
   -6.6515   16.0628  -34.7328 H   0  0  0  0  0  0  0  0  0  0  0  0
   -7.7217   16.4962  -32.5203 H   0  0  0  0  0  0  0  0  0  0  0  0
   -7.3859   18.6841  -31.3742 H   0  0  0  0  0  0  0  0  0  0  0  0
   -3.8426   21.0026  -32.8853 H   0  0  0  0  0  0  0  0  0  0  0  0
   -3.5035   23.1868  -31.7373 H   0  0  0  0  0  0  0  0  0  0  0  0
  1  2  1  0
  2  3  1  0
  3  4  1  0
  4  5  2  0
  4  6  2  0
  4  7  1  0
  7  8  2  0
  8  9  1  0
  9 10  2  0
 10 11  1  0
 11 12  2  0
 12 13  1  0
 13 14  2  0
 14 15  1  0
 15 16  2  0
 10 17  1  0
 17 18  2  0
 18  7  1  0
 16 11  1  0
  1 19  1  0
  1 20  1  0
  1 21  1  0
  2 22  1  0
  2 23  1  0
  3 24  1  0
  8 25  1  0
  9 26  1  0
 12 27  1  0
 13 28  1  0
 14 29  1  0
 15 30  1  0
 16 31  1  0
 17 32  1  0
 18 33  1  0
M  END
>  <UniqueID>  (29) 
28

>  <SMILES>  (29) 
CCNS(=O)(=O)c1ccc(-c2ccccc2)cc1

>  <Energy>  (29) 
33.17792071465792

>  <Genealogy>  (29) 
CCNS(=O)(=O)c1ccc(-c2ccccc2)cc1 (3D coordinates assigned)
CCNS(=O)(=O)c1ccc(-c2ccccc2)cc1 (optimized conformer: 33.17792071465792 kcal/mol)

>  <smiles>  (29) 
CCNS(=O)(=O)c1ccc(-c2ccccc2)cc1

>  <score_type>  (29) 
oracle

>  <origin>  (29) 
adgpu

>  <m_score__min__energy>  (29) 
-8.2899999999999991

>  <m_primary>  (29) 
energy

$$$$
29:0
     RDKit          3D

 31 33  0  0  0  0  0  0  0  0999 V2000
   -2.8090   19.6740  -33.8480 C   0  0  0  0  0  0  0  0  0  0  0  0
   -2.9340   21.0550  -33.2140 C   0  0  0  0  0  0  0  0  0  0  0  0
   -4.3390   21.2990  -32.7440 C   0  0  0  0  0  0  0  0  0  0  0  0
   -5.3310   20.4370  -33.0940 N   0  0  0  0  0  0  0  0  0  0  0  0
   -6.6280   20.6360  -32.7160 C   0  0  0  0  0  0  0  0  0  0  0  0
   -7.6080   19.7140  -33.0970 C   0  0  0  0  0  0  0  0  0  0  0  0
   -8.9360   19.9070  -32.7150 C   0  0  0  0  0  0  0  0  0  0  0  0
   -9.2900   21.0220  -31.9520 C   0  0  0  0  0  0  0  0  0  0  0  0
   -8.3220   21.9530  -31.5650 C   0  0  0  0  0  0  0  0  0  0  0  0
   -6.9740   21.7780  -31.9410 C   0  0  0  0  0  0  0  0  0  0  0  0
   -5.9590   22.6430  -31.6100 N   0  0  0  0  0  0  0  0  0  0  0  0
   -5.8660   23.8130  -30.9220 C   0  0  0  0  0  0  0  0  0  0  0  0
   -6.9930   24.5590  -30.2560 C   0  0  0  0  0  0  0  0  0  0  0  0
   -6.4990   25.6800  -29.3400 C   0  0  0  0  0  0  0  0  0  0  0  0
   -4.5870   24.2560  -30.9060 N   0  0  0  0  0  0  0  0  0  0  0  0
   -3.8470   23.3870  -31.5770 N   0  0  0  0  0  0  0  0  0  0  0  0
   -4.6860   22.4240  -31.9930 C   0  0  0  0  0  0  0  0  0  0  0  0
   -2.7401   18.9124  -33.0573 H   0  0  0  0  0  0  0  0  0  0  0  0
   -3.6929   19.4757  -34.4721 H   0  0  0  0  0  0  0  0  0  0  0  0
   -1.9039   19.6376  -34.4721 H   0  0  0  0  0  0  0  0  0  0  0  0
   -2.2496   21.1213  -32.3554 H   0  0  0  0  0  0  0  0  0  0  0  0
   -2.6766   21.8141  -33.9673 H   0  0  0  0  0  0  0  0  0  0  0  0
   -7.3316   18.8355  -33.6986 H   0  0  0  0  0  0  0  0  0  0  0  0
   -9.7051   19.1801  -33.0151 H   0  0  0  0  0  0  0  0  0  0  0  0
  -10.3385   21.1685  -31.6534 H   0  0  0  0  0  0  0  0  0  0  0  0
   -8.6131   22.8270  -30.9639 H   0  0  0  0  0  0  0  0  0  0  0  0
   -7.6335   24.9978  -31.0352 H   0  0  0  0  0  0  0  0  0  0  0  0
   -7.5450   23.8399  -29.6330 H   0  0  0  0  0  0  0  0  0  0  0  0
   -6.6310   25.3804  -28.2899 H   0  0  0  0  0  0  0  0  0  0  0  0
   -5.4335   25.8707  -29.5357 H   0  0  0  0  0  0  0  0  0  0  0  0
   -7.0772   26.5951  -29.5357 H   0  0  0  0  0  0  0  0  0  0  0  0
  1  2  1  0
  2  3  1  0
  3  4  2  0
  4  5  1  0
  5  6  2  0
  6  7  1  0
  7  8  2  0
  8  9  1  0
  9 10  2  0
 10 11  1  0
 11 12  1  0
 12 13  1  0
 13 14  1  0
 12 15  2  0
 15 16  1  0
 16 17  2  0
 17  3  1  0
 10  5  1  0
 17 11  1  0
  1 18  1  0
  1 19  1  0
  1 20  1  0
  2 21  1  0
  2 22  1  0
  6 23  1  0
  7 24  1  0
  8 25  1  0
  9 26  1  0
 13 27  1  0
 13 28  1  0
 14 29  1  0
 14 30  1  0
 14 31  1  0
M  END
>  <UniqueID>  (30) 
29

>  <SMILES>  (30) 
CCc1nc2ccccc2n2c(CC)nnc12

>  <Energy>  (30) 
77.4387620524282

>  <Genealogy>  (30) 
CCc1nc2ccccc2n2c(CC)nnc12 (3D coordinates assigned)
CCc1nc2ccccc2n2c(CC)nnc12 (optimized conformer: 77.4387620524282 kcal/mol)

>  <smiles>  (30) 
CCc1nc2ccccc2n2c(CC)nnc12

>  <score_type>  (30) 
oracle

>  <origin>  (30) 
adgpu

>  <m_score__min__energy>  (30) 
-7.6299999999999999

>  <m_primary>  (30) 
energy

$$$$
30:0
     RDKit          3D

 31 33  0  0  0  0  0  0  0  0999 V2000
   -4.3540   25.5500  -30.7840 O   0  0  0  0  0  0  0  0  0  0  0  0
   -3.7700   24.5680  -30.2500 C   0  0  0  0  0  0  0  0  0  0  0  0
   -2.5400   24.7380  -29.6940 N   0  0  0  0  0  0  0  0  0  0  0  0
   -1.8940   23.7150  -29.0740 C   0  0  0  0  0  0  0  0  0  0  0  0
   -2.5060   22.4530  -28.9950 C   0  0  0  0  0  0  0  0  0  0  0  0
   -1.8510   21.2990  -28.3260 C   0  0  0  0  0  0  0  0  0  0  0  0
   -2.5770   20.4210  -27.4970 C   0  0  0  0  0  0  0  0  0  0  0  0
   -1.9420   19.3360  -26.8850 C   0  0  0  0  0  0  0  0  0  0  0  0
   -0.5800   19.1090  -27.0960 C   0  0  0  0  0  0  0  0  0  0  0  0
    0.1490   19.9650  -27.9240 C   0  0  0  0  0  0  0  0  0  0  0  0
    1.4710   19.7420  -28.1320 F   0  0  0  0  0  0  0  0  0  0  0  0
   -0.4810   21.0520  -28.5390 C   0  0  0  0  0  0  0  0  0  0  0  0
   -3.7280   22.2870  -29.5690 N   0  0  0  0  0  0  0  0  0  0  0  0
   -4.3800   23.3000  -30.2020 C   0  0  0  0  0  0  0  0  0  0  0  0
   -5.7090   23.0320  -30.8050 C   0  0  0  0  0  0  0  0  0  0  0  0
   -6.7010   24.0300  -30.8270 C   0  0  0  0  0  0  0  0  0  0  0  0
   -7.9430   23.7800  -31.4160 C   0  0  0  0  0  0  0  0  0  0  0  0
   -8.2080   22.5390  -31.9960 C   0  0  0  0  0  0  0  0  0  0  0  0
   -7.2270   21.5410  -31.9940 C   0  0  0  0  0  0  0  0  0  0  0  0
   -7.5720   19.9850  -32.7310 Cl  0  0  0  0  0  0  0  0  0  0  0  0
   -5.9790   21.7860  -31.4050 C   0  0  0  0  0  0  0  0  0  0  0  0
   -5.0410   20.8020  -31.3980 F   0  0  0  0  0  0  0  0  0  0  0  0
   -2.0770   25.6750  -29.7380 H   0  0  0  0  0  0  0  0  0  0  0  0
   -0.8974   23.8746  -28.6365 H   0  0  0  0  0  0  0  0  0  0  0  0
   -3.6510   20.5903  -27.3301 H   0  0  0  0  0  0  0  0  0  0  0  0
   -2.5166   18.6593  -26.2355 H   0  0  0  0  0  0  0  0  0  0  0  0
   -0.0822   18.2567  -26.6104 H   0  0  0  0  0  0  0  0  0  0  0  0
    0.0983   21.7192  -29.1942 H   0  0  0  0  0  0  0  0  0  0  0  0
   -6.4972   25.0131  -30.3776 H   0  0  0  0  0  0  0  0  0  0  0  0
   -8.7144   24.5641  -31.4225 H   0  0  0  0  0  0  0  0  0  0  0  0
   -9.1886   22.3450  -32.4551 H   0  0  0  0  0  0  0  0  0  0  0  0
  1  2  2  0
  2  3  1  0
  3  4  1  0
  4  5  2  0
  5  6  1  0
  6  7  2  0
  7  8  1  0
  8  9  2  0
  9 10  1  0
 10 11  1  0
 10 12  2  0
  5 13  1  0
 13 14  2  0
 14 15  1  0
 15 16  2  0
 16 17  1  0
 17 18  2  0
 18 19  1  0
 19 20  1  0
 19 21  2  0
 21 22  1  0
 14  2  1  0
 21 15  1  0
 12  6  1  0
  3 23  1  0
  4 24  1  0
  7 25  1  0
  8 26  1  0
  9 27  1  0
 12 28  1  0
 16 29  1  0
 17 30  1  0
 18 31  1  0
M  END
>  <UniqueID>  (31) 
30

>  <SMILES>  (31) 
O=c1[nH]cc(-c2cccc(F)c2)nc1-c1cccc(Cl)c1F

>  <Energy>  (31) 
46.05795843303582

>  <Genealogy>  (31) 
O=c1[nH]cc(-c2cccc(F)c2)nc1-c1cccc(Cl)c1F (3D coordinates assigned)
O=c1[nH]cc(-c2cccc(F)c2)nc1-c1cccc(Cl)c1F (optimized conformer: 46.05795843303582 kcal/mol)

>  <smiles>  (31) 
O=c1[nH]cc(-c2cccc(F)c2)nc1-c1cccc(Cl)c1F

>  <score_type>  (31) 
oracle

>  <origin>  (31) 
adgpu

>  <m_score__min__energy>  (31) 
-8.0299999999999994

>  <m_primary>  (31) 
energy

$$$$
31:0
     RDKit          3D

 40 42  0  0  0  0  0  0  0  0999 V2000
   -4.4310   24.6250  -30.9130 O   0  0  0  0  0  0  0  0  0  0  0  0
   -4.1700   23.8410  -29.9590 C   0  0  0  0  0  0  0  0  0  0  0  0
   -4.4670   22.4400  -30.0900 N   0  0  0  0  0  0  0  0  0  0  0  0
   -5.4300   21.9110  -31.0180 C   0  0  0  0  0  0  0  0  0  0  0  0
   -4.9940   21.0970  -32.0720 C   0  0  0  0  0  0  0  0  0  0  0  0
   -5.9130   20.5710  -32.9950 C   0  0  0  0  0  0  0  0  0  0  0  0
   -5.5040   19.7650  -34.0690 O   0  0  0  0  0  0  0  0  0  0  0  0
   -5.4340   18.3640  -34.0530 C   0  0  0  0  0  0  0  0  0  0  0  0
   -6.5070   17.6430  -33.5160 C   0  0  0  0  0  0  0  0  0  0  0  0
   -6.4810   16.2450  -33.4960 C   0  0  0  0  0  0  0  0  0  0  0  0
   -5.3850   15.5580  -34.0240 C   0  0  0  0  0  0  0  0  0  0  0  0
   -4.3170   16.2680  -34.5800 C   0  0  0  0  0  0  0  0  0  0  0  0
   -4.3400   17.6670  -34.6010 C   0  0  0  0  0  0  0  0  0  0  0  0
   -7.2790   20.8150  -32.8230 C   0  0  0  0  0  0  0  0  0  0  0  0
   -7.7400   21.5860  -31.7430 C   0  0  0  0  0  0  0  0  0  0  0  0
   -9.2120   21.8820  -31.5880 C   0  0  0  0  0  0  0  0  0  0  0  0
   -9.9730   20.9820  -32.3150 F   0  0  0  0  0  0  0  0  0  0  0  0
   -9.5900   21.7920  -30.2600 F   0  0  0  0  0  0  0  0  0  0  0  0
   -9.4690   23.1610  -32.0440 F   0  0  0  0  0  0  0  0  0  0  0  0
   -6.8060   22.1490  -30.8560 C   0  0  0  0  0  0  0  0  0  0  0  0
   -3.5140   24.3690  -28.7390 C   0  0  0  0  0  0  0  0  0  0  0  0
   -4.2260   24.4390  -27.5260 C   0  0  0  0  0  0  0  0  0  0  0  0
   -3.6110   24.9300  -26.3700 C   0  0  0  0  0  0  0  0  0  0  0  0
   -2.2800   25.3510  -26.4080 C   0  0  0  0  0  0  0  0  0  0  0  0
   -1.5590   25.2770  -27.6030 C   0  0  0  0  0  0  0  0  0  0  0  0
   -0.2640   25.6760  -27.6370 F   0  0  0  0  0  0  0  0  0  0  0  0
   -2.1690   24.7870  -28.7620 C   0  0  0  0  0  0  0  0  0  0  0  0
   -3.8670   21.7610  -29.5690 H   0  0  0  0  0  0  0  0  0  0  0  0
   -3.9233   20.8680  -32.1775 H   0  0  0  0  0  0  0  0  0  0  0  0
   -7.3760   18.1794  -33.1072 H   0  0  0  0  0  0  0  0  0  0  0  0
   -7.3241   15.6858  -33.0642 H   0  0  0  0  0  0  0  0  0  0  0  0
   -5.3625   14.4584  -34.0022 H   0  0  0  0  0  0  0  0  0  0  0  0
   -3.4574   15.7263  -35.0016 H   0  0  0  0  0  0  0  0  0  0  0  0
   -3.5020   18.2233  -35.0464 H   0  0  0  0  0  0  0  0  0  0  0  0
   -8.0006   20.3986  -33.5413 H   0  0  0  0  0  0  0  0  0  0  0  0
   -7.1553   22.7820  -30.0270 H   0  0  0  0  0  0  0  0  0  0  0  0
   -5.2734   24.1051  -27.4875 H   0  0  0  0  0  0  0  0  0  0  0  0
   -4.1771   24.9847  -25.4284 H   0  0  0  0  0  0  0  0  0  0  0  0
   -1.7996   25.7405  -25.4983 H   0  0  0  0  0  0  0  0  0  0  0  0
   -1.5945   24.7276  -29.6982 H   0  0  0  0  0  0  0  0  0  0  0  0
  1  2  2  0
  2  3  1  0
  3  4  1  0
  4  5  2  0
  5  6  1  0
  6  7  1  0
  7  8  1  0
  8  9  2  0
  9 10  1  0
 10 11  2  0
 11 12  1  0
 12 13  2  0
  6 14  2  0
 14 15  1  0
 15 16  1  0
 16 17  1  0
 16 18  1  0
 16 19  1  0
 15 20  2  0
  2 21  1  0
 21 22  2  0
 22 23  1  0
 23 24  2  0
 24 25  1  0
 25 26  1  0
 25 27  2  0
 20  4  1  0
 27 21  1  0
 13  8  1  0
  3 28  1  0
  5 29  1  0
  9 30  1  0
 10 31  1  0
 11 32  1  0
 12 33  1  0
 13 34  1  0
 14 35  1  0
 20 36  1  0
 22 37  1  0
 23 38  1  0
 24 39  1  0
 27 40  1  0
M  END
>  <UniqueID>  (32) 
31

>  <SMILES>  (32) 
O=C(Nc1cc(Oc2ccccc2)cc(C(F)(F)F)c1)c1cccc(F)c1

>  <Energy>  (32) 
55.434842536135996

>  <Genealogy>  (32) 
O=C(Nc1cc(Oc2ccccc2)cc(C(F)(F)F)c1)c1cccc(F)c1 (3D coordinates assigned)
O=C(Nc1cc(Oc2ccccc2)cc(C(F)(F)F)c1)c1cccc(F)c1 (optimized conformer: 55.434842536135996 kcal/mol)

>  <smiles>  (32) 
O=C(Nc1cc(Oc2ccccc2)cc(C(F)(F)F)c1)c1cccc(F)c1

>  <score_type>  (32) 
oracle

>  <origin>  (32) 
adgpu

>  <m_score__min__energy>  (32) 
-7.8300000000000001

>  <m_primary>  (32) 
energy

$$$$
32:0
     RDKit          3D

 41 43  0  0  0  0  0  0  0  0999 V2000
   -2.3650   20.4790  -33.4720 C   0  0  0  0  0  0  0  0  0  0  0  0
   -3.6610   20.6820  -32.7990 N   0  0  0  0  0  0  0  0  0  0  0  0
   -4.6860   19.8490  -33.4470 C   0  0  0  0  0  0  0  0  0  0  0  0
   -4.0660   22.1030  -32.8420 C   0  0  0  0  0  0  0  0  0  0  0  0
   -4.3180   22.6330  -31.4570 C   0  0  0  0  0  0  0  0  0  0  0  0
   -3.3720   23.2330  -30.6490 C   0  0  0  0  0  0  0  0  0  0  0  0
   -3.9470   23.6670  -29.5060 N   0  0  0  0  0  0  0  0  0  0  0  0
   -3.2870   24.3490  -28.4210 C   0  0  0  0  0  0  0  0  0  0  0  0
   -1.9700   24.8250  -28.5710 C   0  0  0  0  0  0  0  0  0  0  0  0
   -1.3310   25.4860  -27.5170 C   0  0  0  0  0  0  0  0  0  0  0  0
   -1.9960   25.6800  -26.3030 C   0  0  0  0  0  0  0  0  0  0  0  0
   -1.1910   26.5090  -24.9830 Cl  0  0  0  0  0  0  0  0  0  0  0  0
   -3.3020   25.2120  -26.1430 C   0  0  0  0  0  0  0  0  0  0  0  0
   -3.9460   24.5500  -27.1940 C   0  0  0  0  0  0  0  0  0  0  0  0
   -5.2590   23.3550  -29.5800 C   0  0  0  0  0  0  0  0  0  0  0  0
   -5.5270   22.7030  -30.7710 C   0  0  0  0  0  0  0  0  0  0  0  0
   -6.8620   22.2520  -31.2180 C   0  0  0  0  0  0  0  0  0  0  0  0
   -7.8700   23.1780  -31.5390 C   0  0  0  0  0  0  0  0  0  0  0  0
   -9.1260   22.7360  -31.9640 C   0  0  0  0  0  0  0  0  0  0  0  0
   -9.3860   21.3690  -32.0830 C   0  0  0  0  0  0  0  0  0  0  0  0
   -8.3860   20.4390  -31.7820 C   0  0  0  0  0  0  0  0  0  0  0  0
   -8.7390   18.5700  -31.9520 Br  0  0  0  0  0  0  0  0  0  0  0  0
   -7.1270   20.8780  -31.3570 C   0  0  0  0  0  0  0  0  0  0  0  0
   -1.5750   20.3553  -32.7166 H   0  0  0  0  0  0  0  0  0  0  0  0
   -2.4155   19.5778  -34.1007 H   0  0  0  0  0  0  0  0  0  0  0  0
   -2.1376   21.3525  -34.1007 H   0  0  0  0  0  0  0  0  0  0  0  0
   -5.2960   19.3533  -32.6774 H   0  0  0  0  0  0  0  0  0  0  0  0
   -5.3307   20.4824  -34.0740 H   0  0  0  0  0  0  0  0  0  0  0  0
   -4.1978   19.0884  -34.0740 H   0  0  0  0  0  0  0  0  0  0  0  0
   -3.2645   22.6916  -33.3122 H   0  0  0  0  0  0  0  0  0  0  0  0
   -4.9960   22.1853  -33.4237 H   0  0  0  0  0  0  0  0  0  0  0  0
   -2.3064   23.3416  -30.8994 H   0  0  0  0  0  0  0  0  0  0  0  0
   -1.4404   24.6759  -29.5235 H   0  0  0  0  0  0  0  0  0  0  0  0
   -0.3022   25.8542  -27.6438 H   0  0  0  0  0  0  0  0  0  0  0  0
   -3.8259   25.3643  -25.1879 H   0  0  0  0  0  0  0  0  0  0  0  0
   -4.9747   24.1841  -27.0602 H   0  0  0  0  0  0  0  0  0  0  0  0
   -6.0060   23.5856  -28.8061 H   0  0  0  0  0  0  0  0  0  0  0  0
   -7.6691   24.2562  -31.4552 H   0  0  0  0  0  0  0  0  0  0  0  0
   -9.9119   23.4668  -32.2054 H   0  0  0  0  0  0  0  0  0  0  0  0
  -10.3769   21.0240  -32.4133 H   0  0  0  0  0  0  0  0  0  0  0  0
   -6.3399   20.1438  -31.1303 H   0  0  0  0  0  0  0  0  0  0  0  0
  1  2  1  0
  2  3  1  0
  2  4  1  0
  4  5  1  0
  5  6  2  0
  6  7  1  0
  7  8  1  0
  8  9  2  0
  9 10  1  0
 10 11  2  0
 11 12  1  0
 11 13  1  0
 13 14  2  0
  7 15  1  0
 15 16  2  0
 16 17  1  0
 17 18  2  0
 18 19  1  0
 19 20  2  0
 20 21  1  0
 21 22  1  0
 21 23  2  0
 16  5  1  0
 23 17  1  0
 14  8  1  0
  1 24  1  0
  1 25  1  0
  1 26  1  0
  3 27  1  0
  3 28  1  0
  3 29  1  0
  4 30  1  0
  4 31  1  0
  6 32  1  0
  9 33  1  0
 10 34  1  0
 13 35  1  0
 14 36  1  0
 15 37  1  0
 18 38  1  0
 19 39  1  0
 20 40  1  0
 23 41  1  0
M  END
>  <UniqueID>  (33) 
32

>  <SMILES>  (33) 
CN(C)Cc1cn(-c2ccc(Cl)cc2)cc1-c1cccc(Br)c1

>  <Energy>  (33) 
76.51339619581081

>  <Genealogy>  (33) 
CN(C)Cc1cn(-c2ccc(Cl)cc2)cc1-c1cccc(Br)c1 (3D coordinates assigned)
CN(C)Cc1cn(-c2ccc(Cl)cc2)cc1-c1cccc(Br)c1 (optimized conformer: 76.51339619581081 kcal/mol)

>  <smiles>  (33) 
CN(C)Cc1cn(-c2ccc(Cl)cc2)cc1-c1cccc(Br)c1

>  <score_type>  (33) 
oracle

>  <origin>  (33) 
adgpu

>  <m_score__min__energy>  (33) 
-8.5199999999999996

>  <m_primary>  (33) 
energy

$$$$
33:0
     RDKit          3D

 43 46  0  0  0  0  0  0  0  0999 V2000
    0.3390   21.8990  -35.5820 C   0  0  0  0  0  0  0  0  0  0  0  0
    0.1440   20.5110  -35.3370 O   0  0  0  0  0  0  0  0  0  0  0  0
   -0.6880   19.9930  -34.3330 C   0  0  0  0  0  0  0  0  0  0  0  0
   -0.4580   18.7370  -33.7370 C   0  0  0  0  0  0  0  0  0  0  0  0
   -1.3140   18.2670  -32.7390 C   0  0  0  0  0  0  0  0  0  0  0  0
   -2.4070   19.0350  -32.3300 C   0  0  0  0  0  0  0  0  0  0  0  0
   -2.6550   20.2820  -32.9230 C   0  0  0  0  0  0  0  0  0  0  0  0
   -3.8240   21.0880  -32.4980 C   0  0  0  0  0  0  0  0  0  0  0  0
   -3.5960   22.3740  -31.9930 C   0  0  0  0  0  0  0  0  0  0  0  0
   -4.6560   23.1940  -31.6030 C   0  0  0  0  0  0  0  0  0  0  0  0
   -4.3930   24.4760  -31.1160 O   0  0  0  0  0  0  0  0  0  0  0  0
   -5.9790   22.7260  -31.6990 C   0  0  0  0  0  0  0  0  0  0  0  0
   -7.0530   23.5430  -31.2980 C   0  0  0  0  0  0  0  0  0  0  0  0
   -8.3640   23.0730  -31.3700 C   0  0  0  0  0  0  0  0  0  0  0  0
   -8.6210   21.7860  -31.8330 C   0  0  0  0  0  0  0  0  0  0  0  0
   -7.5710   20.9600  -32.2370 C   0  0  0  0  0  0  0  0  0  0  0  0
   -6.2340   21.4170  -32.1910 C   0  0  0  0  0  0  0  0  0  0  0  0
   -5.1490   20.5960  -32.6000 C   0  0  0  0  0  0  0  0  0  0  0  0
   -5.3810   19.2180  -33.1020 C   0  0  0  0  0  0  0  0  0  0  0  0
   -5.6670   18.1790  -32.2030 C   0  0  0  0  0  0  0  0  0  0  0  0
   -5.8500   16.8750  -32.6720 C   0  0  0  0  0  0  0  0  0  0  0  0
   -5.7500   16.6020  -34.0390 C   0  0  0  0  0  0  0  0  0  0  0  0
   -5.4650   17.6320  -34.9400 C   0  0  0  0  0  0  0  0  0  0  0  0
   -5.2790   18.9380  -34.4750 C   0  0  0  0  0  0  0  0  0  0  0  0
   -1.7830   20.7580  -33.9160 C   0  0  0  0  0  0  0  0  0  0  0  0
    0.4141   22.4335  -34.6235 H   0  0  0  0  0  0  0  0  0  0  0  0
    1.2662   22.0433  -36.1559 H   0  0  0  0  0  0  0  0  0  0  0  0
   -0.5126   22.2932  -36.1559 H   0  0  0  0  0  0  0  0  0  0  0  0
    0.3978   18.1254  -34.0587 H   0  0  0  0  0  0  0  0  0  0  0  0
   -1.1270   17.2883  -32.2730 H   0  0  0  0  0  0  0  0  0  0  0  0
   -3.0753   18.6608  -31.5405 H   0  0  0  0  0  0  0  0  0  0  0  0
   -2.5642   22.7442  -31.9021 H   0  0  0  0  0  0  0  0  0  0  0  0
   -3.4950   24.9250  -31.2540 H   0  0  0  0  0  0  0  0  0  0  0  0
   -6.8568   24.5592  -30.9253 H   0  0  0  0  0  0  0  0  0  0  0  0
   -9.1970   23.7211  -31.0601 H   0  0  0  0  0  0  0  0  0  0  0  0
   -9.6565   21.4180  -31.8808 H   0  0  0  0  0  0  0  0  0  0  0  0
   -7.7861   19.9424  -32.5951 H   0  0  0  0  0  0  0  0  0  0  0  0
   -5.7474   18.3913  -31.1267 H   0  0  0  0  0  0  0  0  0  0  0  0
   -6.0730   16.0628  -31.9644 H   0  0  0  0  0  0  0  0  0  0  0  0
   -5.8957   15.5754  -34.4063 H   0  0  0  0  0  0  0  0  0  0  0  0
   -5.3869   17.4153  -36.0156 H   0  0  0  0  0  0  0  0  0  0  0  0
   -5.0526   19.7469  -35.1852 H   0  0  0  0  0  0  0  0  0  0  0  0
   -1.9629   21.7432  -34.3710 H   0  0  0  0  0  0  0  0  0  0  0  0
  1  2  1  0
  2  3  1  0
  3  4  2  0
  4  5  1  0
  5  6  2  0
  6  7  1  0
  7  8  1  0
  8  9  2  0
  9 10  1  0
 10 11  1  0
 10 12  2  0
 12 13  1  0
 13 14  2  0
 14 15  1  0
 15 16  2  0
 16 17  1  0
 17 18  2  0
 18 19  1  0
 19 20  2  0
 20 21  1  0
 21 22  2  0
 22 23  1  0
 23 24  2  0
  7 25  2  0
 25  3  1  0
 18  8  1  0
 24 19  1  0
 17 12  1  0
  1 26  1  0
  1 27  1  0
  1 28  1  0
  4 29  1  0
  5 30  1  0
  6 31  1  0
  9 32  1  0
 11 33  1  0
 13 34  1  0
 14 35  1  0
 15 36  1  0
 16 37  1  0
 20 38  1  0
 21 39  1  0
 22 40  1  0
 23 41  1  0
 24 42  1  0
 25 43  1  0
M  END
>  <UniqueID>  (34) 
33

>  <SMILES>  (34) 
COc1cccc(-c2cc(O)c3ccccc3c2-c2ccccc2)c1

>  <Energy>  (34) 
66.52449378559453

>  <Genealogy>  (34) 
COc1cccc(-c2cc(O)c3ccccc3c2-c2ccccc2)c1 (3D coordinates assigned)
COc1cccc(-c2cc(O)c3ccccc3c2-c2ccccc2)c1 (optimized conformer: 66.52449378559453 kcal/mol)

>  <smiles>  (34) 
COc1cccc(-c2cc(O)c3ccccc3c2-c2ccccc2)c1

>  <score_type>  (34) 
oracle

>  <origin>  (34) 
adgpu

>  <m_score__min__energy>  (34) 
-8.8100000000000005

>  <m_primary>  (34) 
energy

$$$$
34:0
     RDKit          3D

 26 27  0  0  0  0  0  0  0  0999 V2000
   -5.7420   24.9080  -29.0520 O   0  0  0  0  0  0  0  0  0  0  0  0
   -5.2210   24.8680  -30.4620 S   0  0  0  0  0  0  0  0  0  0  0  0
   -5.7220   26.0770  -31.1990 O   0  0  0  0  0  0  0  0  0  0  0  0
   -3.4870   24.9090  -30.4320 N   0  0  0  0  0  0  0  0  0  0  0  0
   -2.6160   24.1950  -29.5410 C   0  0  0  0  0  0  0  0  0  0  0  0
   -2.8490   22.8240  -29.3630 C   0  0  0  0  0  0  0  0  0  0  0  0
   -2.0490   22.0700  -28.5020 C   0  0  0  0  0  0  0  0  0  0  0  0
   -0.9990   22.6780  -27.8110 C   0  0  0  0  0  0  0  0  0  0  0  0
   -0.7470   24.0390  -27.9870 C   0  0  0  0  0  0  0  0  0  0  0  0
   -1.5440   24.8020  -28.8480 C   0  0  0  0  0  0  0  0  0  0  0  0
   -1.2370   26.1120  -29.0070 F   0  0  0  0  0  0  0  0  0  0  0  0
   -5.7860   23.4270  -31.3020 C   0  0  0  0  0  0  0  0  0  0  0  0
   -4.8840   22.6220  -32.0110 C   0  0  0  0  0  0  0  0  0  0  0  0
   -5.3380   21.4800  -32.6800 C   0  0  0  0  0  0  0  0  0  0  0  0
   -6.6920   21.1370  -32.6400 C   0  0  0  0  0  0  0  0  0  0  0  0
   -7.5940   21.9340  -31.9270 C   0  0  0  0  0  0  0  0  0  0  0  0
   -7.1420   23.0750  -31.2580 C   0  0  0  0  0  0  0  0  0  0  0  0
   -3.6712   22.3369  -29.9077 H   0  0  0  0  0  0  0  0  0  0  0  0
   -2.2461   20.9961  -28.3680 H   0  0  0  0  0  0  0  0  0  0  0  0
   -0.3717   22.0851  -27.1292 H   0  0  0  0  0  0  0  0  0  0  0  0
    0.0835   24.5154  -27.4455 H   0  0  0  0  0  0  0  0  0  0  0  0
   -3.8172   22.8885  -32.0416 H   0  0  0  0  0  0  0  0  0  0  0  0
   -4.6283   20.8516  -33.2380 H   0  0  0  0  0  0  0  0  0  0  0  0
   -7.0485   20.2408  -33.1689 H   0  0  0  0  0  0  0  0  0  0  0  0
   -8.6594   21.6626  -31.8929 H   0  0  0  0  0  0  0  0  0  0  0  0
   -7.8525   23.6984  -30.6954 H   0  0  0  0  0  0  0  0  0  0  0  0
  1  2  2  0
  2  3  2  0
  2  4  1  0
  4  5  1  0
  5  6  2  0
  6  7  1  0
  7  8  2  0
  8  9  1  0
  9 10  2  0
 10 11  1  0
  2 12  1  0
 12 13  2  0
 13 14  1  0
 14 15  2  0
 15 16  1  0
 16 17  2  0
 10  5  1  0
 17 12  1  0
  6 18  1  0
  7 19  1  0
  8 20  1  0
  9 21  1  0
 13 22  1  0
 14 23  1  0
 15 24  1  0
 16 25  1  0
 17 26  1  0
M  CHG  1   4  -1
M  END
>  <UniqueID>  (35) 
34

>  <SMILES>  (35) 
O=S(=O)([N-]c1ccccc1F)c1ccccc1

>  <Energy>  (35) 
32.47220022718425

>  <Genealogy>  (35) 
O=S(=O)([N-]c1ccccc1F)c1ccccc1 (protonated)
O=S(=O)([N-]c1ccccc1F)c1ccccc1 (3D coordinates assigned)
O=S(=O)([N-]c1ccccc1F)c1ccccc1 (optimized conformer: 32.47220022718425 kcal/mol)

>  <smiles>  (35) 
O=S(=O)(Nc1ccccc1F)c1ccccc1

>  <score_type>  (35) 
oracle

>  <origin>  (35) 
adgpu

>  <m_score__min__energy>  (35) 
-8.1699999999999999

>  <m_primary>  (35) 
energy

$$$$
35:0
     RDKit          3D

 42 45  0  0  0  0  0  0  0  0999 V2000
   -0.4538   25.3620  -27.9517 H   0  0  0  0  0  0  0  0  0  0  0  0
   -1.3490   24.8190  -28.2890 C   0  0  0  0  0  0  0  0  0  0  0  0
   -2.0730   25.2900  -29.3390 N   0  0  0  0  0  0  0  0  0  0  0  0
   -3.1940   24.6560  -29.7780 C   0  0  0  0  0  0  0  0  0  0  0  0
   -3.8290   25.1240  -30.7590 O   0  0  0  0  0  0  0  0  0  0  0  0
   -3.6400   23.4930  -29.1340 C   0  0  0  0  0  0  0  0  0  0  0  0
   -4.7910   22.7880  -29.6230 N   0  0  0  0  0  0  0  0  0  0  0  0
   -4.8450   21.7760  -30.4510 C   0  0  0  0  0  0  0  0  0  0  0  0
   -3.7000   21.0670  -30.9180 C   0  0  0  0  0  0  0  0  0  0  0  0
   -2.5020   21.3740  -30.5050 N   0  0  0  0  0  0  0  0  0  0  0  0
   -1.2680   20.7140  -30.8310 C   0  0  0  0  0  0  0  0  0  0  0  0
   -0.5260   19.9970  -29.8720 C   0  0  0  0  0  0  0  0  0  0  0  0
   -0.9041   19.9038  -28.8432 H   0  0  0  0  0  0  0  0  0  0  0  0
    0.6910   19.4030  -30.2250 C   0  0  0  0  0  0  0  0  0  0  0  0
    1.2599   18.8300  -29.4780 H   0  0  0  0  0  0  0  0  0  0  0  0
    1.1840   19.5370  -31.5250 C   0  0  0  0  0  0  0  0  0  0  0  0
    2.1359   19.0612  -31.8035 H   0  0  0  0  0  0  0  0  0  0  0  0
    0.4690   20.2750  -32.4720 C   0  0  0  0  0  0  0  0  0  0  0  0
    0.8632   20.3879  -33.4927 H   0  0  0  0  0  0  0  0  0  0  0  0
   -0.7470   20.8700  -32.1230 C   0  0  0  0  0  0  0  0  0  0  0  0
   -1.2983   21.4641  -32.8667 H   0  0  0  0  0  0  0  0  0  0  0  0
   -3.8730   20.0530  -31.8090 N   0  0  0  0  0  0  0  0  0  0  0  0
   -5.1000   19.6720  -32.2390 C   0  0  0  0  0  0  0  0  0  0  0  0
   -5.2360   18.6220  -33.1520 C   0  0  0  0  0  0  0  0  0  0  0  0
   -4.3406   18.1087  -33.5325 H   0  0  0  0  0  0  0  0  0  0  0  0
   -6.5060   18.2200  -33.5850 C   0  0  0  0  0  0  0  0  0  0  0  0
   -6.5930   17.1620  -34.5010 O   0  0  0  0  0  0  0  0  0  0  0  0
   -6.4380   15.7870  -34.1610 C   0  0  0  0  0  0  0  0  0  0  0  0
   -6.4258   15.6791  -33.0664 H   0  0  0  0  0  0  0  0  0  0  0  0
   -7.2767   15.2096  -34.5771 H   0  0  0  0  0  0  0  0  0  0  0  0
   -5.4918   15.4108  -34.5771 H   0  0  0  0  0  0  0  0  0  0  0  0
   -7.6460   18.8860  -33.0900 C   0  0  0  0  0  0  0  0  0  0  0  0
   -8.6479   18.5776  -33.4233 H   0  0  0  0  0  0  0  0  0  0  0  0
   -7.5090   19.9360  -32.1780 C   0  0  0  0  0  0  0  0  0  0  0  0
   -8.4030   20.4510  -31.7964 H   0  0  0  0  0  0  0  0  0  0  0  0
   -6.2360   20.3350  -31.7480 C   0  0  0  0  0  0  0  0  0  0  0  0
   -6.0790   21.3600  -30.8650 N   0  0  0  0  0  0  0  0  0  0  0  0
   -6.9270   21.8590  -30.5060 H   0  0  0  0  0  0  0  0  0  0  0  0
   -2.8840   22.9740  -28.0720 C   0  0  0  0  0  0  0  0  0  0  0  0
   -3.1920   22.0385  -27.5821 H   0  0  0  0  0  0  0  0  0  0  0  0
   -1.7400   23.6470  -27.6380 C   0  0  0  0  0  0  0  0  0  0  0  0
   -1.1533   23.2583  -26.7926 H   0  0  0  0  0  0  0  0  0  0  0  0
  1  2  1  0
  2  3  1  0
  3  4  1  0
  4  5  2  0
  4  6  1  0
  6  7  1  0
  7  8  2  0
  8  9  1  0
  9 10  2  0
 10 11  1  0
 11 12  2  0
 12 13  1  0
 12 14  1  0
 14 15  1  0
 14 16  2  0
 16 17  1  0
 16 18  1  0
 18 19  1  0
 18 20  2  0
 20 21  1  0
  9 22  1  0
 22 23  1  0
 23 24  2  0
 24 25  1  0
 24 26  1  0
 26 27  1  0
 27 28  1  0
 28 29  1  0
 28 30  1  0
 28 31  1  0
 26 32  2  0
 32 33  1  0
 32 34  1  0
 34 35  1  0
 34 36  2  0
 36 37  1  0
 37 38  1  0
  6 39  2  0
 39 40  1  0
 39 41  1  0
 41 42  1  0
 41  2  2  0
 37  8  1  0
 20 11  1  0
 36 23  1  0
M  CHG  2   3  -1  22  -1
M  END
>  <UniqueID>  (36) 
35

>  <SMILES>  (36) 
COc1ccc2[nH]c(=N/c3ccc[n-]c3=O)/c(=N/c3ccccc3)[n-]c2c1

>  <Energy>  (36) 
71.29841279374482

>  <Genealogy>  (36) 
COc1ccc2[nH]c(=Nc3ccc[n-]c3=O)c(=Nc3ccccc3)[n-]c2c1 (protonated)
COc1ccc2[nH]c(=N/c3ccc[n-]c3=O)/c(=N/c3ccccc3)[n-]c2c1 (cis-trans isomerization)
COc1ccc2[nH]c(=N/c3ccc[n-]c3=O)/c(=N/c3ccccc3)[n-]c2c1 (3D coordinates assigned)
COc1ccc2[nH]c(=N/c3ccc[n-]c3=O)/c(=N/c3ccccc3)[n-]c2c1 (optimized conformer: 71.29841279374482 kcal/mol)

>  <smiles>  (36) 
COc1ccc2[nH]c(=Nc3ccc[nH]c3=O)c(=Nc3ccccc3)[nH]c2c1

>  <score_type>  (36) 
oracle

>  <origin>  (36) 
adgpu

>  <m_score__min__energy>  (36) 
-9.2200000000000006

>  <m_primary>  (36) 
energy

$$$$
36:0
     RDKit          3D

 37 39  0  0  0  0  0  0  0  0999 V2000
   -5.1450   26.8710  -30.0460 H   0  0  0  0  0  0  0  0  0  0  0  0
   -5.4150   26.0050  -30.5650 N   0  0  0  0  0  0  0  0  0  0  0  0
   -4.6910   24.9310  -30.5140 C   0  0  0  0  0  0  0  0  0  0  0  0
   -3.5510   24.9250  -29.7740 N   0  0  0  0  0  0  0  0  0  0  0  0
   -2.7370   23.8390  -29.6850 C   0  0  0  0  0  0  0  0  0  0  0  0
   -1.5100   23.9180  -28.8530 C   0  0  0  0  0  0  0  0  0  0  0  0
   -1.1440   25.1410  -28.2600 C   0  0  0  0  0  0  0  0  0  0  0  0
   -1.7722   26.0309  -28.4128 H   0  0  0  0  0  0  0  0  0  0  0  0
    0.0120   25.2340  -27.4780 C   0  0  0  0  0  0  0  0  0  0  0  0
    0.2846   26.1933  -27.0138 H   0  0  0  0  0  0  0  0  0  0  0  0
    0.8210   24.1120  -27.2850 C   0  0  0  0  0  0  0  0  0  0  0  0
    2.3070   24.2360  -26.2870 S   0  0  0  0  0  0  0  0  0  0  0  0
    1.3930   24.2710  -24.7130 C   0  0  0  0  0  0  0  0  0  0  0  0
    2.1049   24.2437  -23.8749 H   0  0  0  0  0  0  0  0  0  0  0  0
    0.7953   25.1927  -24.6565 H   0  0  0  0  0  0  0  0  0  0  0  0
    0.7265   23.3977  -24.6565 H   0  0  0  0  0  0  0  0  0  0  0  0
    0.4790   22.8960  -27.8830 C   0  0  0  0  0  0  0  0  0  0  0  0
    1.1208   22.0143  -27.7390 H   0  0  0  0  0  0  0  0  0  0  0  0
   -0.6770   22.7970  -28.6640 C   0  0  0  0  0  0  0  0  0  0  0  0
   -0.9379   21.8373  -29.1341 H   0  0  0  0  0  0  0  0  0  0  0  0
   -3.0920   22.6630  -30.3660 C   0  0  0  0  0  0  0  0  0  0  0  0
   -2.4492   21.7731  -30.2964 H   0  0  0  0  0  0  0  0  0  0  0  0
   -4.2650   22.6210  -31.1350 C   0  0  0  0  0  0  0  0  0  0  0  0
   -4.6170   21.3590  -31.8300 C   0  0  0  0  0  0  0  0  0  0  0  0
   -5.8470   20.7300  -31.5740 C   0  0  0  0  0  0  0  0  0  0  0  0
   -6.5452   21.1701  -30.8468 H   0  0  0  0  0  0  0  0  0  0  0  0
   -6.1890   19.5480  -32.2380 C   0  0  0  0  0  0  0  0  0  0  0  0
   -7.1521   19.0594  -32.0288 H   0  0  0  0  0  0  0  0  0  0  0  0
   -5.3080   18.9860  -33.1680 C   0  0  0  0  0  0  0  0  0  0  0  0
   -5.7390   17.5040  -34.0010 Cl  0  0  0  0  0  0  0  0  0  0  0  0
   -4.0870   19.6120  -33.4370 C   0  0  0  0  0  0  0  0  0  0  0  0
   -3.3955   19.1732  -34.1714 H   0  0  0  0  0  0  0  0  0  0  0  0
   -3.7430   20.7940  -32.7750 C   0  0  0  0  0  0  0  0  0  0  0  0
   -2.7833   21.2847  -32.9946 H   0  0  0  0  0  0  0  0  0  0  0  0
   -5.0740   23.7760  -31.2220 C   0  0  0  0  0  0  0  0  0  0  0  0
   -6.2570   23.7960  -32.0570 C   0  0  0  0  0  0  0  0  0  0  0  0
   -7.2030   23.8120  -32.7240 N   0  0  0  0  0  0  0  0  0  0  0  0
  1  2  1  0
  2  3  2  0
  3  4  1  0
  4  5  1  0
  5  6  1  0
  6  7  2  0
  7  8  1  0
  7  9  1  0
  9 10  1  0
  9 11  2  0
 11 12  1  0
 12 13  1  0
 13 14  1  0
 13 15  1  0
 13 16  1  0
 11 17  1  0
 17 18  1  0
 17 19  2  0
 19 20  1  0
  5 21  2  0
 21 22  1  0
 21 23  1  0
 23 24  1  0
 24 25  2  0
 25 26  1  0
 25 27  1  0
 27 28  1  0
 27 29  2  0
 29 30  1  0
 29 31  1  0
 31 32  1  0
 31 33  2  0
 33 34  1  0
 23 35  2  0
 35 36  1  0
 36 37  3  0
 35  3  1  0
 19  6  1  0
 33 24  1  0
M  CHG  1   4  -1
M  END
>  <UniqueID>  (37) 
36

>  <SMILES>  (37) 
[H]/N=c1\[n-]c(-c2ccc(SC)cc2)cc(-c2ccc(Cl)cc2)c1C#N

>  <Energy>  (37) 
47.98724085934164

>  <Genealogy>  (37) 
CSc1ccc(-c2cc(-c3ccc(Cl)cc3)c(C#N)c(=N)[n-]2)cc1 (protonated)
[H]/N=c1\[n-]c(-c2ccc(SC)cc2)cc(-c2ccc(Cl)cc2)c1C#N (cis-trans isomerization)
[H]/N=c1\[n-]c(-c2ccc(SC)cc2)cc(-c2ccc(Cl)cc2)c1C#N (3D coordinates assigned)
[H]/N=c1\[n-]c(-c2ccc(SC)cc2)cc(-c2ccc(Cl)cc2)c1C#N (optimized conformer: 47.98724085934164 kcal/mol)

>  <smiles>  (37) 
CSc1ccc(-c2cc(-c3ccc(Cl)cc3)c(C#N)c(=N)[nH]2)cc1

>  <score_type>  (37) 
oracle

>  <origin>  (37) 
adgpu

>  <m_score__min__energy>  (37) 
-10.33

>  <m_primary>  (37) 
energy

$$$$
37:0
     RDKit          3D

 22 22  0  0  0  0  0  0  0  0999 V2000
   -0.8570   26.6970  -27.8360 C   0  0  0  0  0  0  0  0  0  0  0  0
   -1.4580   26.0480  -28.9520 O   0  0  0  0  0  0  0  0  0  0  0  0
   -1.7910   24.6850  -28.9960 C   0  0  0  0  0  0  0  0  0  0  0  0
   -1.0310   23.7120  -28.3160 C   0  0  0  0  0  0  0  0  0  0  0  0
   -1.4260   22.3710  -28.3290 C   0  0  0  0  0  0  0  0  0  0  0  0
   -2.5820   21.9880  -29.0100 C   0  0  0  0  0  0  0  0  0  0  0  0
   -3.3380   22.9410  -29.6940 C   0  0  0  0  0  0  0  0  0  0  0  0
   -2.9340   24.2830  -29.7200 C   0  0  0  0  0  0  0  0  0  0  0  0
   -3.7410   25.2290  -30.4340 N   0  0  0  0  0  0  0  0  0  0  0  0
   -5.1460   25.1070  -30.6870 C   0  0  0  0  0  0  0  0  0  0  0  0
   -6.1740   25.6570  -29.7430 C   0  0  0  0  0  0  0  0  0  0  0  0
   -5.5290   24.5490  -31.7480 O   0  0  0  0  0  0  0  0  0  0  0  0
   -1.2545   26.2678  -26.9045 H   0  0  0  0  0  0  0  0  0  0  0  0
    0.2329   26.5520  -27.8707 H   0  0  0  0  0  0  0  0  0  0  0  0
   -1.0851   27.7725  -27.8707 H   0  0  0  0  0  0  0  0  0  0  0  0
   -0.1222   24.0094  -27.7722 H   0  0  0  0  0  0  0  0  0  0  0  0
   -0.8243   21.6164  -27.8013 H   0  0  0  0  0  0  0  0  0  0  0  0
   -2.8977   20.9343  -29.0077 H   0  0  0  0  0  0  0  0  0  0  0  0
   -4.2571   22.6370  -30.2163 H   0  0  0  0  0  0  0  0  0  0  0  0
   -5.8498   25.4836  -28.7063 H   0  0  0  0  0  0  0  0  0  0  0  0
   -6.2893   26.7373  -29.9153 H   0  0  0  0  0  0  0  0  0  0  0  0
   -7.1367   25.1534  -29.9153 H   0  0  0  0  0  0  0  0  0  0  0  0
  1  2  1  0
  2  3  1  0
  3  4  2  0
  4  5  1  0
  5  6  2  0
  6  7  1  0
  7  8  2  0
  8  9  1  0
  9 10  1  0
 10 11  1  0
 10 12  2  0
  8  3  1  0
  1 13  1  0
  1 14  1  0
  1 15  1  0
  4 16  1  0
  5 17  1  0
  6 18  1  0
  7 19  1  0
 11 20  1  0
 11 21  1  0
 11 22  1  0
M  CHG  1   9  -1
M  END
>  <UniqueID>  (38) 
37

>  <SMILES>  (38) 
COc1ccccc1[N-]C(C)=O

>  <Energy>  (38) 
24.441082628261377

>  <Genealogy>  (38) 
COc1ccccc1[N-]C(C)=O (protonated)
COc1ccccc1[N-]C(C)=O (3D coordinates assigned)
COc1ccccc1[N-]C(C)=O (optimized conformer: 24.441082628261377 kcal/mol)

>  <smiles>  (38) 
COc1ccccc1NC(C)=O

>  <score_type>  (38) 
oracle

>  <origin>  (38) 
adgpu

>  <m_score__min__energy>  (38) 
-7.2699999999999996

>  <m_primary>  (38) 
energy

$$$$
38:0
     RDKit          3D

 32 34  0  0  0  0  0  0  0  0999 V2000
   -9.5050   19.7650  -32.7090 C   0  0  0  0  0  0  0  0  0  0  0  0
   -8.0270   19.9770  -32.8060 C   0  0  0  0  0  0  0  0  0  0  0  0
   -7.1980   19.1340  -33.4660 N   0  0  0  0  0  0  0  0  0  0  0  0
   -5.9660   19.6620  -33.3470 C   0  0  0  0  0  0  0  0  0  0  0  0
   -4.7790   19.1580  -33.8770 C   0  0  0  0  0  0  0  0  0  0  0  0
   -3.5960   19.8830  -33.6470 C   0  0  0  0  0  0  0  0  0  0  0  0
   -3.6250   21.0830  -32.9010 C   0  0  0  0  0  0  0  0  0  0  0  0
   -2.4770   21.7740  -32.6900 F   0  0  0  0  0  0  0  0  0  0  0  0
   -4.8380   21.5670  -32.3780 C   0  0  0  0  0  0  0  0  0  0  0  0
   -5.9940   20.8240  -32.6190 C   0  0  0  0  0  0  0  0  0  0  0  0
   -7.3090   21.0400  -32.2560 C   0  0  0  0  0  0  0  0  0  0  0  0
   -7.9260   22.4180  -31.3490 S   0  0  0  0  0  0  0  0  0  0  0  0
   -8.7930   21.9200  -30.2260 O   0  0  0  0  0  0  0  0  0  0  0  0
   -8.7600   23.3070  -32.2270 O   0  0  0  0  0  0  0  0  0  0  0  0
   -6.5650   23.3370  -30.7180 C   0  0  0  0  0  0  0  0  0  0  0  0
   -5.8190   22.8570  -29.6310 C   0  0  0  0  0  0  0  0  0  0  0  0
   -4.7270   23.5890  -29.1530 C   0  0  0  0  0  0  0  0  0  0  0  0
   -4.3750   24.7990  -29.7580 C   0  0  0  0  0  0  0  0  0  0  0  0
   -5.1130   25.2790  -30.8440 C   0  0  0  0  0  0  0  0  0  0  0  0
   -6.2050   24.5490  -31.3250 C   0  0  0  0  0  0  0  0  0  0  0  0
   -9.8006   19.7226  -31.6503 H   0  0  0  0  0  0  0  0  0  0  0  0
  -10.0280   20.5973  -33.2027 H   0  0  0  0  0  0  0  0  0  0  0  0
   -9.7729   18.8192  -33.2027 H   0  0  0  0  0  0  0  0  0  0  0  0
   -7.4590   18.2600  -33.9740 H   0  0  0  0  0  0  0  0  0  0  0  0
   -4.7681   18.2231  -34.4566 H   0  0  0  0  0  0  0  0  0  0  0  0
   -2.6417   19.5135  -34.0505 H   0  0  0  0  0  0  0  0  0  0  0  0
   -4.8738   22.5009  -31.7979 H   0  0  0  0  0  0  0  0  0  0  0  0
   -6.0930   21.9043  -29.1543 H   0  0  0  0  0  0  0  0  0  0  0  0
   -4.1443   23.2118  -28.2996 H   0  0  0  0  0  0  0  0  0  0  0  0
   -3.5169   25.3738  -29.3794 H   0  0  0  0  0  0  0  0  0  0  0  0
   -4.8350   26.2308  -31.3203 H   0  0  0  0  0  0  0  0  0  0  0  0
   -6.7828   24.9265  -32.1815 H   0  0  0  0  0  0  0  0  0  0  0  0
  1  2  1  0
  2  3  1  0
  3  4  1  0
  4  5  2  0
  5  6  1  0
  6  7  2  0
  7  8  1  0
  7  9  1  0
  9 10  2  0
 10 11  1  0
 11 12  1  0
 12 13  2  0
 12 14  2  0
 12 15  1  0
 15 16  2  0
 16 17  1  0
 17 18  2  0
 18 19  1  0
 19 20  2  0
 11  2  2  0
 20 15  1  0
 10  4  1  0
  1 21  1  0
  1 22  1  0
  1 23  1  0
  3 24  1  0
  5 25  1  0
  6 26  1  0
  9 27  1  0
 16 28  1  0
 17 29  1  0
 18 30  1  0
 19 31  1  0
 20 32  1  0
M  END
>  <UniqueID>  (39) 
38

>  <SMILES>  (39) 
Cc1[nH]c2ccc(F)cc2c1S(=O)(=O)c1ccccc1

>  <Energy>  (39) 
68.45742004537345

>  <Genealogy>  (39) 
Cc1[nH]c2ccc(F)cc2c1S(=O)(=O)c1ccccc1 (3D coordinates assigned)
Cc1[nH]c2ccc(F)cc2c1S(=O)(=O)c1ccccc1 (optimized conformer: 68.45742004537345 kcal/mol)

>  <smiles>  (39) 
Cc1[nH]c2ccc(F)cc2c1S(=O)(=O)c1ccccc1

>  <score_type>  (39) 
oracle

>  <origin>  (39) 
adgpu

>  <m_score__min__energy>  (39) 
-7.7800000000000002

>  <m_primary>  (39) 
energy

$$$$
39:0
     RDKit          3D

 29 29  0  0  0  0  0  0  0  0999 V2000
   -6.8630   17.0030  -33.0420 C   0  0  0  0  0  0  0  0  0  0  0  0
   -7.2460   18.4180  -32.6920 C   0  0  0  0  0  0  0  0  0  0  0  0
   -8.4450   18.6550  -31.9970 C   0  0  0  0  0  0  0  0  0  0  0  0
   -8.8240   19.9560  -31.6630 C   0  0  0  0  0  0  0  0  0  0  0  0
   -8.0140   21.0370  -32.0170 C   0  0  0  0  0  0  0  0  0  0  0  0
   -8.5020   22.7080  -31.5770 S   0  0  0  0  0  0  0  0  0  0  0  0
   -6.8030   23.3910  -31.5770 C   0  0  0  0  0  0  0  0  0  0  0  0
   -6.6910   24.5610  -30.6010 C   0  0  0  0  0  0  0  0  0  0  0  0
   -5.7780   24.2330  -29.5060 N   0  0  0  0  0  0  0  0  0  0  0  0
   -4.3810   24.5460  -29.5280 C   0  0  0  0  0  0  0  0  0  0  0  0
   -3.8570   25.1080  -30.5260 O   0  0  0  0  0  0  0  0  0  0  0  0
   -6.8260   20.8170  -32.7170 C   0  0  0  0  0  0  0  0  0  0  0  0
   -6.4310   19.5140  -33.0650 C   0  0  0  0  0  0  0  0  0  0  0  0
   -5.1390   19.3080  -33.8130 C   0  0  0  0  0  0  0  0  0  0  0  0
   -6.7069   16.4263  -32.1184 H   0  0  0  0  0  0  0  0  0  0  0  0
   -7.6682   16.5403  -33.6315 H   0  0  0  0  0  0  0  0  0  0  0  0
   -5.9343   17.0096  -33.6315 H   0  0  0  0  0  0  0  0  0  0  0  0
   -9.0889   17.8091  -31.7145 H   0  0  0  0  0  0  0  0  0  0  0  0
   -9.7640   20.1305  -31.1190 H   0  0  0  0  0  0  0  0  0  0  0  0
   -6.0969   22.6024  -31.2778 H   0  0  0  0  0  0  0  0  0  0  0  0
   -6.5668   23.7511  -32.5892 H   0  0  0  0  0  0  0  0  0  0  0  0
   -6.3108   25.4434  -31.1366 H   0  0  0  0  0  0  0  0  0  0  0  0
   -7.6865   24.7697  -30.1821 H   0  0  0  0  0  0  0  0  0  0  0  0
   -6.1730   23.8050  -28.6380 H   0  0  0  0  0  0  0  0  0  0  0  0
   -3.7555   24.2916  -28.6596 H   0  0  0  0  0  0  0  0  0  0  0  0
   -6.1934   21.6716  -32.9987 H   0  0  0  0  0  0  0  0  0  0  0  0
   -4.3163   19.1768  -33.0947 H   0  0  0  0  0  0  0  0  0  0  0  0
   -5.2202   18.4115  -34.4452 H   0  0  0  0  0  0  0  0  0  0  0  0
   -4.9374   20.1853  -34.4452 H   0  0  0  0  0  0  0  0  0  0  0  0
  1  2  1  0
  2  3  2  0
  3  4  1  0
  4  5  2  0
  5  6  1  0
  6  7  1  0
  7  8  1  0
  8  9  1  0
  9 10  1  0
 10 11  2  0
  5 12  1  0
 12 13  2  0
 13 14  1  0
 13  2  1  0
  1 15  1  0
  1 16  1  0
  1 17  1  0
  3 18  1  0
  4 19  1  0
  7 20  1  0
  7 21  1  0
  8 22  1  0
  8 23  1  0
  9 24  1  0
 10 25  1  0
 12 26  1  0
 14 27  1  0
 14 28  1  0
 14 29  1  0
M  END
>  <UniqueID>  (40) 
39

>  <SMILES>  (40) 
Cc1ccc(SCCNC=O)cc1C

>  <Energy>  (40) 
20.401212099359082

>  <Genealogy>  (40) 
Cc1ccc(SCCNC=O)cc1C (3D coordinates assigned)
Cc1ccc(SCCNC=O)cc1C (optimized conformer: 20.401212099359082 kcal/mol)

>  <smiles>  (40) 
Cc1ccc(SCCNC=O)cc1C

>  <score_type>  (40) 
oracle

>  <origin>  (40) 
adgpu

>  <m_score__min__energy>  (40) 
-6.9900000000000002

>  <m_primary>  (40) 
energy

$$$$
40:0
     RDKit          3D

 33 35  0  0  0  0  0  0  0  0999 V2000
   -0.5884   26.2331  -28.6220 H   0  0  0  0  0  0  0  0  0  0  0  0
   -1.4250   25.5350  -28.4710 C   0  0  0  0  0  0  0  0  0  0  0  0
   -2.3770   25.2960  -29.3420 O   0  0  0  0  0  0  0  0  0  0  0  0
   -3.2090   24.4130  -28.8350 C   0  0  0  0  0  0  0  0  0  0  0  0
   -4.4050   23.9110  -29.5520 C   0  0  0  0  0  0  0  0  0  0  0  0
   -5.5840   24.6740  -29.6420 C   0  0  0  0  0  0  0  0  0  0  0  0
   -5.6277   25.6684  -29.1736 H   0  0  0  0  0  0  0  0  0  0  0  0
   -6.7000   24.1780  -30.3220 C   0  0  0  0  0  0  0  0  0  0  0  0
   -7.6158   24.7839  -30.3869 H   0  0  0  0  0  0  0  0  0  0  0  0
   -6.6570   22.9130  -30.9210 C   0  0  0  0  0  0  0  0  0  0  0  0
   -8.0630   22.2790  -31.7690 S   0  0  0  0  0  0  0  0  0  0  0  0
   -8.9810   21.5640  -30.8160 O   0  0  0  0  0  0  0  0  0  0  0  0
   -8.8070   23.4250  -32.3950 O   0  0  0  0  0  0  0  0  0  0  0  0
   -7.5670   21.1770  -33.0180 N   0  0  0  0  0  0  0  0  0  0  0  0
   -7.1430   19.9550  -32.8560 C   0  0  0  0  0  0  0  0  0  0  0  0
   -7.0390   19.3550  -31.5830 C   0  0  0  0  0  0  0  0  0  0  0  0
   -7.3255   19.9168  -30.6817 H   0  0  0  0  0  0  0  0  0  0  0  0
   -6.5710   18.0460  -31.4740 C   0  0  0  0  0  0  0  0  0  0  0  0
   -6.4860   17.5720  -30.4850 H   0  0  0  0  0  0  0  0  0  0  0  0
   -6.2110   17.3390  -32.6200 C   0  0  0  0  0  0  0  0  0  0  0  0
   -5.7550   16.0660  -32.5250 F   0  0  0  0  0  0  0  0  0  0  0  0
   -6.3260   17.9560  -33.8670 C   0  0  0  0  0  0  0  0  0  0  0  0
   -6.0463   17.4073  -34.7784 H   0  0  0  0  0  0  0  0  0  0  0  0
   -6.7830   19.2340  -33.9580 N   0  0  0  0  0  0  0  0  0  0  0  0
   -6.8570   19.6690  -34.9070 H   0  0  0  0  0  0  0  0  0  0  0  0
   -5.4850   22.1520  -30.8410 C   0  0  0  0  0  0  0  0  0  0  0  0
   -5.4427   21.1605  -31.3155 H   0  0  0  0  0  0  0  0  0  0  0  0
   -4.3680   22.6460  -30.1610 C   0  0  0  0  0  0  0  0  0  0  0  0
   -3.4525   22.0390  -30.1024 H   0  0  0  0  0  0  0  0  0  0  0  0
   -2.7820   24.0530  -27.5670 C   0  0  0  0  0  0  0  0  0  0  0  0
   -3.2614   23.3362  -26.8841 H   0  0  0  0  0  0  0  0  0  0  0  0
   -1.6330   24.7780  -27.3380 C   0  0  0  0  0  0  0  0  0  0  0  0
   -1.0076   24.7570  -26.4333 H   0  0  0  0  0  0  0  0  0  0  0  0
  1  2  1  0
  2  3  1  0
  3  4  1  0
  4  5  1  0
  5  6  2  0
  6  7  1  0
  6  8  1  0
  8  9  1  0
  8 10  2  0
 10 11  1  0
 11 12  2  0
 11 13  2  0
 11 14  1  0
 14 15  2  0
 15 16  1  0
 16 17  1  0
 16 18  2  0
 18 19  1  0
 18 20  1  0
 20 21  1  0
 20 22  2  0
 22 23  1  0
 22 24  1  0
 24 25  1  0
 10 26  1  0
 26 27  1  0
 26 28  2  0
 28 29  1  0
  4 30  2  0
 30 31  1  0
 30 32  1  0
 32 33  1  0
 32  2  2  0
 28  5  1  0
 24 15  1  0
M  END
>  <UniqueID>  (41) 
40

>  <SMILES>  (41) 
O=S(=O)(/N=c1\ccc(F)c[nH]1)c1ccc(-c2ccco2)cc1

>  <Energy>  (41) 
68.44615499823144

>  <Genealogy>  (41) 
O=S(=O)(/N=c1\ccc(F)c[nH]1)c1ccc(-c2ccco2)cc1 (cis-trans isomerization)
O=S(=O)(/N=c1\ccc(F)c[nH]1)c1ccc(-c2ccco2)cc1 (3D coordinates assigned)
O=S(=O)(/N=c1\ccc(F)c[nH]1)c1ccc(-c2ccco2)cc1 (optimized conformer: 68.44615499823144 kcal/mol)

>  <smiles>  (41) 
O=S(=O)(N=c1ccc(F)c[nH]1)c1ccc(-c2ccco2)cc1

>  <score_type>  (41) 
oracle

>  <origin>  (41) 
adgpu

>  <m_score__min__energy>  (41) 
-8.5800000000000001

>  <m_primary>  (41) 
energy

$$$$
41:0
     RDKit          3D

 24 25  0  0  0  0  0  0  0  0999 V2000
   -9.1730   21.9620  -31.5910 Cl  0  0  0  0  0  0  0  0  0  0  0  0
   -8.1900   20.5850  -32.0760 C   0  0  0  0  0  0  0  0  0  0  0  0
   -8.7480   19.3060  -31.9550 C   0  0  0  0  0  0  0  0  0  0  0  0
   -8.0200   18.1800  -32.3400 C   0  0  0  0  0  0  0  0  0  0  0  0
   -6.7300   18.3230  -32.8480 C   0  0  0  0  0  0  0  0  0  0  0  0
   -6.1610   19.5930  -32.9730 C   0  0  0  0  0  0  0  0  0  0  0  0
   -6.8820   20.7440  -32.5910 C   0  0  0  0  0  0  0  0  0  0  0  0
   -6.3020   22.0620  -32.7150 N   0  0  0  0  0  0  0  0  0  0  0  0
   -5.1410   22.5260  -31.9530 C   0  0  0  0  0  0  0  0  0  0  0  0
   -5.4860   23.7540  -31.1690 C   0  0  0  0  0  0  0  0  0  0  0  0
   -6.5750   23.8970  -30.3330 C   0  0  0  0  0  0  0  0  0  0  0  0
   -6.4940   25.1810  -29.8390 C   0  0  0  0  0  0  0  0  0  0  0  0
   -5.3610   25.7380  -30.4000 C   0  0  0  0  0  0  0  0  0  0  0  0
   -4.7820   24.8620  -31.1880 O   0  0  0  0  0  0  0  0  0  0  0  0
   -9.7657   19.1888  -31.5543 H   0  0  0  0  0  0  0  0  0  0  0  0
   -8.4644   17.1785  -32.2426 H   0  0  0  0  0  0  0  0  0  0  0  0
   -6.1583   17.4336  -33.1514 H   0  0  0  0  0  0  0  0  0  0  0  0
   -5.1415   19.6964  -33.3729 H   0  0  0  0  0  0  0  0  0  0  0  0
   -6.7020   22.7370  -33.4030 H   0  0  0  0  0  0  0  0  0  0  0  0
   -4.8212   21.7327  -31.2613 H   0  0  0  0  0  0  0  0  0  0  0  0
   -4.3284   22.7676  -32.6540 H   0  0  0  0  0  0  0  0  0  0  0  0
   -7.3453   23.1445  -30.1084 H   0  0  0  0  0  0  0  0  0  0  0  0
   -7.1910   25.6649  -29.1390 H   0  0  0  0  0  0  0  0  0  0  0  0
   -4.9991   26.7601  -30.2146 H   0  0  0  0  0  0  0  0  0  0  0  0
  1  2  1  0
  2  3  2  0
  3  4  1  0
  4  5  2  0
  5  6  1  0
  6  7  2  0
  7  8  1  0
  8  9  1  0
  9 10  1  0
 10 11  2  0
 11 12  1  0
 12 13  2  0
 13 14  1  0
  7  2  1  0
 14 10  1  0
  3 15  1  0
  4 16  1  0
  5 17  1  0
  6 18  1  0
  8 19  1  0
  9 20  1  0
  9 21  1  0
 11 22  1  0
 12 23  1  0
 13 24  1  0
M  END
>  <UniqueID>  (42) 
41

>  <SMILES>  (42) 
Clc1ccccc1NCc1ccco1

>  <Energy>  (42) 
50.41919438455542

>  <Genealogy>  (42) 
Clc1ccccc1NCc1ccco1 (3D coordinates assigned)
Clc1ccccc1NCc1ccco1 (optimized conformer: 50.41919438455542 kcal/mol)

>  <smiles>  (42) 
Clc1ccccc1NCc1ccco1

>  <score_type>  (42) 
oracle

>  <origin>  (42) 
adgpu

>  <m_score__min__energy>  (42) 
-6.8600000000000003

>  <m_primary>  (42) 
energy

$$$$
42:0
     RDKit          3D

 52 55  0  0  0  0  0  0  0  0999 V2000
   -1.1450   20.8770  -30.1630 C   0  0  0  0  0  0  0  0  0  0  0  0
   -2.1380   20.8880  -31.2870 C   0  0  0  0  0  0  0  0  0  0  0  0
   -2.6730   22.1000  -31.7450 C   0  0  0  0  0  0  0  0  0  0  0  0
   -3.5690   22.1140  -32.8170 C   0  0  0  0  0  0  0  0  0  0  0  0
   -3.9250   20.9200  -33.4490 C   0  0  0  0  0  0  0  0  0  0  0  0
   -3.3770   19.7010  -33.0190 C   0  0  0  0  0  0  0  0  0  0  0  0
   -3.7360   18.4360  -33.6990 C   0  0  0  0  0  0  0  0  0  0  0  0
   -2.8200   17.8600  -34.5940 C   0  0  0  0  0  0  0  0  0  0  0  0
   -3.0950   16.6350  -35.2000 C   0  0  0  0  0  0  0  0  0  0  0  0
   -4.2790   15.9600  -34.9090 C   0  0  0  0  0  0  0  0  0  0  0  0
   -5.2080   16.5090  -34.0140 C   0  0  0  0  0  0  0  0  0  0  0  0
   -6.5060   15.7910  -33.7680 C   0  0  0  0  0  0  0  0  0  0  0  0
   -4.9590   17.7720  -33.4370 C   0  0  0  0  0  0  0  0  0  0  0  0
   -5.9460   18.3490  -32.6210 O   0  0  0  0  0  0  0  0  0  0  0  0
   -7.2520   18.6840  -33.0910 C   0  0  0  0  0  0  0  0  0  0  0  0
   -7.6780   20.0200  -32.5450 C   0  0  0  0  0  0  0  0  0  0  0  0
   -9.0390   20.3180  -32.3950 C   0  0  0  0  0  0  0  0  0  0  0  0
   -9.4320   21.5280  -31.8220 C   0  0  0  0  0  0  0  0  0  0  0  0
   -8.4730   22.4440  -31.3860 C   0  0  0  0  0  0  0  0  0  0  0  0
   -7.1010   22.1580  -31.5140 C   0  0  0  0  0  0  0  0  0  0  0  0
   -6.0780   23.1220  -31.0310 C   0  0  0  0  0  0  0  0  0  0  0  0
   -5.7370   24.3480  -31.5870 C   0  0  0  0  0  0  0  0  0  0  0  0
   -4.7690   24.9230  -30.8470 N   0  0  0  0  0  0  0  0  0  0  0  0
   -4.4800   24.0960  -29.8550 N   0  0  0  0  0  0  0  0  0  0  0  0
   -3.5180   24.3930  -28.8050 C   0  0  0  0  0  0  0  0  0  0  0  0
   -5.2580   23.0010  -29.9230 C   0  0  0  0  0  0  0  0  0  0  0  0
   -6.7140   20.9360  -32.0970 C   0  0  0  0  0  0  0  0  0  0  0  0
   -2.4830   19.6910  -31.9340 C   0  0  0  0  0  0  0  0  0  0  0  0
   -1.6794   20.8829  -29.2016 H   0  0  0  0  0  0  0  0  0  0  0  0
   -0.5236   19.9719  -30.2315 H   0  0  0  0  0  0  0  0  0  0  0  0
   -0.5037   21.7681  -30.2315 H   0  0  0  0  0  0  0  0  0  0  0  0
   -2.3862   23.0439  -31.2584 H   0  0  0  0  0  0  0  0  0  0  0  0
   -3.9949   23.0670  -33.1640 H   0  0  0  0  0  0  0  0  0  0  0  0
   -4.6375   20.9350  -34.2869 H   0  0  0  0  0  0  0  0  0  0  0  0
   -1.8771   18.3800  -34.8189 H   0  0  0  0  0  0  0  0  0  0  0  0
   -2.3757   16.2001  -35.9096 H   0  0  0  0  0  0  0  0  0  0  0  0
   -4.4860   14.9900  -35.3847 H   0  0  0  0  0  0  0  0  0  0  0  0
   -6.6741   15.6980  -32.6849 H   0  0  0  0  0  0  0  0  0  0  0  0
   -7.3315   16.3608  -34.2196 H   0  0  0  0  0  0  0  0  0  0  0  0
   -6.4620   14.7889  -34.2196 H   0  0  0  0  0  0  0  0  0  0  0  0
   -7.2417   18.7280  -34.1901 H   0  0  0  0  0  0  0  0  0  0  0  0
   -7.9622   17.9160  -32.7507 H   0  0  0  0  0  0  0  0  0  0  0  0
   -9.7990   19.5966  -32.7296 H   0  0  0  0  0  0  0  0  0  0  0  0
  -10.5015   21.7610  -31.7134 H   0  0  0  0  0  0  0  0  0  0  0  0
   -8.7923   23.3969  -30.9388 H   0  0  0  0  0  0  0  0  0  0  0  0
   -6.1875   24.7824  -32.4916 H   0  0  0  0  0  0  0  0  0  0  0  0
   -3.9908   24.2470  -27.8226 H   0  0  0  0  0  0  0  0  0  0  0  0
   -2.6529   23.7201  -28.8992 H   0  0  0  0  0  0  0  0  0  0  0  0
   -3.1828   25.4364  -28.8992 H   0  0  0  0  0  0  0  0  0  0  0  0
   -5.2447   22.1555  -29.2195 H   0  0  0  0  0  0  0  0  0  0  0  0
   -5.6454   20.6971  -32.2023 H   0  0  0  0  0  0  0  0  0  0  0  0
   -2.0513   18.7395  -31.5900 H   0  0  0  0  0  0  0  0  0  0  0  0
  1  2  1  0
  2  3  2  0
  3  4  1  0
  4  5  2  0
  5  6  1  0
  6  7  1  0
  7  8  2  0
  8  9  1  0
  9 10  2  0
 10 11  1  0
 11 12  1  0
 11 13  2  0
 13 14  1  0
 14 15  1  0
 15 16  1  0
 16 17  2  0
 17 18  1  0
 18 19  2  0
 19 20  1  0
 20 21  1  0
 21 22  1  0
 22 23  2  0
 23 24  1  0
 24 25  1  0
 24 26  1  0
 20 27  2  0
  6 28  2  0
 28  2  1  0
 13  7  1  0
 27 16  1  0
 26 21  2  0
  1 29  1  0
  1 30  1  0
  1 31  1  0
  3 32  1  0
  4 33  1  0
  5 34  1  0
  8 35  1  0
  9 36  1  0
 10 37  1  0
 12 38  1  0
 12 39  1  0
 12 40  1  0
 15 41  1  0
 15 42  1  0
 17 43  1  0
 18 44  1  0
 19 45  1  0
 22 46  1  0
 25 47  1  0
 25 48  1  0
 25 49  1  0
 26 50  1  0
 27 51  1  0
 28 52  1  0
M  END
>  <UniqueID>  (43) 
42

>  <SMILES>  (43) 
Cc1cccc(-c2cccc(C)c2OCc2cccc(-c3cnn(C)c3)c2)c1

>  <Energy>  (43) 
95.00013701882257

>  <Genealogy>  (43) 
Cc1cccc(-c2cccc(C)c2OCc2cccc(-c3cnn(C)c3)c2)c1 (3D coordinates assigned)
Cc1cccc(-c2cccc(C)c2OCc2cccc(-c3cnn(C)c3)c2)c1 (optimized conformer: 95.00013701882257 kcal/mol)

>  <smiles>  (43) 
Cc1cccc(-c2cccc(C)c2OCc2cccc(-c3cnn(C)c3)c2)c1

>  <score_type>  (43) 
oracle

>  <origin>  (43) 
adgpu

>  <m_score__min__energy>  (43) 
-9.7300000000000004

>  <m_primary>  (43) 
energy

$$$$
43:0
     RDKit          3D

 30 32  0  0  0  0  0  0  0  0999 V2000
   -5.4560   12.0810  -33.4010 O   0  0  0  0  0  0  0  0  0  0  0  0
   -5.5480   13.0180  -34.2210 N   0  0  0  0  0  0  0  0  0  0  0  0
   -5.4890   12.7290  -35.5650 O   0  0  0  0  0  0  0  0  0  0  0  0
   -5.7140   14.3740  -33.7700 C   0  0  0  0  0  0  0  0  0  0  0  0
   -4.8030   14.9380  -32.8620 C   0  0  0  0  0  0  0  0  0  0  0  0
   -4.9610   16.2560  -32.4220 C   0  0  0  0  0  0  0  0  0  0  0  0
   -6.0340   17.0400  -32.8810 C   0  0  0  0  0  0  0  0  0  0  0  0
   -6.2170   18.4400  -32.4250 C   0  0  0  0  0  0  0  0  0  0  0  0
   -5.2320   19.3940  -32.2340 C   0  0  0  0  0  0  0  0  0  0  0  0
   -5.9280   20.5120  -31.8110 C   0  0  0  0  0  0  0  0  0  0  0  0
   -5.3770   21.8400  -31.4560 C   0  0  0  0  0  0  0  0  0  0  0  0
   -4.0980   21.9750  -30.8830 C   0  0  0  0  0  0  0  0  0  0  0  0
   -3.6000   23.2410  -30.5580 C   0  0  0  0  0  0  0  0  0  0  0  0
   -4.3690   24.3810  -30.7990 C   0  0  0  0  0  0  0  0  0  0  0  0
   -3.8710   25.6380  -30.4750 O   0  0  0  0  0  0  0  0  0  0  0  0
   -5.6390   24.2590  -31.3680 C   0  0  0  0  0  0  0  0  0  0  0  0
   -6.1410   22.9950  -31.6960 C   0  0  0  0  0  0  0  0  0  0  0  0
   -7.2060   20.2120  -31.7670 O   0  0  0  0  0  0  0  0  0  0  0  0
   -7.4170   18.9800  -32.1270 N   0  0  0  0  0  0  0  0  0  0  0  0
   -6.9440   16.4740  -33.7900 C   0  0  0  0  0  0  0  0  0  0  0  0
   -6.7870   15.1580  -34.2300 C   0  0  0  0  0  0  0  0  0  0  0  0
   -3.9579   14.3378  -32.4937 H   0  0  0  0  0  0  0  0  0  0  0  0
   -4.2392   16.6832  -31.7103 H   0  0  0  0  0  0  0  0  0  0  0  0
   -4.1475   19.2876  -32.3839 H   0  0  0  0  0  0  0  0  0  0  0  0
   -3.4875   21.0806  -30.6900 H   0  0  0  0  0  0  0  0  0  0  0  0
   -2.5996   23.3387  -30.1112 H   0  0  0  0  0  0  0  0  0  0  0  0
   -6.2447   25.1573  -31.5583 H   0  0  0  0  0  0  0  0  0  0  0  0
   -7.1411   22.9045  -32.1451 H   0  0  0  0  0  0  0  0  0  0  0  0
   -7.7890   17.0739  -34.1589 H   0  0  0  0  0  0  0  0  0  0  0  0
   -7.5085   14.7312  -34.9422 H   0  0  0  0  0  0  0  0  0  0  0  0
  1  2  2  0
  2  3  1  0
  2  4  1  0
  4  5  2  0
  5  6  1  0
  6  7  2  0
  7  8  1  0
  8  9  1  0
  9 10  2  0
 10 11  1  0
 11 12  2  0
 12 13  1  0
 13 14  2  0
 14 15  1  0
 14 16  1  0
 16 17  2  0
 10 18  1  0
 18 19  1  0
  7 20  1  0
 20 21  2  0
 21  4  1  0
 19  8  2  0
 17 11  1  0
  5 22  1  0
  6 23  1  0
  9 24  1  0
 12 25  1  0
 13 26  1  0
 16 27  1  0
 17 28  1  0
 20 29  1  0
 21 30  1  0
M  CHG  3   2   1   3  -1  15  -1
M  END
>  <UniqueID>  (44) 
43

>  <SMILES>  (44) 
O=[N+]([O-])c1ccc(-c2cc(-c3ccc([O-])cc3)on2)cc1

>  <Energy>  (44) 
67.03060416606776

>  <Genealogy>  (44) 
O=[N+]([O-])c1ccc(-c2cc(-c3ccc([O-])cc3)on2)cc1 (protonated)
O=[N+]([O-])c1ccc(-c2cc(-c3ccc([O-])cc3)on2)cc1 (3D coordinates assigned)
O=[N+]([O-])c1ccc(-c2cc(-c3ccc([O-])cc3)on2)cc1 (optimized conformer: 67.03060416606776 kcal/mol)

>  <smiles>  (44) 
O=[N+]([O-])c1ccc(-c2cc(-c3ccc(O)cc3)on2)cc1

>  <score_type>  (44) 
oracle

>  <origin>  (44) 
adgpu

>  <m_score__min__energy>  (44) 
-9.3300000000000001

>  <m_primary>  (44) 
energy

$$$$
44:0
     RDKit          3D

 17 18  0  0  0  0  0  0  0  0999 V2000
   -8.6860   20.2730  -32.2430 C   0  0  0  0  0  0  0  0  0  0  0  0
   -8.0020   21.5700  -31.9620 C   0  0  0  0  0  0  0  0  0  0  0  0
   -8.5860   22.8220  -31.9540 C   0  0  0  0  0  0  0  0  0  0  0  0
   -7.6920   23.7130  -31.5880 O   0  0  0  0  0  0  0  0  0  0  0  0
   -6.5570   23.0950  -31.3460 C   0  0  0  0  0  0  0  0  0  0  0  0
   -5.3340   23.7710  -30.9090 C   0  0  0  0  0  0  0  0  0  0  0  0
   -5.0290   25.0490  -31.2110 N   0  0  0  0  0  0  0  0  0  0  0  0
   -3.8580   25.2950  -30.6440 N   0  0  0  0  0  0  0  0  0  0  0  0
   -3.5010   24.1570  -30.0220 C   0  0  0  0  0  0  0  0  0  0  0  0
   -2.1160   23.9760  -29.1760 S   0  0  0  0  0  0  0  0  0  0  0  0
   -4.3980   23.2160  -30.1780 O   0  0  0  0  0  0  0  0  0  0  0  0
   -6.6950   21.7370  -31.5560 C   0  0  0  0  0  0  0  0  0  0  0  0
   -8.9450   19.7818  -31.2935 H   0  0  0  0  0  0  0  0  0  0  0  0
   -9.6029   20.4598  -32.8213 H   0  0  0  0  0  0  0  0  0  0  0  0
   -8.0140   19.6218  -32.8213 H   0  0  0  0  0  0  0  0  0  0  0  0
   -9.6329   23.0387  -32.2128 H   0  0  0  0  0  0  0  0  0  0  0  0
   -5.9289   20.9582  -31.4274 H   0  0  0  0  0  0  0  0  0  0  0  0
  1  2  1  0
  2  3  2  0
  3  4  1  0
  4  5  1  0
  5  6  1  0
  6  7  2  0
  7  8  1  0
  8  9  1  0
  9 10  2  0
  9 11  1  0
  5 12  2  0
 12  2  1  0
 11  6  1  0
  1 13  1  0
  1 14  1  0
  1 15  1  0
  3 16  1  0
 12 17  1  0
M  CHG  1   8  -1
M  END
>  <UniqueID>  (45) 
44

>  <SMILES>  (45) 
Cc1coc(-c2n[n-]c(=S)o2)c1

>  <Energy>  (45) 
76.21983217443056

>  <Genealogy>  (45) 
Cc1coc(-c2n[n-]c(=S)o2)c1 (protonated)
Cc1coc(-c2n[n-]c(=S)o2)c1 (3D coordinates assigned)
Cc1coc(-c2n[n-]c(=S)o2)c1 (optimized conformer: 76.21983217443056 kcal/mol)

>  <smiles>  (45) 
Cc1coc(-c2n[nH]c(=S)o2)c1

>  <score_type>  (45) 
oracle

>  <origin>  (45) 
adgpu

>  <m_score__min__energy>  (45) 
-6.9000000000000004

>  <m_primary>  (45) 
energy

$$$$
45:0
     RDKit          3D

 36 38  0  0  0  0  0  0  0  0999 V2000
   -1.6520   25.6800  -28.9540 O   0  0  0  0  0  0  0  0  0  0  0  0
   -2.4800   24.8260  -29.3720 C   0  0  0  0  0  0  0  0  0  0  0  0
   -3.4970   25.2120  -30.3070 N   0  0  0  0  0  0  0  0  0  0  0  0
   -4.5980   24.4090  -30.7580 C   0  0  0  0  0  0  0  0  0  0  0  0
   -4.3250   23.1760  -31.3630 C   0  0  0  0  0  0  0  0  0  0  0  0
   -5.3670   22.3720  -31.8340 C   0  0  0  0  0  0  0  0  0  0  0  0
   -6.7010   22.7960  -31.7110 C   0  0  0  0  0  0  0  0  0  0  0  0
   -7.7720   22.0260  -32.1850 O   0  0  0  0  0  0  0  0  0  0  0  0
   -7.7950   20.6260  -32.2640 C   0  0  0  0  0  0  0  0  0  0  0  0
   -6.8470   19.9050  -33.0140 C   0  0  0  0  0  0  0  0  0  0  0  0
   -6.8950   18.5080  -33.0530 C   0  0  0  0  0  0  0  0  0  0  0  0
   -7.8780   17.8200  -32.3380 C   0  0  0  0  0  0  0  0  0  0  0  0
   -8.8110   18.5300  -31.5760 C   0  0  0  0  0  0  0  0  0  0  0  0
   -8.7660   19.9260  -31.5340 C   0  0  0  0  0  0  0  0  0  0  0  0
   -6.9710   24.0490  -31.1470 C   0  0  0  0  0  0  0  0  0  0  0  0
   -5.9290   24.8530  -30.6740 C   0  0  0  0  0  0  0  0  0  0  0  0
   -2.3940   23.4280  -28.8840 C   0  0  0  0  0  0  0  0  0  0  0  0
   -1.5130   22.5410  -29.5340 C   0  0  0  0  0  0  0  0  0  0  0  0
   -1.4110   21.2090  -29.1270 C   0  0  0  0  0  0  0  0  0  0  0  0
   -0.3150   20.1190  -29.9570 Cl  0  0  0  0  0  0  0  0  0  0  0  0
   -2.1800   20.7440  -28.0600 C   0  0  0  0  0  0  0  0  0  0  0  0
   -3.0480   21.6100  -27.3950 C   0  0  0  0  0  0  0  0  0  0  0  0
   -3.1620   22.9490  -27.7920 C   0  0  0  0  0  0  0  0  0  0  0  0
   -4.2200   23.9860  -26.8380 Cl  0  0  0  0  0  0  0  0  0  0  0  0
   -3.2836   22.8378  -31.4683 H   0  0  0  0  0  0  0  0  0  0  0  0
   -5.1416   21.4029  -32.3031 H   0  0  0  0  0  0  0  0  0  0  0  0
   -6.0656   20.4423  -33.5714 H   0  0  0  0  0  0  0  0  0  0  0  0
   -6.1571   17.9498  -33.6480 H   0  0  0  0  0  0  0  0  0  0  0  0
   -7.9181   16.7213  -32.3743 H   0  0  0  0  0  0  0  0  0  0  0  0
   -9.5821   17.9884  -31.0084 H   0  0  0  0  0  0  0  0  0  0  0  0
   -9.4964   20.4788  -30.9249 H   0  0  0  0  0  0  0  0  0  0  0  0
   -8.0099   24.4033  -31.0755 H   0  0  0  0  0  0  0  0  0  0  0  0
   -6.1519   25.8365  -30.2346 H   0  0  0  0  0  0  0  0  0  0  0  0
   -0.8984   22.9020  -30.3718 H   0  0  0  0  0  0  0  0  0  0  0  0
   -2.1018   19.6936  -27.7428 H   0  0  0  0  0  0  0  0  0  0  0  0
   -3.6483   21.2385  -26.5514 H   0  0  0  0  0  0  0  0  0  0  0  0
  1  2  2  0
  2  3  1  0
  3  4  1  0
  4  5  2  0
  5  6  1  0
  6  7  2  0
  7  8  1  0
  8  9  1  0
  9 10  2  0
 10 11  1  0
 11 12  2  0
 12 13  1  0
 13 14  2  0
  7 15  1  0
 15 16  2  0
  2 17  1  0
 17 18  2  0
 18 19  1  0
 19 20  1  0
 19 21  2  0
 21 22  1  0
 22 23  2  0
 23 24  1  0
 16  4  1  0
 23 17  1  0
 14  9  1  0
  5 25  1  0
  6 26  1  0
 10 27  1  0
 11 28  1  0
 12 29  1  0
 13 30  1  0
 14 31  1  0
 15 32  1  0
 16 33  1  0
 18 34  1  0
 21 35  1  0
 22 36  1  0
M  CHG  1   3  -1
M  END
>  <UniqueID>  (46) 
45

>  <SMILES>  (46) 
O=C([N-]c1ccc(Oc2ccccc2)cc1)c1cc(Cl)ccc1Cl

>  <Energy>  (46) 
54.01251460920129

>  <Genealogy>  (46) 
O=C([N-]c1ccc(Oc2ccccc2)cc1)c1cc(Cl)ccc1Cl (protonated)
O=C([N-]c1ccc(Oc2ccccc2)cc1)c1cc(Cl)ccc1Cl (3D coordinates assigned)
O=C([N-]c1ccc(Oc2ccccc2)cc1)c1cc(Cl)ccc1Cl (optimized conformer: 54.01251460920129 kcal/mol)

>  <smiles>  (46) 
O=C(Nc1ccc(Oc2ccccc2)cc1)c1cc(Cl)ccc1Cl

>  <score_type>  (46) 
oracle

>  <origin>  (46) 
adgpu

>  <m_score__min__energy>  (46) 
-10.32

>  <m_primary>  (46) 
energy

$$$$
46:0
     RDKit          3D

 48 51  0  0  0  0  0  0  0  0999 V2000
   -1.3990   28.4773  -24.6715 H   0  0  0  0  0  0  0  0  0  0  0  0
   -1.2320   27.6830  -25.4140 C   0  0  0  0  0  0  0  0  0  0  0  0
   -1.7890   26.4170  -25.2200 C   0  0  0  0  0  0  0  0  0  0  0  0
   -2.4033   26.2180  -24.3295 H   0  0  0  0  0  0  0  0  0  0  0  0
   -1.5670   25.4020  -26.1560 C   0  0  0  0  0  0  0  0  0  0  0  0
   -2.0197   24.4105  -26.0073 H   0  0  0  0  0  0  0  0  0  0  0  0
   -0.7660   25.6450  -27.2880 C   0  0  0  0  0  0  0  0  0  0  0  0
   -0.5370   24.6420  -28.2910 N   0  0  0  0  0  0  0  0  0  0  0  0
   -1.4240   24.1150  -29.0830 C   0  0  0  0  0  0  0  0  0  0  0  0
   -1.0280   23.2080  -30.0080 N   0  0  0  0  0  0  0  0  0  0  0  0
   -1.9250   22.6160  -30.8430 C   0  0  0  0  0  0  0  0  0  0  0  0
   -1.4560   21.6790  -31.8470 N   0  0  0  0  0  0  0  0  0  0  0  0
   -2.2770   21.3990  -33.0410 C   0  0  0  0  0  0  0  0  0  0  0  0
   -3.2802   21.0910  -32.7113 H   0  0  0  0  0  0  0  0  0  0  0  0
   -2.3047   22.3197  -33.6424 H   0  0  0  0  0  0  0  0  0  0  0  0
   -1.6940   20.2920  -33.9280 C   0  0  0  0  0  0  0  0  0  0  0  0
   -1.9638   19.3133  -33.5044 H   0  0  0  0  0  0  0  0  0  0  0  0
   -2.1076   20.4033  -34.9412 H   0  0  0  0  0  0  0  0  0  0  0  0
   -0.2900   20.3880  -34.0060 O   0  0  0  0  0  0  0  0  0  0  0  0
    0.2510   20.0820  -32.7420 C   0  0  0  0  0  0  0  0  0  0  0  0
   -0.1766   19.1330  -32.3863 H   0  0  0  0  0  0  0  0  0  0  0  0
    1.3436   19.9967  -32.8362 H   0  0  0  0  0  0  0  0  0  0  0  0
   -0.0710   21.1870  -31.7340 C   0  0  0  0  0  0  0  0  0  0  0  0
    0.0793   20.7910  -30.7188 H   0  0  0  0  0  0  0  0  0  0  0  0
    0.5989   22.0334  -31.9459 H   0  0  0  0  0  0  0  0  0  0  0  0
   -3.2480   22.9420  -30.7310 N   0  0  0  0  0  0  0  0  0  0  0  0
   -3.9380   22.5470  -31.4010 H   0  0  0  0  0  0  0  0  0  0  0  0
   -3.6610   23.8320  -29.7780 C   0  0  0  0  0  0  0  0  0  0  0  0
   -4.9160   24.1620  -29.6400 N   0  0  0  0  0  0  0  0  0  0  0  0
   -6.0370   23.5700  -30.3120 C   0  0  0  0  0  0  0  0  0  0  0  0
   -6.3410   23.9630  -31.6230 C   0  0  0  0  0  0  0  0  0  0  0  0
   -5.7093   24.7056  -32.1325 H   0  0  0  0  0  0  0  0  0  0  0  0
   -7.4440   23.4150  -32.2860 C   0  0  0  0  0  0  0  0  0  0  0  0
   -7.6702   23.7203  -33.3183 H   0  0  0  0  0  0  0  0  0  0  0  0
   -8.2640   22.4760  -31.6380 C   0  0  0  0  0  0  0  0  0  0  0  0
   -9.4590   21.9030  -32.3360 C   0  0  0  0  0  0  0  0  0  0  0  0
  -10.1873   21.5538  -31.5893 H   0  0  0  0  0  0  0  0  0  0  0  0
   -9.9220   22.6771  -32.9657 H   0  0  0  0  0  0  0  0  0  0  0  0
   -9.1453   21.0574  -32.9657 H   0  0  0  0  0  0  0  0  0  0  0  0
   -7.9920   22.1270  -30.3050 C   0  0  0  0  0  0  0  0  0  0  0  0
   -8.6504   21.4204  -29.7785 H   0  0  0  0  0  0  0  0  0  0  0  0
   -6.8900   22.6730  -29.6460 C   0  0  0  0  0  0  0  0  0  0  0  0
   -6.6877   22.4001  -28.5998 H   0  0  0  0  0  0  0  0  0  0  0  0
   -2.7420   24.4190  -28.9710 N   0  0  0  0  0  0  0  0  0  0  0  0
   -0.2390   26.9280  -27.4910 C   0  0  0  0  0  0  0  0  0  0  0  0
    0.3533   27.1402  -28.3933 H   0  0  0  0  0  0  0  0  0  0  0  0
   -0.4630   27.9400  -26.5510 C   0  0  0  0  0  0  0  0  0  0  0  0
   -0.0325   28.9400  -26.7080 H   0  0  0  0  0  0  0  0  0  0  0  0
  1  2  1  0
  2  3  2  0
  3  4  1  0
  3  5  1  0
  5  6  1  0
  5  7  2  0
  7  8  1  0
  8  9  2  0
  9 10  1  0
 10 11  2  0
 11 12  1  0
 12 13  1  0
 13 14  1  0
 13 15  1  0
 13 16  1  0
 16 17  1  0
 16 18  1  0
 16 19  1  0
 19 20  1  0
 20 21  1  0
 20 22  1  0
 20 23  1  0
 23 24  1  0
 23 25  1  0
 11 26  1  0
 26 27  1  0
 26 28  1  0
 28 29  2  0
 29 30  1  0
 30 31  2  0
 31 32  1  0
 31 33  1  0
 33 34  1  0
 33 35  2  0
 35 36  1  0
 36 37  1  0
 36 38  1  0
 36 39  1  0
 35 40  1  0
 40 41  1  0
 40 42  2  0
 42 43  1  0
 28 44  1  0
  7 45  1  0
 45 46  1  0
 45 47  2  0
 47 48  1  0
 47  2  1  0
 44  9  1  0
 23 12  1  0
 42 30  1  0
M  CHG  1  44  -1
M  END
>  <UniqueID>  (47) 
46

>  <SMILES>  (47) 
Cc1ccc(/N=c2/[n-]/c(=N\c3ccccc3)nc(N3CCOCC3)[nH]2)cc1

>  <Energy>  (47) 
70.3350024962638

>  <Genealogy>  (47) 
Cc1ccc(N=c2[n-]c(=Nc3ccccc3)nc(N3CCOCC3)[nH]2)cc1 (protonated)
Cc1ccc(/N=c2/[n-]/c(=N\c3ccccc3)nc(N3CCOCC3)[nH]2)cc1 (cis-trans isomerization)
Cc1ccc(/N=c2/[n-]/c(=N\c3ccccc3)nc(N3CCOCC3)[nH]2)cc1 (3D coordinates assigned)
Cc1ccc(/N=c2/[n-]/c(=N\c3ccccc3)nc(N3CCOCC3)[nH]2)cc1 (nonaromatic ring conformer: 70.3350024962638 kcal/mol)

>  <smiles>  (47) 
Cc1ccc(N=c2[nH]c(N3CCOCC3)nc(=Nc3ccccc3)[nH]2)cc1

>  <score_type>  (47) 
oracle

>  <origin>  (47) 
adgpu

>  <m_score__min__energy>  (47) 
-8.5199999999999996

>  <m_primary>  (47) 
energy

$$$$
47:0
     RDKit          3D

 45 47  0  0  0  0  0  0  0  0999 V2000
    3.0120   19.3160  -33.4490 C   0  0  0  0  0  0  0  0  0  0  0  0
    1.7730   20.0880  -33.8230 C   0  0  0  0  0  0  0  0  0  0  0  0
    1.7540   20.7930  -35.0380 C   0  0  0  0  0  0  0  0  0  0  0  0
    0.6280   21.5200  -35.4190 C   0  0  0  0  0  0  0  0  0  0  0  0
   -0.4910   21.5600  -34.5930 C   0  0  0  0  0  0  0  0  0  0  0  0
   -0.5030   20.8620  -33.3800 C   0  0  0  0  0  0  0  0  0  0  0  0
   -1.6690   20.9490  -32.5490 N   0  0  0  0  0  0  0  0  0  0  0  0
   -1.7000   21.9320  -31.4590 C   0  0  0  0  0  0  0  0  0  0  0  0
   -3.0210   21.8610  -30.6890 C   0  0  0  0  0  0  0  0  0  0  0  0
   -4.1470   21.8260  -31.6330 N   0  0  0  0  0  0  0  0  0  0  0  0
   -5.1940   22.8070  -31.5370 C   0  0  0  0  0  0  0  0  0  0  0  0
   -4.8930   24.0120  -31.3200 O   0  0  0  0  0  0  0  0  0  0  0  0
   -6.6170   22.4310  -31.6930 C   0  0  0  0  0  0  0  0  0  0  0  0
   -7.5990   23.4260  -31.8310 C   0  0  0  0  0  0  0  0  0  0  0  0
   -8.9460   23.0760  -31.9660 C   0  0  0  0  0  0  0  0  0  0  0  0
   -9.3250   21.7320  -31.9540 C   0  0  0  0  0  0  0  0  0  0  0  0
   -8.3580   20.7310  -31.8000 C   0  0  0  0  0  0  0  0  0  0  0  0
   -8.7500   19.3470  -31.7730 C   0  0  0  0  0  0  0  0  0  0  0  0
   -9.0660   18.2340  -31.7520 N   0  0  0  0  0  0  0  0  0  0  0  0
   -7.0080   21.0810  -31.6640 C   0  0  0  0  0  0  0  0  0  0  0  0
   -4.1150   20.9110  -32.7880 C   0  0  0  0  0  0  0  0  0  0  0  0
   -2.8230   20.0860  -32.8210 C   0  0  0  0  0  0  0  0  0  0  0  0
    0.6210   20.0910  -32.9940 C   0  0  0  0  0  0  0  0  0  0  0  0
    0.6100   19.3210  -31.6930 C   0  0  0  0  0  0  0  0  0  0  0  0
    3.0950   19.2643  -32.3534 H   0  0  0  0  0  0  0  0  0  0  0  0
    2.9477   18.2978  -33.8603 H   0  0  0  0  0  0  0  0  0  0  0  0
    3.8977   19.8224  -33.8603 H   0  0  0  0  0  0  0  0  0  0  0  0
    2.6362   20.7709  -35.6947 H   0  0  0  0  0  0  0  0  0  0  0  0
    0.6237   22.0637  -36.3752 H   0  0  0  0  0  0  0  0  0  0  0  0
   -1.3725   22.1444  -34.8955 H   0  0  0  0  0  0  0  0  0  0  0  0
   -0.8697   21.7273  -30.7672 H   0  0  0  0  0  0  0  0  0  0  0  0
   -1.6029   22.9379  -31.8934 H   0  0  0  0  0  0  0  0  0  0  0  0
   -3.0347   20.9514  -30.0706 H   0  0  0  0  0  0  0  0  0  0  0  0
   -3.1142   22.7484  -30.0457 H   0  0  0  0  0  0  0  0  0  0  0  0
   -7.3066   24.4864  -31.8329 H   0  0  0  0  0  0  0  0  0  0  0  0
   -9.7083   23.8605  -32.0818 H   0  0  0  0  0  0  0  0  0  0  0  0
  -10.3848   21.4593  -32.0657 H   0  0  0  0  0  0  0  0  0  0  0  0
   -6.2497   20.2948  -31.5338 H   0  0  0  0  0  0  0  0  0  0  0  0
   -4.9737   20.2265  -32.7247 H   0  0  0  0  0  0  0  0  0  0  0  0
   -4.1601   21.5152  -33.7061 H   0  0  0  0  0  0  0  0  0  0  0  0
   -2.8755   19.2965  -32.0568 H   0  0  0  0  0  0  0  0  0  0  0  0
   -2.7088   19.6342  -33.8174 H   0  0  0  0  0  0  0  0  0  0  0  0
    0.6201   20.0266  -30.8492 H   0  0  0  0  0  0  0  0  0  0  0  0
   -0.2971   18.7009  -31.6416 H   0  0  0  0  0  0  0  0  0  0  0  0
    1.4990   18.6752  -31.6416 H   0  0  0  0  0  0  0  0  0  0  0  0
  1  2  1  0
  2  3  2  0
  3  4  1  0
  4  5  2  0
  5  6  1  0
  6  7  1  0
  7  8  1  0
  8  9  1  0
  9 10  1  0
 10 11  1  0
 11 12  2  0
 11 13  1  0
 13 14  2  0
 14 15  1  0
 15 16  2  0
 16 17  1  0
 17 18  1  0
 18 19  3  0
 17 20  2  0
 10 21  1  0
 21 22  1  0
  6 23  2  0
 23 24  1  0
 23  2  1  0
 22  7  1  0
 20 13  1  0
  1 25  1  0
  1 26  1  0
  1 27  1  0
  3 28  1  0
  4 29  1  0
  5 30  1  0
  8 31  1  0
  8 32  1  0
  9 33  1  0
  9 34  1  0
 14 35  1  0
 15 36  1  0
 16 37  1  0
 20 38  1  0
 21 39  1  0
 21 40  1  0
 22 41  1  0
 22 42  1  0
 24 43  1  0
 24 44  1  0
 24 45  1  0
M  END
>  <UniqueID>  (48) 
47

>  <SMILES>  (48) 
Cc1cccc(N2CCN(C(=O)c3cccc(C#N)c3)CC2)c1C

>  <Energy>  (48) 
58.19590316015044

>  <Genealogy>  (48) 
Cc1cccc(N2CCN(C(=O)c3cccc(C#N)c3)CC2)c1C (3D coordinates assigned)
Cc1cccc(N2CCN(C(=O)c3cccc(C#N)c3)CC2)c1C (nonaromatic ring conformer: 58.19590316015044 kcal/mol)

>  <smiles>  (48) 
Cc1cccc(N2CCN(C(=O)c3cccc(C#N)c3)CC2)c1C

>  <score_type>  (48) 
oracle

>  <origin>  (48) 
adgpu

>  <m_score__min__energy>  (48) 
-8.2100000000000009

>  <m_primary>  (48) 
energy

$$$$
48:0
     RDKit          3D

 17 18  0  0  0  0  0  0  0  0999 V2000
   -9.4900   18.9670  -32.5670 F   0  0  0  0  0  0  0  0  0  0  0  0
   -8.5990   19.9460  -32.2750 C   0  0  0  0  0  0  0  0  0  0  0  0
   -8.8700   20.8530  -31.2480 C   0  0  0  0  0  0  0  0  0  0  0  0
   -7.9530   21.8640  -30.9460 C   0  0  0  0  0  0  0  0  0  0  0  0
   -6.7510   21.9740  -31.6670 C   0  0  0  0  0  0  0  0  0  0  0  0
   -5.7910   23.0550  -31.3560 C   0  0  0  0  0  0  0  0  0  0  0  0
   -6.1380   24.6810  -31.1990 S   0  0  0  0  0  0  0  0  0  0  0  0
   -4.6110   25.2180  -30.8400 N   0  0  0  0  0  0  0  0  0  0  0  0
   -3.8040   24.1610  -30.8390 N   0  0  0  0  0  0  0  0  0  0  0  0
   -4.4140   22.9690  -31.1140 C   0  0  0  0  0  0  0  0  0  0  0  0
   -3.4810   21.4870  -31.2320 Cl  0  0  0  0  0  0  0  0  0  0  0  0
   -6.4920   21.0630  -32.7090 C   0  0  0  0  0  0  0  0  0  0  0  0
   -5.3390   21.1300  -33.4210 F   0  0  0  0  0  0  0  0  0  0  0  0
   -7.4130   20.0530  -33.0050 C   0  0  0  0  0  0  0  0  0  0  0  0
   -9.8061   20.7717  -30.6761 H   0  0  0  0  0  0  0  0  0  0  0  0
   -8.1733   22.5782  -30.1389 H   0  0  0  0  0  0  0  0  0  0  0  0
   -7.2026   19.3401  -33.8159 H   0  0  0  0  0  0  0  0  0  0  0  0
  1  2  1  0
  2  3  2  0
  3  4  1  0
  4  5  2  0
  5  6  1  0
  6  7  1  0
  7  8  1  0
  8  9  2  0
  9 10  1  0
 10 11  1  0
  5 12  1  0
 12 13  1  0
 12 14  2  0
 14  2  1  0
 10  6  2  0
  3 15  1  0
  4 16  1  0
 14 17  1  0
M  END
>  <UniqueID>  (49) 
48

>  <SMILES>  (49) 
Fc1ccc(-c2snnc2Cl)c(F)c1

>  <Energy>  (49) 
60.81367393835272

>  <Genealogy>  (49) 
Fc1ccc(-c2snnc2Cl)c(F)c1 (3D coordinates assigned)
Fc1ccc(-c2snnc2Cl)c(F)c1 (optimized conformer: 60.81367393835272 kcal/mol)

>  <smiles>  (49) 
Fc1ccc(-c2snnc2Cl)c(F)c1

>  <score_type>  (49) 
oracle

>  <origin>  (49) 
adgpu

>  <m_score__min__energy>  (49) 
-6.8600000000000003

>  <m_primary>  (49) 
energy

$$$$
