0:0
     RDKit          3D

 47 50  0  0  0  0  0  0  0  0999 V2000
   -1.7250   21.9350  -26.8270 C   0  0  0  0  0  0  0  0  0  0  0  0
   -1.7200   23.2230  -27.5990 C   0  0  0  0  0  0  0  0  0  0  0  0
   -0.7930   24.2320  -27.3030 C   0  0  0  0  0  0  0  0  0  0  0  0
   -0.8310   25.4270  -28.0220 C   0  0  0  0  0  0  0  0  0  0  0  0
   -1.7670   25.6110  -28.9920 N   0  0  0  0  0  0  0  0  0  0  0  0
   -2.6920   24.6610  -29.3040 C   0  0  0  0  0  0  0  0  0  0  0  0
   -3.5250   24.9060  -30.2760 N   0  0  0  0  0  0  0  0  0  0  0  0
   -4.5630   24.0480  -30.7720 C   0  0  0  0  0  0  0  0  0  0  0  0
   -5.7610   24.3420  -30.5160 O   0  0  0  0  0  0  0  0  0  0  0  0
   -4.2700   22.8140  -31.5290 C   0  0  0  0  0  0  0  0  0  0  0  0
   -2.9450   22.3620  -31.6310 C   0  0  0  0  0  0  0  0  0  0  0  0
   -2.6480   21.2120  -32.3630 C   0  0  0  0  0  0  0  0  0  0  0  0
   -3.6650   20.5200  -33.0240 C   0  0  0  0  0  0  0  0  0  0  0  0
   -4.9960   20.9540  -32.9400 C   0  0  0  0  0  0  0  0  0  0  0  0
   -5.9940   20.2880  -33.7280 N   0  0  0  0  0  0  0  0  0  0  0  0
   -6.2110   18.8730  -33.7440 C   0  0  0  0  0  0  0  0  0  0  0  0
   -6.8370   17.9420  -32.9310 C   0  0  0  0  0  0  0  0  0  0  0  0
   -7.5510   17.9930  -31.6940 N   0  0  0  0  0  0  0  0  0  0  0  0
   -8.8910   18.5690  -31.6120 C   0  0  0  0  0  0  0  0  0  0  0  0
   -8.8550   20.0700  -31.5830 C   0  0  0  0  0  0  0  0  0  0  0  0
   -9.6650   20.9410  -32.2940 C   0  0  0  0  0  0  0  0  0  0  0  0
   -9.2320   22.2050  -31.9560 C   0  0  0  0  0  0  0  0  0  0  0  0
   -8.1940   22.0310  -31.0640 C   0  0  0  0  0  0  0  0  0  0  0  0
   -7.9950   20.7500  -30.8580 O   0  0  0  0  0  0  0  0  0  0  0  0
   -6.4700   16.9380  -33.8040 C   0  0  0  0  0  0  0  0  0  0  0  0
   -6.6450   15.6910  -33.8550 O   0  0  0  0  0  0  0  0  0  0  0  0
   -5.8060   17.8580  -34.5860 C   0  0  0  0  0  0  0  0  0  0  0  0
   -5.1230   17.8000  -35.6410 O   0  0  0  0  0  0  0  0  0  0  0  0
   -5.2950   22.1060  -32.1830 C   0  0  0  0  0  0  0  0  0  0  0  0
   -2.6700   23.4330  -28.6080 C   0  0  0  0  0  0  0  0  0  0  0  0
   -1.7242   22.1537  -25.7490 H   0  0  0  0  0  0  0  0  0  0  0  0
   -2.6254   21.3574  -27.0833 H   0  0  0  0  0  0  0  0  0  0  0  0
   -0.8291   21.3504  -27.0833 H   0  0  0  0  0  0  0  0  0  0  0  0
   -0.0433   24.0831  -26.5119 H   0  0  0  0  0  0  0  0  0  0  0  0
   -0.1027   26.2220  -27.8042 H   0  0  0  0  0  0  0  0  0  0  0  0
   -2.1372   22.9170  -31.1316 H   0  0  0  0  0  0  0  0  0  0  0  0
   -1.6109   20.8498  -32.4196 H   0  0  0  0  0  0  0  0  0  0  0  0
   -3.4198   19.6260  -33.6162 H   0  0  0  0  0  0  0  0  0  0  0  0
   -6.6150   20.8680  -34.3350 H   0  0  0  0  0  0  0  0  0  0  0  0
   -7.1220   17.5800  -30.8390 H   0  0  0  0  0  0  0  0  0  0  0  0
   -9.4718   18.2441  -32.4878 H   0  0  0  0  0  0  0  0  0  0  0  0
   -9.3547   18.2212  -30.6771 H   0  0  0  0  0  0  0  0  0  0  0  0
  -10.4815   20.6788  -32.9829 H   0  0  0  0  0  0  0  0  0  0  0  0
   -9.6335   23.1608  -32.3237 H   0  0  0  0  0  0  0  0  0  0  0  0
   -7.6194   22.8438  -30.5957 H   0  0  0  0  0  0  0  0  0  0  0  0
   -6.3358   22.4530  -32.1035 H   0  0  0  0  0  0  0  0  0  0  0  0
   -3.3954   22.6443  -28.8565 H   0  0  0  0  0  0  0  0  0  0  0  0
  1  2  1  0
  2  3  1  0
  3  4  2  0
  4  5  1  0
  5  6  1  0
  6  7  2  3
  7  8  1  0
  8  9  2  0
  8 10  1  0
 10 11  2  0
 11 12  1  0
 12 13  2  0
 13 14  1  0
 14 15  1  0
 15 16  1  0
 16 17  2  0
 17 18  1  0
 18 19  1  0
 19 20  1  0
 20 21  2  0
 21 22  1  0
 22 23  2  0
 23 24  1  0
 17 25  1  0
 25 26  2  0
 25 27  1  0
 27 28  2  0
 14 29  2  0
  6 30  1  0
 30  2  2  0
 29 10  1  0
 27 16  1  0
 24 20  1  0
  1 31  1  0
  1 32  1  0
  1 33  1  0
  3 34  1  0
  4 35  1  0
 11 36  1  0
 12 37  1  0
 13 38  1  0
 15 39  1  0
 18 40  1  0
 19 41  1  0
 19 42  1  0
 21 43  1  0
 22 44  1  0
 23 45  1  0
 29 46  1  0
 30 47  1  0
M  CHG  1   5  -1
M  END
>  <UniqueID>  (1) 
1

>  <SMILES>  (1) 
Cc1cc[n-]c(=NC(=O)c2cccc(Nc3c(NCc4ccco4)c(=O)c3=O)c2)c1

>  <Energy>  (1) 
75.51956205255941

>  <Genealogy>  (1) 
Cc1cc[n-]c(=NC(=O)c2cccc(Nc3c(NCc4ccco4)c(=O)c3=O)c2)c1 (protonated)
Cc1cc[n-]c(=NC(=O)c2cccc(Nc3c(NCc4ccco4)c(=O)c3=O)c2)c1 (3D coordinates assigned)
Cc1cc[n-]c(=NC(=O)c2cccc(Nc3c(NCc4ccco4)c(=O)c3=O)c2)c1 (optimized conformer: 75.51956205255941 kcal/mol)

>  <smiles>  (1) 
Cc1cc[nH]c(=NC(=O)c2cccc(Nc3c(NCc4ccco4)c(=O)c3=O)c2)c1

>  <score_type>  (1) 
oracle

>  <origin>  (1) 
adgpu

>  <m_score__min__energy>  (1) 
-10.699999999999999

>  <m_primary>  (1) 
energy

$$$$
1:0
     RDKit          3D

 50 55  0  0  0  0  0  0  0  0999 V2000
   -5.5401   17.5655  -35.0306 H   0  0  0  0  0  0  0  0  0  0  0  0
   -5.3900   18.3390  -34.2630 C   0  0  0  0  0  0  0  0  0  0  0  0
   -4.2040   18.8720  -34.1590 N   0  0  0  0  0  0  0  0  0  0  0  0
   -3.7390   19.7720  -33.1450 C   0  0  0  0  0  0  0  0  0  0  0  0
   -4.5700   20.2540  -32.1850 N   0  0  0  0  0  0  0  0  0  0  0  0
   -3.7690   21.0870  -31.5040 C   0  0  0  0  0  0  0  0  0  0  0  0
   -4.0930   21.8630  -30.3940 C   0  0  0  0  0  0  0  0  0  0  0  0
   -5.1075   21.8483  -29.9690 H   0  0  0  0  0  0  0  0  0  0  0  0
   -3.0790   22.6700  -29.8300 C   0  0  0  0  0  0  0  0  0  0  0  0
   -3.3720   23.4940  -28.6890 N   0  0  0  0  0  0  0  0  0  0  0  0
   -4.6030   23.8100  -28.2150 C   0  0  0  0  0  0  0  0  0  0  0  0
   -5.5370   23.4453  -28.6674 H   0  0  0  0  0  0  0  0  0  0  0  0
   -4.5680   24.6210  -27.1270 N   0  0  0  0  0  0  0  0  0  0  0  0
   -3.2490   24.8020  -26.9240 C   0  0  0  0  0  0  0  0  0  0  0  0
   -2.6460   25.5360  -25.9070 C   0  0  0  0  0  0  0  0  0  0  0  0
   -3.2521   26.0792  -25.1671 H   0  0  0  0  0  0  0  0  0  0  0  0
   -1.2310   25.5650  -25.8500 C   0  0  0  0  0  0  0  0  0  0  0  0
   -0.5380   26.3400  -24.7900 C   0  0  0  0  0  0  0  0  0  0  0  0
   -0.8470   26.3910  -23.4370 C   0  0  0  0  0  0  0  0  0  0  0  0
   -1.6731   25.8493  -22.9531 H   0  0  0  0  0  0  0  0  0  0  0  0
    0.0220   27.2070  -22.8090 N   0  0  0  0  0  0  0  0  0  0  0  0
    0.8560   27.6800  -23.7200 N   0  0  0  0  0  0  0  0  0  0  0  0
    1.9710   28.5670  -23.4220 C   0  0  0  0  0  0  0  0  0  0  0  0
    2.0857   28.6583  -22.3318 H   0  0  0  0  0  0  0  0  0  0  0  0
    2.8941   28.1537  -23.8545 H   0  0  0  0  0  0  0  0  0  0  0  0
    1.7758   29.5594  -23.8545 H   0  0  0  0  0  0  0  0  0  0  0  0
    0.5590   27.1720  -24.9300 C   0  0  0  0  0  0  0  0  0  0  0  0
    1.0949   27.3816  -25.8675 H   0  0  0  0  0  0  0  0  0  0  0  0
   -0.4830   24.8360  -26.8160 C   0  0  0  0  0  0  0  0  0  0  0  0
    0.6161   24.8469  -26.7720 H   0  0  0  0  0  0  0  0  0  0  0  0
   -1.1290   24.1020  -27.8260 C   0  0  0  0  0  0  0  0  0  0  0  0
   -0.5535   23.5272  -28.5665 H   0  0  0  0  0  0  0  0  0  0  0  0
   -2.5230   24.1260  -27.8590 C   0  0  0  0  0  0  0  0  0  0  0  0
   -1.7880   22.6890  -30.4220 C   0  0  0  0  0  0  0  0  0  0  0  0
   -1.0035   23.3317  -29.9960 H   0  0  0  0  0  0  0  0  0  0  0  0
   -1.5020   21.8950  -31.5470 C   0  0  0  0  0  0  0  0  0  0  0  0
   -0.5036   21.9015  -32.0088 H   0  0  0  0  0  0  0  0  0  0  0  0
   -2.5250   21.1010  -32.0560 C   0  0  0  0  0  0  0  0  0  0  0  0
   -2.4780   20.2820  -33.1150 N   0  0  0  0  0  0  0  0  0  0  0  0
   -6.5460   18.7060  -33.4170 C   0  0  0  0  0  0  0  0  0  0  0  0
   -7.0960   19.9920  -33.5240 C   0  0  0  0  0  0  0  0  0  0  0  0
   -6.6875   20.7030  -34.2572 H   0  0  0  0  0  0  0  0  0  0  0  0
   -8.1610   20.3740  -32.7030 C   0  0  0  0  0  0  0  0  0  0  0  0
   -8.5983   21.3785  -32.8022 H   0  0  0  0  0  0  0  0  0  0  0  0
   -8.6710   19.4810  -31.7560 C   0  0  0  0  0  0  0  0  0  0  0  0
   -9.5153   19.7795  -31.1172 H   0  0  0  0  0  0  0  0  0  0  0  0
   -8.1080   18.2090  -31.6210 C   0  0  0  0  0  0  0  0  0  0  0  0
   -8.5050   17.5091  -30.8709 H   0  0  0  0  0  0  0  0  0  0  0  0
   -7.0400   17.8250  -32.4390 C   0  0  0  0  0  0  0  0  0  0  0  0
   -6.5854   16.8308  -32.3166 H   0  0  0  0  0  0  0  0  0  0  0  0
  1  2  1  0
  2  3  2  0
  3  4  1  0
  4  5  2  0
  5  6  1  0
  6  7  2  0
  7  8  1  0
  7  9  1  0
  9 10  1  0
 10 11  1  0
 11 12  1  0
 11 13  2  0
 13 14  1  0
 14 15  2  0
 15 16  1  0
 15 17  1  0
 17 18  1  0
 18 19  1  0
 19 20  1  0
 19 21  2  0
 21 22  1  0
 22 23  1  0
 23 24  1  0
 23 25  1  0
 23 26  1  0
 22 27  1  0
 27 28  1  0
 17 29  2  0
 29 30  1  0
 29 31  1  0
 31 32  1  0
 31 33  2  0
  9 34  2  0
 34 35  1  0
 34 36  1  0
 36 37  1  0
 36 38  2  0
 38 39  1  0
  2 40  1  0
 40 41  2  0
 41 42  1  0
 41 43  1  0
 43 44  1  0
 43 45  2  0
 45 46  1  0
 45 47  1  0
 47 48  1  0
 47 49  2  0
 49 50  1  0
 39  4  1  0
 49 40  1  0
 38  6  1  0
 33 10  1  0
 33 14  1  0
 27 18  2  0
M  CHG  1  39  -1
M  END
>  <UniqueID>  (2) 
2

>  <SMILES>  (2) 
Cn1cc(-c2ccc3c(c2)ncn3-c2ccc3[n-]c(/N=C\c4ccccc4)nc3c2)cn1

>  <Energy>  (2) 
176.29782769947644

>  <Genealogy>  (2) 
Cn1cc(-c2ccc3c(c2)ncn3-c2ccc3[n-]c(N=Cc4ccccc4)nc3c2)cn1 (protonated)
Cn1cc(-c2ccc3c(c2)ncn3-c2ccc3[n-]c(/N=C\c4ccccc4)nc3c2)cn1 (cis-trans isomerization)
Cn1cc(-c2ccc3c(c2)ncn3-c2ccc3[n-]c(/N=C\c4ccccc4)nc3c2)cn1 (3D coordinates assigned)
Cn1cc(-c2ccc3c(c2)ncn3-c2ccc3[n-]c(/N=C\c4ccccc4)nc3c2)cn1 (optimized conformer: 176.29782769947644 kcal/mol)

>  <smiles>  (2) 
Cn1cc(-c2ccc3c(c2)ncn3-c2ccc3[nH]c(N=Cc4ccccc4)nc3c2)cn1

>  <score_type>  (2) 
oracle

>  <origin>  (2) 
adgpu

>  <m_score__min__energy>  (2) 
-11.619999999999999

>  <m_primary>  (2) 
energy

$$$$
2:0
     RDKit          3D

 51 53  0  0  0  0  0  0  0  0999 V2000
    1.4667   24.4533  -23.6019 H   0  0  0  0  0  0  0  0  0  0  0  0
    1.0150   24.0150  -24.5040 C   0  0  0  0  0  0  0  0  0  0  0  0
    1.2720   24.3900  -25.7720 N   0  0  0  0  0  0  0  0  0  0  0  0
    0.4810   23.5770  -26.5060 C   0  0  0  0  0  0  0  0  0  0  0  0
    0.4320   23.6000  -27.9690 C   0  0  0  0  0  0  0  0  0  0  0  0
    1.3540   24.1700  -28.6140 O   0  0  0  0  0  0  0  0  0  0  0  0
   -0.6350   22.9410  -28.6620 N   0  0  0  0  0  0  0  0  0  0  0  0
   -1.7980   23.4450  -28.9740 C   0  0  0  0  0  0  0  0  0  0  0  0
   -2.6820   22.8340  -29.8370 C   0  0  0  0  0  0  0  0  0  0  0  0
   -2.5731   21.8596  -30.3356 H   0  0  0  0  0  0  0  0  0  0  0  0
   -3.7430   23.7280  -29.9350 C   0  0  0  0  0  0  0  0  0  0  0  0
   -5.0270   23.5560  -30.7350 C   0  0  0  0  0  0  0  0  0  0  0  0
   -4.7290   22.7230  -31.9980 C   0  0  0  0  0  0  0  0  0  0  0  0
   -4.3720   21.7251  -31.7033 H   0  0  0  0  0  0  0  0  0  0  0  0
   -5.6469   22.6223  -32.5958 H   0  0  0  0  0  0  0  0  0  0  0  0
   -3.9555   23.2274  -32.5958 H   0  0  0  0  0  0  0  0  0  0  0  0
   -6.1150   22.8320  -29.9130 C   0  0  0  0  0  0  0  0  0  0  0  0
   -5.9137   22.9660  -28.8399 H   0  0  0  0  0  0  0  0  0  0  0  0
   -7.1008   23.2548  -30.1567 H   0  0  0  0  0  0  0  0  0  0  0  0
   -6.1057   21.7594  -30.1567 H   0  0  0  0  0  0  0  0  0  0  0  0
   -5.5530   24.9440  -31.1460 C   0  0  0  0  0  0  0  0  0  0  0  0
   -5.7763   25.5332  -30.2444 H   0  0  0  0  0  0  0  0  0  0  0  0
   -4.7893   25.4633  -31.7436 H   0  0  0  0  0  0  0  0  0  0  0  0
   -6.4690   24.8268  -31.7436 H   0  0  0  0  0  0  0  0  0  0  0  0
   -3.4900   24.7890  -29.1380 N   0  0  0  0  0  0  0  0  0  0  0  0
   -4.1360   25.5890  -28.9510 H   0  0  0  0  0  0  0  0  0  0  0  0
   -2.3190   24.6220  -28.5440 N   0  0  0  0  0  0  0  0  0  0  0  0
   -1.8900   25.4490  -27.4510 C   0  0  0  0  0  0  0  0  0  0  0  0
   -0.9270   26.4430  -27.6580 C   0  0  0  0  0  0  0  0  0  0  0  0
   -0.5164   26.6075  -28.6652 H   0  0  0  0  0  0  0  0  0  0  0  0
   -0.4850   27.2280  -26.5880 C   0  0  0  0  0  0  0  0  0  0  0  0
    0.2782   28.0017  -26.7578 H   0  0  0  0  0  0  0  0  0  0  0  0
   -1.0060   27.0370  -25.3030 C   0  0  0  0  0  0  0  0  0  0  0  0
   -0.5000   27.8280  -24.2580 O   0  0  0  0  0  0  0  0  0  0  0  0
    0.2390   27.3430  -23.1360 C   0  0  0  0  0  0  0  0  0  0  0  0
    0.4637   26.2767  -23.2863 H   0  0  0  0  0  0  0  0  0  0  0  0
   -0.3667   27.4836  -22.2286 H   0  0  0  0  0  0  0  0  0  0  0  0
    1.5470   28.1110  -22.9730 C   0  0  0  0  0  0  0  0  0  0  0  0
    1.7658   28.2395  -21.9027 H   0  0  0  0  0  0  0  0  0  0  0  0
    2.3639   27.5491  -23.4494 H   0  0  0  0  0  0  0  0  0  0  0  0
    1.4544   29.0982  -23.4494 H   0  0  0  0  0  0  0  0  0  0  0  0
   -2.0130   26.0720  -25.1070 C   0  0  0  0  0  0  0  0  0  0  0  0
   -2.4513   25.9319  -24.1078 H   0  0  0  0  0  0  0  0  0  0  0  0
   -2.4570   25.2920  -26.1780 C   0  0  0  0  0  0  0  0  0  0  0  0
   -3.2551   24.5513  -26.0218 H   0  0  0  0  0  0  0  0  0  0  0  0
   -0.2240   22.7480  -25.7690 O   0  0  0  0  0  0  0  0  0  0  0  0
    0.0940   22.9930  -24.5240 C   0  0  0  0  0  0  0  0  0  0  0  0
   -0.4830   22.2890  -23.3430 C   0  0  0  0  0  0  0  0  0  0  0  0
   -0.1042   22.7512  -22.4195 H   0  0  0  0  0  0  0  0  0  0  0  0
   -1.5799   22.3676  -23.3691 H   0  0  0  0  0  0  0  0  0  0  0  0
   -0.1906   21.2289  -23.3691 H   0  0  0  0  0  0  0  0  0  0  0  0
  1  2  1  0
  2  3  1  0
  3  4  2  0
  4  5  1  0
  5  6  2  0
  5  7  1  0
  7  8  2  0
  8  9  1  0
  9 10  1  0
  9 11  2  0
 11 12  1  0
 12 13  1  0
 13 14  1  0
 13 15  1  0
 13 16  1  0
 12 17  1  0
 17 18  1  0
 17 19  1  0
 17 20  1  0
 12 21  1  0
 21 22  1  0
 21 23  1  0
 21 24  1  0
 11 25  1  0
 25 26  1  0
 25 27  1  0
 27 28  1  0
 28 29  2  0
 29 30  1  0
 29 31  1  0
 31 32  1  0
 31 33  2  0
 33 34  1  0
 34 35  1  0
 35 36  1  0
 35 37  1  0
 35 38  1  0
 38 39  1  0
 38 40  1  0
 38 41  1  0
 33 42  1  0
 42 43  1  0
 42 44  2  0
 44 45  1  0
  4 46  1  0
 46 47  1  0
 47 48  1  0
 48 49  1  0
 48 50  1  0
 48 51  1  0
 47  2  2  0
 27  8  1  0
 44 28  1  0
M  END
>  <UniqueID>  (3) 
3

>  <SMILES>  (3) 
CCOc1ccc(-n2[nH]c(C(C)(C)C)c/c2=N/C(=O)c2ncc(C)o2)cc1

>  <Energy>  (3) 
120.15585526114867

>  <Genealogy>  (3) 
CCOc1ccc(-n2[nH]c(C(C)(C)C)c/c2=N/C(=O)c2ncc(C)o2)cc1 (cis-trans isomerization)
CCOc1ccc(-n2[nH]c(C(C)(C)C)c/c2=N/C(=O)c2ncc(C)o2)cc1 (3D coordinates assigned)
CCOc1ccc(-n2[nH]c(C(C)(C)C)c/c2=N/C(=O)c2ncc(C)o2)cc1 (optimized conformer: 120.15585526114867 kcal/mol)

>  <smiles>  (3) 
CCOc1ccc(-n2[nH]c(C(C)(C)C)cc2=NC(=O)c2ncc(C)o2)cc1

>  <score_type>  (3) 
oracle

>  <origin>  (3) 
adgpu

>  <m_score__min__energy>  (3) 
-7.3300000000000001

>  <m_primary>  (3) 
energy

$$$$
3:0
     RDKit          3D

 48 52  0  0  0  0  0  0  0  0999 V2000
   -0.6750   20.2910  -34.5530 C   0  0  0  0  0  0  0  0  0  0  0  0
   -0.6270   18.9190  -33.9650 C   0  0  0  0  0  0  0  0  0  0  0  0
   -0.3910   18.6830  -32.6130 C   0  0  0  0  0  0  0  0  0  0  0  0
   -0.4840   17.0240  -32.3580 S   0  0  0  0  0  0  0  0  0  0  0  0
   -0.8140   16.6820  -33.9700 C   0  0  0  0  0  0  0  0  0  0  0  0
   -1.0830   15.3160  -34.5160 C   0  0  0  0  0  0  0  0  0  0  0  0
   -2.4800   15.0230  -34.4760 O   0  0  0  0  0  0  0  0  0  0  0  0
   -3.4900   15.9360  -34.1320 C   0  0  0  0  0  0  0  0  0  0  0  0
   -4.1100   15.7980  -32.8860 C   0  0  0  0  0  0  0  0  0  0  0  0
   -5.1180   16.6820  -32.4880 C   0  0  0  0  0  0  0  0  0  0  0  0
   -5.5270   17.7260  -33.3370 C   0  0  0  0  0  0  0  0  0  0  0  0
   -6.5910   18.6770  -32.9340 C   0  0  0  0  0  0  0  0  0  0  0  0
   -7.9710   18.4520  -32.9740 C   0  0  0  0  0  0  0  0  0  0  0  0
   -8.4900   19.6320  -32.5020 C   0  0  0  0  0  0  0  0  0  0  0  0
   -9.7950   19.9700  -32.3630 N   0  0  0  0  0  0  0  0  0  0  0  0
  -10.1030   21.2160  -31.9000 C   0  0  0  0  0  0  0  0  0  0  0  0
   -9.0830   22.1310  -31.5780 C   0  0  0  0  0  0  0  0  0  0  0  0
   -7.7390   21.7420  -31.7330 C   0  0  0  0  0  0  0  0  0  0  0  0
   -6.6300   22.6690  -31.4000 C   0  0  0  0  0  0  0  0  0  0  0  0
   -5.3010   22.3230  -31.6990 C   0  0  0  0  0  0  0  0  0  0  0  0
   -4.2560   23.1970  -31.3860 C   0  0  0  0  0  0  0  0  0  0  0  0
   -4.5250   24.4250  -30.7760 C   0  0  0  0  0  0  0  0  0  0  0  0
   -3.4780   25.2860  -30.4670 O   0  0  0  0  0  0  0  0  0  0  0  0
   -5.8440   24.7860  -30.4800 C   0  0  0  0  0  0  0  0  0  0  0  0
   -6.1060   26.0150  -29.8770 O   0  0  0  0  0  0  0  0  0  0  0  0
   -6.8930   23.9110  -30.7940 C   0  0  0  0  0  0  0  0  0  0  0  0
   -7.5050   20.4830  -32.2000 N   0  0  0  0  0  0  0  0  0  0  0  0
   -6.3360   19.9230  -32.4640 N   0  0  0  0  0  0  0  0  0  0  0  0
   -4.9050   17.8610  -34.5920 C   0  0  0  0  0  0  0  0  0  0  0  0
   -3.8990   16.9760  -34.9870 C   0  0  0  0  0  0  0  0  0  0  0  0
   -0.8790   17.8100  -34.7110 N   0  0  0  0  0  0  0  0  0  0  0  0
   -0.7011   21.0359  -33.7440 H   0  0  0  0  0  0  0  0  0  0  0  0
    0.2179   20.4552  -35.1740 H   0  0  0  0  0  0  0  0  0  0  0  0
   -1.5772   20.3924  -35.1740 H   0  0  0  0  0  0  0  0  0  0  0  0
   -0.1812   19.4457  -31.8486 H   0  0  0  0  0  0  0  0  0  0  0  0
   -0.7337   15.2683  -35.5580 H   0  0  0  0  0  0  0  0  0  0  0  0
   -0.5488   14.5774  -33.9004 H   0  0  0  0  0  0  0  0  0  0  0  0
   -3.8015   14.9854  -32.2118 H   0  0  0  0  0  0  0  0  0  0  0  0
   -5.5943   16.5599  -31.5040 H   0  0  0  0  0  0  0  0  0  0  0  0
   -8.5086   17.5505  -33.3030 H   0  0  0  0  0  0  0  0  0  0  0  0
  -11.1565   21.5077  -31.7774 H   0  0  0  0  0  0  0  0  0  0  0  0
   -9.3329   23.1370  -31.2100 H   0  0  0  0  0  0  0  0  0  0  0  0
   -5.0820   21.3592  -32.1819 H   0  0  0  0  0  0  0  0  0  0  0  0
   -3.2184   22.9171  -31.6207 H   0  0  0  0  0  0  0  0  0  0  0  0
   -5.3770   26.5440  -29.4120 H   0  0  0  0  0  0  0  0  0  0  0  0
   -7.9299   24.1977  -30.5648 H   0  0  0  0  0  0  0  0  0  0  0  0
   -5.2140   18.6714  -35.2686 H   0  0  0  0  0  0  0  0  0  0  0  0
   -3.4238   17.0928  -35.9722 H   0  0  0  0  0  0  0  0  0  0  0  0
  1  2  1  0
  2  3  2  0
  3  4  1  0
  4  5  1  0
  5  6  1  0
  6  7  1  0
  7  8  1  0
  8  9  2  0
  9 10  1  0
 10 11  2  0
 11 12  1  0
 12 13  1  0
 13 14  2  0
 14 15  1  0
 15 16  2  0
 16 17  1  0
 17 18  2  0
 18 19  1  0
 19 20  2  0
 20 21  1  0
 21 22  2  0
 22 23  1  0
 22 24  1  0
 24 25  1  0
 24 26  2  0
 18 27  1  0
 27 28  1  0
 11 29  1  0
 29 30  2  0
  5 31  2  0
 31  2  1  0
 30  8  1  0
 28 12  2  0
 27 14  1  0
 26 19  1  0
  1 32  1  0
  1 33  1  0
  1 34  1  0
  3 35  1  0
  6 36  1  0
  6 37  1  0
  9 38  1  0
 10 39  1  0
 13 40  1  0
 16 41  1  0
 17 42  1  0
 20 43  1  0
 21 44  1  0
 25 45  1  0
 26 46  1  0
 29 47  1  0
 30 48  1  0
M  CHG  1  23  -1
M  END
>  <UniqueID>  (4) 
4

>  <SMILES>  (4) 
Cc1csc(COc2ccc(-c3cc4nccc(-c5ccc([O-])c(O)c5)n4n3)cc2)n1

>  <Energy>  (4) 
124.94322181583091

>  <Genealogy>  (4) 
Cc1csc(COc2ccc(-c3cc4nccc(-c5ccc([O-])c(O)c5)n4n3)cc2)n1 (protonated)
Cc1csc(COc2ccc(-c3cc4nccc(-c5ccc([O-])c(O)c5)n4n3)cc2)n1 (3D coordinates assigned)
Cc1csc(COc2ccc(-c3cc4nccc(-c5ccc([O-])c(O)c5)n4n3)cc2)n1 (optimized conformer: 124.94322181583091 kcal/mol)

>  <smiles>  (4) 
Cc1csc(COc2ccc(-c3cc4nccc(-c5ccc(O)c(O)c5)n4n3)cc2)n1

>  <score_type>  (4) 
oracle

>  <origin>  (4) 
adgpu

>  <m_score__min__energy>  (4) 
-11.76

>  <m_primary>  (4) 
energy

$$$$
4:0
     RDKit          3D

 56 58  0  0  0  0  0  0  0  0999 V2000
   -1.6170   26.6170  -25.0150 C   0  0  0  0  0  0  0  0  0  0  0  0
   -1.5290   25.2430  -25.6750 C   0  0  0  0  0  0  0  0  0  0  0  0
   -2.4260   25.1660  -26.9160 C   0  0  0  0  0  0  0  0  0  0  0  0
   -1.5870   25.0610  -28.1940 C   0  0  0  0  0  0  0  0  0  0  0  0
   -2.3940   25.2960  -29.3470 O   0  0  0  0  0  0  0  0  0  0  0  0
   -3.6160   24.6640  -29.6330 C   0  0  0  0  0  0  0  0  0  0  0  0
   -3.8060   23.3570  -29.1680 C   0  0  0  0  0  0  0  0  0  0  0  0
   -4.9980   22.6750  -29.4290 C   0  0  0  0  0  0  0  0  0  0  0  0
   -6.0180   23.2900  -30.1690 C   0  0  0  0  0  0  0  0  0  0  0  0
   -7.3110   22.5650  -30.4180 C   0  0  0  0  0  0  0  0  0  0  0  0
   -7.7660   22.8370  -31.7850 N   0  0  0  0  0  0  0  0  0  0  0  0
   -9.0970   22.2720  -32.0660 C   0  0  0  0  0  0  0  0  0  0  0  0
   -9.4860   21.0860  -31.1580 C   0  0  0  0  0  0  0  0  0  0  0  0
   -9.1040   19.7230  -31.7530 C   0  0  0  0  0  0  0  0  0  0  0  0
   -8.4440   19.8950  -33.0460 N   0  0  0  0  0  0  0  0  0  0  0  0
   -7.0270   19.7430  -33.2170 C   0  0  0  0  0  0  0  0  0  0  0  0
   -6.5110   18.5780  -33.8000 C   0  0  0  0  0  0  0  0  0  0  0  0
   -5.1300   18.4330  -33.9590 C   0  0  0  0  0  0  0  0  0  0  0  0
   -4.6750   17.3780  -34.4830 O   0  0  0  0  0  0  0  0  0  0  0  0
   -4.2670   19.4610  -33.5340 C   0  0  0  0  0  0  0  0  0  0  0  0
   -2.8690   19.3670  -33.6700 C   0  0  0  0  0  0  0  0  0  0  0  0
   -2.0510   20.4150  -33.2360 C   0  0  0  0  0  0  0  0  0  0  0  0
   -2.6130   21.5600  -32.6640 C   0  0  0  0  0  0  0  0  0  0  0  0
   -4.0000   21.6640  -32.5220 C   0  0  0  0  0  0  0  0  0  0  0  0
   -4.8290   20.6220  -32.9530 C   0  0  0  0  0  0  0  0  0  0  0  0
   -6.1760   20.7270  -32.8110 N   0  0  0  0  0  0  0  0  0  0  0  0
   -5.8390   24.6050  -30.6240 C   0  0  0  0  0  0  0  0  0  0  0  0
   -4.6460   25.2860  -30.3670 C   0  0  0  0  0  0  0  0  0  0  0  0
   -1.6095   26.4996  -23.9213 H   0  0  0  0  0  0  0  0  0  0  0  0
   -0.7562   27.2281  -25.3241 H   0  0  0  0  0  0  0  0  0  0  0  0
   -2.5488   27.1133  -25.3241 H   0  0  0  0  0  0  0  0  0  0  0  0
   -0.4871   25.0541  -25.9730 H   0  0  0  0  0  0  0  0  0  0  0  0
   -1.8687   24.4867  -24.9520 H   0  0  0  0  0  0  0  0  0  0  0  0
   -3.0739   24.2806  -26.8372 H   0  0  0  0  0  0  0  0  0  0  0  0
   -3.0314   26.0829  -26.9684 H   0  0  0  0  0  0  0  0  0  0  0  0
   -0.7806   25.8083  -28.1591 H   0  0  0  0  0  0  0  0  0  0  0  0
   -1.1649   24.0472  -28.2580 H   0  0  0  0  0  0  0  0  0  0  0  0
   -3.0100   22.8624  -28.5920 H   0  0  0  0  0  0  0  0  0  0  0  0
   -5.1365   21.6509  -29.0520 H   0  0  0  0  0  0  0  0  0  0  0  0
   -7.1557   21.4834  -30.2912 H   0  0  0  0  0  0  0  0  0  0  0  0
   -8.0706   22.9117  -29.7019 H   0  0  0  0  0  0  0  0  0  0  0  0
   -7.0660   22.4730  -32.4700 H   0  0  0  0  0  0  0  0  0  0  0  0
   -9.8446   23.0679  -31.9330 H   0  0  0  0  0  0  0  0  0  0  0  0
   -9.0649   21.8847  -33.0951 H   0  0  0  0  0  0  0  0  0  0  0  0
   -8.9740   21.2022  -30.1914 H   0  0  0  0  0  0  0  0  0  0  0  0
  -10.5804   21.1015  -31.0481 H   0  0  0  0  0  0  0  0  0  0  0  0
   -8.4203   19.2060  -31.0636 H   0  0  0  0  0  0  0  0  0  0  0  0
  -10.0186   19.1290  -31.8969 H   0  0  0  0  0  0  0  0  0  0  0  0
   -9.0450   20.0720  -33.8870 H   0  0  0  0  0  0  0  0  0  0  0  0
   -7.1911   17.7796  -34.1317 H   0  0  0  0  0  0  0  0  0  0  0  0
   -2.4196   18.4685  -34.1180 H   0  0  0  0  0  0  0  0  0  0  0  0
   -0.9592   20.3379  -33.3454 H   0  0  0  0  0  0  0  0  0  0  0  0
   -1.9631   22.3803  -32.3252 H   0  0  0  0  0  0  0  0  0  0  0  0
   -4.4401   22.5657  -32.0711 H   0  0  0  0  0  0  0  0  0  0  0  0
   -6.6425   25.1030  -31.1864 H   0  0  0  0  0  0  0  0  0  0  0  0
   -4.5102   26.3121  -30.7393 H   0  0  0  0  0  0  0  0  0  0  0  0
  1  2  1  0
  2  3  1  0
  3  4  1  0
  4  5  1  0
  5  6  1  0
  6  7  2  0
  7  8  1  0
  8  9  2  0
  9 10  1  0
 10 11  1  0
 11 12  1  0
 12 13  1  0
 13 14  1  0
 14 15  1  0
 15 16  1  0
 16 17  2  0
 17 18  1  0
 18 19  2  0
 18 20  1  0
 20 21  2  0
 21 22  1  0
 22 23  2  0
 23 24  1  0
 24 25  2  0
 25 26  1  0
  9 27  1  0
 27 28  2  0
 28  6  1  0
 26 16  1  0
 25 20  1  0
  1 29  1  0
  1 30  1  0
  1 31  1  0
  2 32  1  0
  2 33  1  0
  3 34  1  0
  3 35  1  0
  4 36  1  0
  4 37  1  0
  7 38  1  0
  8 39  1  0
 10 40  1  0
 10 41  1  0
 11 42  1  0
 12 43  1  0
 12 44  1  0
 13 45  1  0
 13 46  1  0
 14 47  1  0
 14 48  1  0
 15 49  1  0
 17 50  1  0
 21 51  1  0
 22 52  1  0
 23 53  1  0
 24 54  1  0
 27 55  1  0
 28 56  1  0
M  CHG  1  26  -1
M  END
>  <UniqueID>  (5) 
5

>  <SMILES>  (5) 
CCCCOc1ccc(CNCCCNc2cc(=O)c3ccccc3[n-]2)cc1

>  <Energy>  (5) 
50.92485390608222

>  <Genealogy>  (5) 
CCCCOc1ccc(CNCCCNc2cc(=O)c3ccccc3[n-]2)cc1 (protonated)
CCCCOc1ccc(CNCCCNc2cc(=O)c3ccccc3[n-]2)cc1 (3D coordinates assigned)
CCCCOc1ccc(CNCCCNc2cc(=O)c3ccccc3[n-]2)cc1 (optimized conformer: 50.92485390608222 kcal/mol)

>  <smiles>  (5) 
CCCCOc1ccc(CNCCCNc2cc(=O)c3ccccc3[nH]2)cc1

>  <score_type>  (5) 
oracle

>  <origin>  (5) 
adgpu

>  <m_score__min__energy>  (5) 
-9.7899999999999991

>  <m_primary>  (5) 
energy

$$$$
5:0
     RDKit          3D

 47 50  0  0  0  0  0  0  0  0999 V2000
   -2.9760   25.1430  -29.3480 O   0  0  0  0  0  0  0  0  0  0  0  0
   -1.7960   24.8840  -28.9870 C   0  0  0  0  0  0  0  0  0  0  0  0
   -0.9300   25.9470  -28.5690 N   0  0  0  0  0  0  0  0  0  0  0  0
   -0.7910   26.4770  -27.2420 C   0  0  0  0  0  0  0  0  0  0  0  0
   -0.4860   27.8300  -27.0050 C   0  0  0  0  0  0  0  0  0  0  0  0
   -0.3350   28.2970  -25.6950 C   0  0  0  0  0  0  0  0  0  0  0  0
   -0.4700   27.4190  -24.6170 C   0  0  0  0  0  0  0  0  0  0  0  0
   -0.7480   26.0670  -24.8430 C   0  0  0  0  0  0  0  0  0  0  0  0
   -0.8690   25.1990  -23.7600 O   0  0  0  0  0  0  0  0  0  0  0  0
   -0.9010   25.5980  -26.1560 C   0  0  0  0  0  0  0  0  0  0  0  0
   -1.3370   23.4700  -28.9320 C   0  0  0  0  0  0  0  0  0  0  0  0
   -0.5390   23.0480  -27.8530 C   0  0  0  0  0  0  0  0  0  0  0  0
   -0.0790   21.7320  -27.7720 C   0  0  0  0  0  0  0  0  0  0  0  0
   -0.4290   20.7950  -28.7530 C   0  0  0  0  0  0  0  0  0  0  0  0
    0.0980   19.3830  -28.6890 C   0  0  0  0  0  0  0  0  0  0  0  0
   -0.6690   18.6520  -27.8010 F   0  0  0  0  0  0  0  0  0  0  0  0
    1.4150   19.3750  -28.2610 F   0  0  0  0  0  0  0  0  0  0  0  0
    0.0450   18.7800  -29.9340 F   0  0  0  0  0  0  0  0  0  0  0  0
   -1.2080   21.2110  -29.8440 C   0  0  0  0  0  0  0  0  0  0  0  0
   -1.6630   22.5380  -29.9450 C   0  0  0  0  0  0  0  0  0  0  0  0
   -2.4850   22.9220  -31.0160 O   0  0  0  0  0  0  0  0  0  0  0  0
   -3.7530   22.3950  -31.3010 C   0  0  0  0  0  0  0  0  0  0  0  0
   -4.8600   22.9130  -30.6230 C   0  0  0  0  0  0  0  0  0  0  0  0
   -6.1450   22.4280  -30.8860 C   0  0  0  0  0  0  0  0  0  0  0  0
   -6.3460   21.4210  -31.8480 C   0  0  0  0  0  0  0  0  0  0  0  0
   -7.6700   20.9200  -32.1220 N   0  0  0  0  0  0  0  0  0  0  0  0
   -8.0010   19.7070  -32.6060 C   0  0  0  0  0  0  0  0  0  0  0  0
   -9.3710   19.6490  -32.7150 C   0  0  0  0  0  0  0  0  0  0  0  0
   -9.9080   20.8150  -32.3000 N   0  0  0  0  0  0  0  0  0  0  0  0
   -8.8430   21.5650  -31.9480 C   0  0  0  0  0  0  0  0  0  0  0  0
   -5.2310   20.9170  -32.5430 C   0  0  0  0  0  0  0  0  0  0  0  0
   -3.9470   21.4020  -32.2760 C   0  0  0  0  0  0  0  0  0  0  0  0
   -0.3660   28.5220  -27.8516 H   0  0  0  0  0  0  0  0  0  0  0  0
   -0.1094   29.3582  -25.5134 H   0  0  0  0  0  0  0  0  0  0  0  0
   -0.3574   27.7917  -23.5882 H   0  0  0  0  0  0  0  0  0  0  0  0
   -0.0890   25.0130  -23.1410 H   0  0  0  0  0  0  0  0  0  0  0  0
   -1.1088   24.5327  -26.3346 H   0  0  0  0  0  0  0  0  0  0  0  0
   -0.2736   23.7648  -27.0619 H   0  0  0  0  0  0  0  0  0  0  0  0
    0.5629   21.4288  -26.9317 H   0  0  0  0  0  0  0  0  0  0  0  0
   -1.4665   20.4883  -30.6319 H   0  0  0  0  0  0  0  0  0  0  0  0
   -4.7193   23.7086  -29.8765 H   0  0  0  0  0  0  0  0  0  0  0  0
   -7.0056   22.8370  -30.3364 H   0  0  0  0  0  0  0  0  0  0  0  0
   -7.2979   18.9028  -32.8684 H   0  0  0  0  0  0  0  0  0  0  0  0
   -9.9416   18.7840  -33.0842 H   0  0  0  0  0  0  0  0  0  0  0  0
   -8.9221   22.5916  -31.5609 H   0  0  0  0  0  0  0  0  0  0  0  0
   -5.3708   20.1344  -33.3032 H   0  0  0  0  0  0  0  0  0  0  0  0
   -3.0850   21.0044  -32.8317 H   0  0  0  0  0  0  0  0  0  0  0  0
  1  2  2  0
  2  3  1  0
  3  4  1  0
  4  5  2  0
  5  6  1  0
  6  7  2  0
  7  8  1  0
  8  9  1  0
  8 10  2  0
  2 11  1  0
 11 12  2  0
 12 13  1  0
 13 14  2  0
 14 15  1  0
 15 16  1  0
 15 17  1  0
 15 18  1  0
 14 19  1  0
 19 20  2  0
 20 21  1  0
 21 22  1  0
 22 23  2  0
 23 24  1  0
 24 25  2  0
 25 26  1  0
 26 27  1  0
 27 28  2  0
 28 29  1  0
 29 30  2  0
 25 31  1  0
 31 32  2  0
 10  4  1  0
 20 11  1  0
 32 22  1  0
 30 26  1  0
  5 33  1  0
  6 34  1  0
  7 35  1  0
  9 36  1  0
 10 37  1  0
 12 38  1  0
 13 39  1  0
 19 40  1  0
 23 41  1  0
 24 42  1  0
 27 43  1  0
 28 44  1  0
 30 45  1  0
 31 46  1  0
 32 47  1  0
M  CHG  1   3  -1
M  END
>  <UniqueID>  (6) 
6

>  <SMILES>  (6) 
O=C([N-]c1cccc(O)c1)c1ccc(C(F)(F)F)cc1Oc1ccc(-n2ccnc2)cc1

>  <Energy>  (6) 
96.94590982608922

>  <Genealogy>  (6) 
O=C([N-]c1cccc(O)c1)c1ccc(C(F)(F)F)cc1Oc1ccc(-n2ccnc2)cc1 (protonated)
O=C([N-]c1cccc(O)c1)c1ccc(C(F)(F)F)cc1Oc1ccc(-n2ccnc2)cc1 (3D coordinates assigned)
O=C([N-]c1cccc(O)c1)c1ccc(C(F)(F)F)cc1Oc1ccc(-n2ccnc2)cc1 (optimized conformer: 96.94590982608922 kcal/mol)

>  <smiles>  (6) 
O=C(Nc1cccc(O)c1)c1ccc(C(F)(F)F)cc1Oc1ccc(-n2ccnc2)cc1

>  <score_type>  (6) 
oracle

>  <origin>  (6) 
adgpu

>  <m_score__min__energy>  (6) 
-9.9800000000000004

>  <m_primary>  (6) 
energy

$$$$
6:0
     RDKit          3D

 60 63  0  0  0  0  0  0  0  0999 V2000
   -8.1470   12.9340  -36.2700 C   0  0  0  0  0  0  0  0  0  0  0  0
   -7.5450   12.9090  -34.8580 C   0  0  0  0  0  0  0  0  0  0  0  0
   -6.0680   13.3620  -34.8450 C   0  0  0  0  0  0  0  0  0  0  0  0
   -5.8740   14.6400  -34.1160 N   0  0  0  0  0  0  0  0  0  0  0  0
   -7.0710   15.5070  -34.2150 C   0  0  0  0  0  0  0  0  0  0  0  0
   -6.8580   16.8130  -33.4420 C   0  0  0  0  0  0  0  0  0  0  0  0
   -5.6020   17.4560  -33.8430 N   0  0  0  0  0  0  0  0  0  0  0  0
   -5.2770   18.7700  -33.3580 C   0  0  0  0  0  0  0  0  0  0  0  0
   -6.2840   19.6060  -32.8570 C   0  0  0  0  0  0  0  0  0  0  0  0
   -5.9930   20.9070  -32.3810 C   0  0  0  0  0  0  0  0  0  0  0  0
   -4.6400   21.3470  -32.4130 C   0  0  0  0  0  0  0  0  0  0  0  0
   -3.6400   20.5010  -32.9280 C   0  0  0  0  0  0  0  0  0  0  0  0
   -3.9540   19.2270  -33.3970 C   0  0  0  0  0  0  0  0  0  0  0  0
   -2.9640   18.4250  -33.8630 F   0  0  0  0  0  0  0  0  0  0  0  0
   -4.3160   22.6210  -31.9150 C   0  0  0  0  0  0  0  0  0  0  0  0
   -3.1200   23.0300  -31.9300 O   0  0  0  0  0  0  0  0  0  0  0  0
   -5.3220   23.4340  -31.3810 C   0  0  0  0  0  0  0  0  0  0  0  0
   -5.0090   24.7740  -30.8350 C   0  0  0  0  0  0  0  0  0  0  0  0
   -5.9360   25.6180  -30.7070 O   0  0  0  0  0  0  0  0  0  0  0  0
   -3.6770   25.1480  -30.4630 N   0  0  0  0  0  0  0  0  0  0  0  0
   -3.0650   24.8480  -29.1730 C   0  0  0  0  0  0  0  0  0  0  0  0
   -2.7250   23.3950  -29.1120 C   0  0  0  0  0  0  0  0  0  0  0  0
   -3.4830   22.4110  -28.5050 C   0  0  0  0  0  0  0  0  0  0  0  0
   -2.7740   21.2410  -28.6790 C   0  0  0  0  0  0  0  0  0  0  0  0
   -1.6290   21.5860  -29.3730 C   0  0  0  0  0  0  0  0  0  0  0  0
   -1.6280   22.8770  -29.6140 O   0  0  0  0  0  0  0  0  0  0  0  0
   -6.6450   22.9810  -31.3950 C   0  0  0  0  0  0  0  0  0  0  0  0
   -6.9760   21.7510  -31.8940 N   0  0  0  0  0  0  0  0  0  0  0  0
   -8.4030   21.3700  -31.8430 C   0  0  0  0  0  0  0  0  0  0  0  0
   -9.2960   22.6000  -31.9750 C   0  0  0  0  0  0  0  0  0  0  0  0
   -4.7540   16.8120  -34.8480 C   0  0  0  0  0  0  0  0  0  0  0  0
   -4.6100   15.3100  -34.5430 C   0  0  0  0  0  0  0  0  0  0  0  0
   -9.2438   12.9795  -36.2002 H   0  0  0  0  0  0  0  0  0  0  0  0
   -7.7770   13.8176  -36.8108 H   0  0  0  0  0  0  0  0  0  0  0  0
   -7.8515   12.0228  -36.8108 H   0  0  0  0  0  0  0  0  0  0  0  0
   -8.1278   13.5826  -34.2125 H   0  0  0  0  0  0  0  0  0  0  0  0
   -7.5833   11.8720  -34.4929 H   0  0  0  0  0  0  0  0  0  0  0  0
   -5.4638   12.5824  -34.3580 H   0  0  0  0  0  0  0  0  0  0  0  0
   -5.7569   13.5206  -35.8881 H   0  0  0  0  0  0  0  0  0  0  0  0
   -7.2616   15.7403  -35.2729 H   0  0  0  0  0  0  0  0  0  0  0  0
   -7.9305   14.9749  -33.7812 H   0  0  0  0  0  0  0  0  0  0  0  0
   -7.6951   17.4957  -33.6496 H   0  0  0  0  0  0  0  0  0  0  0  0
   -6.8093   16.5831  -32.3674 H   0  0  0  0  0  0  0  0  0  0  0  0
   -7.3223   19.2436  -32.8331 H   0  0  0  0  0  0  0  0  0  0  0  0
   -2.5973   20.8500  -32.9607 H   0  0  0  0  0  0  0  0  0  0  0  0
   -2.1487   25.4448  -29.0537 H   0  0  0  0  0  0  0  0  0  0  0  0
   -3.7697   25.0950  -28.3653 H   0  0  0  0  0  0  0  0  0  0  0  0
   -4.4479   22.5351  -27.9916 H   0  0  0  0  0  0  0  0  0  0  0  0
   -3.0613   20.2364  -28.3352 H   0  0  0  0  0  0  0  0  0  0  0  0
   -0.8380   20.8848  -29.6774 H   0  0  0  0  0  0  0  0  0  0  0  0
   -7.4386   23.6293  -30.9951 H   0  0  0  0  0  0  0  0  0  0  0  0
   -8.6208   20.6757  -32.6679 H   0  0  0  0  0  0  0  0  0  0  0  0
   -8.6056   20.8888  -30.8748 H   0  0  0  0  0  0  0  0  0  0  0  0
   -9.5633   22.9682  -30.9735 H   0  0  0  0  0  0  0  0  0  0  0  0
   -8.7575   23.3870  -32.5233 H   0  0  0  0  0  0  0  0  0  0  0  0
  -10.2111   22.3316  -32.5233 H   0  0  0  0  0  0  0  0  0  0  0  0
   -5.2090   16.9385  -35.8415 H   0  0  0  0  0  0  0  0  0  0  0  0
   -3.7579   17.2782  -34.8273 H   0  0  0  0  0  0  0  0  0  0  0  0
   -4.2456   14.8085  -35.4517 H   0  0  0  0  0  0  0  0  0  0  0  0
   -3.9120   15.2286  -33.6967 H   0  0  0  0  0  0  0  0  0  0  0  0
  1  2  1  0
  2  3  1  0
  3  4  1  0
  4  5  1  0
  5  6  1  0
  6  7  1  0
  7  8  1  0
  8  9  2  0
  9 10  1  0
 10 11  2  0
 11 12  1  0
 12 13  2  0
 13 14  1  0
 11 15  1  0
 15 16  2  0
 15 17  1  0
 17 18  1  0
 18 19  2  0
 18 20  1  0
 20 21  1  0
 21 22  1  0
 22 23  2  0
 23 24  1  0
 24 25  2  0
 25 26  1  0
 17 27  2  0
 27 28  1  0
 28 29  1  0
 29 30  1  0
  7 31  1  0
 31 32  1  0
 32  4  1  0
 13  8  1  0
 26 22  1  0
 28 10  1  0
  1 33  1  0
  1 34  1  0
  1 35  1  0
  2 36  1  0
  2 37  1  0
  3 38  1  0
  3 39  1  0
  5 40  1  0
  5 41  1  0
  6 42  1  0
  6 43  1  0
  9 44  1  0
 12 45  1  0
 21 46  1  0
 21 47  1  0
 23 48  1  0
 24 49  1  0
 25 50  1  0
 27 51  1  0
 29 52  1  0
 29 53  1  0
 30 54  1  0
 30 55  1  0
 30 56  1  0
 31 57  1  0
 31 58  1  0
 32 59  1  0
 32 60  1  0
M  CHG  1  20  -1
M  END
>  <UniqueID>  (7) 
7

>  <SMILES>  (7) 
CCCN1CCN(c2cc3c(cc2F)c(=O)c(C(=O)[N-]Cc2ccco2)cn3CC)CC1

>  <Energy>  (7) 
110.81204449928929

>  <Genealogy>  (7) 
CCCN1CCN(c2cc3c(cc2F)c(=O)c(C(=O)[N-]Cc2ccco2)cn3CC)CC1 (protonated)
CCCN1CCN(c2cc3c(cc2F)c(=O)c(C(=O)[N-]Cc2ccco2)cn3CC)CC1 (3D coordinates assigned)
CCCN1CCN(c2cc3c(cc2F)c(=O)c(C(=O)[N-]Cc2ccco2)cn3CC)CC1 (nonaromatic ring conformer: 110.81204449928929 kcal/mol)

>  <smiles>  (7) 
CCCN1CCN(c2cc3c(cc2F)c(=O)c(C(=O)NCc2ccco2)cn3CC)CC1

>  <score_type>  (7) 
oracle

>  <origin>  (7) 
adgpu

>  <m_score__min__energy>  (7) 
-11.449999999999999

>  <m_primary>  (7) 
energy

$$$$
7:0
     RDKit          3D

 33 34  0  0  0  0  0  0  0  0999 V2000
   -9.6850   21.9010  -30.7640 C   0  0  0  0  0  0  0  0  0  0  0  0
   -8.9210   22.4470  -31.9700 C   0  0  0  0  0  0  0  0  0  0  0  0
   -7.4950   22.0860  -31.9240 N   0  0  0  0  0  0  0  0  0  0  0  0
   -6.5490   22.9230  -31.2240 C   0  0  0  0  0  0  0  0  0  0  0  0
   -6.2060   22.6700  -29.8830 C   0  0  0  0  0  0  0  0  0  0  0  0
   -5.2800   23.4850  -29.2300 C   0  0  0  0  0  0  0  0  0  0  0  0
   -4.6960   24.5470  -29.9210 C   0  0  0  0  0  0  0  0  0  0  0  0
   -5.0260   24.7780  -31.2180 N   0  0  0  0  0  0  0  0  0  0  0  0
   -5.9240   23.9980  -31.8780 C   0  0  0  0  0  0  0  0  0  0  0  0
   -7.1040   20.7400  -32.2440 C   0  0  0  0  0  0  0  0  0  0  0  0
   -7.9820   19.6820  -31.9730 C   0  0  0  0  0  0  0  0  0  0  0  0
   -7.6190   18.3690  -32.2800 C   0  0  0  0  0  0  0  0  0  0  0  0
   -6.3770   18.1060  -32.8590 C   0  0  0  0  0  0  0  0  0  0  0  0
   -5.4940   19.1530  -33.1350 C   0  0  0  0  0  0  0  0  0  0  0  0
   -5.8500   20.4820  -32.8280 C   0  0  0  0  0  0  0  0  0  0  0  0
   -4.9920   21.5630  -33.0860 O   0  0  0  0  0  0  0  0  0  0  0  0
   -3.5720   21.4990  -33.0170 C   0  0  0  0  0  0  0  0  0  0  0  0
   -9.2025   22.2458  -29.8375 H   0  0  0  0  0  0  0  0  0  0  0  0
  -10.7234   22.2628  -30.7933 H   0  0  0  0  0  0  0  0  0  0  0  0
   -9.6789   20.8014  -30.7933 H   0  0  0  0  0  0  0  0  0  0  0  0
   -9.3633   22.0336  -32.8884 H   0  0  0  0  0  0  0  0  0  0  0  0
   -8.9962   23.5443  -31.9536 H   0  0  0  0  0  0  0  0  0  0  0  0
   -6.6689   21.8277  -29.3479 H   0  0  0  0  0  0  0  0  0  0  0  0
   -5.0132   23.2918  -28.1805 H   0  0  0  0  0  0  0  0  0  0  0  0
   -3.9677   25.1977  -29.4149 H   0  0  0  0  0  0  0  0  0  0  0  0
   -6.1624   24.2103  -32.9307 H   0  0  0  0  0  0  0  0  0  0  0  0
   -8.9616   19.8867  -31.5164 H   0  0  0  0  0  0  0  0  0  0  0  0
   -8.3121   17.5422  -32.0654 H   0  0  0  0  0  0  0  0  0  0  0  0
   -6.0921   17.0710  -33.0989 H   0  0  0  0  0  0  0  0  0  0  0  0
   -4.5172   18.9394  -33.5936 H   0  0  0  0  0  0  0  0  0  0  0  0
   -3.2564   21.4848  -31.9633 H   0  0  0  0  0  0  0  0  0  0  0  0
   -3.2215   20.5841  -33.5172 H   0  0  0  0  0  0  0  0  0  0  0  0
   -3.1406   22.3786  -33.5172 H   0  0  0  0  0  0  0  0  0  0  0  0
  1  2  1  0
  2  3  1  0
  3  4  1  0
  4  5  2  0
  5  6  1  0
  6  7  2  0
  7  8  1  0
  8  9  2  0
  3 10  1  0
 10 11  2  0
 11 12  1  0
 12 13  2  0
 13 14  1  0
 14 15  2  0
 15 16  1  0
 16 17  1  0
  9  4  1  0
 15 10  1  0
  1 18  1  0
  1 19  1  0
  1 20  1  0
  2 21  1  0
  2 22  1  0
  5 23  1  0
  6 24  1  0
  7 25  1  0
  9 26  1  0
 11 27  1  0
 12 28  1  0
 13 29  1  0
 14 30  1  0
 17 31  1  0
 17 32  1  0
 17 33  1  0
M  END
>  <UniqueID>  (8) 
8

>  <SMILES>  (8) 
CCN(c1cccnc1)c1ccccc1OC

>  <Energy>  (8) 
42.25428598251425

>  <Genealogy>  (8) 
CCN(c1cccnc1)c1ccccc1OC (3D coordinates assigned)
CCN(c1cccnc1)c1ccccc1OC (optimized conformer: 42.25428598251425 kcal/mol)

>  <smiles>  (8) 
CCN(c1cccnc1)c1ccccc1OC

>  <score_type>  (8) 
oracle

>  <origin>  (8) 
adgpu

>  <m_score__min__energy>  (8) 
-6.0800000000000001

>  <m_primary>  (8) 
energy

$$$$
8:0
     RDKit          3D

 62 65  0  0  0  0  0  0  0  0999 V2000
   -6.4760   17.4890  -33.6330 C   0  0  0  0  0  0  0  0  0  0  0  0
   -5.6730   18.5350  -34.4020 C   0  0  0  0  0  0  0  0  0  0  0  0
   -4.2430   18.4090  -34.0930 N   0  0  0  0  0  0  0  0  0  0  0  0
   -3.4770   17.2580  -34.5920 C   0  0  0  0  0  0  0  0  0  0  0  0
   -2.6810   16.6180  -33.4600 C   0  0  0  0  0  0  0  0  0  0  0  0
   -3.5840   19.4450  -33.3430 C   0  0  0  0  0  0  0  0  0  0  0  0
   -2.5020   20.1670  -33.9140 C   0  0  0  0  0  0  0  0  0  0  0  0
   -1.8690   21.1970  -33.1970 C   0  0  0  0  0  0  0  0  0  0  0  0
   -2.3350   21.4750  -31.9150 C   0  0  0  0  0  0  0  0  0  0  0  0
   -1.8980   22.4170  -31.0690 N   0  0  0  0  0  0  0  0  0  0  0  0
   -2.7140   22.2520  -29.9920 C   0  0  0  0  0  0  0  0  0  0  0  0
   -2.6260   23.1020  -28.7810 C   0  0  0  0  0  0  0  0  0  0  0  0
   -1.4280   23.1140  -28.0450 C   0  0  0  0  0  0  0  0  0  0  0  0
   -1.3310   23.8340  -26.8530 C   0  0  0  0  0  0  0  0  0  0  0  0
   -2.4300   24.5480  -26.3750 C   0  0  0  0  0  0  0  0  0  0  0  0
   -3.6210   24.5680  -27.1030 C   0  0  0  0  0  0  0  0  0  0  0  0
   -3.7240   23.8760  -28.3190 C   0  0  0  0  0  0  0  0  0  0  0  0
   -4.9400   23.9960  -29.0730 N   0  0  0  0  0  0  0  0  0  0  0  0
   -4.9950   24.6660  -30.3420 C   0  0  0  0  0  0  0  0  0  0  0  0
   -3.9680   25.2440  -30.7900 O   0  0  0  0  0  0  0  0  0  0  0  0
   -6.2590   24.5930  -31.1650 C   0  0  0  0  0  0  0  0  0  0  0  0
   -6.9700   23.3000  -31.0780 N   0  0  0  0  0  0  0  0  0  0  0  0
   -8.3400   23.3390  -31.6230 C   0  0  0  0  0  0  0  0  0  0  0  0
   -8.9740   21.9520  -31.5060 C   0  0  0  0  0  0  0  0  0  0  0  0
   -8.2390   20.9340  -32.2980 N   0  0  0  0  0  0  0  0  0  0  0  0
   -8.3450   19.6060  -31.6750 C   0  0  0  0  0  0  0  0  0  0  0  0
   -6.8290   21.2880  -32.5950 C   0  0  0  0  0  0  0  0  0  0  0  0
   -6.1660   22.1200  -31.4800 C   0  0  0  0  0  0  0  0  0  0  0  0
   -3.6170   21.2440  -30.1280 N   0  0  0  0  0  0  0  0  0  0  0  0
   -3.3600   20.7800  -31.3570 C   0  0  0  0  0  0  0  0  0  0  0  0
   -4.0140   19.7540  -32.0340 C   0  0  0  0  0  0  0  0  0  0  0  0
   -6.3507   17.6522  -32.5524 H   0  0  0  0  0  0  0  0  0  0  0  0
   -7.5404   17.5775  -33.8962 H   0  0  0  0  0  0  0  0  0  0  0  0
   -6.1155   16.4836  -33.8962 H   0  0  0  0  0  0  0  0  0  0  0  0
   -5.8252   18.3877  -35.4814 H   0  0  0  0  0  0  0  0  0  0  0  0
   -6.0158   19.5375  -34.1061 H   0  0  0  0  0  0  0  0  0  0  0  0
   -4.1712   16.5152  -35.0119 H   0  0  0  0  0  0  0  0  0  0  0  0
   -2.7785   17.6038  -35.3682 H   0  0  0  0  0  0  0  0  0  0  0  0
   -3.0897   16.9466  -32.4930 H   0  0  0  0  0  0  0  0  0  0  0  0
   -2.7523   15.5229  -33.5351 H   0  0  0  0  0  0  0  0  0  0  0  0
   -1.6267   16.9228  -33.5351 H   0  0  0  0  0  0  0  0  0  0  0  0
   -2.1559   19.9174  -34.9279 H   0  0  0  0  0  0  0  0  0  0  0  0
   -1.0339   21.7641  -33.6340 H   0  0  0  0  0  0  0  0  0  0  0  0
   -0.5580   22.5500  -28.4124 H   0  0  0  0  0  0  0  0  0  0  0  0
   -0.3863   23.8384  -26.2896 H   0  0  0  0  0  0  0  0  0  0  0  0
   -2.3581   25.0957  -25.4237 H   0  0  0  0  0  0  0  0  0  0  0  0
   -4.4853   25.1306  -26.7203 H   0  0  0  0  0  0  0  0  0  0  0  0
   -5.8380   23.7310  -28.6100 H   0  0  0  0  0  0  0  0  0  0  0  0
   -6.9406   25.3844  -30.8198 H   0  0  0  0  0  0  0  0  0  0  0  0
   -5.9572   24.7154  -32.2157 H   0  0  0  0  0  0  0  0  0  0  0  0
   -8.9400   24.0656  -31.0555 H   0  0  0  0  0  0  0  0  0  0  0  0
   -8.3058   23.6389  -32.6808 H   0  0  0  0  0  0  0  0  0  0  0  0
   -8.9713   21.6487  -30.4486 H   0  0  0  0  0  0  0  0  0  0  0  0
   -9.9989   22.0134  -31.9007 H   0  0  0  0  0  0  0  0  0  0  0  0
   -8.3365   19.7128  -30.5802 H   0  0  0  0  0  0  0  0  0  0  0  0
   -9.2842   19.1274  -31.9894 H   0  0  0  0  0  0  0  0  0  0  0  0
   -7.4936   18.9845  -31.9894 H   0  0  0  0  0  0  0  0  0  0  0  0
   -6.2552   20.3588  -32.7265 H   0  0  0  0  0  0  0  0  0  0  0  0
   -6.8308   21.9039  -33.5064 H   0  0  0  0  0  0  0  0  0  0  0  0
   -6.0250   21.4760  -30.5994 H   0  0  0  0  0  0  0  0  0  0  0  0
   -5.2096   22.4938  -31.8743 H   0  0  0  0  0  0  0  0  0  0  0  0
   -4.8404   19.2011  -31.5635 H   0  0  0  0  0  0  0  0  0  0  0  0
  1  2  1  0
  2  3  1  0
  3  4  1  0
  4  5  1  0
  3  6  1  0
  6  7  2  0
  7  8  1  0
  8  9  2  0
  9 10  1  0
 10 11  1  0
 11 12  1  0
 12 13  2  0
 13 14  1  0
 14 15  2  0
 15 16  1  0
 16 17  2  0
 17 18  1  0
 18 19  1  0
 19 20  2  0
 19 21  1  0
 21 22  1  0
 22 23  1  0
 23 24  1  0
 24 25  1  0
 25 26  1  0
 25 27  1  0
 27 28  1  0
 11 29  2  0
 29 30  1  0
 30 31  2  0
 31  6  1  0
 30  9  1  0
 17 12  1  0
 28 22  1  0
  1 32  1  0
  1 33  1  0
  1 34  1  0
  2 35  1  0
  2 36  1  0
  4 37  1  0
  4 38  1  0
  5 39  1  0
  5 40  1  0
  5 41  1  0
  7 42  1  0
  8 43  1  0
 13 44  1  0
 14 45  1  0
 15 46  1  0
 16 47  1  0
 18 48  1  0
 21 49  1  0
 21 50  1  0
 23 51  1  0
 23 52  1  0
 24 53  1  0
 24 54  1  0
 26 55  1  0
 26 56  1  0
 26 57  1  0
 27 58  1  0
 27 59  1  0
 28 60  1  0
 28 61  1  0
 31 62  1  0
M  CHG  1  10  -1
M  END
>  <UniqueID>  (9) 
9

>  <SMILES>  (9) 
CCN(CC)c1ccc2[n-]c(-c3ccccc3NC(=O)CN3CCN(C)CC3)nc2c1

>  <Energy>  (9) 
119.54685033582965

>  <Genealogy>  (9) 
CCN(CC)c1ccc2[n-]c(-c3ccccc3NC(=O)CN3CCN(C)CC3)nc2c1 (protonated)
CCN(CC)c1ccc2[n-]c(-c3ccccc3NC(=O)CN3CCN(C)CC3)nc2c1 (3D coordinates assigned)
CCN(CC)c1ccc2[n-]c(-c3ccccc3NC(=O)CN3CCN(C)CC3)nc2c1 (nonaromatic ring conformer: 119.54685033582965 kcal/mol)

>  <smiles>  (9) 
CCN(CC)c1ccc2[nH]c(-c3ccccc3NC(=O)CN3CCN(C)CC3)nc2c1

>  <score_type>  (9) 
oracle

>  <origin>  (9) 
adgpu

>  <m_score__min__energy>  (9) 
-9.9900000000000002

>  <m_primary>  (9) 
energy

$$$$
9:0
     RDKit          3D

 65 69  0  0  0  0  0  0  0  0999 V2000
    0.1030   20.7890  -32.1180 C   0  0  0  0  0  0  0  0  0  0  0  0
   -0.1150   21.4470  -30.8740 O   0  0  0  0  0  0  0  0  0  0  0  0
   -0.3140   20.7860  -29.6470 C   0  0  0  0  0  0  0  0  0  0  0  0
    0.1510   19.4740  -29.4210 C   0  0  0  0  0  0  0  0  0  0  0  0
   -0.0960   18.8400  -28.2010 C   0  0  0  0  0  0  0  0  0  0  0  0
   -0.8060   19.5000  -27.1960 C   0  0  0  0  0  0  0  0  0  0  0  0
   -1.2720   20.7990  -27.4060 C   0  0  0  0  0  0  0  0  0  0  0  0
   -1.0130   21.4540  -28.6200 C   0  0  0  0  0  0  0  0  0  0  0  0
   -1.5790   22.7970  -28.8620 C   0  0  0  0  0  0  0  0  0  0  0  0
   -1.0680   24.0000  -28.3710 C   0  0  0  0  0  0  0  0  0  0  0  0
    0.0470   24.2130  -27.4220 C   0  0  0  0  0  0  0  0  0  0  0  0
    1.1800   24.5320  -27.8790 O   0  0  0  0  0  0  0  0  0  0  0  0
   -0.1300   24.0020  -25.9380 C   0  0  0  0  0  0  0  0  0  0  0  0
   -0.9610   25.1110  -25.2570 C   0  0  0  0  0  0  0  0  0  0  0  0
   -0.3940   25.4610  -23.8670 C   0  0  0  0  0  0  0  0  0  0  0  0
   -0.9920   26.3620  -26.1430 C   0  0  0  0  0  0  0  0  0  0  0  0
   -1.7430   24.9970  -29.0510 C   0  0  0  0  0  0  0  0  0  0  0  0
   -1.5680   26.3670  -28.9000 O   0  0  0  0  0  0  0  0  0  0  0  0
   -2.6240   24.3880  -29.9120 C   0  0  0  0  0  0  0  0  0  0  0  0
   -3.4940   25.0570  -30.7700 O   0  0  0  0  0  0  0  0  0  0  0  0
   -2.5240   23.0460  -29.8040 N   0  0  0  0  0  0  0  0  0  0  0  0
   -3.1680   22.0650  -30.6330 C   0  0  0  0  0  0  0  0  0  0  0  0
   -3.9880   21.0840  -30.0570 C   0  0  0  0  0  0  0  0  0  0  0  0
   -4.5320   20.0660  -30.8460 C   0  0  0  0  0  0  0  0  0  0  0  0
   -4.2560   20.0160  -32.2200 C   0  0  0  0  0  0  0  0  0  0  0  0
   -4.7970   18.9150  -33.0470 C   0  0  0  0  0  0  0  0  0  0  0  0
   -6.1880   18.7340  -33.0900 C   0  0  0  0  0  0  0  0  0  0  0  0
   -6.7540   17.7520  -33.9060 C   0  0  0  0  0  0  0  0  0  0  0  0
   -5.9410   16.9400  -34.6970 C   0  0  0  0  0  0  0  0  0  0  0  0
   -4.5460   17.0790  -34.6540 C   0  0  0  0  0  0  0  0  0  0  0  0
   -3.7330   16.2410  -35.4330 C   0  0  0  0  0  0  0  0  0  0  0  0
   -2.3410   16.3500  -35.3680 C   0  0  0  0  0  0  0  0  0  0  0  0
   -1.7520   17.2840  -34.5180 C   0  0  0  0  0  0  0  0  0  0  0  0
   -2.5480   18.1360  -33.7440 C   0  0  0  0  0  0  0  0  0  0  0  0
   -3.9580   18.0620  -33.8130 C   0  0  0  0  0  0  0  0  0  0  0  0
   -3.4690   21.0220  -32.8030 C   0  0  0  0  0  0  0  0  0  0  0  0
   -2.9200   22.0340  -32.0130 C   0  0  0  0  0  0  0  0  0  0  0  0
    0.4440   19.7596  -31.9335 H   0  0  0  0  0  0  0  0  0  0  0  0
   -0.8359   20.7671  -32.6907 H   0  0  0  0  0  0  0  0  0  0  0  0
    0.8692   21.3320  -32.6907 H   0  0  0  0  0  0  0  0  0  0  0  0
    0.7104   18.9478  -30.2085 H   0  0  0  0  0  0  0  0  0  0  0  0
    0.2703   17.8167  -28.0314 H   0  0  0  0  0  0  0  0  0  0  0  0
   -0.9984   18.9957  -26.2375 H   0  0  0  0  0  0  0  0  0  0  0  0
   -1.8438   21.3107  -26.6178 H   0  0  0  0  0  0  0  0  0  0  0  0
   -0.6378   23.0390  -25.7806 H   0  0  0  0  0  0  0  0  0  0  0  0
    0.8721   24.0218  -25.4848 H   0  0  0  0  0  0  0  0  0  0  0  0
   -1.9859   24.7353  -25.1215 H   0  0  0  0  0  0  0  0  0  0  0  0
   -1.0549   25.0530  -23.0881 H   0  0  0  0  0  0  0  0  0  0  0  0
    0.6105   25.0256  -23.7605 H   0  0  0  0  0  0  0  0  0  0  0  0
   -0.3330   26.5541  -23.7605 H   0  0  0  0  0  0  0  0  0  0  0  0
   -1.0143   27.2603  -25.5085 H   0  0  0  0  0  0  0  0  0  0  0  0
   -0.0941   26.3839  -26.7781 H   0  0  0  0  0  0  0  0  0  0  0  0
   -1.8899   26.3394  -26.7781 H   0  0  0  0  0  0  0  0  0  0  0  0
   -3.4940   26.0660  -30.8430 H   0  0  0  0  0  0  0  0  0  0  0  0
   -4.2043   21.1156  -28.9789 H   0  0  0  0  0  0  0  0  0  0  0  0
   -5.1780   19.3025  -30.3879 H   0  0  0  0  0  0  0  0  0  0  0  0
   -6.8392   19.3722  -32.4747 H   0  0  0  0  0  0  0  0  0  0  0  0
   -7.8457   17.6183  -33.9250 H   0  0  0  0  0  0  0  0  0  0  0  0
   -6.3961   16.1872  -35.3575 H   0  0  0  0  0  0  0  0  0  0  0  0
   -4.1934   15.4951  -36.0976 H   0  0  0  0  0  0  0  0  0  0  0  0
   -1.7095   15.6975  -35.9888 H   0  0  0  0  0  0  0  0  0  0  0  0
   -0.6559   17.3520  -34.4551 H   0  0  0  0  0  0  0  0  0  0  0  0
   -2.0724   18.8695  -33.0763 H   0  0  0  0  0  0  0  0  0  0  0  0
   -3.2840   21.0129  -33.8873 H   0  0  0  0  0  0  0  0  0  0  0  0
   -2.2910   22.8094  -32.4745 H   0  0  0  0  0  0  0  0  0  0  0  0
  1  2  1  0
  2  3  1  0
  3  4  2  0
  4  5  1  0
  5  6  2  0
  6  7  1  0
  7  8  2  0
  8  9  1  0
  9 10  2  0
 10 11  1  0
 11 12  2  0
 11 13  1  0
 13 14  1  0
 14 15  1  0
 14 16  1  0
 10 17  1  0
 17 18  1  0
 17 19  2  0
 19 20  1  0
 19 21  1  0
 21 22  1  0
 22 23  2  0
 23 24  1  0
 24 25  2  0
 25 26  1  0
 26 27  2  0
 27 28  1  0
 28 29  2  0
 29 30  1  0
 30 31  2  0
 31 32  1  0
 32 33  2  0
 33 34  1  0
 34 35  2  0
 25 36  1  0
 36 37  2  0
  8  3  1  0
 21  9  1  0
 37 22  1  0
 35 26  1  0
 35 30  1  0
  1 38  1  0
  1 39  1  0
  1 40  1  0
  4 41  1  0
  5 42  1  0
  6 43  1  0
  7 44  1  0
 13 45  1  0
 13 46  1  0
 14 47  1  0
 15 48  1  0
 15 49  1  0
 15 50  1  0
 16 51  1  0
 16 52  1  0
 16 53  1  0
 20 54  1  0
 23 55  1  0
 24 56  1  0
 27 57  1  0
 28 58  1  0
 29 59  1  0
 31 60  1  0
 32 61  1  0
 33 62  1  0
 34 63  1  0
 36 64  1  0
 37 65  1  0
M  CHG  1  18  -1
M  END
>  <UniqueID>  (10) 
10

>  <SMILES>  (10) 
COc1ccccc1-c1c(C(=O)CC(C)C)c([O-])c(O)n1-c1ccc(-c2cccc3ccccc23)cc1

>  <Energy>  (10) 
120.58751913174035

>  <Genealogy>  (10) 
COc1ccccc1-c1c(C(=O)CC(C)C)c([O-])c(O)n1-c1ccc(-c2cccc3ccccc23)cc1 (protonated)
COc1ccccc1-c1c(C(=O)CC(C)C)c([O-])c(O)n1-c1ccc(-c2cccc3ccccc23)cc1 (3D coordinates assigned)
COc1ccccc1-c1c(C(=O)CC(C)C)c([O-])c(O)n1-c1ccc(-c2cccc3ccccc23)cc1 (optimized conformer: 120.58751913174035 kcal/mol)

>  <smiles>  (10) 
COc1ccccc1-c1c(C(=O)CC(C)C)c(O)c(O)n1-c1ccc(-c2cccc3ccccc23)cc1

>  <score_type>  (10) 
oracle

>  <origin>  (10) 
adgpu

>  <m_score__min__energy>  (10) 
-13.630000000000001

>  <m_primary>  (10) 
energy

$$$$
10:0
     RDKit          3D

 34 36  0  0  0  0  0  0  0  0999 V2000
   -1.8140   23.7990  -30.4440 H   0  0  0  0  0  0  0  0  0  0  0  0
   -2.6830   23.3110  -30.7590 N   0  0  0  0  0  0  0  0  0  0  0  0
   -3.8530   23.8680  -30.7020 C   0  0  0  0  0  0  0  0  0  0  0  0
   -5.0140   23.1710  -31.1360 C   0  0  0  0  0  0  0  0  0  0  0  0
   -4.9800   21.8580  -31.6740 C   0  0  0  0  0  0  0  0  0  0  0  0
   -3.7610   21.1970  -31.8580 O   0  0  0  0  0  0  0  0  0  0  0  0
   -3.0830   21.2050  -33.1100 C   0  0  0  0  0  0  0  0  0  0  0  0
   -3.7589   21.5844  -33.8905 H   0  0  0  0  0  0  0  0  0  0  0  0
   -2.1980   21.8549  -33.0433 H   0  0  0  0  0  0  0  0  0  0  0  0
   -2.6480   19.7920  -33.4600 C   0  0  0  0  0  0  0  0  0  0  0  0
   -2.4727   19.2227  -32.5353 H   0  0  0  0  0  0  0  0  0  0  0  0
   -3.4366   19.3009  -34.0491 H   0  0  0  0  0  0  0  0  0  0  0  0
   -1.7198   19.8294  -34.0491 H   0  0  0  0  0  0  0  0  0  0  0  0
   -6.1930   21.2260  -32.0350 C   0  0  0  0  0  0  0  0  0  0  0  0
   -6.2400   19.8270  -32.5180 C   0  0  0  0  0  0  0  0  0  0  0  0
   -6.0370   19.5430  -33.8780 C   0  0  0  0  0  0  0  0  0  0  0  0
   -5.8372   20.3625  -34.5840 H   0  0  0  0  0  0  0  0  0  0  0  0
   -6.0860   18.2610  -34.3270 N   0  0  0  0  0  0  0  0  0  0  0  0
   -6.3420   17.2190  -33.4910 C   0  0  0  0  0  0  0  0  0  0  0  0
   -6.3930   15.5880  -34.1270 Cl  0  0  0  0  0  0  0  0  0  0  0  0
   -6.5700   17.4540  -32.1330 C   0  0  0  0  0  0  0  0  0  0  0  0
   -6.7829   16.6164  -31.4525 H   0  0  0  0  0  0  0  0  0  0  0  0
   -6.5250   18.7620  -31.6480 C   0  0  0  0  0  0  0  0  0  0  0  0
   -6.7131   18.9591  -30.5823 H   0  0  0  0  0  0  0  0  0  0  0  0
   -7.3630   21.9100  -31.9300 N   0  0  0  0  0  0  0  0  0  0  0  0
   -7.4250   23.1780  -31.4560 C   0  0  0  0  0  0  0  0  0  0  0  0
   -8.3943   23.6951  -31.4006 H   0  0  0  0  0  0  0  0  0  0  0  0
   -6.2620   23.8320  -31.0370 C   0  0  0  0  0  0  0  0  0  0  0  0
   -6.3310   25.1330  -30.5300 C   0  0  0  0  0  0  0  0  0  0  0  0
   -7.3004   25.6475  -30.4552 H   0  0  0  0  0  0  0  0  0  0  0  0
   -5.1660   25.7720  -30.1210 C   0  0  0  0  0  0  0  0  0  0  0  0
   -5.2147   26.7955  -29.7210 H   0  0  0  0  0  0  0  0  0  0  0  0
   -3.9670   25.1380  -30.2130 N   0  0  0  0  0  0  0  0  0  0  0  0
   -3.1160   25.6540  -29.8920 H   0  0  0  0  0  0  0  0  0  0  0  0
  1  2  1  0
  2  3  2  0
  3  4  1  0
  4  5  2  0
  5  6  1  0
  6  7  1  0
  7  8  1  0
  7  9  1  0
  7 10  1  0
 10 11  1  0
 10 12  1  0
 10 13  1  0
  5 14  1  0
 14 15  1  0
 15 16  2  0
 16 17  1  0
 16 18  1  0
 18 19  2  0
 19 20  1  0
 19 21  1  0
 21 22  1  0
 21 23  2  0
 23 24  1  0
 14 25  2  0
 25 26  1  0
 26 27  1  0
 26 28  2  0
 28 29  1  0
 29 30  1  0
 29 31  2  0
 31 32  1  0
 31 33  1  0
 33 34  1  0
 33  3  1  0
 28  4  1  0
 23 15  1  0
M  END
>  <UniqueID>  (11) 
11

>  <SMILES>  (11) 
[H]/N=c1\[nH]ccc2cnc(-c3ccc(Cl)nc3)c(OCC)c12

>  <Energy>  (11) 
52.63885083792018

>  <Genealogy>  (11) 
[H]/N=c1\[nH]ccc2cnc(-c3ccc(Cl)nc3)c(OCC)c12 (cis-trans isomerization)
[H]/N=c1\[nH]ccc2cnc(-c3ccc(Cl)nc3)c(OCC)c12 (3D coordinates assigned)
[H]/N=c1\[nH]ccc2cnc(-c3ccc(Cl)nc3)c(OCC)c12 (optimized conformer: 52.63885083792018 kcal/mol)

>  <smiles>  (11) 
CCOc1c(-c2ccc(Cl)nc2)ncc2cc[nH]c(=N)c12

>  <score_type>  (11) 
oracle

>  <origin>  (11) 
adgpu

>  <m_score__min__energy>  (11) 
-7.3399999999999999

>  <m_primary>  (11) 
energy

$$$$
11:0
     RDKit          3D

 38 41  0  0  0  0  0  0  0  0999 V2000
   -3.8670   25.6760  -30.5500 O   0  0  0  0  0  0  0  0  0  0  0  0
   -3.4030   24.6550  -29.7290 C   0  0  0  0  0  0  0  0  0  0  0  0
   -4.0830   23.4330  -29.6840 C   0  0  0  0  0  0  0  0  0  0  0  0
   -3.6220   22.4020  -28.8610 C   0  0  0  0  0  0  0  0  0  0  0  0
   -2.4800   22.5890  -28.0660 C   0  0  0  0  0  0  0  0  0  0  0  0
   -1.9830   21.4720  -27.1860 C   0  0  0  0  0  0  0  0  0  0  0  0
   -0.7220   20.9840  -27.6470 O   0  0  0  0  0  0  0  0  0  0  0  0
   -0.4340   20.6010  -28.9680 C   0  0  0  0  0  0  0  0  0  0  0  0
   -0.4610   21.5840  -29.9600 C   0  0  0  0  0  0  0  0  0  0  0  0
   -0.1890   21.2610  -31.2910 C   0  0  0  0  0  0  0  0  0  0  0  0
    0.1180   19.9390  -31.6580 C   0  0  0  0  0  0  0  0  0  0  0  0
    0.4020   19.6160  -33.0770 C   0  0  0  0  0  0  0  0  0  0  0  0
    0.0160   18.4510  -33.6690 N   0  0  0  0  0  0  0  0  0  0  0  0
    0.4800   18.6020  -34.9200 C   0  0  0  0  0  0  0  0  0  0  0  0
    0.3760   17.7100  -35.9860 C   0  0  0  0  0  0  0  0  0  0  0  0
    0.9470   18.0950  -37.2150 C   0  0  0  0  0  0  0  0  0  0  0  0
    1.5990   19.3440  -37.3420 C   0  0  0  0  0  0  0  0  0  0  0  0
    1.6850   20.2180  -36.2420 C   0  0  0  0  0  0  0  0  0  0  0  0
    1.1070   19.8020  -35.0450 C   0  0  0  0  0  0  0  0  0  0  0  0
    1.0550   20.4240  -33.9000 O   0  0  0  0  0  0  0  0  0  0  0  0
    0.1510   18.9450  -30.6570 C   0  0  0  0  0  0  0  0  0  0  0  0
    0.4540   17.6230  -30.9690 O   0  0  0  0  0  0  0  0  0  0  0  0
   -0.1210   19.2770  -29.3250 C   0  0  0  0  0  0  0  0  0  0  0  0
   -1.7930   23.8130  -28.1230 C   0  0  0  0  0  0  0  0  0  0  0  0
   -2.2560   24.8430  -28.9480 C   0  0  0  0  0  0  0  0  0  0  0  0
   -1.5740   26.0540  -28.9910 O   0  0  0  0  0  0  0  0  0  0  0  0
   -4.9832   23.2834  -30.2983 H   0  0  0  0  0  0  0  0  0  0  0  0
   -4.1558   21.4405  -28.8360 H   0  0  0  0  0  0  0  0  0  0  0  0
   -1.8705   21.8462  -26.1577 H   0  0  0  0  0  0  0  0  0  0  0  0
   -2.7117   20.6486  -27.2171 H   0  0  0  0  0  0  0  0  0  0  0  0
   -0.6990   22.6234  -29.6899 H   0  0  0  0  0  0  0  0  0  0  0  0
   -0.2152   22.0479  -32.0592 H   0  0  0  0  0  0  0  0  0  0  0  0
   -0.1330   16.7415  -35.8719 H   0  0  0  0  0  0  0  0  0  0  0  0
    0.8855   17.4201  -38.0814 H   0  0  0  0  0  0  0  0  0  0  0  0
    2.0415   19.6340  -38.3064 H   0  0  0  0  0  0  0  0  0  0  0  0
    2.1893   21.1921  -36.3245 H   0  0  0  0  0  0  0  0  0  0  0  0
   -0.0898   18.4961  -28.5509 H   0  0  0  0  0  0  0  0  0  0  0  0
   -0.8875   23.9619  -27.5165 H   0  0  0  0  0  0  0  0  0  0  0  0
  1  2  1  0
  2  3  2  0
  3  4  1  0
  4  5  2  0
  5  6  1  0
  6  7  1  0
  7  8  1  0
  8  9  2  0
  9 10  1  0
 10 11  2  0
 11 12  1  0
 12 13  2  0
 13 14  1  0
 14 15  2  0
 15 16  1  0
 16 17  2  0
 17 18  1  0
 18 19  2  0
 19 20  1  0
 11 21  1  0
 21 22  1  0
 21 23  2  0
  5 24  1  0
 24 25  2  0
 25 26  1  0
 25  2  1  0
 23  8  1  0
 20 12  1  0
 19 14  1  0
  3 27  1  0
  4 28  1  0
  6 29  1  0
  6 30  1  0
  9 31  1  0
 10 32  1  0
 15 33  1  0
 16 34  1  0
 17 35  1  0
 18 36  1  0
 23 37  1  0
 24 38  1  0
M  CHG  3   1  -1  22  -1  26  -1
M  END
>  <UniqueID>  (12) 
12

>  <SMILES>  (12) 
[O-]c1ccc(COc2ccc(-c3nc4ccccc4o3)c([O-])c2)cc1[O-]

>  <Energy>  (12) 
82.22914727179173

>  <Genealogy>  (12) 
[O-]c1ccc(COc2ccc(-c3nc4ccccc4o3)c([O-])c2)cc1[O-] (protonated)
[O-]c1ccc(COc2ccc(-c3nc4ccccc4o3)c([O-])c2)cc1[O-] (3D coordinates assigned)
[O-]c1ccc(COc2ccc(-c3nc4ccccc4o3)c([O-])c2)cc1[O-] (optimized conformer: 82.22914727179173 kcal/mol)

>  <smiles>  (12) 
Oc1ccc(COc2ccc(-c3nc4ccccc4o3)c(O)c2)cc1O

>  <score_type>  (12) 
oracle

>  <origin>  (12) 
adgpu

>  <m_score__min__energy>  (12) 
-12.050000000000001

>  <m_primary>  (12) 
energy

$$$$
12:0
     RDKit          3D

 48 50  0  0  0  0  0  0  0  0999 V2000
   -0.0290   25.7750  -24.1800 C   0  0  0  0  0  0  0  0  0  0  0  0
   -1.2080   25.8950  -25.0980 C   0  0  0  0  0  0  0  0  0  0  0  0
   -1.9930   26.8710  -24.9420 O   0  0  0  0  0  0  0  0  0  0  0  0
   -1.4730   24.9020  -26.1730 C   0  0  0  0  0  0  0  0  0  0  0  0
   -1.2400   23.5330  -25.9410 C   0  0  0  0  0  0  0  0  0  0  0  0
   -1.4600   22.5930  -26.9500 C   0  0  0  0  0  0  0  0  0  0  0  0
   -1.9300   23.0000  -28.1990 C   0  0  0  0  0  0  0  0  0  0  0  0
   -2.1930   24.3590  -28.4460 C   0  0  0  0  0  0  0  0  0  0  0  0
   -2.6430   24.8160  -29.6960 O   0  0  0  0  0  0  0  0  0  0  0  0
   -3.7290   24.2940  -30.4180 C   0  0  0  0  0  0  0  0  0  0  0  0
   -4.9740   24.9470  -30.4520 C   0  0  0  0  0  0  0  0  0  0  0  0
   -6.0390   24.4020  -31.1780 C   0  0  0  0  0  0  0  0  0  0  0  0
   -5.8770   23.2030  -31.8870 C   0  0  0  0  0  0  0  0  0  0  0  0
   -6.9920   22.6560  -32.6100 N   0  0  0  0  0  0  0  0  0  0  0  0
   -7.9550   21.3360  -32.0260 S   0  0  0  0  0  0  0  0  0  0  0  0
   -8.0000   21.3870  -30.5240 O   0  0  0  0  0  0  0  0  0  0  0  0
   -9.3580   21.4260  -32.5590 O   0  0  0  0  0  0  0  0  0  0  0  0
   -7.2390   19.8100  -32.5740 C   0  0  0  0  0  0  0  0  0  0  0  0
   -6.0180   19.8420  -33.2670 C   0  0  0  0  0  0  0  0  0  0  0  0
   -5.4000   18.6540  -33.7030 C   0  0  0  0  0  0  0  0  0  0  0  0
   -4.1410   18.6940  -34.4040 N   0  0  0  0  0  0  0  0  0  0  0  0
   -3.8510   17.8180  -35.2440 O   0  0  0  0  0  0  0  0  0  0  0  0
   -3.2380   19.7060  -34.1600 O   0  0  0  0  0  0  0  0  0  0  0  0
   -6.0250   17.4270  -33.4390 C   0  0  0  0  0  0  0  0  0  0  0  0
   -7.2410   17.3830  -32.7560 C   0  0  0  0  0  0  0  0  0  0  0  0
   -7.8680   18.5640  -32.3260 C   0  0  0  0  0  0  0  0  0  0  0  0
   -9.1680   18.4630  -31.5700 C   0  0  0  0  0  0  0  0  0  0  0  0
   -4.6160   22.5790  -31.8960 C   0  0  0  0  0  0  0  0  0  0  0  0
   -3.5510   23.1190  -31.1640 C   0  0  0  0  0  0  0  0  0  0  0  0
   -1.9920   22.3060  -31.1820 Cl  0  0  0  0  0  0  0  0  0  0  0  0
   -1.9480   25.3000  -27.4390 C   0  0  0  0  0  0  0  0  0  0  0  0
   -0.3725   25.8100  -23.1356 H   0  0  0  0  0  0  0  0  0  0  0  0
    0.4844   24.8200  -24.3654 H   0  0  0  0  0  0  0  0  0  0  0  0
    0.6662   26.6070  -24.3654 H   0  0  0  0  0  0  0  0  0  0  0  0
   -0.8813   23.2007  -24.9556 H   0  0  0  0  0  0  0  0  0  0  0  0
   -1.2620   21.5279  -26.7594 H   0  0  0  0  0  0  0  0  0  0  0  0
   -2.0952   22.2561  -28.9923 H   0  0  0  0  0  0  0  0  0  0  0  0
   -5.1115   25.8914  -29.9049 H   0  0  0  0  0  0  0  0  0  0  0  0
   -7.0104   24.9179  -31.1926 H   0  0  0  0  0  0  0  0  0  0  0  0
   -7.3440   23.1610  -33.4530 H   0  0  0  0  0  0  0  0  0  0  0  0
   -5.5370   20.8097  -33.4724 H   0  0  0  0  0  0  0  0  0  0  0  0
   -5.5529   16.4913  -33.7731 H   0  0  0  0  0  0  0  0  0  0  0  0
   -7.7144   16.4113  -32.5518 H   0  0  0  0  0  0  0  0  0  0  0  0
   -8.9656   18.4787  -30.4889 H   0  0  0  0  0  0  0  0  0  0  0  0
   -9.8131   19.3137  -31.8347 H   0  0  0  0  0  0  0  0  0  0  0  0
   -9.6740   17.5228  -31.8347 H   0  0  0  0  0  0  0  0  0  0  0  0
   -4.4655   21.6604  -32.4822 H   0  0  0  0  0  0  0  0  0  0  0  0
   -2.1290   26.3665  -27.6388 H   0  0  0  0  0  0  0  0  0  0  0  0
  1  2  1  0
  2  3  2  0
  2  4  1  0
  4  5  2  0
  5  6  1  0
  6  7  2  0
  7  8  1  0
  8  9  1  0
  9 10  1  0
 10 11  2  0
 11 12  1  0
 12 13  2  0
 13 14  1  0
 14 15  1  0
 15 16  2  0
 15 17  2  0
 15 18  1  0
 18 19  2  0
 19 20  1  0
 20 21  1  0
 21 22  2  0
 21 23  1  0
 20 24  2  0
 24 25  1  0
 25 26  2  0
 26 27  1  0
 13 28  1  0
 28 29  2  0
 29 30  1  0
  8 31  2  0
 31  4  1  0
 29 10  1  0
 26 18  1  0
  1 32  1  0
  1 33  1  0
  1 34  1  0
  5 35  1  0
  6 36  1  0
  7 37  1  0
 11 38  1  0
 12 39  1  0
 14 40  1  0
 19 41  1  0
 24 42  1  0
 25 43  1  0
 27 44  1  0
 27 45  1  0
 27 46  1  0
 28 47  1  0
 31 48  1  0
M  CHG  2  21   1  23  -1
M  END
>  <UniqueID>  (13) 
13

>  <SMILES>  (13) 
CC(=O)c1cccc(Oc2ccc(NS(=O)(=O)c3cc([N+](=O)[O-])ccc3C)cc2Cl)c1

>  <Energy>  (13) 
64.37603641872819

>  <Genealogy>  (13) 
CC(=O)c1cccc(Oc2ccc(NS(=O)(=O)c3cc([N+](=O)[O-])ccc3C)cc2Cl)c1 (3D coordinates assigned)
CC(=O)c1cccc(Oc2ccc(NS(=O)(=O)c3cc([N+](=O)[O-])ccc3C)cc2Cl)c1 (optimized conformer: 64.37603641872819 kcal/mol)

>  <smiles>  (13) 
CC(=O)c1cccc(Oc2ccc(NS(=O)(=O)c3cc([N+](=O)[O-])ccc3C)cc2Cl)c1

>  <score_type>  (13) 
oracle

>  <origin>  (13) 
adgpu

>  <m_score__min__energy>  (13) 
-10.33

>  <m_primary>  (13) 
energy

$$$$
13:0
     RDKit          3D

 46 47  0  0  0  0  0  0  0  0999 V2000
   -3.0880   21.2200  -32.6690 C   0  0  0  0  0  0  0  0  0  0  0  0
   -4.3470   21.9860  -33.0630 C   0  0  0  0  0  0  0  0  0  0  0  0
   -5.2010   22.2890  -31.9040 N   0  0  0  0  0  0  0  0  0  0  0  0
   -6.5910   21.9300  -31.9780 C   0  0  0  0  0  0  0  0  0  0  0  0
   -7.5640   22.8690  -31.5920 C   0  0  0  0  0  0  0  0  0  0  0  0
   -8.9180   22.5330  -31.6030 C   0  0  0  0  0  0  0  0  0  0  0  0
   -9.3180   21.2560  -31.9970 C   0  0  0  0  0  0  0  0  0  0  0  0
   -8.3640   20.3140  -32.3830 C   0  0  0  0  0  0  0  0  0  0  0  0
   -6.9940   20.6350  -32.3750 C   0  0  0  0  0  0  0  0  0  0  0  0
   -6.0350   19.6580  -32.8240 N   0  0  0  0  0  0  0  0  0  0  0  0
   -5.9140   19.3590  -34.2560 C   0  0  0  0  0  0  0  0  0  0  0  0
   -5.7070   17.8510  -34.4770 C   0  0  0  0  0  0  0  0  0  0  0  0
   -6.4270   17.0770  -33.4440 N   0  0  0  0  0  0  0  0  0  0  0  0
   -6.4100   15.6640  -33.7720 C   0  0  0  0  0  0  0  0  0  0  0  0
   -5.3480   14.7500  -33.2270 C   0  0  0  0  0  0  0  0  0  0  0  0
   -7.2720   15.1900  -34.5010 O   0  0  0  0  0  0  0  0  0  0  0  0
   -5.8560   17.2990  -32.0900 C   0  0  0  0  0  0  0  0  0  0  0  0
   -5.3890   18.7540  -31.8660 C   0  0  0  0  0  0  0  0  0  0  0  0
   -4.7710   23.5990  -30.8380 S   0  0  0  0  0  0  0  0  0  0  0  0
   -5.3380   23.2920  -29.1780 C   0  0  0  0  0  0  0  0  0  0  0  0
   -5.3960   24.8750  -31.3280 O   0  0  0  0  0  0  0  0  0  0  0  0
   -3.2790   23.7720  -30.8280 O   0  0  0  0  0  0  0  0  0  0  0  0
   -3.0142   21.1751  -31.5724 H   0  0  0  0  0  0  0  0  0  0  0  0
   -3.1378   20.1990  -33.0752 H   0  0  0  0  0  0  0  0  0  0  0  0
   -2.2041   21.7336  -33.0752 H   0  0  0  0  0  0  0  0  0  0  0  0
   -4.0510   22.9313  -33.5412 H   0  0  0  0  0  0  0  0  0  0  0  0
   -4.9255   21.3521  -33.7511 H   0  0  0  0  0  0  0  0  0  0  0  0
   -7.2549   23.8771  -31.2787 H   0  0  0  0  0  0  0  0  0  0  0  0
   -9.6709   23.2758  -31.3007 H   0  0  0  0  0  0  0  0  0  0  0  0
  -10.3858   20.9917  -32.0033 H   0  0  0  0  0  0  0  0  0  0  0  0
   -8.6861   19.3101  -32.6968 H   0  0  0  0  0  0  0  0  0  0  0  0
   -6.8324   19.6774  -34.7709 H   0  0  0  0  0  0  0  0  0  0  0  0
   -5.0453   19.8998  -34.6597 H   0  0  0  0  0  0  0  0  0  0  0  0
   -6.0898   17.5740  -35.4704 H   0  0  0  0  0  0  0  0  0  0  0  0
   -4.6328   17.6239  -34.4100 H   0  0  0  0  0  0  0  0  0  0  0  0
   -7.4210   17.4100  -33.4310 H   0  0  0  0  0  0  0  0  0  0  0  0
   -5.3739   14.7723  -32.1275 H   0  0  0  0  0  0  0  0  0  0  0  0
   -5.5324   13.7237  -33.5774 H   0  0  0  0  0  0  0  0  0  0  0  0
   -4.3606   15.0852  -33.5774 H   0  0  0  0  0  0  0  0  0  0  0  0
   -6.6247   17.0578  -31.3410 H   0  0  0  0  0  0  0  0  0  0  0  0
   -4.9729   16.6503  -31.9937 H   0  0  0  0  0  0  0  0  0  0  0  0
   -5.6507   19.0641  -30.8436 H   0  0  0  0  0  0  0  0  0  0  0  0
   -4.2998   18.8028  -32.0120 H   0  0  0  0  0  0  0  0  0  0  0  0
   -4.6046   23.6891  -28.4607 H   0  0  0  0  0  0  0  0  0  0  0  0
   -6.3074   23.7884  -29.0240 H   0  0  0  0  0  0  0  0  0  0  0  0
   -5.4522   22.2088  -29.0240 H   0  0  0  0  0  0  0  0  0  0  0  0
  1  2  1  0
  2  3  1  0
  3  4  1  0
  4  5  2  0
  5  6  1  0
  6  7  2  0
  7  8  1  0
  8  9  2  0
  9 10  1  0
 10 11  1  0
 11 12  1  0
 12 13  1  0
 13 14  1  0
 14 15  1  0
 14 16  2  0
 13 17  1  0
 17 18  1  0
  3 19  1  0
 19 20  1  0
 19 21  2  0
 19 22  2  0
  9  4  1  0
 18 10  1  0
  1 23  1  0
  1 24  1  0
  1 25  1  0
  2 26  1  0
  2 27  1  0
  5 28  1  0
  6 29  1  0
  7 30  1  0
  8 31  1  0
 11 32  1  0
 11 33  1  0
 12 34  1  0
 12 35  1  0
 13 36  1  0
 15 37  1  0
 15 38  1  0
 15 39  1  0
 17 40  1  0
 17 41  1  0
 18 42  1  0
 18 43  1  0
 20 44  1  0
 20 45  1  0
 20 46  1  0
M  CHG  1  13   1
M  END
>  <UniqueID>  (14) 
14

>  <SMILES>  (14) 
CCN(c1ccccc1N1CC[NH+](C(C)=O)CC1)S(C)(=O)=O

>  <Energy>  (14) 
54.08480160390272

>  <Genealogy>  (14) 
CCN(c1ccccc1N1CC[NH+](C(C)=O)CC1)S(C)(=O)=O (protonated)
CCN(c1ccccc1N1CC[NH+](C(C)=O)CC1)S(C)(=O)=O (3D coordinates assigned)
CCN(c1ccccc1N1CC[NH+](C(C)=O)CC1)S(C)(=O)=O (nonaromatic ring conformer: 54.08480160390272 kcal/mol)

>  <smiles>  (14) 
CCN(c1ccccc1N1CCN(C(C)=O)CC1)S(C)(=O)=O

>  <score_type>  (14) 
oracle

>  <origin>  (14) 
adgpu

>  <m_score__min__energy>  (14) 
-7.4800000000000004

>  <m_primary>  (14) 
energy

$$$$
14:0
     RDKit          3D

 34 36  0  0  0  0  0  0  0  0999 V2000
   -1.8790   25.3690  -28.9940 O   0  0  0  0  0  0  0  0  0  0  0  0
   -2.6580   24.5140  -29.4920 C   0  0  0  0  0  0  0  0  0  0  0  0
   -3.6420   24.9490  -30.4390 N   0  0  0  0  0  0  0  0  0  0  0  0
   -5.0280   24.5910  -30.4050 C   0  0  0  0  0  0  0  0  0  0  0  0
   -6.0680   25.2720  -29.8000 C   0  0  0  0  0  0  0  0  0  0  0  0
   -7.2150   24.6110  -30.0470 N   0  0  0  0  0  0  0  0  0  0  0  0
   -6.9170   23.5590  -30.7940 N   0  0  0  0  0  0  0  0  0  0  0  0
   -8.0840   22.3930  -31.3170 S   0  0  0  0  0  0  0  0  0  0  0  0
   -9.0140   23.0190  -32.3180 O   0  0  0  0  0  0  0  0  0  0  0  0
   -8.8790   21.9400  -30.1260 O   0  0  0  0  0  0  0  0  0  0  0  0
   -7.2670   21.0200  -32.0550 C   0  0  0  0  0  0  0  0  0  0  0  0
   -6.0670   21.2080  -32.7550 C   0  0  0  0  0  0  0  0  0  0  0  0
   -5.4150   20.1160  -33.3390 C   0  0  0  0  0  0  0  0  0  0  0  0
   -5.9580   18.8330  -33.2230 C   0  0  0  0  0  0  0  0  0  0  0  0
   -5.3240   17.7760  -33.7900 F   0  0  0  0  0  0  0  0  0  0  0  0
   -7.1530   18.6400  -32.5200 C   0  0  0  0  0  0  0  0  0  0  0  0
   -7.6800   17.3950  -32.4040 F   0  0  0  0  0  0  0  0  0  0  0  0
   -7.8050   19.7300  -31.9360 C   0  0  0  0  0  0  0  0  0  0  0  0
   -5.5960   23.5140  -31.0410 C   0  0  0  0  0  0  0  0  0  0  0  0
   -2.5000   23.0950  -29.1120 C   0  0  0  0  0  0  0  0  0  0  0  0
   -3.2830   22.5160  -28.0980 C   0  0  0  0  0  0  0  0  0  0  0  0
   -3.1090   21.1670  -27.7830 C   0  0  0  0  0  0  0  0  0  0  0  0
   -2.1760   20.4040  -28.4840 C   0  0  0  0  0  0  0  0  0  0  0  0
   -1.4290   21.0040  -29.5000 C   0  0  0  0  0  0  0  0  0  0  0  0
   -1.6090   22.3200  -29.7900 N   0  0  0  0  0  0  0  0  0  0  0  0
   -5.9743   26.1987  -29.2148 H   0  0  0  0  0  0  0  0  0  0  0  0
   -5.6368   22.2163  -32.8455 H   0  0  0  0  0  0  0  0  0  0  0  0
   -4.4748   20.2673  -33.8896 H   0  0  0  0  0  0  0  0  0  0  0  0
   -8.7425   19.5757  -31.3816 H   0  0  0  0  0  0  0  0  0  0  0  0
   -5.0690   22.7568  -31.6400 H   0  0  0  0  0  0  0  0  0  0  0  0
   -4.0262   23.1205  -27.5575 H   0  0  0  0  0  0  0  0  0  0  0  0
   -3.7072   20.7067  -26.9828 H   0  0  0  0  0  0  0  0  0  0  0  0
   -2.0300   19.3415  -28.2395 H   0  0  0  0  0  0  0  0  0  0  0  0
   -0.6948   20.4117  -30.0658 H   0  0  0  0  0  0  0  0  0  0  0  0
  1  2  2  0
  2  3  1  0
  3  4  1  0
  4  5  1  0
  5  6  2  0
  6  7  1  0
  7  8  1  0
  8  9  2  0
  8 10  2  0
  8 11  1  0
 11 12  2  0
 12 13  1  0
 13 14  2  0
 14 15  1  0
 14 16  1  0
 16 17  1  0
 16 18  2  0
  7 19  1  0
  2 20  1  0
 20 21  2  0
 21 22  1  0
 22 23  2  0
 23 24  1  0
 24 25  2  0
 19  4  2  0
 25 20  1  0
 18 11  1  0
  5 26  1  0
 12 27  1  0
 13 28  1  0
 18 29  1  0
 19 30  1  0
 21 31  1  0
 22 32  1  0
 23 33  1  0
 24 34  1  0
M  CHG  1   3  -1
M  END
>  <UniqueID>  (15) 
15

>  <SMILES>  (15) 
O=C([N-]c1cnn(S(=O)(=O)c2ccc(F)c(F)c2)c1)c1ccccn1

>  <Energy>  (15) 
76.09943265026216

>  <Genealogy>  (15) 
O=C([N-]c1cnn(S(=O)(=O)c2ccc(F)c(F)c2)c1)c1ccccn1 (protonated)
O=C([N-]c1cnn(S(=O)(=O)c2ccc(F)c(F)c2)c1)c1ccccn1 (3D coordinates assigned)
O=C([N-]c1cnn(S(=O)(=O)c2ccc(F)c(F)c2)c1)c1ccccn1 (optimized conformer: 76.09943265026216 kcal/mol)

>  <smiles>  (15) 
O=C(Nc1cnn(S(=O)(=O)c2ccc(F)c(F)c2)c1)c1ccccn1

>  <score_type>  (15) 
oracle

>  <origin>  (15) 
adgpu

>  <m_score__min__energy>  (15) 
-10.07

>  <m_primary>  (15) 
energy

$$$$
15:0
     RDKit          3D

 40 41  0  0  0  0  0  0  0  0999 V2000
   -3.7890   21.9060  -33.0510 C   0  0  0  0  0  0  0  0  0  0  0  0
   -2.6910   21.6870  -32.0130 C   0  0  0  0  0  0  0  0  0  0  0  0
   -2.7950   22.6780  -30.9300 N   0  0  0  0  0  0  0  0  0  0  0  0
   -1.6290   22.9460  -30.0730 C   0  0  0  0  0  0  0  0  0  0  0  0
   -2.0750   23.3990  -28.6860 C   0  0  0  0  0  0  0  0  0  0  0  0
   -4.0530   23.3350  -30.6600 C   0  0  0  0  0  0  0  0  0  0  0  0
   -4.1360   24.6940  -30.6680 N   0  0  0  0  0  0  0  0  0  0  0  0
   -5.3130   25.3300  -30.4380 C   0  0  0  0  0  0  0  0  0  0  0  0
   -5.3610   26.5870  -30.4590 O   0  0  0  0  0  0  0  0  0  0  0  0
   -6.4660   24.5900  -30.1830 C   0  0  0  0  0  0  0  0  0  0  0  0
   -6.3700   23.1940  -30.1610 C   0  0  0  0  0  0  0  0  0  0  0  0
   -7.5740   22.3420  -29.8980 C   0  0  0  0  0  0  0  0  0  0  0  0
   -8.4480   22.0110  -31.4180 S   0  0  0  0  0  0  0  0  0  0  0  0
   -8.2120   23.1250  -32.4000 O   0  0  0  0  0  0  0  0  0  0  0  0
   -9.9230   21.9090  -31.1440 O   0  0  0  0  0  0  0  0  0  0  0  0
   -7.8530   20.5000  -32.0960 C   0  0  0  0  0  0  0  0  0  0  0  0
   -6.8250   20.5210  -33.0490 C   0  0  0  0  0  0  0  0  0  0  0  0
   -6.3300   19.3240  -33.5760 C   0  0  0  0  0  0  0  0  0  0  0  0
   -6.8570   18.1000  -33.1520 C   0  0  0  0  0  0  0  0  0  0  0  0
   -6.2300   16.6000  -33.8080 Cl  0  0  0  0  0  0  0  0  0  0  0  0
   -7.8810   18.0750  -32.1990 C   0  0  0  0  0  0  0  0  0  0  0  0
   -8.3770   19.2700  -31.6700 C   0  0  0  0  0  0  0  0  0  0  0  0
   -5.1720   22.6020  -30.4110 N   0  0  0  0  0  0  0  0  0  0  0  0
   -4.7442   22.0965  -32.5397 H   0  0  0  0  0  0  0  0  0  0  0  0
   -3.5313   22.7704  -33.6806 H   0  0  0  0  0  0  0  0  0  0  0  0
   -3.8826   21.0088  -33.6806 H   0  0  0  0  0  0  0  0  0  0  0  0
   -2.7909   20.6769  -31.5891 H   0  0  0  0  0  0  0  0  0  0  0  0
   -1.7128   21.7997  -32.5033 H   0  0  0  0  0  0  0  0  0  0  0  0
   -1.0311   22.0276  -29.9785 H   0  0  0  0  0  0  0  0  0  0  0  0
   -1.0283   23.7455  -30.5312 H   0  0  0  0  0  0  0  0  0  0  0  0
   -1.5207   22.8360  -27.9206 H   0  0  0  0  0  0  0  0  0  0  0  0
   -1.8729   24.4739  -28.5687 H   0  0  0  0  0  0  0  0  0  0  0  0
   -3.1529   23.2137  -28.5687 H   0  0  0  0  0  0  0  0  0  0  0  0
   -7.4286   25.0912  -30.0033 H   0  0  0  0  0  0  0  0  0  0  0  0
   -7.2531   21.3900  -29.4500 H   0  0  0  0  0  0  0  0  0  0  0  0
   -8.2455   22.8769  -29.2103 H   0  0  0  0  0  0  0  0  0  0  0  0
   -6.4066   21.4818  -33.3832 H   0  0  0  0  0  0  0  0  0  0  0  0
   -5.5249   19.3452  -34.3252 H   0  0  0  0  0  0  0  0  0  0  0  0
   -8.2967   17.1128  -31.8653 H   0  0  0  0  0  0  0  0  0  0  0  0
   -9.1797   19.2461  -30.9183 H   0  0  0  0  0  0  0  0  0  0  0  0
  1  2  1  0
  2  3  1  0
  3  4  1  0
  4  5  1  0
  3  6  1  0
  6  7  2  0
  7  8  1  0
  8  9  2  0
  8 10  1  0
 10 11  2  0
 11 12  1  0
 12 13  1  0
 13 14  2  0
 13 15  2  0
 13 16  1  0
 16 17  2  0
 17 18  1  0
 18 19  2  0
 19 20  1  0
 19 21  1  0
 21 22  2  0
 11 23  1  0
 23  6  1  0
 22 16  1  0
  1 24  1  0
  1 25  1  0
  1 26  1  0
  2 27  1  0
  2 28  1  0
  4 29  1  0
  4 30  1  0
  5 31  1  0
  5 32  1  0
  5 33  1  0
 10 34  1  0
 12 35  1  0
 12 36  1  0
 17 37  1  0
 18 38  1  0
 21 39  1  0
 22 40  1  0
M  CHG  1  23  -1
M  END
>  <UniqueID>  (16) 
16

>  <SMILES>  (16) 
CCN(CC)c1nc(=O)cc(CS(=O)(=O)c2ccc(Cl)cc2)[n-]1

>  <Energy>  (16) 
30.57273886632302

>  <Genealogy>  (16) 
CCN(CC)c1nc(=O)cc(CS(=O)(=O)c2ccc(Cl)cc2)[n-]1 (protonated)
CCN(CC)c1nc(=O)cc(CS(=O)(=O)c2ccc(Cl)cc2)[n-]1 (3D coordinates assigned)
CCN(CC)c1nc(=O)cc(CS(=O)(=O)c2ccc(Cl)cc2)[n-]1 (optimized conformer: 30.57273886632302 kcal/mol)

>  <smiles>  (16) 
CCN(CC)c1nc(=O)cc(CS(=O)(=O)c2ccc(Cl)cc2)[nH]1

>  <score_type>  (16) 
oracle

>  <origin>  (16) 
adgpu

>  <m_score__min__energy>  (16) 
-9.4700000000000006

>  <m_primary>  (16) 
energy

$$$$
16:0
     RDKit          3D

 50 52  0  0  0  0  0  0  0  0999 V2000
   -3.0830   23.6680  -28.2380 C   0  0  0  0  0  0  0  0  0  0  0  0
   -2.8170   24.6470  -29.3410 C   0  0  0  0  0  0  0  0  0  0  0  0
   -1.7410   25.3010  -29.3290 O   0  0  0  0  0  0  0  0  0  0  0  0
   -3.7640   24.8810  -30.3920 N   0  0  0  0  0  0  0  0  0  0  0  0
   -4.8340   24.0090  -30.7800 C   0  0  0  0  0  0  0  0  0  0  0  0
   -4.5910   22.6970  -31.2220 C   0  0  0  0  0  0  0  0  0  0  0  0
   -5.6540   21.8730  -31.6040 C   0  0  0  0  0  0  0  0  0  0  0  0
   -6.9700   22.3550  -31.5620 C   0  0  0  0  0  0  0  0  0  0  0  0
   -8.3210   21.3060  -31.9800 S   0  0  0  0  0  0  0  0  0  0  0  0
   -8.6400   20.4340  -30.7980 O   0  0  0  0  0  0  0  0  0  0  0  0
   -9.5350   22.1170  -32.3360 O   0  0  0  0  0  0  0  0  0  0  0  0
   -7.8890   20.3090  -33.3350 N   0  0  0  0  0  0  0  0  0  0  0  0
   -6.9260   19.2450  -33.2520 C   0  0  0  0  0  0  0  0  0  0  0  0
   -6.1350   18.9450  -34.3730 C   0  0  0  0  0  0  0  0  0  0  0  0
   -5.2100   17.8990  -34.3270 C   0  0  0  0  0  0  0  0  0  0  0  0
   -5.0510   17.1480  -33.1550 C   0  0  0  0  0  0  0  0  0  0  0  0
   -3.9170   15.8020  -33.1000 S   0  0  0  0  0  0  0  0  0  0  0  0
   -4.3130   14.8350  -32.0160 O   0  0  0  0  0  0  0  0  0  0  0  0
   -3.9480   15.0800  -34.4170 O   0  0  0  0  0  0  0  0  0  0  0  0
   -2.3060   16.3810  -32.8070 N   0  0  0  0  0  0  0  0  0  0  0  0
   -1.9140   17.3180  -33.8580 C   0  0  0  0  0  0  0  0  0  0  0  0
   -1.8530   18.7040  -33.2820 C   0  0  0  0  0  0  0  0  0  0  0  0
   -1.1610   18.9430  -32.0820 C   0  0  0  0  0  0  0  0  0  0  0  0
   -1.1580   20.2220  -31.5170 C   0  0  0  0  0  0  0  0  0  0  0  0
   -1.8530   21.2650  -32.1380 C   0  0  0  0  0  0  0  0  0  0  0  0
   -2.5510   21.0310  -33.3290 C   0  0  0  0  0  0  0  0  0  0  0  0
   -2.5570   19.7540  -33.8980 C   0  0  0  0  0  0  0  0  0  0  0  0
   -5.8280   17.4480  -32.0310 C   0  0  0  0  0  0  0  0  0  0  0  0
   -6.7530   18.4950  -32.0730 C   0  0  0  0  0  0  0  0  0  0  0  0
   -7.2080   23.6780  -31.1670 C   0  0  0  0  0  0  0  0  0  0  0  0
   -6.1450   24.5030  -30.7830 C   0  0  0  0  0  0  0  0  0  0  0  0
   -2.9479   24.1651  -27.2661 H   0  0  0  0  0  0  0  0  0  0  0  0
   -4.1149   23.2957  -28.3192 H   0  0  0  0  0  0  0  0  0  0  0  0
   -2.3814   22.8247  -28.3192 H   0  0  0  0  0  0  0  0  0  0  0  0
   -3.5598   22.3168  -31.2676 H   0  0  0  0  0  0  0  0  0  0  0  0
   -5.4573   20.8437  -31.9384 H   0  0  0  0  0  0  0  0  0  0  0  0
   -8.4780   20.3950  -34.1950 H   0  0  0  0  0  0  0  0  0  0  0  0
   -6.2445   19.5375  -35.2933 H   0  0  0  0  0  0  0  0  0  0  0  0
   -4.6041   17.6641  -35.2145 H   0  0  0  0  0  0  0  0  0  0  0  0
   -0.9254   17.0384  -34.2510 H   0  0  0  0  0  0  0  0  0  0  0  0
   -2.6498   17.2879  -34.6751 H   0  0  0  0  0  0  0  0  0  0  0  0
   -0.6210   18.1226  -31.5867 H   0  0  0  0  0  0  0  0  0  0  0  0
   -0.6082   20.4083  -30.5826 H   0  0  0  0  0  0  0  0  0  0  0  0
   -1.8512   22.2698  -31.6904 H   0  0  0  0  0  0  0  0  0  0  0  0
   -3.0952   21.8527  -33.8175 H   0  0  0  0  0  0  0  0  0  0  0  0
   -3.1133   19.5703  -34.8290 H   0  0  0  0  0  0  0  0  0  0  0  0
   -5.7105   16.8575  -31.1104 H   0  0  0  0  0  0  0  0  0  0  0  0
   -7.3491   18.7344  -31.1800 H   0  0  0  0  0  0  0  0  0  0  0  0
   -8.2357   24.0702  -31.1587 H   0  0  0  0  0  0  0  0  0  0  0  0
   -6.3394   25.5431  -30.4824 H   0  0  0  0  0  0  0  0  0  0  0  0
  1  2  1  0
  2  3  2  0
  2  4  1  0
  4  5  1  0
  5  6  2  0
  6  7  1  0
  7  8  2  0
  8  9  1  0
  9 10  2  0
  9 11  2  0
  9 12  1  0
 12 13  1  0
 13 14  2  0
 14 15  1  0
 15 16  2  0
 16 17  1  0
 17 18  2  0
 17 19  2  0
 17 20  1  0
 20 21  1  0
 21 22  1  0
 22 23  2  0
 23 24  1  0
 24 25  2  0
 25 26  1  0
 26 27  2  0
 16 28  1  0
 28 29  2  0
  8 30  1  0
 30 31  2  0
 31  5  1  0
 29 13  1  0
 27 22  1  0
  1 32  1  0
  1 33  1  0
  1 34  1  0
  6 35  1  0
  7 36  1  0
 12 37  1  0
 14 38  1  0
 15 39  1  0
 21 40  1  0
 21 41  1  0
 23 42  1  0
 24 43  1  0
 25 44  1  0
 26 45  1  0
 27 46  1  0
 28 47  1  0
 29 48  1  0
 30 49  1  0
 31 50  1  0
M  CHG  2   4  -1  20  -1
M  END
>  <UniqueID>  (17) 
17

>  <SMILES>  (17) 
CC(=O)[N-]c1ccc(S(=O)(=O)Nc2ccc(S(=O)(=O)[N-]Cc3ccccc3)cc2)cc1

>  <Energy>  (17) 
55.199517378247634

>  <Genealogy>  (17) 
CC(=O)[N-]c1ccc(S(=O)(=O)Nc2ccc(S(=O)(=O)[N-]Cc3ccccc3)cc2)cc1 (protonated)
CC(=O)[N-]c1ccc(S(=O)(=O)Nc2ccc(S(=O)(=O)[N-]Cc3ccccc3)cc2)cc1 (3D coordinates assigned)
CC(=O)[N-]c1ccc(S(=O)(=O)Nc2ccc(S(=O)(=O)[N-]Cc3ccccc3)cc2)cc1 (optimized conformer: 55.199517378247634 kcal/mol)

>  <smiles>  (17) 
CC(=O)Nc1ccc(S(=O)(=O)Nc2ccc(S(=O)(=O)NCc3ccccc3)cc2)cc1

>  <score_type>  (17) 
oracle

>  <origin>  (17) 
adgpu

>  <m_score__min__energy>  (17) 
-11.460000000000001

>  <m_primary>  (17) 
energy

$$$$
17:0
     RDKit          3D

 55 57  0  0  1  0  0  0  0  0999 V2000
   -9.0750   23.1520  -31.9740 C   0  0  0  0  0  0  0  0  0  0  0  0
   -9.1460   21.8330  -31.8860 C   0  0  0  0  0  0  0  0  0  0  0  0
   -7.9950   20.9550  -32.0640 C   0  0  0  0  0  0  0  0  0  0  0  0
   -7.0280   20.9920  -31.2410 O   0  0  0  0  0  0  0  0  0  0  0  0
   -7.8980   20.0480  -33.1300 N   0  0  0  0  0  0  0  0  0  0  0  0
   -6.7860   19.1730  -33.3400 C   0  0  0  0  0  0  0  0  0  0  0  0
   -6.9650   17.7980  -33.2920 C   0  0  0  0  0  0  0  0  0  0  0  0
   -5.9340   16.9050  -33.4860 C   0  0  0  0  0  0  0  0  0  0  0  0
   -4.6810   17.4340  -33.7370 C   0  0  0  0  0  0  0  0  0  0  0  0
   -4.4350   18.7900  -33.7970 C   0  0  0  0  0  0  0  0  0  0  0  0
   -3.1350   19.3140  -34.0580 N   0  0  0  0  0  0  0  0  0  0  0  0
   -2.6150   20.1460  -33.2250 C   0  0  0  0  0  0  0  0  0  0  0  0
   -3.2350   20.5610  -32.1010 N   0  0  0  0  0  0  0  0  0  0  0  0
   -2.6300   21.4360  -31.2720 C   0  0  0  0  0  0  0  0  0  0  0  0
   -3.2880   21.7970  -30.1980 N   0  0  0  0  0  0  0  0  0  0  0  0
   -2.6580   22.7300  -29.3010 C   0  0  0  0  0  0  0  0  0  0  0  0
   -1.8230   22.2850  -28.2920 C   0  0  0  0  0  0  0  0  0  0  0  0
   -1.2100   23.1690  -27.4210 C   0  0  0  0  0  0  0  0  0  0  0  0
   -0.1520   22.6460  -26.1360 S   0  0  0  0  0  0  0  0  0  0  0  0
    1.0450   21.9470  -26.7240 O   0  0  0  0  0  0  0  0  0  0  0  0
   -0.9040   21.7020  -25.2370 O   0  0  0  0  0  0  0  0  0  0  0  0
    0.4040   24.0480  -25.1670 C   0  0  0  0  0  0  0  0  0  0  0  0
   -0.7530   24.6200  -24.3740 C   0  0  0  0  0  0  0  0  0  0  0  0
   -1.4340   24.5250  -27.5590 C   0  0  0  0  0  0  0  0  0  0  0  0
   -2.2710   24.9570  -28.5720 C   0  0  0  0  0  0  0  0  0  0  0  0
   -2.8930   24.1010  -29.4530 C   0  0  0  0  0  0  0  0  0  0  0  0
   -3.7270   24.4790  -30.4670 O   0  0  0  0  0  0  0  0  0  0  0  0
   -5.1280   24.3270  -30.4970 C   0  0  0  0  0  0  0  0  0  0  0  0
   -1.4020   21.9380  -31.5070 N   0  0  0  0  0  0  0  0  0  0  0  0
   -0.7490   21.5390  -32.6340 C   0  0  0  0  0  0  0  0  0  0  0  0
   -1.3560   20.6380  -33.5020 C   0  0  0  0  0  0  0  0  0  0  0  0
   -0.5260   20.1110  -34.9630 Cl  0  0  0  0  0  0  0  0  0  0  0  0
   -5.5140   19.6540  -33.5940 C   0  0  0  0  0  0  0  0  0  0  0  0
   -9.9787   23.7623  -31.8298 H   0  0  0  0  0  0  0  0  0  0  0  0
   -8.1123   23.6377  -32.1913 H   0  0  0  0  0  0  0  0  0  0  0  0
  -10.1225   21.3761  -31.6676 H   0  0  0  0  0  0  0  0  0  0  0  0
   -8.6670   19.9630  -33.8550 H   0  0  0  0  0  0  0  0  0  0  0  0
   -7.9722   17.4044  -33.0906 H   0  0  0  0  0  0  0  0  0  0  0  0
   -6.1002   15.8185  -33.4431 H   0  0  0  0  0  0  0  0  0  0  0  0
   -3.8416   16.7412  -33.8962 H   0  0  0  0  0  0  0  0  0  0  0  0
   -4.1770   20.1760  -31.9190 H   0  0  0  0  0  0  0  0  0  0  0  0
   -1.6423   21.2058  -28.1794 H   0  0  0  0  0  0  0  0  0  0  0  0
    1.1944   23.7222  -24.4749 H   0  0  0  0  0  0  0  0  0  0  0  0
    0.7965   24.8219  -25.8431 H   0  0  0  0  0  0  0  0  0  0  0  0
   -0.5464   24.5178  -23.2984 H   0  0  0  0  0  0  0  0  0  0  0  0
   -0.8784   25.6839  -24.6239 H   0  0  0  0  0  0  0  0  0  0  0  0
   -1.6744   24.0736  -24.6239 H   0  0  0  0  0  0  0  0  0  0  0  0
   -0.9572   25.2456  -26.8782 H   0  0  0  0  0  0  0  0  0  0  0  0
   -2.4484   26.0373  -28.6790 H   0  0  0  0  0  0  0  0  0  0  0  0
   -5.5144   24.2851  -29.4679 H   0  0  0  0  0  0  0  0  0  0  0  0
   -5.5783   25.1816  -31.0232 H   0  0  0  0  0  0  0  0  0  0  0  0
   -5.3846   23.3957  -31.0232 H   0  0  0  0  0  0  0  0  0  0  0  0
   -0.9600   22.6130  -30.8490 H   0  0  0  0  0  0  0  0  0  0  0  0
    0.2554   21.9284  -32.8567 H   0  0  0  0  0  0  0  0  0  0  0  0
   -5.3485   20.7406  -33.6371 H   0  0  0  0  0  0  0  0  0  0  0  0
  1  2  2  0
  2  3  1  0
  3  4  2  0
  3  5  1  0
  5  6  1  0
  6  7  2  0
  7  8  1  0
  8  9  2  0
  9 10  1  0
 10 11  1  0
 11 12  2  0
 12 13  1  0
 13 14  1  0
 14 15  2  0
 15 16  1  0
 16 17  2  0
 17 18  1  0
 18 19  1  0
 19 20  2  0
 19 21  2  0
 19 22  1  0
 22 23  1  0
 18 24  2  0
 24 25  1  0
 25 26  2  0
 26 27  1  0
 27 28  1  0
 14 29  1  0
 29 30  1  0
 30 31  2  0
 31 32  1  0
 10 33  2  0
 33  6  1  0
 31 12  1  0
 26 16  1  0
  1 34  1  0
  1 35  1  0
  2 36  1  0
  5 37  1  0
  7 38  1  0
  8 39  1  0
  9 40  1  0
 13 41  1  0
 17 42  1  0
 22 43  1  0
 22 44  1  0
 23 45  1  0
 23 46  1  0
 23 47  1  0
 24 48  1  0
 25 49  1  0
 28 50  1  0
 28 51  1  0
 28 52  1  0
 29 53  1  0
 30 54  1  0
 33 55  1  0
M  END
>  <smiles>  (18) 
C=CC(=O)Nc1cccc(N=c2[nH]c(=Nc3cc(S(=O)(=O)CC)ccc3OC)[nH]cc2Cl)c1

>  <score_type>  (18) 
oracle

>  <origin>  (18) 
adgpu

>  <m_score__min__energy>  (18) 
-10.06

>  <m_primary>  (18) 
energy

$$$$
18:0
     RDKit          3D

 38 40  0  0  0  0  0  0  0  0999 V2000
   -0.4620   25.7798  -27.8630 H   0  0  0  0  0  0  0  0  0  0  0  0
   -1.1420   24.9960  -28.2280 C   0  0  0  0  0  0  0  0  0  0  0  0
   -2.0880   25.2950  -29.1550 N   0  0  0  0  0  0  0  0  0  0  0  0
   -2.9340   24.3440  -29.6280 C   0  0  0  0  0  0  0  0  0  0  0  0
   -3.8420   24.6770  -30.4980 N   0  0  0  0  0  0  0  0  0  0  0  0
   -4.7850   23.8010  -31.1400 C   0  0  0  0  0  0  0  0  0  0  0  0
   -6.1700   24.0340  -31.0860 C   0  0  0  0  0  0  0  0  0  0  0  0
   -6.5520   24.9231  -30.5629 H   0  0  0  0  0  0  0  0  0  0  0  0
   -7.0680   23.1480  -31.6900 C   0  0  0  0  0  0  0  0  0  0  0  0
   -8.4380   23.4390  -31.6170 O   0  0  0  0  0  0  0  0  0  0  0  0
   -9.4760   22.5140  -31.9270 C   0  0  0  0  0  0  0  0  0  0  0  0
   -9.9117   22.1258  -30.9946 H   0  0  0  0  0  0  0  0  0  0  0  0
  -10.2565   23.0215  -32.5129 H   0  0  0  0  0  0  0  0  0  0  0  0
   -9.0614   21.6804  -32.5129 H   0  0  0  0  0  0  0  0  0  0  0  0
   -6.5730   22.0020  -32.3410 C   0  0  0  0  0  0  0  0  0  0  0  0
   -7.2731   21.3071  -32.8278 H   0  0  0  0  0  0  0  0  0  0  0  0
   -5.1930   21.7370  -32.3750 C   0  0  0  0  0  0  0  0  0  0  0  0
   -4.6750   20.5190  -33.0460 C   0  0  0  0  0  0  0  0  0  0  0  0
   -5.5610   19.5570  -33.5680 C   0  0  0  0  0  0  0  0  0  0  0  0
   -6.6468   19.7087  -33.4781 H   0  0  0  0  0  0  0  0  0  0  0  0
   -5.0700   18.4100  -34.2000 C   0  0  0  0  0  0  0  0  0  0  0  0
   -5.7698   17.6633  -34.6033 H   0  0  0  0  0  0  0  0  0  0  0  0
   -3.6930   18.2110  -34.3200 C   0  0  0  0  0  0  0  0  0  0  0  0
   -3.3090   17.3089  -34.8187 H   0  0  0  0  0  0  0  0  0  0  0  0
   -2.8040   19.1570  -33.8070 C   0  0  0  0  0  0  0  0  0  0  0  0
   -1.7195   18.9987  -33.9014 H   0  0  0  0  0  0  0  0  0  0  0  0
   -3.2890   20.3060  -33.1730 C   0  0  0  0  0  0  0  0  0  0  0  0
   -2.5830   21.0477  -32.7712 H   0  0  0  0  0  0  0  0  0  0  0  0
   -4.3080   22.6410  -31.7600 C   0  0  0  0  0  0  0  0  0  0  0  0
   -3.2278   22.4334  -31.7666 H   0  0  0  0  0  0  0  0  0  0  0  0
   -2.8460   23.0710  -29.1510 N   0  0  0  0  0  0  0  0  0  0  0  0
   -1.9140   22.7220  -28.2240 C   0  0  0  0  0  0  0  0  0  0  0  0
   -1.8410   21.3100  -27.7220 C   0  0  0  0  0  0  0  0  0  0  0  0
   -3.0640   20.6910  -27.9000 F   0  0  0  0  0  0  0  0  0  0  0  0
   -0.8730   20.6000  -28.4100 F   0  0  0  0  0  0  0  0  0  0  0  0
   -1.5220   21.3100  -26.3760 F   0  0  0  0  0  0  0  0  0  0  0  0
   -1.0330   23.6950  -27.7390 C   0  0  0  0  0  0  0  0  0  0  0  0
   -0.2710   23.4389  -26.9882 H   0  0  0  0  0  0  0  0  0  0  0  0
  1  2  1  0
  2  3  1  0
  3  4  1  0
  4  5  2  0
  5  6  1  0
  6  7  2  0
  7  8  1  0
  7  9  1  0
  9 10  1  0
 10 11  1  0
 11 12  1  0
 11 13  1  0
 11 14  1  0
  9 15  2  0
 15 16  1  0
 15 17  1  0
 17 18  1  0
 18 19  2  0
 19 20  1  0
 19 21  1  0
 21 22  1  0
 21 23  2  0
 23 24  1  0
 23 25  1  0
 25 26  1  0
 25 27  2  0
 27 28  1  0
 17 29  2  0
 29 30  1  0
  4 31  1  0
 31 32  2  0
 32 33  1  0
 33 34  1  0
 33 35  1  0
 33 36  1  0
 32 37  1  0
 37 38  1  0
 37  2  2  0
 29  6  1  0
 27 18  1  0
M  CHG  1   3  -1
M  END
>  <UniqueID>  (19) 
18

>  <SMILES>  (19) 
COc1cc(/N=c2\nc(C(F)(F)F)cc[n-]2)cc(-c2ccccc2)c1

>  <Energy>  (19) 
51.79742611974847

>  <Genealogy>  (19) 
COc1cc(N=c2nc(C(F)(F)F)cc[n-]2)cc(-c2ccccc2)c1 (protonated)
COc1cc(/N=c2\nc(C(F)(F)F)cc[n-]2)cc(-c2ccccc2)c1 (cis-trans isomerization)
COc1cc(/N=c2\nc(C(F)(F)F)cc[n-]2)cc(-c2ccccc2)c1 (3D coordinates assigned)
COc1cc(/N=c2\nc(C(F)(F)F)cc[n-]2)cc(-c2ccccc2)c1 (optimized conformer: 51.79742611974847 kcal/mol)

>  <smiles>  (19) 
COc1cc(N=c2nc(C(F)(F)F)cc[nH]2)cc(-c2ccccc2)c1

>  <score_type>  (19) 
oracle

>  <origin>  (19) 
adgpu

>  <m_score__min__energy>  (19) 
-8.5199999999999996

>  <m_primary>  (19) 
energy

$$$$
19:0
     RDKit          3D

 63 66  0  0  0  0  0  0  0  0999 V2000
    0.4490   26.3600  -23.2260 N   0  0  0  0  0  0  0  0  0  0  0  0
   -0.6220   26.2700  -24.1710 C   0  0  0  0  0  0  0  0  0  0  0  0
   -1.5810   27.1470  -24.1370 N   0  0  0  0  0  0  0  0  0  0  0  0
   -0.6400   25.1690  -25.1660 C   0  0  0  0  0  0  0  0  0  0  0  0
   -0.8230   25.4410  -26.5340 C   0  0  0  0  0  0  0  0  0  0  0  0
   -0.8580   24.3980  -27.4630 C   0  0  0  0  0  0  0  0  0  0  0  0
   -0.7240   23.0690  -27.0470 C   0  0  0  0  0  0  0  0  0  0  0  0
   -0.7690   22.0540  -28.0140 O   0  0  0  0  0  0  0  0  0  0  0  0
   -1.4230   22.1310  -29.2520 C   0  0  0  0  0  0  0  0  0  0  0  0
   -0.8930   21.4190  -30.3340 C   0  0  0  0  0  0  0  0  0  0  0  0
   -1.5020   21.4720  -31.5940 C   0  0  0  0  0  0  0  0  0  0  0  0
   -0.9560   20.7170  -32.6420 O   0  0  0  0  0  0  0  0  0  0  0  0
   -1.4790   19.5100  -33.1310 C   0  0  0  0  0  0  0  0  0  0  0  0
   -2.8160   19.4760  -33.5390 C   0  0  0  0  0  0  0  0  0  0  0  0
   -3.3730   18.3020  -34.0530 C   0  0  0  0  0  0  0  0  0  0  0  0
   -2.5970   17.1360  -34.1620 C   0  0  0  0  0  0  0  0  0  0  0  0
   -3.1910   15.8900  -34.7030 C   0  0  0  0  0  0  0  0  0  0  0  0
   -3.1150   15.6160  -36.1060 N   0  0  0  0  0  0  0  0  0  0  0  0
   -3.7740   15.0390  -33.9140 N   0  0  0  0  0  0  0  0  0  0  0  0
   -1.2470   17.1740  -33.7730 C   0  0  0  0  0  0  0  0  0  0  0  0
   -0.6900   18.3520  -33.2710 C   0  0  0  0  0  0  0  0  0  0  0  0
   -2.6210   22.2990  -31.7850 C   0  0  0  0  0  0  0  0  0  0  0  0
   -3.1620   23.0090  -30.7100 C   0  0  0  0  0  0  0  0  0  0  0  0
   -4.3090   23.7830  -30.8960 O   0  0  0  0  0  0  0  0  0  0  0  0
   -5.5480   23.2390  -31.2640 C   0  0  0  0  0  0  0  0  0  0  0  0
   -6.7250   24.0140  -31.2750 C   0  0  0  0  0  0  0  0  0  0  0  0
   -7.9480   23.4270  -31.6050 C   0  0  0  0  0  0  0  0  0  0  0  0
   -8.0100   22.0710  -31.9370 C   0  0  0  0  0  0  0  0  0  0  0  0
   -6.8430   21.2860  -31.9400 C   0  0  0  0  0  0  0  0  0  0  0  0
   -6.9150   19.8490  -32.2960 C   0  0  0  0  0  0  0  0  0  0  0  0
   -7.7210   19.4290  -33.4030 N   0  0  0  0  0  0  0  0  0  0  0  0
   -6.2410   18.9650  -31.6190 N   0  0  0  0  0  0  0  0  0  0  0  0
   -5.6150   21.8800  -31.5930 C   0  0  0  0  0  0  0  0  0  0  0  0
   -2.5600   22.9360  -29.4490 C   0  0  0  0  0  0  0  0  0  0  0  0
   -0.5110   22.7950  -25.6840 C   0  0  0  0  0  0  0  0  0  0  0  0
   -0.4820   23.8370  -24.7510 C   0  0  0  0  0  0  0  0  0  0  0  0
    0.4250   27.0600  -22.4550 H   0  0  0  0  0  0  0  0  0  0  0  0
    1.2320   25.6700  -23.2330 H   0  0  0  0  0  0  0  0  0  0  0  0
   -2.3620   27.1300  -24.8280 H   0  0  0  0  0  0  0  0  0  0  0  0
   -1.5710   27.9260  -23.4390 H   0  0  0  0  0  0  0  0  0  0  0  0
   -0.9392   26.4806  -26.8742 H   0  0  0  0  0  0  0  0  0  0  0  0
   -0.9921   24.6238  -28.5312 H   0  0  0  0  0  0  0  0  0  0  0  0
    0.0125   20.8106  -30.1931 H   0  0  0  0  0  0  0  0  0  0  0  0
   -3.4349   20.3815  -33.4546 H   0  0  0  0  0  0  0  0  0  0  0  0
   -4.4250   18.2908  -34.3741 H   0  0  0  0  0  0  0  0  0  0  0  0
   -3.5480   14.7530  -36.5080 H   0  0  0  0  0  0  0  0  0  0  0  0
   -2.6220   16.2690  -36.7570 H   0  0  0  0  0  0  0  0  0  0  0  0
   -4.1890   14.1560  -34.2910 H   0  0  0  0  0  0  0  0  0  0  0  0
   -3.8740   15.2230  -32.8910 H   0  0  0  0  0  0  0  0  0  0  0  0
   -0.6258   16.2708  -33.8645 H   0  0  0  0  0  0  0  0  0  0  0  0
    0.3714   18.3756  -32.9832 H   0  0  0  0  0  0  0  0  0  0  0  0
   -3.0729   22.3880  -32.7839 H   0  0  0  0  0  0  0  0  0  0  0  0
   -6.6800   25.0838  -31.0230 H   0  0  0  0  0  0  0  0  0  0  0  0
   -8.8655   24.0337  -31.6037 H   0  0  0  0  0  0  0  0  0  0  0  0
   -8.9766   21.6151  -32.1974 H   0  0  0  0  0  0  0  0  0  0  0  0
   -7.7510   18.4260  -33.6930 H   0  0  0  0  0  0  0  0  0  0  0  0
   -8.3560   20.1010  -33.8940 H   0  0  0  0  0  0  0  0  0  0  0  0
   -6.2910   17.9500  -31.8650 H   0  0  0  0  0  0  0  0  0  0  0  0
   -5.6190   19.2400  -30.8250 H   0  0  0  0  0  0  0  0  0  0  0  0
   -4.6993   21.2706  -31.5802 H   0  0  0  0  0  0  0  0  0  0  0  0
   -2.9772   23.5101  -28.6086 H   0  0  0  0  0  0  0  0  0  0  0  0
   -0.3666   21.7569  -25.3502 H   0  0  0  0  0  0  0  0  0  0  0  0
   -0.3344   23.6112  -23.6846 H   0  0  0  0  0  0  0  0  0  0  0  0
  1  2  1  0
  2  3  2  0
  2  4  1  0
  4  5  2  0
  5  6  1  0
  6  7  2  0
  7  8  1  0
  8  9  1  0
  9 10  2  0
 10 11  1  0
 11 12  1  0
 12 13  1  0
 13 14  2  0
 14 15  1  0
 15 16  2  0
 16 17  1  0
 17 18  1  0
 17 19  2  0
 16 20  1  0
 20 21  2  0
 11 22  2  0
 22 23  1  0
 23 24  1  0
 24 25  1  0
 25 26  2  0
 26 27  1  0
 27 28  2  0
 28 29  1  0
 29 30  1  0
 30 31  1  0
 30 32  2  0
 29 33  2  0
 23 34  2  0
  7 35  1  0
 35 36  2  0
 36  4  1  0
 34  9  1  0
 21 13  1  0
 33 25  1  0
  1 37  1  0
  1 38  1  0
  3 39  1  0
  3 40  1  0
  5 41  1  0
  6 42  1  0
 10 43  1  0
 14 44  1  0
 15 45  1  0
 18 46  1  0
 18 47  1  0
 19 48  1  0
 19 49  1  0
 20 50  1  0
 21 51  1  0
 22 52  1  0
 26 53  1  0
 27 54  1  0
 28 55  1  0
 31 56  1  0
 31 57  1  0
 32 58  1  0
 32 59  1  0
 33 60  1  0
 34 61  1  0
 35 62  1  0
 36 63  1  0
M  CHG  3   3   1  19   1  32   1
M  END
>  <UniqueID>  (20) 
19

>  <SMILES>  (20) 
NC(=[NH2+])c1ccc(Oc2cc(Oc3ccc(C(N)=[NH2+])cc3)cc(Oc3cccc(C(N)=[NH2+])c3)c2)cc1

>  <Energy>  (20) 
95.27235390412474

>  <Genealogy>  (20) 
NC(=[NH2+])c1ccc(Oc2cc(Oc3ccc(C(N)=[NH2+])cc3)cc(Oc3cccc(C(N)=[NH2+])c3)c2)cc1 (protonated)
NC(=[NH2+])c1ccc(Oc2cc(Oc3ccc(C(N)=[NH2+])cc3)cc(Oc3cccc(C(N)=[NH2+])c3)c2)cc1 (3D coordinates assigned)
NC(=[NH2+])c1ccc(Oc2cc(Oc3ccc(C(N)=[NH2+])cc3)cc(Oc3cccc(C(N)=[NH2+])c3)c2)cc1 (optimized conformer: 95.27235390412474 kcal/mol)

>  <smiles>  (20) 
N=C(N)c1ccc(Oc2cc(Oc3ccc(C(=N)N)cc3)cc(Oc3cccc(C(=N)N)c3)c2)cc1

>  <score_type>  (20) 
oracle

>  <origin>  (20) 
adgpu

>  <m_score__min__energy>  (20) 
-10.59

>  <m_primary>  (20) 
energy

$$$$
20:0
     RDKit          3D

 39 40  0  0  0  0  0  0  0  0999 V2000
   -3.7990   22.3740  -28.2100 C   0  0  0  0  0  0  0  0  0  0  0  0
   -3.7030   23.8600  -28.3480 C   0  0  0  0  0  0  0  0  0  0  0  0
   -4.9670   24.5270  -28.5700 N   0  0  0  0  0  0  0  0  0  0  0  0
   -5.2630   24.8340  -30.2370 S   0  0  0  0  0  0  0  0  0  0  0  0
   -3.8920   25.1200  -30.8410 O   0  0  0  0  0  0  0  0  0  0  0  0
   -6.0760   26.0670  -30.4550 O   0  0  0  0  0  0  0  0  0  0  0  0
   -5.8990   23.4410  -31.0820 C   0  0  0  0  0  0  0  0  0  0  0  0
   -4.9750   22.5410  -31.6090 C   0  0  0  0  0  0  0  0  0  0  0  0
   -5.3640   21.4160  -32.2830 C   0  0  0  0  0  0  0  0  0  0  0  0
   -6.7250   21.1990  -32.4240 C   0  0  0  0  0  0  0  0  0  0  0  0
   -7.1960   20.0280  -33.1260 N   0  0  0  0  0  0  0  0  0  0  0  0
   -7.1470   18.7650  -32.4840 C   0  0  0  0  0  0  0  0  0  0  0  0
   -6.6850   18.7470  -31.3080 O   0  0  0  0  0  0  0  0  0  0  0  0
   -7.5860   17.4970  -33.0690 C   0  0  0  0  0  0  0  0  0  0  0  0
   -6.4440   16.7370  -34.2170 S   0  0  0  0  0  0  0  0  0  0  0  0
   -4.7720   17.3150  -34.0350 C   0  0  0  0  0  0  0  0  0  0  0  0
   -3.7300   17.2830  -34.8740 N   0  0  0  0  0  0  0  0  0  0  0  0
   -2.6350   17.8390  -34.3110 C   0  0  0  0  0  0  0  0  0  0  0  0
   -1.5040   17.9370  -34.8960 N   0  0  0  0  0  0  0  0  0  0  0  0
   -3.0170   18.2280  -33.0770 N   0  0  0  0  0  0  0  0  0  0  0  0
   -4.2940   17.9170  -32.9080 N   0  0  0  0  0  0  0  0  0  0  0  0
   -7.6580   22.0730  -31.9120 C   0  0  0  0  0  0  0  0  0  0  0  0
   -7.2570   23.2120  -31.2300 C   0  0  0  0  0  0  0  0  0  0  0  0
   -3.8164   22.1052  -27.1435 H   0  0  0  0  0  0  0  0  0  0  0  0
   -4.7219   22.0198  -28.6925 H   0  0  0  0  0  0  0  0  0  0  0  0
   -2.9293   21.9040  -28.6925 H   0  0  0  0  0  0  0  0  0  0  0  0
   -3.2602   24.2624  -27.4250 H   0  0  0  0  0  0  0  0  0  0  0  0
   -3.0887   24.0512  -29.2402 H   0  0  0  0  0  0  0  0  0  0  0  0
   -4.9670   25.4130  -28.0480 H   0  0  0  0  0  0  0  0  0  0  0  0
   -3.9012   22.7410  -31.4792 H   0  0  0  0  0  0  0  0  0  0  0  0
   -4.6263   20.7124  -32.6962 H   0  0  0  0  0  0  0  0  0  0  0  0
   -7.5760   20.0870  -34.0930 H   0  0  0  0  0  0  0  0  0  0  0  0
   -7.7609   16.7878  -32.2466 H   0  0  0  0  0  0  0  0  0  0  0  0
   -8.4875   17.7323  -33.6538 H   0  0  0  0  0  0  0  0  0  0  0  0
   -0.6510   18.3600  -34.4800 H   0  0  0  0  0  0  0  0  0  0  0  0
   -2.3700   18.6960  -32.3980 H   0  0  0  0  0  0  0  0  0  0  0  0
   -4.8010   18.1280  -32.0220 H   0  0  0  0  0  0  0  0  0  0  0  0
   -8.7301   21.8660  -32.0451 H   0  0  0  0  0  0  0  0  0  0  0  0
   -7.9969   23.9141  -30.8180 H   0  0  0  0  0  0  0  0  0  0  0  0
  1  2  1  0
  2  3  1  0
  3  4  1  0
  4  5  2  0
  4  6  2  0
  4  7  1  0
  7  8  2  0
  8  9  1  0
  9 10  2  0
 10 11  1  0
 11 12  1  0
 12 13  2  0
 12 14  1  0
 14 15  1  0
 15 16  1  0
 16 17  2  0
 17 18  1  0
 18 19  2  3
 18 20  1  0
 20 21  1  0
 10 22  1  0
 22 23  2  0
 23  7  1  0
 21 16  1  0
  1 24  1  0
  1 25  1  0
  1 26  1  0
  2 27  1  0
  2 28  1  0
  3 29  1  0
  8 30  1  0
  9 31  1  0
 11 32  1  0
 14 33  1  0
 14 34  1  0
 19 35  1  0
 20 36  1  0
 21 37  1  0
 22 38  1  0
 23 39  1  0
M  END
>  <smiles>  (21) 
CCNS(=O)(=O)c1ccc(NC(=O)CSc2nc(=N)[nH][nH]2)cc1

>  <score_type>  (21) 
oracle

>  <origin>  (21) 
adgpu

>  <m_score__min__energy>  (21) 
-7.9000000000000004

>  <m_primary>  (21) 
energy

$$$$
21:0
     RDKit          3D

 49 51  0  0  0  0  0  0  0  0999 V2000
   -2.5580   19.1910  -32.8120 O   0  0  0  0  0  0  0  0  0  0  0  0
   -2.7290   20.4010  -33.1230 C   0  0  0  0  0  0  0  0  0  0  0  0
   -1.6970   21.1070  -33.8330 N   0  0  0  0  0  0  0  0  0  0  0  0
   -0.4070   20.4970  -34.1580 C   0  0  0  0  0  0  0  0  0  0  0  0
    0.6380   20.8340  -33.0890 C   0  0  0  0  0  0  0  0  0  0  0  0
    0.1240   20.5470  -31.7030 C   0  0  0  0  0  0  0  0  0  0  0  0
    0.3100   19.2780  -31.1280 C   0  0  0  0  0  0  0  0  0  0  0  0
   -0.1190   19.0280  -29.8210 C   0  0  0  0  0  0  0  0  0  0  0  0
   -0.7270   20.0430  -29.0760 C   0  0  0  0  0  0  0  0  0  0  0  0
   -1.1360   19.8000  -27.8070 F   0  0  0  0  0  0  0  0  0  0  0  0
   -0.9070   21.3100  -29.6370 C   0  0  0  0  0  0  0  0  0  0  0  0
   -0.4820   21.5640  -30.9450 C   0  0  0  0  0  0  0  0  0  0  0  0
   -4.0010   21.0690  -32.7560 C   0  0  0  0  0  0  0  0  0  0  0  0
   -5.2270   20.4660  -33.0760 C   0  0  0  0  0  0  0  0  0  0  0  0
   -6.4300   21.0710  -32.7080 C   0  0  0  0  0  0  0  0  0  0  0  0
   -6.4330   22.2670  -31.9850 C   0  0  0  0  0  0  0  0  0  0  0  0
   -8.1380   23.0420  -31.5690 Br  0  0  0  0  0  0  0  0  0  0  0  0
   -5.2090   22.8640  -31.6170 C   0  0  0  0  0  0  0  0  0  0  0  0
   -5.1390   24.3300  -30.6230 S   0  0  0  0  0  0  0  0  0  0  0  0
   -5.9510   25.4000  -31.2950 O   0  0  0  0  0  0  0  0  0  0  0  0
   -5.7100   24.0680  -29.2570 O   0  0  0  0  0  0  0  0  0  0  0  0
   -3.4940   24.8920  -30.4690 N   0  0  0  0  0  0  0  0  0  0  0  0
   -2.7020   24.0430  -29.5730 C   0  0  0  0  0  0  0  0  0  0  0  0
   -2.2970   24.7940  -28.3330 C   0  0  0  0  0  0  0  0  0  0  0  0
   -3.0100   24.6300  -27.1340 C   0  0  0  0  0  0  0  0  0  0  0  0
   -2.5870   25.2760  -25.9690 C   0  0  0  0  0  0  0  0  0  0  0  0
   -1.4530   26.0930  -25.9930 C   0  0  0  0  0  0  0  0  0  0  0  0
   -0.7410   26.2660  -27.1840 C   0  0  0  0  0  0  0  0  0  0  0  0
   -1.1600   25.6210  -28.3510 C   0  0  0  0  0  0  0  0  0  0  0  0
   -4.0060   22.2800  -32.0440 C   0  0  0  0  0  0  0  0  0  0  0  0
   -1.9140   22.0260  -34.2790 H   0  0  0  0  0  0  0  0  0  0  0  0
   -0.5278   19.4050  -34.2128 H   0  0  0  0  0  0  0  0  0  0  0  0
   -0.0630   20.8927  -35.1250 H   0  0  0  0  0  0  0  0  0  0  0  0
    1.5396   20.2297  -33.2678 H   0  0  0  0  0  0  0  0  0  0  0  0
    0.8659   21.9080  -33.1564 H   0  0  0  0  0  0  0  0  0  0  0  0
    0.7947   18.4790  -31.7082 H   0  0  0  0  0  0  0  0  0  0  0  0
    0.0221   18.0311  -29.3781 H   0  0  0  0  0  0  0  0  0  0  0  0
   -1.3835   22.1085  -29.0493 H   0  0  0  0  0  0  0  0  0  0  0  0
   -0.6225   22.5635  -31.3823 H   0  0  0  0  0  0  0  0  0  0  0  0
   -5.2402   19.5103  -33.6204 H   0  0  0  0  0  0  0  0  0  0  0  0
   -7.3843   20.6021  -32.9897 H   0  0  0  0  0  0  0  0  0  0  0  0
   -3.3024   23.1681  -29.2832 H   0  0  0  0  0  0  0  0  0  0  0  0
   -1.7915   23.7282  -30.1040 H   0  0  0  0  0  0  0  0  0  0  0  0
   -3.9048   23.9906  -27.1118 H   0  0  0  0  0  0  0  0  0  0  0  0
   -3.1472   25.1413  -25.0320 H   0  0  0  0  0  0  0  0  0  0  0  0
   -1.1207   26.5998  -25.0750 H   0  0  0  0  0  0  0  0  0  0  0  0
    0.1501   26.9106  -27.2025 H   0  0  0  0  0  0  0  0  0  0  0  0
   -0.5985   25.7608  -29.2865 H   0  0  0  0  0  0  0  0  0  0  0  0
   -3.0520   22.7786  -31.8175 H   0  0  0  0  0  0  0  0  0  0  0  0
  1  2  2  0
  2  3  1  0
  3  4  1  0
  4  5  1  0
  5  6  1  0
  6  7  2  0
  7  8  1  0
  8  9  2  0
  9 10  1  0
  9 11  1  0
 11 12  2  0
  2 13  1  0
 13 14  2  0
 14 15  1  0
 15 16  2  0
 16 17  1  0
 16 18  1  0
 18 19  1  0
 19 20  2  0
 19 21  2  0
 19 22  1  0
 22 23  1  0
 23 24  1  0
 24 25  2  0
 25 26  1  0
 26 27  2  0
 27 28  1  0
 28 29  2  0
 18 30  2  0
 12  6  1  0
 30 13  1  0
 29 24  1  0
  3 31  1  0
  4 32  1  0
  4 33  1  0
  5 34  1  0
  5 35  1  0
  7 36  1  0
  8 37  1  0
 11 38  1  0
 12 39  1  0
 14 40  1  0
 15 41  1  0
 23 42  1  0
 23 43  1  0
 25 44  1  0
 26 45  1  0
 27 46  1  0
 28 47  1  0
 29 48  1  0
 30 49  1  0
M  CHG  1  22  -1
M  END
>  <UniqueID>  (22) 
20

>  <SMILES>  (22) 
O=C(NCCc1ccc(F)cc1)c1ccc(Br)c(S(=O)(=O)[N-]Cc2ccccc2)c1

>  <Energy>  (22) 
46.950175928507576

>  <Genealogy>  (22) 
O=C(NCCc1ccc(F)cc1)c1ccc(Br)c(S(=O)(=O)[N-]Cc2ccccc2)c1 (protonated)
O=C(NCCc1ccc(F)cc1)c1ccc(Br)c(S(=O)(=O)[N-]Cc2ccccc2)c1 (3D coordinates assigned)
O=C(NCCc1ccc(F)cc1)c1ccc(Br)c(S(=O)(=O)[N-]Cc2ccccc2)c1 (optimized conformer: 46.950175928507576 kcal/mol)

>  <smiles>  (22) 
O=C(NCCc1ccc(F)cc1)c1ccc(Br)c(S(=O)(=O)NCc2ccccc2)c1

>  <score_type>  (22) 
oracle

>  <origin>  (22) 
adgpu

>  <m_score__min__energy>  (22) 
-11.49

>  <m_primary>  (22) 
energy

$$$$
22:0
     RDKit          3D

 49 51  0  0  0  0  0  0  0  0999 V2000
   -3.7380   18.4360  -34.5070 C   0  0  0  0  0  0  0  0  0  0  0  0
   -4.8090   18.6720  -33.4770 C   0  0  0  0  0  0  0  0  0  0  0  0
   -5.9030   17.7880  -33.4260 C   0  0  0  0  0  0  0  0  0  0  0  0
   -6.9290   17.9780  -32.5000 C   0  0  0  0  0  0  0  0  0  0  0  0
   -7.9800   17.1230  -32.4700 F   0  0  0  0  0  0  0  0  0  0  0  0
   -6.8820   19.0540  -31.6160 C   0  0  0  0  0  0  0  0  0  0  0  0
   -5.7990   19.9330  -31.6440 C   0  0  0  0  0  0  0  0  0  0  0  0
   -4.7400   19.7410  -32.5460 C   0  0  0  0  0  0  0  0  0  0  0  0
   -3.3830   20.8850  -32.5090 S   0  0  0  0  0  0  0  0  0  0  0  0
   -3.3320   21.6020  -33.8280 O   0  0  0  0  0  0  0  0  0  0  0  0
   -2.0750   20.1820  -32.2780 O   0  0  0  0  0  0  0  0  0  0  0  0
   -3.6050   22.0510  -31.2400 N   0  0  0  0  0  0  0  0  0  0  0  0
   -3.0670   21.8860  -29.9150 C   0  0  0  0  0  0  0  0  0  0  0  0
   -2.9350   20.5950  -29.3660 C   0  0  0  0  0  0  0  0  0  0  0  0
   -2.3500   20.4120  -28.1120 C   0  0  0  0  0  0  0  0  0  0  0  0
   -1.8830   21.5070  -27.3910 C   0  0  0  0  0  0  0  0  0  0  0  0
   -2.0120   22.7940  -27.9130 C   0  0  0  0  0  0  0  0  0  0  0  0
   -2.6180   23.0050  -29.1650 C   0  0  0  0  0  0  0  0  0  0  0  0
   -2.8110   24.3980  -29.6300 C   0  0  0  0  0  0  0  0  0  0  0  0
   -1.9680   25.2910  -29.3390 O   0  0  0  0  0  0  0  0  0  0  0  0
   -3.9340   24.7240  -30.4560 N   0  0  0  0  0  0  0  0  0  0  0  0
   -5.2920   24.8880  -29.9420 C   0  0  1  0  0  0  0  0  0  0  0  0
   -5.7490   26.3290  -30.1660 C   0  0  0  0  0  0  0  0  0  0  0  0
   -6.2380   23.9240  -30.6240 C   0  0  0  0  0  0  0  0  0  0  0  0
   -6.3370   23.8830  -32.0270 C   0  0  0  0  0  0  0  0  0  0  0  0
   -7.2320   23.0070  -32.6480 C   0  0  0  0  0  0  0  0  0  0  0  0
   -8.0410   22.1700  -31.8760 C   0  0  0  0  0  0  0  0  0  0  0  0
   -7.9600   22.2120  -30.4820 C   0  0  0  0  0  0  0  0  0  0  0  0
   -7.0680   23.0870  -29.8560 C   0  0  0  0  0  0  0  0  0  0  0  0
   -2.7836   18.2257  -34.0021 H   0  0  0  0  0  0  0  0  0  0  0  0
   -4.0169   17.5778  -35.1360 H   0  0  0  0  0  0  0  0  0  0  0  0
   -3.6304   19.3320  -35.1360 H   0  0  0  0  0  0  0  0  0  0  0  0
   -5.9495   16.9386  -34.1234 H   0  0  0  0  0  0  0  0  0  0  0  0
   -7.6988   19.2104  -30.8960 H   0  0  0  0  0  0  0  0  0  0  0  0
   -5.7743   20.7869  -30.9510 H   0  0  0  0  0  0  0  0  0  0  0  0
   -4.1640   22.9020  -31.4710 H   0  0  0  0  0  0  0  0  0  0  0  0
   -3.2964   19.7231  -29.9310 H   0  0  0  0  0  0  0  0  0  0  0  0
   -2.2578   19.3994  -27.6924 H   0  0  0  0  0  0  0  0  0  0  0  0
   -1.4117   21.3573  -26.4084 H   0  0  0  0  0  0  0  0  0  0  0  0
   -1.6356   23.6537  -27.3392 H   0  0  0  0  0  0  0  0  0  0  0  0
   -5.2978   24.6682  -28.8642 H   0  0  0  0  0  0  0  0  0  0  0  0
   -5.9046   26.8196  -29.1939 H   0  0  0  0  0  0  0  0  0  0  0  0
   -4.9795   26.8738  -30.7327 H   0  0  0  0  0  0  0  0  0  0  0  0
   -6.6918   26.3308  -30.7327 H   0  0  0  0  0  0  0  0  0  0  0  0
   -5.7061   24.5444  -32.6390 H   0  0  0  0  0  0  0  0  0  0  0  0
   -7.2992   22.9768  -33.7455 H   0  0  0  0  0  0  0  0  0  0  0  0
   -8.7418   21.4778  -32.3656 H   0  0  0  0  0  0  0  0  0  0  0  0
   -8.6001   21.5545  -29.8754 H   0  0  0  0  0  0  0  0  0  0  0  0
   -7.0146   23.1214  -28.7578 H   0  0  0  0  0  0  0  0  0  0  0  0
  1  2  1  0
  2  3  2  0
  3  4  1  0
  4  5  1  0
  4  6  2  0
  6  7  1  0
  7  8  2  0
  8  9  1  0
  9 10  2  0
  9 11  2  0
  9 12  1  0
 12 13  1  0
 13 14  2  0
 14 15  1  0
 15 16  2  0
 16 17  1  0
 17 18  2  0
 18 19  1  0
 19 20  2  0
 19 21  1  0
 21 22  1  0
 22 23  1  0
 22 24  1  0
 24 25  2  0
 25 26  1  0
 26 27  2  0
 27 28  1  0
 28 29  2  0
  8  2  1  0
 18 13  1  0
 29 24  1  0
  1 30  1  0
  1 31  1  0
  1 32  1  0
  3 33  1  0
  6 34  1  0
  7 35  1  0
 12 36  1  0
 14 37  1  0
 15 38  1  0
 16 39  1  0
 17 40  1  0
 22 41  1  1
 23 42  1  0
 23 43  1  0
 23 44  1  0
 25 45  1  0
 26 46  1  0
 27 47  1  0
 28 48  1  0
 29 49  1  0
M  CHG  1  21  -1
M  END
>  <UniqueID>  (23) 
21

>  <SMILES>  (23) 
Cc1cc(F)ccc1S(=O)(=O)Nc1ccccc1C(=O)[N-][C@@H](C)c1ccccc1

>  <Energy>  (23) 
57.44200629526159

>  <Genealogy>  (23) 
Cc1cc(F)ccc1S(=O)(=O)Nc1ccccc1C(=O)[N-]C(C)c1ccccc1 (protonated)
Cc1cc(F)ccc1S(=O)(=O)Nc1ccccc1C(=O)[N-][C@@H](C)c1ccccc1 (chirality)
Cc1cc(F)ccc1S(=O)(=O)Nc1ccccc1C(=O)[N-][C@@H](C)c1ccccc1 (3D coordinates assigned)
Cc1cc(F)ccc1S(=O)(=O)Nc1ccccc1C(=O)[N-][C@@H](C)c1ccccc1 (optimized conformer: 57.44200629526159 kcal/mol)

>  <smiles>  (23) 
Cc1cc(F)ccc1S(=O)(=O)Nc1ccccc1C(=O)NC(C)c1ccccc1

>  <score_type>  (23) 
oracle

>  <origin>  (23) 
adgpu

>  <m_score__min__energy>  (23) 
-11.08

>  <m_primary>  (23) 
energy

$$$$
23:0
     RDKit          3D

 31 33  0  0  0  0  0  0  0  0999 V2000
   -3.8380   26.2750  -31.0560 H   0  0  0  0  0  0  0  0  0  0  0  0
   -4.1850   25.3130  -30.8410 N   0  0  0  0  0  0  0  0  0  0  0  0
   -3.5810   24.5470  -29.9900 C   0  0  0  0  0  0  0  0  0  0  0  0
   -2.4720   25.0080  -29.3460 N   0  0  0  0  0  0  0  0  0  0  0  0
   -1.8110   24.2670  -28.4210 C   0  0  0  0  0  0  0  0  0  0  0  0
   -0.6740   24.7830  -27.7870 C   0  0  0  0  0  0  0  0  0  0  0  0
   -0.3131   25.7908  -28.0404 H   0  0  0  0  0  0  0  0  0  0  0  0
    0.0030   24.0180  -26.8320 C   0  0  0  0  0  0  0  0  0  0  0  0
    0.8960   24.4256  -26.3356 H   0  0  0  0  0  0  0  0  0  0  0  0
   -0.4520   22.7360  -26.5060 C   0  0  0  0  0  0  0  0  0  0  0  0
    0.0838   22.1383  -25.7539 H   0  0  0  0  0  0  0  0  0  0  0  0
   -1.5880   22.2120  -27.1350 C   0  0  0  0  0  0  0  0  0  0  0  0
   -1.9439   21.2035  -26.8774 H   0  0  0  0  0  0  0  0  0  0  0  0
   -2.2720   22.9740  -28.0940 C   0  0  0  0  0  0  0  0  0  0  0  0
   -3.4090   22.4770  -28.7410 C   0  0  0  0  0  0  0  0  0  0  0  0
   -3.7835   21.4725  -28.4944 H   0  0  0  0  0  0  0  0  0  0  0  0
   -4.0750   23.2540  -29.7040 C   0  0  0  0  0  0  0  0  0  0  0  0
   -5.2720   22.7010  -30.3860 C   0  0  0  0  0  0  0  0  0  0  0  0
   -6.5610   23.0420  -29.9430 C   0  0  0  0  0  0  0  0  0  0  0  0
   -6.6822   23.7280  -29.0917 H   0  0  0  0  0  0  0  0  0  0  0  0
   -7.6900   22.5160  -30.5760 C   0  0  0  0  0  0  0  0  0  0  0  0
   -8.6942   22.7869  -30.2181 H   0  0  0  0  0  0  0  0  0  0  0  0
   -7.5490   21.6440  -31.6660 C   0  0  0  0  0  0  0  0  0  0  0  0
   -8.7600   21.0470  -32.3180 C   0  0  0  0  0  0  0  0  0  0  0  0
   -9.4607   20.7016  -31.5435 H   0  0  0  0  0  0  0  0  0  0  0  0
   -9.2510   21.8063  -32.9444 H   0  0  0  0  0  0  0  0  0  0  0  0
   -8.4568   20.1951  -32.9444 H   0  0  0  0  0  0  0  0  0  0  0  0
   -6.2630   21.2790  -32.0940 C   0  0  0  0  0  0  0  0  0  0  0  0
   -6.1432   20.5749  -32.9306 H   0  0  0  0  0  0  0  0  0  0  0  0
   -5.1340   21.8070  -31.4610 C   0  0  0  0  0  0  0  0  0  0  0  0
   -4.1300   21.5204  -31.8072 H   0  0  0  0  0  0  0  0  0  0  0  0
  1  2  1  0
  2  3  2  0
  3  4  1  0
  4  5  1  0
  5  6  2  0
  6  7  1  0
  6  8  1  0
  8  9  1  0
  8 10  2  0
 10 11  1  0
 10 12  1  0
 12 13  1  0
 12 14  2  0
 14 15  1  0
 15 16  1  0
 15 17  2  0
 17 18  1  0
 18 19  2  0
 19 20  1  0
 19 21  1  0
 21 22  1  0
 21 23  2  0
 23 24  1  0
 24 25  1  0
 24 26  1  0
 24 27  1  0
 23 28  1  0
 28 29  1  0
 28 30  2  0
 30 31  1  0
 17  3  1  0
 30 18  1  0
 14  5  1  0
M  CHG  1   4  -1
M  END
>  <UniqueID>  (24) 
22

>  <SMILES>  (24) 
[H]/N=c1\[n-]c2ccccc2cc1-c1ccc(C)cc1

>  <Energy>  (24) 
43.19836835793834

>  <Genealogy>  (24) 
Cc1ccc(-c2cc3ccccc3[n-]c2=N)cc1 (protonated)
[H]/N=c1\[n-]c2ccccc2cc1-c1ccc(C)cc1 (cis-trans isomerization)
[H]/N=c1\[n-]c2ccccc2cc1-c1ccc(C)cc1 (3D coordinates assigned)
[H]/N=c1\[n-]c2ccccc2cc1-c1ccc(C)cc1 (optimized conformer: 43.19836835793834 kcal/mol)

>  <smiles>  (24) 
Cc1ccc(-c2cc3ccccc3[nH]c2=N)cc1

>  <score_type>  (24) 
oracle

>  <origin>  (24) 
adgpu

>  <m_score__min__energy>  (24) 
-9.6199999999999992

>  <m_primary>  (24) 
energy

$$$$
24:0
     RDKit          3D

 30 32  0  0  0  0  0  0  0  0999 V2000
   -1.1800   25.6590  -25.4080 C   0  0  0  0  0  0  0  0  0  0  0  0
   -2.0370   25.1930  -26.5470 C   0  0  0  0  0  0  0  0  0  0  0  0
   -1.4980   25.0800  -27.8370 C   0  0  0  0  0  0  0  0  0  0  0  0
   -2.3040   24.6820  -28.9070 C   0  0  0  0  0  0  0  0  0  0  0  0
   -3.6660   24.4020  -28.7050 C   0  0  0  0  0  0  0  0  0  0  0  0
   -4.5130   23.9820  -29.8380 C   0  0  0  0  0  0  0  0  0  0  0  0
   -5.4130   22.9800  -29.7850 N   0  0  0  0  0  0  0  0  0  0  0  0
   -5.9100   22.9880  -31.0410 C   0  0  0  0  0  0  0  0  0  0  0  0
   -6.9860   22.0720  -31.4980 C   0  0  0  0  0  0  0  0  0  0  0  0
   -8.3070   22.3310  -31.0820 C   0  0  0  0  0  0  0  0  0  0  0  0
   -9.3610   21.5120  -31.4950 C   0  0  0  0  0  0  0  0  0  0  0  0
   -9.1140   20.4210  -32.3240 C   0  0  0  0  0  0  0  0  0  0  0  0
   -7.8120   20.1390  -32.7380 C   0  0  0  0  0  0  0  0  0  0  0  0
   -6.7420   20.9500  -32.3330 C   0  0  0  0  0  0  0  0  0  0  0  0
   -4.9930   20.4140  -32.9130 Br  0  0  0  0  0  0  0  0  0  0  0  0
   -5.3470   23.9480  -31.8000 N   0  0  0  0  0  0  0  0  0  0  0  0
   -4.4880   24.5360  -31.0250 O   0  0  0  0  0  0  0  0  0  0  0  0
   -4.2090   24.5330  -27.4160 C   0  0  0  0  0  0  0  0  0  0  0  0
   -3.4000   24.9320  -26.3470 C   0  0  0  0  0  0  0  0  0  0  0  0
   -1.6625   25.3967  -24.4549 H   0  0  0  0  0  0  0  0  0  0  0  0
   -0.1954   25.1720  -25.4668 H   0  0  0  0  0  0  0  0  0  0  0  0
   -1.0535   26.7501  -25.4668 H   0  0  0  0  0  0  0  0  0  0  0  0
   -0.4350   25.3059  -28.0074 H   0  0  0  0  0  0  0  0  0  0  0  0
   -1.8697   24.5874  -29.9132 H   0  0  0  0  0  0  0  0  0  0  0  0
   -8.5111   23.1885  -30.4240 H   0  0  0  0  0  0  0  0  0  0  0  0
  -10.3874   21.7295  -31.1647 H   0  0  0  0  0  0  0  0  0  0  0  0
   -9.9461   19.7810  -32.6527 H   0  0  0  0  0  0  0  0  0  0  0  0
   -7.6228   19.2722  -33.3883 H   0  0  0  0  0  0  0  0  0  0  0  0
   -5.2750   24.3209  -27.2467 H   0  0  0  0  0  0  0  0  0  0  0  0
   -3.8359   25.0417  -25.3430 H   0  0  0  0  0  0  0  0  0  0  0  0
  1  2  1  0
  2  3  2  0
  3  4  1  0
  4  5  2  0
  5  6  1  0
  6  7  2  0
  7  8  1  0
  8  9  1  0
  9 10  2  0
 10 11  1  0
 11 12  2  0
 12 13  1  0
 13 14  2  0
 14 15  1  0
  8 16  2  0
 16 17  1  0
  5 18  1  0
 18 19  2  0
 19  2  1  0
 17  6  1  0
 14  9  1  0
  1 20  1  0
  1 21  1  0
  1 22  1  0
  3 23  1  0
  4 24  1  0
 10 25  1  0
 11 26  1  0
 12 27  1  0
 13 28  1  0
 18 29  1  0
 19 30  1  0
M  END
>  <UniqueID>  (25) 
23

>  <SMILES>  (25) 
Cc1ccc(-c2nc(-c3ccccc3Br)no2)cc1

>  <Energy>  (25) 
69.78893898634655

>  <Genealogy>  (25) 
Cc1ccc(-c2nc(-c3ccccc3Br)no2)cc1 (3D coordinates assigned)
Cc1ccc(-c2nc(-c3ccccc3Br)no2)cc1 (optimized conformer: 69.78893898634655 kcal/mol)

>  <smiles>  (25) 
Cc1ccc(-c2nc(-c3ccccc3Br)no2)cc1

>  <score_type>  (25) 
oracle

>  <origin>  (25) 
adgpu

>  <m_score__min__energy>  (25) 
-8.7200000000000006

>  <m_primary>  (25) 
energy

$$$$
25:0
     RDKit          3D

 46 49  0  0  0  0  0  0  0  0999 V2000
   -4.3850   20.9330  -31.7020 C   0  0  0  0  0  0  0  0  0  0  0  0
   -5.7120   21.1080  -31.5990 C   0  0  0  0  0  0  0  0  0  0  0  0
   -6.3830   22.2800  -31.2160 C   0  0  0  0  0  0  0  0  0  0  0  0
   -5.9220   23.4200  -30.6640 C   0  0  0  0  0  0  0  0  0  0  0  0
   -4.6130   23.5850  -30.0150 C   0  0  0  0  0  0  0  0  0  0  0  0
   -3.9500   22.5490  -28.8570 S   0  0  0  0  0  0  0  0  0  0  0  0
   -2.6670   23.5870  -28.5430 C   0  0  0  0  0  0  0  0  0  0  0  0
   -1.7460   23.3480  -27.7200 O   0  0  0  0  0  0  0  0  0  0  0  0
   -2.7300   24.7270  -29.2640 N   0  0  0  0  0  0  0  0  0  0  0  0
   -3.8260   24.7320  -30.0710 C   0  0  0  0  0  0  0  0  0  0  0  0
   -4.1310   25.8160  -30.8880 O   0  0  0  0  0  0  0  0  0  0  0  0
   -7.7210   22.0740  -31.5070 C   0  0  0  0  0  0  0  0  0  0  0  0
   -7.8350   20.7840  -31.9760 C   0  0  0  0  0  0  0  0  0  0  0  0
   -9.1240   20.1410  -32.3920 C   0  0  0  0  0  0  0  0  0  0  0  0
   -6.6200   20.1950  -32.0340 N   0  0  0  0  0  0  0  0  0  0  0  0
   -6.3510   18.8620  -32.5060 C   0  0  0  0  0  0  0  0  0  0  0  0
   -6.3800   18.5760  -33.8780 C   0  0  0  0  0  0  0  0  0  0  0  0
   -6.1130   17.2820  -34.3350 C   0  0  0  0  0  0  0  0  0  0  0  0
   -5.8120   16.2620  -33.4220 C   0  0  0  0  0  0  0  0  0  0  0  0
   -5.4490   14.6330  -33.9860 S   0  0  0  0  0  0  0  0  0  0  0  0
   -5.1050   13.7720  -32.8040 O   0  0  0  0  0  0  0  0  0  0  0  0
   -6.6340   14.0420  -34.6970 O   0  0  0  0  0  0  0  0  0  0  0  0
   -4.0990   14.6730  -35.0770 N   0  0  0  0  0  0  0  0  0  0  0  0
   -3.0760   15.4580  -34.9300 C   0  0  0  0  0  0  0  0  0  0  0  0
   -3.0020   16.3260  -33.8820 N   0  0  0  0  0  0  0  0  0  0  0  0
   -1.9290   17.1420  -33.7220 C   0  0  0  0  0  0  0  0  0  0  0  0
   -0.8820   17.1000  -34.6420 C   0  0  0  0  0  0  0  0  0  0  0  0
   -0.9730   16.2100  -35.7110 C   0  0  0  0  0  0  0  0  0  0  0  0
   -2.0630   15.4080  -35.8350 N   0  0  0  0  0  0  0  0  0  0  0  0
   -5.7920   16.5440  -32.0500 C   0  0  0  0  0  0  0  0  0  0  0  0
   -6.0570   17.8380  -31.5940 C   0  0  0  0  0  0  0  0  0  0  0  0
   -3.9814   19.9587  -32.0146 H   0  0  0  0  0  0  0  0  0  0  0  0
   -3.7013   21.7639  -31.4737 H   0  0  0  0  0  0  0  0  0  0  0  0
   -6.5801   24.3006  -30.7023 H   0  0  0  0  0  0  0  0  0  0  0  0
   -4.2420   25.6950  -31.8870 H   0  0  0  0  0  0  0  0  0  0  0  0
   -8.5371   22.8017  -31.3866 H   0  0  0  0  0  0  0  0  0  0  0  0
   -9.6967   19.8553  -31.4974 H   0  0  0  0  0  0  0  0  0  0  0  0
   -9.7114   20.8517  -32.9919 H   0  0  0  0  0  0  0  0  0  0  0  0
   -8.9096   19.2443  -32.9919 H   0  0  0  0  0  0  0  0  0  0  0  0
   -6.6140   19.3736  -34.5985 H   0  0  0  0  0  0  0  0  0  0  0  0
   -6.1392   17.0640  -35.4129 H   0  0  0  0  0  0  0  0  0  0  0  0
   -1.8856   17.8347  -32.8686 H   0  0  0  0  0  0  0  0  0  0  0  0
   -0.0049   17.7538  -34.5269 H   0  0  0  0  0  0  0  0  0  0  0  0
   -0.1632   16.1569  -36.4536 H   0  0  0  0  0  0  0  0  0  0  0  0
   -5.5669   15.7441  -31.3292 H   0  0  0  0  0  0  0  0  0  0  0  0
   -6.0349   18.0543  -30.5157 H   0  0  0  0  0  0  0  0  0  0  0  0
  1  2  2  0
  2  3  1  0
  3  4  2  3
  4  5  1  0
  5  6  1  0
  6  7  1  0
  7  8  2  0
  7  9  1  0
  9 10  1  0
 10 11  1  0
  3 12  1  0
 12 13  2  0
 13 14  1  0
 13 15  1  0
 15 16  1  0
 16 17  2  0
 17 18  1  0
 18 19  2  0
 19 20  1  0
 20 21  2  0
 20 22  2  0
 20 23  1  0
 23 24  2  3
 24 25  1  0
 25 26  2  0
 26 27  1  0
 27 28  2  0
 28 29  1  0
 19 30  1  0
 30 31  2  0
 15  2  1  0
 31 16  1  0
 10  5  2  0
 29 24  1  0
  1 32  1  0
  1 33  1  0
  4 34  1  0
 11 35  1  0
 12 36  1  0
 14 37  1  0
 14 38  1  0
 14 39  1  0
 17 40  1  0
 18 41  1  0
 26 42  1  0
 27 43  1  0
 28 44  1  0
 30 45  1  0
 31 46  1  0
M  CHG  2   9  -1  29  -1
M  END
>  <UniqueID>  (26) 
24

>  <SMILES>  (26) 
C=c1c(=Cc2sc(=O)[n-]c2O)cc(C)n1-c1ccc(S(=O)(=O)N=c2nccc[n-]2)cc1

>  <Energy>  (26) 
130.62875302621921

>  <Genealogy>  (26) 
C=c1c(=Cc2sc(=O)[n-]c2O)cc(C)n1-c1ccc(S(=O)(=O)N=c2nccc[n-]2)cc1 (protonated)
C=c1c(=Cc2sc(=O)[n-]c2O)cc(C)n1-c1ccc(S(=O)(=O)N=c2nccc[n-]2)cc1 (3D coordinates assigned)
C=c1c(=Cc2sc(=O)[n-]c2O)cc(C)n1-c1ccc(S(=O)(=O)N=c2nccc[n-]2)cc1 (optimized conformer: 130.62875302621921 kcal/mol)

>  <smiles>  (26) 
C=c1c(=Cc2sc(=O)[nH]c2O)cc(C)n1-c1ccc(S(=O)(=O)N=c2nccc[nH]2)cc1

>  <score_type>  (26) 
oracle

>  <origin>  (26) 
adgpu

>  <m_score__min__energy>  (26) 
-11.85

>  <m_primary>  (26) 
energy

$$$$
26:0
     RDKit          3D

 54 57  0  0  0  0  0  0  0  0999 V2000
   -5.2530   25.8340  -30.4510 C   0  0  0  0  0  0  0  0  0  0  0  0
   -5.6280   24.3840  -30.6240 C   0  0  0  0  0  0  0  0  0  0  0  0
   -6.9860   24.0280  -30.7110 C   0  0  0  0  0  0  0  0  0  0  0  0
   -7.3610   22.6910  -30.8500 C   0  0  0  0  0  0  0  0  0  0  0  0
   -6.3880   21.6900  -30.8860 C   0  0  0  0  0  0  0  0  0  0  0  0
   -5.0360   22.0300  -30.8080 C   0  0  0  0  0  0  0  0  0  0  0  0
   -4.6460   23.3720  -30.7170 C   0  0  0  0  0  0  0  0  0  0  0  0
   -3.2460   23.6790  -30.7360 N   0  0  0  0  0  0  0  0  0  0  0  0
   -2.4950   24.0700  -29.5790 C   0  0  0  0  0  0  0  0  0  0  0  0
   -2.3520   25.2970  -29.3310 O   0  0  0  0  0  0  0  0  0  0  0  0
   -1.9250   23.0640  -28.6510 C   0  0  0  0  0  0  0  0  0  0  0  0
   -2.0660   23.2650  -27.2680 C   0  0  0  0  0  0  0  0  0  0  0  0
   -1.5820   22.3240  -26.3610 C   0  0  0  0  0  0  0  0  0  0  0  0
   -0.9610   21.1660  -26.8220 C   0  0  0  0  0  0  0  0  0  0  0  0
   -0.8030   20.9550  -28.1920 C   0  0  0  0  0  0  0  0  0  0  0  0
   -1.2430   21.9160  -29.1260 C   0  0  0  0  0  0  0  0  0  0  0  0
   -1.0990   21.6920  -30.5440 N   0  0  0  0  0  0  0  0  0  0  0  0
   -0.3660   20.6070  -31.1390 C   0  0  0  0  0  0  0  0  0  0  0  0
    0.1430   19.7050  -30.4320 O   0  0  0  0  0  0  0  0  0  0  0  0
   -0.2000   20.5490  -32.6030 C   0  0  0  0  0  0  0  0  0  0  0  0
    1.0170   20.0870  -33.1320 C   0  0  0  0  0  0  0  0  0  0  0  0
    1.1880   19.9710  -34.5130 C   0  0  0  0  0  0  0  0  0  0  0  0
    0.1440   20.3210  -35.3770 C   0  0  0  0  0  0  0  0  0  0  0  0
   -1.0660   20.7940  -34.8640 C   0  0  0  0  0  0  0  0  0  0  0  0
   -1.2460   20.9170  -33.4800 C   0  0  0  0  0  0  0  0  0  0  0  0
   -2.8000   21.5920  -32.8670 S   0  0  0  0  0  0  0  0  0  0  0  0
   -3.6990   20.0790  -33.2370 C   0  0  0  0  0  0  0  0  0  0  0  0
   -3.0330   18.8480  -33.2450 C   0  0  0  0  0  0  0  0  0  0  0  0
   -3.7450   17.6730  -33.4860 C   0  0  0  0  0  0  0  0  0  0  0  0
   -5.1260   17.7200  -33.7280 C   0  0  0  0  0  0  0  0  0  0  0  0
   -5.8540   16.5060  -33.9840 C   0  0  0  0  0  0  0  0  0  0  0  0
   -6.4350   15.5260  -34.1900 N   0  0  0  0  0  0  0  0  0  0  0  0
   -5.7890   18.9530  -33.7330 C   0  0  0  0  0  0  0  0  0  0  0  0
   -5.0760   20.1300  -33.4930 C   0  0  0  0  0  0  0  0  0  0  0  0
   -5.1916   26.0714  -29.3787 H   0  0  0  0  0  0  0  0  0  0  0  0
   -4.2774   26.0194  -30.9240 H   0  0  0  0  0  0  0  0  0  0  0  0
   -6.0164   26.4691  -30.9240 H   0  0  0  0  0  0  0  0  0  0  0  0
   -7.7587   24.8098  -30.6691 H   0  0  0  0  0  0  0  0  0  0  0  0
   -8.4253   22.4251  -30.9314 H   0  0  0  0  0  0  0  0  0  0  0  0
   -6.6863   20.6350  -30.9757 H   0  0  0  0  0  0  0  0  0  0  0  0
   -4.2721   21.2385  -30.8181 H   0  0  0  0  0  0  0  0  0  0  0  0
   -2.5631   24.1736  -26.8973 H   0  0  0  0  0  0  0  0  0  0  0  0
   -1.6906   22.4962  -25.2800 H   0  0  0  0  0  0  0  0  0  0  0  0
   -0.5945   20.4166  -26.1050 H   0  0  0  0  0  0  0  0  0  0  0  0
   -0.3296   20.0281  -28.5480 H   0  0  0  0  0  0  0  0  0  0  0  0
   -1.5120   22.3920  -31.2020 H   0  0  0  0  0  0  0  0  0  0  0  0
    1.8397   19.8151  -32.4544 H   0  0  0  0  0  0  0  0  0  0  0  0
    2.1417   19.6051  -34.9212 H   0  0  0  0  0  0  0  0  0  0  0  0
    0.2769   20.2232  -36.4645 H   0  0  0  0  0  0  0  0  0  0  0  0
   -1.8807   21.0710  -35.5492 H   0  0  0  0  0  0  0  0  0  0  0  0
   -1.9492   18.8072  -33.0614 H   0  0  0  0  0  0  0  0  0  0  0  0
   -3.2215   16.7056  -33.4863 H   0  0  0  0  0  0  0  0  0  0  0  0
   -6.8711   18.9950  -33.9259 H   0  0  0  0  0  0  0  0  0  0  0  0
   -5.5964   21.0990  -33.5050 H   0  0  0  0  0  0  0  0  0  0  0  0
  1  2  1  0
  2  3  2  0
  3  4  1  0
  4  5  2  0
  5  6  1  0
  6  7  2  0
  7  8  1  0
  8  9  1  0
  9 10  2  0
  9 11  1  0
 11 12  2  0
 12 13  1  0
 13 14  2  0
 14 15  1  0
 15 16  2  0
 16 17  1  0
 17 18  1  0
 18 19  2  0
 18 20  1  0
 20 21  2  0
 21 22  1  0
 22 23  2  0
 23 24  1  0
 24 25  2  0
 25 26  1  0
 26 27  1  0
 27 28  2  0
 28 29  1  0
 29 30  2  0
 30 31  1  0
 31 32  3  0
 30 33  1  0
 33 34  2  0
  7  2  1  0
 16 11  1  0
 25 20  1  0
 34 27  1  0
  1 35  1  0
  1 36  1  0
  1 37  1  0
  3 38  1  0
  4 39  1  0
  5 40  1  0
  6 41  1  0
 12 42  1  0
 13 43  1  0
 14 44  1  0
 15 45  1  0
 17 46  1  0
 21 47  1  0
 22 48  1  0
 23 49  1  0
 24 50  1  0
 28 51  1  0
 29 52  1  0
 33 53  1  0
 34 54  1  0
M  CHG  1   8  -1
M  END
>  <UniqueID>  (27) 
25

>  <SMILES>  (27) 
Cc1ccccc1[N-]C(=O)c1ccccc1NC(=O)c1ccccc1Sc1ccc(C#N)cc1

>  <Energy>  (27) 
73.65576514966544

>  <Genealogy>  (27) 
Cc1ccccc1[N-]C(=O)c1ccccc1NC(=O)c1ccccc1Sc1ccc(C#N)cc1 (protonated)
Cc1ccccc1[N-]C(=O)c1ccccc1NC(=O)c1ccccc1Sc1ccc(C#N)cc1 (3D coordinates assigned)
Cc1ccccc1[N-]C(=O)c1ccccc1NC(=O)c1ccccc1Sc1ccc(C#N)cc1 (optimized conformer: 73.65576514966544 kcal/mol)

>  <smiles>  (27) 
Cc1ccccc1NC(=O)c1ccccc1NC(=O)c1ccccc1Sc1ccc(C#N)cc1

>  <score_type>  (27) 
oracle

>  <origin>  (27) 
adgpu

>  <m_score__min__energy>  (27) 
-10.720000000000001

>  <m_primary>  (27) 
energy

$$$$
27:0
     RDKit          3D

 34 36  0  0  0  0  0  0  0  0999 V2000
    0.2510   20.6210  -28.5430 C   0  0  0  0  0  0  0  0  0  0  0  0
   -1.0520   21.3520  -28.3740 C   0  0  0  0  0  0  0  0  0  0  0  0
   -1.2030   22.6370  -28.9250 C   0  0  0  0  0  0  0  0  0  0  0  0
   -2.4150   23.3370  -28.7980 C   0  0  0  0  0  0  0  0  0  0  0  0
   -2.5780   24.6870  -29.3890 C   0  0  0  0  0  0  0  0  0  0  0  0
   -1.8670   25.6370  -28.9670 O   0  0  0  0  0  0  0  0  0  0  0  0
   -3.4900   24.9410  -30.4680 N   0  0  0  0  0  0  0  0  0  0  0  0
   -4.6870   24.2040  -30.7560 C   0  0  0  0  0  0  0  0  0  0  0  0
   -5.9400   24.8160  -30.5070 C   0  0  0  0  0  0  0  0  0  0  0  0
   -7.1390   24.1290  -30.7710 C   0  0  0  0  0  0  0  0  0  0  0  0
   -7.0470   22.8320  -31.2670 C   0  0  0  0  0  0  0  0  0  0  0  0
   -8.0500   22.0030  -31.5890 N   0  0  0  0  0  0  0  0  0  0  0  0
   -7.3880   20.8870  -31.9970 C   0  0  0  0  0  0  0  0  0  0  0  0
   -8.0930   19.6790  -32.5230 C   0  0  0  0  0  0  0  0  0  0  0  0
   -7.2990   19.0630  -33.4720 F   0  0  0  0  0  0  0  0  0  0  0  0
   -8.3430   18.7920  -31.4930 F   0  0  0  0  0  0  0  0  0  0  0  0
   -9.2940   20.0460  -33.1020 F   0  0  0  0  0  0  0  0  0  0  0  0
   -6.0330   20.9900  -31.9630 N   0  0  0  0  0  0  0  0  0  0  0  0
   -5.8480   22.2310  -31.4900 C   0  0  0  0  0  0  0  0  0  0  0  0
   -4.6400   22.8750  -31.2420 C   0  0  0  0  0  0  0  0  0  0  0  0
   -3.4690   22.7530  -28.0810 C   0  0  0  0  0  0  0  0  0  0  0  0
   -3.3260   21.4810  -27.5260 C   0  0  0  0  0  0  0  0  0  0  0  0
   -2.1290   20.7720  -27.6680 C   0  0  0  0  0  0  0  0  0  0  0  0
   -2.0410   19.5000  -27.0980 O   0  0  0  0  0  0  0  0  0  0  0  0
    0.6704   20.3857  -27.5537 H   0  0  0  0  0  0  0  0  0  0  0  0
    0.0785   19.6880  -29.0995 H   0  0  0  0  0  0  0  0  0  0  0  0
    0.9574   21.2546  -29.0995 H   0  0  0  0  0  0  0  0  0  0  0  0
   -0.3620   23.1000  -29.4621 H   0  0  0  0  0  0  0  0  0  0  0  0
   -5.9759   25.8386  -30.1032 H   0  0  0  0  0  0  0  0  0  0  0  0
   -8.1162   24.6011  -30.5914 H   0  0  0  0  0  0  0  0  0  0  0  0
   -3.6797   22.3682  -31.4178 H   0  0  0  0  0  0  0  0  0  0  0  0
   -4.4144   23.3011  -27.9553 H   0  0  0  0  0  0  0  0  0  0  0  0
   -4.1628   21.0315  -26.9714 H   0  0  0  0  0  0  0  0  0  0  0  0
   -2.7020   19.1540  -26.4150 H   0  0  0  0  0  0  0  0  0  0  0  0
  1  2  1  0
  2  3  2  0
  3  4  1  0
  4  5  1  0
  5  6  2  0
  5  7  1  0
  7  8  1  0
  8  9  2  0
  9 10  1  0
 10 11  2  0
 11 12  1  0
 12 13  2  0
 13 14  1  0
 14 15  1  0
 14 16  1  0
 14 17  1  0
 13 18  1  0
 18 19  1  0
 19 20  2  0
  4 21  2  0
 21 22  1  0
 22 23  2  0
 23 24  1  0
 23  2  1  0
 20  8  1  0
 19 11  1  0
  1 25  1  0
  1 26  1  0
  1 27  1  0
  3 28  1  0
  9 29  1  0
 10 30  1  0
 20 31  1  0
 21 32  1  0
 22 33  1  0
 24 34  1  0
M  CHG  2   7  -1  18  -1
M  END
>  <UniqueID>  (28) 
26

>  <SMILES>  (28) 
Cc1cc(C(=O)[N-]c2ccc3nc(C(F)(F)F)[n-]c3c2)ccc1O

>  <Energy>  (28) 
76.93530193474285

>  <Genealogy>  (28) 
Cc1cc(C(=O)[N-]c2ccc3nc(C(F)(F)F)[n-]c3c2)ccc1O (protonated)
Cc1cc(C(=O)[N-]c2ccc3nc(C(F)(F)F)[n-]c3c2)ccc1O (3D coordinates assigned)
Cc1cc(C(=O)[N-]c2ccc3nc(C(F)(F)F)[n-]c3c2)ccc1O (optimized conformer: 76.93530193474285 kcal/mol)

>  <smiles>  (28) 
Cc1cc(C(=O)Nc2ccc3nc(C(F)(F)F)[nH]c3c2)ccc1O

>  <score_type>  (28) 
oracle

>  <origin>  (28) 
adgpu

>  <m_score__min__energy>  (28) 
-8.8399999999999999

>  <m_primary>  (28) 
energy

$$$$
28:0
     RDKit          3D

 43 44  0  0  0  0  0  0  0  0999 V2000
   -5.7390   18.2690  -34.7750 C   0  0  0  0  0  0  0  0  0  0  0  0
   -6.4630   17.3780  -33.7670 C   0  0  0  0  0  0  0  0  0  0  0  0
   -7.2010   18.1960  -32.7060 C   0  0  0  0  0  0  0  0  0  0  0  0
   -6.0230   19.1120  -31.6480 S   0  0  0  0  0  0  0  0  0  0  0  0
   -6.8980   20.6840  -31.7620 C   0  0  0  0  0  0  0  0  0  0  0  0
   -8.2690   20.6980  -31.4700 C   0  0  0  0  0  0  0  0  0  0  0  0
   -9.0040   21.8790  -31.5820 C   0  0  0  0  0  0  0  0  0  0  0  0
   -8.3740   23.0580  -31.9770 C   0  0  0  0  0  0  0  0  0  0  0  0
   -7.0060   23.0630  -32.2590 C   0  0  0  0  0  0  0  0  0  0  0  0
   -6.2490   21.8790  -32.1610 C   0  0  0  0  0  0  0  0  0  0  0  0
   -4.7900   21.9330  -32.4290 C   0  0  0  0  0  0  0  0  0  0  0  0
   -4.2500   21.0170  -33.1030 O   0  0  0  0  0  0  0  0  0  0  0  0
   -3.9450   22.9410  -31.8530 N   0  0  0  0  0  0  0  0  0  0  0  0
   -3.4190   22.9650  -30.5180 C   0  0  0  0  0  0  0  0  0  0  0  0
   -2.9730   21.7910  -29.8870 C   0  0  0  0  0  0  0  0  0  0  0  0
   -2.4800   21.8220  -28.5790 C   0  0  0  0  0  0  0  0  0  0  0  0
   -2.0380   20.6200  -28.0060 O   0  0  0  0  0  0  0  0  0  0  0  0
   -2.8150   19.8170  -27.1240 C   0  0  0  0  0  0  0  0  0  0  0  0
   -2.4450   23.0440  -27.8870 C   0  0  0  0  0  0  0  0  0  0  0  0
   -2.9090   24.2120  -28.4980 C   0  0  0  0  0  0  0  0  0  0  0  0
   -3.4060   24.1800  -29.8150 C   0  0  0  0  0  0  0  0  0  0  0  0
   -3.8860   25.3320  -30.4580 O   0  0  0  0  0  0  0  0  0  0  0  0
   -5.2610   25.6850  -30.5610 C   0  0  0  0  0  0  0  0  0  0  0  0
   -5.1337   19.0139  -34.2376 H   0  0  0  0  0  0  0  0  0  0  0  0
   -5.0840   17.6509  -35.4066 H   0  0  0  0  0  0  0  0  0  0  0  0
   -6.4780   18.7837  -35.4066 H   0  0  0  0  0  0  0  0  0  0  0  0
   -7.1917   16.7533  -34.3043 H   0  0  0  0  0  0  0  0  0  0  0  0
   -5.7094   16.7603  -33.2566 H   0  0  0  0  0  0  0  0  0  0  0  0
   -7.8691   18.9133  -33.2051 H   0  0  0  0  0  0  0  0  0  0  0  0
   -7.7792   17.5076  -32.0722 H   0  0  0  0  0  0  0  0  0  0  0  0
   -8.7689   19.7717  -31.1504 H   0  0  0  0  0  0  0  0  0  0  0  0
  -10.0810   21.8795  -31.3585 H   0  0  0  0  0  0  0  0  0  0  0  0
   -8.9559   23.9872  -32.0669 H   0  0  0  0  0  0  0  0  0  0  0  0
   -6.5152   24.0002  -32.5604 H   0  0  0  0  0  0  0  0  0  0  0  0
   -3.0123   20.8349  -30.4295 H   0  0  0  0  0  0  0  0  0  0  0  0
   -2.5683   20.0719  -26.0828 H   0  0  0  0  0  0  0  0  0  0  0  0
   -3.8840   20.0038  -27.3038 H   0  0  0  0  0  0  0  0  0  0  0  0
   -2.5931   18.7547  -27.3038 H   0  0  0  0  0  0  0  0  0  0  0  0
   -2.0510   23.0816  -26.8607 H   0  0  0  0  0  0  0  0  0  0  0  0
   -2.8858   25.1632  -27.9461 H   0  0  0  0  0  0  0  0  0  0  0  0
   -5.6879   25.7946  -29.5532 H   0  0  0  0  0  0  0  0  0  0  0  0
   -5.3555   26.6365  -31.1047 H   0  0  0  0  0  0  0  0  0  0  0  0
   -5.8022   24.8967  -31.1047 H   0  0  0  0  0  0  0  0  0  0  0  0
  1  2  1  0
  2  3  1  0
  3  4  1  0
  4  5  1  0
  5  6  2  0
  6  7  1  0
  7  8  2  0
  8  9  1  0
  9 10  2  0
 10 11  1  0
 11 12  2  0
 11 13  1  0
 13 14  1  0
 14 15  2  0
 15 16  1  0
 16 17  1  0
 17 18  1  0
 16 19  2  0
 19 20  1  0
 20 21  2  0
 21 22  1  0
 22 23  1  0
 10  5  1  0
 21 14  1  0
  1 24  1  0
  1 25  1  0
  1 26  1  0
  2 27  1  0
  2 28  1  0
  3 29  1  0
  3 30  1  0
  6 31  1  0
  7 32  1  0
  8 33  1  0
  9 34  1  0
 15 35  1  0
 18 36  1  0
 18 37  1  0
 18 38  1  0
 19 39  1  0
 20 40  1  0
 23 41  1  0
 23 42  1  0
 23 43  1  0
M  CHG  1  13  -1
M  END
>  <UniqueID>  (29) 
27

>  <SMILES>  (29) 
CCCSc1ccccc1C(=O)[N-]c1cc(OC)ccc1OC

>  <Energy>  (29) 
42.35741061694279

>  <Genealogy>  (29) 
CCCSc1ccccc1C(=O)[N-]c1cc(OC)ccc1OC (protonated)
CCCSc1ccccc1C(=O)[N-]c1cc(OC)ccc1OC (3D coordinates assigned)
CCCSc1ccccc1C(=O)[N-]c1cc(OC)ccc1OC (optimized conformer: 42.35741061694279 kcal/mol)

>  <smiles>  (29) 
CCCSc1ccccc1C(=O)Nc1cc(OC)ccc1OC

>  <score_type>  (29) 
oracle

>  <origin>  (29) 
adgpu

>  <m_score__min__energy>  (29) 
-9.3200000000000003

>  <m_primary>  (29) 
energy

$$$$
29:0
     RDKit          3D

 53 54  0  0  0  0  0  0  0  0999 V2000
   -3.1290   19.2500  -26.7390 C   0  0  0  0  0  0  0  0  0  0  0  0
   -2.8570   19.6880  -28.0660 O   0  0  0  0  0  0  0  0  0  0  0  0
   -3.1080   20.9840  -28.5420 C   0  0  0  0  0  0  0  0  0  0  0  0
   -3.3230   21.9990  -27.6070 C   0  0  0  0  0  0  0  0  0  0  0  0
   -3.5680   23.3180  -28.0170 C   0  0  0  0  0  0  0  0  0  0  0  0
   -3.8270   24.3680  -26.9670 C   0  0  0  0  0  0  0  0  0  0  0  0
   -3.6180   23.6230  -29.3970 C   0  0  0  0  0  0  0  0  0  0  0  0
   -3.8770   24.9670  -29.8370 N   0  0  0  0  0  0  0  0  0  0  0  0
   -4.9010   25.2490  -30.8390 C   0  0  0  0  0  0  0  0  0  0  0  0
   -5.9940   24.2290  -30.7470 C   0  0  0  0  0  0  0  0  0  0  0  0
   -6.7270   24.1990  -29.7210 O   0  0  0  0  0  0  0  0  0  0  0  0
   -6.1760   23.2760  -31.8060 N   0  0  0  0  0  0  0  0  0  0  0  0
   -7.0360   22.1260  -31.7110 C   0  0  0  0  0  0  0  0  0  0  0  0
   -8.4080   22.3110  -31.4820 C   0  0  0  0  0  0  0  0  0  0  0  0
   -9.2640   21.2110  -31.3980 C   0  0  0  0  0  0  0  0  0  0  0  0
   -8.7620   19.9170  -31.5650 C   0  0  0  0  0  0  0  0  0  0  0  0
   -7.3990   19.7180  -31.8230 C   0  0  0  0  0  0  0  0  0  0  0  0
   -6.7710   18.0850  -32.0730 S   0  0  0  0  0  0  0  0  0  0  0  0
   -7.9140   17.1580  -32.3810 O   0  0  0  0  0  0  0  0  0  0  0  0
   -6.1190   17.6090  -30.8040 O   0  0  0  0  0  0  0  0  0  0  0  0
   -5.6150   18.0340  -33.3820 N   0  0  0  0  0  0  0  0  0  0  0  0
   -5.4690   16.6550  -33.8640 C   0  0  0  0  0  0  0  0  0  0  0  0
   -6.0590   18.9080  -34.4750 C   0  0  0  0  0  0  0  0  0  0  0  0
   -6.5380   20.8220  -31.8980 C   0  0  0  0  0  0  0  0  0  0  0  0
   -3.4240   22.6000  -30.3480 C   0  0  0  0  0  0  0  0  0  0  0  0
   -3.5260   22.9210  -31.7140 O   0  0  0  0  0  0  0  0  0  0  0  0
   -3.5270   21.9660  -32.7730 C   0  0  0  0  0  0  0  0  0  0  0  0
   -3.1570   21.2880  -29.9140 C   0  0  0  0  0  0  0  0  0  0  0  0
   -2.6891   19.9584  -26.0216 H   0  0  0  0  0  0  0  0  0  0  0  0
   -4.2170   19.2004  -26.5850 H   0  0  0  0  0  0  0  0  0  0  0  0
   -2.6911   18.2528  -26.5850 H   0  0  0  0  0  0  0  0  0  0  0  0
   -3.2999   21.7606  -26.5334 H   0  0  0  0  0  0  0  0  0  0  0  0
   -3.7170   23.9220  -25.9675 H   0  0  0  0  0  0  0  0  0  0  0  0
   -3.1045   25.1892  -27.0836 H   0  0  0  0  0  0  0  0  0  0  0  0
   -4.8485   24.7590  -27.0836 H   0  0  0  0  0  0  0  0  0  0  0  0
   -3.1280   25.6840  -29.7100 H   0  0  0  0  0  0  0  0  0  0  0  0
   -5.3200   26.2505  -30.6614 H   0  0  0  0  0  0  0  0  0  0  0  0
   -4.4497   25.2090  -31.8414 H   0  0  0  0  0  0  0  0  0  0  0  0
   -5.7110   23.4670  -32.7210 H   0  0  0  0  0  0  0  0  0  0  0  0
   -8.8114   23.3280  -31.3680 H   0  0  0  0  0  0  0  0  0  0  0  0
  -10.3353   21.3629  -31.2001 H   0  0  0  0  0  0  0  0  0  0  0  0
   -9.4387   19.0527  -31.4937 H   0  0  0  0  0  0  0  0  0  0  0  0
   -5.3967   15.9720  -33.0048 H   0  0  0  0  0  0  0  0  0  0  0  0
   -6.3436   16.3853  -34.4742 H   0  0  0  0  0  0  0  0  0  0  0  0
   -4.5573   16.5744  -34.4742 H   0  0  0  0  0  0  0  0  0  0  0  0
   -6.5196   19.8146  -34.0555 H   0  0  0  0  0  0  0  0  0  0  0  0
   -5.1943   19.1889  -35.0942 H   0  0  0  0  0  0  0  0  0  0  0  0
   -6.7958   18.3753  -35.0942 H   0  0  0  0  0  0  0  0  0  0  0  0
   -5.4683   20.6689  -32.1039 H   0  0  0  0  0  0  0  0  0  0  0  0
   -3.5281   20.9503  -32.3508 H   0  0  0  0  0  0  0  0  0  0  0  0
   -4.4250   22.1065  -33.3926 H   0  0  0  0  0  0  0  0  0  0  0  0
   -2.6287   22.1046  -33.3926 H   0  0  0  0  0  0  0  0  0  0  0  0
   -2.9851   20.4932  -30.6548 H   0  0  0  0  0  0  0  0  0  0  0  0
  1  2  1  0
  2  3  1  0
  3  4  2  0
  4  5  1  0
  5  6  1  0
  5  7  2  0
  7  8  1  0
  8  9  1  0
  9 10  1  0
 10 11  2  0
 10 12  1  0
 12 13  1  0
 13 14  2  0
 14 15  1  0
 15 16  2  0
 16 17  1  0
 17 18  1  0
 18 19  2  0
 18 20  2  0
 18 21  1  0
 21 22  1  0
 21 23  1  0
 17 24  2  0
  7 25  1  0
 25 26  1  0
 26 27  1  0
 25 28  2  0
 28  3  1  0
 24 13  1  0
  1 29  1  0
  1 30  1  0
  1 31  1  0
  4 32  1  0
  6 33  1  0
  6 34  1  0
  6 35  1  0
  8 36  1  0
  9 37  1  0
  9 38  1  0
 12 39  1  0
 14 40  1  0
 15 41  1  0
 16 42  1  0
 22 43  1  0
 22 44  1  0
 22 45  1  0
 23 46  1  0
 23 47  1  0
 23 48  1  0
 24 49  1  0
 27 50  1  0
 27 51  1  0
 27 52  1  0
 28 53  1  0
M  END
>  <UniqueID>  (30) 
28

>  <SMILES>  (30) 
COc1cc(C)c(NCC(=O)Nc2cccc(S(=O)(=O)N(C)C)c2)c(OC)c1

>  <Energy>  (30) 
53.07477934882349

>  <Genealogy>  (30) 
COc1cc(C)c(NCC(=O)Nc2cccc(S(=O)(=O)N(C)C)c2)c(OC)c1 (3D coordinates assigned)
COc1cc(C)c(NCC(=O)Nc2cccc(S(=O)(=O)N(C)C)c2)c(OC)c1 (optimized conformer: 53.07477934882349 kcal/mol)

>  <smiles>  (30) 
COc1cc(C)c(NCC(=O)Nc2cccc(S(=O)(=O)N(C)C)c2)c(OC)c1

>  <score_type>  (30) 
oracle

>  <origin>  (30) 
adgpu

>  <m_score__min__energy>  (30) 
-9.4100000000000001

>  <m_primary>  (30) 
energy

$$$$
30:0
     RDKit          3D

 45 47  0  0  0  0  0  0  0  0999 V2000
   -3.1320   15.7670  -35.4660 N   0  0  0  0  0  0  0  0  0  0  0  0
   -3.1600   16.3020  -33.8210 S   0  0  0  0  0  0  0  0  0  0  0  0
   -1.9210   17.1010  -33.5300 O   0  0  0  0  0  0  0  0  0  0  0  0
   -3.1890   15.1060  -32.9110 O   0  0  0  0  0  0  0  0  0  0  0  0
   -4.5830   17.3030  -33.5500 C   0  0  0  0  0  0  0  0  0  0  0  0
   -4.9860   18.2530  -34.4960 C   0  0  0  0  0  0  0  0  0  0  0  0
   -6.1090   19.0450  -34.2530 C   0  0  0  0  0  0  0  0  0  0  0  0
   -6.8140   18.8840  -33.0560 C   0  0  0  0  0  0  0  0  0  0  0  0
   -8.2430   19.9040  -32.7030 S   0  0  0  0  0  0  0  0  0  0  0  0
   -7.2400   21.1940  -31.9480 C   0  0  0  0  0  0  0  0  0  0  0  0
   -5.8660   20.9580  -31.8140 C   0  0  0  0  0  0  0  0  0  0  0  0
   -5.0470   21.8850  -31.1700 C   0  0  0  0  0  0  0  0  0  0  0  0
   -5.5890   23.0650  -30.6520 C   0  0  0  0  0  0  0  0  0  0  0  0
   -4.5500   24.2390  -29.8380 S   0  0  0  0  0  0  0  0  0  0  0  0
   -5.3400   24.9420  -28.7690 O   0  0  0  0  0  0  0  0  0  0  0  0
   -4.0960   25.2700  -30.8340 O   0  0  0  0  0  0  0  0  0  0  0  0
   -3.1490   23.4770  -29.1220 N   0  0  0  0  0  0  0  0  0  0  0  0
   -2.5710   24.3000  -28.0370 C   0  0  0  0  0  0  0  0  0  0  0  0
   -1.2730   25.0020  -28.4730 C   0  0  0  0  0  0  0  0  0  0  0  0
   -0.2630   24.0990  -28.9040 O   0  0  0  0  0  0  0  0  0  0  0  0
   -0.7700   22.9370  -29.5510 C   0  0  0  0  0  0  0  0  0  0  0  0
   -2.1670   23.1200  -30.1640 C   0  0  0  0  0  0  0  0  0  0  0  0
   -6.9640   23.3090  -30.7820 C   0  0  0  0  0  0  0  0  0  0  0  0
   -7.8010   22.3920  -31.4410 C   0  0  0  0  0  0  0  0  0  0  0  0
   -9.2030   22.6890  -31.5680 N   0  0  0  0  0  0  0  0  0  0  0  0
  -10.0650   21.9250  -31.0860 O   0  0  0  0  0  0  0  0  0  0  0  0
   -9.6170   23.7330  -32.3640 O   0  0  0  0  0  0  0  0  0  0  0  0
   -6.4080   17.9570  -32.1480 N   0  0  0  0  0  0  0  0  0  0  0  0
   -5.3190   17.1720  -32.3650 C   0  0  0  0  0  0  0  0  0  0  0  0
   -2.3280   15.1080  -35.5590 H   0  0  0  0  0  0  0  0  0  0  0  0
   -2.9090   16.6010  -36.0550 H   0  0  0  0  0  0  0  0  0  0  0  0
   -4.4180   18.3751  -35.4300 H   0  0  0  0  0  0  0  0  0  0  0  0
   -6.4362   19.7881  -34.9951 H   0  0  0  0  0  0  0  0  0  0  0  0
   -5.4292   20.0337  -32.2201 H   0  0  0  0  0  0  0  0  0  0  0  0
   -3.9697   21.6869  -31.0692 H   0  0  0  0  0  0  0  0  0  0  0  0
   -3.3054   25.0637  -27.7412 H   0  0  0  0  0  0  0  0  0  0  0  0
   -2.3297   23.6324  -27.1967 H   0  0  0  0  0  0  0  0  0  0  0  0
   -1.5073   25.6855  -29.3024 H   0  0  0  0  0  0  0  0  0  0  0  0
   -0.8801   25.5354  -27.5948 H   0  0  0  0  0  0  0  0  0  0  0  0
   -0.0736   22.6578  -30.3554 H   0  0  0  0  0  0  0  0  0  0  0  0
   -0.8615   22.1585  -28.7793 H   0  0  0  0  0  0  0  0  0  0  0  0
   -2.1297   23.9223  -30.9156 H   0  0  0  0  0  0  0  0  0  0  0  0
   -2.4753   22.1737  -30.6324 H   0  0  0  0  0  0  0  0  0  0  0  0
   -7.3933   24.2308  -30.3624 H   0  0  0  0  0  0  0  0  0  0  0  0
   -5.0154   16.4329  -31.6089 H   0  0  0  0  0  0  0  0  0  0  0  0
  1  2  1  0
  2  3  2  0
  2  4  2  0
  2  5  1  0
  5  6  2  0
  6  7  1  0
  7  8  2  0
  8  9  1  0
  9 10  1  0
 10 11  2  0
 11 12  1  0
 12 13  2  0
 13 14  1  0
 14 15  2  0
 14 16  2  0
 14 17  1  0
 17 18  1  0
 18 19  1  0
 19 20  1  0
 20 21  1  0
 21 22  1  0
 13 23  1  0
 23 24  2  0
 24 25  1  0
 25 26  2  0
 25 27  1  0
  8 28  1  0
 28 29  2  0
 29  5  1  0
 24 10  1  0
 22 17  1  0
  1 30  1  0
  1 31  1  0
  6 32  1  0
  7 33  1  0
 11 34  1  0
 12 35  1  0
 18 36  1  0
 18 37  1  0
 19 38  1  0
 19 39  1  0
 21 40  1  0
 21 41  1  0
 22 42  1  0
 22 43  1  0
 23 44  1  0
 29 45  1  0
M  CHG  2  25   1  27  -1
M  END
>  <UniqueID>  (31) 
29

>  <SMILES>  (31) 
NS(=O)(=O)c1ccc(Sc2ccc(S(=O)(=O)N3CCOCC3)cc2[N+](=O)[O-])nc1

>  <Energy>  (31) 
57.69767498538612

>  <Genealogy>  (31) 
NS(=O)(=O)c1ccc(Sc2ccc(S(=O)(=O)N3CCOCC3)cc2[N+](=O)[O-])nc1 (3D coordinates assigned)
NS(=O)(=O)c1ccc(Sc2ccc(S(=O)(=O)N3CCOCC3)cc2[N+](=O)[O-])nc1 (nonaromatic ring conformer: 57.69767498538612 kcal/mol)

>  <smiles>  (31) 
NS(=O)(=O)c1ccc(Sc2ccc(S(=O)(=O)N3CCOCC3)cc2[N+](=O)[O-])nc1

>  <score_type>  (31) 
oracle

>  <origin>  (31) 
adgpu

>  <m_score__min__energy>  (31) 
-9.4100000000000001

>  <m_primary>  (31) 
energy

$$$$
31:0
     RDKit          3D

 37 38  0  0  0  0  0  0  0  0999 V2000
   -0.3970   21.3930  -28.5650 C   0  0  0  0  0  0  0  0  0  0  0  0
   -0.9400   22.6700  -28.8860 O   0  0  0  0  0  0  0  0  0  0  0  0
   -2.0920   22.8850  -29.6590 C   0  0  0  0  0  0  0  0  0  0  0  0
   -2.6860   21.8290  -30.3760 C   0  0  0  0  0  0  0  0  0  0  0  0
   -3.8270   22.0420  -31.1610 C   0  0  0  0  0  0  0  0  0  0  0  0
   -4.4620   20.9250  -31.9010 C   0  0  0  0  0  0  0  0  0  0  0  0
   -5.7190   20.5580  -31.5540 N   0  0  0  0  0  0  0  0  0  0  0  0
   -6.3760   19.5430  -32.1680 C   0  0  0  0  0  0  0  0  0  0  0  0
   -7.9020   19.2020  -31.6600 S   0  0  0  0  0  0  0  0  0  0  0  0
   -5.7690   18.8400  -33.1840 N   0  0  0  0  0  0  0  0  0  0  0  0
   -6.4820   17.7340  -33.8530 C   0  0  0  0  0  0  0  0  0  0  0  0
   -4.5070   19.2020  -33.5930 C   0  0  0  0  0  0  0  0  0  0  0  0
   -3.9470   18.5950  -34.5490 O   0  0  0  0  0  0  0  0  0  0  0  0
   -3.8250   20.2530  -32.9590 C   0  0  0  0  0  0  0  0  0  0  0  0
   -2.5230   20.6630  -33.4400 C   0  0  0  0  0  0  0  0  0  0  0  0
   -1.4810   20.9910  -33.8250 N   0  0  0  0  0  0  0  0  0  0  0  0
   -4.4050   23.3140  -31.1990 C   0  0  0  0  0  0  0  0  0  0  0  0
   -3.8320   24.3840  -30.4890 C   0  0  0  0  0  0  0  0  0  0  0  0
   -4.3860   25.6740  -30.5210 O   0  0  0  0  0  0  0  0  0  0  0  0
   -5.7310   25.9870  -30.1740 C   0  0  0  0  0  0  0  0  0  0  0  0
   -2.6740   24.1780  -29.7220 C   0  0  0  0  0  0  0  0  0  0  0  0
   -2.1580   25.3010  -29.0460 O   0  0  0  0  0  0  0  0  0  0  0  0
   -1.6550   25.3340  -27.7150 C   0  0  0  0  0  0  0  0  0  0  0  0
   -0.3487   21.2794  -27.4720 H   0  0  0  0  0  0  0  0  0  0  0  0
   -1.0380   20.6053  -28.9876 H   0  0  0  0  0  0  0  0  0  0  0  0
    0.6150   21.3082  -28.9876 H   0  0  0  0  0  0  0  0  0  0  0  0
   -2.2478   20.8216  -30.3191 H   0  0  0  0  0  0  0  0  0  0  0  0
   -6.9138   17.0643  -33.0947 H   0  0  0  0  0  0  0  0  0  0  0  0
   -7.2866   18.1434  -34.4814 H   0  0  0  0  0  0  0  0  0  0  0  0
   -5.7769   17.1702  -34.4814 H   0  0  0  0  0  0  0  0  0  0  0  0
   -5.3175   23.4798  -31.7904 H   0  0  0  0  0  0  0  0  0  0  0  0
   -5.8312   26.0103  -29.0788 H   0  0  0  0  0  0  0  0  0  0  0  0
   -5.9969   26.9710  -30.5876 H   0  0  0  0  0  0  0  0  0  0  0  0
   -6.4040   25.2215  -30.5876 H   0  0  0  0  0  0  0  0  0  0  0  0
   -2.4932   25.2790  -27.0048 H   0  0  0  0  0  0  0  0  0  0  0  0
   -0.9827   24.4780  -27.5558 H   0  0  0  0  0  0  0  0  0  0  0  0
   -1.1003   26.2705  -27.5558 H   0  0  0  0  0  0  0  0  0  0  0  0
  1  2  1  0
  2  3  1  0
  3  4  2  0
  4  5  1  0
  5  6  1  0
  6  7  1  0
  7  8  1  0
  8  9  2  0
  8 10  1  0
 10 11  1  0
 10 12  1  0
 12 13  2  0
 12 14  1  0
 14 15  1  0
 15 16  3  0
  5 17  2  0
 17 18  1  0
 18 19  1  0
 19 20  1  0
 18 21  2  0
 21 22  1  0
 22 23  1  0
 21  3  1  0
 14  6  2  0
  1 24  1  0
  1 25  1  0
  1 26  1  0
  4 27  1  0
 11 28  1  0
 11 29  1  0
 11 30  1  0
 17 31  1  0
 20 32  1  0
 20 33  1  0
 20 34  1  0
 23 35  1  0
 23 36  1  0
 23 37  1  0
M  CHG  1   7  -1
M  END
>  <UniqueID>  (32) 
30

>  <SMILES>  (32) 
COc1cc(-c2[n-]c(=S)n(C)c(=O)c2C#N)cc(OC)c1OC

>  <Energy>  (32) 
52.0005630817746

>  <Genealogy>  (32) 
COc1cc(-c2[n-]c(=S)n(C)c(=O)c2C#N)cc(OC)c1OC (protonated)
COc1cc(-c2[n-]c(=S)n(C)c(=O)c2C#N)cc(OC)c1OC (3D coordinates assigned)
COc1cc(-c2[n-]c(=S)n(C)c(=O)c2C#N)cc(OC)c1OC (optimized conformer: 52.0005630817746 kcal/mol)

>  <smiles>  (32) 
COc1cc(-c2[nH]c(=S)n(C)c(=O)c2C#N)cc(OC)c1OC

>  <score_type>  (32) 
oracle

>  <origin>  (32) 
adgpu

>  <m_score__min__energy>  (32) 
-7.5300000000000002

>  <m_primary>  (32) 
energy

$$$$
32:0
     RDKit          3D

 50 52  0  0  0  0  0  0  0  0999 V2000
   -0.4720   27.5650  -24.0700 C   0  0  0  0  0  0  0  0  0  0  0  0
   -0.5860   26.0400  -24.0800 C   0  0  0  0  0  0  0  0  0  0  0  0
   -0.3200   25.4960  -25.4590 C   0  0  0  0  0  0  0  0  0  0  0  0
    0.8120   24.7020  -25.7040 C   0  0  0  0  0  0  0  0  0  0  0  0
    1.0460   24.1850  -26.9830 C   0  0  0  0  0  0  0  0  0  0  0  0
    0.1390   24.4270  -28.0150 C   0  0  0  0  0  0  0  0  0  0  0  0
   -1.0340   25.1700  -27.7700 C   0  0  0  0  0  0  0  0  0  0  0  0
   -2.0110   25.3960  -28.7980 N   0  0  0  0  0  0  0  0  0  0  0  0
   -2.6730   24.3540  -29.5290 C   0  0  0  0  0  0  0  0  0  0  0  0
   -2.4290   23.1460  -29.2800 O   0  0  0  0  0  0  0  0  0  0  0  0
   -3.6180   24.7050  -30.5480 N   0  0  0  0  0  0  0  0  0  0  0  0
   -4.8900   24.0830  -30.7920 C   0  0  0  0  0  0  0  0  0  0  0  0
   -6.1010   24.7800  -30.6390 C   0  0  0  0  0  0  0  0  0  0  0  0
   -7.3180   24.1500  -30.9020 C   0  0  0  0  0  0  0  0  0  0  0  0
   -7.3440   22.8210  -31.3530 C   0  0  0  0  0  0  0  0  0  0  0  0
   -8.8780   22.0280  -31.7080 S   0  0  0  0  0  0  0  0  0  0  0  0
   -9.4650   21.5080  -30.4270 O   0  0  0  0  0  0  0  0  0  0  0  0
   -9.8490   23.0000  -32.3210 O   0  0  0  0  0  0  0  0  0  0  0  0
   -8.6480   20.7030  -32.8050 N   0  0  0  0  0  0  0  0  0  0  0  0
   -7.6640   19.6680  -32.6580 C   0  0  0  0  0  0  0  0  0  0  0  0
   -7.8120   18.7480  -31.6160 C   0  0  0  0  0  0  0  0  0  0  0  0
   -6.8690   17.7320  -31.4330 C   0  0  0  0  0  0  0  0  0  0  0  0
   -5.7620   17.6380  -32.2710 C   0  0  0  0  0  0  0  0  0  0  0  0
   -5.6040   18.5450  -33.3290 C   0  0  0  0  0  0  0  0  0  0  0  0
   -4.3830   18.4690  -34.1960 C   0  0  0  0  0  0  0  0  0  0  0  0
   -6.5560   19.5590  -33.5220 C   0  0  0  0  0  0  0  0  0  0  0  0
   -6.1400   22.1320  -31.5330 C   0  0  0  0  0  0  0  0  0  0  0  0
   -4.9220   22.7630  -31.2560 C   0  0  0  0  0  0  0  0  0  0  0  0
   -1.2370   25.7280  -26.4960 C   0  0  0  0  0  0  0  0  0  0  0  0
   -0.4452   27.9239  -23.0305 H   0  0  0  0  0  0  0  0  0  0  0  0
    0.4512   27.8671  -24.5861 H   0  0  0  0  0  0  0  0  0  0  0  0
   -1.3401   28.0010  -24.5861 H   0  0  0  0  0  0  0  0  0  0  0  0
    0.1480   25.6183  -23.3776 H   0  0  0  0  0  0  0  0  0  0  0  0
   -1.6063   25.7594  -23.7795 H   0  0  0  0  0  0  0  0  0  0  0  0
    1.5171   24.4858  -24.8878 H   0  0  0  0  0  0  0  0  0  0  0  0
    1.9481   23.5857  -27.1754 H   0  0  0  0  0  0  0  0  0  0  0  0
    0.3397   24.0367  -29.0236 H   0  0  0  0  0  0  0  0  0  0  0  0
   -2.3640   26.3700  -28.9350 H   0  0  0  0  0  0  0  0  0  0  0  0
   -6.0893   25.8295  -30.3096 H   0  0  0  0  0  0  0  0  0  0  0  0
   -8.2609   24.6971  -30.7553 H   0  0  0  0  0  0  0  0  0  0  0  0
   -8.6741   18.8237  -30.9370 H   0  0  0  0  0  0  0  0  0  0  0  0
   -7.0031   17.0020  -30.6211 H   0  0  0  0  0  0  0  0  0  0  0  0
   -5.0107   16.8522  -32.1036 H   0  0  0  0  0  0  0  0  0  0  0  0
   -3.4859   18.4132  -33.5619 H   0  0  0  0  0  0  0  0  0  0  0  0
   -4.4395   17.5726  -34.8311 H   0  0  0  0  0  0  0  0  0  0  0  0
   -4.3279   19.3655  -34.8311 H   0  0  0  0  0  0  0  0  0  0  0  0
   -6.4364   20.2716  -34.3514 H   0  0  0  0  0  0  0  0  0  0  0  0
   -6.1506   21.0926  -31.8928 H   0  0  0  0  0  0  0  0  0  0  0  0
   -3.9795   22.2156  -31.4046 H   0  0  0  0  0  0  0  0  0  0  0  0
   -2.1231   26.3526  -26.3099 H   0  0  0  0  0  0  0  0  0  0  0  0
  1  2  1  0
  2  3  1  0
  3  4  2  0
  4  5  1  0
  5  6  2  0
  6  7  1  0
  7  8  1  0
  8  9  1  0
  9 10  2  0
  9 11  1  0
 11 12  1  0
 12 13  2  0
 13 14  1  0
 14 15  2  0
 15 16  1  0
 16 17  2  0
 16 18  2  0
 16 19  1  0
 19 20  1  0
 20 21  2  0
 21 22  1  0
 22 23  2  0
 23 24  1  0
 24 25  1  0
 24 26  2  0
 15 27  1  0
 27 28  2  0
  7 29  2  0
 29  3  1  0
 28 12  1  0
 26 20  1  0
  1 30  1  0
  1 31  1  0
  1 32  1  0
  2 33  1  0
  2 34  1  0
  4 35  1  0
  5 36  1  0
  6 37  1  0
  8 38  1  0
 13 39  1  0
 14 40  1  0
 21 41  1  0
 22 42  1  0
 23 43  1  0
 25 44  1  0
 25 45  1  0
 25 46  1  0
 26 47  1  0
 27 48  1  0
 28 49  1  0
 29 50  1  0
M  CHG  2  11  -1  19  -1
M  END
>  <UniqueID>  (33) 
31

>  <SMILES>  (33) 
CCc1cccc(NC(=O)[N-]c2ccc(S(=O)(=O)[N-]c3cccc(C)c3)cc2)c1

>  <Energy>  (33) 
58.85303934040067

>  <Genealogy>  (33) 
CCc1cccc(NC(=O)[N-]c2ccc(S(=O)(=O)[N-]c3cccc(C)c3)cc2)c1 (protonated)
CCc1cccc(NC(=O)[N-]c2ccc(S(=O)(=O)[N-]c3cccc(C)c3)cc2)c1 (3D coordinates assigned)
CCc1cccc(NC(=O)[N-]c2ccc(S(=O)(=O)[N-]c3cccc(C)c3)cc2)c1 (optimized conformer: 58.85303934040067 kcal/mol)

>  <smiles>  (33) 
CCc1cccc(NC(=O)Nc2ccc(S(=O)(=O)Nc3cccc(C)c3)cc2)c1

>  <score_type>  (33) 
oracle

>  <origin>  (33) 
adgpu

>  <m_score__min__energy>  (33) 
-11.91

>  <m_primary>  (33) 
energy

$$$$
33:0
     RDKit          3D

 48 51  0  0  0  0  0  0  0  0999 V2000
   -6.8170   25.6690  -29.4280 C   0  0  0  0  0  0  0  0  0  0  0  0
   -5.5620   25.8350  -30.2800 C   0  0  0  0  0  0  0  0  0  0  0  0
   -4.9170   24.4980  -30.5470 C   0  0  0  0  0  0  0  0  0  0  0  0
   -5.6690   23.4670  -31.1420 C   0  0  0  0  0  0  0  0  0  0  0  0
   -5.0800   22.2240  -31.4350 C   0  0  0  0  0  0  0  0  0  0  0  0
   -5.8530   21.1420  -32.0950 C   0  0  0  0  0  0  0  0  0  0  0  0
   -7.2240   21.2110  -32.3700 C   0  0  0  0  0  0  0  0  0  0  0  0
   -7.6680   19.7780  -33.1320 S   0  0  0  0  0  0  0  0  0  0  0  0
   -6.1110   19.1290  -33.0970 C   0  0  0  0  0  0  0  0  0  0  0  0
   -5.6910   17.8020  -33.6130 C   0  0  0  0  0  0  0  0  0  0  0  0
   -6.5390   16.6990  -33.3860 C   0  0  0  0  0  0  0  0  0  0  0  0
   -6.1790   15.4210  -33.8180 C   0  0  0  0  0  0  0  0  0  0  0  0
   -4.9660   15.2220  -34.4780 C   0  0  0  0  0  0  0  0  0  0  0  0
   -4.1010   16.2970  -34.6910 C   0  0  0  0  0  0  0  0  0  0  0  0
   -4.4440   17.5910  -34.2570 C   0  0  0  0  0  0  0  0  0  0  0  0
   -3.5260   18.6810  -34.4260 N   0  0  0  0  0  0  0  0  0  0  0  0
   -2.0570   18.8810  -33.5230 S   0  0  0  0  0  0  0  0  0  0  0  0
   -2.3650   19.6110  -32.2450 O   0  0  0  0  0  0  0  0  0  0  0  0
   -1.5150   17.5210  -33.1740 O   0  0  0  0  0  0  0  0  0  0  0  0
   -0.8610   19.8020  -34.4380 C   0  0  0  0  0  0  0  0  0  0  0  0
   -0.7480   21.1920  -34.2550 C   0  0  0  0  0  0  0  0  0  0  0  0
    0.2070   21.9210  -34.9750 C   0  0  0  0  0  0  0  0  0  0  0  0
    1.0480   21.2670  -35.8860 C   0  0  0  0  0  0  0  0  0  0  0  0
    0.9370   19.8840  -36.0740 C   0  0  0  0  0  0  0  0  0  0  0  0
   -0.0140   19.1500  -35.3500 C   0  0  0  0  0  0  0  0  0  0  0  0
   -5.2530   19.9840  -32.4930 N   0  0  0  0  0  0  0  0  0  0  0  0
   -3.7230   22.0270  -31.1300 C   0  0  0  0  0  0  0  0  0  0  0  0
   -2.9690   23.0500  -30.5470 C   0  0  0  0  0  0  0  0  0  0  0  0
   -3.5550   24.2850  -30.2640 C   0  0  0  0  0  0  0  0  0  0  0  0
   -2.7750   25.2970  -29.7090 O   0  0  0  0  0  0  0  0  0  0  0  0
   -6.5445   25.7050  -28.3629 H   0  0  0  0  0  0  0  0  0  0  0  0
   -7.5234   26.4815  -29.6535 H   0  0  0  0  0  0  0  0  0  0  0  0
   -7.2878   24.7008  -29.6535 H   0  0  0  0  0  0  0  0  0  0  0  0
   -5.8352   26.3016  -31.2379 H   0  0  0  0  0  0  0  0  0  0  0  0
   -4.8471   26.4697  -29.7359 H   0  0  0  0  0  0  0  0  0  0  0  0
   -6.7295   23.6357  -31.3804 H   0  0  0  0  0  0  0  0  0  0  0  0
   -7.8917   22.0518  -32.1307 H   0  0  0  0  0  0  0  0  0  0  0  0
   -7.4951   16.8468  -32.8626 H   0  0  0  0  0  0  0  0  0  0  0  0
   -6.8525   14.5701  -33.6378 H   0  0  0  0  0  0  0  0  0  0  0  0
   -4.6909   14.2171  -34.8309 H   0  0  0  0  0  0  0  0  0  0  0  0
   -3.1418   16.1309  -35.2032 H   0  0  0  0  0  0  0  0  0  0  0  0
   -1.4111   21.7077  -33.5448 H   0  0  0  0  0  0  0  0  0  0  0  0
    0.2971   23.0071  -34.8255 H   0  0  0  0  0  0  0  0  0  0  0  0
    1.7956   21.8406  -36.4535 H   0  0  0  0  0  0  0  0  0  0  0  0
    1.5965   19.3724  -36.7905 H   0  0  0  0  0  0  0  0  0  0  0  0
   -0.0968   18.0629  -35.4963 H   0  0  0  0  0  0  0  0  0  0  0  0
   -3.2494   21.0593  -31.3518 H   0  0  0  0  0  0  0  0  0  0  0  0
   -1.9082   22.8807  -30.3100 H   0  0  0  0  0  0  0  0  0  0  0  0
  1  2  1  0
  2  3  1  0
  3  4  2  0
  4  5  1  0
  5  6  1  0
  6  7  2  0
  7  8  1  0
  8  9  1  0
  9 10  1  0
 10 11  2  0
 11 12  1  0
 12 13  2  0
 13 14  1  0
 14 15  2  0
 15 16  1  0
 16 17  1  0
 17 18  2  0
 17 19  2  0
 17 20  1  0
 20 21  2  0
 21 22  1  0
 22 23  2  0
 23 24  1  0
 24 25  2  0
  9 26  2  0
  5 27  2  0
 27 28  1  0
 28 29  2  0
 29 30  1  0
 29  3  1  0
 26  6  1  0
 15 10  1  0
 25 20  1  0
  1 31  1  0
  1 32  1  0
  1 33  1  0
  2 34  1  0
  2 35  1  0
  4 36  1  0
  7 37  1  0
 11 38  1  0
 12 39  1  0
 13 40  1  0
 14 41  1  0
 21 42  1  0
 22 43  1  0
 23 44  1  0
 24 45  1  0
 25 46  1  0
 27 47  1  0
 28 48  1  0
M  CHG  2  16  -1  30  -1
M  END
>  <UniqueID>  (34) 
32

>  <SMILES>  (34) 
CCc1cc(-c2csc(-c3ccccc3[N-]S(=O)(=O)c3ccccc3)n2)ccc1[O-]

>  <Energy>  (34) 
91.71836673154812

>  <Genealogy>  (34) 
CCc1cc(-c2csc(-c3ccccc3[N-]S(=O)(=O)c3ccccc3)n2)ccc1[O-] (protonated)
CCc1cc(-c2csc(-c3ccccc3[N-]S(=O)(=O)c3ccccc3)n2)ccc1[O-] (3D coordinates assigned)
CCc1cc(-c2csc(-c3ccccc3[N-]S(=O)(=O)c3ccccc3)n2)ccc1[O-] (optimized conformer: 91.71836673154812 kcal/mol)

>  <smiles>  (34) 
CCc1cc(-c2csc(-c3ccccc3NS(=O)(=O)c3ccccc3)n2)ccc1O

>  <score_type>  (34) 
oracle

>  <origin>  (34) 
adgpu

>  <m_score__min__energy>  (34) 
-12.06

>  <m_primary>  (34) 
energy

$$$$
34:0
     RDKit          3D

 46 48  0  0  0  0  0  0  0  0999 V2000
   -3.4420   20.4830  -30.1590 F   0  0  0  0  0  0  0  0  0  0  0  0
   -3.4600   21.7110  -29.5870 C   0  0  0  0  0  0  0  0  0  0  0  0
   -3.4370   21.7860  -28.1900 C   0  0  0  0  0  0  0  0  0  0  0  0
   -3.4490   23.0260  -27.5490 C   0  0  0  0  0  0  0  0  0  0  0  0
   -3.4800   24.1990  -28.3030 C   0  0  0  0  0  0  0  0  0  0  0  0
   -3.5050   24.1360  -29.6990 C   0  0  0  0  0  0  0  0  0  0  0  0
   -3.5390   25.2860  -30.4180 F   0  0  0  0  0  0  0  0  0  0  0  0
   -3.5040   22.8980  -30.3580 C   0  0  0  0  0  0  0  0  0  0  0  0
   -3.5540   22.9160  -31.7660 O   0  0  0  0  0  0  0  0  0  0  0  0
   -4.4570   22.1890  -32.6010 C   0  0  0  0  0  0  0  0  0  0  0  0
   -5.8910   22.4040  -32.2010 C   0  0  0  0  0  0  0  0  0  0  0  0
   -6.2810   23.6080  -31.6010 C   0  0  0  0  0  0  0  0  0  0  0  0
   -7.6170   23.7960  -31.2440 C   0  0  0  0  0  0  0  0  0  0  0  0
   -8.5540   22.7920  -31.4980 C   0  0  0  0  0  0  0  0  0  0  0  0
   -8.1370   21.6080  -32.1200 C   0  0  0  0  0  0  0  0  0  0  0  0
   -9.1070   20.5000  -32.3990 C   0  0  0  0  0  0  0  0  0  0  0  0
   -8.3700   19.2720  -32.7160 N   0  0  0  0  0  0  0  0  0  0  0  0
   -8.3400   18.3280  -31.5850 C   0  0  0  0  0  0  0  0  0  0  0  0
   -6.9260   17.8200  -31.2380 C   0  0  0  0  0  0  0  0  0  0  0  0
   -5.9740   17.9330  -32.4010 C   0  0  0  0  0  0  0  0  0  0  0  0
   -6.1550   17.1470  -33.5520 C   0  0  0  0  0  0  0  0  0  0  0  0
   -5.2730   17.2660  -34.6310 C   0  0  0  0  0  0  0  0  0  0  0  0
   -4.2120   18.1730  -34.5730 C   0  0  0  0  0  0  0  0  0  0  0  0
   -4.0300   18.9630  -33.4350 C   0  0  0  0  0  0  0  0  0  0  0  0
   -4.9060   18.8450  -32.3530 C   0  0  0  0  0  0  0  0  0  0  0  0
   -6.8250   21.4400  -32.4380 N   0  0  0  0  0  0  0  0  0  0  0  0
   -3.4093   20.8623  -27.5933 H   0  0  0  0  0  0  0  0  0  0  0  0
   -3.4340   23.0780  -26.4503 H   0  0  0  0  0  0  0  0  0  0  0  0
   -3.4848   25.1761  -27.7977 H   0  0  0  0  0  0  0  0  0  0  0  0
   -4.3247   22.5214  -33.6412 H   0  0  0  0  0  0  0  0  0  0  0  0
   -4.2312   21.1177  -32.4940 H   0  0  0  0  0  0  0  0  0  0  0  0
   -5.5402   24.3991  -31.4127 H   0  0  0  0  0  0  0  0  0  0  0  0
   -7.9317   24.7339  -30.7631 H   0  0  0  0  0  0  0  0  0  0  0  0
   -9.6075   22.9293  -31.2129 H   0  0  0  0  0  0  0  0  0  0  0  0
   -9.7358   20.3315  -31.5123 H   0  0  0  0  0  0  0  0  0  0  0  0
   -9.7429   20.7763  -33.2530 H   0  0  0  0  0  0  0  0  0  0  0  0
   -8.8000   18.8130  -33.5520 H   0  0  0  0  0  0  0  0  0  0  0  0
   -8.7542   18.8332  -30.7000 H   0  0  0  0  0  0  0  0  0  0  0  0
   -8.9323   17.4504  -31.8834 H   0  0  0  0  0  0  0  0  0  0  0  0
   -6.5326   18.4146  -30.4003 H   0  0  0  0  0  0  0  0  0  0  0  0
   -7.0074   16.7555  -30.9731 H   0  0  0  0  0  0  0  0  0  0  0  0
   -6.9928   16.4361  -33.6044 H   0  0  0  0  0  0  0  0  0  0  0  0
   -5.4151   16.6441  -35.5272 H   0  0  0  0  0  0  0  0  0  0  0  0
   -3.5200   18.2652  -35.4231 H   0  0  0  0  0  0  0  0  0  0  0  0
   -3.1959   19.6788  -33.3909 H   0  0  0  0  0  0  0  0  0  0  0  0
   -4.7590   19.4691  -31.4592 H   0  0  0  0  0  0  0  0  0  0  0  0
  1  2  1  0
  2  3  2  0
  3  4  1  0
  4  5  2  0
  5  6  1  0
  6  7  1  0
  6  8  2  0
  8  9  1  0
  9 10  1  0
 10 11  1  0
 11 12  2  0
 12 13  1  0
 13 14  2  0
 14 15  1  0
 15 16  1  0
 16 17  1  0
 17 18  1  0
 18 19  1  0
 19 20  1  0
 20 21  2  0
 21 22  1  0
 22 23  2  0
 23 24  1  0
 24 25  2  0
 15 26  2  0
  8  2  1  0
 26 11  1  0
 25 20  1  0
  3 27  1  0
  4 28  1  0
  5 29  1  0
 10 30  1  0
 10 31  1  0
 12 32  1  0
 13 33  1  0
 14 34  1  0
 16 35  1  0
 16 36  1  0
 17 37  1  0
 18 38  1  0
 18 39  1  0
 19 40  1  0
 19 41  1  0
 21 42  1  0
 22 43  1  0
 23 44  1  0
 24 45  1  0
 25 46  1  0
M  END
>  <UniqueID>  (35) 
33

>  <SMILES>  (35) 
Fc1cccc(F)c1OCc1cccc(CNCCc2ccccc2)n1

>  <Energy>  (35) 
46.80483210677486

>  <Genealogy>  (35) 
Fc1cccc(F)c1OCc1cccc(CNCCc2ccccc2)n1 (3D coordinates assigned)
Fc1cccc(F)c1OCc1cccc(CNCCc2ccccc2)n1 (optimized conformer: 46.80483210677486 kcal/mol)

>  <smiles>  (35) 
Fc1cccc(F)c1OCc1cccc(CNCCc2ccccc2)n1

>  <score_type>  (35) 
oracle

>  <origin>  (35) 
adgpu

>  <m_score__min__energy>  (35) 
-8.8699999999999992

>  <m_primary>  (35) 
energy

$$$$
35:0
     RDKit          3D

 57 60  0  0  1  0  0  0  0  0999 V2000
   -8.4620   20.0060  -32.5160 C   0  0  0  0  0  0  0  0  0  0  0  0
   -7.4950   21.0770  -32.1800 C   0  0  0  0  0  0  0  0  0  0  0  0
   -7.8240   22.1320  -31.3230 C   0  0  0  0  0  0  0  0  0  0  0  0
   -6.8660   23.0910  -31.0600 C   0  0  0  0  0  0  0  0  0  0  0  0
   -7.2370   24.2090  -30.1410 C   0  0  0  0  0  0  0  0  0  0  0  0
   -5.6130   23.0160  -31.6230 C   0  0  0  0  0  0  0  0  0  0  0  0
   -4.6690   24.0190  -31.3250 N   0  0  0  0  0  0  0  0  0  0  0  0
   -3.9330   23.8760  -30.2740 C   0  0  0  0  0  0  0  0  0  0  0  0
   -4.0420   22.7830  -29.4450 C   0  0  0  0  0  0  0  0  0  0  0  0
   -3.2350   22.6360  -28.3040 C   0  0  0  0  0  0  0  0  0  0  0  0
   -3.3630   21.4960  -27.5020 N   0  0  0  0  0  0  0  0  0  0  0  0
   -2.4820   20.4010  -27.4230 C   0  0  0  0  0  0  0  0  0  0  0  0
   -2.8430   19.3460  -26.5720 C   0  0  0  0  0  0  0  0  0  0  0  0
   -1.9950   18.2440  -26.4390 C   0  0  0  0  0  0  0  0  0  0  0  0
   -0.8060   18.1580  -27.1200 C   0  0  0  0  0  0  0  0  0  0  0  0
    0.0690   17.0880  -27.0240 O   0  0  0  0  0  0  0  0  0  0  0  0
   -0.4400   19.1980  -27.9650 C   0  0  0  0  0  0  0  0  0  0  0  0
   -1.2840   20.3090  -28.1060 C   0  0  0  0  0  0  0  0  0  0  0  0
   -2.3630   23.6390  -28.1000 N   0  0  0  0  0  0  0  0  0  0  0  0
   -2.2730   24.7090  -28.9330 C   0  0  0  0  0  0  0  0  0  0  0  0
   -1.4010   25.6410  -28.6700 N   0  0  0  0  0  0  0  0  0  0  0  0
   -0.5400   25.5750  -27.5410 C   0  0  0  0  0  0  0  0  0  0  0  0
   -0.6600   26.3290  -26.4210 C   0  0  0  0  0  0  0  0  0  0  0  0
    0.2460   26.1810  -25.3690 C   0  0  0  0  0  0  0  0  0  0  0  0
    1.2870   25.2600  -25.4480 C   0  0  0  0  0  0  0  0  0  0  0  0
    2.2060   25.1270  -24.3520 C   0  0  0  0  0  0  0  0  0  0  0  0
    2.9580   25.0010  -23.4660 N   0  0  0  0  0  0  0  0  0  0  0  0
    1.4060   24.4900  -26.6010 C   0  0  0  0  0  0  0  0  0  0  0  0
    0.5030   24.6450  -27.6370 C   0  0  0  0  0  0  0  0  0  0  0  0
   -3.0440   24.8500  -30.0230 N   0  0  0  0  0  0  0  0  0  0  0  0
   -5.2910   21.9730  -32.4690 C   0  0  0  0  0  0  0  0  0  0  0  0
   -3.9210   21.8930  -33.0850 C   0  0  0  0  0  0  0  0  0  0  0  0
   -6.2290   21.0020  -32.7480 C   0  0  0  0  0  0  0  0  0  0  0  0
   -8.8589   19.5664  -31.5891 H   0  0  0  0  0  0  0  0  0  0  0  0
   -9.2891   20.4301  -33.1042 H   0  0  0  0  0  0  0  0  0  0  0  0
   -7.9559   19.2263  -33.1042 H   0  0  0  0  0  0  0  0  0  0  0  0
   -8.8237   22.1964  -30.8686 H   0  0  0  0  0  0  0  0  0  0  0  0
   -7.1271   23.8779  -29.0978 H   0  0  0  0  0  0  0  0  0  0  0  0
   -6.5761   25.0690  -30.3243 H   0  0  0  0  0  0  0  0  0  0  0  0
   -8.2809   24.5032  -30.3243 H   0  0  0  0  0  0  0  0  0  0  0  0
   -4.7808   22.0033  -29.6819 H   0  0  0  0  0  0  0  0  0  0  0  0
   -4.2220   21.4410  -26.8740 H   0  0  0  0  0  0  0  0  0  0  0  0
   -3.7891   19.3863  -26.0122 H   0  0  0  0  0  0  0  0  0  0  0  0
   -2.2882   17.4218  -25.7697 H   0  0  0  0  0  0  0  0  0  0  0  0
   -0.1480   16.2710  -26.4470 H   0  0  0  0  0  0  0  0  0  0  0  0
    0.5078   19.1503  -28.5212 H   0  0  0  0  0  0  0  0  0  0  0  0
   -0.9851   21.1278  -28.7770 H   0  0  0  0  0  0  0  0  0  0  0  0
   -1.7240   23.6220  -27.3070 H   0  0  0  0  0  0  0  0  0  0  0  0
   -1.4762   27.0620  -26.3404 H   0  0  0  0  0  0  0  0  0  0  0  0
    0.1359   26.7999  -24.4663 H   0  0  0  0  0  0  0  0  0  0  0  0
    2.2206   23.7560  -26.6887 H   0  0  0  0  0  0  0  0  0  0  0  0
    0.6048   24.0322  -28.5448 H   0  0  0  0  0  0  0  0  0  0  0  0
   -2.9700   25.6670  -30.6500 H   0  0  0  0  0  0  0  0  0  0  0  0
   -3.1631   21.8487  -32.2890 H   0  0  0  0  0  0  0  0  0  0  0  0
   -3.8514   20.9893  -33.7082 H   0  0  0  0  0  0  0  0  0  0  0  0
   -3.7467   22.7825  -33.7082 H   0  0  0  0  0  0  0  0  0  0  0  0
   -5.9755   20.1686  -33.4197 H   0  0  0  0  0  0  0  0  0  0  0  0
  1  2  1  0
  2  3  2  0
  3  4  1  0
  4  5  1  0
  4  6  2  0
  6  7  1  0
  7  8  2  0
  8  9  1  0
  9 10  2  0
 10 11  1  0
 11 12  1  0
 12 13  2  0
 13 14  1  0
 14 15  2  0
 15 16  1  0
 15 17  1  0
 17 18  2  0
 10 19  1  0
 19 20  1  0
 20 21  2  0
 21 22  1  0
 22 23  2  0
 23 24  1  0
 24 25  2  0
 25 26  1  0
 26 27  3  0
 25 28  1  0
 28 29  2  0
 20 30  1  0
  6 31  1  0
 31 32  1  0
 31 33  2  0
 33  2  1  0
 30  8  1  0
 18 12  1  0
 29 22  1  0
  1 34  1  0
  1 35  1  0
  1 36  1  0
  3 37  1  0
  5 38  1  0
  5 39  1  0
  5 40  1  0
  9 41  1  0
 11 42  1  0
 13 43  1  0
 14 44  1  0
 16 45  1  0
 17 46  1  0
 18 47  1  0
 19 48  1  0
 23 49  1  0
 24 50  1  0
 28 51  1  0
 29 52  1  0
 30 53  1  0
 32 54  1  0
 32 55  1  0
 32 56  1  0
 33 57  1  0
M  END
>  <smiles>  (36) 
Cc1cc(C)c(N=c2cc(Nc3ccc(O)cc3)[nH]c(=Nc3ccc(C#N)cc3)[nH]2)c(C)c1

>  <score_type>  (36) 
oracle

>  <origin>  (36) 
adgpu

>  <m_score__min__energy>  (36) 
-10.720000000000001

>  <m_primary>  (36) 
energy

$$$$
36:0
     RDKit          3D

 51 53  0  0  0  0  0  0  0  0999 V2000
    0.3363   21.6552  -29.6604 H   0  0  0  0  0  0  0  0  0  0  0  0
   -0.6930   21.8630  -29.9880 C   0  0  0  0  0  0  0  0  0  0  0  0
   -1.4980   22.5300  -29.1410 C   0  0  0  0  0  0  0  0  0  0  0  0
   -0.9930   22.8940  -27.8400 C   0  0  0  0  0  0  0  0  0  0  0  0
   -0.5890   23.1840  -26.7950 N   0  0  0  0  0  0  0  0  0  0  0  0
   -2.8650   22.9750  -29.5070 C   0  0  0  0  0  0  0  0  0  0  0  0
   -3.1180   24.3290  -29.7960 C   0  0  0  0  0  0  0  0  0  0  0  0
   -2.0990   25.2740  -29.7190 O   0  0  0  0  0  0  0  0  0  0  0  0
   -4.4020   24.7440  -30.1540 C   0  0  0  0  0  0  0  0  0  0  0  0
   -4.5862   25.8029  -30.3881 H   0  0  0  0  0  0  0  0  0  0  0  0
   -5.4550   23.8290  -30.2180 C   0  0  0  0  0  0  0  0  0  0  0  0
   -6.7240   24.3030  -30.5830 O   0  0  0  0  0  0  0  0  0  0  0  0
   -7.6560   23.5790  -31.3790 C   0  0  0  0  0  0  0  0  0  0  0  0
   -8.3540   23.0368  -30.7242 H   0  0  0  0  0  0  0  0  0  0  0  0
   -8.2181   24.2797  -32.0139 H   0  0  0  0  0  0  0  0  0  0  0  0
   -7.1161   22.8611  -32.0139 H   0  0  0  0  0  0  0  0  0  0  0  0
   -5.2110   22.4770  -29.9160 C   0  0  0  0  0  0  0  0  0  0  0  0
   -6.0371   21.7519  -29.9589 H   0  0  0  0  0  0  0  0  0  0  0  0
   -3.9190   22.0420  -29.5590 C   0  0  0  0  0  0  0  0  0  0  0  0
   -3.6460   20.6940  -29.2680 O   0  0  0  0  0  0  0  0  0  0  0  0
   -3.1090   20.2240  -28.0370 C   0  0  0  0  0  0  0  0  0  0  0  0
   -3.6458   20.6938  -27.1996 H   0  0  0  0  0  0  0  0  0  0  0  0
   -3.2246   19.1316  -27.9799 H   0  0  0  0  0  0  0  0  0  0  0  0
   -2.0415   20.4833  -27.9799 H   0  0  0  0  0  0  0  0  0  0  0  0
   -1.0980   21.3900  -31.3300 C   0  0  0  0  0  0  0  0  0  0  0  0
   -0.3570   21.7170  -32.4790 C   0  0  0  0  0  0  0  0  0  0  0  0
    0.5453   22.3399  -32.3902 H   0  0  0  0  0  0  0  0  0  0  0  0
   -0.7620   21.2540  -33.7330 C   0  0  0  0  0  0  0  0  0  0  0  0
   -0.1712   21.5024  -34.6270 H   0  0  0  0  0  0  0  0  0  0  0  0
   -1.9160   20.4760  -33.8540 C   0  0  0  0  0  0  0  0  0  0  0  0
   -2.2263   20.1038  -34.8415 H   0  0  0  0  0  0  0  0  0  0  0  0
   -2.6790   20.1690  -32.7190 C   0  0  0  0  0  0  0  0  0  0  0  0
   -4.1210   19.1650  -32.8480 S   0  0  0  0  0  0  0  0  0  0  0  0
   -4.7000   19.3360  -34.2250 O   0  0  0  0  0  0  0  0  0  0  0  0
   -3.7620   17.7170  -32.6530 O   0  0  0  0  0  0  0  0  0  0  0  0
   -5.2950   19.6600  -31.6480 N   0  0  0  0  0  0  0  0  0  0  0  0
   -4.7800   20.0410  -30.8190 H   0  0  0  0  0  0  0  0  0  0  0  0
   -6.1470   18.5360  -31.2420 C   0  0  0  0  0  0  0  0  0  0  0  0
   -5.6101   17.5870  -31.3872 H   0  0  0  0  0  0  0  0  0  0  0  0
   -6.4168   18.6204  -30.1789 H   0  0  0  0  0  0  0  0  0  0  0  0
   -7.3950   18.5650  -32.1140 C   0  0  0  0  0  0  0  0  0  0  0  0
   -7.3278   17.8043  -32.9057 H   0  0  0  0  0  0  0  0  0  0  0  0
   -8.3026   18.3453  -31.5326 H   0  0  0  0  0  0  0  0  0  0  0  0
   -7.4390   19.9570  -32.7190 C   0  0  0  0  0  0  0  0  0  0  0  0
   -7.4061   19.8991  -33.8170 H   0  0  0  0  0  0  0  0  0  0  0  0
   -8.3651   20.4868  -32.4511 H   0  0  0  0  0  0  0  0  0  0  0  0
   -6.2060   20.6770  -32.1880 C   0  0  0  0  0  0  0  0  0  0  0  0
   -5.7130   21.2271  -33.0031 H   0  0  0  0  0  0  0  0  0  0  0  0
   -6.4869   21.3978  -31.4059 H   0  0  0  0  0  0  0  0  0  0  0  0
   -2.2730   20.6360  -31.4620 C   0  0  0  0  0  0  0  0  0  0  0  0
   -2.8799   20.4097  -30.5729 H   0  0  0  0  0  0  0  0  0  0  0  0
  1  2  1  0
  2  3  2  0
  3  4  1  0
  4  5  3  0
  3  6  1  0
  6  7  2  0
  7  8  1  0
  7  9  1  0
  9 10  1  0
  9 11  2  0
 11 12  1  0
 12 13  1  0
 13 14  1  0
 13 15  1  0
 13 16  1  0
 11 17  1  0
 17 18  1  0
 17 19  2  0
 19 20  1  0
 20 21  1  0
 21 22  1  0
 21 23  1  0
 21 24  1  0
  2 25  1  0
 25 26  2  0
 26 27  1  0
 26 28  1  0
 28 29  1  0
 28 30  2  0
 30 31  1  0
 30 32  1  0
 32 33  1  0
 33 34  2  0
 33 35  2  0
 33 36  1  0
 36 37  1  0
 36 38  1  0
 38 39  1  0
 38 40  1  0
 38 41  1  0
 41 42  1  0
 41 43  1  0
 41 44  1  0
 44 45  1  0
 44 46  1  0
 44 47  1  0
 47 48  1  0
 47 49  1  0
 32 50  2  0
 50 51  1  0
 19  6  1  0
 50 25  1  0
 47 36  1  0
M  CHG  2   8  -1  36   1
M  END
>  <UniqueID>  (37) 
34

>  <SMILES>  (37) 
COc1cc([O-])c(/C(C#N)=C\c2cccc(S(=O)(=O)[NH+]3CCCC3)c2)c(OC)c1

>  <Energy>  (37) 
62.90604560188693

>  <Genealogy>  (37) 
COc1cc([O-])c(C(C#N)=Cc2cccc(S(=O)(=O)[NH+]3CCCC3)c2)c(OC)c1 (protonated)
COc1cc([O-])c(/C(C#N)=C\c2cccc(S(=O)(=O)[NH+]3CCCC3)c2)c(OC)c1 (cis-trans isomerization)
COc1cc([O-])c(/C(C#N)=C\c2cccc(S(=O)(=O)[NH+]3CCCC3)c2)c(OC)c1 (3D coordinates assigned)
COc1cc([O-])c(/C(C#N)=C\c2cccc(S(=O)(=O)[NH+]3CCCC3)c2)c(OC)c1 (nonaromatic ring conformer: 62.90604560188693 kcal/mol)

>  <smiles>  (37) 
COc1cc(O)c(C(C#N)=Cc2cccc(S(=O)(=O)N3CCCC3)c2)c(OC)c1

>  <score_type>  (37) 
oracle

>  <origin>  (37) 
adgpu

>  <m_score__min__energy>  (37) 
-10.68

>  <m_primary>  (37) 
energy

$$$$
37:0
     RDKit          3D

 38 40  0  0  1  0  0  0  0  0999 V2000
   -2.2630   24.6820  -28.1320 C   0  0  0  0  0  0  0  0  0  0  0  0
   -2.7540   25.1780  -29.3380 O   0  0  0  0  0  0  0  0  0  0  0  0
   -3.6860   24.5970  -30.1620 C   0  0  0  0  0  0  0  0  0  0  0  0
   -4.8630   25.2930  -30.4000 C   0  0  0  0  0  0  0  0  0  0  0  0
   -5.8500   24.7730  -31.2160 C   0  0  0  0  0  0  0  0  0  0  0  0
   -5.6630   23.5220  -31.8170 C   0  0  0  0  0  0  0  0  0  0  0  0
   -6.6950   23.0480  -32.6580 N   0  0  0  0  0  0  0  0  0  0  0  0
   -7.6240   22.0470  -32.3410 C   0  0  0  0  0  0  0  0  0  0  0  0
   -7.3280   20.7060  -32.5920 C   0  0  0  0  0  0  0  0  0  0  0  0
   -8.3000   19.7510  -32.2950 C   0  0  0  0  0  0  0  0  0  0  0  0
   -8.0060   18.5360  -32.5200 N   0  0  0  0  0  0  0  0  0  0  0  0
   -6.7820   18.0550  -33.0390 C   0  0  0  0  0  0  0  0  0  0  0  0
   -6.1070   17.1010  -32.2780 C   0  0  0  0  0  0  0  0  0  0  0  0
   -4.9040   16.5580  -32.6760 C   0  0  0  0  0  0  0  0  0  0  0  0
   -4.3880   17.0020  -33.8740 C   0  0  0  0  0  0  0  0  0  0  0  0
   -3.1930   16.4610  -34.2650 F   0  0  0  0  0  0  0  0  0  0  0  0
   -5.0080   17.9440  -34.6700 C   0  0  0  0  0  0  0  0  0  0  0  0
   -6.2080   18.4490  -34.2170 C   0  0  0  0  0  0  0  0  0  0  0  0
   -9.4560   20.1410  -31.7930 N   0  0  0  0  0  0  0  0  0  0  0  0
   -9.7710   21.4350  -31.5390 C   0  0  0  0  0  0  0  0  0  0  0  0
   -8.8370   22.3660  -31.8220 N   0  0  0  0  0  0  0  0  0  0  0  0
   -4.4930   22.8080  -31.5960 C   0  0  0  0  0  0  0  0  0  0  0  0
   -3.5160   23.3660  -30.7630 C   0  0  0  0  0  0  0  0  0  0  0  0
   -2.7653   25.1894  -27.2952 H   0  0  0  0  0  0  0  0  0  0  0  0
   -2.4563   23.6007  -28.0744 H   0  0  0  0  0  0  0  0  0  0  0  0
   -1.1798   24.8644  -28.0744 H   0  0  0  0  0  0  0  0  0  0  0  0
   -5.0131   26.2764  -29.9306 H   0  0  0  0  0  0  0  0  0  0  0  0
   -6.7769   25.3385  -31.3923 H   0  0  0  0  0  0  0  0  0  0  0  0
   -6.7520   23.5150  -33.6130 H   0  0  0  0  0  0  0  0  0  0  0  0
   -6.3553   20.4108  -33.0123 H   0  0  0  0  0  0  0  0  0  0  0  0
   -6.5499   16.7703  -31.3270 H   0  0  0  0  0  0  0  0  0  0  0  0
   -4.3811   15.8063  -32.0664 H   0  0  0  0  0  0  0  0  0  0  0  0
   -4.5655   18.2760  -35.6208 H   0  0  0  0  0  0  0  0  0  0  0  0
   -6.7267   19.2015  -34.8291 H   0  0  0  0  0  0  0  0  0  0  0  0
  -10.7486   21.7143  -31.1192 H   0  0  0  0  0  0  0  0  0  0  0  0
   -9.1200   23.3580  -31.6170 H   0  0  0  0  0  0  0  0  0  0  0  0
   -4.3371   21.8254  -32.0652 H   0  0  0  0  0  0  0  0  0  0  0  0
   -2.5859   22.8073  -30.5821 H   0  0  0  0  0  0  0  0  0  0  0  0
  1  2  1  0
  2  3  1  0
  3  4  2  0
  4  5  1  0
  5  6  2  0
  6  7  1  0
  7  8  1  0
  8  9  2  0
  9 10  1  0
 10 11  2  0
 11 12  1  0
 12 13  2  0
 13 14  1  0
 14 15  2  0
 15 16  1  0
 15 17  1  0
 17 18  2  0
 10 19  1  0
 19 20  2  0
 20 21  1  0
  6 22  1  0
 22 23  2  0
 23  3  1  0
 21  8  1  0
 18 12  1  0
  1 24  1  0
  1 25  1  0
  1 26  1  0
  4 27  1  0
  5 28  1  0
  7 29  1  0
  9 30  1  0
 13 31  1  0
 14 32  1  0
 17 33  1  0
 18 34  1  0
 20 35  1  0
 21 36  1  0
 22 37  1  0
 23 38  1  0
M  END
>  <smiles>  (38) 
COc1ccc(Nc2cc(=Nc3ccc(F)cc3)nc[nH]2)cc1

>  <score_type>  (38) 
oracle

>  <origin>  (38) 
adgpu

>  <m_score__min__energy>  (38) 
-8.2599999999999998

>  <m_primary>  (38) 
energy

$$$$
38:0
     RDKit          3D

 43 45  0  0  0  0  0  0  0  0999 V2000
   -5.0340   20.3280  -33.6130 C   0  0  0  0  0  0  0  0  0  0  0  0
   -4.0280   20.2400  -32.5380 N   0  0  0  0  0  0  0  0  0  0  0  0
   -2.9610   21.2670  -32.7270 C   0  0  0  0  0  0  0  0  0  0  0  0
   -3.1480   22.4940  -31.8280 C   0  0  0  0  0  0  0  0  0  0  0  0
   -3.1920   22.0700  -30.4240 N   0  0  0  0  0  0  0  0  0  0  0  0
   -2.6410   22.9000  -29.3810 C   0  0  0  0  0  0  0  0  0  0  0  0
   -1.9630   22.3030  -28.3040 C   0  0  0  0  0  0  0  0  0  0  0  0
   -1.4240   23.0850  -27.2810 C   0  0  0  0  0  0  0  0  0  0  0  0
   -1.5510   24.4750  -27.3210 C   0  0  0  0  0  0  0  0  0  0  0  0
   -0.8600   25.4560  -26.0420 Cl  0  0  0  0  0  0  0  0  0  0  0  0
   -2.2270   25.0830  -28.3820 C   0  0  0  0  0  0  0  0  0  0  0  0
   -2.7960   24.3050  -29.4070 C   0  0  0  0  0  0  0  0  0  0  0  0
   -3.5160   24.9260  -30.4830 N   0  0  0  0  0  0  0  0  0  0  0  0
   -4.9270   25.1770  -30.5240 C   0  0  0  0  0  0  0  0  0  0  0  0
   -5.3330   26.3600  -30.3780 O   0  0  0  0  0  0  0  0  0  0  0  0
   -5.9090   24.0980  -30.7830 C   0  0  0  0  0  0  0  0  0  0  0  0
   -6.2890   23.7690  -32.0980 C   0  0  0  0  0  0  0  0  0  0  0  0
   -7.2200   22.7540  -32.3320 C   0  0  0  0  0  0  0  0  0  0  0  0
   -7.7890   22.0630  -31.2590 C   0  0  0  0  0  0  0  0  0  0  0  0
   -7.4300   22.3910  -29.9490 C   0  0  0  0  0  0  0  0  0  0  0  0
   -6.4980   23.4060  -29.7090 C   0  0  0  0  0  0  0  0  0  0  0  0
   -3.7600   20.7570  -30.0940 C   0  0  0  0  0  0  0  0  0  0  0  0
   -4.7020   20.2940  -31.2120 C   0  0  0  0  0  0  0  0  0  0  0  0
   -6.0371   20.4157  -33.1702 H   0  0  0  0  0  0  0  0  0  0  0  0
   -4.8293   21.2117  -34.2353 H   0  0  0  0  0  0  0  0  0  0  0  0
   -4.9859   19.4222  -34.2353 H   0  0  0  0  0  0  0  0  0  0  0  0
   -3.5770   19.2970  -32.6230 H   0  0  0  0  0  0  0  0  0  0  0  0
   -1.9879   20.8085  -32.4971 H   0  0  0  0  0  0  0  0  0  0  0  0
   -3.0152   21.6110  -33.7704 H   0  0  0  0  0  0  0  0  0  0  0  0
   -2.3073   23.1879  -31.9752 H   0  0  0  0  0  0  0  0  0  0  0  0
   -4.0901   22.9987  -32.0881 H   0  0  0  0  0  0  0  0  0  0  0  0
   -1.8561   21.2088  -28.2670 H   0  0  0  0  0  0  0  0  0  0  0  0
   -0.8984   22.6055  -26.4421 H   0  0  0  0  0  0  0  0  0  0  0  0
   -2.3151   26.1789  -28.4162 H   0  0  0  0  0  0  0  0  0  0  0  0
   -5.8502   24.3145  -32.9465 H   0  0  0  0  0  0  0  0  0  0  0  0
   -7.5057   22.4983  -33.3630 H   0  0  0  0  0  0  0  0  0  0  0  0
   -8.5189   21.2615  -31.4454 H   0  0  0  0  0  0  0  0  0  0  0  0
   -7.8814   21.8497  -29.1045 H   0  0  0  0  0  0  0  0  0  0  0  0
   -6.2242   23.6644  -28.6754 H   0  0  0  0  0  0  0  0  0  0  0  0
   -2.9454   20.0268  -29.9789 H   0  0  0  0  0  0  0  0  0  0  0  0
   -4.3274   20.8360  -29.1549 H   0  0  0  0  0  0  0  0  0  0  0  0
   -5.0760   19.2895  -30.9650 H   0  0  0  0  0  0  0  0  0  0  0  0
   -5.5217   21.0241  -31.2827 H   0  0  0  0  0  0  0  0  0  0  0  0
  1  2  1  0
  2  3  1  0
  3  4  1  0
  4  5  1  0
  5  6  1  0
  6  7  2  0
  7  8  1  0
  8  9  2  0
  9 10  1  0
  9 11  1  0
 11 12  2  0
 12 13  1  0
 13 14  1  0
 14 15  2  0
 14 16  1  0
 16 17  2  0
 17 18  1  0
 18 19  2  0
 19 20  1  0
 20 21  2  0
  5 22  1  0
 22 23  1  0
 23  2  1  0
 12  6  1  0
 21 16  1  0
  1 24  1  0
  1 25  1  0
  1 26  1  0
  2 27  1  0
  3 28  1  0
  3 29  1  0
  4 30  1  0
  4 31  1  0
  7 32  1  0
  8 33  1  0
 11 34  1  0
 17 35  1  0
 18 36  1  0
 19 37  1  0
 20 38  1  0
 21 39  1  0
 22 40  1  0
 22 41  1  0
 23 42  1  0
 23 43  1  0
M  CHG  2   2   1  13  -1
M  END
>  <UniqueID>  (39) 
35

>  <SMILES>  (39) 
C[NH+]1CCN(c2ccc(Cl)cc2[N-]C(=O)c2ccccc2)CC1

>  <Energy>  (39) 
62.42230781934764

>  <Genealogy>  (39) 
C[NH+]1CCN(c2ccc(Cl)cc2[N-]C(=O)c2ccccc2)CC1 (protonated)
C[NH+]1CCN(c2ccc(Cl)cc2[N-]C(=O)c2ccccc2)CC1 (3D coordinates assigned)
C[NH+]1CCN(c2ccc(Cl)cc2[N-]C(=O)c2ccccc2)CC1 (nonaromatic ring conformer: 62.42230781934764 kcal/mol)

>  <smiles>  (39) 
CN1CCN(c2ccc(Cl)cc2NC(=O)c2ccccc2)CC1

>  <score_type>  (39) 
oracle

>  <origin>  (39) 
adgpu

>  <m_score__min__energy>  (39) 
-9.0600000000000005

>  <m_primary>  (39) 
energy

$$$$
39:0
     RDKit          3D

 43 46  0  0  0  0  0  0  0  0999 V2000
   -3.1450   25.2950  -30.0100 O   0  0  0  0  0  0  0  0  0  0  0  0
   -2.7090   24.1680  -29.3210 C   0  0  0  0  0  0  0  0  0  0  0  0
   -2.9190   22.8540  -29.7040 C   0  0  0  0  0  0  0  0  0  0  0  0
   -3.6360   22.3900  -30.8630 N   0  0  0  0  0  0  0  0  0  0  0  0
   -5.0930   22.5270  -30.9590 C   0  0  0  0  0  0  0  0  0  0  0  0
   -5.7030   21.1830  -31.3620 C   0  0  0  0  0  0  0  0  0  0  0  0
   -4.9840   20.5790  -32.4960 N   0  0  0  0  0  0  0  0  0  0  0  0
   -5.5050   19.3750  -33.0950 C   0  0  0  0  0  0  0  0  0  0  0  0
   -4.9880   18.9170  -34.2700 N   0  0  0  0  0  0  0  0  0  0  0  0
   -5.4580   17.7830  -34.8530 C   0  0  0  0  0  0  0  0  0  0  0  0
   -6.4890   17.0680  -34.2480 C   0  0  0  0  0  0  0  0  0  0  0  0
   -7.0110   17.5450  -33.0470 C   0  0  0  0  0  0  0  0  0  0  0  0
   -6.5130   18.6810  -32.4950 N   0  0  0  0  0  0  0  0  0  0  0  0
   -3.8240   21.2730  -33.0820 C   0  0  0  0  0  0  0  0  0  0  0  0
   -2.8900   21.7910  -31.9780 C   0  0  0  0  0  0  0  0  0  0  0  0
   -2.3720   22.0550  -28.7150 C   0  0  0  0  0  0  0  0  0  0  0  0
   -1.8370   22.9270  -27.7860 C   0  0  0  0  0  0  0  0  0  0  0  0
   -1.2190   22.5210  -26.6040 O   0  0  0  0  0  0  0  0  0  0  0  0
   -2.0330   24.2140  -28.1550 N   0  0  0  0  0  0  0  0  0  0  0  0
   -1.6170   25.3990  -27.4570 C   0  0  0  0  0  0  0  0  0  0  0  0
   -1.9890   25.6010  -26.1190 C   0  0  0  0  0  0  0  0  0  0  0  0
   -1.5940   26.7610  -25.4450 C   0  0  0  0  0  0  0  0  0  0  0  0
   -0.8340   27.7320  -26.1050 C   0  0  0  0  0  0  0  0  0  0  0  0
   -0.2980   29.3160  -25.1840 Br  0  0  0  0  0  0  0  0  0  0  0  0
   -0.4680   27.5410  -27.4420 C   0  0  0  0  0  0  0  0  0  0  0  0
   -0.8600   26.3810  -28.1170 C   0  0  0  0  0  0  0  0  0  0  0  0
   -5.4978   22.8364  -29.9841 H   0  0  0  0  0  0  0  0  0  0  0  0
   -5.3422   23.2858  -31.7154 H   0  0  0  0  0  0  0  0  0  0  0  0
   -5.6550   20.4974  -30.5031 H   0  0  0  0  0  0  0  0  0  0  0  0
   -6.7450   21.3566  -31.6688 H   0  0  0  0  0  0  0  0  0  0  0  0
   -5.0251   17.4304  -35.8008 H   0  0  0  0  0  0  0  0  0  0  0  0
   -6.8818   16.1488  -34.7072 H   0  0  0  0  0  0  0  0  0  0  0  0
   -7.8260   17.0014  -32.5467 H   0  0  0  0  0  0  0  0  0  0  0  0
   -3.2705   20.5727  -33.7248 H   0  0  0  0  0  0  0  0  0  0  0  0
   -4.1836   22.1284  -33.6728 H   0  0  0  0  0  0  0  0  0  0  0  0
   -2.2925   20.9506  -31.5949 H   0  0  0  0  0  0  0  0  0  0  0  0
   -2.2470   22.5697  -32.4142 H   0  0  0  0  0  0  0  0  0  0  0  0
   -2.3647   20.9557  -28.6765 H   0  0  0  0  0  0  0  0  0  0  0  0
   -1.3630   21.6000  -26.2140 H   0  0  0  0  0  0  0  0  0  0  0  0
   -2.5937   24.8439  -25.5983 H   0  0  0  0  0  0  0  0  0  0  0  0
   -1.8816   26.9100  -24.3938 H   0  0  0  0  0  0  0  0  0  0  0  0
    0.1288   28.3044  -27.9626 H   0  0  0  0  0  0  0  0  0  0  0  0
   -0.5743   26.2368  -29.1694 H   0  0  0  0  0  0  0  0  0  0  0  0
  1  2  1  0
  2  3  2  0
  3  4  1  0
  4  5  1  0
  5  6  1  0
  6  7  1  0
  7  8  1  0
  8  9  2  0
  9 10  1  0
 10 11  2  0
 11 12  1  0
 12 13  2  0
  7 14  1  0
 14 15  1  0
  3 16  1  0
 16 17  2  0
 17 18  1  0
 17 19  1  0
 19 20  1  0
 20 21  2  0
 21 22  1  0
 22 23  2  0
 23 24  1  0
 23 25  1  0
 25 26  2  0
 19  2  1  0
 26 20  1  0
 15  4  1  0
 13  8  1  0
  5 27  1  0
  5 28  1  0
  6 29  1  0
  6 30  1  0
 10 31  1  0
 11 32  1  0
 12 33  1  0
 14 34  1  0
 14 35  1  0
 15 36  1  0
 15 37  1  0
 16 38  1  0
 18 39  1  0
 21 40  1  0
 22 41  1  0
 25 42  1  0
 26 43  1  0
M  CHG  1   1  -1
M  END
>  <UniqueID>  (40) 
36

>  <SMILES>  (40) 
[O-]c1c(N2CCN(c3ncccn3)CC2)cc(O)n1-c1ccc(Br)cc1

>  <Energy>  (40) 
86.31500760050702

>  <Genealogy>  (40) 
[O-]c1c(N2CCN(c3ncccn3)CC2)cc(O)n1-c1ccc(Br)cc1 (protonated)
[O-]c1c(N2CCN(c3ncccn3)CC2)cc(O)n1-c1ccc(Br)cc1 (3D coordinates assigned)
[O-]c1c(N2CCN(c3ncccn3)CC2)cc(O)n1-c1ccc(Br)cc1 (nonaromatic ring conformer: 86.31500760050702 kcal/mol)

>  <smiles>  (40) 
Oc1cc(N2CCN(c3ncccn3)CC2)c(O)n1-c1ccc(Br)cc1

>  <score_type>  (40) 
oracle

>  <origin>  (40) 
adgpu

>  <m_score__min__energy>  (40) 
-10

>  <m_primary>  (40) 
energy

$$$$
40:0
     RDKit          3D

 31 32  0  0  0  0  0  0  0  0999 V2000
    1.4940   25.3130  -24.6690 C   0  0  0  0  0  0  0  0  0  0  0  0
    1.2190   24.3320  -25.6630 O   0  0  0  0  0  0  0  0  0  0  0  0
    0.1250   24.3760  -26.5420 C   0  0  0  0  0  0  0  0  0  0  0  0
   -0.0190   25.3920  -27.5050 C   0  0  0  0  0  0  0  0  0  0  0  0
   -1.1180   25.4040  -28.3680 C   0  0  0  0  0  0  0  0  0  0  0  0
   -1.2340   26.4200  -29.3090 O   0  0  0  0  0  0  0  0  0  0  0  0
   -2.0880   24.3920  -28.2920 C   0  0  0  0  0  0  0  0  0  0  0  0
   -3.2280   24.4280  -29.1690 N   0  0  0  0  0  0  0  0  0  0  0  0
   -3.4410   23.4930  -30.2390 C   0  0  0  0  0  0  0  0  0  0  0  0
   -2.5150   22.7190  -30.6050 O   0  0  0  0  0  0  0  0  0  0  0  0
   -4.7330   23.4580  -30.9410 C   0  0  0  0  0  0  0  0  0  0  0  0
   -5.4540   22.3240  -31.2580 C   0  0  0  0  0  0  0  0  0  0  0  0
   -6.5860   22.7720  -31.9030 C   0  0  0  0  0  0  0  0  0  0  0  0
   -6.4870   24.1480  -31.9400 C   0  0  0  0  0  0  0  0  0  0  0  0
   -5.3720   24.5260  -31.3590 O   0  0  0  0  0  0  0  0  0  0  0  0
   -1.9560   23.3880  -27.3170 C   0  0  0  0  0  0  0  0  0  0  0  0
   -0.8490   23.3710  -26.4460 C   0  0  0  0  0  0  0  0  0  0  0  0
   -0.6850   22.3760  -25.4690 O   0  0  0  0  0  0  0  0  0  0  0  0
   -0.4790   22.6310  -24.0840 C   0  0  0  0  0  0  0  0  0  0  0  0
    1.3694   24.8683  -23.6706 H   0  0  0  0  0  0  0  0  0  0  0  0
    2.5274   25.6720  -24.7841 H   0  0  0  0  0  0  0  0  0  0  0  0
    0.7978   26.1568  -24.7841 H   0  0  0  0  0  0  0  0  0  0  0  0
    0.7406   26.1841  -27.5791 H   0  0  0  0  0  0  0  0  0  0  0  0
   -3.9000   25.2220  -29.0720 H   0  0  0  0  0  0  0  0  0  0  0  0
   -5.1815   21.2806  -31.0409 H   0  0  0  0  0  0  0  0  0  0  0  0
   -7.4037   22.1570  -32.3070 H   0  0  0  0  0  0  0  0  0  0  0  0
   -7.2293   24.8250  -32.3881 H   0  0  0  0  0  0  0  0  0  0  0  0
   -2.7259   22.6068  -27.2332 H   0  0  0  0  0  0  0  0  0  0  0  0
   -1.0601   21.9116  -23.4883 H   0  0  0  0  0  0  0  0  0  0  0  0
    0.5898   22.5248  -23.8466 H   0  0  0  0  0  0  0  0  0  0  0  0
   -0.8075   23.6536  -23.8466 H   0  0  0  0  0  0  0  0  0  0  0  0
  1  2  1  0
  2  3  1  0
  3  4  2  0
  4  5  1  0
  5  6  1  0
  5  7  2  0
  7  8  1  0
  8  9  1  0
  9 10  2  0
  9 11  1  0
 11 12  2  0
 12 13  1  0
 13 14  2  0
 14 15  1  0
  7 16  1  0
 16 17  2  0
 17 18  1  0
 18 19  1  0
 17  3  1  0
 15 11  1  0
  1 20  1  0
  1 21  1  0
  1 22  1  0
  4 23  1  0
  8 24  1  0
 12 25  1  0
 13 26  1  0
 14 27  1  0
 16 28  1  0
 19 29  1  0
 19 30  1  0
 19 31  1  0
M  CHG  1   6  -1
M  END
>  <UniqueID>  (41) 
37

>  <SMILES>  (41) 
COc1cc([O-])c(NC(=O)c2ccco2)cc1OC

>  <Energy>  (41) 
59.35002689928093

>  <Genealogy>  (41) 
COc1cc([O-])c(NC(=O)c2ccco2)cc1OC (protonated)
COc1cc([O-])c(NC(=O)c2ccco2)cc1OC (3D coordinates assigned)
COc1cc([O-])c(NC(=O)c2ccco2)cc1OC (optimized conformer: 59.35002689928093 kcal/mol)

>  <smiles>  (41) 
COc1cc(O)c(NC(=O)c2ccco2)cc1OC

>  <score_type>  (41) 
oracle

>  <origin>  (41) 
adgpu

>  <m_score__min__energy>  (41) 
-8.4700000000000006

>  <m_primary>  (41) 
energy

$$$$
41:0
     RDKit          3D

 40 42  0  0  0  0  0  0  0  0999 V2000
   -3.8660   25.6730  -30.4650 O   0  0  0  0  0  0  0  0  0  0  0  0
   -3.2650   24.4810  -30.0770 C   0  0  0  0  0  0  0  0  0  0  0  0
   -2.1900   24.5180  -29.1850 C   0  0  0  0  0  0  0  0  0  0  0  0
   -1.5390   23.3400  -28.8160 C   0  0  0  0  0  0  0  0  0  0  0  0
   -1.9510   22.1020  -29.3420 C   0  0  0  0  0  0  0  0  0  0  0  0
   -1.2520   20.8490  -28.9580 C   0  0  0  0  0  0  0  0  0  0  0  0
   -0.1900   20.3560  -29.7350 C   0  0  0  0  0  0  0  0  0  0  0  0
    0.4670   19.1770  -29.3740 C   0  0  0  0  0  0  0  0  0  0  0  0
    0.0650   18.4560  -28.2380 C   0  0  0  0  0  0  0  0  0  0  0  0
    0.8080   17.2110  -27.8210 C   0  0  0  0  0  0  0  0  0  0  0  0
    0.8540   16.2990  -28.8610 F   0  0  0  0  0  0  0  0  0  0  0  0
    2.1070   17.5160  -27.4560 F   0  0  0  0  0  0  0  0  0  0  0  0
    0.1600   16.6340  -26.7450 F   0  0  0  0  0  0  0  0  0  0  0  0
   -0.9780   18.9620  -27.4440 C   0  0  0  0  0  0  0  0  0  0  0  0
   -1.6360   20.1410  -27.8070 C   0  0  0  0  0  0  0  0  0  0  0  0
   -3.0360   22.0710  -30.2370 C   0  0  0  0  0  0  0  0  0  0  0  0
   -3.7120   23.2490  -30.5900 C   0  0  0  0  0  0  0  0  0  0  0  0
   -4.8050   23.1770  -31.5180 N   0  0  0  0  0  0  0  0  0  0  0  0
   -5.3490   21.9480  -32.0320 C   0  0  0  0  0  0  0  0  0  0  0  0
   -4.6080   21.1280  -32.9010 C   0  0  0  0  0  0  0  0  0  0  0  0
   -5.1720   19.9590  -33.4170 C   0  0  0  0  0  0  0  0  0  0  0  0
   -6.4760   19.5980  -33.0760 C   0  0  0  0  0  0  0  0  0  0  0  0
   -7.2300   20.3990  -32.2020 C   0  0  0  0  0  0  0  0  0  0  0  0
   -8.6590   20.0410  -31.8770 C   0  0  0  0  0  0  0  0  0  0  0  0
   -9.4220   19.9810  -33.0300 F   0  0  0  0  0  0  0  0  0  0  0  0
   -8.6880   18.8080  -31.2530 F   0  0  0  0  0  0  0  0  0  0  0  0
   -9.2210   20.9850  -31.0360 F   0  0  0  0  0  0  0  0  0  0  0  0
   -6.6660   21.5890  -31.7080 C   0  0  0  0  0  0  0  0  0  0  0  0
   -1.8551   25.4807  -28.7715 H   0  0  0  0  0  0  0  0  0  0  0  0
   -0.6975   23.3798  -28.1087 H   0  0  0  0  0  0  0  0  0  0  0  0
    0.1268   20.9030  -30.6352 H   0  0  0  0  0  0  0  0  0  0  0  0
    1.3056   18.8107  -29.9843 H   0  0  0  0  0  0  0  0  0  0  0  0
   -1.2787   18.4271  -26.5310 H   0  0  0  0  0  0  0  0  0  0  0  0
   -2.4619   20.5176  -27.1857 H   0  0  0  0  0  0  0  0  0  0  0  0
   -3.3587   21.1108  -30.6657 H   0  0  0  0  0  0  0  0  0  0  0  0
   -5.1800   24.0770  -31.8960 H   0  0  0  0  0  0  0  0  0  0  0  0
   -3.5803   21.4081  -33.1755 H   0  0  0  0  0  0  0  0  0  0  0  0
   -4.5861   19.3206  -34.0946 H   0  0  0  0  0  0  0  0  0  0  0  0
   -6.9163   18.6807  -33.4940 H   0  0  0  0  0  0  0  0  0  0  0  0
   -7.2646   22.2460  -31.0599 H   0  0  0  0  0  0  0  0  0  0  0  0
  1  2  1  0
  2  3  2  0
  3  4  1  0
  4  5  2  0
  5  6  1  0
  6  7  2  0
  7  8  1  0
  8  9  2  0
  9 10  1  0
 10 11  1  0
 10 12  1  0
 10 13  1  0
  9 14  1  0
 14 15  2  0
  5 16  1  0
 16 17  2  0
 17 18  1  0
 18 19  1  0
 19 20  2  0
 20 21  1  0
 21 22  2  0
 22 23  1  0
 23 24  1  0
 24 25  1  0
 24 26  1  0
 24 27  1  0
 23 28  2  0
 17  2  1  0
 28 19  1  0
 15  6  1  0
  3 29  1  0
  4 30  1  0
  7 31  1  0
  8 32  1  0
 14 33  1  0
 15 34  1  0
 16 35  1  0
 18 36  1  0
 20 37  1  0
 21 38  1  0
 22 39  1  0
 28 40  1  0
M  CHG  1   1  -1
M  END
>  <UniqueID>  (42) 
38

>  <SMILES>  (42) 
[O-]c1ccc(-c2ccc(C(F)(F)F)cc2)cc1Nc1cccc(C(F)(F)F)c1

>  <Energy>  (42) 
55.90641038002113

>  <Genealogy>  (42) 
[O-]c1ccc(-c2ccc(C(F)(F)F)cc2)cc1Nc1cccc(C(F)(F)F)c1 (protonated)
[O-]c1ccc(-c2ccc(C(F)(F)F)cc2)cc1Nc1cccc(C(F)(F)F)c1 (3D coordinates assigned)
[O-]c1ccc(-c2ccc(C(F)(F)F)cc2)cc1Nc1cccc(C(F)(F)F)c1 (optimized conformer: 55.90641038002113 kcal/mol)

>  <smiles>  (42) 
Oc1ccc(-c2ccc(C(F)(F)F)cc2)cc1Nc1cccc(C(F)(F)F)c1

>  <score_type>  (42) 
oracle

>  <origin>  (42) 
adgpu

>  <m_score__min__energy>  (42) 
-10.35

>  <m_primary>  (42) 
energy

$$$$
42:0
     RDKit          3D

 54 56  0  0  0  0  0  0  0  0999 V2000
   -0.1970   20.7620  -32.3940 C   0  0  0  0  0  0  0  0  0  0  0  0
   -1.1180   21.3040  -31.3370 C   0  0  0  0  0  0  0  0  0  0  0  0
   -0.6860   22.3430  -30.4960 C   0  0  0  0  0  0  0  0  0  0  0  0
   -1.5320   22.8590  -29.5070 C   0  0  0  0  0  0  0  0  0  0  0  0
   -0.9700   24.1490  -28.4480 S   0  0  0  0  0  0  0  0  0  0  0  0
   -1.6280   25.6570  -28.9740 N   0  0  0  0  0  0  0  0  0  0  0  0
    0.5300   24.2200  -28.4810 O   0  0  0  0  0  0  0  0  0  0  0  0
   -1.4080   23.8730  -27.0360 O   0  0  0  0  0  0  0  0  0  0  0  0
   -2.8120   22.3190  -29.3420 C   0  0  0  0  0  0  0  0  0  0  0  0
   -3.2540   21.2890  -30.1750 C   0  0  0  0  0  0  0  0  0  0  0  0
   -2.4220   20.7880  -31.1920 C   0  0  0  0  0  0  0  0  0  0  0  0
   -2.8510   19.7110  -32.0410 N   0  0  0  0  0  0  0  0  0  0  0  0
   -3.7760   19.8120  -33.1310 C   0  0  0  0  0  0  0  0  0  0  0  0
   -3.3950   19.5780  -34.3080 O   0  0  0  0  0  0  0  0  0  0  0  0
   -5.1900   20.1280  -32.8520 C   0  0  0  0  0  0  0  0  0  0  0  0
   -5.6230   21.2000  -32.0990 C   0  0  0  0  0  0  0  0  0  0  0  0
   -7.0060   21.1190  -32.1350 C   0  0  0  0  0  0  0  0  0  0  0  0
   -7.9750   22.0990  -31.4970 C   0  0  0  0  0  0  0  0  0  0  0  0
   -8.0320   23.4100  -32.3070 C   0  0  0  0  0  0  0  0  0  0  0  0
   -7.5060   22.4130  -30.0640 C   0  0  0  0  0  0  0  0  0  0  0  0
   -9.3850   21.4770  -31.4560 C   0  0  0  0  0  0  0  0  0  0  0  0
   -7.3730   20.0620  -32.8880 N   0  0  0  0  0  0  0  0  0  0  0  0
   -6.2740   19.4580  -33.3120 N   0  0  0  0  0  0  0  0  0  0  0  0
   -6.3090   18.3260  -34.2410 C   0  0  0  0  0  0  0  0  0  0  0  0
   -5.4610   17.1910  -33.7270 C   0  0  0  0  0  0  0  0  0  0  0  0
   -4.3730   16.7130  -34.4760 C   0  0  0  0  0  0  0  0  0  0  0  0
   -3.5950   15.6570  -33.9950 C   0  0  0  0  0  0  0  0  0  0  0  0
   -3.8900   15.0750  -32.7580 C   0  0  0  0  0  0  0  0  0  0  0  0
   -4.9610   15.5540  -31.9990 C   0  0  0  0  0  0  0  0  0  0  0  0
   -5.7430   16.6100  -32.4770 C   0  0  0  0  0  0  0  0  0  0  0  0
    0.6562   20.2599  -31.9145 H   0  0  0  0  0  0  0  0  0  0  0  0
   -0.7421   20.0407  -33.0205 H   0  0  0  0  0  0  0  0  0  0  0  0
    0.1689   21.5888  -33.0205 H   0  0  0  0  0  0  0  0  0  0  0  0
    0.3268   22.7552  -30.6157 H   0  0  0  0  0  0  0  0  0  0  0  0
   -1.5440   25.6780  -30.0150 H   0  0  0  0  0  0  0  0  0  0  0  0
   -3.4729   22.7073  -28.5530 H   0  0  0  0  0  0  0  0  0  0  0  0
   -4.2599   20.8666  -30.0347 H   0  0  0  0  0  0  0  0  0  0  0  0
   -5.0071   21.9521  -31.5843 H   0  0  0  0  0  0  0  0  0  0  0  0
   -8.0692   24.2659  -31.6171 H   0  0  0  0  0  0  0  0  0  0  0  0
   -7.1364   23.4886  -32.9408 H   0  0  0  0  0  0  0  0  0  0  0  0
   -8.9310   23.4106  -32.9408 H   0  0  0  0  0  0  0  0  0  0  0  0
   -8.1962   21.9509  -29.3428 H   0  0  0  0  0  0  0  0  0  0  0  0
   -6.4938   22.0098  -29.9129 H   0  0  0  0  0  0  0  0  0  0  0  0
   -7.4931   23.5025  -29.9129 H   0  0  0  0  0  0  0  0  0  0  0  0
   -9.6951   21.3402  -30.4095 H   0  0  0  0  0  0  0  0  0  0  0  0
  -10.0955   22.1452  -31.9646 H   0  0  0  0  0  0  0  0  0  0  0  0
   -9.3705   20.5018  -31.9646 H   0  0  0  0  0  0  0  0  0  0  0  0
   -7.3475   17.9804  -34.3506 H   0  0  0  0  0  0  0  0  0  0  0  0
   -5.9119   18.6530  -35.2133 H   0  0  0  0  0  0  0  0  0  0  0  0
   -4.1324   17.1724  -35.4461 H   0  0  0  0  0  0  0  0  0  0  0  0
   -2.7490   15.2827  -34.5902 H   0  0  0  0  0  0  0  0  0  0  0  0
   -3.2793   14.2406  -32.3828 H   0  0  0  0  0  0  0  0  0  0  0  0
   -5.1893   15.0995  -31.0237 H   0  0  0  0  0  0  0  0  0  0  0  0
   -6.5816   16.9878  -31.8737 H   0  0  0  0  0  0  0  0  0  0  0  0
  1  2  1  0
  2  3  2  0
  3  4  1  0
  4  5  1  0
  5  6  1  0
  5  7  2  0
  5  8  2  0
  4  9  2  0
  9 10  1  0
 10 11  2  0
 11 12  1  0
 12 13  1  0
 13 14  2  0
 13 15  1  0
 15 16  2  0
 16 17  1  0
 17 18  1  0
 18 19  1  0
 18 20  1  0
 18 21  1  0
 17 22  2  0
 22 23  1  0
 23 24  1  0
 24 25  1  0
 25 26  2  0
 26 27  1  0
 27 28  2  0
 28 29  1  0
 29 30  2  0
 11  2  1  0
 23 15  1  0
 30 25  1  0
  1 31  1  0
  1 32  1  0
  1 33  1  0
  3 34  1  0
  6 35  1  0
  9 36  1  0
 10 37  1  0
 16 38  1  0
 19 39  1  0
 19 40  1  0
 19 41  1  0
 20 42  1  0
 20 43  1  0
 20 44  1  0
 21 45  1  0
 21 46  1  0
 21 47  1  0
 24 48  1  0
 24 49  1  0
 26 50  1  0
 27 51  1  0
 28 52  1  0
 29 53  1  0
 30 54  1  0
M  CHG  2   6  -1  12  -1
M  END
>  <UniqueID>  (43) 
39

>  <SMILES>  (43) 
Cc1cc(S([NH-])(=O)=O)ccc1[N-]C(=O)c1cc(C(C)(C)C)nn1Cc1ccccc1

>  <Energy>  (43) 
83.86315032435861

>  <Genealogy>  (43) 
Cc1cc(S([NH-])(=O)=O)ccc1[N-]C(=O)c1cc(C(C)(C)C)nn1Cc1ccccc1 (protonated)
Cc1cc(S([NH-])(=O)=O)ccc1[N-]C(=O)c1cc(C(C)(C)C)nn1Cc1ccccc1 (3D coordinates assigned)
Cc1cc(S([NH-])(=O)=O)ccc1[N-]C(=O)c1cc(C(C)(C)C)nn1Cc1ccccc1 (optimized conformer: 83.86315032435861 kcal/mol)

>  <smiles>  (43) 
Cc1cc(S(N)(=O)=O)ccc1NC(=O)c1cc(C(C)(C)C)nn1Cc1ccccc1

>  <score_type>  (43) 
oracle

>  <origin>  (43) 
adgpu

>  <m_score__min__energy>  (43) 
-11.789999999999999

>  <m_primary>  (43) 
energy

$$$$
43:0
     RDKit          3D

 43 45  0  0  1  0  0  0  0  0999 V2000
   -1.4200   24.7220  -28.4240 C   0  0  0  0  0  0  0  0  0  0  0  0
   -2.3840   25.2930  -29.3150 O   0  0  0  0  0  0  0  0  0  0  0  0
   -3.4650   24.5320  -29.7410 C   0  0  0  0  0  0  0  0  0  0  0  0
   -3.4750   23.2020  -29.3930 C   0  0  0  0  0  0  0  0  0  0  0  0
   -4.5650   22.4250  -29.8190 C   0  0  0  0  0  0  0  0  0  0  0  0
   -5.5860   23.0210  -30.5700 C   0  0  0  0  0  0  0  0  0  0  0  0
   -6.7050   22.1500  -31.0230 C   0  0  0  0  0  0  0  0  0  0  0  0
   -7.9620   22.3560  -30.4010 C   0  0  0  0  0  0  0  0  0  0  0  0
   -9.0320   21.1590  -31.1120 S   0  0  0  0  0  0  0  0  0  0  0  0
   -7.7830   20.4580  -32.1800 C   0  0  0  0  0  0  0  0  0  0  0  0
   -7.8670   19.4310  -33.0970 N   0  0  0  0  0  0  0  0  0  0  0  0
   -6.7790   19.0790  -33.8100 C   0  0  0  0  0  0  0  0  0  0  0  0
   -5.6610   19.7730  -33.5750 N   0  0  0  0  0  0  0  0  0  0  0  0
   -5.5340   20.7700  -32.7010 C   0  0  0  0  0  0  0  0  0  0  0  0
   -4.4050   21.3520  -32.5880 N   0  0  0  0  0  0  0  0  0  0  0  0
   -3.2160   21.0400  -33.3250 C   0  0  0  0  0  0  0  0  0  0  0  0
   -2.6160   19.7030  -32.9360 C   0  0  0  0  0  0  0  0  0  0  0  0
   -2.8620   18.6490  -33.8460 N   0  0  0  0  0  0  0  0  0  0  0  0
   -1.6590   18.1680  -34.4490 C   0  0  0  0  0  0  0  0  0  0  0  0
   -3.5520   17.5590  -33.2040 C   0  0  0  0  0  0  0  0  0  0  0  0
   -6.6610   21.1710  -31.9250 C   0  0  0  0  0  0  0  0  0  0  0  0
   -5.5360   24.3580  -30.8960 C   0  0  0  0  0  0  0  0  0  0  0  0
   -4.4540   25.1470  -30.4770 C   0  0  0  0  0  0  0  0  0  0  0  0
   -1.7285   24.9047  -27.3841 H   0  0  0  0  0  0  0  0  0  0  0  0
   -1.3531   23.6385  -28.6016 H   0  0  0  0  0  0  0  0  0  0  0  0
   -0.4377   25.1840  -28.6016 H   0  0  0  0  0  0  0  0  0  0  0  0
   -2.6584   22.7619  -28.8019 H   0  0  0  0  0  0  0  0  0  0  0  0
   -4.6163   21.3561  -29.5646 H   0  0  0  0  0  0  0  0  0  0  0  0
   -8.2134   23.1056  -29.6362 H   0  0  0  0  0  0  0  0  0  0  0  0
   -6.8093   18.2630  -34.5471 H   0  0  0  0  0  0  0  0  0  0  0  0
   -4.8200   19.4960  -34.1390 H   0  0  0  0  0  0  0  0  0  0  0  0
   -3.4632   21.0156  -34.3966 H   0  0  0  0  0  0  0  0  0  0  0  0
   -2.4712   21.8161  -33.0950 H   0  0  0  0  0  0  0  0  0  0  0  0
   -1.5270   19.8305  -32.8482 H   0  0  0  0  0  0  0  0  0  0  0  0
   -3.0998   19.4125  -31.9918 H   0  0  0  0  0  0  0  0  0  0  0  0
   -0.9440   17.8821  -33.6635 H   0  0  0  0  0  0  0  0  0  0  0  0
   -1.8869   17.2919  -35.0738 H   0  0  0  0  0  0  0  0  0  0  0  0
   -1.2201   18.9598  -35.0738 H   0  0  0  0  0  0  0  0  0  0  0  0
   -3.4804   17.6721  -32.1122 H   0  0  0  0  0  0  0  0  0  0  0  0
   -4.6100   17.5668  -33.5049 H   0  0  0  0  0  0  0  0  0  0  0  0
   -3.0923   16.6060  -33.5049 H   0  0  0  0  0  0  0  0  0  0  0  0
   -6.3469   24.8089  -31.4868 H   0  0  0  0  0  0  0  0  0  0  0  0
   -4.3975   26.2168  -30.7269 H   0  0  0  0  0  0  0  0  0  0  0  0
  1  2  1  0
  2  3  1  0
  3  4  2  0
  4  5  1  0
  5  6  2  0
  6  7  1  0
  7  8  2  0
  8  9  1  0
  9 10  1  0
 10 11  1  0
 11 12  2  0
 12 13  1  0
 13 14  1  0
 14 15  2  0
 15 16  1  0
 16 17  1  0
 17 18  1  0
 18 19  1  0
 18 20  1  0
 14 21  1  0
  6 22  1  0
 22 23  2  0
 23  3  1  0
 21  7  1  0
 21 10  2  0
  1 24  1  0
  1 25  1  0
  1 26  1  0
  4 27  1  0
  5 28  1  0
  8 29  1  0
 12 30  1  0
 13 31  1  0
 16 32  1  0
 16 33  1  0
 17 34  1  0
 17 35  1  0
 19 36  1  0
 19 37  1  0
 19 38  1  0
 20 39  1  0
 20 40  1  0
 20 41  1  0
 22 42  1  0
 23 43  1  0
M  END
>  <smiles>  (44) 
COc1ccc(-c2csc3nc[nH]c(=NCCN(C)C)c23)cc1

>  <score_type>  (44) 
oracle

>  <origin>  (44) 
adgpu

>  <m_score__min__energy>  (44) 
-7.3300000000000001

>  <m_primary>  (44) 
energy

$$$$
44:0
     RDKit          3D

 41 43  0  0  0  0  0  0  0  0999 V2000
   -6.4740   22.7930  -31.9350 C   0  0  0  0  0  0  0  0  0  0  0  0
   -6.0910   24.5140  -31.4860 S   0  0  0  0  0  0  0  0  0  0  0  0
   -4.6010   24.0620  -30.6060 C   0  0  0  0  0  0  0  0  0  0  0  0
   -4.3460   22.8020  -30.1960 N   0  0  0  0  0  0  0  0  0  0  0  0
   -3.1330   22.8960  -29.6220 C   0  0  0  0  0  0  0  0  0  0  0  0
   -2.4130   21.7350  -29.0680 C   0  0  0  0  0  0  0  0  0  0  0  0
   -2.7470   21.2750  -27.7860 C   0  0  0  0  0  0  0  0  0  0  0  0
   -2.1070   20.1590  -27.2450 C   0  0  0  0  0  0  0  0  0  0  0  0
   -1.1200   19.4870  -27.9770 C   0  0  0  0  0  0  0  0  0  0  0  0
   -0.4650   18.2600  -27.4120 C   0  0  0  0  0  0  0  0  0  0  0  0
   -0.7990   19.9250  -29.2700 C   0  0  0  0  0  0  0  0  0  0  0  0
   -1.4280   21.0550  -29.8210 C   0  0  0  0  0  0  0  0  0  0  0  0
   -1.0570   21.5070  -31.2090 C   0  0  0  0  0  0  0  0  0  0  0  0
   -2.6800   24.2000  -29.7180 C   0  0  0  0  0  0  0  0  0  0  0  0
   -1.3650   24.7340  -29.3030 C   0  0  0  0  0  0  0  0  0  0  0  0
   -0.3520   23.9860  -29.3110 O   0  0  0  0  0  0  0  0  0  0  0  0
   -1.2230   26.0790  -28.8320 N   0  0  0  0  0  0  0  0  0  0  0  0
   -1.1170   26.4820  -27.4590 C   0  0  0  0  0  0  0  0  0  0  0  0
   -1.6590   25.6570  -26.4650 C   0  0  0  0  0  0  0  0  0  0  0  0
   -1.5590   26.0160  -25.1170 C   0  0  0  0  0  0  0  0  0  0  0  0
   -0.9000   27.1930  -24.7530 C   0  0  0  0  0  0  0  0  0  0  0  0
   -0.3310   28.0080  -25.7360 C   0  0  0  0  0  0  0  0  0  0  0  0
   -0.4280   27.6510  -27.0850 C   0  0  0  0  0  0  0  0  0  0  0  0
   -3.6170   24.9410  -30.3360 N   0  0  0  0  0  0  0  0  0  0  0  0
   -6.6068   22.1963  -31.0205 H   0  0  0  0  0  0  0  0  0  0  0  0
   -7.4001   22.7662  -32.5280 H   0  0  0  0  0  0  0  0  0  0  0  0
   -5.6467   22.3760  -32.5280 H   0  0  0  0  0  0  0  0  0  0  0  0
   -3.5192   21.7977  -27.2025 H   0  0  0  0  0  0  0  0  0  0  0  0
   -2.3789   19.8057  -26.2394 H   0  0  0  0  0  0  0  0  0  0  0  0
   -0.4888   18.3046  -26.3132 H   0  0  0  0  0  0  0  0  0  0  0  0
   -1.0054   17.3652  -27.7544 H   0  0  0  0  0  0  0  0  0  0  0  0
    0.5792   18.2111  -27.7544 H   0  0  0  0  0  0  0  0  0  0  0  0
   -0.0475   19.3788  -29.8590 H   0  0  0  0  0  0  0  0  0  0  0  0
   -0.3603   22.3558  -31.1443 H   0  0  0  0  0  0  0  0  0  0  0  0
   -0.5756   20.6778  -31.7482 H   0  0  0  0  0  0  0  0  0  0  0  0
   -1.9641   21.8175  -31.7482 H   0  0  0  0  0  0  0  0  0  0  0  0
   -2.1658   24.7221  -26.7461 H   0  0  0  0  0  0  0  0  0  0  0  0
   -1.9997   25.3710  -24.3425 H   0  0  0  0  0  0  0  0  0  0  0  0
   -0.8289   27.4783  -23.6930 H   0  0  0  0  0  0  0  0  0  0  0  0
    0.1936   28.9311  -25.4483 H   0  0  0  0  0  0  0  0  0  0  0  0
    0.0352   28.2852  -27.8552 H   0  0  0  0  0  0  0  0  0  0  0  0
  1  2  1  0
  2  3  1  0
  3  4  2  0
  4  5  1  0
  5  6  1  0
  6  7  2  0
  7  8  1  0
  8  9  2  0
  9 10  1  0
  9 11  1  0
 11 12  2  0
 12 13  1  0
  5 14  2  0
 14 15  1  0
 15 16  2  0
 15 17  1  0
 17 18  1  0
 18 19  2  0
 19 20  1  0
 20 21  2  0
 21 22  1  0
 22 23  2  0
 14 24  1  0
 24  3  1  0
 12  6  1  0
 23 18  1  0
  1 25  1  0
  1 26  1  0
  1 27  1  0
  7 28  1  0
  8 29  1  0
 10 30  1  0
 10 31  1  0
 10 32  1  0
 11 33  1  0
 13 34  1  0
 13 35  1  0
 13 36  1  0
 19 37  1  0
 20 38  1  0
 21 39  1  0
 22 40  1  0
 23 41  1  0
M  CHG  2  17  -1  24  -1
M  END
>  <UniqueID>  (45) 
40

>  <SMILES>  (45) 
CSc1nc(-c2ccc(C)cc2C)c(C(=O)[N-]c2ccccc2)[n-]1

>  <Energy>  (45) 
77.84363535005357

>  <Genealogy>  (45) 
CSc1nc(-c2ccc(C)cc2C)c(C(=O)[N-]c2ccccc2)[n-]1 (protonated)
CSc1nc(-c2ccc(C)cc2C)c(C(=O)[N-]c2ccccc2)[n-]1 (3D coordinates assigned)
CSc1nc(-c2ccc(C)cc2C)c(C(=O)[N-]c2ccccc2)[n-]1 (optimized conformer: 77.84363535005357 kcal/mol)

>  <smiles>  (45) 
CSc1nc(-c2ccc(C)cc2C)c(C(=O)Nc2ccccc2)[nH]1

>  <score_type>  (45) 
oracle

>  <origin>  (45) 
adgpu

>  <m_score__min__energy>  (45) 
-10.06

>  <m_primary>  (45) 
energy

$$$$
45:0
     RDKit          3D

 34 36  0  0  1  0  0  0  0  0999 V2000
   -1.0740   26.1540  -26.8540 C   0  0  0  0  0  0  0  0  0  0  0  0
   -1.2330   25.6490  -28.5910 S   0  0  0  0  0  0  0  0  0  0  0  0
   -2.6750   24.5830  -28.7220 C   0  0  0  0  0  0  0  0  0  0  0  0
   -3.3220   24.6280  -29.9240 N   0  0  0  0  0  0  0  0  0  0  0  0
   -4.4170   23.8590  -30.1090 C   0  0  0  0  0  0  0  0  0  0  0  0
   -4.9950   23.9360  -31.2600 N   0  0  0  0  0  0  0  0  0  0  0  0
   -6.1520   23.1410  -31.5000 C   0  0  0  0  0  0  0  0  0  0  0  0
   -7.4370   23.6330  -31.3890 C   0  0  0  0  0  0  0  0  0  0  0  0
   -8.5260   22.8040  -31.6370 C   0  0  0  0  0  0  0  0  0  0  0  0
   -8.2820   21.4890  -31.9940 C   0  0  0  0  0  0  0  0  0  0  0  0
   -9.3070   20.6070  -32.2550 C   0  0  0  0  0  0  0  0  0  0  0  0
   -9.0130   19.2980  -32.6090 C   0  0  0  0  0  0  0  0  0  0  0  0
   -7.7160   18.8420  -32.7100 C   0  0  0  0  0  0  0  0  0  0  0  0
   -6.6900   19.7130  -32.4520 C   0  0  0  0  0  0  0  0  0  0  0  0
   -5.2610   19.2700  -32.5470 C   0  0  0  0  0  0  0  0  0  0  0  0
   -6.9800   21.0120  -32.1000 C   0  0  0  0  0  0  0  0  0  0  0  0
   -5.9420   21.8410  -31.8530 N   0  0  0  0  0  0  0  0  0  0  0  0
   -4.8480   23.0530  -29.0850 C   0  0  0  0  0  0  0  0  0  0  0  0
   -4.1840   23.0150  -27.8710 C   0  0  0  0  0  0  0  0  0  0  0  0
   -3.0860   23.8010  -27.7160 N   0  0  0  0  0  0  0  0  0  0  0  0
   -1.3398   25.3097  -26.2009 H   0  0  0  0  0  0  0  0  0  0  0  0
   -0.0362   26.4594  -26.6544 H   0  0  0  0  0  0  0  0  0  0  0  0
   -1.7496   26.9988  -26.6544 H   0  0  0  0  0  0  0  0  0  0  0  0
   -7.6001   24.6828  -31.1038 H   0  0  0  0  0  0  0  0  0  0  0  0
   -9.5549   23.1837  -31.5516 H   0  0  0  0  0  0  0  0  0  0  0  0
  -10.3534   20.9386  -32.1832 H   0  0  0  0  0  0  0  0  0  0  0  0
   -9.8402   18.6029  -32.8154 H   0  0  0  0  0  0  0  0  0  0  0  0
   -7.5087   17.7992  -32.9922 H   0  0  0  0  0  0  0  0  0  0  0  0
   -4.8487   19.1422  -31.5352 H   0  0  0  0  0  0  0  0  0  0  0  0
   -5.2088   18.3135  -33.0877 H   0  0  0  0  0  0  0  0  0  0  0  0
   -4.6769   20.0292  -33.0877 H   0  0  0  0  0  0  0  0  0  0  0  0
   -5.7389   22.4247  -29.2320 H   0  0  0  0  0  0  0  0  0  0  0  0
   -4.5351   22.3668  -27.0546 H   0  0  0  0  0  0  0  0  0  0  0  0
   -2.5490   23.7990  -26.7990 H   0  0  0  0  0  0  0  0  0  0  0  0
  1  2  1  0
  2  3  1  0
  3  4  2  0
  4  5  1  0
  5  6  2  0
  6  7  1  0
  7  8  2  0
  8  9  1  0
  9 10  2  0
 10 11  1  0
 11 12  2  0
 12 13  1  0
 13 14  2  0
 14 15  1  0
 14 16  1  0
 16 17  2  0
  5 18  1  0
 18 19  2  0
 19 20  1  0
 20  3  1  0
 17  7  1  0
 16 10  1  0
  1 21  1  0
  1 22  1  0
  1 23  1  0
  8 24  1  0
  9 25  1  0
 11 26  1  0
 12 27  1  0
 13 28  1  0
 15 29  1  0
 15 30  1  0
 15 31  1  0
 18 32  1  0
 19 33  1  0
 20 34  1  0
M  END
>  <smiles>  (46) 
CSc1nc(=Nc2ccc3cccc(C)c3n2)cc[nH]1

>  <score_type>  (46) 
oracle

>  <origin>  (46) 
adgpu

>  <m_score__min__energy>  (46) 
-8.2899999999999991

>  <m_primary>  (46) 
energy

$$$$
46:0
     RDKit          3D

 50 52  0  0  1  0  0  0  0  0999 V2000
   -5.4500   11.8660  -34.1670 C   0  0  0  0  0  0  0  0  0  0  0  0
   -5.6910   13.3170  -34.1650 C   0  0  0  0  0  0  0  0  0  0  0  0
   -6.9610   13.8030  -34.3830 C   0  0  0  0  0  0  0  0  0  0  0  0
   -7.2270   15.1530  -34.3880 C   0  0  0  0  0  0  0  0  0  0  0  0
   -6.2210   16.1100  -34.1700 C   0  0  0  0  0  0  0  0  0  0  0  0
   -6.5790   17.4600  -34.1930 N   0  0  0  0  0  0  0  0  0  0  0  0
   -6.1930   18.4700  -33.2860 C   0  0  0  0  0  0  0  0  0  0  0  0
   -5.4560   18.1880  -32.3460 O   0  0  0  0  0  0  0  0  0  0  0  0
   -6.6400   19.8020  -33.4400 N   0  0  0  0  0  0  0  0  0  0  0  0
   -6.3440   20.9020  -32.6270 C   0  0  0  0  0  0  0  0  0  0  0  0
   -5.1200   21.5610  -32.8150 C   0  0  0  0  0  0  0  0  0  0  0  0
   -4.7490   22.6500  -32.0600 C   0  0  0  0  0  0  0  0  0  0  0  0
   -5.5550   23.1520  -31.0800 C   0  0  0  0  0  0  0  0  0  0  0  0
   -5.1680   24.5160  -30.0630 S   0  0  0  0  0  0  0  0  0  0  0  0
   -6.4550   25.2560  -29.6900 O   0  0  0  0  0  0  0  0  0  0  0  0
   -4.2840   25.4530  -30.8540 O   0  0  0  0  0  0  0  0  0  0  0  0
   -4.4540   23.9460  -28.6170 N   0  0  0  0  0  0  0  0  0  0  0  0
   -3.4030   23.2380  -28.5280 C   0  0  0  0  0  0  0  0  0  0  0  0
   -2.7100   22.8490  -29.6440 C   0  0  0  0  0  0  0  0  0  0  0  0
   -1.5680   22.0860  -29.6280 C   0  0  0  0  0  0  0  0  0  0  0  0
   -0.8580   21.6920  -30.8740 C   0  0  0  0  0  0  0  0  0  0  0  0
   -1.1220   21.7090  -28.3950 N   0  0  0  0  0  0  0  0  0  0  0  0
   -1.7950   22.0840  -27.2690 C   0  0  0  0  0  0  0  0  0  0  0  0
   -1.2280   21.6220  -25.9790 C   0  0  0  0  0  0  0  0  0  0  0  0
   -2.9170   22.8360  -27.3340 N   0  0  0  0  0  0  0  0  0  0  0  0
   -6.7670   22.5280  -30.8690 C   0  0  0  0  0  0  0  0  0  0  0  0
   -7.1420   21.4200  -31.6390 C   0  0  0  0  0  0  0  0  0  0  0  0
   -4.9710   15.5980  -33.9570 C   0  0  0  0  0  0  0  0  0  0  0  0
   -4.6950   14.2290  -33.9500 C   0  0  0  0  0  0  0  0  0  0  0  0
   -5.3897   11.5029  -33.1304 H   0  0  0  0  0  0  0  0  0  0  0  0
   -6.2760   11.3578  -34.6860 H   0  0  0  0  0  0  0  0  0  0  0  0
   -4.5040   11.6521  -34.6860 H   0  0  0  0  0  0  0  0  0  0  0  0
   -7.7836   13.0939  -34.5576 H   0  0  0  0  0  0  0  0  0  0  0  0
   -8.2574   15.4933  -34.5679 H   0  0  0  0  0  0  0  0  0  0  0  0
   -7.2180   17.7740  -34.9820 H   0  0  0  0  0  0  0  0  0  0  0  0
   -7.2740   19.9780  -34.2710 H   0  0  0  0  0  0  0  0  0  0  0  0
   -4.4334   21.1948  -33.5924 H   0  0  0  0  0  0  0  0  0  0  0  0
   -3.7772   23.1284  -32.2515 H   0  0  0  0  0  0  0  0  0  0  0  0
   -3.0957   23.1707  -30.6227 H   0  0  0  0  0  0  0  0  0  0  0  0
    0.0768   21.1733  -30.6150 H   0  0  0  0  0  0  0  0  0  0  0  0
   -1.4986   21.0203  -31.4643 H   0  0  0  0  0  0  0  0  0  0  0  0
   -0.6270   22.5910  -31.4643 H   0  0  0  0  0  0  0  0  0  0  0  0
   -0.2550   21.1270  -28.3540 H   0  0  0  0  0  0  0  0  0  0  0  0
   -1.7872   22.0776  -25.1485 H   0  0  0  0  0  0  0  0  0  0  0  0
   -1.3054   20.5266  -25.9158 H   0  0  0  0  0  0  0  0  0  0  0  0
   -0.1708   21.9191  -25.9158 H   0  0  0  0  0  0  0  0  0  0  0  0
   -7.4451   22.9041  -30.0888 H   0  0  0  0  0  0  0  0  0  0  0  0
   -8.1153   20.9462  -31.4437 H   0  0  0  0  0  0  0  0  0  0  0  0
   -4.1417   16.2993  -33.7825 H   0  0  0  0  0  0  0  0  0  0  0  0
   -3.6671   13.8812  -33.7699 H   0  0  0  0  0  0  0  0  0  0  0  0
  1  2  1  0
  2  3  2  0
  3  4  1  0
  4  5  2  0
  5  6  1  0
  6  7  1  0
  7  8  2  0
  7  9  1  0
  9 10  1  0
 10 11  2  0
 11 12  1  0
 12 13  2  0
 13 14  1  0
 14 15  2  0
 14 16  2  0
 14 17  1  0
 17 18  2  0
 18 19  1  0
 19 20  2  0
 20 21  1  0
 20 22  1  0
 22 23  1  0
 23 24  1  0
 23 25  2  0
 13 26  1  0
 26 27  2  0
  5 28  1  0
 28 29  2  0
 29  2  1  0
 27 10  1  0
 25 18  1  0
  1 30  1  0
  1 31  1  0
  1 32  1  0
  3 33  1  0
  4 34  1  0
  6 35  1  0
  9 36  1  0
 11 37  1  0
 12 38  1  0
 19 39  1  0
 21 40  1  0
 21 41  1  0
 21 42  1  0
 22 43  1  0
 24 44  1  0
 24 45  1  0
 24 46  1  0
 26 47  1  0
 27 48  1  0
 28 49  1  0
 29 50  1  0
M  END
>  <smiles>  (47) 
Cc1ccc(NC(=O)Nc2ccc(S(=O)(=O)N=c3cc(C)[nH]c(C)n3)cc2)cc1

>  <score_type>  (47) 
oracle

>  <origin>  (47) 
adgpu

>  <m_score__min__energy>  (47) 
-9.6300000000000008

>  <m_primary>  (47) 
energy

$$$$
47:0
     RDKit          3D

 31 34  0  0  0  0  0  0  0  0999 V2000
   -6.7240   16.2410  -33.9580 C   0  0  0  0  0  0  0  0  0  0  0  0
   -6.8440   17.6450  -33.4700 C   0  0  0  0  0  0  0  0  0  0  0  0
   -7.7830   18.0460  -32.5820 N   0  0  0  0  0  0  0  0  0  0  0  0
   -7.6320   19.3570  -32.2610 C   0  0  0  0  0  0  0  0  0  0  0  0
   -6.5540   19.9880  -32.8590 C   0  0  0  0  0  0  0  0  0  0  0  0
   -5.7650   18.8850  -33.8510 S   0  0  0  0  0  0  0  0  0  0  0  0
   -6.1800   21.4190  -32.6320 C   0  0  0  0  0  0  0  0  0  0  0  0
   -7.0970   22.0640  -31.6750 N   0  0  0  0  0  0  0  0  0  0  0  0
   -6.6690   23.2730  -31.0220 C   0  0  0  0  0  0  0  0  0  0  0  0
   -7.5920   24.1320  -30.4910 N   0  0  0  0  0  0  0  0  0  0  0  0
   -7.2220   25.2890  -29.8570 C   0  0  0  0  0  0  0  0  0  0  0  0
   -5.9020   25.6190  -29.7280 N   0  0  0  0  0  0  0  0  0  0  0  0
   -4.9830   24.7710  -30.2480 C   0  0  0  0  0  0  0  0  0  0  0  0
   -3.6510   24.8920  -30.1850 N   0  0  0  0  0  0  0  0  0  0  0  0
   -3.1160   23.8230  -30.7630 N   0  0  0  0  0  0  0  0  0  0  0  0
   -4.1200   23.0190  -31.1970 C   0  0  0  0  0  0  0  0  0  0  0  0
   -5.3230   23.6200  -30.8790 C   0  0  0  0  0  0  0  0  0  0  0  0
   -8.4790   21.5730  -31.5190 C   0  0  0  0  0  0  0  0  0  0  0  0
   -8.4940   20.0600  -31.2610 C   0  0  0  0  0  0  0  0  0  0  0  0
   -6.6656   15.5576  -33.0980 H   0  0  0  0  0  0  0  0  0  0  0  0
   -7.6038   15.9884  -34.5680 H   0  0  0  0  0  0  0  0  0  0  0  0
   -5.8141   16.1413  -34.5680 H   0  0  0  0  0  0  0  0  0  0  0  0
   -5.1558   21.4633  -32.2332 H   0  0  0  0  0  0  0  0  0  0  0  0
   -6.2459   21.9528  -33.5916 H   0  0  0  0  0  0  0  0  0  0  0  0
   -7.9938   25.9578  -29.4484 H   0  0  0  0  0  0  0  0  0  0  0  0
   -3.1080   25.6690  -29.7490 H   0  0  0  0  0  0  0  0  0  0  0  0
   -3.9971   22.0553  -31.7129 H   0  0  0  0  0  0  0  0  0  0  0  0
   -8.9511   22.0884  -30.6696 H   0  0  0  0  0  0  0  0  0  0  0  0
   -9.0329   21.7779  -32.4470 H   0  0  0  0  0  0  0  0  0  0  0  0
   -8.1130   19.8602  -30.2486 H   0  0  0  0  0  0  0  0  0  0  0  0
   -9.5259   19.6903  -31.3536 H   0  0  0  0  0  0  0  0  0  0  0  0
  1  2  1  0
  2  3  2  0
  3  4  1  0
  4  5  2  0
  5  6  1  0
  5  7  1  0
  7  8  1  0
  8  9  1  0
  9 10  2  0
 10 11  1  0
 11 12  2  0
 12 13  1  0
 13 14  1  0
 14 15  1  0
 15 16  2  0
 16 17  1  0
  8 18  1  0
 18 19  1  0
  6  2  1  0
 17  9  1  0
 19  4  1  0
 17 13  2  0
  1 20  1  0
  1 21  1  0
  1 22  1  0
  7 23  1  0
  7 24  1  0
 11 25  1  0
 14 26  1  0
 16 27  1  0
 18 28  1  0
 18 29  1  0
 19 30  1  0
 19 31  1  0
M  END
>  <UniqueID>  (48) 
41

>  <SMILES>  (48) 
Cc1nc2c(s1)CN(c1ncnc3[nH]ncc13)CC2

>  <Energy>  (48) 
110.33737725047823

>  <Genealogy>  (48) 
Cc1nc2c(s1)CN(c1ncnc3[nH]ncc13)CC2 (3D coordinates assigned)
Cc1nc2c(s1)CN(c1ncnc3[nH]ncc13)CC2 (nonaromatic ring conformer: 110.33737725047823 kcal/mol)

>  <smiles>  (48) 
Cc1nc2c(s1)CN(c1ncnc3[nH]ncc13)CC2

>  <score_type>  (48) 
oracle

>  <origin>  (48) 
adgpu

>  <m_score__min__energy>  (48) 
-7.9400000000000004

>  <m_primary>  (48) 
energy

$$$$
