0:0
     RDKit          3D

 49 51  0  0  0  0  0  0  0  0999 V2000
   -0.7310   18.5680  -27.4970 C   0  0  0  0  0  0  0  0  0  0  0  0
   -0.8580   19.9400  -27.1430 O   0  0  0  0  0  0  0  0  0  0  0  0
   -1.9930   20.6980  -27.4500 C   0  0  0  0  0  0  0  0  0  0  0  0
   -3.1430   20.1980  -27.3110 O   0  0  0  0  0  0  0  0  0  0  0  0
   -1.8410   22.0910  -27.9280 C   0  0  0  0  0  0  0  0  0  0  0  0
   -0.8440   22.9270  -27.3970 C   0  0  0  0  0  0  0  0  0  0  0  0
   -0.6940   24.2330  -27.8690 C   0  0  0  0  0  0  0  0  0  0  0  0
   -1.5250   24.7170  -28.8830 C   0  0  0  0  0  0  0  0  0  0  0  0
   -1.3430   26.0170  -29.3440 O   0  0  0  0  0  0  0  0  0  0  0  0
   -2.5260   23.8960  -29.4330 C   0  0  0  0  0  0  0  0  0  0  0  0
   -3.3630   24.3990  -30.4930 N   0  0  0  0  0  0  0  0  0  0  0  0
   -5.0790   24.6080  -30.3430 S   0  0  0  0  0  0  0  0  0  0  0  0
   -5.4110   24.9310  -28.9130 O   0  0  0  0  0  0  0  0  0  0  0  0
   -5.5220   25.7470  -31.2170 O   0  0  0  0  0  0  0  0  0  0  0  0
   -5.9100   23.1430  -30.8600 C   0  0  0  0  0  0  0  0  0  0  0  0
   -7.2440   23.2140  -31.2800 C   0  0  0  0  0  0  0  0  0  0  0  0
   -7.8990   22.0680  -31.7390 C   0  0  0  0  0  0  0  0  0  0  0  0
   -7.2270   20.8380  -31.7770 C   0  0  0  0  0  0  0  0  0  0  0  0
   -8.0570   19.3880  -32.3510 S   0  0  0  0  0  0  0  0  0  0  0  0
   -9.3040   19.7910  -33.0870 O   0  0  0  0  0  0  0  0  0  0  0  0
   -8.4630   18.5500  -31.1710 O   0  0  0  0  0  0  0  0  0  0  0  0
   -7.0410   18.4420  -33.4150 N   0  0  0  0  0  0  0  0  0  0  0  0
   -6.3300   17.3960  -32.6540 C   0  0  0  0  0  0  0  0  0  0  0  0
   -5.0940   16.9100  -33.4260 C   0  0  0  0  0  0  0  0  0  0  0  0
   -4.1390   17.9300  -33.6930 O   0  0  0  0  0  0  0  0  0  0  0  0
   -4.6850   19.2410  -33.6920 C   0  0  0  0  0  0  0  0  0  0  0  0
   -6.1340   19.2970  -34.2100 C   0  0  0  0  0  0  0  0  0  0  0  0
   -5.8910   20.7690  -31.3600 C   0  0  0  0  0  0  0  0  0  0  0  0
   -5.2360   21.9150  -30.8990 C   0  0  0  0  0  0  0  0  0  0  0  0
   -2.6870   22.5900  -28.9320 C   0  0  0  0  0  0  0  0  0  0  0  0
   -0.6745   17.9574  -26.5838 H   0  0  0  0  0  0  0  0  0  0  0  0
   -1.6045   18.2601  -28.0905 H   0  0  0  0  0  0  0  0  0  0  0  0
    0.1842   18.4256  -28.0905 H   0  0  0  0  0  0  0  0  0  0  0  0
   -0.1786   22.5511  -26.6059 H   0  0  0  0  0  0  0  0  0  0  0  0
    0.0822   24.8839  -27.4404 H   0  0  0  0  0  0  0  0  0  0  0  0
   -2.9550   24.5500  -31.4430 H   0  0  0  0  0  0  0  0  0  0  0  0
   -7.7781   24.1751  -31.2485 H   0  0  0  0  0  0  0  0  0  0  0  0
   -8.9456   22.1312  -32.0717 H   0  0  0  0  0  0  0  0  0  0  0  0
   -6.0119   17.8075  -31.6848 H   0  0  0  0  0  0  0  0  0  0  0  0
   -7.0099   16.5448  -32.5019 H   0  0  0  0  0  0  0  0  0  0  0  0
   -4.6034   16.1238  -32.8334 H   0  0  0  0  0  0  0  0  0  0  0  0
   -5.4511   16.5462  -34.4007 H   0  0  0  0  0  0  0  0  0  0  0  0
   -4.6673   19.6259  -32.6617 H   0  0  0  0  0  0  0  0  0  0  0  0
   -4.0717   19.8502  -34.3723 H   0  0  0  0  0  0  0  0  0  0  0  0
   -6.4897   20.3366  -34.1577 H   0  0  0  0  0  0  0  0  0  0  0  0
   -6.1387   18.9258  -35.2455 H   0  0  0  0  0  0  0  0  0  0  0  0
   -5.3552   19.8090  -31.3955 H   0  0  0  0  0  0  0  0  0  0  0  0
   -4.1894   21.8526  -30.5662 H   0  0  0  0  0  0  0  0  0  0  0  0
   -3.4874   21.9509  -29.3330 H   0  0  0  0  0  0  0  0  0  0  0  0
  1  2  1  0
  2  3  1  0
  3  4  2  0
  3  5  1  0
  5  6  2  0
  6  7  1  0
  7  8  2  0
  8  9  1  0
  8 10  1  0
 10 11  1  0
 11 12  1  0
 12 13  2  0
 12 14  2  0
 12 15  1  0
 15 16  2  0
 16 17  1  0
 17 18  2  0
 18 19  1  0
 19 20  2  0
 19 21  2  0
 19 22  1  0
 22 23  1  0
 23 24  1  0
 24 25  1  0
 25 26  1  0
 26 27  1  0
 18 28  1  0
 28 29  2  0
 10 30  2  0
 30  5  1  0
 29 15  1  0
 27 22  1  0
  1 31  1  0
  1 32  1  0
  1 33  1  0
  6 34  1  0
  7 35  1  0
 11 36  1  0
 16 37  1  0
 17 38  1  0
 23 39  1  0
 23 40  1  0
 24 41  1  0
 24 42  1  0
 26 43  1  0
 26 44  1  0
 27 45  1  0
 27 46  1  0
 28 47  1  0
 29 48  1  0
 30 49  1  0
M  CHG  1   9  -1
M  END
>  <UniqueID>  (1) 
1

>  <SMILES>  (1) 
COC(=O)c1ccc([O-])c(NS(=O)(=O)c2ccc(S(=O)(=O)N3CCOCC3)cc2)c1

>  <Energy>  (1) 
63.09279033747247

>  <Genealogy>  (1) 
COC(=O)c1ccc([O-])c(NS(=O)(=O)c2ccc(S(=O)(=O)N3CCOCC3)cc2)c1 (protonated)
COC(=O)c1ccc([O-])c(NS(=O)(=O)c2ccc(S(=O)(=O)N3CCOCC3)cc2)c1 (3D coordinates assigned)
COC(=O)c1ccc([O-])c(NS(=O)(=O)c2ccc(S(=O)(=O)N3CCOCC3)cc2)c1 (nonaromatic ring conformer: 63.09279033747247 kcal/mol)

>  <smiles>  (1) 
COC(=O)c1ccc(O)c(NS(=O)(=O)c2ccc(S(=O)(=O)N3CCOCC3)cc2)c1

>  <score_type>  (1) 
oracle

>  <origin>  (1) 
adgpu

>  <m_score__min__energy>  (1) 
-13.970000000000001

>  <m_primary>  (1) 
energy

$$$$
1:0
     RDKit          3D

 47 49  0  0  0  0  0  0  0  0999 V2000
   -0.1310   27.2160  -23.8700 C   0  0  0  0  0  0  0  0  0  0  0  0
   -0.3620   27.3160  -25.2720 O   0  0  0  0  0  0  0  0  0  0  0  0
   -1.1770   26.4430  -26.0070 C   0  0  0  0  0  0  0  0  0  0  0  0
   -2.3650   25.9970  -25.4220 C   0  0  0  0  0  0  0  0  0  0  0  0
   -3.2110   25.1260  -26.1090 C   0  0  0  0  0  0  0  0  0  0  0  0
   -2.8770   24.6760  -27.3960 C   0  0  0  0  0  0  0  0  0  0  0  0
   -3.8180   23.7590  -28.1330 C   0  0  0  0  0  0  0  0  0  0  0  0
   -4.8650   24.5500  -28.7820 N   0  0  0  0  0  0  0  0  0  0  0  0
   -4.7800   24.3420  -30.5050 S   0  0  0  0  0  0  0  0  0  0  0  0
   -5.0340   25.6620  -31.1760 O   0  0  0  0  0  0  0  0  0  0  0  0
   -3.4040   23.8720  -30.8910 O   0  0  0  0  0  0  0  0  0  0  0  0
   -5.9890   23.1780  -31.0430 C   0  0  0  0  0  0  0  0  0  0  0  0
   -7.3470   23.4270  -30.8090 C   0  0  0  0  0  0  0  0  0  0  0  0
   -8.3110   22.4960  -31.2030 C   0  0  0  0  0  0  0  0  0  0  0  0
   -7.9280   21.2990  -31.8240 C   0  0  0  0  0  0  0  0  0  0  0  0
   -6.5630   21.0530  -32.0820 C   0  0  0  0  0  0  0  0  0  0  0  0
   -5.6000   21.9880  -31.6700 C   0  0  0  0  0  0  0  0  0  0  0  0
   -6.1170   19.7470  -32.6970 C   0  0  0  0  0  0  0  0  0  0  0  0
   -7.1940   19.0830  -33.4430 N   0  0  0  0  0  0  0  0  0  0  0  0
   -8.4000   18.9560  -32.6140 C   0  0  0  0  0  0  0  0  0  0  0  0
   -8.9880   20.3330  -32.2870 C   0  0  0  0  0  0  0  0  0  0  0  0
   -1.6920   25.1300  -28.0080 C   0  0  0  0  0  0  0  0  0  0  0  0
   -1.3900   24.6930  -29.3090 O   0  0  0  0  0  0  0  0  0  0  0  0
   -0.8470   23.4170  -29.6310 C   0  0  0  0  0  0  0  0  0  0  0  0
   -0.8430   26.0090  -27.3040 C   0  0  0  0  0  0  0  0  0  0  0  0
   -1.0083   27.5958  -23.3258 H   0  0  0  0  0  0  0  0  0  0  0  0
    0.0400   26.1633  -23.6007 H   0  0  0  0  0  0  0  0  0  0  0  0
    0.7537   27.8117  -23.6007 H   0  0  0  0  0  0  0  0  0  0  0  0
   -2.6355   26.3356  -24.4110 H   0  0  0  0  0  0  0  0  0  0  0  0
   -4.1467   24.7894  -25.6387 H   0  0  0  0  0  0  0  0  0  0  0  0
   -3.2590   23.1959  -28.8949 H   0  0  0  0  0  0  0  0  0  0  0  0
   -4.2777   23.0577  -27.4211 H   0  0  0  0  0  0  0  0  0  0  0  0
   -5.7940   24.1740  -28.4770 H   0  0  0  0  0  0  0  0  0  0  0  0
   -7.6557   24.3591  -30.3131 H   0  0  0  0  0  0  0  0  0  0  0  0
   -9.3765   22.7033  -31.0250 H   0  0  0  0  0  0  0  0  0  0  0  0
   -4.5326   21.7843  -31.8410 H   0  0  0  0  0  0  0  0  0  0  0  0
   -5.2822   19.9472  -33.3848 H   0  0  0  0  0  0  0  0  0  0  0  0
   -5.8133   19.0773  -31.8789 H   0  0  0  0  0  0  0  0  0  0  0  0
   -7.4210   19.6540  -34.2920 H   0  0  0  0  0  0  0  0  0  0  0  0
   -9.1505   18.3643  -33.1587 H   0  0  0  0  0  0  0  0  0  0  0  0
   -8.1273   18.4582  -31.6718 H   0  0  0  0  0  0  0  0  0  0  0  0
   -9.4691   20.7381  -33.1895 H   0  0  0  0  0  0  0  0  0  0  0  0
   -9.7165   20.2088  -31.4723 H   0  0  0  0  0  0  0  0  0  0  0  0
   -0.6153   22.8725  -28.7037 H   0  0  0  0  0  0  0  0  0  0  0  0
   -1.5795   22.8446  -30.2190 H   0  0  0  0  0  0  0  0  0  0  0  0
    0.0734   23.5480  -30.2190 H   0  0  0  0  0  0  0  0  0  0  0  0
    0.0887   26.3587  -27.7726 H   0  0  0  0  0  0  0  0  0  0  0  0
  1  2  1  0
  2  3  1  0
  3  4  2  0
  4  5  1  0
  5  6  2  0
  6  7  1  0
  7  8  1  0
  8  9  1  0
  9 10  2  0
  9 11  2  0
  9 12  1  0
 12 13  2  0
 13 14  1  0
 14 15  2  0
 15 16  1  0
 16 17  2  0
 16 18  1  0
 18 19  1  0
 19 20  1  0
 20 21  1  0
  6 22  1  0
 22 23  1  0
 23 24  1  0
 22 25  2  0
 25  3  1  0
 17 12  1  0
 21 15  1  0
  1 26  1  0
  1 27  1  0
  1 28  1  0
  4 29  1  0
  5 30  1  0
  7 31  1  0
  7 32  1  0
  8 33  1  0
 13 34  1  0
 14 35  1  0
 17 36  1  0
 18 37  1  0
 18 38  1  0
 19 39  1  0
 20 40  1  0
 20 41  1  0
 21 42  1  0
 21 43  1  0
 24 44  1  0
 24 45  1  0
 24 46  1  0
 25 47  1  0
M  END
>  <UniqueID>  (2) 
2

>  <SMILES>  (2) 
COc1ccc(CNS(=O)(=O)c2ccc3c(c2)CNCC3)c(OC)c1

>  <Energy>  (2) 
46.132450684769985

>  <Genealogy>  (2) 
COc1ccc(CNS(=O)(=O)c2ccc3c(c2)CNCC3)c(OC)c1 (3D coordinates assigned)
COc1ccc(CNS(=O)(=O)c2ccc3c(c2)CNCC3)c(OC)c1 (nonaromatic ring conformer: 46.132450684769985 kcal/mol)

>  <smiles>  (2) 
COc1ccc(CNS(=O)(=O)c2ccc3c(c2)CNCC3)c(OC)c1

>  <score_type>  (2) 
oracle

>  <origin>  (2) 
adgpu

>  <m_score__min__energy>  (2) 
-10.050000000000001

>  <m_primary>  (2) 
energy

$$$$
2:0
     RDKit          3D

 44 46  0  0  0  0  0  0  0  0999 V2000
    2.1260   20.4260  -34.1760 C   0  0  0  0  0  0  0  0  0  0  0  0
    0.7640   21.1470  -35.0640 S   0  0  0  0  0  0  0  0  0  0  0  0
    0.8240   20.7220  -36.5050 O   0  0  0  0  0  0  0  0  0  0  0  0
    0.8540   22.6450  -34.9960 O   0  0  0  0  0  0  0  0  0  0  0  0
   -0.7480   20.6110  -34.3400 C   0  0  0  0  0  0  0  0  0  0  0  0
   -1.5580   21.5120  -33.6360 C   0  0  0  0  0  0  0  0  0  0  0  0
   -2.7760   21.0910  -33.0960 C   0  0  0  0  0  0  0  0  0  0  0  0
   -3.2090   19.7660  -33.2770 C   0  0  0  0  0  0  0  0  0  0  0  0
   -4.4480   19.2870  -32.7330 N   0  0  0  0  0  0  0  0  0  0  0  0
   -5.7560   19.4170  -33.3050 C   0  0  0  0  0  0  0  0  0  0  0  0
   -5.9440   18.9770  -34.4700 O   0  0  0  0  0  0  0  0  0  0  0  0
   -6.8820   20.0820  -32.6020 C   0  0  0  0  0  0  0  0  0  0  0  0
   -8.0740   19.3610  -32.4050 C   0  0  0  0  0  0  0  0  0  0  0  0
   -9.1720   19.9560  -31.7820 C   0  0  0  0  0  0  0  0  0  0  0  0
   -9.1000   21.2820  -31.3560 C   0  0  0  0  0  0  0  0  0  0  0  0
   -7.9320   22.0190  -31.5590 C   0  0  0  0  0  0  0  0  0  0  0  0
   -6.8200   21.4370  -32.1930 C   0  0  0  0  0  0  0  0  0  0  0  0
   -5.6230   22.1990  -32.3950 N   0  0  0  0  0  0  0  0  0  0  0  0
   -5.2470   23.3640  -31.6510 C   0  0  0  0  0  0  0  0  0  0  0  0
   -5.7400   24.4880  -31.9430 O   0  0  0  0  0  0  0  0  0  0  0  0
   -4.2310   23.2600  -30.5870 C   0  0  0  0  0  0  0  0  0  0  0  0
   -3.8790   22.0000  -30.0720 C   0  0  0  0  0  0  0  0  0  0  0  0
   -2.9370   21.8930  -29.0450 C   0  0  0  0  0  0  0  0  0  0  0  0
   -2.3330   23.0410  -28.5270 C   0  0  0  0  0  0  0  0  0  0  0  0
   -2.6580   24.2960  -29.0450 C   0  0  0  0  0  0  0  0  0  0  0  0
   -3.5930   24.4110  -30.0800 C   0  0  0  0  0  0  0  0  0  0  0  0
   -3.8560   25.6650  -30.6180 O   0  0  0  0  0  0  0  0  0  0  0  0
   -2.3880   18.8650  -33.9660 C   0  0  0  0  0  0  0  0  0  0  0  0
   -1.1670   19.2840  -34.5000 C   0  0  0  0  0  0  0  0  0  0  0  0
    1.9492   20.5196  -33.0944 H   0  0  0  0  0  0  0  0  0  0  0  0
    2.2154   19.3625  -34.4422 H   0  0  0  0  0  0  0  0  0  0  0  0
    3.0558   20.9500  -34.4422 H   0  0  0  0  0  0  0  0  0  0  0  0
   -1.2336   22.5552  -33.5079 H   0  0  0  0  0  0  0  0  0  0  0  0
   -3.3977   21.7984  -32.5277 H   0  0  0  0  0  0  0  0  0  0  0  0
   -8.1412   18.3172  -32.7456 H   0  0  0  0  0  0  0  0  0  0  0  0
  -10.0952   19.3784  -31.6268 H   0  0  0  0  0  0  0  0  0  0  0  0
   -9.9643   21.7475  -30.8596 H   0  0  0  0  0  0  0  0  0  0  0  0
   -7.8811   23.0642  -31.2200 H   0  0  0  0  0  0  0  0  0  0  0  0
   -4.3480   21.0925  -30.4800 H   0  0  0  0  0  0  0  0  0  0  0  0
   -2.6710   20.9037  -28.6443 H   0  0  0  0  0  0  0  0  0  0  0  0
   -1.6008   22.9562  -27.7105 H   0  0  0  0  0  0  0  0  0  0  0  0
   -2.1774   25.1979  -28.6381 H   0  0  0  0  0  0  0  0  0  0  0  0
   -2.7069   17.8193  -34.0877 H   0  0  0  0  0  0  0  0  0  0  0  0
   -0.5334   18.5705  -35.0472 H   0  0  0  0  0  0  0  0  0  0  0  0
  1  2  1  0
  2  3  2  0
  2  4  2  0
  2  5  1  0
  5  6  2  0
  6  7  1  0
  7  8  2  0
  8  9  1  0
  9 10  1  0
 10 11  2  0
 10 12  1  0
 12 13  2  0
 13 14  1  0
 14 15  2  0
 15 16  1  0
 16 17  2  0
 17 18  1  0
 18 19  1  0
 19 20  2  0
 19 21  1  0
 21 22  2  0
 22 23  1  0
 23 24  2  0
 24 25  1  0
 25 26  2  0
 26 27  1  0
  8 28  1  0
 28 29  2  0
 29  5  1  0
 17 12  1  0
 26 21  1  0
  1 30  1  0
  1 31  1  0
  1 32  1  0
  6 33  1  0
  7 34  1  0
 13 35  1  0
 14 36  1  0
 15 37  1  0
 16 38  1  0
 22 39  1  0
 23 40  1  0
 24 41  1  0
 25 42  1  0
 28 43  1  0
 29 44  1  0
M  CHG  3   9  -1  18  -1  27  -1
M  END
>  <UniqueID>  (3) 
3

>  <SMILES>  (3) 
CS(=O)(=O)c1ccc([N-]C(=O)c2ccccc2[N-]C(=O)c2ccccc2[O-])cc1

>  <Energy>  (3) 
58.111660901268664

>  <Genealogy>  (3) 
CS(=O)(=O)c1ccc([N-]C(=O)c2ccccc2[N-]C(=O)c2ccccc2[O-])cc1 (protonated)
CS(=O)(=O)c1ccc([N-]C(=O)c2ccccc2[N-]C(=O)c2ccccc2[O-])cc1 (3D coordinates assigned)
CS(=O)(=O)c1ccc([N-]C(=O)c2ccccc2[N-]C(=O)c2ccccc2[O-])cc1 (optimized conformer: 58.111660901268664 kcal/mol)

>  <smiles>  (3) 
CS(=O)(=O)c1ccc(NC(=O)c2ccccc2NC(=O)c2ccccc2O)cc1

>  <score_type>  (3) 
oracle

>  <origin>  (3) 
adgpu

>  <m_score__min__energy>  (3) 
-13.15

>  <m_primary>  (3) 
energy

$$$$
3:0
     RDKit          3D

 47 50  0  0  0  0  0  0  0  0999 V2000
    1.2340   19.1910  -27.8490 C   0  0  0  0  0  0  0  0  0  0  0  0
    0.0510   20.0610  -27.7670 N   0  0  0  0  0  0  0  0  0  0  0  0
   -1.1480   19.3330  -28.2180 C   0  0  0  0  0  0  0  0  0  0  0  0
   -2.4000   20.1580  -27.9090 C   0  0  0  0  0  0  0  0  0  0  0  0
   -2.2480   21.5920  -28.3450 C   0  0  0  0  0  0  0  0  0  0  0  0
   -3.3810   22.4160  -28.4080 C   0  0  0  0  0  0  0  0  0  0  0  0
   -3.2760   23.7630  -28.7720 C   0  0  0  0  0  0  0  0  0  0  0  0
   -4.4900   24.5310  -28.8370 N   0  0  0  0  0  0  0  0  0  0  0  0
   -5.4650   24.8250  -30.2410 S   0  0  0  0  0  0  0  0  0  0  0  0
   -4.6930   25.6730  -31.2130 O   0  0  0  0  0  0  0  0  0  0  0  0
   -6.7060   25.5630  -29.8270 O   0  0  0  0  0  0  0  0  0  0  0  0
   -5.9490   23.3020  -30.9830 C   0  0  0  0  0  0  0  0  0  0  0  0
   -4.9920   22.5080  -31.6500 C   0  0  0  0  0  0  0  0  0  0  0  0
   -5.3670   21.2940  -32.2460 C   0  0  0  0  0  0  0  0  0  0  0  0
   -6.7030   20.8970  -32.1570 C   0  0  0  0  0  0  0  0  0  0  0  0
   -7.6340   21.6620  -31.5120 C   0  0  0  0  0  0  0  0  0  0  0  0
   -7.2870   22.8730  -30.9110 C   0  0  0  0  0  0  0  0  0  0  0  0
   -8.9740   21.0150  -31.5680 C   0  0  0  0  0  0  0  0  0  0  0  0
   -8.7060   19.7000  -32.3430 C   0  0  0  0  0  0  0  0  0  0  0  0
   -7.2820   19.7170  -32.6770 N   0  0  0  0  0  0  0  0  0  0  0  0
   -6.5740   18.6550  -33.3840 C   0  0  0  0  0  0  0  0  0  0  0  0
   -2.0000   24.3050  -29.0380 C   0  0  0  0  0  0  0  0  0  0  0  0
   -1.8270   25.6480  -29.3430 O   0  0  0  0  0  0  0  0  0  0  0  0
   -0.8670   23.4880  -28.9700 C   0  0  0  0  0  0  0  0  0  0  0  0
   -0.9770   22.1390  -28.6090 C   0  0  0  0  0  0  0  0  0  0  0  0
    0.2540   21.2640  -28.5990 C   0  0  0  0  0  0  0  0  0  0  0  0
    1.5755   18.9398  -26.8340 H   0  0  0  0  0  0  0  0  0  0  0  0
    0.9735   18.2677  -28.3872 H   0  0  0  0  0  0  0  0  0  0  0  0
    2.0378   19.7148  -28.3872 H   0  0  0  0  0  0  0  0  0  0  0  0
   -1.0835   19.1586  -29.3022 H   0  0  0  0  0  0  0  0  0  0  0  0
   -1.2081   18.3691  -27.6915 H   0  0  0  0  0  0  0  0  0  0  0  0
   -3.2575   19.7147  -28.4365 H   0  0  0  0  0  0  0  0  0  0  0  0
   -2.5561   20.1469  -26.8202 H   0  0  0  0  0  0  0  0  0  0  0  0
   -4.3689   21.9964  -28.1672 H   0  0  0  0  0  0  0  0  0  0  0  0
   -3.9455   22.8427  -31.7031 H   0  0  0  0  0  0  0  0  0  0  0  0
   -4.6273   20.6709  -32.7700 H   0  0  0  0  0  0  0  0  0  0  0  0
   -8.0439   23.4794  -30.3919 H   0  0  0  0  0  0  0  0  0  0  0  0
   -9.3525   20.8056  -30.5566 H   0  0  0  0  0  0  0  0  0  0  0  0
   -9.7365   21.6474  -32.0462 H   0  0  0  0  0  0  0  0  0  0  0  0
   -8.9413   18.8295  -31.7131 H   0  0  0  0  0  0  0  0  0  0  0  0
   -9.3323   19.6266  -33.2443 H   0  0  0  0  0  0  0  0  0  0  0  0
   -6.1173   17.9700  -32.6545 H   0  0  0  0  0  0  0  0  0  0  0  0
   -7.2828   18.0990  -34.0153 H   0  0  0  0  0  0  0  0  0  0  0  0
   -5.7882   19.0954  -34.0153 H   0  0  0  0  0  0  0  0  0  0  0  0
    0.1220   23.9096  -29.2027 H   0  0  0  0  0  0  0  0  0  0  0  0
    0.4807   20.9528  -29.6294 H   0  0  0  0  0  0  0  0  0  0  0  0
    1.0877   21.8427  -28.1746 H   0  0  0  0  0  0  0  0  0  0  0  0
  1  2  1  0
  2  3  1  0
  3  4  1  0
  4  5  1  0
  5  6  2  0
  6  7  1  0
  7  8  1  0
  8  9  1  0
  9 10  2  0
  9 11  2  0
  9 12  1  0
 12 13  2  0
 13 14  1  0
 14 15  2  0
 15 16  1  0
 16 17  2  0
 16 18  1  0
 18 19  1  0
 19 20  1  0
 20 21  1  0
  7 22  2  0
 22 23  1  0
 22 24  1  0
 24 25  2  0
 25 26  1  0
 26  2  1  0
 25  5  1  0
 17 12  1  0
 20 15  1  0
  1 27  1  0
  1 28  1  0
  1 29  1  0
  3 30  1  0
  3 31  1  0
  4 32  1  0
  4 33  1  0
  6 34  1  0
 13 35  1  0
 14 36  1  0
 17 37  1  0
 18 38  1  0
 18 39  1  0
 19 40  1  0
 19 41  1  0
 21 42  1  0
 21 43  1  0
 21 44  1  0
 24 45  1  0
 26 46  1  0
 26 47  1  0
M  CHG  2   8  -1  23  -1
M  END
>  <UniqueID>  (4) 
4

>  <SMILES>  (4) 
CN1CCc2cc([N-]S(=O)(=O)c3ccc4c(c3)CCN4C)c([O-])cc2C1

>  <Energy>  (4) 
70.46924587440063

>  <Genealogy>  (4) 
CN1CCc2cc([N-]S(=O)(=O)c3ccc4c(c3)CCN4C)c([O-])cc2C1 (protonated)
CN1CCc2cc([N-]S(=O)(=O)c3ccc4c(c3)CCN4C)c([O-])cc2C1 (3D coordinates assigned)
CN1CCc2cc([N-]S(=O)(=O)c3ccc4c(c3)CCN4C)c([O-])cc2C1 (nonaromatic ring conformer: 70.46924587440063 kcal/mol)

>  <smiles>  (4) 
CN1CCc2cc(NS(=O)(=O)c3ccc4c(c3)CCN4C)c(O)cc2C1

>  <score_type>  (4) 
oracle

>  <origin>  (4) 
adgpu

>  <m_score__min__energy>  (4) 
-13.390000000000001

>  <m_primary>  (4) 
energy

$$$$
4:0
     RDKit          3D

 61 65  0  0  0  0  0  0  0  0999 V2000
   -6.1000   17.1030  -31.0240 C   0  0  0  0  0  0  0  0  0  0  0  0
   -5.6870   17.6510  -32.4070 C   0  0  0  0  0  0  0  0  0  0  0  0
   -4.4970   16.8240  -32.9320 C   0  0  0  0  0  0  0  0  0  0  0  0
   -6.8860   17.5280  -33.4050 C   0  0  0  0  0  0  0  0  0  0  0  0
   -7.9750   18.4750  -33.1180 N   0  0  0  0  0  0  0  0  0  0  0  0
   -7.7260   19.6180  -32.5540 C   0  0  0  0  0  0  0  0  0  0  0  0
   -8.6410   20.7390  -32.3770 C   0  0  0  0  0  0  0  0  0  0  0  0
   -9.8620   20.7880  -32.6840 O   0  0  0  0  0  0  0  0  0  0  0  0
   -7.8340   21.8020  -31.7870 C   0  0  0  0  0  0  0  0  0  0  0  0
   -8.1760   23.1010  -31.4220 C   0  0  0  0  0  0  0  0  0  0  0  0
   -7.1740   23.9190  -30.8710 C   0  0  0  0  0  0  0  0  0  0  0  0
   -5.8570   23.4300  -30.7000 C   0  0  0  0  0  0  0  0  0  0  0  0
   -4.6330   24.4450  -29.9470 S   0  0  0  0  0  0  0  0  0  0  0  0
   -5.1620   25.0220  -28.6640 O   0  0  0  0  0  0  0  0  0  0  0  0
   -4.2780   25.5630  -30.8870 O   0  0  0  0  0  0  0  0  0  0  0  0
   -3.2390   23.4660  -29.6240 N   0  0  0  0  0  0  0  0  0  0  0  0
   -2.4490   23.5140  -28.4300 C   0  0  0  0  0  0  0  0  0  0  0  0
   -2.3360   24.7320  -27.7500 C   0  0  0  0  0  0  0  0  0  0  0  0
   -1.6060   24.8140  -26.5610 C   0  0  0  0  0  0  0  0  0  0  0  0
   -0.9580   23.6820  -26.0470 C   0  0  0  0  0  0  0  0  0  0  0  0
   -0.0480   23.7830  -24.5350 S   0  0  0  0  0  0  0  0  0  0  0  0
   -0.8450   23.1260  -23.4400 O   0  0  0  0  0  0  0  0  0  0  0  0
    1.2460   23.0330  -24.6840 O   0  0  0  0  0  0  0  0  0  0  0  0
    0.2980   25.4390  -24.0810 N   0  0  0  0  0  0  0  0  0  0  0  0
   -0.9220   26.1810  -23.7170 C   0  0  0  0  0  0  0  0  0  0  0  0
   -1.0950   27.3080  -24.7230 C   0  0  0  0  0  0  0  0  0  0  0  0
    0.2950   27.5410  -25.2610 C   0  0  0  0  0  0  0  0  0  0  0  0
    0.9580   26.1780  -25.1720 C   0  0  0  0  0  0  0  0  0  0  0  0
   -1.0590   22.4640  -26.7340 C   0  0  0  0  0  0  0  0  0  0  0  0
   -1.7930   22.3790  -27.9210 C   0  0  0  0  0  0  0  0  0  0  0  0
   -5.5390   22.1100  -31.0790 C   0  0  0  0  0  0  0  0  0  0  0  0
   -6.5470   21.3170  -31.6240 C   0  0  0  0  0  0  0  0  0  0  0  0
   -6.4440   19.9580  -32.0520 N   0  0  0  0  0  0  0  0  0  0  0  0
   -5.2610   19.1400  -32.2790 C   0  0  0  0  0  0  0  0  0  0  0  0
   -5.6389   17.7148  -30.2346 H   0  0  0  0  0  0  0  0  0  0  0  0
   -7.1949   17.1425  -30.9260 H   0  0  0  0  0  0  0  0  0  0  0  0
   -5.7604   16.0613  -30.9260 H   0  0  0  0  0  0  0  0  0  0  0  0
   -3.9238   16.4257  -32.0818 H   0  0  0  0  0  0  0  0  0  0  0  0
   -4.8715   15.9905  -33.5444 H   0  0  0  0  0  0  0  0  0  0  0  0
   -3.8464   17.4656  -33.5444 H   0  0  0  0  0  0  0  0  0  0  0  0
   -6.5153   17.7188  -34.4229 H   0  0  0  0  0  0  0  0  0  0  0  0
   -7.2974   16.5133  -33.3001 H   0  0  0  0  0  0  0  0  0  0  0  0
   -8.9310   18.2750  -33.4910 H   0  0  0  0  0  0  0  0  0  0  0  0
   -9.2005   23.4767  -31.5606 H   0  0  0  0  0  0  0  0  0  0  0  0
   -7.4160   24.9489  -30.5699 H   0  0  0  0  0  0  0  0  0  0  0  0
   -2.8250   25.6307  -28.1540 H   0  0  0  0  0  0  0  0  0  0  0  0
   -1.5395   25.7724  -26.0253 H   0  0  0  0  0  0  0  0  0  0  0  0
    0.9400   25.4090  -23.2520 H   0  0  0  0  0  0  0  0  0  0  0  0
   -1.7931   25.5102  -23.7524 H   0  0  0  0  0  0  0  0  0  0  0  0
   -0.8377   26.5845  -22.6971 H   0  0  0  0  0  0  0  0  0  0  0  0
   -1.7804   27.0090  -25.5297 H   0  0  0  0  0  0  0  0  0  0  0  0
   -1.5290   28.2124  -24.2717 H   0  0  0  0  0  0  0  0  0  0  0  0
    0.2571   27.8898  -26.3035 H   0  0  0  0  0  0  0  0  0  0  0  0
    0.8411   28.3143  -24.7008 H   0  0  0  0  0  0  0  0  0  0  0  0
    0.8345   25.6368  -26.1216 H   0  0  0  0  0  0  0  0  0  0  0  0
    2.0354   26.2815  -24.9757 H   0  0  0  0  0  0  0  0  0  0  0  0
   -0.5575   21.5693  -26.3365 H   0  0  0  0  0  0  0  0  0  0  0  0
   -1.8575   21.4214  -28.4584 H   0  0  0  0  0  0  0  0  0  0  0  0
   -4.5205   21.7157  -30.9478 H   0  0  0  0  0  0  0  0  0  0  0  0
   -4.7636   19.4615  -33.2060 H   0  0  0  0  0  0  0  0  0  0  0  0
   -4.5649   19.2543  -31.4350 H   0  0  0  0  0  0  0  0  0  0  0  0
  1  2  1  0
  2  3  1  0
  2  4  1  0
  4  5  1  0
  5  6  2  0
  6  7  1  0
  7  8  2  0
  7  9  1  0
  9 10  2  0
 10 11  1  0
 11 12  2  0
 12 13  1  0
 13 14  2  0
 13 15  2  0
 13 16  1  0
 16 17  1  0
 17 18  2  0
 18 19  1  0
 19 20  2  0
 20 21  1  0
 21 22  2  0
 21 23  2  0
 21 24  1  0
 24 25  1  0
 25 26  1  0
 26 27  1  0
 27 28  1  0
 20 29  1  0
 29 30  2  0
 12 31  1  0
 31 32  2  0
 32 33  1  0
 33 34  1  0
 34  2  1  0
 33  6  1  0
 32  9  1  0
 30 17  1  0
 28 24  1  0
  1 35  1  0
  1 36  1  0
  1 37  1  0
  3 38  1  0
  3 39  1  0
  3 40  1  0
  4 41  1  0
  4 42  1  0
  5 43  1  0
 10 44  1  0
 11 45  1  0
 18 46  1  0
 19 47  1  0
 24 48  1  0
 25 49  1  0
 25 50  1  0
 26 51  1  0
 26 52  1  0
 27 53  1  0
 27 54  1  0
 28 55  1  0
 28 56  1  0
 29 57  1  0
 30 58  1  0
 31 59  1  0
 34 60  1  0
 34 61  1  0
M  CHG  3   5   1  16  -1  24   1
M  END
>  <UniqueID>  (5) 
5

>  <SMILES>  (5) 
CC1(C)C[NH+]=C2C(=O)c3ccc(S(=O)(=O)[N-]c4ccc(S(=O)(=O)[NH+]5CCCC5)cc4)cc3N2C1

>  <Energy>  (5) 
102.40455633546998

>  <Genealogy>  (5) 
CC1(C)C[NH+]=C2C(=O)c3ccc(S(=O)(=O)[N-]c4ccc(S(=O)(=O)[NH+]5CCCC5)cc4)cc3N2C1 (protonated)
CC1(C)C[NH+]=C2C(=O)c3ccc(S(=O)(=O)[N-]c4ccc(S(=O)(=O)[NH+]5CCCC5)cc4)cc3N2C1 (3D coordinates assigned)
CC1(C)C[NH+]=C2C(=O)c3ccc(S(=O)(=O)[N-]c4ccc(S(=O)(=O)[NH+]5CCCC5)cc4)cc3N2C1 (nonaromatic ring conformer: 102.40455633546998 kcal/mol)

>  <smiles>  (5) 
CC1(C)CN=C2C(=O)c3ccc(S(=O)(=O)Nc4ccc(S(=O)(=O)N5CCCC5)cc4)cc3N2C1

>  <score_type>  (5) 
oracle

>  <origin>  (5) 
adgpu

>  <m_score__min__energy>  (5) 
-12.359999999999999

>  <m_primary>  (5) 
energy

$$$$
5:0
     RDKit          3D

 63 67  0  0  0  0  0  0  0  0999 V2000
   -4.6500   14.6110  -31.9040 C   0  0  0  0  0  0  0  0  0  0  0  0
   -4.4780   14.4100  -33.3550 N   0  0  0  0  0  0  0  0  0  0  0  0
   -3.6470   15.4700  -33.9770 C   0  0  0  0  0  0  0  0  0  0  0  0
   -4.4750   16.6050  -34.6080 C   0  0  0  0  0  0  0  0  0  0  0  0
   -5.7740   16.7140  -33.9300 N   0  0  0  0  0  0  0  0  0  0  0  0
   -6.4900   17.9770  -34.2160 C   0  0  0  0  0  0  0  0  0  0  0  0
   -6.0570   19.1400  -33.3470 C   0  0  0  0  0  0  0  0  0  0  0  0
   -4.9820   19.0040  -32.4550 C   0  0  0  0  0  0  0  0  0  0  0  0
   -4.6090   20.0420  -31.6620 N   0  0  0  0  0  0  0  0  0  0  0  0
   -5.2450   21.2410  -31.7090 C   0  0  0  0  0  0  0  0  0  0  0  0
   -4.8300   22.2860  -30.8800 C   0  0  0  0  0  0  0  0  0  0  0  0
   -5.4460   23.5440  -30.9650 C   0  0  0  0  0  0  0  0  0  0  0  0
   -4.8100   24.8890  -30.0170 S   0  0  0  0  0  0  0  0  0  0  0  0
   -5.3270   26.1860  -30.5720 O   0  0  0  0  0  0  0  0  0  0  0  0
   -5.2530   24.7590  -28.5840 O   0  0  0  0  0  0  0  0  0  0  0  0
   -3.0770   24.8920  -30.0920 N   0  0  0  0  0  0  0  0  0  0  0  0
   -2.3110   24.5720  -28.9320 C   0  0  0  0  0  0  0  0  0  0  0  0
   -2.4590   23.3220  -28.3170 C   0  0  0  0  0  0  0  0  0  0  0  0
   -1.7770   23.0300  -27.1280 C   0  0  0  0  0  0  0  0  0  0  0  0
   -0.9510   24.0120  -26.5400 C   0  0  0  0  0  0  0  0  0  0  0  0
   -0.7800   25.2490  -27.1820 C   0  0  0  0  0  0  0  0  0  0  0  0
   -1.4650   25.5330  -28.3660 C   0  0  0  0  0  0  0  0  0  0  0  0
   -1.3130   26.7780  -28.9690 O   0  0  0  0  0  0  0  0  0  0  0  0
   -0.1740   23.7130  -25.2790 C   0  0  0  0  0  0  0  0  0  0  0  0
   -0.7680   22.5910  -24.5240 N   0  0  0  0  0  0  0  0  0  0  0  0
    0.0780   22.2530  -23.3720 C   0  0  0  0  0  0  0  0  0  0  0  0
   -0.9300   21.4170  -25.3990 C   0  0  0  0  0  0  0  0  0  0  0  0
   -2.0100   21.7070  -26.4450 C   0  0  0  0  0  0  0  0  0  0  0  0
   -6.5070   23.7370  -31.8610 C   0  0  0  0  0  0  0  0  0  0  0  0
   -6.9470   22.6870  -32.6730 C   0  0  0  0  0  0  0  0  0  0  0  0
   -6.3150   21.4370  -32.6070 C   0  0  0  0  0  0  0  0  0  0  0  0
   -6.7140   20.3760  -33.4280 C   0  0  0  0  0  0  0  0  0  0  0  0
   -6.5990   15.5110  -34.1510 C   0  0  0  0  0  0  0  0  0  0  0  0
   -5.7680   14.2140  -34.0480 C   0  0  0  0  0  0  0  0  0  0  0  0
   -4.0294   13.8858  -31.3573 H   0  0  0  0  0  0  0  0  0  0  0  0
   -4.3420   15.6325  -31.6363 H   0  0  0  0  0  0  0  0  0  0  0  0
   -5.7068   14.4646  -31.6363 H   0  0  0  0  0  0  0  0  0  0  0  0
   -2.9962   15.9022  -33.2026 H   0  0  0  0  0  0  0  0  0  0  0  0
   -3.0721   14.9982  -34.7875 H   0  0  0  0  0  0  0  0  0  0  0  0
   -3.9294   17.5547  -34.5055 H   0  0  0  0  0  0  0  0  0  0  0  0
   -4.6401   16.3835  -35.6728 H   0  0  0  0  0  0  0  0  0  0  0  0
   -6.3115   18.2455  -35.2677 H   0  0  0  0  0  0  0  0  0  0  0  0
   -7.5534   17.7964  -34.0001 H   0  0  0  0  0  0  0  0  0  0  0  0
   -4.4375   18.0499  -32.3976 H   0  0  0  0  0  0  0  0  0  0  0  0
   -4.0169   22.1221  -30.1575 H   0  0  0  0  0  0  0  0  0  0  0  0
   -3.1151   22.5644  -28.7705 H   0  0  0  0  0  0  0  0  0  0  0  0
   -0.1020   25.9996  -26.7497 H   0  0  0  0  0  0  0  0  0  0  0  0
    0.8596   23.4523  -25.5506 H   0  0  0  0  0  0  0  0  0  0  0  0
   -0.2000   24.6080  -24.6400 H   0  0  0  0  0  0  0  0  0  0  0  0
   -0.4662   22.4704  -22.4411 H   0  0  0  0  0  0  0  0  0  0  0  0
    0.3337   21.1837  -23.4060 H   0  0  0  0  0  0  0  0  0  0  0  0
    1.0001   22.8518  -23.4060 H   0  0  0  0  0  0  0  0  0  0  0  0
    0.0228   21.2023  -25.9051 H   0  0  0  0  0  0  0  0  0  0  0  0
   -1.2277   20.5471  -24.7951 H   0  0  0  0  0  0  0  0  0  0  0  0
   -1.9992   20.9079  -27.2008 H   0  0  0  0  0  0  0  0  0  0  0  0
   -2.9829   21.7495  -25.9336 H   0  0  0  0  0  0  0  0  0  0  0  0
   -6.9962   24.7201  -31.9256 H   0  0  0  0  0  0  0  0  0  0  0  0
   -7.7891   22.8416  -33.3637 H   0  0  0  0  0  0  0  0  0  0  0  0
   -7.5437   20.5119  -34.1373 H   0  0  0  0  0  0  0  0  0  0  0  0
   -7.3965   15.4831  -33.3939 H   0  0  0  0  0  0  0  0  0  0  0  0
   -7.0172   15.5673  -35.1669 H   0  0  0  0  0  0  0  0  0  0  0  0
   -6.3535   13.4653  -33.4942 H   0  0  0  0  0  0  0  0  0  0  0  0
   -5.5446   13.8834  -35.0731 H   0  0  0  0  0  0  0  0  0  0  0  0
  1  2  1  0
  2  3  1  0
  3  4  1  0
  4  5  1  0
  5  6  1  0
  6  7  1  0
  7  8  2  0
  8  9  1  0
  9 10  2  0
 10 11  1  0
 11 12  2  0
 12 13  1  0
 13 14  2  0
 13 15  2  0
 13 16  1  0
 16 17  1  0
 17 18  2  0
 18 19  1  0
 19 20  2  0
 20 21  1  0
 21 22  2  0
 22 23  1  0
 20 24  1  0
 24 25  1  0
 25 26  1  0
 25 27  1  0
 27 28  1  0
 12 29  1  0
 29 30  2  0
 30 31  1  0
 31 32  2  0
  5 33  1  0
 33 34  1  0
 34  2  1  0
 32  7  1  0
 31 10  1  0
 22 17  1  0
 28 19  1  0
  1 35  1  0
  1 36  1  0
  1 37  1  0
  3 38  1  0
  3 39  1  0
  4 40  1  0
  4 41  1  0
  6 42  1  0
  6 43  1  0
  8 44  1  0
 11 45  1  0
 18 46  1  0
 21 47  1  0
 24 48  1  0
 24 49  1  0
 26 50  1  0
 26 51  1  0
 26 52  1  0
 27 53  1  0
 27 54  1  0
 28 55  1  0
 28 56  1  0
 29 57  1  0
 30 58  1  0
 32 59  1  0
 33 60  1  0
 33 61  1  0
 34 62  1  0
 34 63  1  0
M  CHG  2  16  -1  23  -1
M  END
>  <UniqueID>  (6) 
6

>  <SMILES>  (6) 
CN1CCN(Cc2cnc3cc(S(=O)(=O)[N-]c4cc5c(cc4[O-])CN(C)CC5)ccc3c2)CC1

>  <Energy>  (6) 
94.06575063910084

>  <Genealogy>  (6) 
CN1CCN(Cc2cnc3cc(S(=O)(=O)[N-]c4cc5c(cc4[O-])CN(C)CC5)ccc3c2)CC1 (protonated)
CN1CCN(Cc2cnc3cc(S(=O)(=O)[N-]c4cc5c(cc4[O-])CN(C)CC5)ccc3c2)CC1 (3D coordinates assigned)
CN1CCN(Cc2cnc3cc(S(=O)(=O)[N-]c4cc5c(cc4[O-])CN(C)CC5)ccc3c2)CC1 (nonaromatic ring conformer: 94.06575063910084 kcal/mol)

>  <smiles>  (6) 
CN1CCN(Cc2cnc3cc(S(=O)(=O)Nc4cc5c(cc4O)CN(C)CC5)ccc3c2)CC1

>  <score_type>  (6) 
oracle

>  <origin>  (6) 
adgpu

>  <m_score__min__energy>  (6) 
-14.43

>  <m_primary>  (6) 
energy

$$$$
6:0
     RDKit          3D

 48 50  0  0  0  0  0  0  0  0999 V2000
   -8.1910   20.1240  -32.6810 C   0  0  0  0  0  0  0  0  0  0  0  0
   -7.4670   21.2850  -32.0520 C   0  0  0  0  0  0  0  0  0  0  0  0
   -8.2260   22.2820  -31.4160 C   0  0  0  0  0  0  0  0  0  0  0  0
   -7.6060   23.3760  -30.8130 C   0  0  0  0  0  0  0  0  0  0  0  0
   -6.2140   23.4930  -30.8340 C   0  0  0  0  0  0  0  0  0  0  0  0
   -5.4170   24.8630  -30.0610 S   0  0  0  0  0  0  0  0  0  0  0  0
   -4.2010   25.2360  -30.8620 O   0  0  0  0  0  0  0  0  0  0  0  0
   -6.3420   26.0480  -30.0220 O   0  0  0  0  0  0  0  0  0  0  0  0
   -4.9330   24.4470  -28.4450 N   0  0  0  0  0  0  0  0  0  0  0  0
   -4.2640   23.1460  -28.4490 C   0  0  0  0  0  0  0  0  0  0  0  0
   -2.7800   23.3430  -28.5190 C   0  0  0  0  0  0  0  0  0  0  0  0
   -1.9050   22.2720  -28.2880 C   0  0  0  0  0  0  0  0  0  0  0  0
   -0.5260   22.4930  -28.3270 C   0  0  0  0  0  0  0  0  0  0  0  0
   -0.0360   23.7730  -28.5870 C   0  0  0  0  0  0  0  0  0  0  0  0
   -0.9360   24.8200  -28.8020 C   0  0  0  0  0  0  0  0  0  0  0  0
   -2.2740   24.5850  -28.7590 N   0  0  0  0  0  0  0  0  0  0  0  0
   -5.4450   22.4980  -31.4440 C   0  0  0  0  0  0  0  0  0  0  0  0
   -6.0520   21.3850  -32.0470 C   0  0  0  0  0  0  0  0  0  0  0  0
   -4.9930   20.1690  -32.8030 S   0  0  0  0  0  0  0  0  0  0  0  0
   -4.9540   18.9610  -31.9090 O   0  0  0  0  0  0  0  0  0  0  0  0
   -5.5800   19.7280  -34.1170 O   0  0  0  0  0  0  0  0  0  0  0  0
   -3.3460   20.7360  -33.0080 N   0  0  0  0  0  0  0  0  0  0  0  0
   -2.6880   20.9490  -31.7100 C   0  0  0  0  0  0  0  0  0  0  0  0
   -1.2170   21.3680  -31.9090 C   0  0  0  0  0  0  0  0  0  0  0  0
   -0.9090   21.5540  -33.2770 O   0  0  0  0  0  0  0  0  0  0  0  0
   -1.1030   20.3390  -33.9770 C   0  0  0  0  0  0  0  0  0  0  0  0
   -2.5520   19.8240  -33.8450 C   0  0  0  0  0  0  0  0  0  0  0  0
   -8.5965   19.4737  -31.8919 H   0  0  0  0  0  0  0  0  0  0  0  0
   -9.0148   20.5003  -33.3053 H   0  0  0  0  0  0  0  0  0  0  0  0
   -7.4906   19.5498  -33.3053 H   0  0  0  0  0  0  0  0  0  0  0  0
   -9.3226   22.1985  -31.3935 H   0  0  0  0  0  0  0  0  0  0  0  0
   -8.2143   24.1485  -30.3198 H   0  0  0  0  0  0  0  0  0  0  0  0
   -4.2400   25.1710  -28.1420 H   0  0  0  0  0  0  0  0  0  0  0  0
   -4.5178   22.6012  -27.5277 H   0  0  0  0  0  0  0  0  0  0  0  0
   -4.5969   22.5672  -29.3231 H   0  0  0  0  0  0  0  0  0  0  0  0
   -2.3005   21.2673  -28.0781 H   0  0  0  0  0  0  0  0  0  0  0  0
    0.1713   21.6602  -28.1532 H   0  0  0  0  0  0  0  0  0  0  0  0
    1.0481   23.9562  -28.6224 H   0  0  0  0  0  0  0  0  0  0  0  0
   -0.5618   25.8341  -29.0060 H   0  0  0  0  0  0  0  0  0  0  0  0
   -4.3487   22.5883  -31.4517 H   0  0  0  0  0  0  0  0  0  0  0  0
   -3.2185   21.7413  -31.1615 H   0  0  0  0  0  0  0  0  0  0  0  0
   -2.7147   20.0083  -31.1404 H   0  0  0  0  0  0  0  0  0  0  0  0
   -1.0386   22.3110  -31.3715 H   0  0  0  0  0  0  0  0  0  0  0  0
   -0.5747   20.5652  -31.5178 H   0  0  0  0  0  0  0  0  0  0  0  0
   -0.8791   20.5022  -35.0415 H   0  0  0  0  0  0  0  0  0  0  0  0
   -0.4318   19.5839  -33.5420 H   0  0  0  0  0  0  0  0  0  0  0  0
   -3.0068   19.7611  -34.8446 H   0  0  0  0  0  0  0  0  0  0  0  0
   -2.5359   18.8302  -33.3738 H   0  0  0  0  0  0  0  0  0  0  0  0
  1  2  1  0
  2  3  2  0
  3  4  1  0
  4  5  2  0
  5  6  1  0
  6  7  2  0
  6  8  2  0
  6  9  1  0
  9 10  1  0
 10 11  1  0
 11 12  2  0
 12 13  1  0
 13 14  2  0
 14 15  1  0
 15 16  2  0
  5 17  1  0
 17 18  2  0
 18 19  1  0
 19 20  2  0
 19 21  2  0
 19 22  1  0
 22 23  1  0
 23 24  1  0
 24 25  1  0
 25 26  1  0
 26 27  1  0
 18  2  1  0
 27 22  1  0
 16 11  1  0
  1 28  1  0
  1 29  1  0
  1 30  1  0
  3 31  1  0
  4 32  1  0
  9 33  1  0
 10 34  1  0
 10 35  1  0
 12 36  1  0
 13 37  1  0
 14 38  1  0
 15 39  1  0
 17 40  1  0
 23 41  1  0
 23 42  1  0
 24 43  1  0
 24 44  1  0
 26 45  1  0
 26 46  1  0
 27 47  1  0
 27 48  1  0
M  END
>  <UniqueID>  (7) 
7

>  <SMILES>  (7) 
Cc1ccc(S(=O)(=O)NCc2ccccn2)cc1S(=O)(=O)N1CCOCC1

>  <Energy>  (7) 
58.27814185246227

>  <Genealogy>  (7) 
Cc1ccc(S(=O)(=O)NCc2ccccn2)cc1S(=O)(=O)N1CCOCC1 (3D coordinates assigned)
Cc1ccc(S(=O)(=O)NCc2ccccn2)cc1S(=O)(=O)N1CCOCC1 (nonaromatic ring conformer: 58.27814185246227 kcal/mol)

>  <smiles>  (7) 
Cc1ccc(S(=O)(=O)NCc2ccccn2)cc1S(=O)(=O)N1CCOCC1

>  <score_type>  (7) 
oracle

>  <origin>  (7) 
adgpu

>  <m_score__min__energy>  (7) 
-9.6400000000000006

>  <m_primary>  (7) 
energy

$$$$
7:0
     RDKit          3D

 44 47  0  0  0  0  0  0  0  0999 V2000
   -4.0650   16.6790  -35.3580 C   0  0  0  0  0  0  0  0  0  0  0  0
   -5.0310   17.4610  -34.5360 C   0  0  0  0  0  0  0  0  0  0  0  0
   -4.7650   18.6850  -34.0310 N   0  0  0  0  0  0  0  0  0  0  0  0
   -5.7860   19.1650  -33.2660 C   0  0  0  0  0  0  0  0  0  0  0  0
   -5.7060   20.5040  -32.6240 C   0  0  0  0  0  0  0  0  0  0  0  0
   -4.5760   21.3150  -32.8410 C   0  0  0  0  0  0  0  0  0  0  0  0
   -4.4780   22.5760  -32.2440 C   0  0  0  0  0  0  0  0  0  0  0  0
   -5.5010   23.0440  -31.4120 C   0  0  0  0  0  0  0  0  0  0  0  0
   -5.3610   24.6350  -30.6700 S   0  0  0  0  0  0  0  0  0  0  0  0
   -6.1010   24.6290  -29.3620 O   0  0  0  0  0  0  0  0  0  0  0  0
   -5.9530   25.6970  -31.5540 O   0  0  0  0  0  0  0  0  0  0  0  0
   -3.6900   24.9990  -30.3770 N   0  0  0  0  0  0  0  0  0  0  0  0
   -2.7800   24.1780  -29.6320 C   0  0  0  0  0  0  0  0  0  0  0  0
   -2.9030   22.7760  -29.5920 C   0  0  0  0  0  0  0  0  0  0  0  0
   -1.9880   21.9990  -28.8660 C   0  0  0  0  0  0  0  0  0  0  0  0
   -0.9550   22.6310  -28.1440 C   0  0  0  0  0  0  0  0  0  0  0  0
   -0.8260   24.0250  -28.1960 C   0  0  0  0  0  0  0  0  0  0  0  0
   -1.7340   24.7930  -28.9290 C   0  0  0  0  0  0  0  0  0  0  0  0
   -1.5860   26.1750  -28.9670 O   0  0  0  0  0  0  0  0  0  0  0  0
    0.0860   21.8110  -27.4160 C   0  0  0  0  0  0  0  0  0  0  0  0
   -0.3970   20.4640  -27.0810 N   0  0  0  0  0  0  0  0  0  0  0  0
   -0.9280   19.7920  -28.2740 C   0  0  0  0  0  0  0  0  0  0  0  0
   -2.1810   20.5050  -28.7940 C   0  0  0  0  0  0  0  0  0  0  0  0
   -6.6280   22.2440  -31.1850 C   0  0  0  0  0  0  0  0  0  0  0  0
   -6.7310   20.9860  -31.7860 C   0  0  0  0  0  0  0  0  0  0  0  0
   -6.8790   18.2980  -33.1560 C   0  0  0  0  0  0  0  0  0  0  0  0
   -6.5350   16.9060  -34.0380 S   0  0  0  0  0  0  0  0  0  0  0  0
   -3.3826   16.1266  -34.6953 H   0  0  0  0  0  0  0  0  0  0  0  0
   -4.6147   15.9685  -35.9928 H   0  0  0  0  0  0  0  0  0  0  0  0
   -3.4845   17.3646  -35.9928 H   0  0  0  0  0  0  0  0  0  0  0  0
   -3.7620   20.9534  -33.4865 H   0  0  0  0  0  0  0  0  0  0  0  0
   -3.5930   23.2024  -32.4293 H   0  0  0  0  0  0  0  0  0  0  0  0
   -3.7242   22.2853  -30.1351 H   0  0  0  0  0  0  0  0  0  0  0  0
   -0.0042   24.5181  -27.6560 H   0  0  0  0  0  0  0  0  0  0  0  0
    0.9749   21.7184  -28.0573 H   0  0  0  0  0  0  0  0  0  0  0  0
    0.3215   22.3273  -26.4737 H   0  0  0  0  0  0  0  0  0  0  0  0
   -1.1570   20.5450  -26.3640 H   0  0  0  0  0  0  0  0  0  0  0  0
   -0.1594   19.7956  -29.0609 H   0  0  0  0  0  0  0  0  0  0  0  0
   -1.1983   18.7605  -28.0040 H   0  0  0  0  0  0  0  0  0  0  0  0
   -2.4132   20.1274  -29.8007 H   0  0  0  0  0  0  0  0  0  0  0  0
   -3.0049   20.3007  -28.0944 H   0  0  0  0  0  0  0  0  0  0  0  0
   -7.4350   22.6069  -30.5315 H   0  0  0  0  0  0  0  0  0  0  0  0
   -7.6212   20.3663  -31.6028 H   0  0  0  0  0  0  0  0  0  0  0  0
   -7.8027   18.4924  -32.5912 H   0  0  0  0  0  0  0  0  0  0  0  0
  1  2  1  0
  2  3  2  0
  3  4  1  0
  4  5  1  0
  5  6  2  0
  6  7  1  0
  7  8  2  0
  8  9  1  0
  9 10  2  0
  9 11  2  0
  9 12  1  0
 12 13  1  0
 13 14  2  0
 14 15  1  0
 15 16  2  0
 16 17  1  0
 17 18  2  0
 18 19  1  0
 16 20  1  0
 20 21  1  0
 21 22  1  0
 22 23  1  0
  8 24  1  0
 24 25  2  0
  4 26  2  0
 26 27  1  0
 27  2  1  0
 25  5  1  0
 18 13  1  0
 23 15  1  0
  1 28  1  0
  1 29  1  0
  1 30  1  0
  6 31  1  0
  7 32  1  0
 14 33  1  0
 17 34  1  0
 20 35  1  0
 20 36  1  0
 21 37  1  0
 22 38  1  0
 22 39  1  0
 23 40  1  0
 23 41  1  0
 24 42  1  0
 25 43  1  0
 26 44  1  0
M  CHG  2  12  -1  19  -1
M  END
>  <UniqueID>  (8) 
8

>  <SMILES>  (8) 
Cc1nc(-c2ccc(S(=O)(=O)[N-]c3cc4c(cc3[O-])CNCC4)cc2)cs1

>  <Energy>  (8) 
83.04252029943359

>  <Genealogy>  (8) 
Cc1nc(-c2ccc(S(=O)(=O)[N-]c3cc4c(cc3[O-])CNCC4)cc2)cs1 (protonated)
Cc1nc(-c2ccc(S(=O)(=O)[N-]c3cc4c(cc3[O-])CNCC4)cc2)cs1 (3D coordinates assigned)
Cc1nc(-c2ccc(S(=O)(=O)[N-]c3cc4c(cc3[O-])CNCC4)cc2)cs1 (nonaromatic ring conformer: 83.04252029943359 kcal/mol)

>  <smiles>  (8) 
Cc1nc(-c2ccc(S(=O)(=O)Nc3cc4c(cc3O)CNCC4)cc2)cs1

>  <score_type>  (8) 
oracle

>  <origin>  (8) 
adgpu

>  <m_score__min__energy>  (8) 
-14.119999999999999

>  <m_primary>  (8) 
energy

$$$$
8:0
     RDKit          3D

 59 62  0  0  0  0  0  0  0  0999 V2000
   -7.1630   18.6320  -32.5500 C   0  0  0  0  0  0  0  0  0  0  0  0
   -8.2600   19.9220  -32.0100 S   0  0  0  0  0  0  0  0  0  0  0  0
   -9.2570   20.2470  -33.0900 O   0  0  0  0  0  0  0  0  0  0  0  0
   -9.0100   19.4650  -30.7840 O   0  0  0  0  0  0  0  0  0  0  0  0
   -7.2990   21.3610  -31.6420 C   0  0  0  0  0  0  0  0  0  0  0  0
   -7.7280   22.2390  -30.6590 C   0  0  0  0  0  0  0  0  0  0  0  0
   -7.0200   23.4300  -30.4110 C   0  0  0  0  0  0  0  0  0  0  0  0
   -5.8580   23.7350  -31.1390 C   0  0  0  0  0  0  0  0  0  0  0  0
   -5.1450   25.0170  -30.9240 C   0  0  0  0  0  0  0  0  0  0  0  0
   -5.7320   26.1110  -31.1420 O   0  0  0  0  0  0  0  0  0  0  0  0
   -3.7930   24.9990  -30.4350 N   0  0  0  0  0  0  0  0  0  0  0  0
   -3.2490   24.0260  -29.5320 C   0  0  0  0  0  0  0  0  0  0  0  0
   -2.9080   22.7320  -29.9620 C   0  0  0  0  0  0  0  0  0  0  0  0
   -2.4690   21.7750  -29.0440 C   0  0  0  0  0  0  0  0  0  0  0  0
   -2.3620   22.0940  -27.6810 C   0  0  0  0  0  0  0  0  0  0  0  0
   -1.9770   21.0380  -26.6840 C   0  0  0  0  0  0  0  0  0  0  0  0
   -0.8920   20.2000  -27.1900 N   0  0  0  0  0  0  0  0  0  0  0  0
   -0.8940   18.5370  -27.1930 S   0  0  0  0  0  0  0  0  0  0  0  0
    0.5160   18.3060  -28.0500 C   0  0  0  0  0  0  0  0  0  0  0  0
    1.0340   17.1700  -28.3810 N   0  0  0  0  0  0  0  0  0  0  0  0
    1.0280   19.5540  -28.3670 C   0  0  0  0  0  0  0  0  0  0  0  0
    0.2240   20.6000  -27.8640 C   0  0  0  0  0  0  0  0  0  0  0  0
    0.5750   22.0090  -28.0710 C   0  0  0  0  0  0  0  0  0  0  0  0
    0.2350   22.5820  -29.1410 O   0  0  0  0  0  0  0  0  0  0  0  0
    1.3370   22.7080  -27.0840 N   0  0  0  0  0  0  0  0  0  0  0  0
    1.5860   24.1460  -27.1710 C   0  0  0  0  0  0  0  0  0  0  0  0
    0.5150   24.9060  -26.4400 C   0  0  0  0  0  0  0  0  0  0  0  0
    0.1500   24.5390  -25.1370 C   0  0  0  0  0  0  0  0  0  0  0  0
   -0.8930   25.2060  -24.4830 C   0  0  0  0  0  0  0  0  0  0  0  0
   -1.5850   26.2340  -25.1300 C   0  0  0  0  0  0  0  0  0  0  0  0
   -1.2360   26.5960  -26.4280 C   0  0  0  0  0  0  0  0  0  0  0  0
   -0.1890   25.9400  -27.0860 C   0  0  0  0  0  0  0  0  0  0  0  0
   -2.6900   23.3900  -27.2530 C   0  0  0  0  0  0  0  0  0  0  0  0
   -3.1390   24.3470  -28.1710 C   0  0  0  0  0  0  0  0  0  0  0  0
   -5.4140   22.8220  -32.1100 C   0  0  0  0  0  0  0  0  0  0  0  0
   -6.1380   21.6540  -32.3680 C   0  0  0  0  0  0  0  0  0  0  0  0
   -6.7326   18.1259  -31.6733 H   0  0  0  0  0  0  0  0  0  0  0  0
   -7.7230   17.9041  -33.1554 H   0  0  0  0  0  0  0  0  0  0  0  0
   -6.3546   19.0677  -33.1554 H   0  0  0  0  0  0  0  0  0  0  0  0
   -8.6265   22.0038  -30.0696 H   0  0  0  0  0  0  0  0  0  0  0  0
   -7.3797   24.1279  -29.6405 H   0  0  0  0  0  0  0  0  0  0  0  0
   -2.9873   22.4714  -31.0277 H   0  0  0  0  0  0  0  0  0  0  0  0
   -2.2055   20.7651  -29.3912 H   0  0  0  0  0  0  0  0  0  0  0  0
   -1.6492   21.5257  -25.7541 H   0  0  0  0  0  0  0  0  0  0  0  0
   -2.8528   20.3983  -26.5003 H   0  0  0  0  0  0  0  0  0  0  0  0
    0.5850   16.2720  -28.1110 H   0  0  0  0  0  0  0  0  0  0  0  0
    1.9520   19.7113  -28.9427 H   0  0  0  0  0  0  0  0  0  0  0  0
    1.7090   22.1720  -26.2660 H   0  0  0  0  0  0  0  0  0  0  0  0
    2.5636   24.3729  -26.7207 H   0  0  0  0  0  0  0  0  0  0  0  0
    1.5795   24.4469  -28.2290 H   0  0  0  0  0  0  0  0  0  0  0  0
    0.6848   23.7243  -24.6268 H   0  0  0  0  0  0  0  0  0  0  0  0
   -1.1687   24.9203  -23.4572 H   0  0  0  0  0  0  0  0  0  0  0  0
   -2.4042   26.7562  -24.6141 H   0  0  0  0  0  0  0  0  0  0  0  0
   -1.7851   27.4008  -26.9387 H   0  0  0  0  0  0  0  0  0  0  0  0
    0.0844   26.2331  -28.1104 H   0  0  0  0  0  0  0  0  0  0  0  0
   -2.5937   23.6553  -26.1898 H   0  0  0  0  0  0  0  0  0  0  0  0
   -3.4068   25.3556  -27.8232 H   0  0  0  0  0  0  0  0  0  0  0  0
   -4.4905   23.0274  -32.6712 H   0  0  0  0  0  0  0  0  0  0  0  0
   -5.7926   20.9594  -33.1479 H   0  0  0  0  0  0  0  0  0  0  0  0
  1  2  1  0
  2  3  2  0
  2  4  2  0
  2  5  1  0
  5  6  2  0
  6  7  1  0
  7  8  2  0
  8  9  1  0
  9 10  2  0
  9 11  1  0
 11 12  1  0
 12 13  2  0
 13 14  1  0
 14 15  2  0
 15 16  1  0
 16 17  1  0
 17 18  1  0
 18 19  1  0
 19 20  2  3
 19 21  1  0
 21 22  2  0
 22 23  1  0
 23 24  2  0
 23 25  1  0
 25 26  1  0
 26 27  1  0
 27 28  2  0
 28 29  1  0
 29 30  2  0
 30 31  1  0
 31 32  2  0
 15 33  1  0
 33 34  2  0
  8 35  1  0
 35 36  2  0
 36  5  1  0
 34 12  1  0
 22 17  1  0
 32 27  1  0
  1 37  1  0
  1 38  1  0
  1 39  1  0
  6 40  1  0
  7 41  1  0
 13 42  1  0
 14 43  1  0
 16 44  1  0
 16 45  1  0
 20 46  1  0
 21 47  1  0
 25 48  1  0
 26 49  1  0
 26 50  1  0
 28 51  1  0
 29 52  1  0
 30 53  1  0
 31 54  1  0
 32 55  1  0
 33 56  1  0
 34 57  1  0
 35 58  1  0
 36 59  1  0
M  CHG  1  11  -1
M  END
>  <UniqueID>  (9) 
9

>  <SMILES>  (9) 
CS(=O)(=O)c1ccc(C(=O)[N-]c2ccc(Cn3sc(=N)cc3C(=O)NCc3ccccc3)cc2)cc1

>  <Energy>  (9) 
101.6871526994489

>  <Genealogy>  (9) 
CS(=O)(=O)c1ccc(C(=O)[N-]c2ccc(Cn3sc(=N)cc3C(=O)NCc3ccccc3)cc2)cc1 (protonated)
CS(=O)(=O)c1ccc(C(=O)[N-]c2ccc(Cn3sc(=N)cc3C(=O)NCc3ccccc3)cc2)cc1 (3D coordinates assigned)
CS(=O)(=O)c1ccc(C(=O)[N-]c2ccc(Cn3sc(=N)cc3C(=O)NCc3ccccc3)cc2)cc1 (optimized conformer: 101.6871526994489 kcal/mol)

>  <smiles>  (9) 
CS(=O)(=O)c1ccc(C(=O)Nc2ccc(Cn3sc(=N)cc3C(=O)NCc3ccccc3)cc2)cc1

>  <score_type>  (9) 
oracle

>  <origin>  (9) 
adgpu

>  <m_score__min__energy>  (9) 
-12.06

>  <m_primary>  (9) 
energy

$$$$
9:0
     RDKit          3D

 63 66  0  0  0  0  0  0  0  0999 V2000
   -9.4560   23.0720  -32.3410 C   0  0  0  0  0  0  0  0  0  0  0  0
   -8.6410   22.7970  -31.2060 O   0  0  0  0  0  0  0  0  0  0  0  0
   -7.3810   23.3720  -30.9720 C   0  0  0  0  0  0  0  0  0  0  0  0
   -7.2330   24.6020  -30.3040 C   0  0  0  0  0  0  0  0  0  0  0  0
   -5.9630   25.1440  -30.0910 C   0  0  0  0  0  0  0  0  0  0  0  0
   -4.8190   24.4590  -30.5300 C   0  0  0  0  0  0  0  0  0  0  0  0
   -3.4990   24.9920  -30.3600 N   0  0  0  0  0  0  0  0  0  0  0  0
   -2.6330   24.8200  -29.2310 C   0  0  0  0  0  0  0  0  0  0  0  0
   -1.7170   25.6520  -28.9900 O   0  0  0  0  0  0  0  0  0  0  0  0
   -2.8850   23.7000  -28.2690 C   0  0  0  0  0  0  0  0  0  0  0  0
   -1.6580   22.9090  -28.0680 N   0  0  0  0  0  0  0  0  0  0  0  0
   -0.8580   23.1360  -26.8870 C   0  0  0  0  0  0  0  0  0  0  0  0
   -1.2130   23.9840  -26.0230 O   0  0  0  0  0  0  0  0  0  0  0  0
    0.4470   22.4190  -26.7110 C   0  0  0  0  0  0  0  0  0  0  0  0
    0.4520   21.1800  -27.4160 O   0  0  0  0  0  0  0  0  0  0  0  0
   -0.1820   21.0270  -28.6490 C   0  0  0  0  0  0  0  0  0  0  0  0
    0.2120   19.9950  -29.5040 C   0  0  0  0  0  0  0  0  0  0  0  0
   -0.3800   19.8600  -30.7600 C   0  0  0  0  0  0  0  0  0  0  0  0
   -1.3790   20.7520  -31.1690 C   0  0  0  0  0  0  0  0  0  0  0  0
   -2.1220   20.5870  -32.7620 S   0  0  0  0  0  0  0  0  0  0  0  0
   -1.0520   20.6540  -33.8170 O   0  0  0  0  0  0  0  0  0  0  0  0
   -3.0690   21.7330  -32.9890 O   0  0  0  0  0  0  0  0  0  0  0  0
   -2.9840   19.0720  -32.9160 N   0  0  0  0  0  0  0  0  0  0  0  0
   -2.6960   18.4450  -34.2240 C   0  0  0  0  0  0  0  0  0  0  0  0
   -3.7350   17.3750  -34.5690 C   0  0  0  0  0  0  0  0  0  0  0  0
   -5.1390   18.0060  -34.7300 C   0  0  0  0  0  0  0  0  0  0  0  0
   -6.2310   16.9730  -34.4240 C   0  0  0  0  0  0  0  0  0  0  0  0
   -5.3090   19.2800  -33.8660 C   0  0  0  0  0  0  0  0  0  0  0  0
   -4.4270   19.2310  -32.6070 C   0  0  0  0  0  0  0  0  0  0  0  0
   -1.7940   21.7720  -30.3010 C   0  0  0  0  0  0  0  0  0  0  0  0
   -1.2150   21.9090  -29.0220 C   0  0  0  0  0  0  0  0  0  0  0  0
   -4.9650   23.2460  -31.2120 C   0  0  0  0  0  0  0  0  0  0  0  0
   -6.2420   22.6930  -31.4320 C   0  0  0  0  0  0  0  0  0  0  0  0
   -6.4190   21.4730  -32.1040 O   0  0  0  0  0  0  0  0  0  0  0  0
   -7.2800   20.4270  -31.6660 C   0  0  0  0  0  0  0  0  0  0  0  0
  -10.4490   23.4071  -32.0068 H   0  0  0  0  0  0  0  0  0  0  0  0
   -8.9871   23.8617  -32.9464 H   0  0  0  0  0  0  0  0  0  0  0  0
   -9.5614   22.1597  -32.9464 H   0  0  0  0  0  0  0  0  0  0  0  0
   -8.1234   25.1403  -29.9471 H   0  0  0  0  0  0  0  0  0  0  0  0
   -5.8591   26.1112  -29.5774 H   0  0  0  0  0  0  0  0  0  0  0  0
   -3.2094   24.1171  -27.3042 H   0  0  0  0  0  0  0  0  0  0  0  0
   -3.6677   23.0457  -28.6805 H   0  0  0  0  0  0  0  0  0  0  0  0
    1.2598   23.0534  -27.0942 H   0  0  0  0  0  0  0  0  0  0  0  0
    0.5897   22.2118  -25.6402 H   0  0  0  0  0  0  0  0  0  0  0  0
    0.9913   19.2868  -29.1860 H   0  0  0  0  0  0  0  0  0  0  0  0
   -0.0608   19.0496  -31.4318 H   0  0  0  0  0  0  0  0  0  0  0  0
   -2.7082   19.2209  -35.0037 H   0  0  0  0  0  0  0  0  0  0  0  0
   -1.7081   17.9644  -34.1685 H   0  0  0  0  0  0  0  0  0  0  0  0
   -3.4493   16.8851  -35.5115 H   0  0  0  0  0  0  0  0  0  0  0  0
   -3.7698   16.6399  -33.7514 H   0  0  0  0  0  0  0  0  0  0  0  0
   -5.2432   18.3207  -35.7789 H   0  0  0  0  0  0  0  0  0  0  0  0
   -6.3417   16.8683  -33.3346 H   0  0  0  0  0  0  0  0  0  0  0  0
   -7.1844   17.3075  -34.8590 H   0  0  0  0  0  0  0  0  0  0  0  0
   -5.9499   16.0025  -34.8590 H   0  0  0  0  0  0  0  0  0  0  0  0
   -5.0273   20.1583  -34.4654 H   0  0  0  0  0  0  0  0  0  0  0  0
   -6.3601   19.3427  -33.5479 H   0  0  0  0  0  0  0  0  0  0  0  0
   -4.5643   20.1672  -32.0461 H   0  0  0  0  0  0  0  0  0  0  0  0
   -4.7371   18.3527  -32.0219 H   0  0  0  0  0  0  0  0  0  0  0  0
   -2.5793   22.4727  -30.6208 H   0  0  0  0  0  0  0  0  0  0  0  0
   -4.0729   22.7183  -31.5805 H   0  0  0  0  0  0  0  0  0  0  0  0
   -7.2990   20.4040  -30.5664 H   0  0  0  0  0  0  0  0  0  0  0  0
   -8.2965   20.6053  -32.0466 H   0  0  0  0  0  0  0  0  0  0  0  0
   -6.9097   19.4637  -32.0466 H   0  0  0  0  0  0  0  0  0  0  0  0
  1  2  1  0
  2  3  1  0
  3  4  2  0
  4  5  1  0
  5  6  2  0
  6  7  1  0
  7  8  1  0
  8  9  2  0
  8 10  1  0
 10 11  1  0
 11 12  1  0
 12 13  2  0
 12 14  1  0
 14 15  1  0
 15 16  1  0
 16 17  2  0
 17 18  1  0
 18 19  2  0
 19 20  1  0
 20 21  2  0
 20 22  2  0
 20 23  1  0
 23 24  1  0
 24 25  1  0
 25 26  1  0
 26 27  1  0
 26 28  1  0
 28 29  1  0
 19 30  1  0
 30 31  2  0
  6 32  1  0
 32 33  2  0
 33 34  1  0
 34 35  1  0
 33  3  1  0
 31 11  1  0
 31 16  1  0
 29 23  1  0
  1 36  1  0
  1 37  1  0
  1 38  1  0
  4 39  1  0
  5 40  1  0
 10 41  1  0
 10 42  1  0
 14 43  1  0
 14 44  1  0
 17 45  1  0
 18 46  1  0
 24 47  1  0
 24 48  1  0
 25 49  1  0
 25 50  1  0
 26 51  1  0
 27 52  1  0
 27 53  1  0
 27 54  1  0
 28 55  1  0
 28 56  1  0
 29 57  1  0
 29 58  1  0
 30 59  1  0
 32 60  1  0
 35 61  1  0
 35 62  1  0
 35 63  1  0
M  CHG  1   7  -1
M  END
>  <UniqueID>  (10) 
10

>  <SMILES>  (10) 
COc1ccc([N-]C(=O)CN2C(=O)COc3ccc(S(=O)(=O)N4CCC(C)CC4)cc32)cc1OC

>  <Energy>  (10) 
74.18245545918317

>  <Genealogy>  (10) 
COc1ccc([N-]C(=O)CN2C(=O)COc3ccc(S(=O)(=O)N4CCC(C)CC4)cc32)cc1OC (protonated)
COc1ccc([N-]C(=O)CN2C(=O)COc3ccc(S(=O)(=O)N4CCC(C)CC4)cc32)cc1OC (3D coordinates assigned)
COc1ccc([N-]C(=O)CN2C(=O)COc3ccc(S(=O)(=O)N4CCC(C)CC4)cc32)cc1OC (nonaromatic ring conformer: 74.18245545918317 kcal/mol)

>  <smiles>  (10) 
COc1ccc(NC(=O)CN2C(=O)COc3ccc(S(=O)(=O)N4CCC(C)CC4)cc32)cc1OC

>  <score_type>  (10) 
oracle

>  <origin>  (10) 
adgpu

>  <m_score__min__energy>  (10) 
-10.539999999999999

>  <m_primary>  (10) 
energy

$$$$
10:0
     RDKit          3D

 56 59  0  0  0  0  0  0  0  0999 V2000
   -2.2620   23.3880  -30.8230 O   0  0  0  0  0  0  0  0  0  0  0  0
   -3.5110   23.7900  -30.0920 S   0  0  0  0  0  0  0  0  0  0  0  0
   -3.8030   25.2330  -30.3950 O   0  0  0  0  0  0  0  0  0  0  0  0
   -4.8810   22.8200  -30.6210 C   0  0  0  0  0  0  0  0  0  0  0  0
   -6.1410   23.4150  -30.7580 C   0  0  0  0  0  0  0  0  0  0  0  0
   -7.2410   22.6510  -31.1580 C   0  0  0  0  0  0  0  0  0  0  0  0
   -7.0900   21.2830  -31.4200 C   0  0  0  0  0  0  0  0  0  0  0  0
   -8.4720   20.2990  -31.8970 S   0  0  0  0  0  0  0  0  0  0  0  0
   -9.0150   19.5590  -30.7050 O   0  0  0  0  0  0  0  0  0  0  0  0
   -9.5470   21.2060  -32.4280 O   0  0  0  0  0  0  0  0  0  0  0  0
   -7.9840   19.1630  -33.1330 N   0  0  0  0  0  0  0  0  0  0  0  0
   -7.6680   17.8570  -32.5150 C   0  0  0  0  0  0  0  0  0  0  0  0
   -6.7660   17.0210  -33.4410 C   0  0  0  0  0  0  0  0  0  0  0  0
   -5.5210   17.6360  -33.7540 O   0  0  0  0  0  0  0  0  0  0  0  0
   -5.5180   19.0450  -33.5790 C   0  0  0  0  0  0  0  0  0  0  0  0
   -6.8620   19.7020  -33.9450 C   0  0  0  0  0  0  0  0  0  0  0  0
   -5.8310   20.6860  -31.2720 C   0  0  0  0  0  0  0  0  0  0  0  0
   -4.7310   21.4500  -30.8750 C   0  0  0  0  0  0  0  0  0  0  0  0
   -3.2730   23.5770  -28.3840 N   0  0  0  0  0  0  0  0  0  0  0  0
   -3.7490   22.3550  -27.7290 C   0  0  0  0  0  0  0  0  0  0  0  0
   -2.7120   21.2720  -27.8470 C   0  0  0  0  0  0  0  0  0  0  0  0
   -2.7490   20.1500  -27.0050 C   0  0  0  0  0  0  0  0  0  0  0  0
   -1.7510   19.1780  -27.0920 C   0  0  0  0  0  0  0  0  0  0  0  0
   -0.7170   19.3400  -28.0170 C   0  0  0  0  0  0  0  0  0  0  0  0
   -0.6860   20.4390  -28.8180 N   0  0  0  0  0  0  0  0  0  0  0  0
   -1.6470   21.4000  -28.7530 C   0  0  0  0  0  0  0  0  0  0  0  0
   -2.5800   24.5820  -27.6280 C   0  0  0  0  0  0  0  0  0  0  0  0
   -3.0450   24.9540  -26.3570 C   0  0  0  0  0  0  0  0  0  0  0  0
   -2.3650   25.9220  -25.6130 C   0  0  0  0  0  0  0  0  0  0  0  0
   -1.2150   26.5220  -26.1320 C   0  0  0  0  0  0  0  0  0  0  0  0
   -0.7420   26.1550  -27.3950 C   0  0  0  0  0  0  0  0  0  0  0  0
   -1.4200   25.1870  -28.1430 C   0  0  0  0  0  0  0  0  0  0  0  0
   -0.9310   24.8180  -29.3540 F   0  0  0  0  0  0  0  0  0  0  0  0
   -6.2657   24.4879  -30.5500 H   0  0  0  0  0  0  0  0  0  0  0  0
   -8.2276   23.1250  -31.2674 H   0  0  0  0  0  0  0  0  0  0  0  0
   -8.8100   19.0320  -33.7640 H   0  0  0  0  0  0  0  0  0  0  0  0
   -7.1481   18.0256  -31.5604 H   0  0  0  0  0  0  0  0  0  0  0  0
   -8.6068   17.3090  -32.3466 H   0  0  0  0  0  0  0  0  0  0  0  0
   -6.5613   16.0597  -32.9471 H   0  0  0  0  0  0  0  0  0  0  0  0
   -7.3089   16.9054  -34.3907 H   0  0  0  0  0  0  0  0  0  0  0  0
   -5.2957   19.2664  -32.5247 H   0  0  0  0  0  0  0  0  0  0  0  0
   -4.7558   19.4580  -34.2561 H   0  0  0  0  0  0  0  0  0  0  0  0
   -6.7866   20.7856  -33.7716 H   0  0  0  0  0  0  0  0  0  0  0  0
   -7.0712   19.4821  -35.0023 H   0  0  0  0  0  0  0  0  0  0  0  0
   -5.7083   19.6108  -31.4693 H   0  0  0  0  0  0  0  0  0  0  0  0
   -3.7452   20.9754  -30.7615 H   0  0  0  0  0  0  0  0  0  0  0  0
   -3.9403   22.5622  -26.6658 H   0  0  0  0  0  0  0  0  0  0  0  0
   -4.6770   22.0216  -28.2164 H   0  0  0  0  0  0  0  0  0  0  0  0
   -3.5649   20.0364  -26.2760 H   0  0  0  0  0  0  0  0  0  0  0  0
   -1.7785   18.2934  -26.4387 H   0  0  0  0  0  0  0  0  0  0  0  0
    0.0726   18.5785  -28.0978 H   0  0  0  0  0  0  0  0  0  0  0  0
   -1.5895   22.2791  -29.4117 H   0  0  0  0  0  0  0  0  0  0  0  0
   -3.9487   24.4815  -25.9447 H   0  0  0  0  0  0  0  0  0  0  0  0
   -2.7353   26.2116  -24.6185 H   0  0  0  0  0  0  0  0  0  0  0  0
   -0.6810   27.2844  -25.5458 H   0  0  0  0  0  0  0  0  0  0  0  0
    0.1643   26.6279  -27.8011 H   0  0  0  0  0  0  0  0  0  0  0  0
  1  2  2  0
  2  3  2  0
  2  4  1  0
  4  5  2  0
  5  6  1  0
  6  7  2  0
  7  8  1  0
  8  9  2  0
  8 10  2  0
  8 11  1  0
 11 12  1  0
 12 13  1  0
 13 14  1  0
 14 15  1  0
 15 16  1  0
  7 17  1  0
 17 18  2  0
  2 19  1  0
 19 20  1  0
 20 21  1  0
 21 22  2  0
 22 23  1  0
 23 24  2  0
 24 25  1  0
 25 26  2  0
 19 27  1  0
 27 28  2  0
 28 29  1  0
 29 30  2  0
 30 31  1  0
 31 32  2  0
 32 33  1  0
 18  4  1  0
 26 21  1  0
 32 27  1  0
 16 11  1  0
  5 34  1  0
  6 35  1  0
 11 36  1  0
 12 37  1  0
 12 38  1  0
 13 39  1  0
 13 40  1  0
 15 41  1  0
 15 42  1  0
 16 43  1  0
 16 44  1  0
 17 45  1  0
 18 46  1  0
 20 47  1  0
 20 48  1  0
 22 49  1  0
 23 50  1  0
 24 51  1  0
 26 52  1  0
 28 53  1  0
 29 54  1  0
 30 55  1  0
 31 56  1  0
M  CHG  1  11   1
M  END
>  <UniqueID>  (11) 
11

>  <SMILES>  (11) 
O=S(=O)(c1ccc(S(=O)(=O)[NH+]2CCOCC2)cc1)N(Cc1cccnc1)c1ccccc1F

>  <Energy>  (11) 
76.46118861969438

>  <Genealogy>  (11) 
O=S(=O)(c1ccc(S(=O)(=O)[NH+]2CCOCC2)cc1)N(Cc1cccnc1)c1ccccc1F (protonated)
O=S(=O)(c1ccc(S(=O)(=O)[NH+]2CCOCC2)cc1)N(Cc1cccnc1)c1ccccc1F (3D coordinates assigned)
O=S(=O)(c1ccc(S(=O)(=O)[NH+]2CCOCC2)cc1)N(Cc1cccnc1)c1ccccc1F (nonaromatic ring conformer: 76.46118861969438 kcal/mol)

>  <smiles>  (11) 
O=S(=O)(c1ccc(S(=O)(=O)N(Cc2cccnc2)c2ccccc2F)cc1)N1CCOCC1

>  <score_type>  (11) 
oracle

>  <origin>  (11) 
adgpu

>  <m_score__min__energy>  (11) 
-9.9199999999999999

>  <m_primary>  (11) 
energy

$$$$
11:0
     RDKit          3D

 51 54  0  0  0  0  0  0  0  0999 V2000
   -0.3890   24.3840  -24.8920 C   0  0  0  0  0  0  0  0  0  0  0  0
    0.3650   23.7400  -25.9830 N   0  0  0  0  0  0  0  0  0  0  0  0
    0.1310   22.2850  -26.0540 C   0  0  0  0  0  0  0  0  0  0  0  0
   -1.3210   21.9400  -26.4190 C   0  0  0  0  0  0  0  0  0  0  0  0
   -1.8530   22.8030  -27.5320 C   0  0  0  0  0  0  0  0  0  0  0  0
   -3.0530   22.4410  -28.1630 C   0  0  0  0  0  0  0  0  0  0  0  0
   -3.6010   23.2320  -29.1800 C   0  0  0  0  0  0  0  0  0  0  0  0
   -4.8100   22.7770  -29.8030 N   0  0  0  0  0  0  0  0  0  0  0  0
   -4.9240   21.8430  -31.2620 S   0  0  0  0  0  0  0  0  0  0  0  0
   -4.0820   20.6110  -31.0970 O   0  0  0  0  0  0  0  0  0  0  0  0
   -4.4270   22.6630  -32.4180 O   0  0  0  0  0  0  0  0  0  0  0  0
   -6.6160   21.3910  -31.5470 C   0  0  0  0  0  0  0  0  0  0  0  0
   -7.6000   22.0140  -30.7610 C   0  0  0  0  0  0  0  0  0  0  0  0
   -8.9520   21.7180  -30.9390 C   0  0  0  0  0  0  0  0  0  0  0  0
   -9.3430   20.7940  -31.9050 C   0  0  0  0  0  0  0  0  0  0  0  0
   -8.3840   20.1700  -32.7020 C   0  0  0  0  0  0  0  0  0  0  0  0
   -7.0170   20.4630  -32.5490 C   0  0  0  0  0  0  0  0  0  0  0  0
   -5.8700   19.6220  -33.6130 S   0  0  0  0  0  0  0  0  0  0  0  0
   -6.4630   19.4720  -34.9850 O   0  0  0  0  0  0  0  0  0  0  0  0
   -4.6130   20.4340  -33.7350 O   0  0  0  0  0  0  0  0  0  0  0  0
   -5.4990   18.0150  -32.9960 C   0  0  0  0  0  0  0  0  0  0  0  0
   -6.0280   17.6000  -31.7660 C   0  0  0  0  0  0  0  0  0  0  0  0
   -5.7500   16.3190  -31.2770 C   0  0  0  0  0  0  0  0  0  0  0  0
   -4.9400   15.4500  -32.0120 C   0  0  0  0  0  0  0  0  0  0  0  0
   -4.4030   15.8600  -33.2370 C   0  0  0  0  0  0  0  0  0  0  0  0
   -3.3910   14.7670  -34.1630 Cl  0  0  0  0  0  0  0  0  0  0  0  0
   -4.6780   17.1430  -33.7260 C   0  0  0  0  0  0  0  0  0  0  0  0
   -2.9620   24.4410  -29.5290 C   0  0  0  0  0  0  0  0  0  0  0  0
   -3.5030   25.3010  -30.4740 O   0  0  0  0  0  0  0  0  0  0  0  0
   -1.7710   24.8090  -28.8950 C   0  0  0  0  0  0  0  0  0  0  0  0
   -1.2150   24.0050  -27.8910 C   0  0  0  0  0  0  0  0  0  0  0  0
    0.1150   24.3900  -27.2840 C   0  0  0  0  0  0  0  0  0  0  0  0
    0.0071   24.0457  -23.9231 H   0  0  0  0  0  0  0  0  0  0  0  0
   -0.2850   25.4763  -24.9694 H   0  0  0  0  0  0  0  0  0  0  0  0
   -1.4516   24.1104  -24.9694 H   0  0  0  0  0  0  0  0  0  0  0  0
    0.7978   21.8572  -26.8172 H   0  0  0  0  0  0  0  0  0  0  0  0
    0.3343   21.8647  -25.0580 H   0  0  0  0  0  0  0  0  0  0  0  0
   -1.3652   20.8876  -26.7360 H   0  0  0  0  0  0  0  0  0  0  0  0
   -1.9424   22.1191  -25.5292 H   0  0  0  0  0  0  0  0  0  0  0  0
   -3.5712   21.5213  -27.8538 H   0  0  0  0  0  0  0  0  0  0  0  0
   -7.3006   22.7447  -29.9952 H   0  0  0  0  0  0  0  0  0  0  0  0
   -9.7099   22.2150  -30.3156 H   0  0  0  0  0  0  0  0  0  0  0  0
  -10.4086   20.5564  -32.0392 H   0  0  0  0  0  0  0  0  0  0  0  0
   -8.7008   19.4389  -33.4604 H   0  0  0  0  0  0  0  0  0  0  0  0
   -6.6635   18.2834  -31.1836 H   0  0  0  0  0  0  0  0  0  0  0  0
   -6.1696   15.9958  -30.3129 H   0  0  0  0  0  0  0  0  0  0  0  0
   -4.7242   14.4424  -31.6272 H   0  0  0  0  0  0  0  0  0  0  0  0
   -4.2489   17.4679  -34.6853 H   0  0  0  0  0  0  0  0  0  0  0  0
   -1.2647   25.7406  -29.1879 H   0  0  0  0  0  0  0  0  0  0  0  0
    0.9154   24.0995  -27.9805 H   0  0  0  0  0  0  0  0  0  0  0  0
    0.0954   25.4761  -27.1107 H   0  0  0  0  0  0  0  0  0  0  0  0
  1  2  1  0
  2  3  1  0
  3  4  1  0
  4  5  1  0
  5  6  2  0
  6  7  1  0
  7  8  1  0
  8  9  1  0
  9 10  2  0
  9 11  2  0
  9 12  1  0
 12 13  2  0
 13 14  1  0
 14 15  2  0
 15 16  1  0
 16 17  2  0
 17 18  1  0
 18 19  2  0
 18 20  2  0
 18 21  1  0
 21 22  2  0
 22 23  1  0
 23 24  2  0
 24 25  1  0
 25 26  1  0
 25 27  2  0
  7 28  2  0
 28 29  1  0
 28 30  1  0
 30 31  2  0
 31 32  1  0
 32  2  1  0
 31  5  1  0
 17 12  1  0
 27 21  1  0
  1 33  1  0
  1 34  1  0
  1 35  1  0
  3 36  1  0
  3 37  1  0
  4 38  1  0
  4 39  1  0
  6 40  1  0
 13 41  1  0
 14 42  1  0
 15 43  1  0
 16 44  1  0
 22 45  1  0
 23 46  1  0
 24 47  1  0
 27 48  1  0
 30 49  1  0
 32 50  1  0
 32 51  1  0
M  CHG  2   8  -1  29  -1
M  END
>  <UniqueID>  (12) 
12

>  <SMILES>  (12) 
CN1CCc2cc([N-]S(=O)(=O)c3ccccc3S(=O)(=O)c3cccc(Cl)c3)c([O-])cc2C1

>  <Energy>  (12) 
73.3353955514742

>  <Genealogy>  (12) 
CN1CCc2cc([N-]S(=O)(=O)c3ccccc3S(=O)(=O)c3cccc(Cl)c3)c([O-])cc2C1 (protonated)
CN1CCc2cc([N-]S(=O)(=O)c3ccccc3S(=O)(=O)c3cccc(Cl)c3)c([O-])cc2C1 (3D coordinates assigned)
CN1CCc2cc([N-]S(=O)(=O)c3ccccc3S(=O)(=O)c3cccc(Cl)c3)c([O-])cc2C1 (nonaromatic ring conformer: 73.3353955514742 kcal/mol)

>  <smiles>  (12) 
CN1CCc2cc(NS(=O)(=O)c3ccccc3S(=O)(=O)c3cccc(Cl)c3)c(O)cc2C1

>  <score_type>  (12) 
oracle

>  <origin>  (12) 
adgpu

>  <m_score__min__energy>  (12) 
-13.9

>  <m_primary>  (12) 
energy

$$$$
12:0
     RDKit          3D

 50 53  0  0  0  0  0  0  0  0999 V2000
   -0.3650   19.7340  -31.9880 C   0  0  0  0  0  0  0  0  0  0  0  0
   -1.3630   20.7710  -31.5420 C   0  0  0  0  0  0  0  0  0  0  0  0
   -0.9220   21.8180  -30.7150 C   0  0  0  0  0  0  0  0  0  0  0  0
   -1.8150   22.7870  -30.2560 C   0  0  0  0  0  0  0  0  0  0  0  0
   -3.1660   22.7220  -30.6060 C   0  0  0  0  0  0  0  0  0  0  0  0
   -4.2940   23.9550  -30.0360 S   0  0  0  0  0  0  0  0  0  0  0  0
   -3.8290   25.3090  -30.4990 O   0  0  0  0  0  0  0  0  0  0  0  0
   -4.3050   23.9560  -28.5330 O   0  0  0  0  0  0  0  0  0  0  0  0
   -5.9130   23.6650  -30.6250 N   0  0  0  0  0  0  0  0  0  0  0  0
   -6.4020   22.3580  -30.1560 C   0  0  0  0  0  0  0  0  0  0  0  0
   -7.9050   22.2090  -30.4600 C   0  0  0  0  0  0  0  0  0  0  0  0
   -8.3590   23.1000  -31.6290 C   0  0  0  0  0  0  0  0  0  0  0  0
   -7.2650   23.2110  -32.6940 C   0  0  0  0  0  0  0  0  0  0  0  0
   -5.9390   23.7400  -32.1010 C   0  0  0  0  0  0  0  0  0  0  0  0
   -3.6210   21.6750  -31.4140 C   0  0  0  0  0  0  0  0  0  0  0  0
   -2.7350   20.6920  -31.8870 C   0  0  0  0  0  0  0  0  0  0  0  0
   -3.3780   19.3850  -32.8970 S   0  0  0  0  0  0  0  0  0  0  0  0
   -2.5430   18.1510  -32.6920 O   0  0  0  0  0  0  0  0  0  0  0  0
   -3.3170   19.7620  -34.3510 O   0  0  0  0  0  0  0  0  0  0  0  0
   -5.0610   19.0770  -32.4840 C   0  0  0  0  0  0  0  0  0  0  0  0
   -5.3790   18.0050  -31.6150 C   0  0  0  0  0  0  0  0  0  0  0  0
   -6.7180   17.7260  -31.2830 C   0  0  0  0  0  0  0  0  0  0  0  0
   -7.7070   18.5370  -31.8350 C   0  0  0  0  0  0  0  0  0  0  0  0
   -9.0350   18.4440  -31.6530 N   0  0  0  0  0  0  0  0  0  0  0  0
   -9.5790   19.4410  -32.3880 C   0  0  0  0  0  0  0  0  0  0  0  0
   -8.5900   20.1700  -33.0410 C   0  0  0  0  0  0  0  0  0  0  0  0
   -7.4020   19.5750  -32.6720 C   0  0  0  0  0  0  0  0  0  0  0  0
   -6.0890   19.8800  -33.0220 C   0  0  0  0  0  0  0  0  0  0  0  0
    0.0907   19.2605  -31.1059 H   0  0  0  0  0  0  0  0  0  0  0  0
   -0.8757   18.9694  -32.5918 H   0  0  0  0  0  0  0  0  0  0  0  0
    0.4186   20.2150  -32.5918 H   0  0  0  0  0  0  0  0  0  0  0  0
    0.1380   21.8743  -30.4265 H   0  0  0  0  0  0  0  0  0  0  0  0
   -1.4538   23.6054  -29.6159 H   0  0  0  0  0  0  0  0  0  0  0  0
   -5.8472   21.5580  -30.6680 H   0  0  0  0  0  0  0  0  0  0  0  0
   -6.2480   22.2874  -29.0691 H   0  0  0  0  0  0  0  0  0  0  0  0
   -8.1112   21.1591  -30.7155 H   0  0  0  0  0  0  0  0  0  0  0  0
   -8.4607   22.5229  -29.5641 H   0  0  0  0  0  0  0  0  0  0  0  0
   -9.2606   22.6640  -32.0841 H   0  0  0  0  0  0  0  0  0  0  0  0
   -8.5710   24.1066  -31.2394 H   0  0  0  0  0  0  0  0  0  0  0  0
   -7.0889   22.2160  -33.1287 H   0  0  0  0  0  0  0  0  0  0  0  0
   -7.6049   23.9226  -33.4608 H   0  0  0  0  0  0  0  0  0  0  0  0
   -5.1087   23.1388  -32.5001 H   0  0  0  0  0  0  0  0  0  0  0  0
   -5.8428   24.7983  -32.3851 H   0  0  0  0  0  0  0  0  0  0  0  0
   -4.6863   21.6202  -31.6828 H   0  0  0  0  0  0  0  0  0  0  0  0
   -4.5727   17.3851  -31.1959 H   0  0  0  0  0  0  0  0  0  0  0  0
   -6.9751   16.8949  -30.6098 H   0  0  0  0  0  0  0  0  0  0  0  0
   -9.5460   17.7480  -31.0660 H   0  0  0  0  0  0  0  0  0  0  0  0
  -10.6571   19.6474  -32.4597 H   0  0  0  0  0  0  0  0  0  0  0  0
   -8.7263   21.0343  -33.7076 H   0  0  0  0  0  0  0  0  0  0  0  0
   -5.8608   20.7192  -33.6956 H   0  0  0  0  0  0  0  0  0  0  0  0
  1  2  1  0
  2  3  2  0
  3  4  1  0
  4  5  2  0
  5  6  1  0
  6  7  2  0
  6  8  2  0
  6  9  1  0
  9 10  1  0
 10 11  1  0
 11 12  1  0
 12 13  1  0
 13 14  1  0
  5 15  1  0
 15 16  2  0
 16 17  1  0
 17 18  2  0
 17 19  2  0
 17 20  1  0
 20 21  2  0
 21 22  1  0
 22 23  2  0
 23 24  1  0
 24 25  1  0
 25 26  2  0
 26 27  1  0
 27 28  2  0
 16  2  1  0
 28 20  1  0
 14  9  1  0
 27 23  1  0
  1 29  1  0
  1 30  1  0
  1 31  1  0
  3 32  1  0
  4 33  1  0
 10 34  1  0
 10 35  1  0
 11 36  1  0
 11 37  1  0
 12 38  1  0
 12 39  1  0
 13 40  1  0
 13 41  1  0
 14 42  1  0
 14 43  1  0
 15 44  1  0
 21 45  1  0
 22 46  1  0
 24 47  1  0
 25 48  1  0
 26 49  1  0
 28 50  1  0
M  END
>  <UniqueID>  (13) 
13

>  <SMILES>  (13) 
Cc1ccc(S(=O)(=O)N2CCCCC2)cc1S(=O)(=O)c1ccc2[nH]ccc2c1

>  <Energy>  (13) 
90.4607553301162

>  <Genealogy>  (13) 
Cc1ccc(S(=O)(=O)N2CCCCC2)cc1S(=O)(=O)c1ccc2[nH]ccc2c1 (3D coordinates assigned)
Cc1ccc(S(=O)(=O)N2CCCCC2)cc1S(=O)(=O)c1ccc2[nH]ccc2c1 (nonaromatic ring conformer: 90.4607553301162 kcal/mol)

>  <smiles>  (13) 
Cc1ccc(S(=O)(=O)N2CCCCC2)cc1S(=O)(=O)c1ccc2[nH]ccc2c1

>  <score_type>  (13) 
oracle

>  <origin>  (13) 
adgpu

>  <m_score__min__energy>  (13) 
-10.07

>  <m_primary>  (13) 
energy

$$$$
13:0
     RDKit          3D

 32 34  0  0  0  0  0  0  0  0999 V2000
   -5.6740   26.6140  -30.4030 O   0  0  0  0  0  0  0  0  0  0  0  0
   -5.1370   25.4840  -30.5420 C   0  0  0  0  0  0  0  0  0  0  0  0
   -3.7360   25.2610  -30.4680 N   0  0  0  0  0  0  0  0  0  0  0  0
   -3.5060   23.8290  -30.6800 C   0  0  0  0  0  0  0  0  0  0  0  0
   -4.8860   23.2560  -30.8740 C   0  0  0  0  0  0  0  0  0  0  0  0
   -5.2640   21.9230  -31.1130 C   0  0  0  0  0  0  0  0  0  0  0  0
   -4.2520   20.8120  -31.1650 C   0  0  0  0  0  0  0  0  0  0  0  0
   -4.0010   20.2740  -32.8480 S   0  0  0  0  0  0  0  0  0  0  0  0
   -4.2580   21.4080  -33.8000 O   0  0  0  0  0  0  0  0  0  0  0  0
   -2.5820   19.8090  -33.0260 O   0  0  0  0  0  0  0  0  0  0  0  0
   -5.1090   18.9520  -33.1970 C   0  0  0  0  0  0  0  0  0  0  0  0
   -4.9610   18.1940  -34.3680 C   0  0  0  0  0  0  0  0  0  0  0  0
   -5.8340   17.1340  -34.6330 C   0  0  0  0  0  0  0  0  0  0  0  0
   -6.8530   16.8240  -33.7280 C   0  0  0  0  0  0  0  0  0  0  0  0
   -6.9990   17.5710  -32.5550 C   0  0  0  0  0  0  0  0  0  0  0  0
   -6.1270   18.6310  -32.2880 C   0  0  0  0  0  0  0  0  0  0  0  0
   -6.6400   21.6420  -31.2530 C   0  0  0  0  0  0  0  0  0  0  0  0
   -7.5960   22.6720  -31.1670 C   0  0  0  0  0  0  0  0  0  0  0  0
   -7.1950   23.9950  -30.9340 C   0  0  0  0  0  0  0  0  0  0  0  0
   -5.8330   24.2500  -30.7920 C   0  0  0  0  0  0  0  0  0  0  0  0
   -2.8854   23.6618  -31.5727 H   0  0  0  0  0  0  0  0  0  0  0  0
   -2.9700   23.3604  -29.8415 H   0  0  0  0  0  0  0  0  0  0  0  0
   -3.2974   21.1722  -30.7539 H   0  0  0  0  0  0  0  0  0  0  0  0
   -4.6241   19.9636  -30.5719 H   0  0  0  0  0  0  0  0  0  0  0  0
   -4.1568   18.4338  -35.0792 H   0  0  0  0  0  0  0  0  0  0  0  0
   -5.7186   16.5440  -35.5542 H   0  0  0  0  0  0  0  0  0  0  0  0
   -7.5407   15.9917  -33.9387 H   0  0  0  0  0  0  0  0  0  0  0  0
   -7.7999   17.3248  -31.8423 H   0  0  0  0  0  0  0  0  0  0  0  0
   -6.2400   19.2145  -31.3624 H   0  0  0  0  0  0  0  0  0  0  0  0
   -6.9689   20.6076  -31.4311 H   0  0  0  0  0  0  0  0  0  0  0  0
   -8.6643   22.4372  -31.2834 H   0  0  0  0  0  0  0  0  0  0  0  0
   -7.9337   24.8072  -30.8654 H   0  0  0  0  0  0  0  0  0  0  0  0
  1  2  2  0
  2  3  1  0
  3  4  1  0
  4  5  1  0
  5  6  2  0
  6  7  1  0
  7  8  1  0
  8  9  2  0
  8 10  2  0
  8 11  1  0
 11 12  2  0
 12 13  1  0
 13 14  2  0
 14 15  1  0
 15 16  2  0
  6 17  1  0
 17 18  2  0
 18 19  1  0
 19 20  2  0
 20  2  1  0
 20  5  1  0
 16 11  1  0
  4 21  1  0
  4 22  1  0
  7 23  1  0
  7 24  1  0
 12 25  1  0
 13 26  1  0
 14 27  1  0
 15 28  1  0
 16 29  1  0
 17 30  1  0
 18 31  1  0
 19 32  1  0
M  CHG  1   3  -1
M  END
>  <UniqueID>  (14) 
14

>  <SMILES>  (14) 
O=C1[N-]Cc2c(CS(=O)(=O)c3ccccc3)cccc21

>  <Energy>  (14) 
53.09009612270759

>  <Genealogy>  (14) 
O=C1[N-]Cc2c(CS(=O)(=O)c3ccccc3)cccc21 (protonated)
O=C1[N-]Cc2c(CS(=O)(=O)c3ccccc3)cccc21 (3D coordinates assigned)
O=C1[N-]Cc2c(CS(=O)(=O)c3ccccc3)cccc21 (nonaromatic ring conformer: 53.09009612270759 kcal/mol)

>  <smiles>  (14) 
O=C1NCc2c(CS(=O)(=O)c3ccccc3)cccc21

>  <score_type>  (14) 
oracle

>  <origin>  (14) 
adgpu

>  <m_score__min__energy>  (14) 
-9.8399999999999999

>  <m_primary>  (14) 
energy

$$$$
14:0
     RDKit          3D

 57 60  0  0  0  0  0  0  0  0999 V2000
   -1.0780   19.2970  -28.0010 C   0  0  0  0  0  0  0  0  0  0  0  0
   -1.9700   19.8350  -26.9570 N   0  0  0  0  0  0  0  0  0  0  0  0
   -1.2440   20.6150  -25.9320 C   0  0  0  0  0  0  0  0  0  0  0  0
   -0.6030   21.8890  -26.5040 C   0  0  0  0  0  0  0  0  0  0  0  0
   -1.5130   22.6130  -27.4630 C   0  0  0  0  0  0  0  0  0  0  0  0
   -1.1580   23.8940  -27.9070 C   0  0  0  0  0  0  0  0  0  0  0  0
   -1.9200   24.5470  -28.8820 C   0  0  0  0  0  0  0  0  0  0  0  0
   -1.5240   25.8030  -29.3280 O   0  0  0  0  0  0  0  0  0  0  0  0
   -3.0560   23.9240  -29.4220 C   0  0  0  0  0  0  0  0  0  0  0  0
   -3.7770   24.5500  -30.4960 N   0  0  0  0  0  0  0  0  0  0  0  0
   -5.4800   24.8830  -30.3970 S   0  0  0  0  0  0  0  0  0  0  0  0
   -5.8130   26.0550  -31.2760 O   0  0  0  0  0  0  0  0  0  0  0  0
   -5.8300   25.2180  -28.9730 O   0  0  0  0  0  0  0  0  0  0  0  0
   -6.4010   23.4830  -30.9480 C   0  0  0  0  0  0  0  0  0  0  0  0
   -7.2670   22.8100  -30.0760 C   0  0  0  0  0  0  0  0  0  0  0  0
   -7.8920   21.6270  -30.4800 C   0  0  0  0  0  0  0  0  0  0  0  0
   -7.6570   21.1050  -31.7600 C   0  0  0  0  0  0  0  0  0  0  0  0
   -8.4270   19.5980  -32.2600 S   0  0  0  0  0  0  0  0  0  0  0  0
   -9.4720   19.8980  -33.2990 O   0  0  0  0  0  0  0  0  0  0  0  0
   -9.1130   18.9750  -31.0770 O   0  0  0  0  0  0  0  0  0  0  0  0
   -7.2650   18.4730  -32.9250 N   0  0  0  0  0  0  0  0  0  0  0  0
   -6.4120   19.1130  -33.9570 C   0  0  0  0  0  0  0  0  0  0  0  0
   -5.0120   19.4710  -33.4390 C   0  0  0  0  0  0  0  0  0  0  0  0
   -4.2730   18.2240  -32.9240 C   0  0  0  0  0  0  0  0  0  0  0  0
   -5.2290   17.1600  -32.3570 C   0  0  0  0  0  0  0  0  0  0  0  0
   -6.5200   17.8010  -31.8380 C   0  0  0  0  0  0  0  0  0  0  0  0
   -6.8000   21.7850  -32.6360 C   0  0  0  0  0  0  0  0  0  0  0  0
   -6.1810   22.9720  -32.2340 C   0  0  0  0  0  0  0  0  0  0  0  0
   -3.4450   22.6660  -28.9340 C   0  0  0  0  0  0  0  0  0  0  0  0
   -2.6570   21.9870  -27.9960 C   0  0  0  0  0  0  0  0  0  0  0  0
   -3.0840   20.6160  -27.5310 C   0  0  0  0  0  0  0  0  0  0  0  0
   -0.2276   18.7841  -27.5280 H   0  0  0  0  0  0  0  0  0  0  0  0
   -1.6344   18.5837  -28.6268 H   0  0  0  0  0  0  0  0  0  0  0  0
   -0.7067   20.1219  -28.6268 H   0  0  0  0  0  0  0  0  0  0  0  0
   -1.9519   20.9016  -25.1403 H   0  0  0  0  0  0  0  0  0  0  0  0
   -0.4344   19.9807  -25.5418 H   0  0  0  0  0  0  0  0  0  0  0  0
   -0.3583   22.5650  -25.6715 H   0  0  0  0  0  0  0  0  0  0  0  0
    0.2976   21.5892  -27.0599 H   0  0  0  0  0  0  0  0  0  0  0  0
   -0.2719   24.3908  -27.4850 H   0  0  0  0  0  0  0  0  0  0  0  0
   -3.3360   24.6190  -31.4380 H   0  0  0  0  0  0  0  0  0  0  0  0
   -7.4555   23.2140  -29.0704 H   0  0  0  0  0  0  0  0  0  0  0  0
   -8.5710   21.1033  -29.7910 H   0  0  0  0  0  0  0  0  0  0  0  0
   -6.3058   18.4190  -34.8038 H   0  0  0  0  0  0  0  0  0  0  0  0
   -6.9030   20.0512  -34.2547 H   0  0  0  0  0  0  0  0  0  0  0  0
   -4.4305   19.9199  -34.2578 H   0  0  0  0  0  0  0  0  0  0  0  0
   -5.1202   20.1805  -32.6054 H   0  0  0  0  0  0  0  0  0  0  0  0
   -3.7073   17.7810  -33.7569 H   0  0  0  0  0  0  0  0  0  0  0  0
   -3.6096   18.5443  -32.1071 H   0  0  0  0  0  0  0  0  0  0  0  0
   -5.4786   16.4411  -33.1513 H   0  0  0  0  0  0  0  0  0  0  0  0
   -4.7294   16.6514  -31.5193 H   0  0  0  0  0  0  0  0  0  0  0  0
   -7.1564   17.0186  -31.3988 H   0  0  0  0  0  0  0  0  0  0  0  0
   -6.2523   18.5560  -31.0842 H   0  0  0  0  0  0  0  0  0  0  0  0
   -6.6139   21.3833  -33.6430 H   0  0  0  0  0  0  0  0  0  0  0  0
   -5.5184   23.5072  -32.9301 H   0  0  0  0  0  0  0  0  0  0  0  0
   -4.3790   22.2087  -29.2924 H   0  0  0  0  0  0  0  0  0  0  0  0
   -3.8640   20.7319  -26.7641 H   0  0  0  0  0  0  0  0  0  0  0  0
   -3.4548   20.0682  -28.4099 H   0  0  0  0  0  0  0  0  0  0  0  0
  1  2  1  0
  2  3  1  0
  3  4  1  0
  4  5  1  0
  5  6  2  0
  6  7  1  0
  7  8  1  0
  7  9  2  0
  9 10  1  0
 10 11  1  0
 11 12  2  0
 11 13  2  0
 11 14  1  0
 14 15  2  0
 15 16  1  0
 16 17  2  0
 17 18  1  0
 18 19  2  0
 18 20  2  0
 18 21  1  0
 21 22  1  0
 22 23  1  0
 23 24  1  0
 24 25  1  0
 25 26  1  0
 17 27  1  0
 27 28  2  0
  9 29  1  0
 29 30  2  0
 30 31  1  0
 31  2  1  0
 30  5  1  0
 28 14  1  0
 26 21  1  0
  1 32  1  0
  1 33  1  0
  1 34  1  0
  3 35  1  0
  3 36  1  0
  4 37  1  0
  4 38  1  0
  6 39  1  0
 10 40  1  0
 15 41  1  0
 16 42  1  0
 22 43  1  0
 22 44  1  0
 23 45  1  0
 23 46  1  0
 24 47  1  0
 24 48  1  0
 25 49  1  0
 25 50  1  0
 26 51  1  0
 26 52  1  0
 27 53  1  0
 28 54  1  0
 29 55  1  0
 31 56  1  0
 31 57  1  0
M  CHG  1   8  -1
M  END
>  <UniqueID>  (15) 
15

>  <SMILES>  (15) 
CN1CCc2cc([O-])c(NS(=O)(=O)c3ccc(S(=O)(=O)N4CCCCC4)cc3)cc2C1

>  <Energy>  (15) 
70.9556364673672

>  <Genealogy>  (15) 
CN1CCc2cc([O-])c(NS(=O)(=O)c3ccc(S(=O)(=O)N4CCCCC4)cc3)cc2C1 (protonated)
CN1CCc2cc([O-])c(NS(=O)(=O)c3ccc(S(=O)(=O)N4CCCCC4)cc3)cc2C1 (3D coordinates assigned)
CN1CCc2cc([O-])c(NS(=O)(=O)c3ccc(S(=O)(=O)N4CCCCC4)cc3)cc2C1 (nonaromatic ring conformer: 70.9556364673672 kcal/mol)

>  <smiles>  (15) 
CN1CCc2cc(O)c(NS(=O)(=O)c3ccc(S(=O)(=O)N4CCCCC4)cc3)cc2C1

>  <score_type>  (15) 
oracle

>  <origin>  (15) 
adgpu

>  <m_score__min__energy>  (15) 
-14.44

>  <m_primary>  (15) 
energy

$$$$
15:0
     RDKit          3D

 65 69  0  0  0  0  0  0  0  0999 V2000
    0.0950   21.5320  -34.2070 C   0  0  0  0  0  0  0  0  0  0  0  0
   -0.5140   20.3240  -33.5760 C   0  0  0  0  0  0  0  0  0  0  0  0
   -1.2210   19.4270  -34.2170 O   0  0  0  0  0  0  0  0  0  0  0  0
   -1.5900   18.5250  -33.3320 C   0  0  0  0  0  0  0  0  0  0  0  0
   -2.4340   17.3560  -33.6530 C   0  0  0  0  0  0  0  0  0  0  0  0
   -3.3150   17.3950  -34.7460 C   0  0  0  0  0  0  0  0  0  0  0  0
   -4.1350   16.2980  -35.0320 C   0  0  0  0  0  0  0  0  0  0  0  0
   -4.0770   15.1520  -34.2340 C   0  0  0  0  0  0  0  0  0  0  0  0
   -3.2010   15.1030  -33.1480 C   0  0  0  0  0  0  0  0  0  0  0  0
   -2.3810   16.1990  -32.8560 C   0  0  0  0  0  0  0  0  0  0  0  0
   -1.1330   18.7970  -32.0900 N   0  0  0  0  0  0  0  0  0  0  0  0
   -0.4440   19.9410  -32.2530 C   0  0  0  0  0  0  0  0  0  0  0  0
    0.2270   20.6660  -31.1260 C   0  0  0  0  0  0  0  0  0  0  0  0
   -0.4040   20.0200  -29.5350 S   0  0  0  0  0  0  0  0  0  0  0  0
   -1.6120   21.3300  -29.2830 C   0  0  0  0  0  0  0  0  0  0  0  0
   -1.5490   22.4750  -30.0830 C   0  0  0  0  0  0  0  0  0  0  0  0
   -2.4680   23.5130  -29.9050 C   0  0  0  0  0  0  0  0  0  0  0  0
   -3.4560   23.4270  -28.9120 C   0  0  0  0  0  0  0  0  0  0  0  0
   -4.3700   24.5210  -28.7270 N   0  0  0  0  0  0  0  0  0  0  0  0
   -5.5340   24.9970  -29.9240 S   0  0  0  0  0  0  0  0  0  0  0  0
   -6.7060   25.6360  -29.2310 O   0  0  0  0  0  0  0  0  0  0  0  0
   -4.9100   26.0020  -30.8500 O   0  0  0  0  0  0  0  0  0  0  0  0
   -6.0600   23.6030  -30.8610 C   0  0  0  0  0  0  0  0  0  0  0  0
   -7.4090   23.4640  -31.2200 C   0  0  0  0  0  0  0  0  0  0  0  0
   -7.8270   22.3560  -31.9610 C   0  0  0  0  0  0  0  0  0  0  0  0
   -6.9030   21.3820  -32.3460 C   0  0  0  0  0  0  0  0  0  0  0  0
   -5.5560   21.5090  -31.9900 C   0  0  0  0  0  0  0  0  0  0  0  0
   -4.3990   20.2940  -32.5230 S   0  0  0  0  0  0  0  0  0  0  0  0
   -3.2990   20.1880  -31.5040 O   0  0  0  0  0  0  0  0  0  0  0  0
   -3.7950   20.6950  -33.8430 O   0  0  0  0  0  0  0  0  0  0  0  0
   -5.2160   18.7600  -32.6670 N   0  0  0  0  0  0  0  0  0  0  0  0
   -6.0420   18.4860  -31.4910 C   0  0  0  0  0  0  0  0  0  0  0  0
   -7.1610   17.5680  -31.9560 C   0  0  0  0  0  0  0  0  0  0  0  0
   -7.2190   17.7330  -33.4670 C   0  0  0  0  0  0  0  0  0  0  0  0
   -6.1370   18.7480  -33.8030 C   0  0  0  0  0  0  0  0  0  0  0  0
   -5.1340   22.6260  -31.2520 C   0  0  0  0  0  0  0  0  0  0  0  0
   -3.5280   22.2670  -28.1210 C   0  0  0  0  0  0  0  0  0  0  0  0
   -2.6180   21.2190  -28.3070 C   0  0  0  0  0  0  0  0  0  0  0  0
   -2.7850   19.7770  -27.3150 Cl  0  0  0  0  0  0  0  0  0  0  0  0
    0.4419   22.2202  -33.4221 H   0  0  0  0  0  0  0  0  0  0  0  0
    0.9479   21.2287  -34.8319 H   0  0  0  0  0  0  0  0  0  0  0  0
   -0.6561   22.0373  -34.8319 H   0  0  0  0  0  0  0  0  0  0  0  0
   -3.3606   18.2925  -35.3804 H   0  0  0  0  0  0  0  0  0  0  0  0
   -4.8266   16.3375  -35.8865 H   0  0  0  0  0  0  0  0  0  0  0  0
   -4.7209   14.2896  -34.4614 H   0  0  0  0  0  0  0  0  0  0  0  0
   -3.1552   14.2008  -32.5203 H   0  0  0  0  0  0  0  0  0  0  0  0
   -1.6923   16.1550  -31.9994 H   0  0  0  0  0  0  0  0  0  0  0  0
    1.3141   20.5077  -31.1822 H   0  0  0  0  0  0  0  0  0  0  0  0
    0.0123   21.7424  -31.1991 H   0  0  0  0  0  0  0  0  0  0  0  0
   -0.7718   22.5594  -30.8568 H   0  0  0  0  0  0  0  0  0  0  0  0
   -2.4165   24.4040  -30.5480 H   0  0  0  0  0  0  0  0  0  0  0  0
   -4.4770   24.9360  -27.7760 H   0  0  0  0  0  0  0  0  0  0  0  0
   -8.1391   24.2291  -30.9174 H   0  0  0  0  0  0  0  0  0  0  0  0
   -8.8853   22.2505  -32.2417 H   0  0  0  0  0  0  0  0  0  0  0  0
   -7.2355   20.5120  -32.9312 H   0  0  0  0  0  0  0  0  0  0  0  0
   -5.4429   17.9912  -30.7124 H   0  0  0  0  0  0  0  0  0  0  0  0
   -6.4423   19.4155  -31.0599 H   0  0  0  0  0  0  0  0  0  0  0  0
   -6.9371   16.5240  -31.6914 H   0  0  0  0  0  0  0  0  0  0  0  0
   -8.1203   17.8199  -31.4804 H   0  0  0  0  0  0  0  0  0  0  0  0
   -7.0165   16.7744  -33.9671 H   0  0  0  0  0  0  0  0  0  0  0  0
   -8.2116   18.0654  -33.8049 H   0  0  0  0  0  0  0  0  0  0  0  0
   -5.6069   18.4498  -34.7196 H   0  0  0  0  0  0  0  0  0  0  0  0
   -6.5663   19.7453  -33.9793 H   0  0  0  0  0  0  0  0  0  0  0  0
   -4.0738   22.7349  -30.9798 H   0  0  0  0  0  0  0  0  0  0  0  0
   -4.3066   22.1818  -27.3486 H   0  0  0  0  0  0  0  0  0  0  0  0
  1  2  1  0
  2  3  1  0
  3  4  1  0
  4  5  1  0
  5  6  2  0
  6  7  1  0
  7  8  2  0
  8  9  1  0
  9 10  2  0
  4 11  2  0
 11 12  1  0
 12 13  1  0
 13 14  1  0
 14 15  1  0
 15 16  2  0
 16 17  1  0
 17 18  2  0
 18 19  1  0
 19 20  1  0
 20 21  2  0
 20 22  2  0
 20 23  1  0
 23 24  2  0
 24 25  1  0
 25 26  2  0
 26 27  1  0
 27 28  1  0
 28 29  2  0
 28 30  2  0
 28 31  1  0
 31 32  1  0
 32 33  1  0
 33 34  1  0
 34 35  1  0
 27 36  2  0
 18 37  1  0
 37 38  2  0
 38 39  1  0
 12  2  2  0
 38 15  1  0
 10  5  1  0
 36 23  1  0
 35 31  1  0
  1 40  1  0
  1 41  1  0
  1 42  1  0
  6 43  1  0
  7 44  1  0
  8 45  1  0
  9 46  1  0
 10 47  1  0
 13 48  1  0
 13 49  1  0
 16 50  1  0
 17 51  1  0
 19 52  1  0
 24 53  1  0
 25 54  1  0
 26 55  1  0
 32 56  1  0
 32 57  1  0
 33 58  1  0
 33 59  1  0
 34 60  1  0
 34 61  1  0
 35 62  1  0
 35 63  1  0
 36 64  1  0
 37 65  1  0
M  END
>  <UniqueID>  (16) 
16

>  <SMILES>  (16) 
Cc1oc(-c2ccccc2)nc1CSc1ccc(NS(=O)(=O)c2cccc(S(=O)(=O)N3CCCC3)c2)cc1Cl

>  <Energy>  (16) 
99.30712917069827

>  <Genealogy>  (16) 
Cc1oc(-c2ccccc2)nc1CSc1ccc(NS(=O)(=O)c2cccc(S(=O)(=O)N3CCCC3)c2)cc1Cl (3D coordinates assigned)
Cc1oc(-c2ccccc2)nc1CSc1ccc(NS(=O)(=O)c2cccc(S(=O)(=O)N3CCCC3)c2)cc1Cl (nonaromatic ring conformer: 99.30712917069827 kcal/mol)

>  <smiles>  (16) 
Cc1oc(-c2ccccc2)nc1CSc1ccc(NS(=O)(=O)c2cccc(S(=O)(=O)N3CCCC3)c2)cc1Cl

>  <score_type>  (16) 
oracle

>  <origin>  (16) 
adgpu

>  <m_score__min__energy>  (16) 
-12.02

>  <m_primary>  (16) 
energy

$$$$
16:0
     RDKit          3D

 78 83  0  0  0  0  0  0  0  0999 V2000
   -1.0180   22.0900  -28.5850 C   0  0  0  0  0  0  0  0  0  0  0  0
   -2.3500   22.1970  -29.2030 N   0  0  0  0  0  0  0  0  0  0  0  0
   -3.2320   23.1070  -28.4290 C   0  0  0  0  0  0  0  0  0  0  0  0
   -3.2720   24.5260  -29.0240 C   0  0  0  0  0  0  0  0  0  0  0  0
   -3.7140   24.5230  -30.4410 N   0  0  0  0  0  0  0  0  0  0  0  0
   -5.0530   25.1220  -30.6720 C   0  0  0  0  0  0  0  0  0  0  0  0
   -6.1550   24.1000  -30.8860 C   0  0  0  0  0  0  0  0  0  0  0  0
   -6.7540   23.9650  -32.1490 C   0  0  0  0  0  0  0  0  0  0  0  0
   -7.7730   23.0270  -32.3520 C   0  0  0  0  0  0  0  0  0  0  0  0
   -8.1990   22.1970  -31.3040 C   0  0  0  0  0  0  0  0  0  0  0  0
   -9.2250   21.2210  -31.5450 N   0  0  0  0  0  0  0  0  0  0  0  0
   -8.8700   19.5850  -32.0020 S   0  0  0  0  0  0  0  0  0  0  0  0
   -9.1230   18.6760  -30.8330 O   0  0  0  0  0  0  0  0  0  0  0  0
   -9.7830   19.1820  -33.1250 O   0  0  0  0  0  0  0  0  0  0  0  0
   -7.1830   19.4450  -32.4930 C   0  0  0  0  0  0  0  0  0  0  0  0
   -6.8430   19.3920  -33.8530 C   0  0  0  0  0  0  0  0  0  0  0  0
   -5.5030   19.2910  -34.2390 C   0  0  0  0  0  0  0  0  0  0  0  0
   -4.4880   19.2190  -33.2680 C   0  0  0  0  0  0  0  0  0  0  0  0
   -3.0640   19.1670  -33.6680 C   0  0  0  0  0  0  0  0  0  0  0  0
   -2.4830   20.3230  -34.0850 N   0  0  0  0  0  0  0  0  0  0  0  0
   -1.2250   20.3680  -34.5250 N   0  0  0  0  0  0  0  0  0  0  0  0
   -0.4470   19.2570  -34.5880 C   0  0  0  0  0  0  0  0  0  0  0  0
    0.8930   19.3760  -35.0800 N   0  0  0  0  0  0  0  0  0  0  0  0
    1.9990   19.5270  -34.1320 C   0  0  0  0  0  0  0  0  0  0  0  0
    3.2670   20.0090  -34.8560 C   0  0  0  0  0  0  0  0  0  0  0  0
    2.9810   21.1220  -35.7910 N   0  0  0  0  0  0  0  0  0  0  0  0
    2.7250   22.3810  -35.0670 C   0  0  0  0  0  0  0  0  0  0  0  0
    1.9100   20.8290  -36.7850 C   0  0  0  0  0  0  0  0  0  0  0  0
    1.1360   19.5250  -36.5170 C   0  0  0  0  0  0  0  0  0  0  0  0
   -0.9670   18.0240  -34.1600 C   0  0  0  0  0  0  0  0  0  0  0  0
   -0.1960   16.8450  -34.2090 C   0  0  0  0  0  0  0  0  0  0  0  0
   -0.7240   15.6390  -33.7430 C   0  0  0  0  0  0  0  0  0  0  0  0
   -2.0150   15.5960  -33.2160 C   0  0  0  0  0  0  0  0  0  0  0  0
   -2.7970   16.7530  -33.1690 C   0  0  0  0  0  0  0  0  0  0  0  0
   -2.2970   17.9750  -33.6680 C   0  0  0  0  0  0  0  0  0  0  0  0
   -4.8320   19.2930  -31.9080 C   0  0  0  0  0  0  0  0  0  0  0  0
   -6.1710   19.3990  -31.5230 C   0  0  0  0  0  0  0  0  0  0  0  0
   -7.6180   22.3490  -30.0340 C   0  0  0  0  0  0  0  0  0  0  0  0
   -6.6170   23.3020  -29.8250 C   0  0  0  0  0  0  0  0  0  0  0  0
   -3.5000   23.2420  -31.1520 C   0  0  0  0  0  0  0  0  0  0  0  0
   -2.2320   22.5520  -30.6390 C   0  0  0  0  0  0  0  0  0  0  0  0
   -1.1202   22.0982  -27.4898 H   0  0  0  0  0  0  0  0  0  0  0  0
   -0.5412   21.1507  -28.9017 H   0  0  0  0  0  0  0  0  0  0  0  0
   -0.3974   22.9412  -28.9017 H   0  0  0  0  0  0  0  0  0  0  0  0
   -4.2519   22.6949  -28.4277 H   0  0  0  0  0  0  0  0  0  0  0  0
   -2.8277   23.1808  -27.4086 H   0  0  0  0  0  0  0  0  0  0  0  0
   -3.9710   25.1383  -28.4353 H   0  0  0  0  0  0  0  0  0  0  0  0
   -2.2530   24.9386  -28.9870 H   0  0  0  0  0  0  0  0  0  0  0  0
   -5.3141   25.7348  -29.7966 H   0  0  0  0  0  0  0  0  0  0  0  0
   -4.9828   25.7144  -31.5962 H   0  0  0  0  0  0  0  0  0  0  0  0
   -6.4206   24.5998  -32.9832 H   0  0  0  0  0  0  0  0  0  0  0  0
   -8.2441   22.9398  -33.3422 H   0  0  0  0  0  0  0  0  0  0  0  0
  -10.2170   21.5370  -31.6400 H   0  0  0  0  0  0  0  0  0  0  0  0
   -7.6328   19.4300  -34.6177 H   0  0  0  0  0  0  0  0  0  0  0  0
   -5.2413   19.2677  -35.3072 H   0  0  0  0  0  0  0  0  0  0  0  0
    1.7192   20.2627  -33.3635 H   0  0  0  0  0  0  0  0  0  0  0  0
    2.2042   18.5517  -33.6665 H   0  0  0  0  0  0  0  0  0  0  0  0
    3.9953   20.3525  -34.1066 H   0  0  0  0  0  0  0  0  0  0  0  0
    3.6661   19.1671  -35.4407 H   0  0  0  0  0  0  0  0  0  0  0  0
    2.7628   22.1951  -33.9835 H   0  0  0  0  0  0  0  0  0  0  0  0
    3.4908   23.1225  -35.3387 H   0  0  0  0  0  0  0  0  0  0  0  0
    1.7305   22.7645  -35.3387 H   0  0  0  0  0  0  0  0  0  0  0  0
    1.1932   21.6633  -36.7750 H   0  0  0  0  0  0  0  0  0  0  0  0
    2.4085   20.7051  -37.7577 H   0  0  0  0  0  0  0  0  0  0  0  0
    0.1734   19.5564  -37.0484 H   0  0  0  0  0  0  0  0  0  0  0  0
    1.7302   18.6711  -36.8744 H   0  0  0  0  0  0  0  0  0  0  0  0
    0.8255   16.8750  -34.6159 H   0  0  0  0  0  0  0  0  0  0  0  0
   -0.1204   14.7207  -33.7916 H   0  0  0  0  0  0  0  0  0  0  0  0
   -2.4194   14.6464  -32.8355 H   0  0  0  0  0  0  0  0  0  0  0  0
   -3.8091   16.7112  -32.7402 H   0  0  0  0  0  0  0  0  0  0  0  0
   -4.0430   19.2674  -31.1420 H   0  0  0  0  0  0  0  0  0  0  0  0
   -6.4323   19.4465  -30.4555 H   0  0  0  0  0  0  0  0  0  0  0  0
   -7.9525   21.7148  -29.1998 H   0  0  0  0  0  0  0  0  0  0  0  0
   -6.1867   23.4287  -28.8206 H   0  0  0  0  0  0  0  0  0  0  0  0
   -4.3649   22.5840  -30.9817 H   0  0  0  0  0  0  0  0  0  0  0  0
   -3.3857   23.4453  -32.2270 H   0  0  0  0  0  0  0  0  0  0  0  0
   -2.0637   21.6342  -31.2216 H   0  0  0  0  0  0  0  0  0  0  0  0
   -1.3887   23.2488  -30.7544 H   0  0  0  0  0  0  0  0  0  0  0  0
  1  2  1  0
  2  3  1  0
  3  4  1  0
  4  5  1  0
  5  6  1  0
  6  7  1  0
  7  8  2  0
  8  9  1  0
  9 10  2  0
 10 11  1  0
 11 12  1  0
 12 13  2  0
 12 14  2  0
 12 15  1  0
 15 16  2  0
 16 17  1  0
 17 18  2  0
 18 19  1  0
 19 20  2  0
 20 21  1  0
 21 22  2  0
 22 23  1  0
 23 24  1  0
 24 25  1  0
 25 26  1  0
 26 27  1  0
 26 28  1  0
 28 29  1  0
 22 30  1  0
 30 31  2  0
 31 32  1  0
 32 33  2  0
 33 34  1  0
 34 35  2  0
 18 36  1  0
 36 37  2  0
 10 38  1  0
 38 39  2  0
  5 40  1  0
 40 41  1  0
 41  2  1  0
 39  7  1  0
 37 15  1  0
 35 19  1  0
 29 23  1  0
 35 30  1  0
  1 42  1  0
  1 43  1  0
  1 44  1  0
  3 45  1  0
  3 46  1  0
  4 47  1  0
  4 48  1  0
  6 49  1  0
  6 50  1  0
  8 51  1  0
  9 52  1  0
 11 53  1  0
 16 54  1  0
 17 55  1  0
 24 56  1  0
 24 57  1  0
 25 58  1  0
 25 59  1  0
 27 60  1  0
 27 61  1  0
 27 62  1  0
 28 63  1  0
 28 64  1  0
 29 65  1  0
 29 66  1  0
 31 67  1  0
 32 68  1  0
 33 69  1  0
 34 70  1  0
 36 71  1  0
 37 72  1  0
 38 73  1  0
 39 74  1  0
 40 75  1  0
 40 76  1  0
 41 77  1  0
 41 78  1  0
M  END
>  <UniqueID>  (17) 
17

>  <SMILES>  (17) 
CN1CCN(Cc2ccc(NS(=O)(=O)c3ccc(-c4nnc(N5CCN(C)CC5)c5ccccc45)cc3)cc2)CC1

>  <Energy>  (17) 
129.22244251298753

>  <Genealogy>  (17) 
CN1CCN(Cc2ccc(NS(=O)(=O)c3ccc(-c4nnc(N5CCN(C)CC5)c5ccccc45)cc3)cc2)CC1 (3D coordinates assigned)
CN1CCN(Cc2ccc(NS(=O)(=O)c3ccc(-c4nnc(N5CCN(C)CC5)c5ccccc45)cc3)cc2)CC1 (nonaromatic ring conformer: 129.22244251298753 kcal/mol)

>  <smiles>  (17) 
CN1CCN(Cc2ccc(NS(=O)(=O)c3ccc(-c4nnc(N5CCN(C)CC5)c5ccccc45)cc3)cc2)CC1

>  <score_type>  (17) 
oracle

>  <origin>  (17) 
adgpu

>  <m_score__min__energy>  (17) 
-10.82

>  <m_primary>  (17) 
energy

$$$$
17:0
     RDKit          3D

 44 46  0  0  0  0  0  0  0  0999 V2000
   -5.3700   26.3130  -30.7440 O   0  0  0  0  0  0  0  0  0  0  0  0
   -4.9080   25.1450  -30.6500 C   0  0  0  0  0  0  0  0  0  0  0  0
   -3.6230   24.9590  -30.0400 N   0  0  0  0  0  0  0  0  0  0  0  0
   -3.2770   23.9160  -29.1150 C   0  0  0  0  0  0  0  0  0  0  0  0
   -4.2330   22.9440  -28.7600 C   0  0  0  0  0  0  0  0  0  0  0  0
   -3.8940   21.8920  -27.9110 C   0  0  0  0  0  0  0  0  0  0  0  0
   -2.6000   21.7900  -27.4080 C   0  0  0  0  0  0  0  0  0  0  0  0
   -1.6380   22.7400  -27.7530 C   0  0  0  0  0  0  0  0  0  0  0  0
   -1.9550   23.8100  -28.6120 C   0  0  0  0  0  0  0  0  0  0  0  0
   -0.8940   24.7970  -28.9480 C   0  0  0  0  0  0  0  0  0  0  0  0
    0.3250   24.4890  -28.8910 O   0  0  0  0  0  0  0  0  0  0  0  0
   -1.2370   26.0860  -29.3410 O   0  0  0  0  0  0  0  0  0  0  0  0
   -5.7200   23.9990  -31.1200 C   0  0  0  0  0  0  0  0  0  0  0  0
   -7.1030   23.9690  -30.8800 C   0  0  0  0  0  0  0  0  0  0  0  0
   -7.8700   22.8830  -31.3100 C   0  0  0  0  0  0  0  0  0  0  0  0
   -7.2620   21.8100  -31.9660 C   0  0  0  0  0  0  0  0  0  0  0  0
   -5.8800   21.8190  -32.1960 C   0  0  0  0  0  0  0  0  0  0  0  0
   -5.0890   20.4580  -32.9870 S   0  0  0  0  0  0  0  0  0  0  0  0
   -5.0210   19.3110  -32.0200 O   0  0  0  0  0  0  0  0  0  0  0  0
   -5.8750   20.0240  -34.1930 O   0  0  0  0  0  0  0  0  0  0  0  0
   -3.4750   20.9000  -33.4620 N   0  0  0  0  0  0  0  0  0  0  0  0
   -2.4860   20.3580  -32.5240 C   0  0  0  0  0  0  0  0  0  0  0  0
   -1.1550   20.1380  -33.2480 C   0  0  0  0  0  0  0  0  0  0  0  0
   -0.2100   21.2160  -32.7490 C   0  0  0  0  0  0  0  0  0  0  0  0
   -0.6910   21.5470  -31.3520 C   0  0  0  0  0  0  0  0  0  0  0  0
   -2.1990   21.3570  -31.3930 C   0  0  0  0  0  0  0  0  0  0  0  0
   -5.1140   22.9140  -31.7770 C   0  0  0  0  0  0  0  0  0  0  0  0
   -5.2565   23.0160  -29.1566 H   0  0  0  0  0  0  0  0  0  0  0  0
   -4.6501   21.1412  -27.6380 H   0  0  0  0  0  0  0  0  0  0  0  0
   -2.3354   20.9591  -26.7375 H   0  0  0  0  0  0  0  0  0  0  0  0
   -0.6188   22.6520  -27.3488 H   0  0  0  0  0  0  0  0  0  0  0  0
   -7.5850   24.8043  -30.3510 H   0  0  0  0  0  0  0  0  0  0  0  0
   -8.9554   22.8730  -31.1315 H   0  0  0  0  0  0  0  0  0  0  0  0
   -7.8692   20.9567  -32.3025 H   0  0  0  0  0  0  0  0  0  0  0  0
   -2.8951   19.4197  -32.1213 H   0  0  0  0  0  0  0  0  0  0  0  0
   -0.7538   19.1415  -33.0113 H   0  0  0  0  0  0  0  0  0  0  0  0
   -1.2816   20.1938  -34.3393 H   0  0  0  0  0  0  0  0  0  0  0  0
    0.8238   20.8412  -32.7227 H   0  0  0  0  0  0  0  0  0  0  0  0
   -0.2096   22.0992  -33.4046 H   0  0  0  0  0  0  0  0  0  0  0  0
   -0.2366   20.8669  -30.6165 H   0  0  0  0  0  0  0  0  0  0  0  0
   -0.4137   22.5688  -31.0535 H   0  0  0  0  0  0  0  0  0  0  0  0
   -2.5571   20.9565  -30.4331 H   0  0  0  0  0  0  0  0  0  0  0  0
   -2.7142   22.3129  -31.5685 H   0  0  0  0  0  0  0  0  0  0  0  0
   -4.0300   22.9251  -31.9634 H   0  0  0  0  0  0  0  0  0  0  0  0
  1  2  2  0
  2  3  1  0
  3  4  1  0
  4  5  2  0
  5  6  1  0
  6  7  2  0
  7  8  1  0
  8  9  2  0
  9 10  1  0
 10 11  2  0
 10 12  1  0
  2 13  1  0
 13 14  2  0
 14 15  1  0
 15 16  2  0
 16 17  1  0
 17 18  1  0
 18 19  2  0
 18 20  2  0
 18 21  1  0
 21 22  1  0
 22 23  1  0
 23 24  1  0
 24 25  1  0
 25 26  1  0
 17 27  2  0
  9  4  1  0
 27 13  1  0
 26 22  1  0
  5 28  1  0
  6 29  1  0
  7 30  1  0
  8 31  1  0
 14 32  1  0
 15 33  1  0
 16 34  1  0
 22 35  1  0
 23 36  1  0
 23 37  1  0
 24 38  1  0
 24 39  1  0
 25 40  1  0
 25 41  1  0
 26 42  1  0
 26 43  1  0
 27 44  1  0
M  CHG  3   3  -1  12  -1  21  -1
M  END
>  <UniqueID>  (18) 
18

>  <SMILES>  (18) 
O=C([N-]c1ccccc1C(=O)[O-])c1cccc(S(=O)(=O)[N-]C2CCCC2)c1

>  <Energy>  (18) 
52.12077390077885

>  <Genealogy>  (18) 
O=C([N-]c1ccccc1C(=O)[O-])c1cccc(S(=O)(=O)[N-]C2CCCC2)c1 (protonated)
O=C([N-]c1ccccc1C(=O)[O-])c1cccc(S(=O)(=O)[N-]C2CCCC2)c1 (3D coordinates assigned)
O=C([N-]c1ccccc1C(=O)[O-])c1cccc(S(=O)(=O)[N-]C2CCCC2)c1 (nonaromatic ring conformer: 52.12077390077885 kcal/mol)

>  <smiles>  (18) 
O=C(Nc1ccccc1C(=O)O)c1cccc(S(=O)(=O)NC2CCCC2)c1

>  <score_type>  (18) 
oracle

>  <origin>  (18) 
adgpu

>  <m_score__min__energy>  (18) 
-12.81

>  <m_primary>  (18) 
energy

$$$$
18:0
     RDKit          3D

 55 57  0  0  0  0  0  0  0  0999 V2000
    1.7710   19.3080  -28.4390 C   0  0  0  0  0  0  0  0  0  0  0  0
    0.5140   18.4490  -28.4210 C   0  0  0  0  0  0  0  0  0  0  0  0
   -0.4670   18.9740  -29.3120 O   0  0  0  0  0  0  0  0  0  0  0  0
   -0.9990   20.2740  -29.2660 C   0  0  0  0  0  0  0  0  0  0  0  0
   -0.7920   21.1150  -30.3670 C   0  0  0  0  0  0  0  0  0  0  0  0
   -1.2660   22.4300  -30.3570 C   0  0  0  0  0  0  0  0  0  0  0  0
   -1.9690   22.9140  -29.2470 C   0  0  0  0  0  0  0  0  0  0  0  0
   -2.4340   24.6080  -29.1620 S   0  0  0  0  0  0  0  0  0  0  0  0
   -1.2180   25.4820  -29.3140 O   0  0  0  0  0  0  0  0  0  0  0  0
   -3.0790   24.9170  -27.8400 O   0  0  0  0  0  0  0  0  0  0  0  0
   -3.5320   24.9220  -30.4600 N   0  0  0  0  0  0  0  0  0  0  0  0
   -4.6930   24.1110  -30.6640 C   0  0  0  0  0  0  0  0  0  0  0  0
   -4.6760   23.0620  -31.5920 C   0  0  0  0  0  0  0  0  0  0  0  0
   -5.8260   22.2900  -31.8200 C   0  0  0  0  0  0  0  0  0  0  0  0
   -5.7890   21.1850  -32.8010 C   0  0  0  0  0  0  0  0  0  0  0  0
   -6.8490   20.8770  -33.4150 O   0  0  0  0  0  0  0  0  0  0  0  0
   -4.5700   20.4700  -33.0950 N   0  0  0  0  0  0  0  0  0  0  0  0
   -4.6430   19.1040  -33.6300 C   0  0  0  0  0  0  0  0  0  0  0  0
   -3.4340   18.2880  -33.1610 C   0  0  0  0  0  0  0  0  0  0  0  0
   -2.1710   19.0210  -33.3370 N   0  0  0  0  0  0  0  0  0  0  0  0
   -0.9070   18.3600  -33.1090 C   0  0  0  0  0  0  0  0  0  0  0  0
   -0.8360   17.0430  -32.3980 C   0  0  0  0  0  0  0  0  0  0  0  0
    0.1650   18.8750  -33.5270 O   0  0  0  0  0  0  0  0  0  0  0  0
   -2.2000   20.4010  -33.8470 C   0  0  0  0  0  0  0  0  0  0  0  0
   -3.2890   21.1990  -33.1230 C   0  0  0  0  0  0  0  0  0  0  0  0
   -7.0080   22.6010  -31.1320 C   0  0  0  0  0  0  0  0  0  0  0  0
   -7.0240   23.6350  -30.1930 C   0  0  0  0  0  0  0  0  0  0  0  0
   -5.8680   24.3880  -29.9490 C   0  0  0  0  0  0  0  0  0  0  0  0
   -5.8890   25.4280  -29.0180 O   0  0  0  0  0  0  0  0  0  0  0  0
   -2.1990   22.0740  -28.1510 C   0  0  0  0  0  0  0  0  0  0  0  0
   -1.7230   20.7590  -28.1590 C   0  0  0  0  0  0  0  0  0  0  0  0
    2.0838   19.5218  -27.4063 H   0  0  0  0  0  0  0  0  0  0  0  0
    2.5754   18.7699  -28.9618 H   0  0  0  0  0  0  0  0  0  0  0  0
    1.5619   20.2529  -28.9618 H   0  0  0  0  0  0  0  0  0  0  0  0
    0.7717   17.4252  -28.7300 H   0  0  0  0  0  0  0  0  0  0  0  0
    0.1012   18.4470  -27.4014 H   0  0  0  0  0  0  0  0  0  0  0  0
   -0.2515   20.7372  -31.2474 H   0  0  0  0  0  0  0  0  0  0  0  0
   -1.0865   23.0853  -31.2221 H   0  0  0  0  0  0  0  0  0  0  0  0
   -3.7526   22.8410  -32.1475 H   0  0  0  0  0  0  0  0  0  0  0  0
   -5.5662   18.6231  -33.2744 H   0  0  0  0  0  0  0  0  0  0  0  0
   -4.6424   19.1480  -34.7291 H   0  0  0  0  0  0  0  0  0  0  0  0
   -3.5596   18.0484  -32.0948 H   0  0  0  0  0  0  0  0  0  0  0  0
   -3.3839   17.3745  -33.7717 H   0  0  0  0  0  0  0  0  0  0  0  0
   -0.8451   17.2121  -31.3111 H   0  0  0  0  0  0  0  0  0  0  0  0
   -1.7022   16.4267  -32.6805 H   0  0  0  0  0  0  0  0  0  0  0  0
    0.0915   16.5234  -32.6805 H   0  0  0  0  0  0  0  0  0  0  0  0
   -1.2229   20.8753  -33.6728 H   0  0  0  0  0  0  0  0  0  0  0  0
   -2.4174   20.3853  -34.9252 H   0  0  0  0  0  0  0  0  0  0  0  0
   -2.9642   21.3893  -32.0894 H   0  0  0  0  0  0  0  0  0  0  0  0
   -3.4426   22.1425  -33.6673 H   0  0  0  0  0  0  0  0  0  0  0  0
   -7.9257   22.0286  -31.3326 H   0  0  0  0  0  0  0  0  0  0  0  0
   -7.9493   23.8593  -29.6421 H   0  0  0  0  0  0  0  0  0  0  0  0
   -5.0660   25.6730  -28.4750 H   0  0  0  0  0  0  0  0  0  0  0  0
   -2.7562   22.4497  -27.2802 H   0  0  0  0  0  0  0  0  0  0  0  0
   -1.9145   20.1013  -27.2983 H   0  0  0  0  0  0  0  0  0  0  0  0
  1  2  1  0
  2  3  1  0
  3  4  1  0
  4  5  2  0
  5  6  1  0
  6  7  2  0
  7  8  1  0
  8  9  2  0
  8 10  2  0
  8 11  1  0
 11 12  1  0
 12 13  2  0
 13 14  1  0
 14 15  1  0
 15 16  2  0
 15 17  1  0
 17 18  1  0
 18 19  1  0
 19 20  1  0
 20 21  1  0
 21 22  1  0
 21 23  2  0
 20 24  1  0
 24 25  1  0
 14 26  2  0
 26 27  1  0
 27 28  2  0
 28 29  1  0
  7 30  1  0
 30 31  2  0
 31  4  1  0
 28 12  1  0
 25 17  1  0
  1 32  1  0
  1 33  1  0
  1 34  1  0
  2 35  1  0
  2 36  1  0
  5 37  1  0
  6 38  1  0
 13 39  1  0
 18 40  1  0
 18 41  1  0
 19 42  1  0
 19 43  1  0
 22 44  1  0
 22 45  1  0
 22 46  1  0
 24 47  1  0
 24 48  1  0
 25 49  1  0
 25 50  1  0
 26 51  1  0
 27 52  1  0
 29 53  1  0
 30 54  1  0
 31 55  1  0
M  CHG  1  11  -1
M  END
>  <UniqueID>  (19) 
19

>  <SMILES>  (19) 
CCOc1ccc(S(=O)(=O)[N-]c2cc(C(=O)N3CCN(C(C)=O)CC3)ccc2O)cc1

>  <Energy>  (19) 
65.3993566487834

>  <Genealogy>  (19) 
CCOc1ccc(S(=O)(=O)[N-]c2cc(C(=O)N3CCN(C(C)=O)CC3)ccc2O)cc1 (protonated)
CCOc1ccc(S(=O)(=O)[N-]c2cc(C(=O)N3CCN(C(C)=O)CC3)ccc2O)cc1 (3D coordinates assigned)
CCOc1ccc(S(=O)(=O)[N-]c2cc(C(=O)N3CCN(C(C)=O)CC3)ccc2O)cc1 (nonaromatic ring conformer: 65.3993566487834 kcal/mol)

>  <smiles>  (19) 
CCOc1ccc(S(=O)(=O)Nc2cc(C(=O)N3CCN(C(C)=O)CC3)ccc2O)cc1

>  <score_type>  (19) 
oracle

>  <origin>  (19) 
adgpu

>  <m_score__min__energy>  (19) 
-11.18

>  <m_primary>  (19) 
energy

$$$$
19:0
     RDKit          3D

 54 57  0  0  0  0  0  0  0  0999 V2000
   -0.8510   30.4160  -27.2220 C   0  0  0  0  0  0  0  0  0  0  0  0
    0.3450   29.6560  -26.7410 C   0  0  0  0  0  0  0  0  0  0  0  0
    1.4560   29.8620  -27.2970 O   0  0  0  0  0  0  0  0  0  0  0  0
    0.2360   28.7390  -25.6350 N   0  0  0  0  0  0  0  0  0  0  0  0
    0.8070   28.9900  -24.3070 C   0  0  0  0  0  0  0  0  0  0  0  0
    0.5490   27.7140  -23.4740 C   0  0  0  0  0  0  0  0  0  0  0  0
   -0.1990   26.8370  -24.4120 C   0  0  0  0  0  0  0  0  0  0  0  0
   -0.6980   25.5580  -24.1630 C   0  0  0  0  0  0  0  0  0  0  0  0
   -1.3980   24.9000  -25.1840 C   0  0  0  0  0  0  0  0  0  0  0  0
   -1.6080   25.5280  -26.4280 C   0  0  0  0  0  0  0  0  0  0  0  0
   -2.3240   24.8140  -27.4470 N   0  0  0  0  0  0  0  0  0  0  0  0
   -2.1220   24.9400  -28.8590 C   0  0  0  0  0  0  0  0  0  0  0  0
   -0.9700   24.8140  -29.3550 O   0  0  0  0  0  0  0  0  0  0  0  0
   -3.2330   25.2670  -29.6980 N   0  0  0  0  0  0  0  0  0  0  0  0
   -4.1470   24.2890  -30.2090 C   0  0  0  0  0  0  0  0  0  0  0  0
   -5.5180   24.5060  -30.0430 C   0  0  0  0  0  0  0  0  0  0  0  0
   -6.4450   23.6240  -30.6010 C   0  0  0  0  0  0  0  0  0  0  0  0
   -6.0070   22.5160  -31.3240 C   0  0  0  0  0  0  0  0  0  0  0  0
   -4.6370   22.2580  -31.4720 C   0  0  0  0  0  0  0  0  0  0  0  0
   -4.1160   20.8370  -32.3930 S   0  0  0  0  0  0  0  0  0  0  0  0
   -3.1030   20.0700  -31.5870 O   0  0  0  0  0  0  0  0  0  0  0  0
   -3.4480   21.2760  -33.6660 O   0  0  0  0  0  0  0  0  0  0  0  0
   -5.4550   19.7820  -32.7740 N   0  0  0  0  0  0  0  0  0  0  0  0
   -5.8900   19.0390  -31.5830 C   0  0  0  0  0  0  0  0  0  0  0  0
   -7.0990   18.1470  -31.9360 C   0  0  0  0  0  0  0  0  0  0  0  0
   -7.3450   18.0980  -33.3310 O   0  0  0  0  0  0  0  0  0  0  0  0
   -6.1580   17.7530  -34.0180 C   0  0  0  0  0  0  0  0  0  0  0  0
   -5.0850   18.8480  -33.8510 C   0  0  0  0  0  0  0  0  0  0  0  0
   -3.6980   23.1290  -30.8840 C   0  0  0  0  0  0  0  0  0  0  0  0
   -2.3380   22.8180  -30.9600 O   0  0  0  0  0  0  0  0  0  0  0  0
   -1.0690   26.8130  -26.6590 C   0  0  0  0  0  0  0  0  0  0  0  0
   -0.3620   27.4460  -25.6270 C   0  0  0  0  0  0  0  0  0  0  0  0
   -1.4254   30.7810  -26.3578 H   0  0  0  0  0  0  0  0  0  0  0  0
   -0.5217   31.2709  -27.8309 H   0  0  0  0  0  0  0  0  0  0  0  0
   -1.4851   29.7548  -27.8309 H   0  0  0  0  0  0  0  0  0  0  0  0
    1.8875   29.1803  -24.3870 H   0  0  0  0  0  0  0  0  0  0  0  0
    0.3501   29.8731  -23.8364 H   0  0  0  0  0  0  0  0  0  0  0  0
    1.4959   27.2457  -23.1674 H   0  0  0  0  0  0  0  0  0  0  0  0
    0.0004   27.9130  -22.5416 H   0  0  0  0  0  0  0  0  0  0  0  0
   -0.5453   25.0761  -23.1860 H   0  0  0  0  0  0  0  0  0  0  0  0
   -1.7865   23.8852  -25.0127 H   0  0  0  0  0  0  0  0  0  0  0  0
   -5.8683   25.3768  -29.4694 H   0  0  0  0  0  0  0  0  0  0  0  0
   -7.5223   23.8037  -30.4699 H   0  0  0  0  0  0  0  0  0  0  0  0
   -6.7423   21.8383  -31.7823 H   0  0  0  0  0  0  0  0  0  0  0  0
   -5.0634   18.4083  -31.2239 H   0  0  0  0  0  0  0  0  0  0  0  0
   -6.1813   19.7512  -30.7969 H   0  0  0  0  0  0  0  0  0  0  0  0
   -6.9022   17.1264  -31.5759 H   0  0  0  0  0  0  0  0  0  0  0  0
   -7.9877   18.5801  -31.4536 H   0  0  0  0  0  0  0  0  0  0  0  0
   -5.7711   16.8057  -33.6144 H   0  0  0  0  0  0  0  0  0  0  0  0
   -6.3898   17.6497  -35.0883 H   0  0  0  0  0  0  0  0  0  0  0  0
   -4.1228   18.3755  -33.6041 H   0  0  0  0  0  0  0  0  0  0  0  0
   -5.0046   19.4099  -34.7932 H   0  0  0  0  0  0  0  0  0  0  0  0
   -1.6180   23.3820  -30.5280 H   0  0  0  0  0  0  0  0  0  0  0  0
   -1.2017   27.3086  -27.6320 H   0  0  0  0  0  0  0  0  0  0  0  0
  1  2  1  0
  2  3  2  0
  2  4  1  0
  4  5  1  0
  5  6  1  0
  6  7  1  0
  7  8  2  0
  8  9  1  0
  9 10  2  0
 10 11  1  0
 11 12  1  0
 12 13  2  0
 12 14  1  0
 14 15  1  0
 15 16  2  0
 16 17  1  0
 17 18  2  0
 18 19  1  0
 19 20  1  0
 20 21  2  0
 20 22  2  0
 20 23  1  0
 23 24  1  0
 24 25  1  0
 25 26  1  0
 26 27  1  0
 27 28  1  0
 19 29  2  0
 29 30  1  0
 10 31  1  0
 31 32  2  0
 32  4  1  0
 32  7  1  0
 29 15  1  0
 28 23  1  0
  1 33  1  0
  1 34  1  0
  1 35  1  0
  5 36  1  0
  5 37  1  0
  6 38  1  0
  6 39  1  0
  8 40  1  0
  9 41  1  0
 16 42  1  0
 17 43  1  0
 18 44  1  0
 24 45  1  0
 24 46  1  0
 25 47  1  0
 25 48  1  0
 27 49  1  0
 27 50  1  0
 28 51  1  0
 28 52  1  0
 30 53  1  0
 31 54  1  0
M  CHG  2  11  -1  14  -1
M  END
>  <UniqueID>  (20) 
20

>  <SMILES>  (20) 
CC(=O)N1CCc2ccc([N-]C(=O)[N-]c3cccc(S(=O)(=O)N4CCOCC4)c3O)cc21

>  <Energy>  (20) 
89.20263173166335

>  <Genealogy>  (20) 
CC(=O)N1CCc2ccc([N-]C(=O)[N-]c3cccc(S(=O)(=O)N4CCOCC4)c3O)cc21 (protonated)
CC(=O)N1CCc2ccc([N-]C(=O)[N-]c3cccc(S(=O)(=O)N4CCOCC4)c3O)cc21 (3D coordinates assigned)
CC(=O)N1CCc2ccc([N-]C(=O)[N-]c3cccc(S(=O)(=O)N4CCOCC4)c3O)cc21 (nonaromatic ring conformer: 89.20263173166335 kcal/mol)

>  <smiles>  (20) 
CC(=O)N1CCc2ccc(NC(=O)Nc3cccc(S(=O)(=O)N4CCOCC4)c3O)cc21

>  <score_type>  (20) 
oracle

>  <origin>  (20) 
adgpu

>  <m_score__min__energy>  (20) 
-14.52

>  <m_primary>  (20) 
energy

$$$$
20:0
     RDKit          3D

 62 65  0  0  0  0  0  0  0  0999 V2000
   -4.4867   19.6836  -26.3968 H   0  0  0  0  0  0  0  0  0  0  0  0
   -3.4420   19.6240  -26.7360 C   0  0  0  0  0  0  0  0  0  0  0  0
   -2.9150   20.6260  -27.5530 C   0  0  0  0  0  0  0  0  0  0  0  0
   -3.5420   21.4798  -27.8494 H   0  0  0  0  0  0  0  0  0  0  0  0
   -1.5900   20.5450  -27.9950 C   0  0  0  0  0  0  0  0  0  0  0  0
   -1.1749   21.3445  -28.6262 H   0  0  0  0  0  0  0  0  0  0  0  0
   -0.7880   19.4520  -27.6390 C   0  0  0  0  0  0  0  0  0  0  0  0
    0.5750   19.4240  -28.0930 N   0  0  0  0  0  0  0  0  0  0  0  0
    0.9810   19.3370  -29.3250 C   0  0  0  0  0  0  0  0  0  0  0  0
    0.1640   19.3370  -30.3950 N   0  0  0  0  0  0  0  0  0  0  0  0
    0.9180   19.2210  -31.4810 N   0  0  0  0  0  0  0  0  0  0  0  0
    0.3900   19.2760  -32.8660 C   0  0  0  0  0  0  0  0  0  0  0  0
    1.4550   19.9320  -33.7880 C   0  0  0  0  0  0  0  0  0  0  0  0
    2.3442   20.1643  -33.1836 H   0  0  0  0  0  0  0  0  0  0  0  0
    1.6753   19.2144  -34.5921 H   0  0  0  0  0  0  0  0  0  0  0  0
    0.9890   21.1710  -34.4270 C   0  0  0  0  0  0  0  0  0  0  0  0
    0.6220   22.1480  -34.9300 N   0  0  0  0  0  0  0  0  0  0  0  0
    0.0360   17.8290  -33.3590 C   0  0  0  0  0  0  0  0  0  0  0  0
   -0.1819   17.1999  -32.4834 H   0  0  0  0  0  0  0  0  0  0  0  0
    0.8980   17.4445  -33.9239 H   0  0  0  0  0  0  0  0  0  0  0  0
   -1.1820   17.8160  -34.2920 C   0  0  0  0  0  0  0  0  0  0  0  0
   -1.3452   16.7895  -34.6520 H   0  0  0  0  0  0  0  0  0  0  0  0
   -0.9807   18.4985  -35.1308 H   0  0  0  0  0  0  0  0  0  0  0  0
   -2.4090   18.2840  -33.5950 N   0  0  0  0  0  0  0  0  0  0  0  0
   -3.4510   18.6900  -34.5620 C   0  0  0  0  0  0  0  0  0  0  0  0
   -3.5850   17.8893  -35.3042 H   0  0  0  0  0  0  0  0  0  0  0  0
   -3.1305   19.6203  -35.0537 H   0  0  0  0  0  0  0  0  0  0  0  0
   -4.7660   18.9420  -33.8640 C   0  0  0  0  0  0  0  0  0  0  0  0
   -5.6750   17.8850  -33.6980 C   0  0  0  0  0  0  0  0  0  0  0  0
   -5.4145   16.8787  -34.0577 H   0  0  0  0  0  0  0  0  0  0  0  0
   -6.9080   18.1030  -33.0790 C   0  0  0  0  0  0  0  0  0  0  0  0
   -7.6127   17.2681  -32.9514 H   0  0  0  0  0  0  0  0  0  0  0  0
   -7.2500   19.3820  -32.6200 C   0  0  0  0  0  0  0  0  0  0  0  0
   -8.8140   19.6590  -31.8600 S   0  0  0  0  0  0  0  0  0  0  0  0
   -9.0990   18.5680  -30.8660 O   0  0  0  0  0  0  0  0  0  0  0  0
   -9.8950   19.6540  -32.9050 O   0  0  0  0  0  0  0  0  0  0  0  0
   -8.7950   21.2310  -31.0290 C   0  0  0  0  0  0  0  0  0  0  0  0
   -8.7969   21.0705  -29.9408 H   0  0  0  0  0  0  0  0  0  0  0  0
   -7.8901   21.7866  -31.3161 H   0  0  0  0  0  0  0  0  0  0  0  0
   -9.6862   21.8083  -31.3161 H   0  0  0  0  0  0  0  0  0  0  0  0
   -6.3540   20.4430  -32.7980 C   0  0  0  0  0  0  0  0  0  0  0  0
   -6.6244   21.4510  -32.4505 H   0  0  0  0  0  0  0  0  0  0  0  0
   -5.1170   20.2290  -33.4150 C   0  0  0  0  0  0  0  0  0  0  0  0
   -4.2720   21.2770  -33.5810 F   0  0  0  0  0  0  0  0  0  0  0  0
   -2.1530   19.3520  -32.5900 C   0  0  0  0  0  0  0  0  0  0  0  0
   -2.0260   18.8850  -31.6022 H   0  0  0  0  0  0  0  0  0  0  0  0
   -3.0123   20.0386  -32.6024 H   0  0  0  0  0  0  0  0  0  0  0  0
   -0.8960   20.1680  -32.9150 C   0  0  0  0  0  0  0  0  0  0  0  0
   -0.7965   20.9807  -32.1804 H   0  0  0  0  0  0  0  0  0  0  0  0
   -0.9987   20.5734  -33.9324 H   0  0  0  0  0  0  0  0  0  0  0  0
    2.2210   19.1890  -31.1110 C   0  0  0  0  0  0  0  0  0  0  0  0
    3.0775   19.1165  -31.7974 H   0  0  0  0  0  0  0  0  0  0  0  0
    2.3020   19.2620  -29.7340 C   0  0  0  0  0  0  0  0  0  0  0  0
    3.5460   19.2490  -28.9360 C   0  0  0  0  0  0  0  0  0  0  0  0
    4.6520   19.3870  -29.5240 O   0  0  0  0  0  0  0  0  0  0  0  0
    3.5310   19.1000  -27.5140 N   0  0  0  0  0  0  0  0  0  0  0  0
    4.4330   19.0360  -26.9910 H   0  0  0  0  0  0  0  0  0  0  0  0
    2.6490   19.1420  -26.9620 H   0  0  0  0  0  0  0  0  0  0  0  0
   -1.3170   18.4600  -26.7890 C   0  0  0  0  0  0  0  0  0  0  0  0
   -0.6863   17.6168  -26.4708 H   0  0  0  0  0  0  0  0  0  0  0  0
   -2.6420   18.5450  -26.3490 C   0  0  0  0  0  0  0  0  0  0  0  0
   -3.0553   17.7612  -25.6972 H   0  0  0  0  0  0  0  0  0  0  0  0
  1  2  1  0
  2  3  2  0
  3  4  1  0
  3  5  1  0
  5  6  1  0
  5  7  2  0
  7  8  1  0
  8  9  2  0
  9 10  1  0
 10 11  1  0
 11 12  1  0
 12 13  1  0
 13 14  1  0
 13 15  1  0
 13 16  1  0
 16 17  3  0
 12 18  1  0
 18 19  1  0
 18 20  1  0
 18 21  1  0
 21 22  1  0
 21 23  1  0
 21 24  1  0
 24 25  1  0
 25 26  1  0
 25 27  1  0
 25 28  1  0
 28 29  2  0
 29 30  1  0
 29 31  1  0
 31 32  1  0
 31 33  2  0
 33 34  1  0
 34 35  2  0
 34 36  2  0
 34 37  1  0
 37 38  1  0
 37 39  1  0
 37 40  1  0
 33 41  1  0
 41 42  1  0
 41 43  2  0
 43 44  1  0
 24 45  1  0
 45 46  1  0
 45 47  1  0
 45 48  1  0
 48 49  1  0
 48 50  1  0
 11 51  1  0
 51 52  1  0
 51 53  2  0
 53 54  1  0
 54 55  2  0
 54 56  1  0
 56 57  1  0
 56 58  1  0
  7 59  1  0
 59 60  1  0
 59 61  2  0
 61 62  1  0
 61  2  1  0
 53  9  1  0
 48 12  1  0
 43 28  1  0
M  CHG  1  10  -1
M  END
>  <UniqueID>  (21) 
21

>  <SMILES>  (21) 
CS(=O)(=O)c1ccc(CN2CCC(CC#N)(n3cc(C(N)=O)/c(=N/c4ccccc4)[n-]3)CC2)c(F)c1

>  <Energy>  (21) 
111.48518889794487

>  <Genealogy>  (21) 
CS(=O)(=O)c1ccc(CN2CCC(CC#N)(n3cc(C(N)=O)c(=Nc4ccccc4)[n-]3)CC2)c(F)c1 (protonated)
CS(=O)(=O)c1ccc(CN2CCC(CC#N)(n3cc(C(N)=O)/c(=N/c4ccccc4)[n-]3)CC2)c(F)c1 (cis-trans isomerization)
CS(=O)(=O)c1ccc(CN2CCC(CC#N)(n3cc(C(N)=O)/c(=N/c4ccccc4)[n-]3)CC2)c(F)c1 (3D coordinates assigned)
CS(=O)(=O)c1ccc(CN2CCC(CC#N)(n3cc(C(N)=O)/c(=N/c4ccccc4)[n-]3)CC2)c(F)c1 (nonaromatic ring conformer: 111.48518889794487 kcal/mol)

>  <smiles>  (21) 
CS(=O)(=O)c1ccc(CN2CCC(CC#N)(n3cc(C(N)=O)c(=Nc4ccccc4)[nH]3)CC2)c(F)c1

>  <score_type>  (21) 
oracle

>  <origin>  (21) 
adgpu

>  <m_score__min__energy>  (21) 
-10.35

>  <m_primary>  (21) 
energy

$$$$
21:0
     RDKit          3D

 68 71  0  0  0  0  0  0  0  0999 V2000
    0.1180   24.7640  -26.1190 C   0  0  0  0  0  0  0  0  0  0  0  0
    0.1960   23.2270  -26.0800 C   0  0  0  0  0  0  0  0  0  0  0  0
   -0.3180   22.7060  -24.7200 C   0  0  0  0  0  0  0  0  0  0  0  0
   -0.4760   22.5960  -27.2590 N   0  0  0  0  0  0  0  0  0  0  0  0
   -1.9630   22.5270  -27.0790 C   0  0  0  0  0  0  0  0  0  0  0  0
   -2.7600   23.2240  -28.1910 C   0  0  0  0  0  0  0  0  0  0  0  0
   -2.2900   22.7620  -29.5030 N   0  0  0  0  0  0  0  0  0  0  0  0
   -3.2140   22.4350  -30.5610 C   0  0  0  0  0  0  0  0  0  0  0  0
   -2.8960   21.5570  -31.4090 O   0  0  0  0  0  0  0  0  0  0  0  0
   -4.5210   23.1200  -30.6890 C   0  0  0  0  0  0  0  0  0  0  0  0
   -5.6910   22.3640  -30.8800 C   0  0  0  0  0  0  0  0  0  0  0  0
   -6.9350   22.9970  -31.0040 C   0  0  0  0  0  0  0  0  0  0  0  0
   -8.3970   22.0450  -31.2350 S   0  0  0  0  0  0  0  0  0  0  0  0
   -9.0740   21.8310  -29.9100 O   0  0  0  0  0  0  0  0  0  0  0  0
   -9.3540   22.7730  -32.1380 O   0  0  0  0  0  0  0  0  0  0  0  0
   -7.9660   20.4980  -31.9550 C   0  0  0  0  0  0  0  0  0  0  0  0
   -6.9690   20.4390  -32.9370 C   0  0  0  0  0  0  0  0  0  0  0  0
   -6.6060   19.2100  -33.4970 C   0  0  0  0  0  0  0  0  0  0  0  0
   -7.2380   18.0290  -33.0810 C   0  0  0  0  0  0  0  0  0  0  0  0
   -6.8200   16.7040  -33.6660 C   0  0  0  0  0  0  0  0  0  0  0  0
   -5.3700   16.4870  -33.4770 N   0  0  0  0  0  0  0  0  0  0  0  0
   -5.0800   15.0750  -33.1300 C   0  0  0  0  0  0  0  0  0  0  0  0
   -3.5760   14.7570  -33.2290 C   0  0  0  0  0  0  0  0  0  0  0  0
   -2.7900   15.9930  -33.2520 N   0  0  0  0  0  0  0  0  0  0  0  0
   -3.1090   16.7860  -34.4490 C   0  0  0  0  0  0  0  0  0  0  0  0
   -4.6300   16.8740  -34.6930 C   0  0  0  0  0  0  0  0  0  0  0  0
   -8.2260   18.0890  -32.0860 C   0  0  0  0  0  0  0  0  0  0  0  0
   -8.5870   19.3180  -31.5260 C   0  0  0  0  0  0  0  0  0  0  0  0
   -7.0180   24.3910  -30.9070 C   0  0  0  0  0  0  0  0  0  0  0  0
   -5.8630   25.1490  -30.7000 C   0  0  0  0  0  0  0  0  0  0  0  0
   -4.6180   24.5230  -30.5930 C   0  0  0  0  0  0  0  0  0  0  0  0
   -3.4820   25.3030  -30.4030 O   0  0  0  0  0  0  0  0  0  0  0  0
   -0.8520   22.5890  -29.7240 C   0  0  0  0  0  0  0  0  0  0  0  0
   -0.0490   23.1800  -28.5580 C   0  0  0  0  0  0  0  0  0  0  0  0
    0.0981   25.1563  -25.0915 H   0  0  0  0  0  0  0  0  0  0  0  0
    0.9971   25.1625  -26.6467 H   0  0  0  0  0  0  0  0  0  0  0  0
   -0.7969   25.0714  -26.6467 H   0  0  0  0  0  0  0  0  0  0  0  0
    1.2500   22.9239  -26.1654 H   0  0  0  0  0  0  0  0  0  0  0  0
    0.2014   23.2324  -23.9057 H   0  0  0  0  0  0  0  0  0  0  0  0
   -1.4001   22.8880  -24.6428 H   0  0  0  0  0  0  0  0  0  0  0  0
   -0.1214   21.6265  -24.6428 H   0  0  0  0  0  0  0  0  0  0  0  0
   -0.1480   21.6000  -27.2780 H   0  0  0  0  0  0  0  0  0  0  0  0
   -2.2594   21.4680  -27.0528 H   0  0  0  0  0  0  0  0  0  0  0  0
   -2.1949   23.0553  -26.1424 H   0  0  0  0  0  0  0  0  0  0  0  0
   -3.8279   22.9843  -28.0803 H   0  0  0  0  0  0  0  0  0  0  0  0
   -2.6149   24.3118  -28.1152 H   0  0  0  0  0  0  0  0  0  0  0  0
   -5.6293   21.2670  -30.9325 H   0  0  0  0  0  0  0  0  0  0  0  0
   -6.4703   21.3617  -33.2686 H   0  0  0  0  0  0  0  0  0  0  0  0
   -5.8215   19.1694  -34.2670 H   0  0  0  0  0  0  0  0  0  0  0  0
   -7.3748   15.8966  -33.1657 H   0  0  0  0  0  0  0  0  0  0  0  0
   -7.0412   16.7061  -34.7435 H   0  0  0  0  0  0  0  0  0  0  0  0
   -5.4166   14.8854  -32.1001 H   0  0  0  0  0  0  0  0  0  0  0  0
   -5.6126   14.4315  -33.8457 H   0  0  0  0  0  0  0  0  0  0  0  0
   -3.2758   14.1534  -32.3598 H   0  0  0  0  0  0  0  0  0  0  0  0
   -3.3908   14.2006  -34.1597 H   0  0  0  0  0  0  0  0  0  0  0  0
   -1.7760   15.7350  -33.2940 H   0  0  0  0  0  0  0  0  0  0  0  0
   -2.7105   17.8029  -34.3184 H   0  0  0  0  0  0  0  0  0  0  0  0
   -2.6527   16.2896  -35.3181 H   0  0  0  0  0  0  0  0  0  0  0  0
   -4.8942   17.9067  -34.9646 H   0  0  0  0  0  0  0  0  0  0  0  0
   -4.9005   16.1872  -35.5086 H   0  0  0  0  0  0  0  0  0  0  0  0
   -8.7180   17.1659  -31.7456 H   0  0  0  0  0  0  0  0  0  0  0  0
   -9.3614   19.3585  -30.7458 H   0  0  0  0  0  0  0  0  0  0  0  0
   -7.9943   24.8903  -30.9939 H   0  0  0  0  0  0  0  0  0  0  0  0
   -5.9337   26.2439  -30.6208 H   0  0  0  0  0  0  0  0  0  0  0  0
   -0.6265   21.5158  -29.8104 H   0  0  0  0  0  0  0  0  0  0  0  0
   -0.5708   23.1138  -30.6489 H   0  0  0  0  0  0  0  0  0  0  0  0
    1.0188   22.9666  -28.7134 H   0  0  0  0  0  0  0  0  0  0  0  0
   -0.2278   24.2649  -28.5271 H   0  0  0  0  0  0  0  0  0  0  0  0
  1  2  1  0
  2  3  1  0
  2  4  1  0
  4  5  1  0
  5  6  1  0
  6  7  1  0
  7  8  1  0
  8  9  2  0
  8 10  1  0
 10 11  2  0
 11 12  1  0
 12 13  1  0
 13 14  2  0
 13 15  2  0
 13 16  1  0
 16 17  2  0
 17 18  1  0
 18 19  2  0
 19 20  1  0
 20 21  1  0
 21 22  1  0
 22 23  1  0
 23 24  1  0
 24 25  1  0
 25 26  1  0
 19 27  1  0
 27 28  2  0
 12 29  2  0
 29 30  1  0
 30 31  2  0
 31 32  1  0
  7 33  1  0
 33 34  1  0
 34  4  1  0
 31 10  1  0
 28 16  1  0
 26 21  1  0
  1 35  1  0
  1 36  1  0
  1 37  1  0
  2 38  1  0
  3 39  1  0
  3 40  1  0
  3 41  1  0
  4 42  1  0
  5 43  1  0
  5 44  1  0
  6 45  1  0
  6 46  1  0
 11 47  1  0
 17 48  1  0
 18 49  1  0
 20 50  1  0
 20 51  1  0
 22 52  1  0
 22 53  1  0
 23 54  1  0
 23 55  1  0
 24 56  1  0
 25 57  1  0
 25 58  1  0
 26 59  1  0
 26 60  1  0
 27 61  1  0
 28 62  1  0
 29 63  1  0
 30 64  1  0
 33 65  1  0
 33 66  1  0
 34 67  1  0
 34 68  1  0
M  CHG  2   4   1  32  -1
M  END
>  <UniqueID>  (22) 
22

>  <SMILES>  (22) 
CC(C)[NH+]1CCN(C(=O)c2cc(S(=O)(=O)c3ccc(CN4CCNCC4)cc3)ccc2[O-])CC1

>  <Energy>  (22) 
92.31582797692904

>  <Genealogy>  (22) 
CC(C)[NH+]1CCN(C(=O)c2cc(S(=O)(=O)c3ccc(CN4CCNCC4)cc3)ccc2[O-])CC1 (protonated)
CC(C)[NH+]1CCN(C(=O)c2cc(S(=O)(=O)c3ccc(CN4CCNCC4)cc3)ccc2[O-])CC1 (3D coordinates assigned)
CC(C)[NH+]1CCN(C(=O)c2cc(S(=O)(=O)c3ccc(CN4CCNCC4)cc3)ccc2[O-])CC1 (nonaromatic ring conformer: 92.31582797692904 kcal/mol)

>  <smiles>  (22) 
CC(C)N1CCN(C(=O)c2cc(S(=O)(=O)c3ccc(CN4CCNCC4)cc3)ccc2O)CC1

>  <score_type>  (22) 
oracle

>  <origin>  (22) 
adgpu

>  <m_score__min__energy>  (22) 
-12.91

>  <m_primary>  (22) 
energy

$$$$
22:0
     RDKit          3D

 50 52  0  0  0  0  0  0  0  0999 V2000
   -0.8930   27.8390  -25.4590 C   0  0  0  0  0  0  0  0  0  0  0  0
   -1.0220   26.4160  -24.9960 C   0  0  0  0  0  0  0  0  0  0  0  0
   -0.9120   26.1740  -23.7660 O   0  0  0  0  0  0  0  0  0  0  0  0
   -1.1760   25.3010  -25.9650 C   0  0  0  0  0  0  0  0  0  0  0  0
   -1.7070   25.5700  -27.2400 C   0  0  0  0  0  0  0  0  0  0  0  0
   -1.8070   24.5660  -28.2110 C   0  0  0  0  0  0  0  0  0  0  0  0
   -2.3720   24.8990  -29.4880 N   0  0  0  0  0  0  0  0  0  0  0  0
   -4.0030   24.5560  -29.9700 S   0  0  0  0  0  0  0  0  0  0  0  0
   -4.5210   25.6830  -30.8170 O   0  0  0  0  0  0  0  0  0  0  0  0
   -4.8600   24.4320  -28.7410 O   0  0  0  0  0  0  0  0  0  0  0  0
   -4.0430   23.0320  -30.8520 C   0  0  0  0  0  0  0  0  0  0  0  0
   -3.3300   21.9320  -30.3600 C   0  0  0  0  0  0  0  0  0  0  0  0
   -3.3100   20.7290  -31.0720 C   0  0  0  0  0  0  0  0  0  0  0  0
   -3.9910   20.6220  -32.2990 C   0  0  0  0  0  0  0  0  0  0  0  0
   -4.0000   19.4090  -33.0640 N   0  0  0  0  0  0  0  0  0  0  0  0
   -5.1420   18.7420  -33.6160 C   0  0  0  0  0  0  0  0  0  0  0  0
   -5.7720   19.2330  -34.5910 O   0  0  0  0  0  0  0  0  0  0  0  0
   -5.5950   17.4500  -33.0170 C   0  0  0  0  0  0  0  0  0  0  0  0
   -6.1850   17.6890  -31.3050 S   0  0  0  0  0  0  0  0  0  0  0  0
   -7.3870   18.9470  -31.7200 C   0  0  0  0  0  0  0  0  0  0  0  0
   -8.5170   18.6050  -32.3940 N   0  0  0  0  0  0  0  0  0  0  0  0
   -9.4620   19.5350  -32.6910 C   0  0  0  0  0  0  0  0  0  0  0  0
   -9.2760   20.8600  -32.3010 C   0  0  0  0  0  0  0  0  0  0  0  0
   -8.1050   21.1990  -31.6120 C   0  0  0  0  0  0  0  0  0  0  0  0
   -7.8840   22.5990  -31.1390 C   0  0  0  0  0  0  0  0  0  0  0  0
   -7.1890   20.2340  -31.3320 N   0  0  0  0  0  0  0  0  0  0  0  0
   -4.7290   21.7140  -32.7680 C   0  0  0  0  0  0  0  0  0  0  0  0
   -4.7550   22.9140  -32.0540 C   0  0  0  0  0  0  0  0  0  0  0  0
   -1.3410   23.2750  -27.9130 C   0  0  0  0  0  0  0  0  0  0  0  0
   -0.8210   22.9910  -26.6520 C   0  0  0  0  0  0  0  0  0  0  0  0
   -0.7540   23.9800  -25.6660 C   0  0  0  0  0  0  0  0  0  0  0  0
   -0.2890   23.6040  -24.4020 O   0  0  0  0  0  0  0  0  0  0  0  0
   -0.8326   28.5048  -24.5854 H   0  0  0  0  0  0  0  0  0  0  0  0
    0.0185   27.9461  -26.0653 H   0  0  0  0  0  0  0  0  0  0  0  0
   -1.7704   28.1083  -26.0653 H   0  0  0  0  0  0  0  0  0  0  0  0
   -2.0499   26.5877  -27.4783 H   0  0  0  0  0  0  0  0  0  0  0  0
   -2.7832   22.0147  -29.4091 H   0  0  0  0  0  0  0  0  0  0  0  0
   -2.7606   19.8639  -30.6722 H   0  0  0  0  0  0  0  0  0  0  0  0
   -6.4146   17.0399  -33.6254 H   0  0  0  0  0  0  0  0  0  0  0  0
   -4.7420   16.7557  -32.9985 H   0  0  0  0  0  0  0  0  0  0  0  0
  -10.3709   19.2431  -33.2375 H   0  0  0  0  0  0  0  0  0  0  0  0
  -10.0336   21.6240  -32.5298 H   0  0  0  0  0  0  0  0  0  0  0  0
   -7.8810   22.6183  -30.0392 H   0  0  0  0  0  0  0  0  0  0  0  0
   -6.9170   22.9647  -31.5148 H   0  0  0  0  0  0  0  0  0  0  0  0
   -8.6913   23.2447  -31.5148 H   0  0  0  0  0  0  0  0  0  0  0  0
   -5.2940   21.6267  -33.7078 H   0  0  0  0  0  0  0  0  0  0  0  0
   -5.3348   23.7676  -32.4351 H   0  0  0  0  0  0  0  0  0  0  0  0
   -1.3867   22.4856  -28.6777 H   0  0  0  0  0  0  0  0  0  0  0  0
   -0.4588   21.9765  -26.4295 H   0  0  0  0  0  0  0  0  0  0  0  0
    0.0660   24.2620  -23.7240 H   0  0  0  0  0  0  0  0  0  0  0  0
  1  2  1  0
  2  3  2  0
  2  4  1  0
  4  5  2  0
  5  6  1  0
  6  7  1  0
  7  8  1  0
  8  9  2  0
  8 10  2  0
  8 11  1  0
 11 12  2  0
 12 13  1  0
 13 14  2  0
 14 15  1  0
 15 16  1  0
 16 17  2  0
 16 18  1  0
 18 19  1  0
 19 20  1  0
 20 21  2  0
 21 22  1  0
 22 23  2  0
 23 24  1  0
 24 25  1  0
 24 26  2  0
 14 27  1  0
 27 28  2  0
  6 29  2  0
 29 30  1  0
 30 31  2  0
 31 32  1  0
 31  4  1  0
 28 11  1  0
 26 20  1  0
  1 33  1  0
  1 34  1  0
  1 35  1  0
  5 36  1  0
 12 37  1  0
 13 38  1  0
 18 39  1  0
 18 40  1  0
 22 41  1  0
 23 42  1  0
 25 43  1  0
 25 44  1  0
 25 45  1  0
 27 46  1  0
 28 47  1  0
 29 48  1  0
 30 49  1  0
 32 50  1  0
M  CHG  2   7  -1  15  -1
M  END
>  <UniqueID>  (23) 
23

>  <SMILES>  (23) 
CC(=O)c1cc([N-]S(=O)(=O)c2ccc([N-]C(=O)CSc3nccc(C)n3)cc2)ccc1O

>  <Energy>  (23) 
57.32910537139701

>  <Genealogy>  (23) 
CC(=O)c1cc([N-]S(=O)(=O)c2ccc([N-]C(=O)CSc3nccc(C)n3)cc2)ccc1O (protonated)
CC(=O)c1cc([N-]S(=O)(=O)c2ccc([N-]C(=O)CSc3nccc(C)n3)cc2)ccc1O (3D coordinates assigned)
CC(=O)c1cc([N-]S(=O)(=O)c2ccc([N-]C(=O)CSc3nccc(C)n3)cc2)ccc1O (optimized conformer: 57.32910537139701 kcal/mol)

>  <smiles>  (23) 
CC(=O)c1cc(NS(=O)(=O)c2ccc(NC(=O)CSc3nccc(C)n3)cc2)ccc1O

>  <score_type>  (23) 
oracle

>  <origin>  (23) 
adgpu

>  <m_score__min__energy>  (23) 
-11.5

>  <m_primary>  (23) 
energy

$$$$
23:0
     RDKit          3D

 50 53  0  0  0  0  0  0  0  0999 V2000
    1.6983   22.1668  -35.3704 H   0  0  0  0  0  0  0  0  0  0  0  0
    2.2490   21.2190  -35.2790 C   0  0  0  0  0  0  0  0  0  0  0  0
    3.5880   21.1160  -35.7960 C   0  0  0  0  0  0  0  0  0  0  0  0
    4.6660   21.0340  -36.2110 N   0  0  0  0  0  0  0  0  0  0  0  0
    1.6710   20.1680  -34.6880 C   0  0  0  0  0  0  0  0  0  0  0  0
    2.2484   19.2355  -34.6041 H   0  0  0  0  0  0  0  0  0  0  0  0
    0.2920   20.1920  -34.1390 C   0  0  0  0  0  0  0  0  0  0  0  0
   -0.7060   19.2980  -34.5710 C   0  0  0  0  0  0  0  0  0  0  0  0
   -0.4693   18.5404  -35.3326 H   0  0  0  0  0  0  0  0  0  0  0  0
   -1.9970   19.3680  -34.0370 C   0  0  0  0  0  0  0  0  0  0  0  0
   -2.7696   18.6647  -34.3810 H   0  0  0  0  0  0  0  0  0  0  0  0
   -2.3130   20.3310  -33.0640 C   0  0  0  0  0  0  0  0  0  0  0  0
   -3.6360   20.4480  -32.5230 N   0  0  0  0  0  0  0  0  0  0  0  0
   -4.5460   21.5280  -32.7700 C   0  0  0  0  0  0  0  0  0  0  0  0
   -4.1610   22.5000  -33.4720 O   0  0  0  0  0  0  0  0  0  0  0  0
   -5.8900   21.5750  -32.1380 C   0  0  0  0  0  0  0  0  0  0  0  0
   -6.3220   22.7820  -31.5430 C   0  0  0  0  0  0  0  0  0  0  0  0
   -5.4480   23.9240  -31.5530 N   0  0  0  0  0  0  0  0  0  0  0  0
   -4.6680   24.6210  -30.1720 S   0  0  0  0  0  0  0  0  0  0  0  0
   -5.6310   24.6360  -29.0200 O   0  0  0  0  0  0  0  0  0  0  0  0
   -4.2750   26.0350  -30.4950 O   0  0  0  0  0  0  0  0  0  0  0  0
   -3.2590   23.6570  -29.7240 C   0  0  0  0  0  0  0  0  0  0  0  0
   -3.3300   22.2560  -29.7460 C   0  0  0  0  0  0  0  0  0  0  0  0
   -4.2620   21.7596  -30.0541 H   0  0  0  0  0  0  0  0  0  0  0  0
   -2.2210   21.4880  -29.3780 C   0  0  0  0  0  0  0  0  0  0  0  0
   -2.2825   20.3899  -29.3964 H   0  0  0  0  0  0  0  0  0  0  0  0
   -1.0350   22.1140  -28.9870 C   0  0  0  0  0  0  0  0  0  0  0  0
   -0.1647   21.5088  -28.6932 H   0  0  0  0  0  0  0  0  0  0  0  0
   -0.9540   23.5090  -28.9690 C   0  0  0  0  0  0  0  0  0  0  0  0
   -0.0180   23.9996  -28.6636 H   0  0  0  0  0  0  0  0  0  0  0  0
   -2.0590   24.2840  -29.3380 C   0  0  0  0  0  0  0  0  0  0  0  0
   -1.9560   25.6710  -29.3210 O   0  0  0  0  0  0  0  0  0  0  0  0
   -7.6050   22.8590  -30.9790 C   0  0  0  0  0  0  0  0  0  0  0  0
   -7.9357   23.7959  -30.5068 H   0  0  0  0  0  0  0  0  0  0  0  0
   -8.4640   21.7640  -31.0100 C   0  0  0  0  0  0  0  0  0  0  0  0
   -9.4730   21.8480  -30.5801 H   0  0  0  0  0  0  0  0  0  0  0  0
   -8.0510   20.5570  -31.5850 C   0  0  0  0  0  0  0  0  0  0  0  0
   -8.9190   19.4530  -31.5920 C   0  0  0  0  0  0  0  0  0  0  0  0
   -9.9302   19.5483  -31.1697 H   0  0  0  0  0  0  0  0  0  0  0  0
   -8.5030   18.2350  -32.1330 C   0  0  0  0  0  0  0  0  0  0  0  0
   -9.1896   17.3757  -32.1431 H   0  0  0  0  0  0  0  0  0  0  0  0
   -7.2200   18.1060  -32.6600 C   0  0  0  0  0  0  0  0  0  0  0  0
   -6.8920   17.1402  -33.0719 H   0  0  0  0  0  0  0  0  0  0  0  0
   -6.3480   19.1970  -32.6680 C   0  0  0  0  0  0  0  0  0  0  0  0
   -5.3366   19.0828  -33.0851 H   0  0  0  0  0  0  0  0  0  0  0  0
   -6.7520   20.4450  -32.1460 C   0  0  0  0  0  0  0  0  0  0  0  0
   -1.3340   21.2420  -32.6600 C   0  0  0  0  0  0  0  0  0  0  0  0
   -1.5810   22.0181  -31.9206 H   0  0  0  0  0  0  0  0  0  0  0  0
   -0.0420   21.1730  -33.1900 C   0  0  0  0  0  0  0  0  0  0  0  0
    0.7207   21.8940  -32.8607 H   0  0  0  0  0  0  0  0  0  0  0  0
  1  2  1  0
  2  3  1  0
  3  4  3  0
  2  5  2  0
  5  6  1  0
  5  7  1  0
  7  8  2  0
  8  9  1  0
  8 10  1  0
 10 11  1  0
 10 12  2  0
 12 13  1  0
 13 14  1  0
 14 15  2  0
 14 16  1  0
 16 17  1  0
 17 18  1  0
 18 19  1  0
 19 20  2  0
 19 21  2  0
 19 22  1  0
 22 23  2  0
 23 24  1  0
 23 25  1  0
 25 26  1  0
 25 27  2  0
 27 28  1  0
 27 29  1  0
 29 30  1  0
 29 31  2  0
 31 32  1  0
 17 33  2  0
 33 34  1  0
 33 35  1  0
 35 36  1  0
 35 37  2  0
 37 38  1  0
 38 39  1  0
 38 40  2  0
 40 41  1  0
 40 42  1  0
 42 43  1  0
 42 44  2  0
 44 45  1  0
 44 46  1  0
 12 47  1  0
 47 48  1  0
 47 49  2  0
 49 50  1  0
 49  7  1  0
 46 16  2  0
 31 22  1  0
 46 37  1  0
M  CHG  3  13  -1  18  -1  32  -1
M  END
>  <UniqueID>  (24) 
24

>  <SMILES>  (24) 
N#C/C=C/c1ccc([N-]C(=O)c2c([N-]S(=O)(=O)c3ccccc3[O-])ccc3ccccc23)cc1

>  <Energy>  (24) 
73.84124094451415

>  <Genealogy>  (24) 
N#CC=Cc1ccc([N-]C(=O)c2c([N-]S(=O)(=O)c3ccccc3[O-])ccc3ccccc23)cc1 (protonated)
N#C/C=C/c1ccc([N-]C(=O)c2c([N-]S(=O)(=O)c3ccccc3[O-])ccc3ccccc23)cc1 (cis-trans isomerization)
N#C/C=C/c1ccc([N-]C(=O)c2c([N-]S(=O)(=O)c3ccccc3[O-])ccc3ccccc23)cc1 (3D coordinates assigned)
N#C/C=C/c1ccc([N-]C(=O)c2c([N-]S(=O)(=O)c3ccccc3[O-])ccc3ccccc23)cc1 (optimized conformer: 73.84124094451415 kcal/mol)

>  <smiles>  (24) 
N#CC=Cc1ccc(NC(=O)c2c(NS(=O)(=O)c3ccccc3O)ccc3ccccc23)cc1

>  <score_type>  (24) 
oracle

>  <origin>  (24) 
adgpu

>  <m_score__min__energy>  (24) 
-14.75

>  <m_primary>  (24) 
energy

$$$$
24:0
     RDKit          3D

 42 44  0  0  1  0  0  0  0  0999 V2000
   -5.7620   19.0860  -33.1690 C   0  0  0  0  0  0  0  0  0  0  0  0
   -7.0550   19.6500  -32.7590 C   0  0  0  0  0  0  0  0  0  0  0  0
   -8.2360   18.8890  -32.7060 C   0  0  0  0  0  0  0  0  0  0  0  0
   -9.4380   19.4740  -32.3130 C   0  0  0  0  0  0  0  0  0  0  0  0
   -9.4660   20.8310  -31.9660 C   0  0  0  0  0  0  0  0  0  0  0  0
   -8.3010   21.6010  -32.0130 C   0  0  0  0  0  0  0  0  0  0  0  0
   -7.1080   21.0010  -32.4090 C   0  0  0  0  0  0  0  0  0  0  0  0
   -5.8870   21.8570  -32.4590 C   0  0  0  0  0  0  0  0  0  0  0  0
   -6.3420   23.5210  -31.9530 S   0  0  0  0  0  0  0  0  0  0  0  0
   -5.3280   24.0440  -30.5970 C   0  0  0  0  0  0  0  0  0  0  0  0
   -3.9590   24.1030  -30.7150 N   0  0  0  0  0  0  0  0  0  0  0  0
   -3.4690   24.5500  -29.5410 C   0  0  0  0  0  0  0  0  0  0  0  0
   -2.1980   24.6960  -29.3690 N   0  0  0  0  0  0  0  0  0  0  0  0
   -1.7450   25.1760  -28.1100 C   0  0  0  0  0  0  0  0  0  0  0  0
   -0.9190   26.2850  -28.0870 C   0  0  0  0  0  0  0  0  0  0  0  0
   -0.4800   26.7500  -26.8740 C   0  0  0  0  0  0  0  0  0  0  0  0
   -0.8230   26.1580  -25.6630 C   0  0  0  0  0  0  0  0  0  0  0  0
   -0.1870   26.8620  -24.2010 S   0  0  0  0  0  0  0  0  0  0  0  0
    1.1970   25.9830  -23.6800 N   0  0  0  0  0  0  0  0  0  0  0  0
    0.2390   28.2750  -24.4730 O   0  0  0  0  0  0  0  0  0  0  0  0
   -1.2730   26.8090  -23.1590 O   0  0  0  0  0  0  0  0  0  0  0  0
   -1.6450   25.0520  -25.6860 C   0  0  0  0  0  0  0  0  0  0  0  0
   -2.1000   24.5700  -26.9270 C   0  0  0  0  0  0  0  0  0  0  0  0
   -4.5050   24.7590  -28.7240 N   0  0  0  0  0  0  0  0  0  0  0  0
   -5.6080   24.4560  -29.3580 N   0  0  0  0  0  0  0  0  0  0  0  0
   -5.1740   18.8295  -32.2755 H   0  0  0  0  0  0  0  0  0  0  0  0
   -5.9310   18.1799  -33.7693 H   0  0  0  0  0  0  0  0  0  0  0  0
   -5.2128   19.8263  -33.7693 H   0  0  0  0  0  0  0  0  0  0  0  0
   -8.2109   17.8232  -32.9770 H   0  0  0  0  0  0  0  0  0  0  0  0
  -10.3592   18.8741  -32.2754 H   0  0  0  0  0  0  0  0  0  0  0  0
  -10.4135   21.2944  -31.6538 H   0  0  0  0  0  0  0  0  0  0  0  0
   -8.3257   22.6665  -31.7410 H   0  0  0  0  0  0  0  0  0  0  0  0
   -5.1237   21.4562  -31.7758 H   0  0  0  0  0  0  0  0  0  0  0  0
   -5.4756   21.8706  -33.4791 H   0  0  0  0  0  0  0  0  0  0  0  0
   -0.6207   26.7831  -29.0213 H   0  0  0  0  0  0  0  0  0  0  0  0
    0.1749   27.6337  -26.8579 H   0  0  0  0  0  0  0  0  0  0  0  0
    1.5860   26.3620  -22.7880 H   0  0  0  0  0  0  0  0  0  0  0  0
    1.0110   24.9560  -23.6640 H   0  0  0  0  0  0  0  0  0  0  0  0
   -1.9402   24.5547  -24.7503 H   0  0  0  0  0  0  0  0  0  0  0  0
   -2.7556   23.6871  -26.9520 H   0  0  0  0  0  0  0  0  0  0  0  0
   -4.3750   25.1150  -27.7430 H   0  0  0  0  0  0  0  0  0  0  0  0
   -6.5870   24.5110  -28.9830 H   0  0  0  0  0  0  0  0  0  0  0  0
  1  2  1  0
  2  3  2  0
  3  4  1  0
  4  5  2  0
  5  6  1  0
  6  7  2  0
  7  8  1  0
  8  9  1  0
  9 10  1  0
 10 11  2  0
 11 12  1  0
 12 13  2  0
 13 14  1  0
 14 15  2  0
 15 16  1  0
 16 17  2  0
 17 18  1  0
 18 19  1  0
 18 20  2  0
 18 21  2  0
 17 22  1  0
 22 23  2  0
 12 24  1  0
 24 25  1  0
  7  2  1  0
 25 10  1  0
 23 14  1  0
  1 26  1  0
  1 27  1  0
  1 28  1  0
  3 29  1  0
  4 30  1  0
  5 31  1  0
  6 32  1  0
  8 33  1  0
  8 34  1  0
 15 35  1  0
 16 36  1  0
 19 37  1  0
 19 38  1  0
 22 39  1  0
 23 40  1  0
 24 41  1  0
 25 42  1  0
M  END
>  <smiles>  (25) 
Cc1ccccc1CSc1nc(=Nc2ccc(S(N)(=O)=O)cc2)[nH][nH]1

>  <score_type>  (25) 
oracle

>  <origin>  (25) 
adgpu

>  <m_score__min__energy>  (25) 
-10.1

>  <m_primary>  (25) 
energy

$$$$
25:0
     RDKit          3D

 53 57  0  0  0  0  0  0  0  0999 V2000
   -7.1310   17.4370  -32.4100 C   0  0  0  0  0  0  0  0  0  0  0  0
   -5.9500   18.3060  -32.7270 C   0  0  0  0  0  0  0  0  0  0  0  0
   -6.0950   19.6980  -32.7980 C   0  0  0  0  0  0  0  0  0  0  0  0
   -5.0050   20.5050  -33.1360 C   0  0  0  0  0  0  0  0  0  0  0  0
   -3.7560   19.9280  -33.4300 C   0  0  0  0  0  0  0  0  0  0  0  0
   -2.6220   20.7290  -33.8080 N   0  0  0  0  0  0  0  0  0  0  0  0
   -1.2760   20.4390  -33.4080 C   0  0  0  0  0  0  0  0  0  0  0  0
   -0.2920   20.2400  -34.3890 C   0  0  0  0  0  0  0  0  0  0  0  0
    1.0080   19.8650  -34.0070 C   0  0  0  0  0  0  0  0  0  0  0  0
    1.3230   19.6890  -32.6530 C   0  0  0  0  0  0  0  0  0  0  0  0
    0.3220   19.9260  -31.7150 C   0  0  0  0  0  0  0  0  0  0  0  0
    0.4670   19.8010  -30.3790 N   0  0  0  0  0  0  0  0  0  0  0  0
   -0.7440   20.1520  -29.8860 C   0  0  0  0  0  0  0  0  0  0  0  0
   -1.0520   20.1670  -28.4380 C   0  0  0  0  0  0  0  0  0  0  0  0
   -1.6040   19.0230  -27.8340 C   0  0  0  0  0  0  0  0  0  0  0  0
   -1.8940   19.0160  -26.4670 C   0  0  0  0  0  0  0  0  0  0  0  0
   -1.6270   20.1440  -25.6870 C   0  0  0  0  0  0  0  0  0  0  0  0
   -1.0610   21.2780  -26.2720 C   0  0  0  0  0  0  0  0  0  0  0  0
   -0.7690   21.2910  -27.6390 C   0  0  0  0  0  0  0  0  0  0  0  0
   -1.5880   20.4840  -30.9380 C   0  0  0  0  0  0  0  0  0  0  0  0
   -2.9610   20.8780  -30.8200 N   0  0  0  0  0  0  0  0  0  0  0  0
   -3.3910   22.0580  -30.1180 C   0  0  0  0  0  0  0  0  0  0  0  0
   -3.7500   22.0180  -28.7570 C   0  0  0  0  0  0  0  0  0  0  0  0
   -4.1510   23.1840  -28.0990 C   0  0  0  0  0  0  0  0  0  0  0  0
   -4.2020   24.3970  -28.7900 C   0  0  0  0  0  0  0  0  0  0  0  0
   -3.8580   24.4480  -30.1450 C   0  0  0  0  0  0  0  0  0  0  0  0
   -3.9120   25.6650  -30.8220 O   0  0  0  0  0  0  0  0  0  0  0  0
   -3.4600   23.2790  -30.8070 C   0  0  0  0  0  0  0  0  0  0  0  0
   -0.9140   20.3140  -32.0940 N   0  0  0  0  0  0  0  0  0  0  0  0
   -3.6170   18.5340  -33.3580 C   0  0  0  0  0  0  0  0  0  0  0  0
   -4.7070   17.7270  -33.0210 C   0  0  0  0  0  0  0  0  0  0  0  0
   -7.2431   17.3545  -31.3188 H   0  0  0  0  0  0  0  0  0  0  0  0
   -8.0402   17.8831  -32.8394 H   0  0  0  0  0  0  0  0  0  0  0  0
   -6.9756   16.4362  -32.8394 H   0  0  0  0  0  0  0  0  0  0  0  0
   -7.0716   20.1579  -32.5866 H   0  0  0  0  0  0  0  0  0  0  0  0
   -5.1244   21.5979  -33.1724 H   0  0  0  0  0  0  0  0  0  0  0  0
   -2.7550   21.4670  -34.5360 H   0  0  0  0  0  0  0  0  0  0  0  0
   -0.5371   20.3769  -35.4526 H   0  0  0  0  0  0  0  0  0  0  0  0
    1.7809   19.7091  -34.7740 H   0  0  0  0  0  0  0  0  0  0  0  0
    2.3296   19.3735  -32.3411 H   0  0  0  0  0  0  0  0  0  0  0  0
   -1.8086   18.1288  -28.4411 H   0  0  0  0  0  0  0  0  0  0  0  0
   -2.3335   18.1202  -26.0039 H   0  0  0  0  0  0  0  0  0  0  0  0
   -1.8627   20.1385  -24.6126 H   0  0  0  0  0  0  0  0  0  0  0  0
   -0.8443   22.1632  -25.6560 H   0  0  0  0  0  0  0  0  0  0  0  0
   -0.3156   22.1845  -28.0929 H   0  0  0  0  0  0  0  0  0  0  0  0
   -3.6840   20.1990  -31.1470 H   0  0  0  0  0  0  0  0  0  0  0  0
   -3.7147   21.0647  -28.2092 H   0  0  0  0  0  0  0  0  0  0  0  0
   -4.4270   23.1465  -27.0349 H   0  0  0  0  0  0  0  0  0  0  0  0
   -4.5132   25.3137  -28.2677 H   0  0  0  0  0  0  0  0  0  0  0  0
   -4.2130   25.7190  -31.7880 H   0  0  0  0  0  0  0  0  0  0  0  0
   -3.1996   23.3184  -31.8750 H   0  0  0  0  0  0  0  0  0  0  0  0
   -2.6412   18.0719  -33.5687 H   0  0  0  0  0  0  0  0  0  0  0  0
   -4.5896   16.6338  -32.9862 H   0  0  0  0  0  0  0  0  0  0  0  0
  1  2  1  0
  2  3  2  0
  3  4  1  0
  4  5  2  0
  5  6  1  0
  6  7  1  0
  7  8  2  0
  8  9  1  0
  9 10  2  0
 10 11  1  0
 11 12  2  0
 12 13  1  0
 13 14  1  0
 14 15  2  0
 15 16  1  0
 16 17  2  0
 17 18  1  0
 18 19  2  0
 13 20  2  0
 20 21  1  0
 21 22  1  0
 22 23  2  0
 23 24  1  0
 24 25  2  0
 25 26  1  0
 26 27  1  0
 26 28  2  0
 20 29  1  0
  5 30  1  0
 30 31  2  0
 31  2  1  0
 29  7  1  0
 29 11  1  0
 19 14  1  0
 28 22  1  0
  1 32  1  0
  1 33  1  0
  1 34  1  0
  3 35  1  0
  4 36  1  0
  6 37  1  0
  8 38  1  0
  9 39  1  0
 10 40  1  0
 15 41  1  0
 16 42  1  0
 17 43  1  0
 18 44  1  0
 19 45  1  0
 21 46  1  0
 23 47  1  0
 24 48  1  0
 25 49  1  0
 27 50  1  0
 28 51  1  0
 30 52  1  0
 31 53  1  0
M  END
>  <UniqueID>  (26) 
25

>  <SMILES>  (26) 
Cc1ccc(Nc2cccc3nc(-c4ccccc4)c(Nc4cccc(O)c4)n23)cc1

>  <Energy>  (26) 
108.69461407480678

>  <Genealogy>  (26) 
Cc1ccc(Nc2cccc3nc(-c4ccccc4)c(Nc4cccc(O)c4)n23)cc1 (3D coordinates assigned)
Cc1ccc(Nc2cccc3nc(-c4ccccc4)c(Nc4cccc(O)c4)n23)cc1 (optimized conformer: 108.69461407480678 kcal/mol)

>  <smiles>  (26) 
Cc1ccc(Nc2cccc3nc(-c4ccccc4)c(Nc4cccc(O)c4)n23)cc1

>  <score_type>  (26) 
oracle

>  <origin>  (26) 
adgpu

>  <m_score__min__energy>  (26) 
-9.9299999999999997

>  <m_primary>  (26) 
energy

$$$$
26:0
     RDKit          3D

 46 48  0  0  0  0  0  0  0  0999 V2000
   -6.4540   17.3840  -33.4860 C   0  0  0  0  0  0  0  0  0  0  0  0
   -6.5360   18.8520  -33.7680 C   0  0  0  0  0  0  0  0  0  0  0  0
   -6.0950   19.2810  -34.8680 O   0  0  0  0  0  0  0  0  0  0  0  0
   -7.0650   19.7830  -32.8090 N   0  0  0  0  0  0  0  0  0  0  0  0
   -8.4300   19.6940  -32.2870 C   0  0  0  0  0  0  0  0  0  0  0  0
   -8.6750   21.0010  -31.4960 C   0  0  0  0  0  0  0  0  0  0  0  0
   -7.3620   21.6960  -31.5670 C   0  0  0  0  0  0  0  0  0  0  0  0
   -7.0000   22.8960  -30.9540 C   0  0  0  0  0  0  0  0  0  0  0  0
   -5.6820   23.3610  -31.1050 C   0  0  0  0  0  0  0  0  0  0  0  0
   -5.2220   24.9050  -30.3950 S   0  0  0  0  0  0  0  0  0  0  0  0
   -5.7090   24.9980  -28.9750 O   0  0  0  0  0  0  0  0  0  0  0  0
   -5.8450   26.0170  -31.1910 O   0  0  0  0  0  0  0  0  0  0  0  0
   -3.4940   25.0690  -30.4350 N   0  0  0  0  0  0  0  0  0  0  0  0
   -2.9150   24.5260  -29.2090 C   0  0  0  0  0  0  0  0  0  0  0  0
   -2.5520   23.0790  -29.4280 C   0  0  0  0  0  0  0  0  0  0  0  0
   -1.6690   22.7500  -30.4720 C   0  0  0  0  0  0  0  0  0  0  0  0
   -1.3250   21.4160  -30.7270 C   0  0  0  0  0  0  0  0  0  0  0  0
   -0.3460   21.0830  -31.8140 C   0  0  0  0  0  0  0  0  0  0  0  0
   -1.8480   20.4020  -29.9160 C   0  0  0  0  0  0  0  0  0  0  0  0
   -2.7380   20.7120  -28.8860 C   0  0  0  0  0  0  0  0  0  0  0  0
   -3.1120   22.0430  -28.6380 C   0  0  0  0  0  0  0  0  0  0  0  0
   -4.0820   22.3370  -27.5230 C   0  0  0  0  0  0  0  0  0  0  0  0
   -4.7530   22.6030  -31.8490 C   0  0  0  0  0  0  0  0  0  0  0  0
   -5.1400   21.3940  -32.4480 C   0  0  0  0  0  0  0  0  0  0  0  0
   -6.4700   20.9780  -32.3180 C   0  0  0  0  0  0  0  0  0  0  0  0
   -6.4448   17.2195  -32.3984 H   0  0  0  0  0  0  0  0  0  0  0  0
   -7.3252   16.8768  -33.9262 H   0  0  0  0  0  0  0  0  0  0  0  0
   -5.5317   16.9770  -33.9262 H   0  0  0  0  0  0  0  0  0  0  0  0
   -9.1499   19.6082  -33.1143 H   0  0  0  0  0  0  0  0  0  0  0  0
   -8.5579   18.8082  -31.6475 H   0  0  0  0  0  0  0  0  0  0  0  0
   -9.4657   21.6038  -31.9665 H   0  0  0  0  0  0  0  0  0  0  0  0
   -9.0120   20.8226  -30.4642 H   0  0  0  0  0  0  0  0  0  0  0  0
   -7.7318   23.4672  -30.3639 H   0  0  0  0  0  0  0  0  0  0  0  0
   -2.0117   25.0957  -28.9455 H   0  0  0  0  0  0  0  0  0  0  0  0
   -3.6460   24.6029  -28.3906 H   0  0  0  0  0  0  0  0  0  0  0  0
   -1.2433   23.5497  -31.0959 H   0  0  0  0  0  0  0  0  0  0  0  0
    0.6046   20.7596  -31.3648 H   0  0  0  0  0  0  0  0  0  0  0  0
   -0.7516   20.2723  -32.4371 H   0  0  0  0  0  0  0  0  0  0  0  0
   -0.1732   21.9729  -32.4371 H   0  0  0  0  0  0  0  0  0  0  0  0
   -1.5564   19.3559  -30.0911 H   0  0  0  0  0  0  0  0  0  0  0  0
   -3.1507   19.9055  -28.2621 H   0  0  0  0  0  0  0  0  0  0  0  0
   -3.5836   22.1859  -26.5541 H   0  0  0  0  0  0  0  0  0  0  0  0
   -4.4247   23.3794  -27.6005 H   0  0  0  0  0  0  0  0  0  0  0  0
   -4.9458   21.6603  -27.6005 H   0  0  0  0  0  0  0  0  0  0  0  0
   -3.7191   22.9618  -31.9603 H   0  0  0  0  0  0  0  0  0  0  0  0
   -4.4135   20.7865  -33.0076 H   0  0  0  0  0  0  0  0  0  0  0  0
  1  2  1  0
  2  3  2  0
  2  4  1  0
  4  5  1  0
  5  6  1  0
  6  7  1  0
  7  8  2  0
  8  9  1  0
  9 10  1  0
 10 11  2  0
 10 12  2  0
 10 13  1  0
 13 14  1  0
 14 15  1  0
 15 16  2  0
 16 17  1  0
 17 18  1  0
 17 19  2  0
 19 20  1  0
 20 21  2  0
 21 22  1  0
  9 23  2  0
 23 24  1  0
 24 25  2  0
 25  4  1  0
 25  7  1  0
 21 15  1  0
  1 26  1  0
  1 27  1  0
  1 28  1  0
  5 29  1  0
  5 30  1  0
  6 31  1  0
  6 32  1  0
  8 33  1  0
 14 34  1  0
 14 35  1  0
 16 36  1  0
 18 37  1  0
 18 38  1  0
 18 39  1  0
 19 40  1  0
 20 41  1  0
 22 42  1  0
 22 43  1  0
 22 44  1  0
 23 45  1  0
 24 46  1  0
M  CHG  1  13  -1
M  END
>  <UniqueID>  (27) 
26

>  <SMILES>  (27) 
CC(=O)N1CCc2cc(S(=O)(=O)[N-]Cc3cc(C)ccc3C)ccc21

>  <Energy>  (27) 
60.82578654935192

>  <Genealogy>  (27) 
CC(=O)N1CCc2cc(S(=O)(=O)[N-]Cc3cc(C)ccc3C)ccc21 (protonated)
CC(=O)N1CCc2cc(S(=O)(=O)[N-]Cc3cc(C)ccc3C)ccc21 (3D coordinates assigned)
CC(=O)N1CCc2cc(S(=O)(=O)[N-]Cc3cc(C)ccc3C)ccc21 (nonaromatic ring conformer: 60.82578654935192 kcal/mol)

>  <smiles>  (27) 
CC(=O)N1CCc2cc(S(=O)(=O)NCc3cc(C)ccc3C)ccc21

>  <score_type>  (27) 
oracle

>  <origin>  (27) 
adgpu

>  <m_score__min__energy>  (27) 
-10.33

>  <m_primary>  (27) 
energy

$$$$
27:0
     RDKit          3D

 43 45  0  0  0  0  0  0  0  0999 V2000
   -1.0190   22.2630  -26.3610 C   0  0  0  0  0  0  0  0  0  0  0  0
   -1.7010   23.0370  -27.4490 C   0  0  0  0  0  0  0  0  0  0  0  0
   -2.9500   22.6240  -27.9330 C   0  0  0  0  0  0  0  0  0  0  0  0
   -3.6020   23.3640  -28.9230 C   0  0  0  0  0  0  0  0  0  0  0  0
   -3.0150   24.5230  -29.4460 C   0  0  0  0  0  0  0  0  0  0  0  0
   -3.7150   25.2450  -30.4690 N   0  0  0  0  0  0  0  0  0  0  0  0
   -5.1270   25.2070  -30.7160 C   0  0  0  0  0  0  0  0  0  0  0  0
   -5.7840   26.2790  -30.6310 O   0  0  0  0  0  0  0  0  0  0  0  0
   -5.8390   23.9420  -31.0220 C   0  0  0  0  0  0  0  0  0  0  0  0
   -6.8420   23.4720  -30.1580 C   0  0  0  0  0  0  0  0  0  0  0  0
   -7.5170   22.2810  -30.4370 C   0  0  0  0  0  0  0  0  0  0  0  0
   -7.1890   21.5340  -31.5770 C   0  0  0  0  0  0  0  0  0  0  0  0
   -8.0290   20.0200  -31.9190 S   0  0  0  0  0  0  0  0  0  0  0  0
   -9.1250   19.8230  -30.9060 O   0  0  0  0  0  0  0  0  0  0  0  0
   -8.6670   20.1060  -33.2770 O   0  0  0  0  0  0  0  0  0  0  0  0
   -6.9480   18.6420  -31.8730 N   0  0  0  0  0  0  0  0  0  0  0  0
   -7.1910   17.7410  -33.0050 C   0  0  0  0  0  0  0  0  0  0  0  0
   -6.1630   18.0420  -34.0870 C   0  0  0  0  0  0  0  0  0  0  0  0
   -5.1030   18.8980  -33.4230 C   0  0  0  0  0  0  0  0  0  0  0  0
   -5.5480   19.0630  -31.9780 C   0  0  0  0  0  0  0  0  0  0  0  0
   -6.1850   21.9940  -32.4370 C   0  0  0  0  0  0  0  0  0  0  0  0
   -5.5070   23.1840  -32.1590 C   0  0  0  0  0  0  0  0  0  0  0  0
   -1.7860   24.9710  -28.9200 C   0  0  0  0  0  0  0  0  0  0  0  0
   -1.2190   26.1680  -29.3450 O   0  0  0  0  0  0  0  0  0  0  0  0
   -1.1330   24.2240  -27.9330 C   0  0  0  0  0  0  0  0  0  0  0  0
   -1.3498   22.6384  -25.3814 H   0  0  0  0  0  0  0  0  0  0  0  0
   -1.2773   21.1976  -26.4517 H   0  0  0  0  0  0  0  0  0  0  0  0
    0.0704   22.3852  -26.4517 H   0  0  0  0  0  0  0  0  0  0  0  0
   -3.4190   21.7134  -27.5318 H   0  0  0  0  0  0  0  0  0  0  0  0
   -4.5834   23.0338  -29.2942 H   0  0  0  0  0  0  0  0  0  0  0  0
   -7.0978   24.0459  -29.2551 H   0  0  0  0  0  0  0  0  0  0  0  0
   -8.3087   21.9282  -29.7597 H   0  0  0  0  0  0  0  0  0  0  0  0
   -7.0899   16.6960  -32.6766 H   0  0  0  0  0  0  0  0  0  0  0  0
   -8.2078   17.8916  -33.3968 H   0  0  0  0  0  0  0  0  0  0  0  0
   -5.7202   17.1087  -34.4649 H   0  0  0  0  0  0  0  0  0  0  0  0
   -6.6184   18.5558  -34.9464 H   0  0  0  0  0  0  0  0  0  0  0  0
   -4.1240   18.3983  -33.4675 H   0  0  0  0  0  0  0  0  0  0  0  0
   -4.9941   19.8700  -33.9263 H   0  0  0  0  0  0  0  0  0  0  0  0
   -4.9224   18.4386  -31.3232 H   0  0  0  0  0  0  0  0  0  0  0  0
   -5.4456   20.1138  -31.6691 H   0  0  0  0  0  0  0  0  0  0  0  0
   -5.9282   21.4156  -33.3367 H   0  0  0  0  0  0  0  0  0  0  0  0
   -4.7094   23.5296  -32.8331 H   0  0  0  0  0  0  0  0  0  0  0  0
   -0.1680   24.5703  -27.5344 H   0  0  0  0  0  0  0  0  0  0  0  0
  1  2  1  0
  2  3  2  0
  3  4  1  0
  4  5  2  0
  5  6  1  0
  6  7  1  0
  7  8  2  0
  7  9  1  0
  9 10  2  0
 10 11  1  0
 11 12  2  0
 12 13  1  0
 13 14  2  0
 13 15  2  0
 13 16  1  0
 16 17  1  0
 17 18  1  0
 18 19  1  0
 19 20  1  0
 12 21  1  0
 21 22  2  0
  5 23  1  0
 23 24  1  0
 23 25  2  0
 25  2  1  0
 22  9  1  0
 20 16  1  0
  1 26  1  0
  1 27  1  0
  1 28  1  0
  3 29  1  0
  4 30  1  0
 10 31  1  0
 11 32  1  0
 17 33  1  0
 17 34  1  0
 18 35  1  0
 18 36  1  0
 19 37  1  0
 19 38  1  0
 20 39  1  0
 20 40  1  0
 21 41  1  0
 22 42  1  0
 25 43  1  0
M  CHG  2   6  -1  24  -1
M  END
>  <UniqueID>  (28) 
27

>  <SMILES>  (28) 
Cc1ccc([N-]C(=O)c2ccc(S(=O)(=O)N3CCCC3)cc2)c([O-])c1

>  <Energy>  (28) 
52.0873634969436

>  <Genealogy>  (28) 
Cc1ccc([N-]C(=O)c2ccc(S(=O)(=O)N3CCCC3)cc2)c([O-])c1 (protonated)
Cc1ccc([N-]C(=O)c2ccc(S(=O)(=O)N3CCCC3)cc2)c([O-])c1 (3D coordinates assigned)
Cc1ccc([N-]C(=O)c2ccc(S(=O)(=O)N3CCCC3)cc2)c([O-])c1 (nonaromatic ring conformer: 52.0873634969436 kcal/mol)

>  <smiles>  (28) 
Cc1ccc(NC(=O)c2ccc(S(=O)(=O)N3CCCC3)cc2)c(O)c1

>  <score_type>  (28) 
oracle

>  <origin>  (28) 
adgpu

>  <m_score__min__energy>  (28) 
-15.01

>  <m_primary>  (28) 
energy

$$$$
28:0
     RDKit          3D

 56 58  0  0  1  0  0  0  0  0999 V2000
   -2.7410   15.1380  -36.5460 C   0  0  0  0  0  0  0  0  0  0  0  0
   -2.9690   15.0810  -35.1520 O   0  0  0  0  0  0  0  0  0  0  0  0
   -4.1200   15.6380  -34.6230 C   0  0  0  0  0  0  0  0  0  0  0  0
   -5.2310   14.8570  -34.3720 C   0  0  0  0  0  0  0  0  0  0  0  0
   -6.3970   15.4160  -33.8360 C   0  0  0  0  0  0  0  0  0  0  0  0
   -6.4070   16.7550  -33.5660 C   0  0  0  0  0  0  0  0  0  0  0  0
   -7.6020   17.4620  -32.9790 C   0  0  0  0  0  0  0  0  0  0  0  0
   -7.1570   18.7490  -32.4120 C   0  0  0  0  0  0  0  0  0  0  0  0
   -6.4960   18.6960  -31.3350 O   0  0  0  0  0  0  0  0  0  0  0  0
   -7.4050   20.0170  -32.9700 N   0  0  0  0  0  0  0  0  0  0  0  0
   -6.8990   21.1550  -32.2790 C   0  0  0  0  0  0  0  0  0  0  0  0
   -7.6950   21.6130  -31.2190 C   0  0  0  0  0  0  0  0  0  0  0  0
   -7.2570   22.7240  -30.4870 C   0  0  0  0  0  0  0  0  0  0  0  0
   -6.0750   23.3500  -30.7970 C   0  0  0  0  0  0  0  0  0  0  0  0
   -5.4590   24.7450  -29.9280 S   0  0  0  0  0  0  0  0  0  0  0  0
   -4.4760   25.5000  -30.8500 O   0  0  0  0  0  0  0  0  0  0  0  0
   -6.5470   25.7180  -29.6670 O   0  0  0  0  0  0  0  0  0  0  0  0
   -4.5460   24.2760  -28.5620 N   0  0  0  0  0  0  0  0  0  0  0  0
   -3.4780   23.5740  -28.6030 C   0  0  0  0  0  0  0  0  0  0  0  0
   -2.9640   23.1270  -29.7780 C   0  0  0  0  0  0  0  0  0  0  0  0
   -1.8180   22.3780  -29.7690 C   0  0  0  0  0  0  0  0  0  0  0  0
   -1.2470   21.8850  -31.0530 C   0  0  0  0  0  0  0  0  0  0  0  0
   -1.1560   22.0530  -28.6470 N   0  0  0  0  0  0  0  0  0  0  0  0
   -1.6870   22.5110  -27.4800 C   0  0  0  0  0  0  0  0  0  0  0  0
   -1.0070   22.1940  -26.1710 C   0  0  0  0  0  0  0  0  0  0  0  0
   -2.8250   23.2550  -27.4690 N   0  0  0  0  0  0  0  0  0  0  0  0
   -5.3210   22.8610  -31.8530 C   0  0  0  0  0  0  0  0  0  0  0  0
   -5.7110   21.7710  -32.6030 C   0  0  0  0  0  0  0  0  0  0  0  0
   -5.2740   17.5240  -33.8270 C   0  0  0  0  0  0  0  0  0  0  0  0
   -4.1200   16.9900  -34.3540 C   0  0  0  0  0  0  0  0  0  0  0  0
   -2.9790   17.7240  -34.6240 O   0  0  0  0  0  0  0  0  0  0  0  0
   -2.4990   18.8180  -33.9100 C   0  0  0  0  0  0  0  0  0  0  0  0
   -1.6897   15.4008  -36.7351 H   0  0  0  0  0  0  0  0  0  0  0  0
   -2.9601   14.1574  -36.9938 H   0  0  0  0  0  0  0  0  0  0  0  0
   -3.3958   15.9001  -36.9938 H   0  0  0  0  0  0  0  0  0  0  0  0
   -5.1992   13.7806  -34.5964 H   0  0  0  0  0  0  0  0  0  0  0  0
   -7.2819   14.7935  -33.6374 H   0  0  0  0  0  0  0  0  0  0  0  0
   -8.3490   17.6425  -33.7660 H   0  0  0  0  0  0  0  0  0  0  0  0
   -8.0557   16.8419  -32.1919 H   0  0  0  0  0  0  0  0  0  0  0  0
   -7.9460   20.0730  -33.8590 H   0  0  0  0  0  0  0  0  0  0  0  0
   -8.6413   21.1114  -30.9683 H   0  0  0  0  0  0  0  0  0  0  0  0
   -7.8679   23.0998  -29.6530 H   0  0  0  0  0  0  0  0  0  0  0  0
   -3.4641   23.3647  -30.7285 H   0  0  0  0  0  0  0  0  0  0  0  0
   -0.4296   21.1793  -30.8438 H   0  0  0  0  0  0  0  0  0  0  0  0
   -2.0318   21.3760  -31.6318 H   0  0  0  0  0  0  0  0  0  0  0  0
   -0.8579   22.7356  -31.6318 H   0  0  0  0  0  0  0  0  0  0  0  0
   -0.2770   21.4770  -28.6700 H   0  0  0  0  0  0  0  0  0  0  0  0
   -1.6573   22.4971  -25.3372 H   0  0  0  0  0  0  0  0  0  0  0  0
   -0.8135   21.1128  -26.1107 H   0  0  0  0  0  0  0  0  0  0  0  0
   -0.0545   22.7409  -26.1107 H   0  0  0  0  0  0  0  0  0  0  0  0
   -4.3742   23.3623  -32.1025 H   0  0  0  0  0  0  0  0  0  0  0  0
   -5.0915   21.4049  -33.4350 H   0  0  0  0  0  0  0  0  0  0  0  0
   -5.3033   18.6005  -33.6029 H   0  0  0  0  0  0  0  0  0  0  0  0
   -2.5863   18.6190  -32.8317 H   0  0  0  0  0  0  0  0  0  0  0  0
   -1.4432   18.9890  -34.1670 H   0  0  0  0  0  0  0  0  0  0  0  0
   -3.0881   19.7107  -34.1670 H   0  0  0  0  0  0  0  0  0  0  0  0
  1  2  1  0
  2  3  1  0
  3  4  2  0
  4  5  1  0
  5  6  2  0
  6  7  1  0
  7  8  1  0
  8  9  2  0
  8 10  1  0
 10 11  1  0
 11 12  2  0
 12 13  1  0
 13 14  2  0
 14 15  1  0
 15 16  2  0
 15 17  2  0
 15 18  1  0
 18 19  2  0
 19 20  1  0
 20 21  2  0
 21 22  1  0
 21 23  1  0
 23 24  1  0
 24 25  1  0
 24 26  2  0
 14 27  1  0
 27 28  2  0
  6 29  1  0
 29 30  2  0
 30 31  1  0
 31 32  1  0
 30  3  1  0
 28 11  1  0
 26 19  1  0
  1 33  1  0
  1 34  1  0
  1 35  1  0
  4 36  1  0
  5 37  1  0
  7 38  1  0
  7 39  1  0
 10 40  1  0
 12 41  1  0
 13 42  1  0
 20 43  1  0
 22 44  1  0
 22 45  1  0
 22 46  1  0
 23 47  1  0
 25 48  1  0
 25 49  1  0
 25 50  1  0
 27 51  1  0
 28 52  1  0
 29 53  1  0
 32 54  1  0
 32 55  1  0
 32 56  1  0
M  END
>  <smiles>  (29) 
COc1ccc(CC(=O)Nc2ccc(S(=O)(=O)N=c3cc(C)[nH]c(C)n3)cc2)cc1OC

>  <score_type>  (29) 
oracle

>  <origin>  (29) 
adgpu

>  <m_score__min__energy>  (29) 
-9.9299999999999997

>  <m_primary>  (29) 
energy

$$$$
29:0
     RDKit          3D

 55 58  0  0  0  0  0  0  0  0999 V2000
    0.8320   18.8840  -27.7480 C   0  0  0  0  0  0  0  0  0  0  0  0
   -0.2770   19.8300  -27.5520 N   0  0  0  0  0  0  0  0  0  0  0  0
   -1.5680   19.1540  -27.7890 C   0  0  0  0  0  0  0  0  0  0  0  0
   -2.7150   20.0740  -27.3650 C   0  0  0  0  0  0  0  0  0  0  0  0
   -2.5560   21.4630  -27.9280 C   0  0  0  0  0  0  0  0  0  0  0  0
   -3.6510   22.3380  -27.9210 C   0  0  0  0  0  0  0  0  0  0  0  0
   -3.5080   23.6580  -28.3720 C   0  0  0  0  0  0  0  0  0  0  0  0
   -4.6420   24.5220  -28.4170 N   0  0  0  0  0  0  0  0  0  0  0  0
   -5.3130   24.9830  -29.9430 S   0  0  0  0  0  0  0  0  0  0  0  0
   -4.2220   25.5200  -30.8260 O   0  0  0  0  0  0  0  0  0  0  0  0
   -6.3520   26.0520  -29.7450 O   0  0  0  0  0  0  0  0  0  0  0  0
   -6.0280   23.5600  -30.6920 C   0  0  0  0  0  0  0  0  0  0  0  0
   -7.4170   23.4790  -30.8700 C   0  0  0  0  0  0  0  0  0  0  0  0
   -7.9950   22.3100  -31.3760 C   0  0  0  0  0  0  0  0  0  0  0  0
   -7.1890   21.2070  -31.6960 C   0  0  0  0  0  0  0  0  0  0  0  0
   -7.9050   19.7200  -32.3140 S   0  0  0  0  0  0  0  0  0  0  0  0
   -8.6280   19.0310  -31.1900 O   0  0  0  0  0  0  0  0  0  0  0  0
   -8.9000   20.0410  -33.3970 O   0  0  0  0  0  0  0  0  0  0  0  0
   -6.6530   18.6750  -32.9350 N   0  0  0  0  0  0  0  0  0  0  0  0
   -6.1340   19.2080  -34.2090 C   0  0  0  0  0  0  0  0  0  0  0  0
   -5.3120   18.1420  -34.9600 C   0  0  0  0  0  0  0  0  0  0  0  0
   -4.9280   17.0990  -34.0870 O   0  0  0  0  0  0  0  0  0  0  0  0
   -6.0750   16.3860  -33.6530 C   0  0  0  0  0  0  0  0  0  0  0  0
   -7.1870   17.3170  -33.1240 C   0  0  0  0  0  0  0  0  0  0  0  0
   -5.8010   21.2910  -31.5240 C   0  0  0  0  0  0  0  0  0  0  0  0
   -5.2230   22.4590  -31.0200 C   0  0  0  0  0  0  0  0  0  0  0  0
   -2.2650   24.1120  -28.8330 C   0  0  0  0  0  0  0  0  0  0  0  0
   -2.1320   25.4210  -29.2940 O   0  0  0  0  0  0  0  0  0  0  0  0
   -1.1670   23.2420  -28.8440 C   0  0  0  0  0  0  0  0  0  0  0  0
   -1.2990   21.9240  -28.3800 C   0  0  0  0  0  0  0  0  0  0  0  0
   -0.1220   20.9820  -28.4670 C   0  0  0  0  0  0  0  0  0  0  0  0
    1.2136   18.5585  -26.7690 H   0  0  0  0  0  0  0  0  0  0  0  0
    0.4730   18.0097  -28.3108 H   0  0  0  0  0  0  0  0  0  0  0  0
    1.6388   19.3763  -28.3108 H   0  0  0  0  0  0  0  0  0  0  0  0
   -1.6657   18.9162  -28.8585 H   0  0  0  0  0  0  0  0  0  0  0  0
   -1.6077   18.2257  -27.2001 H   0  0  0  0  0  0  0  0  0  0  0  0
   -3.6636   19.6499  -27.7260 H   0  0  0  0  0  0  0  0  0  0  0  0
   -2.7068   20.1470  -26.2675 H   0  0  0  0  0  0  0  0  0  0  0  0
   -4.6288   21.9869  -27.5594 H   0  0  0  0  0  0  0  0  0  0  0  0
   -8.0539   24.3376  -30.6108 H   0  0  0  0  0  0  0  0  0  0  0  0
   -9.0837   22.2553  -31.5233 H   0  0  0  0  0  0  0  0  0  0  0  0
   -6.9796   19.5202  -34.8394 H   0  0  0  0  0  0  0  0  0  0  0  0
   -5.4798   20.0647  -33.9898 H   0  0  0  0  0  0  0  0  0  0  0  0
   -5.9214   17.7244  -35.7750 H   0  0  0  0  0  0  0  0  0  0  0  0
   -4.4054   18.6156  -35.3646 H   0  0  0  0  0  0  0  0  0  0  0  0
   -6.4725   15.8084  -34.5006 H   0  0  0  0  0  0  0  0  0  0  0  0
   -5.7668   15.7308  -32.8249 H   0  0  0  0  0  0  0  0  0  0  0  0
   -8.0134   17.3474  -33.8493 H   0  0  0  0  0  0  0  0  0  0  0  0
   -7.5532   16.9337  -32.1602 H   0  0  0  0  0  0  0  0  0  0  0  0
   -5.1637   20.4338  -31.7868 H   0  0  0  0  0  0  0  0  0  0  0  0
   -4.1334   22.5153  -30.8800 H   0  0  0  0  0  0  0  0  0  0  0  0
   -2.9230   26.0490  -29.3460 H   0  0  0  0  0  0  0  0  0  0  0  0
   -0.1947   23.5943  -29.2189 H   0  0  0  0  0  0  0  0  0  0  0  0
   -0.0385   20.6096  -29.4987 H   0  0  0  0  0  0  0  0  0  0  0  0
    0.7829   21.5345  -28.1740 H   0  0  0  0  0  0  0  0  0  0  0  0
  1  2  1  0
  2  3  1  0
  3  4  1  0
  4  5  1  0
  5  6  2  0
  6  7  1  0
  7  8  1  0
  8  9  1  0
  9 10  2  0
  9 11  2  0
  9 12  1  0
 12 13  2  0
 13 14  1  0
 14 15  2  0
 15 16  1  0
 16 17  2  0
 16 18  2  0
 16 19  1  0
 19 20  1  0
 20 21  1  0
 21 22  1  0
 22 23  1  0
 23 24  1  0
 15 25  1  0
 25 26  2  0
  7 27  2  0
 27 28  1  0
 27 29  1  0
 29 30  2  0
 30 31  1  0
 31  2  1  0
 30  5  1  0
 26 12  1  0
 24 19  1  0
  1 32  1  0
  1 33  1  0
  1 34  1  0
  3 35  1  0
  3 36  1  0
  4 37  1  0
  4 38  1  0
  6 39  1  0
 13 40  1  0
 14 41  1  0
 20 42  1  0
 20 43  1  0
 21 44  1  0
 21 45  1  0
 23 46  1  0
 23 47  1  0
 24 48  1  0
 24 49  1  0
 25 50  1  0
 26 51  1  0
 28 52  1  0
 29 53  1  0
 31 54  1  0
 31 55  1  0
M  CHG  1   8  -1
M  END
>  <UniqueID>  (30) 
28

>  <SMILES>  (30) 
CN1CCc2cc([N-]S(=O)(=O)c3ccc(S(=O)(=O)N4CCOCC4)cc3)c(O)cc2C1

>  <Energy>  (30) 
74.7112027320207

>  <Genealogy>  (30) 
CN1CCc2cc([N-]S(=O)(=O)c3ccc(S(=O)(=O)N4CCOCC4)cc3)c(O)cc2C1 (protonated)
CN1CCc2cc([N-]S(=O)(=O)c3ccc(S(=O)(=O)N4CCOCC4)cc3)c(O)cc2C1 (3D coordinates assigned)
CN1CCc2cc([N-]S(=O)(=O)c3ccc(S(=O)(=O)N4CCOCC4)cc3)c(O)cc2C1 (nonaromatic ring conformer: 74.7112027320207 kcal/mol)

>  <smiles>  (30) 
CN1CCc2cc(NS(=O)(=O)c3ccc(S(=O)(=O)N4CCOCC4)cc3)c(O)cc2C1

>  <score_type>  (30) 
oracle

>  <origin>  (30) 
adgpu

>  <m_score__min__energy>  (30) 
-12.44

>  <m_primary>  (30) 
energy

$$$$
30:0
     RDKit          3D

 50 52  0  0  0  0  0  0  0  0999 V2000
   -1.4280   17.7770  -34.2350 C   0  0  0  0  0  0  0  0  0  0  0  0
   -0.6620   18.5640  -33.3280 O   0  0  0  0  0  0  0  0  0  0  0  0
   -1.2010   19.5410  -32.4770 C   0  0  0  0  0  0  0  0  0  0  0  0
   -0.8150   19.6640  -31.1280 C   0  0  0  0  0  0  0  0  0  0  0  0
   -1.3850   20.6520  -30.3210 C   0  0  0  0  0  0  0  0  0  0  0  0
   -2.3390   21.5320  -30.8480 C   0  0  0  0  0  0  0  0  0  0  0  0
   -3.0870   22.7480  -29.8110 S   0  0  0  0  0  0  0  0  0  0  0  0
   -3.3240   22.1360  -28.4590 O   0  0  0  0  0  0  0  0  0  0  0  0
   -2.1440   23.9090  -29.6620 O   0  0  0  0  0  0  0  0  0  0  0  0
   -4.6220   23.3200  -30.4810 C   0  0  0  0  0  0  0  0  0  0  0  0
   -5.6330   22.3920  -30.7840 C   0  0  0  0  0  0  0  0  0  0  0  0
   -6.8650   22.8150  -31.2920 C   0  0  0  0  0  0  0  0  0  0  0  0
   -8.1210   21.6240  -31.6240 S   0  0  0  0  0  0  0  0  0  0  0  0
   -8.3210   20.7410  -30.4220 O   0  0  0  0  0  0  0  0  0  0  0  0
   -9.4060   22.3570  -31.8910 O   0  0  0  0  0  0  0  0  0  0  0  0
   -7.7030   20.6640  -33.0280 N   0  0  0  0  0  0  0  0  0  0  0  0
   -6.2490   20.4520  -33.1490 C   0  0  0  0  0  0  0  0  0  0  0  0
   -5.6950   19.4880  -32.0770 C   0  0  0  0  0  0  0  0  0  0  0  0
   -6.7330   18.5780  -31.5460 N   0  0  0  0  0  0  0  0  0  0  0  0
   -6.1160   17.3990  -30.9210 C   0  0  0  0  0  0  0  0  0  0  0  0
   -7.6750   18.1750  -32.5990 C   0  0  0  0  0  0  0  0  0  0  0  0
   -8.4730   19.4000  -33.0850 C   0  0  0  0  0  0  0  0  0  0  0  0
   -7.0970   24.1790  -31.5010 C   0  0  0  0  0  0  0  0  0  0  0  0
   -6.0980   25.1100  -31.2160 C   0  0  0  0  0  0  0  0  0  0  0  0
   -4.8600   24.6950  -30.7100 C   0  0  0  0  0  0  0  0  0  0  0  0
   -3.8990   25.6750  -30.4510 O   0  0  0  0  0  0  0  0  0  0  0  0
   -2.7290   21.4070  -32.1880 C   0  0  0  0  0  0  0  0  0  0  0  0
   -2.1600   20.4190  -32.9960 C   0  0  0  0  0  0  0  0  0  0  0  0
   -2.0858   17.1012  -33.6688 H   0  0  0  0  0  0  0  0  0  0  0  0
   -2.0385   18.4375  -34.8683 H   0  0  0  0  0  0  0  0  0  0  0  0
   -0.7513   17.1846  -34.8683 H   0  0  0  0  0  0  0  0  0  0  0  0
   -0.0625   18.9801  -30.7085 H   0  0  0  0  0  0  0  0  0  0  0  0
   -1.0832   20.7392  -29.2668 H   0  0  0  0  0  0  0  0  0  0  0  0
   -5.4528   21.3194  -30.6194 H   0  0  0  0  0  0  0  0  0  0  0  0
   -6.0363   20.0322  -34.1432 H   0  0  0  0  0  0  0  0  0  0  0  0
   -5.7585   21.4260  -33.0047 H   0  0  0  0  0  0  0  0  0  0  0  0
   -4.8922   18.8845  -32.5257 H   0  0  0  0  0  0  0  0  0  0  0  0
   -5.3223   20.0963  -31.2397 H   0  0  0  0  0  0  0  0  0  0  0  0
   -6.1665   17.4956  -29.8264 H   0  0  0  0  0  0  0  0  0  0  0  0
   -6.6557   16.4932  -31.2345 H   0  0  0  0  0  0  0  0  0  0  0  0
   -5.0641   17.3261  -31.2345 H   0  0  0  0  0  0  0  0  0  0  0  0
   -7.1162   17.7452  -33.4434 H   0  0  0  0  0  0  0  0  0  0  0  0
   -8.3717   17.4259  -32.1946 H   0  0  0  0  0  0  0  0  0  0  0  0
   -8.7799   19.2253  -34.1268 H   0  0  0  0  0  0  0  0  0  0  0  0
   -9.3350   19.5142  -32.4112 H   0  0  0  0  0  0  0  0  0  0  0  0
   -8.0684   24.5176  -31.8905 H   0  0  0  0  0  0  0  0  0  0  0  0
   -6.2845   26.1800  -31.3904 H   0  0  0  0  0  0  0  0  0  0  0  0
   -2.9530   25.6350  -30.8060 H   0  0  0  0  0  0  0  0  0  0  0  0
   -3.4851   22.0884  -32.6051 H   0  0  0  0  0  0  0  0  0  0  0  0
   -2.4681   20.3304  -34.0483 H   0  0  0  0  0  0  0  0  0  0  0  0
  1  2  1  0
  2  3  1  0
  3  4  2  0
  4  5  1  0
  5  6  2  0
  6  7  1  0
  7  8  2  0
  7  9  2  0
  7 10  1  0
 10 11  2  0
 11 12  1  0
 12 13  1  0
 13 14  2  0
 13 15  2  0
 13 16  1  0
 16 17  1  0
 17 18  1  0
 18 19  1  0
 19 20  1  0
 19 21  1  0
 21 22  1  0
 12 23  2  0
 23 24  1  0
 24 25  2  0
 25 26  1  0
  6 27  1  0
 27 28  2  0
 28  3  1  0
 25 10  1  0
 22 16  1  0
  1 29  1  0
  1 30  1  0
  1 31  1  0
  4 32  1  0
  5 33  1  0
 11 34  1  0
 17 35  1  0
 17 36  1  0
 18 37  1  0
 18 38  1  0
 20 39  1  0
 20 40  1  0
 20 41  1  0
 21 42  1  0
 21 43  1  0
 22 44  1  0
 22 45  1  0
 23 46  1  0
 24 47  1  0
 26 48  1  0
 27 49  1  0
 28 50  1  0
M  END
>  <UniqueID>  (31) 
29

>  <SMILES>  (31) 
COc1ccc(S(=O)(=O)c2cc(S(=O)(=O)N3CCN(C)CC3)ccc2O)cc1

>  <Energy>  (31) 
63.577352697641416

>  <Genealogy>  (31) 
COc1ccc(S(=O)(=O)c2cc(S(=O)(=O)N3CCN(C)CC3)ccc2O)cc1 (3D coordinates assigned)
COc1ccc(S(=O)(=O)c2cc(S(=O)(=O)N3CCN(C)CC3)ccc2O)cc1 (nonaromatic ring conformer: 63.577352697641416 kcal/mol)

>  <smiles>  (31) 
COc1ccc(S(=O)(=O)c2cc(S(=O)(=O)N3CCN(C)CC3)ccc2O)cc1

>  <score_type>  (31) 
oracle

>  <origin>  (31) 
adgpu

>  <m_score__min__energy>  (31) 
-9.3499999999999996

>  <m_primary>  (31) 
energy

$$$$
31:0
     RDKit          3D

 31 33  0  0  0  0  0  0  0  0999 V2000
   -1.2400   26.0670  -28.9930 O   0  0  0  0  0  0  0  0  0  0  0  0
   -0.8610   24.8660  -28.9860 C   0  0  0  0  0  0  0  0  0  0  0  0
    0.2890   24.5330  -28.2780 O   0  0  0  0  0  0  0  0  0  0  0  0
   -1.6200   23.8190  -29.7160 C   0  0  0  0  0  0  0  0  0  0  0  0
   -1.0410   22.5490  -29.9000 C   0  0  0  0  0  0  0  0  0  0  0  0
   -1.7220   21.5320  -30.5880 C   0  0  0  0  0  0  0  0  0  0  0  0
   -1.0860   20.2520  -30.7560 N   0  0  0  0  0  0  0  0  0  0  0  0
   -0.9980   19.4040  -32.2670 S   0  0  0  0  0  0  0  0  0  0  0  0
   -2.3810   19.2840  -32.8460 O   0  0  0  0  0  0  0  0  0  0  0  0
   -0.4470   18.0250  -32.0310 O   0  0  0  0  0  0  0  0  0  0  0  0
    0.0710   20.2570  -33.3750 C   0  0  0  0  0  0  0  0  0  0  0  0
    1.4190   19.8440  -33.5090 C   0  0  0  0  0  0  0  0  0  0  0  0
    2.2920   20.5230  -34.3790 C   0  0  0  0  0  0  0  0  0  0  0  0
    1.7810   21.6010  -35.0960 C   0  0  0  0  0  0  0  0  0  0  0  0
    2.4280   22.3830  -35.9730 N   0  0  0  0  0  0  0  0  0  0  0  0
    1.4530   23.2480  -36.3530 C   0  0  0  0  0  0  0  0  0  0  0  0
    1.6570   24.1680  -37.1870 O   0  0  0  0  0  0  0  0  0  0  0  0
    0.2440   23.0530  -35.7680 N   0  0  0  0  0  0  0  0  0  0  0  0
    0.4840   21.9980  -34.9750 C   0  0  0  0  0  0  0  0  0  0  0  0
   -0.4090   21.3520  -34.1240 C   0  0  0  0  0  0  0  0  0  0  0  0
   -3.0090   21.7920  -31.0900 C   0  0  0  0  0  0  0  0  0  0  0  0
   -3.5930   23.0460  -30.9150 C   0  0  0  0  0  0  0  0  0  0  0  0
   -2.9110   24.0600  -30.2360 C   0  0  0  0  0  0  0  0  0  0  0  0
   -3.5310   25.2950  -30.0860 O   0  0  0  0  0  0  0  0  0  0  0  0
   -0.0369   22.3498  -29.4975 H   0  0  0  0  0  0  0  0  0  0  0  0
   -0.5730   19.8310  -29.9490 H   0  0  0  0  0  0  0  0  0  0  0  0
    1.7866   18.9853  -32.9281 H   0  0  0  0  0  0  0  0  0  0  0  0
    3.3416   20.2127  -34.4886 H   0  0  0  0  0  0  0  0  0  0  0  0
   -1.4541   21.6844  -34.0386 H   0  0  0  0  0  0  0  0  0  0  0  0
   -3.5581   21.0022  -31.6236 H   0  0  0  0  0  0  0  0  0  0  0  0
   -4.5994   23.2392  -31.3148 H   0  0  0  0  0  0  0  0  0  0  0  0
  1  2  2  0
  2  3  1  0
  2  4  1  0
  4  5  2  0
  5  6  1  0
  6  7  1  0
  7  8  1  0
  8  9  2  0
  8 10  2  0
  8 11  1  0
 11 12  2  0
 12 13  1  0
 13 14  2  0
 14 15  1  0
 15 16  1  0
 16 17  2  0
 16 18  1  0
 18 19  1  0
 19 20  2  0
  6 21  2  0
 21 22  1  0
 22 23  2  0
 23 24  1  0
 23  4  1  0
 20 11  1  0
 19 14  1  0
  5 25  1  0
  7 26  1  0
 12 27  1  0
 13 28  1  0
 20 29  1  0
 21 30  1  0
 22 31  1  0
M  CHG  4   3  -1  15  -1  18  -1  24  -1
M  END
>  <UniqueID>  (32) 
30

>  <SMILES>  (32) 
O=C([O-])c1cc(NS(=O)(=O)c2ccc3[n-]c(=O)[n-]c3c2)ccc1[O-]

>  <Energy>  (32) 
74.18118047506756

>  <Genealogy>  (32) 
O=C([O-])c1cc(NS(=O)(=O)c2ccc3[n-]c(=O)[n-]c3c2)ccc1[O-] (protonated)
O=C([O-])c1cc(NS(=O)(=O)c2ccc3[n-]c(=O)[n-]c3c2)ccc1[O-] (3D coordinates assigned)
O=C([O-])c1cc(NS(=O)(=O)c2ccc3[n-]c(=O)[n-]c3c2)ccc1[O-] (optimized conformer: 74.18118047506756 kcal/mol)

>  <smiles>  (32) 
O=C(O)c1cc(NS(=O)(=O)c2ccc3[nH]c(=O)[nH]c3c2)ccc1O

>  <score_type>  (32) 
oracle

>  <origin>  (32) 
adgpu

>  <m_score__min__energy>  (32) 
-12.789999999999999

>  <m_primary>  (32) 
energy

$$$$
32:0
     RDKit          3D

 68 71  0  0  0  0  0  0  0  0999 V2000
   -3.0930   16.6820  -34.3750 C   0  0  0  0  0  0  0  0  0  0  0  0
   -4.4090   17.1980  -34.7820 N   0  0  0  0  0  0  0  0  0  0  0  0
   -5.4970   16.2510  -34.4290 C   0  0  0  0  0  0  0  0  0  0  0  0
   -6.3300   16.7310  -33.2310 C   0  0  0  0  0  0  0  0  0  0  0  0
   -6.9540   18.0420  -33.5090 N   0  0  0  0  0  0  0  0  0  0  0  0
   -7.4630   18.7920  -32.0140 S   0  0  0  0  0  0  0  0  0  0  0  0
   -8.9600   18.7040  -31.8930 O   0  0  0  0  0  0  0  0  0  0  0  0
   -6.8320   18.0830  -30.8490 O   0  0  0  0  0  0  0  0  0  0  0  0
   -6.9530   20.4780  -31.9750 C   0  0  0  0  0  0  0  0  0  0  0  0
   -5.5940   20.7930  -31.8510 C   0  0  0  0  0  0  0  0  0  0  0  0
   -5.1830   22.1260  -31.7810 C   0  0  0  0  0  0  0  0  0  0  0  0
   -6.1320   23.1630  -31.8340 C   0  0  0  0  0  0  0  0  0  0  0  0
   -5.7590   24.5430  -31.7080 N   0  0  0  0  0  0  0  0  0  0  0  0
   -5.1400   25.1720  -30.5780 C   0  0  0  0  0  0  0  0  0  0  0  0
   -5.8410   25.6980  -29.6740 O   0  0  0  0  0  0  0  0  0  0  0  0
   -3.7140   25.2210  -30.4720 N   0  0  0  0  0  0  0  0  0  0  0  0
   -2.9320   24.4000  -29.5940 C   0  0  0  0  0  0  0  0  0  0  0  0
   -2.7920   23.0460  -29.8810 C   0  0  0  0  0  0  0  0  0  0  0  0
   -2.0940   22.2130  -29.0110 C   0  0  0  0  0  0  0  0  0  0  0  0
   -1.5080   22.7140  -27.8260 C   0  0  0  0  0  0  0  0  0  0  0  0
   -1.5250   24.1250  -27.6020 C   0  0  0  0  0  0  0  0  0  0  0  0
   -2.2740   24.9390  -28.4820 C   0  0  0  0  0  0  0  0  0  0  0  0
   -0.8140   24.7840  -26.4080 C   0  0  0  0  0  0  0  0  0  0  0  0
    0.0790   25.9530  -26.8930 C   0  0  0  0  0  0  0  0  0  0  0  0
   -1.8760   25.3410  -25.4310 C   0  0  0  0  0  0  0  0  0  0  0  0
    0.1120   23.7880  -25.6630 C   0  0  0  0  0  0  0  0  0  0  0  0
   -0.5270   22.4140  -25.5000 C   0  0  0  0  0  0  0  0  0  0  0  0
   -0.8150   21.7400  -26.8640 C   0  0  0  0  0  0  0  0  0  0  0  0
   -1.7170   20.5160  -26.5720 C   0  0  0  0  0  0  0  0  0  0  0  0
    0.5000   21.2440  -27.5070 C   0  0  0  0  0  0  0  0  0  0  0  0
   -7.4910   22.8420  -31.9300 C   0  0  0  0  0  0  0  0  0  0  0  0
   -7.9020   21.5080  -32.0120 C   0  0  0  0  0  0  0  0  0  0  0  0
   -6.0950   18.9580  -34.3000 C   0  0  0  0  0  0  0  0  0  0  0  0
   -4.6120   18.5640  -34.2520 C   0  0  0  0  0  0  0  0  0  0  0  0
   -3.0321   16.6581  -33.2769 H   0  0  0  0  0  0  0  0  0  0  0  0
   -2.9592   15.6648  -34.7718 H   0  0  0  0  0  0  0  0  0  0  0  0
   -2.3035   17.3372  -34.7718 H   0  0  0  0  0  0  0  0  0  0  0  0
   -6.1618   16.1379  -35.2981 H   0  0  0  0  0  0  0  0  0  0  0  0
   -5.0300   15.2951  -34.1494 H   0  0  0  0  0  0  0  0  0  0  0  0
   -7.1197   15.9938  -33.0238 H   0  0  0  0  0  0  0  0  0  0  0  0
   -5.6639   16.8378  -32.3621 H   0  0  0  0  0  0  0  0  0  0  0  0
   -4.8468   19.9868  -31.8085 H   0  0  0  0  0  0  0  0  0  0  0  0
   -4.1138   22.3657  -31.6841 H   0  0  0  0  0  0  0  0  0  0  0  0
   -3.2346   22.6320  -30.7990 H   0  0  0  0  0  0  0  0  0  0  0  0
   -1.9965   21.1438  -29.2503 H   0  0  0  0  0  0  0  0  0  0  0  0
   -2.3414   26.0198  -28.2889 H   0  0  0  0  0  0  0  0  0  0  0  0
    0.4875   26.4878  -26.0229 H   0  0  0  0  0  0  0  0  0  0  0  0
    0.9056   25.5555  -27.5003 H   0  0  0  0  0  0  0  0  0  0  0  0
   -0.5219   26.6459  -27.5003 H   0  0  0  0  0  0  0  0  0  0  0  0
   -1.5476   25.1688  -24.3954 H   0  0  0  0  0  0  0  0  0  0  0  0
   -2.0006   26.4205  -25.6014 H   0  0  0  0  0  0  0  0  0  0  0  0
   -2.8350   24.8298  -25.6014 H   0  0  0  0  0  0  0  0  0  0  0  0
    1.0456   23.6782  -26.2342 H   0  0  0  0  0  0  0  0  0  0  0  0
    0.3009   24.1923  -24.6576 H   0  0  0  0  0  0  0  0  0  0  0  0
    0.1553   21.7716  -24.9240 H   0  0  0  0  0  0  0  0  0  0  0  0
   -1.4863   22.5463  -24.9783 H   0  0  0  0  0  0  0  0  0  0  0  0
   -1.8146   20.3836  -25.4844 H   0  0  0  0  0  0  0  0  0  0  0  0
   -2.7117   20.6802  -27.0121 H   0  0  0  0  0  0  0  0  0  0  0  0
   -1.2656   19.6146  -27.0121 H   0  0  0  0  0  0  0  0  0  0  0  0
    1.2157   20.9741  -26.7165 H   0  0  0  0  0  0  0  0  0  0  0  0
    0.2932   20.3621  -28.1311 H   0  0  0  0  0  0  0  0  0  0  0  0
    0.9271   22.0428  -28.1311 H   0  0  0  0  0  0  0  0  0  0  0  0
   -8.2419   23.6458  -31.9410 H   0  0  0  0  0  0  0  0  0  0  0  0
   -8.9712   21.2671  -32.1056 H   0  0  0  0  0  0  0  0  0  0  0  0
   -6.4308   18.9396  -35.3473 H   0  0  0  0  0  0  0  0  0  0  0  0
   -6.1874   19.9629  -33.8623 H   0  0  0  0  0  0  0  0  0  0  0  0
   -4.0311   19.2749  -34.8579 H   0  0  0  0  0  0  0  0  0  0  0  0
   -4.2771   18.5868  -33.2045 H   0  0  0  0  0  0  0  0  0  0  0  0
  1  2  1  0
  2  3  1  0
  3  4  1  0
  4  5  1  0
  5  6  1  0
  6  7  2  0
  6  8  2  0
  6  9  1  0
  9 10  2  0
 10 11  1  0
 11 12  2  0
 12 13  1  0
 13 14  1  0
 14 15  2  0
 14 16  1  0
 16 17  1  0
 17 18  2  0
 18 19  1  0
 19 20  2  0
 20 21  1  0
 21 22  2  0
 21 23  1  0
 23 24  1  0
 23 25  1  0
 23 26  1  0
 26 27  1  0
 27 28  1  0
 28 29  1  0
 28 30  1  0
 12 31  1  0
 31 32  2  0
  5 33  1  0
 33 34  1  0
 34  2  1  0
 32  9  1  0
 22 17  1  0
 28 20  1  0
  1 35  1  0
  1 36  1  0
  1 37  1  0
  3 38  1  0
  3 39  1  0
  4 40  1  0
  4 41  1  0
 10 42  1  0
 11 43  1  0
 18 44  1  0
 19 45  1  0
 22 46  1  0
 24 47  1  0
 24 48  1  0
 24 49  1  0
 25 50  1  0
 25 51  1  0
 25 52  1  0
 26 53  1  0
 26 54  1  0
 27 55  1  0
 27 56  1  0
 29 57  1  0
 29 58  1  0
 29 59  1  0
 30 60  1  0
 30 61  1  0
 30 62  1  0
 31 63  1  0
 32 64  1  0
 33 65  1  0
 33 66  1  0
 34 67  1  0
 34 68  1  0
M  CHG  2  13  -1  16  -1
M  END
>  <UniqueID>  (33) 
31

>  <SMILES>  (33) 
CN1CCN(S(=O)(=O)c2ccc([N-]C(=O)[N-]c3ccc4c(c3)C(C)(C)CCC4(C)C)cc2)CC1

>  <Energy>  (33) 
90.00177328600917

>  <Genealogy>  (33) 
CN1CCN(S(=O)(=O)c2ccc([N-]C(=O)[N-]c3ccc4c(c3)C(C)(C)CCC4(C)C)cc2)CC1 (protonated)
CN1CCN(S(=O)(=O)c2ccc([N-]C(=O)[N-]c3ccc4c(c3)C(C)(C)CCC4(C)C)cc2)CC1 (3D coordinates assigned)
CN1CCN(S(=O)(=O)c2ccc([N-]C(=O)[N-]c3ccc4c(c3)C(C)(C)CCC4(C)C)cc2)CC1 (nonaromatic ring conformer: 90.00177328600917 kcal/mol)

>  <smiles>  (33) 
CN1CCN(S(=O)(=O)c2ccc(NC(=O)Nc3ccc4c(c3)C(C)(C)CCC4(C)C)cc2)CC1

>  <score_type>  (33) 
oracle

>  <origin>  (33) 
adgpu

>  <m_score__min__energy>  (33) 
-13.960000000000001

>  <m_primary>  (33) 
energy

$$$$
33:0
     RDKit          3D

 53 56  0  0  0  0  0  0  0  0999 V2000
    1.4730   19.2920  -30.6290 C   0  0  0  0  0  0  0  0  0  0  0  0
    0.2900   19.3840  -31.4770 N   0  0  0  0  0  0  0  0  0  0  0  0
    0.2870   19.2130  -32.8940 C   0  0  0  0  0  0  0  0  0  0  0  0
    1.2030   18.6100  -33.5140 O   0  0  0  0  0  0  0  0  0  0  0  0
   -0.9080   19.8460  -33.5620 C   0  0  0  0  0  0  0  0  0  0  0  0
   -1.7910   18.7890  -34.2370 C   0  0  0  0  0  0  0  0  0  0  0  0
   -0.4700   20.9400  -34.5470 C   0  0  0  0  0  0  0  0  0  0  0  0
   -1.5850   20.4380  -32.3560 C   0  0  0  0  0  0  0  0  0  0  0  0
   -2.7510   21.2040  -32.3080 C   0  0  0  0  0  0  0  0  0  0  0  0
   -3.1770   21.7040  -31.0670 C   0  0  0  0  0  0  0  0  0  0  0  0
   -2.4340   21.4430  -29.8960 C   0  0  0  0  0  0  0  0  0  0  0  0
   -2.9170   22.1410  -28.3530 S   0  0  0  0  0  0  0  0  0  0  0  0
   -1.6790   22.5020  -27.5790 O   0  0  0  0  0  0  0  0  0  0  0  0
   -3.7260   21.1630  -27.5480 O   0  0  0  0  0  0  0  0  0  0  0  0
   -3.8590   23.5720  -28.6340 N   0  0  0  0  0  0  0  0  0  0  0  0
   -4.8740   23.6520  -29.6520 C   0  0  0  0  0  0  0  0  0  0  0  0
   -5.8980   22.6910  -29.7300 C   0  0  0  0  0  0  0  0  0  0  0  0
   -6.8700   22.7550  -30.7400 C   0  0  0  0  0  0  0  0  0  0  0  0
   -7.9070   21.6980  -30.8320 C   0  0  0  0  0  0  0  0  0  0  0  0
   -9.0040   21.8760  -30.2340 O   0  0  0  0  0  0  0  0  0  0  0  0
   -7.7030   20.4470  -31.6030 C   0  0  0  0  0  0  0  0  0  0  0  0
   -6.5470   20.2870  -32.3920 C   0  0  0  0  0  0  0  0  0  0  0  0
   -6.3290   19.1010  -33.1000 C   0  0  0  0  0  0  0  0  0  0  0  0
   -7.2540   18.0570  -33.0190 C   0  0  0  0  0  0  0  0  0  0  0  0
   -8.4000   18.1980  -32.2300 C   0  0  0  0  0  0  0  0  0  0  0  0
   -8.6210   19.3820  -31.5170 C   0  0  0  0  0  0  0  0  0  0  0  0
   -6.8140   23.7980  -31.6780 C   0  0  0  0  0  0  0  0  0  0  0  0
   -5.8170   24.7720  -31.5910 C   0  0  0  0  0  0  0  0  0  0  0  0
   -4.8500   24.7030  -30.5850 C   0  0  0  0  0  0  0  0  0  0  0  0
   -3.8590   25.6770  -30.5300 O   0  0  0  0  0  0  0  0  0  0  0  0
   -1.2640   20.6680  -29.9660 C   0  0  0  0  0  0  0  0  0  0  0  0
   -0.8630   20.1700  -31.2080 C   0  0  0  0  0  0  0  0  0  0  0  0
    1.1692   19.3156  -29.5720 H   0  0  0  0  0  0  0  0  0  0  0  0
    2.0014   18.3501  -30.8377 H   0  0  0  0  0  0  0  0  0  0  0  0
    2.1407   20.1409  -30.8377 H   0  0  0  0  0  0  0  0  0  0  0  0
   -2.2947   18.1861  -33.4671 H   0  0  0  0  0  0  0  0  0  0  0  0
   -2.5451   19.2873  -34.8640 H   0  0  0  0  0  0  0  0  0  0  0  0
   -1.1665   18.1356  -34.8640 H   0  0  0  0  0  0  0  0  0  0  0  0
   -0.1182   21.8186  -33.9864 H   0  0  0  0  0  0  0  0  0  0  0  0
    0.3448   20.5586  -35.1800 H   0  0  0  0  0  0  0  0  0  0  0  0
   -1.3228   21.2263  -35.1800 H   0  0  0  0  0  0  0  0  0  0  0  0
   -3.3243   21.4116  -33.2235 H   0  0  0  0  0  0  0  0  0  0  0  0
   -4.0971   22.3039  -31.0071 H   0  0  0  0  0  0  0  0  0  0  0  0
   -3.5570   24.4400  -28.1400 H   0  0  0  0  0  0  0  0  0  0  0  0
   -5.9374   21.8785  -28.9895 H   0  0  0  0  0  0  0  0  0  0  0  0
   -5.8100   21.1014  -32.4516 H   0  0  0  0  0  0  0  0  0  0  0  0
   -5.4282   18.9899  -33.7214 H   0  0  0  0  0  0  0  0  0  0  0  0
   -7.0809   17.1243  -33.5758 H   0  0  0  0  0  0  0  0  0  0  0  0
   -9.1292   17.3767  -32.1696 H   0  0  0  0  0  0  0  0  0  0  0  0
   -9.5165   19.4814  -30.8860 H   0  0  0  0  0  0  0  0  0  0  0  0
   -7.5592   23.8483  -32.4856 H   0  0  0  0  0  0  0  0  0  0  0  0
   -5.7929   25.5973  -32.3179 H   0  0  0  0  0  0  0  0  0  0  0  0
   -0.6755   20.4576  -29.0608 H   0  0  0  0  0  0  0  0  0  0  0  0
  1  2  1  0
  2  3  1  0
  3  4  2  0
  3  5  1  0
  5  6  1  0
  5  7  1  0
  5  8  1  0
  8  9  2  0
  9 10  1  0
 10 11  2  0
 11 12  1  0
 12 13  2  0
 12 14  2  0
 12 15  1  0
 15 16  1  0
 16 17  2  0
 17 18  1  0
 18 19  1  0
 19 20  2  0
 19 21  1  0
 21 22  2  0
 22 23  1  0
 23 24  2  0
 24 25  1  0
 25 26  2  0
 18 27  2  0
 27 28  1  0
 28 29  2  0
 29 30  1  0
 11 31  1  0
 31 32  2  0
 32  2  1  0
 32  8  1  0
 29 16  1  0
 26 21  1  0
  1 33  1  0
  1 34  1  0
  1 35  1  0
  6 36  1  0
  6 37  1  0
  6 38  1  0
  7 39  1  0
  7 40  1  0
  7 41  1  0
  9 42  1  0
 10 43  1  0
 15 44  1  0
 17 45  1  0
 22 46  1  0
 23 47  1  0
 24 48  1  0
 25 49  1  0
 26 50  1  0
 27 51  1  0
 28 52  1  0
 31 53  1  0
M  CHG  1  30  -1
M  END
>  <UniqueID>  (34) 
32

>  <SMILES>  (34) 
CN1C(=O)C(C)(C)c2ccc(S(=O)(=O)Nc3cc(C(=O)c4ccccc4)ccc3[O-])cc21

>  <Energy>  (34) 
81.65888897649529

>  <Genealogy>  (34) 
CN1C(=O)C(C)(C)c2ccc(S(=O)(=O)Nc3cc(C(=O)c4ccccc4)ccc3[O-])cc21 (protonated)
CN1C(=O)C(C)(C)c2ccc(S(=O)(=O)Nc3cc(C(=O)c4ccccc4)ccc3[O-])cc21 (3D coordinates assigned)
CN1C(=O)C(C)(C)c2ccc(S(=O)(=O)Nc3cc(C(=O)c4ccccc4)ccc3[O-])cc21 (nonaromatic ring conformer: 81.65888897649529 kcal/mol)

>  <smiles>  (34) 
CN1C(=O)C(C)(C)c2ccc(S(=O)(=O)Nc3cc(C(=O)c4ccccc4)ccc3O)cc21

>  <score_type>  (34) 
oracle

>  <origin>  (34) 
adgpu

>  <m_score__min__energy>  (34) 
-14.960000000000001

>  <m_primary>  (34) 
energy

$$$$
34:0
     RDKit          3D

 56 59  0  0  0  0  0  0  0  0999 V2000
   -6.5180   17.7390  -33.4000 C   0  0  0  0  0  0  0  0  0  0  0  0
   -5.7520   18.9940  -33.1480 C   0  0  0  0  0  0  0  0  0  0  0  0
   -4.4560   19.2530  -33.5770 C   0  0  0  0  0  0  0  0  0  0  0  0
   -3.9550   20.4750  -33.1120 C   0  0  0  0  0  0  0  0  0  0  0  0
   -4.8580   21.1770  -32.3160 C   0  0  0  0  0  0  0  0  0  0  0  0
   -4.5930   22.4510  -31.6160 C   0  0  0  0  0  0  0  0  0  0  0  0
   -3.5160   22.5190  -30.7240 C   0  0  0  0  0  0  0  0  0  0  0  0
   -3.1970   23.7340  -30.1020 C   0  0  0  0  0  0  0  0  0  0  0  0
   -2.0570   23.8590  -29.1590 C   0  0  0  0  0  0  0  0  0  0  0  0
   -0.7590   23.4400  -29.5150 C   0  0  0  0  0  0  0  0  0  0  0  0
    0.2980   23.5670  -28.6120 C   0  0  0  0  0  0  0  0  0  0  0  0
    0.0820   24.1200  -27.3480 C   0  0  0  0  0  0  0  0  0  0  0  0
   -1.1970   24.5620  -26.9850 C   0  0  0  0  0  0  0  0  0  0  0  0
   -1.4890   25.2400  -25.3850 S   0  0  0  0  0  0  0  0  0  0  0  0
   -1.2300   24.1760  -24.3540 O   0  0  0  0  0  0  0  0  0  0  0  0
   -2.9230   25.6790  -25.2680 O   0  0  0  0  0  0  0  0  0  0  0  0
   -0.4210   26.5940  -25.1170 N   0  0  0  0  0  0  0  0  0  0  0  0
   -0.0800   26.6950  -23.6880 C   0  0  0  0  0  0  0  0  0  0  0  0
    0.8380   27.9130  -23.4320 C   0  0  0  0  0  0  0  0  0  0  0  0
    0.9730   28.7410  -24.5730 O   0  0  0  0  0  0  0  0  0  0  0  0
   -0.3060   29.0860  -25.0650 C   0  0  0  0  0  0  0  0  0  0  0  0
   -1.0480   27.8420  -25.5980 C   0  0  0  0  0  0  0  0  0  0  0  0
   -2.2600   24.4280  -27.8890 C   0  0  0  0  0  0  0  0  0  0  0  0
   -3.9670   24.8220  -30.3670 N   0  0  0  0  0  0  0  0  0  0  0  0
   -5.0090   24.7630  -31.1960 N   0  0  0  0  0  0  0  0  0  0  0  0
   -5.3640   23.6130  -31.8310 C   0  0  0  0  0  0  0  0  0  0  0  0
   -6.5480   23.5970  -32.6520 N   0  0  0  0  0  0  0  0  0  0  0  0
   -7.8680   23.2610  -32.1200 C   0  0  0  0  0  0  0  0  0  0  0  0
   -7.7630   22.7320  -30.6880 C   0  0  0  0  0  0  0  0  0  0  0  0
   -7.2830   23.7290  -29.8280 O   0  0  0  0  0  0  0  0  0  0  0  0
   -6.2610   20.2570  -32.1620 S   0  0  0  0  0  0  0  0  0  0  0  0
   -6.7976   17.2810  -32.4398 H   0  0  0  0  0  0  0  0  0  0  0  0
   -7.4273   17.9732  -33.9730 H   0  0  0  0  0  0  0  0  0  0  0  0
   -5.8940   17.0374  -33.9730 H   0  0  0  0  0  0  0  0  0  0  0  0
   -3.8816   18.5673  -34.2172 H   0  0  0  0  0  0  0  0  0  0  0  0
   -2.9471   20.8447  -33.3516 H   0  0  0  0  0  0  0  0  0  0  0  0
   -2.9202   21.6191  -30.5113 H   0  0  0  0  0  0  0  0  0  0  0  0
   -0.5778   23.0100  -30.5111 H   0  0  0  0  0  0  0  0  0  0  0  0
    1.3055   23.2300  -28.8974 H   0  0  0  0  0  0  0  0  0  0  0  0
    0.9166   24.2086  -26.6369 H   0  0  0  0  0  0  0  0  0  0  0  0
    0.4550   26.4150  -25.6650 H   0  0  0  0  0  0  0  0  0  0  0  0
   -1.0045   26.8098  -23.1030 H   0  0  0  0  0  0  0  0  0  0  0  0
    0.4512   25.7807  -23.3848 H   0  0  0  0  0  0  0  0  0  0  0  0
    0.4118   28.5095  -22.6119 H   0  0  0  0  0  0  0  0  0  0  0  0
    1.8373   27.5301  -23.1774 H   0  0  0  0  0  0  0  0  0  0  0  0
   -0.8950   29.5352  -24.2518 H   0  0  0  0  0  0  0  0  0  0  0  0
   -0.1822   29.8010  -25.8917 H   0  0  0  0  0  0  0  0  0  0  0  0
   -2.0924   27.8735  -25.2543 H   0  0  0  0  0  0  0  0  0  0  0  0
   -0.9985   27.8534  -26.6968 H   0  0  0  0  0  0  0  0  0  0  0  0
   -3.2646   24.7719  -27.6017 H   0  0  0  0  0  0  0  0  0  0  0  0
   -6.4800   23.7640  -33.6790 H   0  0  0  0  0  0  0  0  0  0  0  0
   -8.4982   24.1625  -32.1253 H   0  0  0  0  0  0  0  0  0  0  0  0
   -8.3117   22.4774  -32.7517 H   0  0  0  0  0  0  0  0  0  0  0  0
   -8.7581   22.4095  -30.3478 H   0  0  0  0  0  0  0  0  0  0  0  0
   -7.0627   21.8839  -30.6736 H   0  0  0  0  0  0  0  0  0  0  0  0
   -6.2910   23.6750  -29.8520 H   0  0  0  0  0  0  0  0  0  0  0  0
  1  2  1  0
  2  3  2  0
  3  4  1  0
  4  5  2  0
  5  6  1  0
  6  7  2  0
  7  8  1  0
  8  9  1  0
  9 10  2  0
 10 11  1  0
 11 12  2  0
 12 13  1  0
 13 14  1  0
 14 15  2  0
 14 16  2  0
 14 17  1  0
 17 18  1  0
 18 19  1  0
 19 20  1  0
 20 21  1  0
 21 22  1  0
 13 23  2  0
  8 24  2  0
 24 25  1  0
 25 26  2  0
 26 27  1  0
 27 28  1  0
 28 29  1  0
 29 30  1  0
  5 31  1  0
 31  2  1  0
 26  6  1  0
 23  9  1  0
 22 17  1  0
  1 32  1  0
  1 33  1  0
  1 34  1  0
  3 35  1  0
  4 36  1  0
  7 37  1  0
 10 38  1  0
 11 39  1  0
 12 40  1  0
 17 41  1  0
 18 42  1  0
 18 43  1  0
 19 44  1  0
 19 45  1  0
 21 46  1  0
 21 47  1  0
 22 48  1  0
 22 49  1  0
 23 50  1  0
 27 51  1  0
 28 52  1  0
 28 53  1  0
 29 54  1  0
 29 55  1  0
 30 56  1  0
M  CHG  1  17   1
M  END
>  <UniqueID>  (35) 
33

>  <SMILES>  (35) 
Cc1ccc(-c2cc(-c3cccc(S(=O)(=O)[NH+]4CCOCC4)c3)nnc2NCCO)s1

>  <Energy>  (35) 
98.46350917398307

>  <Genealogy>  (35) 
Cc1ccc(-c2cc(-c3cccc(S(=O)(=O)[NH+]4CCOCC4)c3)nnc2NCCO)s1 (protonated)
Cc1ccc(-c2cc(-c3cccc(S(=O)(=O)[NH+]4CCOCC4)c3)nnc2NCCO)s1 (3D coordinates assigned)
Cc1ccc(-c2cc(-c3cccc(S(=O)(=O)[NH+]4CCOCC4)c3)nnc2NCCO)s1 (nonaromatic ring conformer: 98.46350917398307 kcal/mol)

>  <smiles>  (35) 
Cc1ccc(-c2cc(-c3cccc(S(=O)(=O)N4CCOCC4)c3)nnc2NCCO)s1

>  <score_type>  (35) 
oracle

>  <origin>  (35) 
adgpu

>  <m_score__min__energy>  (35) 
-11.140000000000001

>  <m_primary>  (35) 
energy

$$$$
35:0
     RDKit          3D

 51 54  0  0  0  0  0  0  0  0999 V2000
   -1.4900   20.4380  -29.5870 C   0  0  0  0  0  0  0  0  0  0  0  0
   -1.0220   21.4000  -30.5260 O   0  0  0  0  0  0  0  0  0  0  0  0
   -0.6800   21.1190  -31.8600 C   0  0  0  0  0  0  0  0  0  0  0  0
    0.6200   20.7070  -32.2150 C   0  0  0  0  0  0  0  0  0  0  0  0
    0.9370   20.4150  -33.5480 C   0  0  0  0  0  0  0  0  0  0  0  0
    2.2320   20.0030  -33.9010 C   0  0  0  0  0  0  0  0  0  0  0  0
    2.5400   19.7210  -35.2340 C   0  0  0  0  0  0  0  0  0  0  0  0
    1.5620   19.8470  -36.2230 C   0  0  0  0  0  0  0  0  0  0  0  0
    0.2680   20.2550  -35.8850 C   0  0  0  0  0  0  0  0  0  0  0  0
   -0.0530   20.5400  -34.5480 C   0  0  0  0  0  0  0  0  0  0  0  0
   -1.3450   20.9530  -34.1980 C   0  0  0  0  0  0  0  0  0  0  0  0
   -1.6690   21.2410  -32.8600 C   0  0  0  0  0  0  0  0  0  0  0  0
   -3.0390   21.6910  -32.5150 C   0  0  0  0  0  0  0  0  0  0  0  0
   -4.0230   21.1800  -33.1170 O   0  0  0  0  0  0  0  0  0  0  0  0
   -3.2520   22.6760  -31.4890 N   0  0  0  0  0  0  0  0  0  0  0  0
   -4.5390   23.2440  -31.1840 C   0  0  0  0  0  0  0  0  0  0  0  0
   -5.7240   22.5280  -31.4310 C   0  0  0  0  0  0  0  0  0  0  0  0
   -6.9740   23.1020  -31.1630 C   0  0  0  0  0  0  0  0  0  0  0  0
   -8.4560   22.1880  -31.4640 S   0  0  0  0  0  0  0  0  0  0  0  0
   -9.3810   23.0170  -32.3100 O   0  0  0  0  0  0  0  0  0  0  0  0
   -9.1400   21.9220  -30.1510 O   0  0  0  0  0  0  0  0  0  0  0  0
   -8.1650   20.6640  -32.2680 N   0  0  0  0  0  0  0  0  0  0  0  0
   -9.3120   19.7650  -32.1760 C   0  0  0  0  0  0  0  0  0  0  0  0
   -8.7640   18.3540  -32.3230 C   0  0  0  0  0  0  0  0  0  0  0  0
   -7.2840   18.4620  -31.9850 C   0  0  0  0  0  0  0  0  0  0  0  0
   -7.0470   19.9330  -31.6760 C   0  0  0  0  0  0  0  0  0  0  0  0
   -7.0400   24.4010  -30.6420 C   0  0  0  0  0  0  0  0  0  0  0  0
   -5.8690   25.1270  -30.4140 C   0  0  0  0  0  0  0  0  0  0  0  0
   -4.6230   24.5570  -30.6890 C   0  0  0  0  0  0  0  0  0  0  0  0
   -3.4670   25.2970  -30.4570 O   0  0  0  0  0  0  0  0  0  0  0  0
   -1.3113   20.8054  -28.5657 H   0  0  0  0  0  0  0  0  0  0  0  0
   -2.5678   20.2755  -29.7348 H   0  0  0  0  0  0  0  0  0  0  0  0
   -0.9526   19.4897  -29.7348 H   0  0  0  0  0  0  0  0  0  0  0  0
    1.3932   20.6138  -31.4381 H   0  0  0  0  0  0  0  0  0  0  0  0
    3.0060   19.9020  -33.1259 H   0  0  0  0  0  0  0  0  0  0  0  0
    3.5560   19.3987  -35.5056 H   0  0  0  0  0  0  0  0  0  0  0  0
    1.8105   19.6246  -37.2712 H   0  0  0  0  0  0  0  0  0  0  0  0
   -0.4992   20.3528  -36.6672 H   0  0  0  0  0  0  0  0  0  0  0  0
   -2.1143   21.0531  -34.9779 H   0  0  0  0  0  0  0  0  0  0  0  0
   -2.4420   22.9820  -30.9060 H   0  0  0  0  0  0  0  0  0  0  0  0
   -5.6691   21.5077  -31.8384 H   0  0  0  0  0  0  0  0  0  0  0  0
   -9.8089   19.8806  -31.2014 H   0  0  0  0  0  0  0  0  0  0  0  0
  -10.0564   19.9870  -32.9549 H   0  0  0  0  0  0  0  0  0  0  0  0
   -9.2696   17.6695  -31.6260 H   0  0  0  0  0  0  0  0  0  0  0  0
   -8.9259   17.9540  -33.3348 H   0  0  0  0  0  0  0  0  0  0  0  0
   -7.0427   17.8410  -31.1097 H   0  0  0  0  0  0  0  0  0  0  0  0
   -6.6487   18.1097  -32.8110 H   0  0  0  0  0  0  0  0  0  0  0  0
   -7.0207   20.0938  -30.5881 H   0  0  0  0  0  0  0  0  0  0  0  0
   -6.0850   20.2764  -32.0843 H   0  0  0  0  0  0  0  0  0  0  0  0
   -8.0173   24.8504  -30.4118 H   0  0  0  0  0  0  0  0  0  0  0  0
   -5.9276   26.1510  -30.0166 H   0  0  0  0  0  0  0  0  0  0  0  0
  1  2  1  0
  2  3  1  0
  3  4  2  0
  4  5  1  0
  5  6  2  0
  6  7  1  0
  7  8  2  0
  8  9  1  0
  9 10  2  0
 10 11  1  0
 11 12  2  0
 12 13  1  0
 13 14  2  0
 13 15  1  0
 15 16  1  0
 16 17  2  0
 17 18  1  0
 18 19  1  0
 19 20  2  0
 19 21  2  0
 19 22  1  0
 22 23  1  0
 23 24  1  0
 24 25  1  0
 25 26  1  0
 18 27  2  0
 27 28  1  0
 28 29  2  0
 29 30  1  0
 12  3  1  0
 29 16  1  0
 10  5  1  0
 26 22  1  0
  1 31  1  0
  1 32  1  0
  1 33  1  0
  4 34  1  0
  6 35  1  0
  7 36  1  0
  8 37  1  0
  9 38  1  0
 11 39  1  0
 15 40  1  0
 17 41  1  0
 23 42  1  0
 23 43  1  0
 24 44  1  0
 24 45  1  0
 25 46  1  0
 25 47  1  0
 26 48  1  0
 26 49  1  0
 27 50  1  0
 28 51  1  0
M  CHG  1  30  -1
M  END
>  <UniqueID>  (36) 
34

>  <SMILES>  (36) 
COc1cc2ccccc2cc1C(=O)Nc1cc(S(=O)(=O)N2CCCC2)ccc1[O-]

>  <Energy>  (36) 
66.48174196938767

>  <Genealogy>  (36) 
COc1cc2ccccc2cc1C(=O)Nc1cc(S(=O)(=O)N2CCCC2)ccc1[O-] (protonated)
COc1cc2ccccc2cc1C(=O)Nc1cc(S(=O)(=O)N2CCCC2)ccc1[O-] (3D coordinates assigned)
COc1cc2ccccc2cc1C(=O)Nc1cc(S(=O)(=O)N2CCCC2)ccc1[O-] (nonaromatic ring conformer: 66.48174196938767 kcal/mol)

>  <smiles>  (36) 
COc1cc2ccccc2cc1C(=O)Nc1cc(S(=O)(=O)N2CCCC2)ccc1O

>  <score_type>  (36) 
oracle

>  <origin>  (36) 
adgpu

>  <m_score__min__energy>  (36) 
-12.5

>  <m_primary>  (36) 
energy

$$$$
36:0
     RDKit          3D

 45 47  0  0  0  0  0  0  0  0999 V2000
   -1.4470   20.1330  -27.7800 C   0  0  0  0  0  0  0  0  0  0  0  0
   -1.5910   21.5900  -28.1200 C   0  0  0  0  0  0  0  0  0  0  0  0
   -0.4610   22.3980  -28.3140 C   0  0  0  0  0  0  0  0  0  0  0  0
   -0.6130   23.7530  -28.6230 C   0  0  0  0  0  0  0  0  0  0  0  0
   -1.8920   24.3180  -28.7260 C   0  0  0  0  0  0  0  0  0  0  0  0
   -2.0400   25.6690  -29.0430 O   0  0  0  0  0  0  0  0  0  0  0  0
   -3.0270   23.5260  -28.5070 C   0  0  0  0  0  0  0  0  0  0  0  0
   -4.3240   24.1420  -28.5630 N   0  0  0  0  0  0  0  0  0  0  0  0
   -5.1140   24.6530  -30.0230 S   0  0  0  0  0  0  0  0  0  0  0  0
   -6.1710   25.6720  -29.6900 O   0  0  0  0  0  0  0  0  0  0  0  0
   -4.1030   25.2780  -30.9460 O   0  0  0  0  0  0  0  0  0  0  0  0
   -5.8870   23.2700  -30.7900 C   0  0  0  0  0  0  0  0  0  0  0  0
   -7.2160   23.3710  -31.2180 C   0  0  0  0  0  0  0  0  0  0  0  0
   -7.8740   22.2520  -31.7360 C   0  0  0  0  0  0  0  0  0  0  0  0
   -7.2130   21.0150  -31.8150 C   0  0  0  0  0  0  0  0  0  0  0  0
   -8.0760   19.5830  -32.3820 S   0  0  0  0  0  0  0  0  0  0  0  0
   -8.4820   18.7550  -31.1930 O   0  0  0  0  0  0  0  0  0  0  0  0
   -9.3250   20.0130  -33.0940 O   0  0  0  0  0  0  0  0  0  0  0  0
   -7.1120   18.6000  -33.4590 N   0  0  0  0  0  0  0  0  0  0  0  0
   -6.1050   19.3870  -34.1650 C   0  0  0  0  0  0  0  0  0  0  0  0
   -5.0140   18.4090  -34.5690 C   0  0  0  0  0  0  0  0  0  0  0  0
   -5.1450   17.2420  -33.6000 C   0  0  0  0  0  0  0  0  0  0  0  0
   -6.3630   17.5630  -32.7440 C   0  0  0  0  0  0  0  0  0  0  0  0
   -5.8720   20.9240  -31.4180 C   0  0  0  0  0  0  0  0  0  0  0  0
   -5.2120   22.0460  -30.9070 C   0  0  0  0  0  0  0  0  0  0  0  0
   -2.8700   22.1550  -28.2280 C   0  0  0  0  0  0  0  0  0  0  0  0
   -1.4349   20.0110  -26.6869 H   0  0  0  0  0  0  0  0  0  0  0  0
   -2.2941   19.5725  -28.2022 H   0  0  0  0  0  0  0  0  0  0  0  0
   -0.5065   19.7492  -28.2022 H   0  0  0  0  0  0  0  0  0  0  0  0
    0.5461   21.9650  -28.2229 H   0  0  0  0  0  0  0  0  0  0  0  0
    0.2762   24.3796  -28.7863 H   0  0  0  0  0  0  0  0  0  0  0  0
   -2.9290   26.0460  -29.3510 H   0  0  0  0  0  0  0  0  0  0  0  0
   -7.7438   24.3335  -31.1465 H   0  0  0  0  0  0  0  0  0  0  0  0
   -8.9140   22.3403  -32.0833 H   0  0  0  0  0  0  0  0  0  0  0  0
   -6.5446   19.8584  -35.0564 H   0  0  0  0  0  0  0  0  0  0  0  0
   -5.7077   20.1934  -33.5311 H   0  0  0  0  0  0  0  0  0  0  0  0
   -5.1645   18.0694  -35.6044 H   0  0  0  0  0  0  0  0  0  0  0  0
   -4.0150   18.8675  -34.5276 H   0  0  0  0  0  0  0  0  0  0  0  0
   -5.2974   16.3010  -34.1489 H   0  0  0  0  0  0  0  0  0  0  0  0
   -4.2387   17.1124  -32.9902 H   0  0  0  0  0  0  0  0  0  0  0  0
   -6.9850   16.6648  -32.6161 H   0  0  0  0  0  0  0  0  0  0  0  0
   -6.0659   17.9061  -31.7420 H   0  0  0  0  0  0  0  0  0  0  0  0
   -5.3370   19.9671  -31.5086 H   0  0  0  0  0  0  0  0  0  0  0  0
   -4.1598   21.9684  -30.5957 H   0  0  0  0  0  0  0  0  0  0  0  0
   -3.7588   21.5211  -28.0935 H   0  0  0  0  0  0  0  0  0  0  0  0
  1  2  1  0
  2  3  2  0
  3  4  1  0
  4  5  2  0
  5  6  1  0
  5  7  1  0
  7  8  1  0
  8  9  1  0
  9 10  2  0
  9 11  2  0
  9 12  1  0
 12 13  2  0
 13 14  1  0
 14 15  2  0
 15 16  1  0
 16 17  2  0
 16 18  2  0
 16 19  1  0
 19 20  1  0
 20 21  1  0
 21 22  1  0
 22 23  1  0
 15 24  1  0
 24 25  2  0
  7 26  2  0
 26  2  1  0
 25 12  1  0
 23 19  1  0
  1 27  1  0
  1 28  1  0
  1 29  1  0
  3 30  1  0
  4 31  1  0
  6 32  1  0
 13 33  1  0
 14 34  1  0
 20 35  1  0
 20 36  1  0
 21 37  1  0
 21 38  1  0
 22 39  1  0
 22 40  1  0
 23 41  1  0
 23 42  1  0
 24 43  1  0
 25 44  1  0
 26 45  1  0
M  CHG  1   8  -1
M  END
>  <UniqueID>  (37) 
35

>  <SMILES>  (37) 
Cc1ccc(O)c([N-]S(=O)(=O)c2ccc(S(=O)(=O)N3CCCC3)cc2)c1

>  <Energy>  (37) 
48.079041792721476

>  <Genealogy>  (37) 
Cc1ccc(O)c([N-]S(=O)(=O)c2ccc(S(=O)(=O)N3CCCC3)cc2)c1 (protonated)
Cc1ccc(O)c([N-]S(=O)(=O)c2ccc(S(=O)(=O)N3CCCC3)cc2)c1 (3D coordinates assigned)
Cc1ccc(O)c([N-]S(=O)(=O)c2ccc(S(=O)(=O)N3CCCC3)cc2)c1 (nonaromatic ring conformer: 48.079041792721476 kcal/mol)

>  <smiles>  (37) 
Cc1ccc(O)c(NS(=O)(=O)c2ccc(S(=O)(=O)N3CCCC3)cc2)c1

>  <score_type>  (37) 
oracle

>  <origin>  (37) 
adgpu

>  <m_score__min__energy>  (37) 
-12.59

>  <m_primary>  (37) 
energy

$$$$
37:0
     RDKit          3D

 51 54  0  0  0  0  0  0  0  0999 V2000
   -0.4830   18.2630  -30.9630 O   0  0  0  0  0  0  0  0  0  0  0  0
   -1.1530   18.9470  -31.7840 C   0  0  0  0  0  0  0  0  0  0  0  0
   -1.9150   18.2990  -32.7570 C   0  0  0  0  0  0  0  0  0  0  0  0
   -2.6710   19.0470  -33.6570 C   0  0  0  0  0  0  0  0  0  0  0  0
   -3.4490   18.3720  -34.6120 O   0  0  0  0  0  0  0  0  0  0  0  0
   -4.2710   17.2340  -34.3470 C   0  0  0  0  0  0  0  0  0  0  0  0
   -5.4000   17.6030  -33.4310 C   0  0  0  0  0  0  0  0  0  0  0  0
   -6.4860   18.3520  -33.9090 C   0  0  0  0  0  0  0  0  0  0  0  0
   -7.5460   18.6450  -33.0490 C   0  0  0  0  0  0  0  0  0  0  0  0
   -7.5160   18.1920  -31.7290 C   0  0  0  0  0  0  0  0  0  0  0  0
   -8.5440   18.4650  -30.8870 F   0  0  0  0  0  0  0  0  0  0  0  0
   -6.4160   17.4540  -31.2850 C   0  0  0  0  0  0  0  0  0  0  0  0
   -5.3930   17.1770  -32.1370 N   0  0  0  0  0  0  0  0  0  0  0  0
   -2.6170   20.4450  -33.5690 C   0  0  0  0  0  0  0  0  0  0  0  0
   -1.8660   21.0290  -32.6010 N   0  0  0  0  0  0  0  0  0  0  0  0
   -1.1520   20.3160  -31.7240 N   0  0  0  0  0  0  0  0  0  0  0  0
   -0.4320   21.0340  -30.6650 C   0  0  0  0  0  0  0  0  0  0  0  0
   -1.3970   21.8170  -29.8130 C   0  0  0  0  0  0  0  0  0  0  0  0
   -1.8610   21.2950  -28.5940 C   0  0  0  0  0  0  0  0  0  0  0  0
   -2.8110   21.9940  -27.8450 C   0  0  0  0  0  0  0  0  0  0  0  0
   -3.3200   23.2070  -28.3140 C   0  0  0  0  0  0  0  0  0  0  0  0
   -2.8580   23.7400  -29.5270 C   0  0  0  0  0  0  0  0  0  0  0  0
   -3.4430   24.9200  -30.0750 N   0  0  0  0  0  0  0  0  0  0  0  0
   -5.1630   25.1120  -30.1240 S   0  0  0  0  0  0  0  0  0  0  0  0
   -5.4900   26.3930  -30.8380 O   0  0  0  0  0  0  0  0  0  0  0  0
   -5.7170   25.1840  -28.7280 O   0  0  0  0  0  0  0  0  0  0  0  0
   -5.8680   23.7470  -30.9880 C   0  0  0  0  0  0  0  0  0  0  0  0
   -7.2610   23.5950  -31.0730 C   0  0  0  0  0  0  0  0  0  0  0  0
   -7.8080   22.5250  -31.7900 C   0  0  0  0  0  0  0  0  0  0  0  0
   -6.9710   21.6170  -32.4440 C   0  0  0  0  0  0  0  0  0  0  0  0
   -5.5830   21.7680  -32.3690 C   0  0  0  0  0  0  0  0  0  0  0  0
   -5.0330   22.8250  -31.6390 C   0  0  0  0  0  0  0  0  0  0  0  0
   -1.8740   23.0630  -30.2530 C   0  0  0  0  0  0  0  0  0  0  0  0
   -1.9188   17.2004  -32.8133 H   0  0  0  0  0  0  0  0  0  0  0  0
   -4.6824   16.8562  -35.2946 H   0  0  0  0  0  0  0  0  0  0  0  0
   -3.6593   16.4584  -33.8630 H   0  0  0  0  0  0  0  0  0  0  0  0
   -6.5020   18.7047  -34.9508 H   0  0  0  0  0  0  0  0  0  0  0  0
   -8.4032   19.2317  -33.4109 H   0  0  0  0  0  0  0  0  0  0  0  0
   -6.3774   17.0967  -30.2454 H   0  0  0  0  0  0  0  0  0  0  0  0
   -3.1806   21.0657  -34.2811 H   0  0  0  0  0  0  0  0  0  0  0  0
    0.1027   20.3087  -30.0341 H   0  0  0  0  0  0  0  0  0  0  0  0
    0.2824   21.7307  -31.1278 H   0  0  0  0  0  0  0  0  0  0  0  0
   -1.4749   20.3323  -28.2278 H   0  0  0  0  0  0  0  0  0  0  0  0
   -3.1588   21.5880  -26.8837 H   0  0  0  0  0  0  0  0  0  0  0  0
   -4.0833   23.7447  -27.7324 H   0  0  0  0  0  0  0  0  0  0  0  0
   -7.9236   24.3182  -30.5751 H   0  0  0  0  0  0  0  0  0  0  0  0
   -8.8996   22.3983  -31.8389 H   0  0  0  0  0  0  0  0  0  0  0  0
   -7.4038   20.7840  -33.0174 H   0  0  0  0  0  0  0  0  0  0  0  0
   -4.9237   21.0544  -32.8849 H   0  0  0  0  0  0  0  0  0  0  0  0
   -3.9405   22.9352  -31.5741 H   0  0  0  0  0  0  0  0  0  0  0  0
   -1.4707   23.5085  -31.1744 H   0  0  0  0  0  0  0  0  0  0  0  0
  1  2  2  0
  2  3  1  0
  3  4  2  0
  4  5  1  0
  5  6  1  0
  6  7  1  0
  7  8  2  0
  8  9  1  0
  9 10  2  0
 10 11  1  0
 10 12  1  0
 12 13  2  0
  4 14  1  0
 14 15  2  0
 15 16  1  0
 16 17  1  0
 17 18  1  0
 18 19  2  0
 19 20  1  0
 20 21  2  0
 21 22  1  0
 22 23  1  0
 23 24  1  0
 24 25  2  0
 24 26  2  0
 24 27  1  0
 27 28  2  0
 28 29  1  0
 29 30  2  0
 30 31  1  0
 31 32  2  0
 22 33  2  0
 16  2  1  0
 33 18  1  0
 13  7  1  0
 32 27  1  0
  3 34  1  0
  6 35  1  0
  6 36  1  0
  8 37  1  0
  9 38  1  0
 12 39  1  0
 14 40  1  0
 17 41  1  0
 17 42  1  0
 19 43  1  0
 20 44  1  0
 21 45  1  0
 28 46  1  0
 29 47  1  0
 30 48  1  0
 31 49  1  0
 32 50  1  0
 33 51  1  0
M  CHG  1  23  -1
M  END
>  <UniqueID>  (38) 
36

>  <SMILES>  (38) 
O=c1cc(OCc2ccc(F)cn2)cnn1Cc1cccc([N-]S(=O)(=O)c2ccccc2)c1

>  <Energy>  (38) 
61.158935922254045

>  <Genealogy>  (38) 
O=c1cc(OCc2ccc(F)cn2)cnn1Cc1cccc([N-]S(=O)(=O)c2ccccc2)c1 (protonated)
O=c1cc(OCc2ccc(F)cn2)cnn1Cc1cccc([N-]S(=O)(=O)c2ccccc2)c1 (3D coordinates assigned)
O=c1cc(OCc2ccc(F)cn2)cnn1Cc1cccc([N-]S(=O)(=O)c2ccccc2)c1 (optimized conformer: 61.158935922254045 kcal/mol)

>  <smiles>  (38) 
O=c1cc(OCc2ccc(F)cn2)cnn1Cc1cccc(NS(=O)(=O)c2ccccc2)c1

>  <score_type>  (38) 
oracle

>  <origin>  (38) 
adgpu

>  <m_score__min__energy>  (38) 
-10.16

>  <m_primary>  (38) 
energy

$$$$
38:0
     RDKit          3D

 71 75  0  0  0  0  0  0  0  0999 V2000
   -2.1030   17.8640  -33.2170 O   0  0  0  0  0  0  0  0  0  0  0  0
   -3.0020   18.7410  -33.3170 C   0  0  0  0  0  0  0  0  0  0  0  0
   -2.6480   20.1140  -33.5110 N   0  0  0  0  0  0  0  0  0  0  0  0
   -2.3100   21.0320  -32.4640 C   0  0  0  0  0  0  0  0  0  0  0  0
   -1.0650   20.9750  -31.8160 C   0  0  0  0  0  0  0  0  0  0  0  0
   -0.7820   21.8500  -30.7620 C   0  0  0  0  0  0  0  0  0  0  0  0
   -1.7270   22.8040  -30.3610 C   0  0  0  0  0  0  0  0  0  0  0  0
   -1.3610   23.9150  -29.0420 S   0  0  0  0  0  0  0  0  0  0  0  0
    0.1300   24.1040  -28.9610 O   0  0  0  0  0  0  0  0  0  0  0  0
   -1.9750   25.2560  -29.3460 O   0  0  0  0  0  0  0  0  0  0  0  0
   -1.9410   23.3380  -27.4910 N   0  0  0  0  0  0  0  0  0  0  0  0
   -2.6410   24.3800  -26.7140 C   0  0  0  0  0  0  0  0  0  0  0  0
   -4.1540   24.4560  -27.0120 C   0  0  0  0  0  0  0  0  0  0  0  0
   -4.5480   23.5660  -28.0320 O   0  0  0  0  0  0  0  0  0  0  0  0
   -4.2090   22.2510  -27.6570 C   0  0  0  0  0  0  0  0  0  0  0  0
   -2.6830   22.0630  -27.5980 C   0  0  0  0  0  0  0  0  0  0  0  0
   -2.9680   22.8580  -31.0070 C   0  0  0  0  0  0  0  0  0  0  0  0
   -3.2640   21.9640  -32.0400 C   0  0  0  0  0  0  0  0  0  0  0  0
   -4.4280   18.3510  -33.2840 C   0  0  0  0  0  0  0  0  0  0  0  0
   -5.3710   19.2580  -32.7710 C   0  0  0  0  0  0  0  0  0  0  0  0
   -6.7220   18.9040  -32.6710 C   0  0  0  0  0  0  0  0  0  0  0  0
   -7.8980   20.0510  -32.0200 S   0  0  0  0  0  0  0  0  0  0  0  0
   -8.8810   20.4160  -33.0980 O   0  0  0  0  0  0  0  0  0  0  0  0
   -8.6590   19.3960  -30.9010 O   0  0  0  0  0  0  0  0  0  0  0  0
   -7.1270   21.5070  -31.4380 N   0  0  0  0  0  0  0  0  0  0  0  0
   -7.9690   22.1540  -30.4170 C   0  0  0  0  0  0  0  0  0  0  0  0
   -7.2350   23.3440  -29.7710 C   0  0  0  0  0  0  0  0  0  0  0  0
   -6.0090   23.7930  -30.5820 C   0  0  0  0  0  0  0  0  0  0  0  0
   -6.3140   23.7890  -32.0800 C   0  0  0  0  0  0  0  0  0  0  0  0
   -6.8720   22.4300  -32.5610 C   0  0  0  0  0  0  0  0  0  0  0  0
   -7.1370   17.6360  -33.0890 C   0  0  0  0  0  0  0  0  0  0  0  0
   -6.2130   16.7290  -33.6120 C   0  0  0  0  0  0  0  0  0  0  0  0
   -4.8590   17.0760  -33.7190 C   0  0  0  0  0  0  0  0  0  0  0  0
   -3.9480   16.1560  -34.3350 N   0  0  0  0  0  0  0  0  0  0  0  0
   -3.5950   14.8770  -33.7490 C   0  0  0  0  0  0  0  0  0  0  0  0
   -2.6090   14.2530  -34.7260 C   0  0  0  0  0  0  0  0  0  0  0  0
   -2.8200   14.9810  -36.0540 C   0  0  0  0  0  0  0  0  0  0  0  0
   -3.4790   16.3100  -35.7000 C   0  0  0  0  0  0  0  0  0  0  0  0
   -0.3115   20.2411  -32.1379 H   0  0  0  0  0  0  0  0  0  0  0  0
    0.1872   21.7890  -30.2453 H   0  0  0  0  0  0  0  0  0  0  0  0
   -2.5070   24.1655  -25.6435 H   0  0  0  0  0  0  0  0  0  0  0  0
   -2.2047   25.3477  -27.0025 H   0  0  0  0  0  0  0  0  0  0  0  0
   -4.7073   24.2081  -26.0942 H   0  0  0  0  0  0  0  0  0  0  0  0
   -4.3766   25.4773  -27.3547 H   0  0  0  0  0  0  0  0  0  0  0  0
   -4.6348   22.0401  -26.6649 H   0  0  0  0  0  0  0  0  0  0  0  0
   -4.6155   21.5593  -28.4096 H   0  0  0  0  0  0  0  0  0  0  0  0
   -2.4410   21.4434  -26.7219 H   0  0  0  0  0  0  0  0  0  0  0  0
   -2.3765   21.5853  -28.5403 H   0  0  0  0  0  0  0  0  0  0  0  0
   -3.7130   23.6069  -30.7004 H   0  0  0  0  0  0  0  0  0  0  0  0
   -4.2522   21.9932  -32.5223 H   0  0  0  0  0  0  0  0  0  0  0  0
   -5.0443   20.2564  -32.4446 H   0  0  0  0  0  0  0  0  0  0  0  0
   -8.8942   22.5154  -30.8897 H   0  0  0  0  0  0  0  0  0  0  0  0
   -8.1996   21.4169  -29.6338 H   0  0  0  0  0  0  0  0  0  0  0  0
   -7.9347   24.1892  -29.6930 H   0  0  0  0  0  0  0  0  0  0  0  0
   -6.8795   23.0191  -28.7820 H   0  0  0  0  0  0  0  0  0  0  0  0
   -5.7271   24.8109  -30.2747 H   0  0  0  0  0  0  0  0  0  0  0  0
   -5.1843   23.0910  -30.3896 H   0  0  0  0  0  0  0  0  0  0  0  0
   -7.0574   24.5717  -32.2918 H   0  0  0  0  0  0  0  0  0  0  0  0
   -5.3716   23.9747  -32.6160 H   0  0  0  0  0  0  0  0  0  0  0  0
   -7.8157   22.6041  -33.0986 H   0  0  0  0  0  0  0  0  0  0  0  0
   -6.1195   21.9671  -33.2164 H   0  0  0  0  0  0  0  0  0  0  0  0
   -8.1963   17.3515  -33.0055 H   0  0  0  0  0  0  0  0  0  0  0  0
   -6.5499   15.7353  -33.9423 H   0  0  0  0  0  0  0  0  0  0  0  0
   -3.1256   15.0195  -32.7645 H   0  0  0  0  0  0  0  0  0  0  0  0
   -4.4768   14.2391  -33.5889 H   0  0  0  0  0  0  0  0  0  0  0  0
   -1.5773   14.3943  -34.3715 H   0  0  0  0  0  0  0  0  0  0  0  0
   -2.7713   13.1698  -34.8282 H   0  0  0  0  0  0  0  0  0  0  0  0
   -1.8554   15.1531  -36.5538 H   0  0  0  0  0  0  0  0  0  0  0  0
   -3.4422   14.3920  -36.7439 H   0  0  0  0  0  0  0  0  0  0  0  0
   -2.7498   17.1309  -35.7661 H   0  0  0  0  0  0  0  0  0  0  0  0
   -4.3001   16.5560  -36.3894 H   0  0  0  0  0  0  0  0  0  0  0  0
  1  2  2  0
  2  3  1  0
  3  4  1  0
  4  5  2  0
  5  6  1  0
  6  7  2  0
  7  8  1  0
  8  9  2  0
  8 10  2  0
  8 11  1  0
 11 12  1  0
 12 13  1  0
 13 14  1  0
 14 15  1  0
 15 16  1  0
  7 17  1  0
 17 18  2  0
  2 19  1  0
 19 20  2  0
 20 21  1  0
 21 22  1  0
 22 23  2  0
 22 24  2  0
 22 25  1  0
 25 26  1  0
 26 27  1  0
 27 28  1  0
 28 29  1  0
 29 30  1  0
 21 31  2  0
 31 32  1  0
 32 33  2  0
 33 34  1  0
 34 35  1  0
 35 36  1  0
 36 37  1  0
 37 38  1  0
 18  4  1  0
 33 19  1  0
 38 34  1  0
 16 11  1  0
 30 25  1  0
  5 39  1  0
  6 40  1  0
 12 41  1  0
 12 42  1  0
 13 43  1  0
 13 44  1  0
 15 45  1  0
 15 46  1  0
 16 47  1  0
 16 48  1  0
 17 49  1  0
 18 50  1  0
 20 51  1  0
 26 52  1  0
 26 53  1  0
 27 54  1  0
 27 55  1  0
 28 56  1  0
 28 57  1  0
 29 58  1  0
 29 59  1  0
 30 60  1  0
 30 61  1  0
 31 62  1  0
 32 63  1  0
 35 64  1  0
 35 65  1  0
 36 66  1  0
 36 67  1  0
 37 68  1  0
 37 69  1  0
 38 70  1  0
 38 71  1  0
M  CHG  1   3  -1
M  END
>  <UniqueID>  (39) 
37

>  <SMILES>  (39) 
O=C([N-]c1ccc(S(=O)(=O)N2CCOCC2)cc1)c1cc(S(=O)(=O)N2CCCCC2)ccc1N1CCCC1

>  <Energy>  (39) 
99.99397450345083

>  <Genealogy>  (39) 
O=C([N-]c1ccc(S(=O)(=O)N2CCOCC2)cc1)c1cc(S(=O)(=O)N2CCCCC2)ccc1N1CCCC1 (protonated)
O=C([N-]c1ccc(S(=O)(=O)N2CCOCC2)cc1)c1cc(S(=O)(=O)N2CCCCC2)ccc1N1CCCC1 (3D coordinates assigned)
O=C([N-]c1ccc(S(=O)(=O)N2CCOCC2)cc1)c1cc(S(=O)(=O)N2CCCCC2)ccc1N1CCCC1 (nonaromatic ring conformer: 99.99397450345083 kcal/mol)

>  <smiles>  (39) 
O=C(Nc1ccc(S(=O)(=O)N2CCOCC2)cc1)c1cc(S(=O)(=O)N2CCCCC2)ccc1N1CCCC1

>  <score_type>  (39) 
oracle

>  <origin>  (39) 
adgpu

>  <m_score__min__energy>  (39) 
-12.26

>  <m_primary>  (39) 
energy

$$$$
39:0
     RDKit          3D

 35 37  0  0  1  0  0  0  0  0999 V2000
   -2.9600   15.3040  -35.1290 C   0  0  0  0  0  0  0  0  0  0  0  0
   -3.9970   16.0440  -34.3560 C   0  0  0  0  0  0  0  0  0  0  0  0
   -4.4280   15.4910  -33.1680 C   0  0  0  0  0  0  0  0  0  0  0  0
   -5.3870   16.1560  -32.4330 C   0  0  0  0  0  0  0  0  0  0  0  0
   -5.9050   17.3630  -32.8890 C   0  0  0  0  0  0  0  0  0  0  0  0
   -5.4910   17.9400  -34.0780 C   0  0  0  0  0  0  0  0  0  0  0  0
   -6.0510   19.2400  -34.5680 C   0  0  0  0  0  0  0  0  0  0  0  0
   -6.0880   20.2420  -33.5570 N   0  0  0  0  0  0  0  0  0  0  0  0
   -7.0160   20.5000  -32.7270 C   0  0  0  0  0  0  0  0  0  0  0  0
   -8.1280   19.7490  -32.7760 N   0  0  0  0  0  0  0  0  0  0  0  0
   -9.1890   19.8950  -31.9720 C   0  0  0  0  0  0  0  0  0  0  0  0
   -9.1030   20.8880  -31.0460 N   0  0  0  0  0  0  0  0  0  0  0  0
   -8.0080   21.6620  -30.9630 C   0  0  0  0  0  0  0  0  0  0  0  0
   -7.6130   23.0330  -29.8550 S   0  0  0  0  0  0  0  0  0  0  0  0
   -5.9840   23.3120  -30.5920 C   0  0  0  0  0  0  0  0  0  0  0  0
   -5.0950   24.3470  -30.1240 C   0  0  0  0  0  0  0  0  0  0  0  0
   -5.3530   24.9130  -28.8460 N   0  0  0  0  0  0  0  0  0  0  0  0
   -4.1400   24.7120  -30.8420 O   0  0  0  0  0  0  0  0  0  0  0  0
   -5.8880   22.3890  -31.5620 C   0  0  0  0  0  0  0  0  0  0  0  0
   -6.9060   21.5370  -31.7700 C   0  0  0  0  0  0  0  0  0  0  0  0
   -4.5270   17.2430  -34.7870 C   0  0  0  0  0  0  0  0  0  0  0  0
   -2.2669   14.8094  -34.4326 H   0  0  0  0  0  0  0  0  0  0  0  0
   -3.4455   14.5471  -35.7625 H   0  0  0  0  0  0  0  0  0  0  0  0
   -2.4021   16.0093  -35.7625 H   0  0  0  0  0  0  0  0  0  0  0  0
   -4.0138   14.5358  -32.8129 H   0  0  0  0  0  0  0  0  0  0  0  0
   -5.7431   15.7302  -31.4833 H   0  0  0  0  0  0  0  0  0  0  0  0
   -6.6684   17.8763  -32.2858 H   0  0  0  0  0  0  0  0  0  0  0  0
   -5.4258   19.6012  -35.3979 H   0  0  0  0  0  0  0  0  0  0  0  0
   -7.0870   19.0543  -34.8877 H   0  0  0  0  0  0  0  0  0  0  0  0
   -8.1860   18.9890  -33.4890 H   0  0  0  0  0  0  0  0  0  0  0  0
  -10.0767   19.2508  -32.0553 H   0  0  0  0  0  0  0  0  0  0  0  0
   -6.3110   25.0040  -28.4390 H   0  0  0  0  0  0  0  0  0  0  0  0
   -4.5170   25.2510  -28.3020 H   0  0  0  0  0  0  0  0  0  0  0  0
   -4.9817   22.3305  -32.1826 H   0  0  0  0  0  0  0  0  0  0  0  0
   -4.1673   17.6644  -35.7373 H   0  0  0  0  0  0  0  0  0  0  0  0
  1  2  1  0
  2  3  2  0
  3  4  1  0
  4  5  2  0
  5  6  1  0
  6  7  1  0
  7  8  1  0
  8  9  2  0
  9 10  1  0
 10 11  1  0
 11 12  2  0
 12 13  1  0
 13 14  1  0
 14 15  1  0
 15 16  1  0
 16 17  1  0
 16 18  2  0
 15 19  2  0
 19 20  1  0
  6 21  2  0
 21  2  1  0
 20  9  1  0
 20 13  2  0
  1 22  1  0
  1 23  1  0
  1 24  1  0
  3 25  1  0
  4 26  1  0
  5 27  1  0
  7 28  1  0
  7 29  1  0
 10 30  1  0
 11 31  1  0
 17 32  1  0
 17 33  1  0
 19 34  1  0
 21 35  1  0
M  END
>  <smiles>  (40) 
Cc1cccc(CN=c2[nH]cnc3sc(C(N)=O)cc23)c1

>  <score_type>  (40) 
oracle

>  <origin>  (40) 
adgpu

>  <m_score__min__energy>  (40) 
-8.5399999999999991

>  <m_primary>  (40) 
energy

$$$$
40:0
     RDKit          3D

 48 51  0  0  0  0  0  0  0  0999 V2000
   -4.4630   25.6440  -29.0420 H   0  0  0  0  0  0  0  0  0  0  0  0
   -3.9150   25.2760  -29.8110 O   0  0  0  0  0  0  0  0  0  0  0  0
   -2.7880   24.4810  -29.6030 C   0  0  0  0  0  0  0  0  0  0  0  0
   -1.5740   25.0470  -29.1770 C   0  0  0  0  0  0  0  0  0  0  0  0
   -1.4700   26.4150  -28.9590 O   0  0  0  0  0  0  0  0  0  0  0  0
   -0.4600   24.2300  -28.9640 C   0  0  0  0  0  0  0  0  0  0  0  0
    0.4879   24.6733  -28.6250 H   0  0  0  0  0  0  0  0  0  0  0  0
   -0.5460   22.8530  -29.1800 C   0  0  0  0  0  0  0  0  0  0  0  0
    0.3304   22.2142  -28.9960 H   0  0  0  0  0  0  0  0  0  0  0  0
   -1.7460   22.2800  -29.6310 C   0  0  0  0  0  0  0  0  0  0  0  0
   -1.8530   20.8200  -29.8170 C   0  0  0  0  0  0  0  0  0  0  0  0
   -1.5449   20.1744  -28.9814 H   0  0  0  0  0  0  0  0  0  0  0  0
   -2.2990   20.2250  -30.9320 C   0  0  0  0  0  0  0  0  0  0  0  0
   -2.2144   19.1300  -30.9941 H   0  0  0  0  0  0  0  0  0  0  0  0
   -2.9080   20.9460  -32.1070 C   0  0  0  0  0  0  0  0  0  0  0  0
   -2.1568   21.0422  -32.9048 H   0  0  0  0  0  0  0  0  0  0  0  0
   -3.2403   21.9442  -31.7859 H   0  0  0  0  0  0  0  0  0  0  0  0
   -4.0560   20.1970  -32.6110 N   0  0  0  0  0  0  0  0  0  0  0  0
   -4.0680   18.8060  -32.9280 C   0  0  0  0  0  0  0  0  0  0  0  0
   -3.0140   18.1270  -33.0560 O   0  0  0  0  0  0  0  0  0  0  0  0
   -5.4640   18.2400  -33.0720 C   0  0  0  0  0  0  0  0  0  0  0  0
   -6.2610   19.4830  -32.7490 C   0  0  0  0  0  0  0  0  0  0  0  0
   -7.6520   19.6310  -32.6840 C   0  0  0  0  0  0  0  0  0  0  0  0
   -8.3164   18.7805  -32.8969 H   0  0  0  0  0  0  0  0  0  0  0  0
   -8.1830   20.8850  -32.3420 C   0  0  0  0  0  0  0  0  0  0  0  0
   -9.2731   21.0205  -32.2849 H   0  0  0  0  0  0  0  0  0  0  0  0
   -7.3280   21.9690  -32.0720 C   0  0  0  0  0  0  0  0  0  0  0  0
   -7.7532   22.9474  -31.8037 H   0  0  0  0  0  0  0  0  0  0  0  0
   -5.9360   21.8090  -32.1430 C   0  0  0  0  0  0  0  0  0  0  0  0
   -5.2613   22.6516  -31.9313 H   0  0  0  0  0  0  0  0  0  0  0  0
   -5.4260   20.5540  -32.4890 C   0  0  0  0  0  0  0  0  0  0  0  0
   -5.7210   17.1300  -32.0140 C   0  0  0  0  0  0  0  0  0  0  0  0
   -5.1059   17.3327  -31.1249 H   0  0  0  0  0  0  0  0  0  0  0  0
   -6.7903   17.1361  -31.7561 H   0  0  0  0  0  0  0  0  0  0  0  0
   -5.3630   15.7450  -32.5640 C   0  0  0  0  0  0  0  0  0  0  0  0
   -4.3004   15.7396  -32.8483 H   0  0  0  0  0  0  0  0  0  0  0  0
   -5.5682   15.0036  -31.7777 H   0  0  0  0  0  0  0  0  0  0  0  0
   -6.2110   15.3770  -33.7990 C   0  0  0  0  0  0  0  0  0  0  0  0
   -5.6012   14.7473  -34.4635 H   0  0  0  0  0  0  0  0  0  0  0  0
   -7.1060   14.8549  -33.4297 H   0  0  0  0  0  0  0  0  0  0  0  0
   -6.7020   16.5990  -34.6020 C   0  0  0  0  0  0  0  0  0  0  0  0
   -6.8335   16.3043  -35.6536 H   0  0  0  0  0  0  0  0  0  0  0  0
   -7.6528   16.9361  -34.1634 H   0  0  0  0  0  0  0  0  0  0  0  0
   -5.7070   17.7640  -34.5340 C   0  0  0  0  0  0  0  0  0  0  0  0
   -4.7489   17.4381  -34.9651 H   0  0  0  0  0  0  0  0  0  0  0  0
   -6.1320   18.6067  -35.0990 H   0  0  0  0  0  0  0  0  0  0  0  0
   -2.8730   23.0980  -29.8210 C   0  0  0  0  0  0  0  0  0  0  0  0
   -4.0810   22.5420  -30.2350 O   0  0  0  0  0  0  0  0  0  0  0  0
  1  2  1  0
  2  3  1  0
  3  4  2  0
  4  5  1  0
  4  6  1  0
  6  7  1  0
  6  8  2  0
  8  9  1  0
  8 10  1  0
 10 11  1  0
 11 12  1  0
 11 13  2  0
 13 14  1  0
 13 15  1  0
 15 16  1  0
 15 17  1  0
 15 18  1  0
 18 19  1  0
 19 20  2  0
 19 21  1  0
 21 22  1  0
 22 23  2  0
 23 24  1  0
 23 25  1  0
 25 26  1  0
 25 27  2  0
 27 28  1  0
 27 29  1  0
 29 30  1  0
 29 31  2  0
 21 32  1  0
 32 33  1  0
 32 34  1  0
 32 35  1  0
 35 36  1  0
 35 37  1  0
 35 38  1  0
 38 39  1  0
 38 40  1  0
 38 41  1  0
 41 42  1  0
 41 43  1  0
 41 44  1  0
 44 45  1  0
 44 46  1  0
 10 47  2  0
 47 48  1  0
 47  3  1  0
 31 18  1  0
 44 21  1  0
 31 22  1  0
M  CHG  2   5  -1  48  -1
M  END
>  <UniqueID>  (41) 
38

>  <SMILES>  (41) 
O=C1N(C/C=C\c2ccc([O-])c(O)c2[O-])c2ccccc2C12CCCCC2

>  <Energy>  (41) 
80.81565777980232

>  <Genealogy>  (41) 
O=C1N(CC=Cc2ccc([O-])c(O)c2[O-])c2ccccc2C12CCCCC2 (protonated)
O=C1N(C/C=C\c2ccc([O-])c(O)c2[O-])c2ccccc2C12CCCCC2 (cis-trans isomerization)
O=C1N(C/C=C\c2ccc([O-])c(O)c2[O-])c2ccccc2C12CCCCC2 (3D coordinates assigned)
O=C1N(C/C=C\c2ccc([O-])c(O)c2[O-])c2ccccc2C12CCCCC2 (nonaromatic ring conformer: 80.81565777980232 kcal/mol)

>  <smiles>  (41) 
O=C1N(CC=Cc2ccc(O)c(O)c2O)c2ccccc2C12CCCCC2

>  <score_type>  (41) 
oracle

>  <origin>  (41) 
adgpu

>  <m_score__min__energy>  (41) 
-14.59

>  <m_primary>  (41) 
energy

$$$$
41:0
     RDKit          3D

 47 49  0  0  0  0  0  0  0  0999 V2000
   -3.2300   19.4100  -26.8610 C   0  0  0  0  0  0  0  0  0  0  0  0
   -1.6780   20.1930  -26.4910 S   0  0  0  0  0  0  0  0  0  0  0  0
   -1.5690   20.4130  -25.0070 O   0  0  0  0  0  0  0  0  0  0  0  0
   -0.5480   19.3070  -26.9320 O   0  0  0  0  0  0  0  0  0  0  0  0
   -1.5890   21.7340  -27.3350 C   0  0  0  0  0  0  0  0  0  0  0  0
   -0.3540   22.3700  -27.5170 C   0  0  0  0  0  0  0  0  0  0  0  0
   -0.2890   23.5980  -28.1780 C   0  0  0  0  0  0  0  0  0  0  0  0
   -1.4580   24.2140  -28.6470 C   0  0  0  0  0  0  0  0  0  0  0  0
   -1.3750   25.4150  -29.3490 O   0  0  0  0  0  0  0  0  0  0  0  0
   -2.7090   23.6010  -28.4230 C   0  0  0  0  0  0  0  0  0  0  0  0
   -3.9370   24.2180  -28.8340 N   0  0  0  0  0  0  0  0  0  0  0  0
   -4.4020   24.3070  -30.1880 C   0  0  0  0  0  0  0  0  0  0  0  0
   -4.1840   25.3620  -30.8390 O   0  0  0  0  0  0  0  0  0  0  0  0
   -5.1090   23.1810  -30.8380 C   0  0  0  0  0  0  0  0  0  0  0  0
   -6.3380   23.3960  -31.4800 C   0  0  0  0  0  0  0  0  0  0  0  0
   -7.0560   22.3180  -32.0090 C   0  0  0  0  0  0  0  0  0  0  0  0
   -6.5440   21.0170  -31.9160 C   0  0  0  0  0  0  0  0  0  0  0  0
   -7.5010   19.6420  -32.4700 S   0  0  0  0  0  0  0  0  0  0  0  0
   -7.6360   18.6490  -31.3500 O   0  0  0  0  0  0  0  0  0  0  0  0
   -8.8800   20.1160  -32.8380 O   0  0  0  0  0  0  0  0  0  0  0  0
   -6.7650   18.8560  -33.8520 N   0  0  0  0  0  0  0  0  0  0  0  0
   -6.7270   17.4010  -33.6710 C   0  0  0  0  0  0  0  0  0  0  0  0
   -5.3470   17.0200  -33.1540 C   0  0  0  0  0  0  0  0  0  0  0  0
   -4.4570   18.2100  -33.4480 C   0  0  0  0  0  0  0  0  0  0  0  0
   -5.3710   19.2820  -34.0300 C   0  0  0  0  0  0  0  0  0  0  0  0
   -5.2880   20.8090  -31.3330 C   0  0  0  0  0  0  0  0  0  0  0  0
   -4.5750   21.8820  -30.7960 C   0  0  0  0  0  0  0  0  0  0  0  0
   -2.7610   22.3510  -27.7920 C   0  0  0  0  0  0  0  0  0  0  0  0
   -3.7430   19.1512  -25.9230 H   0  0  0  0  0  0  0  0  0  0  0  0
   -3.8584   20.0990  -27.4445 H   0  0  0  0  0  0  0  0  0  0  0  0
   -3.0493   18.4952  -27.4445 H   0  0  0  0  0  0  0  0  0  0  0  0
    0.5661   21.9009  -27.1384 H   0  0  0  0  0  0  0  0  0  0  0  0
    0.6852   24.0852  -28.3318 H   0  0  0  0  0  0  0  0  0  0  0  0
   -2.0620   25.6730  -30.0470 H   0  0  0  0  0  0  0  0  0  0  0  0
   -6.7387   24.4166  -31.5678 H   0  0  0  0  0  0  0  0  0  0  0  0
   -8.0251   22.4923  -32.4993 H   0  0  0  0  0  0  0  0  0  0  0  0
   -7.4939   17.0964  -32.9436 H   0  0  0  0  0  0  0  0  0  0  0  0
   -6.9269   16.8947  -34.6269 H   0  0  0  0  0  0  0  0  0  0  0  0
   -5.3829   16.8258  -32.0719 H   0  0  0  0  0  0  0  0  0  0  0  0
   -4.9721   16.1039  -33.6337 H   0  0  0  0  0  0  0  0  0  0  0  0
   -3.9838   18.5716  -32.5231 H   0  0  0  0  0  0  0  0  0  0  0  0
   -3.6483   17.9467  -34.1456 H   0  0  0  0  0  0  0  0  0  0  0  0
   -5.2049   20.2349  -33.5062 H   0  0  0  0  0  0  0  0  0  0  0  0
   -5.1540   19.4208  -35.0994 H   0  0  0  0  0  0  0  0  0  0  0  0
   -4.8614   19.7957  -31.2981 H   0  0  0  0  0  0  0  0  0  0  0  0
   -3.5900   21.7098  -30.3376 H   0  0  0  0  0  0  0  0  0  0  0  0
   -3.7304   21.8497  -27.6542 H   0  0  0  0  0  0  0  0  0  0  0  0
  1  2  1  0
  2  3  2  0
  2  4  2  0
  2  5  1  0
  5  6  2  0
  6  7  1  0
  7  8  2  0
  8  9  1  0
  8 10  1  0
 10 11  1  0
 11 12  1  0
 12 13  2  0
 12 14  1  0
 14 15  2  0
 15 16  1  0
 16 17  2  0
 17 18  1  0
 18 19  2  0
 18 20  2  0
 18 21  1  0
 21 22  1  0
 22 23  1  0
 23 24  1  0
 24 25  1  0
 17 26  1  0
 26 27  2  0
 10 28  2  0
 28  5  1  0
 27 14  1  0
 25 21  1  0
  1 29  1  0
  1 30  1  0
  1 31  1  0
  6 32  1  0
  7 33  1  0
  9 34  1  0
 15 35  1  0
 16 36  1  0
 22 37  1  0
 22 38  1  0
 23 39  1  0
 23 40  1  0
 24 41  1  0
 24 42  1  0
 25 43  1  0
 25 44  1  0
 26 45  1  0
 27 46  1  0
 28 47  1  0
M  CHG  1  11  -1
M  END
>  <UniqueID>  (42) 
39

>  <SMILES>  (42) 
CS(=O)(=O)c1ccc(O)c([N-]C(=O)c2ccc(S(=O)(=O)N3CCCC3)cc2)c1

>  <Energy>  (42) 
51.71715833747572

>  <Genealogy>  (42) 
CS(=O)(=O)c1ccc(O)c([N-]C(=O)c2ccc(S(=O)(=O)N3CCCC3)cc2)c1 (protonated)
CS(=O)(=O)c1ccc(O)c([N-]C(=O)c2ccc(S(=O)(=O)N3CCCC3)cc2)c1 (3D coordinates assigned)
CS(=O)(=O)c1ccc(O)c([N-]C(=O)c2ccc(S(=O)(=O)N3CCCC3)cc2)c1 (nonaromatic ring conformer: 51.71715833747572 kcal/mol)

>  <smiles>  (42) 
CS(=O)(=O)c1ccc(O)c(NC(=O)c2ccc(S(=O)(=O)N3CCCC3)cc2)c1

>  <score_type>  (42) 
oracle

>  <origin>  (42) 
adgpu

>  <m_score__min__energy>  (42) 
-12.550000000000001

>  <m_primary>  (42) 
energy

$$$$
42:0
     RDKit          3D

 45 47  0  0  0  0  0  0  0  0999 V2000
   -1.3810   20.4670  -29.4710 O   0  0  0  0  0  0  0  0  0  0  0  0
   -2.0210   21.5010  -30.3550 S   0  0  0  0  0  0  0  0  0  0  0  0
   -0.9830   22.4340  -30.9110 O   0  0  0  0  0  0  0  0  0  0  0  0
   -3.1860   22.3970  -29.4310 N   0  0  0  0  0  0  0  0  0  0  0  0
   -4.1680   23.3340  -29.9030 C   0  0  0  0  0  0  0  0  0  0  0  0
   -5.4290   22.8250  -30.2440 C   0  0  0  0  0  0  0  0  0  0  0  0
   -6.4500   23.6680  -30.7050 C   0  0  0  0  0  0  0  0  0  0  0  0
   -7.7860   23.1010  -31.1000 C   0  0  0  0  0  0  0  0  0  0  0  0
   -7.7740   22.7450  -32.4560 O   0  0  0  0  0  0  0  0  0  0  0  0
   -6.1970   25.0380  -30.8470 C   0  0  0  0  0  0  0  0  0  0  0  0
   -4.9480   25.5600  -30.5090 C   0  0  0  0  0  0  0  0  0  0  0  0
   -3.9310   24.7230  -30.0360 C   0  0  0  0  0  0  0  0  0  0  0  0
   -2.7100   25.2950  -29.7100 O   0  0  0  0  0  0  0  0  0  0  0  0
   -2.8310   20.6920  -31.6960 C   0  0  0  0  0  0  0  0  0  0  0  0
   -4.2200   20.4950  -31.6590 C   0  0  0  0  0  0  0  0  0  0  0  0
   -4.8730   19.8290  -32.7050 C   0  0  0  0  0  0  0  0  0  0  0  0
   -6.6120   19.5410  -32.6220 S   0  0  0  0  0  0  0  0  0  0  0  0
   -7.1740   20.2500  -31.4210 O   0  0  0  0  0  0  0  0  0  0  0  0
   -7.2670   20.1170  -33.8470 O   0  0  0  0  0  0  0  0  0  0  0  0
   -6.9880   17.8330  -32.5210 N   0  0  0  0  0  0  0  0  0  0  0  0
   -6.0780   17.1390  -31.6030 C   0  0  0  0  0  0  0  0  0  0  0  0
   -5.0050   16.4370  -32.4240 C   0  0  0  0  0  0  0  0  0  0  0  0
   -5.4600   16.5230  -33.8670 C   0  0  0  0  0  0  0  0  0  0  0  0
   -6.8310   17.1820  -33.8250 C   0  0  0  0  0  0  0  0  0  0  0  0
   -4.1330   19.3820  -33.8070 C   0  0  0  0  0  0  0  0  0  0  0  0
   -2.7530   19.5910  -33.8600 C   0  0  0  0  0  0  0  0  0  0  0  0
   -2.1000   20.2440  -32.8110 C   0  0  0  0  0  0  0  0  0  0  0  0
   -0.7260   20.4470  -32.8850 O   0  0  0  0  0  0  0  0  0  0  0  0
   -5.6206   21.7460  -30.1482 H   0  0  0  0  0  0  0  0  0  0  0  0
   -7.9978   22.2096  -30.4912 H   0  0  0  0  0  0  0  0  0  0  0  0
   -8.5641   23.8604  -30.9330 H   0  0  0  0  0  0  0  0  0  0  0  0
   -7.4910   21.7940  -32.4960 H   0  0  0  0  0  0  0  0  0  0  0  0
   -6.9855   25.7047  -31.2262 H   0  0  0  0  0  0  0  0  0  0  0  0
   -4.7610   26.6388  -30.6152 H   0  0  0  0  0  0  0  0  0  0  0  0
   -4.8010   20.8664  -30.8019 H   0  0  0  0  0  0  0  0  0  0  0  0
   -5.6090   17.8670  -30.9247 H   0  0  0  0  0  0  0  0  0  0  0  0
   -6.6356   16.4035  -31.0045 H   0  0  0  0  0  0  0  0  0  0  0  0
   -4.0359   16.9420  -32.2981 H   0  0  0  0  0  0  0  0  0  0  0  0
   -4.8724   15.3927  -32.1049 H   0  0  0  0  0  0  0  0  0  0  0  0
   -4.7586   17.1330  -34.4551 H   0  0  0  0  0  0  0  0  0  0  0  0
   -5.4994   15.5313  -34.3412 H   0  0  0  0  0  0  0  0  0  0  0  0
   -6.9085   17.9312  -34.6267 H   0  0  0  0  0  0  0  0  0  0  0  0
   -7.6189   16.4282  -33.9700 H   0  0  0  0  0  0  0  0  0  0  0  0
   -4.6407   18.8642  -34.6341 H   0  0  0  0  0  0  0  0  0  0  0  0
   -2.1784   19.2406  -34.7301 H   0  0  0  0  0  0  0  0  0  0  0  0
  1  2  2  0
  2  3  2  0
  2  4  1  0
  4  5  1  0
  5  6  2  0
  6  7  1  0
  7  8  1  0
  8  9  1  0
  7 10  2  0
 10 11  1  0
 11 12  2  0
 12 13  1  0
  2 14  1  0
 14 15  2  0
 15 16  1  0
 16 17  1  0
 17 18  2  0
 17 19  2  0
 17 20  1  0
 20 21  1  0
 21 22  1  0
 22 23  1  0
 23 24  1  0
 16 25  2  0
 25 26  1  0
 26 27  2  0
 27 28  1  0
 12  5  1  0
 27 14  1  0
 24 20  1  0
  6 29  1  0
  8 30  1  0
  8 31  1  0
  9 32  1  0
 10 33  1  0
 11 34  1  0
 15 35  1  0
 21 36  1  0
 21 37  1  0
 22 38  1  0
 22 39  1  0
 23 40  1  0
 23 41  1  0
 24 42  1  0
 24 43  1  0
 25 44  1  0
 26 45  1  0
M  CHG  3   4  -1  13  -1  28  -1
M  END
>  <UniqueID>  (43) 
40

>  <SMILES>  (43) 
O=S(=O)([N-]c1cc(CO)ccc1[O-])c1cc(S(=O)(=O)N2CCCC2)ccc1[O-]

>  <Energy>  (43) 
53.64320091525359

>  <Genealogy>  (43) 
O=S(=O)([N-]c1cc(CO)ccc1[O-])c1cc(S(=O)(=O)N2CCCC2)ccc1[O-] (protonated)
O=S(=O)([N-]c1cc(CO)ccc1[O-])c1cc(S(=O)(=O)N2CCCC2)ccc1[O-] (3D coordinates assigned)
O=S(=O)([N-]c1cc(CO)ccc1[O-])c1cc(S(=O)(=O)N2CCCC2)ccc1[O-] (nonaromatic ring conformer: 53.64320091525359 kcal/mol)

>  <smiles>  (43) 
O=S(=O)(Nc1cc(CO)ccc1O)c1cc(S(=O)(=O)N2CCCC2)ccc1O

>  <score_type>  (43) 
oracle

>  <origin>  (43) 
adgpu

>  <m_score__min__energy>  (43) 
-16.170000000000002

>  <m_primary>  (43) 
energy

$$$$
43:0
     RDKit          3D

 45 47  0  0  0  0  0  0  0  0999 V2000
   -9.0670   18.2210  -31.6110 C   0  0  0  0  0  0  0  0  0  0  0  0
   -8.3700   19.5330  -31.8230 C   0  0  0  0  0  0  0  0  0  0  0  0
   -9.1040   20.7260  -31.8470 C   0  0  0  0  0  0  0  0  0  0  0  0
   -8.4510   21.9490  -32.0010 C   0  0  0  0  0  0  0  0  0  0  0  0
   -7.0570   22.0040  -32.1180 C   0  0  0  0  0  0  0  0  0  0  0  0
   -6.4590   23.2650  -32.1900 O   0  0  0  0  0  0  0  0  0  0  0  0
   -6.3060   20.8040  -32.1210 C   0  0  0  0  0  0  0  0  0  0  0  0
   -4.8430   20.7870  -32.3320 C   0  0  0  0  0  0  0  0  0  0  0  0
   -4.3890   20.6610  -33.5030 O   0  0  0  0  0  0  0  0  0  0  0  0
   -3.9560   20.9840  -31.2180 N   0  0  0  0  0  0  0  0  0  0  0  0
   -3.6300   22.1250  -30.6900 C   0  0  0  0  0  0  0  0  0  0  0  0
   -4.0780   23.3240  -31.1260 N   0  0  0  0  0  0  0  0  0  0  0  0
   -3.5620   24.3410  -30.3850 C   0  0  0  0  0  0  0  0  0  0  0  0
   -3.8700   25.6680  -30.6590 O   0  0  0  0  0  0  0  0  0  0  0  0
   -2.7140   23.9540  -29.3490 C   0  0  0  0  0  0  0  0  0  0  0  0
   -1.9640   24.8700  -28.4260 C   0  0  0  0  0  0  0  0  0  0  0  0
   -0.4810   24.6240  -28.4850 C   0  0  0  0  0  0  0  0  0  0  0  0
   -0.0300   23.7950  -29.3190 O   0  0  0  0  0  0  0  0  0  0  0  0
    0.4440   25.3670  -27.6790 N   0  0  0  0  0  0  0  0  0  0  0  0
    0.1670   25.9190  -26.3850 C   0  0  0  0  0  0  0  0  0  0  0  0
    0.0390   27.3080  -26.2200 C   0  0  0  0  0  0  0  0  0  0  0  0
   -0.2520   27.8470  -24.9650 C   0  0  0  0  0  0  0  0  0  0  0  0
   -0.4360   27.0020  -23.8690 C   0  0  0  0  0  0  0  0  0  0  0  0
   -0.3420   25.6180  -24.0270 C   0  0  0  0  0  0  0  0  0  0  0  0
   -0.0500   25.0650  -25.2850 C   0  0  0  0  0  0  0  0  0  0  0  0
    0.0710   23.3130  -25.4720 S   0  0  0  0  0  0  0  0  0  0  0  0
    1.3470   22.9020  -26.5640 N   0  0  0  0  0  0  0  0  0  0  0  0
   -1.2240   22.7790  -26.0150 O   0  0  0  0  0  0  0  0  0  0  0  0
    0.3530   22.6880  -24.1340 O   0  0  0  0  0  0  0  0  0  0  0  0
   -2.5810   22.2730  -29.3860 S   0  0  0  0  0  0  0  0  0  0  0  0
   -6.9750   19.5790  -31.9440 C   0  0  0  0  0  0  0  0  0  0  0  0
   -9.1686   18.0298  -30.5325 H   0  0  0  0  0  0  0  0  0  0  0  0
  -10.0648   18.2571  -32.0725 H   0  0  0  0  0  0  0  0  0  0  0  0
   -8.4785   17.4144  -32.0725 H   0  0  0  0  0  0  0  0  0  0  0  0
  -10.1988   20.6982  -31.7441 H   0  0  0  0  0  0  0  0  0  0  0  0
   -9.0371   22.8794  -32.0308 H   0  0  0  0  0  0  0  0  0  0  0  0
   -5.5270   23.4570  -31.8480 H   0  0  0  0  0  0  0  0  0  0  0  0
   -2.1647   25.9118  -28.7164 H   0  0  0  0  0  0  0  0  0  0  0  0
   -2.3040   24.6759  -27.3980 H   0  0  0  0  0  0  0  0  0  0  0  0
    0.1688   27.9754  -27.0847 H   0  0  0  0  0  0  0  0  0  0  0  0
   -0.3362   28.9366  -24.8401 H   0  0  0  0  0  0  0  0  0  0  0  0
   -0.6555   27.4276  -22.8787 H   0  0  0  0  0  0  0  0  0  0  0  0
   -0.4974   24.9569  -23.1617 H   0  0  0  0  0  0  0  0  0  0  0  0
    1.0940   23.3010  -27.4950 H   0  0  0  0  0  0  0  0  0  0  0  0
   -6.3952   18.6452  -31.9001 H   0  0  0  0  0  0  0  0  0  0  0  0
  1  2  1  0
  2  3  2  0
  3  4  1  0
  4  5  2  0
  5  6  1  0
  5  7  1  0
  7  8  1  0
  8  9  2  0
  8 10  1  0
 10 11  2  3
 11 12  1  0
 12 13  1  0
 13 14  1  0
 13 15  2  0
 15 16  1  0
 16 17  1  0
 17 18  2  0
 17 19  1  0
 19 20  1  0
 20 21  2  0
 21 22  1  0
 22 23  2  0
 23 24  1  0
 24 25  2  0
 25 26  1  0
 26 27  1  0
 26 28  2  0
 26 29  2  0
 15 30  1  0
  7 31  2  0
 31  2  1  0
 30 11  1  0
 25 20  1  0
  1 32  1  0
  1 33  1  0
  1 34  1  0
  3 35  1  0
  4 36  1  0
  6 37  1  0
 16 38  1  0
 16 39  1  0
 21 40  1  0
 22 41  1  0
 23 42  1  0
 24 43  1  0
 27 44  1  0
 31 45  1  0
M  CHG  4  12  -1  14  -1  19  -1  27  -1
M  END
>  <UniqueID>  (44) 
41

>  <SMILES>  (44) 
Cc1ccc(O)c(C(=O)N=c2[n-]c([O-])c(CC(=O)[N-]c3ccccc3S([NH-])(=O)=O)s2)c1

>  <Energy>  (44) 
89.3940768937228

>  <Genealogy>  (44) 
Cc1ccc(O)c(C(=O)N=c2[n-]c([O-])c(CC(=O)[N-]c3ccccc3S([NH-])(=O)=O)s2)c1 (protonated)
Cc1ccc(O)c(C(=O)N=c2[n-]c([O-])c(CC(=O)[N-]c3ccccc3S([NH-])(=O)=O)s2)c1 (3D coordinates assigned)
Cc1ccc(O)c(C(=O)N=c2[n-]c([O-])c(CC(=O)[N-]c3ccccc3S([NH-])(=O)=O)s2)c1 (optimized conformer: 89.3940768937228 kcal/mol)

>  <smiles>  (44) 
Cc1ccc(O)c(C(=O)N=c2[nH]c(O)c(CC(=O)Nc3ccccc3S(N)(=O)=O)s2)c1

>  <score_type>  (44) 
oracle

>  <origin>  (44) 
adgpu

>  <m_score__min__energy>  (44) 
-13.06

>  <m_primary>  (44) 
energy

$$$$
44:0
     RDKit          3D

 44 46  0  0  0  0  0  0  0  0999 V2000
   -6.2400   16.4010  -33.8830 C   0  0  0  0  0  0  0  0  0  0  0  0
   -7.2260   16.8810  -32.9740 O   0  0  0  0  0  0  0  0  0  0  0  0
   -7.4460   18.2370  -32.6890 C   0  0  0  0  0  0  0  0  0  0  0  0
   -8.5370   18.6790  -31.9160 C   0  0  0  0  0  0  0  0  0  0  0  0
   -8.7130   20.0420  -31.6580 C   0  0  0  0  0  0  0  0  0  0  0  0
   -7.7910   20.9810  -32.1540 C   0  0  0  0  0  0  0  0  0  0  0  0
   -7.9620   22.3870  -31.9340 N   0  0  0  0  0  0  0  0  0  0  0  0
   -7.0720   23.2460  -31.2100 C   0  0  0  0  0  0  0  0  0  0  0  0
   -7.3660   23.5680  -30.0280 O   0  0  0  0  0  0  0  0  0  0  0  0
   -5.8430   23.8360  -31.8460 C   0  0  0  0  0  0  0  0  0  0  0  0
   -4.6090   23.2390  -31.2440 C   0  0  0  0  0  0  0  0  0  0  0  0
   -4.3110   21.8920  -31.1440 C   0  0  0  0  0  0  0  0  0  0  0  0
   -3.1050   21.8220  -30.4710 C   0  0  0  0  0  0  0  0  0  0  0  0
   -2.4440   20.6330  -30.1730 O   0  0  0  0  0  0  0  0  0  0  0  0
   -2.6610   23.0560  -30.1420 N   0  0  0  0  0  0  0  0  0  0  0  0
   -1.4070   23.4060  -29.4700 C   0  0  0  0  0  0  0  0  0  0  0  0
   -1.6740   24.3260  -28.3090 C   0  0  0  0  0  0  0  0  0  0  0  0
   -0.7800   25.3690  -28.0160 C   0  0  0  0  0  0  0  0  0  0  0  0
   -1.0160   26.2180  -26.9300 C   0  0  0  0  0  0  0  0  0  0  0  0
   -2.1460   26.0330  -26.1300 C   0  0  0  0  0  0  0  0  0  0  0  0
   -3.0420   24.9980  -26.4140 C   0  0  0  0  0  0  0  0  0  0  0  0
   -2.8100   24.1480  -27.4990 C   0  0  0  0  0  0  0  0  0  0  0  0
   -3.5840   23.9180  -30.6150 C   0  0  0  0  0  0  0  0  0  0  0  0
   -3.5040   25.3000  -30.4800 O   0  0  0  0  0  0  0  0  0  0  0  0
   -6.7240   20.5420  -32.9440 C   0  0  0  0  0  0  0  0  0  0  0  0
   -6.5480   19.1790  -33.2020 C   0  0  0  0  0  0  0  0  0  0  0  0
   -5.3911   15.9877  -33.3185 H   0  0  0  0  0  0  0  0  0  0  0  0
   -6.6768   15.6147  -34.5162 H   0  0  0  0  0  0  0  0  0  0  0  0
   -5.8906   17.2298  -34.5162 H   0  0  0  0  0  0  0  0  0  0  0  0
   -9.2541   17.9486  -31.5133 H   0  0  0  0  0  0  0  0  0  0  0  0
   -9.5754   20.3809  -31.0652 H   0  0  0  0  0  0  0  0  0  0  0  0
   -5.8574   23.6273  -32.9259 H   0  0  0  0  0  0  0  0  0  0  0  0
   -5.8365   24.9222  -31.6723 H   0  0  0  0  0  0  0  0  0  0  0  0
   -4.9098   21.0502  -31.5219 H   0  0  0  0  0  0  0  0  0  0  0  0
   -2.5990   20.1390  -29.3060 H   0  0  0  0  0  0  0  0  0  0  0  0
   -0.9244   22.4885  -29.1021 H   0  0  0  0  0  0  0  0  0  0  0  0
   -0.7482   23.9176  -30.1871 H   0  0  0  0  0  0  0  0  0  0  0  0
    0.1105   25.5188  -28.6441 H   0  0  0  0  0  0  0  0  0  0  0  0
   -0.3111   27.0322  -26.7056 H   0  0  0  0  0  0  0  0  0  0  0  0
   -2.3309   26.7017  -25.2764 H   0  0  0  0  0  0  0  0  0  0  0  0
   -3.9309   24.8524  -25.7826 H   0  0  0  0  0  0  0  0  0  0  0  0
   -3.5188   23.3365  -27.7203 H   0  0  0  0  0  0  0  0  0  0  0  0
   -6.0186   21.2735  -33.3652 H   0  0  0  0  0  0  0  0  0  0  0  0
   -5.6967   18.8449  -33.8132 H   0  0  0  0  0  0  0  0  0  0  0  0
  1  2  1  0
  2  3  1  0
  3  4  2  0
  4  5  1  0
  5  6  2  0
  6  7  1  0
  7  8  1  0
  8  9  2  0
  8 10  1  0
 10 11  1  0
 11 12  1  0
 12 13  2  0
 13 14  1  0
 13 15  1  0
 15 16  1  0
 16 17  1  0
 17 18  2  0
 18 19  1  0
 19 20  2  0
 20 21  1  0
 21 22  2  0
 15 23  1  0
 23 24  1  0
  6 25  1  0
 25 26  2  0
 26  3  1  0
 23 11  2  0
 22 17  1  0
  1 27  1  0
  1 28  1  0
  1 29  1  0
  4 30  1  0
  5 31  1  0
 10 32  1  0
 10 33  1  0
 12 34  1  0
 14 35  1  0
 16 36  1  0
 16 37  1  0
 18 38  1  0
 19 39  1  0
 20 40  1  0
 21 41  1  0
 22 42  1  0
 25 43  1  0
 26 44  1  0
M  CHG  2   7  -1  24  -1
M  END
>  <UniqueID>  (45) 
42

>  <SMILES>  (45) 
COc1ccc([N-]C(=O)Cc2cc(O)n(Cc3ccccc3)c2[O-])cc1

>  <Energy>  (45) 
75.80965498873853

>  <Genealogy>  (45) 
COc1ccc([N-]C(=O)Cc2cc(O)n(Cc3ccccc3)c2[O-])cc1 (protonated)
COc1ccc([N-]C(=O)Cc2cc(O)n(Cc3ccccc3)c2[O-])cc1 (3D coordinates assigned)
COc1ccc([N-]C(=O)Cc2cc(O)n(Cc3ccccc3)c2[O-])cc1 (optimized conformer: 75.80965498873853 kcal/mol)

>  <smiles>  (45) 
COc1ccc(NC(=O)Cc2cc(O)n(Cc3ccccc3)c2O)cc1

>  <score_type>  (45) 
oracle

>  <origin>  (45) 
adgpu

>  <m_score__min__energy>  (45) 
-11.15

>  <m_primary>  (45) 
energy

$$$$
45:0
     RDKit          3D

 50 52  0  0  0  0  0  0  0  0999 V2000
   -1.3860   15.6750  -35.3880 C   0  0  0  0  0  0  0  0  0  0  0  0
   -1.9300   16.9420  -34.9180 N   0  0  0  0  0  0  0  0  0  0  0  0
   -3.3120   17.0820  -34.5550 C   0  0  0  0  0  0  0  0  0  0  0  0
   -4.0940   16.0990  -34.6730 O   0  0  0  0  0  0  0  0  0  0  0  0
   -3.8150   18.3600  -34.0060 C   0  0  0  0  0  0  0  0  0  0  0  0
   -2.9320   19.1780  -33.2820 C   0  0  0  0  0  0  0  0  0  0  0  0
   -3.3750   20.3610  -32.6910 C   0  0  0  0  0  0  0  0  0  0  0  0
   -4.7140   20.7590  -32.8090 C   0  0  0  0  0  0  0  0  0  0  0  0
   -5.1850   22.0160  -32.1750 C   0  0  0  0  0  0  0  0  0  0  0  0
   -6.5540   22.3350  -32.1530 C   0  0  0  0  0  0  0  0  0  0  0  0
   -6.9980   23.5210  -31.5630 C   0  0  0  0  0  0  0  0  0  0  0  0
   -6.0800   24.4140  -30.9820 C   0  0  0  0  0  0  0  0  0  0  0  0
   -6.4860   25.6170  -30.3820 O   0  0  0  0  0  0  0  0  0  0  0  0
   -6.4660   25.8660  -28.9810 C   0  0  0  0  0  0  0  0  0  0  0  0
   -4.7120   24.1000  -31.0060 C   0  0  0  0  0  0  0  0  0  0  0  0
   -3.7570   25.0060  -30.4550 N   0  0  0  0  0  0  0  0  0  0  0  0
   -2.7760   24.5430  -29.1070 S   0  0  0  0  0  0  0  0  0  0  0  0
   -1.6350   25.5130  -28.9680 O   0  0  0  0  0  0  0  0  0  0  0  0
   -3.5970   24.5710  -27.8490 O   0  0  0  0  0  0  0  0  0  0  0  0
   -2.1300   22.9320  -29.3590 C   0  0  0  0  0  0  0  0  0  0  0  0
   -2.5220   21.7870  -28.6930 C   0  0  0  0  0  0  0  0  0  0  0  0
   -1.8190   20.7510  -29.2760 C   0  0  0  0  0  0  0  0  0  0  0  0
   -1.0430   21.2270  -30.2700 N   0  0  0  0  0  0  0  0  0  0  0  0
   -0.1270   20.4480  -31.0950 C   0  0  0  0  0  0  0  0  0  0  0  0
   -1.2160   22.5610  -30.3210 C   0  0  0  0  0  0  0  0  0  0  0  0
   -4.2700   22.9100  -31.5940 C   0  0  0  0  0  0  0  0  0  0  0  0
   -5.6020   19.9500  -33.5390 C   0  0  0  0  0  0  0  0  0  0  0  0
   -5.1660   18.7630  -34.1480 C   0  0  0  0  0  0  0  0  0  0  0  0
   -6.0970   18.0120  -34.9400 N   0  0  0  0  0  0  0  0  0  0  0  0
   -1.1171   15.0486  -34.5247 H   0  0  0  0  0  0  0  0  0  0  0  0
   -2.1404   15.1555  -35.9971 H   0  0  0  0  0  0  0  0  0  0  0  0
   -0.4898   15.8642  -35.9971 H   0  0  0  0  0  0  0  0  0  0  0  0
   -1.2960   17.7710  -34.8710 H   0  0  0  0  0  0  0  0  0  0  0  0
   -1.8776   18.8817  -33.1799 H   0  0  0  0  0  0  0  0  0  0  0  0
   -2.6677   20.9872  -32.1274 H   0  0  0  0  0  0  0  0  0  0  0  0
   -7.2820   21.6448  -32.6043 H   0  0  0  0  0  0  0  0  0  0  0  0
   -8.0722   23.7578  -31.5528 H   0  0  0  0  0  0  0  0  0  0  0  0
   -6.5426   24.9124  -28.4380 H   0  0  0  0  0  0  0  0  0  0  0  0
   -5.5247   26.3671  -28.7110 H   0  0  0  0  0  0  0  0  0  0  0  0
   -7.3152   26.5109  -28.7110 H   0  0  0  0  0  0  0  0  0  0  0  0
   -3.2456   21.7151  -27.8676 H   0  0  0  0  0  0  0  0  0  0  0  0
   -1.8828   19.6951  -28.9742 H   0  0  0  0  0  0  0  0  0  0  0  0
    0.5503   19.8720  -30.4473 H   0  0  0  0  0  0  0  0  0  0  0  0
   -0.7020   19.7580  -31.7300 H   0  0  0  0  0  0  0  0  0  0  0  0
    0.4617   21.1264  -31.7300 H   0  0  0  0  0  0  0  0  0  0  0  0
   -0.7094   23.2446  -31.0182 H   0  0  0  0  0  0  0  0  0  0  0  0
   -3.1961   22.6720  -31.6015 H   0  0  0  0  0  0  0  0  0  0  0  0
   -6.6554   20.2520  -33.6345 H   0  0  0  0  0  0  0  0  0  0  0  0
   -6.8110   18.5030  -35.5230 H   0  0  0  0  0  0  0  0  0  0  0  0
   -6.0300   16.9770  -35.0420 H   0  0  0  0  0  0  0  0  0  0  0  0
  1  2  1  0
  2  3  1  0
  3  4  2  0
  3  5  1  0
  5  6  2  0
  6  7  1  0
  7  8  2  0
  8  9  1  0
  9 10  2  0
 10 11  1  0
 11 12  2  0
 12 13  1  0
 13 14  1  0
 12 15  1  0
 15 16  1  0
 16 17  1  0
 17 18  2  0
 17 19  2  0
 17 20  1  0
 20 21  1  0
 21 22  2  0
 22 23  1  0
 23 24  1  0
 23 25  1  0
 15 26  2  0
  8 27  1  0
 27 28  2  0
 28 29  1  0
 28  5  1  0
 26  9  1  0
 25 20  2  0
  1 30  1  0
  1 31  1  0
  1 32  1  0
  2 33  1  0
  6 34  1  0
  7 35  1  0
 10 36  1  0
 11 37  1  0
 14 38  1  0
 14 39  1  0
 14 40  1  0
 21 41  1  0
 22 42  1  0
 24 43  1  0
 24 44  1  0
 24 45  1  0
 25 46  1  0
 26 47  1  0
 27 48  1  0
 29 49  1  0
 29 50  1  0
M  CHG  1  16  -1
M  END
>  <UniqueID>  (46) 
43

>  <SMILES>  (46) 
CNC(=O)c1ccc(-c2ccc(OC)c([N-]S(=O)(=O)c3ccn(C)c3)c2)cc1N

>  <Energy>  (46) 
91.98439832931189

>  <Genealogy>  (46) 
CNC(=O)c1ccc(-c2ccc(OC)c([N-]S(=O)(=O)c3ccn(C)c3)c2)cc1N (protonated)
CNC(=O)c1ccc(-c2ccc(OC)c([N-]S(=O)(=O)c3ccn(C)c3)c2)cc1N (3D coordinates assigned)
CNC(=O)c1ccc(-c2ccc(OC)c([N-]S(=O)(=O)c3ccn(C)c3)c2)cc1N (optimized conformer: 91.98439832931189 kcal/mol)

>  <smiles>  (46) 
CNC(=O)c1ccc(-c2ccc(OC)c(NS(=O)(=O)c3ccn(C)c3)c2)cc1N

>  <score_type>  (46) 
oracle

>  <origin>  (46) 
adgpu

>  <m_score__min__energy>  (46) 
-9.4100000000000001

>  <m_primary>  (46) 
energy

$$$$
46:0
     RDKit          3D

 53 55  0  0  0  0  0  0  0  0999 V2000
   -2.5100   21.0710  -33.2220 C   0  0  0  0  0  0  0  0  0  0  0  0
   -3.0740   19.8960  -33.4900 C   0  0  0  0  0  0  0  0  0  0  0  0
   -4.4700   19.5770  -33.1180 C   0  0  0  0  0  0  0  0  0  0  0  0
   -5.0260   20.2230  -32.0060 C   0  0  0  0  0  0  0  0  0  0  0  0
   -6.3060   19.9720  -31.6380 N   0  0  0  0  0  0  0  0  0  0  0  0
   -7.0730   19.0840  -32.3230 C   0  0  0  0  0  0  0  0  0  0  0  0
   -8.4900   18.8290  -31.9030 C   0  0  0  0  0  0  0  0  0  0  0  0
   -9.4910   19.6660  -32.7080 C   0  0  0  0  0  0  0  0  0  0  0  0
   -9.8620   20.9740  -31.9980 C   0  0  0  0  0  0  0  0  0  0  0  0
   -8.6570   21.6290  -31.4920 N   0  0  0  0  0  0  0  0  0  0  0  0
   -8.3710   23.0140  -31.7520 C   0  0  0  0  0  0  0  0  0  0  0  0
   -9.1880   23.7020  -32.4220 O   0  0  0  0  0  0  0  0  0  0  0  0
   -7.1160   23.6470  -31.2740 C   0  0  0  0  0  0  0  0  0  0  0  0
   -7.1010   24.5230  -30.1750 C   0  0  0  0  0  0  0  0  0  0  0  0
   -5.9000   25.0870  -29.7400 C   0  0  0  0  0  0  0  0  0  0  0  0
   -4.7090   24.7890  -30.4200 C   0  0  0  0  0  0  0  0  0  0  0  0
   -3.4690   25.2970  -30.0060 O   0  0  0  0  0  0  0  0  0  0  0  0
   -2.4670   24.5670  -29.3510 C   0  0  0  0  0  0  0  0  0  0  0  0
   -1.5410   25.2570  -28.5600 C   0  0  0  0  0  0  0  0  0  0  0  0
   -0.5410   24.5620  -27.8730 C   0  0  0  0  0  0  0  0  0  0  0  0
   -0.4650   23.1700  -27.9650 C   0  0  0  0  0  0  0  0  0  0  0  0
   -1.3870   22.4610  -28.7530 C   0  0  0  0  0  0  0  0  0  0  0  0
   -1.3390   20.9630  -28.8130 C   0  0  0  0  0  0  0  0  0  0  0  0
   -2.3980   23.1630  -29.4290 C   0  0  0  0  0  0  0  0  0  0  0  0
   -4.7440   23.9430  -31.4840 N   0  0  0  0  0  0  0  0  0  0  0  0
   -5.9010   23.3810  -31.9260 C   0  0  0  0  0  0  0  0  0  0  0  0
   -6.5460   18.4130  -33.3790 N   0  0  0  0  0  0  0  0  0  0  0  0
   -5.2660   18.6170  -33.7890 C   0  0  0  0  0  0  0  0  0  0  0  0
   -4.7520   17.7890  -34.9340 C   0  0  0  0  0  0  0  0  0  0  0  0
   -1.4680   21.2614  -33.5187 H   0  0  0  0  0  0  0  0  0  0  0  0
   -3.0857   21.8520  -32.7037 H   0  0  0  0  0  0  0  0  0  0  0  0
   -2.4782   19.1308  -34.0092 H   0  0  0  0  0  0  0  0  0  0  0  0
   -4.4207   20.9374  -31.4288 H   0  0  0  0  0  0  0  0  0  0  0  0
   -8.7178   17.7633  -32.0528 H   0  0  0  0  0  0  0  0  0  0  0  0
   -8.5854   19.1133  -30.8447 H   0  0  0  0  0  0  0  0  0  0  0  0
   -9.0452   19.9078  -33.6841 H   0  0  0  0  0  0  0  0  0  0  0  0
  -10.4104   19.0728  -32.8213 H   0  0  0  0  0  0  0  0  0  0  0  0
  -10.3687   21.6431  -32.7090 H   0  0  0  0  0  0  0  0  0  0  0  0
  -10.5312   20.7490  -31.1545 H   0  0  0  0  0  0  0  0  0  0  0  0
   -7.9540   21.0280  -31.0080 H   0  0  0  0  0  0  0  0  0  0  0  0
   -8.0396   24.7654  -29.6552 H   0  0  0  0  0  0  0  0  0  0  0  0
   -5.8874   25.7603  -28.8702 H   0  0  0  0  0  0  0  0  0  0  0  0
   -1.6004   26.3524  -28.4784 H   0  0  0  0  0  0  0  0  0  0  0  0
    0.1872   25.1122  -27.2590 H   0  0  0  0  0  0  0  0  0  0  0  0
    0.3199   22.6269  -27.4182 H   0  0  0  0  0  0  0  0  0  0  0  0
   -1.3259   20.5554  -27.7914 H   0  0  0  0  0  0  0  0  0  0  0  0
   -2.2256   20.5888  -29.3458 H   0  0  0  0  0  0  0  0  0  0  0  0
   -0.4302   20.6463  -29.3458 H   0  0  0  0  0  0  0  0  0  0  0  0
   -3.1414   22.6120  -30.0238 H   0  0  0  0  0  0  0  0  0  0  0  0
   -5.8849   22.7135  -32.8002 H   0  0  0  0  0  0  0  0  0  0  0  0
   -4.2101   16.9161  -34.5410 H   0  0  0  0  0  0  0  0  0  0  0  0
   -5.5980   17.4489  -35.5493 H   0  0  0  0  0  0  0  0  0  0  0  0
   -4.0718   18.3963  -35.5493 H   0  0  0  0  0  0  0  0  0  0  0  0
  1  2  2  0
  2  3  1  0
  3  4  2  0
  4  5  1  0
  5  6  2  0
  6  7  1  0
  7  8  1  0
  8  9  1  0
  9 10  1  0
 10 11  1  0
 11 12  2  0
 11 13  1  0
 13 14  2  0
 14 15  1  0
 15 16  2  0
 16 17  1  0
 17 18  1  0
 18 19  2  0
 19 20  1  0
 20 21  2  0
 21 22  1  0
 22 23  1  0
 22 24  2  0
 16 25  1  0
 25 26  2  0
  6 27  1  0
 27 28  2  0
 28 29  1  0
 28  3  1  0
 26 13  1  0
 24 18  1  0
  1 30  1  0
  1 31  1  0
  2 32  1  0
  4 33  1  0
  7 34  1  0
  7 35  1  0
  8 36  1  0
  8 37  1  0
  9 38  1  0
  9 39  1  0
 10 40  1  0
 14 41  1  0
 15 42  1  0
 19 43  1  0
 20 44  1  0
 21 45  1  0
 23 46  1  0
 23 47  1  0
 23 48  1  0
 24 49  1  0
 26 50  1  0
 29 51  1  0
 29 52  1  0
 29 53  1  0
M  END
>  <UniqueID>  (47) 
44

>  <SMILES>  (47) 
C=Cc1cnc(CCCNC(=O)c2ccc(Oc3cccc(C)c3)nc2)nc1C

>  <Energy>  (47) 
63.18238030629685

>  <Genealogy>  (47) 
C=Cc1cnc(CCCNC(=O)c2ccc(Oc3cccc(C)c3)nc2)nc1C (3D coordinates assigned)
C=Cc1cnc(CCCNC(=O)c2ccc(Oc3cccc(C)c3)nc2)nc1C (optimized conformer: 63.18238030629685 kcal/mol)

>  <smiles>  (47) 
C=Cc1cnc(CCCNC(=O)c2ccc(Oc3cccc(C)c3)nc2)nc1C

>  <score_type>  (47) 
oracle

>  <origin>  (47) 
adgpu

>  <m_score__min__energy>  (47) 
-9.8499999999999996

>  <m_primary>  (47) 
energy

$$$$
47:0
     RDKit          3D

 57 59  0  0  0  0  0  0  0  0999 V2000
    0.2220   24.8000  -26.9350 C   0  0  0  0  0  0  0  0  0  0  0  0
    0.2960   24.2330  -28.2410 O   0  0  0  0  0  0  0  0  0  0  0  0
   -0.8150   23.8160  -28.9920 C   0  0  0  0  0  0  0  0  0  0  0  0
   -0.9970   22.4750  -29.3870 C   0  0  0  0  0  0  0  0  0  0  0  0
   -2.1220   22.0970  -30.1370 C   0  0  0  0  0  0  0  0  0  0  0  0
   -2.3200   20.6510  -30.5450 C   0  0  0  0  0  0  0  0  0  0  0  0
   -1.8380   20.3450  -31.9100 N   0  0  0  0  0  0  0  0  0  0  0  0
   -0.8780   21.3510  -32.3940 C   0  0  0  0  0  0  0  0  0  0  0  0
   -2.9510   20.1450  -32.8590 C   0  0  0  0  0  0  0  0  0  0  0  0
   -3.1010   18.7010  -33.2400 C   0  0  0  0  0  0  0  0  0  0  0  0
   -2.2230   18.1520  -33.9600 O   0  0  0  0  0  0  0  0  0  0  0  0
   -4.1340   17.8890  -32.6690 N   0  0  0  0  0  0  0  0  0  0  0  0
   -4.7830   16.8120  -33.3580 C   0  0  0  0  0  0  0  0  0  0  0  0
   -4.0300   15.9120  -34.1320 C   0  0  0  0  0  0  0  0  0  0  0  0
   -4.6520   14.8210  -34.7510 C   0  0  0  0  0  0  0  0  0  0  0  0
   -6.0250   14.6160  -34.5890 C   0  0  0  0  0  0  0  0  0  0  0  0
   -6.7800   15.5070  -33.8160 C   0  0  0  0  0  0  0  0  0  0  0  0
   -6.1660   16.6120  -33.2070 C   0  0  0  0  0  0  0  0  0  0  0  0
   -7.1780   17.7820  -32.2850 S   0  0  0  0  0  0  0  0  0  0  0  0
   -6.7540   19.2300  -33.3290 C   0  0  0  0  0  0  0  0  0  0  0  0
   -7.3180   20.5060  -32.7600 C   0  0  0  0  0  0  0  0  0  0  0  0
   -8.6680   20.5810  -32.3840 C   0  0  0  0  0  0  0  0  0  0  0  0
   -9.1790   21.7530  -31.8180 C   0  0  0  0  0  0  0  0  0  0  0  0
   -8.3460   22.8560  -31.6180 C   0  0  0  0  0  0  0  0  0  0  0  0
   -6.9910   22.7910  -31.9750 C   0  0  0  0  0  0  0  0  0  0  0  0
   -6.1060   23.9860  -31.7760 C   0  0  0  0  0  0  0  0  0  0  0  0
   -6.4850   21.6180  -32.5610 C   0  0  0  0  0  0  0  0  0  0  0  0
   -3.0710   23.0700  -30.4890 C   0  0  0  0  0  0  0  0  0  0  0  0
   -2.9010   24.3960  -30.0960 C   0  0  0  0  0  0  0  0  0  0  0  0
   -3.8540   25.3420  -30.4460 O   0  0  0  0  0  0  0  0  0  0  0  0
   -1.7760   24.7710  -29.3510 C   0  0  0  0  0  0  0  0  0  0  0  0
   -1.6160   26.0970  -28.9540 O   0  0  0  0  0  0  0  0  0  0  0  0
    0.3259   24.0038  -26.1832 H   0  0  0  0  0  0  0  0  0  0  0  0
    1.0321   25.5331  -26.8071 H   0  0  0  0  0  0  0  0  0  0  0  0
   -0.7491   25.3006  -26.8071 H   0  0  0  0  0  0  0  0  0  0  0  0
   -0.2506   21.7178  -29.1049 H   0  0  0  0  0  0  0  0  0  0  0  0
   -1.7760   20.0122  -29.8336 H   0  0  0  0  0  0  0  0  0  0  0  0
   -3.4035   20.4611  -30.5374 H   0  0  0  0  0  0  0  0  0  0  0  0
   -0.4036   21.8482  -31.5351 H   0  0  0  0  0  0  0  0  0  0  0  0
   -0.1068   20.8582  -33.0043 H   0  0  0  0  0  0  0  0  0  0  0  0
   -1.4064   22.0983  -33.0043 H   0  0  0  0  0  0  0  0  0  0  0  0
   -3.8851   20.4894  -32.3911 H   0  0  0  0  0  0  0  0  0  0  0  0
   -2.7325   20.7200  -33.7709 H   0  0  0  0  0  0  0  0  0  0  0  0
   -2.9474   16.0656  -34.2519 H   0  0  0  0  0  0  0  0  0  0  0  0
   -4.0604   14.1256  -35.3645 H   0  0  0  0  0  0  0  0  0  0  0  0
   -6.5127   13.7546  -35.0688 H   0  0  0  0  0  0  0  0  0  0  0  0
   -7.8594   15.3398  -33.6857 H   0  0  0  0  0  0  0  0  0  0  0  0
   -5.6592   19.3188  -33.3891 H   0  0  0  0  0  0  0  0  0  0  0  0
   -7.1901   19.0751  -34.3269 H   0  0  0  0  0  0  0  0  0  0  0  0
   -9.3273   19.7136  -32.5353 H   0  0  0  0  0  0  0  0  0  0  0  0
  -10.2392   21.8064  -31.5297 H   0  0  0  0  0  0  0  0  0  0  0  0
   -8.7537   23.7786  -31.1792 H   0  0  0  0  0  0  0  0  0  0  0  0
   -5.9716   24.1675  -30.6994 H   0  0  0  0  0  0  0  0  0  0  0  0
   -5.1270   23.7988  -32.2413 H   0  0  0  0  0  0  0  0  0  0  0  0
   -6.5705   24.8679  -32.2413 H   0  0  0  0  0  0  0  0  0  0  0  0
   -5.4291   21.5711  -32.8657 H   0  0  0  0  0  0  0  0  0  0  0  0
   -3.9543   22.7837  -31.0788 H   0  0  0  0  0  0  0  0  0  0  0  0
  1  2  1  0
  2  3  1  0
  3  4  2  0
  4  5  1  0
  5  6  1  0
  6  7  1  0
  7  8  1  0
  7  9  1  0
  9 10  1  0
 10 11  2  0
 10 12  1  0
 12 13  1  0
 13 14  2  0
 14 15  1  0
 15 16  2  0
 16 17  1  0
 17 18  2  0
 18 19  1  0
 19 20  1  0
 20 21  1  0
 21 22  2  0
 22 23  1  0
 23 24  2  0
 24 25  1  0
 25 26  1  0
 25 27  2  0
  5 28  2  0
 28 29  1  0
 29 30  1  0
 29 31  2  0
 31 32  1  0
 31  3  1  0
 18 13  1  0
 27 21  1  0
  1 33  1  0
  1 34  1  0
  1 35  1  0
  4 36  1  0
  6 37  1  0
  6 38  1  0
  8 39  1  0
  8 40  1  0
  8 41  1  0
  9 42  1  0
  9 43  1  0
 14 44  1  0
 15 45  1  0
 16 46  1  0
 17 47  1  0
 20 48  1  0
 20 49  1  0
 22 50  1  0
 23 51  1  0
 24 52  1  0
 26 53  1  0
 26 54  1  0
 26 55  1  0
 27 56  1  0
 28 57  1  0
M  CHG  3  12  -1  30  -1  32  -1
M  END
>  <UniqueID>  (48) 
45

>  <SMILES>  (48) 
COc1cc(CN(C)CC(=O)[N-]c2ccccc2SCc2cccc(C)c2)cc([O-])c1[O-]

>  <Energy>  (48) 
58.43242753489369

>  <Genealogy>  (48) 
COc1cc(CN(C)CC(=O)[N-]c2ccccc2SCc2cccc(C)c2)cc([O-])c1[O-] (protonated)
COc1cc(CN(C)CC(=O)[N-]c2ccccc2SCc2cccc(C)c2)cc([O-])c1[O-] (3D coordinates assigned)
COc1cc(CN(C)CC(=O)[N-]c2ccccc2SCc2cccc(C)c2)cc([O-])c1[O-] (optimized conformer: 58.43242753489369 kcal/mol)

>  <smiles>  (48) 
COc1cc(CN(C)CC(=O)Nc2ccccc2SCc2cccc(C)c2)cc(O)c1O

>  <score_type>  (48) 
oracle

>  <origin>  (48) 
adgpu

>  <m_score__min__energy>  (48) 
-15.449999999999999

>  <m_primary>  (48) 
energy

$$$$
48:0
     RDKit          3D

 57 60  0  0  0  0  0  0  0  0999 V2000
   -6.1020   16.7210  -34.4970 C   0  0  0  0  0  0  0  0  0  0  0  0
   -5.9040   18.0610  -35.0460 N   0  0  0  0  0  0  0  0  0  0  0  0
   -5.4300   18.9830  -34.0060 C   0  0  0  0  0  0  0  0  0  0  0  0
   -6.6240   19.7670  -33.4160 C   0  0  1  0  0  0  0  0  0  0  0  0
   -7.6150   18.8130  -32.7200 C   0  0  0  0  0  0  0  0  0  0  0  0
   -8.7860   19.5430  -31.9990 C   0  0  0  0  0  0  0  0  0  0  0  0
   -8.7200   21.0820  -32.0540 C   0  0  0  0  0  0  0  0  0  0  0  0
   -7.3130   21.5650  -31.8150 C   0  0  0  0  0  0  0  0  0  0  0  0
   -7.0590   22.6930  -31.0200 C   0  0  0  0  0  0  0  0  0  0  0  0
   -5.7420   23.1230  -30.8100 C   0  0  0  0  0  0  0  0  0  0  0  0
   -5.4440   24.6660  -30.0090 S   0  0  0  0  0  0  0  0  0  0  0  0
   -4.4660   25.4530  -30.8480 O   0  0  0  0  0  0  0  0  0  0  0  0
   -6.7240   25.4550  -29.8770 O   0  0  0  0  0  0  0  0  0  0  0  0
   -4.7540   24.4040  -28.4290 N   0  0  0  0  0  0  0  0  0  0  0  0
   -3.5390   23.6720  -28.1930 C   0  0  0  0  0  0  0  0  0  0  0  0
   -3.5600   22.3630  -27.6800 C   0  0  0  0  0  0  0  0  0  0  0  0
   -2.3850   21.6020  -27.6010 C   0  0  0  0  0  0  0  0  0  0  0  0
   -1.1610   22.1790  -27.9930 C   0  0  0  0  0  0  0  0  0  0  0  0
   -1.1260   23.5210  -28.4050 C   0  0  0  0  0  0  0  0  0  0  0  0
   -2.3060   24.2640  -28.5190 C   0  0  0  0  0  0  0  0  0  0  0  0
   -2.2330   25.5790  -28.9800 O   0  0  0  0  0  0  0  0  0  0  0  0
    0.1280   21.3970  -27.8870 C   0  0  0  0  0  0  0  0  0  0  0  0
   -0.0850   19.9370  -27.9850 N   0  0  0  0  0  0  0  0  0  0  0  0
   -0.4020   19.5190  -29.3610 C   0  0  0  0  0  0  0  0  0  0  0  0
   -1.0990   19.4880  -27.0090 C   0  0  0  0  0  0  0  0  0  0  0  0
   -2.4800   20.1420  -27.2300 C   0  0  0  0  0  0  0  0  0  0  0  0
   -4.6800   22.3900  -31.3540 C   0  0  0  0  0  0  0  0  0  0  0  0
   -4.9270   21.2880  -32.1740 C   0  0  0  0  0  0  0  0  0  0  0  0
   -6.2510   20.8890  -32.4480 C   0  0  0  0  0  0  0  0  0  0  0  0
   -6.0947   16.7702  -33.3981 H   0  0  0  0  0  0  0  0  0  0  0  0
   -7.0686   16.3234  -34.8398 H   0  0  0  0  0  0  0  0  0  0  0  0
   -5.2916   16.0609  -34.8398 H   0  0  0  0  0  0  0  0  0  0  0  0
   -6.8290   18.4060  -35.3930 H   0  0  0  0  0  0  0  0  0  0  0  0
   -4.9389   18.4095  -33.2061 H   0  0  0  0  0  0  0  0  0  0  0  0
   -4.7140   19.6913  -34.4482 H   0  0  0  0  0  0  0  0  0  0  0  0
   -7.0873   20.2527  -34.2875 H   0  0  0  0  0  0  0  0  0  0  0  0
   -8.0403   18.1400  -33.4791 H   0  0  0  0  0  0  0  0  0  0  0  0
   -7.0501   18.2709  -31.9473 H   0  0  0  0  0  0  0  0  0  0  0  0
   -9.7285   19.2240  -32.4679 H   0  0  0  0  0  0  0  0  0  0  0  0
   -8.7149   19.2678  -30.9363 H   0  0  0  0  0  0  0  0  0  0  0  0
   -9.0549   21.4223  -33.0450 H   0  0  0  0  0  0  0  0  0  0  0  0
   -9.3721   21.4916  -31.2685 H   0  0  0  0  0  0  0  0  0  0  0  0
   -7.8952   23.2407  -30.5608 H   0  0  0  0  0  0  0  0  0  0  0  0
   -4.5110   21.9302  -27.3360 H   0  0  0  0  0  0  0  0  0  0  0  0
   -0.1607   23.9930  -28.6406 H   0  0  0  0  0  0  0  0  0  0  0  0
   -3.0410   26.0820  -29.3270 H   0  0  0  0  0  0  0  0  0  0  0  0
    0.7988   21.7109  -28.7003 H   0  0  0  0  0  0  0  0  0  0  0  0
    0.5646   21.6052  -26.8991 H   0  0  0  0  0  0  0  0  0  0  0  0
   -1.0665   18.6428  -29.3342 H   0  0  0  0  0  0  0  0  0  0  0  0
   -0.9038   20.3437  -29.8883 H   0  0  0  0  0  0  0  0  0  0  0  0
    0.5275   19.2583  -29.8883 H   0  0  0  0  0  0  0  0  0  0  0  0
   -1.2099   18.3970  -27.0955 H   0  0  0  0  0  0  0  0  0  0  0  0
   -0.7493   19.7872  -26.0099 H   0  0  0  0  0  0  0  0  0  0  0  0
   -2.9964   19.6067  -28.0404 H   0  0  0  0  0  0  0  0  0  0  0  0
   -3.0319   20.0775  -26.2807 H   0  0  0  0  0  0  0  0  0  0  0  0
   -3.6435   22.6850  -31.1334 H   0  0  0  0  0  0  0  0  0  0  0  0
   -4.0853   20.7286  -32.6082 H   0  0  0  0  0  0  0  0  0  0  0  0
  1  2  1  0
  2  3  1  0
  3  4  1  0
  4  5  1  0
  5  6  1  0
  6  7  1  0
  7  8  1  0
  8  9  2  0
  9 10  1  0
 10 11  1  0
 11 12  2  0
 11 13  2  0
 11 14  1  0
 14 15  1  0
 15 16  2  0
 16 17  1  0
 17 18  2  0
 18 19  1  0
 19 20  2  0
 20 21  1  0
 18 22  1  0
 22 23  1  0
 23 24  1  0
 23 25  1  0
 25 26  1  0
 10 27  2  0
 27 28  1  0
 28 29  2  0
 29  4  1  0
 29  8  1  0
 20 15  1  0
 26 17  1  0
  1 30  1  0
  1 31  1  0
  1 32  1  0
  2 33  1  0
  3 34  1  0
  3 35  1  0
  4 36  1  6
  5 37  1  0
  5 38  1  0
  6 39  1  0
  6 40  1  0
  7 41  1  0
  7 42  1  0
  9 43  1  0
 16 44  1  0
 19 45  1  0
 21 46  1  0
 22 47  1  0
 22 48  1  0
 24 49  1  0
 24 50  1  0
 24 51  1  0
 25 52  1  0
 25 53  1  0
 26 54  1  0
 26 55  1  0
 27 56  1  0
 28 57  1  0
M  CHG  1  14  -1
M  END
>  <UniqueID>  (49) 
46

>  <SMILES>  (49) 
CNC[C@H]1CCCc2cc(S(=O)(=O)[N-]c3cc4c(cc3O)CN(C)CC4)ccc21

>  <Energy>  (49) 
73.82941419057414

>  <Genealogy>  (49) 
CNCC1CCCc2cc(S(=O)(=O)[N-]c3cc4c(cc3O)CN(C)CC4)ccc21 (protonated)
CNC[C@H]1CCCc2cc(S(=O)(=O)[N-]c3cc4c(cc3O)CN(C)CC4)ccc21 (chirality)
CNC[C@H]1CCCc2cc(S(=O)(=O)[N-]c3cc4c(cc3O)CN(C)CC4)ccc21 (3D coordinates assigned)
CNC[C@H]1CCCc2cc(S(=O)(=O)[N-]c3cc4c(cc3O)CN(C)CC4)ccc21 (nonaromatic ring conformer: 73.82941419057414 kcal/mol)

>  <smiles>  (49) 
CNCC1CCCc2cc(S(=O)(=O)Nc3cc4c(cc3O)CN(C)CC4)ccc21

>  <score_type>  (49) 
oracle

>  <origin>  (49) 
adgpu

>  <m_score__min__energy>  (49) 
-13.83

>  <m_primary>  (49) 
energy

$$$$
49:0
     RDKit          3D

 43 46  0  0  0  0  0  0  0  0999 V2000
    0.9550   19.3280  -27.6910 C   0  0  0  0  0  0  0  0  0  0  0  0
   -0.1560   20.1700  -28.1640 N   0  0  0  0  0  0  0  0  0  0  0  0
   -0.6200   19.7020  -29.4820 C   0  0  0  0  0  0  0  0  0  0  0  0
   -1.9150   20.4250  -29.8560 C   0  0  0  0  0  0  0  0  0  0  0  0
   -1.8040   21.9140  -29.6520 C   0  0  0  0  0  0  0  0  0  0  0  0
   -2.7710   22.7610  -30.2130 C   0  0  0  0  0  0  0  0  0  0  0  0
   -2.7220   24.1470  -30.0150 C   0  0  0  0  0  0  0  0  0  0  0  0
   -3.7520   24.9370  -30.6330 N   0  0  0  0  0  0  0  0  0  0  0  0
   -5.4530   24.9150  -30.2990 S   0  0  0  0  0  0  0  0  0  0  0  0
   -6.1160   26.0560  -31.0200 O   0  0  0  0  0  0  0  0  0  0  0  0
   -5.6950   25.0270  -28.8200 O   0  0  0  0  0  0  0  0  0  0  0  0
   -6.1220   23.3900  -30.8710 C   0  0  0  0  0  0  0  0  0  0  0  0
   -7.3720   22.9430  -30.4130 C   0  0  0  0  0  0  0  0  0  0  0  0
   -7.8950   21.7260  -30.8630 C   0  0  0  0  0  0  0  0  0  0  0  0
   -7.1710   20.9450  -31.7700 C   0  0  0  0  0  0  0  0  0  0  0  0
   -7.6760   19.7600  -32.2060 N   0  0  0  0  0  0  0  0  0  0  0  0
   -6.9970   18.9730  -33.0840 C   0  0  0  0  0  0  0  0  0  0  0  0
   -7.4990   17.8820  -33.4630 O   0  0  0  0  0  0  0  0  0  0  0  0
   -5.7430   19.3720  -33.5630 C   0  0  0  0  0  0  0  0  0  0  0  0
   -5.1990   20.5850  -33.1340 C   0  0  0  0  0  0  0  0  0  0  0  0
   -5.9090   21.3870  -32.2300 C   0  0  0  0  0  0  0  0  0  0  0  0
   -5.3900   22.6080  -31.7760 C   0  0  0  0  0  0  0  0  0  0  0  0
   -1.6920   24.6890  -29.2150 C   0  0  0  0  0  0  0  0  0  0  0  0
   -1.6020   26.0510  -28.9610 O   0  0  0  0  0  0  0  0  0  0  0  0
   -0.7350   23.8460  -28.6420 C   0  0  0  0  0  0  0  0  0  0  0  0
   -0.7930   22.4590  -28.8360 C   0  0  0  0  0  0  0  0  0  0  0  0
    0.2850   21.5770  -28.2500 C   0  0  0  0  0  0  0  0  0  0  0  0
    0.9661   19.3196  -26.5911 H   0  0  0  0  0  0  0  0  0  0  0  0
    0.8220   18.3018  -28.0642 H   0  0  0  0  0  0  0  0  0  0  0  0
    1.9070   19.7334  -28.0642 H   0  0  0  0  0  0  0  0  0  0  0  0
    0.1499   19.9152  -30.2381 H   0  0  0  0  0  0  0  0  0  0  0  0
   -0.8052   18.6185  -29.4407 H   0  0  0  0  0  0  0  0  0  0  0  0
   -2.1407   20.2265  -30.9141 H   0  0  0  0  0  0  0  0  0  0  0  0
   -2.7169   20.0494  -29.2033 H   0  0  0  0  0  0  0  0  0  0  0  0
   -3.5816   22.3297  -30.8187 H   0  0  0  0  0  0  0  0  0  0  0  0
   -7.9426   23.5527  -29.6970 H   0  0  0  0  0  0  0  0  0  0  0  0
   -8.8763   21.3830  -30.5033 H   0  0  0  0  0  0  0  0  0  0  0  0
   -5.1913   18.7359  -34.2708 H   0  0  0  0  0  0  0  0  0  0  0  0
   -4.2157   20.9100  -33.5048 H   0  0  0  0  0  0  0  0  0  0  0  0
   -4.4074   22.9528  -32.1302 H   0  0  0  0  0  0  0  0  0  0  0  0
    0.0728   24.2762  -28.0318 H   0  0  0  0  0  0  0  0  0  0  0  0
    1.1792   21.6332  -28.8881 H   0  0  0  0  0  0  0  0  0  0  0  0
    0.5075   21.9323  -27.2330 H   0  0  0  0  0  0  0  0  0  0  0  0
  1  2  1  0
  2  3  1  0
  3  4  1  0
  4  5  1  0
  5  6  2  0
  6  7  1  0
  7  8  1  0
  8  9  1  0
  9 10  2  0
  9 11  2  0
  9 12  1  0
 12 13  2  0
 13 14  1  0
 14 15  2  0
 15 16  1  0
 16 17  1  0
 17 18  2  0
 17 19  1  0
 19 20  2  0
 20 21  1  0
 21 22  2  0
  7 23  2  0
 23 24  1  0
 23 25  1  0
 25 26  2  0
 26 27  1  0
 27  2  1  0
 26  5  1  0
 22 12  1  0
 21 15  1  0
  1 28  1  0
  1 29  1  0
  1 30  1  0
  3 31  1  0
  3 32  1  0
  4 33  1  0
  4 34  1  0
  6 35  1  0
 13 36  1  0
 14 37  1  0
 19 38  1  0
 20 39  1  0
 22 40  1  0
 25 41  1  0
 27 42  1  0
 27 43  1  0
M  CHG  3   8  -1  16  -1  24  -1
M  END
>  <UniqueID>  (50) 
47

>  <SMILES>  (50) 
CN1CCc2cc([N-]S(=O)(=O)c3ccc4[n-]c(=O)ccc4c3)c([O-])cc2C1

>  <Energy>  (50) 
60.09257457049837

>  <Genealogy>  (50) 
CN1CCc2cc([N-]S(=O)(=O)c3ccc4[n-]c(=O)ccc4c3)c([O-])cc2C1 (protonated)
CN1CCc2cc([N-]S(=O)(=O)c3ccc4[n-]c(=O)ccc4c3)c([O-])cc2C1 (3D coordinates assigned)
CN1CCc2cc([N-]S(=O)(=O)c3ccc4[n-]c(=O)ccc4c3)c([O-])cc2C1 (nonaromatic ring conformer: 60.09257457049837 kcal/mol)

>  <smiles>  (50) 
CN1CCc2cc(NS(=O)(=O)c3ccc4[nH]c(=O)ccc4c3)c(O)cc2C1

>  <score_type>  (50) 
oracle

>  <origin>  (50) 
adgpu

>  <m_score__min__energy>  (50) 
-13.06

>  <m_primary>  (50) 
energy

$$$$
