0:0
     RDKit          3D

 50 52  0  0  0  0  0  0  0  0999 V2000
   -9.8410   20.3080  -32.3740 C   0  0  0  0  0  0  0  0  0  0  0  0
   -8.5250   20.9460  -32.0210 C   0  0  0  0  0  0  0  0  0  0  0  0
   -8.4770   22.3380  -31.8380 C   0  0  0  0  0  0  0  0  0  0  0  0
   -7.2780   22.9750  -31.5150 C   0  0  0  0  0  0  0  0  0  0  0  0
   -6.1000   22.2330  -31.3700 C   0  0  0  0  0  0  0  0  0  0  0  0
   -4.8320   22.9080  -31.0290 C   0  0  0  0  0  0  0  0  0  0  0  0
   -3.6840   22.2620  -30.7480 N   0  0  0  0  0  0  0  0  0  0  0  0
   -2.8490   23.2920  -30.5060 C   0  0  0  0  0  0  0  0  0  0  0  0
   -1.4270   23.1230  -30.0730 C   0  0  0  0  0  0  0  0  0  0  0  0
   -1.3700   22.5220  -28.6870 C   0  0  0  0  0  0  0  0  0  0  0  0
   -1.7570   21.1750  -28.5550 C   0  0  0  0  0  0  0  0  0  0  0  0
   -1.7310   20.5400  -27.3160 C   0  0  0  0  0  0  0  0  0  0  0  0
   -1.3210   21.2380  -26.1850 C   0  0  0  0  0  0  0  0  0  0  0  0
   -0.9240   22.5720  -26.2860 C   0  0  0  0  0  0  0  0  0  0  0  0
   -0.5580   23.2170  -25.1500 F   0  0  0  0  0  0  0  0  0  0  0  0
   -0.9210   23.2310  -27.5340 C   0  0  0  0  0  0  0  0  0  0  0  0
   -0.4170   24.9380  -27.5980 S   0  0  0  0  0  0  0  0  0  0  0  0
   -0.8030   25.7280  -26.0500 C   0  0  0  0  0  0  0  0  0  0  0  0
   -1.1030   25.6590  -28.7240 O   0  0  0  0  0  0  0  0  0  0  0  0
    1.0640   25.0420  -27.8270 O   0  0  0  0  0  0  0  0  0  0  0  0
   -3.4580   24.4890  -30.6180 N   0  0  0  0  0  0  0  0  0  0  0  0
   -4.6820   24.2080  -30.9490 O   0  0  0  0  0  0  0  0  0  0  0  0
   -6.1410   20.8410  -31.5410 C   0  0  0  0  0  0  0  0  0  0  0  0
   -7.3450   20.1830  -31.8390 C   0  0  0  0  0  0  0  0  0  0  0  0
   -7.3230   18.4190  -32.0210 S   0  0  0  0  0  0  0  0  0  0  0  0
   -6.5090   17.7920  -30.9240 O   0  0  0  0  0  0  0  0  0  0  0  0
   -8.7400   17.9210  -31.9350 O   0  0  0  0  0  0  0  0  0  0  0  0
   -6.6380   17.9750  -33.5680 N   0  0  0  0  0  0  0  0  0  0  0  0
   -6.1160   19.1740  -34.2400 C   0  0  0  0  0  0  0  0  0  0  0  0
   -5.5540   17.0060  -33.3660 C   0  0  0  0  0  0  0  0  0  0  0  0
  -10.3807   20.0464  -31.4519 H   0  0  0  0  0  0  0  0  0  0  0  0
  -10.4441   21.0138  -32.9641 H   0  0  0  0  0  0  0  0  0  0  0  0
   -9.6604   19.3974  -32.9641 H   0  0  0  0  0  0  0  0  0  0  0  0
   -9.3953   22.9330  -31.9506 H   0  0  0  0  0  0  0  0  0  0  0  0
   -7.2586   24.0657  -31.3736 H   0  0  0  0  0  0  0  0  0  0  0  0
   -0.9091   22.4573  -30.7791 H   0  0  0  0  0  0  0  0  0  0  0  0
   -0.9377   24.1081  -30.0569 H   0  0  0  0  0  0  0  0  0  0  0  0
   -2.0848   20.6158  -29.4437 H   0  0  0  0  0  0  0  0  0  0  0  0
   -2.0348   19.4861  -27.2317 H   0  0  0  0  0  0  0  0  0  0  0  0
   -1.3096   20.7361  -25.2062 H   0  0  0  0  0  0  0  0  0  0  0  0
   -0.4866   25.0805  -25.2190 H   0  0  0  0  0  0  0  0  0  0  0  0
   -0.2735   26.6901  -25.9873 H   0  0  0  0  0  0  0  0  0  0  0  0
   -1.8874   25.9015  -25.9873 H   0  0  0  0  0  0  0  0  0  0  0  0
   -5.2151   20.2558  -31.4400 H   0  0  0  0  0  0  0  0  0  0  0  0
   -5.7966   19.9076  -33.4852 H   0  0  0  0  0  0  0  0  0  0  0  0
   -5.2569   18.8972  -34.8688 H   0  0  0  0  0  0  0  0  0  0  0  0
   -6.9039   19.6142  -34.8688 H   0  0  0  0  0  0  0  0  0  0  0  0
   -5.3896   16.8591  -32.2883 H   0  0  0  0  0  0  0  0  0  0  0  0
   -5.8286   16.0468  -33.8292 H   0  0  0  0  0  0  0  0  0  0  0  0
   -4.6315   17.3860  -33.8292 H   0  0  0  0  0  0  0  0  0  0  0  0
  1  2  1  0
  2  3  2  0
  3  4  1  0
  4  5  2  0
  5  6  1  0
  6  7  2  0
  7  8  1  0
  8  9  1  0
  9 10  1  0
 10 11  2  0
 11 12  1  0
 12 13  2  0
 13 14  1  0
 14 15  1  0
 14 16  2  0
 16 17  1  0
 17 18  1  0
 17 19  2  0
 17 20  2  0
  8 21  2  0
 21 22  1  0
  5 23  1  0
 23 24  2  0
 24 25  1  0
 25 26  2  0
 25 27  2  0
 25 28  1  0
 28 29  1  0
 28 30  1  0
 24  2  1  0
 22  6  1  0
 16 10  1  0
  1 31  1  0
  1 32  1  0
  1 33  1  0
  3 34  1  0
  4 35  1  0
  9 36  1  0
  9 37  1  0
 11 38  1  0
 12 39  1  0
 13 40  1  0
 18 41  1  0
 18 42  1  0
 18 43  1  0
 23 44  1  0
 29 45  1  0
 29 46  1  0
 29 47  1  0
 30 48  1  0
 30 49  1  0
 30 50  1  0
M  END
>  <UniqueID>  (1) 
1

>  <SMILES>  (1) 
Cc1ccc(-c2nc(Cc3cccc(F)c3S(C)(=O)=O)no2)cc1S(=O)(=O)N(C)C

>  <Energy>  (1) 
84.81611937812107

>  <Genealogy>  (1) 
Cc1ccc(-c2nc(Cc3cccc(F)c3S(C)(=O)=O)no2)cc1S(=O)(=O)N(C)C (3D coordinates assigned)
Cc1ccc(-c2nc(Cc3cccc(F)c3S(C)(=O)=O)no2)cc1S(=O)(=O)N(C)C (optimized conformer: 84.81611937812107 kcal/mol)

>  <smiles>  (1) 
Cc1ccc(-c2nc(Cc3cccc(F)c3S(C)(=O)=O)no2)cc1S(=O)(=O)N(C)C

>  <score_type>  (1) 
oracle

>  <origin>  (1) 
adgpu

>  <m_score__min__energy>  (1) 
-10.970000000000001

>  <m_primary>  (1) 
energy

$$$$
1:0
     RDKit          3D

 36 39  0  0  0  0  0  0  0  0999 V2000
   -3.8640   25.6540  -30.4850 O   0  0  0  0  0  0  0  0  0  0  0  0
   -4.5850   24.5220  -30.8420 C   0  0  0  0  0  0  0  0  0  0  0  0
   -4.0010   23.2570  -30.7330 C   0  0  0  0  0  0  0  0  0  0  0  0
   -4.7250   22.1160  -31.0920 C   0  0  0  0  0  0  0  0  0  0  0  0
   -6.0460   22.2300  -31.5610 C   0  0  0  0  0  0  0  0  0  0  0  0
   -6.8160   21.0240  -31.9520 C   0  0  0  0  0  0  0  0  0  0  0  0
   -8.2140   21.0240  -31.8210 C   0  0  0  0  0  0  0  0  0  0  0  0
   -8.9590   19.9020  -32.1840 C   0  0  0  0  0  0  0  0  0  0  0  0
   -8.3190   18.7690  -32.6890 C   0  0  0  0  0  0  0  0  0  0  0  0
   -6.9230   18.7430  -32.8340 C   0  0  0  0  0  0  0  0  0  0  0  0
   -6.2680   17.5310  -33.3810 C   0  0  0  0  0  0  0  0  0  0  0  0
   -6.8730   16.2780  -33.5010 C   0  0  0  0  0  0  0  0  0  0  0  0
   -5.9160   15.4720  -34.0760 C   0  0  0  0  0  0  0  0  0  0  0  0
   -5.9590   14.1250  -34.4310 C   0  0  0  0  0  0  0  0  0  0  0  0
   -4.8110   13.5650  -35.0210 C   0  0  0  0  0  0  0  0  0  0  0  0
   -3.6600   14.3570  -35.2410 C   0  0  0  0  0  0  0  0  0  0  0  0
   -2.5340   13.7920  -35.8260 O   0  0  0  0  0  0  0  0  0  0  0  0
   -3.6500   15.7150  -34.8710 C   0  0  0  0  0  0  0  0  0  0  0  0
   -4.8010   16.2390  -34.2850 C   0  0  0  0  0  0  0  0  0  0  0  0
   -5.0030   17.5000  -33.8660 N   0  0  0  0  0  0  0  0  0  0  0  0
   -6.1680   19.8710  -32.4440 C   0  0  0  0  0  0  0  0  0  0  0  0
   -4.7770   19.8310  -32.4960 O   0  0  0  0  0  0  0  0  0  0  0  0
   -6.6240   23.5090  -31.6740 C   0  0  0  0  0  0  0  0  0  0  0  0
   -5.8960   24.6470  -31.3140 C   0  0  0  0  0  0  0  0  0  0  0  0
   -2.9694   23.1588  -30.3639 H   0  0  0  0  0  0  0  0  0  0  0  0
   -4.2587   21.1234  -31.0071 H   0  0  0  0  0  0  0  0  0  0  0  0
   -8.7255   21.9155  -31.4292 H   0  0  0  0  0  0  0  0  0  0  0  0
  -10.0533   19.9101  -32.0720 H   0  0  0  0  0  0  0  0  0  0  0  0
   -8.9136   17.8891  -32.9758 H   0  0  0  0  0  0  0  0  0  0  0  0
   -7.8931   15.9960  -33.2011 H   0  0  0  0  0  0  0  0  0  0  0  0
   -6.8606   13.5197  -34.2557 H   0  0  0  0  0  0  0  0  0  0  0  0
   -4.8086   12.5045  -35.3130 H   0  0  0  0  0  0  0  0  0  0  0  0
   -2.7623   16.3426  -35.0389 H   0  0  0  0  0  0  0  0  0  0  0  0
   -4.3280   18.2940  -33.9450 H   0  0  0  0  0  0  0  0  0  0  0  0
   -7.6534   23.6133  -32.0474 H   0  0  0  0  0  0  0  0  0  0  0  0
   -6.3550   25.6428  -31.4021 H   0  0  0  0  0  0  0  0  0  0  0  0
  1  2  1  0
  2  3  2  0
  3  4  1  0
  4  5  2  0
  5  6  1  0
  6  7  2  0
  7  8  1  0
  8  9  2  0
  9 10  1  0
 10 11  1  0
 11 12  2  0
 12 13  1  0
 13 14  2  0
 14 15  1  0
 15 16  2  0
 16 17  1  0
 16 18  1  0
 18 19  2  0
 19 20  1  0
 10 21  2  0
 21 22  1  0
  5 23  1  0
 23 24  2  0
 24  2  1  0
 21  6  1  0
 20 11  1  0
 19 13  1  0
  3 25  1  0
  4 26  1  0
  7 27  1  0
  8 28  1  0
  9 29  1  0
 12 30  1  0
 14 31  1  0
 15 32  1  0
 18 33  1  0
 20 34  1  0
 23 35  1  0
 24 36  1  0
M  CHG  3   1  -1  17  -1  22  -1
M  END
>  <UniqueID>  (2) 
2

>  <SMILES>  (2) 
[O-]c1ccc(-c2cccc(-c3cc4ccc([O-])cc4[nH]3)c2[O-])cc1

>  <Energy>  (2) 
85.1189885632312

>  <Genealogy>  (2) 
[O-]c1ccc(-c2cccc(-c3cc4ccc([O-])cc4[nH]3)c2[O-])cc1 (protonated)
[O-]c1ccc(-c2cccc(-c3cc4ccc([O-])cc4[nH]3)c2[O-])cc1 (3D coordinates assigned)
[O-]c1ccc(-c2cccc(-c3cc4ccc([O-])cc4[nH]3)c2[O-])cc1 (optimized conformer: 85.1189885632312 kcal/mol)

>  <smiles>  (2) 
Oc1ccc(-c2cccc(-c3cc4ccc(O)cc4[nH]3)c2O)cc1

>  <score_type>  (2) 
oracle

>  <origin>  (2) 
adgpu

>  <m_score__min__energy>  (2) 
-11.16

>  <m_primary>  (2) 
energy

$$$$
2:0
     RDKit          3D

 25 26  0  0  0  0  0  0  0  0999 V2000
   -1.6280   25.6680  -29.0390 N   0  0  0  0  0  0  0  0  0  0  0  0
   -2.7270   24.8410  -29.4190 C   0  0  0  0  0  0  0  0  0  0  0  0
   -3.5940   25.2790  -30.2200 O   0  0  0  0  0  0  0  0  0  0  0  0
   -2.8640   23.4680  -28.8460 C   0  0  0  0  0  0  0  0  0  0  0  0
   -2.4020   22.2070  -30.0820 S   0  0  0  0  0  0  0  0  0  0  0  0
   -4.0110   22.1770  -30.8680 C   0  0  0  0  0  0  0  0  0  0  0  0
   -4.8110   21.0950  -30.8960 N   0  0  0  0  0  0  0  0  0  0  0  0
   -5.8820   21.5570  -31.5810 C   0  0  0  0  0  0  0  0  0  0  0  0
   -7.0760   20.7410  -31.8880 C   0  0  0  0  0  0  0  0  0  0  0  0
   -8.3400   21.3450  -32.0160 C   0  0  0  0  0  0  0  0  0  0  0  0
   -9.4680   20.5700  -32.3050 C   0  0  0  0  0  0  0  0  0  0  0  0
   -9.3450   19.1890  -32.4710 C   0  0  0  0  0  0  0  0  0  0  0  0
   -8.0950   18.5790  -32.3470 C   0  0  0  0  0  0  0  0  0  0  0  0
   -6.9640   19.3490  -32.0570 C   0  0  0  0  0  0  0  0  0  0  0  0
   -5.7400   22.8480  -31.9510 N   0  0  0  0  0  0  0  0  0  0  0  0
   -4.5590   23.2250  -31.4990 N   0  0  0  0  0  0  0  0  0  0  0  0
   -1.2380   26.3760  -29.6980 H   0  0  0  0  0  0  0  0  0  0  0  0
   -2.2050   23.3743  -27.9703 H   0  0  0  0  0  0  0  0  0  0  0  0
   -3.9121   23.3093  -28.5522 H   0  0  0  0  0  0  0  0  0  0  0  0
   -8.4419   22.4328  -31.8881 H   0  0  0  0  0  0  0  0  0  0  0  0
  -10.4534   21.0491  -32.4017 H   0  0  0  0  0  0  0  0  0  0  0  0
  -10.2331   18.5814  -32.6995 H   0  0  0  0  0  0  0  0  0  0  0  0
   -7.9997   17.4910  -32.4776 H   0  0  0  0  0  0  0  0  0  0  0  0
   -5.9817   18.8635  -31.9606 H   0  0  0  0  0  0  0  0  0  0  0  0
   -4.1490   24.1770  -31.6190 H   0  0  0  0  0  0  0  0  0  0  0  0
  1  2  1  0
  2  3  2  0
  2  4  1  0
  4  5  1  0
  5  6  1  0
  6  7  2  0
  7  8  1  0
  8  9  1  0
  9 10  2  0
 10 11  1  0
 11 12  2  0
 12 13  1  0
 13 14  2  0
  8 15  2  0
 15 16  1  0
 16  6  1  0
 14  9  1  0
  1 17  1  0
  4 18  1  0
  4 19  1  0
 10 20  1  0
 11 21  1  0
 12 22  1  0
 13 23  1  0
 14 24  1  0
 16 25  1  0
M  CHG  1   1  -1
M  END
>  <UniqueID>  (3) 
3

>  <SMILES>  (3) 
[NH-]C(=O)CSc1nc(-c2ccccc2)n[nH]1

>  <Energy>  (3) 
52.94609096648008

>  <Genealogy>  (3) 
[NH-]C(=O)CSc1nc(-c2ccccc2)n[nH]1 (protonated)
[NH-]C(=O)CSc1nc(-c2ccccc2)n[nH]1 (3D coordinates assigned)
[NH-]C(=O)CSc1nc(-c2ccccc2)n[nH]1 (optimized conformer: 52.94609096648008 kcal/mol)

>  <smiles>  (3) 
NC(=O)CSc1nc(-c2ccccc2)n[nH]1

>  <score_type>  (3) 
oracle

>  <origin>  (3) 
adgpu

>  <m_score__min__energy>  (3) 
-9.0399999999999991

>  <m_primary>  (3) 
energy

$$$$
3:0
     RDKit          3D

 46 48  0  0  0  0  0  0  0  0999 V2000
   -8.0170   21.7680  -31.9870 C   0  0  0  0  0  0  0  0  0  0  0  0
   -6.8330   22.5690  -31.5300 C   0  0  0  0  0  0  0  0  0  0  0  0
   -5.5460   22.2470  -31.9810 C   0  0  0  0  0  0  0  0  0  0  0  0
   -4.4500   23.0140  -31.5860 C   0  0  0  0  0  0  0  0  0  0  0  0
   -4.6190   24.1130  -30.7290 C   0  0  0  0  0  0  0  0  0  0  0  0
   -3.4990   24.9270  -30.3530 N   0  0  0  0  0  0  0  0  0  0  0  0
   -2.6950   24.7890  -29.1730 C   0  0  0  0  0  0  0  0  0  0  0  0
   -1.7910   25.6410  -28.9670 O   0  0  0  0  0  0  0  0  0  0  0  0
   -3.0330   23.7790  -28.0930 C   0  0  0  0  0  0  0  0  0  0  0  0
   -2.2740   22.5110  -28.1770 N   0  0  0  0  0  0  0  0  0  0  0  0
   -1.8250   22.1610  -29.5310 C   0  0  0  0  0  0  0  0  0  0  0  0
   -0.6560   21.1890  -29.4040 C   0  0  0  0  0  0  0  0  0  0  0  0
   -0.9270   20.1570  -28.3900 N   0  0  0  0  0  0  0  0  0  0  0  0
    0.0860   19.1620  -28.1240 C   0  0  0  0  0  0  0  0  0  0  0  0
    1.4060   19.4790  -28.2470 N   0  0  0  0  0  0  0  0  0  0  0  0
    2.3770   18.5600  -28.0050 C   0  0  0  0  0  0  0  0  0  0  0  0
    2.0290   17.2660  -27.6240 C   0  0  0  0  0  0  0  0  0  0  0  0
    0.6770   16.9520  -27.5010 C   0  0  0  0  0  0  0  0  0  0  0  0
   -0.2640   17.8990  -27.7530 N   0  0  0  0  0  0  0  0  0  0  0  0
   -2.2800   20.0140  -27.8220 C   0  0  0  0  0  0  0  0  0  0  0  0
   -2.9290   21.3780  -27.4910 C   0  0  0  0  0  0  0  0  0  0  0  0
   -5.9160   24.4740  -30.3140 C   0  0  0  0  0  0  0  0  0  0  0  0
   -6.1270   25.6760  -29.4360 C   0  0  0  0  0  0  0  0  0  0  0  0
   -7.0160   23.6960  -30.7160 C   0  0  0  0  0  0  0  0  0  0  0  0
   -8.5678   21.3953  -31.1108 H   0  0  0  0  0  0  0  0  0  0  0  0
   -8.6788   22.4047  -32.5926 H   0  0  0  0  0  0  0  0  0  0  0  0
   -7.6722   20.9169  -32.5926 H   0  0  0  0  0  0  0  0  0  0  0  0
   -5.3994   21.3857  -32.6494 H   0  0  0  0  0  0  0  0  0  0  0  0
   -3.4444   22.7555  -31.9492 H   0  0  0  0  0  0  0  0  0  0  0  0
   -2.8255   24.2391  -27.1156 H   0  0  0  0  0  0  0  0  0  0  0  0
   -4.0928   23.5181  -28.2303 H   0  0  0  0  0  0  0  0  0  0  0  0
   -2.6473   21.6854  -30.0856 H   0  0  0  0  0  0  0  0  0  0  0  0
   -1.5131   23.0645  -30.0754 H   0  0  0  0  0  0  0  0  0  0  0  0
   -0.4881   20.7014  -30.3756 H   0  0  0  0  0  0  0  0  0  0  0  0
    0.2346   21.7553  -29.0940 H   0  0  0  0  0  0  0  0  0  0  0  0
    3.4363   18.8373  -28.1098 H   0  0  0  0  0  0  0  0  0  0  0  0
    2.8030   16.5102  -27.4250 H   0  0  0  0  0  0  0  0  0  0  0  0
    0.3720   15.9388  -27.2003 H   0  0  0  0  0  0  0  0  0  0  0  0
   -2.9149   19.4885  -28.5505 H   0  0  0  0  0  0  0  0  0  0  0  0
   -2.1907   19.4489  -26.8825 H   0  0  0  0  0  0  0  0  0  0  0  0
   -3.9853   21.3468  -27.7963 H   0  0  0  0  0  0  0  0  0  0  0  0
   -2.8188   21.5407  -26.4087 H   0  0  0  0  0  0  0  0  0  0  0  0
   -6.0737   25.3726  -28.3800 H   0  0  0  0  0  0  0  0  0  0  0  0
   -5.3462   26.4227  -29.6428 H   0  0  0  0  0  0  0  0  0  0  0  0
   -7.1154   26.1121  -29.6428 H   0  0  0  0  0  0  0  0  0  0  0  0
   -8.0289   23.9738  -30.3891 H   0  0  0  0  0  0  0  0  0  0  0  0
  1  2  1  0
  2  3  2  0
  3  4  1  0
  4  5  2  0
  5  6  1  0
  6  7  1  0
  7  8  2  0
  7  9  1  0
  9 10  1  0
 10 11  1  0
 11 12  1  0
 12 13  1  0
 13 14  1  0
 14 15  2  0
 15 16  1  0
 16 17  2  0
 17 18  1  0
 18 19  2  0
 13 20  1  0
 20 21  1  0
  5 22  1  0
 22 23  1  0
 22 24  2  0
 24  2  1  0
 21 10  1  0
 19 14  1  0
  1 25  1  0
  1 26  1  0
  1 27  1  0
  3 28  1  0
  4 29  1  0
  9 30  1  0
  9 31  1  0
 11 32  1  0
 11 33  1  0
 12 34  1  0
 12 35  1  0
 16 36  1  0
 17 37  1  0
 18 38  1  0
 20 39  1  0
 20 40  1  0
 21 41  1  0
 21 42  1  0
 23 43  1  0
 23 44  1  0
 23 45  1  0
 24 46  1  0
M  CHG  1   6  -1
M  END
>  <UniqueID>  (4) 
4

>  <SMILES>  (4) 
Cc1ccc([N-]C(=O)CN2CCN(c3ncccn3)CC2)c(C)c1

>  <Energy>  (4) 
62.853305332109976

>  <Genealogy>  (4) 
Cc1ccc([N-]C(=O)CN2CCN(c3ncccn3)CC2)c(C)c1 (protonated)
Cc1ccc([N-]C(=O)CN2CCN(c3ncccn3)CC2)c(C)c1 (3D coordinates assigned)
Cc1ccc([N-]C(=O)CN2CCN(c3ncccn3)CC2)c(C)c1 (nonaromatic ring conformer: 62.853305332109976 kcal/mol)

>  <smiles>  (4) 
Cc1ccc(NC(=O)CN2CCN(c3ncccn3)CC2)c(C)c1

>  <score_type>  (4) 
oracle

>  <origin>  (4) 
adgpu

>  <m_score__min__energy>  (4) 
-9.5999999999999996

>  <m_primary>  (4) 
energy

$$$$
4:0
     RDKit          3D

 34 36  0  0  0  0  0  0  0  0999 V2000
   -0.1220   26.8860  -22.8600 C   0  0  0  0  0  0  0  0  0  0  0  0
   -0.6230   26.1600  -24.0730 C   0  0  0  0  0  0  0  0  0  0  0  0
   -0.1090   24.8960  -24.4030 C   0  0  0  0  0  0  0  0  0  0  0  0
   -0.5470   24.2340  -25.5540 C   0  0  0  0  0  0  0  0  0  0  0  0
   -1.5070   24.8300  -26.3920 C   0  0  0  0  0  0  0  0  0  0  0  0
   -1.9670   24.1960  -27.5950 N   0  0  0  0  0  0  0  0  0  0  0  0
   -2.1300   24.8150  -28.8770 C   0  0  0  0  0  0  0  0  0  0  0  0
   -1.2730   25.6280  -29.3140 O   0  0  0  0  0  0  0  0  0  0  0  0
   -3.2830   24.4530  -29.7110 C   0  0  0  0  0  0  0  0  0  0  0  0
   -3.9300   23.2360  -29.7240 C   0  0  0  0  0  0  0  0  0  0  0  0
   -4.9320   23.3990  -30.6640 C   0  0  0  0  0  0  0  0  0  0  0  0
   -5.9380   22.3920  -31.0840 C   0  0  0  0  0  0  0  0  0  0  0  0
   -5.5290   21.2430  -31.7860 C   0  0  0  0  0  0  0  0  0  0  0  0
   -6.4660   20.2860  -32.1890 C   0  0  0  0  0  0  0  0  0  0  0  0
   -7.8210   20.4630  -31.8950 C   0  0  0  0  0  0  0  0  0  0  0  0
   -9.0980   19.1540  -32.4450 Br  0  0  0  0  0  0  0  0  0  0  0  0
   -8.2390   21.6000  -31.1990 C   0  0  0  0  0  0  0  0  0  0  0  0
   -7.3060   22.5600  -30.7950 C   0  0  0  0  0  0  0  0  0  0  0  0
   -4.8670   24.6480  -31.1710 N   0  0  0  0  0  0  0  0  0  0  0  0
   -3.8640   25.2890  -30.5910 N   0  0  0  0  0  0  0  0  0  0  0  0
   -1.9860   26.1080  -26.0820 C   0  0  0  0  0  0  0  0  0  0  0  0
   -1.5480   26.7700  -24.9310 C   0  0  0  0  0  0  0  0  0  0  0  0
   -0.4759   26.3731  -21.9535 H   0  0  0  0  0  0  0  0  0  0  0  0
    0.9779   26.8985  -22.8684 H   0  0  0  0  0  0  0  0  0  0  0  0
   -0.5005   27.9188  -22.8684 H   0  0  0  0  0  0  0  0  0  0  0  0
    0.6422   24.4240  -23.7527 H   0  0  0  0  0  0  0  0  0  0  0  0
   -0.1395   23.2436  -25.8052 H   0  0  0  0  0  0  0  0  0  0  0  0
   -3.7023   22.3417  -29.1253 H   0  0  0  0  0  0  0  0  0  0  0  0
   -4.4641   21.0964  -32.0196 H   0  0  0  0  0  0  0  0  0  0  0  0
   -6.1359   19.3921  -32.7385 H   0  0  0  0  0  0  0  0  0  0  0  0
   -9.3053   21.7404  -30.9681 H   0  0  0  0  0  0  0  0  0  0  0  0
   -7.6430   23.4527  -30.2476 H   0  0  0  0  0  0  0  0  0  0  0  0
   -2.7125   26.5953  -26.7489 H   0  0  0  0  0  0  0  0  0  0  0  0
   -1.9313   27.7744  -24.6978 H   0  0  0  0  0  0  0  0  0  0  0  0
  1  2  1  0
  2  3  2  0
  3  4  1  0
  4  5  2  0
  5  6  1  0
  6  7  1  0
  7  8  2  0
  7  9  1  0
  9 10  1  0
 10 11  2  0
 11 12  1  0
 12 13  2  0
 13 14  1  0
 14 15  2  0
 15 16  1  0
 15 17  1  0
 17 18  2  0
 11 19  1  0
 19 20  1  0
  5 21  1  0
 21 22  2  0
 22  2  1  0
 20  9  2  0
 18 12  1  0
  1 23  1  0
  1 24  1  0
  1 25  1  0
  3 26  1  0
  4 27  1  0
 10 28  1  0
 13 29  1  0
 14 30  1  0
 17 31  1  0
 18 32  1  0
 21 33  1  0
 22 34  1  0
M  CHG  2   6  -1  19  -1
M  END
>  <UniqueID>  (5) 
5

>  <SMILES>  (5) 
Cc1ccc([N-]C(=O)c2cc(-c3ccc(Br)cc3)[n-]n2)cc1

>  <Energy>  (5) 
69.08597728175532

>  <Genealogy>  (5) 
Cc1ccc([N-]C(=O)c2cc(-c3ccc(Br)cc3)[n-]n2)cc1 (protonated)
Cc1ccc([N-]C(=O)c2cc(-c3ccc(Br)cc3)[n-]n2)cc1 (3D coordinates assigned)
Cc1ccc([N-]C(=O)c2cc(-c3ccc(Br)cc3)[n-]n2)cc1 (optimized conformer: 69.08597728175532 kcal/mol)

>  <smiles>  (5) 
Cc1ccc(NC(=O)c2cc(-c3ccc(Br)cc3)[nH]n2)cc1

>  <score_type>  (5) 
oracle

>  <origin>  (5) 
adgpu

>  <m_score__min__energy>  (5) 
-11.6

>  <m_primary>  (5) 
energy

$$$$
5:0
     RDKit          3D

 49 51  0  0  0  0  0  0  0  0999 V2000
   -6.4750   26.0310  -28.9640 C   0  0  0  0  0  0  0  0  0  0  0  0
   -6.1540   25.7310  -30.3180 O   0  0  0  0  0  0  0  0  0  0  0  0
   -5.9330   24.4360  -30.8150 C   0  0  0  0  0  0  0  0  0  0  0  0
   -6.9940   23.5990  -31.2140 C   0  0  0  0  0  0  0  0  0  0  0  0
   -6.7350   22.3150  -31.6990 C   0  0  0  0  0  0  0  0  0  0  0  0
   -5.4210   21.8620  -31.8070 C   0  0  0  0  0  0  0  0  0  0  0  0
   -4.3610   22.6840  -31.4190 C   0  0  0  0  0  0  0  0  0  0  0  0
   -4.6100   23.9660  -30.8980 C   0  0  0  0  0  0  0  0  0  0  0  0
   -3.5450   24.8220  -30.4560 N   0  0  0  0  0  0  0  0  0  0  0  0
   -2.5410   24.5620  -29.0620 S   0  0  0  0  0  0  0  0  0  0  0  0
   -3.4330   24.4560  -27.8570 O   0  0  0  0  0  0  0  0  0  0  0  0
   -1.6040   25.7150  -28.8490 O   0  0  0  0  0  0  0  0  0  0  0  0
   -1.6370   23.0600  -29.2560 C   0  0  0  0  0  0  0  0  0  0  0  0
   -1.1120   22.3850  -28.1430 C   0  0  0  0  0  0  0  0  0  0  0  0
   -0.4250   21.1800  -28.3130 C   0  0  0  0  0  0  0  0  0  0  0  0
   -0.2790   20.6270  -29.5890 C   0  0  0  0  0  0  0  0  0  0  0  0
   -0.8250   21.2740  -30.7040 C   0  0  0  0  0  0  0  0  0  0  0  0
   -0.6940   20.6740  -32.0000 N   0  0  0  0  0  0  0  0  0  0  0  0
   -1.7890   20.2820  -32.8360 C   0  0  0  0  0  0  0  0  0  0  0  0
   -2.1470   21.0160  -33.7970 O   0  0  0  0  0  0  0  0  0  0  0  0
   -2.4780   19.0540  -32.5640 N   0  0  0  0  0  0  0  0  0  0  0  0
   -3.5890   18.5740  -33.3440 C   0  0  0  0  0  0  0  0  0  0  0  0
   -4.7080   19.3950  -33.5800 C   0  0  0  0  0  0  0  0  0  0  0  0
   -5.7850   18.9240  -34.3340 C   0  0  0  0  0  0  0  0  0  0  0  0
   -5.7650   17.6270  -34.8460 C   0  0  0  0  0  0  0  0  0  0  0  0
   -4.6720   16.7930  -34.6000 C   0  0  0  0  0  0  0  0  0  0  0  0
   -3.5760   17.2580  -33.8450 C   0  0  0  0  0  0  0  0  0  0  0  0
   -2.4590   16.4470  -33.5830 O   0  0  0  0  0  0  0  0  0  0  0  0
   -1.1570   16.6740  -34.1090 C   0  0  0  0  0  0  0  0  0  0  0  0
   -1.4680   22.5120  -30.5340 C   0  0  0  0  0  0  0  0  0  0  0  0
   -5.8370   25.4347  -28.2951 H   0  0  0  0  0  0  0  0  0  0  0  0
   -6.3048   27.1012  -28.7753 H   0  0  0  0  0  0  0  0  0  0  0  0
   -7.5313   25.7889  -28.7753 H   0  0  0  0  0  0  0  0  0  0  0  0
   -8.0312   23.9585  -31.1432 H   0  0  0  0  0  0  0  0  0  0  0  0
   -7.5682   21.6610  -31.9958 H   0  0  0  0  0  0  0  0  0  0  0  0
   -5.2187   20.8543  -32.1989 H   0  0  0  0  0  0  0  0  0  0  0  0
   -3.3257   22.3267  -31.5215 H   0  0  0  0  0  0  0  0  0  0  0  0
   -1.2416   22.8054  -27.1348 H   0  0  0  0  0  0  0  0  0  0  0  0
    0.0023   20.6648  -27.4401 H   0  0  0  0  0  0  0  0  0  0  0  0
    0.2667   19.6805  -29.7171 H   0  0  0  0  0  0  0  0  0  0  0  0
   -2.0570   18.4170  -31.8500 H   0  0  0  0  0  0  0  0  0  0  0  0
   -4.7342   20.4145  -33.1677 H   0  0  0  0  0  0  0  0  0  0  0  0
   -6.6498   19.5766  -34.5242 H   0  0  0  0  0  0  0  0  0  0  0  0
   -6.6117   17.2601  -35.4448 H   0  0  0  0  0  0  0  0  0  0  0  0
   -4.6663   15.7674  -34.9976 H   0  0  0  0  0  0  0  0  0  0  0  0
   -0.4436   16.7984  -33.2810 H   0  0  0  0  0  0  0  0  0  0  0  0
   -0.8560   15.8148  -34.7264 H   0  0  0  0  0  0  0  0  0  0  0  0
   -1.1645   17.5844  -34.7264 H   0  0  0  0  0  0  0  0  0  0  0  0
   -1.8424   23.0563  -31.4135 H   0  0  0  0  0  0  0  0  0  0  0  0
  1  2  1  0
  2  3  1  0
  3  4  2  0
  4  5  1  0
  5  6  2  0
  6  7  1  0
  7  8  2  0
  8  9  1  0
  9 10  1  0
 10 11  2  0
 10 12  2  0
 10 13  1  0
 13 14  2  0
 14 15  1  0
 15 16  2  0
 16 17  1  0
 17 18  1  0
 18 19  1  0
 19 20  2  0
 19 21  1  0
 21 22  1  0
 22 23  2  0
 23 24  1  0
 24 25  2  0
 25 26  1  0
 26 27  2  0
 27 28  1  0
 28 29  1  0
 17 30  2  0
  8  3  1  0
 30 13  1  0
 27 22  1  0
  1 31  1  0
  1 32  1  0
  1 33  1  0
  4 34  1  0
  5 35  1  0
  6 36  1  0
  7 37  1  0
 14 38  1  0
 15 39  1  0
 16 40  1  0
 21 41  1  0
 23 42  1  0
 24 43  1  0
 25 44  1  0
 26 45  1  0
 29 46  1  0
 29 47  1  0
 29 48  1  0
 30 49  1  0
M  CHG  2   9  -1  18  -1
M  END
>  <UniqueID>  (6) 
6

>  <SMILES>  (6) 
COc1ccccc1[N-]S(=O)(=O)c1cccc([N-]C(=O)Nc2ccccc2OC)c1

>  <Energy>  (6) 
62.40112408151504

>  <Genealogy>  (6) 
COc1ccccc1[N-]S(=O)(=O)c1cccc([N-]C(=O)Nc2ccccc2OC)c1 (protonated)
COc1ccccc1[N-]S(=O)(=O)c1cccc([N-]C(=O)Nc2ccccc2OC)c1 (3D coordinates assigned)
COc1ccccc1[N-]S(=O)(=O)c1cccc([N-]C(=O)Nc2ccccc2OC)c1 (optimized conformer: 62.40112408151504 kcal/mol)

>  <smiles>  (6) 
COc1ccccc1NC(=O)Nc1cccc(S(=O)(=O)Nc2ccccc2OC)c1

>  <score_type>  (6) 
oracle

>  <origin>  (6) 
adgpu

>  <m_score__min__energy>  (6) 
-11.140000000000001

>  <m_primary>  (6) 
energy

$$$$
6:0
     RDKit          3D

 36 37  0  0  0  0  0  0  0  0999 V2000
   -9.4770   18.9900  -32.3530 C   0  0  0  0  0  0  0  0  0  0  0  0
   -8.2020   19.7670  -32.3270 C   0  0  0  0  0  0  0  0  0  0  0  0
   -6.9830   19.2230  -32.5080 N   0  0  0  0  0  0  0  0  0  0  0  0
   -6.1570   20.2910  -32.4430 C   0  0  0  0  0  0  0  0  0  0  0  0
   -4.6660   20.1940  -32.5950 C   0  0  0  0  0  0  0  0  0  0  0  0
   -4.0250   21.5290  -32.5700 N   0  0  2  0  0  0  0  0  0  0  0  0
   -2.8510   21.5550  -33.4640 C   0  0  0  0  0  0  0  0  0  0  0  0
   -3.6940   21.9850  -31.1940 C   0  0  0  0  0  0  0  0  0  0  0  0
   -4.4680   23.2070  -30.7400 C   0  0  0  0  0  0  0  0  0  0  0  0
   -5.1350   23.9970  -31.6090 N   0  0  0  0  0  0  0  0  0  0  0  0
   -5.6940   24.9520  -30.8400 C   0  0  0  0  0  0  0  0  0  0  0  0
   -5.3690   24.7280  -29.5230 C   0  0  0  0  0  0  0  0  0  0  0  0
   -4.6120   23.6200  -29.4570 N   0  0  0  0  0  0  0  0  0  0  0  0
   -4.0340   23.0650  -28.2360 C   0  0  0  0  0  0  0  0  0  0  0  0
   -6.7970   21.4220  -32.2400 O   0  0  0  0  0  0  0  0  0  0  0  0
   -8.0710   21.1290  -32.1720 C   0  0  0  0  0  0  0  0  0  0  0  0
   -9.1620   22.1260  -31.9570 C   0  0  0  0  0  0  0  0  0  0  0  0
   -9.8055   18.7898  -31.3225 H   0  0  0  0  0  0  0  0  0  0  0  0
  -10.2497   19.5709  -32.8779 H   0  0  0  0  0  0  0  0  0  0  0  0
   -9.3150   18.0370  -32.8779 H   0  0  0  0  0  0  0  0  0  0  0  0
   -4.2621   19.5891  -31.7698 H   0  0  0  0  0  0  0  0  0  0  0  0
   -4.4500   19.7280  -33.5677 H   0  0  0  0  0  0  0  0  0  0  0  0
   -4.7030   22.2240  -32.9650 H   0  0  0  0  0  0  0  0  0  0  0  0
   -1.9313   21.5754  -32.8609 H   0  0  0  0  0  0  0  0  0  0  0  0
   -2.8535   20.6566  -34.0987 H   0  0  0  0  0  0  0  0  0  0  0  0
   -2.8932   22.4524  -34.0987 H   0  0  0  0  0  0  0  0  0  0  0  0
   -3.9094   21.1618  -30.4969 H   0  0  0  0  0  0  0  0  0  0  0  0
   -2.6315   22.2698  -31.2029 H   0  0  0  0  0  0  0  0  0  0  0  0
   -6.3143   25.7822  -31.2088 H   0  0  0  0  0  0  0  0  0  0  0  0
   -5.6763   25.3498  -28.6692 H   0  0  0  0  0  0  0  0  0  0  0  0
   -4.5143   23.5262  -27.3604 H   0  0  0  0  0  0  0  0  0  0  0  0
   -4.1982   21.9776  -28.2140 H   0  0  0  0  0  0  0  0  0  0  0  0
   -2.9541   23.2732  -28.2140 H   0  0  0  0  0  0  0  0  0  0  0  0
   -9.3196   22.2701  -30.8779 H   0  0  0  0  0  0  0  0  0  0  0  0
   -8.8791   23.0841  -32.4174 H   0  0  0  0  0  0  0  0  0  0  0  0
  -10.0908   21.7581  -32.4174 H   0  0  0  0  0  0  0  0  0  0  0  0
  1  2  1  0
  2  3  1  0
  3  4  2  0
  4  5  1  0
  5  6  1  0
  6  7  1  0
  6  8  1  0
  8  9  1  0
  9 10  2  0
 10 11  1  0
 11 12  2  0
 12 13  1  0
 13 14  1  0
  4 15  1  0
 15 16  1  0
 16 17  1  0
 16  2  2  0
 13  9  1  0
  1 18  1  0
  1 19  1  0
  1 20  1  0
  5 21  1  0
  5 22  1  0
  6 23  1  6
  7 24  1  0
  7 25  1  0
  7 26  1  0
  8 27  1  0
  8 28  1  0
 11 29  1  0
 12 30  1  0
 14 31  1  0
 14 32  1  0
 14 33  1  0
 17 34  1  0
 17 35  1  0
 17 36  1  0
M  CHG  1   6   1
M  END
>  <UniqueID>  (7) 
7

>  <SMILES>  (7) 
Cc1nc(C[N@H+](C)Cc2nccn2C)oc1C

>  <Energy>  (7) 
94.08016238594855

>  <Genealogy>  (7) 
Cc1nc(C[NH+](C)Cc2nccn2C)oc1C (protonated)
Cc1nc(C[N@H+](C)Cc2nccn2C)oc1C (chirality)
Cc1nc(C[N@H+](C)Cc2nccn2C)oc1C (3D coordinates assigned)
Cc1nc(C[N@H+](C)Cc2nccn2C)oc1C (optimized conformer: 94.08016238594855 kcal/mol)

>  <smiles>  (7) 
Cc1nc(CN(C)Cc2nccn2C)oc1C

>  <score_type>  (7) 
oracle

>  <origin>  (7) 
adgpu

>  <m_score__min__energy>  (7) 
-4.5499999999999998

>  <m_primary>  (7) 
energy

$$$$
7:0
     RDKit          3D

 48 50  0  0  0  0  0  0  0  0999 V2000
   -2.8670   21.3020  -30.5750 C   0  0  0  0  0  0  0  0  0  0  0  0
   -3.6200   20.6000  -31.6650 C   0  0  0  0  0  0  0  0  0  0  0  0
   -2.9690   20.2350  -32.8470 C   0  0  0  0  0  0  0  0  0  0  0  0
   -3.6630   19.5580  -33.8510 C   0  0  0  0  0  0  0  0  0  0  0  0
   -5.0200   19.2270  -33.6920 C   0  0  0  0  0  0  0  0  0  0  0  0
   -5.7180   18.5080  -34.8140 C   0  0  0  0  0  0  0  0  0  0  0  0
   -5.6730   19.5530  -32.4740 C   0  0  0  0  0  0  0  0  0  0  0  0
   -7.3800   19.1880  -32.1490 S   0  0  0  0  0  0  0  0  0  0  0  0
   -7.4810   18.4300  -30.8560 O   0  0  0  0  0  0  0  0  0  0  0  0
   -7.9940   18.3390  -33.2250 O   0  0  0  0  0  0  0  0  0  0  0  0
   -8.2500   20.6780  -31.9920 N   0  0  0  0  0  0  0  0  0  0  0  0
   -7.5550   21.8830  -31.6680 C   0  0  0  0  0  0  0  0  0  0  0  0
   -6.8560   22.5910  -32.6560 C   0  0  0  0  0  0  0  0  0  0  0  0
   -6.1190   23.7290  -32.3160 C   0  0  0  0  0  0  0  0  0  0  0  0
   -6.0630   24.1640  -30.9820 C   0  0  0  0  0  0  0  0  0  0  0  0
   -5.2150   25.3170  -30.6090 C   0  0  0  0  0  0  0  0  0  0  0  0
   -5.7530   26.4310  -30.3710 O   0  0  0  0  0  0  0  0  0  0  0  0
   -3.7930   25.1930  -30.4770 N   0  0  0  0  0  0  0  0  0  0  0  0
   -3.1120   24.4800  -29.4340 C   0  0  0  0  0  0  0  0  0  0  0  0
   -3.8640   23.7620  -28.4960 C   0  0  0  0  0  0  0  0  0  0  0  0
   -3.2270   23.0510  -27.4740 C   0  0  0  0  0  0  0  0  0  0  0  0
   -1.8300   23.0660  -27.3680 C   0  0  0  0  0  0  0  0  0  0  0  0
   -1.1780   22.3330  -26.3280 N   0  0  0  0  0  0  0  0  0  0  0  0
   -1.0760   23.8100  -28.2850 C   0  0  0  0  0  0  0  0  0  0  0  0
   -1.7110   24.5180  -29.3080 C   0  0  0  0  0  0  0  0  0  0  0  0
   -6.8060   23.4790  -30.0050 C   0  0  0  0  0  0  0  0  0  0  0  0
   -7.5500   22.3490  -30.3480 C   0  0  0  0  0  0  0  0  0  0  0  0
   -4.9620   20.2430  -31.4790 C   0  0  0  0  0  0  0  0  0  0  0  0
   -3.2343   20.9595  -29.5963 H   0  0  0  0  0  0  0  0  0  0  0  0
   -1.7947   21.0738  -30.6645 H   0  0  0  0  0  0  0  0  0  0  0  0
   -3.0196   22.3877  -30.6645 H   0  0  0  0  0  0  0  0  0  0  0  0
   -1.9062   20.4822  -32.9863 H   0  0  0  0  0  0  0  0  0  0  0  0
   -3.1414   19.2798  -34.7787 H   0  0  0  0  0  0  0  0  0  0  0  0
   -6.4269   17.7778  -34.3966 H   0  0  0  0  0  0  0  0  0  0  0  0
   -6.2632   19.2359  -35.4329 H   0  0  0  0  0  0  0  0  0  0  0  0
   -4.9743   17.9846  -35.4329 H   0  0  0  0  0  0  0  0  0  0  0  0
   -9.2610   20.6060  -31.7370 H   0  0  0  0  0  0  0  0  0  0  0  0
   -6.8877   22.2500  -33.7013 H   0  0  0  0  0  0  0  0  0  0  0  0
   -5.5806   24.2862  -33.0968 H   0  0  0  0  0  0  0  0  0  0  0  0
   -4.9619   23.7572  -28.5634 H   0  0  0  0  0  0  0  0  0  0  0  0
   -3.8251   22.4777  -26.7505 H   0  0  0  0  0  0  0  0  0  0  0  0
   -0.9950   21.3090  -26.4270 H   0  0  0  0  0  0  0  0  0  0  0  0
   -0.8650   22.8110  -25.4530 H   0  0  0  0  0  0  0  0  0  0  0  0
    0.0203   23.8367  -28.1990 H   0  0  0  0  0  0  0  0  0  0  0  0
   -1.1132   25.1079  -30.0184 H   0  0  0  0  0  0  0  0  0  0  0  0
   -6.8011   23.8355  -28.9644 H   0  0  0  0  0  0  0  0  0  0  0  0
   -8.1343   21.8230  -29.5786 H   0  0  0  0  0  0  0  0  0  0  0  0
   -5.4668   20.5076  -30.5382 H   0  0  0  0  0  0  0  0  0  0  0  0
  1  2  1  0
  2  3  2  0
  3  4  1  0
  4  5  2  0
  5  6  1  0
  5  7  1  0
  7  8  1  0
  8  9  2  0
  8 10  2  0
  8 11  1  0
 11 12  1  0
 12 13  2  0
 13 14  1  0
 14 15  2  0
 15 16  1  0
 16 17  2  0
 16 18  1  0
 18 19  1  0
 19 20  2  0
 20 21  1  0
 21 22  2  0
 22 23  1  0
 22 24  1  0
 24 25  2  0
 15 26  1  0
 26 27  2  0
  7 28  2  0
 28  2  1  0
 27 12  1  0
 25 19  1  0
  1 29  1  0
  1 30  1  0
  1 31  1  0
  3 32  1  0
  4 33  1  0
  6 34  1  0
  6 35  1  0
  6 36  1  0
 11 37  1  0
 13 38  1  0
 14 39  1  0
 20 40  1  0
 21 41  1  0
 23 42  1  0
 23 43  1  0
 24 44  1  0
 25 45  1  0
 26 46  1  0
 27 47  1  0
 28 48  1  0
M  CHG  1  18  -1
M  END
>  <UniqueID>  (8) 
8

>  <SMILES>  (8) 
Cc1ccc(C)c(S(=O)(=O)Nc2ccc(C(=O)[N-]c3ccc(N)cc3)cc2)c1

>  <Energy>  (8) 
61.67396633509969

>  <Genealogy>  (8) 
Cc1ccc(C)c(S(=O)(=O)Nc2ccc(C(=O)[N-]c3ccc(N)cc3)cc2)c1 (protonated)
Cc1ccc(C)c(S(=O)(=O)Nc2ccc(C(=O)[N-]c3ccc(N)cc3)cc2)c1 (3D coordinates assigned)
Cc1ccc(C)c(S(=O)(=O)Nc2ccc(C(=O)[N-]c3ccc(N)cc3)cc2)c1 (optimized conformer: 61.67396633509969 kcal/mol)

>  <smiles>  (8) 
Cc1ccc(C)c(S(=O)(=O)Nc2ccc(C(=O)Nc3ccc(N)cc3)cc2)c1

>  <score_type>  (8) 
oracle

>  <origin>  (8) 
adgpu

>  <m_score__min__energy>  (8) 
-11.26

>  <m_primary>  (8) 
energy

$$$$
8:0
     RDKit          3D

 38 41  0  0  1  0  0  0  0  0999 V2000
   -1.7620   20.8150  -29.8580 C   0  0  0  0  0  0  0  0  0  0  0  0
   -2.5150   21.1430  -31.1030 C   0  0  0  0  0  0  0  0  0  0  0  0
   -1.9810   20.8480  -32.3350 C   0  0  0  0  0  0  0  0  0  0  0  0
   -2.7000   21.1640  -33.4680 C   0  0  0  0  0  0  0  0  0  0  0  0
   -3.9380   21.7660  -33.4010 C   0  0  0  0  0  0  0  0  0  0  0  0
   -4.5090   22.0800  -32.1280 C   0  0  0  0  0  0  0  0  0  0  0  0
   -5.7270   22.5320  -32.0470 N   0  0  0  0  0  0  0  0  0  0  0  0
   -6.8830   22.2400  -31.9850 C   0  0  0  0  0  0  0  0  0  0  0  0
   -7.7990   23.2490  -31.9160 N   0  0  0  0  0  0  0  0  0  0  0  0
   -9.1160   23.0790  -31.9670 C   0  0  0  0  0  0  0  0  0  0  0  0
   -9.5600   21.8240  -32.0950 N   0  0  0  0  0  0  0  0  0  0  0  0
   -8.6620   20.8180  -32.1600 C   0  0  0  0  0  0  0  0  0  0  0  0
   -9.1070   19.1180  -32.3530 S   0  0  0  0  0  0  0  0  0  0  0  0
   -7.3870   18.5860  -32.3490 C   0  0  0  0  0  0  0  0  0  0  0  0
   -6.5920   19.7760  -32.1950 C   0  0  0  0  0  0  0  0  0  0  0  0
   -7.3030   20.8980  -32.1120 C   0  0  0  0  0  0  0  0  0  0  0  0
   -5.1830   19.2370  -32.0870 C   0  0  0  0  0  0  0  0  0  0  0  0
   -4.9040   18.6110  -33.4140 C   0  0  0  0  0  0  0  0  0  0  0  0
   -5.6200   17.2970  -33.4830 C   0  0  0  0  0  0  0  0  0  0  0  0
   -6.7520   17.2850  -32.5040 C   0  0  0  0  0  0  0  0  0  0  0  0
   -3.7480   21.7450  -30.9780 C   0  0  0  0  0  0  0  0  0  0  0  0
   -2.3705   21.0801  -28.9808 H   0  0  0  0  0  0  0  0  0  0  0  0
   -1.5387   19.7381  -29.8375 H   0  0  0  0  0  0  0  0  0  0  0  0
   -0.8214   21.3849  -29.8375 H   0  0  0  0  0  0  0  0  0  0  0  0
   -0.9950   20.3671  -32.4155 H   0  0  0  0  0  0  0  0  0  0  0  0
   -2.2732   20.9288  -34.4542 H   0  0  0  0  0  0  0  0  0  0  0  0
   -4.4857   22.0044  -34.3247 H   0  0  0  0  0  0  0  0  0  0  0  0
   -7.4830   24.2610  -31.8130 H   0  0  0  0  0  0  0  0  0  0  0  0
   -9.8089   23.9312  -31.9067 H   0  0  0  0  0  0  0  0  0  0  0  0
   -4.4718   20.0521  -31.8872 H   0  0  0  0  0  0  0  0  0  0  0  0
   -5.0787   18.5176  -31.2614 H   0  0  0  0  0  0  0  0  0  0  0  0
   -5.2625   19.2709  -34.2177 H   0  0  0  0  0  0  0  0  0  0  0  0
   -3.8218   18.4560  -33.5361 H   0  0  0  0  0  0  0  0  0  0  0  0
   -6.0143   17.1488  -34.4992 H   0  0  0  0  0  0  0  0  0  0  0  0
   -4.9177   16.4871  -33.2364 H   0  0  0  0  0  0  0  0  0  0  0  0
   -7.5080   16.5657  -32.8518 H   0  0  0  0  0  0  0  0  0  0  0  0
   -6.3360   17.0044  -31.5251 H   0  0  0  0  0  0  0  0  0  0  0  0
   -4.1463   21.9681  -29.9772 H   0  0  0  0  0  0  0  0  0  0  0  0
  1  2  1  0
  2  3  2  0
  3  4  1  0
  4  5  2  0
  5  6  1  0
  6  7  1  0
  7  8  2  0
  8  9  1  0
  9 10  1  0
 10 11  2  0
 11 12  1  0
 12 13  1  0
 13 14  1  0
 14 15  2  0
 15 16  1  0
 15 17  1  0
 17 18  1  0
 18 19  1  0
 19 20  1  0
  6 21  2  0
 21  2  1  0
 16  8  1  0
 16 12  2  0
 20 14  1  0
  1 22  1  0
  1 23  1  0
  1 24  1  0
  3 25  1  0
  4 26  1  0
  5 27  1  0
  9 28  1  0
 10 29  1  0
 17 30  1  0
 17 31  1  0
 18 32  1  0
 18 33  1  0
 19 34  1  0
 19 35  1  0
 20 36  1  0
 20 37  1  0
 21 38  1  0
M  END
>  <smiles>  (9) 
Cc1cccc(N=c2[nH]cnc3sc4c(c23)CCCC4)c1

>  <score_type>  (9) 
oracle

>  <origin>  (9) 
adgpu

>  <m_score__min__energy>  (9) 
-7.8799999999999999

>  <m_primary>  (9) 
energy

$$$$
9:0
     RDKit          3D

 49 52  0  0  0  0  0  0  0  0999 V2000
   -3.8610   24.4710  -30.8190 O   0  0  0  0  0  0  0  0  0  0  0  0
   -4.3440   23.3770  -30.4160 C   0  0  0  0  0  0  0  0  0  0  0  0
   -3.6370   22.6130  -29.4180 N   0  0  0  0  0  0  0  0  0  0  0  0
   -2.3430   22.9830  -28.9190 C   0  0  0  0  0  0  0  0  0  0  0  0
   -1.4590   21.9830  -28.4830 C   0  0  0  0  0  0  0  0  0  0  0  0
   -0.2000   22.3230  -27.9800 C   0  0  0  0  0  0  0  0  0  0  0  0
    0.2050   23.6660  -27.9360 C   0  0  0  0  0  0  0  0  0  0  0  0
    1.7750   24.0940  -27.2540 S   0  0  0  0  0  0  0  0  0  0  0  0
    2.3310   25.3090  -27.9430 O   0  0  0  0  0  0  0  0  0  0  0  0
    2.7350   22.9570  -27.4690 O   0  0  0  0  0  0  0  0  0  0  0  0
    1.6200   24.3540  -25.5660 O   0  0  0  0  0  0  0  0  0  0  0  0
    0.7820   25.3060  -24.9690 C   0  0  0  0  0  0  0  0  0  0  0  0
    1.3630   26.2510  -24.1070 C   0  0  0  0  0  0  0  0  0  0  0  0
    0.5750   27.2250  -23.4800 C   0  0  0  0  0  0  0  0  0  0  0  0
    1.1460   28.1240  -22.6370 F   0  0  0  0  0  0  0  0  0  0  0  0
   -0.8030   27.2690  -23.7250 C   0  0  0  0  0  0  0  0  0  0  0  0
   -1.3890   26.3430  -24.5920 C   0  0  0  0  0  0  0  0  0  0  0  0
   -2.7230   26.3940  -24.8360 F   0  0  0  0  0  0  0  0  0  0  0  0
   -0.6030   25.3680  -25.2150 C   0  0  0  0  0  0  0  0  0  0  0  0
   -0.6600   24.6630  -28.4110 C   0  0  0  0  0  0  0  0  0  0  0  0
   -1.9280   24.3250  -28.8970 C   0  0  0  0  0  0  0  0  0  0  0  0
   -5.6070   22.9210  -30.9500 N   0  0  0  0  0  0  0  0  0  0  0  0
   -6.8420   23.6740  -30.6580 C   0  0  0  0  0  0  0  0  0  0  0  0
   -7.9630   23.3840  -31.6600 C   0  0  0  0  0  0  0  0  0  0  0  0
   -8.1130   21.9090  -31.8810 C   0  0  0  0  0  0  0  0  0  0  0  0
   -9.3800   21.3400  -32.0920 C   0  0  0  0  0  0  0  0  0  0  0  0
   -9.5000   19.9740  -32.3660 C   0  0  0  0  0  0  0  0  0  0  0  0
   -8.3560   19.1720  -32.4400 C   0  0  0  0  0  0  0  0  0  0  0  0
   -7.0910   19.7370  -32.2480 C   0  0  0  0  0  0  0  0  0  0  0  0
   -6.9650   21.1090  -31.9620 C   0  0  0  0  0  0  0  0  0  0  0  0
   -5.6020   21.7380  -31.8340 C   0  0  0  0  0  0  0  0  0  0  0  0
   -4.1040   21.7970  -28.9660 H   0  0  0  0  0  0  0  0  0  0  0  0
   -1.7590   20.9261  -28.5376 H   0  0  0  0  0  0  0  0  0  0  0  0
    0.4761   21.5348  -27.6172 H   0  0  0  0  0  0  0  0  0  0  0  0
    2.4471   26.2259  -23.9226 H   0  0  0  0  0  0  0  0  0  0  0  0
   -1.4244   28.0328  -23.2347 H   0  0  0  0  0  0  0  0  0  0  0  0
   -1.0695   24.6456  -25.9010 H   0  0  0  0  0  0  0  0  0  0  0  0
   -0.3401   25.7154  -28.4014 H   0  0  0  0  0  0  0  0  0  0  0  0
   -2.6024   25.1131  -29.2632 H   0  0  0  0  0  0  0  0  0  0  0  0
   -7.1908   23.4008  -29.6512 H   0  0  0  0  0  0  0  0  0  0  0  0
   -6.6022   24.7452  -30.7292 H   0  0  0  0  0  0  0  0  0  0  0  0
   -8.9087   23.7879  -31.2695 H   0  0  0  0  0  0  0  0  0  0  0  0
   -7.7096   23.8596  -32.6190 H   0  0  0  0  0  0  0  0  0  0  0  0
  -10.2799   21.9706  -32.0415 H   0  0  0  0  0  0  0  0  0  0  0  0
  -10.4940   19.5299  -32.5234 H   0  0  0  0  0  0  0  0  0  0  0  0
   -8.4515   18.0963  -32.6493 H   0  0  0  0  0  0  0  0  0  0  0  0
   -6.1922   19.1071  -32.3208 H   0  0  0  0  0  0  0  0  0  0  0  0
   -4.9064   20.9922  -31.4217 H   0  0  0  0  0  0  0  0  0  0  0  0
   -5.2912   22.0699  -32.8356 H   0  0  0  0  0  0  0  0  0  0  0  0
  1  2  2  0
  2  3  1  0
  3  4  1  0
  4  5  2  0
  5  6  1  0
  6  7  2  0
  7  8  1  0
  8  9  2  0
  8 10  2  0
  8 11  1  0
 11 12  1  0
 12 13  2  0
 13 14  1  0
 14 15  1  0
 14 16  2  0
 16 17  1  0
 17 18  1  0
 17 19  2  0
  7 20  1  0
 20 21  2  0
  2 22  1  0
 22 23  1  0
 23 24  1  0
 24 25  1  0
 25 26  2  0
 26 27  1  0
 27 28  2  0
 28 29  1  0
 29 30  2  0
 30 31  1  0
 21  4  1  0
 31 22  1  0
 19 12  1  0
 30 25  1  0
  3 32  1  0
  5 33  1  0
  6 34  1  0
 13 35  1  0
 16 36  1  0
 19 37  1  0
 20 38  1  0
 21 39  1  0
 23 40  1  0
 23 41  1  0
 24 42  1  0
 24 43  1  0
 26 44  1  0
 27 45  1  0
 28 46  1  0
 29 47  1  0
 31 48  1  0
 31 49  1  0
M  END
>  <UniqueID>  (10) 
9

>  <SMILES>  (10) 
O=C(Nc1ccc(S(=O)(=O)Oc2cc(F)cc(F)c2)cc1)N1CCc2ccccc2C1

>  <Energy>  (10) 
62.97086681793487

>  <Genealogy>  (10) 
O=C(Nc1ccc(S(=O)(=O)Oc2cc(F)cc(F)c2)cc1)N1CCc2ccccc2C1 (3D coordinates assigned)
O=C(Nc1ccc(S(=O)(=O)Oc2cc(F)cc(F)c2)cc1)N1CCc2ccccc2C1 (nonaromatic ring conformer: 62.97086681793487 kcal/mol)

>  <smiles>  (10) 
O=C(Nc1ccc(S(=O)(=O)Oc2cc(F)cc(F)c2)cc1)N1CCc2ccccc2C1

>  <score_type>  (10) 
oracle

>  <origin>  (10) 
adgpu

>  <m_score__min__energy>  (10) 
-9.0600000000000005

>  <m_primary>  (10) 
energy

$$$$
10:0
     RDKit          3D

 49 52  0  0  0  0  0  0  0  0999 V2000
   -4.3200   18.9070  -33.8150 C   0  0  0  0  0  0  0  0  0  0  0  0
   -5.7480   18.6560  -33.4520 C   0  0  0  0  0  0  0  0  0  0  0  0
   -6.3990   17.5120  -33.7410 N   0  0  0  0  0  0  0  0  0  0  0  0
   -7.6090   17.6310  -33.2750 O   0  0  0  0  0  0  0  0  0  0  0  0
   -7.7810   18.7920  -32.6840 C   0  0  0  0  0  0  0  0  0  0  0  0
   -9.0580   19.2200  -32.0380 C   0  0  0  0  0  0  0  0  0  0  0  0
   -6.6000   19.5090  -32.7720 C   0  0  0  0  0  0  0  0  0  0  0  0
   -6.3140   20.8570  -32.2390 C   0  0  0  0  0  0  0  0  0  0  0  0
   -5.1870   21.5680  -32.6800 C   0  0  0  0  0  0  0  0  0  0  0  0
   -4.8840   22.8180  -32.1320 C   0  0  0  0  0  0  0  0  0  0  0  0
   -5.7070   23.3740  -31.1440 C   0  0  0  0  0  0  0  0  0  0  0  0
   -5.2180   24.8690  -30.3490 S   0  0  0  0  0  0  0  0  0  0  0  0
   -5.6230   24.8650  -28.9010 O   0  0  0  0  0  0  0  0  0  0  0  0
   -5.8770   26.0270  -31.0420 O   0  0  0  0  0  0  0  0  0  0  0  0
   -3.4940   25.0320  -30.4600 N   0  0  0  0  0  0  0  0  0  0  0  0
   -2.5670   24.2530  -29.6920 C   0  0  0  0  0  0  0  0  0  0  0  0
   -1.9290   24.7720  -28.5520 C   0  0  0  0  0  0  0  0  0  0  0  0
   -1.1190   23.9520  -27.7630 C   0  0  0  0  0  0  0  0  0  0  0  0
   -0.9280   22.6040  -28.1080 C   0  0  0  0  0  0  0  0  0  0  0  0
   -0.1540   21.7470  -27.3150 O   0  0  0  0  0  0  0  0  0  0  0  0
   -0.1110   20.3490  -27.4490 C   0  0  0  0  0  0  0  0  0  0  0  0
    1.0090   19.6870  -27.9870 C   0  0  0  0  0  0  0  0  0  0  0  0
    1.0220   18.2920  -28.0850 C   0  0  0  0  0  0  0  0  0  0  0  0
   -0.0760   17.5490  -27.6420 C   0  0  0  0  0  0  0  0  0  0  0  0
   -1.1840   18.2000  -27.0930 C   0  0  0  0  0  0  0  0  0  0  0  0
   -1.1980   19.5950  -26.9910 C   0  0  0  0  0  0  0  0  0  0  0  0
   -1.4990   22.1100  -29.2870 C   0  0  0  0  0  0  0  0  0  0  0  0
   -2.3160   22.9280  -30.0730 C   0  0  0  0  0  0  0  0  0  0  0  0
   -6.8510   22.6810  -30.7260 C   0  0  0  0  0  0  0  0  0  0  0  0
   -7.1490   21.4280  -31.2670 C   0  0  0  0  0  0  0  0  0  0  0  0
   -3.7216   19.0122  -32.8980 H   0  0  0  0  0  0  0  0  0  0  0  0
   -3.9382   18.0622  -34.4071 H   0  0  0  0  0  0  0  0  0  0  0  0
   -4.2492   19.8314  -34.4071 H   0  0  0  0  0  0  0  0  0  0  0  0
   -8.9462   19.1825  -30.9443 H   0  0  0  0  0  0  0  0  0  0  0  0
   -9.2987   20.2479  -32.3470 H   0  0  0  0  0  0  0  0  0  0  0  0
   -9.8695   18.5447  -32.3470 H   0  0  0  0  0  0  0  0  0  0  0  0
   -4.5397   21.1401  -33.4597 H   0  0  0  0  0  0  0  0  0  0  0  0
   -3.9959   23.3671  -32.4780 H   0  0  0  0  0  0  0  0  0  0  0  0
   -2.0683   25.8287  -28.2800 H   0  0  0  0  0  0  0  0  0  0  0  0
   -0.6290   24.3635  -26.8683 H   0  0  0  0  0  0  0  0  0  0  0  0
    1.8766   20.2689  -28.3314 H   0  0  0  0  0  0  0  0  0  0  0  0
    1.8969   17.7791  -28.5110 H   0  0  0  0  0  0  0  0  0  0  0  0
   -0.0679   16.4522  -27.7255 H   0  0  0  0  0  0  0  0  0  0  0  0
   -2.0462   17.6147  -26.7407 H   0  0  0  0  0  0  0  0  0  0  0  0
   -2.0679   20.1024  -26.5485 H   0  0  0  0  0  0  0  0  0  0  0  0
   -1.3037   21.0727  -29.5965 H   0  0  0  0  0  0  0  0  0  0  0  0
   -2.7641   22.5295  -30.9952 H   0  0  0  0  0  0  0  0  0  0  0  0
   -7.5158   23.1246  -29.9702 H   0  0  0  0  0  0  0  0  0  0  0  0
   -8.0442   20.8856  -30.9287 H   0  0  0  0  0  0  0  0  0  0  0  0
  1  2  1  0
  2  3  2  0
  3  4  1  0
  4  5  1  0
  5  6  1  0
  5  7  2  0
  7  8  1  0
  8  9  2  0
  9 10  1  0
 10 11  2  0
 11 12  1  0
 12 13  2  0
 12 14  2  0
 12 15  1  0
 15 16  1  0
 16 17  2  0
 17 18  1  0
 18 19  2  0
 19 20  1  0
 20 21  1  0
 21 22  2  0
 22 23  1  0
 23 24  2  0
 24 25  1  0
 25 26  2  0
 19 27  1  0
 27 28  2  0
 11 29  1  0
 29 30  2  0
  7  2  1  0
 30  8  1  0
 28 16  1  0
 26 21  1  0
  1 31  1  0
  1 32  1  0
  1 33  1  0
  6 34  1  0
  6 35  1  0
  6 36  1  0
  9 37  1  0
 10 38  1  0
 17 39  1  0
 18 40  1  0
 22 41  1  0
 23 42  1  0
 24 43  1  0
 25 44  1  0
 26 45  1  0
 27 46  1  0
 28 47  1  0
 29 48  1  0
 30 49  1  0
M  CHG  1  15  -1
M  END
>  <UniqueID>  (11) 
10

>  <SMILES>  (11) 
Cc1noc(C)c1-c1ccc(S(=O)(=O)[N-]c2ccc(Oc3ccccc3)cc2)cc1

>  <Energy>  (11) 
95.92513179746105

>  <Genealogy>  (11) 
Cc1noc(C)c1-c1ccc(S(=O)(=O)[N-]c2ccc(Oc3ccccc3)cc2)cc1 (protonated)
Cc1noc(C)c1-c1ccc(S(=O)(=O)[N-]c2ccc(Oc3ccccc3)cc2)cc1 (3D coordinates assigned)
Cc1noc(C)c1-c1ccc(S(=O)(=O)[N-]c2ccc(Oc3ccccc3)cc2)cc1 (optimized conformer: 95.92513179746105 kcal/mol)

>  <smiles>  (11) 
Cc1noc(C)c1-c1ccc(S(=O)(=O)Nc2ccc(Oc3ccccc3)cc2)cc1

>  <score_type>  (11) 
oracle

>  <origin>  (11) 
adgpu

>  <m_score__min__energy>  (11) 
-11.220000000000001

>  <m_primary>  (11) 
energy

$$$$
11:0
     RDKit          3D

 49 52  0  0  0  0  0  0  0  0999 V2000
   -5.3270   15.0140  -33.8350 C   0  0  0  0  0  0  0  0  0  0  0  0
   -5.7520   16.4420  -33.8850 C   0  0  0  0  0  0  0  0  0  0  0  0
   -6.5320   17.0270  -32.9570 N   0  0  0  0  0  0  0  0  0  0  0  0
   -6.6470   18.2770  -33.4560 C   0  0  0  0  0  0  0  0  0  0  0  0
   -7.4190   19.3560  -32.8030 C   0  0  0  0  0  0  0  0  0  0  0  0
   -8.8200   19.2770  -32.7150 C   0  0  0  0  0  0  0  0  0  0  0  0
   -9.5480   20.3040  -32.1090 C   0  0  0  0  0  0  0  0  0  0  0  0
   -8.8890   21.4160  -31.5810 C   0  0  0  0  0  0  0  0  0  0  0  0
   -7.4900   21.5090  -31.6480 C   0  0  0  0  0  0  0  0  0  0  0  0
   -6.8120   22.6640  -31.1200 N   0  0  0  0  0  0  0  0  0  0  0  0
   -5.8650   23.3980  -31.9740 C   0  0  0  0  0  0  0  0  0  0  0  0
   -4.9900   24.3570  -31.1550 C   0  0  0  0  0  0  0  0  0  0  0  0
   -4.5750   23.7150  -29.8990 N   0  0  0  0  0  0  0  0  0  0  0  0
   -3.2310   23.8810  -29.4170 C   0  0  0  0  0  0  0  0  0  0  0  0
   -2.5820   24.9240  -29.6970 O   0  0  0  0  0  0  0  0  0  0  0  0
   -2.5960   22.8470  -28.5760 C   0  0  0  0  0  0  0  0  0  0  0  0
   -2.6180   21.5200  -29.0330 C   0  0  0  0  0  0  0  0  0  0  0  0
   -1.9770   20.5120  -28.3120 C   0  0  0  0  0  0  0  0  0  0  0  0
   -1.3080   20.8190  -27.1290 C   0  0  0  0  0  0  0  0  0  0  0  0
   -1.2930   22.1300  -26.6490 C   0  0  0  0  0  0  0  0  0  0  0  0
   -1.9600   23.1600  -27.3440 C   0  0  0  0  0  0  0  0  0  0  0  0
   -1.9500   24.5670  -26.7730 C   0  0  0  0  0  0  0  0  0  0  0  0
   -3.2370   25.0490  -26.6120 F   0  0  0  0  0  0  0  0  0  0  0  0
   -1.3270   24.5660  -25.5400 F   0  0  0  0  0  0  0  0  0  0  0  0
   -1.2820   25.4360  -27.6190 F   0  0  0  0  0  0  0  0  0  0  0  0
   -5.5730   23.0490  -29.0450 C   0  0  0  0  0  0  0  0  0  0  0  0
   -6.9530   23.0360  -29.7070 C   0  0  0  0  0  0  0  0  0  0  0  0
   -6.7630   20.4770  -32.2670 C   0  0  0  0  0  0  0  0  0  0  0  0
   -5.9800   18.4280  -34.6190 N   0  0  0  0  0  0  0  0  0  0  0  0
   -5.4430   17.2700  -34.8500 O   0  0  0  0  0  0  0  0  0  0  0  0
   -5.2324   14.6961  -32.7862 H   0  0  0  0  0  0  0  0  0  0  0  0
   -6.0783   14.3899  -34.3410 H   0  0  0  0  0  0  0  0  0  0  0  0
   -4.3567   14.9023  -34.3410 H   0  0  0  0  0  0  0  0  0  0  0  0
   -9.3456   18.4022  -33.1254 H   0  0  0  0  0  0  0  0  0  0  0  0
  -10.6442   20.2363  -32.0476 H   0  0  0  0  0  0  0  0  0  0  0  0
   -9.4691   22.2233  -31.1101 H   0  0  0  0  0  0  0  0  0  0  0  0
   -5.2158   22.6753  -32.4899 H   0  0  0  0  0  0  0  0  0  0  0  0
   -6.4435   23.9927  -32.6962 H   0  0  0  0  0  0  0  0  0  0  0  0
   -4.0971   24.6237  -31.7395 H   0  0  0  0  0  0  0  0  0  0  0  0
   -5.5693   25.2626  -30.9220 H   0  0  0  0  0  0  0  0  0  0  0  0
   -3.1446   21.2729  -29.9666 H   0  0  0  0  0  0  0  0  0  0  0  0
   -1.9998   19.4748  -28.6776 H   0  0  0  0  0  0  0  0  0  0  0  0
   -0.7896   20.0253  -26.5710 H   0  0  0  0  0  0  0  0  0  0  0  0
   -0.7548   22.3621  -25.7182 H   0  0  0  0  0  0  0  0  0  0  0  0
   -5.2535   22.0123  -28.8625 H   0  0  0  0  0  0  0  0  0  0  0  0
   -5.6473   23.6061  -28.0994 H   0  0  0  0  0  0  0  0  0  0  0  0
   -7.5977   22.3047  -29.1975 H   0  0  0  0  0  0  0  0  0  0  0  0
   -7.4054   24.0360  -29.6335 H   0  0  0  0  0  0  0  0  0  0  0  0
   -5.6673   20.5480  -32.3325 H   0  0  0  0  0  0  0  0  0  0  0  0
  1  2  1  0
  2  3  2  0
  3  4  1  0
  4  5  1  0
  5  6  2  0
  6  7  1  0
  7  8  2  0
  8  9  1  0
  9 10  1  0
 10 11  1  0
 11 12  1  0
 12 13  1  0
 13 14  1  0
 14 15  2  0
 14 16  1  0
 16 17  2  0
 17 18  1  0
 18 19  2  0
 19 20  1  0
 20 21  2  0
 21 22  1  0
 22 23  1  0
 22 24  1  0
 22 25  1  0
 13 26  1  0
 26 27  1  0
  9 28  2  0
  4 29  2  0
 29 30  1  0
 30  2  1  0
 28  5  1  0
 27 10  1  0
 21 16  1  0
  1 31  1  0
  1 32  1  0
  1 33  1  0
  6 34  1  0
  7 35  1  0
  8 36  1  0
 11 37  1  0
 11 38  1  0
 12 39  1  0
 12 40  1  0
 17 41  1  0
 18 42  1  0
 19 43  1  0
 20 44  1  0
 26 45  1  0
 26 46  1  0
 27 47  1  0
 27 48  1  0
 28 49  1  0
M  END
>  <UniqueID>  (12) 
11

>  <SMILES>  (12) 
Cc1nc(-c2cccc(N3CCN(C(=O)c4ccccc4C(F)(F)F)CC3)c2)no1

>  <Energy>  (12) 
97.56742558604034

>  <Genealogy>  (12) 
Cc1nc(-c2cccc(N3CCN(C(=O)c4ccccc4C(F)(F)F)CC3)c2)no1 (3D coordinates assigned)
Cc1nc(-c2cccc(N3CCN(C(=O)c4ccccc4C(F)(F)F)CC3)c2)no1 (nonaromatic ring conformer: 97.56742558604034 kcal/mol)

>  <smiles>  (12) 
Cc1nc(-c2cccc(N3CCN(C(=O)c4ccccc4C(F)(F)F)CC3)c2)no1

>  <score_type>  (12) 
oracle

>  <origin>  (12) 
adgpu

>  <m_score__min__energy>  (12) 
-9.2799999999999994

>  <m_primary>  (12) 
energy

$$$$
12:0
     RDKit          3D

 23 24  0  0  0  0  0  0  0  0999 V2000
   -2.0860   22.6260  -30.1260 H   0  0  0  0  0  0  0  0  0  0  0  0
   -2.3990   23.6090  -29.9650 N   0  0  0  0  0  0  0  0  0  0  0  0
   -3.5180   24.0430  -30.4490 C   0  0  0  0  0  0  0  0  0  0  0  0
   -4.3560   23.2880  -31.1840 N   0  0  0  0  0  0  0  0  0  0  0  0
   -5.3450   24.1720  -31.4380 C   0  0  0  0  0  0  0  0  0  0  0  0
   -6.8010   23.7730  -32.3980 S   0  0  0  0  0  0  0  0  0  0  0  0
   -7.4830   22.6690  -31.1190 C   0  0  0  0  0  0  0  0  0  0  0  0
   -6.7964   22.6346  -30.2602 H   0  0  0  0  0  0  0  0  0  0  0  0
   -8.4619   23.0487  -30.7909 H   0  0  0  0  0  0  0  0  0  0  0  0
   -7.6460   21.2880  -31.6850 C   0  0  0  0  0  0  0  0  0  0  0  0
   -8.6960   20.4620  -31.2480 C   0  0  0  0  0  0  0  0  0  0  0  0
   -9.4171   20.8371  -30.5069 H   0  0  0  0  0  0  0  0  0  0  0  0
   -8.8260   19.1650  -31.7530 C   0  0  0  0  0  0  0  0  0  0  0  0
   -9.6538   18.5247  -31.4142 H   0  0  0  0  0  0  0  0  0  0  0  0
   -7.9070   18.6800  -32.6870 C   0  0  0  0  0  0  0  0  0  0  0  0
   -8.0139   17.6601  -33.0849 H   0  0  0  0  0  0  0  0  0  0  0  0
   -6.8520   19.4900  -33.1160 C   0  0  0  0  0  0  0  0  0  0  0  0
   -5.9550   19.0160  -34.0150 F   0  0  0  0  0  0  0  0  0  0  0  0
   -6.7170   20.7890  -32.6130 C   0  0  0  0  0  0  0  0  0  0  0  0
   -5.8806   21.4214  -32.9455 H   0  0  0  0  0  0  0  0  0  0  0  0
   -5.1250   25.3870  -30.8960 N   0  0  0  0  0  0  0  0  0  0  0  0
   -3.9660   25.2940  -30.2710 N   0  0  0  0  0  0  0  0  0  0  0  0
   -3.5040   26.0670  -29.7440 H   0  0  0  0  0  0  0  0  0  0  0  0
  1  2  1  0
  2  3  2  0
  3  4  1  0
  4  5  2  0
  5  6  1  0
  6  7  1  0
  7  8  1  0
  7  9  1  0
  7 10  1  0
 10 11  2  0
 11 12  1  0
 11 13  1  0
 13 14  1  0
 13 15  2  0
 15 16  1  0
 15 17  1  0
 17 18  1  0
 17 19  2  0
 19 20  1  0
  5 21  1  0
 21 22  1  0
 22 23  1  0
 22  3  1  0
 19 10  1  0
M  CHG  1  21  -1
M  END
>  <UniqueID>  (13) 
12

>  <SMILES>  (13) 
[H]/N=c1\nc(SCc2cccc(F)c2)[n-][nH]1

>  <Energy>  (13) 
52.26331074992884

>  <Genealogy>  (13) 
N=c1nc(SCc2cccc(F)c2)[n-][nH]1 (protonated)
[H]/N=c1\nc(SCc2cccc(F)c2)[n-][nH]1 (cis-trans isomerization)
[H]/N=c1\nc(SCc2cccc(F)c2)[n-][nH]1 (3D coordinates assigned)
[H]/N=c1\nc(SCc2cccc(F)c2)[n-][nH]1 (optimized conformer: 52.26331074992884 kcal/mol)

>  <smiles>  (13) 
N=c1nc(SCc2cccc(F)c2)[nH][nH]1

>  <score_type>  (13) 
oracle

>  <origin>  (13) 
adgpu

>  <m_score__min__energy>  (13) 
-7.6600000000000001

>  <m_primary>  (13) 
energy

$$$$
13:0
     RDKit          3D

 13 13  0  0  0  0  0  0  0  0999 V2000
   -3.4750   25.2910  -30.4730 O   0  0  0  0  0  0  0  0  0  0  0  0
   -4.7240   24.6780  -30.4860 C   0  0  0  0  0  0  0  0  0  0  0  0
   -5.8490   25.3920  -30.0590 C   0  0  0  0  0  0  0  0  0  0  0  0
   -7.1080   24.7870  -30.0680 C   0  0  0  0  0  0  0  0  0  0  0  0
   -7.2470   23.4670  -30.5040 C   0  0  0  0  0  0  0  0  0  0  0  0
   -6.1250   22.7440  -30.9340 C   0  0  0  0  0  0  0  0  0  0  0  0
   -6.2620   21.4270  -31.3700 O   0  0  0  0  0  0  0  0  0  0  0  0
   -4.8590   23.3520  -30.9250 C   0  0  0  0  0  0  0  0  0  0  0  0
   -3.4460   22.4530  -31.4620 Cl  0  0  0  0  0  0  0  0  0  0  0  0
   -5.7418   26.4315  -29.7156 H   0  0  0  0  0  0  0  0  0  0  0  0
   -7.9908   25.3504  -29.7315 H   0  0  0  0  0  0  0  0  0  0  0  0
   -8.2398   22.9933  -30.5100 H   0  0  0  0  0  0  0  0  0  0  0  0
   -5.4750   20.9070  -31.7410 H   0  0  0  0  0  0  0  0  0  0  0  0
  1  2  1  0
  2  3  2  0
  3  4  1  0
  4  5  2  0
  5  6  1  0
  6  7  1  0
  6  8  2  0
  8  9  1  0
  8  2  1  0
  3 10  1  0
  4 11  1  0
  5 12  1  0
  7 13  1  0
M  CHG  1   1  -1
M  END
>  <UniqueID>  (14) 
13

>  <SMILES>  (14) 
[O-]c1cccc(O)c1Cl

>  <Energy>  (14) 
12.188333792715623

>  <Genealogy>  (14) 
[O-]c1cccc(O)c1Cl (protonated)
[O-]c1cccc(O)c1Cl (3D coordinates assigned)
[O-]c1cccc(O)c1Cl (optimized conformer: 12.188333792715623 kcal/mol)

>  <smiles>  (14) 
Oc1cccc(O)c1Cl

>  <score_type>  (14) 
oracle

>  <origin>  (14) 
adgpu

>  <m_score__min__energy>  (14) 
-6.7800000000000002

>  <m_primary>  (14) 
energy

$$$$
14:0
     RDKit          3D

 34 36  0  0  1  0  0  0  0  0999 V2000
   -6.5340   19.5160  -33.3150 Cl  0  0  0  0  0  0  0  0  0  0  0  0
   -6.8520   21.0820  -32.5510 C   0  0  0  0  0  0  0  0  0  0  0  0
   -8.1540   21.3740  -32.2070 C   0  0  0  0  0  0  0  0  0  0  0  0
   -8.4220   22.5900  -31.6110 C   0  0  0  0  0  0  0  0  0  0  0  0
   -7.3890   23.4690  -31.3780 C   0  0  0  0  0  0  0  0  0  0  0  0
   -6.0750   23.1940  -31.7160 C   0  0  0  0  0  0  0  0  0  0  0  0
   -5.0160   24.1330  -31.4590 N   0  0  0  0  0  0  0  0  0  0  0  0
   -4.3830   24.0610  -30.3380 C   0  0  0  0  0  0  0  0  0  0  0  0
   -4.7320   23.0950  -29.4190 C   0  0  0  0  0  0  0  0  0  0  0  0
   -4.0620   22.9950  -28.1970 C   0  0  0  0  0  0  0  0  0  0  0  0
   -3.0760   23.8860  -27.9830 N   0  0  0  0  0  0  0  0  0  0  0  0
   -2.7500   24.8230  -28.8940 C   0  0  0  0  0  0  0  0  0  0  0  0
   -1.7730   25.6210  -28.5540 N   0  0  0  0  0  0  0  0  0  0  0  0
   -1.1170   25.4760  -27.2840 C   0  0  0  0  0  0  0  0  0  0  0  0
   -1.7040   26.1610  -26.2240 C   0  0  0  0  0  0  0  0  0  0  0  0
   -1.1570   26.0940  -24.9590 C   0  0  0  0  0  0  0  0  0  0  0  0
   -0.0200   25.3240  -24.8100 C   0  0  0  0  0  0  0  0  0  0  0  0
    0.5700   24.6400  -25.8510 C   0  0  0  0  0  0  0  0  0  0  0  0
    0.0180   24.7090  -27.1280 C   0  0  0  0  0  0  0  0  0  0  0  0
   -3.3880   24.9250  -30.0720 N   0  0  0  0  0  0  0  0  0  0  0  0
   -5.8050   21.9660  -32.3180 C   0  0  0  0  0  0  0  0  0  0  0  0
   -8.9621   20.6539  -32.4030 H   0  0  0  0  0  0  0  0  0  0  0  0
   -9.4510   22.8537  -31.3252 H   0  0  0  0  0  0  0  0  0  0  0  0
   -7.6178   24.4337  -30.9016 H   0  0  0  0  0  0  0  0  0  0  0  0
   -5.5478   22.3943  -29.6504 H   0  0  0  0  0  0  0  0  0  0  0  0
   -4.3256   22.2306  -27.4512 H   0  0  0  0  0  0  0  0  0  0  0  0
   -2.5810   23.7980  -27.0560 H   0  0  0  0  0  0  0  0  0  0  0  0
   -2.6104   26.7600  -26.3960 H   0  0  0  0  0  0  0  0  0  0  0  0
   -1.6055   26.6289  -24.1088 H   0  0  0  0  0  0  0  0  0  0  0  0
    0.4369   25.2532  -23.8119 H   0  0  0  0  0  0  0  0  0  0  0  0
    1.4752   24.0407  -25.6737 H   0  0  0  0  0  0  0  0  0  0  0  0
    0.4689   24.1738  -27.9767 H   0  0  0  0  0  0  0  0  0  0  0  0
   -3.0960   25.6740  -30.7470 H   0  0  0  0  0  0  0  0  0  0  0  0
   -4.7769   21.7001  -32.6049 H   0  0  0  0  0  0  0  0  0  0  0  0
  1  2  1  0
  2  3  2  0
  3  4  1  0
  4  5  2  0
  5  6  1  0
  6  7  1  0
  7  8  2  0
  8  9  1  0
  9 10  2  0
 10 11  1  0
 11 12  1  0
 12 13  2  0
 13 14  1  0
 14 15  2  0
 15 16  1  0
 16 17  2  0
 17 18  1  0
 18 19  2  0
 12 20  1  0
  6 21  2  0
 21  2  1  0
 20  8  1  0
 19 14  1  0
  3 22  1  0
  4 23  1  0
  5 24  1  0
  9 25  1  0
 10 26  1  0
 11 27  1  0
 15 28  1  0
 16 29  1  0
 17 30  1  0
 18 31  1  0
 19 32  1  0
 20 33  1  0
 21 34  1  0
M  END
>  <smiles>  (15) 
Clc1cccc(N=c2cc[nH]c(=Nc3ccccc3)[nH]2)c1

>  <score_type>  (15) 
oracle

>  <origin>  (15) 
adgpu

>  <m_score__min__energy>  (15) 
-8.6899999999999995

>  <m_primary>  (15) 
energy

$$$$
15:0
     RDKit          3D

 24 26  0  0  0  0  0  0  0  0999 V2000
   -9.2370   18.5550  -31.9730 O   0  0  0  0  0  0  0  0  0  0  0  0
   -8.1850   19.1750  -31.6660 C   0  0  0  0  0  0  0  0  0  0  0  0
   -8.1490   20.6430  -31.6630 C   0  0  0  0  0  0  0  0  0  0  0  0
   -9.1960   21.4420  -32.1170 C   0  0  0  0  0  0  0  0  0  0  0  0
   -8.7290   23.0500  -31.9670 S   0  0  0  0  0  0  0  0  0  0  0  0
   -7.2160   22.7490  -31.2980 C   0  0  0  0  0  0  0  0  0  0  0  0
   -6.2190   23.7850  -30.9850 C   0  0  0  0  0  0  0  0  0  0  0  0
   -6.5490   24.9630  -30.4260 N   0  0  0  0  0  0  0  0  0  0  0  0
   -5.3840   25.6380  -30.3640 C   0  0  0  0  0  0  0  0  0  0  0  0
   -4.3310   24.9470  -30.8450 N   0  0  0  0  0  0  0  0  0  0  0  0
   -4.8580   23.7730  -31.2350 C   0  0  0  0  0  0  0  0  0  0  0  0
   -4.0350   22.6530  -31.7230 C   0  0  0  0  0  0  0  0  0  0  0  0
   -4.2820   21.9150  -32.8650 C   0  0  0  0  0  0  0  0  0  0  0  0
   -3.2560   21.0000  -32.9470 C   0  0  0  0  0  0  0  0  0  0  0  0
   -2.4420   21.2380  -31.8580 C   0  0  0  0  0  0  0  0  0  0  0  0
   -2.9310   22.2300  -31.1500 O   0  0  0  0  0  0  0  0  0  0  0  0
   -7.0380   21.3720  -31.2150 C   0  0  0  0  0  0  0  0  0  0  0  0
   -7.2808   18.6094  -31.3964 H   0  0  0  0  0  0  0  0  0  0  0  0
  -10.1604   21.0832  -32.5059 H   0  0  0  0  0  0  0  0  0  0  0  0
   -5.3002   26.6572  -29.9589 H   0  0  0  0  0  0  0  0  0  0  0  0
   -5.1234   22.0338  -33.5635 H   0  0  0  0  0  0  0  0  0  0  0  0
   -3.1139   20.2341  -33.7236 H   0  0  0  0  0  0  0  0  0  0  0  0
   -1.5236   20.6815  -31.6195 H   0  0  0  0  0  0  0  0  0  0  0  0
   -6.1184   20.9022  -30.8361 H   0  0  0  0  0  0  0  0  0  0  0  0
  1  2  2  0
  2  3  1  0
  3  4  2  0
  4  5  1  0
  5  6  1  0
  6  7  1  0
  7  8  1  0
  8  9  1  0
  9 10  2  0
 10 11  1  0
 11 12  1  0
 12 13  2  0
 13 14  1  0
 14 15  2  0
 15 16  1  0
  6 17  2  0
 17  3  1  0
 11  7  2  0
 16 12  1  0
  2 18  1  0
  4 19  1  0
  9 20  1  0
 13 21  1  0
 14 22  1  0
 15 23  1  0
 17 24  1  0
M  CHG  1   8  -1
M  END
>  <UniqueID>  (16) 
14

>  <SMILES>  (16) 
O=Cc1csc(-c2[n-]cnc2-c2ccco2)c1

>  <Energy>  (16) 
108.88865500627726

>  <Genealogy>  (16) 
O=Cc1csc(-c2[n-]cnc2-c2ccco2)c1 (protonated)
O=Cc1csc(-c2[n-]cnc2-c2ccco2)c1 (3D coordinates assigned)
O=Cc1csc(-c2[n-]cnc2-c2ccco2)c1 (optimized conformer: 108.88865500627726 kcal/mol)

>  <smiles>  (16) 
O=Cc1csc(-c2[nH]cnc2-c2ccco2)c1

>  <score_type>  (16) 
oracle

>  <origin>  (16) 
adgpu

>  <m_score__min__energy>  (16) 
-7.6500000000000004

>  <m_primary>  (16) 
energy

$$$$
16:0
     RDKit          3D

 33 34  0  0  0  0  0  0  0  0999 V2000
   -5.6920   26.0350  -30.4290 O   0  0  0  0  0  0  0  0  0  0  0  0
   -4.8990   25.0980  -30.7070 C   0  0  0  0  0  0  0  0  0  0  0  0
   -5.4430   23.8110  -31.2490 C   0  0  0  0  0  0  0  0  0  0  0  0
   -6.7890   23.5370  -30.7190 N   0  0  0  0  0  0  0  0  0  0  0  0
   -7.7520   23.1840  -31.7750 C   0  0  0  0  0  0  0  0  0  0  0  0
   -7.8110   21.6910  -31.9700 C   0  0  0  0  0  0  0  0  0  0  0  0
   -8.9860   20.9780  -31.6810 C   0  0  0  0  0  0  0  0  0  0  0  0
   -9.0330   19.5920  -31.8690 C   0  0  0  0  0  0  0  0  0  0  0  0
   -7.9110   18.9130  -32.3540 C   0  0  0  0  0  0  0  0  0  0  0  0
   -7.9630   17.5720  -32.5490 F   0  0  0  0  0  0  0  0  0  0  0  0
   -6.7390   19.6160  -32.6450 C   0  0  0  0  0  0  0  0  0  0  0  0
   -6.6860   21.0000  -32.4500 C   0  0  0  0  0  0  0  0  0  0  0  0
   -3.5000   25.2050  -30.4130 N   0  0  0  0  0  0  0  0  0  0  0  0
   -2.7790   24.5580  -29.3520 C   0  0  0  0  0  0  0  0  0  0  0  0
   -1.7840   25.2150  -28.6040 C   0  0  0  0  0  0  0  0  0  0  0  0
   -1.0740   24.5230  -27.6170 C   0  0  0  0  0  0  0  0  0  0  0  0
   -1.3440   23.1750  -27.3730 C   0  0  0  0  0  0  0  0  0  0  0  0
   -2.3200   22.5110  -28.1210 C   0  0  0  0  0  0  0  0  0  0  0  0
   -2.6760   20.6630  -27.8010 Br  0  0  0  0  0  0  0  0  0  0  0  0
   -3.0310   23.2000  -29.1110 C   0  0  0  0  0  0  0  0  0  0  0  0
   -5.4958   23.8773  -32.3457 H   0  0  0  0  0  0  0  0  0  0  0  0
   -4.7744   22.9933  -30.9418 H   0  0  0  0  0  0  0  0  0  0  0  0
   -7.1290   24.4220  -30.2740 H   0  0  0  0  0  0  0  0  0  0  0  0
   -8.7495   23.5499  -31.4901 H   0  0  0  0  0  0  0  0  0  0  0  0
   -7.4274   23.6495  -32.7173 H   0  0  0  0  0  0  0  0  0  0  0  0
   -9.8722   21.5107  -31.3057 H   0  0  0  0  0  0  0  0  0  0  0  0
   -9.9531   19.0364  -31.6351 H   0  0  0  0  0  0  0  0  0  0  0  0
   -5.8575   19.0807  -33.0277 H   0  0  0  0  0  0  0  0  0  0  0  0
   -5.7597   21.5496  -32.6734 H   0  0  0  0  0  0  0  0  0  0  0  0
   -1.5641   26.2755  -28.7960 H   0  0  0  0  0  0  0  0  0  0  0  0
   -0.3009   25.0423  -27.0316 H   0  0  0  0  0  0  0  0  0  0  0  0
   -0.7883   22.6355  -26.5918 H   0  0  0  0  0  0  0  0  0  0  0  0
   -3.7926   22.6722  -29.7038 H   0  0  0  0  0  0  0  0  0  0  0  0
  1  2  2  0
  2  3  1  0
  3  4  1  0
  4  5  1  0
  5  6  1  0
  6  7  2  0
  7  8  1  0
  8  9  2  0
  9 10  1  0
  9 11  1  0
 11 12  2  0
  2 13  1  0
 13 14  1  0
 14 15  2  0
 15 16  1  0
 16 17  2  0
 17 18  1  0
 18 19  1  0
 18 20  2  0
 12  6  1  0
 20 14  1  0
  3 21  1  0
  3 22  1  0
  4 23  1  0
  5 24  1  0
  5 25  1  0
  7 26  1  0
  8 27  1  0
 11 28  1  0
 12 29  1  0
 15 30  1  0
 16 31  1  0
 17 32  1  0
 20 33  1  0
M  CHG  1  13  -1
M  END
>  <UniqueID>  (17) 
15

>  <SMILES>  (17) 
O=C(CNCc1ccc(F)cc1)[N-]c1cccc(Br)c1

>  <Energy>  (17) 
32.210450654052174

>  <Genealogy>  (17) 
O=C(CNCc1ccc(F)cc1)[N-]c1cccc(Br)c1 (protonated)
O=C(CNCc1ccc(F)cc1)[N-]c1cccc(Br)c1 (3D coordinates assigned)
O=C(CNCc1ccc(F)cc1)[N-]c1cccc(Br)c1 (optimized conformer: 32.210450654052174 kcal/mol)

>  <smiles>  (17) 
O=C(CNCc1ccc(F)cc1)Nc1cccc(Br)c1

>  <score_type>  (17) 
oracle

>  <origin>  (17) 
adgpu

>  <m_score__min__energy>  (17) 
-9.3699999999999992

>  <m_primary>  (17) 
energy

$$$$
17:0
     RDKit          3D

 45 47  0  0  0  0  0  0  0  0999 V2000
   -0.4880   25.9000  -24.1580 C   0  0  0  0  0  0  0  0  0  0  0  0
   -0.9060   24.8770  -25.1720 C   0  0  0  0  0  0  0  0  0  0  0  0
   -0.2000   23.6700  -25.2910 C   0  0  0  0  0  0  0  0  0  0  0  0
   -0.5790   22.7270  -26.2490 C   0  0  0  0  0  0  0  0  0  0  0  0
   -1.6500   22.9880  -27.1070 C   0  0  0  0  0  0  0  0  0  0  0  0
   -2.3410   24.2060  -27.0300 C   0  0  0  0  0  0  0  0  0  0  0  0
   -3.4480   24.4470  -27.9170 N   0  0  0  0  0  0  0  0  0  0  0  0
   -4.2820   23.4080  -28.4550 C   0  0  0  0  0  0  0  0  0  0  0  0
   -4.3530   22.2940  -27.8670 O   0  0  0  0  0  0  0  0  0  0  0  0
   -5.1190   23.6520  -29.6530 C   0  0  0  0  0  0  0  0  0  0  0  0
   -6.1400   22.7410  -29.9790 C   0  0  0  0  0  0  0  0  0  0  0  0
   -6.9420   22.9390  -31.1110 C   0  0  0  0  0  0  0  0  0  0  0  0
   -8.2060   21.7760  -31.5160 S   0  0  0  0  0  0  0  0  0  0  0  0
   -8.5240   20.9630  -30.2920 O   0  0  0  0  0  0  0  0  0  0  0  0
   -9.4530   22.5180  -31.9080 O   0  0  0  0  0  0  0  0  0  0  0  0
   -7.7400   20.6990  -32.8170 N   0  0  0  0  0  0  0  0  0  0  0  0
   -6.2760   20.5740  -32.9500 C   0  0  0  0  0  0  0  0  0  0  0  0
   -5.6610   19.5560  -31.9610 C   0  0  0  0  0  0  0  0  0  0  0  0
   -6.6290   18.7850  -31.2760 O   0  0  0  0  0  0  0  0  0  0  0  0
   -7.5620   18.2680  -32.1950 C   0  0  0  0  0  0  0  0  0  0  0  0
   -8.4390   19.3970  -32.7630 C   0  0  0  0  0  0  0  0  0  0  0  0
   -6.7310   24.0610  -31.9210 C   0  0  0  0  0  0  0  0  0  0  0  0
   -5.7130   24.9650  -31.6150 C   0  0  0  0  0  0  0  0  0  0  0  0
   -4.9000   24.7630  -30.4950 C   0  0  0  0  0  0  0  0  0  0  0  0
   -3.8640   25.6580  -30.2480 O   0  0  0  0  0  0  0  0  0  0  0  0
   -1.9710   25.1450  -26.0480 C   0  0  0  0  0  0  0  0  0  0  0  0
   -0.6510   25.5010  -23.1460 H   0  0  0  0  0  0  0  0  0  0  0  0
    0.5782   26.1349  -24.2922 H   0  0  0  0  0  0  0  0  0  0  0  0
   -1.0846   26.8144  -24.2922 H   0  0  0  0  0  0  0  0  0  0  0  0
    0.6539   23.4661  -24.6282 H   0  0  0  0  0  0  0  0  0  0  0  0
   -0.0324   21.7757  -26.3281 H   0  0  0  0  0  0  0  0  0  0  0  0
   -1.9533   22.2335  -27.8477 H   0  0  0  0  0  0  0  0  0  0  0  0
   -3.7290   25.4370  -28.0940 H   0  0  0  0  0  0  0  0  0  0  0  0
   -6.3108   21.8634  -29.3382 H   0  0  0  0  0  0  0  0  0  0  0  0
   -6.0441   20.2498  -33.9753 H   0  0  0  0  0  0  0  0  0  0  0  0
   -5.8409   21.5579  -32.7205 H   0  0  0  0  0  0  0  0  0  0  0  0
   -5.0065   18.8743  -32.5240 H   0  0  0  0  0  0  0  0  0  0  0  0
   -5.1081   20.1313  -31.2038 H   0  0  0  0  0  0  0  0  0  0  0  0
   -7.0244   17.7771  -33.0196 H   0  0  0  0  0  0  0  0  0  0  0  0
   -8.2066   17.5418  -31.6781 H   0  0  0  0  0  0  0  0  0  0  0  0
   -8.7477   19.1222  -33.7824 H   0  0  0  0  0  0  0  0  0  0  0  0
   -9.3017   19.5139  -32.0906 H   0  0  0  0  0  0  0  0  0  0  0  0
   -7.3692   24.2305  -32.8008 H   0  0  0  0  0  0  0  0  0  0  0  0
   -5.5489   25.8419  -32.2586 H   0  0  0  0  0  0  0  0  0  0  0  0
   -2.5197   26.0949  -25.9663 H   0  0  0  0  0  0  0  0  0  0  0  0
  1  2  1  0
  2  3  2  0
  3  4  1  0
  4  5  2  0
  5  6  1  0
  6  7  1  0
  7  8  1  0
  8  9  2  0
  8 10  1  0
 10 11  2  0
 11 12  1  0
 12 13  1  0
 13 14  2  0
 13 15  2  0
 13 16  1  0
 16 17  1  0
 17 18  1  0
 18 19  1  0
 19 20  1  0
 20 21  1  0
 12 22  2  0
 22 23  1  0
 23 24  2  0
 24 25  1  0
  6 26  2  0
 26  2  1  0
 24 10  1  0
 21 16  1  0
  1 27  1  0
  1 28  1  0
  1 29  1  0
  3 30  1  0
  4 31  1  0
  5 32  1  0
  7 33  1  0
 11 34  1  0
 17 35  1  0
 17 36  1  0
 18 37  1  0
 18 38  1  0
 20 39  1  0
 20 40  1  0
 21 41  1  0
 21 42  1  0
 22 43  1  0
 23 44  1  0
 26 45  1  0
M  CHG  1  25  -1
M  END
>  <UniqueID>  (18) 
16

>  <SMILES>  (18) 
Cc1cccc(NC(=O)c2cc(S(=O)(=O)N3CCOCC3)ccc2[O-])c1

>  <Energy>  (18) 
63.459741984304536

>  <Genealogy>  (18) 
Cc1cccc(NC(=O)c2cc(S(=O)(=O)N3CCOCC3)ccc2[O-])c1 (protonated)
Cc1cccc(NC(=O)c2cc(S(=O)(=O)N3CCOCC3)ccc2[O-])c1 (3D coordinates assigned)
Cc1cccc(NC(=O)c2cc(S(=O)(=O)N3CCOCC3)ccc2[O-])c1 (nonaromatic ring conformer: 63.459741984304536 kcal/mol)

>  <smiles>  (18) 
Cc1cccc(NC(=O)c2cc(S(=O)(=O)N3CCOCC3)ccc2O)c1

>  <score_type>  (18) 
oracle

>  <origin>  (18) 
adgpu

>  <m_score__min__energy>  (18) 
-11.43

>  <m_primary>  (18) 
energy

$$$$
18:0
     RDKit          3D

 52 56  0  0  0  0  0  0  0  0999 V2000
   -7.0960   25.1830  -29.5220 O   0  0  0  0  0  0  0  0  0  0  0  0
   -5.9880   24.6320  -29.7710 C   0  0  0  0  0  0  0  0  0  0  0  0
   -4.9260   24.8810  -28.9450 N   0  0  0  0  0  0  0  0  0  0  0  0
   -3.7380   24.3020  -29.2280 C   0  0  0  0  0  0  0  0  0  0  0  0
   -3.5610   23.4870  -30.3070 C   0  0  0  0  0  0  0  0  0  0  0  0
   -2.2870   23.0420  -30.3900 N   0  0  0  0  0  0  0  0  0  0  0  0
   -1.6630   23.6020  -29.3260 C   0  0  0  0  0  0  0  0  0  0  0  0
   -0.3260   23.4570  -28.9600 C   0  0  0  0  0  0  0  0  0  0  0  0
    0.1190   24.1360  -27.8100 C   0  0  0  0  0  0  0  0  0  0  0  0
   -0.7690   24.9390  -27.0580 C   0  0  0  0  0  0  0  0  0  0  0  0
   -2.1150   25.0720  -27.4460 C   0  0  0  0  0  0  0  0  0  0  0  0
   -2.5270   24.3870  -28.5860 C   0  0  0  0  0  0  0  0  0  0  0  0
   -4.6280   23.2250  -31.1550 C   0  0  0  0  0  0  0  0  0  0  0  0
   -4.4670   22.4840  -32.1640 O   0  0  0  0  0  0  0  0  0  0  0  0
   -5.8520   23.7940  -30.8670 N   0  0  0  0  0  0  0  0  0  0  0  0
   -7.0020   23.5560  -31.7620 C   0  0  0  0  0  0  0  0  0  0  0  0
   -7.8670   22.4000  -31.2150 C   0  0  0  0  0  0  0  0  0  0  0  0
   -7.5080   21.0700  -31.7540 N   0  0  0  0  0  0  0  0  0  0  0  0
   -6.7470   21.1450  -33.0250 C   0  0  0  0  0  0  0  0  0  0  0  0
   -6.8140   19.8400  -33.8400 C   0  0  0  0  0  0  0  0  0  0  0  0
   -6.9870   18.6850  -32.9490 N   0  0  0  0  0  0  0  0  0  0  0  0
   -6.1100   17.5450  -33.0330 C   0  0  0  0  0  0  0  0  0  0  0  0
   -5.8300   16.7750  -31.8900 C   0  0  0  0  0  0  0  0  0  0  0  0
   -4.9900   15.6610  -31.9760 C   0  0  0  0  0  0  0  0  0  0  0  0
   -4.4240   15.3020  -33.2020 C   0  0  0  0  0  0  0  0  0  0  0  0
   -3.6100   14.2210  -33.2820 F   0  0  0  0  0  0  0  0  0  0  0  0
   -4.7010   16.0550  -34.3450 C   0  0  0  0  0  0  0  0  0  0  0  0
   -5.5410   17.1700  -34.2640 C   0  0  0  0  0  0  0  0  0  0  0  0
   -8.0830   18.7000  -31.9700 C   0  0  0  0  0  0  0  0  0  0  0  0
   -8.6330   20.1190  -31.7910 C   0  0  0  0  0  0  0  0  0  0  0  0
   -5.0280   25.5110  -28.1170 H   0  0  0  0  0  0  0  0  0  0  0  0
   -1.8730   22.4100  -31.1120 H   0  0  0  0  0  0  0  0  0  0  0  0
    0.3596   22.8319  -29.5509 H   0  0  0  0  0  0  0  0  0  0  0  0
    1.1681   24.0409  -27.4933 H   0  0  0  0  0  0  0  0  0  0  0  0
   -0.4048   25.4639  -26.1626 H   0  0  0  0  0  0  0  0  0  0  0  0
   -2.8158   25.6941  -26.8700 H   0  0  0  0  0  0  0  0  0  0  0  0
   -7.6115   24.4697  -31.8227 H   0  0  0  0  0  0  0  0  0  0  0  0
   -6.6313   23.2874  -32.7622 H   0  0  0  0  0  0  0  0  0  0  0  0
   -7.7539   22.3715  -30.1212 H   0  0  0  0  0  0  0  0  0  0  0  0
   -8.9016   22.6013  -31.5299 H   0  0  0  0  0  0  0  0  0  0  0  0
   -7.1612   21.9615  -33.6347 H   0  0  0  0  0  0  0  0  0  0  0  0
   -5.6918   21.3210  -32.7687 H   0  0  0  0  0  0  0  0  0  0  0  0
   -7.6645   19.8910  -34.5357 H   0  0  0  0  0  0  0  0  0  0  0  0
   -5.8738   19.7207  -34.3984 H   0  0  0  0  0  0  0  0  0  0  0  0
   -6.2747   17.0510  -30.9225 H   0  0  0  0  0  0  0  0  0  0  0  0
   -4.7741   15.0657  -31.0765 H   0  0  0  0  0  0  0  0  0  0  0  0
   -4.2577   15.7705  -35.3107 H   0  0  0  0  0  0  0  0  0  0  0  0
   -5.7583   17.7575  -35.1682 H   0  0  0  0  0  0  0  0  0  0  0  0
   -8.8908   18.0419  -32.3228 H   0  0  0  0  0  0  0  0  0  0  0  0
   -7.6966   18.3469  -31.0025 H   0  0  0  0  0  0  0  0  0  0  0  0
   -9.2967   20.3659  -32.6327 H   0  0  0  0  0  0  0  0  0  0  0  0
   -9.2020   20.1806  -30.8516 H   0  0  0  0  0  0  0  0  0  0  0  0
  1  2  2  0
  2  3  1  0
  3  4  1  0
  4  5  2  0
  5  6  1  0
  6  7  1  0
  7  8  2  0
  8  9  1  0
  9 10  2  0
 10 11  1  0
 11 12  2  0
  5 13  1  0
 13 14  2  0
 13 15  1  0
 15 16  1  0
 16 17  1  0
 17 18  1  0
 18 19  1  0
 19 20  1  0
 20 21  1  0
 21 22  1  0
 22 23  2  0
 23 24  1  0
 24 25  2  0
 25 26  1  0
 25 27  1  0
 27 28  2  0
 21 29  1  0
 29 30  1  0
 15  2  1  0
 30 18  1  0
 12  4  1  0
 28 22  1  0
 12  7  1  0
  3 31  1  0
  6 32  1  0
  8 33  1  0
  9 34  1  0
 10 35  1  0
 11 36  1  0
 16 37  1  0
 16 38  1  0
 17 39  1  0
 17 40  1  0
 19 41  1  0
 19 42  1  0
 20 43  1  0
 20 44  1  0
 23 45  1  0
 24 46  1  0
 27 47  1  0
 28 48  1  0
 29 49  1  0
 29 50  1  0
 30 51  1  0
 30 52  1  0
M  END
>  <UniqueID>  (19) 
17

>  <SMILES>  (19) 
O=c1[nH]c2c([nH]c3ccccc32)c(=O)n1CCN1CCN(c2ccc(F)cc2)CC1

>  <Energy>  (19) 
115.89911863621336

>  <Genealogy>  (19) 
O=c1[nH]c2c([nH]c3ccccc32)c(=O)n1CCN1CCN(c2ccc(F)cc2)CC1 (3D coordinates assigned)
O=c1[nH]c2c([nH]c3ccccc32)c(=O)n1CCN1CCN(c2ccc(F)cc2)CC1 (nonaromatic ring conformer: 115.89911863621336 kcal/mol)

>  <smiles>  (19) 
O=c1[nH]c2c([nH]c3ccccc32)c(=O)n1CCN1CCN(c2ccc(F)cc2)CC1

>  <score_type>  (19) 
oracle

>  <origin>  (19) 
adgpu

>  <m_score__min__energy>  (19) 
-9.0099999999999998

>  <m_primary>  (19) 
energy

$$$$
19:0
     RDKit          3D

 50 53  0  0  0  0  0  0  0  0999 V2000
   -6.6592   25.5018  -31.9584 H   0  0  0  0  0  0  0  0  0  0  0  0
   -6.1170   24.6320  -31.5590 C   0  0  0  0  0  0  0  0  0  0  0  0
   -6.1800   23.4070  -32.2250 C   0  0  0  0  0  0  0  0  0  0  0  0
   -6.7587   23.3177  -33.1562 H   0  0  0  0  0  0  0  0  0  0  0  0
   -5.5090   22.2930  -31.7110 C   0  0  0  0  0  0  0  0  0  0  0  0
   -5.5030   21.0670  -32.4520 N   0  0  0  0  0  0  0  0  0  0  0  0
   -6.3550   20.0700  -32.4290 C   0  0  0  0  0  0  0  0  0  0  0  0
   -7.6170   20.1240  -31.7710 C   0  0  0  0  0  0  0  0  0  0  0  0
   -8.1830   21.3320  -31.2150 C   0  0  0  0  0  0  0  0  0  0  0  0
   -8.6430   22.2960  -30.7700 N   0  0  0  0  0  0  0  0  0  0  0  0
   -8.4260   18.9830  -31.7460 C   0  0  0  0  0  0  0  0  0  0  0  0
   -9.3947   19.0167  -31.2260 H   0  0  0  0  0  0  0  0  0  0  0  0
   -8.0330   17.8350  -32.3540 N   0  0  0  0  0  0  0  0  0  0  0  0
   -8.6700   17.0070  -32.3040 H   0  0  0  0  0  0  0  0  0  0  0  0
   -6.8530   17.7510  -33.0270 C   0  0  0  0  0  0  0  0  0  0  0  0
   -6.4820   16.5480  -33.6460 C   0  0  0  0  0  0  0  0  0  0  0  0
   -7.1587   15.6817  -33.6062 H   0  0  0  0  0  0  0  0  0  0  0  0
   -5.2600   16.4430  -34.3120 C   0  0  0  0  0  0  0  0  0  0  0  0
   -4.9774   15.4906  -34.7843 H   0  0  0  0  0  0  0  0  0  0  0  0
   -4.3900   17.5380  -34.3850 C   0  0  0  0  0  0  0  0  0  0  0  0
   -3.1130   17.3820  -35.0360 N   0  0  0  0  0  0  0  0  0  0  0  0
   -3.1000   17.1210  -36.0480 H   0  0  0  0  0  0  0  0  0  0  0  0
   -1.8200   17.4670  -34.3510 C   0  0  0  0  0  0  0  0  0  0  0  0
   -1.8067   16.7511  -33.5160 H   0  0  0  0  0  0  0  0  0  0  0  0
   -1.0233   17.2302  -35.0716 H   0  0  0  0  0  0  0  0  0  0  0  0
   -1.5880   18.8570  -33.8140 C   0  0  0  0  0  0  0  0  0  0  0  0
   -2.0320   19.1950  -32.5260 C   0  0  0  0  0  0  0  0  0  0  0  0
   -2.5249   18.4369  -31.8996 H   0  0  0  0  0  0  0  0  0  0  0  0
   -1.8500   20.4910  -32.0370 C   0  0  0  0  0  0  0  0  0  0  0  0
   -2.1966   20.7492  -31.0255 H   0  0  0  0  0  0  0  0  0  0  0  0
   -1.2290   21.4600  -32.8290 C   0  0  0  0  0  0  0  0  0  0  0  0
   -1.0968   22.4814  -32.4427 H   0  0  0  0  0  0  0  0  0  0  0  0
   -0.7740   21.1350  -34.1140 C   0  0  0  0  0  0  0  0  0  0  0  0
   -0.1510   22.1290  -34.9320 N   0  0  0  0  0  0  0  0  0  0  0  0
   -0.5530   22.3870  -35.8600 H   0  0  0  0  0  0  0  0  0  0  0  0
    0.7100   22.6240  -34.6080 H   0  0  0  0  0  0  0  0  0  0  0  0
   -0.9440   19.8290  -34.5980 C   0  0  0  0  0  0  0  0  0  0  0  0
   -0.5705   19.5643  -35.5982 H   0  0  0  0  0  0  0  0  0  0  0  0
   -4.7780   18.7560  -33.8020 C   0  0  0  0  0  0  0  0  0  0  0  0
   -4.1211   19.6333  -33.8958 H   0  0  0  0  0  0  0  0  0  0  0  0
   -5.9960   18.8740  -33.0980 C   0  0  0  0  0  0  0  0  0  0  0  0
   -4.7250   22.4270  -30.5540 C   0  0  0  0  0  0  0  0  0  0  0  0
   -4.1437   21.5685  -30.1863 H   0  0  0  0  0  0  0  0  0  0  0  0
   -4.6770   23.6490  -29.8620 C   0  0  0  0  0  0  0  0  0  0  0  0
   -3.8120   23.7960  -28.6360 C   0  0  0  0  0  0  0  0  0  0  0  0
   -4.5470   24.2870  -27.5710 F   0  0  0  0  0  0  0  0  0  0  0  0
   -3.2810   22.5720  -28.2680 F   0  0  0  0  0  0  0  0  0  0  0  0
   -2.7780   24.6710  -28.9120 F   0  0  0  0  0  0  0  0  0  0  0  0
   -5.3670   24.7570  -30.3860 C   0  0  0  0  0  0  0  0  0  0  0  0
   -5.3162   25.7271  -29.8700 H   0  0  0  0  0  0  0  0  0  0  0  0
  1  2  1  0
  2  3  2  0
  3  4  1  0
  3  5  1  0
  5  6  1  0
  6  7  2  0
  7  8  1  0
  8  9  1  0
  9 10  3  0
  8 11  2  0
 11 12  1  0
 11 13  1  0
 13 14  1  0
 13 15  1  0
 15 16  2  0
 16 17  1  0
 16 18  1  0
 18 19  1  0
 18 20  2  0
 20 21  1  0
 21 22  1  0
 21 23  1  0
 23 24  1  0
 23 25  1  0
 23 26  1  0
 26 27  2  0
 27 28  1  0
 27 29  1  0
 29 30  1  0
 29 31  2  0
 31 32  1  0
 31 33  1  0
 33 34  1  0
 34 35  1  0
 34 36  1  0
 33 37  2  0
 37 38  1  0
 20 39  1  0
 39 40  1  0
 39 41  2  0
  5 42  2  0
 42 43  1  0
 42 44  1  0
 44 45  1  0
 45 46  1  0
 45 47  1  0
 45 48  1  0
 44 49  2  0
 49 50  1  0
 49  2  1  0
 41  7  1  0
 41 15  1  0
 37 26  1  0
M  END
>  <UniqueID>  (20) 
18

>  <SMILES>  (20) 
N#Cc1c[nH]c2ccc(NCc3cccc(N)c3)cc2/c1=N/c1cccc(C(F)(F)F)c1

>  <Energy>  (20) 
72.54410874152006

>  <Genealogy>  (20) 
N#Cc1c[nH]c2ccc(NCc3cccc(N)c3)cc2/c1=N/c1cccc(C(F)(F)F)c1 (cis-trans isomerization)
N#Cc1c[nH]c2ccc(NCc3cccc(N)c3)cc2/c1=N/c1cccc(C(F)(F)F)c1 (3D coordinates assigned)
N#Cc1c[nH]c2ccc(NCc3cccc(N)c3)cc2/c1=N/c1cccc(C(F)(F)F)c1 (optimized conformer: 72.54410874152006 kcal/mol)

>  <smiles>  (20) 
N#Cc1c[nH]c2ccc(NCc3cccc(N)c3)cc2c1=Nc1cccc(C(F)(F)F)c1

>  <score_type>  (20) 
oracle

>  <origin>  (20) 
adgpu

>  <m_score__min__energy>  (20) 
-9.1400000000000006

>  <m_primary>  (20) 
energy

$$$$
20:0
     RDKit          3D

 52 55  0  0  0  0  0  0  0  0999 V2000
   -5.8010   25.1970  -29.0670 O   0  0  0  0  0  0  0  0  0  0  0  0
   -4.7990   24.5760  -29.9990 S   0  0  0  0  0  0  0  0  0  0  0  0
   -4.2560   25.6470  -30.9040 O   0  0  0  0  0  0  0  0  0  0  0  0
   -3.5020   23.8970  -29.0690 N   0  0  0  0  0  0  0  0  0  0  0  0
   -2.7150   24.6080  -28.1040 C   0  0  0  0  0  0  0  0  0  0  0  0
   -3.1770   24.8620  -26.8010 C   0  0  0  0  0  0  0  0  0  0  0  0
   -2.3730   25.5510  -25.8900 C   0  0  0  0  0  0  0  0  0  0  0  0
   -1.0950   26.0000  -26.2620 C   0  0  0  0  0  0  0  0  0  0  0  0
   -0.2560   26.6930  -25.3160 N   0  0  0  0  0  0  0  0  0  0  0  0
    1.1200   27.0700  -25.6610 C   0  0  0  0  0  0  0  0  0  0  0  0
    2.1000   26.6580  -24.5420 C   0  0  0  0  0  0  0  0  0  0  0  0
    1.4570   26.5310  -23.2150 N   0  0  0  0  0  0  0  0  0  0  0  0
    0.3330   27.4610  -23.0410 C   0  0  0  0  0  0  0  0  0  0  0  0
   -0.7990   27.1110  -24.0170 C   0  0  0  0  0  0  0  0  0  0  0  0
   -0.6340   25.7370  -27.5630 C   0  0  0  0  0  0  0  0  0  0  0  0
   -1.4390   25.0490  -28.4740 C   0  0  0  0  0  0  0  0  0  0  0  0
   -5.5940   23.3090  -30.9280 C   0  0  0  0  0  0  0  0  0  0  0  0
   -6.8230   23.5720  -31.5470 C   0  0  0  0  0  0  0  0  0  0  0  0
   -7.4660   22.5750  -32.2870 C   0  0  0  0  0  0  0  0  0  0  0  0
   -6.8920   21.2970  -32.4010 C   0  0  0  0  0  0  0  0  0  0  0  0
   -7.4960   20.2720  -33.1480 O   0  0  0  0  0  0  0  0  0  0  0  0
   -6.9040   19.0420  -33.4750 C   0  0  0  0  0  0  0  0  0  0  0  0
   -7.1350   17.8770  -32.7180 C   0  0  0  0  0  0  0  0  0  0  0  0
   -6.5230   16.6720  -33.0770 C   0  0  0  0  0  0  0  0  0  0  0  0
   -5.6650   16.6230  -34.1810 C   0  0  0  0  0  0  0  0  0  0  0  0
   -5.4110   17.7840  -34.9180 C   0  0  0  0  0  0  0  0  0  0  0  0
   -6.0220   18.9900  -34.5610 C   0  0  0  0  0  0  0  0  0  0  0  0
   -5.6560   21.0440  -31.7960 C   0  0  0  0  0  0  0  0  0  0  0  0
   -5.0100   22.0420  -31.0610 C   0  0  0  0  0  0  0  0  0  0  0  0
   -4.1763   24.5166  -26.4974 H   0  0  0  0  0  0  0  0  0  0  0  0
   -2.7438   25.7437  -24.8725 H   0  0  0  0  0  0  0  0  0  0  0  0
    1.4080   26.5664  -26.5956 H   0  0  0  0  0  0  0  0  0  0  0  0
    1.1653   28.1622  -25.7838 H   0  0  0  0  0  0  0  0  0  0  0  0
    2.5451   25.6879  -24.8081 H   0  0  0  0  0  0  0  0  0  0  0  0
    2.8550   27.4540  -24.4622 H   0  0  0  0  0  0  0  0  0  0  0  0
    1.1160   25.5490  -23.0850 H   0  0  0  0  0  0  0  0  0  0  0  0
    2.1700   26.7220  -22.4720 H   0  0  0  0  0  0  0  0  0  0  0  0
   -0.0415   27.3897  -22.0092 H   0  0  0  0  0  0  0  0  0  0  0  0
    0.6791   28.4852  -23.2443 H   0  0  0  0  0  0  0  0  0  0  0  0
   -1.3980   26.2903  -23.5954 H   0  0  0  0  0  0  0  0  0  0  0  0
   -1.4245   28.0034  -24.1666 H   0  0  0  0  0  0  0  0  0  0  0  0
    0.3678   26.0752  -27.8662 H   0  0  0  0  0  0  0  0  0  0  0  0
   -1.0672   24.8522  -29.4904 H   0  0  0  0  0  0  0  0  0  0  0  0
   -7.2837   24.5662  -31.4505 H   0  0  0  0  0  0  0  0  0  0  0  0
   -8.4244   22.7915  -32.7816 H   0  0  0  0  0  0  0  0  0  0  0  0
   -7.7988   17.9151  -31.8417 H   0  0  0  0  0  0  0  0  0  0  0  0
   -6.7164   15.7616  -32.4907 H   0  0  0  0  0  0  0  0  0  0  0  0
   -5.1911   15.6730  -34.4688 H   0  0  0  0  0  0  0  0  0  0  0  0
   -4.7291   17.7484  -35.7804 H   0  0  0  0  0  0  0  0  0  0  0  0
   -5.8085   19.9028  -35.1365 H   0  0  0  0  0  0  0  0  0  0  0  0
   -5.1896   20.0531  -31.8995 H   0  0  0  0  0  0  0  0  0  0  0  0
   -4.0404   21.8324  -30.5856 H   0  0  0  0  0  0  0  0  0  0  0  0
  1  2  2  0
  2  3  2  0
  2  4  1  0
  4  5  1  0
  5  6  2  0
  6  7  1  0
  7  8  2  0
  8  9  1  0
  9 10  1  0
 10 11  1  0
 11 12  1  0
 12 13  1  0
 13 14  1  0
  8 15  1  0
 15 16  2  0
  2 17  1  0
 17 18  2  0
 18 19  1  0
 19 20  2  0
 20 21  1  0
 21 22  1  0
 22 23  2  0
 23 24  1  0
 24 25  2  0
 25 26  1  0
 26 27  2  0
 20 28  1  0
 28 29  2  0
 16  5  1  0
 29 17  1  0
 14  9  1  0
 27 22  1  0
  6 30  1  0
  7 31  1  0
 10 32  1  0
 10 33  1  0
 11 34  1  0
 11 35  1  0
 12 36  1  0
 12 37  1  0
 13 38  1  0
 13 39  1  0
 14 40  1  0
 14 41  1  0
 15 42  1  0
 16 43  1  0
 18 44  1  0
 19 45  1  0
 23 46  1  0
 24 47  1  0
 25 48  1  0
 26 49  1  0
 27 50  1  0
 28 51  1  0
 29 52  1  0
M  CHG  2   4  -1  12   1
M  END
>  <UniqueID>  (21) 
19

>  <SMILES>  (21) 
O=S(=O)([N-]c1ccc(N2CC[NH2+]CC2)cc1)c1ccc(Oc2ccccc2)cc1

>  <Energy>  (21) 
73.30322834819944

>  <Genealogy>  (21) 
O=S(=O)([N-]c1ccc(N2CC[NH2+]CC2)cc1)c1ccc(Oc2ccccc2)cc1 (protonated)
O=S(=O)([N-]c1ccc(N2CC[NH2+]CC2)cc1)c1ccc(Oc2ccccc2)cc1 (3D coordinates assigned)
O=S(=O)([N-]c1ccc(N2CC[NH2+]CC2)cc1)c1ccc(Oc2ccccc2)cc1 (nonaromatic ring conformer: 73.30322834819944 kcal/mol)

>  <smiles>  (21) 
O=S(=O)(Nc1ccc(N2CCNCC2)cc1)c1ccc(Oc2ccccc2)cc1

>  <score_type>  (21) 
oracle

>  <origin>  (21) 
adgpu

>  <m_score__min__energy>  (21) 
-11.92

>  <m_primary>  (21) 
energy

$$$$
21:0
     RDKit          3D

 25 26  0  0  0  0  0  0  0  0999 V2000
   -2.6080   23.5810  -28.8860 O   0  0  0  0  0  0  0  0  0  0  0  0
   -2.5710   24.7140  -29.4330 C   0  0  0  0  0  0  0  0  0  0  0  0
   -3.5440   25.0750  -30.4230 N   0  0  0  0  0  0  0  0  0  0  0  0
   -4.7720   24.3900  -30.7040 C   0  0  0  0  0  0  0  0  0  0  0  0
   -6.0190   24.8870  -30.2810 C   0  0  0  0  0  0  0  0  0  0  0  0
   -7.1910   24.1730  -30.5540 C   0  0  0  0  0  0  0  0  0  0  0  0
   -7.1280   22.9540  -31.2380 C   0  0  0  0  0  0  0  0  0  0  0  0
   -8.7280   21.9810  -31.6080 Br  0  0  0  0  0  0  0  0  0  0  0  0
   -5.8890   22.4460  -31.6400 C   0  0  0  0  0  0  0  0  0  0  0  0
   -4.7170   23.1570  -31.3670 C   0  0  0  0  0  0  0  0  0  0  0  0
   -1.6140   25.6740  -28.9730 N   0  0  0  0  0  0  0  0  0  0  0  0
   -1.3930   26.0610  -27.6100 C   0  0  0  0  0  0  0  0  0  0  0  0
   -2.0730   25.3840  -26.5920 C   0  0  0  0  0  0  0  0  0  0  0  0
   -1.8570   25.7280  -25.2560 C   0  0  0  0  0  0  0  0  0  0  0  0
   -0.9450   26.7380  -24.9490 C   0  0  0  0  0  0  0  0  0  0  0  0
   -0.2680   27.3690  -25.9450 N   0  0  0  0  0  0  0  0  0  0  0  0
   -0.4640   27.0550  -27.2540 C   0  0  0  0  0  0  0  0  0  0  0  0
   -6.0724   25.8399  -29.7340 H   0  0  0  0  0  0  0  0  0  0  0  0
   -8.1640   24.5709  -30.2302 H   0  0  0  0  0  0  0  0  0  0  0  0
   -5.8365   21.4848  -32.1722 H   0  0  0  0  0  0  0  0  0  0  0  0
   -3.7444   22.7455  -31.6749 H   0  0  0  0  0  0  0  0  0  0  0  0
   -2.7791   24.5792  -26.8444 H   0  0  0  0  0  0  0  0  0  0  0  0
   -2.4006   25.2077  -24.4536 H   0  0  0  0  0  0  0  0  0  0  0  0
   -0.7736   27.0240  -23.9008 H   0  0  0  0  0  0  0  0  0  0  0  0
    0.1052   27.5796  -28.0355 H   0  0  0  0  0  0  0  0  0  0  0  0
  1  2  2  0
  2  3  1  0
  3  4  1  0
  4  5  2  0
  5  6  1  0
  6  7  2  0
  7  8  1  0
  7  9  1  0
  9 10  2  0
  2 11  1  0
 11 12  1  0
 12 13  2  0
 13 14  1  0
 14 15  2  0
 15 16  1  0
 16 17  2  0
 10  4  1  0
 17 12  1  0
  5 18  1  0
  6 19  1  0
  9 20  1  0
 10 21  1  0
 13 22  1  0
 14 23  1  0
 15 24  1  0
 17 25  1  0
M  CHG  2   3  -1  11  -1
M  END
>  <UniqueID>  (22) 
20

>  <SMILES>  (22) 
O=C([N-]c1ccc(Br)cc1)[N-]c1cccnc1

>  <Energy>  (22) 
33.166824160970435

>  <Genealogy>  (22) 
O=C([N-]c1ccc(Br)cc1)[N-]c1cccnc1 (protonated)
O=C([N-]c1ccc(Br)cc1)[N-]c1cccnc1 (3D coordinates assigned)
O=C([N-]c1ccc(Br)cc1)[N-]c1cccnc1 (optimized conformer: 33.166824160970435 kcal/mol)

>  <smiles>  (22) 
O=C(Nc1ccc(Br)cc1)Nc1cccnc1

>  <score_type>  (22) 
oracle

>  <origin>  (22) 
adgpu

>  <m_score__min__energy>  (22) 
-9.8599999999999994

>  <m_primary>  (22) 
energy

$$$$
22:0
     RDKit          3D

 67 72  0  0  0  0  0  0  0  0999 V2000
   -3.4980   16.5400  -35.8310 O   0  0  0  0  0  0  0  0  0  0  0  0
   -3.8820   15.9980  -34.7580 C   0  0  0  0  0  0  0  0  0  0  0  0
   -2.9820   15.0000  -34.0870 C   0  0  0  0  0  0  0  0  0  0  0  0
   -1.8320   15.6500  -33.5470 O   0  0  0  0  0  0  0  0  0  0  0  0
   -1.5150   17.0020  -33.7530 C   0  0  0  0  0  0  0  0  0  0  0  0
   -2.0160   18.0280  -32.9320 C   0  0  0  0  0  0  0  0  0  0  0  0
   -1.6800   19.3690  -33.1740 C   0  0  0  0  0  0  0  0  0  0  0  0
   -2.1970   20.3620  -32.3390 O   0  0  0  0  0  0  0  0  0  0  0  0
   -0.8270   19.6980  -34.2540 C   0  0  0  0  0  0  0  0  0  0  0  0
   -0.4420   21.0220  -34.5590 C   0  0  0  0  0  0  0  0  0  0  0  0
   -0.8300   21.9810  -33.8380 O   0  0  0  0  0  0  0  0  0  0  0  0
    0.4010   21.2670  -35.6630 C   0  0  0  0  0  0  0  0  0  0  0  0
    0.8380   22.6300  -36.0640 C   0  0  0  0  0  0  0  0  0  0  0  0
    0.0800   23.7900  -36.0750 C   0  0  0  0  0  0  0  0  0  0  0  0
    0.9430   24.7470  -36.5790 C   0  0  0  0  0  0  0  0  0  0  0  0
    0.6610   26.1790  -36.8210 C   0  0  0  0  0  0  0  0  0  0  0  0
    1.0530   27.1720  -35.9020 C   0  0  0  0  0  0  0  0  0  0  0  0
    0.7720   28.5180  -36.1520 C   0  0  0  0  0  0  0  0  0  0  0  0
    0.0990   28.8890  -37.3200 C   0  0  0  0  0  0  0  0  0  0  0  0
   -0.1810   30.2280  -37.5660 O   0  0  0  0  0  0  0  0  0  0  0  0
   -0.2930   27.9120  -38.2400 C   0  0  0  0  0  0  0  0  0  0  0  0
   -0.0120   26.5650  -37.9940 C   0  0  0  0  0  0  0  0  0  0  0  0
    2.0960   24.1720  -36.8350 O   0  0  0  0  0  0  0  0  0  0  0  0
    2.0680   22.9050  -36.5430 N   0  0  0  0  0  0  0  0  0  0  0  0
    0.8520   20.1650  -36.4050 C   0  0  0  0  0  0  0  0  0  0  0  0
    0.4800   18.9300  -36.0910 O   0  0  0  0  0  0  0  0  0  0  0  0
   -0.3250   18.6580  -35.0720 C   0  0  0  0  0  0  0  0  0  0  0  0
   -0.6700   17.3290  -34.8160 C   0  0  0  0  0  0  0  0  0  0  0  0
   -5.1550   16.3680  -34.1830 N   0  0  0  0  0  0  0  0  0  0  0  0
   -5.4140   16.2760  -32.7450 C   0  0  0  0  0  0  0  0  0  0  0  0
   -5.3710   17.6840  -32.1400 C   0  0  0  0  0  0  0  0  0  0  0  0
   -6.2020   18.6550  -32.8880 N   0  0  0  0  0  0  0  0  0  0  0  0
   -7.5450   18.9350  -32.3380 C   0  0  0  0  0  0  0  0  0  0  0  0
   -7.8600   20.4070  -32.2260 C   0  0  0  0  0  0  0  0  0  0  0  0
   -6.8310   21.3610  -32.2970 C   0  0  0  0  0  0  0  0  0  0  0  0
   -7.1230   22.7230  -32.1740 C   0  0  0  0  0  0  0  0  0  0  0  0
   -8.4400   23.1410  -31.9680 C   0  0  0  0  0  0  0  0  0  0  0  0
   -9.4670   22.1980  -31.8780 C   0  0  0  0  0  0  0  0  0  0  0  0
   -9.1790   20.8360  -31.9980 C   0  0  0  0  0  0  0  0  0  0  0  0
   -6.0870   18.6190  -34.3640 C   0  0  0  0  0  0  0  0  0  0  0  0
   -6.1060   17.1920  -34.9270 C   0  0  0  0  0  0  0  0  0  0  0  0
   -3.5330   14.5043  -33.2742 H   0  0  0  0  0  0  0  0  0  0  0  0
   -2.6557   14.2579  -34.8305 H   0  0  0  0  0  0  0  0  0  0  0  0
   -2.6786   17.7767  -32.0907 H   0  0  0  0  0  0  0  0  0  0  0  0
   -1.9620   21.3400  -32.4640 H   0  0  0  0  0  0  0  0  0  0  0  0
   -0.9650   23.9199  -35.7570 H   0  0  0  0  0  0  0  0  0  0  0  0
    1.5836   26.8862  -34.9818 H   0  0  0  0  0  0  0  0  0  0  0  0
    1.0809   29.2869  -35.4285 H   0  0  0  0  0  0  0  0  0  0  0  0
   -0.8232   28.2037  -39.1586 H   0  0  0  0  0  0  0  0  0  0  0  0
   -0.3196   25.8012  -38.7234 H   0  0  0  0  0  0  0  0  0  0  0  0
    1.5244   20.3269  -37.2604 H   0  0  0  0  0  0  0  0  0  0  0  0
   -0.2716   16.5305  -35.4591 H   0  0  0  0  0  0  0  0  0  0  0  0
   -6.4063   15.8321  -32.5765 H   0  0  0  0  0  0  0  0  0  0  0  0
   -4.6504   15.6431  -32.2692 H   0  0  0  0  0  0  0  0  0  0  0  0
   -5.7370   17.6328  -31.1039 H   0  0  0  0  0  0  0  0  0  0  0  0
   -4.3291   18.0335  -32.1876 H   0  0  0  0  0  0  0  0  0  0  0  0
   -8.2936   18.4687  -32.9954 H   0  0  0  0  0  0  0  0  0  0  0  0
   -7.5671   18.5230  -31.3183 H   0  0  0  0  0  0  0  0  0  0  0  0
   -5.7915   21.0352  -32.4500 H   0  0  0  0  0  0  0  0  0  0  0  0
   -6.3147   23.4662  -32.2395 H   0  0  0  0  0  0  0  0  0  0  0  0
   -8.6685   24.2131  -31.8766 H   0  0  0  0  0  0  0  0  0  0  0  0
  -10.5032   22.5281  -31.7125 H   0  0  0  0  0  0  0  0  0  0  0  0
   -9.9884   20.0959  -31.9136 H   0  0  0  0  0  0  0  0  0  0  0  0
   -6.9298   19.1785  -34.7960 H   0  0  0  0  0  0  0  0  0  0  0  0
   -5.1192   19.0679  -34.6319 H   0  0  0  0  0  0  0  0  0  0  0  0
   -7.1167   16.7699  -34.8251 H   0  0  0  0  0  0  0  0  0  0  0  0
   -5.8251   17.2109  -35.9904 H   0  0  0  0  0  0  0  0  0  0  0  0
  1  2  2  0
  2  3  1  0
  3  4  1  0
  4  5  1  0
  5  6  2  0
  6  7  1  0
  7  8  1  0
  7  9  2  0
  9 10  1  0
 10 11  2  0
 10 12  1  0
 12 13  1  0
 13 14  1  0
 14 15  2  0
 15 16  1  0
 16 17  2  0
 17 18  1  0
 18 19  2  0
 19 20  1  0
 19 21  1  0
 21 22  2  0
 15 23  1  0
 23 24  1  0
 12 25  2  0
 25 26  1  0
 26 27  1  0
 27 28  2  0
  2 29  1  0
 29 30  1  0
 30 31  1  0
 31 32  1  0
 32 33  1  0
 33 34  1  0
 34 35  2  0
 35 36  1  0
 36 37  2  0
 37 38  1  0
 38 39  2  0
 32 40  1  0
 40 41  1  0
 28  5  1  0
 41 29  1  0
 27  9  1  0
 39 34  1  0
 24 13  2  0
 22 16  1  0
  3 42  1  0
  3 43  1  0
  6 44  1  0
  8 45  1  0
 14 46  1  0
 17 47  1  0
 18 48  1  0
 21 49  1  0
 22 50  1  0
 25 51  1  0
 28 52  1  0
 30 53  1  0
 30 54  1  0
 31 55  1  0
 31 56  1  0
 33 57  1  0
 33 58  1  0
 35 59  1  0
 36 60  1  0
 37 61  1  0
 38 62  1  0
 39 63  1  0
 40 64  1  0
 40 65  1  0
 41 66  1  0
 41 67  1  0
M  CHG  1  20  -1
M  END
>  <UniqueID>  (23) 
21

>  <SMILES>  (23) 
O=C(COc1cc(O)c2c(=O)c(-c3cc(-c4ccc([O-])cc4)on3)coc2c1)N1CCN(Cc2ccccc2)CC1

>  <Energy>  (23) 
126.94061722110112

>  <Genealogy>  (23) 
O=C(COc1cc(O)c2c(=O)c(-c3cc(-c4ccc([O-])cc4)on3)coc2c1)N1CCN(Cc2ccccc2)CC1 (protonated)
O=C(COc1cc(O)c2c(=O)c(-c3cc(-c4ccc([O-])cc4)on3)coc2c1)N1CCN(Cc2ccccc2)CC1 (3D coordinates assigned)
O=C(COc1cc(O)c2c(=O)c(-c3cc(-c4ccc([O-])cc4)on3)coc2c1)N1CCN(Cc2ccccc2)CC1 (nonaromatic ring conformer: 126.94061722110112 kcal/mol)

>  <smiles>  (23) 
O=C(COc1cc(O)c2c(=O)c(-c3cc(-c4ccc(O)cc4)on3)coc2c1)N1CCN(Cc2ccccc2)CC1

>  <score_type>  (23) 
oracle

>  <origin>  (23) 
adgpu

>  <m_score__min__energy>  (23) 
-9.8300000000000001

>  <m_primary>  (23) 
energy

$$$$
23:0
     RDKit          3D

 45 47  0  0  0  0  0  0  0  0999 V2000
   -2.5371   22.5728  -26.7245 H   0  0  0  0  0  0  0  0  0  0  0  0
   -2.4270   23.3390  -27.5060 C   0  0  0  0  0  0  0  0  0  0  0  0
   -3.3190   23.4890  -28.5200 N   0  0  0  0  0  0  0  0  0  0  0  0
   -2.9610   24.4990  -29.3480 C   0  0  0  0  0  0  0  0  0  0  0  0
   -3.6440   24.8570  -30.3920 N   0  0  0  0  0  0  0  0  0  0  0  0
   -4.8300   24.1860  -30.8400 C   0  0  0  0  0  0  0  0  0  0  0  0
   -4.6950   23.0940  -31.7080 C   0  0  0  0  0  0  0  0  0  0  0  0
   -3.6921   22.7761  -32.0291 H   0  0  0  0  0  0  0  0  0  0  0  0
   -5.8220   22.4020  -32.1720 C   0  0  0  0  0  0  0  0  0  0  0  0
   -5.6470   21.3100  -33.0920 N   0  0  0  0  0  0  0  0  0  0  0  0
   -5.0230   21.4570  -33.9180 H   0  0  0  0  0  0  0  0  0  0  0  0
   -6.1830   19.9940  -32.8910 C   0  0  0  0  0  0  0  0  0  0  0  0
   -6.6410   19.6500  -31.7680 O   0  0  0  0  0  0  0  0  0  0  0  0
   -6.1130   18.9860  -33.9920 C   0  0  0  0  0  0  0  0  0  0  0  0
   -6.0429   17.9764  -33.5609 H   0  0  0  0  0  0  0  0  0  0  0  0
   -7.0183   19.0576  -34.6128 H   0  0  0  0  0  0  0  0  0  0  0  0
   -5.2263   19.1820  -34.6128 H   0  0  0  0  0  0  0  0  0  0  0  0
   -7.0990   22.8310  -31.7790 C   0  0  0  0  0  0  0  0  0  0  0  0
   -7.9917   22.3220  -32.1714 H   0  0  0  0  0  0  0  0  0  0  0  0
   -7.2430   23.9010  -30.8920 C   0  0  0  0  0  0  0  0  0  0  0  0
   -8.2489   24.2220  -30.5836 H   0  0  0  0  0  0  0  0  0  0  0  0
   -6.1150   24.5700  -30.3910 C   0  0  0  0  0  0  0  0  0  0  0  0
   -6.3070   25.6940  -29.4090 C   0  0  0  0  0  0  0  0  0  0  0  0
   -6.2398   25.3008  -28.3839 H   0  0  0  0  0  0  0  0  0  0  0  0
   -5.5254   26.4527  -29.5626 H   0  0  0  0  0  0  0  0  0  0  0  0
   -7.2961   26.1502  -29.5626 H   0  0  0  0  0  0  0  0  0  0  0  0
   -1.5430   25.2570  -28.8610 S   0  0  0  0  0  0  0  0  0  0  0  0
   -1.3650   24.2330  -27.5380 C   0  0  0  0  0  0  0  0  0  0  0  0
   -0.0080   24.2910  -26.3680 S   0  0  0  0  0  0  0  0  0  0  0  0
    0.7490   25.7970  -27.0760 C   0  0  0  0  0  0  0  0  0  0  0  0
    1.8379   25.7558  -26.9259 H   0  0  0  0  0  0  0  0  0  0  0  0
    0.5067   25.8377  -28.1482 H   0  0  0  0  0  0  0  0  0  0  0  0
    0.2110   27.0340  -26.4200 C   0  0  0  0  0  0  0  0  0  0  0  0
    0.1000   28.1820  -27.1410 N   0  0  0  0  0  0  0  0  0  0  0  0
   -0.4180   29.3240  -26.6080 C   0  0  0  0  0  0  0  0  0  0  0  0
   -0.5500   30.5460  -27.4590 C   0  0  0  0  0  0  0  0  0  0  0  0
   -0.6458   31.4327  -26.8151 H   0  0  0  0  0  0  0  0  0  0  0  0
    0.3423   30.6487  -28.0941 H   0  0  0  0  0  0  0  0  0  0  0  0
   -1.4436   30.4558  -28.0941 H   0  0  0  0  0  0  0  0  0  0  0  0
   -0.8730   29.3250  -25.2840 C   0  0  0  0  0  0  0  0  0  0  0  0
   -1.3064   30.2367  -24.8471 H   0  0  0  0  0  0  0  0  0  0  0  0
   -0.7720   28.1590  -24.5230 C   0  0  0  0  0  0  0  0  0  0  0  0
   -1.1196   28.1503  -23.4794 H   0  0  0  0  0  0  0  0  0  0  0  0
   -0.2290   27.0040  -25.0890 C   0  0  0  0  0  0  0  0  0  0  0  0
   -0.1472   26.0804  -24.4971 H   0  0  0  0  0  0  0  0  0  0  0  0
  1  2  1  0
  2  3  1  0
  3  4  1  0
  4  5  2  0
  5  6  1  0
  6  7  2  0
  7  8  1  0
  7  9  1  0
  9 10  1  0
 10 11  1  0
 10 12  1  0
 12 13  2  0
 12 14  1  0
 14 15  1  0
 14 16  1  0
 14 17  1  0
  9 18  2  0
 18 19  1  0
 18 20  1  0
 20 21  1  0
 20 22  2  0
 22 23  1  0
 23 24  1  0
 23 25  1  0
 23 26  1  0
  4 27  1  0
 27 28  1  0
 28 29  1  0
 29 30  1  0
 30 31  1  0
 30 32  1  0
 30 33  1  0
 33 34  2  0
 34 35  1  0
 35 36  1  0
 36 37  1  0
 36 38  1  0
 36 39  1  0
 35 40  2  0
 40 41  1  0
 40 42  1  0
 42 43  1  0
 42 44  2  0
 44 45  1  0
 28  2  2  0
 44 33  1  0
 22  6  1  0
M  CHG  1   3  -1
M  END
>  <UniqueID>  (24) 
22

>  <SMILES>  (24) 
CC(=O)Nc1ccc(C)c(/N=c2\[n-]cc(SCc3cccc(C)n3)s2)c1

>  <Energy>  (24) 
80.21127047499192

>  <Genealogy>  (24) 
CC(=O)Nc1ccc(C)c(N=c2[n-]cc(SCc3cccc(C)n3)s2)c1 (protonated)
CC(=O)Nc1ccc(C)c(/N=c2\[n-]cc(SCc3cccc(C)n3)s2)c1 (cis-trans isomerization)
CC(=O)Nc1ccc(C)c(/N=c2\[n-]cc(SCc3cccc(C)n3)s2)c1 (3D coordinates assigned)
CC(=O)Nc1ccc(C)c(/N=c2\[n-]cc(SCc3cccc(C)n3)s2)c1 (optimized conformer: 80.21127047499192 kcal/mol)

>  <smiles>  (24) 
CC(=O)Nc1ccc(C)c(N=c2[nH]cc(SCc3cccc(C)n3)s2)c1

>  <score_type>  (24) 
oracle

>  <origin>  (24) 
adgpu

>  <m_score__min__energy>  (24) 
-10.17

>  <m_primary>  (24) 
energy

$$$$
24:0
     RDKit          3D

 46 49  0  0  0  0  0  0  0  0999 V2000
   -0.4450   22.8040  -29.7170 C   0  0  0  0  0  0  0  0  0  0  0  0
   -1.1380   23.6880  -28.7230 C   0  0  0  0  0  0  0  0  0  0  0  0
   -2.5080   23.7680  -28.4930 C   0  0  0  0  0  0  0  0  0  0  0  0
   -3.5680   23.0620  -29.1520 N   0  0  0  0  0  0  0  0  0  0  0  0
   -4.1320   23.4900  -30.4000 C   0  0  0  0  0  0  0  0  0  0  0  0
   -3.8910   24.6480  -30.8370 O   0  0  0  0  0  0  0  0  0  0  0  0
   -5.0220   22.6060  -31.1690 C   0  0  0  0  0  0  0  0  0  0  0  0
   -4.8210   21.2680  -31.4470 C   0  0  0  0  0  0  0  0  0  0  0  0
   -5.9270   20.9200  -32.2010 C   0  0  0  0  0  0  0  0  0  0  0  0
   -6.2440   19.5950  -32.7810 C   0  0  0  0  0  0  0  0  0  0  0  0
   -7.0600   18.7010  -32.0650 C   0  0  0  0  0  0  0  0  0  0  0  0
   -7.3720   17.4460  -32.5960 C   0  0  0  0  0  0  0  0  0  0  0  0
   -6.8730   17.0690  -33.8460 C   0  0  0  0  0  0  0  0  0  0  0  0
   -7.1830   15.8210  -34.3710 O   0  0  0  0  0  0  0  0  0  0  0  0
   -6.0610   17.9490  -34.5660 C   0  0  0  0  0  0  0  0  0  0  0  0
   -5.7470   19.2060  -34.0400 C   0  0  0  0  0  0  0  0  0  0  0  0
   -6.6880   21.9840  -32.3360 O   0  0  0  0  0  0  0  0  0  0  0  0
   -6.1760   23.0140  -31.7310 N   0  0  0  0  0  0  0  0  0  0  0  0
   -2.6360   24.5850  -27.3940 C   0  0  0  0  0  0  0  0  0  0  0  0
   -3.7180   24.8930  -26.8260 O   0  0  0  0  0  0  0  0  0  0  0  0
   -1.4190   25.0200  -27.0110 N   0  0  0  0  0  0  0  0  0  0  0  0
   -1.1540   25.8770  -25.8890 C   0  0  0  0  0  0  0  0  0  0  0  0
   -1.1370   27.2700  -26.0560 C   0  0  0  0  0  0  0  0  0  0  0  0
   -0.8570   28.1040  -24.9700 C   0  0  0  0  0  0  0  0  0  0  0  0
   -0.5820   27.5530  -23.7160 C   0  0  0  0  0  0  0  0  0  0  0  0
   -0.5840   26.1640  -23.5470 C   0  0  0  0  0  0  0  0  0  0  0  0
   -0.8650   25.3270  -24.6320 C   0  0  0  0  0  0  0  0  0  0  0  0
   -0.5070   24.4890  -27.8240 N   0  0  0  0  0  0  0  0  0  0  0  0
    0.9450   24.5760  -27.6390 C   0  0  0  0  0  0  0  0  0  0  0  0
    0.1484   22.0470  -29.1833 H   0  0  0  0  0  0  0  0  0  0  0  0
   -1.1944   22.3042  -30.3483 H   0  0  0  0  0  0  0  0  0  0  0  0
    0.2192   23.4125  -30.3483 H   0  0  0  0  0  0  0  0  0  0  0  0
   -4.0510   22.3070  -28.6160 H   0  0  0  0  0  0  0  0  0  0  0  0
   -3.9793   20.6295  -31.1407 H   0  0  0  0  0  0  0  0  0  0  0  0
   -7.4555   18.9912  -31.0804 H   0  0  0  0  0  0  0  0  0  0  0  0
   -8.0116   16.7537  -32.0289 H   0  0  0  0  0  0  0  0  0  0  0  0
   -5.6676   17.6522  -35.5494 H   0  0  0  0  0  0  0  0  0  0  0  0
   -5.1084   19.8947  -34.6126 H   0  0  0  0  0  0  0  0  0  0  0  0
   -1.3445   27.7067  -27.0440 H   0  0  0  0  0  0  0  0  0  0  0  0
   -0.8531   29.1959  -25.1028 H   0  0  0  0  0  0  0  0  0  0  0  0
   -0.3640   28.2109  -22.8618 H   0  0  0  0  0  0  0  0  0  0  0  0
   -0.3645   25.7300  -22.5604 H   0  0  0  0  0  0  0  0  0  0  0  0
   -0.8592   24.2351  -24.4988 H   0  0  0  0  0  0  0  0  0  0  0  0
    1.1775   24.5899  -26.5639 H   0  0  0  0  0  0  0  0  0  0  0  0
    1.4271   23.7051  -28.1071 H   0  0  0  0  0  0  0  0  0  0  0  0
    1.3197   25.4982  -28.1071 H   0  0  0  0  0  0  0  0  0  0  0  0
  1  2  1  0
  2  3  2  0
  3  4  1  0
  4  5  1  0
  5  6  2  0
  5  7  1  0
  7  8  1  0
  8  9  2  0
  9 10  1  0
 10 11  2  0
 11 12  1  0
 12 13  2  0
 13 14  1  0
 13 15  1  0
 15 16  2  0
  9 17  1  0
 17 18  1  0
  3 19  1  0
 19 20  2  0
 19 21  1  0
 21 22  1  0
 22 23  2  0
 23 24  1  0
 24 25  2  0
 25 26  1  0
 26 27  2  0
 21 28  1  0
 28 29  1  0
 28  2  1  0
 18  7  2  0
 27 22  1  0
 16 10  1  0
  1 30  1  0
  1 31  1  0
  1 32  1  0
  4 33  1  0
  8 34  1  0
 11 35  1  0
 12 36  1  0
 15 37  1  0
 16 38  1  0
 23 39  1  0
 24 40  1  0
 25 41  1  0
 26 42  1  0
 27 43  1  0
 29 44  1  0
 29 45  1  0
 29 46  1  0
M  CHG  1  14  -1
M  END
>  <UniqueID>  (25) 
23

>  <SMILES>  (25) 
Cc1c(NC(=O)c2cc(-c3ccc([O-])cc3)on2)c(=O)n(-c2ccccc2)n1C

>  <Energy>  (25) 
127.10231480250718

>  <Genealogy>  (25) 
Cc1c(NC(=O)c2cc(-c3ccc([O-])cc3)on2)c(=O)n(-c2ccccc2)n1C (protonated)
Cc1c(NC(=O)c2cc(-c3ccc([O-])cc3)on2)c(=O)n(-c2ccccc2)n1C (3D coordinates assigned)
Cc1c(NC(=O)c2cc(-c3ccc([O-])cc3)on2)c(=O)n(-c2ccccc2)n1C (optimized conformer: 127.10231480250718 kcal/mol)

>  <smiles>  (25) 
Cc1c(NC(=O)c2cc(-c3ccc(O)cc3)on2)c(=O)n(-c2ccccc2)n1C

>  <score_type>  (25) 
oracle

>  <origin>  (25) 
adgpu

>  <m_score__min__energy>  (25) 
-9.1400000000000006

>  <m_primary>  (25) 
energy

$$$$
25:0
     RDKit          3D

 53 56  0  0  0  0  0  0  0  0999 V2000
   -3.0610   21.1630  -33.3960 C   0  0  0  0  0  0  0  0  0  0  0  0
   -4.1570   20.2590  -33.4770 O   0  0  0  0  0  0  0  0  0  0  0  0
   -4.0570   18.9180  -33.8830 C   0  0  0  0  0  0  0  0  0  0  0  0
   -2.8080   18.2990  -34.0960 C   0  0  0  0  0  0  0  0  0  0  0  0
   -2.7400   16.9630  -34.4920 C   0  0  0  0  0  0  0  0  0  0  0  0
   -3.9100   16.2320  -34.6870 C   0  0  0  0  0  0  0  0  0  0  0  0
   -5.1540   16.8310  -34.4800 C   0  0  0  0  0  0  0  0  0  0  0  0
   -5.2400   18.1740  -34.0700 C   0  0  0  0  0  0  0  0  0  0  0  0
   -6.5200   18.7930  -33.8450 N   0  0  0  0  0  0  0  0  0  0  0  0
   -7.1900   19.0130  -32.2590 S   0  0  0  0  0  0  0  0  0  0  0  0
   -6.1930   18.5530  -31.2310 O   0  0  0  0  0  0  0  0  0  0  0  0
   -8.4440   18.1950  -32.1260 O   0  0  0  0  0  0  0  0  0  0  0  0
   -7.5930   20.7120  -32.0310 C   0  0  0  0  0  0  0  0  0  0  0  0
   -8.9380   21.1000  -32.0040 C   0  0  0  0  0  0  0  0  0  0  0  0
   -9.2760   22.4520  -31.9200 C   0  0  0  0  0  0  0  0  0  0  0  0
   -8.2730   23.4220  -31.8770 C   0  0  0  0  0  0  0  0  0  0  0  0
   -6.9200   23.0450  -31.9080 C   0  0  0  0  0  0  0  0  0  0  0  0
   -5.8690   24.0170  -31.9220 N   0  0  0  0  0  0  0  0  0  0  0  0
   -5.0630   24.5620  -30.4890 S   0  0  0  0  0  0  0  0  0  0  0  0
   -6.0610   25.2110  -29.5720 O   0  0  0  0  0  0  0  0  0  0  0  0
   -4.0040   25.5700  -30.8400 O   0  0  0  0  0  0  0  0  0  0  0  0
   -4.3640   23.1630  -29.6790 C   0  0  0  0  0  0  0  0  0  0  0  0
   -3.8370   22.1150  -30.4430 C   0  0  0  0  0  0  0  0  0  0  0  0
   -3.1940   21.0420  -29.8210 C   0  0  0  0  0  0  0  0  0  0  0  0
   -3.0540   21.0130  -28.4230 C   0  0  0  0  0  0  0  0  0  0  0  0
   -2.3300   19.9100  -27.7640 C   0  0  0  0  0  0  0  0  0  0  0  0
   -2.7470   19.2840  -26.6450 N   0  0  0  0  0  0  0  0  0  0  0  0
   -1.8440   18.3530  -26.3790 N   0  0  0  0  0  0  0  0  0  0  0  0
   -0.9110   18.4490  -27.3430 C   0  0  0  0  0  0  0  0  0  0  0  0
    0.2810   17.5610  -27.4450 C   0  0  0  0  0  0  0  0  0  0  0  0
   -1.2020   19.3990  -28.1980 O   0  0  0  0  0  0  0  0  0  0  0  0
   -3.5930   22.0610  -27.6590 C   0  0  0  0  0  0  0  0  0  0  0  0
   -4.2470   23.1270  -28.2830 C   0  0  0  0  0  0  0  0  0  0  0  0
   -6.5870   21.6850  -31.9600 C   0  0  0  0  0  0  0  0  0  0  0  0
   -2.8241   21.3584  -32.3397 H   0  0  0  0  0  0  0  0  0  0  0  0
   -2.1843   20.7218  -33.8928 H   0  0  0  0  0  0  0  0  0  0  0  0
   -3.3273   22.1076  -33.8928 H   0  0  0  0  0  0  0  0  0  0  0  0
   -1.8814   18.8732  -33.9490 H   0  0  0  0  0  0  0  0  0  0  0  0
   -1.7615   16.4861  -34.6505 H   0  0  0  0  0  0  0  0  0  0  0  0
   -3.8534   15.1804  -35.0048 H   0  0  0  0  0  0  0  0  0  0  0  0
   -6.0736   16.2486  -34.6386 H   0  0  0  0  0  0  0  0  0  0  0  0
   -7.0010   19.2840  -34.6320 H   0  0  0  0  0  0  0  0  0  0  0  0
   -9.7301   20.3380  -32.0491 H   0  0  0  0  0  0  0  0  0  0  0  0
  -10.3335   22.7531  -31.8877 H   0  0  0  0  0  0  0  0  0  0  0  0
   -8.5433   24.4867  -31.8186 H   0  0  0  0  0  0  0  0  0  0  0  0
   -3.9297   22.1365  -31.5389 H   0  0  0  0  0  0  0  0  0  0  0  0
   -2.7954   20.2160  -30.4284 H   0  0  0  0  0  0  0  0  0  0  0  0
    0.6313   17.3000  -26.4354 H   0  0  0  0  0  0  0  0  0  0  0  0
    0.0093   16.6434  -27.9874 H   0  0  0  0  0  0  0  0  0  0  0  0
    1.0824   18.0839  -27.9874 H   0  0  0  0  0  0  0  0  0  0  0  0
   -3.4999   22.0427  -26.5631 H   0  0  0  0  0  0  0  0  0  0  0  0
   -4.6713   23.9405  -27.6762 H   0  0  0  0  0  0  0  0  0  0  0  0
   -5.5304   21.3795  -31.9450 H   0  0  0  0  0  0  0  0  0  0  0  0
  1  2  1  0
  2  3  1  0
  3  4  2  0
  4  5  1  0
  5  6  2  0
  6  7  1  0
  7  8  2  0
  8  9  1  0
  9 10  1  0
 10 11  2  0
 10 12  2  0
 10 13  1  0
 13 14  2  0
 14 15  1  0
 15 16  2  0
 16 17  1  0
 17 18  1  0
 18 19  1  0
 19 20  2  0
 19 21  2  0
 19 22  1  0
 22 23  2  0
 23 24  1  0
 24 25  2  0
 25 26  1  0
 26 27  2  0
 27 28  1  0
 28 29  2  0
 29 30  1  0
 29 31  1  0
 25 32  1  0
 32 33  2  0
 17 34  2  0
  8  3  1  0
 34 13  1  0
 33 22  1  0
 31 26  1  0
  1 35  1  0
  1 36  1  0
  1 37  1  0
  4 38  1  0
  5 39  1  0
  6 40  1  0
  7 41  1  0
  9 42  1  0
 14 43  1  0
 15 44  1  0
 16 45  1  0
 23 46  1  0
 24 47  1  0
 30 48  1  0
 30 49  1  0
 30 50  1  0
 32 51  1  0
 33 52  1  0
 34 53  1  0
M  CHG  1  18  -1
M  END
>  <UniqueID>  (26) 
24

>  <SMILES>  (26) 
COc1ccccc1NS(=O)(=O)c1cccc([N-]S(=O)(=O)c2ccc(-c3nnc(C)o3)cc2)c1

>  <Energy>  (26) 
95.12015735028069

>  <Genealogy>  (26) 
COc1ccccc1NS(=O)(=O)c1cccc([N-]S(=O)(=O)c2ccc(-c3nnc(C)o3)cc2)c1 (protonated)
COc1ccccc1NS(=O)(=O)c1cccc([N-]S(=O)(=O)c2ccc(-c3nnc(C)o3)cc2)c1 (3D coordinates assigned)
COc1ccccc1NS(=O)(=O)c1cccc([N-]S(=O)(=O)c2ccc(-c3nnc(C)o3)cc2)c1 (optimized conformer: 95.12015735028069 kcal/mol)

>  <smiles>  (26) 
COc1ccccc1NS(=O)(=O)c1cccc(NS(=O)(=O)c2ccc(-c3nnc(C)o3)cc2)c1

>  <score_type>  (26) 
oracle

>  <origin>  (26) 
adgpu

>  <m_score__min__energy>  (26) 
-11.460000000000001

>  <m_primary>  (26) 
energy

$$$$
26:0
     RDKit          3D

 47 50  0  0  0  0  0  0  0  0999 V2000
   -6.4230   13.3490  -34.8900 C   0  0  0  0  0  0  0  0  0  0  0  0
   -5.8020   13.2100  -33.5240 C   0  0  0  0  0  0  0  0  0  0  0  0
   -5.9400   11.9910  -32.8370 C   0  0  0  0  0  0  0  0  0  0  0  0
   -5.3600   11.8160  -31.5790 C   0  0  0  0  0  0  0  0  0  0  0  0
   -4.6400   12.8550  -30.9890 C   0  0  0  0  0  0  0  0  0  0  0  0
   -4.5080   14.0780  -31.6490 C   0  0  0  0  0  0  0  0  0  0  0  0
   -5.0980   14.2770  -32.9090 C   0  0  0  0  0  0  0  0  0  0  0  0
   -4.9540   15.6010  -33.5570 C   0  0  0  0  0  0  0  0  0  0  0  0
   -4.2610   15.7260  -34.7710 C   0  0  0  0  0  0  0  0  0  0  0  0
   -4.1320   16.9760  -35.3790 C   0  0  0  0  0  0  0  0  0  0  0  0
   -4.7000   18.1070  -34.7900 C   0  0  0  0  0  0  0  0  0  0  0  0
   -5.4160   18.0000  -33.5830 C   0  0  0  0  0  0  0  0  0  0  0  0
   -6.0200   19.2050  -32.9610 C   0  0  0  0  0  0  0  0  0  0  0  0
   -7.3940   19.2990  -32.6940 C   0  0  0  0  0  0  0  0  0  0  0  0
   -8.0140   20.4190  -32.0980 C   0  0  0  0  0  0  0  0  0  0  0  0
   -9.2600   20.3730  -31.9200 O   0  0  0  0  0  0  0  0  0  0  0  0
   -7.3350   21.5890  -31.6920 C   0  0  0  0  0  0  0  0  0  0  0  0
   -5.9550   21.7920  -31.8370 C   0  0  0  0  0  0  0  0  0  0  0  0
   -5.3070   23.0020  -31.3950 N   0  0  0  0  0  0  0  0  0  0  0  0
   -3.8620   23.0070  -31.1350 C   0  0  0  0  0  0  0  0  0  0  0  0
   -3.5230   24.0730  -30.0900 C   0  0  0  0  0  0  0  0  0  0  0  0
   -4.0590   25.3290  -30.4610 O   0  0  0  0  0  0  0  0  0  0  0  0
   -5.4720   25.2650  -30.4530 C   0  0  0  0  0  0  0  0  0  0  0  0
   -5.9790   24.3000  -31.5290 C   0  0  0  0  0  0  0  0  0  0  0  0
   -5.0620   20.5360  -32.5400 S   0  0  0  0  0  0  0  0  0  0  0  0
   -5.5360   16.7370  -32.9730 C   0  0  0  0  0  0  0  0  0  0  0  0
   -7.4915   13.5882  -34.7844 H   0  0  0  0  0  0  0  0  0  0  0  0
   -5.9192   14.1566  -35.4413 H   0  0  0  0  0  0  0  0  0  0  0  0
   -6.3116   12.4037  -35.4413 H   0  0  0  0  0  0  0  0  0  0  0  0
   -6.5095   11.1685  -33.2943 H   0  0  0  0  0  0  0  0  0  0  0  0
   -5.4710   10.8568  -31.0521 H   0  0  0  0  0  0  0  0  0  0  0  0
   -4.1756   12.7104  -30.0024 H   0  0  0  0  0  0  0  0  0  0  0  0
   -3.9375   14.8927  -31.1790 H   0  0  0  0  0  0  0  0  0  0  0  0
   -3.8185   14.8371  -35.2444 H   0  0  0  0  0  0  0  0  0  0  0  0
   -3.5805   17.0701  -36.3261 H   0  0  0  0  0  0  0  0  0  0  0  0
   -4.5872   19.0890  -35.2727 H   0  0  0  0  0  0  0  0  0  0  0  0
   -8.0302   18.4441  -32.9668 H   0  0  0  0  0  0  0  0  0  0  0  0
   -7.9274   22.3936  -31.2320 H   0  0  0  0  0  0  0  0  0  0  0  0
   -3.5556   22.0191  -30.7606 H   0  0  0  0  0  0  0  0  0  0  0  0
   -3.3273   23.2335  -32.0692 H   0  0  0  0  0  0  0  0  0  0  0  0
   -3.9449   23.7734  -29.1193 H   0  0  0  0  0  0  0  0  0  0  0  0
   -2.4289   24.1633  -30.0206 H   0  0  0  0  0  0  0  0  0  0  0  0
   -5.8116   24.9160  -29.4667 H   0  0  0  0  0  0  0  0  0  0  0  0
   -5.8715   26.2682  -30.6627 H   0  0  0  0  0  0  0  0  0  0  0  0
   -7.0642   24.1623  -31.4129 H   0  0  0  0  0  0  0  0  0  0  0  0
   -5.7607   24.7192  -32.5223 H   0  0  0  0  0  0  0  0  0  0  0  0
   -6.0917   16.6393  -32.0287 H   0  0  0  0  0  0  0  0  0  0  0  0
  1  2  1  0
  2  3  2  0
  3  4  1  0
  4  5  2  0
  5  6  1  0
  6  7  2  0
  7  8  1  0
  8  9  2  0
  9 10  1  0
 10 11  2  0
 11 12  1  0
 12 13  1  0
 13 14  2  0
 14 15  1  0
 15 16  2  0
 15 17  1  0
 17 18  2  0
 18 19  1  0
 19 20  1  0
 20 21  1  0
 21 22  1  0
 22 23  1  0
 23 24  1  0
 18 25  1  0
 12 26  2  0
  7  2  1  0
 26  8  1  0
 25 13  1  0
 24 19  1  0
  1 27  1  0
  1 28  1  0
  1 29  1  0
  3 30  1  0
  4 31  1  0
  5 32  1  0
  6 33  1  0
  9 34  1  0
 10 35  1  0
 11 36  1  0
 14 37  1  0
 17 38  1  0
 20 39  1  0
 20 40  1  0
 21 41  1  0
 21 42  1  0
 23 43  1  0
 23 44  1  0
 24 45  1  0
 24 46  1  0
 26 47  1  0
M  END
>  <UniqueID>  (27) 
25

>  <SMILES>  (27) 
Cc1ccccc1-c1cccc(-c2cc(=O)cc(N3CCOCC3)s2)c1

>  <Energy>  (27) 
68.89641034590866

>  <Genealogy>  (27) 
Cc1ccccc1-c1cccc(-c2cc(=O)cc(N3CCOCC3)s2)c1 (3D coordinates assigned)
Cc1ccccc1-c1cccc(-c2cc(=O)cc(N3CCOCC3)s2)c1 (nonaromatic ring conformer: 68.89641034590866 kcal/mol)

>  <smiles>  (27) 
Cc1ccccc1-c1cccc(-c2cc(=O)cc(N3CCOCC3)s2)c1

>  <score_type>  (27) 
oracle

>  <origin>  (27) 
adgpu

>  <m_score__min__energy>  (27) 
-9.4800000000000004

>  <m_primary>  (27) 
energy

$$$$
27:0
     RDKit          3D

 62 65  0  0  0  0  0  0  0  0999 V2000
   -1.9420   25.8200  -25.2390 C   0  0  0  0  0  0  0  0  0  0  0  0
   -1.2370   26.0670  -26.3480 C   0  0  0  0  0  0  0  0  0  0  0  0
   -1.5080   25.4320  -27.6550 C   0  0  0  0  0  0  0  0  0  0  0  0
   -0.5710   25.3750  -28.4930 O   0  0  0  0  0  0  0  0  0  0  0  0
   -2.8140   24.9340  -28.0010 N   0  0  0  0  0  0  0  0  0  0  0  0
   -3.0640   23.9690  -29.0420 C   0  0  0  0  0  0  0  0  0  0  0  0
   -2.1110   23.0000  -29.3990 C   0  0  0  0  0  0  0  0  0  0  0  0
   -2.3860   22.0760  -30.4110 C   0  0  0  0  0  0  0  0  0  0  0  0
   -3.6250   22.0920  -31.0730 C   0  0  0  0  0  0  0  0  0  0  0  0
   -3.9300   21.1370  -32.1050 N   0  0  0  0  0  0  0  0  0  0  0  0
   -5.1410   20.6570  -32.3290 N   0  0  0  0  0  0  0  0  0  0  0  0
   -5.0210   19.8240  -33.3820 C   0  0  0  0  0  0  0  0  0  0  0  0
   -6.1760   19.1110  -34.0000 C   0  0  0  0  0  0  0  0  0  0  0  0
   -3.7640   19.7730  -33.8740 N   0  0  0  0  0  0  0  0  0  0  0  0
   -3.1130   20.6090  -33.0400 C   0  0  0  0  0  0  0  0  0  0  0  0
   -1.8570   20.9210  -33.1640 N   0  0  0  0  0  0  0  0  0  0  0  0
   -0.9930   20.3740  -34.2040 C   0  0  0  0  0  0  0  0  0  0  0  0
    0.2530   19.8180  -33.5770 C   0  0  0  0  0  0  0  0  0  0  0  0
    1.3190   19.3800  -34.3770 C   0  0  0  0  0  0  0  0  0  0  0  0
    2.4870   18.8900  -33.7870 C   0  0  0  0  0  0  0  0  0  0  0  0
    2.6020   18.8390  -32.3960 C   0  0  0  0  0  0  0  0  0  0  0  0
    1.5410   19.2730  -31.5840 C   0  0  0  0  0  0  0  0  0  0  0  0
    1.6380   19.2550  -30.1510 N   0  0  0  0  0  0  0  0  0  0  0  0
    0.7390   18.5920  -29.2540 C   0  0  0  0  0  0  0  0  0  0  0  0
    0.6760   17.3340  -29.2850 O   0  0  0  0  0  0  0  0  0  0  0  0
   -0.0660   19.3360  -28.2580 C   0  0  0  0  0  0  0  0  0  0  0  0
   -1.2310   18.7720  -27.7100 C   0  0  0  0  0  0  0  0  0  0  0  0
   -1.9950   19.4810  -26.7720 C   0  0  0  0  0  0  0  0  0  0  0  0
   -3.2580   18.8850  -26.2250 C   0  0  0  0  0  0  0  0  0  0  0  0
   -1.6080   20.7780  -26.4040 C   0  0  0  0  0  0  0  0  0  0  0  0
   -0.4490   21.3550  -26.9430 C   0  0  0  0  0  0  0  0  0  0  0  0
   -0.0620   22.7570  -26.5730 C   0  0  0  0  0  0  0  0  0  0  0  0
    0.3070   20.6380  -27.8840 C   0  0  0  0  0  0  0  0  0  0  0  0
    0.3830   19.7850  -32.1800 C   0  0  0  0  0  0  0  0  0  0  0  0
   -4.5910   23.0300  -30.6840 C   0  0  0  0  0  0  0  0  0  0  0  0
   -4.3110   23.9610  -29.6820 C   0  0  0  0  0  0  0  0  0  0  0  0
   -1.6845   26.3294  -24.2987 H   0  0  0  0  0  0  0  0  0  0  0  0
   -2.7795   25.1074  -25.2670 H   0  0  0  0  0  0  0  0  0  0  0  0
   -0.4063   26.7852  -26.2839 H   0  0  0  0  0  0  0  0  0  0  0  0
   -3.6450   25.3920  -27.5610 H   0  0  0  0  0  0  0  0  0  0  0  0
   -1.1424   22.9685  -28.8787 H   0  0  0  0  0  0  0  0  0  0  0  0
   -1.6268   21.3309  -30.6911 H   0  0  0  0  0  0  0  0  0  0  0  0
   -6.8256   18.7100  -33.2081 H   0  0  0  0  0  0  0  0  0  0  0  0
   -6.7489   19.8128  -34.6239 H   0  0  0  0  0  0  0  0  0  0  0  0
   -5.8053   18.2843  -34.6239 H   0  0  0  0  0  0  0  0  0  0  0  0
   -1.5241   19.5723  -34.7380 H   0  0  0  0  0  0  0  0  0  0  0  0
   -0.7231   21.1702  -34.9134 H   0  0  0  0  0  0  0  0  0  0  0  0
    1.2350   19.4225  -35.4730 H   0  0  0  0  0  0  0  0  0  0  0  0
    3.3177   18.5437  -34.4194 H   0  0  0  0  0  0  0  0  0  0  0  0
    3.5254   18.4582  -31.9353 H   0  0  0  0  0  0  0  0  0  0  0  0
   -1.5464   17.7648  -28.0199 H   0  0  0  0  0  0  0  0  0  0  0  0
   -3.2247   18.9007  -25.1256 H   0  0  0  0  0  0  0  0  0  0  0  0
   -4.1211   19.4708  -26.5741 H   0  0  0  0  0  0  0  0  0  0  0  0
   -3.3545   17.8463  -26.5741 H   0  0  0  0  0  0  0  0  0  0  0  0
   -2.2183   21.3469  -25.6871 H   0  0  0  0  0  0  0  0  0  0  0  0
   -0.0355   22.8531  -25.4775 H   0  0  0  0  0  0  0  0  0  0  0  0
    0.9323   22.9838  -26.9851 H   0  0  0  0  0  0  0  0  0  0  0  0
   -0.7992   23.4618  -26.9851 H   0  0  0  0  0  0  0  0  0  0  0  0
    1.1991   21.0996  -28.3324 H   0  0  0  0  0  0  0  0  0  0  0  0
   -0.4329   20.1651  -31.5477 H   0  0  0  0  0  0  0  0  0  0  0  0
   -5.5770   23.0327  -31.1717 H   0  0  0  0  0  0  0  0  0  0  0  0
   -5.0767   24.6956  -29.3919 H   0  0  0  0  0  0  0  0  0  0  0  0
  1  2  2  0
  2  3  1  0
  3  4  2  0
  3  5  1  0
  5  6  1  0
  6  7  2  0
  7  8  1  0
  8  9  2  0
  9 10  1  0
 10 11  1  0
 11 12  2  0
 12 13  1  0
 12 14  1  0
 14 15  1  0
 15 16  2  3
 16 17  1  0
 17 18  1  0
 18 19  2  0
 19 20  1  0
 20 21  2  0
 21 22  1  0
 22 23  1  0
 23 24  1  0
 24 25  2  0
 24 26  1  0
 26 27  2  0
 27 28  1  0
 28 29  1  0
 28 30  2  0
 30 31  1  0
 31 32  1  0
 31 33  2  0
 22 34  2  0
  9 35  1  0
 35 36  2  0
 36  6  1  0
 15 10  1  0
 34 18  1  0
 33 26  1  0
  1 37  1  0
  1 38  1  0
  2 39  1  0
  5 40  1  0
  7 41  1  0
  8 42  1  0
 13 43  1  0
 13 44  1  0
 13 45  1  0
 17 46  1  0
 17 47  1  0
 19 48  1  0
 20 49  1  0
 21 50  1  0
 27 51  1  0
 29 52  1  0
 29 53  1  0
 29 54  1  0
 30 55  1  0
 32 56  1  0
 32 57  1  0
 32 58  1  0
 33 59  1  0
 34 60  1  0
 35 61  1  0
 36 62  1  0
M  CHG  2  14  -1  23  -1
M  END
>  <UniqueID>  (28) 
26

>  <SMILES>  (28) 
C=CC(=O)Nc1ccc(-n2nc(C)[n-]c2=NCc2cccc([N-]C(=O)c3cc(C)cc(C)c3)c2)cc1

>  <Energy>  (28) 
108.68461748060386

>  <Genealogy>  (28) 
C=CC(=O)Nc1ccc(-n2nc(C)[n-]c2=NCc2cccc([N-]C(=O)c3cc(C)cc(C)c3)c2)cc1 (protonated)
C=CC(=O)Nc1ccc(-n2nc(C)[n-]c2=NCc2cccc([N-]C(=O)c3cc(C)cc(C)c3)c2)cc1 (3D coordinates assigned)
C=CC(=O)Nc1ccc(-n2nc(C)[n-]c2=NCc2cccc([N-]C(=O)c3cc(C)cc(C)c3)c2)cc1 (optimized conformer: 108.68461748060386 kcal/mol)

>  <smiles>  (28) 
C=CC(=O)Nc1ccc(-n2nc(C)[nH]c2=NCc2cccc(NC(=O)c3cc(C)cc(C)c3)c2)cc1

>  <score_type>  (28) 
oracle

>  <origin>  (28) 
adgpu

>  <m_score__min__energy>  (28) 
-12.1

>  <m_primary>  (28) 
energy

$$$$
28:0
     RDKit          3D

 54 57  0  0  0  0  0  0  0  0999 V2000
   -3.9280   17.6488  -35.9024 H   0  0  0  0  0  0  0  0  0  0  0  0
   -4.3540   17.0680  -35.0710 C   0  0  0  0  0  0  0  0  0  0  0  0
   -3.8910   15.7740  -34.8200 C   0  0  0  0  0  0  0  0  0  0  0  0
   -3.0900   15.3489  -35.4426 H   0  0  0  0  0  0  0  0  0  0  0  0
   -4.4420   15.0150  -33.7790 C   0  0  0  0  0  0  0  0  0  0  0  0
   -3.9040   13.6410  -33.4750 C   0  0  0  0  0  0  0  0  0  0  0  0
   -2.8598   13.7335  -33.1417 H   0  0  0  0  0  0  0  0  0  0  0  0
   -3.9753   13.0362  -34.3910 H   0  0  0  0  0  0  0  0  0  0  0  0
   -4.7160   12.9390  -32.3760 C   0  0  0  0  0  0  0  0  0  0  0  0
   -4.6322   11.8511  -32.5157 H   0  0  0  0  0  0  0  0  0  0  0  0
   -5.7588   13.2784  -32.4622 H   0  0  0  0  0  0  0  0  0  0  0  0
   -4.2270   13.2920  -30.9720 C   0  0  0  0  0  0  0  0  0  0  0  0
   -4.8823   12.8190  -30.2258 H   0  0  0  0  0  0  0  0  0  0  0  0
   -3.1977   12.9273  -30.8398 H   0  0  0  0  0  0  0  0  0  0  0  0
   -4.2490   14.3838  -30.8398 H   0  0  0  0  0  0  0  0  0  0  0  0
   -5.4730   15.5630  -32.9990 C   0  0  0  0  0  0  0  0  0  0  0  0
   -5.9179   14.9687  -32.1873 H   0  0  0  0  0  0  0  0  0  0  0  0
   -5.9390   16.8590  -33.2460 C   0  0  0  0  0  0  0  0  0  0  0  0
   -7.2840   17.4640  -32.2870 Cl  0  0  0  0  0  0  0  0  0  0  0  0
   -5.3550   17.6300  -34.2730 C   0  0  0  0  0  0  0  0  0  0  0  0
   -5.7560   18.9470  -34.5340 O   0  0  0  0  0  0  0  0  0  0  0  0
   -5.5030   20.0480  -33.6980 C   0  0  0  0  0  0  0  0  0  0  0  0
   -4.1700   20.3920  -33.4590 C   0  0  0  0  0  0  0  0  0  0  0  0
   -3.3649   19.7937  -33.9105 H   0  0  0  0  0  0  0  0  0  0  0  0
   -3.8480   21.4860  -32.6540 C   0  0  0  0  0  0  0  0  0  0  0  0
   -2.7930   21.7461  -32.4829 H   0  0  0  0  0  0  0  0  0  0  0  0
   -4.8610   22.2570  -32.0610 C   0  0  0  0  0  0  0  0  0  0  0  0
   -4.5400   23.4280  -31.2090 C   0  0  0  0  0  0  0  0  0  0  0  0
   -3.3530   23.5960  -30.5870 N   0  0  0  0  0  0  0  0  0  0  0  0
   -3.4940   24.7650  -29.9290 C   0  0  0  0  0  0  0  0  0  0  0  0
   -2.5640   25.2980  -29.1930 N   0  0  0  0  0  0  0  0  0  0  0  0
   -1.2490   24.7020  -28.9710 C   0  0  0  0  0  0  0  0  0  0  0  0
   -0.7875   24.4695  -29.9421 H   0  0  0  0  0  0  0  0  0  0  0  0
   -0.6220   25.4158  -28.4166 H   0  0  0  0  0  0  0  0  0  0  0  0
   -1.3800   23.4100  -28.1500 C   0  0  0  0  0  0  0  0  0  0  0  0
   -2.2100   23.7672  -27.5228 H   0  0  0  0  0  0  0  0  0  0  0  0
   -1.0750   22.1280  -28.9070 C   0  0  0  0  0  0  0  0  0  0  0  0
   -1.6424   21.2115  -28.6876 H   0  0  0  0  0  0  0  0  0  0  0  0
   -1.0271   21.8442  -29.9687 H   0  0  0  0  0  0  0  0  0  0  0  0
   -0.0790   22.6670  -27.8920 C   0  0  0  0  0  0  0  0  0  0  0  0
    0.0740   22.1405  -26.9384 H   0  0  0  0  0  0  0  0  0  0  0  0
    0.9877   22.9348  -27.9152 H   0  0  0  0  0  0  0  0  0  0  0  0
   -4.6970   25.3380  -30.1060 N   0  0  0  0  0  0  0  0  0  0  0  0
   -5.0430   26.2380  -29.7020 H   0  0  0  0  0  0  0  0  0  0  0  0
   -5.3670   24.5010  -30.9130 C   0  0  0  0  0  0  0  0  0  0  0  0
   -6.3954   24.6418  -31.2771 H   0  0  0  0  0  0  0  0  0  0  0  0
   -6.2030   21.8970  -32.2780 C   0  0  0  0  0  0  0  0  0  0  0  0
   -7.0045   22.4892  -31.8123 H   0  0  0  0  0  0  0  0  0  0  0  0
   -6.5370   20.7890  -33.0830 C   0  0  0  0  0  0  0  0  0  0  0  0
   -7.8710   20.3940  -33.2730 O   0  0  0  0  0  0  0  0  0  0  0  0
   -8.8910   20.4660  -32.2820 C   0  0  0  0  0  0  0  0  0  0  0  0
   -8.4337   20.4337  -31.2821 H   0  0  0  0  0  0  0  0  0  0  0  0
   -9.4504   21.4059  -32.3992 H   0  0  0  0  0  0  0  0  0  0  0  0
   -9.5769   19.6140  -32.3992 H   0  0  0  0  0  0  0  0  0  0  0  0
  1  2  1  0
  2  3  2  0
  3  4  1  0
  3  5  1  0
  5  6  1  0
  6  7  1  0
  6  8  1  0
  6  9  1  0
  9 10  1  0
  9 11  1  0
  9 12  1  0
 12 13  1  0
 12 14  1  0
 12 15  1  0
  5 16  2  0
 16 17  1  0
 16 18  1  0
 18 19  1  0
 18 20  2  0
 20 21  1  0
 21 22  1  0
 22 23  2  0
 23 24  1  0
 23 25  1  0
 25 26  1  0
 25 27  2  0
 27 28  1  0
 28 29  1  0
 29 30  1  0
 30 31  2  0
 31 32  1  0
 32 33  1  0
 32 34  1  0
 32 35  1  0
 35 36  1  0
 35 37  1  0
 37 38  1  0
 37 39  1  0
 37 40  1  0
 40 41  1  0
 40 42  1  0
 30 43  1  0
 43 44  1  0
 43 45  1  0
 45 46  1  0
 27 47  1  0
 47 48  1  0
 47 49  2  0
 49 50  1  0
 50 51  1  0
 51 52  1  0
 51 53  1  0
 51 54  1  0
 20  2  1  0
 49 22  1  0
 45 28  2  0
 40 35  1  0
M  CHG  1  29  -1
M  END
>  <UniqueID>  (29) 
27

>  <SMILES>  (29) 
CCCc1ccc(Oc2ccc(-c3c[nH]/c(=N/CC4CC4)[n-]3)cc2OC)c(Cl)c1

>  <Energy>  (29) 
352.9681252165215

>  <Genealogy>  (29) 
CCCc1ccc(Oc2ccc(-c3c[nH]c(=NCC4CC4)[n-]3)cc2OC)c(Cl)c1 (protonated)
CCCc1ccc(Oc2ccc(-c3c[nH]/c(=N/CC4CC4)[n-]3)cc2OC)c(Cl)c1 (cis-trans isomerization)
CCCc1ccc(Oc2ccc(-c3c[nH]/c(=N/CC4CC4)[n-]3)cc2OC)c(Cl)c1 (3D coordinates assigned)
CCCc1ccc(Oc2ccc(-c3c[nH]/c(=N/CC4CC4)[n-]3)cc2OC)c(Cl)c1 (nonaromatic ring conformer: 352.9681252165215 kcal/mol)

>  <smiles>  (29) 
CCCc1ccc(Oc2ccc(-c3c[nH]c(=NCC4CC4)[nH]3)cc2OC)c(Cl)c1

>  <score_type>  (29) 
oracle

>  <origin>  (29) 
adgpu

>  <m_score__min__energy>  (29) 
-9.8699999999999992

>  <m_primary>  (29) 
energy

$$$$
29:0
     RDKit          3D

 53 56  0  0  0  0  0  0  0  0999 V2000
   -1.4370   21.9210  -31.3440 C   0  0  0  0  0  0  0  0  0  0  0  0
   -2.5480   20.9190  -31.6470 C   0  0  0  0  0  0  0  0  0  0  0  0
   -3.2030   21.2100  -33.0020 C   0  0  0  0  0  0  0  0  0  0  0  0
   -4.6950   20.9980  -32.9250 C   0  0  0  0  0  0  0  0  0  0  0  0
   -5.2520   19.7940  -33.3870 C   0  0  0  0  0  0  0  0  0  0  0  0
   -6.6260   19.5670  -33.2950 C   0  0  0  0  0  0  0  0  0  0  0  0
   -7.4650   20.5310  -32.7320 C   0  0  0  0  0  0  0  0  0  0  0  0
   -6.9270   21.7360  -32.2490 C   0  0  0  0  0  0  0  0  0  0  0  0
   -7.7310   22.7310  -31.6700 C   0  0  0  0  0  0  0  0  0  0  0  0
   -8.9800   22.5860  -31.5780 O   0  0  0  0  0  0  0  0  0  0  0  0
   -7.1380   23.8980  -31.1930 C   0  0  0  0  0  0  0  0  0  0  0  0
   -5.7470   24.0530  -31.2970 C   0  0  0  0  0  0  0  0  0  0  0  0
   -5.0720   25.2640  -30.7880 C   0  0  0  0  0  0  0  0  0  0  0  0
   -5.7360   26.3250  -30.6550 O   0  0  0  0  0  0  0  0  0  0  0  0
   -3.6860   25.2610  -30.4190 N   0  0  0  0  0  0  0  0  0  0  0  0
   -3.0970   24.3630  -29.4690 C   0  0  0  0  0  0  0  0  0  0  0  0
   -3.8240   23.2470  -29.0400 C   0  0  0  0  0  0  0  0  0  0  0  0
   -3.2410   22.3190  -28.1730 C   0  0  0  0  0  0  0  0  0  0  0  0
   -1.9350   22.5140  -27.7040 C   0  0  0  0  0  0  0  0  0  0  0  0
   -1.1770   21.2820  -26.7010 S   0  0  0  0  0  0  0  0  0  0  0  0
   -2.1210   20.1230  -26.5570 O   0  0  0  0  0  0  0  0  0  0  0  0
   -0.8600   21.8170  -25.3330 O   0  0  0  0  0  0  0  0  0  0  0  0
    0.2820   20.7380  -27.4670 N   0  0  0  0  0  0  0  0  0  0  0  0
    0.3820   19.6110  -28.3480 C   0  0  0  0  0  0  0  0  0  0  0  0
    0.4840   18.3290  -27.7890 C   0  0  0  0  0  0  0  0  0  0  0  0
    0.5690   17.2020  -28.6130 C   0  0  0  0  0  0  0  0  0  0  0  0
    0.5590   17.3480  -30.0030 C   0  0  0  0  0  0  0  0  0  0  0  0
    0.4710   18.6210  -30.5690 C   0  0  0  0  0  0  0  0  0  0  0  0
    0.3860   19.7510  -29.7480 C   0  0  0  0  0  0  0  0  0  0  0  0
   -1.2270   23.6620  -28.0860 C   0  0  0  0  0  0  0  0  0  0  0  0
   -1.8040   24.5810  -28.9650 C   0  0  0  0  0  0  0  0  0  0  0  0
   -5.0160   23.1020  -31.8720 O   0  0  0  0  0  0  0  0  0  0  0  0
   -5.5340   21.9690  -32.3420 C   0  0  0  0  0  0  0  0  0  0  0  0
   -1.3230   22.0238  -30.2548 H   0  0  0  0  0  0  0  0  0  0  0  0
   -0.4922   21.5637  -31.7794 H   0  0  0  0  0  0  0  0  0  0  0  0
   -1.6952   22.8976  -31.7794 H   0  0  0  0  0  0  0  0  0  0  0  0
   -2.1216   19.9052  -31.6650 H   0  0  0  0  0  0  0  0  0  0  0  0
   -3.3159   21.0032  -30.8639 H   0  0  0  0  0  0  0  0  0  0  0  0
   -2.9999   22.2533  -33.2855 H   0  0  0  0  0  0  0  0  0  0  0  0
   -2.7849   20.5242  -33.7535 H   0  0  0  0  0  0  0  0  0  0  0  0
   -4.5999   19.0239  -33.8248 H   0  0  0  0  0  0  0  0  0  0  0  0
   -7.0505   18.6233  -33.6681 H   0  0  0  0  0  0  0  0  0  0  0  0
   -8.5475   20.3470  -32.6666 H   0  0  0  0  0  0  0  0  0  0  0  0
   -7.7533   24.6892  -30.7398 H   0  0  0  0  0  0  0  0  0  0  0  0
   -4.8576   23.0997  -29.3863 H   0  0  0  0  0  0  0  0  0  0  0  0
   -3.8096   21.4318  -27.8574 H   0  0  0  0  0  0  0  0  0  0  0  0
    0.4972   18.2089  -26.6957 H   0  0  0  0  0  0  0  0  0  0  0  0
    0.6438   16.1995  -28.1665 H   0  0  0  0  0  0  0  0  0  0  0  0
    0.6204   16.4607  -30.6503 H   0  0  0  0  0  0  0  0  0  0  0  0
    0.4685   18.7361  -31.6630 H   0  0  0  0  0  0  0  0  0  0  0  0
    0.3221   20.7523  -30.1988 H   0  0  0  0  0  0  0  0  0  0  0  0
   -0.2151   23.8393  -27.6927 H   0  0  0  0  0  0  0  0  0  0  0  0
   -1.2438   25.4792  -29.2639 H   0  0  0  0  0  0  0  0  0  0  0  0
  1  2  1  0
  2  3  1  0
  3  4  1  0
  4  5  2  0
  5  6  1  0
  6  7  2  0
  7  8  1  0
  8  9  1  0
  9 10  2  0
  9 11  1  0
 11 12  2  0
 12 13  1  0
 13 14  2  0
 13 15  1  0
 15 16  1  0
 16 17  2  0
 17 18  1  0
 18 19  2  0
 19 20  1  0
 20 21  2  0
 20 22  2  0
 20 23  1  0
 23 24  1  0
 24 25  2  0
 25 26  1  0
 26 27  2  0
 27 28  1  0
 28 29  2  0
 19 30  1  0
 30 31  2  0
 12 32  1  0
 32 33  1  0
 33  4  1  0
 33  8  2  0
 31 16  1  0
 29 24  1  0
  1 34  1  0
  1 35  1  0
  1 36  1  0
  2 37  1  0
  2 38  1  0
  3 39  1  0
  3 40  1  0
  5 41  1  0
  6 42  1  0
  7 43  1  0
 11 44  1  0
 17 45  1  0
 18 46  1  0
 25 47  1  0
 26 48  1  0
 27 49  1  0
 28 50  1  0
 29 51  1  0
 30 52  1  0
 31 53  1  0
M  CHG  2  15  -1  23  -1
M  END
>  <UniqueID>  (30) 
28

>  <SMILES>  (30) 
CCCc1cccc2c(=O)cc(C(=O)[N-]c3ccc(S(=O)(=O)[N-]c4ccccc4)cc3)oc12

>  <Energy>  (30) 
65.48150321966641

>  <Genealogy>  (30) 
CCCc1cccc2c(=O)cc(C(=O)[N-]c3ccc(S(=O)(=O)[N-]c4ccccc4)cc3)oc12 (protonated)
CCCc1cccc2c(=O)cc(C(=O)[N-]c3ccc(S(=O)(=O)[N-]c4ccccc4)cc3)oc12 (3D coordinates assigned)
CCCc1cccc2c(=O)cc(C(=O)[N-]c3ccc(S(=O)(=O)[N-]c4ccccc4)cc3)oc12 (optimized conformer: 65.48150321966641 kcal/mol)

>  <smiles>  (30) 
CCCc1cccc2c(=O)cc(C(=O)Nc3ccc(S(=O)(=O)Nc4ccccc4)cc3)oc12

>  <score_type>  (30) 
oracle

>  <origin>  (30) 
adgpu

>  <m_score__min__energy>  (30) 
-11.5

>  <m_primary>  (30) 
energy

$$$$
30:0
     RDKit          3D

 26 28  0  0  0  0  0  0  0  0999 V2000
   -4.1920   21.3750  -33.3240 O   0  0  0  0  0  0  0  0  0  0  0  0
   -5.2470   20.9010  -32.8340 C   0  0  0  0  0  0  0  0  0  0  0  0
   -5.7820   19.5920  -33.1810 C   0  0  0  0  0  0  0  0  0  0  0  0
   -5.3080   18.6210  -34.0610 C   0  0  0  0  0  0  0  0  0  0  0  0
   -6.0470   17.4320  -34.1950 C   0  0  0  0  0  0  0  0  0  0  0  0
   -7.2330   17.2420  -33.4520 C   0  0  0  0  0  0  0  0  0  0  0  0
   -7.6870   18.2400  -32.5710 C   0  0  0  0  0  0  0  0  0  0  0  0
   -6.9330   19.4070  -32.4600 C   0  0  0  0  0  0  0  0  0  0  0  0
   -7.1420   20.5980  -31.6470 C   0  0  0  0  0  0  0  0  0  0  0  0
   -8.1170   20.7460  -30.8670 O   0  0  0  0  0  0  0  0  0  0  0  0
   -6.0890   21.5630  -31.8630 N   0  0  0  0  0  0  0  0  0  0  0  0
   -5.9170   22.8770  -31.2530 C   0  0  0  0  0  0  0  0  0  0  0  0
   -7.0300   23.6470  -30.8380 C   0  0  0  0  0  0  0  0  0  0  0  0
   -6.8610   24.9050  -30.2530 C   0  0  0  0  0  0  0  0  0  0  0  0
   -5.5840   25.4290  -30.0690 C   0  0  0  0  0  0  0  0  0  0  0  0
   -4.4720   24.6940  -30.4680 C   0  0  0  0  0  0  0  0  0  0  0  0
   -4.6310   23.4340  -31.0520 C   0  0  0  0  0  0  0  0  0  0  0  0
   -4.3827   18.7799  -34.6342 H   0  0  0  0  0  0  0  0  0  0  0  0
   -5.6996   16.6461  -34.8818 H   0  0  0  0  0  0  0  0  0  0  0  0
   -7.8046   16.3087  -33.5629 H   0  0  0  0  0  0  0  0  0  0  0  0
   -8.6093   18.1036  -31.9872 H   0  0  0  0  0  0  0  0  0  0  0  0
   -8.0455   23.2483  -30.9784 H   0  0  0  0  0  0  0  0  0  0  0  0
   -7.7410   25.4840  -29.9364 H   0  0  0  0  0  0  0  0  0  0  0  0
   -5.4549   26.4203  -29.6099 H   0  0  0  0  0  0  0  0  0  0  0  0
   -3.4626   25.1066  -30.3231 H   0  0  0  0  0  0  0  0  0  0  0  0
   -3.7415   22.8653  -31.3608 H   0  0  0  0  0  0  0  0  0  0  0  0
  1  2  2  0
  2  3  1  0
  3  4  2  0
  4  5  1  0
  5  6  2  0
  6  7  1  0
  7  8  2  0
  8  9  1  0
  9 10  2  0
  9 11  1  0
 11 12  1  0
 12 13  2  0
 13 14  1  0
 14 15  2  0
 15 16  1  0
 16 17  2  0
 11  2  1  0
 17 12  1  0
  8  3  1  0
  4 18  1  0
  5 19  1  0
  6 20  1  0
  7 21  1  0
 13 22  1  0
 14 23  1  0
 15 24  1  0
 16 25  1  0
 17 26  1  0
M  END
>  <UniqueID>  (31) 
29

>  <SMILES>  (31) 
O=C1c2ccccc2C(=O)N1c1ccccc1

>  <Energy>  (31) 
69.6732222391029

>  <Genealogy>  (31) 
O=C1c2ccccc2C(=O)N1c1ccccc1 (3D coordinates assigned)
O=C1c2ccccc2C(=O)N1c1ccccc1 (nonaromatic ring conformer: 69.6732222391029 kcal/mol)

>  <smiles>  (31) 
O=C1c2ccccc2C(=O)N1c1ccccc1

>  <score_type>  (31) 
oracle

>  <origin>  (31) 
adgpu

>  <m_score__min__energy>  (31) 
-6.8700000000000001

>  <m_primary>  (31) 
energy

$$$$
31:0
     RDKit          3D

 40 42  0  0  0  0  0  0  0  0999 V2000
   -0.6660   18.5340  -31.7260 C   0  0  0  0  0  0  0  0  0  0  0  0
   -0.1570   19.6290  -32.5760 N   0  0  0  0  0  0  0  0  0  0  0  0
    0.1240   20.8460  -31.7820 C   0  0  0  0  0  0  0  0  0  0  0  0
   -1.1630   21.4630  -31.2140 C   0  0  0  0  0  0  0  0  0  0  0  0
   -2.2380   21.4630  -32.2130 N   0  0  0  0  0  0  0  0  0  0  0  0
   -3.5510   21.9310  -31.8380 C   0  0  0  0  0  0  0  0  0  0  0  0
   -4.6470   21.1530  -32.0390 N   0  0  0  0  0  0  0  0  0  0  0  0
   -5.8870   21.5900  -31.6930 C   0  0  0  0  0  0  0  0  0  0  0  0
   -7.0750   20.7350  -31.9240 C   0  0  0  0  0  0  0  0  0  0  0  0
   -6.9340   19.3430  -32.1000 C   0  0  0  0  0  0  0  0  0  0  0  0
   -8.0570   18.5380  -32.3180 C   0  0  0  0  0  0  0  0  0  0  0  0
   -9.3300   19.1080  -32.3620 C   0  0  0  0  0  0  0  0  0  0  0  0
   -9.4850   20.4860  -32.1900 C   0  0  0  0  0  0  0  0  0  0  0  0
   -8.3670   21.2960  -31.9720 C   0  0  0  0  0  0  0  0  0  0  0  0
   -6.0230   22.8230  -31.1380 N   0  0  0  0  0  0  0  0  0  0  0  0
   -4.9360   23.6050  -30.9180 C   0  0  0  0  0  0  0  0  0  0  0  0
   -5.1000   24.9780  -30.3490 C   0  0  0  0  0  0  0  0  0  0  0  0
   -5.4390   24.9030  -29.0100 F   0  0  0  0  0  0  0  0  0  0  0  0
   -6.0970   25.6580  -31.0260 F   0  0  0  0  0  0  0  0  0  0  0  0
   -3.9110   25.6720  -30.4770 F   0  0  0  0  0  0  0  0  0  0  0  0
   -3.7050   23.1620  -31.2820 N   0  0  0  0  0  0  0  0  0  0  0  0
   -1.9060   21.1690  -33.6140 C   0  0  0  0  0  0  0  0  0  0  0  0
   -1.0600   19.8850  -33.7330 C   0  0  0  0  0  0  0  0  0  0  0  0
   -0.5408   18.8034  -30.6669 H   0  0  0  0  0  0  0  0  0  0  0  0
   -1.7327   18.3700  -31.9390 H   0  0  0  0  0  0  0  0  0  0  0  0
   -0.1038   17.6128  -31.9390 H   0  0  0  0  0  0  0  0  0  0  0  0
    0.7630   19.3020  -32.9570 H   0  0  0  0  0  0  0  0  0  0  0  0
    0.7909   20.5816  -30.9481 H   0  0  0  0  0  0  0  0  0  0  0  0
    0.5961   21.5864  -32.4445 H   0  0  0  0  0  0  0  0  0  0  0  0
   -1.4856   20.8783  -30.3399 H   0  0  0  0  0  0  0  0  0  0  0  0
   -0.9532   22.5044  -30.9285 H   0  0  0  0  0  0  0  0  0  0  0  0
   -5.9336   18.8869  -32.0656 H   0  0  0  0  0  0  0  0  0  0  0  0
   -7.9364   17.4533  -32.4551 H   0  0  0  0  0  0  0  0  0  0  0  0
  -10.2115   18.4724  -32.5321 H   0  0  0  0  0  0  0  0  0  0  0  0
  -10.4889   20.9342  -32.2262 H   0  0  0  0  0  0  0  0  0  0  0  0
   -8.4966   22.3799  -31.8368 H   0  0  0  0  0  0  0  0  0  0  0  0
   -2.8382   21.0377  -34.1830 H   0  0  0  0  0  0  0  0  0  0  0  0
   -1.3197   22.0089  -34.0150 H   0  0  0  0  0  0  0  0  0  0  0  0
   -1.7454   19.0300  -33.8293 H   0  0  0  0  0  0  0  0  0  0  0  0
   -0.4116   20.0186  -34.6115 H   0  0  0  0  0  0  0  0  0  0  0  0
  1  2  1  0
  2  3  1  0
  3  4  1  0
  4  5  1  0
  5  6  1  0
  6  7  2  0
  7  8  1  0
  8  9  1  0
  9 10  2  0
 10 11  1  0
 11 12  2  0
 12 13  1  0
 13 14  2  0
  8 15  2  0
 15 16  1  0
 16 17  1  0
 17 18  1  0
 17 19  1  0
 17 20  1  0
 16 21  2  0
  5 22  1  0
 22 23  1  0
 23  2  1  0
 21  6  1  0
 14  9  1  0
  1 24  1  0
  1 25  1  0
  1 26  1  0
  2 27  1  0
  3 28  1  0
  3 29  1  0
  4 30  1  0
  4 31  1  0
 10 32  1  0
 11 33  1  0
 12 34  1  0
 13 35  1  0
 14 36  1  0
 22 37  1  0
 22 38  1  0
 23 39  1  0
 23 40  1  0
M  CHG  1   2   1
M  END
>  <UniqueID>  (32) 
30

>  <SMILES>  (32) 
C[NH+]1CCN(c2nc(-c3ccccc3)nc(C(F)(F)F)n2)CC1

>  <Energy>  (32) 
49.93166566667601

>  <Genealogy>  (32) 
C[NH+]1CCN(c2nc(-c3ccccc3)nc(C(F)(F)F)n2)CC1 (protonated)
C[NH+]1CCN(c2nc(-c3ccccc3)nc(C(F)(F)F)n2)CC1 (3D coordinates assigned)
C[NH+]1CCN(c2nc(-c3ccccc3)nc(C(F)(F)F)n2)CC1 (nonaromatic ring conformer: 49.93166566667601 kcal/mol)

>  <smiles>  (32) 
CN1CCN(c2nc(-c3ccccc3)nc(C(F)(F)F)n2)CC1

>  <score_type>  (32) 
oracle

>  <origin>  (32) 
adgpu

>  <m_score__min__energy>  (32) 
-6.1299999999999999

>  <m_primary>  (32) 
energy

$$$$
32:0
     RDKit          3D

 40 43  0  0  0  0  0  0  0  0999 V2000
   -0.6565   23.0850  -27.0510 H   0  0  0  0  0  0  0  0  0  0  0  0
   -1.1830   23.6420  -27.8400 C   0  0  0  0  0  0  0  0  0  0  0  0
   -0.7640   24.8200  -28.3570 N   0  0  0  0  0  0  0  0  0  0  0  0
   -1.5670   25.3060  -29.3030 N   0  0  0  0  0  0  0  0  0  0  0  0
   -2.6330   24.5160  -29.5460 C   0  0  0  0  0  0  0  0  0  0  0  0
   -3.5320   24.8160  -30.4320 N   0  0  0  0  0  0  0  0  0  0  0  0
   -4.9200   23.8360  -30.7820 S   0  0  0  0  0  0  0  0  0  0  0  0
   -5.8370   24.5930  -31.7030 O   0  0  0  0  0  0  0  0  0  0  0  0
   -5.6430   23.4940  -29.5090 O   0  0  0  0  0  0  0  0  0  0  0  0
   -4.3980   22.3470  -31.5630 C   0  0  0  0  0  0  0  0  0  0  0  0
   -3.9630   22.3690  -32.8950 C   0  0  0  0  0  0  0  0  0  0  0  0
   -3.9552   23.3168  -33.4532 H   0  0  0  0  0  0  0  0  0  0  0  0
   -3.5390   21.1910  -33.5170 C   0  0  0  0  0  0  0  0  0  0  0  0
   -3.1915   21.2168  -34.5603 H   0  0  0  0  0  0  0  0  0  0  0  0
   -3.5550   19.9730  -32.8140 C   0  0  0  0  0  0  0  0  0  0  0  0
   -3.1070   18.7450  -33.4050 N   0  0  0  0  0  0  0  0  0  0  0  0
   -3.8410   17.5160  -33.4830 C   0  0  0  0  0  0  0  0  0  0  0  0
   -3.5700   16.5510  -32.7190 O   0  0  0  0  0  0  0  0  0  0  0  0
   -4.9340   17.3770  -34.4880 C   0  0  0  0  0  0  0  0  0  0  0  0
   -5.2223   18.3722  -34.8575 H   0  0  0  0  0  0  0  0  0  0  0  0
   -4.5840   16.7628  -35.3308 H   0  0  0  0  0  0  0  0  0  0  0  0
   -6.3720   16.5780  -33.7060 S   0  0  0  0  0  0  0  0  0  0  0  0
   -7.0210   18.1180  -33.0670 C   0  0  0  0  0  0  0  0  0  0  0  0
   -8.0480   18.1660  -32.1800 N   0  0  0  0  0  0  0  0  0  0  0  0
   -8.1930   19.4840  -31.9820 C   0  0  0  0  0  0  0  0  0  0  0  0
   -9.1110   20.1250  -31.1540 C   0  0  0  0  0  0  0  0  0  0  0  0
   -9.8381   19.5530  -30.5589 H   0  0  0  0  0  0  0  0  0  0  0  0
   -9.0750   21.5320  -31.1060 C   0  0  0  0  0  0  0  0  0  0  0  0
   -9.7852   22.0752  -30.4652 H   0  0  0  0  0  0  0  0  0  0  0  0
   -8.1320   22.2510  -31.8760 C   0  0  0  0  0  0  0  0  0  0  0  0
   -8.1113   23.3498  -31.8297 H   0  0  0  0  0  0  0  0  0  0  0  0
   -7.2190   21.5670  -32.7020 C   0  0  0  0  0  0  0  0  0  0  0  0
   -6.4803   22.1119  -33.3081 H   0  0  0  0  0  0  0  0  0  0  0  0
   -7.2850   20.1750  -32.7240 C   0  0  0  0  0  0  0  0  0  0  0  0
   -6.5220   19.3290  -33.4300 N   0  0  0  0  0  0  0  0  0  0  0  0
   -3.9590   19.9630  -31.4730 C   0  0  0  0  0  0  0  0  0  0  0  0
   -3.9417   19.0215  -30.9044 H   0  0  0  0  0  0  0  0  0  0  0  0
   -4.3840   21.1410  -30.8520 C   0  0  0  0  0  0  0  0  0  0  0  0
   -4.7085   21.1204  -29.8012 H   0  0  0  0  0  0  0  0  0  0  0  0
   -2.6190   23.1420  -28.5660 S   0  0  0  0  0  0  0  0  0  0  0  0
  1  2  1  0
  2  3  2  0
  3  4  1  0
  4  5  1  0
  5  6  2  0
  6  7  1  0
  7  8  2  0
  7  9  2  0
  7 10  1  0
 10 11  2  0
 11 12  1  0
 11 13  1  0
 13 14  1  0
 13 15  2  0
 15 16  1  0
 16 17  1  0
 17 18  2  0
 17 19  1  0
 19 20  1  0
 19 21  1  0
 19 22  1  0
 22 23  1  0
 23 24  2  0
 24 25  1  0
 25 26  2  0
 26 27  1  0
 26 28  1  0
 28 29  1  0
 28 30  2  0
 30 31  1  0
 30 32  1  0
 32 33  1  0
 32 34  2  0
 34 35  1  0
 15 36  1  0
 36 37  1  0
 36 38  2  0
 38 39  1  0
  5 40  1  0
 40  2  1  0
 38 10  1  0
 35 23  1  0
 34 25  1  0
M  CHG  3   4  -1  16  -1  35  -1
M  END
>  <UniqueID>  (33) 
31

>  <SMILES>  (33) 
O=C(CSc1nc2ccccc2[n-]1)[N-]c1ccc(S(=O)(=O)/N=c2/[n-]ncs2)cc1

>  <Energy>  (33) 
116.14244483817652

>  <Genealogy>  (33) 
O=C(CSc1nc2ccccc2[n-]1)[N-]c1ccc(S(=O)(=O)N=c2[n-]ncs2)cc1 (protonated)
O=C(CSc1nc2ccccc2[n-]1)[N-]c1ccc(S(=O)(=O)/N=c2/[n-]ncs2)cc1 (cis-trans isomerization)
O=C(CSc1nc2ccccc2[n-]1)[N-]c1ccc(S(=O)(=O)/N=c2/[n-]ncs2)cc1 (3D coordinates assigned)
O=C(CSc1nc2ccccc2[n-]1)[N-]c1ccc(S(=O)(=O)/N=c2/[n-]ncs2)cc1 (optimized conformer: 116.14244483817652 kcal/mol)

>  <smiles>  (33) 
O=C(CSc1nc2ccccc2[nH]1)Nc1ccc(S(=O)(=O)N=c2[nH]ncs2)cc1

>  <score_type>  (33) 
oracle

>  <origin>  (33) 
adgpu

>  <m_score__min__energy>  (33) 
-11.23

>  <m_primary>  (33) 
energy

$$$$
33:0
     RDKit          3D

 39 41  0  0  0  0  0  0  0  0999 V2000
   -9.1160   18.6510  -31.9880 C   0  0  0  0  0  0  0  0  0  0  0  0
   -7.8040   19.2460  -32.3130 N   0  0  0  0  0  0  0  0  0  0  0  0
   -6.7840   18.4360  -32.7580 C   0  0  0  0  0  0  0  0  0  0  0  0
   -6.9550   17.1930  -32.8940 O   0  0  0  0  0  0  0  0  0  0  0  0
   -5.5350   18.9660  -33.0710 C   0  0  0  0  0  0  0  0  0  0  0  0
   -5.2950   20.3270  -32.9360 C   0  0  0  0  0  0  0  0  0  0  0  0
   -3.6530   20.9390  -33.3610 S   0  0  0  0  0  0  0  0  0  0  0  0
   -2.9270   20.4600  -31.7610 C   0  0  0  0  0  0  0  0  0  0  0  0
   -3.1680   21.5480  -30.7680 C   0  0  0  0  0  0  0  0  0  0  0  0
   -4.1740   21.4880  -30.0090 O   0  0  0  0  0  0  0  0  0  0  0  0
   -2.2340   22.6300  -30.6490 N   0  0  0  0  0  0  0  0  0  0  0  0
   -2.3560   23.6620  -29.6250 C   0  0  0  0  0  0  0  0  0  0  0  0
   -3.6720   24.3610  -29.7580 C   0  0  0  0  0  0  0  0  0  0  0  0
   -4.7920   24.1340  -28.9840 C   0  0  0  0  0  0  0  0  0  0  0  0
   -5.7450   25.0160  -29.4460 C   0  0  0  0  0  0  0  0  0  0  0  0
   -5.1480   25.7250  -30.4690 C   0  0  0  0  0  0  0  0  0  0  0  0
   -3.9110   25.3130  -30.6300 O   0  0  0  0  0  0  0  0  0  0  0  0
   -6.3260   21.1730  -32.4860 C   0  0  0  0  0  0  0  0  0  0  0  0
   -6.1240   22.5600  -32.3400 C   0  0  0  0  0  0  0  0  0  0  0  0
   -7.1540   23.3850  -31.8900 C   0  0  0  0  0  0  0  0  0  0  0  0
   -8.3970   22.8430  -31.5800 C   0  0  0  0  0  0  0  0  0  0  0  0
   -8.6210   21.4730  -31.7170 C   0  0  0  0  0  0  0  0  0  0  0  0
   -7.5970   20.6070  -32.1720 C   0  0  0  0  0  0  0  0  0  0  0  0
   -9.2339   18.5975  -30.8956 H   0  0  0  0  0  0  0  0  0  0  0  0
   -9.9166   19.2741  -32.4131 H   0  0  0  0  0  0  0  0  0  0  0  0
   -9.1747   17.6382  -32.4131 H   0  0  0  0  0  0  0  0  0  0  0  0
   -4.7334   18.3024  -33.4274 H   0  0  0  0  0  0  0  0  0  0  0  0
   -3.3954   19.5294  -31.4082 H   0  0  0  0  0  0  0  0  0  0  0  0
   -1.8451   20.2999  -31.8789 H   0  0  0  0  0  0  0  0  0  0  0  0
   -1.4240   22.6760  -31.3090 H   0  0  0  0  0  0  0  0  0  0  0  0
   -2.2889   23.1978  -28.6300 H   0  0  0  0  0  0  0  0  0  0  0  0
   -1.5441   24.3934  -29.7506 H   0  0  0  0  0  0  0  0  0  0  0  0
   -4.9011   23.4028  -28.1695 H   0  0  0  0  0  0  0  0  0  0  0  0
   -6.7739   25.1317  -29.0745 H   0  0  0  0  0  0  0  0  0  0  0  0
   -5.6343   26.5152  -31.0598 H   0  0  0  0  0  0  0  0  0  0  0  0
   -5.1439   22.9961  -32.5835 H   0  0  0  0  0  0  0  0  0  0  0  0
   -6.9834   24.4661  -31.7800 H   0  0  0  0  0  0  0  0  0  0  0  0
   -9.2068   23.4975  -31.2253 H   0  0  0  0  0  0  0  0  0  0  0  0
   -9.6090   21.0586  -31.4676 H   0  0  0  0  0  0  0  0  0  0  0  0
  1  2  1  0
  2  3  1  0
  3  4  2  0
  3  5  1  0
  5  6  2  0
  6  7  1  0
  7  8  1  0
  8  9  1  0
  9 10  2  0
  9 11  1  0
 11 12  1  0
 12 13  1  0
 13 14  2  0
 14 15  1  0
 15 16  2  0
 16 17  1  0
  6 18  1  0
 18 19  2  0
 19 20  1  0
 20 21  2  0
 21 22  1  0
 22 23  2  0
 23  2  1  0
 17 13  1  0
 23 18  1  0
  1 24  1  0
  1 25  1  0
  1 26  1  0
  5 27  1  0
  8 28  1  0
  8 29  1  0
 11 30  1  0
 12 31  1  0
 12 32  1  0
 14 33  1  0
 15 34  1  0
 16 35  1  0
 19 36  1  0
 20 37  1  0
 21 38  1  0
 22 39  1  0
M  END
>  <UniqueID>  (34) 
32

>  <SMILES>  (34) 
Cn1c(=O)cc(SCC(=O)NCc2ccco2)c2ccccc21

>  <Energy>  (34) 
69.63883001740271

>  <Genealogy>  (34) 
Cn1c(=O)cc(SCC(=O)NCc2ccco2)c2ccccc21 (3D coordinates assigned)
Cn1c(=O)cc(SCC(=O)NCc2ccco2)c2ccccc21 (optimized conformer: 69.63883001740271 kcal/mol)

>  <smiles>  (34) 
Cn1c(=O)cc(SCC(=O)NCc2ccco2)c2ccccc21

>  <score_type>  (34) 
oracle

>  <origin>  (34) 
adgpu

>  <m_score__min__energy>  (34) 
-9.5099999999999998

>  <m_primary>  (34) 
energy

$$$$
34:0
     RDKit          3D

 62 65  0  0  0  0  0  0  0  0999 V2000
   -0.7440   26.0590  -24.0910 C   0  0  0  0  0  0  0  0  0  0  0  0
   -0.0550   27.2790  -24.7200 C   0  0  1  0  0  0  0  0  0  0  0  0
    0.6490   28.1580  -23.6530 C   0  0  0  0  0  0  0  0  0  0  0  0
    2.1870   28.0510  -23.6890 C   0  0  1  0  0  0  0  0  0  0  0  0
    2.7970   28.4510  -22.3410 C   0  0  0  0  0  0  0  0  0  0  0  0
    2.6140   26.6330  -24.0890 C   0  0  0  0  0  0  0  0  0  0  0  0
    2.2010   26.3310  -25.4720 N   0  0  0  0  0  0  0  0  0  0  0  0
    2.3370   24.6210  -25.8050 S   0  0  0  0  0  0  0  0  0  0  0  0
    2.5320   23.8700  -24.5160 O   0  0  0  0  0  0  0  0  0  0  0  0
    3.5180   24.3550  -26.6980 O   0  0  0  0  0  0  0  0  0  0  0  0
    0.8610   24.0390  -26.5730 C   0  0  0  0  0  0  0  0  0  0  0  0
    0.4990   24.4740  -27.8540 C   0  0  0  0  0  0  0  0  0  0  0  0
   -0.6720   24.0020  -28.4540 C   0  0  0  0  0  0  0  0  0  0  0  0
   -1.5010   23.0880  -27.7780 C   0  0  0  0  0  0  0  0  0  0  0  0
   -2.7410   22.5740  -28.4060 C   0  0  0  0  0  0  0  0  0  0  0  0
   -3.5920   21.9750  -27.6930 O   0  0  0  0  0  0  0  0  0  0  0  0
   -2.9600   22.7050  -29.8210 N   0  0  0  0  0  0  0  0  0  0  0  0
   -4.2440   22.5270  -30.4440 C   0  0  0  0  0  0  0  0  0  0  0  0
   -4.8680   21.0440  -30.9560 S   0  0  0  0  0  0  0  0  0  0  0  0
   -6.3800   21.6400  -31.3700 C   0  0  0  0  0  0  0  0  0  0  0  0
   -6.4210   23.0070  -31.1390 C   0  0  0  0  0  0  0  0  0  0  0  0
   -5.2250   23.5190  -30.5870 C   0  0  0  0  0  0  0  0  0  0  0  0
   -5.0140   24.9410  -30.2420 C   0  0  0  0  0  0  0  0  0  0  0  0
   -3.8660   25.6390  -30.7210 N   0  0  0  0  0  0  0  0  0  0  0  0
   -5.8380   25.5440  -29.5050 O   0  0  0  0  0  0  0  0  0  0  0  0
   -7.6640   23.8000  -31.4380 C   0  0  0  0  0  0  0  0  0  0  0  0
   -8.6250   23.0160  -32.3590 C   0  0  0  0  0  0  0  0  0  0  0  0
   -8.7710   21.5940  -31.9700 N   0  0  0  0  0  0  0  0  0  0  0  0
   -9.4240   21.4360  -30.6600 C   0  0  0  0  0  0  0  0  0  0  0  0
   -7.4830   20.8700  -32.0330 C   0  0  0  0  0  0  0  0  0  0  0  0
   -1.1440   22.6760  -26.4820 C   0  0  0  0  0  0  0  0  0  0  0  0
    0.0300   23.1460  -25.8860 C   0  0  0  0  0  0  0  0  0  0  0  0
    0.8850   26.8800  -25.8850 C   0  0  0  0  0  0  0  0  0  0  0  0
   -0.6996   26.1376  -22.9947 H   0  0  0  0  0  0  0  0  0  0  0  0
   -1.7950   26.0245  -24.4139 H   0  0  0  0  0  0  0  0  0  0  0  0
   -0.2309   25.1411  -24.4139 H   0  0  0  0  0  0  0  0  0  0  0  0
   -0.8432   27.9041  -25.1648 H   0  0  0  0  0  0  0  0  0  0  0  0
    0.3009   27.8442  -22.6578 H   0  0  0  0  0  0  0  0  0  0  0  0
    0.3911   29.2045  -23.8729 H   0  0  0  0  0  0  0  0  0  0  0  0
    2.5659   28.7523  -24.4470 H   0  0  0  0  0  0  0  0  0  0  0  0
    2.1802   28.0465  -21.5249 H   0  0  0  0  0  0  0  0  0  0  0  0
    3.8168   28.0457  -22.2653 H   0  0  0  0  0  0  0  0  0  0  0  0
    2.8318   29.5478  -22.2653 H   0  0  0  0  0  0  0  0  0  0  0  0
    2.1446   25.9092  -23.4065 H   0  0  0  0  0  0  0  0  0  0  0  0
    3.7100   26.5644  -24.0260 H   0  0  0  0  0  0  0  0  0  0  0  0
    1.1389   25.1902  -28.3903 H   0  0  0  0  0  0  0  0  0  0  0  0
   -0.9472   24.3475  -29.4614 H   0  0  0  0  0  0  0  0  0  0  0  0
   -2.1420   22.9260  -30.4310 H   0  0  0  0  0  0  0  0  0  0  0  0
   -2.9030   25.3120  -30.4890 H   0  0  0  0  0  0  0  0  0  0  0  0
   -8.1795   24.0271  -30.4932 H   0  0  0  0  0  0  0  0  0  0  0  0
   -7.3684   24.7255  -31.9537 H   0  0  0  0  0  0  0  0  0  0  0  0
   -9.6152   23.4933  -32.3194 H   0  0  0  0  0  0  0  0  0  0  0  0
   -8.1982   23.0369  -33.3726 H   0  0  0  0  0  0  0  0  0  0  0  0
   -8.6897   21.6137  -29.8605 H   0  0  0  0  0  0  0  0  0  0  0  0
  -10.2463   22.1611  -30.5704 H   0  0  0  0  0  0  0  0  0  0  0  0
   -9.8239   20.4152  -30.5704 H   0  0  0  0  0  0  0  0  0  0  0  0
   -7.5945   19.8998  -31.5268 H   0  0  0  0  0  0  0  0  0  0  0  0
   -7.2177   20.7344  -33.0919 H   0  0  0  0  0  0  0  0  0  0  0  0
   -1.7935   21.9785  -25.9328 H   0  0  0  0  0  0  0  0  0  0  0  0
    0.3018   22.8129  -24.8735 H   0  0  0  0  0  0  0  0  0  0  0  0
    0.3727   26.1180  -26.4906 H   0  0  0  0  0  0  0  0  0  0  0  0
    1.0992   27.8069  -26.4372 H   0  0  0  0  0  0  0  0  0  0  0  0
  1  2  1  0
  2  3  1  0
  3  4  1  0
  4  5  1  0
  4  6  1  0
  6  7  1  0
  7  8  1  0
  8  9  2  0
  8 10  2  0
  8 11  1  0
 11 12  2  0
 12 13  1  0
 13 14  2  0
 14 15  1  0
 15 16  2  0
 15 17  1  0
 17 18  1  0
 18 19  1  0
 19 20  1  0
 20 21  2  0
 21 22  1  0
 22 23  1  0
 23 24  1  0
 23 25  2  0
 21 26  1  0
 26 27  1  0
 27 28  1  0
 28 29  1  0
 28 30  1  0
 14 31  1  0
 31 32  2  0
  7 33  1  0
 33  2  1  0
 32 11  1  0
 22 18  2  0
 30 20  1  0
  1 34  1  0
  1 35  1  0
  1 36  1  0
  2 37  1  6
  3 38  1  0
  3 39  1  0
  4 40  1  6
  5 41  1  0
  5 42  1  0
  5 43  1  0
  6 44  1  0
  6 45  1  0
 12 46  1  0
 13 47  1  0
 17 48  1  0
 24 49  1  0
 26 50  1  0
 26 51  1  0
 27 52  1  0
 27 53  1  0
 29 54  1  0
 29 55  1  0
 29 56  1  0
 30 57  1  0
 30 58  1  0
 31 59  1  0
 32 60  1  0
 33 61  1  0
 33 62  1  0
M  CHG  1  24  -1
M  END
>  <UniqueID>  (35) 
33

>  <SMILES>  (35) 
C[C@@H]1C[C@H](C)CN(S(=O)(=O)c2ccc(C(=O)Nc3sc4c(c3C([NH-])=O)CCN(C)C4)cc2)C1

>  <Energy>  (35) 
108.50763938626963

>  <Genealogy>  (35) 
CC1CC(C)CN(S(=O)(=O)c2ccc(C(=O)Nc3sc4c(c3C([NH-])=O)CCN(C)C4)cc2)C1 (protonated)
C[C@@H]1C[C@H](C)CN(S(=O)(=O)c2ccc(C(=O)Nc3sc4c(c3C([NH-])=O)CCN(C)C4)cc2)C1 (chirality)
C[C@@H]1C[C@H](C)CN(S(=O)(=O)c2ccc(C(=O)Nc3sc4c(c3C([NH-])=O)CCN(C)C4)cc2)C1 (3D coordinates assigned)
C[C@@H]1C[C@H](C)CN(S(=O)(=O)c2ccc(C(=O)Nc3sc4c(c3C([NH-])=O)CCN(C)C4)cc2)C1 (nonaromatic ring conformer: 108.50763938626963 kcal/mol)

>  <smiles>  (35) 
CC1CC(C)CN(S(=O)(=O)c2ccc(C(=O)Nc3sc4c(c3C(N)=O)CCN(C)C4)cc2)C1

>  <score_type>  (35) 
oracle

>  <origin>  (35) 
adgpu

>  <m_score__min__energy>  (35) 
-11.93

>  <m_primary>  (35) 
energy

$$$$
35:0
     RDKit          3D

 33 35  0  0  0  0  0  0  0  0999 V2000
   -6.8410   18.4810  -35.0360 H   0  0  0  0  0  0  0  0  0  0  0  0
   -5.8690   18.5560  -34.6600 N   0  0  0  0  0  0  0  0  0  0  0  0
   -5.5510   19.4690  -33.8030 C   0  0  0  0  0  0  0  0  0  0  0  0
   -4.3090   19.5930  -33.2960 N   0  0  0  0  0  0  0  0  0  0  0  0
   -4.2260   20.6260  -32.4100 C   0  0  0  0  0  0  0  0  0  0  0  0
   -2.9650   20.8910  -31.6850 C   0  0  0  0  0  0  0  0  0  0  0  0
   -1.8000   21.2660  -32.3750 C   0  0  0  0  0  0  0  0  0  0  0  0
   -1.8144   21.3441  -33.4721 H   0  0  0  0  0  0  0  0  0  0  0  0
   -0.6240   21.5400  -31.6740 C   0  0  0  0  0  0  0  0  0  0  0  0
    0.2852   21.8288  -32.2216 H   0  0  0  0  0  0  0  0  0  0  0  0
   -0.5970   21.4490  -30.2810 C   0  0  0  0  0  0  0  0  0  0  0  0
    0.3314   21.6741  -29.7356 H   0  0  0  0  0  0  0  0  0  0  0  0
   -1.7510   21.0710  -29.5720 C   0  0  0  0  0  0  0  0  0  0  0  0
   -1.7410   21.0290  -28.0640 C   0  0  0  0  0  0  0  0  0  0  0  0
   -2.0620   19.7610  -27.6110 F   0  0  0  0  0  0  0  0  0  0  0  0
   -2.6680   21.9300  -27.5770 F   0  0  0  0  0  0  0  0  0  0  0  0
   -0.4900   21.3590  -27.5720 F   0  0  0  0  0  0  0  0  0  0  0  0
   -2.9390   20.8220  -30.2810 C   0  0  0  0  0  0  0  0  0  0  0  0
   -3.8581   20.5705  -29.7315 H   0  0  0  0  0  0  0  0  0  0  0  0
   -5.4280   21.3350  -32.2290 C   0  0  0  0  0  0  0  0  0  0  0  0
   -5.6480   22.5610  -31.4340 C   0  0  0  0  0  0  0  0  0  0  0  0
   -6.8860   22.7770  -30.8070 C   0  0  0  0  0  0  0  0  0  0  0  0
   -7.6862   22.0286  -30.9042 H   0  0  0  0  0  0  0  0  0  0  0  0
   -7.1070   23.9380  -30.0600 C   0  0  0  0  0  0  0  0  0  0  0  0
   -8.0763   24.0944  -29.5640 H   0  0  0  0  0  0  0  0  0  0  0  0
   -6.0980   24.9030  -29.9410 C   0  0  0  0  0  0  0  0  0  0  0  0
   -6.3120   26.0610  -29.1960 O   0  0  0  0  0  0  0  0  0  0  0  0
   -5.5530   26.6930  -28.9690 H   0  0  0  0  0  0  0  0  0  0  0  0
   -4.8690   24.7030  -30.5800 C   0  0  0  0  0  0  0  0  0  0  0  0
   -3.8640   25.6590  -30.4770 O   0  0  0  0  0  0  0  0  0  0  0  0
   -4.6470   23.5420  -31.3280 C   0  0  0  0  0  0  0  0  0  0  0  0
   -3.6827   23.3958  -31.8366 H   0  0  0  0  0  0  0  0  0  0  0  0
   -6.6120   20.6190  -33.1960 S   0  0  0  0  0  0  0  0  0  0  0  0
  1  2  1  0
  2  3  2  0
  3  4  1  0
  4  5  1  0
  5  6  1  0
  6  7  2  0
  7  8  1  0
  7  9  1  0
  9 10  1  0
  9 11  2  0
 11 12  1  0
 11 13  1  0
 13 14  1  0
 14 15  1  0
 14 16  1  0
 14 17  1  0
 13 18  2  0
 18 19  1  0
  5 20  2  0
 20 21  1  0
 21 22  2  0
 22 23  1  0
 22 24  1  0
 24 25  1  0
 24 26  2  0
 26 27  1  0
 27 28  1  0
 26 29  1  0
 29 30  1  0
 29 31  2  0
 31 32  1  0
 20 33  1  0
 33  3  1  0
 18  6  1  0
 31 21  1  0
M  CHG  2   4  -1  30  -1
M  END
>  <UniqueID>  (36) 
34

>  <SMILES>  (36) 
[H]/N=c1/[n-]c(-c2cccc(C(F)(F)F)c2)c(-c2ccc(O)c([O-])c2)s1

>  <Energy>  (36) 
74.93328569388608

>  <Genealogy>  (36) 
N=c1[n-]c(-c2cccc(C(F)(F)F)c2)c(-c2ccc(O)c([O-])c2)s1 (protonated)
[H]/N=c1/[n-]c(-c2cccc(C(F)(F)F)c2)c(-c2ccc(O)c([O-])c2)s1 (cis-trans isomerization)
[H]/N=c1/[n-]c(-c2cccc(C(F)(F)F)c2)c(-c2ccc(O)c([O-])c2)s1 (3D coordinates assigned)
[H]/N=c1/[n-]c(-c2cccc(C(F)(F)F)c2)c(-c2ccc(O)c([O-])c2)s1 (optimized conformer: 74.93328569388608 kcal/mol)

>  <smiles>  (36) 
N=c1[nH]c(-c2cccc(C(F)(F)F)c2)c(-c2ccc(O)c(O)c2)s1

>  <score_type>  (36) 
oracle

>  <origin>  (36) 
adgpu

>  <m_score__min__energy>  (36) 
-10.24

>  <m_primary>  (36) 
energy

$$$$
36:0
     RDKit          3D

 42 45  0  0  0  0  0  0  0  0999 V2000
    0.9500   26.9860  -23.5760 C   0  0  0  0  0  0  0  0  0  0  0  0
    0.0510   26.2750  -24.5300 C   0  0  0  0  0  0  0  0  0  0  0  0
   -1.3230   26.3870  -24.5800 C   0  0  0  0  0  0  0  0  0  0  0  0
   -1.7280   25.5620  -25.6070 C   0  0  0  0  0  0  0  0  0  0  0  0
   -0.5720   24.9990  -26.1160 C   0  0  0  0  0  0  0  0  0  0  0  0
   -0.4980   24.0320  -27.2250 C   0  0  0  0  0  0  0  0  0  0  0  0
    0.4660   23.2220  -27.2730 O   0  0  0  0  0  0  0  0  0  0  0  0
   -1.5530   23.9550  -28.2550 C   0  0  0  0  0  0  0  0  0  0  0  0
   -2.0100   25.0180  -29.0110 C   0  0  0  0  0  0  0  0  0  0  0  0
   -1.5980   26.3420  -28.9130 O   0  0  0  0  0  0  0  0  0  0  0  0
   -2.9320   24.5220  -29.8990 C   0  0  0  0  0  0  0  0  0  0  0  0
   -3.6280   25.2730  -30.8400 O   0  0  0  0  0  0  0  0  0  0  0  0
   -3.0830   23.1960  -29.7240 N   0  0  0  0  0  0  0  0  0  0  0  0
   -3.9960   22.3590  -30.4500 C   0  0  0  0  0  0  0  0  0  0  0  0
   -3.5080   21.2280  -31.1210 C   0  0  0  0  0  0  0  0  0  0  0  0
   -4.3830   20.3870  -31.8150 C   0  0  0  0  0  0  0  0  0  0  0  0
   -5.7490   20.6760  -31.8500 C   0  0  0  0  0  0  0  0  0  0  0  0
   -6.2420   21.8090  -31.1970 C   0  0  0  0  0  0  0  0  0  0  0  0
   -5.3730   22.6560  -30.5000 C   0  0  0  0  0  0  0  0  0  0  0  0
   -6.0230   24.1020  -29.7400 Cl  0  0  0  0  0  0  0  0  0  0  0  0
   -2.2470   22.8330  -28.7180 C   0  0  0  0  0  0  0  0  0  0  0  0
   -2.1520   21.4620  -28.1740 C   0  0  0  0  0  0  0  0  0  0  0  0
   -3.1520   20.7930  -27.4760 C   0  0  0  0  0  0  0  0  0  0  0  0
   -2.7770   19.5090  -27.0670 C   0  0  0  0  0  0  0  0  0  0  0  0
   -1.4870   19.1670  -27.4510 C   0  0  0  0  0  0  0  0  0  0  0  0
   -0.7820   17.9000  -27.1040 C   0  0  0  0  0  0  0  0  0  0  0  0
   -0.7970   20.4670  -28.2650 S   0  0  0  0  0  0  0  0  0  0  0  0
    0.4720   25.4520  -25.4600 O   0  0  0  0  0  0  0  0  0  0  0  0
    0.6507   26.7493  -22.5443 H   0  0  0  0  0  0  0  0  0  0  0  0
    1.9884   26.6621  -23.7400 H   0  0  0  0  0  0  0  0  0  0  0  0
    0.8741   28.0711  -23.7400 H   0  0  0  0  0  0  0  0  0  0  0  0
   -1.9627   27.0063  -23.9341 H   0  0  0  0  0  0  0  0  0  0  0  0
   -2.7582   25.3874  -25.9509 H   0  0  0  0  0  0  0  0  0  0  0  0
   -2.4317   21.0017  -31.1011 H   0  0  0  0  0  0  0  0  0  0  0  0
   -3.9956   19.4976  -32.3335 H   0  0  0  0  0  0  0  0  0  0  0  0
   -6.4375   20.0111  -32.3921 H   0  0  0  0  0  0  0  0  0  0  0  0
   -7.3178   22.0360  -31.2310 H   0  0  0  0  0  0  0  0  0  0  0  0
   -4.1394   21.2302  -27.2665 H   0  0  0  0  0  0  0  0  0  0  0  0
   -3.4374   18.8377  -26.4984 H   0  0  0  0  0  0  0  0  0  0  0  0
   -0.7260   17.7993  -26.0101 H   0  0  0  0  0  0  0  0  0  0  0  0
   -1.3348   17.0462  -27.5230 H   0  0  0  0  0  0  0  0  0  0  0  0
    0.2349   17.9196  -27.5230 H   0  0  0  0  0  0  0  0  0  0  0  0
  1  2  1  0
  2  3  2  0
  3  4  1  0
  4  5  2  0
  5  6  1  0
  6  7  2  0
  6  8  1  0
  8  9  1  0
  9 10  1  0
  9 11  2  0
 11 12  1  0
 11 13  1  0
 13 14  1  0
 14 15  2  0
 15 16  1  0
 16 17  2  0
 17 18  1  0
 18 19  2  0
 19 20  1  0
 13 21  1  0
 21 22  1  0
 22 23  2  0
 23 24  1  0
 24 25  2  0
 25 26  1  0
 25 27  1  0
  5 28  1  0
 28  2  1  0
 21  8  2  0
 27 22  1  0
 19 14  1  0
  1 29  1  0
  1 30  1  0
  1 31  1  0
  3 32  1  0
  4 33  1  0
 15 34  1  0
 16 35  1  0
 17 36  1  0
 18 37  1  0
 23 38  1  0
 24 39  1  0
 26 40  1  0
 26 41  1  0
 26 42  1  0
M  CHG  2  10  -1  12  -1
M  END
>  <UniqueID>  (37) 
35

>  <SMILES>  (37) 
Cc1ccc(C(=O)c2c([O-])c([O-])n(-c3ccccc3Cl)c2-c2ccc(C)s2)o1

>  <Energy>  (37) 
136.9138149271842

>  <Genealogy>  (37) 
Cc1ccc(C(=O)c2c([O-])c([O-])n(-c3ccccc3Cl)c2-c2ccc(C)s2)o1 (protonated)
Cc1ccc(C(=O)c2c([O-])c([O-])n(-c3ccccc3Cl)c2-c2ccc(C)s2)o1 (3D coordinates assigned)
Cc1ccc(C(=O)c2c([O-])c([O-])n(-c3ccccc3Cl)c2-c2ccc(C)s2)o1 (optimized conformer: 136.9138149271842 kcal/mol)

>  <smiles>  (37) 
Cc1ccc(C(=O)c2c(O)c(O)n(-c3ccccc3Cl)c2-c2ccc(C)s2)o1

>  <score_type>  (37) 
oracle

>  <origin>  (37) 
adgpu

>  <m_score__min__energy>  (37) 
-13.779999999999999

>  <m_primary>  (37) 
energy

$$$$
37:0
     RDKit          3D

 26 27  0  0  0  0  0  0  0  0999 V2000
   -3.7790   25.6070  -31.5920 H   0  0  0  0  0  0  0  0  0  0  0  0
   -3.8890   25.6000  -30.5860 O   0  0  0  0  0  0  0  0  0  0  0  0
   -3.9200   24.4220  -29.8390 C   0  0  0  0  0  0  0  0  0  0  0  0
   -4.0560   24.5180  -28.4490 C   0  0  0  0  0  0  0  0  0  0  0  0
   -4.1873   25.5041  -27.9796 H   0  0  0  0  0  0  0  0  0  0  0  0
   -4.0260   23.3690  -27.6540 C   0  0  0  0  0  0  0  0  0  0  0  0
   -4.1419   23.4518  -26.5633 H   0  0  0  0  0  0  0  0  0  0  0  0
   -3.8490   22.1160  -28.2440 C   0  0  0  0  0  0  0  0  0  0  0  0
   -3.8071   21.2136  -27.6163 H   0  0  0  0  0  0  0  0  0  0  0  0
   -3.7250   22.0080  -29.6320 C   0  0  0  0  0  0  0  0  0  0  0  0
   -3.5739   21.0203  -30.0921 H   0  0  0  0  0  0  0  0  0  0  0  0
   -3.7920   23.1500  -30.4410 C   0  0  0  0  0  0  0  0  0  0  0  0
   -3.6950   22.9890  -31.8650 N   0  0  0  0  0  0  0  0  0  0  0  0
   -4.6620   22.6620  -32.6750 C   0  0  0  0  0  0  0  0  0  0  0  0
   -4.4491   22.6519  -33.7542 H   0  0  0  0  0  0  0  0  0  0  0  0
   -6.0300   22.3030  -32.2340 C   0  0  0  0  0  0  0  0  0  0  0  0
   -6.9950   23.3150  -32.1170 C   0  0  0  0  0  0  0  0  0  0  0  0
   -6.7242   24.3575  -32.3401 H   0  0  0  0  0  0  0  0  0  0  0  0
   -8.3000   23.0050  -31.7180 C   0  0  0  0  0  0  0  0  0  0  0  0
   -9.0470   23.8055  -31.6121 H   0  0  0  0  0  0  0  0  0  0  0  0
   -8.6550   21.6800  -31.4540 C   0  0  0  0  0  0  0  0  0  0  0  0
   -9.6792   21.4385  -31.1335 H   0  0  0  0  0  0  0  0  0  0  0  0
   -7.7090   20.6610  -31.5970 C   0  0  0  0  0  0  0  0  0  0  0  0
   -7.9915   19.6170  -31.3962 H   0  0  0  0  0  0  0  0  0  0  0  0
   -6.4040   20.9670  -31.9950 C   0  0  0  0  0  0  0  0  0  0  0  0
   -5.6667   20.1606  -32.1219 H   0  0  0  0  0  0  0  0  0  0  0  0
  1  2  1  0
  2  3  1  0
  3  4  2  0
  4  5  1  0
  4  6  1  0
  6  7  1  0
  6  8  2  0
  8  9  1  0
  8 10  1  0
 10 11  1  0
 10 12  2  0
 12 13  1  0
 13 14  2  0
 14 15  1  0
 14 16  1  0
 16 17  2  0
 17 18  1  0
 17 19  1  0
 19 20  1  0
 19 21  2  0
 21 22  1  0
 21 23  1  0
 23 24  1  0
 23 25  2  0
 25 26  1  0
 12  3  1  0
 25 16  1  0
M  END
>  <UniqueID>  (38) 
36

>  <SMILES>  (38) 
Oc1ccccc1/N=C\c1ccccc1

>  <Energy>  (38) 
39.79327998502875

>  <Genealogy>  (38) 
Oc1ccccc1/N=C\c1ccccc1 (cis-trans isomerization)
Oc1ccccc1/N=C\c1ccccc1 (3D coordinates assigned)
Oc1ccccc1/N=C\c1ccccc1 (optimized conformer: 39.79327998502875 kcal/mol)

>  <smiles>  (38) 
Oc1ccccc1N=Cc1ccccc1

>  <score_type>  (38) 
oracle

>  <origin>  (38) 
adgpu

>  <m_score__min__energy>  (38) 
-7.1299999999999999

>  <m_primary>  (38) 
energy

$$$$
38:0
     RDKit          3D

 53 57  0  0  0  0  0  0  0  0999 V2000
    1.6430   18.4030  -27.6370 C   0  0  0  0  0  0  0  0  0  0  0  0
    0.2830   17.7960  -27.9920 C   0  0  0  0  0  0  0  0  0  0  0  0
    0.3190   17.1320  -29.3710 C   0  0  0  0  0  0  0  0  0  0  0  0
   -0.7890   18.8460  -27.9280 C   0  0  0  0  0  0  0  0  0  0  0  0
   -1.8540   18.7970  -27.1040 N   0  0  0  0  0  0  0  0  0  0  0  0
   -2.5730   19.8770  -27.3520 N   0  0  0  0  0  0  0  0  0  0  0  0
   -1.9360   20.5520  -28.3270 C   0  0  0  0  0  0  0  0  0  0  0  0
   -2.3960   21.8410  -28.8820 C   0  0  0  0  0  0  0  0  0  0  0  0
   -1.5920   23.0070  -28.7780 C   0  0  0  0  0  0  0  0  0  0  0  0
   -2.0200   24.2280  -29.3340 C   0  0  0  0  0  0  0  0  0  0  0  0
   -3.2420   24.2460  -30.0000 C   0  0  0  0  0  0  0  0  0  0  0  0
   -3.8440   25.2970  -30.5800 N   0  0  0  0  0  0  0  0  0  0  0  0
   -5.0000   24.8680  -31.0780 N   0  0  0  0  0  0  0  0  0  0  0  0
   -5.1330   23.5440  -30.8210 C   0  0  0  0  0  0  0  0  0  0  0  0
   -6.3010   22.7380  -31.2410 C   0  0  0  0  0  0  0  0  0  0  0  0
   -7.5830   23.0660  -30.7730 C   0  0  0  0  0  0  0  0  0  0  0  0
   -8.6900   22.3020  -31.1520 C   0  0  0  0  0  0  0  0  0  0  0  0
   -8.5270   21.1950  -31.9890 C   0  0  0  0  0  0  0  0  0  0  0  0
   -7.2540   20.8480  -32.4600 C   0  0  0  0  0  0  0  0  0  0  0  0
   -7.0940   19.6950  -33.3050 N   0  0  0  0  0  0  0  0  0  0  0  0
   -7.1010   18.3490  -32.8090 C   0  0  0  0  0  0  0  0  0  0  0  0
   -7.4160   18.1110  -31.6110 O   0  0  0  0  0  0  0  0  0  0  0  0
   -6.7330   17.2760  -33.6850 N   0  0  0  0  0  0  0  0  0  0  0  0
   -5.3940   16.9350  -34.0770 C   0  0  0  0  0  0  0  0  0  0  0  0
   -4.4070   17.9170  -34.2860 C   0  0  0  0  0  0  0  0  0  0  0  0
   -3.1110   17.5440  -34.6560 C   0  0  0  0  0  0  0  0  0  0  0  0
   -2.7880   16.1940  -34.8140 C   0  0  0  0  0  0  0  0  0  0  0  0
   -3.7560   15.2130  -34.5830 C   0  0  0  0  0  0  0  0  0  0  0  0
   -5.0510   15.5830  -34.2070 C   0  0  0  0  0  0  0  0  0  0  0  0
   -6.1540   21.6550  -32.1230 C   0  0  0  0  0  0  0  0  0  0  0  0
   -4.0160   23.1280  -30.1180 C   0  0  0  0  0  0  0  0  0  0  0  0
   -3.6430   21.9120  -29.5440 C   0  0  0  0  0  0  0  0  0  0  0  0
   -0.8050   19.9330  -28.7230 N   0  0  0  0  0  0  0  0  0  0  0  0
    1.7491   18.4504  -26.5432 H   0  0  0  0  0  0  0  0  0  0  0  0
    2.4446   17.7772  -28.0564 H   0  0  0  0  0  0  0  0  0  0  0  0
    1.7124   19.4175  -28.0564 H   0  0  0  0  0  0  0  0  0  0  0  0
    0.0494   17.0152  -27.2532 H   0  0  0  0  0  0  0  0  0  0  0  0
    0.3782   16.0402  -29.2508 H   0  0  0  0  0  0  0  0  0  0  0  0
   -0.5945   17.3907  -29.9265 H   0  0  0  0  0  0  0  0  0  0  0  0
    1.1992   17.4880  -29.9265 H   0  0  0  0  0  0  0  0  0  0  0  0
   -0.6243   22.9559  -28.2574 H   0  0  0  0  0  0  0  0  0  0  0  0
   -1.4084   25.1379  -29.2448 H   0  0  0  0  0  0  0  0  0  0  0  0
   -7.7170   23.9291  -30.1043 H   0  0  0  0  0  0  0  0  0  0  0  0
   -9.6929   22.5729  -30.7903 H   0  0  0  0  0  0  0  0  0  0  0  0
   -9.4013   20.5939  -32.2791 H   0  0  0  0  0  0  0  0  0  0  0  0
   -7.0840   19.8330  -34.3410 H   0  0  0  0  0  0  0  0  0  0  0  0
   -4.6560   18.9808  -34.1579 H   0  0  0  0  0  0  0  0  0  0  0  0
   -2.3444   18.3150  -34.8230 H   0  0  0  0  0  0  0  0  0  0  0  0
   -1.7722   15.9034  -35.1201 H   0  0  0  0  0  0  0  0  0  0  0  0
   -3.4992   14.1495  -34.6970 H   0  0  0  0  0  0  0  0  0  0  0  0
   -5.8058   14.8069  -34.0119 H   0  0  0  0  0  0  0  0  0  0  0  0
   -5.1664   21.4359  -32.5550 H   0  0  0  0  0  0  0  0  0  0  0  0
   -4.3013   21.0328  -29.6050 H   0  0  0  0  0  0  0  0  0  0  0  0
  1  2  1  0
  2  3  1  0
  2  4  1  0
  4  5  2  0
  5  6  1  0
  6  7  1  0
  7  8  1  0
  8  9  2  0
  9 10  1  0
 10 11  2  0
 11 12  1  0
 12 13  1  0
 13 14  2  0
 14 15  1  0
 15 16  2  0
 16 17  1  0
 17 18  2  0
 18 19  1  0
 19 20  1  0
 20 21  1  0
 21 22  2  0
 21 23  1  0
 23 24  1  0
 24 25  2  0
 25 26  1  0
 26 27  2  0
 27 28  1  0
 28 29  2  0
 19 30  2  0
 14 31  1  0
 31 32  2  0
  7 33  2  0
 33  4  1  0
 32  8  1  0
 31 11  1  0
 30 15  1  0
 29 24  1  0
  1 34  1  0
  1 35  1  0
  1 36  1  0
  2 37  1  0
  3 38  1  0
  3 39  1  0
  3 40  1  0
  9 41  1  0
 10 42  1  0
 16 43  1  0
 17 44  1  0
 18 45  1  0
 20 46  1  0
 25 47  1  0
 26 48  1  0
 27 49  1  0
 28 50  1  0
 29 51  1  0
 30 52  1  0
 32 53  1  0
M  CHG  3   6  -1  12  -1  23  -1
M  END
>  <UniqueID>  (39) 
37

>  <SMILES>  (39) 
CC(C)c1n[n-]c(-c2ccc3[n-]nc(-c4cccc(NC(=O)[N-]c5ccccc5)c4)c3c2)n1

>  <Energy>  (39) 
132.66838356224306

>  <Genealogy>  (39) 
CC(C)c1n[n-]c(-c2ccc3[n-]nc(-c4cccc(NC(=O)[N-]c5ccccc5)c4)c3c2)n1 (protonated)
CC(C)c1n[n-]c(-c2ccc3[n-]nc(-c4cccc(NC(=O)[N-]c5ccccc5)c4)c3c2)n1 (3D coordinates assigned)
CC(C)c1n[n-]c(-c2ccc3[n-]nc(-c4cccc(NC(=O)[N-]c5ccccc5)c4)c3c2)n1 (optimized conformer: 132.66838356224306 kcal/mol)

>  <smiles>  (39) 
CC(C)c1n[nH]c(-c2ccc3[nH]nc(-c4cccc(NC(=O)Nc5ccccc5)c4)c3c2)n1

>  <score_type>  (39) 
oracle

>  <origin>  (39) 
adgpu

>  <m_score__min__energy>  (39) 
-12.42

>  <m_primary>  (39) 
energy

$$$$
39:0
     RDKit          3D

 54 56  0  0  1  0  0  0  0  0999 V2000
   -4.8250   17.5430  -34.9480 C   0  0  0  0  0  0  0  0  0  0  0  0
   -4.3040   18.7600  -34.4380 O   0  0  0  0  0  0  0  0  0  0  0  0
   -5.1450   19.6260  -33.7470 C   0  0  0  0  0  0  0  0  0  0  0  0
   -6.4780   19.2950  -33.7170 C   0  0  0  0  0  0  0  0  0  0  0  0
   -7.3070   20.1540  -33.0340 C   0  0  0  0  0  0  0  0  0  0  0  0
   -8.6110   19.8400  -32.9970 N   0  0  0  0  0  0  0  0  0  0  0  0
   -9.4340   20.6640  -32.3340 C   0  0  0  0  0  0  0  0  0  0  0  0
   -8.9990   21.7660  -31.7240 N   0  0  0  0  0  0  0  0  0  0  0  0
   -7.6860   22.0720  -31.7680 C   0  0  0  0  0  0  0  0  0  0  0  0
   -7.3230   23.1210  -31.1960 N   0  0  0  0  0  0  0  0  0  0  0  0
   -6.0320   23.6640  -31.0950 C   0  0  0  0  0  0  0  0  0  0  0  0
   -5.6660   23.2460  -29.6230 C   0  0  0  0  0  0  0  0  0  0  0  0
   -4.1920   23.2930  -29.4560 C   0  0  0  0  0  0  0  0  0  0  0  0
   -3.6180   24.5440  -29.2970 C   0  0  0  0  0  0  0  0  0  0  0  0
   -2.2450   24.6300  -29.1380 C   0  0  0  0  0  0  0  0  0  0  0  0
   -1.6140   25.8550  -28.9750 O   0  0  0  0  0  0  0  0  0  0  0  0
   -0.9050   26.1710  -27.8000 C   0  0  0  0  0  0  0  0  0  0  0  0
   -1.4480   23.4880  -29.1370 C   0  0  0  0  0  0  0  0  0  0  0  0
   -0.0570   23.6340  -28.9730 O   0  0  0  0  0  0  0  0  0  0  0  0
    0.4980   23.1150  -27.7640 C   0  0  0  0  0  0  0  0  0  0  0  0
   -2.0300   22.2460  -29.2970 C   0  0  0  0  0  0  0  0  0  0  0  0
   -1.2080   21.1440  -29.2900 O   0  0  0  0  0  0  0  0  0  0  0  0
   -1.3460   20.1040  -28.3400 C   0  0  0  0  0  0  0  0  0  0  0  0
   -3.4160   22.1520  -29.4570 C   0  0  0  0  0  0  0  0  0  0  0  0
   -6.7760   21.2840  -32.4220 C   0  0  0  0  0  0  0  0  0  0  0  0
   -5.4450   21.5760  -32.4740 C   0  0  0  0  0  0  0  0  0  0  0  0
   -4.5730   20.7090  -33.1700 C   0  0  0  0  0  0  0  0  0  0  0  0
   -3.2290   20.9320  -33.2690 O   0  0  0  0  0  0  0  0  0  0  0  0
   -2.2810   20.3610  -32.3850 C   0  0  0  0  0  0  0  0  0  0  0  0
   -5.1064   16.8857  -34.1121 H   0  0  0  0  0  0  0  0  0  0  0  0
   -5.7120   17.7533  -35.5637 H   0  0  0  0  0  0  0  0  0  0  0  0
   -4.0606   17.0464  -35.5637 H   0  0  0  0  0  0  0  0  0  0  0  0
   -6.8618   18.3912  -34.2128 H   0  0  0  0  0  0  0  0  0  0  0  0
   -8.9900   18.9740  -33.4690 H   0  0  0  0  0  0  0  0  0  0  0  0
  -10.5063   20.4222  -32.2918 H   0  0  0  0  0  0  0  0  0  0  0  0
   -5.3441   23.2173  -31.8280 H   0  0  0  0  0  0  0  0  0  0  0  0
   -5.9694   24.7436  -31.2963 H   0  0  0  0  0  0  0  0  0  0  0  0
   -6.1392   23.9416  -28.9143 H   0  0  0  0  0  0  0  0  0  0  0  0
   -6.0284   22.2261  -29.4269 H   0  0  0  0  0  0  0  0  0  0  0  0
   -4.2405   25.4509  -29.2971 H   0  0  0  0  0  0  0  0  0  0  0  0
   -1.5108   25.9010  -26.9224 H   0  0  0  0  0  0  0  0  0  0  0  0
    0.0404   25.6091  -27.7799 H   0  0  0  0  0  0  0  0  0  0  0  0
   -0.6908   27.2498  -27.7799 H   0  0  0  0  0  0  0  0  0  0  0  0
   -0.0008   23.5815  -26.9017 H   0  0  0  0  0  0  0  0  0  0  0  0
    0.3477   22.0259  -27.7295 H   0  0  0  0  0  0  0  0  0  0  0  0
    1.5746   23.3379  -27.7295 H   0  0  0  0  0  0  0  0  0  0  0  0
   -1.2902   20.5246  -27.3251 H   0  0  0  0  0  0  0  0  0  0  0  0
   -2.3179   19.6077  -28.4783 H   0  0  0  0  0  0  0  0  0  0  0  0
   -0.5372   19.3714  -28.4783 H   0  0  0  0  0  0  0  0  0  0  0  0
   -3.8885   21.1668  -29.5839 H   0  0  0  0  0  0  0  0  0  0  0  0
   -5.0542   22.4773  -31.9792 H   0  0  0  0  0  0  0  0  0  0  0  0
   -2.5901   20.5471  -31.3458 H   0  0  0  0  0  0  0  0  0  0  0  0
   -2.2218   19.2768  -32.5613 H   0  0  0  0  0  0  0  0  0  0  0  0
   -1.2950   20.8156  -32.5613 H   0  0  0  0  0  0  0  0  0  0  0  0
  1  2  1  0
  2  3  1  0
  3  4  2  0
  4  5  1  0
  5  6  1  0
  6  7  1  0
  7  8  2  0
  8  9  1  0
  9 10  2  0
 10 11  1  0
 11 12  1  0
 12 13  1  0
 13 14  2  0
 14 15  1  0
 15 16  1  0
 16 17  1  0
 15 18  2  0
 18 19  1  0
 19 20  1  0
 18 21  1  0
 21 22  1  0
 22 23  1  0
 21 24  2  0
  9 25  1  0
 25 26  1  0
 26 27  2  0
 27 28  1  0
 28 29  1  0
 27  3  1  0
 25  5  2  0
 24 13  1  0
  1 30  1  0
  1 31  1  0
  1 32  1  0
  4 33  1  0
  6 34  1  0
  7 35  1  0
 11 36  1  0
 11 37  1  0
 12 38  1  0
 12 39  1  0
 14 40  1  0
 17 41  1  0
 17 42  1  0
 17 43  1  0
 20 44  1  0
 20 45  1  0
 20 46  1  0
 23 47  1  0
 23 48  1  0
 23 49  1  0
 24 50  1  0
 26 51  1  0
 29 52  1  0
 29 53  1  0
 29 54  1  0
M  END
>  <smiles>  (40) 
COc1cc2[nH]cnc(=NCCc3cc(OC)c(OC)c(OC)c3)c2cc1OC

>  <score_type>  (40) 
oracle

>  <origin>  (40) 
adgpu

>  <m_score__min__energy>  (40) 
-7.9100000000000001

>  <m_primary>  (40) 
energy

$$$$
40:0
     RDKit          3D

 47 50  0  0  0  0  0  0  0  0999 V2000
   -8.9940   22.9310  -31.9490 C   0  0  0  0  0  0  0  0  0  0  0  0
   -9.3270   21.5480  -31.9000 O   0  0  0  0  0  0  0  0  0  0  0  0
   -8.4140   20.5050  -32.1180 C   0  0  0  0  0  0  0  0  0  0  0  0
   -8.6650   19.1850  -31.6980 C   0  0  0  0  0  0  0  0  0  0  0  0
   -7.7320   18.1780  -31.9560 C   0  0  0  0  0  0  0  0  0  0  0  0
   -6.5420   18.4760  -32.6240 C   0  0  0  0  0  0  0  0  0  0  0  0
   -6.2650   19.7880  -33.0240 C   0  0  0  0  0  0  0  0  0  0  0  0
   -5.0390   20.0480  -33.7240 N   0  0  0  0  0  0  0  0  0  0  0  0
   -3.8620   20.6620  -33.1850 C   0  0  0  0  0  0  0  0  0  0  0  0
   -2.7150   20.2840  -33.5470 O   0  0  0  0  0  0  0  0  0  0  0  0
   -3.9940   21.7820  -32.2420 C   0  0  0  0  0  0  0  0  0  0  0  0
   -3.3990   21.8800  -31.0010 C   0  0  0  0  0  0  0  0  0  0  0  0
   -3.8320   23.1050  -30.5110 C   0  0  0  0  0  0  0  0  0  0  0  0
   -3.4910   23.7140  -29.2030 C   0  0  0  0  0  0  0  0  0  0  0  0
   -2.1660   24.0590  -28.8780 C   0  0  0  0  0  0  0  0  0  0  0  0
   -1.8630   24.6320  -27.6400 C   0  0  0  0  0  0  0  0  0  0  0  0
   -2.8780   24.8580  -26.6950 C   0  0  0  0  0  0  0  0  0  0  0  0
   -2.6150   25.4430  -25.4480 O   0  0  0  0  0  0  0  0  0  0  0  0
   -1.5600   26.3220  -25.1690 C   0  0  0  0  0  0  0  0  0  0  0  0
   -0.8480   26.2700  -23.9570 C   0  0  0  0  0  0  0  0  0  0  0  0
    0.1870   27.1740  -23.7090 C   0  0  0  0  0  0  0  0  0  0  0  0
    0.5170   28.1470  -24.6580 C   0  0  0  0  0  0  0  0  0  0  0  0
    1.8250   29.2690  -24.3100 Cl  0  0  0  0  0  0  0  0  0  0  0  0
   -0.2040   28.2190  -25.8630 C   0  0  0  0  0  0  0  0  0  0  0  0
    0.1690   29.4340  -27.0780 Cl  0  0  0  0  0  0  0  0  0  0  0  0
   -1.2410   27.3110  -26.1080 C   0  0  0  0  0  0  0  0  0  0  0  0
   -4.1990   24.5350  -27.0220 C   0  0  0  0  0  0  0  0  0  0  0  0
   -4.5050   23.9630  -28.2600 C   0  0  0  0  0  0  0  0  0  0  0  0
   -4.6390   23.6920  -31.4210 N   0  0  0  0  0  0  0  0  0  0  0  0
   -4.7310   22.8850  -32.4650 N   0  0  0  0  0  0  0  0  0  0  0  0
   -7.2170   20.7970  -32.7850 C   0  0  0  0  0  0  0  0  0  0  0  0
   -8.8999   23.3220  -30.9251 H   0  0  0  0  0  0  0  0  0  0  0  0
   -8.0392   23.0597  -32.4799 H   0  0  0  0  0  0  0  0  0  0  0  0
   -9.7856   23.4802  -32.4799 H   0  0  0  0  0  0  0  0  0  0  0  0
   -9.5975   18.9462  -31.1657 H   0  0  0  0  0  0  0  0  0  0  0  0
   -7.9351   17.1466  -31.6320 H   0  0  0  0  0  0  0  0  0  0  0  0
   -5.8187   17.6750  -32.8368 H   0  0  0  0  0  0  0  0  0  0  0  0
   -2.7336   21.1536  -30.5115 H   0  0  0  0  0  0  0  0  0  0  0  0
   -1.3613   23.8759  -29.6053 H   0  0  0  0  0  0  0  0  0  0  0  0
   -0.8245   24.9075  -27.4041 H   0  0  0  0  0  0  0  0  0  0  0  0
   -1.1076   25.5140  -23.2013 H   0  0  0  0  0  0  0  0  0  0  0  0
    0.7454   27.1206  -22.7628 H   0  0  0  0  0  0  0  0  0  0  0  0
   -1.8106   27.3749  -27.0468 H   0  0  0  0  0  0  0  0  0  0  0  0
   -5.0038   24.7328  -26.2987 H   0  0  0  0  0  0  0  0  0  0  0  0
   -5.5473   23.7053  -28.4991 H   0  0  0  0  0  0  0  0  0  0  0  0
   -5.2970   23.0960  -33.3170 H   0  0  0  0  0  0  0  0  0  0  0  0
   -7.0193   21.8243  -33.1251 H   0  0  0  0  0  0  0  0  0  0  0  0
  1  2  1  0
  2  3  1  0
  3  4  2  0
  4  5  1  0
  5  6  2  0
  6  7  1  0
  7  8  1  0
  8  9  1  0
  9 10  2  0
  9 11  1  0
 11 12  2  0
 12 13  1  0
 13 14  1  0
 14 15  2  0
 15 16  1  0
 16 17  2  0
 17 18  1  0
 18 19  1  0
 19 20  2  0
 20 21  1  0
 21 22  2  0
 22 23  1  0
 22 24  1  0
 24 25  1  0
 24 26  2  0
 17 27  1  0
 27 28  2  0
 13 29  2  0
 29 30  1  0
  7 31  2  0
 31  3  1  0
 30 11  1  0
 28 14  1  0
 26 19  1  0
  1 32  1  0
  1 33  1  0
  1 34  1  0
  4 35  1  0
  5 36  1  0
  6 37  1  0
 12 38  1  0
 15 39  1  0
 16 40  1  0
 20 41  1  0
 21 42  1  0
 26 43  1  0
 27 44  1  0
 28 45  1  0
 30 46  1  0
 31 47  1  0
M  CHG  1   8  -1
M  END
>  <UniqueID>  (41) 
38

>  <SMILES>  (41) 
COc1cccc([N-]C(=O)c2cc(-c3ccc(Oc4ccc(Cl)c(Cl)c4)cc3)n[nH]2)c1

>  <Energy>  (41) 
92.3505482647498

>  <Genealogy>  (41) 
COc1cccc([N-]C(=O)c2cc(-c3ccc(Oc4ccc(Cl)c(Cl)c4)cc3)n[nH]2)c1 (protonated)
COc1cccc([N-]C(=O)c2cc(-c3ccc(Oc4ccc(Cl)c(Cl)c4)cc3)n[nH]2)c1 (3D coordinates assigned)
COc1cccc([N-]C(=O)c2cc(-c3ccc(Oc4ccc(Cl)c(Cl)c4)cc3)n[nH]2)c1 (optimized conformer: 92.3505482647498 kcal/mol)

>  <smiles>  (41) 
COc1cccc(NC(=O)c2cc(-c3ccc(Oc4ccc(Cl)c(Cl)c4)cc3)n[nH]2)c1

>  <score_type>  (41) 
oracle

>  <origin>  (41) 
adgpu

>  <m_score__min__energy>  (41) 
-11.18

>  <m_primary>  (41) 
energy

$$$$
41:0
     RDKit          3D

 28 30  0  0  0  0  0  0  0  0999 V2000
   -9.1150   19.1330  -32.0690 C   0  0  0  0  0  0  0  0  0  0  0  0
   -7.9420   18.4080  -31.9970 C   0  0  0  0  0  0  0  0  0  0  0  0
   -6.9160   19.2090  -32.1740 O   0  0  0  0  0  0  0  0  0  0  0  0
   -7.3650   20.4280  -32.3570 C   0  0  0  0  0  0  0  0  0  0  0  0
   -6.4900   21.6120  -32.6150 C   0  0  0  0  0  0  0  0  0  0  0  0
   -7.2730   23.1360  -31.9890 S   0  0  0  0  0  0  0  0  0  0  0  0
   -5.9020   23.5850  -30.9230 C   0  0  0  0  0  0  0  0  0  0  0  0
   -5.7140   22.9470  -29.6990 C   0  0  0  0  0  0  0  0  0  0  0  0
   -4.6450   23.3260  -28.8910 C   0  0  0  0  0  0  0  0  0  0  0  0
   -3.7780   24.3370  -29.3300 C   0  0  0  0  0  0  0  0  0  0  0  0
   -2.6280   24.7920  -28.5260 C   0  0  0  0  0  0  0  0  0  0  0  0
   -2.2960   24.3980  -27.2410 C   0  0  0  0  0  0  0  0  0  0  0  0
   -1.1490   25.0920  -26.9220 C   0  0  0  0  0  0  0  0  0  0  0  0
   -0.8490   25.8640  -28.0250 C   0  0  0  0  0  0  0  0  0  0  0  0
   -1.7460   25.6630  -28.9610 O   0  0  0  0  0  0  0  0  0  0  0  0
   -4.0060   24.9180  -30.5390 N   0  0  0  0  0  0  0  0  0  0  0  0
   -5.0320   24.5540  -31.3110 N   0  0  0  0  0  0  0  0  0  0  0  0
   -8.7450   20.4390  -32.3020 C   0  0  0  0  0  0  0  0  0  0  0  0
  -10.1389   18.7455  -31.9618 H   0  0  0  0  0  0  0  0  0  0  0  0
   -7.8767   17.3245  -31.8186 H   0  0  0  0  0  0  0  0  0  0  0  0
   -5.5252   21.4662  -32.1072 H   0  0  0  0  0  0  0  0  0  0  0  0
   -6.3374   21.7110  -33.6998 H   0  0  0  0  0  0  0  0  0  0  0  0
   -6.4023   22.1527  -29.3743 H   0  0  0  0  0  0  0  0  0  0  0  0
   -4.4824   22.8376  -27.9189 H   0  0  0  0  0  0  0  0  0  0  0  0
   -2.8358   23.6799  -26.6063 H   0  0  0  0  0  0  0  0  0  0  0  0
   -0.5863   25.0407  -25.9782 H   0  0  0  0  0  0  0  0  0  0  0  0
    0.0113   26.5445  -28.1073 H   0  0  0  0  0  0  0  0  0  0  0  0
   -9.4090   21.3081  -32.4196 H   0  0  0  0  0  0  0  0  0  0  0  0
  1  2  2  0
  2  3  1  0
  3  4  1  0
  4  5  1  0
  5  6  1  0
  6  7  1  0
  7  8  2  0
  8  9  1  0
  9 10  2  0
 10 11  1  0
 11 12  2  0
 12 13  1  0
 13 14  2  0
 14 15  1  0
 10 16  1  0
 16 17  2  0
  4 18  2  0
 18  1  1  0
 17  7  1  0
 15 11  1  0
  1 19  1  0
  2 20  1  0
  5 21  1  0
  5 22  1  0
  8 23  1  0
  9 24  1  0
 12 25  1  0
 13 26  1  0
 14 27  1  0
 18 28  1  0
M  END
>  <UniqueID>  (42) 
39

>  <SMILES>  (42) 
c1coc(CSc2ccc(-c3ccco3)nn2)c1

>  <Energy>  (42) 
78.5134539192872

>  <Genealogy>  (42) 
c1coc(CSc2ccc(-c3ccco3)nn2)c1 (3D coordinates assigned)
c1coc(CSc2ccc(-c3ccco3)nn2)c1 (optimized conformer: 78.5134539192872 kcal/mol)

>  <smiles>  (42) 
c1coc(CSc2ccc(-c3ccco3)nn2)c1

>  <score_type>  (42) 
oracle

>  <origin>  (42) 
adgpu

>  <m_score__min__energy>  (42) 
-8.1999999999999993

>  <m_primary>  (42) 
energy

$$$$
42:0
     RDKit          3D

 38 39  0  0  0  0  0  0  0  0999 V2000
   -2.8730   24.6390  -27.0130 C   0  0  0  0  0  0  0  0  0  0  0  0
   -1.9880   25.1760  -28.1330 C   0  0  0  0  0  0  0  0  0  0  0  0
   -2.7270   25.2990  -29.3490 O   0  0  0  0  0  0  0  0  0  0  0  0
   -3.7350   24.4240  -29.7850 C   0  0  0  0  0  0  0  0  0  0  0  0
   -5.0410   24.8530  -30.0780 C   0  0  0  0  0  0  0  0  0  0  0  0
   -6.0040   23.9370  -30.5070 C   0  0  0  0  0  0  0  0  0  0  0  0
   -5.6910   22.5720  -30.6480 C   0  0  0  0  0  0  0  0  0  0  0  0
   -6.7550   21.5890  -31.1170 C   0  0  0  0  0  0  0  0  0  0  0  0
   -6.2180   20.6490  -32.2250 C   0  0  0  0  0  0  0  0  0  0  0  0
   -7.2830   20.3020  -33.2830 C   0  0  0  0  0  0  0  0  0  0  0  0
   -8.6300   20.1230  -32.7030 N   0  0  0  0  0  0  0  0  0  0  0  0
   -8.7300   18.8800  -31.9190 C   0  0  0  0  0  0  0  0  0  0  0  0
   -9.1280   21.3070  -31.9520 C   0  0  0  0  0  0  0  0  0  0  0  0
   -8.0300   22.3180  -31.5680 C   0  0  0  0  0  0  0  0  0  0  0  0
   -4.3780   22.1430  -30.3530 C   0  0  0  0  0  0  0  0  0  0  0  0
   -4.0250   20.8000  -30.4850 O   0  0  0  0  0  0  0  0  0  0  0  0
   -3.4170   23.0700  -29.9230 C   0  0  0  0  0  0  0  0  0  0  0  0
   -2.4347   24.9050  -26.0398 H   0  0  0  0  0  0  0  0  0  0  0  0
   -3.8772   25.0802  -27.0957 H   0  0  0  0  0  0  0  0  0  0  0  0
   -2.9454   23.5445  -27.0957 H   0  0  0  0  0  0  0  0  0  0  0  0
   -1.6013   26.1646  -27.8445 H   0  0  0  0  0  0  0  0  0  0  0  0
   -1.1581   24.4723  -28.2946 H   0  0  0  0  0  0  0  0  0  0  0  0
   -5.3058   25.9151  -29.9689 H   0  0  0  0  0  0  0  0  0  0  0  0
   -7.0209   24.2871  -30.7378 H   0  0  0  0  0  0  0  0  0  0  0  0
   -7.0200   20.9582  -30.2557 H   0  0  0  0  0  0  0  0  0  0  0  0
   -5.3730   21.1437  -32.7263 H   0  0  0  0  0  0  0  0  0  0  0  0
   -5.9130   19.7089  -31.7420 H   0  0  0  0  0  0  0  0  0  0  0  0
   -7.3237   21.1167  -34.0210 H   0  0  0  0  0  0  0  0  0  0  0  0
   -6.9919   19.3470  -33.7447 H   0  0  0  0  0  0  0  0  0  0  0  0
   -8.7106   19.1208  -30.8459 H   0  0  0  0  0  0  0  0  0  0  0  0
   -9.6723   18.3675  -32.1628 H   0  0  0  0  0  0  0  0  0  0  0  0
   -7.8818   18.2235  -32.1628 H   0  0  0  0  0  0  0  0  0  0  0  0
   -9.8706   21.8247  -32.5769 H   0  0  0  0  0  0  0  0  0  0  0  0
   -9.5532   20.9288  -31.0106 H   0  0  0  0  0  0  0  0  0  0  0  0
   -7.7972   22.9469  -32.4399 H   0  0  0  0  0  0  0  0  0  0  0  0
   -8.3956   22.9387  -30.7367 H   0  0  0  0  0  0  0  0  0  0  0  0
   -3.0900   20.4710  -30.2730 H   0  0  0  0  0  0  0  0  0  0  0  0
   -2.3982   22.7262  -29.6910 H   0  0  0  0  0  0  0  0  0  0  0  0
  1  2  1  0
  2  3  1  0
  3  4  1  0
  4  5  2  0
  5  6  1  0
  6  7  2  0
  7  8  1  0
  8  9  1  0
  9 10  1  0
 10 11  1  0
 11 12  1  0
 11 13  1  0
 13 14  1  0
  7 15  1  0
 15 16  1  0
 15 17  2  0
 17  4  1  0
 14  8  1  0
  1 18  1  0
  1 19  1  0
  1 20  1  0
  2 21  1  0
  2 22  1  0
  5 23  1  0
  6 24  1  0
  8 25  1  0
  9 26  1  0
  9 27  1  0
 10 28  1  0
 10 29  1  0
 12 30  1  0
 12 31  1  0
 12 32  1  0
 13 33  1  0
 13 34  1  0
 14 35  1  0
 14 36  1  0
 16 37  1  0
 17 38  1  0
M  END
>  <UniqueID>  (43) 
40

>  <SMILES>  (43) 
CCOc1ccc(C2CCN(C)CC2)c(O)c1

>  <Energy>  (43) 
45.066414135826264

>  <Genealogy>  (43) 
CCOc1ccc(C2CCN(C)CC2)c(O)c1 (3D coordinates assigned)
CCOc1ccc(C2CCN(C)CC2)c(O)c1 (nonaromatic ring conformer: 45.066414135826264 kcal/mol)

>  <smiles>  (43) 
CCOc1ccc(C2CCN(C)CC2)c(O)c1

>  <score_type>  (43) 
oracle

>  <origin>  (43) 
adgpu

>  <m_score__min__energy>  (43) 
-7

>  <m_primary>  (43) 
energy

$$$$
43:0
     RDKit          3D

 59 61  0  0  0  0  0  0  0  0999 V2000
    4.3780   25.6530  -29.5710 C   0  0  0  0  0  0  0  0  0  0  0  0
    4.5100   24.5780  -28.5970 N   0  0  0  0  0  0  0  0  0  0  0  0
    4.0460   24.6640  -27.2460 C   0  0  0  0  0  0  0  0  0  0  0  0
    4.7250   24.1220  -26.3340 O   0  0  0  0  0  0  0  0  0  0  0  0
    2.7720   25.3840  -26.9060 C   0  0  0  0  0  0  0  0  0  0  0  0
    1.7170   24.4530  -26.6790 O   0  0  0  0  0  0  0  0  0  0  0  0
    0.5410   24.3880  -27.4440 C   0  0  0  0  0  0  0  0  0  0  0  0
    0.2900   23.2250  -28.1810 C   0  0  0  0  0  0  0  0  0  0  0  0
   -0.8670   23.1130  -28.9570 C   0  0  0  0  0  0  0  0  0  0  0  0
   -1.7950   24.1650  -29.0070 C   0  0  0  0  0  0  0  0  0  0  0  0
   -3.0190   24.0540  -29.8230 C   0  0  0  0  0  0  0  0  0  0  0  0
   -3.7080   22.9100  -30.0110 N   0  0  0  0  0  0  0  0  0  0  0  0
   -4.7140   23.3280  -30.8100 C   0  0  0  0  0  0  0  0  0  0  0  0
   -5.7780   22.4410  -31.3280 C   0  0  0  0  0  0  0  0  0  0  0  0
   -7.0420   22.4180  -30.7180 C   0  0  0  0  0  0  0  0  0  0  0  0
   -8.0580   21.5770  -31.2010 C   0  0  0  0  0  0  0  0  0  0  0  0
   -9.4000   21.5530  -30.5230 C   0  0  0  0  0  0  0  0  0  0  0  0
   -7.7980   20.7330  -32.2970 C   0  0  0  0  0  0  0  0  0  0  0  0
   -8.7980   19.8700  -32.7560 O   0  0  0  0  0  0  0  0  0  0  0  0
   -8.9850   18.5800  -32.1830 C   0  0  0  0  0  0  0  0  0  0  0  0
   -7.6610   17.8890  -32.0710 C   0  0  0  0  0  0  0  0  0  0  0  0
   -6.9450   18.1010  -31.1030 O   0  0  0  0  0  0  0  0  0  0  0  0
   -7.1950   16.9470  -33.1460 C   0  0  0  0  0  0  0  0  0  0  0  0
   -5.7870   16.6150  -32.9550 N   0  0  0  0  0  0  0  0  0  0  0  0
   -4.7510   17.0280  -33.8520 C   0  0  0  0  0  0  0  0  0  0  0  0
   -4.7650   16.6630  -35.0580 O   0  0  0  0  0  0  0  0  0  0  0  0
   -3.6780   17.9500  -33.3680 C   0  0  0  0  0  0  0  0  0  0  0  0
   -4.1720   18.7630  -32.3400 O   0  0  0  0  0  0  0  0  0  0  0  0
   -6.5440   20.7720  -32.9360 C   0  0  0  0  0  0  0  0  0  0  0  0
   -6.2500   19.8820  -34.1120 C   0  0  0  0  0  0  0  0  0  0  0  0
   -5.5380   21.6120  -32.4360 C   0  0  0  0  0  0  0  0  0  0  0  0
   -4.6330   24.6440  -31.0880 N   0  0  0  0  0  0  0  0  0  0  0  0
   -3.5740   25.0560  -30.4600 O   0  0  0  0  0  0  0  0  0  0  0  0
   -1.5450   25.3320  -28.2670 C   0  0  0  0  0  0  0  0  0  0  0  0
   -0.3880   25.4450  -27.4920 C   0  0  0  0  0  0  0  0  0  0  0  0
    4.2603   26.6119  -29.0450 H   0  0  0  0  0  0  0  0  0  0  0  0
    5.2785   25.6889  -30.2017 H   0  0  0  0  0  0  0  0  0  0  0  0
    3.4956   25.4700  -30.2017 H   0  0  0  0  0  0  0  0  0  0  0  0
    2.9269   25.9840  -25.9972 H   0  0  0  0  0  0  0  0  0  0  0  0
    2.4961   26.0354  -27.7484 H   0  0  0  0  0  0  0  0  0  0  0  0
    1.0087   22.3929  -28.1493 H   0  0  0  0  0  0  0  0  0  0  0  0
   -1.0517   22.1940  -29.5326 H   0  0  0  0  0  0  0  0  0  0  0  0
   -7.2392   23.0663  -29.8515 H   0  0  0  0  0  0  0  0  0  0  0  0
   -9.2597   21.5555  -29.4320 H   0  0  0  0  0  0  0  0  0  0  0  0
   -9.9771   22.4410  -30.8205 H   0  0  0  0  0  0  0  0  0  0  0  0
   -9.9449   20.6450  -30.8205 H   0  0  0  0  0  0  0  0  0  0  0  0
   -9.4306   18.6838  -31.1827 H   0  0  0  0  0  0  0  0  0  0  0  0
   -9.6558   17.9875  -32.8225 H   0  0  0  0  0  0  0  0  0  0  0  0
   -7.7937   16.0251  -33.1048 H   0  0  0  0  0  0  0  0  0  0  0  0
   -7.3176   17.4335  -34.1249 H   0  0  0  0  0  0  0  0  0  0  0  0
   -2.8323   17.3574  -32.9891 H   0  0  0  0  0  0  0  0  0  0  0  0
   -3.3449   18.5853  -34.2019 H   0  0  0  0  0  0  0  0  0  0  0  0
   -5.1000   18.4590  -32.1580 H   0  0  0  0  0  0  0  0  0  0  0  0
   -5.9239   18.8949  -33.7523 H   0  0  0  0  0  0  0  0  0  0  0  0
   -7.1583   19.7683  -34.7219 H   0  0  0  0  0  0  0  0  0  0  0  0
   -5.4527   20.3318  -34.7219 H   0  0  0  0  0  0  0  0  0  0  0  0
   -4.5491   21.6215  -32.9176 H   0  0  0  0  0  0  0  0  0  0  0  0
   -2.2651   26.1630  -28.2977 H   0  0  0  0  0  0  0  0  0  0  0  0
   -0.2020   26.3639  -26.9167 H   0  0  0  0  0  0  0  0  0  0  0  0
  1  2  1  0
  2  3  1  0
  3  4  2  0
  3  5  1  0
  5  6  1  0
  6  7  1  0
  7  8  2  0
  8  9  1  0
  9 10  2  0
 10 11  1  0
 11 12  2  0
 12 13  1  0
 13 14  1  0
 14 15  2  0
 15 16  1  0
 16 17  1  0
 16 18  2  0
 18 19  1  0
 19 20  1  0
 20 21  1  0
 21 22  2  0
 21 23  1  0
 23 24  1  0
 24 25  1  0
 25 26  2  0
 25 27  1  0
 27 28  1  0
 18 29  1  0
 29 30  1  0
 29 31  2  0
 13 32  2  0
 32 33  1  0
 10 34  1  0
 34 35  2  0
 35  7  1  0
 33 11  1  0
 31 14  1  0
  1 36  1  0
  1 37  1  0
  1 38  1  0
  5 39  1  0
  5 40  1  0
  8 41  1  0
  9 42  1  0
 15 43  1  0
 17 44  1  0
 17 45  1  0
 17 46  1  0
 20 47  1  0
 20 48  1  0
 23 49  1  0
 23 50  1  0
 27 51  1  0
 27 52  1  0
 28 53  1  0
 30 54  1  0
 30 55  1  0
 30 56  1  0
 31 57  1  0
 34 58  1  0
 35 59  1  0
M  CHG  2   2  -1  24  -1
M  END
>  <UniqueID>  (44) 
41

>  <SMILES>  (44) 
C[N-]C(=O)COc1ccc(-c2nc(-c3cc(C)c(OCC(=O)C[N-]C(=O)CO)c(C)c3)no2)cc1

>  <Energy>  (44) 
89.83544845326936

>  <Genealogy>  (44) 
C[N-]C(=O)COc1ccc(-c2nc(-c3cc(C)c(OCC(=O)C[N-]C(=O)CO)c(C)c3)no2)cc1 (protonated)
C[N-]C(=O)COc1ccc(-c2nc(-c3cc(C)c(OCC(=O)C[N-]C(=O)CO)c(C)c3)no2)cc1 (3D coordinates assigned)
C[N-]C(=O)COc1ccc(-c2nc(-c3cc(C)c(OCC(=O)C[N-]C(=O)CO)c(C)c3)no2)cc1 (optimized conformer: 89.83544845326936 kcal/mol)

>  <smiles>  (44) 
CNC(=O)COc1ccc(-c2nc(-c3cc(C)c(OCC(=O)CNC(=O)CO)c(C)c3)no2)cc1

>  <score_type>  (44) 
oracle

>  <origin>  (44) 
adgpu

>  <m_score__min__energy>  (44) 
-9.5700000000000003

>  <m_primary>  (44) 
energy

$$$$
44:0
     RDKit          3D

 51 55  0  0  0  0  0  0  0  0999 V2000
   -1.9380   25.2700  -27.6740 C   0  0  0  0  0  0  0  0  0  0  0  0
   -2.4730   25.1540  -28.9870 O   0  0  0  0  0  0  0  0  0  0  0  0
   -2.4730   23.9720  -29.7460 C   0  0  0  0  0  0  0  0  0  0  0  0
   -1.4930   22.9770  -29.5760 C   0  0  0  0  0  0  0  0  0  0  0  0
   -1.5230   21.8150  -30.3480 C   0  0  0  0  0  0  0  0  0  0  0  0
   -2.5310   21.6190  -31.3060 C   0  0  0  0  0  0  0  0  0  0  0  0
   -2.5610   20.3810  -32.1260 C   0  0  0  0  0  0  0  0  0  0  0  0
   -3.5890   19.4980  -31.9990 N   0  0  0  0  0  0  0  0  0  0  0  0
   -3.6480   18.3540  -32.7280 C   0  0  0  0  0  0  0  0  0  0  0  0
   -5.0520   17.2610  -32.4750 S   0  0  0  0  0  0  0  0  0  0  0  0
   -6.0670   18.0810  -33.7460 C   0  0  0  0  0  0  0  0  0  0  0  0
   -6.6720   19.3170  -33.1700 C   0  0  0  0  0  0  0  0  0  0  0  0
   -7.9850   19.4080  -32.8260 N   0  0  0  0  0  0  0  0  0  0  0  0
   -8.0960   20.6840  -32.4180 C   0  0  0  0  0  0  0  0  0  0  0  0
   -9.2360   21.3340  -31.9500 C   0  0  0  0  0  0  0  0  0  0  0  0
   -9.1130   22.6890  -31.5860 C   0  0  0  0  0  0  0  0  0  0  0  0
   -7.8680   23.3510  -31.7000 C   0  0  0  0  0  0  0  0  0  0  0  0
   -6.7360   22.6640  -32.1790 C   0  0  0  0  0  0  0  0  0  0  0  0
   -6.8970   21.3250  -32.5270 C   0  0  0  0  0  0  0  0  0  0  0  0
   -5.9820   20.4740  -33.0070 N   0  0  0  0  0  0  0  0  0  0  0  0
   -2.6220   18.0630  -33.6480 C   0  0  0  0  0  0  0  0  0  0  0  0
   -2.6110   16.8990  -34.4410 C   0  0  0  0  0  0  0  0  0  0  0  0
   -1.5590   16.6700  -35.3340 C   0  0  0  0  0  0  0  0  0  0  0  0
   -0.5150   17.5920  -35.4440 C   0  0  0  0  0  0  0  0  0  0  0  0
   -0.5160   18.7510  -34.6630 C   0  0  0  0  0  0  0  0  0  0  0  0
   -1.5630   18.9900  -33.7660 C   0  0  0  0  0  0  0  0  0  0  0  0
   -1.5590   20.1160  -33.0080 N   0  0  0  0  0  0  0  0  0  0  0  0
   -3.5100   22.6140  -31.4750 C   0  0  0  0  0  0  0  0  0  0  0  0
   -3.4850   23.7900  -30.6980 C   0  0  0  0  0  0  0  0  0  0  0  0
   -4.4490   24.8010  -30.8450 O   0  0  0  0  0  0  0  0  0  0  0  0
   -5.5310   25.0240  -29.9460 C   0  0  0  0  0  0  0  0  0  0  0  0
   -2.7356   25.0971  -26.9365 H   0  0  0  0  0  0  0  0  0  0  0  0
   -1.1420   24.5236  -27.5351 H   0  0  0  0  0  0  0  0  0  0  0  0
   -1.5227   26.2791  -27.5351 H   0  0  0  0  0  0  0  0  0  0  0  0
   -0.6974   23.1160  -28.8292 H   0  0  0  0  0  0  0  0  0  0  0  0
   -0.7501   21.0455  -30.2049 H   0  0  0  0  0  0  0  0  0  0  0  0
   -5.4349   18.3473  -34.6059 H   0  0  0  0  0  0  0  0  0  0  0  0
   -6.8644   17.3998  -34.0777 H   0  0  0  0  0  0  0  0  0  0  0  0
  -10.1983   20.8074  -31.8677 H   0  0  0  0  0  0  0  0  0  0  0  0
   -9.9905   23.2359  -31.2107 H   0  0  0  0  0  0  0  0  0  0  0  0
   -7.7837   24.4094  -31.4126 H   0  0  0  0  0  0  0  0  0  0  0  0
   -5.7617   23.1657  -32.2747 H   0  0  0  0  0  0  0  0  0  0  0  0
   -4.9770   20.6620  -33.2170 H   0  0  0  0  0  0  0  0  0  0  0  0
   -3.4302   16.1696  -34.3580 H   0  0  0  0  0  0  0  0  0  0  0  0
   -1.5536   15.7602  -35.9522 H   0  0  0  0  0  0  0  0  0  0  0  0
    0.3100   17.4052  -36.1472 H   0  0  0  0  0  0  0  0  0  0  0  0
    0.3066   19.4756  -34.7535 H   0  0  0  0  0  0  0  0  0  0  0  0
   -4.3048   22.4731  -32.2223 H   0  0  0  0  0  0  0  0  0  0  0  0
   -5.1684   24.9493  -28.9102 H   0  0  0  0  0  0  0  0  0  0  0  0
   -5.9488   26.0271  -30.1168 H   0  0  0  0  0  0  0  0  0  0  0  0
   -6.3114   24.2678  -30.1168 H   0  0  0  0  0  0  0  0  0  0  0  0
  1  2  1  0
  2  3  1  0
  3  4  2  0
  4  5  1  0
  5  6  2  0
  6  7  1  0
  7  8  2  0
  8  9  1  0
  9 10  1  0
 10 11  1  0
 11 12  1  0
 12 13  2  0
 13 14  1  0
 14 15  2  0
 15 16  1  0
 16 17  2  0
 17 18  1  0
 18 19  2  0
 19 20  1  0
  9 21  2  0
 21 22  1  0
 22 23  2  0
 23 24  1  0
 24 25  2  0
 25 26  1  0
 26 27  2  0
  6 28  1  0
 28 29  2  0
 29 30  1  0
 30 31  1  0
 29  3  1  0
 27  7  1  0
 20 12  1  0
 26 21  1  0
 19 14  1  0
  1 32  1  0
  1 33  1  0
  1 34  1  0
  4 35  1  0
  5 36  1  0
 11 37  1  0
 11 38  1  0
 15 39  1  0
 16 40  1  0
 17 41  1  0
 18 42  1  0
 20 43  1  0
 22 44  1  0
 23 45  1  0
 24 46  1  0
 25 47  1  0
 28 48  1  0
 31 49  1  0
 31 50  1  0
 31 51  1  0
M  END
>  <UniqueID>  (45) 
42

>  <SMILES>  (45) 
COc1ccc(-c2nc(SCc3nc4ccccc4[nH]3)c3ccccc3n2)cc1OC

>  <Energy>  (45) 
93.62727497820737

>  <Genealogy>  (45) 
COc1ccc(-c2nc(SCc3nc4ccccc4[nH]3)c3ccccc3n2)cc1OC (3D coordinates assigned)
COc1ccc(-c2nc(SCc3nc4ccccc4[nH]3)c3ccccc3n2)cc1OC (optimized conformer: 93.62727497820737 kcal/mol)

>  <smiles>  (45) 
COc1ccc(-c2nc(SCc3nc4ccccc4[nH]3)c3ccccc3n2)cc1OC

>  <score_type>  (45) 
oracle

>  <origin>  (45) 
adgpu

>  <m_score__min__energy>  (45) 
-9.7300000000000004

>  <m_primary>  (45) 
energy

$$$$
45:0
     RDKit          3D

 64 67  0  0  0  0  0  0  0  0999 V2000
   -0.7210   18.5900  -31.5860 C   0  0  0  0  0  0  0  0  0  0  0  0
   -0.3930   20.0110  -31.7570 N   0  0  0  0  0  0  0  0  0  0  0  0
    0.1950   20.4700  -33.0190 C   0  0  0  0  0  0  0  0  0  0  0  0
   -0.5730   20.9620  -30.6830 C   0  0  0  0  0  0  0  0  0  0  0  0
   -0.1290   22.1350  -30.8200 O   0  0  0  0  0  0  0  0  0  0  0  0
   -1.2640   20.6040  -29.4180 C   0  0  0  0  0  0  0  0  0  0  0  0
   -0.7310   19.6160  -28.6470 N   0  0  0  0  0  0  0  0  0  0  0  0
   -1.3130   19.1930  -27.4960 C   0  0  0  0  0  0  0  0  0  0  0  0
   -2.5080   19.7650  -27.0680 C   0  0  0  0  0  0  0  0  0  0  0  0
   -3.0910   20.7750  -27.8300 C   0  0  0  0  0  0  0  0  0  0  0  0
   -2.4840   21.2110  -29.0170 C   0  0  0  0  0  0  0  0  0  0  0  0
   -3.1290   22.3030  -29.7850 C   0  0  0  0  0  0  0  0  0  0  0  0
   -3.9720   22.1270  -30.8800 C   0  0  0  0  0  0  0  0  0  0  0  0
   -4.4470   20.8590  -31.4630 C   0  0  0  0  0  0  0  0  0  0  0  0
   -3.6040   19.9360  -31.6230 O   0  0  0  0  0  0  0  0  0  0  0  0
   -5.9060   20.6020  -31.8180 C   0  0  0  0  0  0  0  0  0  0  0  0
   -6.1040   20.8090  -33.3320 C   0  0  0  0  0  0  0  0  0  0  0  0
   -6.8680   21.5420  -31.0600 C   0  0  0  0  0  0  0  0  0  0  0  0
   -6.2530   19.1460  -31.4510 C   0  0  0  0  0  0  0  0  0  0  0  0
   -4.3480   23.3890  -31.2890 C   0  0  0  0  0  0  0  0  0  0  0  0
   -5.1980   23.6920  -32.3470 O   0  0  0  0  0  0  0  0  0  0  0  0
   -3.7300   24.2840  -30.4460 C   0  0  0  0  0  0  0  0  0  0  0  0
   -3.8710   25.6670  -30.5030 O   0  0  0  0  0  0  0  0  0  0  0  0
   -2.9920   23.6300  -29.5240 N   0  0  0  0  0  0  0  0  0  0  0  0
   -2.2870   24.2430  -28.4310 C   0  0  0  0  0  0  0  0  0  0  0  0
   -0.9190   24.5370  -28.5420 C   0  0  0  0  0  0  0  0  0  0  0  0
   -0.2470   25.1740  -27.4970 C   0  0  0  0  0  0  0  0  0  0  0  0
   -0.9300   25.5320  -26.3220 C   0  0  0  0  0  0  0  0  0  0  0  0
   -0.2280   26.2510  -25.2300 C   0  0  0  0  0  0  0  0  0  0  0  0
   -0.8560   26.4490  -23.9870 C   0  0  0  0  0  0  0  0  0  0  0  0
   -0.1900   27.1220  -22.9570 C   0  0  0  0  0  0  0  0  0  0  0  0
    1.1050   27.6030  -23.1570 C   0  0  0  0  0  0  0  0  0  0  0  0
    1.7390   27.4110  -24.3870 C   0  0  0  0  0  0  0  0  0  0  0  0
    1.0790   26.7380  -25.4190 C   0  0  0  0  0  0  0  0  0  0  0  0
   -2.2960   25.2140  -26.2050 C   0  0  0  0  0  0  0  0  0  0  0  0
   -2.9650   24.5690  -27.2480 C   0  0  0  0  0  0  0  0  0  0  0  0
   -0.7757   18.3528  -30.5133 H   0  0  0  0  0  0  0  0  0  0  0  0
   -1.6916   18.3783  -32.0583 H   0  0  0  0  0  0  0  0  0  0  0  0
    0.0586   17.9743  -32.0583 H   0  0  0  0  0  0  0  0  0  0  0  0
    1.0458   21.1342  -32.8069 H   0  0  0  0  0  0  0  0  0  0  0  0
    0.5428   19.6021  -33.5985 H   0  0  0  0  0  0  0  0  0  0  0  0
   -0.5625   21.0181  -33.5985 H   0  0  0  0  0  0  0  0  0  0  0  0
   -0.8402   18.3978  -26.9010 H   0  0  0  0  0  0  0  0  0  0  0  0
   -2.9865   19.4232  -26.1384 H   0  0  0  0  0  0  0  0  0  0  0  0
   -4.0341   21.2339  -27.4985 H   0  0  0  0  0  0  0  0  0  0  0  0
   -6.8555   21.5946  -33.4995 H   0  0  0  0  0  0  0  0  0  0  0  0
   -5.1499   21.1109  -33.7887 H   0  0  0  0  0  0  0  0  0  0  0  0
   -6.4480   19.8693  -33.7887 H   0  0  0  0  0  0  0  0  0  0  0  0
   -6.7323   21.4094  -29.9765 H   0  0  0  0  0  0  0  0  0  0  0  0
   -6.6509   22.5856  -31.3317 H   0  0  0  0  0  0  0  0  0  0  0  0
   -7.9063   21.3008  -31.3317 H   0  0  0  0  0  0  0  0  0  0  0  0
   -6.2783   19.0398  -30.3564 H   0  0  0  0  0  0  0  0  0  0  0  0
   -7.2379   18.8877  -31.8673 H   0  0  0  0  0  0  0  0  0  0  0  0
   -5.4905   18.4712  -31.8673 H   0  0  0  0  0  0  0  0  0  0  0  0
   -5.0010   23.3620  -33.2840 H   0  0  0  0  0  0  0  0  0  0  0  0
   -0.3734   24.2640  -29.4573 H   0  0  0  0  0  0  0  0  0  0  0  0
    0.8257   25.3975  -27.5941 H   0  0  0  0  0  0  0  0  0  0  0  0
   -1.8766   26.0725  -23.8239 H   0  0  0  0  0  0  0  0  0  0  0  0
   -0.6878   27.2724  -21.9877 H   0  0  0  0  0  0  0  0  0  0  0  0
    1.6262   28.1331  -22.3463 H   0  0  0  0  0  0  0  0  0  0  0  0
    2.7596   27.7902  -24.5436 H   0  0  0  0  0  0  0  0  0  0  0  0
    1.5840   26.5880  -26.3846 H   0  0  0  0  0  0  0  0  0  0  0  0
   -2.8407   25.4752  -25.2857 H   0  0  0  0  0  0  0  0  0  0  0  0
   -4.0300   24.3154  -27.1405 H   0  0  0  0  0  0  0  0  0  0  0  0
  1  2  1  0
  2  3  1  0
  2  4  1  0
  4  5  2  0
  4  6  1  0
  6  7  2  0
  7  8  1  0
  8  9  2  0
  9 10  1  0
 10 11  2  0
 11 12  1  0
 12 13  2  0
 13 14  1  0
 14 15  2  0
 14 16  1  0
 16 17  1  0
 16 18  1  0
 16 19  1  0
 13 20  1  0
 20 21  1  0
 20 22  2  0
 22 23  1  0
 22 24  1  0
 24 25  1  0
 25 26  2  0
 26 27  1  0
 27 28  2  0
 28 29  1  0
 29 30  2  0
 30 31  1  0
 31 32  2  0
 32 33  1  0
 33 34  2  0
 28 35  1  0
 35 36  2  0
 11  6  1  0
 24 12  1  0
 36 25  1  0
 34 29  1  0
  1 37  1  0
  1 38  1  0
  1 39  1  0
  3 40  1  0
  3 41  1  0
  3 42  1  0
  8 43  1  0
  9 44  1  0
 10 45  1  0
 17 46  1  0
 17 47  1  0
 17 48  1  0
 18 49  1  0
 18 50  1  0
 18 51  1  0
 19 52  1  0
 19 53  1  0
 19 54  1  0
 21 55  1  0
 26 56  1  0
 27 57  1  0
 30 58  1  0
 31 59  1  0
 32 60  1  0
 33 61  1  0
 34 62  1  0
 35 63  1  0
 36 64  1  0
M  CHG  1  23  -1
M  END
>  <UniqueID>  (46) 
43

>  <SMILES>  (46) 
CN(C)C(=O)c1ncccc1-c1c(C(=O)C(C)(C)C)c(O)c([O-])n1-c1ccc(-c2ccccc2)cc1

>  <Energy>  (46) 
115.29301227198003

>  <Genealogy>  (46) 
CN(C)C(=O)c1ncccc1-c1c(C(=O)C(C)(C)C)c(O)c([O-])n1-c1ccc(-c2ccccc2)cc1 (protonated)
CN(C)C(=O)c1ncccc1-c1c(C(=O)C(C)(C)C)c(O)c([O-])n1-c1ccc(-c2ccccc2)cc1 (3D coordinates assigned)
CN(C)C(=O)c1ncccc1-c1c(C(=O)C(C)(C)C)c(O)c([O-])n1-c1ccc(-c2ccccc2)cc1 (optimized conformer: 115.29301227198003 kcal/mol)

>  <smiles>  (46) 
CN(C)C(=O)c1ncccc1-c1c(C(=O)C(C)(C)C)c(O)c(O)n1-c1ccc(-c2ccccc2)cc1

>  <score_type>  (46) 
oracle

>  <origin>  (46) 
adgpu

>  <m_score__min__energy>  (46) 
-13.52

>  <m_primary>  (46) 
energy

$$$$
46:0
     RDKit          3D

 43 45  0  0  0  0  0  0  0  0999 V2000
   -1.0510   19.5830  -33.8560 C   0  0  0  0  0  0  0  0  0  0  0  0
   -2.3540   18.8520  -33.9550 C   0  0  0  0  0  0  0  0  0  0  0  0
   -2.4820   17.6910  -34.6320 N   0  0  0  0  0  0  0  0  0  0  0  0
   -3.7880   17.3780  -34.5150 C   0  0  0  0  0  0  0  0  0  0  0  0
   -4.4300   18.3430  -33.7720 C   0  0  0  0  0  0  0  0  0  0  0  0
   -3.5220   19.2660  -33.4090 N   0  0  0  0  0  0  0  0  0  0  0  0
   -3.7840   20.4410  -32.6210 C   0  0  0  0  0  0  0  0  0  0  0  0
   -4.4240   21.5480  -33.2010 C   0  0  0  0  0  0  0  0  0  0  0  0
   -4.6930   22.6890  -32.4390 C   0  0  0  0  0  0  0  0  0  0  0  0
   -4.3320   22.7340  -31.0850 C   0  0  0  0  0  0  0  0  0  0  0  0
   -4.6920   24.1580  -30.1100 S   0  0  0  0  0  0  0  0  0  0  0  0
   -3.9500   24.0600  -28.8070 O   0  0  0  0  0  0  0  0  0  0  0  0
   -4.2370   25.4010  -30.8230 O   0  0  0  0  0  0  0  0  0  0  0  0
   -6.3960   24.2570  -29.7920 N   0  0  0  0  0  0  0  0  0  0  0  0
   -7.0060   22.9300  -29.9230 C   0  0  0  0  0  0  0  0  0  0  0  0
   -7.8220   22.8420  -31.2170 C   0  0  0  0  0  0  0  0  0  0  0  0
   -8.0500   21.4100  -31.6250 C   0  0  0  0  0  0  0  0  0  0  0  0
   -9.2940   21.0050  -32.1370 C   0  0  0  0  0  0  0  0  0  0  0  0
   -9.4910   19.6820  -32.5460 C   0  0  0  0  0  0  0  0  0  0  0  0
   -8.4470   18.7580  -32.4520 C   0  0  0  0  0  0  0  0  0  0  0  0
   -7.2040   19.1550  -31.9530 C   0  0  0  0  0  0  0  0  0  0  0  0
   -7.0030   20.4770  -31.5440 C   0  0  0  0  0  0  0  0  0  0  0  0
   -3.7130   21.6240  -30.4980 C   0  0  0  0  0  0  0  0  0  0  0  0
   -3.4430   20.4840  -31.2590 C   0  0  0  0  0  0  0  0  0  0  0  0
   -0.7917   19.7285  -32.7969 H   0  0  0  0  0  0  0  0  0  0  0  0
   -0.2626   18.9955  -34.3492 H   0  0  0  0  0  0  0  0  0  0  0  0
   -1.1415   20.5621  -34.3492 H   0  0  0  0  0  0  0  0  0  0  0  0
   -4.2676   16.4874  -34.9473 H   0  0  0  0  0  0  0  0  0  0  0  0
   -5.5004   18.3566  -33.5191 H   0  0  0  0  0  0  0  0  0  0  0  0
   -4.7155   21.5174  -34.2612 H   0  0  0  0  0  0  0  0  0  0  0  0
   -5.1894   23.5540  -32.9032 H   0  0  0  0  0  0  0  0  0  0  0  0
   -6.5030   24.5670  -28.7980 H   0  0  0  0  0  0  0  0  0  0  0  0
   -6.2137   22.1672  -29.9417 H   0  0  0  0  0  0  0  0  0  0  0  0
   -7.6754   22.7592  -29.0670 H   0  0  0  0  0  0  0  0  0  0  0  0
   -8.7957   23.3291  -31.0602 H   0  0  0  0  0  0  0  0  0  0  0  0
   -7.2590   23.3451  -32.0169 H   0  0  0  0  0  0  0  0  0  0  0  0
  -10.1164   21.7312  -32.2166 H   0  0  0  0  0  0  0  0  0  0  0  0
  -10.4683   19.3688  -32.9419 H   0  0  0  0  0  0  0  0  0  0  0  0
   -8.6040   17.7171  -32.7712 H   0  0  0  0  0  0  0  0  0  0  0  0
   -6.3825   18.4269  -31.8818 H   0  0  0  0  0  0  0  0  0  0  0  0
   -6.0212   20.7876  -31.1573 H   0  0  0  0  0  0  0  0  0  0  0  0
   -3.4381   21.6496  -29.4332 H   0  0  0  0  0  0  0  0  0  0  0  0
   -2.9603   19.6146  -30.7887 H   0  0  0  0  0  0  0  0  0  0  0  0
  1  2  1  0
  2  3  2  0
  3  4  1  0
  4  5  2  0
  5  6  1  0
  6  7  1  0
  7  8  2  0
  8  9  1  0
  9 10  2  0
 10 11  1  0
 11 12  2  0
 11 13  2  0
 11 14  1  0
 14 15  1  0
 15 16  1  0
 16 17  1  0
 17 18  2  0
 18 19  1  0
 19 20  2  0
 20 21  1  0
 21 22  2  0
 10 23  1  0
 23 24  2  0
  6  2  1  0
 24  7  1  0
 22 17  1  0
  1 25  1  0
  1 26  1  0
  1 27  1  0
  4 28  1  0
  5 29  1  0
  8 30  1  0
  9 31  1  0
 14 32  1  0
 15 33  1  0
 15 34  1  0
 16 35  1  0
 16 36  1  0
 18 37  1  0
 19 38  1  0
 20 39  1  0
 21 40  1  0
 22 41  1  0
 23 42  1  0
 24 43  1  0
M  END
>  <UniqueID>  (47) 
44

>  <SMILES>  (47) 
Cc1nccn1-c1ccc(S(=O)(=O)NCCc2ccccc2)cc1

>  <Energy>  (47) 
73.49610919522321

>  <Genealogy>  (47) 
Cc1nccn1-c1ccc(S(=O)(=O)NCCc2ccccc2)cc1 (3D coordinates assigned)
Cc1nccn1-c1ccc(S(=O)(=O)NCCc2ccccc2)cc1 (optimized conformer: 73.49610919522321 kcal/mol)

>  <smiles>  (47) 
Cc1nccn1-c1ccc(S(=O)(=O)NCCc2ccccc2)cc1

>  <score_type>  (47) 
oracle

>  <origin>  (47) 
adgpu

>  <m_score__min__energy>  (47) 
-9.4700000000000006

>  <m_primary>  (47) 
energy

$$$$
47:0
     RDKit          3D

 34 34  0  0  0  0  0  0  0  0999 V2000
   -1.4100   20.8570  -33.4740 C   0  0  0  0  0  0  0  0  0  0  0  0
   -2.9040   20.5400  -33.5900 C   0  0  0  0  0  0  0  0  0  0  0  0
   -3.7280   21.7610  -33.6800 N   0  0  0  0  0  0  0  0  0  0  0  0
   -4.0750   22.3210  -32.3570 C   0  0  0  0  0  0  0  0  0  0  0  0
   -5.5800   22.2270  -32.0590 C   0  0  0  0  0  0  0  0  0  0  0  0
   -6.2470   21.4230  -33.0350 O   0  0  0  0  0  0  0  0  0  0  0  0
   -7.1100   20.3710  -32.6970 C   0  0  0  0  0  0  0  0  0  0  0  0
   -8.3150   20.6100  -31.9940 C   0  0  0  0  0  0  0  0  0  0  0  0
   -8.7720   22.0010  -31.6480 C   0  0  0  0  0  0  0  0  0  0  0  0
   -9.1170   19.5250  -31.6090 C   0  0  0  0  0  0  0  0  0  0  0  0
   -8.7570   18.2220  -31.9540 C   0  0  0  0  0  0  0  0  0  0  0  0
   -7.6030   17.9880  -32.6990 C   0  0  0  0  0  0  0  0  0  0  0  0
   -6.7840   19.0570  -33.0950 C   0  0  0  0  0  0  0  0  0  0  0  0
   -5.5360   18.7750  -33.8830 C   0  0  0  0  0  0  0  0  0  0  0  0
   -1.1292   20.9166  -32.4121 H   0  0  0  0  0  0  0  0  0  0  0  0
   -0.8275   20.0625  -33.9633 H   0  0  0  0  0  0  0  0  0  0  0  0
   -1.2003   21.8196  -33.9633 H   0  0  0  0  0  0  0  0  0  0  0  0
   -3.0684   19.9344  -34.4934 H   0  0  0  0  0  0  0  0  0  0  0  0
   -3.2050   19.9958  -32.6827 H   0  0  0  0  0  0  0  0  0  0  0  0
   -3.2080   22.4730  -34.2420 H   0  0  0  0  0  0  0  0  0  0  0  0
   -4.6110   21.5530  -34.2040 H   0  0  0  0  0  0  0  0  0  0  0  0
   -3.5259   21.7651  -31.5827 H   0  0  0  0  0  0  0  0  0  0  0  0
   -3.7989   23.3858  -32.3599 H   0  0  0  0  0  0  0  0  0  0  0  0
   -5.7224   21.7779  -31.0650 H   0  0  0  0  0  0  0  0  0  0  0  0
   -6.0069   23.2403  -32.0892 H   0  0  0  0  0  0  0  0  0  0  0  0
   -8.8089   22.1134  -30.5544 H   0  0  0  0  0  0  0  0  0  0  0  0
   -8.0673   22.7336  -32.0683 H   0  0  0  0  0  0  0  0  0  0  0  0
   -9.7739   22.1730  -32.0683 H   0  0  0  0  0  0  0  0  0  0  0  0
  -10.0359   19.7029  -31.0312 H   0  0  0  0  0  0  0  0  0  0  0  0
   -9.3859   17.3770  -31.6370 H   0  0  0  0  0  0  0  0  0  0  0  0
   -7.3321   16.9592  -32.9785 H   0  0  0  0  0  0  0  0  0  0  0  0
   -4.7010   18.5863  -33.1922 H   0  0  0  0  0  0  0  0  0  0  0  0
   -5.6947   17.8901  -34.5168 H   0  0  0  0  0  0  0  0  0  0  0  0
   -5.2988   19.6422  -34.5168 H   0  0  0  0  0  0  0  0  0  0  0  0
  1  2  1  0
  2  3  1  0
  3  4  1  0
  4  5  1  0
  5  6  1  0
  6  7  1  0
  7  8  2  0
  8  9  1  0
  8 10  1  0
 10 11  2  0
 11 12  1  0
 12 13  2  0
 13 14  1  0
 13  7  1  0
  1 15  1  0
  1 16  1  0
  1 17  1  0
  2 18  1  0
  2 19  1  0
  3 20  1  0
  3 21  1  0
  4 22  1  0
  4 23  1  0
  5 24  1  0
  5 25  1  0
  9 26  1  0
  9 27  1  0
  9 28  1  0
 10 29  1  0
 11 30  1  0
 12 31  1  0
 14 32  1  0
 14 33  1  0
 14 34  1  0
M  CHG  1   3   1
M  END
>  <UniqueID>  (48) 
45

>  <SMILES>  (48) 
CC[NH2+]CCOc1c(C)cccc1C

>  <Energy>  (48) 
35.5278896281513

>  <Genealogy>  (48) 
CC[NH2+]CCOc1c(C)cccc1C (protonated)
CC[NH2+]CCOc1c(C)cccc1C (3D coordinates assigned)
CC[NH2+]CCOc1c(C)cccc1C (optimized conformer: 35.5278896281513 kcal/mol)

>  <smiles>  (48) 
CCNCCOc1c(C)cccc1C

>  <score_type>  (48) 
oracle

>  <origin>  (48) 
adgpu

>  <m_score__min__energy>  (48) 
-5.3700000000000001

>  <m_primary>  (48) 
energy

$$$$
48:0
     RDKit          3D

 35 37  0  0  0  0  0  0  0  0999 V2000
   -2.8490   23.8030  -30.0180 C   0  0  0  0  0  0  0  0  0  0  0  0
   -3.9010   24.4010  -30.7680 O   0  0  0  0  0  0  0  0  0  0  0  0
   -5.1930   23.8680  -30.8850 C   0  0  0  0  0  0  0  0  0  0  0  0
   -5.9580   23.4880  -29.7660 C   0  0  0  0  0  0  0  0  0  0  0  0
   -7.2420   22.9600  -29.9350 C   0  0  0  0  0  0  0  0  0  0  0  0
   -7.7750   22.7910  -31.2220 C   0  0  0  0  0  0  0  0  0  0  0  0
   -9.1590   22.2280  -31.4090 C   0  0  0  0  0  0  0  0  0  0  0  0
   -9.1750   21.2580  -32.4570 O   0  0  0  0  0  0  0  0  0  0  0  0
   -8.3310   20.1390  -32.5400 C   0  0  0  0  0  0  0  0  0  0  0  0
   -8.5620   19.0720  -31.6630 C   0  0  0  0  0  0  0  0  0  0  0  0
   -7.7600   17.9270  -31.7010 C   0  0  0  0  0  0  0  0  0  0  0  0
   -6.7110   17.8400  -32.6250 C   0  0  0  0  0  0  0  0  0  0  0  0
   -5.8880   16.7120  -32.6970 C   0  0  0  0  0  0  0  0  0  0  0  0
   -4.8560   16.6770  -33.6330 C   0  0  0  0  0  0  0  0  0  0  0  0
   -4.6710   17.7740  -34.4800 C   0  0  0  0  0  0  0  0  0  0  0  0
   -3.7450   17.7620  -35.3330 O   0  0  0  0  0  0  0  0  0  0  0  0
   -5.4690   18.8360  -34.3910 O   0  0  0  0  0  0  0  0  0  0  0  0
   -6.4650   18.9100  -33.5110 C   0  0  0  0  0  0  0  0  0  0  0  0
   -7.2710   20.0530  -33.4660 C   0  0  0  0  0  0  0  0  0  0  0  0
   -7.0170   23.1810  -32.3360 C   0  0  0  0  0  0  0  0  0  0  0  0
   -5.7340   23.7100  -32.1660 C   0  0  0  0  0  0  0  0  0  0  0  0
   -3.0530   23.9190  -28.9433 H   0  0  0  0  0  0  0  0  0  0  0  0
   -2.7844   22.7332  -30.2656 H   0  0  0  0  0  0  0  0  0  0  0  0
   -1.8967   24.2948  -30.2656 H   0  0  0  0  0  0  0  0  0  0  0  0
   -5.5439   23.6069  -28.7539 H   0  0  0  0  0  0  0  0  0  0  0  0
   -7.8371   22.6758  -29.0546 H   0  0  0  0  0  0  0  0  0  0  0  0
   -9.4842   21.7520  -30.4722 H   0  0  0  0  0  0  0  0  0  0  0  0
   -9.8400   23.0489  -31.6782 H   0  0  0  0  0  0  0  0  0  0  0  0
   -9.3844   19.1353  -30.9352 H   0  0  0  0  0  0  0  0  0  0  0  0
   -7.9527   17.0961  -31.0064 H   0  0  0  0  0  0  0  0  0  0  0  0
   -6.0535   15.8601  -32.0211 H   0  0  0  0  0  0  0  0  0  0  0  0
   -4.1968   15.7993  -33.7044 H   0  0  0  0  0  0  0  0  0  0  0  0
   -7.0770   20.8877  -34.1557 H   0  0  0  0  0  0  0  0  0  0  0  0
   -7.4339   23.0701  -33.3479 H   0  0  0  0  0  0  0  0  0  0  0  0
   -5.1446   24.0046  -33.0468 H   0  0  0  0  0  0  0  0  0  0  0  0
  1  2  1  0
  2  3  1  0
  3  4  2  0
  4  5  1  0
  5  6  2  0
  6  7  1  0
  7  8  1  0
  8  9  1  0
  9 10  2  0
 10 11  1  0
 11 12  2  0
 12 13  1  0
 13 14  2  0
 14 15  1  0
 15 16  2  0
 15 17  1  0
 17 18  1  0
 18 19  2  0
  6 20  1  0
 20 21  2  0
 21  3  1  0
 19  9  1  0
 18 12  1  0
  1 22  1  0
  1 23  1  0
  1 24  1  0
  4 25  1  0
  5 26  1  0
  7 27  1  0
  7 28  1  0
 10 29  1  0
 11 30  1  0
 13 31  1  0
 14 32  1  0
 19 33  1  0
 20 34  1  0
 21 35  1  0
M  END
>  <UniqueID>  (49) 
46

>  <SMILES>  (49) 
COc1ccc(COc2ccc3ccc(=O)oc3c2)cc1

>  <Energy>  (49) 
40.70903303313068

>  <Genealogy>  (49) 
COc1ccc(COc2ccc3ccc(=O)oc3c2)cc1 (3D coordinates assigned)
COc1ccc(COc2ccc3ccc(=O)oc3c2)cc1 (optimized conformer: 40.70903303313068 kcal/mol)

>  <smiles>  (49) 
COc1ccc(COc2ccc3ccc(=O)oc3c2)cc1

>  <score_type>  (49) 
oracle

>  <origin>  (49) 
adgpu

>  <m_score__min__energy>  (49) 
-8.2599999999999998

>  <m_primary>  (49) 
energy

$$$$
