0:0
     RDKit          3D

 44 47  0  0  0  0  0  0  0  0999 V2000
   -0.9320   19.3510  -33.3540 O   0  0  0  0  0  0  0  0  0  0  0  0
   -1.9670   18.9010  -33.9130 C   0  0  0  0  0  0  0  0  0  0  0  0
   -1.8970   17.5820  -34.6220 C   0  0  0  0  0  0  0  0  0  0  0  0
   -2.9120   16.3280  -33.7620 S   0  0  0  0  0  0  0  0  0  0  0  0
   -4.4560   17.2150  -33.9660 C   0  0  0  0  0  0  0  0  0  0  0  0
   -5.0130   17.4790  -35.1610 N   0  0  0  0  0  0  0  0  0  0  0  0
   -6.1090   18.1760  -34.9160 N   0  0  0  0  0  0  0  0  0  0  0  0
   -6.1860   18.3120  -33.5790 C   0  0  0  0  0  0  0  0  0  0  0  0
   -7.2470   19.0640  -32.9020 C   0  0  0  0  0  0  0  0  0  0  0  0
   -8.1690   18.5430  -32.0150 C   0  0  0  0  0  0  0  0  0  0  0  0
   -8.9450   19.6120  -31.6220 C   0  0  0  0  0  0  0  0  0  0  0  0
   -8.4510   20.7120  -32.2910 C   0  0  0  0  0  0  0  0  0  0  0  0
   -7.4390   20.3540  -33.0460 O   0  0  0  0  0  0  0  0  0  0  0  0
   -5.1620   17.7190  -32.9360 N   0  0  0  0  0  0  0  0  0  0  0  0
   -3.2260   19.5920  -33.8070 N   0  0  0  0  0  0  0  0  0  0  0  0
   -3.4610   20.7060  -32.9280 C   0  0  0  0  0  0  0  0  0  0  0  0
   -4.5790   21.5440  -33.0810 C   0  0  0  0  0  0  0  0  0  0  0  0
   -4.7630   22.6370  -32.2290 C   0  0  0  0  0  0  0  0  0  0  0  0
   -3.8420   22.8950  -31.2030 C   0  0  0  0  0  0  0  0  0  0  0  0
   -4.0290   24.3000  -30.1590 S   0  0  0  0  0  0  0  0  0  0  0  0
   -4.7760   23.8910  -28.9230 O   0  0  0  0  0  0  0  0  0  0  0  0
   -4.8010   25.3840  -30.8590 O   0  0  0  0  0  0  0  0  0  0  0  0
   -2.4700   24.9180  -29.7070 N   0  0  0  0  0  0  0  0  0  0  0  0
   -1.6720   24.3260  -28.8730 C   0  0  0  0  0  0  0  0  0  0  0  0
   -0.4690   24.8910  -28.5860 N   0  0  0  0  0  0  0  0  0  0  0  0
    0.3870   24.3090  -27.7060 C   0  0  0  0  0  0  0  0  0  0  0  0
    0.0350   23.1150  -27.0790 C   0  0  0  0  0  0  0  0  0  0  0  0
   -1.1980   22.5430  -27.3880 C   0  0  0  0  0  0  0  0  0  0  0  0
   -2.0230   23.1540  -28.2770 N   0  0  0  0  0  0  0  0  0  0  0  0
   -2.7520   22.0370  -31.0220 C   0  0  0  0  0  0  0  0  0  0  0  0
   -2.5700   20.9420  -31.8710 C   0  0  0  0  0  0  0  0  0  0  0  0
   -2.2697   17.7047  -35.6496 H   0  0  0  0  0  0  0  0  0  0  0  0
   -0.8508   17.2423  -34.6322 H   0  0  0  0  0  0  0  0  0  0  0  0
   -8.2638   17.4961  -31.6909 H   0  0  0  0  0  0  0  0  0  0  0  0
   -9.7888   19.5918  -30.9165 H   0  0  0  0  0  0  0  0  0  0  0  0
   -8.8456   21.7352  -32.2048 H   0  0  0  0  0  0  0  0  0  0  0  0
   -4.0630   19.1360  -34.2350 H   0  0  0  0  0  0  0  0  0  0  0  0
   -5.3125   21.3389  -33.8747 H   0  0  0  0  0  0  0  0  0  0  0  0
   -5.6328   23.2968  -32.3637 H   0  0  0  0  0  0  0  0  0  0  0  0
    1.3571   24.7797  -27.4885 H   0  0  0  0  0  0  0  0  0  0  0  0
    0.7136   22.6358  -26.3580 H   0  0  0  0  0  0  0  0  0  0  0  0
   -1.5021   21.5987  -26.9128 H   0  0  0  0  0  0  0  0  0  0  0  0
   -2.0357   22.2249  -30.2086 H   0  0  0  0  0  0  0  0  0  0  0  0
   -1.7219   20.2604  -31.7091 H   0  0  0  0  0  0  0  0  0  0  0  0
  1  2  2  0
  2  3  1  0
  3  4  1  0
  4  5  1  0
  5  6  2  0
  6  7  1  0
  7  8  1  0
  8  9  1  0
  9 10  2  0
 10 11  1  0
 11 12  2  0
 12 13  1  0
  8 14  2  0
  2 15  1  0
 15 16  1  0
 16 17  2  0
 17 18  1  0
 18 19  2  0
 19 20  1  0
 20 21  2  0
 20 22  2  0
 20 23  1  0
 23 24  2  3
 24 25  1  0
 25 26  2  0
 26 27  1  0
 27 28  2  0
 28 29  1  0
 19 30  1  0
 30 31  2  0
 14  5  1  0
 31 16  1  0
 13  9  1  0
 29 24  1  0
  3 32  1  0
  3 33  1  0
 10 34  1  0
 11 35  1  0
 12 36  1  0
 15 37  1  0
 17 38  1  0
 18 39  1  0
 26 40  1  0
 27 41  1  0
 28 42  1  0
 30 43  1  0
 31 44  1  0
M  CHG  2   7  -1  29  -1
M  END
>  <UniqueID>  (1) 
1

>  <SMILES>  (1) 
O=C(CSc1n[n-]c(-c2ccco2)n1)Nc1ccc(S(=O)(=O)N=c2nccc[n-]2)cc1

>  <Energy>  (1) 
103.0712994351146

>  <Genealogy>  (1) 
O=C(CSc1n[n-]c(-c2ccco2)n1)Nc1ccc(S(=O)(=O)N=c2nccc[n-]2)cc1 (protonated)
O=C(CSc1n[n-]c(-c2ccco2)n1)Nc1ccc(S(=O)(=O)N=c2nccc[n-]2)cc1 (3D coordinates assigned)
O=C(CSc1n[n-]c(-c2ccco2)n1)Nc1ccc(S(=O)(=O)N=c2nccc[n-]2)cc1 (optimized conformer: 103.0712994351146 kcal/mol)

>  <smiles>  (1) 
O=C(CSc1n[nH]c(-c2ccco2)n1)Nc1ccc(S(=O)(=O)N=c2nccc[nH]2)cc1

>  <score_type>  (1) 
oracle

>  <origin>  (1) 
adgpu

>  <m_score__min__energy>  (1) 
-10.470000000000001

>  <m_primary>  (1) 
energy

$$$$
1:0
     RDKit          3D

 48 49  0  0  0  0  0  0  0  0999 V2000
   -4.7940   19.2120  -33.1890 C   0  0  0  0  0  0  0  0  0  0  0  0
   -6.0960   18.9040  -33.9270 C   0  0  0  0  0  0  0  0  0  0  0  0
   -7.0310   17.9870  -33.1220 C   0  0  0  0  0  0  0  0  0  0  0  0
   -7.4930   18.6240  -31.8010 C   0  0  0  0  0  0  0  0  0  0  0  0
   -8.0830   19.9510  -32.0530 N   0  0  0  0  0  0  0  0  0  0  0  0
   -9.3900   20.0350  -32.7250 C   0  0  0  0  0  0  0  0  0  0  0  0
   -7.4160   21.1800  -31.6680 C   0  0  0  0  0  0  0  0  0  0  0  0
   -6.7210   21.9830  -32.5980 C   0  0  0  0  0  0  0  0  0  0  0  0
   -6.0940   23.1520  -32.1670 C   0  0  0  0  0  0  0  0  0  0  0  0
   -6.1530   23.5260  -30.8220 C   0  0  0  0  0  0  0  0  0  0  0  0
   -5.3200   24.9810  -30.2840 S   0  0  0  0  0  0  0  0  0  0  0  0
   -5.7530   26.1280  -31.1540 O   0  0  0  0  0  0  0  0  0  0  0  0
   -5.6570   25.2980  -28.8540 O   0  0  0  0  0  0  0  0  0  0  0  0
   -3.6100   24.7490  -30.4530 N   0  0  0  0  0  0  0  0  0  0  0  0
   -2.9230   23.6230  -29.8950 C   0  0  0  0  0  0  0  0  0  0  0  0
   -2.4130   23.5360  -28.6130 C   0  0  0  0  0  0  0  0  0  0  0  0
   -2.4220   24.6140  -27.5780 C   0  0  0  0  0  0  0  0  0  0  0  0
   -1.7590   22.3630  -28.4710 N   0  0  0  0  0  0  0  0  0  0  0  0
   -1.8680   21.7010  -29.6180 N   0  0  0  0  0  0  0  0  0  0  0  0
   -1.3220   20.3600  -29.8180 C   0  0  0  0  0  0  0  0  0  0  0  0
   -2.5890   22.4270  -30.5070 C   0  0  0  0  0  0  0  0  0  0  0  0
   -2.9600   21.9840  -31.8890 C   0  0  0  0  0  0  0  0  0  0  0  0
   -6.8540   22.7160  -29.9240 C   0  0  0  0  0  0  0  0  0  0  0  0
   -7.4560   21.5790  -30.3620 N   0  0  0  0  0  0  0  0  0  0  0  0
   -4.9690   19.1706  -32.1038 H   0  0  0  0  0  0  0  0  0  0  0  0
   -4.0311   18.4695  -33.4660 H   0  0  0  0  0  0  0  0  0  0  0  0
   -4.4446   20.2176  -33.4660 H   0  0  0  0  0  0  0  0  0  0  0  0
   -6.6189   19.8506  -34.1283 H   0  0  0  0  0  0  0  0  0  0  0  0
   -5.8346   18.3782  -34.8572 H   0  0  0  0  0  0  0  0  0  0  0  0
   -7.9173   17.7634  -33.7339 H   0  0  0  0  0  0  0  0  0  0  0  0
   -6.4687   17.0751  -32.8726 H   0  0  0  0  0  0  0  0  0  0  0  0
   -8.2459   17.9756  -31.3290 H   0  0  0  0  0  0  0  0  0  0  0  0
   -6.6247   18.7385  -31.1355 H   0  0  0  0  0  0  0  0  0  0  0  0
  -10.1880   20.0863  -31.9697 H   0  0  0  0  0  0  0  0  0  0  0  0
   -9.4217   20.9370  -33.3537 H   0  0  0  0  0  0  0  0  0  0  0  0
   -9.5369   19.1444  -33.3537 H   0  0  0  0  0  0  0  0  0  0  0  0
   -6.6742   21.6884  -33.6568 H   0  0  0  0  0  0  0  0  0  0  0  0
   -5.5516   23.7813  -32.8880 H   0  0  0  0  0  0  0  0  0  0  0  0
   -2.4182   24.1603  -26.5759 H   0  0  0  0  0  0  0  0  0  0  0  0
   -1.5291   25.2451  -27.6981 H   0  0  0  0  0  0  0  0  0  0  0  0
   -3.3253   25.2301  -27.6981 H   0  0  0  0  0  0  0  0  0  0  0  0
   -1.1315   19.8922  -28.8408 H   0  0  0  0  0  0  0  0  0  0  0  0
   -2.0436   19.7506  -30.3818 H   0  0  0  0  0  0  0  0  0  0  0  0
   -0.3799   20.4280  -30.3818 H   0  0  0  0  0  0  0  0  0  0  0  0
   -3.6651   21.1420  -31.8272 H   0  0  0  0  0  0  0  0  0  0  0  0
   -3.4322   22.8190  -32.4273 H   0  0  0  0  0  0  0  0  0  0  0  0
   -2.0551   21.6657  -32.4273 H   0  0  0  0  0  0  0  0  0  0  0  0
   -6.9184   22.9988  -28.8629 H   0  0  0  0  0  0  0  0  0  0  0  0
  1  2  1  0
  2  3  1  0
  3  4  1  0
  4  5  1  0
  5  6  1  0
  5  7  1  0
  7  8  2  0
  8  9  1  0
  9 10  2  0
 10 11  1  0
 11 12  2  0
 11 13  2  0
 11 14  1  0
 14 15  1  0
 15 16  1  0
 16 17  1  0
 16 18  2  0
 18 19  1  0
 19 20  1  0
 19 21  1  0
 21 22  1  0
 10 23  1  0
 23 24  2  0
 24  7  1  0
 21 15  2  0
  1 25  1  0
  1 26  1  0
  1 27  1  0
  2 28  1  0
  2 29  1  0
  3 30  1  0
  3 31  1  0
  4 32  1  0
  4 33  1  0
  6 34  1  0
  6 35  1  0
  6 36  1  0
  8 37  1  0
  9 38  1  0
 17 39  1  0
 17 40  1  0
 17 41  1  0
 20 42  1  0
 20 43  1  0
 20 44  1  0
 22 45  1  0
 22 46  1  0
 22 47  1  0
 23 48  1  0
M  CHG  1  14  -1
M  END
>  <UniqueID>  (2) 
2

>  <SMILES>  (2) 
CCCCN(C)c1ccc(S(=O)(=O)[N-]c2c(C)nn(C)c2C)cn1

>  <Energy>  (2) 
77.68107472555687

>  <Genealogy>  (2) 
CCCCN(C)c1ccc(S(=O)(=O)[N-]c2c(C)nn(C)c2C)cn1 (protonated)
CCCCN(C)c1ccc(S(=O)(=O)[N-]c2c(C)nn(C)c2C)cn1 (3D coordinates assigned)
CCCCN(C)c1ccc(S(=O)(=O)[N-]c2c(C)nn(C)c2C)cn1 (optimized conformer: 77.68107472555687 kcal/mol)

>  <smiles>  (2) 
CCCCN(C)c1ccc(S(=O)(=O)Nc2c(C)nn(C)c2C)cn1

>  <score_type>  (2) 
oracle

>  <origin>  (2) 
adgpu

>  <m_score__min__energy>  (2) 
-8.8599999999999994

>  <m_primary>  (2) 
energy

$$$$
2:0
     RDKit          3D

 55 58  0  0  0  0  0  0  0  0999 V2000
    0.3210   25.8590  -24.5030 C   0  0  0  0  0  0  0  0  0  0  0  0
   -0.2100   24.6380  -25.1200 N   0  0  0  0  0  0  0  0  0  0  0  0
    0.0300   23.3460  -24.4640 C   0  0  0  0  0  0  0  0  0  0  0  0
   -0.9580   24.7060  -26.3610 C   0  0  0  0  0  0  0  0  0  0  0  0
   -0.3160   25.0200  -27.5770 C   0  0  0  0  0  0  0  0  0  0  0  0
   -1.0370   25.0840  -28.7720 C   0  0  0  0  0  0  0  0  0  0  0  0
   -2.4170   24.8270  -28.7820 C   0  0  0  0  0  0  0  0  0  0  0  0
   -3.1970   24.9210  -29.9820 N   0  0  0  0  0  0  0  0  0  0  0  0
   -3.9050   23.8480  -30.6110 C   0  0  0  0  0  0  0  0  0  0  0  0
   -4.6800   24.0690  -31.5810 O   0  0  0  0  0  0  0  0  0  0  0  0
   -3.6770   22.4440  -30.1490 C   0  0  0  0  0  0  0  0  0  0  0  0
   -2.4770   21.8540  -30.8340 C   0  0  0  0  0  0  0  0  0  0  0  0
   -2.3690   21.5680  -32.1830 C   0  0  0  0  0  0  0  0  0  0  0  0
   -3.3500   21.8220  -33.1420 O   0  0  0  0  0  0  0  0  0  0  0  0
   -1.1500   21.0420  -32.4320 N   0  0  0  0  0  0  0  0  0  0  0  0
   -0.6190   20.5810  -33.6860 C   0  0  0  0  0  0  0  0  0  0  0  0
   -0.5910   19.2080  -33.9850 C   0  0  0  0  0  0  0  0  0  0  0  0
   -0.0570   18.7620  -35.1980 C   0  0  0  0  0  0  0  0  0  0  0  0
    0.4590   19.6800  -36.1170 C   0  0  0  0  0  0  0  0  0  0  0  0
    0.9800   19.2450  -37.2910 F   0  0  0  0  0  0  0  0  0  0  0  0
    0.4440   21.0470  -35.8220 C   0  0  0  0  0  0  0  0  0  0  0  0
   -0.0900   21.4960  -34.6110 C   0  0  0  0  0  0  0  0  0  0  0  0
   -0.5370   21.0190  -31.2270 C   0  0  0  0  0  0  0  0  0  0  0  0
    0.6340   20.5860  -31.0470 O   0  0  0  0  0  0  0  0  0  0  0  0
   -1.3200   21.4920  -30.2320 N   0  0  0  0  0  0  0  0  0  0  0  0
   -0.9570   21.6350  -28.8210 C   0  0  0  0  0  0  0  0  0  0  0  0
   -1.4950   20.4830  -28.0320 C   0  0  0  0  0  0  0  0  0  0  0  0
   -2.7460   20.4130  -27.4520 C   0  0  0  0  0  0  0  0  0  0  0  0
   -2.7970   19.1830  -26.8330 C   0  0  0  0  0  0  0  0  0  0  0  0
   -1.5800   18.5800  -27.0760 C   0  0  0  0  0  0  0  0  0  0  0  0
   -0.8240   19.3800  -27.7930 O   0  0  0  0  0  0  0  0  0  0  0  0
   -3.0670   24.5380  -27.5780 C   0  0  0  0  0  0  0  0  0  0  0  0
   -2.3480   24.4690  -26.3820 C   0  0  0  0  0  0  0  0  0  0  0  0
    0.2798   25.7642  -23.4079 H   0  0  0  0  0  0  0  0  0  0  0  0
    1.3643   26.0058  -24.8193 H   0  0  0  0  0  0  0  0  0  0  0  0
   -0.2830   26.7222  -24.8193 H   0  0  0  0  0  0  0  0  0  0  0  0
    0.0053   23.4789  -23.3723 H   0  0  0  0  0  0  0  0  0  0  0  0
   -0.7508   22.6317  -24.7642 H   0  0  0  0  0  0  0  0  0  0  0  0
    1.0153   22.9598  -24.7642 H   0  0  0  0  0  0  0  0  0  0  0  0
    0.7662   25.2170  -27.5846 H   0  0  0  0  0  0  0  0  0  0  0  0
   -0.5207   25.3371  -29.7098 H   0  0  0  0  0  0  0  0  0  0  0  0
   -3.5102   22.4431  -29.0617 H   0  0  0  0  0  0  0  0  0  0  0  0
   -4.5618   21.8393  -30.3970 H   0  0  0  0  0  0  0  0  0  0  0  0
   -4.0470   22.5430  -33.0130 H   0  0  0  0  0  0  0  0  0  0  0  0
   -0.9906   18.4815  -33.2621 H   0  0  0  0  0  0  0  0  0  0  0  0
   -0.0430   17.6867  -35.4293 H   0  0  0  0  0  0  0  0  0  0  0  0
    0.8529   21.7694  -36.5437 H   0  0  0  0  0  0  0  0  0  0  0  0
   -0.0960   22.5717  -34.3811 H   0  0  0  0  0  0  0  0  0  0  0  0
    0.1388   21.6595  -28.7280 H   0  0  0  0  0  0  0  0  0  0  0  0
   -1.3868   22.5698  -28.4318 H   0  0  0  0  0  0  0  0  0  0  0  0
   -3.5358   21.1782  -27.4785 H   0  0  0  0  0  0  0  0  0  0  0  0
   -3.6385   18.7658  -26.2604 H   0  0  0  0  0  0  0  0  0  0  0  0
   -1.2871   17.5803  -26.7227 H   0  0  0  0  0  0  0  0  0  0  0  0
   -4.1531   24.3636  -27.5725 H   0  0  0  0  0  0  0  0  0  0  0  0
   -2.8723   24.2270  -25.4458 H   0  0  0  0  0  0  0  0  0  0  0  0
  1  2  1  0
  2  3  1  0
  2  4  1  0
  4  5  2  0
  5  6  1  0
  6  7  2  0
  7  8  1  0
  8  9  1  0
  9 10  2  0
  9 11  1  0
 11 12  1  0
 12 13  2  0
 13 14  1  0
 13 15  1  0
 15 16  1  0
 16 17  2  0
 17 18  1  0
 18 19  2  0
 19 20  1  0
 19 21  1  0
 21 22  2  0
 15 23  1  0
 23 24  2  0
 23 25  1  0
 25 26  1  0
 26 27  1  0
 27 28  2  0
 28 29  1  0
 29 30  2  0
 30 31  1  0
  7 32  1  0
 32 33  2  0
 33  4  1  0
 25 12  1  0
 31 27  1  0
 22 16  1  0
  1 34  1  0
  1 35  1  0
  1 36  1  0
  3 37  1  0
  3 38  1  0
  3 39  1  0
  5 40  1  0
  6 41  1  0
 11 42  1  0
 11 43  1  0
 14 44  1  0
 17 45  1  0
 18 46  1  0
 21 47  1  0
 22 48  1  0
 26 49  1  0
 26 50  1  0
 28 51  1  0
 29 52  1  0
 30 53  1  0
 32 54  1  0
 33 55  1  0
M  CHG  1   8  -1
M  END
>  <UniqueID>  (3) 
3

>  <SMILES>  (3) 
CN(C)c1ccc([N-]C(=O)Cc2c(O)n(-c3ccc(F)cc3)c(=O)n2Cc2ccco2)cc1

>  <Energy>  (3) 
125.27267053969774

>  <Genealogy>  (3) 
CN(C)c1ccc([N-]C(=O)Cc2c(O)n(-c3ccc(F)cc3)c(=O)n2Cc2ccco2)cc1 (protonated)
CN(C)c1ccc([N-]C(=O)Cc2c(O)n(-c3ccc(F)cc3)c(=O)n2Cc2ccco2)cc1 (3D coordinates assigned)
CN(C)c1ccc([N-]C(=O)Cc2c(O)n(-c3ccc(F)cc3)c(=O)n2Cc2ccco2)cc1 (optimized conformer: 125.27267053969774 kcal/mol)

>  <smiles>  (3) 
CN(C)c1ccc(NC(=O)Cc2c(O)n(-c3ccc(F)cc3)c(=O)n2Cc2ccco2)cc1

>  <score_type>  (3) 
oracle

>  <origin>  (3) 
adgpu

>  <m_score__min__energy>  (3) 
-9.8800000000000008

>  <m_primary>  (3) 
energy

$$$$
3:0
     RDKit          3D

 38 39  0  0  0  0  0  0  0  0999 V2000
   -9.1450   21.0350  -31.8790 C   0  0  0  0  0  0  0  0  0  0  0  0
   -8.3290   19.5410  -32.5220 S   0  0  0  0  0  0  0  0  0  0  0  0
   -6.6790   20.2220  -32.3450 C   0  0  0  0  0  0  0  0  0  0  0  0
   -6.4180   21.5380  -32.7380 C   0  0  0  0  0  0  0  0  0  0  0  0
   -5.1330   22.0700  -32.6000 C   0  0  0  0  0  0  0  0  0  0  0  0
   -4.0950   21.2890  -32.0600 C   0  0  0  0  0  0  0  0  0  0  0  0
   -2.7040   21.8690  -31.8960 C   0  0  0  0  0  0  0  0  0  0  0  0
   -2.5610   22.7720  -30.7260 N   0  0  2  0  0  0  0  0  0  0  0  0
   -1.1920   22.7360  -30.1740 C   0  0  0  0  0  0  0  0  0  0  0  0
   -3.5800   22.4920  -29.6830 C   0  0  0  0  0  0  0  0  0  0  0  0
   -4.8070   23.3640  -29.8410 C   0  0  0  0  0  0  0  0  0  0  0  0
   -6.0810   22.8080  -29.6310 C   0  0  0  0  0  0  0  0  0  0  0  0
   -7.2280   23.5900  -29.7900 C   0  0  0  0  0  0  0  0  0  0  0  0
   -7.1170   24.9300  -30.1640 C   0  0  0  0  0  0  0  0  0  0  0  0
   -5.8570   25.4930  -30.3810 C   0  0  0  0  0  0  0  0  0  0  0  0
   -4.7020   24.7180  -30.2240 C   0  0  0  0  0  0  0  0  0  0  0  0
   -3.4590   25.2990  -30.4530 O   0  0  0  0  0  0  0  0  0  0  0  0
   -4.3630   19.9630  -31.6820 C   0  0  0  0  0  0  0  0  0  0  0  0
   -5.6480   19.4330  -31.8230 C   0  0  0  0  0  0  0  0  0  0  0  0
   -9.1338   21.0144  -30.7792 H   0  0  0  0  0  0  0  0  0  0  0  0
   -8.6090   21.9274  -32.2345 H   0  0  0  0  0  0  0  0  0  0  0  0
  -10.1855   21.0663  -32.2345 H   0  0  0  0  0  0  0  0  0  0  0  0
   -7.2258   22.1561  -33.1568 H   0  0  0  0  0  0  0  0  0  0  0  0
   -4.9323   23.1046  -32.9152 H   0  0  0  0  0  0  0  0  0  0  0  0
   -1.9937   21.0371  -31.7799 H   0  0  0  0  0  0  0  0  0  0  0  0
   -2.5037   22.4746  -32.7922 H   0  0  0  0  0  0  0  0  0  0  0  0
   -2.7230   23.7420  -31.0870 H   0  0  0  0  0  0  0  0  0  0  0  0
   -1.2396   22.7373  -29.0750 H   0  0  0  0  0  0  0  0  0  0  0  0
   -0.6819   21.8241  -30.5179 H   0  0  0  0  0  0  0  0  0  0  0  0
   -0.6346   23.6198  -30.5179 H   0  0  0  0  0  0  0  0  0  0  0  0
   -3.8823   21.4369  -29.7559 H   0  0  0  0  0  0  0  0  0  0  0  0
   -3.1317   22.7104  -28.7025 H   0  0  0  0  0  0  0  0  0  0  0  0
   -6.1754   21.7514  -29.3399 H   0  0  0  0  0  0  0  0  0  0  0  0
   -8.2210   23.1483  -29.6200 H   0  0  0  0  0  0  0  0  0  0  0  0
   -8.0219   25.5430  -30.2879 H   0  0  0  0  0  0  0  0  0  0  0  0
   -5.7722   26.5492  -30.6763 H   0  0  0  0  0  0  0  0  0  0  0  0
   -3.5560   19.3378  -31.2723 H   0  0  0  0  0  0  0  0  0  0  0  0
   -5.8495   18.3940  -31.5232 H   0  0  0  0  0  0  0  0  0  0  0  0
  1  2  1  0
  2  3  1  0
  3  4  2  0
  4  5  1  0
  5  6  2  0
  6  7  1  0
  7  8  1  0
  8  9  1  0
  8 10  1  0
 10 11  1  0
 11 12  2  0
 12 13  1  0
 13 14  2  0
 14 15  1  0
 15 16  2  0
 16 17  1  0
  6 18  1  0
 18 19  2  0
 19  3  1  0
 16 11  1  0
  1 20  1  0
  1 21  1  0
  1 22  1  0
  4 23  1  0
  5 24  1  0
  7 25  1  0
  7 26  1  0
  8 27  1  6
  9 28  1  0
  9 29  1  0
  9 30  1  0
 10 31  1  0
 10 32  1  0
 12 33  1  0
 13 34  1  0
 14 35  1  0
 15 36  1  0
 18 37  1  0
 19 38  1  0
M  CHG  2   8   1  17  -1
M  END
>  <UniqueID>  (4) 
4

>  <SMILES>  (4) 
CSc1ccc(C[N@H+](C)Cc2ccccc2[O-])cc1

>  <Energy>  (4) 
37.712409474687156

>  <Genealogy>  (4) 
CSc1ccc(C[NH+](C)Cc2ccccc2[O-])cc1 (protonated)
CSc1ccc(C[N@H+](C)Cc2ccccc2[O-])cc1 (chirality)
CSc1ccc(C[N@H+](C)Cc2ccccc2[O-])cc1 (3D coordinates assigned)
CSc1ccc(C[N@H+](C)Cc2ccccc2[O-])cc1 (optimized conformer: 37.712409474687156 kcal/mol)

>  <smiles>  (4) 
CSc1ccc(CN(C)Cc2ccccc2O)cc1

>  <score_type>  (4) 
oracle

>  <origin>  (4) 
adgpu

>  <m_score__min__energy>  (4) 
-8.5299999999999994

>  <m_primary>  (4) 
energy

$$$$
4:0
     RDKit          3D

 50 52  0  0  0  0  0  0  0  0999 V2000
   -6.8070   14.2700  -34.2570 C   0  0  0  0  0  0  0  0  0  0  0  0
   -5.7510   15.6120  -33.7400 S   0  0  0  0  0  0  0  0  0  0  0  0
   -5.2890   15.3510  -32.3330 O   0  0  0  0  0  0  0  0  0  0  0  0
   -4.5480   15.6490  -34.6400 O   0  0  0  0  0  0  0  0  0  0  0  0
   -6.5720   17.1560  -33.8110 N   0  0  0  0  0  0  0  0  0  0  0  0
   -5.6980   18.1630  -34.4610 C   0  0  0  0  0  0  0  0  0  0  0  0
   -6.1350   19.5960  -34.1410 C   0  0  0  0  0  0  0  0  0  0  0  0
   -6.1320   19.8050  -32.6880 N   0  0  0  0  0  0  0  0  0  0  0  0
   -5.9430   21.1190  -32.1380 C   0  0  0  0  0  0  0  0  0  0  0  0
   -6.9000   22.1210  -32.3470 C   0  0  0  0  0  0  0  0  0  0  0  0
   -6.6990   23.4040  -31.8370 C   0  0  0  0  0  0  0  0  0  0  0  0
   -5.5270   23.7210  -31.1270 C   0  0  0  0  0  0  0  0  0  0  0  0
   -5.3230   25.0710  -30.6740 N   0  0  0  0  0  0  0  0  0  0  0  0
   -6.2030   25.6550  -30.0090 O   0  0  0  0  0  0  0  0  0  0  0  0
   -4.0930   25.6690  -30.8160 O   0  0  0  0  0  0  0  0  0  0  0  0
   -4.5600   22.7120  -30.9080 C   0  0  0  0  0  0  0  0  0  0  0  0
   -3.3970   22.9730  -30.1010 N   0  0  0  0  0  0  0  0  0  0  0  0
   -2.5160   21.9500  -29.6060 C   0  0  0  0  0  0  0  0  0  0  0  0
   -1.3490   21.6440  -30.3210 C   0  0  0  0  0  0  0  0  0  0  0  0
   -0.4890   20.6390  -29.8720 C   0  0  0  0  0  0  0  0  0  0  0  0
   -0.7850   19.9290  -28.7060 C   0  0  0  0  0  0  0  0  0  0  0  0
   -1.9460   20.2250  -27.9710 C   0  0  0  0  0  0  0  0  0  0  0  0
   -2.3040   19.4280  -26.7410 C   0  0  0  0  0  0  0  0  0  0  0  0
   -1.6740   18.1950  -26.7490 F   0  0  0  0  0  0  0  0  0  0  0  0
   -1.9160   20.1050  -25.5980 F   0  0  0  0  0  0  0  0  0  0  0  0
   -3.6730   19.2320  -26.7070 F   0  0  0  0  0  0  0  0  0  0  0  0
   -2.8230   21.2150  -28.4470 C   0  0  0  0  0  0  0  0  0  0  0  0
   -4.7890   21.4160  -31.4020 C   0  0  0  0  0  0  0  0  0  0  0  0
   -6.2580   18.6480  -31.7940 C   0  0  0  0  0  0  0  0  0  0  0  0
   -7.0890   17.5500  -32.4700 C   0  0  0  0  0  0  0  0  0  0  0  0
   -7.2098   13.7580  -33.3706 H   0  0  0  0  0  0  0  0  0  0  0  0
   -7.6369   14.6677  -34.8595 H   0  0  0  0  0  0  0  0  0  0  0  0
   -6.2253   13.5569  -34.8595 H   0  0  0  0  0  0  0  0  0  0  0  0
   -7.3990   17.0100  -34.4370 H   0  0  0  0  0  0  0  0  0  0  0  0
   -4.6665   18.0191  -34.1070 H   0  0  0  0  0  0  0  0  0  0  0  0
   -5.7691   18.0218  -35.5496 H   0  0  0  0  0  0  0  0  0  0  0  0
   -5.4381   20.3042  -34.6131 H   0  0  0  0  0  0  0  0  0  0  0  0
   -7.1510   19.7607  -34.5291 H   0  0  0  0  0  0  0  0  0  0  0  0
   -7.8140   21.8950  -32.9158 H   0  0  0  0  0  0  0  0  0  0  0  0
   -7.4663   24.1768  -31.9920 H   0  0  0  0  0  0  0  0  0  0  0  0
   -3.2140   23.9620  -29.8180 H   0  0  0  0  0  0  0  0  0  0  0  0
   -1.1096   22.1984  -31.2404 H   0  0  0  0  0  0  0  0  0  0  0  0
    0.4246   20.4059  -30.4386 H   0  0  0  0  0  0  0  0  0  0  0  0
   -0.1065   19.1347  -28.3615 H   0  0  0  0  0  0  0  0  0  0  0  0
   -3.7598   21.4171  -27.9070 H   0  0  0  0  0  0  0  0  0  0  0  0
   -4.0512   20.6236  -31.2077 H   0  0  0  0  0  0  0  0  0  0  0  0
   -5.2566   18.2562  -31.5621 H   0  0  0  0  0  0  0  0  0  0  0  0
   -6.7602   18.9614  -30.8668 H   0  0  0  0  0  0  0  0  0  0  0  0
   -7.0868   16.6619  -31.8210 H   0  0  0  0  0  0  0  0  0  0  0  0
   -8.1011   17.9545  -32.6187 H   0  0  0  0  0  0  0  0  0  0  0  0
  1  2  1  0
  2  3  2  0
  2  4  2  0
  2  5  1  0
  5  6  1  0
  6  7  1  0
  7  8  1  0
  8  9  1  0
  9 10  2  0
 10 11  1  0
 11 12  2  0
 12 13  1  0
 13 14  2  0
 13 15  1  0
 12 16  1  0
 16 17  1  0
 17 18  1  0
 18 19  2  0
 19 20  1  0
 20 21  2  0
 21 22  1  0
 22 23  1  0
 23 24  1  0
 23 25  1  0
 23 26  1  0
 22 27  2  0
 16 28  2  0
  8 29  1  0
 29 30  1  0
 30  5  1  0
 28  9  1  0
 27 18  1  0
  1 31  1  0
  1 32  1  0
  1 33  1  0
  5 34  1  0
  6 35  1  0
  6 36  1  0
  7 37  1  0
  7 38  1  0
 10 39  1  0
 11 40  1  0
 17 41  1  0
 19 42  1  0
 20 43  1  0
 21 44  1  0
 27 45  1  0
 28 46  1  0
 29 47  1  0
 29 48  1  0
 30 49  1  0
 30 50  1  0
M  CHG  3   5   1  13   1  15  -1
M  END
>  <UniqueID>  (5) 
5

>  <SMILES>  (5) 
CS(=O)(=O)[NH+]1CCN(c2ccc([N+](=O)[O-])c(Nc3cccc(C(F)(F)F)c3)c2)CC1

>  <Energy>  (5) 
66.97909859824198

>  <Genealogy>  (5) 
CS(=O)(=O)[NH+]1CCN(c2ccc([N+](=O)[O-])c(Nc3cccc(C(F)(F)F)c3)c2)CC1 (protonated)
CS(=O)(=O)[NH+]1CCN(c2ccc([N+](=O)[O-])c(Nc3cccc(C(F)(F)F)c3)c2)CC1 (3D coordinates assigned)
CS(=O)(=O)[NH+]1CCN(c2ccc([N+](=O)[O-])c(Nc3cccc(C(F)(F)F)c3)c2)CC1 (nonaromatic ring conformer: 66.97909859824198 kcal/mol)

>  <smiles>  (5) 
CS(=O)(=O)N1CCN(c2ccc([N+](=O)[O-])c(Nc3cccc(C(F)(F)F)c3)c2)CC1

>  <score_type>  (5) 
oracle

>  <origin>  (5) 
adgpu

>  <m_score__min__energy>  (5) 
-8.2100000000000009

>  <m_primary>  (5) 
energy

$$$$
5:0
     RDKit          3D

 61 64  0  0  0  0  0  0  0  0999 V2000
   -3.5980   21.1390  -31.5590 C   0  0  0  0  0  0  0  0  0  0  0  0
   -3.7670   22.5470  -31.6910 O   0  0  0  0  0  0  0  0  0  0  0  0
   -4.8300   23.2760  -31.1310 C   0  0  0  0  0  0  0  0  0  0  0  0
   -6.1680   22.8470  -31.2330 C   0  0  0  0  0  0  0  0  0  0  0  0
   -7.1960   23.6040  -30.6630 C   0  0  0  0  0  0  0  0  0  0  0  0
   -6.9020   24.7910  -29.9890 C   0  0  0  0  0  0  0  0  0  0  0  0
   -5.5780   25.2230  -29.8800 C   0  0  0  0  0  0  0  0  0  0  0  0
   -4.5420   24.4690  -30.4470 C   0  0  0  0  0  0  0  0  0  0  0  0
   -3.1920   24.9110  -30.3070 N   0  0  0  0  0  0  0  0  0  0  0  0
   -2.3930   24.8160  -28.7760 S   0  0  0  0  0  0  0  0  0  0  0  0
   -1.5090   26.0200  -28.6000 O   0  0  0  0  0  0  0  0  0  0  0  0
   -3.4150   24.8060  -27.6720 O   0  0  0  0  0  0  0  0  0  0  0  0
   -1.4120   23.3560  -28.7170 C   0  0  0  0  0  0  0  0  0  0  0  0
   -0.8720   22.9180  -27.5010 C   0  0  0  0  0  0  0  0  0  0  0  0
   -0.1560   21.7210  -27.4440 C   0  0  0  0  0  0  0  0  0  0  0  0
    0.0180   20.9500  -28.5960 C   0  0  0  0  0  0  0  0  0  0  0  0
   -0.5160   21.3760  -29.8260 C   0  0  0  0  0  0  0  0  0  0  0  0
   -0.3700   20.5480  -31.0490 C   0  0  0  0  0  0  0  0  0  0  0  0
   -0.3030   21.1140  -32.1750 O   0  0  0  0  0  0  0  0  0  0  0  0
   -0.2590   19.1170  -30.9660 N   0  0  0  0  0  0  0  0  0  0  0  0
   -0.5160   18.2400  -32.0750 C   0  0  0  0  0  0  0  0  0  0  0  0
   -0.8120   18.7850  -33.3330 C   0  0  0  0  0  0  0  0  0  0  0  0
   -1.0790   17.9510  -34.4220 C   0  0  0  0  0  0  0  0  0  0  0  0
   -1.0320   16.5580  -34.2700 C   0  0  0  0  0  0  0  0  0  0  0  0
   -1.4630   15.5050  -35.6140 S   0  0  0  0  0  0  0  0  0  0  0  0
   -0.6980   15.9300  -36.8360 O   0  0  0  0  0  0  0  0  0  0  0  0
   -1.0900   14.0850  -35.2920 O   0  0  0  0  0  0  0  0  0  0  0  0
   -3.1630   15.5870  -35.9560 N   0  0  0  0  0  0  0  0  0  0  0  0
   -4.1210   16.0460  -34.9980 C   0  0  0  0  0  0  0  0  0  0  0  0
   -4.4000   17.4150  -34.8690 C   0  0  0  0  0  0  0  0  0  0  0  0
   -5.3310   17.8720  -33.9220 C   0  0  0  0  0  0  0  0  0  0  0  0
   -5.5530   19.3510  -33.7320 C   0  0  0  0  0  0  0  0  0  0  0  0
   -4.3880   20.0540  -33.9860 F   0  0  0  0  0  0  0  0  0  0  0  0
   -6.5350   19.8180  -34.5880 F   0  0  0  0  0  0  0  0  0  0  0  0
   -5.9440   19.5870  -32.4280 F   0  0  0  0  0  0  0  0  0  0  0  0
   -5.9770   16.9370  -33.0950 C   0  0  0  0  0  0  0  0  0  0  0  0
   -5.7330   15.5700  -33.2500 C   0  0  0  0  0  0  0  0  0  0  0  0
   -4.8140   15.1210  -34.2050 C   0  0  0  0  0  0  0  0  0  0  0  0
   -4.5170   13.3960  -34.3660 Cl  0  0  0  0  0  0  0  0  0  0  0  0
   -0.7010   16.0090  -33.0250 C   0  0  0  0  0  0  0  0  0  0  0  0
   -0.4400   16.8420  -31.9340 C   0  0  0  0  0  0  0  0  0  0  0  0
   -1.2340   22.5840  -29.8740 C   0  0  0  0  0  0  0  0  0  0  0  0
   -3.5659   20.8720  -30.4924 H   0  0  0  0  0  0  0  0  0  0  0  0
   -4.4405   20.6218  -32.0413 H   0  0  0  0  0  0  0  0  0  0  0  0
   -2.6570   20.8358  -32.0413 H   0  0  0  0  0  0  0  0  0  0  0  0
   -6.4049   21.9128  -31.7632 H   0  0  0  0  0  0  0  0  0  0  0  0
   -8.2388   23.2637  -30.7457 H   0  0  0  0  0  0  0  0  0  0  0  0
   -7.7130   25.3860  -29.5438 H   0  0  0  0  0  0  0  0  0  0  0  0
   -5.3481   26.1577  -29.3476 H   0  0  0  0  0  0  0  0  0  0  0  0
   -1.0123   23.5180  -26.5898 H   0  0  0  0  0  0  0  0  0  0  0  0
    0.2727   21.3837  -26.4888 H   0  0  0  0  0  0  0  0  0  0  0  0
    0.5761   20.0037  -28.5410 H   0  0  0  0  0  0  0  0  0  0  0  0
    0.1600   18.7040  -30.1030 H   0  0  0  0  0  0  0  0  0  0  0  0
   -0.8341   19.8770  -33.4634 H   0  0  0  0  0  0  0  0  0  0  0  0
   -1.3266   18.3883  -35.4005 H   0  0  0  0  0  0  0  0  0  0  0  0
   -3.8837   18.1386  -35.5170 H   0  0  0  0  0  0  0  0  0  0  0  0
   -6.6784   17.2833  -32.3216 H   0  0  0  0  0  0  0  0  0  0  0  0
   -6.2656   14.8436  -32.6186 H   0  0  0  0  0  0  0  0  0  0  0  0
   -0.6462   14.9169  -32.9054 H   0  0  0  0  0  0  0  0  0  0  0  0
   -0.1741   16.4032  -30.9610 H   0  0  0  0  0  0  0  0  0  0  0  0
   -1.6602   22.9268  -30.8284 H   0  0  0  0  0  0  0  0  0  0  0  0
  1  2  1  0
  2  3  1  0
  3  4  2  0
  4  5  1  0
  5  6  2  0
  6  7  1  0
  7  8  2  0
  8  9  1  0
  9 10  1  0
 10 11  2  0
 10 12  2  0
 10 13  1  0
 13 14  2  0
 14 15  1  0
 15 16  2  0
 16 17  1  0
 17 18  1  0
 18 19  2  0
 18 20  1  0
 20 21  1  0
 21 22  2  0
 22 23  1  0
 23 24  2  0
 24 25  1  0
 25 26  2  0
 25 27  2  0
 25 28  1  0
 28 29  1  0
 29 30  2  0
 30 31  1  0
 31 32  1  0
 32 33  1  0
 32 34  1  0
 32 35  1  0
 31 36  2  0
 36 37  1  0
 37 38  2  0
 38 39  1  0
 24 40  1  0
 40 41  2  0
 17 42  2  0
  8  3  1  0
 42 13  1  0
 41 21  1  0
 38 29  1  0
  1 43  1  0
  1 44  1  0
  1 45  1  0
  4 46  1  0
  5 47  1  0
  6 48  1  0
  7 49  1  0
 14 50  1  0
 15 51  1  0
 16 52  1  0
 20 53  1  0
 22 54  1  0
 23 55  1  0
 30 56  1  0
 36 57  1  0
 37 58  1  0
 40 59  1  0
 41 60  1  0
 42 61  1  0
M  CHG  2   9  -1  28  -1
M  END
>  <UniqueID>  (6) 
6

>  <SMILES>  (6) 
COc1ccccc1[N-]S(=O)(=O)c1cccc(C(=O)Nc2ccc(S(=O)(=O)[N-]c3cc(C(F)(F)F)ccc3Cl)cc2)c1

>  <Energy>  (6) 
86.8907303770208

>  <Genealogy>  (6) 
COc1ccccc1[N-]S(=O)(=O)c1cccc(C(=O)Nc2ccc(S(=O)(=O)[N-]c3cc(C(F)(F)F)ccc3Cl)cc2)c1 (protonated)
COc1ccccc1[N-]S(=O)(=O)c1cccc(C(=O)Nc2ccc(S(=O)(=O)[N-]c3cc(C(F)(F)F)ccc3Cl)cc2)c1 (3D coordinates assigned)
COc1ccccc1[N-]S(=O)(=O)c1cccc(C(=O)Nc2ccc(S(=O)(=O)[N-]c3cc(C(F)(F)F)ccc3Cl)cc2)c1 (optimized conformer: 86.8907303770208 kcal/mol)

>  <smiles>  (6) 
COc1ccccc1NS(=O)(=O)c1cccc(C(=O)Nc2ccc(S(=O)(=O)Nc3cc(C(F)(F)F)ccc3Cl)cc2)c1

>  <score_type>  (6) 
oracle

>  <origin>  (6) 
adgpu

>  <m_score__min__energy>  (6) 
-11.06

>  <m_primary>  (6) 
energy

$$$$
6:0
     RDKit          3D

 33 35  0  0  0  0  0  0  0  0999 V2000
   -1.7413   22.8928  -32.1583 H   0  0  0  0  0  0  0  0  0  0  0  0
   -2.7580   22.6770  -31.7980 C   0  0  0  0  0  0  0  0  0  0  0  0
   -3.6640   22.3570  -32.6790 N   0  0  0  0  0  0  0  0  0  0  0  0
   -5.0030   21.9180  -32.4090 C   0  0  0  0  0  0  0  0  0  0  0  0
   -6.2050   22.9270  -31.8050 S   0  0  0  0  0  0  0  0  0  0  0  0
   -7.4310   21.7790  -31.8850 C   0  0  0  0  0  0  0  0  0  0  0  0
   -6.9170   20.5850  -32.3820 C   0  0  0  0  0  0  0  0  0  0  0  0
   -5.5540   20.6700  -32.7160 C   0  0  0  0  0  0  0  0  0  0  0  0
   -4.8450   19.6210  -33.4050 C   0  0  0  0  0  0  0  0  0  0  0  0
   -4.2810   18.7760  -33.9600 N   0  0  0  0  0  0  0  0  0  0  0  0
   -7.7990   19.3930  -32.6510 C   0  0  0  0  0  0  0  0  0  0  0  0
   -8.0336   19.3566  -33.7251 H   0  0  0  0  0  0  0  0  0  0  0  0
   -7.2604   18.4864  -32.3380 H   0  0  0  0  0  0  0  0  0  0  0  0
   -9.1130   19.4750  -31.8540 C   0  0  0  0  0  0  0  0  0  0  0  0
   -9.8143   18.7210  -32.2409 H   0  0  0  0  0  0  0  0  0  0  0  0
   -8.8877   19.2894  -30.7934 H   0  0  0  0  0  0  0  0  0  0  0  0
   -9.7560   20.8670  -31.9770 C   0  0  0  0  0  0  0  0  0  0  0  0
   -9.9462   21.0815  -33.0390 H   0  0  0  0  0  0  0  0  0  0  0  0
  -10.6962   20.8673  -31.4060 H   0  0  0  0  0  0  0  0  0  0  0  0
   -8.8380   21.9580  -31.4020 C   0  0  0  0  0  0  0  0  0  0  0  0
   -9.2061   22.9442  -31.7214 H   0  0  0  0  0  0  0  0  0  0  0  0
   -8.8461   21.8830  -30.3046 H   0  0  0  0  0  0  0  0  0  0  0  0
   -3.0130   22.7680  -30.3420 C   0  0  0  0  0  0  0  0  0  0  0  0
   -2.8250   21.6230  -29.5530 C   0  0  0  0  0  0  0  0  0  0  0  0
   -2.4880   20.6859  -30.0202 H   0  0  0  0  0  0  0  0  0  0  0  0
   -3.0640   21.6670  -28.1750 C   0  0  0  0  0  0  0  0  0  0  0  0
   -2.8400   20.0920  -27.1170 Br  0  0  0  0  0  0  0  0  0  0  0  0
   -3.4690   22.8610  -27.5740 C   0  0  0  0  0  0  0  0  0  0  0  0
   -3.6692   22.8915  -26.4928 H   0  0  0  0  0  0  0  0  0  0  0  0
   -3.6200   24.0160  -28.3440 C   0  0  0  0  0  0  0  0  0  0  0  0
   -3.9310   24.9566  -27.8660 H   0  0  0  0  0  0  0  0  0  0  0  0
   -3.3770   23.9810  -29.7220 C   0  0  0  0  0  0  0  0  0  0  0  0
   -3.4730   25.1590  -30.4560 O   0  0  0  0  0  0  0  0  0  0  0  0
  1  2  1  0
  2  3  2  0
  3  4  1  0
  4  5  1  0
  5  6  1  0
  6  7  2  0
  7  8  1  0
  8  9  1  0
  9 10  3  0
  7 11  1  0
 11 12  1  0
 11 13  1  0
 11 14  1  0
 14 15  1  0
 14 16  1  0
 14 17  1  0
 17 18  1  0
 17 19  1  0
 17 20  1  0
 20 21  1  0
 20 22  1  0
  2 23  1  0
 23 24  2  0
 24 25  1  0
 24 26  1  0
 26 27  1  0
 26 28  2  0
 28 29  1  0
 28 30  1  0
 30 31  1  0
 30 32  2  0
 32 33  1  0
  8  4  2  0
 32 23  1  0
 20  6  1  0
M  CHG  1  33  -1
M  END
>  <UniqueID>  (7) 
7

>  <SMILES>  (7) 
N#Cc1c(/N=C\c2cc(Br)ccc2[O-])sc2c1CCCC2

>  <Energy>  (7) 
72.16414212429179

>  <Genealogy>  (7) 
N#Cc1c(N=Cc2cc(Br)ccc2[O-])sc2c1CCCC2 (protonated)
N#Cc1c(/N=C\c2cc(Br)ccc2[O-])sc2c1CCCC2 (cis-trans isomerization)
N#Cc1c(/N=C\c2cc(Br)ccc2[O-])sc2c1CCCC2 (3D coordinates assigned)
N#Cc1c(/N=C\c2cc(Br)ccc2[O-])sc2c1CCCC2 (nonaromatic ring conformer: 72.16414212429179 kcal/mol)

>  <smiles>  (7) 
N#Cc1c(N=Cc2cc(Br)ccc2O)sc2c1CCCC2

>  <score_type>  (7) 
oracle

>  <origin>  (7) 
adgpu

>  <m_score__min__energy>  (7) 
-11.699999999999999

>  <m_primary>  (7) 
energy

$$$$
7:0
     RDKit          3D

 52 54  0  0  1  0  0  0  0  0999 V2000
   -5.3390   25.5960  -30.4650 C   0  0  0  0  0  0  0  0  0  0  0  0
   -3.9230   25.6070  -30.4130 O   0  0  0  0  0  0  0  0  0  0  0  0
   -3.2900   24.4120  -30.0970 C   0  0  0  0  0  0  0  0  0  0  0  0
   -3.7930   23.1890  -30.5020 C   0  0  0  0  0  0  0  0  0  0  0  0
   -3.1460   22.0160  -30.1750 C   0  0  0  0  0  0  0  0  0  0  0  0
   -3.7180   20.7810  -30.6240 N   0  0  0  0  0  0  0  0  0  0  0  0
   -3.3310   20.3860  -31.8130 C   0  0  0  0  0  0  0  0  0  0  0  0
   -3.8250   19.2070  -32.3380 C   0  0  0  0  0  0  0  0  0  0  0  0
   -3.3850   18.8370  -33.5930 C   0  0  0  0  0  0  0  0  0  0  0  0
   -3.8090   17.6520  -34.2530 N   0  0  0  0  0  0  0  0  0  0  0  0
   -3.0460   16.4430  -34.3290 C   0  0  0  0  0  0  0  0  0  0  0  0
   -5.1200   17.6940  -34.8920 C   0  0  0  0  0  0  0  0  0  0  0  0
   -6.1400   18.2850  -33.9820 C   0  0  0  0  0  0  0  0  0  0  0  0
   -6.4830   19.6160  -34.0050 C   0  0  0  0  0  0  0  0  0  0  0  0
   -7.4520   20.0550  -33.1030 C   0  0  0  0  0  0  0  0  0  0  0  0
   -8.0420   19.1540  -32.2140 C   0  0  0  0  0  0  0  0  0  0  0  0
   -7.7000   17.8230  -32.1910 C   0  0  0  0  0  0  0  0  0  0  0  0
   -6.7400   17.4050  -33.0880 C   0  0  0  0  0  0  0  0  0  0  0  0
   -2.4990   19.6110  -34.2790 N   0  0  0  0  0  0  0  0  0  0  0  0
   -2.0350   20.7500  -33.7460 C   0  0  0  0  0  0  0  0  0  0  0  0
   -2.4620   21.1070  -32.5310 N   0  0  0  0  0  0  0  0  0  0  0  0
   -1.9820   22.0650  -29.4340 C   0  0  0  0  0  0  0  0  0  0  0  0
   -1.4760   23.2850  -29.0280 C   0  0  0  0  0  0  0  0  0  0  0  0
   -0.3100   23.4080  -28.2810 O   0  0  0  0  0  0  0  0  0  0  0  0
   -0.2610   22.6620  -27.0820 C   0  0  0  0  0  0  0  0  0  0  0  0
   -2.1140   24.4880  -29.3470 C   0  0  0  0  0  0  0  0  0  0  0  0
   -1.6390   25.7130  -28.9600 O   0  0  0  0  0  0  0  0  0  0  0  0
   -1.2370   26.0520  -27.6500 C   0  0  0  0  0  0  0  0  0  0  0  0
   -5.7435   25.5929  -29.4421 H   0  0  0  0  0  0  0  0  0  0  0  0
   -5.6934   26.4914  -30.9967 H   0  0  0  0  0  0  0  0  0  0  0  0
   -5.6794   24.6952  -30.9967 H   0  0  0  0  0  0  0  0  0  0  0  0
   -4.7205   23.1515  -31.0922 H   0  0  0  0  0  0  0  0  0  0  0  0
   -4.5408   18.5876  -31.7777 H   0  0  0  0  0  0  0  0  0  0  0  0
   -2.8212   16.0868  -33.3128 H   0  0  0  0  0  0  0  0  0  0  0  0
   -3.6248   15.6773  -34.8663 H   0  0  0  0  0  0  0  0  0  0  0  0
   -2.1057   16.6360  -34.8663 H   0  0  0  0  0  0  0  0  0  0  0  0
   -5.0556   18.3046  -35.8047 H   0  0  0  0  0  0  0  0  0  0  0  0
   -5.4232   16.6653  -35.1364 H   0  0  0  0  0  0  0  0  0  0  0  0
   -6.0085   20.3124  -34.7120 H   0  0  0  0  0  0  0  0  0  0  0  0
   -7.7521   21.1132  -33.0918 H   0  0  0  0  0  0  0  0  0  0  0  0
   -8.8039   19.5208  -31.5105 H   0  0  0  0  0  0  0  0  0  0  0  0
   -8.1719   17.1215  -31.4873 H   0  0  0  0  0  0  0  0  0  0  0  0
   -6.4406   16.3466  -33.0967 H   0  0  0  0  0  0  0  0  0  0  0  0
   -2.1590   19.3420  -35.2290 H   0  0  0  0  0  0  0  0  0  0  0  0
   -1.3184   21.3772  -34.2966 H   0  0  0  0  0  0  0  0  0  0  0  0
   -1.4587   21.1349  -29.1675 H   0  0  0  0  0  0  0  0  0  0  0  0
   -0.3060   23.3466  -26.2221 H   0  0  0  0  0  0  0  0  0  0  0  0
   -1.1157   21.9705  -27.0452 H   0  0  0  0  0  0  0  0  0  0  0  0
    0.6768   22.0882  -27.0452 H   0  0  0  0  0  0  0  0  0  0  0  0
   -1.8683   25.5196  -26.9234 H   0  0  0  0  0  0  0  0  0  0  0  0
   -0.1857   25.7637  -27.5029 H   0  0  0  0  0  0  0  0  0  0  0  0
   -1.3437   27.1369  -27.5029 H   0  0  0  0  0  0  0  0  0  0  0  0
  1  2  1  0
  2  3  1  0
  3  4  2  0
  4  5  1  0
  5  6  1  0
  6  7  2  0
  7  8  1  0
  8  9  2  0
  9 10  1  0
 10 11  1  0
 10 12  1  0
 12 13  1  0
 13 14  2  0
 14 15  1  0
 15 16  2  0
 16 17  1  0
 17 18  2  0
  9 19  1  0
 19 20  1  0
 20 21  2  0
  5 22  2  0
 22 23  1  0
 23 24  1  0
 24 25  1  0
 23 26  2  0
 26 27  1  0
 27 28  1  0
 26  3  1  0
 21  7  1  0
 18 13  1  0
  1 29  1  0
  1 30  1  0
  1 31  1  0
  4 32  1  0
  8 33  1  0
 11 34  1  0
 11 35  1  0
 11 36  1  0
 12 37  1  0
 12 38  1  0
 14 39  1  0
 15 40  1  0
 16 41  1  0
 17 42  1  0
 18 43  1  0
 19 44  1  0
 20 45  1  0
 22 46  1  0
 25 47  1  0
 25 48  1  0
 25 49  1  0
 28 50  1  0
 28 51  1  0
 28 52  1  0
M  END
>  <smiles>  (8) 
COc1cc(N=c2cc(N(C)Cc3ccccc3)[nH]cn2)cc(OC)c1OC

>  <score_type>  (8) 
oracle

>  <origin>  (8) 
adgpu

>  <m_score__min__energy>  (8) 
-8.6400000000000006

>  <m_primary>  (8) 
energy

$$$$
8:0
     RDKit          3D

 33 34  0  0  0  0  0  0  0  0999 V2000
   -6.8460   16.1830  -34.2380 C   0  0  0  0  0  0  0  0  0  0  0  0
   -6.7300   17.3360  -33.2950 C   0  0  0  0  0  0  0  0  0  0  0  0
   -6.7170   17.1220  -32.0520 O   0  0  0  0  0  0  0  0  0  0  0  0
   -6.6960   18.6760  -33.8090 N   0  0  0  0  0  0  0  0  0  0  0  0
   -6.4000   19.8370  -33.0140 C   0  0  0  0  0  0  0  0  0  0  0  0
   -5.1250   20.4330  -33.0300 C   0  0  0  0  0  0  0  0  0  0  0  0
   -4.8700   21.5740  -32.2650 C   0  0  0  0  0  0  0  0  0  0  0  0
   -5.8850   22.1410  -31.4820 C   0  0  0  0  0  0  0  0  0  0  0  0
   -5.5640   23.5700  -30.5050 S   0  0  0  0  0  0  0  0  0  0  0  0
   -4.6390   24.5100  -31.2250 O   0  0  0  0  0  0  0  0  0  0  0  0
   -6.8630   24.2740  -30.2310 O   0  0  0  0  0  0  0  0  0  0  0  0
   -4.8400   23.1070  -28.9980 N   0  0  0  0  0  0  0  0  0  0  0  0
   -3.6480   23.6780  -28.4440 C   0  0  0  0  0  0  0  0  0  0  0  0
   -3.1050   23.2380  -27.2220 C   0  0  0  0  0  0  0  0  0  0  0  0
   -1.9460   23.8330  -26.7130 C   0  0  0  0  0  0  0  0  0  0  0  0
   -1.3180   24.8630  -27.4170 C   0  0  0  0  0  0  0  0  0  0  0  0
   -1.8490   25.3020  -28.6340 C   0  0  0  0  0  0  0  0  0  0  0  0
   -1.2240   26.3250  -29.3360 O   0  0  0  0  0  0  0  0  0  0  0  0
   -3.0090   24.7100  -29.1450 C   0  0  0  0  0  0  0  0  0  0  0  0
   -7.1620   21.5680  -31.4860 C   0  0  0  0  0  0  0  0  0  0  0  0
   -7.4190   20.4270  -32.2520 C   0  0  0  0  0  0  0  0  0  0  0  0
   -6.9400   15.2487  -33.6650 H   0  0  0  0  0  0  0  0  0  0  0  0
   -7.7353   16.3156  -34.8716 H   0  0  0  0  0  0  0  0  0  0  0  0
   -5.9481   16.1358  -34.8716 H   0  0  0  0  0  0  0  0  0  0  0  0
   -6.9860   18.8210  -34.8030 H   0  0  0  0  0  0  0  0  0  0  0  0
   -4.3254   19.9983  -33.6478 H   0  0  0  0  0  0  0  0  0  0  0  0
   -3.8687   22.0292  -32.2772 H   0  0  0  0  0  0  0  0  0  0  0  0
   -3.5934   22.4242  -26.6660 H   0  0  0  0  0  0  0  0  0  0  0  0
   -1.5279   23.4888  -25.7555 H   0  0  0  0  0  0  0  0  0  0  0  0
   -0.4063   25.3286  -27.0144 H   0  0  0  0  0  0  0  0  0  0  0  0
   -3.4225   25.0568  -30.1035 H   0  0  0  0  0  0  0  0  0  0  0  0
   -7.9661   22.0169  -30.8844 H   0  0  0  0  0  0  0  0  0  0  0  0
   -8.4279   19.9887  -32.2571 H   0  0  0  0  0  0  0  0  0  0  0  0
  1  2  1  0
  2  3  2  0
  2  4  1  0
  4  5  1  0
  5  6  2  0
  6  7  1  0
  7  8  2  0
  8  9  1  0
  9 10  2  0
  9 11  2  0
  9 12  1  0
 12 13  1  0
 13 14  2  0
 14 15  1  0
 15 16  2  0
 16 17  1  0
 17 18  1  0
 17 19  2  0
  8 20  1  0
 20 21  2  0
 21  5  1  0
 19 13  1  0
  1 22  1  0
  1 23  1  0
  1 24  1  0
  4 25  1  0
  6 26  1  0
  7 27  1  0
 14 28  1  0
 15 29  1  0
 16 30  1  0
 19 31  1  0
 20 32  1  0
 21 33  1  0
M  CHG  2  12  -1  18  -1
M  END
>  <UniqueID>  (9) 
8

>  <SMILES>  (9) 
CC(=O)Nc1ccc(S(=O)(=O)[N-]c2cccc([O-])c2)cc1

>  <Energy>  (9) 
38.17848823173129

>  <Genealogy>  (9) 
CC(=O)Nc1ccc(S(=O)(=O)[N-]c2cccc([O-])c2)cc1 (protonated)
CC(=O)Nc1ccc(S(=O)(=O)[N-]c2cccc([O-])c2)cc1 (3D coordinates assigned)
CC(=O)Nc1ccc(S(=O)(=O)[N-]c2cccc([O-])c2)cc1 (optimized conformer: 38.17848823173129 kcal/mol)

>  <smiles>  (9) 
CC(=O)Nc1ccc(S(=O)(=O)Nc2cccc(O)c2)cc1

>  <score_type>  (9) 
oracle

>  <origin>  (9) 
adgpu

>  <m_score__min__energy>  (9) 
-11.109999999999999

>  <m_primary>  (9) 
energy

$$$$
9:0
     RDKit          3D

 47 49  0  0  0  0  0  0  0  0999 V2000
   -3.2690   23.4910  -28.4060 C   0  0  0  0  0  0  0  0  0  0  0  0
   -2.9560   24.5200  -29.4490 C   0  0  0  0  0  0  0  0  0  0  0  0
   -1.9790   25.2930  -29.2680 O   0  0  0  0  0  0  0  0  0  0  0  0
   -3.7110   24.6280  -30.6630 N   0  0  0  0  0  0  0  0  0  0  0  0
   -4.9900   24.0320  -30.9300 C   0  0  0  0  0  0  0  0  0  0  0  0
   -5.0830   22.7570  -31.5080 C   0  0  0  0  0  0  0  0  0  0  0  0
   -6.3280   22.1730  -31.7640 C   0  0  0  0  0  0  0  0  0  0  0  0
   -6.3650   20.8770  -32.3810 N   0  0  0  0  0  0  0  0  0  0  0  0
   -5.3370   20.2900  -32.9230 C   0  0  0  0  0  0  0  0  0  0  0  0
   -4.1090   20.8730  -32.8890 N   0  0  0  0  0  0  0  0  0  0  0  0
   -3.0270   20.2720  -33.4400 C   0  0  0  0  0  0  0  0  0  0  0  0
   -1.4650   21.0630  -33.3740 Cl  0  0  0  0  0  0  0  0  0  0  0  0
   -3.1680   19.0270  -34.0510 C   0  0  0  0  0  0  0  0  0  0  0  0
   -4.3930   18.4140  -34.1000 N   0  0  0  0  0  0  0  0  0  0  0  0
   -4.5000   17.0850  -34.7430 C   0  0  1  0  0  0  0  0  0  0  0  0
   -3.1380   16.6810  -35.3330 C   0  0  0  0  0  0  0  0  0  0  0  0
   -5.1480   16.0690  -33.7600 C   0  0  0  0  0  0  0  0  0  0  0  0
   -6.5320   15.5880  -34.1800 C   0  0  0  0  0  0  0  0  0  0  0  0
   -5.3690   14.6130  -34.1660 C   0  0  0  0  0  0  0  0  0  0  0  0
   -5.4830   19.0340  -33.5320 C   0  0  0  0  0  0  0  0  0  0  0  0
   -6.6200   18.4830  -33.5540 O   0  0  0  0  0  0  0  0  0  0  0  0
   -7.5080   22.8390  -31.3670 C   0  0  0  0  0  0  0  0  0  0  0  0
   -8.8680   22.2260  -31.5750 C   0  0  0  0  0  0  0  0  0  0  0  0
   -7.4150   24.1080  -30.7770 C   0  0  0  0  0  0  0  0  0  0  0  0
   -6.1650   24.7060  -30.5460 C   0  0  0  0  0  0  0  0  0  0  0  0
   -6.0880   26.0620  -29.9020 C   0  0  0  0  0  0  0  0  0  0  0  0
   -3.1355   23.9299  -27.4062 H   0  0  0  0  0  0  0  0  0  0  0  0
   -4.3099   23.1552  -28.5230 H   0  0  0  0  0  0  0  0  0  0  0  0
   -2.5914   22.6324  -28.5230 H   0  0  0  0  0  0  0  0  0  0  0  0
   -4.1641   22.2090  -31.7634 H   0  0  0  0  0  0  0  0  0  0  0  0
   -2.2914   18.5338  -34.4963 H   0  0  0  0  0  0  0  0  0  0  0  0
   -5.1829   17.1079  -35.6051 H   0  0  0  0  0  0  0  0  0  0  0  0
   -2.4320   16.4716  -34.5159 H   0  0  0  0  0  0  0  0  0  0  0  0
   -3.2594   15.7802  -35.9525 H   0  0  0  0  0  0  0  0  0  0  0  0
   -2.7486   17.5023  -35.9525 H   0  0  0  0  0  0  0  0  0  0  0  0
   -4.6720   16.5296  -32.8818 H   0  0  0  0  0  0  0  0  0  0  0  0
   -7.3329   15.4983  -33.4313 H   0  0  0  0  0  0  0  0  0  0  0  0
   -7.2691   15.9061  -34.9320 H   0  0  0  0  0  0  0  0  0  0  0  0
   -5.3271   13.8181  -33.4068 H   0  0  0  0  0  0  0  0  0  0  0  0
   -4.9150   13.9338  -34.9026 H   0  0  0  0  0  0  0  0  0  0  0  0
   -9.3296   22.0179  -30.5985 H   0  0  0  0  0  0  0  0  0  0  0  0
   -9.5029   22.9250  -32.1392 H   0  0  0  0  0  0  0  0  0  0  0  0
   -8.7647   21.2874  -32.1392 H   0  0  0  0  0  0  0  0  0  0  0  0
   -8.3332   24.6422  -30.4913 H   0  0  0  0  0  0  0  0  0  0  0  0
   -6.0944   25.9492  -28.8078 H   0  0  0  0  0  0  0  0  0  0  0  0
   -5.1599   26.5637  -30.2134 H   0  0  0  0  0  0  0  0  0  0  0  0
   -6.9533   26.6655  -30.2134 H   0  0  0  0  0  0  0  0  0  0  0  0
  1  2  1  0
  2  3  2  0
  2  4  1  0
  4  5  1  0
  5  6  2  0
  6  7  1  0
  7  8  1  0
  8  9  2  3
  9 10  1  0
 10 11  1  0
 11 12  1  0
 11 13  2  0
 13 14  1  0
 14 15  1  0
 15 16  1  0
 15 17  1  0
 17 18  1  0
 18 19  1  0
 14 20  1  0
 20 21  2  0
  7 22  2  0
 22 23  1  0
 22 24  1  0
 24 25  2  0
 25 26  1  0
 25  5  1  0
 20  9  1  0
 19 17  1  0
  1 27  1  0
  1 28  1  0
  1 29  1  0
  6 30  1  0
 13 31  1  0
 15 32  1  6
 16 33  1  0
 16 34  1  0
 16 35  1  0
 17 36  1  0
 18 37  1  0
 18 38  1  0
 19 39  1  0
 19 40  1  0
 23 41  1  0
 23 42  1  0
 23 43  1  0
 24 44  1  0
 26 45  1  0
 26 46  1  0
 26 47  1  0
M  CHG  2   4  -1  10  -1
M  END
>  <UniqueID>  (10) 
9

>  <SMILES>  (10) 
CC(=O)[N-]c1cc(N=c2[n-]c(Cl)cn([C@@H](C)C3CC3)c2=O)c(C)cc1C

>  <Energy>  (10) 
330.98526009584316

>  <Genealogy>  (10) 
CC(=O)[N-]c1cc(N=c2[n-]c(Cl)cn(C(C)C3CC3)c2=O)c(C)cc1C (protonated)
CC(=O)[N-]c1cc(N=c2[n-]c(Cl)cn([C@@H](C)C3CC3)c2=O)c(C)cc1C (chirality)
CC(=O)[N-]c1cc(N=c2[n-]c(Cl)cn([C@@H](C)C3CC3)c2=O)c(C)cc1C (3D coordinates assigned)
CC(=O)[N-]c1cc(N=c2[n-]c(Cl)cn([C@@H](C)C3CC3)c2=O)c(C)cc1C (nonaromatic ring conformer: 330.98526009584316 kcal/mol)

>  <smiles>  (10) 
CC(=O)Nc1cc(N=c2[nH]c(Cl)cn(C(C)C3CC3)c2=O)c(C)cc1C

>  <score_type>  (10) 
oracle

>  <origin>  (10) 
adgpu

>  <m_score__min__energy>  (10) 
-10.449999999999999

>  <m_primary>  (10) 
energy

$$$$
10:0
     RDKit          3D

 56 59  0  0  0  0  0  0  0  0999 V2000
   -9.4800   23.0870  -31.9690 C   0  0  0  0  0  0  0  0  0  0  0  0
   -9.0430   21.9040  -31.3070 O   0  0  0  0  0  0  0  0  0  0  0  0
   -8.1790   20.9510  -31.8690 C   0  0  0  0  0  0  0  0  0  0  0  0
   -8.5030   19.5810  -31.9070 C   0  0  0  0  0  0  0  0  0  0  0  0
   -7.6160   18.6610  -32.4720 C   0  0  0  0  0  0  0  0  0  0  0  0
   -6.3910   19.0900  -32.9920 C   0  0  0  0  0  0  0  0  0  0  0  0
   -5.2550   17.9390  -33.6910 S   0  0  0  0  0  0  0  0  0  0  0  0
   -5.6110   17.7230  -35.3660 N   0  0  0  0  0  0  0  0  0  0  0  0
   -3.8540   18.4600  -33.5340 O   0  0  0  0  0  0  0  0  0  0  0  0
   -5.3600   16.6130  -32.9910 O   0  0  0  0  0  0  0  0  0  0  0  0
   -6.0620   20.4500  -32.9530 C   0  0  0  0  0  0  0  0  0  0  0  0
   -6.9620   21.3890  -32.4160 C   0  0  0  0  0  0  0  0  0  0  0  0
   -6.6310   22.7870  -32.3420 N   0  0  0  0  0  0  0  0  0  0  0  0
   -5.7350   23.3350  -31.5740 C   0  0  0  0  0  0  0  0  0  0  0  0
   -5.5780   24.6830  -31.5960 N   0  0  0  0  0  0  0  0  0  0  0  0
   -4.6310   25.2950  -30.8390 C   0  0  0  0  0  0  0  0  0  0  0  0
   -3.7800   24.5360  -30.0340 C   0  0  0  0  0  0  0  0  0  0  0  0
   -2.7880   25.1970  -29.2360 N   0  0  0  0  0  0  0  0  0  0  0  0
   -1.4750   24.7070  -28.9260 C   0  0  0  0  0  0  0  0  0  0  0  0
   -0.5470   25.5410  -28.7550 O   0  0  0  0  0  0  0  0  0  0  0  0
   -1.1680   23.2600  -28.8390 C   0  0  0  0  0  0  0  0  0  0  0  0
   -0.8480   22.5490  -30.0060 C   0  0  0  0  0  0  0  0  0  0  0  0
   -0.5490   21.1860  -29.9470 C   0  0  0  0  0  0  0  0  0  0  0  0
   -0.5740   20.5050  -28.7220 C   0  0  0  0  0  0  0  0  0  0  0  0
   -0.2510   19.1020  -28.6630 N   0  0  0  0  0  0  0  0  0  0  0  0
   -0.4460   18.3550  -27.4150 C   0  0  0  0  0  0  0  0  0  0  0  0
    0.2830   17.0040  -27.4740 C   0  0  0  0  0  0  0  0  0  0  0  0
    1.6000   17.1610  -28.1030 N   0  0  0  0  0  0  0  0  0  0  0  0
    1.5150   17.5910  -29.5140 C   0  0  0  0  0  0  0  0  0  0  0  0
    0.2420   18.3930  -29.8480 C   0  0  0  0  0  0  0  0  0  0  0  0
   -0.9050   21.2100  -27.5550 C   0  0  0  0  0  0  0  0  0  0  0  0
   -1.2130   22.5720  -27.6100 C   0  0  0  0  0  0  0  0  0  0  0  0
   -1.5910   23.2050  -26.4720 F   0  0  0  0  0  0  0  0  0  0  0  0
   -3.9660   23.1470  -30.0070 C   0  0  0  0  0  0  0  0  0  0  0  0
   -4.9260   22.5780  -30.7810 N   0  0  0  0  0  0  0  0  0  0  0  0
   -9.7595   23.8437  -31.2212 H   0  0  0  0  0  0  0  0  0  0  0  0
   -8.6665   23.4767  -32.5986 H   0  0  0  0  0  0  0  0  0  0  0  0
  -10.3515   22.8542  -32.5986 H   0  0  0  0  0  0  0  0  0  0  0  0
   -9.4595   19.2333  -31.4896 H   0  0  0  0  0  0  0  0  0  0  0  0
   -7.8826   17.5944  -32.5079 H   0  0  0  0  0  0  0  0  0  0  0  0
   -6.4910   18.2510  -35.5620 H   0  0  0  0  0  0  0  0  0  0  0  0
   -5.0915   20.7876  -33.3455 H   0  0  0  0  0  0  0  0  0  0  0  0
   -4.5345   26.3905  -30.8603 H   0  0  0  0  0  0  0  0  0  0  0  0
   -0.8326   23.0695  -30.9750 H   0  0  0  0  0  0  0  0  0  0  0  0
   -0.2920   20.6430  -30.8685 H   0  0  0  0  0  0  0  0  0  0  0  0
   -0.0485   18.9439  -26.5753 H   0  0  0  0  0  0  0  0  0  0  0  0
   -1.5217   18.1718  -27.2757 H   0  0  0  0  0  0  0  0  0  0  0  0
    0.4129   16.6172  -26.4525 H   0  0  0  0  0  0  0  0  0  0  0  0
   -0.3162   16.3006  -28.0708 H   0  0  0  0  0  0  0  0  0  0  0  0
    2.1390   17.8810  -27.5620 H   0  0  0  0  0  0  0  0  0  0  0  0
    2.3891   18.2203  -29.7373 H   0  0  0  0  0  0  0  0  0  0  0  0
    1.4851   16.6766  -30.1247 H   0  0  0  0  0  0  0  0  0  0  0  0
    0.4729   19.1247  -30.6363 H   0  0  0  0  0  0  0  0  0  0  0  0
   -0.5357   17.6946  -30.1907 H   0  0  0  0  0  0  0  0  0  0  0  0
   -0.9222   20.6859  -26.5880 H   0  0  0  0  0  0  0  0  0  0  0  0
   -3.3357   22.5190  -29.3602 H   0  0  0  0  0  0  0  0  0  0  0  0
  1  2  1  0
  2  3  1  0
  3  4  2  0
  4  5  1  0
  5  6  2  0
  6  7  1  0
  7  8  1  0
  7  9  2  0
  7 10  2  0
  6 11  1  0
 11 12  2  0
 12 13  1  0
 13 14  2  3
 14 15  1  0
 15 16  2  0
 16 17  1  0
 17 18  1  0
 18 19  1  0
 19 20  2  0
 19 21  1  0
 21 22  2  0
 22 23  1  0
 23 24  2  0
 24 25  1  0
 25 26  1  0
 26 27  1  0
 27 28  1  0
 28 29  1  0
 29 30  1  0
 24 31  1  0
 31 32  2  0
 32 33  1  0
 17 34  2  0
 34 35  1  0
 12  3  1  0
 35 14  1  0
 32 21  1  0
 30 25  1  0
  1 36  1  0
  1 37  1  0
  1 38  1  0
  4 39  1  0
  5 40  1  0
  8 41  1  0
 11 42  1  0
 16 43  1  0
 22 44  1  0
 23 45  1  0
 26 46  1  0
 26 47  1  0
 27 48  1  0
 27 49  1  0
 28 50  1  0
 29 51  1  0
 29 52  1  0
 30 53  1  0
 30 54  1  0
 31 55  1  0
 34 56  1  0
M  CHG  3   8  -1  18  -1  35  -1
M  END
>  <UniqueID>  (11) 
10

>  <SMILES>  (11) 
COc1ccc(S([NH-])(=O)=O)cc1N=c1ncc([N-]C(=O)c2ccc(N3CCNCC3)cc2F)c[n-]1

>  <Energy>  (11) 
82.52563720004909

>  <Genealogy>  (11) 
COc1ccc(S([NH-])(=O)=O)cc1N=c1ncc([N-]C(=O)c2ccc(N3CCNCC3)cc2F)c[n-]1 (protonated)
COc1ccc(S([NH-])(=O)=O)cc1N=c1ncc([N-]C(=O)c2ccc(N3CCNCC3)cc2F)c[n-]1 (3D coordinates assigned)
COc1ccc(S([NH-])(=O)=O)cc1N=c1ncc([N-]C(=O)c2ccc(N3CCNCC3)cc2F)c[n-]1 (nonaromatic ring conformer: 82.52563720004909 kcal/mol)

>  <smiles>  (11) 
COc1ccc(S(N)(=O)=O)cc1N=c1ncc(NC(=O)c2ccc(N3CCNCC3)cc2F)c[nH]1

>  <score_type>  (11) 
oracle

>  <origin>  (11) 
adgpu

>  <m_score__min__energy>  (11) 
-11.91

>  <m_primary>  (11) 
energy

$$$$
11:0
     RDKit          3D

 65 67  0  0  0  0  0  0  0  0999 V2000
    1.4060   14.8900  -29.0200 C   0  0  0  0  0  0  0  0  0  0  0  0
    1.6970   14.6210  -27.5430 C   0  0  0  0  0  0  0  0  0  0  0  0
    1.8560   15.9090  -26.7170 C   0  0  0  0  0  0  0  0  0  0  0  0
    1.5040   17.1890  -27.4970 C   0  0  0  0  0  0  0  0  0  0  0  0
    0.0990   17.4490  -27.4830 O   0  0  0  0  0  0  0  0  0  0  0  0
   -0.5270   18.5690  -28.0540 C   0  0  0  0  0  0  0  0  0  0  0  0
   -0.1690   19.0800  -29.3150 C   0  0  0  0  0  0  0  0  0  0  0  0
   -0.7780   20.2380  -29.8070 C   0  0  0  0  0  0  0  0  0  0  0  0
   -1.7580   20.9160  -29.0490 C   0  0  0  0  0  0  0  0  0  0  0  0
   -2.3800   22.2450  -29.4760 C   0  0  1  0  0  0  0  0  0  0  0  0
   -1.4270   23.4320  -29.2020 C   0  0  0  0  0  0  0  0  0  0  0  0
   -2.1150   24.7630  -29.3120 C   0  0  0  0  0  0  0  0  0  0  0  0
   -3.1050   24.8860  -30.0810 O   0  0  0  0  0  0  0  0  0  0  0  0
   -1.5990   25.8930  -28.6010 N   0  0  0  0  0  0  0  0  0  0  0  0
   -1.1290   25.8680  -27.2470 C   0  0  0  0  0  0  0  0  0  0  0  0
   -1.9530   26.4030  -26.2480 C   0  0  0  0  0  0  0  0  0  0  0  0
   -1.5600   26.3610  -24.9090 C   0  0  0  0  0  0  0  0  0  0  0  0
   -0.3290   25.8020  -24.5620 C   0  0  0  0  0  0  0  0  0  0  0  0
    0.5190   25.3010  -25.5530 C   0  0  0  0  0  0  0  0  0  0  0  0
    0.1350   25.3440  -26.9100 C   0  0  0  0  0  0  0  0  0  0  0  0
    0.9910   24.9070  -27.9350 O   0  0  0  0  0  0  0  0  0  0  0  0
    2.3970   24.7330  -27.7960 C   0  0  0  0  0  0  0  0  0  0  0  0
   -2.7970   22.2650  -30.8860 N   0  0  0  0  0  0  0  0  0  0  0  0
   -3.6840   21.2780  -31.4320 C   0  0  0  0  0  0  0  0  0  0  0  0
   -3.8580   20.1790  -30.8390 O   0  0  0  0  0  0  0  0  0  0  0  0
   -4.4410   21.5670  -32.6960 C   0  0  0  0  0  0  0  0  0  0  0  0
   -5.7170   20.7680  -32.7360 C   0  0  0  0  0  0  0  0  0  0  0  0
   -5.6820   19.4050  -33.0750 C   0  0  0  0  0  0  0  0  0  0  0  0
   -6.8560   18.6460  -33.0690 C   0  0  0  0  0  0  0  0  0  0  0  0
   -6.8010   16.9470  -33.5080 Cl  0  0  0  0  0  0  0  0  0  0  0  0
   -8.0720   19.2380  -32.7110 C   0  0  0  0  0  0  0  0  0  0  0  0
   -8.1140   20.5910  -32.3590 C   0  0  0  0  0  0  0  0  0  0  0  0
   -9.6350   21.3270  -31.8860 Cl  0  0  0  0  0  0  0  0  0  0  0  0
   -6.9410   21.3560  -32.3760 C   0  0  0  0  0  0  0  0  0  0  0  0
   -2.1560   20.3520  -27.8220 C   0  0  0  0  0  0  0  0  0  0  0  0
   -1.5430   19.1980  -27.3300 C   0  0  0  0  0  0  0  0  0  0  0  0
    0.6007   15.6344  -29.1054 H   0  0  0  0  0  0  0  0  0  0  0  0
    2.3137   15.2741  -29.5085 H   0  0  0  0  0  0  0  0  0  0  0  0
    1.0943   13.9550  -29.5085 H   0  0  0  0  0  0  0  0  0  0  0  0
    0.8657   14.0357  -27.1230 H   0  0  0  0  0  0  0  0  0  0  0  0
    2.6512   14.0763  -27.4897 H   0  0  0  0  0  0  0  0  0  0  0  0
    1.1953   15.8434  -25.8400 H   0  0  0  0  0  0  0  0  0  0  0  0
    2.9171   15.9836  -26.4368 H   0  0  0  0  0  0  0  0  0  0  0  0
    2.0284   18.0407  -27.0390 H   0  0  0  0  0  0  0  0  0  0  0  0
    1.8156   17.0490  -28.5426 H   0  0  0  0  0  0  0  0  0  0  0  0
    0.5944   18.5654  -29.9171 H   0  0  0  0  0  0  0  0  0  0  0  0
   -0.4908   20.6255  -30.7956 H   0  0  0  0  0  0  0  0  0  0  0  0
   -3.2855   22.3535  -28.8610 H   0  0  0  0  0  0  0  0  0  0  0  0
   -1.0194   23.3291  -28.1855 H   0  0  0  0  0  0  0  0  0  0  0  0
   -0.6328   23.4038  -29.9625 H   0  0  0  0  0  0  0  0  0  0  0  0
   -2.9161   26.8592  -26.5206 H   0  0  0  0  0  0  0  0  0  0  0  0
   -2.2197   26.7679  -24.1284 H   0  0  0  0  0  0  0  0  0  0  0  0
   -0.0257   25.7558  -23.5056 H   0  0  0  0  0  0  0  0  0  0  0  0
    1.4919   24.8704  -25.2736 H   0  0  0  0  0  0  0  0  0  0  0  0
    2.6586   24.7006  -26.7281 H   0  0  0  0  0  0  0  0  0  0  0  0
    2.6991   23.7906  -28.2763 H   0  0  0  0  0  0  0  0  0  0  0  0
    2.9197   25.5733  -28.2763 H   0  0  0  0  0  0  0  0  0  0  0  0
   -2.7550   23.1720  -31.4010 H   0  0  0  0  0  0  0  0  0  0  0  0
   -4.6830   22.6393  -32.7368 H   0  0  0  0  0  0  0  0  0  0  0  0
   -3.8173   21.2881  -33.5581 H   0  0  0  0  0  0  0  0  0  0  0  0
   -4.7263   18.9328  -33.3464 H   0  0  0  0  0  0  0  0  0  0  0  0
   -8.9949   18.6395  -32.7064 H   0  0  0  0  0  0  0  0  0  0  0  0
   -6.9783   22.4218  -32.1063 H   0  0  0  0  0  0  0  0  0  0  0  0
   -2.9613   20.8272  -27.2427 H   0  0  0  0  0  0  0  0  0  0  0  0
   -1.8628   18.7804  -26.3639 H   0  0  0  0  0  0  0  0  0  0  0  0
  1  2  1  0
  2  3  1  0
  3  4  1  0
  4  5  1  0
  5  6  1  0
  6  7  2  0
  7  8  1  0
  8  9  2  0
  9 10  1  0
 10 11  1  0
 11 12  1  0
 12 13  2  0
 12 14  1  0
 14 15  1  0
 15 16  2  0
 16 17  1  0
 17 18  2  0
 18 19  1  0
 19 20  2  0
 20 21  1  0
 21 22  1  0
 10 23  1  0
 23 24  1  0
 24 25  2  0
 24 26  1  0
 26 27  1  0
 27 28  2  0
 28 29  1  0
 29 30  1  0
 29 31  2  0
 31 32  1  0
 32 33  1  0
 32 34  2  0
  9 35  1  0
 35 36  2  0
 36  6  1  0
 20 15  1  0
 34 27  1  0
  1 37  1  0
  1 38  1  0
  1 39  1  0
  2 40  1  0
  2 41  1  0
  3 42  1  0
  3 43  1  0
  4 44  1  0
  4 45  1  0
  7 46  1  0
  8 47  1  0
 10 48  1  1
 11 49  1  0
 11 50  1  0
 16 51  1  0
 17 52  1  0
 18 53  1  0
 19 54  1  0
 22 55  1  0
 22 56  1  0
 22 57  1  0
 23 58  1  0
 26 59  1  0
 26 60  1  0
 28 61  1  0
 31 62  1  0
 34 63  1  0
 35 64  1  0
 36 65  1  0
M  CHG  1  14  -1
M  END
>  <UniqueID>  (12) 
11

>  <SMILES>  (12) 
CCCCOc1ccc([C@@H](CC(=O)[N-]c2ccccc2OC)NC(=O)Cc2cc(Cl)cc(Cl)c2)cc1

>  <Energy>  (12) 
60.77688653027041

>  <Genealogy>  (12) 
CCCCOc1ccc(C(CC(=O)[N-]c2ccccc2OC)NC(=O)Cc2cc(Cl)cc(Cl)c2)cc1 (protonated)
CCCCOc1ccc([C@@H](CC(=O)[N-]c2ccccc2OC)NC(=O)Cc2cc(Cl)cc(Cl)c2)cc1 (chirality)
CCCCOc1ccc([C@@H](CC(=O)[N-]c2ccccc2OC)NC(=O)Cc2cc(Cl)cc(Cl)c2)cc1 (3D coordinates assigned)
CCCCOc1ccc([C@@H](CC(=O)[N-]c2ccccc2OC)NC(=O)Cc2cc(Cl)cc(Cl)c2)cc1 (optimized conformer: 60.77688653027041 kcal/mol)

>  <smiles>  (12) 
CCCCOc1ccc(C(CC(=O)Nc2ccccc2OC)NC(=O)Cc2cc(Cl)cc(Cl)c2)cc1

>  <score_type>  (12) 
oracle

>  <origin>  (12) 
adgpu

>  <m_score__min__energy>  (12) 
-10.800000000000001

>  <m_primary>  (12) 
energy

$$$$
12:0
     RDKit          3D

 49 51  0  0  0  0  0  0  0  0999 V2000
   -0.2560   28.2580  -27.2400 N   0  0  0  0  0  0  0  0  0  0  0  0
   -0.2280   27.3030  -26.1710 C   0  0  0  0  0  0  0  0  0  0  0  0
    0.4390   27.6380  -24.9800 C   0  0  0  0  0  0  0  0  0  0  0  0
    0.4440   26.7590  -23.8970 C   0  0  0  0  0  0  0  0  0  0  0  0
   -0.2170   25.5340  -23.9890 C   0  0  0  0  0  0  0  0  0  0  0  0
   -0.8780   25.1800  -25.1670 C   0  0  0  0  0  0  0  0  0  0  0  0
   -0.8880   26.0520  -26.2710 C   0  0  0  0  0  0  0  0  0  0  0  0
   -1.5470   25.6160  -27.5210 C   0  0  0  0  0  0  0  0  0  0  0  0
   -1.5450   26.3860  -28.5200 O   0  0  0  0  0  0  0  0  0  0  0  0
   -2.1230   24.3020  -27.6190 N   0  0  0  0  0  0  0  0  0  0  0  0
   -2.9140   23.8520  -28.7330 C   0  0  0  0  0  0  0  0  0  0  0  0
   -2.4140   22.8380  -29.5640 C   0  0  0  0  0  0  0  0  0  0  0  0
   -3.1730   22.3640  -30.6370 C   0  0  0  0  0  0  0  0  0  0  0  0
   -4.4490   22.8880  -30.8850 C   0  0  0  0  0  0  0  0  0  0  0  0
   -5.3970   22.2780  -32.2370 S   0  0  0  0  0  0  0  0  0  0  0  0
   -6.2950   23.3790  -32.7260 O   0  0  0  0  0  0  0  0  0  0  0  0
   -4.4850   21.8520  -33.3550 O   0  0  0  0  0  0  0  0  0  0  0  0
   -6.3490   20.9130  -31.7090 N   0  0  0  0  0  0  0  0  0  0  0  0
   -5.7340   19.6520  -32.1770 C   0  0  0  0  0  0  0  0  0  0  0  0
   -6.4850   18.4070  -31.6410 C   0  0  0  0  0  0  0  0  0  0  0  0
   -7.8480   18.1540  -32.3180 C   0  0  0  0  0  0  0  0  0  0  0  0
   -9.0360   18.8940  -31.6630 C   0  0  0  0  0  0  0  0  0  0  0  0
   -8.7780   20.3660  -31.2870 C   0  0  0  0  0  0  0  0  0  0  0  0
   -7.7410   21.0750  -32.1770 C   0  0  0  0  0  0  0  0  0  0  0  0
   -4.9660   23.8810  -30.0420 C   0  0  0  0  0  0  0  0  0  0  0  0
   -4.2060   24.3570  -28.9680 C   0  0  0  0  0  0  0  0  0  0  0  0
    0.5910   28.7980  -27.5230 H   0  0  0  0  0  0  0  0  0  0  0  0
   -1.1200   28.3830  -27.8150 H   0  0  0  0  0  0  0  0  0  0  0  0
    0.9620   28.6025  -24.9013 H   0  0  0  0  0  0  0  0  0  0  0  0
    0.9694   27.0319  -22.9699 H   0  0  0  0  0  0  0  0  0  0  0  0
   -0.2175   24.8451  -23.1314 H   0  0  0  0  0  0  0  0  0  0  0  0
   -1.3951   24.2113  -25.2323 H   0  0  0  0  0  0  0  0  0  0  0  0
   -1.9210   23.6120  -26.8620 H   0  0  0  0  0  0  0  0  0  0  0  0
   -1.4180   22.4135  -29.3694 H   0  0  0  0  0  0  0  0  0  0  0  0
   -2.7676   21.5767  -31.2895 H   0  0  0  0  0  0  0  0  0  0  0  0
   -5.7547   19.6333  -33.2766 H   0  0  0  0  0  0  0  0  0  0  0  0
   -4.7019   19.6159  -31.7982 H   0  0  0  0  0  0  0  0  0  0  0  0
   -5.8495   17.5239  -31.8031 H   0  0  0  0  0  0  0  0  0  0  0  0
   -6.6893   18.5936  -30.5764 H   0  0  0  0  0  0  0  0  0  0  0  0
   -7.7765   18.4792  -33.3664 H   0  0  0  0  0  0  0  0  0  0  0  0
   -8.0539   17.0784  -32.2144 H   0  0  0  0  0  0  0  0  0  0  0  0
   -9.8808   18.8676  -32.3670 H   0  0  0  0  0  0  0  0  0  0  0  0
   -9.2305   18.3710  -30.7150 H   0  0  0  0  0  0  0  0  0  0  0  0
   -9.7293   20.9130  -31.3638 H   0  0  0  0  0  0  0  0  0  0  0  0
   -8.3676   20.3631  -30.2664 H   0  0  0  0  0  0  0  0  0  0  0  0
   -7.8160   20.6627  -33.1940 H   0  0  0  0  0  0  0  0  0  0  0  0
   -7.9691   22.1506  -32.1432 H   0  0  0  0  0  0  0  0  0  0  0  0
   -5.9717   24.2872  -30.2251 H   0  0  0  0  0  0  0  0  0  0  0  0
   -4.6207   25.1298  -28.3041 H   0  0  0  0  0  0  0  0  0  0  0  0
  1  2  1  0
  2  3  2  0
  3  4  1  0
  4  5  2  0
  5  6  1  0
  6  7  2  0
  7  8  1  0
  8  9  2  0
  8 10  1  0
 10 11  1  0
 11 12  2  0
 12 13  1  0
 13 14  2  0
 14 15  1  0
 15 16  2  0
 15 17  2  0
 15 18  1  0
 18 19  1  0
 19 20  1  0
 20 21  1  0
 21 22  1  0
 22 23  1  0
 23 24  1  0
 14 25  1  0
 25 26  2  0
  7  2  1  0
 26 11  1  0
 24 18  1  0
  1 27  1  0
  1 28  1  0
  3 29  1  0
  4 30  1  0
  5 31  1  0
  6 32  1  0
 10 33  1  0
 12 34  1  0
 13 35  1  0
 19 36  1  0
 19 37  1  0
 20 38  1  0
 20 39  1  0
 21 40  1  0
 21 41  1  0
 22 42  1  0
 22 43  1  0
 23 44  1  0
 23 45  1  0
 24 46  1  0
 24 47  1  0
 25 48  1  0
 26 49  1  0
M  END
>  <UniqueID>  (13) 
12

>  <SMILES>  (13) 
Nc1ccccc1C(=O)Nc1ccc(S(=O)(=O)N2CCCCCC2)cc1

>  <Energy>  (13) 
66.32119472656387

>  <Genealogy>  (13) 
Nc1ccccc1C(=O)Nc1ccc(S(=O)(=O)N2CCCCCC2)cc1 (3D coordinates assigned)
Nc1ccccc1C(=O)Nc1ccc(S(=O)(=O)N2CCCCCC2)cc1 (nonaromatic ring conformer: 66.32119472656387 kcal/mol)

>  <smiles>  (13) 
Nc1ccccc1C(=O)Nc1ccc(S(=O)(=O)N2CCCCCC2)cc1

>  <score_type>  (13) 
oracle

>  <origin>  (13) 
adgpu

>  <m_score__min__energy>  (13) 
-6.5599999999999996

>  <m_primary>  (13) 
energy

$$$$
13:0
     RDKit          3D

 49 51  0  0  0  0  0  0  0  0999 V2000
   -4.2620   14.2650  -32.4980 C   0  0  0  0  0  0  0  0  0  0  0  0
   -4.5680   15.0180  -33.6670 O   0  0  0  0  0  0  0  0  0  0  0  0
   -5.1780   16.2820  -33.6580 C   0  0  0  0  0  0  0  0  0  0  0  0
   -4.5820   17.4090  -34.2500 C   0  0  0  0  0  0  0  0  0  0  0  0
   -5.2290   18.6450  -34.2160 C   0  0  0  0  0  0  0  0  0  0  0  0
   -6.4870   18.7780  -33.6060 C   0  0  0  0  0  0  0  0  0  0  0  0
   -7.1390   20.0580  -33.5450 N   0  0  0  0  0  0  0  0  0  0  0  0
   -6.6570   21.1780  -32.7810 C   0  0  0  0  0  0  0  0  0  0  0  0
   -7.5710   22.1150  -32.2770 C   0  0  0  0  0  0  0  0  0  0  0  0
   -7.1230   23.2230  -31.5520 C   0  0  0  0  0  0  0  0  0  0  0  0
   -5.7540   23.4140  -31.3310 C   0  0  0  0  0  0  0  0  0  0  0  0
   -5.2020   24.8300  -30.4400 S   0  0  0  0  0  0  0  0  0  0  0  0
   -5.7480   26.0650  -31.0990 O   0  0  0  0  0  0  0  0  0  0  0  0
   -5.7050   24.7830  -29.0230 O   0  0  0  0  0  0  0  0  0  0  0  0
   -3.4670   24.9010  -30.4450 N   0  0  0  0  0  0  0  0  0  0  0  0
   -2.9550   24.6040  -29.1110 C   0  0  0  0  0  0  0  0  0  0  0  0
   -2.5990   23.1480  -29.0330 C   0  0  0  0  0  0  0  0  0  0  0  0
   -1.8790   22.5370  -30.0740 C   0  0  0  0  0  0  0  0  0  0  0  0
   -1.5800   21.1730  -30.0150 C   0  0  0  0  0  0  0  0  0  0  0  0
   -2.0060   20.4070  -28.9260 C   0  0  0  0  0  0  0  0  0  0  0  0
   -2.7360   21.0040  -27.8950 C   0  0  0  0  0  0  0  0  0  0  0  0
   -3.0380   22.3680  -27.9490 C   0  0  0  0  0  0  0  0  0  0  0  0
   -4.8340   22.4960  -31.8550 C   0  0  0  0  0  0  0  0  0  0  0  0
   -5.2800   21.3880  -32.5790 C   0  0  0  0  0  0  0  0  0  0  0  0
   -7.0830   17.6590  -32.9950 C   0  0  0  0  0  0  0  0  0  0  0  0
   -8.3320   17.8160  -32.3740 O   0  0  0  0  0  0  0  0  0  0  0  0
   -8.5840   18.6880  -31.2760 C   0  0  0  0  0  0  0  0  0  0  0  0
   -6.4210   16.4160  -33.0330 C   0  0  0  0  0  0  0  0  0  0  0  0
   -4.5038   14.8599  -31.6049 H   0  0  0  0  0  0  0  0  0  0  0  0
   -4.8550   13.3385  -32.4930 H   0  0  0  0  0  0  0  0  0  0  0  0
   -3.1908   14.0148  -32.4930 H   0  0  0  0  0  0  0  0  0  0  0  0
   -3.6024   17.3164  -34.7417 H   0  0  0  0  0  0  0  0  0  0  0  0
   -4.7490   19.5237  -34.6714 H   0  0  0  0  0  0  0  0  0  0  0  0
   -8.0270   20.1830  -34.0850 H   0  0  0  0  0  0  0  0  0  0  0  0
   -8.6479   21.9769  -32.4535 H   0  0  0  0  0  0  0  0  0  0  0  0
   -7.8488   23.9473  -31.1538 H   0  0  0  0  0  0  0  0  0  0  0  0
   -2.0597   25.2128  -28.9164 H   0  0  0  0  0  0  0  0  0  0  0  0
   -3.7233   24.8378  -28.3593 H   0  0  0  0  0  0  0  0  0  0  0  0
   -1.5500   23.1339  -30.9374 H   0  0  0  0  0  0  0  0  0  0  0  0
   -1.0080   20.7011  -30.8275 H   0  0  0  0  0  0  0  0  0  0  0  0
   -1.7665   19.3343  -28.8808 H   0  0  0  0  0  0  0  0  0  0  0  0
   -3.0735   20.4001  -27.0398 H   0  0  0  0  0  0  0  0  0  0  0  0
   -3.6213   22.8325  -27.1403 H   0  0  0  0  0  0  0  0  0  0  0  0
   -3.7564   22.6486  -31.6955 H   0  0  0  0  0  0  0  0  0  0  0  0
   -4.5513   20.6758  -32.9935 H   0  0  0  0  0  0  0  0  0  0  0  0
   -8.4269   18.1445  -30.3326 H   0  0  0  0  0  0  0  0  0  0  0  0
   -7.8970   19.5457  -31.3238 H   0  0  0  0  0  0  0  0  0  0  0  0
   -9.6227   19.0470  -31.3238 H   0  0  0  0  0  0  0  0  0  0  0  0
   -6.8892   15.5381  -32.5639 H   0  0  0  0  0  0  0  0  0  0  0  0
  1  2  1  0
  2  3  1  0
  3  4  2  0
  4  5  1  0
  5  6  2  0
  6  7  1  0
  7  8  1  0
  8  9  2  0
  9 10  1  0
 10 11  2  0
 11 12  1  0
 12 13  2  0
 12 14  2  0
 12 15  1  0
 15 16  1  0
 16 17  1  0
 17 18  2  0
 18 19  1  0
 19 20  2  0
 20 21  1  0
 21 22  2  0
 11 23  1  0
 23 24  2  0
  6 25  1  0
 25 26  1  0
 26 27  1  0
 25 28  2  0
 28  3  1  0
 24  8  1  0
 22 17  1  0
  1 29  1  0
  1 30  1  0
  1 31  1  0
  4 32  1  0
  5 33  1  0
  7 34  1  0
  9 35  1  0
 10 36  1  0
 16 37  1  0
 16 38  1  0
 18 39  1  0
 19 40  1  0
 20 41  1  0
 21 42  1  0
 22 43  1  0
 23 44  1  0
 24 45  1  0
 27 46  1  0
 27 47  1  0
 27 48  1  0
 28 49  1  0
M  CHG  1  15  -1
M  END
>  <UniqueID>  (14) 
13

>  <SMILES>  (14) 
COc1ccc(Nc2ccc(S(=O)(=O)[N-]Cc3ccccc3)cc2)c(OC)c1

>  <Energy>  (14) 
53.54357901161892

>  <Genealogy>  (14) 
COc1ccc(Nc2ccc(S(=O)(=O)[N-]Cc3ccccc3)cc2)c(OC)c1 (protonated)
COc1ccc(Nc2ccc(S(=O)(=O)[N-]Cc3ccccc3)cc2)c(OC)c1 (3D coordinates assigned)
COc1ccc(Nc2ccc(S(=O)(=O)[N-]Cc3ccccc3)cc2)c(OC)c1 (optimized conformer: 53.54357901161892 kcal/mol)

>  <smiles>  (14) 
COc1ccc(Nc2ccc(S(=O)(=O)NCc3ccccc3)cc2)c(OC)c1

>  <score_type>  (14) 
oracle

>  <origin>  (14) 
adgpu

>  <m_score__min__energy>  (14) 
-10.67

>  <m_primary>  (14) 
energy

$$$$
14:0
     RDKit          3D

 52 55  0  0  0  0  0  0  0  0999 V2000
   -9.0740   19.1160  -30.6550 H   0  0  0  0  0  0  0  0  0  0  0  0
   -8.3710   19.6180  -31.3360 C   0  0  0  0  0  0  0  0  0  0  0  0
   -8.2740   21.0120  -31.3340 C   0  0  0  0  0  0  0  0  0  0  0  0
   -8.9034   21.6038  -30.6531 H   0  0  0  0  0  0  0  0  0  0  0  0
   -7.3760   21.6610  -32.1980 C   0  0  0  0  0  0  0  0  0  0  0  0
   -7.2930   23.1660  -32.2240 C   0  0  0  0  0  0  0  0  0  0  0  0
   -8.2064   23.5844  -31.7760 H   0  0  0  0  0  0  0  0  0  0  0  0
   -7.1915   23.4933  -33.2693 H   0  0  0  0  0  0  0  0  0  0  0  0
   -6.0950   23.6550  -31.4490 C   0  0  0  0  0  0  0  0  0  0  0  0
   -6.1060   24.9190  -30.8380 C   0  0  0  0  0  0  0  0  0  0  0  0
   -7.0054   25.5492  -30.9009 H   0  0  0  0  0  0  0  0  0  0  0  0
   -4.9800   25.3810  -30.1500 C   0  0  0  0  0  0  0  0  0  0  0  0
   -4.9904   26.3806  -29.6910 H   0  0  0  0  0  0  0  0  0  0  0  0
   -3.8400   24.5770  -30.0430 C   0  0  0  0  0  0  0  0  0  0  0  0
   -2.7440   25.0400  -29.3860 N   0  0  0  0  0  0  0  0  0  0  0  0
   -1.6160   24.2930  -29.2590 C   0  0  0  0  0  0  0  0  0  0  0  0
   -0.6200   24.7650  -28.6510 O   0  0  0  0  0  0  0  0  0  0  0  0
   -1.5640   23.0030  -29.7920 C   0  0  0  0  0  0  0  0  0  0  0  0
   -0.6480   22.4019  -29.6940 H   0  0  0  0  0  0  0  0  0  0  0  0
   -2.6810   22.4780  -30.4510 C   0  0  0  0  0  0  0  0  0  0  0  0
   -2.6450   21.1140  -30.9020 N   0  0  0  0  0  0  0  0  0  0  0  0
   -3.1310   20.3920  -30.3230 H   0  0  0  0  0  0  0  0  0  0  0  0
   -2.0840   20.7180  -32.1680 C   0  0  0  0  0  0  0  0  0  0  0  0
   -2.4580   19.4990  -32.7390 C   0  0  0  0  0  0  0  0  0  0  0  0
   -3.1924   18.8553  -32.2327 H   0  0  0  0  0  0  0  0  0  0  0  0
   -1.8950   19.0980  -33.9590 C   0  0  0  0  0  0  0  0  0  0  0  0
   -2.2970   17.7870  -34.5780 C   0  0  0  0  0  0  0  0  0  0  0  0
   -2.4900   17.9379  -35.6504 H   0  0  0  0  0  0  0  0  0  0  0  0
   -3.2045   17.4215  -34.0753 H   0  0  0  0  0  0  0  0  0  0  0  0
   -1.1910   16.7510  -34.4090 C   0  0  0  0  0  0  0  0  0  0  0  0
   -1.0089   16.5805  -33.3377 H   0  0  0  0  0  0  0  0  0  0  0  0
   -1.4971   15.8071  -34.8837 H   0  0  0  0  0  0  0  0  0  0  0  0
   -0.2691   17.1181  -34.8837 H   0  0  0  0  0  0  0  0  0  0  0  0
   -1.0210   19.9210  -34.6080 N   0  0  0  0  0  0  0  0  0  0  0  0
   -0.6400   19.6030  -35.5270 H   0  0  0  0  0  0  0  0  0  0  0  0
   -0.6460   21.1290  -34.0800 C   0  0  0  0  0  0  0  0  0  0  0  0
    0.1790   21.9260  -34.7000 N   0  0  0  0  0  0  0  0  0  0  0  0
    0.7960   21.6800  -35.9990 C   0  0  0  0  0  0  0  0  0  0  0  0
    1.8088   21.2762  -35.8533 H   0  0  0  0  0  0  0  0  0  0  0  0
    0.1896   20.9549  -36.5615 H   0  0  0  0  0  0  0  0  0  0  0  0
    0.8548   22.6234  -36.5615 H   0  0  0  0  0  0  0  0  0  0  0  0
   -1.1690   21.5360  -32.8490 C   0  0  0  0  0  0  0  0  0  0  0  0
   -0.8630   22.4987  -32.4135 H   0  0  0  0  0  0  0  0  0  0  0  0
   -3.8260   23.2870  -30.6220 C   0  0  0  0  0  0  0  0  0  0  0  0
   -4.9430   22.8580  -31.3620 C   0  0  0  0  0  0  0  0  0  0  0  0
   -4.9131   21.8871  -31.8782 H   0  0  0  0  0  0  0  0  0  0  0  0
   -6.5940   20.8960  -33.0790 C   0  0  0  0  0  0  0  0  0  0  0  0
   -5.9032   21.3965  -33.7735 H   0  0  0  0  0  0  0  0  0  0  0  0
   -6.6900   19.4990  -33.0770 C   0  0  0  0  0  0  0  0  0  0  0  0
   -5.6960   18.5590  -34.1760 Cl  0  0  0  0  0  0  0  0  0  0  0  0
   -7.5780   18.8610  -32.2000 C   0  0  0  0  0  0  0  0  0  0  0  0
   -7.6720   17.5080  -32.1840 F   0  0  0  0  0  0  0  0  0  0  0  0
  1  2  1  0
  2  3  2  0
  3  4  1  0
  3  5  1  0
  5  6  1  0
  6  7  1  0
  6  8  1  0
  6  9  1  0
  9 10  2  0
 10 11  1  0
 10 12  1  0
 12 13  1  0
 12 14  2  0
 14 15  1  0
 15 16  1  0
 16 17  2  0
 16 18  1  0
 18 19  1  0
 18 20  2  0
 20 21  1  0
 21 22  1  0
 21 23  1  0
 23 24  1  0
 24 25  1  0
 24 26  2  0
 26 27  1  0
 27 28  1  0
 27 29  1  0
 27 30  1  0
 30 31  1  0
 30 32  1  0
 30 33  1  0
 26 34  1  0
 34 35  1  0
 34 36  1  0
 36 37  2  0
 37 38  1  0
 38 39  1  0
 38 40  1  0
 38 41  1  0
 36 42  1  0
 42 43  1  0
 20 44  1  0
 44 45  2  0
 45 46  1  0
  5 47  2  0
 47 48  1  0
 47 49  1  0
 49 50  1  0
 49 51  2  0
 51 52  1  0
 51  2  1  0
 45  9  1  0
 44 14  1  0
 42 23  2  0
M  CHG  1  15  -1
M  END
>  <UniqueID>  (15) 
14

>  <SMILES>  (15) 
CCc1cc(Nc2cc(=O)[n-]c3ccc(Cc4ccc(F)c(Cl)c4)cc23)c/c(=N/C)[nH]1

>  <Energy>  (15) 
58.96378683060496

>  <Genealogy>  (15) 
CCc1cc(Nc2cc(=O)[n-]c3ccc(Cc4ccc(F)c(Cl)c4)cc23)cc(=NC)[nH]1 (protonated)
CCc1cc(Nc2cc(=O)[n-]c3ccc(Cc4ccc(F)c(Cl)c4)cc23)c/c(=N/C)[nH]1 (cis-trans isomerization)
CCc1cc(Nc2cc(=O)[n-]c3ccc(Cc4ccc(F)c(Cl)c4)cc23)c/c(=N/C)[nH]1 (3D coordinates assigned)
CCc1cc(Nc2cc(=O)[n-]c3ccc(Cc4ccc(F)c(Cl)c4)cc23)c/c(=N/C)[nH]1 (optimized conformer: 58.96378683060496 kcal/mol)

>  <smiles>  (15) 
CCc1cc(Nc2cc(=O)[nH]c3ccc(Cc4ccc(F)c(Cl)c4)cc23)cc(=NC)[nH]1

>  <score_type>  (15) 
oracle

>  <origin>  (15) 
adgpu

>  <m_score__min__energy>  (15) 
-12.1

>  <m_primary>  (15) 
energy

$$$$
15:0
     RDKit          3D

 42 44  0  0  0  0  0  0  0  0999 V2000
    0.4570   26.7970  -23.4780 C   0  0  0  0  0  0  0  0  0  0  0  0
   -0.8180   26.9830  -24.0830 O   0  0  0  0  0  0  0  0  0  0  0  0
   -1.1590   26.5330  -25.3670 C   0  0  0  0  0  0  0  0  0  0  0  0
   -2.0750   25.4870  -25.5820 C   0  0  0  0  0  0  0  0  0  0  0  0
   -2.3720   25.0650  -26.8810 C   0  0  0  0  0  0  0  0  0  0  0  0
   -1.7560   25.6790  -27.9870 C   0  0  0  0  0  0  0  0  0  0  0  0
   -2.0200   25.2640  -29.3340 N   0  0  0  0  0  0  0  0  0  0  0  0
   -3.5130   24.5780  -29.8860 S   0  0  0  0  0  0  0  0  0  0  0  0
   -4.1770   25.5260  -30.8440 O   0  0  0  0  0  0  0  0  0  0  0  0
   -4.4220   24.3550  -28.7100 O   0  0  0  0  0  0  0  0  0  0  0  0
   -3.1790   23.0290  -30.6510 C   0  0  0  0  0  0  0  0  0  0  0  0
   -2.2240   22.1540  -30.1160 C   0  0  0  0  0  0  0  0  0  0  0  0
   -2.0410   20.8880  -30.6820 C   0  0  0  0  0  0  0  0  0  0  0  0
   -2.8130   20.4900  -31.7760 C   0  0  0  0  0  0  0  0  0  0  0  0
   -3.7650   21.3640  -32.3240 C   0  0  0  0  0  0  0  0  0  0  0  0
   -4.5900   20.9640  -33.4260 N   0  0  0  0  0  0  0  0  0  0  0  0
   -5.8130   19.7510  -33.2390 S   0  0  0  0  0  0  0  0  0  0  0  0
   -6.1140   19.1310  -34.5740 O   0  0  0  0  0  0  0  0  0  0  0  0
   -5.3260   18.6840  -32.2990 O   0  0  0  0  0  0  0  0  0  0  0  0
   -7.2720   20.4990  -32.6160 C   0  0  0  0  0  0  0  0  0  0  0  0
   -8.5270   19.9140  -32.5560 C   0  0  0  0  0  0  0  0  0  0  0  0
   -9.4850   20.7440  -31.9630 C   0  0  0  0  0  0  0  0  0  0  0  0
   -8.9830   21.9750  -31.5550 C   0  0  0  0  0  0  0  0  0  0  0  0
   -7.3430   22.0300  -31.9270 S   0  0  0  0  0  0  0  0  0  0  0  0
   -3.9320   22.6380  -31.7640 C   0  0  0  0  0  0  0  0  0  0  0  0
   -0.8470   26.7200  -27.7700 C   0  0  0  0  0  0  0  0  0  0  0  0
   -0.5580   27.1500  -26.4700 C   0  0  0  0  0  0  0  0  0  0  0  0
    0.3493   26.8127  -22.3834 H   0  0  0  0  0  0  0  0  0  0  0  0
    0.8739   25.8285  -23.7915 H   0  0  0  0  0  0  0  0  0  0  0  0
    1.1332   27.6060  -23.7915 H   0  0  0  0  0  0  0  0  0  0  0  0
   -2.5598   24.9989  -24.7237 H   0  0  0  0  0  0  0  0  0  0  0  0
   -3.0915   24.2482  -27.0395 H   0  0  0  0  0  0  0  0  0  0  0  0
   -1.6184   22.4627  -29.2511 H   0  0  0  0  0  0  0  0  0  0  0  0
   -1.2873   20.2041  -30.2646 H   0  0  0  0  0  0  0  0  0  0  0  0
   -2.6745   19.4885  -32.2094 H   0  0  0  0  0  0  0  0  0  0  0  0
   -4.6660   21.5950  -34.2550 H   0  0  0  0  0  0  0  0  0  0  0  0
   -8.7467   18.9047  -32.9342 H   0  0  0  0  0  0  0  0  0  0  0  0
  -10.5369   20.4501  -31.8319 H   0  0  0  0  0  0  0  0  0  0  0  0
   -9.5602   22.7767  -31.0712 H   0  0  0  0  0  0  0  0  0  0  0  0
   -4.6604   23.3358  -32.2026 H   0  0  0  0  0  0  0  0  0  0  0  0
   -0.3560   27.2039  -28.6272 H   0  0  0  0  0  0  0  0  0  0  0  0
    0.1472   27.9796  -26.3139 H   0  0  0  0  0  0  0  0  0  0  0  0
  1  2  1  0
  2  3  1  0
  3  4  2  0
  4  5  1  0
  5  6  2  0
  6  7  1  0
  7  8  1  0
  8  9  2  0
  8 10  2  0
  8 11  1  0
 11 12  2  0
 12 13  1  0
 13 14  2  0
 14 15  1  0
 15 16  1  0
 16 17  1  0
 17 18  2  0
 17 19  2  0
 17 20  1  0
 20 21  2  0
 21 22  1  0
 22 23  2  0
 23 24  1  0
 15 25  2  0
  6 26  1  0
 26 27  2  0
 27  3  1  0
 25 11  1  0
 24 20  1  0
  1 28  1  0
  1 29  1  0
  1 30  1  0
  4 31  1  0
  5 32  1  0
 12 33  1  0
 13 34  1  0
 14 35  1  0
 16 36  1  0
 21 37  1  0
 22 38  1  0
 23 39  1  0
 25 40  1  0
 26 41  1  0
 27 42  1  0
M  CHG  1   7  -1
M  END
>  <UniqueID>  (16) 
15

>  <SMILES>  (16) 
COc1ccc([N-]S(=O)(=O)c2cccc(NS(=O)(=O)c3cccs3)c2)cc1

>  <Energy>  (16) 
73.89574603079335

>  <Genealogy>  (16) 
COc1ccc([N-]S(=O)(=O)c2cccc(NS(=O)(=O)c3cccs3)c2)cc1 (protonated)
COc1ccc([N-]S(=O)(=O)c2cccc(NS(=O)(=O)c3cccs3)c2)cc1 (3D coordinates assigned)
COc1ccc([N-]S(=O)(=O)c2cccc(NS(=O)(=O)c3cccs3)c2)cc1 (optimized conformer: 73.89574603079335 kcal/mol)

>  <smiles>  (16) 
COc1ccc(NS(=O)(=O)c2cccc(NS(=O)(=O)c3cccs3)c2)cc1

>  <score_type>  (16) 
oracle

>  <origin>  (16) 
adgpu

>  <m_score__min__energy>  (16) 
-10.880000000000001

>  <m_primary>  (16) 
energy

$$$$
16:0
     RDKit          3D

 47 49  0  0  0  0  0  0  0  0999 V2000
   -7.0160   16.3100  -33.5100 N   0  0  0  0  0  0  0  0  0  0  0  0
   -6.4710   17.4380  -32.3180 S   0  0  0  0  0  0  0  0  0  0  0  0
   -6.0560   16.7030  -31.0740 O   0  0  0  0  0  0  0  0  0  0  0  0
   -7.6050   18.3680  -31.9830 O   0  0  0  0  0  0  0  0  0  0  0  0
   -5.1000   18.3490  -32.9450 C   0  0  0  0  0  0  0  0  0  0  0  0
   -5.1310   19.7490  -32.9240 C   0  0  0  0  0  0  0  0  0  0  0  0
   -4.0500   20.4830  -33.4210 C   0  0  0  0  0  0  0  0  0  0  0  0
   -2.9350   19.8230  -33.9420 C   0  0  0  0  0  0  0  0  0  0  0  0
   -2.8900   18.4240  -33.9750 C   0  0  0  0  0  0  0  0  0  0  0  0
   -1.7280   17.7880  -34.5250 N   0  0  0  0  0  0  0  0  0  0  0  0
   -0.2060   17.6110  -33.7150 S   0  0  0  0  0  0  0  0  0  0  0  0
    0.8950   18.1730  -34.5720 O   0  0  0  0  0  0  0  0  0  0  0  0
    0.0420   16.1520  -33.4470 O   0  0  0  0  0  0  0  0  0  0  0  0
   -0.2460   18.4860  -32.1880 C   0  0  0  0  0  0  0  0  0  0  0  0
   -0.6050   19.8380  -32.1580 C   0  0  0  0  0  0  0  0  0  0  0  0
   -0.6280   20.5320  -30.9470 C   0  0  0  0  0  0  0  0  0  0  0  0
   -0.3020   19.8800  -29.7440 C   0  0  0  0  0  0  0  0  0  0  0  0
   -0.3020   20.5850  -28.4920 N   0  0  0  0  0  0  0  0  0  0  0  0
   -1.4130   21.2590  -27.8840 C   0  0  0  0  0  0  0  0  0  0  0  0
   -1.8090   20.9190  -26.7360 O   0  0  0  0  0  0  0  0  0  0  0  0
   -2.0610   22.3940  -28.5820 C   0  0  0  0  0  0  0  0  0  0  0  0
   -3.1990   22.1870  -29.3840 C   0  0  0  0  0  0  0  0  0  0  0  0
   -3.8070   23.2590  -30.0450 C   0  0  0  0  0  0  0  0  0  0  0  0
   -4.9280   23.0370  -30.8370 O   0  0  0  0  0  0  0  0  0  0  0  0
   -3.2870   24.5520  -29.9110 C   0  0  0  0  0  0  0  0  0  0  0  0
   -3.8890   25.6160  -30.5710 O   0  0  0  0  0  0  0  0  0  0  0  0
   -2.1590   24.7700  -29.1130 C   0  0  0  0  0  0  0  0  0  0  0  0
   -1.6400   26.0520  -28.9740 O   0  0  0  0  0  0  0  0  0  0  0  0
   -1.5490   23.6990  -28.4530 C   0  0  0  0  0  0  0  0  0  0  0  0
    0.0940   18.5280  -29.7780 C   0  0  0  0  0  0  0  0  0  0  0  0
    0.5530   17.6930  -28.2890 S   0  0  0  0  0  0  0  0  0  0  0  0
   -0.6090   17.9800  -27.0420 N   0  0  0  0  0  0  0  0  0  0  0  0
    0.6320   16.2160  -28.5520 O   0  0  0  0  0  0  0  0  0  0  0  0
    1.8940   18.1940  -27.8310 O   0  0  0  0  0  0  0  0  0  0  0  0
    0.1120   17.8380  -31.0000 C   0  0  0  0  0  0  0  0  0  0  0  0
   -3.9800   17.6870  -33.4740 C   0  0  0  0  0  0  0  0  0  0  0  0
   -7.3530   16.8660  -34.3290 H   0  0  0  0  0  0  0  0  0  0  0  0
   -6.0081   20.2723  -32.5155 H   0  0  0  0  0  0  0  0  0  0  0  0
   -4.0777   21.5825  -33.4017 H   0  0  0  0  0  0  0  0  0  0  0  0
   -2.0864   20.4062  -34.3290 H   0  0  0  0  0  0  0  0  0  0  0  0
   -0.8700   20.3557  -33.0917 H   0  0  0  0  0  0  0  0  0  0  0  0
   -0.9032   21.5969  -30.9334 H   0  0  0  0  0  0  0  0  0  0  0  0
   -3.6135   21.1738  -29.4917 H   0  0  0  0  0  0  0  0  0  0  0  0
   -0.6617   23.8775  -27.8278 H   0  0  0  0  0  0  0  0  0  0  0  0
   -0.9380   18.9660  -27.1480 H   0  0  0  0  0  0  0  0  0  0  0  0
    0.4099   16.7794  -31.0244 H   0  0  0  0  0  0  0  0  0  0  0  0
   -3.9543   16.5875  -33.4970 H   0  0  0  0  0  0  0  0  0  0  0  0
  1  2  1  0
  2  3  2  0
  2  4  2  0
  2  5  1  0
  5  6  2  0
  6  7  1  0
  7  8  2  0
  8  9  1  0
  9 10  1  0
 10 11  1  0
 11 12  2  0
 11 13  2  0
 11 14  1  0
 14 15  2  0
 15 16  1  0
 16 17  2  0
 17 18  1  0
 18 19  1  0
 19 20  2  0
 19 21  1  0
 21 22  2  0
 22 23  1  0
 23 24  1  0
 23 25  2  0
 25 26  1  0
 25 27  1  0
 27 28  1  0
 27 29  2  0
 17 30  1  0
 30 31  1  0
 31 32  1  0
 31 33  2  0
 31 34  2  0
 30 35  2  0
  9 36  2  0
 36  5  1  0
 35 14  1  0
 29 21  1  0
  1 37  1  0
  6 38  1  0
  7 39  1  0
  8 40  1  0
 15 41  1  0
 16 42  1  0
 22 43  1  0
 29 44  1  0
 32 45  1  0
 35 46  1  0
 36 47  1  0
M  CHG  7   1  -1  10  -1  18  -1  24  -1  26  -1  28  -1  32  -1
M  END
>  <UniqueID>  (17) 
16

>  <SMILES>  (17) 
[NH-]S(=O)(=O)c1cccc([N-]S(=O)(=O)c2ccc([N-]C(=O)c3cc([O-])c([O-])c([O-])c3)c(S([NH-])(=O)=O)c2)c1

>  <Energy>  (17) 
59.50363765050986

>  <Genealogy>  (17) 
[NH-]S(=O)(=O)c1cccc([N-]S(=O)(=O)c2ccc([N-]C(=O)c3cc([O-])c([O-])c([O-])c3)c(S([NH-])(=O)=O)c2)c1 (protonated)
[NH-]S(=O)(=O)c1cccc([N-]S(=O)(=O)c2ccc([N-]C(=O)c3cc([O-])c([O-])c([O-])c3)c(S([NH-])(=O)=O)c2)c1 (3D coordinates assigned)
[NH-]S(=O)(=O)c1cccc([N-]S(=O)(=O)c2ccc([N-]C(=O)c3cc([O-])c([O-])c([O-])c3)c(S([NH-])(=O)=O)c2)c1 (optimized conformer: 59.50363765050986 kcal/mol)

>  <smiles>  (17) 
NS(=O)(=O)c1cccc(NS(=O)(=O)c2ccc(NC(=O)c3cc(O)c(O)c(O)c3)c(S(N)(=O)=O)c2)c1

>  <score_type>  (17) 
oracle

>  <origin>  (17) 
adgpu

>  <m_score__min__energy>  (17) 
-14.49

>  <m_primary>  (17) 
energy

$$$$
17:0
     RDKit          3D

 33 35  0  0  0  0  0  0  0  0999 V2000
   -8.8350   19.9420  -33.8910 H   0  0  0  0  0  0  0  0  0  0  0  0
   -8.7860   20.0740  -32.8570 N   0  0  0  0  0  0  0  0  0  0  0  0
   -8.1440   21.2160  -32.2920 C   0  0  0  0  0  0  0  0  0  0  0  0
   -8.8510   22.1270  -31.7820 O   0  0  0  0  0  0  0  0  0  0  0  0
   -6.6660   21.3340  -32.3030 C   0  0  0  0  0  0  0  0  0  0  0  0
   -5.8990   20.6030  -33.2260 C   0  0  0  0  0  0  0  0  0  0  0  0
   -6.3978   19.9379  -33.9463 H   0  0  0  0  0  0  0  0  0  0  0  0
   -4.5080   20.7160  -33.2340 C   0  0  0  0  0  0  0  0  0  0  0  0
   -3.9168   20.1402  -33.9613 H   0  0  0  0  0  0  0  0  0  0  0  0
   -3.8630   21.5550  -32.3250 C   0  0  0  0  0  0  0  0  0  0  0  0
   -2.7661   21.6359  -32.3389 H   0  0  0  0  0  0  0  0  0  0  0  0
   -4.6070   22.2980  -31.3910 C   0  0  0  0  0  0  0  0  0  0  0  0
   -3.9390   23.1960  -30.4150 C   0  0  0  0  0  0  0  0  0  0  0  0
   -3.9640   24.5440  -30.5010 N   0  0  0  0  0  0  0  0  0  0  0  0
   -3.2740   25.0350  -29.4850 N   0  0  0  0  0  0  0  0  0  0  0  0
   -3.1030   26.0550  -29.3450 H   0  0  0  0  0  0  0  0  0  0  0  0
   -2.8080   24.0110  -28.7460 C   0  0  0  0  0  0  0  0  0  0  0  0
   -2.0490   24.1180  -27.6940 N   0  0  0  0  0  0  0  0  0  0  0  0
   -1.6770   25.3400  -27.0380 C   0  0  0  0  0  0  0  0  0  0  0  0
   -2.0180   25.5870  -25.6970 C   0  0  0  0  0  0  0  0  0  0  0  0
   -2.6170   24.8518  -25.1397 H   0  0  0  0  0  0  0  0  0  0  0  0
   -1.5990   26.7630  -25.0690 C   0  0  0  0  0  0  0  0  0  0  0  0
   -1.8834   26.9595  -24.0247 H   0  0  0  0  0  0  0  0  0  0  0  0
   -0.8180   27.6910  -25.7670 C   0  0  0  0  0  0  0  0  0  0  0  0
   -0.2900   29.1660  -24.9780 Cl  0  0  0  0  0  0  0  0  0  0  0  0
   -0.4470   27.4330  -27.0910 C   0  0  0  0  0  0  0  0  0  0  0  0
    0.1748   28.1570  -27.6380 H   0  0  0  0  0  0  0  0  0  0  0  0
   -0.8650   26.2570  -27.7200 C   0  0  0  0  0  0  0  0  0  0  0  0
   -0.5554   26.0500  -28.7550 H   0  0  0  0  0  0  0  0  0  0  0  0
   -3.1950   22.8150  -29.3040 C   0  0  0  0  0  0  0  0  0  0  0  0
   -2.9691   21.7970  -28.9538 H   0  0  0  0  0  0  0  0  0  0  0  0
   -6.0090   22.1790  -31.3880 C   0  0  0  0  0  0  0  0  0  0  0  0
   -6.6003   22.7543  -30.6604 H   0  0  0  0  0  0  0  0  0  0  0  0
  1  2  1  0
  2  3  1  0
  3  4  2  0
  3  5  1  0
  5  6  2  0
  6  7  1  0
  6  8  1  0
  8  9  1  0
  8 10  2  0
 10 11  1  0
 10 12  1  0
 12 13  1  0
 13 14  1  0
 14 15  1  0
 15 16  1  0
 15 17  1  0
 17 18  2  0
 18 19  1  0
 19 20  2  0
 20 21  1  0
 20 22  1  0
 22 23  1  0
 22 24  2  0
 24 25  1  0
 24 26  1  0
 26 27  1  0
 26 28  2  0
 28 29  1  0
 17 30  1  0
 30 31  1  0
 12 32  2  0
 32 33  1  0
 32  5  1  0
 30 13  2  0
 28 19  1  0
M  CHG  2   2  -1  14  -1
M  END
>  <UniqueID>  (18) 
17

>  <SMILES>  (18) 
[NH-]C(=O)c1cccc(-c2c/c(=N/c3ccc(Cl)cc3)[nH][n-]2)c1

>  <Energy>  (18) 
75.44609667548673

>  <Genealogy>  (18) 
[NH-]C(=O)c1cccc(-c2cc(=Nc3ccc(Cl)cc3)[nH][n-]2)c1 (protonated)
[NH-]C(=O)c1cccc(-c2c/c(=N/c3ccc(Cl)cc3)[nH][n-]2)c1 (cis-trans isomerization)
[NH-]C(=O)c1cccc(-c2c/c(=N/c3ccc(Cl)cc3)[nH][n-]2)c1 (3D coordinates assigned)
[NH-]C(=O)c1cccc(-c2c/c(=N/c3ccc(Cl)cc3)[nH][n-]2)c1 (optimized conformer: 75.44609667548673 kcal/mol)

>  <smiles>  (18) 
NC(=O)c1cccc(-c2cc(=Nc3ccc(Cl)cc3)[nH][nH]2)c1

>  <score_type>  (18) 
oracle

>  <origin>  (18) 
adgpu

>  <m_score__min__energy>  (18) 
-9.3000000000000007

>  <m_primary>  (18) 
energy

$$$$
18:0
     RDKit          3D

 45 47  0  0  0  0  0  0  0  0999 V2000
   -0.3820   29.7700  -38.0080 C   0  0  0  0  0  0  0  0  0  0  0  0
   -0.0360   28.3650  -37.5890 C   0  0  0  0  0  0  0  0  0  0  0  0
    0.8820   27.6260  -38.3500 C   0  0  0  0  0  0  0  0  0  0  0  0
    1.2210   26.3210  -37.9890 C   0  0  0  0  0  0  0  0  0  0  0  0
    0.6510   25.7260  -36.8520 C   0  0  0  0  0  0  0  0  0  0  0  0
    0.9980   24.3350  -36.4690 C   0  0  0  0  0  0  0  0  0  0  0  0
    2.1970   23.9510  -36.5480 O   0  0  0  0  0  0  0  0  0  0  0  0
   -0.0200   23.4080  -36.0520 N   0  0  0  0  0  0  0  0  0  0  0  0
    0.2560   22.2160  -35.2950 C   0  0  0  0  0  0  0  0  0  0  0  0
    1.3010   21.3710  -35.6950 C   0  0  0  0  0  0  0  0  0  0  0  0
    1.5720   20.1990  -34.9830 C   0  0  0  0  0  0  0  0  0  0  0  0
    0.8020   19.8620  -33.8680 C   0  0  0  0  0  0  0  0  0  0  0  0
   -0.2450   20.6910  -33.4540 C   0  0  0  0  0  0  0  0  0  0  0  0
   -1.0100   20.3090  -32.3410 O   0  0  0  0  0  0  0  0  0  0  0  0
   -2.1390   20.9880  -31.8580 C   0  0  0  0  0  0  0  0  0  0  0  0
   -3.3910   20.3790  -31.9670 C   0  0  0  0  0  0  0  0  0  0  0  0
   -4.5020   21.0100  -31.5050 N   0  0  0  0  0  0  0  0  0  0  0  0
   -4.4420   22.2340  -30.9190 C   0  0  0  0  0  0  0  0  0  0  0  0
   -3.2060   22.8860  -30.7640 C   0  0  0  0  0  0  0  0  0  0  0  0
   -3.1290   24.2190  -30.1230 C   0  0  0  0  0  0  0  0  0  0  0  0
   -3.9070   25.3080  -30.6180 N   0  0  0  0  0  0  0  0  0  0  0  0
   -2.3770   24.4040  -29.1290 O   0  0  0  0  0  0  0  0  0  0  0  0
   -2.0490   22.2420  -31.2310 C   0  0  0  0  0  0  0  0  0  0  0  0
   -0.5360   21.8540  -34.1910 C   0  0  0  0  0  0  0  0  0  0  0  0
   -0.2780   26.4580  -36.0930 C   0  0  0  0  0  0  0  0  0  0  0  0
   -0.6260   27.7740  -36.4480 C   0  0  0  0  0  0  0  0  0  0  0  0
   -1.6230   28.5270  -35.6060 C   0  0  0  0  0  0  0  0  0  0  0  0
   -0.5352   30.3921  -37.1138 H   0  0  0  0  0  0  0  0  0  0  0  0
    0.4404   30.1867  -38.6081 H   0  0  0  0  0  0  0  0  0  0  0  0
   -1.3038   29.7572  -38.6081 H   0  0  0  0  0  0  0  0  0  0  0  0
    1.3398   28.0801  -39.2412 H   0  0  0  0  0  0  0  0  0  0  0  0
    1.9397   25.7547  -38.5995 H   0  0  0  0  0  0  0  0  0  0  0  0
   -0.9900   23.5440  -36.4150 H   0  0  0  0  0  0  0  0  0  0  0  0
    1.9103   21.6315  -36.5730 H   0  0  0  0  0  0  0  0  0  0  0  0
    2.3936   19.5408  -35.3018 H   0  0  0  0  0  0  0  0  0  0  0  0
    1.0205   18.9385  -33.3118 H   0  0  0  0  0  0  0  0  0  0  0  0
   -3.4780   19.3844  -32.4288 H   0  0  0  0  0  0  0  0  0  0  0  0
   -5.3643   22.7171  -30.5642 H   0  0  0  0  0  0  0  0  0  0  0  0
   -3.4770   26.0460  -31.2210 H   0  0  0  0  0  0  0  0  0  0  0  0
   -1.0671   22.7218  -31.1053 H   0  0  0  0  0  0  0  0  0  0  0  0
   -1.3895   22.4846  -33.9012 H   0  0  0  0  0  0  0  0  0  0  0  0
   -0.7398   25.9952  -35.2084 H   0  0  0  0  0  0  0  0  0  0  0  0
   -1.4031   28.3609  -34.5411 H   0  0  0  0  0  0  0  0  0  0  0  0
   -1.5556   29.6016  -35.8311 H   0  0  0  0  0  0  0  0  0  0  0  0
   -2.6382   28.1682  -35.8311 H   0  0  0  0  0  0  0  0  0  0  0  0
  1  2  1  0
  2  3  2  0
  3  4  1  0
  4  5  2  0
  5  6  1  0
  6  7  2  0
  6  8  1  0
  8  9  1  0
  9 10  2  0
 10 11  1  0
 11 12  2  0
 12 13  1  0
 13 14  1  0
 14 15  1  0
 15 16  2  0
 16 17  1  0
 17 18  2  0
 18 19  1  0
 19 20  1  0
 20 21  1  0
 20 22  2  0
 19 23  2  0
 13 24  2  0
  5 25  1  0
 25 26  2  0
 26 27  1  0
 26  2  1  0
 24  9  1  0
 23 15  1  0
  1 28  1  0
  1 29  1  0
  1 30  1  0
  3 31  1  0
  4 32  1  0
  8 33  1  0
 10 34  1  0
 11 35  1  0
 12 36  1  0
 16 37  1  0
 18 38  1  0
 21 39  1  0
 23 40  1  0
 24 41  1  0
 25 42  1  0
 27 43  1  0
 27 44  1  0
 27 45  1  0
M  CHG  1  21  -1
M  END
>  <UniqueID>  (19) 
18

>  <SMILES>  (19) 
Cc1ccc(C(=O)Nc2cccc(Oc3cncc(C([NH-])=O)c3)c2)cc1C

>  <Energy>  (19) 
59.90105792483214

>  <Genealogy>  (19) 
Cc1ccc(C(=O)Nc2cccc(Oc3cncc(C([NH-])=O)c3)c2)cc1C (protonated)
Cc1ccc(C(=O)Nc2cccc(Oc3cncc(C([NH-])=O)c3)c2)cc1C (3D coordinates assigned)
Cc1ccc(C(=O)Nc2cccc(Oc3cncc(C([NH-])=O)c3)c2)cc1C (optimized conformer: 59.90105792483214 kcal/mol)

>  <smiles>  (19) 
Cc1ccc(C(=O)Nc2cccc(Oc3cncc(C(N)=O)c3)c2)cc1C

>  <score_type>  (19) 
oracle

>  <origin>  (19) 
adgpu

>  <m_score__min__energy>  (19) 
-10.82

>  <m_primary>  (19) 
energy

$$$$
19:0
     RDKit          3D

 52 54  0  0  0  0  0  0  0  0999 V2000
   -9.0530   20.1020  -32.2830 C   0  0  0  0  0  0  0  0  0  0  0  0
   -8.8900   21.2390  -31.2740 C   0  0  0  0  0  0  0  0  0  0  0  0
   -8.3060   22.5130  -31.8990 C   0  0  0  0  0  0  0  0  0  0  0  0
   -7.0420   22.8880  -31.2620 N   0  0  0  0  0  0  0  0  0  0  0  0
   -5.7550   22.3820  -31.6690 C   0  0  0  0  0  0  0  0  0  0  0  0
   -5.6690   21.2090  -32.4410 C   0  0  0  0  0  0  0  0  0  0  0  0
   -4.4310   20.7070  -32.8400 C   0  0  0  0  0  0  0  0  0  0  0  0
   -3.2470   21.3630  -32.4700 C   0  0  0  0  0  0  0  0  0  0  0  0
   -1.9540   20.8870  -32.8690 N   0  0  0  0  0  0  0  0  0  0  0  0
   -1.1030   19.9970  -32.1340 C   0  0  0  0  0  0  0  0  0  0  0  0
   -0.6550   18.9500  -32.6750 O   0  0  0  0  0  0  0  0  0  0  0  0
   -0.7780   20.3110  -30.7730 N   0  0  0  0  0  0  0  0  0  0  0  0
   -0.0320   19.4480  -29.8990 C   0  0  0  0  0  0  0  0  0  0  0  0
    1.2040   18.8960  -30.2880 C   0  0  0  0  0  0  0  0  0  0  0  0
    1.9000   18.0460  -29.4240 C   0  0  0  0  0  0  0  0  0  0  0  0
    1.3670   17.7270  -28.1710 C   0  0  0  0  0  0  0  0  0  0  0  0
    2.2420   16.6580  -27.0900 Cl  0  0  0  0  0  0  0  0  0  0  0  0
    0.1280   18.2500  -27.7880 C   0  0  0  0  0  0  0  0  0  0  0  0
   -0.5710   19.1000  -28.6510 C   0  0  0  0  0  0  0  0  0  0  0  0
   -3.3270   22.5520  -31.7370 C   0  0  0  0  0  0  0  0  0  0  0  0
   -4.5670   23.0670  -31.3250 C   0  0  0  0  0  0  0  0  0  0  0  0
   -4.6030   24.5450  -30.3530 S   0  0  0  0  0  0  0  0  0  0  0  0
   -5.5430   24.3590  -29.1950 O   0  0  0  0  0  0  0  0  0  0  0  0
   -5.0660   25.6850  -31.2190 O   0  0  0  0  0  0  0  0  0  0  0  0
   -3.0210   24.9000  -29.7370 N   0  0  0  0  0  0  0  0  0  0  0  0
   -2.2060   23.9920  -28.9830 C   0  0  0  0  0  0  0  0  0  0  0  0
   -0.8170   24.1730  -28.9890 C   0  0  0  0  0  0  0  0  0  0  0  0
    0.0120   23.3150  -28.2590 C   0  0  0  0  0  0  0  0  0  0  0  0
   -0.5410   22.2640  -27.5250 C   0  0  0  0  0  0  0  0  0  0  0  0
   -1.9260   22.0700  -27.5170 C   0  0  0  0  0  0  0  0  0  0  0  0
   -2.7580   22.9290  -28.2420 C   0  0  0  0  0  0  0  0  0  0  0  0
   -9.1892   19.1518  -31.7458 H   0  0  0  0  0  0  0  0  0  0  0  0
   -9.9326   20.2955  -32.9146 H   0  0  0  0  0  0  0  0  0  0  0  0
   -8.1545   20.0406  -32.9146 H   0  0  0  0  0  0  0  0  0  0  0  0
   -9.8770   21.4765  -30.8504 H   0  0  0  0  0  0  0  0  0  0  0  0
   -8.1848   20.8968  -30.5022 H   0  0  0  0  0  0  0  0  0  0  0  0
   -8.1289   22.3376  -32.9704 H   0  0  0  0  0  0  0  0  0  0  0  0
   -9.0250   23.3324  -31.7519 H   0  0  0  0  0  0  0  0  0  0  0  0
   -7.1050   23.4830  -30.4050 H   0  0  0  0  0  0  0  0  0  0  0  0
   -6.5892   20.6818  -32.7332 H   0  0  0  0  0  0  0  0  0  0  0  0
   -4.3821   19.7917  -33.4482 H   0  0  0  0  0  0  0  0  0  0  0  0
   -1.0050   21.2740  -30.4350 H   0  0  0  0  0  0  0  0  0  0  0  0
    1.6235   19.1350  -31.2764 H   0  0  0  0  0  0  0  0  0  0  0  0
    2.8697   17.6268  -29.7304 H   0  0  0  0  0  0  0  0  0  0  0  0
   -0.2974   17.9926  -26.8068 H   0  0  0  0  0  0  0  0  0  0  0  0
   -1.5507   19.4988  -28.3492 H   0  0  0  0  0  0  0  0  0  0  0  0
   -2.4040   23.0921  -31.4793 H   0  0  0  0  0  0  0  0  0  0  0  0
   -0.3754   24.9951  -29.5715 H   0  0  0  0  0  0  0  0  0  0  0  0
    1.1012   23.4685  -28.2632 H   0  0  0  0  0  0  0  0  0  0  0  0
    0.1124   21.5887  -26.9532 H   0  0  0  0  0  0  0  0  0  0  0  0
   -2.3614   21.2409  -26.9399 H   0  0  0  0  0  0  0  0  0  0  0  0
   -3.8470   22.7740  -28.2335 H   0  0  0  0  0  0  0  0  0  0  0  0
  1  2  1  0
  2  3  1  0
  3  4  1  0
  4  5  1  0
  5  6  2  0
  6  7  1  0
  7  8  2  0
  8  9  1  0
  9 10  1  0
 10 11  2  0
 10 12  1  0
 12 13  1  0
 13 14  2  0
 14 15  1  0
 15 16  2  0
 16 17  1  0
 16 18  1  0
 18 19  2  0
  8 20  1  0
 20 21  2  0
 21 22  1  0
 22 23  2  0
 22 24  2  0
 22 25  1  0
 25 26  1  0
 26 27  2  0
 27 28  1  0
 28 29  2  0
 29 30  1  0
 30 31  2  0
 21  5  1  0
 31 26  1  0
 19 13  1  0
  1 32  1  0
  1 33  1  0
  1 34  1  0
  2 35  1  0
  2 36  1  0
  3 37  1  0
  3 38  1  0
  4 39  1  0
  6 40  1  0
  7 41  1  0
 12 42  1  0
 14 43  1  0
 15 44  1  0
 18 45  1  0
 19 46  1  0
 20 47  1  0
 27 48  1  0
 28 49  1  0
 29 50  1  0
 30 51  1  0
 31 52  1  0
M  CHG  2   9  -1  25  -1
M  END
>  <UniqueID>  (20) 
19

>  <SMILES>  (20) 
CCCNc1ccc([N-]C(=O)Nc2ccc(Cl)cc2)cc1S(=O)(=O)[N-]c1ccccc1

>  <Energy>  (20) 
64.09727081995148

>  <Genealogy>  (20) 
CCCNc1ccc([N-]C(=O)Nc2ccc(Cl)cc2)cc1S(=O)(=O)[N-]c1ccccc1 (protonated)
CCCNc1ccc([N-]C(=O)Nc2ccc(Cl)cc2)cc1S(=O)(=O)[N-]c1ccccc1 (3D coordinates assigned)
CCCNc1ccc([N-]C(=O)Nc2ccc(Cl)cc2)cc1S(=O)(=O)[N-]c1ccccc1 (optimized conformer: 64.09727081995148 kcal/mol)

>  <smiles>  (20) 
CCCNc1ccc(NC(=O)Nc2ccc(Cl)cc2)cc1S(=O)(=O)Nc1ccccc1

>  <score_type>  (20) 
oracle

>  <origin>  (20) 
adgpu

>  <m_score__min__energy>  (20) 
-11.24

>  <m_primary>  (20) 
energy

$$$$
20:0
     RDKit          3D

 34 35  0  0  0  0  0  0  0  0999 V2000
   -5.8670   16.3510  -33.8520 C   0  0  0  0  0  0  0  0  0  0  0  0
   -5.7640   17.3380  -32.8320 O   0  0  0  0  0  0  0  0  0  0  0  0
   -6.7420   18.3100  -32.5620 C   0  0  0  0  0  0  0  0  0  0  0  0
   -8.0760   17.9590  -32.2730 C   0  0  0  0  0  0  0  0  0  0  0  0
   -9.0230   18.9480  -31.9950 C   0  0  0  0  0  0  0  0  0  0  0  0
   -8.6540   20.2930  -31.9950 C   0  0  0  0  0  0  0  0  0  0  0  0
   -9.8440   21.5320  -31.6400 Cl  0  0  0  0  0  0  0  0  0  0  0  0
   -7.3340   20.6540  -32.2790 C   0  0  0  0  0  0  0  0  0  0  0  0
   -6.3770   19.6710  -32.5760 C   0  0  0  0  0  0  0  0  0  0  0  0
   -4.7190   20.1580  -32.9450 S   0  0  0  0  0  0  0  0  0  0  0  0
   -4.2270   19.4720  -34.1900 O   0  0  0  0  0  0  0  0  0  0  0  0
   -3.8360   19.7710  -31.7930 O   0  0  0  0  0  0  0  0  0  0  0  0
   -4.6230   21.8760  -33.1790 N   0  0  0  0  0  0  0  0  0  0  0  0
   -4.8060   22.8470  -32.1320 C   0  0  0  0  0  0  0  0  0  0  0  0
   -5.9790   23.6160  -32.0270 C   0  0  0  0  0  0  0  0  0  0  0  0
   -6.1250   24.5410  -30.9910 C   0  0  0  0  0  0  0  0  0  0  0  0
   -5.1090   24.7110  -30.0490 C   0  0  0  0  0  0  0  0  0  0  0  0
   -3.9280   23.9540  -30.1340 C   0  0  0  0  0  0  0  0  0  0  0  0
   -2.8490   24.1350  -29.1330 C   0  0  0  0  0  0  0  0  0  0  0  0
   -2.0310   25.3040  -29.1520 N   0  0  0  0  0  0  0  0  0  0  0  0
   -2.6440   23.2570  -28.2520 O   0  0  0  0  0  0  0  0  0  0  0  0
   -3.7870   23.0240  -31.1800 C   0  0  0  0  0  0  0  0  0  0  0  0
   -5.9707   15.3574  -33.3916 H   0  0  0  0  0  0  0  0  0  0  0  0
   -6.7483   16.5596  -34.4764 H   0  0  0  0  0  0  0  0  0  0  0  0
   -4.9617   16.3731  -34.4764 H   0  0  0  0  0  0  0  0  0  0  0  0
   -8.3734   16.9000  -32.2663 H   0  0  0  0  0  0  0  0  0  0  0  0
  -10.0630   18.6649  -31.7754 H   0  0  0  0  0  0  0  0  0  0  0  0
   -7.0433   21.7149  -32.2697 H   0  0  0  0  0  0  0  0  0  0  0  0
   -4.3950   22.2060  -34.1440 H   0  0  0  0  0  0  0  0  0  0  0  0
   -6.7852   23.4882  -32.7644 H   0  0  0  0  0  0  0  0  0  0  0  0
   -7.0454   25.1388  -30.9169 H   0  0  0  0  0  0  0  0  0  0  0  0
   -5.2334   25.4413  -29.2359 H   0  0  0  0  0  0  0  0  0  0  0  0
   -1.6130   25.6510  -30.0430 H   0  0  0  0  0  0  0  0  0  0  0  0
   -2.8662   22.4268  -31.2540 H   0  0  0  0  0  0  0  0  0  0  0  0
  1  2  1  0
  2  3  1  0
  3  4  2  0
  4  5  1  0
  5  6  2  0
  6  7  1  0
  6  8  1  0
  8  9  2  0
  9 10  1  0
 10 11  2  0
 10 12  2  0
 10 13  1  0
 13 14  1  0
 14 15  2  0
 15 16  1  0
 16 17  2  0
 17 18  1  0
 18 19  1  0
 19 20  1  0
 19 21  2  0
 18 22  2  0
  9  3  1  0
 22 14  1  0
  1 23  1  0
  1 24  1  0
  1 25  1  0
  4 26  1  0
  5 27  1  0
  8 28  1  0
 13 29  1  0
 15 30  1  0
 16 31  1  0
 17 32  1  0
 20 33  1  0
 22 34  1  0
M  CHG  1  20  -1
M  END
>  <UniqueID>  (21) 
20

>  <SMILES>  (21) 
COc1ccc(Cl)cc1S(=O)(=O)Nc1cccc(C([NH-])=O)c1

>  <Energy>  (21) 
37.551179319002465

>  <Genealogy>  (21) 
COc1ccc(Cl)cc1S(=O)(=O)Nc1cccc(C([NH-])=O)c1 (protonated)
COc1ccc(Cl)cc1S(=O)(=O)Nc1cccc(C([NH-])=O)c1 (3D coordinates assigned)
COc1ccc(Cl)cc1S(=O)(=O)Nc1cccc(C([NH-])=O)c1 (optimized conformer: 37.551179319002465 kcal/mol)

>  <smiles>  (21) 
COc1ccc(Cl)cc1S(=O)(=O)Nc1cccc(C(N)=O)c1

>  <score_type>  (21) 
oracle

>  <origin>  (21) 
adgpu

>  <m_score__min__energy>  (21) 
-10.92

>  <m_primary>  (21) 
energy

$$$$
21:0
     RDKit          3D

 52 55  0  0  0  0  0  0  0  0999 V2000
   -6.3046   23.4631  -33.1209 H   0  0  0  0  0  0  0  0  0  0  0  0
   -5.5790   23.3650  -32.3000 C   0  0  0  0  0  0  0  0  0  0  0  0
   -5.1220   24.4370  -31.5980 N   0  0  0  0  0  0  0  0  0  0  0  0
   -4.2310   24.0780  -30.6500 C   0  0  0  0  0  0  0  0  0  0  0  0
   -3.6990   24.9440  -29.8400 N   0  0  0  0  0  0  0  0  0  0  0  0
   -2.7120   24.6690  -28.8330 C   0  0  0  0  0  0  0  0  0  0  0  0
   -3.1130   24.5800  -27.4950 C   0  0  0  0  0  0  0  0  0  0  0  0
   -4.1754   24.6958  -27.2343 H   0  0  0  0  0  0  0  0  0  0  0  0
   -2.1730   24.3450  -26.4880 C   0  0  0  0  0  0  0  0  0  0  0  0
   -2.5032   24.2564  -25.4425 H   0  0  0  0  0  0  0  0  0  0  0  0
   -0.8080   24.2210  -26.8020 C   0  0  0  0  0  0  0  0  0  0  0  0
    0.1870   23.9700  -25.7370 C   0  0  0  0  0  0  0  0  0  0  0  0
    0.1520   22.9030  -24.9140 N   0  0  0  0  0  0  0  0  0  0  0  0
    1.1800   23.0460  -24.1340 O   0  0  0  0  0  0  0  0  0  0  0  0
    1.8230   24.1410  -24.4530 C   0  0  0  0  0  0  0  0  0  0  0  0
    3.0460   24.6320  -23.7480 C   0  0  0  0  0  0  0  0  0  0  0  0
    3.9391   24.2637  -24.2740 H   0  0  0  0  0  0  0  0  0  0  0  0
    3.0334   24.2587  -22.7134 H   0  0  0  0  0  0  0  0  0  0  0  0
    3.0730   26.1550  -23.7210 C   0  0  0  0  0  0  0  0  0  0  0  0
    3.0792   26.5032  -22.6776 H   0  0  0  0  0  0  0  0  0  0  0  0
    3.9777   26.5148  -24.2330 H   0  0  0  0  0  0  0  0  0  0  0  0
    2.1817   26.5467  -24.2330 H   0  0  0  0  0  0  0  0  0  0  0  0
    1.2310   24.7860  -25.4770 N   0  0  0  0  0  0  0  0  0  0  0  0
   -0.4030   24.3500  -28.1420 C   0  0  0  0  0  0  0  0  0  0  0  0
    0.6632   24.2693  -28.4004 H   0  0  0  0  0  0  0  0  0  0  0  0
   -1.3450   24.5800  -29.1480 C   0  0  0  0  0  0  0  0  0  0  0  0
   -1.0153   24.6920  -30.1914 H   0  0  0  0  0  0  0  0  0  0  0  0
   -3.9940   22.4090  -30.6220 S   0  0  0  0  0  0  0  0  0  0  0  0
   -5.0590   22.1290  -31.9020 C   0  0  0  0  0  0  0  0  0  0  0  0
   -5.3790   20.8010  -32.4830 C   0  0  0  0  0  0  0  0  0  0  0  0
   -4.4320   20.1260  -33.2670 C   0  0  0  0  0  0  0  0  0  0  0  0
   -3.4489   20.5874  -33.4418 H   0  0  0  0  0  0  0  0  0  0  0  0
   -4.7160   18.8680  -33.8350 C   0  0  0  0  0  0  0  0  0  0  0  0
   -3.7570   18.1970  -34.6100 O   0  0  0  0  0  0  0  0  0  0  0  0
   -2.4340   17.8840  -34.1880 C   0  0  0  0  0  0  0  0  0  0  0  0
   -2.3924   17.8742  -33.0888 H   0  0  0  0  0  0  0  0  0  0  0  0
   -2.1504   16.8940  -34.5745 H   0  0  0  0  0  0  0  0  0  0  0  0
   -1.7368   18.6420  -34.5745 H   0  0  0  0  0  0  0  0  0  0  0  0
   -5.9880   18.2810  -33.6160 C   0  0  0  0  0  0  0  0  0  0  0  0
   -6.3750   17.0340  -34.1430 O   0  0  0  0  0  0  0  0  0  0  0  0
   -5.8070   15.7670  -33.8310 C   0  0  0  0  0  0  0  0  0  0  0  0
   -5.7537   15.6480  -32.7388 H   0  0  0  0  0  0  0  0  0  0  0  0
   -6.4337   14.9694  -34.2565 H   0  0  0  0  0  0  0  0  0  0  0  0
   -4.7946   15.7042  -34.2565 H   0  0  0  0  0  0  0  0  0  0  0  0
   -6.9400   18.9570  -32.8340 C   0  0  0  0  0  0  0  0  0  0  0  0
   -8.1900   18.3460  -32.6420 O   0  0  0  0  0  0  0  0  0  0  0  0
   -9.1050   18.6810  -31.6040 C   0  0  0  0  0  0  0  0  0  0  0  0
   -8.6306   18.5073  -30.6269 H   0  0  0  0  0  0  0  0  0  0  0  0
   -9.3869   19.7407  -31.6916 H   0  0  0  0  0  0  0  0  0  0  0  0
  -10.0045   18.0539  -31.6916 H   0  0  0  0  0  0  0  0  0  0  0  0
   -6.6310   20.2070  -32.2720 C   0  0  0  0  0  0  0  0  0  0  0  0
   -7.3816   20.7265  -31.6582 H   0  0  0  0  0  0  0  0  0  0  0  0
  1  2  1  0
  2  3  1  0
  3  4  1  0
  4  5  2  0
  5  6  1  0
  6  7  2  0
  7  8  1  0
  7  9  1  0
  9 10  1  0
  9 11  2  0
 11 12  1  0
 12 13  2  0
 13 14  1  0
 14 15  1  0
 15 16  1  0
 16 17  1  0
 16 18  1  0
 16 19  1  0
 19 20  1  0
 19 21  1  0
 19 22  1  0
 15 23  2  0
 11 24  1  0
 24 25  1  0
 24 26  2  0
 26 27  1  0
  4 28  1  0
 28 29  1  0
 29 30  1  0
 30 31  2  0
 31 32  1  0
 31 33  1  0
 33 34  1  0
 34 35  1  0
 35 36  1  0
 35 37  1  0
 35 38  1  0
 33 39  2  0
 39 40  1  0
 40 41  1  0
 41 42  1  0
 41 43  1  0
 41 44  1  0
 39 45  1  0
 45 46  1  0
 46 47  1  0
 47 48  1  0
 47 49  1  0
 47 50  1  0
 45 51  2  0
 51 52  1  0
 29  2  2  0
 51 30  1  0
 26  6  1  0
 23 12  1  0
M  CHG  1   3  -1
M  END
>  <UniqueID>  (22) 
21

>  <SMILES>  (22) 
CCc1nc(-c2ccc(/N=c3/[n-]cc(-c4cc(OC)c(OC)c(OC)c4)s3)cc2)no1

>  <Energy>  (22) 
127.17931362334551

>  <Genealogy>  (22) 
CCc1nc(-c2ccc(N=c3[n-]cc(-c4cc(OC)c(OC)c(OC)c4)s3)cc2)no1 (protonated)
CCc1nc(-c2ccc(/N=c3/[n-]cc(-c4cc(OC)c(OC)c(OC)c4)s3)cc2)no1 (cis-trans isomerization)
CCc1nc(-c2ccc(/N=c3/[n-]cc(-c4cc(OC)c(OC)c(OC)c4)s3)cc2)no1 (3D coordinates assigned)
CCc1nc(-c2ccc(/N=c3/[n-]cc(-c4cc(OC)c(OC)c(OC)c4)s3)cc2)no1 (optimized conformer: 127.17931362334551 kcal/mol)

>  <smiles>  (22) 
CCc1nc(-c2ccc(N=c3[nH]cc(-c4cc(OC)c(OC)c(OC)c4)s3)cc2)no1

>  <score_type>  (22) 
oracle

>  <origin>  (22) 
adgpu

>  <m_score__min__energy>  (22) 
-8.4199999999999999

>  <m_primary>  (22) 
energy

$$$$
22:0
     RDKit          3D

 49 52  0  0  0  0  0  0  0  0999 V2000
   -2.1030   14.7910  -33.0360 O   0  0  0  0  0  0  0  0  0  0  0  0
   -2.8500   15.5800  -33.6730 C   0  0  0  0  0  0  0  0  0  0  0  0
   -2.2770   16.7770  -34.2180 N   0  0  0  0  0  0  0  0  0  0  0  0
   -1.9520   17.9680  -33.4870 C   0  0  0  0  0  0  0  0  0  0  0  0
   -1.1510   17.8650  -32.3460 C   0  0  0  0  0  0  0  0  0  0  0  0
   -0.8250   19.0020  -31.6020 C   0  0  0  0  0  0  0  0  0  0  0  0
   -1.3160   20.2660  -31.9840 C   0  0  0  0  0  0  0  0  0  0  0  0
   -1.0220   21.4460  -31.2800 O   0  0  0  0  0  0  0  0  0  0  0  0
   -0.6380   21.5330  -29.9080 C   0  0  0  0  0  0  0  0  0  0  0  0
    0.5020   20.7840  -29.6770 F   0  0  0  0  0  0  0  0  0  0  0  0
   -0.3620   22.8530  -29.6090 F   0  0  0  0  0  0  0  0  0  0  0  0
   -1.9630   20.9840  -28.8470 Cl  0  0  0  0  0  0  0  0  0  0  0  0
   -2.1370   20.3610  -33.1140 C   0  0  0  0  0  0  0  0  0  0  0  0
   -2.4620   19.2240  -33.8580 C   0  0  0  0  0  0  0  0  0  0  0  0
   -4.2710   15.2220  -33.8960 C   0  0  0  0  0  0  0  0  0  0  0  0
   -4.6040   14.0980  -34.6700 C   0  0  0  0  0  0  0  0  0  0  0  0
   -5.9400   13.7580  -34.8750 C   0  0  0  0  0  0  0  0  0  0  0  0
   -6.9400   14.5380  -34.2990 C   0  0  0  0  0  0  0  0  0  0  0  0
   -6.6090   15.6200  -33.5480 N   0  0  0  0  0  0  0  0  0  0  0  0
   -5.3140   15.9890  -33.3380 C   0  0  0  0  0  0  0  0  0  0  0  0
   -5.0150   17.1110  -32.5530 O   0  0  0  0  0  0  0  0  0  0  0  0
   -5.8000   18.2710  -32.4720 C   0  0  0  0  0  0  0  0  0  0  0  0
   -7.1700   18.1700  -32.7370 C   0  0  0  0  0  0  0  0  0  0  0  0
   -7.9880   19.2980  -32.6590 C   0  0  0  0  0  0  0  0  0  0  0  0
   -7.4480   20.5360  -32.3040 C   0  0  0  0  0  0  0  0  0  0  0  0
   -6.0780   20.6550  -32.0090 C   0  0  0  0  0  0  0  0  0  0  0  0
   -5.5050   21.9670  -31.6090 C   0  0  0  0  0  0  0  0  0  0  0  0
   -6.3030   23.1260  -31.6060 C   0  0  0  0  0  0  0  0  0  0  0  0
   -5.7610   24.3580  -31.2280 C   0  0  0  0  0  0  0  0  0  0  0  0
   -4.4200   24.4480  -30.8490 C   0  0  0  0  0  0  0  0  0  0  0  0
   -3.8840   25.6740  -30.4730 O   0  0  0  0  0  0  0  0  0  0  0  0
   -3.6180   23.3040  -30.8480 C   0  0  0  0  0  0  0  0  0  0  0  0
   -4.1540   22.0700  -31.2260 C   0  0  0  0  0  0  0  0  0  0  0  0
   -5.2600   19.5120  -32.0900 C   0  0  0  0  0  0  0  0  0  0  0  0
   -0.7742   16.8807  -32.0312 H   0  0  0  0  0  0  0  0  0  0  0  0
   -0.1822   18.9097  -30.7142 H   0  0  0  0  0  0  0  0  0  0  0  0
   -2.5306   21.3417  -33.4195 H   0  0  0  0  0  0  0  0  0  0  0  0
   -3.1186   19.3120  -34.7362 H   0  0  0  0  0  0  0  0  0  0  0  0
   -3.8076   13.4841  -35.1158 H   0  0  0  0  0  0  0  0  0  0  0  0
   -6.2023   12.8817  -35.4860 H   0  0  0  0  0  0  0  0  0  0  0  0
   -7.9977   14.2776  -34.4524 H   0  0  0  0  0  0  0  0  0  0  0  0
   -7.6046   17.1966  -33.0082 H   0  0  0  0  0  0  0  0  0  0  0  0
   -9.0625   19.2116  -32.8780 H   0  0  0  0  0  0  0  0  0  0  0  0
   -8.0974   21.4225  -32.2549 H   0  0  0  0  0  0  0  0  0  0  0  0
   -7.3602   23.0622  -31.9030 H   0  0  0  0  0  0  0  0  0  0  0  0
   -6.3924   25.2587  -31.2291 H   0  0  0  0  0  0  0  0  0  0  0  0
   -2.5618   23.3748  -30.5489 H   0  0  0  0  0  0  0  0  0  0  0  0
   -3.5165   21.1736  -31.2243 H   0  0  0  0  0  0  0  0  0  0  0  0
   -4.1888   19.5904  -31.8523 H   0  0  0  0  0  0  0  0  0  0  0  0
  1  2  2  0
  2  3  1  0
  3  4  1  0
  4  5  2  0
  5  6  1  0
  6  7  2  0
  7  8  1  0
  8  9  1  0
  9 10  1  0
  9 11  1  0
  9 12  1  0
  7 13  1  0
 13 14  2  0
  2 15  1  0
 15 16  2  0
 16 17  1  0
 17 18  2  0
 18 19  1  0
 19 20  2  0
 20 21  1  0
 21 22  1  0
 22 23  2  0
 23 24  1  0
 24 25  2  0
 25 26  1  0
 26 27  1  0
 27 28  2  0
 28 29  1  0
 29 30  2  0
 30 31  1  0
 30 32  1  0
 32 33  2  0
 26 34  2  0
 14  4  1  0
 20 15  1  0
 34 22  1  0
 33 27  1  0
  5 35  1  0
  6 36  1  0
 13 37  1  0
 14 38  1  0
 16 39  1  0
 17 40  1  0
 18 41  1  0
 23 42  1  0
 24 43  1  0
 25 44  1  0
 28 45  1  0
 29 46  1  0
 32 47  1  0
 33 48  1  0
 34 49  1  0
M  CHG  2   3  -1  31  -1
M  END
>  <UniqueID>  (23) 
22

>  <SMILES>  (23) 
O=C([N-]c1ccc(OC(F)(F)Cl)cc1)c1cccnc1Oc1cccc(-c2ccc([O-])cc2)c1

>  <Energy>  (23) 
73.35583625156204

>  <Genealogy>  (23) 
O=C([N-]c1ccc(OC(F)(F)Cl)cc1)c1cccnc1Oc1cccc(-c2ccc([O-])cc2)c1 (protonated)
O=C([N-]c1ccc(OC(F)(F)Cl)cc1)c1cccnc1Oc1cccc(-c2ccc([O-])cc2)c1 (3D coordinates assigned)
O=C([N-]c1ccc(OC(F)(F)Cl)cc1)c1cccnc1Oc1cccc(-c2ccc([O-])cc2)c1 (optimized conformer: 73.35583625156204 kcal/mol)

>  <smiles>  (23) 
O=C(Nc1ccc(OC(F)(F)Cl)cc1)c1cccnc1Oc1cccc(-c2ccc(O)cc2)c1

>  <score_type>  (23) 
oracle

>  <origin>  (23) 
adgpu

>  <m_score__min__energy>  (23) 
-12.66

>  <m_primary>  (23) 
energy

$$$$
23:0
     RDKit          3D

 51 53  0  0  0  0  0  0  0  0999 V2000
   -2.7520   21.0670  -27.9410 C   0  0  0  0  0  0  0  0  0  0  0  0
   -1.6280   21.8800  -28.5800 C   0  0  0  0  0  0  0  0  0  0  0  0
   -2.0880   22.6080  -29.8500 C   0  0  0  0  0  0  0  0  0  0  0  0
   -2.8620   23.8210  -29.5290 N   0  0  0  0  0  0  0  0  0  0  0  0
   -3.9100   24.2880  -30.4040 C   0  0  0  0  0  0  0  0  0  0  0  0
   -3.8790   25.4700  -30.8420 O   0  0  0  0  0  0  0  0  0  0  0  0
   -5.0310   23.4100  -30.8000 C   0  0  0  0  0  0  0  0  0  0  0  0
   -6.3040   23.9550  -31.0350 C   0  0  0  0  0  0  0  0  0  0  0  0
   -7.3710   23.1250  -31.3940 C   0  0  0  0  0  0  0  0  0  0  0  0
   -7.1810   21.7430  -31.5160 C   0  0  0  0  0  0  0  0  0  0  0  0
   -8.5360   20.7020  -31.9400 S   0  0  0  0  0  0  0  0  0  0  0  0
   -9.6600   21.5330  -32.4960 O   0  0  0  0  0  0  0  0  0  0  0  0
   -9.0270   20.0030  -30.7020 O   0  0  0  0  0  0  0  0  0  0  0  0
   -8.0130   19.5190  -33.1100 N   0  0  0  0  0  0  0  0  0  0  0  0
   -7.6480   18.2500  -32.4770 C   0  0  0  0  0  0  0  0  0  0  0  0
   -6.6280   17.5840  -33.3890 C   0  0  0  0  0  0  0  0  0  0  0  0
   -6.0860   18.6990  -34.2730 C   0  0  0  0  0  0  0  0  0  0  0  0
   -6.8200   19.9590  -33.8360 C   0  0  0  0  0  0  0  0  0  0  0  0
   -5.9190   21.1940  -31.2550 C   0  0  0  0  0  0  0  0  0  0  0  0
   -4.8520   22.0210  -30.8960 C   0  0  0  0  0  0  0  0  0  0  0  0
   -2.5570   24.5480  -28.3270 C   0  0  0  0  0  0  0  0  0  0  0  0
   -1.3690   25.2910  -28.2420 C   0  0  0  0  0  0  0  0  0  0  0  0
   -1.0670   26.0100  -27.0830 C   0  0  0  0  0  0  0  0  0  0  0  0
   -1.9520   25.9970  -26.0010 C   0  0  0  0  0  0  0  0  0  0  0  0
   -3.1410   25.2660  -26.0790 C   0  0  0  0  0  0  0  0  0  0  0  0
   -3.4460   24.5450  -27.2380 C   0  0  0  0  0  0  0  0  0  0  0  0
   -2.6703   21.1261  -26.8456 H   0  0  0  0  0  0  0  0  0  0  0  0
   -3.7240   21.4724  -28.2586 H   0  0  0  0  0  0  0  0  0  0  0  0
   -2.6713   20.0169  -28.2586 H   0  0  0  0  0  0  0  0  0  0  0  0
   -1.2730   22.6256  -27.8533 H   0  0  0  0  0  0  0  0  0  0  0  0
   -0.8258   21.1825  -28.8628 H   0  0  0  0  0  0  0  0  0  0  0  0
   -1.2034   22.8940  -30.4380 H   0  0  0  0  0  0  0  0  0  0  0  0
   -2.7359   21.9273  -30.4217 H   0  0  0  0  0  0  0  0  0  0  0  0
   -6.4625   25.0390  -30.9363 H   0  0  0  0  0  0  0  0  0  0  0  0
   -8.3639   23.5598  -31.5813 H   0  0  0  0  0  0  0  0  0  0  0  0
   -8.7930   19.3540  -33.7910 H   0  0  0  0  0  0  0  0  0  0  0  0
   -7.2076   18.4336  -31.4859 H   0  0  0  0  0  0  0  0  0  0  0  0
   -8.5311   17.6094  -32.3366 H   0  0  0  0  0  0  0  0  0  0  0  0
   -5.8176   17.1345  -32.7963 H   0  0  0  0  0  0  0  0  0  0  0  0
   -7.0774   16.7740  -33.9822 H   0  0  0  0  0  0  0  0  0  0  0  0
   -5.0022   18.8146  -34.1246 H   0  0  0  0  0  0  0  0  0  0  0  0
   -6.2427   18.4855  -35.3406 H   0  0  0  0  0  0  0  0  0  0  0  0
   -6.1776   20.5636  -33.1790 H   0  0  0  0  0  0  0  0  0  0  0  0
   -7.0902   20.5807  -34.7023 H   0  0  0  0  0  0  0  0  0  0  0  0
   -5.7676   20.1073  -31.3331 H   0  0  0  0  0  0  0  0  0  0  0  0
   -3.8656   21.5812  -30.6873 H   0  0  0  0  0  0  0  0  0  0  0  0
   -0.6720   25.3071  -29.0928 H   0  0  0  0  0  0  0  0  0  0  0  0
   -0.1323   26.5867  -27.0218 H   0  0  0  0  0  0  0  0  0  0  0  0
   -1.7128   26.5621  -25.0881 H   0  0  0  0  0  0  0  0  0  0  0  0
   -3.8376   25.2578  -25.2277 H   0  0  0  0  0  0  0  0  0  0  0  0
   -4.3843   23.9739  -27.2976 H   0  0  0  0  0  0  0  0  0  0  0  0
  1  2  1  0
  2  3  1  0
  3  4  1  0
  4  5  1  0
  5  6  2  0
  5  7  1  0
  7  8  2  0
  8  9  1  0
  9 10  2  0
 10 11  1  0
 11 12  2  0
 11 13  2  0
 11 14  1  0
 14 15  1  0
 15 16  1  0
 16 17  1  0
 17 18  1  0
 10 19  1  0
 19 20  2  0
  4 21  1  0
 21 22  2  0
 22 23  1  0
 23 24  2  0
 24 25  1  0
 25 26  2  0
 20  7  1  0
 26 21  1  0
 18 14  1  0
  1 27  1  0
  1 28  1  0
  1 29  1  0
  2 30  1  0
  2 31  1  0
  3 32  1  0
  3 33  1  0
  8 34  1  0
  9 35  1  0
 14 36  1  0
 15 37  1  0
 15 38  1  0
 16 39  1  0
 16 40  1  0
 17 41  1  0
 17 42  1  0
 18 43  1  0
 18 44  1  0
 19 45  1  0
 20 46  1  0
 22 47  1  0
 23 48  1  0
 24 49  1  0
 25 50  1  0
 26 51  1  0
M  CHG  1  14   1
M  END
>  <UniqueID>  (24) 
23

>  <SMILES>  (24) 
CCCN(C(=O)c1ccc(S(=O)(=O)[NH+]2CCCC2)cc1)c1ccccc1

>  <Energy>  (24) 
59.778982464842734

>  <Genealogy>  (24) 
CCCN(C(=O)c1ccc(S(=O)(=O)[NH+]2CCCC2)cc1)c1ccccc1 (protonated)
CCCN(C(=O)c1ccc(S(=O)(=O)[NH+]2CCCC2)cc1)c1ccccc1 (3D coordinates assigned)
CCCN(C(=O)c1ccc(S(=O)(=O)[NH+]2CCCC2)cc1)c1ccccc1 (nonaromatic ring conformer: 59.778982464842734 kcal/mol)

>  <smiles>  (24) 
CCCN(C(=O)c1ccc(S(=O)(=O)N2CCCC2)cc1)c1ccccc1

>  <score_type>  (24) 
oracle

>  <origin>  (24) 
adgpu

>  <m_score__min__energy>  (24) 
-9.4199999999999999

>  <m_primary>  (24) 
energy

$$$$
24:0
     RDKit          3D

 78 82  0  0  0  0  0  0  0  0999 V2000
   -1.5880   25.1980  -25.6110 C   0  0  0  0  0  0  0  0  0  0  0  0
   -2.2140   24.7260  -26.8000 O   0  0  0  0  0  0  0  0  0  0  0  0
   -1.8080   23.5870  -27.5120 C   0  0  0  0  0  0  0  0  0  0  0  0
   -2.5490   22.3900  -27.4980 C   0  0  0  0  0  0  0  0  0  0  0  0
   -2.1070   21.2750  -28.2120 C   0  0  0  0  0  0  0  0  0  0  0  0
   -0.9120   21.3250  -28.9430 C   0  0  0  0  0  0  0  0  0  0  0  0
   -0.4440   20.1300  -29.6800 C   0  0  0  0  0  0  0  0  0  0  0  0
   -1.2100   19.5770  -30.5160 O   0  0  0  0  0  0  0  0  0  0  0  0
    0.8600   19.5750  -29.4360 N   0  0  0  0  0  0  0  0  0  0  0  0
    1.3900   18.4560  -30.2220 C   0  0  1  0  0  0  0  0  0  0  0  0
    0.7110   17.1480  -29.8000 C   0  0  0  0  0  0  0  0  0  0  0  0
    1.1720   18.6880  -31.7010 C   0  0  0  0  0  0  0  0  0  0  0  0
    1.9000   19.5810  -32.4720 C   0  0  0  0  0  0  0  0  0  0  0  0
    1.2950   19.6250  -33.7060 C   0  0  0  0  0  0  0  0  0  0  0  0
    0.2060   18.7760  -33.6450 C   0  0  0  0  0  0  0  0  0  0  0  0
   -0.8480   18.6800  -34.7190 C   0  0  0  0  0  0  0  0  0  0  0  0
   -2.1030   19.2750  -34.2520 N   0  0  0  0  0  0  0  0  0  0  0  0
   -3.2650   18.6140  -34.0760 C   0  0  0  0  0  0  0  0  0  0  0  0
   -4.1550   19.4510  -33.4340 C   0  0  0  0  0  0  0  0  0  0  0  0
   -5.5120   19.0730  -32.9730 C   0  0  0  0  0  0  0  0  0  0  0  0
   -6.6490   19.7490  -33.4530 C   0  0  0  0  0  0  0  0  0  0  0  0
   -7.9240   19.3950  -33.0010 C   0  0  0  0  0  0  0  0  0  0  0  0
   -8.0790   18.3590  -32.0760 C   0  0  0  0  0  0  0  0  0  0  0  0
   -6.9580   17.6710  -31.6050 C   0  0  0  0  0  0  0  0  0  0  0  0
   -5.6800   18.0220  -32.0540 C   0  0  0  0  0  0  0  0  0  0  0  0
   -3.5480   20.6430  -33.2210 N   0  0  0  0  0  0  0  0  0  0  0  0
   -4.0160   21.7130  -32.3890 C   0  0  0  0  0  0  0  0  0  0  0  0
   -5.1910   22.4020  -32.7200 C   0  0  0  0  0  0  0  0  0  0  0  0
   -5.6390   23.4550  -31.9170 C   0  0  0  0  0  0  0  0  0  0  0  0
   -4.9230   23.8220  -30.7670 C   0  0  0  0  0  0  0  0  0  0  0  0
   -5.3760   24.9890  -29.9390 C   0  0  0  0  0  0  0  0  0  0  0  0
   -3.7410   23.1380  -30.4420 C   0  0  0  0  0  0  0  0  0  0  0  0
   -3.2950   22.0830  -31.2440 C   0  0  0  0  0  0  0  0  0  0  0  0
   -2.3000   20.5120  -33.7320 C   0  0  0  0  0  0  0  0  0  0  0  0
   -1.2150   21.5400  -33.5640 C   0  0  0  0  0  0  0  0  0  0  0  0
    0.1420   18.1870  -32.4240 N   0  0  0  0  0  0  0  0  0  0  0  0
   -0.9220   17.3090  -31.9310 C   0  0  0  0  0  0  0  0  0  0  0  0
   -0.1800   22.5240  -28.9730 C   0  0  0  0  0  0  0  0  0  0  0  0
   -0.6240   23.6560  -28.2610 C   0  0  0  0  0  0  0  0  0  0  0  0
    0.0850   24.8700  -28.2730 O   0  0  0  0  0  0  0  0  0  0  0  0
    1.2300   25.1450  -27.4740 C   0  0  0  0  0  0  0  0  0  0  0  0
   -2.1182   24.7983  -24.7340 H   0  0  0  0  0  0  0  0  0  0  0  0
   -0.5405   24.8630  -25.5903 H   0  0  0  0  0  0  0  0  0  0  0  0
   -1.6219   26.2973  -25.5903 H   0  0  0  0  0  0  0  0  0  0  0  0
   -3.4832   22.3330  -26.9201 H   0  0  0  0  0  0  0  0  0  0  0  0
   -2.7013   20.3495  -28.2009 H   0  0  0  0  0  0  0  0  0  0  0  0
    1.4240   19.9420  -28.6360 H   0  0  0  0  0  0  0  0  0  0  0  0
    2.4711   18.3841  -30.0323 H   0  0  0  0  0  0  0  0  0  0  0  0
    0.6801   17.0885  -28.7020 H   0  0  0  0  0  0  0  0  0  0  0  0
   -0.3143   17.1223  -30.1976 H   0  0  0  0  0  0  0  0  0  0  0  0
    1.2800   16.2946  -30.1976 H   0  0  0  0  0  0  0  0  0  0  0  0
    2.7901   20.1455  -32.1573 H   0  0  0  0  0  0  0  0  0  0  0  0
    1.6156   20.2205  -34.5736 H   0  0  0  0  0  0  0  0  0  0  0  0
   -0.5031   19.2164  -35.6153 H   0  0  0  0  0  0  0  0  0  0  0  0
   -1.0207   17.6203  -34.9583 H   0  0  0  0  0  0  0  0  0  0  0  0
   -3.4695   17.5802  -34.3914 H   0  0  0  0  0  0  0  0  0  0  0  0
   -6.5342   20.5599  -34.1874 H   0  0  0  0  0  0  0  0  0  0  0  0
   -8.8075   19.9335  -33.3746 H   0  0  0  0  0  0  0  0  0  0  0  0
   -9.0829   18.0854  -31.7190 H   0  0  0  0  0  0  0  0  0  0  0  0
   -7.0801   16.8525  -30.8804 H   0  0  0  0  0  0  0  0  0  0  0  0
   -4.8012   17.4723  -31.6857 H   0  0  0  0  0  0  0  0  0  0  0  0
   -5.7624   22.1132  -33.6145 H   0  0  0  0  0  0  0  0  0  0  0  0
   -6.5565   23.9982  -32.1876 H   0  0  0  0  0  0  0  0  0  0  0  0
   -5.2796   24.7407  -28.8717 H   0  0  0  0  0  0  0  0  0  0  0  0
   -4.7529   25.8658  -30.1692 H   0  0  0  0  0  0  0  0  0  0  0  0
   -6.4275   25.2158  -30.1692 H   0  0  0  0  0  0  0  0  0  0  0  0
   -3.1637   23.4330  -29.5534 H   0  0  0  0  0  0  0  0  0  0  0  0
   -2.3758   21.5414  -30.9762 H   0  0  0  0  0  0  0  0  0  0  0  0
   -1.0346   21.7109  -32.4924 H   0  0  0  0  0  0  0  0  0  0  0  0
   -0.2907   21.1785  -34.0383 H   0  0  0  0  0  0  0  0  0  0  0  0
   -1.5262   22.4824  -34.0383 H   0  0  0  0  0  0  0  0  0  0  0  0
   -0.9191   17.3114  -30.8310 H   0  0  0  0  0  0  0  0  0  0  0  0
   -1.8946   17.6709  -32.2959 H   0  0  0  0  0  0  0  0  0  0  0  0
   -0.7513   16.2854  -32.2959 H   0  0  0  0  0  0  0  0  0  0  0  0
    0.7495   22.5795  -29.5585 H   0  0  0  0  0  0  0  0  0  0  0  0
    0.9588   25.0799  -26.4099 H   0  0  0  0  0  0  0  0  0  0  0  0
    2.0179   24.4105  -27.6972 H   0  0  0  0  0  0  0  0  0  0  0  0
    1.5984   26.1572  -27.6972 H   0  0  0  0  0  0  0  0  0  0  0  0
  1  2  1  0
  2  3  1  0
  3  4  2  0
  4  5  1  0
  5  6  2  0
  6  7  1  0
  7  8  2  0
  7  9  1  0
  9 10  1  0
 10 11  1  0
 10 12  1  0
 12 13  2  0
 13 14  1  0
 14 15  2  0
 15 16  1  0
 16 17  1  0
 17 18  1  0
 18 19  2  0
 19 20  1  0
 20 21  2  0
 21 22  1  0
 22 23  2  0
 23 24  1  0
 24 25  2  0
 19 26  1  0
 26 27  1  0
 27 28  2  0
 28 29  1  0
 29 30  2  0
 30 31  1  0
 30 32  1  0
 32 33  2  0
 26 34  1  0
 34 35  1  0
 15 36  1  0
 36 37  1  0
  6 38  1  0
 38 39  2  0
 39 40  1  0
 40 41  1  0
 39  3  1  0
 36 12  1  0
 34 17  2  0
 25 20  1  0
 33 27  1  0
  1 42  1  0
  1 43  1  0
  1 44  1  0
  4 45  1  0
  5 46  1  0
  9 47  1  0
 10 48  1  6
 11 49  1  0
 11 50  1  0
 11 51  1  0
 13 52  1  0
 14 53  1  0
 16 54  1  0
 16 55  1  0
 18 56  1  0
 21 57  1  0
 22 58  1  0
 23 59  1  0
 24 60  1  0
 25 61  1  0
 28 62  1  0
 29 63  1  0
 31 64  1  0
 31 65  1  0
 31 66  1  0
 32 67  1  0
 33 68  1  0
 35 69  1  0
 35 70  1  0
 35 71  1  0
 37 72  1  0
 37 73  1  0
 37 74  1  0
 38 75  1  0
 41 76  1  0
 41 77  1  0
 41 78  1  0
M  CHG  1  17   1
M  END
>  <UniqueID>  (25) 
24

>  <SMILES>  (25) 
COc1ccc(C(=O)N[C@@H](C)c2ccc(C[n+]3cc(-c4ccccc4)n(-c4ccc(C)cc4)c3C)n2C)cc1OC

>  <Energy>  (25) 
145.46980150811086

>  <Genealogy>  (25) 
COc1ccc(C(=O)N[C@@H](C)c2ccc(C[n+]3cc(-c4ccccc4)n(-c4ccc(C)cc4)c3C)n2C)cc1OC (chirality)
COc1ccc(C(=O)N[C@@H](C)c2ccc(C[n+]3cc(-c4ccccc4)n(-c4ccc(C)cc4)c3C)n2C)cc1OC (3D coordinates assigned)
COc1ccc(C(=O)N[C@@H](C)c2ccc(C[n+]3cc(-c4ccccc4)n(-c4ccc(C)cc4)c3C)n2C)cc1OC (optimized conformer: 145.46980150811086 kcal/mol)

>  <smiles>  (25) 
COc1ccc(C(=O)NC(C)c2ccc(C[n+]3cc(-c4ccccc4)n(-c4ccc(C)cc4)c3C)n2C)cc1OC

>  <score_type>  (25) 
oracle

>  <origin>  (25) 
adgpu

>  <m_score__min__energy>  (25) 
-9.2799999999999994

>  <m_primary>  (25) 
energy

$$$$
25:0
     RDKit          3D

 43 45  0  0  0  0  0  0  0  0999 V2000
   -4.2000   20.0970  -31.5250 N   0  0  0  0  0  0  0  0  0  0  0  0
   -5.4700   20.7520  -31.6050 C   0  0  0  0  0  0  0  0  0  0  0  0
   -5.5870   22.0160  -31.1210 N   0  0  0  0  0  0  0  0  0  0  0  0
   -6.7820   22.6590  -31.1020 C   0  0  0  0  0  0  0  0  0  0  0  0
   -6.8890   24.3310  -30.4690 S   0  0  0  0  0  0  0  0  0  0  0  0
   -5.3470   24.2490  -29.4890 C   0  0  0  0  0  0  0  0  0  0  0  0
   -4.2300   25.0010  -30.1590 C   0  0  0  0  0  0  0  0  0  0  0  0
   -4.4740   25.6440  -31.2130 O   0  0  0  0  0  0  0  0  0  0  0  0
   -2.8730   24.9220  -29.7040 N   0  0  0  0  0  0  0  0  0  0  0  0
   -2.1690   23.7470  -29.2760 C   0  0  0  0  0  0  0  0  0  0  0  0
   -1.9850   22.6530  -30.1400 C   0  0  0  0  0  0  0  0  0  0  0  0
   -1.3310   21.5020  -29.6930 C   0  0  0  0  0  0  0  0  0  0  0  0
   -0.8720   21.4240  -28.3770 C   0  0  0  0  0  0  0  0  0  0  0  0
   -1.0760   22.4950  -27.5030 C   0  0  0  0  0  0  0  0  0  0  0  0
   -1.7310   23.6500  -27.9450 C   0  0  0  0  0  0  0  0  0  0  0  0
   -1.9940   25.0960  -26.7150 Br  0  0  0  0  0  0  0  0  0  0  0  0
   -7.8950   22.0390  -31.5710 N   0  0  0  0  0  0  0  0  0  0  0  0
   -7.8360   20.7780  -32.0710 C   0  0  0  0  0  0  0  0  0  0  0  0
   -8.8860   20.2320  -32.5020 O   0  0  0  0  0  0  0  0  0  0  0  0
   -6.6090   20.0990  -32.1200 C   0  0  0  0  0  0  0  0  0  0  0  0
   -6.5380   18.7780  -32.6780 N   0  0  0  0  0  0  0  0  0  0  0  0
   -5.5220   18.4030  -33.6230 C   0  0  0  0  0  0  0  0  0  0  0  0
   -4.7840   19.2950  -34.1280 O   0  0  0  0  0  0  0  0  0  0  0  0
   -5.3350   16.9880  -34.0250 C   0  0  0  0  0  0  0  0  0  0  0  0
   -6.3580   16.0380  -33.8410 C   0  0  0  0  0  0  0  0  0  0  0  0
   -6.1620   14.7040  -34.2140 C   0  0  0  0  0  0  0  0  0  0  0  0
   -4.9440   14.3010  -34.7650 C   0  0  0  0  0  0  0  0  0  0  0  0
   -3.9170   15.2310  -34.9440 C   0  0  0  0  0  0  0  0  0  0  0  0
   -4.1080   16.5660  -34.5750 C   0  0  0  0  0  0  0  0  0  0  0  0
   -3.7670   19.6950  -32.3870 H   0  0  0  0  0  0  0  0  0  0  0  0
   -3.6490   20.0680  -30.6390 H   0  0  0  0  0  0  0  0  0  0  0  0
   -5.5296   24.6882  -28.4972 H   0  0  0  0  0  0  0  0  0  0  0  0
   -5.0492   23.1938  -29.4000 H   0  0  0  0  0  0  0  0  0  0  0  0
   -2.3580   22.7036  -31.1736 H   0  0  0  0  0  0  0  0  0  0  0  0
   -1.1776   20.6560  -30.3792 H   0  0  0  0  0  0  0  0  0  0  0  0
   -0.3503   20.5205  -28.0284 H   0  0  0  0  0  0  0  0  0  0  0  0
   -0.7205   22.4300  -26.4640 H   0  0  0  0  0  0  0  0  0  0  0  0
   -7.3700   18.1580  -32.5680 H   0  0  0  0  0  0  0  0  0  0  0  0
   -7.3177   16.3469  -33.4010 H   0  0  0  0  0  0  0  0  0  0  0  0
   -6.9696   13.9706  -34.0728 H   0  0  0  0  0  0  0  0  0  0  0  0
   -4.7931   13.2515  -35.0581 H   0  0  0  0  0  0  0  0  0  0  0  0
   -2.9568   14.9125  -35.3759 H   0  0  0  0  0  0  0  0  0  0  0  0
   -3.2941   17.2926  -34.7151 H   0  0  0  0  0  0  0  0  0  0  0  0
  1  2  1  0
  2  3  1  0
  3  4  1  0
  4  5  1  0
  5  6  1  0
  6  7  1  0
  7  8  2  0
  7  9  1  0
  9 10  1  0
 10 11  2  0
 11 12  1  0
 12 13  2  0
 13 14  1  0
 14 15  2  0
 15 16  1  0
  4 17  2  0
 17 18  1  0
 18 19  2  0
 18 20  1  0
 20 21  1  0
 21 22  1  0
 22 23  2  0
 22 24  1  0
 24 25  2  0
 25 26  1  0
 26 27  2  0
 27 28  1  0
 28 29  2  0
 20  2  2  0
 29 24  1  0
 15 10  1  0
  1 30  1  0
  1 31  1  0
  6 32  1  0
  6 33  1  0
 11 34  1  0
 12 35  1  0
 13 36  1  0
 14 37  1  0
 21 38  1  0
 25 39  1  0
 26 40  1  0
 27 41  1  0
 28 42  1  0
 29 43  1  0
M  CHG  2   3  -1   9  -1
M  END
>  <UniqueID>  (26) 
25

>  <SMILES>  (26) 
Nc1[n-]c(SCC(=O)[N-]c2ccccc2Br)nc(=O)c1NC(=O)c1ccccc1

>  <Energy>  (26) 
56.68064201181864

>  <Genealogy>  (26) 
Nc1[n-]c(SCC(=O)[N-]c2ccccc2Br)nc(=O)c1NC(=O)c1ccccc1 (protonated)
Nc1[n-]c(SCC(=O)[N-]c2ccccc2Br)nc(=O)c1NC(=O)c1ccccc1 (3D coordinates assigned)
Nc1[n-]c(SCC(=O)[N-]c2ccccc2Br)nc(=O)c1NC(=O)c1ccccc1 (optimized conformer: 56.68064201181864 kcal/mol)

>  <smiles>  (26) 
Nc1[nH]c(SCC(=O)Nc2ccccc2Br)nc(=O)c1NC(=O)c1ccccc1

>  <score_type>  (26) 
oracle

>  <origin>  (26) 
adgpu

>  <m_score__min__energy>  (26) 
-10.44

>  <m_primary>  (26) 
energy

$$$$
26:0
     RDKit          3D

 31 33  0  0  0  0  0  0  0  0999 V2000
   -1.2350   26.0550  -29.2990 O   0  0  0  0  0  0  0  0  0  0  0  0
   -1.5100   24.8690  -28.9770 C   0  0  0  0  0  0  0  0  0  0  0  0
   -0.7010   24.2070  -28.1070 N   0  0  0  0  0  0  0  0  0  0  0  0
   -0.9540   22.9280  -27.7240 C   0  0  0  0  0  0  0  0  0  0  0  0
   -2.0680   22.2560  -28.2290 C   0  0  0  0  0  0  0  0  0  0  0  0
   -2.9140   22.9090  -29.1260 C   0  0  0  0  0  0  0  0  0  0  0  0
   -2.6430   24.2340  -29.5100 C   0  0  0  0  0  0  0  0  0  0  0  0
   -3.4890   24.9530  -30.4210 N   0  0  0  0  0  0  0  0  0  0  0  0
   -5.2230   24.9310  -30.4040 S   0  0  0  0  0  0  0  0  0  0  0  0
   -5.7350   26.1310  -31.1510 O   0  0  0  0  0  0  0  0  0  0  0  0
   -5.7010   24.9960  -28.9820 O   0  0  0  0  0  0  0  0  0  0  0  0
   -5.8180   23.4440  -31.1380 C   0  0  0  0  0  0  0  0  0  0  0  0
   -4.9450   22.6090  -31.8470 C   0  0  0  0  0  0  0  0  0  0  0  0
   -5.4100   21.4230  -32.4200 C   0  0  0  0  0  0  0  0  0  0  0  0
   -6.7580   21.0580  -32.2900 C   0  0  0  0  0  0  0  0  0  0  0  0
   -7.2360   19.8680  -32.8580 C   0  0  0  0  0  0  0  0  0  0  0  0
   -8.5830   19.5170  -32.7210 C   0  0  0  0  0  0  0  0  0  0  0  0
   -9.4590   20.3490  -32.0180 C   0  0  0  0  0  0  0  0  0  0  0  0
   -8.9960   21.5380  -31.4480 C   0  0  0  0  0  0  0  0  0  0  0  0
   -7.6460   21.9030  -31.5790 C   0  0  0  0  0  0  0  0  0  0  0  0
   -7.1680   23.0930  -31.0100 C   0  0  0  0  0  0  0  0  0  0  0  0
   -0.2808   22.4224  -27.0160 H   0  0  0  0  0  0  0  0  0  0  0  0
   -2.2773   21.2205  -27.9225 H   0  0  0  0  0  0  0  0  0  0  0  0
   -3.7928   22.3872  -29.5327 H   0  0  0  0  0  0  0  0  0  0  0  0
   -3.8866   22.8890  -31.9532 H   0  0  0  0  0  0  0  0  0  0  0  0
   -4.7170   20.7734  -32.9748 H   0  0  0  0  0  0  0  0  0  0  0  0
   -6.5506   19.2098  -33.4120 H   0  0  0  0  0  0  0  0  0  0  0  0
   -8.9542   18.5830  -33.1680 H   0  0  0  0  0  0  0  0  0  0  0  0
  -10.5170   20.0668  -31.9130 H   0  0  0  0  0  0  0  0  0  0  0  0
   -9.6898   22.1890  -30.8959 H   0  0  0  0  0  0  0  0  0  0  0  0
   -7.8560   23.7529  -30.4612 H   0  0  0  0  0  0  0  0  0  0  0  0
  1  2  2  0
  2  3  1  0
  3  4  1  0
  4  5  2  0
  5  6  1  0
  6  7  2  0
  7  8  1  0
  8  9  1  0
  9 10  2  0
  9 11  2  0
  9 12  1  0
 12 13  2  0
 13 14  1  0
 14 15  2  0
 15 16  1  0
 16 17  2  0
 17 18  1  0
 18 19  2  0
 19 20  1  0
 20 21  2  0
  7  2  1  0
 21 12  1  0
 20 15  1  0
  4 22  1  0
  5 23  1  0
  6 24  1  0
 13 25  1  0
 14 26  1  0
 16 27  1  0
 17 28  1  0
 18 29  1  0
 19 30  1  0
 21 31  1  0
M  CHG  2   3  -1   8  -1
M  END
>  <UniqueID>  (27) 
26

>  <SMILES>  (27) 
O=c1[n-]cccc1[N-]S(=O)(=O)c1ccc2ccccc2c1

>  <Energy>  (27) 
41.094596643567925

>  <Genealogy>  (27) 
O=c1[n-]cccc1[N-]S(=O)(=O)c1ccc2ccccc2c1 (protonated)
O=c1[n-]cccc1[N-]S(=O)(=O)c1ccc2ccccc2c1 (3D coordinates assigned)
O=c1[n-]cccc1[N-]S(=O)(=O)c1ccc2ccccc2c1 (optimized conformer: 41.094596643567925 kcal/mol)

>  <smiles>  (27) 
O=c1[nH]cccc1NS(=O)(=O)c1ccc2ccccc2c1

>  <score_type>  (27) 
oracle

>  <origin>  (27) 
adgpu

>  <m_score__min__energy>  (27) 
-11.31

>  <m_primary>  (27) 
energy

$$$$
27:0
     RDKit          3D

 37 38  0  0  0  0  0  0  0  0999 V2000
   -5.2610   21.5410  -32.6830 C   0  0  0  0  0  0  0  0  0  0  0  0
   -6.6100   20.9170  -32.4340 C   0  0  0  0  0  0  0  0  0  0  0  0
   -6.7400   19.5200  -32.5340 C   0  0  0  0  0  0  0  0  0  0  0  0
   -7.9760   18.9050  -32.3380 C   0  0  0  0  0  0  0  0  0  0  0  0
   -9.1010   19.6730  -32.0470 C   0  0  0  0  0  0  0  0  0  0  0  0
   -8.9900   21.0600  -31.9340 C   0  0  0  0  0  0  0  0  0  0  0  0
   -7.7460   21.6990  -32.0920 C   0  0  0  0  0  0  0  0  0  0  0  0
   -7.6760   23.2110  -31.9720 C   0  0  0  0  0  0  0  0  0  0  0  0
   -7.2510   23.6210  -30.6320 N   0  0  0  0  0  0  0  0  0  0  0  0
   -5.8790   23.8200  -30.2390 C   0  0  0  0  0  0  0  0  0  0  0  0
   -5.3380   23.0450  -29.2060 C   0  0  0  0  0  0  0  0  0  0  0  0
   -4.0100   23.2180  -28.8130 C   0  0  0  0  0  0  0  0  0  0  0  0
   -3.2100   24.1780  -29.4590 C   0  0  0  0  0  0  0  0  0  0  0  0
   -1.8280   24.3950  -29.0900 N   0  0  0  0  0  0  0  0  0  0  0  0
   -0.8200   23.4060  -29.4910 C   0  0  0  0  0  0  0  0  0  0  0  0
   -1.4180   25.5810  -28.3270 C   0  0  0  0  0  0  0  0  0  0  0  0
   -3.7630   24.9230  -30.4590 N   0  0  0  0  0  0  0  0  0  0  0  0
   -5.0530   24.7720  -30.8590 C   0  0  0  0  0  0  0  0  0  0  0  0
   -4.7773   21.7648  -31.7207 H   0  0  0  0  0  0  0  0  0  0  0  0
   -4.6335   20.8417  -33.2550 H   0  0  0  0  0  0  0  0  0  0  0  0
   -5.3876   22.4720  -33.2550 H   0  0  0  0  0  0  0  0  0  0  0  0
   -5.8578   18.9065  -32.7692 H   0  0  0  0  0  0  0  0  0  0  0  0
   -8.0628   17.8110  -32.4134 H   0  0  0  0  0  0  0  0  0  0  0  0
  -10.0774   19.1864  -31.9062 H   0  0  0  0  0  0  0  0  0  0  0  0
   -9.8859   21.6609  -31.7188 H   0  0  0  0  0  0  0  0  0  0  0  0
   -6.9560   23.5957  -32.7093 H   0  0  0  0  0  0  0  0  0  0  0  0
   -8.6802   23.6201  -32.1573 H   0  0  0  0  0  0  0  0  0  0  0  0
   -8.0000   23.7670  -29.9170 H   0  0  0  0  0  0  0  0  0  0  0  0
   -5.9639   22.2947  -28.7007 H   0  0  0  0  0  0  0  0  0  0  0  0
   -3.5904   22.6059  -28.0010 H   0  0  0  0  0  0  0  0  0  0  0  0
   -0.3660   22.9606  -28.5935 H   0  0  0  0  0  0  0  0  0  0  0  0
   -1.2983   22.6171  -30.0900 H   0  0  0  0  0  0  0  0  0  0  0  0
   -0.0403   23.8993  -30.0900 H   0  0  0  0  0  0  0  0  0  0  0  0
   -1.4917   25.3679  -27.2504 H   0  0  0  0  0  0  0  0  0  0  0  0
   -0.3788   25.8383  -28.5796 H   0  0  0  0  0  0  0  0  0  0  0  0
   -2.0765   26.4252  -28.5796 H   0  0  0  0  0  0  0  0  0  0  0  0
   -5.4517   25.3976  -31.6712 H   0  0  0  0  0  0  0  0  0  0  0  0
  1  2  1  0
  2  3  2  0
  3  4  1  0
  4  5  2  0
  5  6  1  0
  6  7  2  0
  7  8  1  0
  8  9  1  0
  9 10  1  0
 10 11  2  0
 11 12  1  0
 12 13  2  0
 13 14  1  0
 14 15  1  0
 14 16  1  0
 13 17  1  0
 17 18  2  0
  7  2  1  0
 18 10  1  0
  1 19  1  0
  1 20  1  0
  1 21  1  0
  3 22  1  0
  4 23  1  0
  5 24  1  0
  6 25  1  0
  8 26  1  0
  8 27  1  0
  9 28  1  0
 11 29  1  0
 12 30  1  0
 15 31  1  0
 15 32  1  0
 15 33  1  0
 16 34  1  0
 16 35  1  0
 16 36  1  0
 18 37  1  0
M  END
>  <UniqueID>  (28) 
27

>  <SMILES>  (28) 
Cc1ccccc1CNc1ccc(N(C)C)nc1

>  <Energy>  (28) 
37.756073423470625

>  <Genealogy>  (28) 
Cc1ccccc1CNc1ccc(N(C)C)nc1 (3D coordinates assigned)
Cc1ccccc1CNc1ccc(N(C)C)nc1 (optimized conformer: 37.756073423470625 kcal/mol)

>  <smiles>  (28) 
Cc1ccccc1CNc1ccc(N(C)C)nc1

>  <score_type>  (28) 
oracle

>  <origin>  (28) 
adgpu

>  <m_score__min__energy>  (28) 
-6.9100000000000001

>  <m_primary>  (28) 
energy

$$$$
28:0
     RDKit          3D

 51 56  0  0  0  0  0  0  0  0999 V2000
    0.6357   20.4203  -28.7655 H   0  0  0  0  0  0  0  0  0  0  0  0
   -0.3570   20.5580  -29.2190 C   0  0  0  0  0  0  0  0  0  0  0  0
   -1.4910   20.6310  -28.4090 C   0  0  0  0  0  0  0  0  0  0  0  0
   -1.3906   20.5507  -27.3165 H   0  0  0  0  0  0  0  0  0  0  0  0
   -2.7550   20.8060  -28.9820 C   0  0  0  0  0  0  0  0  0  0  0  0
   -3.6434   20.8683  -28.3364 H   0  0  0  0  0  0  0  0  0  0  0  0
   -2.8980   20.9030  -30.3790 C   0  0  0  0  0  0  0  0  0  0  0  0
   -4.2440   21.0940  -30.9720 C   0  0  0  0  0  0  0  0  0  0  0  0
   -4.7280   20.1690  -31.8410 N   0  0  0  0  0  0  0  0  0  0  0  0
   -5.9500   20.3200  -32.4140 C   0  0  0  0  0  0  0  0  0  0  0  0
   -6.4320   19.4270  -33.2280 N   0  0  0  0  0  0  0  0  0  0  0  0
   -5.7600   18.2490  -33.7060 C   0  0  0  0  0  0  0  0  0  0  0  0
   -4.5530   18.3250  -34.4570 C   0  0  0  0  0  0  0  0  0  0  0  0
   -4.1026   19.3065  -34.6661 H   0  0  0  0  0  0  0  0  0  0  0  0
   -3.9310   17.1580  -34.9340 C   0  0  0  0  0  0  0  0  0  0  0  0
   -2.9891   17.2082  -35.4999 H   0  0  0  0  0  0  0  0  0  0  0  0
   -4.5440   15.9370  -34.6680 C   0  0  0  0  0  0  0  0  0  0  0  0
   -5.7200   15.8590  -33.9730 C   0  0  0  0  0  0  0  0  0  0  0  0
   -6.3630   16.9950  -33.4850 C   0  0  0  0  0  0  0  0  0  0  0  0
   -7.3161   16.9147  -32.9417 H   0  0  0  0  0  0  0  0  0  0  0  0
   -6.0640   14.5270  -33.8900 C   0  0  0  0  0  0  0  0  0  0  0  0
   -6.9494   14.0940  -33.4014 H   0  0  0  0  0  0  0  0  0  0  0  0
   -5.0490   13.8480  -34.5580 C   0  0  0  0  0  0  0  0  0  0  0  0
   -5.0047   12.7561  -34.6835 H   0  0  0  0  0  0  0  0  0  0  0  0
   -4.1240   14.7150  -35.0320 N   0  0  0  0  0  0  0  0  0  0  0  0
   -3.2620   14.4770  -35.5720 H   0  0  0  0  0  0  0  0  0  0  0  0
   -6.7040   21.4020  -32.0980 N   0  0  0  0  0  0  0  0  0  0  0  0
   -6.2310   22.3370  -31.2360 C   0  0  0  0  0  0  0  0  0  0  0  0
   -7.2310   23.7710  -30.8480 S   0  0  0  0  0  0  0  0  0  0  0  0
   -5.8910   24.9490  -31.2160 C   0  0  0  0  0  0  0  0  0  0  0  0
   -5.4724   24.7299  -32.2093 H   0  0  0  0  0  0  0  0  0  0  0  0
   -6.2899   25.9741  -31.2049 H   0  0  0  0  0  0  0  0  0  0  0  0
   -4.8200   24.8200  -30.1850 C   0  0  0  0  0  0  0  0  0  0  0  0
   -5.0890   24.6280  -28.8660 N   0  0  0  0  0  0  0  0  0  0  0  0
   -3.8630   24.5420  -28.3310 C   0  0  0  0  0  0  0  0  0  0  0  0
   -3.5260   24.3510  -26.9930 C   0  0  0  0  0  0  0  0  0  0  0  0
   -4.3016   24.2445  -26.2203 H   0  0  0  0  0  0  0  0  0  0  0  0
   -2.1580   24.2990  -26.6640 C   0  0  0  0  0  0  0  0  0  0  0  0
   -1.8524   24.1540  -25.6173 H   0  0  0  0  0  0  0  0  0  0  0  0
   -1.1750   24.4320  -27.6710 C   0  0  0  0  0  0  0  0  0  0  0  0
   -0.1089   24.3846  -27.4042 H   0  0  0  0  0  0  0  0  0  0  0  0
   -1.5530   24.6250  -29.0150 C   0  0  0  0  0  0  0  0  0  0  0  0
   -0.7999   24.7337  -29.8094 H   0  0  0  0  0  0  0  0  0  0  0  0
   -2.9160   24.6730  -29.3000 C   0  0  0  0  0  0  0  0  0  0  0  0
   -3.4970   24.8500  -30.4960 N   0  0  0  0  0  0  0  0  0  0  0  0
   -5.0020   22.1890  -30.6760 N   0  0  0  0  0  0  0  0  0  0  0  0
   -4.6440   22.9370  -30.0420 H   0  0  0  0  0  0  0  0  0  0  0  0
   -1.7450   20.8360  -31.1850 C   0  0  0  0  0  0  0  0  0  0  0  0
   -1.8372   20.9228  -32.2777 H   0  0  0  0  0  0  0  0  0  0  0  0
   -0.4840   20.6600  -30.6070 C   0  0  0  0  0  0  0  0  0  0  0  0
    0.4096   20.6017  -31.2459 H   0  0  0  0  0  0  0  0  0  0  0  0
  1  2  1  0
  2  3  2  0
  3  4  1  0
  3  5  1  0
  5  6  1  0
  5  7  2  0
  7  8  1  0
  8  9  2  0
  9 10  1  0
 10 11  2  0
 11 12  1  0
 12 13  2  0
 13 14  1  0
 13 15  1  0
 15 16  1  0
 15 17  2  0
 17 18  1  0
 18 19  2  0
 19 20  1  0
 18 21  1  0
 21 22  1  0
 21 23  2  0
 23 24  1  0
 23 25  1  0
 25 26  1  0
 10 27  1  0
 27 28  2  0
 28 29  1  0
 29 30  1  0
 30 31  1  0
 30 32  1  0
 30 33  1  0
 33 34  2  0
 34 35  1  0
 35 36  2  0
 36 37  1  0
 36 38  1  0
 38 39  1  0
 38 40  2  0
 40 41  1  0
 40 42  1  0
 42 43  1  0
 42 44  2  0
 44 45  1  0
 28 46  1  0
 46 47  1  0
  7 48  1  0
 48 49  1  0
 48 50  2  0
 50 51  1  0
 50  2  1  0
 46  8  1  0
 19 12  1  0
 45 33  1  0
 25 17  1  0
 44 35  1  0
M  CHG  1  45  -1
M  END
>  <UniqueID>  (29) 
28

>  <SMILES>  (29) 
c1ccc(-c2n/c(=N\c3ccc4[nH]ccc4c3)nc(SCc3nc4ccccc4[n-]3)[nH]2)cc1

>  <Energy>  (29) 
131.25884901589754

>  <Genealogy>  (29) 
c1ccc(-c2nc(=Nc3ccc4[nH]ccc4c3)nc(SCc3nc4ccccc4[n-]3)[nH]2)cc1 (protonated)
c1ccc(-c2n/c(=N\c3ccc4[nH]ccc4c3)nc(SCc3nc4ccccc4[n-]3)[nH]2)cc1 (cis-trans isomerization)
c1ccc(-c2n/c(=N\c3ccc4[nH]ccc4c3)nc(SCc3nc4ccccc4[n-]3)[nH]2)cc1 (3D coordinates assigned)
c1ccc(-c2n/c(=N\c3ccc4[nH]ccc4c3)nc(SCc3nc4ccccc4[n-]3)[nH]2)cc1 (optimized conformer: 131.25884901589754 kcal/mol)

>  <smiles>  (29) 
c1ccc(-c2nc(=Nc3ccc4[nH]ccc4c3)nc(SCc3nc4ccccc4[nH]3)[nH]2)cc1

>  <score_type>  (29) 
oracle

>  <origin>  (29) 
adgpu

>  <m_score__min__energy>  (29) 
-9.6799999999999997

>  <m_primary>  (29) 
energy

$$$$
29:0
     RDKit          3D

 36 37  0  0  0  0  0  0  0  0999 V2000
   -0.9640   22.7460  -27.4140 N   0  0  0  0  0  0  0  0  0  0  0  0
   -1.7700   22.8460  -28.2390 C   0  0  0  0  0  0  0  0  0  0  0  0
   -2.7930   22.9740  -29.2880 C   0  0  2  0  0  0  0  0  0  0  0  0
   -2.4280   22.0700  -30.4430 C   0  0  0  0  0  0  0  0  0  0  0  0
   -1.3820   21.3010  -30.3670 N   0  0  0  0  0  0  0  0  0  0  0  0
   -3.1960   22.1330  -31.6580 N   0  0  0  0  0  0  0  0  0  0  0  0
   -3.5240   20.9840  -32.4580 C   0  0  0  0  0  0  0  0  0  0  0  0
   -4.8640   20.5940  -32.6500 C   0  0  0  0  0  0  0  0  0  0  0  0
   -5.1740   19.4990  -33.4610 C   0  0  0  0  0  0  0  0  0  0  0  0
   -4.1540   18.7890  -34.0960 C   0  0  0  0  0  0  0  0  0  0  0  0
   -2.8220   19.1740  -33.9260 C   0  0  0  0  0  0  0  0  0  0  0  0
   -2.5020   20.2720  -33.1140 C   0  0  0  0  0  0  0  0  0  0  0  0
   -1.1700   20.6520  -32.9490 O   0  0  0  0  0  0  0  0  0  0  0  0
   -2.9420   24.4030  -29.7510 C   0  0  0  0  0  0  0  0  0  0  0  0
   -2.1650   25.2980  -29.3160 O   0  0  0  0  0  0  0  0  0  0  0  0
   -3.9880   24.7360  -30.6750 N   0  0  0  0  0  0  0  0  0  0  0  0
   -5.2470   24.0700  -30.8370 C   0  0  0  0  0  0  0  0  0  0  0  0
   -5.7460   23.8890  -32.1330 C   0  0  0  0  0  0  0  0  0  0  0  0
   -6.9620   23.2300  -32.3390 C   0  0  0  0  0  0  0  0  0  0  0  0
   -7.6820   22.7320  -31.2480 C   0  0  0  0  0  0  0  0  0  0  0  0
   -9.2070   21.9040  -31.5070 Cl  0  0  0  0  0  0  0  0  0  0  0  0
   -7.1790   22.8870  -29.9530 C   0  0  0  0  0  0  0  0  0  0  0  0
   -5.9640   23.5470  -29.7450 C   0  0  0  0  0  0  0  0  0  0  0  0
   -3.7655   22.6706  -28.8731 H   0  0  0  0  0  0  0  0  0  0  0  0
   -0.7950   21.2640  -29.5040 H   0  0  0  0  0  0  0  0  0  0  0  0
   -1.0830   20.7160  -31.1790 H   0  0  0  0  0  0  0  0  0  0  0  0
   -3.6080   23.0560  -31.9250 H   0  0  0  0  0  0  0  0  0  0  0  0
   -5.6720   21.1554  -32.1581 H   0  0  0  0  0  0  0  0  0  0  0  0
   -6.2226   19.1965  -33.5990 H   0  0  0  0  0  0  0  0  0  0  0  0
   -4.3993   17.9251  -34.7312 H   0  0  0  0  0  0  0  0  0  0  0  0
   -2.0211   18.6140  -34.4308 H   0  0  0  0  0  0  0  0  0  0  0  0
   -0.5450   20.7530  -33.7400 H   0  0  0  0  0  0  0  0  0  0  0  0
   -5.1773   24.2679  -32.9950 H   0  0  0  0  0  0  0  0  0  0  0  0
   -7.3526   23.1032  -33.3595 H   0  0  0  0  0  0  0  0  0  0  0  0
   -7.7406   22.4886  -29.0952 H   0  0  0  0  0  0  0  0  0  0  0  0
   -5.5676   23.6577  -28.7249 H   0  0  0  0  0  0  0  0  0  0  0  0
  1  2  3  0
  2  3  1  0
  3  4  1  0
  4  5  2  0
  4  6  1  0
  6  7  1  0
  7  8  2  0
  8  9  1  0
  9 10  2  0
 10 11  1  0
 11 12  2  0
 12 13  1  0
  3 14  1  0
 14 15  2  0
 14 16  1  0
 16 17  1  0
 17 18  2  0
 18 19  1  0
 19 20  2  0
 20 21  1  0
 20 22  1  0
 22 23  2  0
 12  7  1  0
 23 17  1  0
  3 24  1  1
  5 25  1  0
  5 26  1  0
  6 27  1  0
  8 28  1  0
  9 29  1  0
 10 30  1  0
 11 31  1  0
 13 32  1  0
 18 33  1  0
 19 34  1  0
 22 35  1  0
 23 36  1  0
M  CHG  2   5   1  16  -1
M  END
>  <UniqueID>  (30) 
29

>  <SMILES>  (30) 
N#C[C@H](C(=[NH2+])Nc1ccccc1O)C(=O)[N-]c1ccc(Cl)cc1

>  <Energy>  (30) 
42.44614871031266

>  <Genealogy>  (30) 
N#CC(C(=[NH2+])Nc1ccccc1O)C(=O)[N-]c1ccc(Cl)cc1 (protonated)
N#C[C@H](C(=[NH2+])Nc1ccccc1O)C(=O)[N-]c1ccc(Cl)cc1 (chirality)
N#C[C@H](C(=[NH2+])Nc1ccccc1O)C(=O)[N-]c1ccc(Cl)cc1 (3D coordinates assigned)
N#C[C@H](C(=[NH2+])Nc1ccccc1O)C(=O)[N-]c1ccc(Cl)cc1 (optimized conformer: 42.44614871031266 kcal/mol)

>  <smiles>  (30) 
N#CC(C(=N)Nc1ccccc1O)C(=O)Nc1ccc(Cl)cc1

>  <score_type>  (30) 
oracle

>  <origin>  (30) 
adgpu

>  <m_score__min__energy>  (30) 
-8.4700000000000006

>  <m_primary>  (30) 
energy

$$$$
30:0
     RDKit          3D

 36 38  0  0  0  0  0  0  0  0999 V2000
   -3.3002   19.3316  -27.1982 H   0  0  0  0  0  0  0  0  0  0  0  0
   -2.8380   20.1770  -27.7290 C   0  0  0  0  0  0  0  0  0  0  0  0
   -3.3580   21.3950  -27.5230 C   0  0  0  0  0  0  0  0  0  0  0  0
   -4.2966   21.4549  -26.9525 H   0  0  0  0  0  0  0  0  0  0  0  0
   -2.7710   22.6630  -28.0010 C   0  0  0  0  0  0  0  0  0  0  0  0
   -1.6320   23.2140  -27.3900 C   0  0  0  0  0  0  0  0  0  0  0  0
   -1.1416   22.6790  -26.5634 H   0  0  0  0  0  0  0  0  0  0  0  0
   -1.1190   24.4380  -27.8270 C   0  0  0  0  0  0  0  0  0  0  0  0
   -0.2173   24.8557  -27.3553 H   0  0  0  0  0  0  0  0  0  0  0  0
   -1.7510   25.1330  -28.8640 C   0  0  0  0  0  0  0  0  0  0  0  0
   -1.2360   26.3490  -29.2960 O   0  0  0  0  0  0  0  0  0  0  0  0
   -2.9050   24.6050  -29.4570 C   0  0  0  0  0  0  0  0  0  0  0  0
   -3.5440   25.2970  -30.4800 O   0  0  0  0  0  0  0  0  0  0  0  0
   -3.4180   23.3790  -29.0190 C   0  0  0  0  0  0  0  0  0  0  0  0
   -4.3335   22.9746  -29.4754 H   0  0  0  0  0  0  0  0  0  0  0  0
   -1.6930   19.8820  -28.6130 C   0  0  0  0  0  0  0  0  0  0  0  0
   -0.7860   18.9560  -28.4120 O   0  0  0  0  0  0  0  0  0  0  0  0
    0.1090   18.9610  -29.3560 N   0  0  0  0  0  0  0  0  0  0  0  0
   -0.2280   19.9440  -30.2130 C   0  0  0  0  0  0  0  0  0  0  0  0
    0.5580   20.2540  -31.4220 C   0  0  0  0  0  0  0  0  0  0  0  0
    1.6529   20.3156  -31.3362 H   0  0  0  0  0  0  0  0  0  0  0  0
   -0.0040   20.4640  -32.6210 C   0  0  0  0  0  0  0  0  0  0  0  0
   -1.0988   20.3931  -32.7015 H   0  0  0  0  0  0  0  0  0  0  0  0
    0.7700   20.7870  -33.8460 C   0  0  0  0  0  0  0  0  0  0  0  0
    2.0890   20.3100  -33.9530 C   0  0  0  0  0  0  0  0  0  0  0  0
    2.5185   19.7063  -33.1400 H   0  0  0  0  0  0  0  0  0  0  0  0
    2.8580   20.5970  -35.0840 C   0  0  0  0  0  0  0  0  0  0  0  0
    3.8851   20.2109  -35.1612 H   0  0  0  0  0  0  0  0  0  0  0  0
    2.3260   21.3730  -36.1170 C   0  0  0  0  0  0  0  0  0  0  0  0
    3.0920   21.6580  -37.2400 O   0  0  0  0  0  0  0  0  0  0  0  0
    1.0220   21.8660  -36.0160 C   0  0  0  0  0  0  0  0  0  0  0  0
    0.6034   22.4794  -36.8275 H   0  0  0  0  0  0  0  0  0  0  0  0
    0.2480   21.5820  -34.8870 C   0  0  0  0  0  0  0  0  0  0  0  0
   -0.7742   21.9811  -34.8103 H   0  0  0  0  0  0  0  0  0  0  0  0
   -1.3830   20.5660  -29.7680 C   0  0  0  0  0  0  0  0  0  0  0  0
   -1.9240   21.4063  -30.2276 H   0  0  0  0  0  0  0  0  0  0  0  0
  1  2  1  0
  2  3  2  0
  3  4  1  0
  3  5  1  0
  5  6  2  0
  6  7  1  0
  6  8  1  0
  8  9  1  0
  8 10  2  0
 10 11  1  0
 10 12  1  0
 12 13  1  0
 12 14  2  0
 14 15  1  0
  2 16  1  0
 16 17  1  0
 17 18  1  0
 18 19  2  0
 19 20  1  0
 20 21  1  0
 20 22  2  0
 22 23  1  0
 22 24  1  0
 24 25  2  0
 25 26  1  0
 25 27  1  0
 27 28  1  0
 27 29  2  0
 29 30  1  0
 29 31  1  0
 31 32  1  0
 31 33  2  0
 33 34  1  0
 19 35  1  0
 35 36  1  0
 14  5  1  0
 35 16  2  0
 33 24  1  0
M  CHG  3  11  -1  13  -1  30  -1
M  END
>  <UniqueID>  (31) 
30

>  <SMILES>  (31) 
[O-]c1ccc(/C=C/c2cc(/C=C\c3ccc([O-])c([O-])c3)on2)cc1

>  <Energy>  (31) 
78.26153729501092

>  <Genealogy>  (31) 
[O-]c1ccc(C=Cc2cc(C=Cc3ccc([O-])c([O-])c3)on2)cc1 (protonated)
[O-]c1ccc(/C=C/c2cc(/C=C\c3ccc([O-])c([O-])c3)on2)cc1 (cis-trans isomerization)
[O-]c1ccc(/C=C/c2cc(/C=C\c3ccc([O-])c([O-])c3)on2)cc1 (3D coordinates assigned)
[O-]c1ccc(/C=C/c2cc(/C=C\c3ccc([O-])c([O-])c3)on2)cc1 (optimized conformer: 78.26153729501092 kcal/mol)

>  <smiles>  (31) 
Oc1ccc(C=Cc2cc(C=Cc3ccc(O)c(O)c3)on2)cc1

>  <score_type>  (31) 
oracle

>  <origin>  (31) 
adgpu

>  <m_score__min__energy>  (31) 
-13.75

>  <m_primary>  (31) 
energy

$$$$
31:0
     RDKit          3D

 25 25  0  0  0  0  0  0  0  0999 V2000
   -3.3770   21.0720  -27.4070 H   0  0  0  0  0  0  0  0  0  0  0  0
   -2.6970   21.8660  -27.4100 N   0  0  0  0  0  0  0  0  0  0  0  0
   -2.8140   22.8520  -28.2380 C   0  0  0  0  0  0  0  0  0  0  0  0
   -3.8360   22.8780  -29.1330 N   0  0  0  0  0  0  0  0  0  0  0  0
   -3.9620   23.9120  -30.0060 C   0  0  0  0  0  0  0  0  0  0  0  0
   -5.0530   23.9400  -30.9540 N   0  0  0  0  0  0  0  0  0  0  0  0
   -5.1760   22.8820  -31.9700 C   0  0  0  0  0  0  0  0  0  0  0  0
   -4.7133   23.2256  -32.9069 H   0  0  0  0  0  0  0  0  0  0  0  0
   -4.6681   21.9781  -31.6025 H   0  0  0  0  0  0  0  0  0  0  0  0
   -6.6420   22.5500  -32.2280 C   0  0  0  0  0  0  0  0  0  0  0  0
   -7.1656   22.4314  -31.2679 H   0  0  0  0  0  0  0  0  0  0  0  0
   -7.1073   23.3655  -32.8011 H   0  0  0  0  0  0  0  0  0  0  0  0
   -6.7105   21.6136  -32.8011 H   0  0  0  0  0  0  0  0  0  0  0  0
   -6.0860   24.9840  -30.8610 C   0  0  0  0  0  0  0  0  0  0  0  0
   -5.8360   25.8022  -31.5525 H   0  0  0  0  0  0  0  0  0  0  0  0
   -7.0586   24.5442  -31.1265 H   0  0  0  0  0  0  0  0  0  0  0  0
   -6.1680   25.5360  -29.4400 C   0  0  0  0  0  0  0  0  0  0  0  0
   -6.0459   24.7137  -28.7196 H   0  0  0  0  0  0  0  0  0  0  0  0
   -5.3702   26.2780  -29.2883 H   0  0  0  0  0  0  0  0  0  0  0  0
   -7.1470   26.0140  -29.2883 H   0  0  0  0  0  0  0  0  0  0  0  0
   -3.0550   24.9250  -29.9700 N   0  0  0  0  0  0  0  0  0  0  0  0
   -2.0320   24.9030  -29.0770 C   0  0  0  0  0  0  0  0  0  0  0  0
   -1.1710   25.8660  -29.0480 N   0  0  0  0  0  0  0  0  0  0  0  0
   -1.2370   26.6780  -29.7020 H   0  0  0  0  0  0  0  0  0  0  0  0
   -1.9140   23.8650  -28.2120 N   0  0  0  0  0  0  0  0  0  0  0  0
  1  2  1  0
  2  3  2  0
  3  4  1  0
  4  5  2  0
  5  6  1  0
  6  7  1  0
  7  8  1  0
  7  9  1  0
  7 10  1  0
 10 11  1  0
 10 12  1  0
 10 13  1  0
  6 14  1  0
 14 15  1  0
 14 16  1  0
 14 17  1  0
 17 18  1  0
 17 19  1  0
 17 20  1  0
  5 21  1  0
 21 22  1  0
 22 23  2  0
 23 24  1  0
 22 25  1  0
 25  3  1  0
M  CHG  2  21  -1  25  -1
M  END
>  <UniqueID>  (32) 
31

>  <SMILES>  (32) 
[H]/N=c1\nc(N(CC)CC)[n-]/c(=N\[H])[n-]1

>  <Energy>  (32) 
16.11960688127082

>  <Genealogy>  (32) 
CCN(CC)c1nc(=N)[n-]c(=N)[n-]1 (protonated)
[H]/N=c1\nc(N(CC)CC)[n-]/c(=N\[H])[n-]1 (cis-trans isomerization)
[H]/N=c1\nc(N(CC)CC)[n-]/c(=N\[H])[n-]1 (3D coordinates assigned)
[H]/N=c1\nc(N(CC)CC)[n-]/c(=N\[H])[n-]1 (optimized conformer: 16.11960688127082 kcal/mol)

>  <smiles>  (32) 
CCN(CC)c1nc(=N)[nH]c(=N)[nH]1

>  <score_type>  (32) 
oracle

>  <origin>  (32) 
adgpu

>  <m_score__min__energy>  (32) 
-6.6799999999999997

>  <m_primary>  (32) 
energy

$$$$
32:0
     RDKit          3D

 48 49  0  0  0  0  0  0  0  0999 V2000
   -4.1350   23.0820  -27.4730 C   0  0  0  0  0  0  0  0  0  0  0  0
   -4.0790   24.5430  -27.4010 N   0  0  0  0  0  0  0  0  0  0  0  0
   -2.8540   25.0030  -26.7290 C   0  0  0  0  0  0  0  0  0  0  0  0
   -1.8300   25.5100  -27.7050 C   0  0  0  0  0  0  0  0  0  0  0  0
   -0.8890   26.2420  -27.2970 O   0  0  0  0  0  0  0  0  0  0  0  0
   -1.9710   25.2120  -29.1000 N   0  0  0  0  0  0  0  0  0  0  0  0
   -1.8120   23.9210  -29.7120 C   0  0  0  0  0  0  0  0  0  0  0  0
   -0.6350   23.1750  -29.5330 C   0  0  0  0  0  0  0  0  0  0  0  0
   -0.5210   21.8880  -30.0620 C   0  0  0  0  0  0  0  0  0  0  0  0
   -1.5910   21.3080  -30.7650 C   0  0  0  0  0  0  0  0  0  0  0  0
   -1.4820   19.9070  -31.3390 C   0  0  0  0  0  0  0  0  0  0  0  0
   -2.2820   19.7790  -32.6390 C   0  0  0  0  0  0  0  0  0  0  0  0
   -0.0170   19.5090  -31.5490 C   0  0  0  0  0  0  0  0  0  0  0  0
   -2.7760   22.0430  -30.9260 C   0  0  0  0  0  0  0  0  0  0  0  0
   -2.8910   23.3460  -30.4160 C   0  0  0  0  0  0  0  0  0  0  0  0
   -4.1520   24.0890  -30.6320 C   0  0  0  0  0  0  0  0  0  0  0  0
   -4.1350   25.3460  -30.5360 O   0  0  0  0  0  0  0  0  0  0  0  0
   -5.4310   23.3940  -30.9220 C   0  0  0  0  0  0  0  0  0  0  0  0
   -6.4230   23.2970  -29.9310 C   0  0  0  0  0  0  0  0  0  0  0  0
   -7.6250   22.6350  -30.1930 C   0  0  0  0  0  0  0  0  0  0  0  0
   -7.8550   22.0480  -31.4520 C   0  0  0  0  0  0  0  0  0  0  0  0
   -9.0490   21.3800  -31.7650 O   0  0  0  0  0  0  0  0  0  0  0  0
   -9.1150   20.0810  -32.3410 C   0  0  0  0  0  0  0  0  0  0  0  0
   -6.8620   22.1300  -32.4330 C   0  0  0  0  0  0  0  0  0  0  0  0
   -5.6610   22.7960  -32.1750 C   0  0  0  0  0  0  0  0  0  0  0  0
   -4.1510   22.6651  -26.4552 H   0  0  0  0  0  0  0  0  0  0  0  0
   -5.0455   22.7759  -28.0090 H   0  0  0  0  0  0  0  0  0  0  0  0
   -3.2506   22.7071  -28.0090 H   0  0  0  0  0  0  0  0  0  0  0  0
   -4.1120   24.9290  -28.3740 H   0  0  0  0  0  0  0  0  0  0  0  0
   -3.1142   25.8151  -26.0341 H   0  0  0  0  0  0  0  0  0  0  0  0
   -2.4180   24.1455  -26.1955 H   0  0  0  0  0  0  0  0  0  0  0  0
    0.2048   23.6091  -28.9706 H   0  0  0  0  0  0  0  0  0  0  0  0
    0.4135   21.3235  -29.9276 H   0  0  0  0  0  0  0  0  0  0  0  0
   -1.9173   19.2096  -30.6081 H   0  0  0  0  0  0  0  0  0  0  0  0
   -3.3426   19.6093  -32.4017 H   0  0  0  0  0  0  0  0  0  0  0  0
   -2.1808   20.7048  -33.2244 H   0  0  0  0  0  0  0  0  0  0  0  0
   -1.8970   18.9310  -33.2244 H   0  0  0  0  0  0  0  0  0  0  0  0
    0.4706   19.3765  -30.5719 H   0  0  0  0  0  0  0  0  0  0  0  0
    0.0295   18.5657  -32.1129 H   0  0  0  0  0  0  0  0  0  0  0  0
    0.5004   20.2991  -32.1129 H   0  0  0  0  0  0  0  0  0  0  0  0
   -3.6260   21.5920  -31.4590 H   0  0  0  0  0  0  0  0  0  0  0  0
   -6.2516   23.7458  -28.9415 H   0  0  0  0  0  0  0  0  0  0  0  0
   -8.3962   22.5720  -29.4112 H   0  0  0  0  0  0  0  0  0  0  0  0
   -9.1533   19.3268  -31.5412 H   0  0  0  0  0  0  0  0  0  0  0  0
  -10.0183   20.0014  -32.9636 H   0  0  0  0  0  0  0  0  0  0  0  0
   -8.2244   19.9103  -32.9636 H   0  0  0  0  0  0  0  0  0  0  0  0
   -7.0277   21.6661  -33.4165 H   0  0  0  0  0  0  0  0  0  0  0  0
   -4.8896   22.8533  -32.9571 H   0  0  0  0  0  0  0  0  0  0  0  0
  1  2  1  0
  2  3  1  0
  3  4  1  0
  4  5  2  0
  4  6  1  0
  6  7  1  0
  7  8  2  0
  8  9  1  0
  9 10  2  0
 10 11  1  0
 11 12  1  0
 11 13  1  0
 10 14  1  0
 14 15  2  0
 15 16  1  0
 16 17  2  0
 16 18  1  0
 18 19  2  0
 19 20  1  0
 20 21  2  0
 21 22  1  0
 22 23  1  0
 21 24  1  0
 24 25  2  0
 15  7  1  0
 25 18  1  0
  1 26  1  0
  1 27  1  0
  1 28  1  0
  2 29  1  0
  3 30  1  0
  3 31  1  0
  8 32  1  0
  9 33  1  0
 11 34  1  0
 12 35  1  0
 12 36  1  0
 12 37  1  0
 13 38  1  0
 13 39  1  0
 13 40  1  0
 14 41  1  0
 19 42  1  0
 20 43  1  0
 23 44  1  0
 23 45  1  0
 23 46  1  0
 24 47  1  0
 25 48  1  0
M  CHG  1   6  -1
M  END
>  <UniqueID>  (33) 
32

>  <SMILES>  (33) 
CNCC(=O)[N-]c1ccc(C(C)C)cc1C(=O)c1ccc(OC)cc1

>  <Energy>  (33) 
50.983082541984

>  <Genealogy>  (33) 
CNCC(=O)[N-]c1ccc(C(C)C)cc1C(=O)c1ccc(OC)cc1 (protonated)
CNCC(=O)[N-]c1ccc(C(C)C)cc1C(=O)c1ccc(OC)cc1 (3D coordinates assigned)
CNCC(=O)[N-]c1ccc(C(C)C)cc1C(=O)c1ccc(OC)cc1 (optimized conformer: 50.983082541984 kcal/mol)

>  <smiles>  (33) 
CNCC(=O)Nc1ccc(C(C)C)cc1C(=O)c1ccc(OC)cc1

>  <score_type>  (33) 
oracle

>  <origin>  (33) 
adgpu

>  <m_score__min__energy>  (33) 
-8.9399999999999995

>  <m_primary>  (33) 
energy

$$$$
33:0
     RDKit          3D

 47 49  0  0  0  0  0  0  0  0999 V2000
   -8.4930   21.9290  -30.5050 C   0  0  0  0  0  0  0  0  0  0  0  0
   -7.1210   22.4840  -30.7660 C   0  0  0  0  0  0  0  0  0  0  0  0
   -6.4860   23.2610  -29.7850 C   0  0  0  0  0  0  0  0  0  0  0  0
   -5.1990   23.7860  -30.0030 C   0  0  0  0  0  0  0  0  0  0  0  0
   -4.5420   24.6120  -29.0270 N   0  0  0  0  0  0  0  0  0  0  0  0
   -2.9010   24.3700  -28.5150 S   0  0  0  0  0  0  0  0  0  0  0  0
   -2.0010   25.2930  -29.2880 O   0  0  0  0  0  0  0  0  0  0  0  0
   -2.7830   24.6870  -27.0520 O   0  0  0  0  0  0  0  0  0  0  0  0
   -2.4450   22.6860  -28.7670 C   0  0  0  0  0  0  0  0  0  0  0  0
   -2.5940   21.7450  -27.7400 C   0  0  0  0  0  0  0  0  0  0  0  0
   -2.1810   20.4160  -27.9250 C   0  0  0  0  0  0  0  0  0  0  0  0
   -2.2680   19.4260  -26.7920 C   0  0  0  0  0  0  0  0  0  0  0  0
   -3.5620   18.9450  -26.7070 F   0  0  0  0  0  0  0  0  0  0  0  0
   -1.9310   20.0270  -25.5910 F   0  0  0  0  0  0  0  0  0  0  0  0
   -1.4050   18.3630  -27.0000 F   0  0  0  0  0  0  0  0  0  0  0  0
   -1.5860   20.0480  -29.1450 C   0  0  0  0  0  0  0  0  0  0  0  0
   -1.4610   20.9770  -30.1930 C   0  0  0  0  0  0  0  0  0  0  0  0
   -0.7820   20.5850  -31.4820 C   0  0  0  0  0  0  0  0  0  0  0  0
    0.5840   20.5270  -31.2760 F   0  0  0  0  0  0  0  0  0  0  0  0
   -1.0480   21.5110  -32.4760 F   0  0  0  0  0  0  0  0  0  0  0  0
   -1.2270   19.3480  -31.9130 F   0  0  0  0  0  0  0  0  0  0  0  0
   -1.8790   22.3000  -29.9860 C   0  0  0  0  0  0  0  0  0  0  0  0
   -4.5410   23.4910  -31.2050 C   0  0  0  0  0  0  0  0  0  0  0  0
   -5.1550   22.6980  -32.1750 C   0  0  0  0  0  0  0  0  0  0  0  0
   -6.4390   22.1720  -31.9580 C   0  0  0  0  0  0  0  0  0  0  0  0
   -7.0750   21.3780  -32.9260 O   0  0  0  0  0  0  0  0  0  0  0  0
   -6.9710   19.9830  -33.0330 C   0  0  0  0  0  0  0  0  0  0  0  0
   -7.7440   19.1150  -32.2380 C   0  0  0  0  0  0  0  0  0  0  0  0
   -7.6250   17.7290  -32.3890 C   0  0  0  0  0  0  0  0  0  0  0  0
   -6.7420   17.2010  -33.3360 C   0  0  0  0  0  0  0  0  0  0  0  0
   -6.6270   15.8580  -33.4810 F   0  0  0  0  0  0  0  0  0  0  0  0
   -5.9860   18.0590  -34.1390 C   0  0  0  0  0  0  0  0  0  0  0  0
   -6.1050   19.4450  -33.9920 C   0  0  0  0  0  0  0  0  0  0  0  0
   -8.6608   21.8611  -29.4200 H   0  0  0  0  0  0  0  0  0  0  0  0
   -9.2480   22.5924  -30.9520 H   0  0  0  0  0  0  0  0  0  0  0  0
   -8.5744   20.9272  -30.9520 H   0  0  0  0  0  0  0  0  0  0  0  0
   -7.0008   23.4621  -28.8339 H   0  0  0  0  0  0  0  0  0  0  0  0
   -5.1010   25.3220  -28.5030 H   0  0  0  0  0  0  0  0  0  0  0  0
   -3.0381   22.0498  -26.7809 H   0  0  0  0  0  0  0  0  0  0  0  0
   -1.2142   19.0217  -29.2809 H   0  0  0  0  0  0  0  0  0  0  0  0
   -1.7604   23.0409  -30.7904 H   0  0  0  0  0  0  0  0  0  0  0  0
   -3.5312   23.8884  -31.3852 H   0  0  0  0  0  0  0  0  0  0  0  0
   -4.6293   22.4831  -33.1170 H   0  0  0  0  0  0  0  0  0  0  0  0
   -8.4434   19.5277  -31.4961 H   0  0  0  0  0  0  0  0  0  0  0  0
   -8.2266   17.0542  -31.7622 H   0  0  0  0  0  0  0  0  0  0  0  0
   -5.2959   17.6437  -34.8882 H   0  0  0  0  0  0  0  0  0  0  0  0
   -5.5147   20.1158  -34.6336 H   0  0  0  0  0  0  0  0  0  0  0  0
  1  2  1  0
  2  3  2  0
  3  4  1  0
  4  5  1  0
  5  6  1  0
  6  7  2  0
  6  8  2  0
  6  9  1  0
  9 10  2  0
 10 11  1  0
 11 12  1  0
 12 13  1  0
 12 14  1  0
 12 15  1  0
 11 16  2  0
 16 17  1  0
 17 18  1  0
 18 19  1  0
 18 20  1  0
 18 21  1  0
 17 22  2  0
  4 23  2  0
 23 24  1  0
 24 25  2  0
 25 26  1  0
 26 27  1  0
 27 28  2  0
 28 29  1  0
 29 30  2  0
 30 31  1  0
 30 32  1  0
 32 33  2  0
 25  2  1  0
 33 27  1  0
 22  9  1  0
  1 34  1  0
  1 35  1  0
  1 36  1  0
  3 37  1  0
  5 38  1  0
 10 39  1  0
 16 40  1  0
 22 41  1  0
 23 42  1  0
 24 43  1  0
 28 44  1  0
 29 45  1  0
 32 46  1  0
 33 47  1  0
M  END
>  <UniqueID>  (34) 
33

>  <SMILES>  (34) 
Cc1cc(NS(=O)(=O)c2cc(C(F)(F)F)cc(C(F)(F)F)c2)ccc1Oc1ccc(F)cc1

>  <Energy>  (34) 
58.797617618465424

>  <Genealogy>  (34) 
Cc1cc(NS(=O)(=O)c2cc(C(F)(F)F)cc(C(F)(F)F)c2)ccc1Oc1ccc(F)cc1 (3D coordinates assigned)
Cc1cc(NS(=O)(=O)c2cc(C(F)(F)F)cc(C(F)(F)F)c2)ccc1Oc1ccc(F)cc1 (optimized conformer: 58.797617618465424 kcal/mol)

>  <smiles>  (34) 
Cc1cc(NS(=O)(=O)c2cc(C(F)(F)F)cc(C(F)(F)F)c2)ccc1Oc1ccc(F)cc1

>  <score_type>  (34) 
oracle

>  <origin>  (34) 
adgpu

>  <m_score__min__energy>  (34) 
-9.0700000000000003

>  <m_primary>  (34) 
energy

$$$$
34:0
     RDKit          3D

 52 54  0  0  0  0  0  0  0  0999 V2000
   -4.6370   13.2770  -30.8890 C   0  0  0  0  0  0  0  0  0  0  0  0
   -4.6550   12.3430  -32.0980 C   0  0  0  0  0  0  0  0  0  0  0  0
   -3.6300   12.7370  -33.1770 C   0  0  0  0  0  0  0  0  0  0  0  0
   -4.2200   12.8040  -34.5970 C   0  0  0  0  0  0  0  0  0  0  0  0
   -5.4930   13.5460  -34.6450 N   0  0  0  0  0  0  0  0  0  0  0  0
   -6.6760   12.9070  -35.2370 C   0  0  0  0  0  0  0  0  0  0  0  0
   -5.5770   14.9290  -34.2190 C   0  0  0  0  0  0  0  0  0  0  0  0
   -4.4140   15.7020  -34.0320 C   0  0  0  0  0  0  0  0  0  0  0  0
   -4.5020   17.0340  -33.6170 C   0  0  0  0  0  0  0  0  0  0  0  0
   -5.7530   17.6250  -33.3810 C   0  0  0  0  0  0  0  0  0  0  0  0
   -5.8440   19.0350  -32.9420 C   0  0  0  0  0  0  0  0  0  0  0  0
   -6.9420   19.8000  -33.0990 N   0  0  0  0  0  0  0  0  0  0  0  0
   -6.6240   20.9520  -32.5910 O   0  0  0  0  0  0  0  0  0  0  0  0
   -5.3920   20.9130  -32.1400 C   0  0  0  0  0  0  0  0  0  0  0  0
   -4.7040   22.0510  -31.5000 C   0  0  0  0  0  0  0  0  0  0  0  0
   -5.3920   23.2530  -31.2750 C   0  0  0  0  0  0  0  0  0  0  0  0
   -4.7450   24.3450  -30.6660 C   0  0  0  0  0  0  0  0  0  0  0  0
   -5.4010   25.5630  -30.4240 O   0  0  0  0  0  0  0  0  0  0  0  0
   -6.4560   25.7390  -29.4850 C   0  0  0  0  0  0  0  0  0  0  0  0
   -3.4030   24.2220  -30.2840 C   0  0  0  0  0  0  0  0  0  0  0  0
   -2.7590   25.2980  -29.6830 O   0  0  0  0  0  0  0  0  0  0  0  0
   -2.7020   23.0290  -30.5020 C   0  0  0  0  0  0  0  0  0  0  0  0
   -1.3600   22.9600  -30.0980 O   0  0  0  0  0  0  0  0  0  0  0  0
   -0.9130   23.0920  -28.7530 C   0  0  0  0  0  0  0  0  0  0  0  0
   -3.3590   21.9440  -31.1110 C   0  0  0  0  0  0  0  0  0  0  0  0
   -4.8370   19.7000  -32.3380 N   0  0  0  0  0  0  0  0  0  0  0  0
   -6.9150   16.8610  -33.5710 C   0  0  0  0  0  0  0  0  0  0  0  0
   -6.8280   15.5300  -33.9880 C   0  0  0  0  0  0  0  0  0  0  0  0
   -4.6485   12.6806  -29.9648 H   0  0  0  0  0  0  0  0  0  0  0  0
   -3.7268   13.8941  -30.9159 H   0  0  0  0  0  0  0  0  0  0  0  0
   -5.5228   13.9287  -30.9159 H   0  0  0  0  0  0  0  0  0  0  0  0
   -4.4292   11.3222  -31.7559 H   0  0  0  0  0  0  0  0  0  0  0  0
   -5.6544   12.4118  -32.5524 H   0  0  0  0  0  0  0  0  0  0  0  0
   -3.2222   13.7267  -32.9235 H   0  0  0  0  0  0  0  0  0  0  0  0
   -2.8573   11.9542  -33.1870 H   0  0  0  0  0  0  0  0  0  0  0  0
   -3.4954   13.3036  -35.2569 H   0  0  0  0  0  0  0  0  0  0  0  0
   -4.4214   11.7733  -34.9242 H   0  0  0  0  0  0  0  0  0  0  0  0
   -7.3390   12.5489  -34.4356 H   0  0  0  0  0  0  0  0  0  0  0  0
   -7.2143   13.6371  -35.8593 H   0  0  0  0  0  0  0  0  0  0  0  0
   -6.3606   12.0566  -35.8593 H   0  0  0  0  0  0  0  0  0  0  0  0
   -3.4266   15.2528  -34.2144 H   0  0  0  0  0  0  0  0  0  0  0  0
   -3.5841   17.6232  -33.4744 H   0  0  0  0  0  0  0  0  0  0  0  0
   -6.4459   23.3429  -31.5770 H   0  0  0  0  0  0  0  0  0  0  0  0
   -6.0529   25.6718  -28.4637 H   0  0  0  0  0  0  0  0  0  0  0  0
   -6.9174   26.7265  -29.6328 H   0  0  0  0  0  0  0  0  0  0  0  0
   -7.2130   24.9547  -29.6328 H   0  0  0  0  0  0  0  0  0  0  0  0
   -1.7377   22.8485  -28.0670 H   0  0  0  0  0  0  0  0  0  0  0  0
   -0.0736   22.4034  -28.5763 H   0  0  0  0  0  0  0  0  0  0  0  0
   -0.5823   24.1261  -28.5763 H   0  0  0  0  0  0  0  0  0  0  0  0
   -2.8144   21.0040  -31.2838 H   0  0  0  0  0  0  0  0  0  0  0  0
   -7.9013   17.3132  -33.3904 H   0  0  0  0  0  0  0  0  0  0  0  0
   -7.7479   14.9457  -34.1373 H   0  0  0  0  0  0  0  0  0  0  0  0
  1  2  1  0
  2  3  1  0
  3  4  1  0
  4  5  1  0
  5  6  1  0
  5  7  1  0
  7  8  2  0
  8  9  1  0
  9 10  2  0
 10 11  1  0
 11 12  2  0
 12 13  1  0
 13 14  1  0
 14 15  1  0
 15 16  2  0
 16 17  1  0
 17 18  1  0
 18 19  1  0
 17 20  2  0
 20 21  1  0
 20 22  1  0
 22 23  1  0
 23 24  1  0
 22 25  2  0
 14 26  2  0
 10 27  1  0
 27 28  2  0
 28  7  1  0
 26 11  1  0
 25 15  1  0
  1 29  1  0
  1 30  1  0
  1 31  1  0
  2 32  1  0
  2 33  1  0
  3 34  1  0
  3 35  1  0
  4 36  1  0
  4 37  1  0
  6 38  1  0
  6 39  1  0
  6 40  1  0
  8 41  1  0
  9 42  1  0
 16 43  1  0
 19 44  1  0
 19 45  1  0
 19 46  1  0
 24 47  1  0
 24 48  1  0
 24 49  1  0
 25 50  1  0
 27 51  1  0
 28 52  1  0
M  CHG  1  21  -1
M  END
>  <UniqueID>  (35) 
34

>  <SMILES>  (35) 
CCCCN(C)c1ccc(-c2noc(-c3cc(OC)c([O-])c(OC)c3)n2)cc1

>  <Energy>  (35) 
83.93530951286893

>  <Genealogy>  (35) 
CCCCN(C)c1ccc(-c2noc(-c3cc(OC)c([O-])c(OC)c3)n2)cc1 (protonated)
CCCCN(C)c1ccc(-c2noc(-c3cc(OC)c([O-])c(OC)c3)n2)cc1 (3D coordinates assigned)
CCCCN(C)c1ccc(-c2noc(-c3cc(OC)c([O-])c(OC)c3)n2)cc1 (optimized conformer: 83.93530951286893 kcal/mol)

>  <smiles>  (35) 
CCCCN(C)c1ccc(-c2noc(-c3cc(OC)c(O)c(OC)c3)n2)cc1

>  <score_type>  (35) 
oracle

>  <origin>  (35) 
adgpu

>  <m_score__min__energy>  (35) 
-9.6500000000000004

>  <m_primary>  (35) 
energy

$$$$
35:0
     RDKit          3D

 55 58  0  0  0  0  0  0  0  0999 V2000
   -1.5190   25.4120  -25.4000 C   0  0  0  0  0  0  0  0  0  0  0  0
   -0.1430   24.7680  -25.2220 C   0  0  0  0  0  0  0  0  0  0  0  0
    0.0640   23.5700  -26.1600 C   0  0  0  0  0  0  0  0  0  0  0  0
    0.0150   23.9670  -27.6130 C   0  0  0  0  0  0  0  0  0  0  0  0
    1.1000   24.2390  -28.1930 O   0  0  0  0  0  0  0  0  0  0  0  0
   -1.2580   24.0260  -28.3740 C   0  0  0  0  0  0  0  0  0  0  0  0
   -1.8320   25.1390  -28.9720 C   0  0  0  0  0  0  0  0  0  0  0  0
   -1.3530   26.4440  -28.9490 O   0  0  0  0  0  0  0  0  0  0  0  0
   -2.9680   24.7200  -29.6220 C   0  0  0  0  0  0  0  0  0  0  0  0
   -3.8430   25.5380  -30.3340 O   0  0  0  0  0  0  0  0  0  0  0  0
   -3.1380   23.3920  -29.4610 N   0  0  0  0  0  0  0  0  0  0  0  0
   -4.2330   22.6140  -29.9760 C   0  0  0  0  0  0  0  0  0  0  0  0
   -5.5550   23.0090  -29.7320 C   0  0  0  0  0  0  0  0  0  0  0  0
   -6.6210   22.2790  -30.2640 C   0  0  0  0  0  0  0  0  0  0  0  0
   -6.3830   21.1360  -31.0470 C   0  0  0  0  0  0  0  0  0  0  0  0
   -7.5150   20.3620  -31.6200 C   0  0  0  0  0  0  0  0  0  0  0  0
   -8.7080   21.0110  -31.9980 C   0  0  0  0  0  0  0  0  0  0  0  0
   -9.7710   20.2800  -32.5370 C   0  0  0  0  0  0  0  0  0  0  0  0
   -9.6590   18.8980  -32.7050 C   0  0  0  0  0  0  0  0  0  0  0  0
   -8.4830   18.2430  -32.3340 C   0  0  0  0  0  0  0  0  0  0  0  0
   -7.4150   18.9680  -31.7940 C   0  0  0  0  0  0  0  0  0  0  0  0
   -5.0550   20.7360  -31.2800 C   0  0  0  0  0  0  0  0  0  0  0  0
   -3.9910   21.4660  -30.7460 C   0  0  0  0  0  0  0  0  0  0  0  0
   -2.0980   22.9560  -28.7020 C   0  0  0  0  0  0  0  0  0  0  0  0
   -1.8970   21.5440  -28.3060 C   0  0  0  0  0  0  0  0  0  0  0  0
   -2.7060   20.9710  -27.3140 C   0  0  0  0  0  0  0  0  0  0  0  0
   -2.5430   19.6300  -26.9660 C   0  0  0  0  0  0  0  0  0  0  0  0
   -1.5730   18.8690  -27.6220 C   0  0  0  0  0  0  0  0  0  0  0  0
   -0.7990   19.4340  -28.5850 N   0  0  0  0  0  0  0  0  0  0  0  0
   -0.9320   20.7430  -28.9430 C   0  0  0  0  0  0  0  0  0  0  0  0
   -0.1130   21.2920  -29.9360 O   0  0  0  0  0  0  0  0  0  0  0  0
   -0.4900   21.3500  -31.3050 C   0  0  0  0  0  0  0  0  0  0  0  0
   -1.9581   25.6175  -24.4126 H   0  0  0  0  0  0  0  0  0  0  0  0
   -1.4135   26.3543  -25.9577 H   0  0  0  0  0  0  0  0  0  0  0  0
   -2.1749   24.7273  -25.9577 H   0  0  0  0  0  0  0  0  0  0  0  0
    0.6304   25.5211  -25.4337 H   0  0  0  0  0  0  0  0  0  0  0  0
   -0.0736   24.4018  -24.1871 H   0  0  0  0  0  0  0  0  0  0  0  0
    1.0456   23.1207  -25.9488 H   0  0  0  0  0  0  0  0  0  0  0  0
   -0.7521   22.8551  -25.9784 H   0  0  0  0  0  0  0  0  0  0  0  0
   -3.8650   26.5390  -30.1790 H   0  0  0  0  0  0  0  0  0  0  0  0
   -5.7549   23.8994  -29.1178 H   0  0  0  0  0  0  0  0  0  0  0  0
   -7.6545   22.6012  -30.0686 H   0  0  0  0  0  0  0  0  0  0  0  0
   -8.8032   22.0992  -31.8681 H   0  0  0  0  0  0  0  0  0  0  0  0
  -10.6981   20.7947  -32.8295 H   0  0  0  0  0  0  0  0  0  0  0  0
  -10.4970   18.3257  -33.1295 H   0  0  0  0  0  0  0  0  0  0  0  0
   -8.3959   17.1545  -32.4666 H   0  0  0  0  0  0  0  0  0  0  0  0
   -6.4914   18.4459  -31.5035 H   0  0  0  0  0  0  0  0  0  0  0  0
   -4.8529   19.8415  -31.8874 H   0  0  0  0  0  0  0  0  0  0  0  0
   -2.9569   21.1392  -30.9300 H   0  0  0  0  0  0  0  0  0  0  0  0
   -3.4705   21.5801  -26.8094 H   0  0  0  0  0  0  0  0  0  0  0  0
   -3.1709   19.1774  -26.1844 H   0  0  0  0  0  0  0  0  0  0  0  0
   -1.4354   17.8099  -27.3584 H   0  0  0  0  0  0  0  0  0  0  0  0
   -1.5747   21.5169  -31.3799 H   0  0  0  0  0  0  0  0  0  0  0  0
    0.0430   22.1767  -31.7974 H   0  0  0  0  0  0  0  0  0  0  0  0
   -0.2301   20.4013  -31.7974 H   0  0  0  0  0  0  0  0  0  0  0  0
  1  2  1  0
  2  3  1  0
  3  4  1  0
  4  5  2  0
  4  6  1  0
  6  7  1  0
  7  8  1  0
  7  9  2  0
  9 10  1  0
  9 11  1  0
 11 12  1  0
 12 13  2  0
 13 14  1  0
 14 15  2  0
 15 16  1  0
 16 17  2  0
 17 18  1  0
 18 19  2  0
 19 20  1  0
 20 21  2  0
 15 22  1  0
 22 23  2  0
 11 24  1  0
 24 25  1  0
 25 26  2  0
 26 27  1  0
 27 28  2  0
 28 29  1  0
 29 30  2  0
 30 31  1  0
 31 32  1  0
 24  6  2  0
 30 25  1  0
 23 12  1  0
 21 16  1  0
  1 33  1  0
  1 34  1  0
  1 35  1  0
  2 36  1  0
  2 37  1  0
  3 38  1  0
  3 39  1  0
 10 40  1  0
 13 41  1  0
 14 42  1  0
 17 43  1  0
 18 44  1  0
 19 45  1  0
 20 46  1  0
 21 47  1  0
 22 48  1  0
 23 49  1  0
 26 50  1  0
 27 51  1  0
 28 52  1  0
 32 53  1  0
 32 54  1  0
 32 55  1  0
M  CHG  1   8  -1
M  END
>  <UniqueID>  (36) 
35

>  <SMILES>  (36) 
CCCC(=O)c1c([O-])c(O)n(-c2ccc(-c3ccccc3)cc2)c1-c1cccnc1OC

>  <Energy>  (36) 
98.68324548758967

>  <Genealogy>  (36) 
CCCC(=O)c1c([O-])c(O)n(-c2ccc(-c3ccccc3)cc2)c1-c1cccnc1OC (protonated)
CCCC(=O)c1c([O-])c(O)n(-c2ccc(-c3ccccc3)cc2)c1-c1cccnc1OC (3D coordinates assigned)
CCCC(=O)c1c([O-])c(O)n(-c2ccc(-c3ccccc3)cc2)c1-c1cccnc1OC (optimized conformer: 98.68324548758967 kcal/mol)

>  <smiles>  (36) 
CCCC(=O)c1c(O)c(O)n(-c2ccc(-c3ccccc3)cc2)c1-c1cccnc1OC

>  <score_type>  (36) 
oracle

>  <origin>  (36) 
adgpu

>  <m_score__min__energy>  (36) 
-12.26

>  <m_primary>  (36) 
energy

$$$$
36:0
     RDKit          3D

 32 34  0  0  0  0  0  0  0  0999 V2000
   -6.9930   15.6320  -34.5010 H   0  0  0  0  0  0  0  0  0  0  0  0
   -7.2060   16.4590  -33.9600 O   0  0  0  0  0  0  0  0  0  0  0  0
   -6.2950   17.4900  -33.7030 C   0  0  0  0  0  0  0  0  0  0  0  0
   -4.9870   17.3900  -34.2330 C   0  0  0  0  0  0  0  0  0  0  0  0
   -4.5020   16.2650  -34.9290 O   0  0  0  0  0  0  0  0  0  0  0  0
   -3.3900   15.4530  -34.5660 C   0  0  0  0  0  0  0  0  0  0  0  0
   -3.3172   15.3998  -33.4697 H   0  0  0  0  0  0  0  0  0  0  0  0
   -3.5266   14.4406  -34.9739 H   0  0  0  0  0  0  0  0  0  0  0  0
   -2.4672   15.8913  -34.9739 H   0  0  0  0  0  0  0  0  0  0  0  0
   -4.1060   18.4590  -34.0840 C   0  0  0  0  0  0  0  0  0  0  0  0
   -2.8240   18.3760  -34.6170 O   0  0  0  0  0  0  0  0  0  0  0  0
   -4.5000   19.6270  -33.4440 C   0  0  0  0  0  0  0  0  0  0  0  0
   -3.7938   20.4677  -33.3779 H   0  0  0  0  0  0  0  0  0  0  0  0
   -5.7820   19.7600  -32.8780 C   0  0  0  0  0  0  0  0  0  0  0  0
   -6.1690   20.9730  -32.3990 C   0  0  0  0  0  0  0  0  0  0  0  0
   -7.5010   21.4070  -32.3910 O   0  0  0  0  0  0  0  0  0  0  0  0
   -7.5160   22.7420  -32.0120 C   0  0  0  0  0  0  0  0  0  0  0  0
   -8.5610   23.4380  -31.9110 O   0  0  0  0  0  0  0  0  0  0  0  0
   -6.1670   23.1840  -31.7230 C   0  0  0  0  0  0  0  0  0  0  0  0
   -5.7140   24.3880  -31.1900 C   0  0  0  0  0  0  0  0  0  0  0  0
   -6.3981   25.2381  -31.0510 H   0  0  0  0  0  0  0  0  0  0  0  0
   -4.3590   24.4860  -30.8350 C   0  0  0  0  0  0  0  0  0  0  0  0
   -3.8630   25.6730  -30.3130 O   0  0  0  0  0  0  0  0  0  0  0  0
   -3.5050   23.3740  -30.9850 C   0  0  0  0  0  0  0  0  0  0  0  0
   -2.4473   23.4545  -30.6939 H   0  0  0  0  0  0  0  0  0  0  0  0
   -3.9960   22.1630  -31.5040 C   0  0  0  0  0  0  0  0  0  0  0  0
   -3.3462   21.2782  -31.5743 H   0  0  0  0  0  0  0  0  0  0  0  0
   -5.3300   22.1060  -31.9300 C   0  0  0  0  0  0  0  0  0  0  0  0
   -6.6690   18.6330  -32.9340 C   0  0  0  0  0  0  0  0  0  0  0  0
   -7.7760   18.5770  -32.1620 C   0  0  0  0  0  0  0  0  0  0  0  0
   -8.0748   19.4511  -31.5647 H   0  0  0  0  0  0  0  0  0  0  0  0
   -8.3787   17.6573  -32.1306 H   0  0  0  0  0  0  0  0  0  0  0  0
  1  2  1  0
  2  3  1  0
  3  4  2  0
  4  5  1  0
  5  6  1  0
  6  7  1  0
  6  8  1  0
  6  9  1  0
  4 10  1  0
 10 11  1  0
 10 12  2  0
 12 13  1  0
 12 14  1  0
 14 15  2  0
 15 16  1  0
 16 17  1  0
 17 18  2  0
 17 19  1  0
 19 20  2  0
 20 21  1  0
 20 22  1  0
 22 23  1  0
 22 24  2  0
 24 25  1  0
 24 26  1  0
 26 27  1  0
 26 28  2  0
 14 29  1  0
 29 30  2  0
 30 31  1  0
 30 32  1  0
 29  3  1  0
 28 15  1  0
 28 19  1  0
M  CHG  2  11  -1  23  -1
M  END
>  <UniqueID>  (37) 
36

>  <SMILES>  (37) 
C=c1c(O)c(OC)c([O-])c/c1=C1/OC(=O)c2cc([O-])ccc21

>  <Energy>  (37) 
95.5256244710073

>  <Genealogy>  (37) 
C=c1c(O)c(OC)c([O-])cc1=C1OC(=O)c2cc([O-])ccc21 (protonated)
C=c1c(O)c(OC)c([O-])c/c1=C1/OC(=O)c2cc([O-])ccc21 (cis-trans isomerization)
C=c1c(O)c(OC)c([O-])c/c1=C1/OC(=O)c2cc([O-])ccc21 (3D coordinates assigned)
C=c1c(O)c(OC)c([O-])c/c1=C1/OC(=O)c2cc([O-])ccc21 (nonaromatic ring conformer: 95.5256244710073 kcal/mol)

>  <smiles>  (37) 
C=c1c(O)c(OC)c(O)cc1=C1OC(=O)c2cc(O)ccc21

>  <score_type>  (37) 
oracle

>  <origin>  (37) 
adgpu

>  <m_score__min__energy>  (37) 
-10.109999999999999

>  <m_primary>  (37) 
energy

$$$$
37:0
     RDKit          3D

 37 38  0  0  0  0  0  0  0  0999 V2000
   -0.8050   25.0730  -24.9410 C   0  0  0  0  0  0  0  0  0  0  0  0
   -0.2080   24.1380  -25.8310 O   0  0  0  0  0  0  0  0  0  0  0  0
   -0.2550   24.2810  -27.2220 C   0  0  0  0  0  0  0  0  0  0  0  0
    0.7900   24.5970  -27.8540 O   0  0  0  0  0  0  0  0  0  0  0  0
   -1.5360   24.0590  -27.9420 C   0  0  0  0  0  0  0  0  0  0  0  0
   -2.3280   22.9440  -27.6110 C   0  0  0  0  0  0  0  0  0  0  0  0
   -3.5380   22.7080  -28.2660 C   0  0  0  0  0  0  0  0  0  0  0  0
   -3.9950   23.5860  -29.2570 C   0  0  0  0  0  0  0  0  0  0  0  0
   -5.2340   23.3050  -29.9300 N   0  0  0  0  0  0  0  0  0  0  0  0
   -5.7810   24.1120  -30.9820 C   0  0  0  0  0  0  0  0  0  0  0  0
   -5.3180   25.2630  -31.2090 O   0  0  0  0  0  0  0  0  0  0  0  0
   -6.9200   23.6330  -31.7070 N   0  0  0  0  0  0  0  0  0  0  0  0
   -7.2820   22.2600  -31.9180 C   0  0  0  0  0  0  0  0  0  0  0  0
   -8.5890   21.7900  -31.7020 C   0  0  0  0  0  0  0  0  0  0  0  0
   -8.9060   20.4490  -31.9410 C   0  0  0  0  0  0  0  0  0  0  0  0
   -7.9210   19.5600  -32.4140 C   0  0  0  0  0  0  0  0  0  0  0  0
   -8.1890   18.2060  -32.6660 O   0  0  0  0  0  0  0  0  0  0  0  0
   -7.2140   17.2600  -33.0910 C   0  0  0  0  0  0  0  0  0  0  0  0
   -6.6270   20.0380  -32.6490 C   0  0  0  0  0  0  0  0  0  0  0  0
   -6.3120   21.3790  -32.4100 C   0  0  0  0  0  0  0  0  0  0  0  0
   -3.1990   24.6880  -29.6120 C   0  0  0  0  0  0  0  0  0  0  0  0
   -1.9840   24.9290  -28.9610 C   0  0  0  0  0  0  0  0  0  0  0  0
   -1.2340   26.0360  -29.3440 O   0  0  0  0  0  0  0  0  0  0  0  0
   -0.6097   24.7671  -23.9026 H   0  0  0  0  0  0  0  0  0  0  0  0
   -0.3765   26.0709  -25.1160 H   0  0  0  0  0  0  0  0  0  0  0  0
   -1.8905   25.1042  -25.1160 H   0  0  0  0  0  0  0  0  0  0  0  0
   -1.9898   22.2504  -26.8271 H   0  0  0  0  0  0  0  0  0  0  0  0
   -4.1378   21.8247  -28.0015 H   0  0  0  0  0  0  0  0  0  0  0  0
   -5.8150   22.5090  -29.5840 H   0  0  0  0  0  0  0  0  0  0  0  0
   -9.3665   22.4805  -31.3431 H   0  0  0  0  0  0  0  0  0  0  0  0
   -9.9286   20.0870  -31.7589 H   0  0  0  0  0  0  0  0  0  0  0  0
   -6.7406   16.8007  -32.2107 H   0  0  0  0  0  0  0  0  0  0  0  0
   -7.6994   16.4795  -33.6954 H   0  0  0  0  0  0  0  0  0  0  0  0
   -6.4485   17.7687  -33.6954 H   0  0  0  0  0  0  0  0  0  0  0  0
   -5.8520   19.3537  -33.0245 H   0  0  0  0  0  0  0  0  0  0  0  0
   -5.2940   21.7445  -32.6102 H   0  0  0  0  0  0  0  0  0  0  0  0
   -3.5341   25.3678  -30.4093 H   0  0  0  0  0  0  0  0  0  0  0  0
  1  2  1  0
  2  3  1  0
  3  4  2  0
  3  5  1  0
  5  6  2  0
  6  7  1  0
  7  8  2  0
  8  9  1  0
  9 10  1  0
 10 11  2  0
 10 12  1  0
 12 13  1  0
 13 14  2  0
 14 15  1  0
 15 16  2  0
 16 17  1  0
 17 18  1  0
 16 19  1  0
 19 20  2  0
  8 21  1  0
 21 22  2  0
 22 23  1  0
 22  5  1  0
 20 13  1  0
  1 24  1  0
  1 25  1  0
  1 26  1  0
  6 27  1  0
  7 28  1  0
  9 29  1  0
 14 30  1  0
 15 31  1  0
 18 32  1  0
 18 33  1  0
 18 34  1  0
 19 35  1  0
 20 36  1  0
 21 37  1  0
M  CHG  2  12  -1  23  -1
M  END
>  <UniqueID>  (38) 
37

>  <SMILES>  (38) 
COC(=O)c1ccc(NC(=O)[N-]c2ccc(OC)cc2)cc1[O-]

>  <Energy>  (38) 
43.45762263823192

>  <Genealogy>  (38) 
COC(=O)c1ccc(NC(=O)[N-]c2ccc(OC)cc2)cc1[O-] (protonated)
COC(=O)c1ccc(NC(=O)[N-]c2ccc(OC)cc2)cc1[O-] (3D coordinates assigned)
COC(=O)c1ccc(NC(=O)[N-]c2ccc(OC)cc2)cc1[O-] (optimized conformer: 43.45762263823192 kcal/mol)

>  <smiles>  (38) 
COC(=O)c1ccc(NC(=O)Nc2ccc(OC)cc2)cc1O

>  <score_type>  (38) 
oracle

>  <origin>  (38) 
adgpu

>  <m_score__min__energy>  (38) 
-10.81

>  <m_primary>  (38) 
energy

$$$$
38:0
     RDKit          3D

 58 61  0  0  0  0  0  0  0  0999 V2000
    0.3334   20.8808  -30.2474 H   0  0  0  0  0  0  0  0  0  0  0  0
   -0.1420   20.9630  -31.2360 C   0  0  0  0  0  0  0  0  0  0  0  0
   -1.4840   21.1510  -31.3300 N   0  0  0  0  0  0  0  0  0  0  0  0
   -2.1140   21.2610  -32.5330 C   0  0  0  0  0  0  0  0  0  0  0  0
   -3.5300   21.4950  -32.6100 N   0  0  0  0  0  0  0  0  0  0  0  0
   -4.2260   22.2730  -31.8310 C   0  0  0  0  0  0  0  0  0  0  0  0
   -3.6540   22.8930  -30.7620 N   0  0  0  0  0  0  0  0  0  0  0  0
   -4.3560   23.6890  -29.9080 C   0  0  0  0  0  0  0  0  0  0  0  0
   -3.6560   24.2910  -28.7440 C   0  0  0  0  0  0  0  0  0  0  0  0
   -4.2860   24.4230  -27.4920 C   0  0  0  0  0  0  0  0  0  0  0  0
   -5.3418   24.1356  -27.3793 H   0  0  0  0  0  0  0  0  0  0  0  0
   -3.5810   24.9160  -26.3920 C   0  0  0  0  0  0  0  0  0  0  0  0
   -4.0870   25.0258  -25.4215 H   0  0  0  0  0  0  0  0  0  0  0  0
   -2.2370   25.2700  -26.5190 C   0  0  0  0  0  0  0  0  0  0  0  0
   -1.6835   25.6436  -25.6449 H   0  0  0  0  0  0  0  0  0  0  0  0
   -1.5900   25.1510  -27.7570 C   0  0  0  0  0  0  0  0  0  0  0  0
   -0.1230   25.4660  -27.8750 C   0  0  0  0  0  0  0  0  0  0  0  0
    0.0232   26.2216  -28.6609 H   0  0  0  0  0  0  0  0  0  0  0  0
    0.2380   25.8497  -26.9093 H   0  0  0  0  0  0  0  0  0  0  0  0
    0.6310   24.2630  -28.2180 N   0  0  0  0  0  0  0  0  0  0  0  0
    0.3490   22.9680  -27.6740 C   0  0  0  0  0  0  0  0  0  0  0  0
    0.9380   22.5790  -26.6300 O   0  0  0  0  0  0  0  0  0  0  0  0
   -0.5820   22.1080  -28.3430 N   0  0  0  0  0  0  0  0  0  0  0  0
   -0.8930   22.3820  -29.3020 H   0  0  0  0  0  0  0  0  0  0  0  0
   -1.0200   20.8490  -27.7980 C   0  0  0  0  0  0  0  0  0  0  0  0
   -2.3110   20.7270  -27.2510 C   0  0  0  0  0  0  0  0  0  0  0  0
   -2.9796   21.6003  -27.2322 H   0  0  0  0  0  0  0  0  0  0  0  0
   -2.7510   19.5080  -26.7320 C   0  0  0  0  0  0  0  0  0  0  0  0
   -3.7576   19.4276  -26.2959 H   0  0  0  0  0  0  0  0  0  0  0  0
   -1.9160   18.3930  -26.7660 C   0  0  0  0  0  0  0  0  0  0  0  0
   -2.2642   17.4340  -26.3547 H   0  0  0  0  0  0  0  0  0  0  0  0
   -0.6380   18.4900  -27.3210 C   0  0  0  0  0  0  0  0  0  0  0  0
    0.0118   17.6031  -27.3541 H   0  0  0  0  0  0  0  0  0  0  0  0
   -0.1760   19.7140  -27.8380 C   0  0  0  0  0  0  0  0  0  0  0  0
    1.2050   19.7950  -28.4290 C   0  0  0  0  0  0  0  0  0  0  0  0
    1.9483   19.8386  -27.6193 H   0  0  0  0  0  0  0  0  0  0  0  0
    1.3908   18.9062  -29.0499 H   0  0  0  0  0  0  0  0  0  0  0  0
    1.2856   20.6994  -29.0499 H   0  0  0  0  0  0  0  0  0  0  0  0
   -2.3050   24.6680  -28.8650 C   0  0  0  0  0  0  0  0  0  0  0  0
   -1.8029   24.5831  -29.8401 H   0  0  0  0  0  0  0  0  0  0  0  0
   -5.7250   23.9020  -30.1470 C   0  0  0  0  0  0  0  0  0  0  0  0
   -6.3027   24.5692  -29.4905 H   0  0  0  0  0  0  0  0  0  0  0  0
   -6.3510   23.2610  -31.2250 C   0  0  0  0  0  0  0  0  0  0  0  0
   -7.8030   23.5040  -31.5100 C   0  0  0  0  0  0  0  0  0  0  0  0
   -8.3524   23.5960  -30.5615 H   0  0  0  0  0  0  0  0  0  0  0  0
   -7.9126   24.4330  -32.0888 H   0  0  0  0  0  0  0  0  0  0  0  0
   -8.2091   22.6613  -32.0888 H   0  0  0  0  0  0  0  0  0  0  0  0
   -5.5920   22.4440  -32.0730 C   0  0  0  0  0  0  0  0  0  0  0  0
   -6.0691   21.9391  -32.9259 H   0  0  0  0  0  0  0  0  0  0  0  0
   -1.3650   21.1990  -33.7120 C   0  0  0  0  0  0  0  0  0  0  0  0
   -1.8638   21.2980  -34.6874 H   0  0  0  0  0  0  0  0  0  0  0  0
    0.0260   21.0100  -33.6490 C   0  0  0  0  0  0  0  0  0  0  0  0
    0.8350   20.8570  -34.9120 C   0  0  0  0  0  0  0  0  0  0  0  0
    2.1390   20.4980  -34.6160 F   0  0  0  0  0  0  0  0  0  0  0  0
    0.2910   19.8790  -35.7270 F   0  0  0  0  0  0  0  0  0  0  0  0
    0.8420   22.0590  -35.5950 F   0  0  0  0  0  0  0  0  0  0  0  0
    0.6340   20.8740  -32.3920 C   0  0  0  0  0  0  0  0  0  0  0  0
    1.7173   20.6980  -32.3182 H   0  0  0  0  0  0  0  0  0  0  0  0
  1  2  1  0
  2  3  2  0
  3  4  1  0
  4  5  1  0
  5  6  2  0
  6  7  1  0
  7  8  1  0
  8  9  1  0
  9 10  2  0
 10 11  1  0
 10 12  1  0
 12 13  1  0
 12 14  2  0
 14 15  1  0
 14 16  1  0
 16 17  1  0
 17 18  1  0
 17 19  1  0
 17 20  1  0
 20 21  1  0
 21 22  2  0
 21 23  1  0
 23 24  1  0
 23 25  1  0
 25 26  2  0
 26 27  1  0
 26 28  1  0
 28 29  1  0
 28 30  2  0
 30 31  1  0
 30 32  1  0
 32 33  1  0
 32 34  2  0
 34 35  1  0
 35 36  1  0
 35 37  1  0
 35 38  1  0
 16 39  2  0
 39 40  1  0
  8 41  2  0
 41 42  1  0
 41 43  1  0
 43 44  1  0
 44 45  1  0
 44 46  1  0
 44 47  1  0
 43 48  2  0
 48 49  1  0
  4 50  2  0
 50 51  1  0
 50 52  1  0
 52 53  1  0
 53 54  1  0
 53 55  1  0
 53 56  1  0
 52 57  2  0
 57 58  1  0
 57  2  1  0
 48  6  1  0
 39  9  1  0
 34 25  1  0
M  CHG  2   7  -1  20  -1
M  END
>  <UniqueID>  (39) 
38

>  <SMILES>  (39) 
Cc1cc(-c2cccc(C[N-]C(=O)Nc3ccccc3C)c2)[n-]/c(=N\c2cc(C(F)(F)F)ccn2)c1

>  <Energy>  (39) 
68.84706931999922

>  <Genealogy>  (39) 
Cc1cc(-c2cccc(C[N-]C(=O)Nc3ccccc3C)c2)[n-]c(=Nc2cc(C(F)(F)F)ccn2)c1 (protonated)
Cc1cc(-c2cccc(C[N-]C(=O)Nc3ccccc3C)c2)[n-]/c(=N\c2cc(C(F)(F)F)ccn2)c1 (cis-trans isomerization)
Cc1cc(-c2cccc(C[N-]C(=O)Nc3ccccc3C)c2)[n-]/c(=N\c2cc(C(F)(F)F)ccn2)c1 (3D coordinates assigned)
Cc1cc(-c2cccc(C[N-]C(=O)Nc3ccccc3C)c2)[n-]/c(=N\c2cc(C(F)(F)F)ccn2)c1 (optimized conformer: 68.84706931999922 kcal/mol)

>  <smiles>  (39) 
Cc1cc(-c2cccc(CNC(=O)Nc3ccccc3C)c2)[nH]c(=Nc2cc(C(F)(F)F)ccn2)c1

>  <score_type>  (39) 
oracle

>  <origin>  (39) 
adgpu

>  <m_score__min__energy>  (39) 
-11.890000000000001

>  <m_primary>  (39) 
energy

$$$$
39:0
     RDKit          3D

 36 37  0  0  0  0  0  0  0  0999 V2000
   -5.7500   16.1820  -33.0940 C   0  0  0  0  0  0  0  0  0  0  0  0
   -6.0350   17.3900  -33.7920 O   0  0  0  0  0  0  0  0  0  0  0  0
   -5.7090   18.6760  -33.3290 C   0  0  0  0  0  0  0  0  0  0  0  0
   -4.5050   19.3140  -33.6830 C   0  0  0  0  0  0  0  0  0  0  0  0
   -4.2070   20.6050  -33.2080 C   0  0  0  0  0  0  0  0  0  0  0  0
   -3.0300   21.2760  -33.5770 O   0  0  0  0  0  0  0  0  0  0  0  0
   -1.7840   20.6420  -33.8460 C   0  0  0  0  0  0  0  0  0  0  0  0
   -5.1210   21.2520  -32.3560 C   0  0  0  0  0  0  0  0  0  0  0  0
   -4.8350   22.6010  -31.8220 C   0  0  0  0  0  0  0  0  0  0  0  0
   -5.6660   23.7060  -31.8170 C   0  0  0  0  0  0  0  0  0  0  0  0
   -7.0570   23.7870  -32.3580 C   0  0  0  0  0  0  0  0  0  0  0  0
   -5.0430   24.7300  -31.2020 N   0  0  0  0  0  0  0  0  0  0  0  0
   -3.8690   24.3000  -30.8360 O   0  0  0  0  0  0  0  0  0  0  0  0
   -3.6960   23.0420  -31.1720 C   0  0  0  0  0  0  0  0  0  0  0  0
   -2.4560   22.2640  -30.8750 C   0  0  0  0  0  0  0  0  0  0  0  0
   -6.3220   20.6180  -32.0110 C   0  0  0  0  0  0  0  0  0  0  0  0
   -6.6220   19.3320  -32.4940 C   0  0  0  0  0  0  0  0  0  0  0  0
   -7.8170   18.6720  -32.1640 O   0  0  0  0  0  0  0  0  0  0  0  0
   -9.1160   19.2340  -32.3110 C   0  0  0  0  0  0  0  0  0  0  0  0
   -5.7933   16.3657  -32.0103 H   0  0  0  0  0  0  0  0  0  0  0  0
   -6.4924   15.4173  -33.3662 H   0  0  0  0  0  0  0  0  0  0  0  0
   -4.7441   15.8298  -33.3662 H   0  0  0  0  0  0  0  0  0  0  0  0
   -3.7886   18.7974  -34.3386 H   0  0  0  0  0  0  0  0  0  0  0  0
   -1.2884   20.3898  -32.8969 H   0  0  0  0  0  0  0  0  0  0  0  0
   -1.9577   19.7227  -34.4245 H   0  0  0  0  0  0  0  0  0  0  0  0
   -1.1431   21.3236  -34.4245 H   0  0  0  0  0  0  0  0  0  0  0  0
   -7.7730   23.8287  -31.5239 H   0  0  0  0  0  0  0  0  0  0  0  0
   -7.1586   24.6926  -32.9741 H   0  0  0  0  0  0  0  0  0  0  0  0
   -7.2631   22.8993  -32.9741 H   0  0  0  0  0  0  0  0  0  0  0  0
   -2.3263   22.1826  -29.7857 H   0  0  0  0  0  0  0  0  0  0  0  0
   -2.5416   21.2574  -31.3103 H   0  0  0  0  0  0  0  0  0  0  0  0
   -1.5869   22.7790  -31.3103 H   0  0  0  0  0  0  0  0  0  0  0  0
   -7.0389   21.1326  -31.3543 H   0  0  0  0  0  0  0  0  0  0  0  0
   -9.5490   19.4214  -31.3173 H   0  0  0  0  0  0  0  0  0  0  0  0
   -9.0449   20.1819  -32.8647 H   0  0  0  0  0  0  0  0  0  0  0  0
   -9.7582   18.5332  -32.8647 H   0  0  0  0  0  0  0  0  0  0  0  0
  1  2  1  0
  2  3  1  0
  3  4  2  0
  4  5  1  0
  5  6  1  0
  6  7  1  0
  5  8  2  0
  8  9  1  0
  9 10  1  0
 10 11  1  0
 10 12  2  0
 12 13  1  0
 13 14  1  0
 14 15  1  0
  8 16  1  0
 16 17  2  0
 17 18  1  0
 18 19  1  0
 17  3  1  0
 14  9  2  0
  1 20  1  0
  1 21  1  0
  1 22  1  0
  4 23  1  0
  7 24  1  0
  7 25  1  0
  7 26  1  0
 11 27  1  0
 11 28  1  0
 11 29  1  0
 15 30  1  0
 15 31  1  0
 15 32  1  0
 16 33  1  0
 19 34  1  0
 19 35  1  0
 19 36  1  0
M  END
>  <UniqueID>  (40) 
39

>  <SMILES>  (40) 
COc1cc(OC)c(-c2c(C)noc2C)cc1OC

>  <Energy>  (40) 
68.61287295281628

>  <Genealogy>  (40) 
COc1cc(OC)c(-c2c(C)noc2C)cc1OC (3D coordinates assigned)
COc1cc(OC)c(-c2c(C)noc2C)cc1OC (optimized conformer: 68.61287295281628 kcal/mol)

>  <smiles>  (40) 
COc1cc(OC)c(-c2c(C)noc2C)cc1OC

>  <score_type>  (40) 
oracle

>  <origin>  (40) 
adgpu

>  <m_score__min__energy>  (40) 
-6.4699999999999998

>  <m_primary>  (40) 
energy

$$$$
40:0
     RDKit          3D

 46 49  0  0  1  0  0  0  0  0999 V2000
    1.6020   18.2550  -32.6370 C   0  0  0  0  0  0  0  0  0  0  0  0
    1.5110   18.6140  -33.9810 O   0  0  0  0  0  0  0  0  0  0  0  0
    1.4570   19.8860  -34.4820 C   0  0  0  0  0  0  0  0  0  0  0  0
    2.4860   20.4760  -35.1850 C   0  0  0  0  0  0  0  0  0  0  0  0
    2.4140   21.7420  -35.6740 C   0  0  0  0  0  0  0  0  0  0  0  0
    3.4320   22.2660  -36.3460 N   0  0  0  0  0  0  0  0  0  0  0  0
    3.3630   23.5190  -36.8330 C   0  0  0  0  0  0  0  0  0  0  0  0
    2.2730   24.3080  -36.6710 N   0  0  0  0  0  0  0  0  0  0  0  0
    1.2460   23.7570  -35.9840 C   0  0  0  0  0  0  0  0  0  0  0  0
    0.1980   24.4720  -35.8100 N   0  0  0  0  0  0  0  0  0  0  0  0
    0.0350   25.8050  -36.2870 C   0  0  0  0  0  0  0  0  0  0  0  0
   -0.4850   26.0470  -37.5430 C   0  0  0  0  0  0  0  0  0  0  0  0
   -0.6550   27.3460  -38.0320 C   0  0  0  0  0  0  0  0  0  0  0  0
   -0.2850   28.4170  -37.2220 C   0  0  0  0  0  0  0  0  0  0  0  0
   -0.4670   30.0620  -37.7620 Cl  0  0  0  0  0  0  0  0  0  0  0  0
    0.2360   28.2010  -35.9650 C   0  0  0  0  0  0  0  0  0  0  0  0
    0.7020   29.5520  -34.9420 Cl  0  0  0  0  0  0  0  0  0  0  0  0
    0.3900   26.9040  -35.5120 C   0  0  0  0  0  0  0  0  0  0  0  0
    1.2780   22.4830  -35.4720 C   0  0  0  0  0  0  0  0  0  0  0  0
    0.2480   21.9090  -34.7750 C   0  0  0  0  0  0  0  0  0  0  0  0
    0.3050   20.6250  -34.2710 C   0  0  0  0  0  0  0  0  0  0  0  0
   -0.7400   20.0620  -33.5710 O   0  0  0  0  0  0  0  0  0  0  0  0
   -1.8380   19.4600  -34.1980 C   0  0  0  0  0  0  0  0  0  0  0  0
   -3.1310   20.0020  -33.6730 C   0  0  0  0  0  0  0  0  0  0  0  0
   -3.1390   21.3060  -33.1980 C   0  0  0  0  0  0  0  0  0  0  0  0
   -4.2900   21.8750  -32.7000 C   0  0  0  0  0  0  0  0  0  0  0  0
   -5.4610   21.1440  -32.6660 C   0  0  0  0  0  0  0  0  0  0  0  0
   -5.4480   19.8440  -33.1410 C   0  0  0  0  0  0  0  0  0  0  0  0
   -6.9220   18.8970  -33.1090 Cl  0  0  0  0  0  0  0  0  0  0  0  0
   -4.2900   19.2560  -33.6480 C   0  0  0  0  0  0  0  0  0  0  0  0
   -4.2950   17.6260  -34.2380 Cl  0  0  0  0  0  0  0  0  0  0  0  0
    1.3803   19.1298  -32.0080 H   0  0  0  0  0  0  0  0  0  0  0  0
    0.8782   17.4553  -32.4213 H   0  0  0  0  0  0  0  0  0  0  0  0
    2.6194   17.8967  -32.4213 H   0  0  0  0  0  0  0  0  0  0  0  0
    3.4051   19.8968  -35.3576 H   0  0  0  0  0  0  0  0  0  0  0  0
    4.2920   21.7010  -36.4980 H   0  0  0  0  0  0  0  0  0  0  0  0
    4.2264   23.9188  -37.3849 H   0  0  0  0  0  0  0  0  0  0  0  0
   -0.7733   25.1949  -38.1761 H   0  0  0  0  0  0  0  0  0  0  0  0
   -1.0721   27.5184  -39.0351 H   0  0  0  0  0  0  0  0  0  0  0  0
    0.8061   26.7360  -34.5077 H   0  0  0  0  0  0  0  0  0  0  0  0
   -0.6662   22.4979  -34.6093 H   0  0  0  0  0  0  0  0  0  0  0  0
   -1.7822   19.6521  -35.2797 H   0  0  0  0  0  0  0  0  0  0  0  0
   -1.8057   18.3801  -33.9914 H   0  0  0  0  0  0  0  0  0  0  0  0
   -2.2103   21.8950  -33.2197 H   0  0  0  0  0  0  0  0  0  0  0  0
   -4.2765   22.9107  -32.3297 H   0  0  0  0  0  0  0  0  0  0  0  0
   -6.3866   21.5864  -32.2690 H   0  0  0  0  0  0  0  0  0  0  0  0
  1  2  1  0
  2  3  1  0
  3  4  2  0
  4  5  1  0
  5  6  1  0
  6  7  1  0
  7  8  2  0
  8  9  1  0
  9 10  2  0
 10 11  1  0
 11 12  2  0
 12 13  1  0
 13 14  2  0
 14 15  1  0
 14 16  1  0
 16 17  1  0
 16 18  2  0
  9 19  1  0
 19 20  1  0
 20 21  2  0
 21 22  1  0
 22 23  1  0
 23 24  1  0
 24 25  2  0
 25 26  1  0
 26 27  2  0
 27 28  1  0
 28 29  1  0
 28 30  2  0
 30 31  1  0
 21  3  1  0
 30 24  1  0
 19  5  2  0
 18 11  1  0
  1 32  1  0
  1 33  1  0
  1 34  1  0
  4 35  1  0
  6 36  1  0
  7 37  1  0
 12 38  1  0
 13 39  1  0
 18 40  1  0
 20 41  1  0
 23 42  1  0
 23 43  1  0
 25 44  1  0
 26 45  1  0
 27 46  1  0
M  END
>  <smiles>  (41) 
COc1cc2[nH]cnc(=Nc3ccc(Cl)c(Cl)c3)c2cc1OCc1cccc(Cl)c1Cl

>  <score_type>  (41) 
oracle

>  <origin>  (41) 
adgpu

>  <m_score__min__energy>  (41) 
-9.7400000000000002

>  <m_primary>  (41) 
energy

$$$$
41:0
     RDKit          3D

 48 50  0  0  0  0  0  0  0  0999 V2000
   -6.8470   24.5330  -30.3410 C   0  0  0  0  0  0  0  0  0  0  0  0
   -6.5560   24.0070  -31.6310 O   0  0  0  0  0  0  0  0  0  0  0  0
   -6.5920   22.6450  -31.9690 C   0  0  0  0  0  0  0  0  0  0  0  0
   -7.7990   21.9160  -31.9560 C   0  0  0  0  0  0  0  0  0  0  0  0
   -7.8280   20.5720  -32.3540 C   0  0  0  0  0  0  0  0  0  0  0  0
   -9.1120   19.7960  -32.3030 C   0  0  0  0  0  0  0  0  0  0  0  0
   -6.6400   19.9420  -32.7430 C   0  0  0  0  0  0  0  0  0  0  0  0
   -5.4380   20.6510  -32.7500 C   0  0  0  0  0  0  0  0  0  0  0  0
   -5.3960   21.9910  -32.3480 C   0  0  0  0  0  0  0  0  0  0  0  0
   -4.1470   22.6370  -32.3590 O   0  0  0  0  0  0  0  0  0  0  0  0
   -3.0740   22.3440  -31.5070 C   0  0  0  0  0  0  0  0  0  0  0  0
   -2.2590   21.3070  -31.8300 N   0  0  0  0  0  0  0  0  0  0  0  0
   -1.1670   21.0080  -31.0850 C   0  0  0  0  0  0  0  0  0  0  0  0
   -0.8700   21.7450  -29.9870 N   0  0  0  0  0  0  0  0  0  0  0  0
   -1.6640   22.7760  -29.5940 C   0  0  0  0  0  0  0  0  0  0  0  0
   -1.3280   23.4990  -28.4030 N   0  0  0  0  0  0  0  0  0  0  0  0
   -0.7430   24.8380  -28.5240 C   0  0  0  0  0  0  0  0  0  0  0  0
   -1.2470   25.7700  -27.4060 C   0  0  0  0  0  0  0  0  0  0  0  0
   -1.5560   25.0400  -26.0730 C   0  0  0  0  0  0  0  0  0  0  0  0
   -1.2190   25.9250  -24.8690 C   0  0  0  0  0  0  0  0  0  0  0  0
   -0.8270   23.6910  -25.9780 C   0  0  0  0  0  0  0  0  0  0  0  0
   -1.2690   22.7730  -27.1260 C   0  0  0  0  0  0  0  0  0  0  0  0
   -2.8130   23.0990  -30.3430 C   0  0  0  0  0  0  0  0  0  0  0  0
   -3.6890   24.1600  -29.9350 N   0  0  0  0  0  0  0  0  0  0  0  0
   -4.3370   24.0730  -28.8710 O   0  0  0  0  0  0  0  0  0  0  0  0
   -3.8480   25.2710  -30.7300 O   0  0  0  0  0  0  0  0  0  0  0  0
   -6.4669   23.8460  -29.5706 H   0  0  0  0  0  0  0  0  0  0  0  0
   -6.3636   25.5146  -30.2277 H   0  0  0  0  0  0  0  0  0  0  0  0
   -7.9354   24.6450  -30.2277 H   0  0  0  0  0  0  0  0  0  0  0  0
   -8.7278   22.4071  -31.6301 H   0  0  0  0  0  0  0  0  0  0  0  0
   -9.3955   19.6247  -31.2541 H   0  0  0  0  0  0  0  0  0  0  0  0
   -9.9053   20.3660  -32.8088 H   0  0  0  0  0  0  0  0  0  0  0  0
   -8.9762   18.8287  -32.8088 H   0  0  0  0  0  0  0  0  0  0  0  0
   -6.6540   18.8842  -33.0443 H   0  0  0  0  0  0  0  0  0  0  0  0
   -4.5135   20.1513  -33.0750 H   0  0  0  0  0  0  0  0  0  0  0  0
   -0.5205   20.1656  -31.3720 H   0  0  0  0  0  0  0  0  0  0  0  0
    0.3521   24.7583  -28.4580 H   0  0  0  0  0  0  0  0  0  0  0  0
   -1.0436   25.2628  -29.4931 H   0  0  0  0  0  0  0  0  0  0  0  0
   -0.4753   26.5301  -27.2142 H   0  0  0  0  0  0  0  0  0  0  0  0
   -2.1926   26.2087  -27.7572 H   0  0  0  0  0  0  0  0  0  0  0  0
   -2.6365   24.8340  -26.0589 H   0  0  0  0  0  0  0  0  0  0  0  0
   -1.4284   25.3750  -23.9396 H   0  0  0  0  0  0  0  0  0  0  0  0
   -0.1539   26.1981  -24.9014 H   0  0  0  0  0  0  0  0  0  0  0  0
   -1.8326   26.8374  -24.9014 H   0  0  0  0  0  0  0  0  0  0  0  0
    0.2583   23.8582  -26.0426 H   0  0  0  0  0  0  0  0  0  0  0  0
   -1.0747   23.2137  -25.0184 H   0  0  0  0  0  0  0  0  0  0  0  0
   -0.5510   21.9448  -27.2183 H   0  0  0  0  0  0  0  0  0  0  0  0
   -2.2760   22.3940  -26.8972 H   0  0  0  0  0  0  0  0  0  0  0  0
  1  2  1  0
  2  3  1  0
  3  4  2  0
  4  5  1  0
  5  6  1  0
  5  7  2  0
  7  8  1  0
  8  9  2  0
  9 10  1  0
 10 11  1  0
 11 12  2  0
 12 13  1  0
 13 14  2  0
 14 15  1  0
 15 16  1  0
 16 17  1  0
 17 18  1  0
 18 19  1  0
 19 20  1  0
 19 21  1  0
 21 22  1  0
 15 23  2  0
 23 24  1  0
 24 25  2  0
 24 26  1  0
  9  3  1  0
 23 11  1  0
 22 16  1  0
  1 27  1  0
  1 28  1  0
  1 29  1  0
  4 30  1  0
  6 31  1  0
  6 32  1  0
  6 33  1  0
  7 34  1  0
  8 35  1  0
 13 36  1  0
 17 37  1  0
 17 38  1  0
 18 39  1  0
 18 40  1  0
 19 41  1  0
 20 42  1  0
 20 43  1  0
 20 44  1  0
 21 45  1  0
 21 46  1  0
 22 47  1  0
 22 48  1  0
M  CHG  2  24   1  26  -1
M  END
>  <UniqueID>  (42) 
40

>  <SMILES>  (42) 
COc1cc(C)ccc1Oc1ncnc(N2CCC(C)CC2)c1[N+](=O)[O-]

>  <Energy>  (42) 
66.85130836601765

>  <Genealogy>  (42) 
COc1cc(C)ccc1Oc1ncnc(N2CCC(C)CC2)c1[N+](=O)[O-] (3D coordinates assigned)
COc1cc(C)ccc1Oc1ncnc(N2CCC(C)CC2)c1[N+](=O)[O-] (nonaromatic ring conformer: 66.85130836601765 kcal/mol)

>  <smiles>  (42) 
COc1cc(C)ccc1Oc1ncnc(N2CCC(C)CC2)c1[N+](=O)[O-]

>  <score_type>  (42) 
oracle

>  <origin>  (42) 
adgpu

>  <m_score__min__energy>  (42) 
-8.6400000000000006

>  <m_primary>  (42) 
energy

$$$$
42:0
     RDKit          3D

 43 45  0  0  0  0  0  0  0  0999 V2000
   -0.8750   26.7790  -27.8930 C   0  0  0  0  0  0  0  0  0  0  0  0
   -1.4180   26.0150  -28.9630 O   0  0  0  0  0  0  0  0  0  0  0  0
   -1.5720   24.6190  -28.9470 C   0  0  0  0  0  0  0  0  0  0  0  0
   -0.7080   23.7810  -28.2130 C   0  0  0  0  0  0  0  0  0  0  0  0
   -0.8890   22.3970  -28.2280 C   0  0  0  0  0  0  0  0  0  0  0  0
   -1.9280   21.8340  -28.9700 C   0  0  0  0  0  0  0  0  0  0  0  0
   -2.7930   22.6540  -29.6980 C   0  0  0  0  0  0  0  0  0  0  0  0
   -2.6200   24.0520  -29.6910 C   0  0  0  0  0  0  0  0  0  0  0  0
   -3.4910   24.9230  -30.4260 N   0  0  0  0  0  0  0  0  0  0  0  0
   -5.2080   25.0470  -30.2150 S   0  0  0  0  0  0  0  0  0  0  0  0
   -5.6880   26.3470  -30.7970 O   0  0  0  0  0  0  0  0  0  0  0  0
   -5.5370   24.9810  -28.7510 O   0  0  0  0  0  0  0  0  0  0  0  0
   -6.0120   23.7160  -31.0430 C   0  0  0  0  0  0  0  0  0  0  0  0
   -7.3840   23.7950  -31.3050 C   0  0  0  0  0  0  0  0  0  0  0  0
   -8.0350   22.7470  -31.9580 C   0  0  0  0  0  0  0  0  0  0  0  0
   -7.3210   21.6130  -32.3530 C   0  0  0  0  0  0  0  0  0  0  0  0
   -5.9400   21.5180  -32.1000 C   0  0  0  0  0  0  0  0  0  0  0  0
   -5.1800   20.3180  -32.5200 C   0  0  0  0  0  0  0  0  0  0  0  0
   -5.4670   19.1870  -32.0380 O   0  0  0  0  0  0  0  0  0  0  0  0
   -4.1230   20.4320  -33.4820 N   0  0  0  0  0  0  0  0  0  0  0  0
   -3.1440   21.5120  -33.4840 C   0  0  0  0  0  0  0  0  0  0  0  0
   -1.8230   21.0110  -32.9930 C   0  0  0  0  0  0  0  0  0  0  0  0
   -1.6170   20.2610  -31.8420 C   0  0  0  0  0  0  0  0  0  0  0  0
   -0.2820   19.8820  -31.6650 C   0  0  0  0  0  0  0  0  0  0  0  0
    0.5630   20.3210  -32.6780 C   0  0  0  0  0  0  0  0  0  0  0  0
   -0.3540   21.1820  -33.7950 S   0  0  0  0  0  0  0  0  0  0  0  0
   -5.2930   22.5790  -31.4400 C   0  0  0  0  0  0  0  0  0  0  0  0
   -1.1870   26.3401  -26.9338 H   0  0  0  0  0  0  0  0  0  0  0  0
    0.2230   26.7736  -27.9589 H   0  0  0  0  0  0  0  0  0  0  0  0
   -1.2411   27.8142  -27.9589 H   0  0  0  0  0  0  0  0  0  0  0  0
    0.1123   24.2197  -27.6259 H   0  0  0  0  0  0  0  0  0  0  0  0
   -0.2110   21.7487  -27.6536 H   0  0  0  0  0  0  0  0  0  0  0  0
   -2.0660   20.7428  -28.9816 H   0  0  0  0  0  0  0  0  0  0  0  0
   -3.6127   22.2064  -30.2792 H   0  0  0  0  0  0  0  0  0  0  0  0
   -7.9512   24.6853  -30.9956 H   0  0  0  0  0  0  0  0  0  0  0  0
   -9.1138   22.8142  -32.1623 H   0  0  0  0  0  0  0  0  0  0  0  0
   -7.8412   20.7898  -32.8646 H   0  0  0  0  0  0  0  0  0  0  0  0
   -3.0291   21.8967  -34.5081 H   0  0  0  0  0  0  0  0  0  0  0  0
   -3.4936   22.3153  -32.8188 H   0  0  0  0  0  0  0  0  0  0  0  0
   -2.4214   19.9925  -31.1413 H   0  0  0  0  0  0  0  0  0  0  0  0
    0.0666   19.2918  -30.8047 H   0  0  0  0  0  0  0  0  0  0  0  0
    1.6458   20.1369  -32.7387 H   0  0  0  0  0  0  0  0  0  0  0  0
   -4.2143   22.5162  -31.2337 H   0  0  0  0  0  0  0  0  0  0  0  0
  1  2  1  0
  2  3  1  0
  3  4  2  0
  4  5  1  0
  5  6  2  0
  6  7  1  0
  7  8  2  0
  8  9  1  0
  9 10  1  0
 10 11  2  0
 10 12  2  0
 10 13  1  0
 13 14  2  0
 14 15  1  0
 15 16  2  0
 16 17  1  0
 17 18  1  0
 18 19  2  0
 18 20  1  0
 20 21  1  0
 21 22  1  0
 22 23  2  0
 23 24  1  0
 24 25  2  0
 25 26  1  0
 17 27  2  0
  8  3  1  0
 27 13  1  0
 26 22  1  0
  1 28  1  0
  1 29  1  0
  1 30  1  0
  4 31  1  0
  5 32  1  0
  6 33  1  0
  7 34  1  0
 14 35  1  0
 15 36  1  0
 16 37  1  0
 21 38  1  0
 21 39  1  0
 23 40  1  0
 24 41  1  0
 25 42  1  0
 27 43  1  0
M  CHG  2   9  -1  20  -1
M  END
>  <UniqueID>  (43) 
41

>  <SMILES>  (43) 
COc1ccccc1[N-]S(=O)(=O)c1cccc(C(=O)[N-]Cc2cccs2)c1

>  <Energy>  (43) 
72.6965625376121

>  <Genealogy>  (43) 
COc1ccccc1[N-]S(=O)(=O)c1cccc(C(=O)[N-]Cc2cccs2)c1 (protonated)
COc1ccccc1[N-]S(=O)(=O)c1cccc(C(=O)[N-]Cc2cccs2)c1 (3D coordinates assigned)
COc1ccccc1[N-]S(=O)(=O)c1cccc(C(=O)[N-]Cc2cccs2)c1 (optimized conformer: 72.6965625376121 kcal/mol)

>  <smiles>  (43) 
COc1ccccc1NS(=O)(=O)c1cccc(C(=O)NCc2cccs2)c1

>  <score_type>  (43) 
oracle

>  <origin>  (43) 
adgpu

>  <m_score__min__energy>  (43) 
-11.119999999999999

>  <m_primary>  (43) 
energy

$$$$
43:0
     RDKit          3D

 41 44  0  0  0  0  0  0  0  0999 V2000
   -3.4270   21.0520  -30.4360 O   0  0  0  0  0  0  0  0  0  0  0  0
   -3.7640   22.2530  -30.2530 C   0  0  0  0  0  0  0  0  0  0  0  0
   -5.1000   22.7030  -30.7050 C   0  0  0  0  0  0  0  0  0  0  0  0
   -5.6110   22.3050  -31.9530 C   0  0  0  0  0  0  0  0  0  0  0  0
   -6.8860   22.7110  -32.3570 C   0  0  0  0  0  0  0  0  0  0  0  0
   -7.6550   23.5320  -31.5280 C   0  0  0  0  0  0  0  0  0  0  0  0
   -7.1460   23.9530  -30.2970 C   0  0  0  0  0  0  0  0  0  0  0  0
   -5.8730   23.5460  -29.8870 C   0  0  0  0  0  0  0  0  0  0  0  0
   -2.8130   23.1650  -29.5790 C   0  0  0  0  0  0  0  0  0  0  0  0
   -2.7460   24.5320  -29.7600 C   0  0  0  0  0  0  0  0  0  0  0  0
   -3.5620   25.3010  -30.5820 O   0  0  0  0  0  0  0  0  0  0  0  0
   -1.7100   24.9970  -28.9870 C   0  0  0  0  0  0  0  0  0  0  0  0
   -1.3280   26.3290  -28.8800 O   0  0  0  0  0  0  0  0  0  0  0  0
   -1.1290   23.9800  -28.3190 N   0  0  0  0  0  0  0  0  0  0  0  0
   -0.0550   24.1060  -27.3690 C   0  0  0  0  0  0  0  0  0  0  0  0
   -0.3180   24.1450  -25.9930 C   0  0  0  0  0  0  0  0  0  0  0  0
    0.7420   24.2600  -25.0910 C   0  0  0  0  0  0  0  0  0  0  0  0
    2.0200   24.3420  -25.5480 N   0  0  0  0  0  0  0  0  0  0  0  0
    2.3040   24.3130  -26.8760 C   0  0  0  0  0  0  0  0  0  0  0  0
    1.2730   24.1980  -27.8120 C   0  0  0  0  0  0  0  0  0  0  0  0
   -1.8020   22.8520  -28.6660 C   0  0  0  0  0  0  0  0  0  0  0  0
   -1.4950   21.5020  -28.1450 C   0  0  0  0  0  0  0  0  0  0  0  0
   -0.2290   20.9320  -28.3470 C   0  0  0  0  0  0  0  0  0  0  0  0
    0.0670   19.6700  -27.8250 C   0  0  0  0  0  0  0  0  0  0  0  0
   -0.9010   18.9650  -27.1040 C   0  0  0  0  0  0  0  0  0  0  0  0
   -2.1680   19.5230  -26.9050 C   0  0  0  0  0  0  0  0  0  0  0  0
   -3.3810   18.6420  -25.9950 Cl  0  0  0  0  0  0  0  0  0  0  0  0
   -2.4660   20.7870  -27.4250 C   0  0  0  0  0  0  0  0  0  0  0  0
   -5.0038   21.6704  -32.6153 H   0  0  0  0  0  0  0  0  0  0  0  0
   -7.2845   22.3838  -33.3287 H   0  0  0  0  0  0  0  0  0  0  0  0
   -8.6604   23.8466  -31.8445 H   0  0  0  0  0  0  0  0  0  0  0  0
   -7.7484   24.6064  -29.6487 H   0  0  0  0  0  0  0  0  0  0  0  0
   -5.4742   23.8867  -28.9201 H   0  0  0  0  0  0  0  0  0  0  0  0
   -1.3531   24.0854  -25.6256 H   0  0  0  0  0  0  0  0  0  0  0  0
    0.5428   24.2843  -24.0095 H   0  0  0  0  0  0  0  0  0  0  0  0
    3.3482   24.3802  -27.2154 H   0  0  0  0  0  0  0  0  0  0  0  0
    1.5008   24.1797  -28.8880 H   0  0  0  0  0  0  0  0  0  0  0  0
    0.5338   21.4809  -28.9187 H   0  0  0  0  0  0  0  0  0  0  0  0
    1.0632   19.2307  -27.9817 H   0  0  0  0  0  0  0  0  0  0  0  0
   -0.6664   17.9719  -26.6933 H   0  0  0  0  0  0  0  0  0  0  0  0
   -3.4641   21.2224  -27.2695 H   0  0  0  0  0  0  0  0  0  0  0  0
  1  2  2  0
  2  3  1  0
  3  4  2  0
  4  5  1  0
  5  6  2  0
  6  7  1  0
  7  8  2  0
  2  9  1  0
  9 10  1  0
 10 11  1  0
 10 12  2  0
 12 13  1  0
 12 14  1  0
 14 15  1  0
 15 16  2  0
 16 17  1  0
 17 18  2  0
 18 19  1  0
 19 20  2  0
 14 21  1  0
 21 22  1  0
 22 23  2  0
 23 24  1  0
 24 25  2  0
 25 26  1  0
 26 27  1  0
 26 28  2  0
  8  3  1  0
 21  9  2  0
 28 22  1  0
 20 15  1  0
  4 29  1  0
  5 30  1  0
  6 31  1  0
  7 32  1  0
  8 33  1  0
 16 34  1  0
 17 35  1  0
 19 36  1  0
 20 37  1  0
 23 38  1  0
 24 39  1  0
 25 40  1  0
 28 41  1  0
M  CHG  2  11  -1  13  -1
M  END
>  <UniqueID>  (44) 
42

>  <SMILES>  (44) 
O=C(c1ccccc1)c1c([O-])c([O-])n(-c2ccncc2)c1-c1cccc(Cl)c1

>  <Energy>  (44) 
90.41946298015303

>  <Genealogy>  (44) 
O=C(c1ccccc1)c1c([O-])c([O-])n(-c2ccncc2)c1-c1cccc(Cl)c1 (protonated)
O=C(c1ccccc1)c1c([O-])c([O-])n(-c2ccncc2)c1-c1cccc(Cl)c1 (3D coordinates assigned)
O=C(c1ccccc1)c1c([O-])c([O-])n(-c2ccncc2)c1-c1cccc(Cl)c1 (optimized conformer: 90.41946298015303 kcal/mol)

>  <smiles>  (44) 
O=C(c1ccccc1)c1c(O)c(O)n(-c2ccncc2)c1-c1cccc(Cl)c1

>  <score_type>  (44) 
oracle

>  <origin>  (44) 
adgpu

>  <m_score__min__energy>  (44) 
-14.34

>  <m_primary>  (44) 
energy

$$$$
44:0
     RDKit          3D

 28 29  0  0  0  0  0  0  0  0999 V2000
   -4.0540   25.6470  -30.8290 N   0  0  0  0  0  0  0  0  0  0  0  0
   -5.1800   24.7660  -30.7990 C   0  0  0  0  0  0  0  0  0  0  0  0
   -6.1080   24.8440  -29.7540 C   0  0  0  0  0  0  0  0  0  0  0  0
   -7.2020   23.9770  -29.7180 C   0  0  0  0  0  0  0  0  0  0  0  0
   -7.3880   23.0290  -30.7320 C   0  0  0  0  0  0  0  0  0  0  0  0
   -8.7300   21.9010  -30.5830 Cl  0  0  0  0  0  0  0  0  0  0  0  0
   -6.4720   22.9620  -31.8040 C   0  0  0  0  0  0  0  0  0  0  0  0
   -6.6270   22.0090  -32.8680 N   0  0  0  0  0  0  0  0  0  0  0  0
   -6.3900   20.5980  -32.7100 C   0  0  0  0  0  0  0  0  0  0  0  0
   -5.0940   20.1290  -32.4190 C   0  0  0  0  0  0  0  0  0  0  0  0
   -4.8610   18.7670  -32.2200 C   0  0  0  0  0  0  0  0  0  0  0  0
   -5.9150   17.8580  -32.2990 C   0  0  0  0  0  0  0  0  0  0  0  0
   -5.6870   16.5360  -32.1020 F   0  0  0  0  0  0  0  0  0  0  0  0
   -7.2060   18.3080  -32.5830 C   0  0  0  0  0  0  0  0  0  0  0  0
   -7.4560   19.6730  -32.7940 C   0  0  0  0  0  0  0  0  0  0  0  0
   -8.7840   20.0940  -33.1280 N   0  0  0  0  0  0  0  0  0  0  0  0
   -5.3620   23.8190  -31.8170 C   0  0  0  0  0  0  0  0  0  0  0  0
   -3.9110   26.3560  -30.0740 H   0  0  0  0  0  0  0  0  0  0  0  0
   -3.3570   25.5990  -31.6040 H   0  0  0  0  0  0  0  0  0  0  0  0
   -5.9749   25.5913  -28.9579 H   0  0  0  0  0  0  0  0  0  0  0  0
   -7.9218   24.0389  -28.8885 H   0  0  0  0  0  0  0  0  0  0  0  0
   -7.1240   22.3270  -33.7310 H   0  0  0  0  0  0  0  0  0  0  0  0
   -4.2590   20.8415  -32.3480 H   0  0  0  0  0  0  0  0  0  0  0  0
   -3.8438   18.4104  -32.0005 H   0  0  0  0  0  0  0  0  0  0  0  0
   -8.0343   17.5865  -32.6419 H   0  0  0  0  0  0  0  0  0  0  0  0
   -9.2990   19.7080  -33.9490 H   0  0  0  0  0  0  0  0  0  0  0  0
   -9.2990   20.7620  -32.5110 H   0  0  0  0  0  0  0  0  0  0  0  0
   -4.6277   23.7477  -32.6329 H   0  0  0  0  0  0  0  0  0  0  0  0
  1  2  1  0
  2  3  2  0
  3  4  1  0
  4  5  2  0
  5  6  1  0
  5  7  1  0
  7  8  1  0
  8  9  1  0
  9 10  2  0
 10 11  1  0
 11 12  2  0
 12 13  1  0
 12 14  1  0
 14 15  2  0
 15 16  1  0
  7 17  2  0
 17  2  1  0
 15  9  1  0
  1 18  1  0
  1 19  1  0
  3 20  1  0
  4 21  1  0
  8 22  1  0
 10 23  1  0
 11 24  1  0
 14 25  1  0
 16 26  1  0
 16 27  1  0
 17 28  1  0
M  END
>  <UniqueID>  (45) 
43

>  <SMILES>  (45) 
Nc1ccc(Cl)c(Nc2ccc(F)cc2N)c1

>  <Energy>  (45) 
36.2906608597274

>  <Genealogy>  (45) 
Nc1ccc(Cl)c(Nc2ccc(F)cc2N)c1 (3D coordinates assigned)
Nc1ccc(Cl)c(Nc2ccc(F)cc2N)c1 (optimized conformer: 36.2906608597274 kcal/mol)

>  <smiles>  (45) 
Nc1ccc(Cl)c(Nc2ccc(F)cc2N)c1

>  <score_type>  (45) 
oracle

>  <origin>  (45) 
adgpu

>  <m_score__min__energy>  (45) 
-6.8200000000000003

>  <m_primary>  (45) 
energy

$$$$
45:0
     RDKit          3D

 26 28  0  0  0  0  0  0  0  0999 V2000
   -3.9410   25.2970  -30.1170 N   0  0  0  0  0  0  0  0  0  0  0  0
   -4.7700   24.3190  -30.7480 C   0  0  0  0  0  0  0  0  0  0  0  0
   -6.1230   24.6260  -31.0580 C   0  0  0  0  0  0  0  0  0  0  0  0
   -6.9510   23.6710  -31.6800 C   0  0  0  0  0  0  0  0  0  0  0  0
   -6.3900   22.4330  -31.9740 C   0  0  0  0  0  0  0  0  0  0  0  0
   -6.9580   21.3680  -32.5570 N   0  0  0  0  0  0  0  0  0  0  0  0
   -5.9930   20.4490  -32.6030 N   0  0  0  0  0  0  0  0  0  0  0  0
   -6.1710   19.1330  -33.1590 C   0  0  0  0  0  0  0  0  0  0  0  0
   -5.5000   18.7580  -34.3380 C   0  0  0  0  0  0  0  0  0  0  0  0
   -5.6740   17.4800  -34.8760 C   0  0  0  0  0  0  0  0  0  0  0  0
   -6.5180   16.5630  -34.2440 C   0  0  0  0  0  0  0  0  0  0  0  0
   -7.1880   16.9230  -33.0730 C   0  0  0  0  0  0  0  0  0  0  0  0
   -7.0180   18.2000  -32.5320 C   0  0  0  0  0  0  0  0  0  0  0  0
   -4.8450   20.8790  -32.0790 N   0  0  0  0  0  0  0  0  0  0  0  0
   -5.0970   22.1350  -31.6810 C   0  0  0  0  0  0  0  0  0  0  0  0
   -4.2450   23.0460  -31.0670 C   0  0  0  0  0  0  0  0  0  0  0  0
   -4.1670   25.6500  -29.1600 H   0  0  0  0  0  0  0  0  0  0  0  0
   -3.0960   25.6740  -30.6010 H   0  0  0  0  0  0  0  0  0  0  0  0
   -6.5271   25.6185  -30.8099 H   0  0  0  0  0  0  0  0  0  0  0  0
   -7.9999   23.8957  -31.9235 H   0  0  0  0  0  0  0  0  0  0  0  0
   -4.8341   19.4757  -34.8394 H   0  0  0  0  0  0  0  0  0  0  0  0
   -5.1459   17.1956  -35.7981 H   0  0  0  0  0  0  0  0  0  0  0  0
   -6.6546   15.5576  -34.6689 H   0  0  0  0  0  0  0  0  0  0  0  0
   -7.8509   16.1999  -32.5754 H   0  0  0  0  0  0  0  0  0  0  0  0
   -7.5496   18.4780  -31.6100 H   0  0  0  0  0  0  0  0  0  0  0  0
   -3.2011   22.7858  -30.8379 H   0  0  0  0  0  0  0  0  0  0  0  0
  1  2  1  0
  2  3  1  0
  3  4  2  0
  4  5  1  0
  5  6  2  0
  6  7  1  0
  7  8  1  0
  8  9  2  0
  9 10  1  0
 10 11  2  0
 11 12  1  0
 12 13  2  0
  7 14  1  0
 14 15  2  0
 15 16  1  0
 16  2  2  0
 15  5  1  0
 13  8  1  0
  1 17  1  0
  1 18  1  0
  3 19  1  0
  4 20  1  0
  9 21  1  0
 10 22  1  0
 11 23  1  0
 12 24  1  0
 13 25  1  0
 16 26  1  0
M  END
>  <UniqueID>  (46) 
44

>  <SMILES>  (46) 
Nc1ccc2nn(-c3ccccc3)nc2c1

>  <Energy>  (46) 
71.38393425623373

>  <Genealogy>  (46) 
Nc1ccc2nn(-c3ccccc3)nc2c1 (3D coordinates assigned)
Nc1ccc2nn(-c3ccccc3)nc2c1 (optimized conformer: 71.38393425623373 kcal/mol)

>  <smiles>  (46) 
Nc1ccc2nn(-c3ccccc3)nc2c1

>  <score_type>  (46) 
oracle

>  <origin>  (46) 
adgpu

>  <m_score__min__energy>  (46) 
-7.3899999999999997

>  <m_primary>  (46) 
energy

$$$$
46:0
     RDKit          3D

 65 69  0  0  0  0  0  0  0  0999 V2000
   -3.4730   24.4540  -27.4050 C   0  0  0  0  0  0  0  0  0  0  0  0
   -2.4880   23.3570  -27.8690 C   0  0  0  0  0  0  0  0  0  0  0  0
   -1.6000   22.9720  -26.6650 C   0  0  0  0  0  0  0  0  0  0  0  0
   -1.6260   23.9230  -29.0280 C   0  0  0  0  0  0  0  0  0  0  0  0
   -0.7800   22.8500  -29.7270 C   0  0  0  0  0  0  0  0  0  0  0  0
   -1.5990   21.6840  -30.0830 N   0  0  0  0  0  0  0  0  0  0  0  0
   -1.3060   20.9350  -31.2810 C   0  0  0  0  0  0  0  0  0  0  0  0
   -1.4000   21.5520  -32.5380 C   0  0  0  0  0  0  0  0  0  0  0  0
   -1.1530   20.8260  -33.7090 C   0  0  0  0  0  0  0  0  0  0  0  0
   -0.7990   19.4680  -33.6400 C   0  0  0  0  0  0  0  0  0  0  0  0
   -0.6010   18.6710  -34.8720 C   0  0  0  0  0  0  0  0  0  0  0  0
    0.4270   18.8510  -35.5830 O   0  0  0  0  0  0  0  0  0  0  0  0
   -1.5650   17.6870  -35.2620 N   0  0  0  0  0  0  0  0  0  0  0  0
   -2.4530   17.0290  -34.3450 C   0  0  0  0  0  0  0  0  0  0  0  0
   -2.0020   15.9190  -33.6220 C   0  0  0  0  0  0  0  0  0  0  0  0
   -2.8710   15.2720  -32.7390 C   0  0  0  0  0  0  0  0  0  0  0  0
   -4.1570   15.6980  -32.6120 N   0  0  0  0  0  0  0  0  0  0  0  0
   -4.6340   16.7510  -33.3270 C   0  0  0  0  0  0  0  0  0  0  0  0
   -6.3040   17.2590  -33.1280 S   0  0  0  0  0  0  0  0  0  0  0  0
   -6.6600   17.3110  -31.6680 O   0  0  0  0  0  0  0  0  0  0  0  0
   -7.2100   16.2590  -33.7900 O   0  0  0  0  0  0  0  0  0  0  0  0
   -6.5240   18.8060  -33.8820 N   0  0  0  0  0  0  0  0  0  0  0  0
   -6.1870   20.0410  -33.2310 C   0  0  0  0  0  0  0  0  0  0  0  0
   -7.1660   20.8290  -32.6040 C   0  0  0  0  0  0  0  0  0  0  0  0
   -6.8220   22.0400  -32.0020 C   0  0  0  0  0  0  0  0  0  0  0  0
   -5.4910   22.4880  -32.0100 C   0  0  0  0  0  0  0  0  0  0  0  0
   -5.1340   23.7760  -31.3790 C   0  0  0  0  0  0  0  0  0  0  0  0
   -6.0340   24.7400  -31.0750 N   0  0  0  0  0  0  0  0  0  0  0  0
   -5.2310   25.6710  -30.5290 C   0  0  0  0  0  0  0  0  0  0  0  0
   -5.6430   26.7790  -30.0940 O   0  0  0  0  0  0  0  0  0  0  0  0
   -3.9770   25.2990  -30.5050 O   0  0  0  0  0  0  0  0  0  0  0  0
   -3.8740   24.1160  -31.0300 N   0  0  0  0  0  0  0  0  0  0  0  0
   -4.5110   21.7000  -32.6360 C   0  0  0  0  0  0  0  0  0  0  0  0
   -4.8600   20.4940  -33.2510 C   0  0  0  0  0  0  0  0  0  0  0  0
   -3.7870   17.4400  -34.2030 C   0  0  0  0  0  0  0  0  0  0  0  0
   -0.6820   18.8580  -32.3750 C   0  0  0  0  0  0  0  0  0  0  0  0
   -0.9310   19.5850  -31.2090 C   0  0  0  0  0  0  0  0  0  0  0  0
   -2.4230   21.0750  -29.0330 C   0  0  0  0  0  0  0  0  0  0  0  0
   -3.3030   22.1380  -28.3660 C   0  0  0  0  0  0  0  0  0  0  0  0
   -3.4987   24.4826  -26.3057 H   0  0  0  0  0  0  0  0  0  0  0  0
   -3.1424   25.4301  -27.7896 H   0  0  0  0  0  0  0  0  0  0  0  0
   -4.4790   24.2300  -27.7896 H   0  0  0  0  0  0  0  0  0  0  0  0
   -2.1308   23.2021  -25.7295 H   0  0  0  0  0  0  0  0  0  0  0  0
   -1.3757   21.8958  -26.7041 H   0  0  0  0  0  0  0  0  0  0  0  0
   -0.6612   23.5439  -26.7041 H   0  0  0  0  0  0  0  0  0  0  0  0
   -2.2954   24.3805  -29.7713 H   0  0  0  0  0  0  0  0  0  0  0  0
   -0.9317   24.6570  -28.5930 H   0  0  0  0  0  0  0  0  0  0  0  0
   -0.3433   23.2759  -30.6423 H   0  0  0  0  0  0  0  0  0  0  0  0
    0.0128   22.5243  -29.0375 H   0  0  0  0  0  0  0  0  0  0  0  0
   -1.6703   22.6162  -32.6036 H   0  0  0  0  0  0  0  0  0  0  0  0
   -1.2364   21.3209  -34.6878 H   0  0  0  0  0  0  0  0  0  0  0  0
   -0.9705   15.5581  -33.7478 H   0  0  0  0  0  0  0  0  0  0  0  0
   -2.5147   14.4170  -32.1457 H   0  0  0  0  0  0  0  0  0  0  0  0
   -6.5960   18.7990  -34.9200 H   0  0  0  0  0  0  0  0  0  0  0  0
   -8.2120   20.4890  -32.5873 H   0  0  0  0  0  0  0  0  0  0  0  0
   -7.5996   22.6486  -31.5173 H   0  0  0  0  0  0  0  0  0  0  0  0
   -3.4629   22.0338  -32.6424 H   0  0  0  0  0  0  0  0  0  0  0  0
   -4.0870   19.8952  -33.7549 H   0  0  0  0  0  0  0  0  0  0  0  0
   -4.1652   18.2989  -34.7769 H   0  0  0  0  0  0  0  0  0  0  0  0
   -0.3918   17.7993  -32.3054 H   0  0  0  0  0  0  0  0  0  0  0  0
   -0.8326   19.0964  -30.2284 H   0  0  0  0  0  0  0  0  0  0  0  0
   -3.0642   20.3000  -29.4783 H   0  0  0  0  0  0  0  0  0  0  0  0
   -1.7639   20.6277  -28.2744 H   0  0  0  0  0  0  0  0  0  0  0  0
   -4.0491   22.4864  -29.0953 H   0  0  0  0  0  0  0  0  0  0  0  0
   -3.7793   21.6749  -27.4892 H   0  0  0  0  0  0  0  0  0  0  0  0
  1  2  1  0
  2  3  1  0
  2  4  1  0
  4  5  1  0
  5  6  1  0
  6  7  1  0
  7  8  2  0
  8  9  1  0
  9 10  2  0
 10 11  1  0
 11 12  2  0
 11 13  1  0
 13 14  1  0
 14 15  2  0
 15 16  1  0
 16 17  2  0
 17 18  1  0
 18 19  1  0
 19 20  2  0
 19 21  2  0
 19 22  1  0
 22 23  1  0
 23 24  2  0
 24 25  1  0
 25 26  2  0
 26 27  1  0
 27 28  2  0
 28 29  1  0
 29 30  2  0
 29 31  1  0
 31 32  1  0
 26 33  1  0
 33 34  2  0
 18 35  2  0
 10 36  1  0
 36 37  2  0
  6 38  1  0
 38 39  1  0
 39  2  1  0
 37  7  1  0
 35 14  1  0
 34 23  1  0
 32 27  1  0
  1 40  1  0
  1 41  1  0
  1 42  1  0
  3 43  1  0
  3 44  1  0
  3 45  1  0
  4 46  1  0
  4 47  1  0
  5 48  1  0
  5 49  1  0
  8 50  1  0
  9 51  1  0
 15 52  1  0
 16 53  1  0
 22 54  1  0
 24 55  1  0
 25 56  1  0
 33 57  1  0
 34 58  1  0
 35 59  1  0
 36 60  1  0
 37 61  1  0
 38 62  1  0
 38 63  1  0
 39 64  1  0
 39 65  1  0
M  CHG  2  13  -1  32  -1
M  END
>  <UniqueID>  (47) 
45

>  <SMILES>  (47) 
CC1(C)CCN(c2ccc(C(=O)[N-]c3ccnc(S(=O)(=O)Nc4ccc(-c5nc(=O)o[n-]5)cc4)c3)cc2)CC1

>  <Energy>  (47) 
116.97569414650424

>  <Genealogy>  (47) 
CC1(C)CCN(c2ccc(C(=O)[N-]c3ccnc(S(=O)(=O)Nc4ccc(-c5nc(=O)o[n-]5)cc4)c3)cc2)CC1 (protonated)
CC1(C)CCN(c2ccc(C(=O)[N-]c3ccnc(S(=O)(=O)Nc4ccc(-c5nc(=O)o[n-]5)cc4)c3)cc2)CC1 (3D coordinates assigned)
CC1(C)CCN(c2ccc(C(=O)[N-]c3ccnc(S(=O)(=O)Nc4ccc(-c5nc(=O)o[n-]5)cc4)c3)cc2)CC1 (nonaromatic ring conformer: 116.97569414650424 kcal/mol)

>  <smiles>  (47) 
CC1(C)CCN(c2ccc(C(=O)Nc3ccnc(S(=O)(=O)Nc4ccc(-c5nc(=O)o[nH]5)cc4)c3)cc2)CC1

>  <score_type>  (47) 
oracle

>  <origin>  (47) 
adgpu

>  <m_score__min__energy>  (47) 
-12.41

>  <m_primary>  (47) 
energy

$$$$
47:0
     RDKit          3D

 47 49  0  0  0  0  0  0  0  0999 V2000
   -8.7320   19.8490  -31.6780 C   0  0  0  0  0  0  0  0  0  0  0  0
   -7.9570   20.7090  -32.5090 O   0  0  0  0  0  0  0  0  0  0  0  0
   -7.2570   21.8390  -32.0550 C   0  0  0  0  0  0  0  0  0  0  0  0
   -7.8740   22.8430  -31.2870 C   0  0  0  0  0  0  0  0  0  0  0  0
   -7.1410   23.9470  -30.8450 C   0  0  0  0  0  0  0  0  0  0  0  0
   -5.7770   24.0650  -31.1570 C   0  0  0  0  0  0  0  0  0  0  0  0
   -4.9870   25.2220  -30.6770 C   0  0  0  0  0  0  0  0  0  0  0  0
   -5.5650   26.3250  -30.4890 O   0  0  0  0  0  0  0  0  0  0  0  0
   -3.5710   25.1460  -30.4650 N   0  0  0  0  0  0  0  0  0  0  0  0
   -2.8720   24.1410  -29.7150 C   0  0  0  0  0  0  0  0  0  0  0  0
   -2.8690   24.2210  -28.3180 C   0  0  0  0  0  0  0  0  0  0  0  0
   -2.2180   23.2460  -27.5550 C   0  0  0  0  0  0  0  0  0  0  0  0
   -1.5730   22.1780  -28.1830 C   0  0  0  0  0  0  0  0  0  0  0  0
   -1.5810   22.0790  -29.5800 C   0  0  0  0  0  0  0  0  0  0  0  0
   -0.8890   21.0050  -30.2310 N   0  0  0  0  0  0  0  0  0  0  0  0
   -0.2980   19.9470  -29.4030 C   0  0  0  0  0  0  0  0  0  0  0  0
   -0.9220   20.9210  -31.6690 C   0  0  0  0  0  0  0  0  0  0  0  0
   -2.0940   20.5660  -32.3670 C   0  0  0  0  0  0  0  0  0  0  0  0
   -2.0730   20.5000  -33.7640 C   0  0  0  0  0  0  0  0  0  0  0  0
   -0.8920   20.7720  -34.4550 C   0  0  0  0  0  0  0  0  0  0  0  0
    0.2540   21.1200  -33.7380 C   0  0  0  0  0  0  0  0  0  0  0  0
    0.2120   21.1930  -32.3800 N   0  0  0  0  0  0  0  0  0  0  0  0
   -2.2440   23.0490  -30.3420 C   0  0  0  0  0  0  0  0  0  0  0  0
   -5.1580   23.0590  -31.9130 C   0  0  0  0  0  0  0  0  0  0  0  0
   -5.8940   21.9500  -32.3740 C   0  0  0  0  0  0  0  0  0  0  0  0
   -5.3050   20.9340  -33.1430 O   0  0  0  0  0  0  0  0  0  0  0  0
   -5.3120   19.5520  -32.7990 C   0  0  0  0  0  0  0  0  0  0  0  0
   -8.5266   20.0770  -30.6217 H   0  0  0  0  0  0  0  0  0  0  0  0
   -9.8010   20.0044  -31.8854 H   0  0  0  0  0  0  0  0  0  0  0  0
   -8.4666   18.8018  -31.8854 H   0  0  0  0  0  0  0  0  0  0  0  0
   -8.9409   22.7583  -31.0327 H   0  0  0  0  0  0  0  0  0  0  0  0
   -7.6352   24.7284  -30.2491 H   0  0  0  0  0  0  0  0  0  0  0  0
   -3.3815   25.0554  -27.8169 H   0  0  0  0  0  0  0  0  0  0  0  0
   -2.2140   23.3205  -26.4575 H   0  0  0  0  0  0  0  0  0  0  0  0
   -1.0588   21.4148  -27.5804 H   0  0  0  0  0  0  0  0  0  0  0  0
   -0.4357   20.1935  -28.3398 H   0  0  0  0  0  0  0  0  0  0  0  0
   -0.7918   18.9893  -29.6243 H   0  0  0  0  0  0  0  0  0  0  0  0
    0.7764   19.8653  -29.6243 H   0  0  0  0  0  0  0  0  0  0  0  0
   -3.0196   20.3422  -31.8164 H   0  0  0  0  0  0  0  0  0  0  0  0
   -2.9861   20.2341  -34.3168 H   0  0  0  0  0  0  0  0  0  0  0  0
   -0.8642   20.7129  -35.5531 H   0  0  0  0  0  0  0  0  0  0  0  0
    1.1917   21.3354  -34.2712 H   0  0  0  0  0  0  0  0  0  0  0  0
   -2.2740   22.9567  -31.4377 H   0  0  0  0  0  0  0  0  0  0  0  0
   -4.0863   23.1368  -32.1485 H   0  0  0  0  0  0  0  0  0  0  0  0
   -5.3125   19.4467  -31.7041 H   0  0  0  0  0  0  0  0  0  0  0  0
   -6.2126   19.0755  -33.2136 H   0  0  0  0  0  0  0  0  0  0  0  0
   -4.4163   19.0664  -33.2136 H   0  0  0  0  0  0  0  0  0  0  0  0
  1  2  1  0
  2  3  1  0
  3  4  2  0
  4  5  1  0
  5  6  2  0
  6  7  1  0
  7  8  2  0
  7  9  1  0
  9 10  1  0
 10 11  2  0
 11 12  1  0
 12 13  2  0
 13 14  1  0
 14 15  1  0
 15 16  1  0
 15 17  1  0
 17 18  2  0
 18 19  1  0
 19 20  2  0
 20 21  1  0
 21 22  2  0
 14 23  2  0
  6 24  1  0
 24 25  2  0
 25 26  1  0
 26 27  1  0
 25  3  1  0
 23 10  1  0
 22 17  1  0
  1 28  1  0
  1 29  1  0
  1 30  1  0
  4 31  1  0
  5 32  1  0
 11 33  1  0
 12 34  1  0
 13 35  1  0
 16 36  1  0
 16 37  1  0
 16 38  1  0
 18 39  1  0
 19 40  1  0
 20 41  1  0
 21 42  1  0
 23 43  1  0
 24 44  1  0
 27 45  1  0
 27 46  1  0
 27 47  1  0
M  CHG  1   9  -1
M  END
>  <UniqueID>  (48) 
46

>  <SMILES>  (48) 
COc1ccc(C(=O)[N-]c2cccc(N(C)c3ccccn3)c2)cc1OC

>  <Energy>  (48) 
61.29791681386721

>  <Genealogy>  (48) 
COc1ccc(C(=O)[N-]c2cccc(N(C)c3ccccn3)c2)cc1OC (protonated)
COc1ccc(C(=O)[N-]c2cccc(N(C)c3ccccn3)c2)cc1OC (3D coordinates assigned)
COc1ccc(C(=O)[N-]c2cccc(N(C)c3ccccn3)c2)cc1OC (optimized conformer: 61.29791681386721 kcal/mol)

>  <smiles>  (48) 
COc1ccc(C(=O)Nc2cccc(N(C)c3ccccn3)c2)cc1OC

>  <score_type>  (48) 
oracle

>  <origin>  (48) 
adgpu

>  <m_score__min__energy>  (48) 
-10.34

>  <m_primary>  (48) 
energy

$$$$
48:0
     RDKit          3D

 32 33  0  0  0  0  0  0  0  0999 V2000
   -1.7150   25.2840  -27.8230 C   0  0  0  0  0  0  0  0  0  0  0  0
   -1.7850   24.1090  -28.7420 C   0  0  0  0  0  0  0  0  0  0  0  0
   -1.0880   22.9730  -28.5280 N   0  0  0  0  0  0  0  0  0  0  0  0
   -1.4340   22.0980  -29.4600 N   0  0  0  0  0  0  0  0  0  0  0  0
   -0.9000   20.7430  -29.5300 C   0  0  0  0  0  0  0  0  0  0  0  0
   -2.3790   22.6340  -30.2630 C   0  0  0  0  0  0  0  0  0  0  0  0
   -2.9800   21.9610  -31.4590 C   0  0  0  0  0  0  0  0  0  0  0  0
   -2.6060   23.9300  -29.8520 C   0  0  0  0  0  0  0  0  0  0  0  0
   -3.5350   24.8350  -30.4610 N   0  0  0  0  0  0  0  0  0  0  0  0
   -5.2120   24.9950  -30.0540 S   0  0  0  0  0  0  0  0  0  0  0  0
   -5.3520   24.9530  -28.5590 O   0  0  0  0  0  0  0  0  0  0  0  0
   -5.7290   26.3150  -30.5540 O   0  0  0  0  0  0  0  0  0  0  0  0
   -6.1400   23.6600  -30.7310 C   0  0  0  0  0  0  0  0  0  0  0  0
   -7.1400   23.0400  -29.9670 C   0  0  0  0  0  0  0  0  0  0  0  0
   -7.8730   21.9760  -30.5000 C   0  0  0  0  0  0  0  0  0  0  0  0
   -7.6170   21.5310  -31.8030 C   0  0  0  0  0  0  0  0  0  0  0  0
   -8.5380   20.1960  -32.4690 Cl  0  0  0  0  0  0  0  0  0  0  0  0
   -6.6280   22.1540  -32.5710 C   0  0  0  0  0  0  0  0  0  0  0  0
   -5.8940   23.2180  -32.0380 C   0  0  0  0  0  0  0  0  0  0  0  0
   -1.7358   24.9354  -26.7799 H   0  0  0  0  0  0  0  0  0  0  0  0
   -0.7823   25.8376  -28.0061 H   0  0  0  0  0  0  0  0  0  0  0  0
   -2.5754   25.9445  -28.0061 H   0  0  0  0  0  0  0  0  0  0  0  0
   -0.7475   20.3559  -28.5117 H   0  0  0  0  0  0  0  0  0  0  0  0
   -1.6104   20.0961  -30.0656 H   0  0  0  0  0  0  0  0  0  0  0  0
    0.0608   20.7547  -30.0656 H   0  0  0  0  0  0  0  0  0  0  0  0
   -3.6785   21.1788  -31.1271 H   0  0  0  0  0  0  0  0  0  0  0  0
   -3.5213   22.7033  -32.0640 H   0  0  0  0  0  0  0  0  0  0  0  0
   -2.1815   21.5068  -32.0640 H   0  0  0  0  0  0  0  0  0  0  0  0
   -7.3477   23.3922  -28.9458 H   0  0  0  0  0  0  0  0  0  0  0  0
   -8.6516   21.4877  -29.8956 H   0  0  0  0  0  0  0  0  0  0  0  0
   -6.4274   21.8066  -33.5953 H   0  0  0  0  0  0  0  0  0  0  0  0
   -5.1209   23.7098  -32.6466 H   0  0  0  0  0  0  0  0  0  0  0  0
  1  2  1  0
  2  3  2  0
  3  4  1  0
  4  5  1  0
  4  6  1  0
  6  7  1  0
  6  8  2  0
  8  9  1  0
  9 10  1  0
 10 11  2  0
 10 12  2  0
 10 13  1  0
 13 14  2  0
 14 15  1  0
 15 16  2  0
 16 17  1  0
 16 18  1  0
 18 19  2  0
  8  2  1  0
 19 13  1  0
  1 20  1  0
  1 21  1  0
  1 22  1  0
  5 23  1  0
  5 24  1  0
  5 25  1  0
  7 26  1  0
  7 27  1  0
  7 28  1  0
 14 29  1  0
 15 30  1  0
 18 31  1  0
 19 32  1  0
M  CHG  1   9  -1
M  END
>  <UniqueID>  (49) 
47

>  <SMILES>  (49) 
Cc1nn(C)c(C)c1[N-]S(=O)(=O)c1ccc(Cl)cc1

>  <Energy>  (49) 
66.37581506697325

>  <Genealogy>  (49) 
Cc1nn(C)c(C)c1[N-]S(=O)(=O)c1ccc(Cl)cc1 (protonated)
Cc1nn(C)c(C)c1[N-]S(=O)(=O)c1ccc(Cl)cc1 (3D coordinates assigned)
Cc1nn(C)c(C)c1[N-]S(=O)(=O)c1ccc(Cl)cc1 (optimized conformer: 66.37581506697325 kcal/mol)

>  <smiles>  (49) 
Cc1nn(C)c(C)c1NS(=O)(=O)c1ccc(Cl)cc1

>  <score_type>  (49) 
oracle

>  <origin>  (49) 
adgpu

>  <m_score__min__energy>  (49) 
-8.4100000000000001

>  <m_primary>  (49) 
energy

$$$$
49:0
     RDKit          3D

 48 50  0  0  0  0  0  0  0  0999 V2000
   -3.8710   21.8580  -33.0550 C   0  0  0  0  0  0  0  0  0  0  0  0
   -3.9140   20.7070  -32.0520 C   0  0  0  0  0  0  0  0  0  0  0  0
   -3.4700   19.3800  -32.6790 C   0  0  0  0  0  0  0  0  0  0  0  0
   -4.0550   19.1910  -34.0060 N   0  0  0  0  0  0  0  0  0  0  0  0
   -5.4290   18.8800  -34.2830 C   0  0  0  0  0  0  0  0  0  0  0  0
   -5.7400   18.4920  -35.4400 O   0  0  0  0  0  0  0  0  0  0  0  0
   -6.4840   18.9760  -33.2600 C   0  0  0  0  0  0  0  0  0  0  0  0
   -7.2400   20.1460  -33.1020 C   0  0  0  0  0  0  0  0  0  0  0  0
   -8.2480   20.1870  -32.1330 C   0  0  0  0  0  0  0  0  0  0  0  0
   -9.2250   21.6740  -31.9140 S   0  0  0  0  0  0  0  0  0  0  0  0
   -7.7990   22.6550  -31.4460 C   0  0  0  0  0  0  0  0  0  0  0  0
   -7.1150   23.4030  -32.4100 C   0  0  0  0  0  0  0  0  0  0  0  0
   -6.0060   24.1740  -32.0450 C   0  0  0  0  0  0  0  0  0  0  0  0
   -5.5620   24.1890  -30.7090 C   0  0  0  0  0  0  0  0  0  0  0  0
   -4.4460   24.9830  -30.2850 N   0  0  0  0  0  0  0  0  0  0  0  0
   -3.1410   24.5080  -29.9350 C   0  0  0  0  0  0  0  0  0  0  0  0
   -2.3230   25.2590  -29.3400 O   0  0  0  0  0  0  0  0  0  0  0  0
   -2.7840   23.1630  -30.2720 N   0  0  0  0  0  0  0  0  0  0  0  0
   -2.0730   22.2320  -29.4410 C   0  0  0  0  0  0  0  0  0  0  0  0
   -0.6690   22.1330  -29.4620 C   0  0  0  0  0  0  0  0  0  0  0  0
   -0.0180   21.1960  -28.6520 C   0  0  0  0  0  0  0  0  0  0  0  0
   -0.7600   20.3420  -27.8300 C   0  0  0  0  0  0  0  0  0  0  0  0
   -0.1170   19.4360  -27.0510 F   0  0  0  0  0  0  0  0  0  0  0  0
   -2.1580   20.4170  -27.8230 C   0  0  0  0  0  0  0  0  0  0  0  0
   -3.1000   19.3410  -26.8070 Cl  0  0  0  0  0  0  0  0  0  0  0  0
   -2.8090   21.3550  -28.6340 C   0  0  0  0  0  0  0  0  0  0  0  0
   -6.2660   23.4530  -29.7470 C   0  0  0  0  0  0  0  0  0  0  0  0
   -7.3740   22.6820  -30.1130 C   0  0  0  0  0  0  0  0  0  0  0  0
   -8.4950   19.0620  -31.3420 C   0  0  0  0  0  0  0  0  0  0  0  0
   -7.7400   17.9050  -31.5450 C   0  0  0  0  0  0  0  0  0  0  0  0
   -6.7660   17.8860  -32.4940 N   0  0  0  0  0  0  0  0  0  0  0  0
   -3.8353   22.8149  -32.5137 H   0  0  0  0  0  0  0  0  0  0  0  0
   -2.9759   21.7605  -33.6869 H   0  0  0  0  0  0  0  0  0  0  0  0
   -4.7709   21.8276  -33.6869 H   0  0  0  0  0  0  0  0  0  0  0  0
   -3.2452   20.9437  -31.2114 H   0  0  0  0  0  0  0  0  0  0  0  0
   -4.9541   20.5909  -31.7134 H   0  0  0  0  0  0  0  0  0  0  0  0
   -2.3736   19.3761  -32.7680 H   0  0  0  0  0  0  0  0  0  0  0  0
   -3.8136   18.5604  -32.0308 H   0  0  0  0  0  0  0  0  0  0  0  0
   -7.0423   21.0240  -33.7344 H   0  0  0  0  0  0  0  0  0  0  0  0
   -7.4498   23.3850  -33.4576 H   0  0  0  0  0  0  0  0  0  0  0  0
   -5.4792   24.7705  -32.8044 H   0  0  0  0  0  0  0  0  0  0  0  0
   -0.0822   22.7939  -30.1168 H   0  0  0  0  0  0  0  0  0  0  0  0
    1.0800   21.1310  -28.6618 H   0  0  0  0  0  0  0  0  0  0  0  0
   -3.9079   21.4035  -28.6373 H   0  0  0  0  0  0  0  0  0  0  0  0
   -5.9447   23.4817  -28.6954 H   0  0  0  0  0  0  0  0  0  0  0  0
   -7.9116   22.0965  -29.3526 H   0  0  0  0  0  0  0  0  0  0  0  0
   -9.2759   19.0875  -30.5676 H   0  0  0  0  0  0  0  0  0  0  0  0
   -7.9331   17.0087  -30.9372 H   0  0  0  0  0  0  0  0  0  0  0  0
  1  2  1  0
  2  3  1  0
  3  4  1  0
  4  5  1  0
  5  6  2  0
  5  7  1  0
  7  8  2  0
  8  9  1  0
  9 10  1  0
 10 11  1  0
 11 12  2  0
 12 13  1  0
 13 14  2  0
 14 15  1  0
 15 16  1  0
 16 17  2  0
 16 18  1  0
 18 19  1  0
 19 20  2  0
 20 21  1  0
 21 22  2  0
 22 23  1  0
 22 24  1  0
 24 25  1  0
 24 26  2  0
 14 27  1  0
 27 28  2  0
  9 29  2  0
 29 30  1  0
 30 31  2  0
 31  7  1  0
 28 11  1  0
 26 19  1  0
  1 32  1  0
  1 33  1  0
  1 34  1  0
  2 35  1  0
  2 36  1  0
  3 37  1  0
  3 38  1  0
  8 39  1  0
 12 40  1  0
 13 41  1  0
 20 42  1  0
 21 43  1  0
 26 44  1  0
 27 45  1  0
 28 46  1  0
 29 47  1  0
 30 48  1  0
M  CHG  3   4  -1  15  -1  18  -1
M  END
>  <UniqueID>  (50) 
48

>  <SMILES>  (50) 
CCC[N-]C(=O)c1cc(Sc2ccc([N-]C(=O)[N-]c3ccc(F)c(Cl)c3)cc2)ccn1

>  <Energy>  (50) 
52.875069565118864

>  <Genealogy>  (50) 
CCC[N-]C(=O)c1cc(Sc2ccc([N-]C(=O)[N-]c3ccc(F)c(Cl)c3)cc2)ccn1 (protonated)
CCC[N-]C(=O)c1cc(Sc2ccc([N-]C(=O)[N-]c3ccc(F)c(Cl)c3)cc2)ccn1 (3D coordinates assigned)
CCC[N-]C(=O)c1cc(Sc2ccc([N-]C(=O)[N-]c3ccc(F)c(Cl)c3)cc2)ccn1 (optimized conformer: 52.875069565118864 kcal/mol)

>  <smiles>  (50) 
CCCNC(=O)c1cc(Sc2ccc(NC(=O)Nc3ccc(F)c(Cl)c3)cc2)ccn1

>  <score_type>  (50) 
oracle

>  <origin>  (50) 
adgpu

>  <m_score__min__energy>  (50) 
-12.48

>  <m_primary>  (50) 
energy

$$$$
