0:0
     RDKit          3D

 29 30  0  0  0  0  0  0  0  0999 V2000
   -8.3770   21.1460  -30.8440 O   0  0  0  0  0  0  0  0  0  0  0  0
   -7.7800   21.1620  -31.9540 C   0  0  0  0  0  0  0  0  0  0  0  0
   -8.1210   20.1270  -32.9830 C   0  0  0  0  0  0  0  0  0  0  0  0
   -7.0180   19.1080  -33.0830 C   0  0  0  0  0  0  0  0  0  0  0  0
   -6.0700   19.2080  -34.1160 C   0  0  0  0  0  0  0  0  0  0  0  0
   -5.0570   18.2510  -34.2400 C   0  0  0  0  0  0  0  0  0  0  0  0
   -4.9880   17.1830  -33.3400 C   0  0  0  0  0  0  0  0  0  0  0  0
   -5.9320   17.0710  -32.3170 C   0  0  0  0  0  0  0  0  0  0  0  0
   -6.9480   18.0250  -32.1870 C   0  0  0  0  0  0  0  0  0  0  0  0
   -7.8560   17.8900  -31.1880 F   0  0  0  0  0  0  0  0  0  0  0  0
   -6.7220   22.1010  -32.2010 N   0  0  0  0  0  0  0  0  0  0  0  0
   -6.4190   23.2180  -31.3490 C   0  0  0  0  0  0  0  0  0  0  0  0
   -7.4190   23.8600  -30.5960 C   0  0  0  0  0  0  0  0  0  0  0  0
   -7.1010   24.9590  -29.7920 C   0  0  0  0  0  0  0  0  0  0  0  0
   -5.7880   25.4360  -29.7430 C   0  0  0  0  0  0  0  0  0  0  0  0
   -4.7920   24.8190  -30.5050 C   0  0  0  0  0  0  0  0  0  0  0  0
   -3.4890   25.2990  -30.4650 O   0  0  0  0  0  0  0  0  0  0  0  0
   -5.1070   23.7200  -31.3110 C   0  0  0  0  0  0  0  0  0  0  0  0
   -9.0556   19.6233  -32.6954 H   0  0  0  0  0  0  0  0  0  0  0  0
   -8.2436   20.6191  -33.9591 H   0  0  0  0  0  0  0  0  0  0  0  0
   -6.1248   20.0427  -34.8303 H   0  0  0  0  0  0  0  0  0  0  0  0
   -4.3140   18.3388  -35.0464 H   0  0  0  0  0  0  0  0  0  0  0  0
   -4.1906   16.4316  -33.4378 H   0  0  0  0  0  0  0  0  0  0  0  0
   -5.8769   16.2297  -31.6105 H   0  0  0  0  0  0  0  0  0  0  0  0
   -6.0790   21.9100  -33.0030 H   0  0  0  0  0  0  0  0  0  0  0  0
   -8.4560   23.4957  -30.6399 H   0  0  0  0  0  0  0  0  0  0  0  0
   -7.8856   25.4491  -29.1969 H   0  0  0  0  0  0  0  0  0  0  0  0
   -5.5387   26.2967  -29.1049 H   0  0  0  0  0  0  0  0  0  0  0  0
   -4.3226   23.2456  -31.9190 H   0  0  0  0  0  0  0  0  0  0  0  0
  1  2  2  0
  2  3  1  0
  3  4  1  0
  4  5  2  0
  5  6  1  0
  6  7  2  0
  7  8  1  0
  8  9  2  0
  9 10  1  0
  2 11  1  0
 11 12  1  0
 12 13  2  0
 13 14  1  0
 14 15  2  0
 15 16  1  0
 16 17  1  0
 16 18  2  0
  9  4  1  0
 18 12  1  0
  3 19  1  0
  3 20  1  0
  5 21  1  0
  6 22  1  0
  7 23  1  0
  8 24  1  0
 11 25  1  0
 13 26  1  0
 14 27  1  0
 15 28  1  0
 18 29  1  0
M  CHG  1  17  -1
M  END
>  <UniqueID>  (1) 
1

>  <SMILES>  (1) 
O=C(Cc1ccccc1F)Nc1cccc([O-])c1

>  <Energy>  (1) 
31.514520379180322

>  <Genealogy>  (1) 
O=C(Cc1ccccc1F)Nc1cccc([O-])c1 (protonated)
O=C(Cc1ccccc1F)Nc1cccc([O-])c1 (3D coordinates assigned)
O=C(Cc1ccccc1F)Nc1cccc([O-])c1 (optimized conformer: 31.514520379180322 kcal/mol)

>  <smiles>  (1) 
O=C(Cc1ccccc1F)Nc1cccc(O)c1

>  <score_type>  (1) 
oracle

>  <origin>  (1) 
adgpu

>  <m_score__min__energy>  (1) 
-10.5

>  <m_primary>  (1) 
energy

$$$$
1:0
     RDKit          3D

 39 41  0  0  0  0  0  0  0  0999 V2000
   -9.5350   22.0260  -32.3420 O   0  0  0  0  0  0  0  0  0  0  0  0
   -8.1790   21.7210  -31.7720 S   0  0  0  0  0  0  0  0  0  0  0  0
   -8.2630   21.7400  -30.2710 O   0  0  0  0  0  0  0  0  0  0  0  0
   -7.0500   22.9300  -32.2930 N   0  0  0  0  0  0  0  0  0  0  0  0
   -6.1350   23.5860  -31.3970 C   0  0  0  0  0  0  0  0  0  0  0  0
   -6.5230   24.7420  -30.6940 C   0  0  0  0  0  0  0  0  0  0  0  0
   -5.6190   25.3980  -29.8540 C   0  0  0  0  0  0  0  0  0  0  0  0
   -4.3180   24.9170  -29.7140 C   0  0  0  0  0  0  0  0  0  0  0  0
   -3.9170   23.7760  -30.4080 C   0  0  0  0  0  0  0  0  0  0  0  0
   -4.8170   23.1020  -31.2480 C   0  0  0  0  0  0  0  0  0  0  0  0
   -4.3920   21.9070  -31.9170 N   0  0  0  0  0  0  0  0  0  0  0  0
   -3.8780   21.8950  -33.2740 C   0  0  0  0  0  0  0  0  0  0  0  0
   -3.2560   20.5170  -33.4610 C   0  0  0  0  0  0  0  0  0  0  0  0
   -3.7810   19.6570  -32.3120 C   0  0  0  0  0  0  0  0  0  0  0  0
   -4.2480   20.6310  -31.2400 C   0  0  0  0  0  0  0  0  0  0  0  0
   -7.6690   20.1360  -32.3490 C   0  0  0  0  0  0  0  0  0  0  0  0
   -6.8600   20.0420  -33.4900 C   0  0  0  0  0  0  0  0  0  0  0  0
   -6.4300   18.7910  -33.9450 C   0  0  0  0  0  0  0  0  0  0  0  0
   -6.8090   17.6290  -33.2640 C   0  0  0  0  0  0  0  0  0  0  0  0
   -6.2680   16.0620  -33.8340 Cl  0  0  0  0  0  0  0  0  0  0  0  0
   -7.6200   17.7200  -32.1270 C   0  0  0  0  0  0  0  0  0  0  0  0
   -8.0500   18.9700  -31.6710 C   0  0  0  0  0  0  0  0  0  0  0  0
   -6.9830   23.1060  -33.3200 H   0  0  0  0  0  0  0  0  0  0  0  0
   -7.5454   25.1320  -30.8066 H   0  0  0  0  0  0  0  0  0  0  0  0
   -5.9346   26.2957  -29.3022 H   0  0  0  0  0  0  0  0  0  0  0  0
   -3.6073   25.4380  -29.0556 H   0  0  0  0  0  0  0  0  0  0  0  0
   -2.8887   23.4017  -30.2964 H   0  0  0  0  0  0  0  0  0  0  0  0
   -4.6937   22.0498  -33.9955 H   0  0  0  0  0  0  0  0  0  0  0  0
   -3.1462   22.6992  -33.4405 H   0  0  0  0  0  0  0  0  0  0  0  0
   -3.5592   20.0891  -34.4279 H   0  0  0  0  0  0  0  0  0  0  0  0
   -2.1572   20.5675  -33.4563 H   0  0  0  0  0  0  0  0  0  0  0  0
   -4.6201   19.0332  -32.6537 H   0  0  0  0  0  0  0  0  0  0  0  0
   -3.0050   18.9777  -31.9294 H   0  0  0  0  0  0  0  0  0  0  0  0
   -5.2114   20.3075  -30.8190 H   0  0  0  0  0  0  0  0  0  0  0  0
   -3.5377   20.6896  -30.4022 H   0  0  0  0  0  0  0  0  0  0  0  0
   -6.5627   20.9538  -34.0287 H   0  0  0  0  0  0  0  0  0  0  0  0
   -5.7932   18.7208  -34.8392 H   0  0  0  0  0  0  0  0  0  0  0  0
   -7.9195   16.8071  -31.5914 H   0  0  0  0  0  0  0  0  0  0  0  0
   -8.6888   19.0384  -30.7781 H   0  0  0  0  0  0  0  0  0  0  0  0
  1  2  2  0
  2  3  2  0
  2  4  1  0
  4  5  1  0
  5  6  2  0
  6  7  1  0
  7  8  2  0
  8  9  1  0
  9 10  2  0
 10 11  1  0
 11 12  1  0
 12 13  1  0
 13 14  1  0
 14 15  1  0
  2 16  1  0
 16 17  2  0
 17 18  1  0
 18 19  2  0
 19 20  1  0
 19 21  1  0
 21 22  2  0
 10  5  1  0
 15 11  1  0
 22 16  1  0
  4 23  1  0
  6 24  1  0
  7 25  1  0
  8 26  1  0
  9 27  1  0
 12 28  1  0
 12 29  1  0
 13 30  1  0
 13 31  1  0
 14 32  1  0
 14 33  1  0
 15 34  1  0
 15 35  1  0
 17 36  1  0
 18 37  1  0
 21 38  1  0
 22 39  1  0
M  END
>  <UniqueID>  (2) 
2

>  <SMILES>  (2) 
O=S(=O)(Nc1ccccc1N1CCCC1)c1ccc(Cl)cc1

>  <Energy>  (2) 
48.36546483735019

>  <Genealogy>  (2) 
O=S(=O)(Nc1ccccc1N1CCCC1)c1ccc(Cl)cc1 (3D coordinates assigned)
O=S(=O)(Nc1ccccc1N1CCCC1)c1ccc(Cl)cc1 (nonaromatic ring conformer: 48.36546483735019 kcal/mol)

>  <smiles>  (2) 
O=S(=O)(Nc1ccccc1N1CCCC1)c1ccc(Cl)cc1

>  <score_type>  (2) 
oracle

>  <origin>  (2) 
adgpu

>  <m_score__min__energy>  (2) 
-8.7799999999999994

>  <m_primary>  (2) 
energy

$$$$
2:0
     RDKit          3D

 36 38  0  0  1  0  0  0  0  0999 V2000
   -3.9110   15.1480  -32.7270 C   0  0  0  0  0  0  0  0  0  0  0  0
   -5.0070   15.7900  -32.0250 N   0  0  0  0  0  0  0  0  0  0  0  0
   -5.6190   16.7970  -32.5960 C   0  0  0  0  0  0  0  0  0  0  0  0
   -6.6640   17.4330  -31.9620 C   0  0  0  0  0  0  0  0  0  0  0  0
   -7.2660   18.4840  -32.6100 C   0  0  0  0  0  0  0  0  0  0  0  0
   -8.3280   19.1960  -32.0650 O   0  0  0  0  0  0  0  0  0  0  0  0
   -8.2480   20.5790  -31.9410 C   0  0  0  0  0  0  0  0  0  0  0  0
   -9.3350   21.4150  -32.0980 C   0  0  0  0  0  0  0  0  0  0  0  0
   -9.2260   22.7860  -31.9690 C   0  0  0  0  0  0  0  0  0  0  0  0
   -7.9880   23.3230  -31.6760 C   0  0  0  0  0  0  0  0  0  0  0  0
   -6.8620   22.5170  -31.5090 C   0  0  0  0  0  0  0  0  0  0  0  0
   -5.5750   23.1300  -31.2000 C   0  0  0  0  0  0  0  0  0  0  0  0
   -5.4290   24.4830  -30.8830 C   0  0  0  0  0  0  0  0  0  0  0  0
   -4.1190   24.6990  -30.6570 N   0  0  0  0  0  0  0  0  0  0  0  0
   -3.5010   23.5130  -30.8320 C   0  0  0  0  0  0  0  0  0  0  0  0
   -4.3670   22.5570  -31.1590 N   0  0  0  0  0  0  0  0  0  0  0  0
   -4.0590   21.1610  -31.4230 C   0  0  0  0  0  0  0  0  0  0  0  0
   -7.0080   21.1370  -31.6450 C   0  0  0  0  0  0  0  0  0  0  0  0
   -6.8310   18.8700  -33.8360 N   0  0  0  0  0  0  0  0  0  0  0  0
   -5.8110   18.2490  -34.4520 C   0  0  0  0  0  0  0  0  0  0  0  0
   -5.2050   17.2030  -33.8180 N   0  0  0  0  0  0  0  0  0  0  0  0
   -3.2012   14.7322  -31.9967 H   0  0  0  0  0  0  0  0  0  0  0  0
   -4.3045   14.3376  -33.3582 H   0  0  0  0  0  0  0  0  0  0  0  0
   -3.3966   15.8876  -33.3582 H   0  0  0  0  0  0  0  0  0  0  0  0
   -7.0056   17.1092  -30.9678 H   0  0  0  0  0  0  0  0  0  0  0  0
  -10.3163   20.9769  -32.3326 H   0  0  0  0  0  0  0  0  0  0  0  0
  -10.1050   23.4349  -32.0967 H   0  0  0  0  0  0  0  0  0  0  0  0
   -7.8874   24.4134  -31.5717 H   0  0  0  0  0  0  0  0  0  0  0  0
   -6.2333   25.2314  -30.8283 H   0  0  0  0  0  0  0  0  0  0  0  0
   -2.4182   23.3559  -30.7188 H   0  0  0  0  0  0  0  0  0  0  0  0
   -3.9407   20.6250  -30.4697 H   0  0  0  0  0  0  0  0  0  0  0  0
   -4.8787   20.7073  -31.9995 H   0  0  0  0  0  0  0  0  0  0  0  0
   -3.1246   21.0944  -31.9995 H   0  0  0  0  0  0  0  0  0  0  0  0
   -6.1334   20.4822  -31.5169 H   0  0  0  0  0  0  0  0  0  0  0  0
   -7.2990   19.6750  -34.3240 H   0  0  0  0  0  0  0  0  0  0  0  0
   -5.4716   18.5765  -35.4458 H   0  0  0  0  0  0  0  0  0  0  0  0
  1  2  1  0
  2  3  2  0
  3  4  1  0
  4  5  2  0
  5  6  1  0
  6  7  1  0
  7  8  2  0
  8  9  1  0
  9 10  2  0
 10 11  1  0
 11 12  1  0
 12 13  2  0
 13 14  1  0
 14 15  2  0
 15 16  1  0
 16 17  1  0
 11 18  2  0
  5 19  1  0
 19 20  1  0
 20 21  2  0
 21  3  1  0
 18  7  1  0
 16 12  1  0
  1 22  1  0
  1 23  1  0
  1 24  1  0
  4 25  1  0
  8 26  1  0
  9 27  1  0
 10 28  1  0
 13 29  1  0
 15 30  1  0
 17 31  1  0
 17 32  1  0
 17 33  1  0
 18 34  1  0
 19 35  1  0
 20 36  1  0
M  END
>  <smiles>  (3) 
CN=c1cc(Oc2cccc(-c3cncn3C)c2)[nH]cn1

>  <score_type>  (3) 
oracle

>  <origin>  (3) 
adgpu

>  <m_score__min__energy>  (3) 
-8.0099999999999998

>  <m_primary>  (3) 
energy

$$$$
3:0
     RDKit          3D

 34 36  0  0  0  0  0  0  0  0999 V2000
   -1.2940   22.3340  -30.5330 N   0  0  0  0  0  0  0  0  0  0  0  0
   -2.0540   23.0600  -30.0460 C   0  0  0  0  0  0  0  0  0  0  0  0
   -3.0170   23.9790  -29.4300 C   0  0  2  0  0  0  0  0  0  0  0  0
   -3.4900   24.9230  -30.4380 N   0  0  0  0  0  0  0  0  0  0  0  0
   -4.8730   25.1190  -30.7480 C   0  0  0  0  0  0  0  0  0  0  0  0
   -5.4350   26.2190  -30.4950 O   0  0  0  0  0  0  0  0  0  0  0  0
   -5.6420   24.0360  -31.3620 C   0  0  0  0  0  0  0  0  0  0  0  0
   -6.9310   24.1390  -31.7370 N   0  0  0  0  0  0  0  0  0  0  0  0
   -7.2610   22.9610  -32.2430 N   0  0  0  0  0  0  0  0  0  0  0  0
   -6.1640   22.1810  -32.1610 C   0  0  0  0  0  0  0  0  0  0  0  0
   -6.0720   20.7680  -32.6120 C   0  0  0  0  0  0  0  0  0  0  0  0
   -7.2470   19.9930  -32.5920 C   0  0  0  0  0  0  0  0  0  0  0  0
   -7.2320   18.6580  -33.0020 C   0  0  0  0  0  0  0  0  0  0  0  0
   -6.0460   18.0750  -33.4390 C   0  0  0  0  0  0  0  0  0  0  0  0
   -4.8700   18.8240  -33.4670 C   0  0  0  0  0  0  0  0  0  0  0  0
   -4.8660   20.1650  -33.0590 C   0  0  0  0  0  0  0  0  0  0  0  0
   -3.1780   21.0770  -33.1510 Br  0  0  0  0  0  0  0  0  0  0  0  0
   -5.1670   22.8420  -31.6190 O   0  0  0  0  0  0  0  0  0  0  0  0
   -2.3620   24.7110  -28.2820 C   0  0  0  0  0  0  0  0  0  0  0  0
   -2.9180   24.6660  -26.9890 C   0  0  0  0  0  0  0  0  0  0  0  0
   -2.3090   25.3500  -25.9330 C   0  0  0  0  0  0  0  0  0  0  0  0
   -1.1450   26.0890  -26.1570 C   0  0  0  0  0  0  0  0  0  0  0  0
   -0.5890   26.1470  -27.4370 C   0  0  0  0  0  0  0  0  0  0  0  0
   -1.1940   25.4630  -28.4970 C   0  0  0  0  0  0  0  0  0  0  0  0
   -3.8751   23.4138  -29.0372 H   0  0  0  0  0  0  0  0  0  0  0  0
   -8.1894   20.4448  -32.2489 H   0  0  0  0  0  0  0  0  0  0  0  0
   -8.1590   18.0663  -32.9795 H   0  0  0  0  0  0  0  0  0  0  0  0
   -6.0364   17.0236  -33.7622 H   0  0  0  0  0  0  0  0  0  0  0  0
   -3.9358   18.3576  -33.8129 H   0  0  0  0  0  0  0  0  0  0  0  0
   -3.8371   24.0891  -26.8089 H   0  0  0  0  0  0  0  0  0  0  0  0
   -2.7467   25.3063  -24.9248 H   0  0  0  0  0  0  0  0  0  0  0  0
   -0.6659   26.6256  -25.3248 H   0  0  0  0  0  0  0  0  0  0  0  0
    0.3263   26.7315  -27.6120 H   0  0  0  0  0  0  0  0  0  0  0  0
   -0.7535   25.5139  -29.5036 H   0  0  0  0  0  0  0  0  0  0  0  0
  1  2  3  0
  2  3  1  0
  3  4  1  0
  4  5  1  0
  5  6  2  0
  5  7  1  0
  7  8  2  0
  8  9  1  0
  9 10  2  0
 10 11  1  0
 11 12  2  0
 12 13  1  0
 13 14  2  0
 14 15  1  0
 15 16  2  0
 16 17  1  0
 10 18  1  0
  3 19  1  0
 19 20  2  0
 20 21  1  0
 21 22  2  0
 22 23  1  0
 23 24  2  0
 18  7  1  0
 24 19  1  0
 16 11  1  0
  3 25  1  1
 12 26  1  0
 13 27  1  0
 14 28  1  0
 15 29  1  0
 20 30  1  0
 21 31  1  0
 22 32  1  0
 23 33  1  0
 24 34  1  0
M  CHG  1   4  -1
M  END
>  <UniqueID>  (4) 
3

>  <SMILES>  (4) 
N#C[C@H]([N-]C(=O)c1nnc(-c2ccccc2Br)o1)c1ccccc1

>  <Energy>  (4) 
71.13745835730404

>  <Genealogy>  (4) 
N#CC([N-]C(=O)c1nnc(-c2ccccc2Br)o1)c1ccccc1 (protonated)
N#C[C@H]([N-]C(=O)c1nnc(-c2ccccc2Br)o1)c1ccccc1 (chirality)
N#C[C@H]([N-]C(=O)c1nnc(-c2ccccc2Br)o1)c1ccccc1 (3D coordinates assigned)
N#C[C@H]([N-]C(=O)c1nnc(-c2ccccc2Br)o1)c1ccccc1 (optimized conformer: 71.13745835730404 kcal/mol)

>  <smiles>  (4) 
N#CC(NC(=O)c1nnc(-c2ccccc2Br)o1)c1ccccc1

>  <score_type>  (4) 
oracle

>  <origin>  (4) 
adgpu

>  <m_score__min__energy>  (4) 
-10.68

>  <m_primary>  (4) 
energy

$$$$
4:0
     RDKit          3D

 37 39  0  0  0  0  0  0  0  0999 V2000
   -9.4390   18.6930  -32.3580 C   0  0  0  0  0  0  0  0  0  0  0  0
   -9.3400   20.1090  -32.4590 O   0  0  0  0  0  0  0  0  0  0  0  0
   -8.2560   20.8630  -31.9850 C   0  0  0  0  0  0  0  0  0  0  0  0
   -6.9470   20.3520  -31.9310 C   0  0  0  0  0  0  0  0  0  0  0  0
   -5.8990   21.1420  -31.4500 C   0  0  0  0  0  0  0  0  0  0  0  0
   -6.1370   22.4590  -31.0130 C   0  0  0  0  0  0  0  0  0  0  0  0
   -5.0380   23.3130  -30.5000 C   0  0  0  0  0  0  0  0  0  0  0  0
   -4.4260   23.2320  -29.2580 C   0  0  0  0  0  0  0  0  0  0  0  0
   -3.4730   24.2350  -29.2740 C   0  0  0  0  0  0  0  0  0  0  0  0
   -2.5330   24.5790  -28.1780 C   0  0  0  0  0  0  0  0  0  0  0  0
   -1.1430   24.5830  -28.3990 C   0  0  0  0  0  0  0  0  0  0  0  0
   -0.2610   24.9060  -27.3630 C   0  0  0  0  0  0  0  0  0  0  0  0
   -0.7520   25.2250  -26.0940 C   0  0  0  0  0  0  0  0  0  0  0  0
    0.3830   25.6440  -24.7690 S   0  0  0  0  0  0  0  0  0  0  0  0
   -0.7700   26.8170  -23.9900 C   0  0  0  0  0  0  0  0  0  0  0  0
   -2.1310   25.2270  -25.8630 C   0  0  0  0  0  0  0  0  0  0  0  0
   -3.0170   24.9030  -26.8960 C   0  0  0  0  0  0  0  0  0  0  0  0
   -3.5330   24.8640  -30.4650 N   0  0  0  0  0  0  0  0  0  0  0  0
   -4.4770   24.3140  -31.2090 N   0  0  0  0  0  0  0  0  0  0  0  0
   -7.4480   22.9630  -31.0700 C   0  0  0  0  0  0  0  0  0  0  0  0
   -8.4940   22.1700  -31.5510 C   0  0  0  0  0  0  0  0  0  0  0  0
   -9.4594   18.4016  -31.2975 H   0  0  0  0  0  0  0  0  0  0  0  0
  -10.3630   18.3541  -32.8492 H   0  0  0  0  0  0  0  0  0  0  0  0
   -8.5711   18.2288  -32.8492 H   0  0  0  0  0  0  0  0  0  0  0  0
   -6.7467   19.3246  -32.2692 H   0  0  0  0  0  0  0  0  0  0  0  0
   -4.8793   20.7311  -31.4126 H   0  0  0  0  0  0  0  0  0  0  0  0
   -4.6485   22.5279  -28.4427 H   0  0  0  0  0  0  0  0  0  0  0  0
   -0.7476   24.3302  -29.3939 H   0  0  0  0  0  0  0  0  0  0  0  0
    0.8234   24.9090  -27.5476 H   0  0  0  0  0  0  0  0  0  0  0  0
   -0.6911   26.7367  -22.8958 H   0  0  0  0  0  0  0  0  0  0  0  0
   -0.5174   27.8412  -24.3017 H   0  0  0  0  0  0  0  0  0  0  0  0
   -1.7984   26.5820  -24.3017 H   0  0  0  0  0  0  0  0  0  0  0  0
   -2.5201   25.4839  -24.8667 H   0  0  0  0  0  0  0  0  0  0  0  0
   -4.1003   24.9013  -26.7053 H   0  0  0  0  0  0  0  0  0  0  0  0
   -2.9570   25.6770  -30.7770 H   0  0  0  0  0  0  0  0  0  0  0  0
   -7.6526   23.9900  -30.7333 H   0  0  0  0  0  0  0  0  0  0  0  0
   -9.5145   22.5788  -31.5883 H   0  0  0  0  0  0  0  0  0  0  0  0
  1  2  1  0
  2  3  1  0
  3  4  2  0
  4  5  1  0
  5  6  2  0
  6  7  1  0
  7  8  1  0
  8  9  2  0
  9 10  1  0
 10 11  2  0
 11 12  1  0
 12 13  2  0
 13 14  1  0
 14 15  1  0
 13 16  1  0
 16 17  2  0
  9 18  1  0
 18 19  1  0
  6 20  1  0
 20 21  2  0
 21  3  1  0
 19  7  2  0
 17 10  1  0
  1 22  1  0
  1 23  1  0
  1 24  1  0
  4 25  1  0
  5 26  1  0
  8 27  1  0
 11 28  1  0
 12 29  1  0
 15 30  1  0
 15 31  1  0
 15 32  1  0
 16 33  1  0
 17 34  1  0
 18 35  1  0
 20 36  1  0
 21 37  1  0
M  END
>  <UniqueID>  (5) 
4

>  <SMILES>  (5) 
COc1ccc(-c2cc(-c3ccc(SC)cc3)[nH]n2)cc1

>  <Energy>  (5) 
68.08799229035498

>  <Genealogy>  (5) 
COc1ccc(-c2cc(-c3ccc(SC)cc3)[nH]n2)cc1 (3D coordinates assigned)
COc1ccc(-c2cc(-c3ccc(SC)cc3)[nH]n2)cc1 (optimized conformer: 68.08799229035498 kcal/mol)

>  <smiles>  (5) 
COc1ccc(-c2cc(-c3ccc(SC)cc3)[nH]n2)cc1

>  <score_type>  (5) 
oracle

>  <origin>  (5) 
adgpu

>  <m_score__min__energy>  (5) 
-8.25

>  <m_primary>  (5) 
energy

$$$$
5:0
     RDKit          3D

 40 42  0  0  0  0  0  0  0  0999 V2000
   -1.2590   23.6500  -29.6120 O   0  0  0  0  0  0  0  0  0  0  0  0
   -2.0680   24.5480  -29.2590 C   0  0  0  0  0  0  0  0  0  0  0  0
   -3.1080   24.9270  -30.1680 N   0  0  0  0  0  0  0  0  0  0  0  0
   -4.4670   24.4590  -30.1510 C   0  0  0  0  0  0  0  0  0  0  0  0
   -5.5450   25.3480  -29.9740 C   0  0  0  0  0  0  0  0  0  0  0  0
   -6.8610   24.8790  -30.0160 C   0  0  0  0  0  0  0  0  0  0  0  0
   -7.1160   23.5270  -30.2530 C   0  0  0  0  0  0  0  0  0  0  0  0
   -6.0560   22.6400  -30.4510 C   0  0  0  0  0  0  0  0  0  0  0  0
   -4.7310   23.1000  -30.4020 C   0  0  0  0  0  0  0  0  0  0  0  0
   -3.6580   22.1720  -30.6010 N   0  0  0  0  0  0  0  0  0  0  0  0
   -3.2790   21.7740  -31.9580 C   0  0  0  0  0  0  0  0  0  0  0  0
   -1.7560   21.5580  -32.0760 C   0  0  0  0  0  0  0  0  0  0  0  0
   -1.0940   21.2230  -30.7970 N   0  0  0  0  0  0  0  0  0  0  0  0
   -1.9810   20.5250  -29.8590 C   0  0  0  0  0  0  0  0  0  0  0  0
   -3.1260   21.4490  -29.4400 C   0  0  0  0  0  0  0  0  0  0  0  0
   -1.9340   25.1550  -27.9140 C   0  0  0  0  0  0  0  0  0  0  0  0
   -0.8690   26.0330  -27.6490 C   0  0  0  0  0  0  0  0  0  0  0  0
   -0.7300   26.6170  -26.3870 C   0  0  0  0  0  0  0  0  0  0  0  0
   -1.6420   26.3190  -25.3740 C   0  0  0  0  0  0  0  0  0  0  0  0
   -2.6960   25.4370  -25.6210 C   0  0  0  0  0  0  0  0  0  0  0  0
   -2.8430   24.8500  -26.8810 C   0  0  0  0  0  0  0  0  0  0  0  0
   -3.8340   23.9400  -27.0680 F   0  0  0  0  0  0  0  0  0  0  0  0
   -5.3502   26.4168  -29.8018 H   0  0  0  0  0  0  0  0  0  0  0  0
   -7.6975   25.5766  -29.8620 H   0  0  0  0  0  0  0  0  0  0  0  0
   -8.1526   23.1603  -30.2838 H   0  0  0  0  0  0  0  0  0  0  0  0
   -6.2602   21.5769  -30.6461 H   0  0  0  0  0  0  0  0  0  0  0  0
   -3.7944   20.8363  -32.2132 H   0  0  0  0  0  0  0  0  0  0  0  0
   -3.5693   22.5792  -32.6490 H   0  0  0  0  0  0  0  0  0  0  0  0
   -1.5774   20.7350  -32.7836 H   0  0  0  0  0  0  0  0  0  0  0  0
   -1.3254   22.5112  -32.4165 H   0  0  0  0  0  0  0  0  0  0  0  0
   -0.7400   22.1010  -30.3490 H   0  0  0  0  0  0  0  0  0  0  0  0
   -0.2670   20.6130  -30.9930 H   0  0  0  0  0  0  0  0  0  0  0  0
   -2.3945   19.6294  -30.3457 H   0  0  0  0  0  0  0  0  0  0  0  0
   -1.4071   20.2321  -28.9675 H   0  0  0  0  0  0  0  0  0  0  0  0
   -3.9294   20.8476  -28.9895 H   0  0  0  0  0  0  0  0  0  0  0  0
   -2.7436   22.1797  -28.7121 H   0  0  0  0  0  0  0  0  0  0  0  0
   -0.1400   26.2620  -28.4403 H   0  0  0  0  0  0  0  0  0  0  0  0
    0.0996   27.3126  -26.1920 H   0  0  0  0  0  0  0  0  0  0  0  0
   -1.5307   26.7788  -24.3809 H   0  0  0  0  0  0  0  0  0  0  0  0
   -3.4136   25.2032  -24.8207 H   0  0  0  0  0  0  0  0  0  0  0  0
  1  2  2  0
  2  3  1  0
  3  4  1  0
  4  5  2  0
  5  6  1  0
  6  7  2  0
  7  8  1  0
  8  9  2  0
  9 10  1  0
 10 11  1  0
 11 12  1  0
 12 13  1  0
 13 14  1  0
 14 15  1  0
  2 16  1  0
 16 17  2  0
 17 18  1  0
 18 19  2  0
 19 20  1  0
 20 21  2  0
 21 22  1  0
  9  4  1  0
 15 10  1  0
 21 16  1  0
  5 23  1  0
  6 24  1  0
  7 25  1  0
  8 26  1  0
 11 27  1  0
 11 28  1  0
 12 29  1  0
 12 30  1  0
 13 31  1  0
 13 32  1  0
 14 33  1  0
 14 34  1  0
 15 35  1  0
 15 36  1  0
 17 37  1  0
 18 38  1  0
 19 39  1  0
 20 40  1  0
M  CHG  2   3  -1  13   1
M  END
>  <UniqueID>  (6) 
5

>  <SMILES>  (6) 
O=C([N-]c1ccccc1N1CC[NH2+]CC1)c1ccccc1F

>  <Energy>  (6) 
58.631360971505934

>  <Genealogy>  (6) 
O=C([N-]c1ccccc1N1CC[NH2+]CC1)c1ccccc1F (protonated)
O=C([N-]c1ccccc1N1CC[NH2+]CC1)c1ccccc1F (3D coordinates assigned)
O=C([N-]c1ccccc1N1CC[NH2+]CC1)c1ccccc1F (nonaromatic ring conformer: 58.631360971505934 kcal/mol)

>  <smiles>  (6) 
O=C(Nc1ccccc1N1CCNCC1)c1ccccc1F

>  <score_type>  (6) 
oracle

>  <origin>  (6) 
adgpu

>  <m_score__min__energy>  (6) 
-8.0199999999999996

>  <m_primary>  (6) 
energy

$$$$
6:0
     RDKit          3D

 42 45  0  0  1  0  0  0  0  0999 V2000
   -9.1220   18.9450  -30.9300 F   0  0  0  0  0  0  0  0  0  0  0  0
   -7.9820   19.0990  -31.6530 C   0  0  0  0  0  0  0  0  0  0  0  0
   -7.7240   20.2400  -32.3860 C   0  0  0  0  0  0  0  0  0  0  0  0
   -6.5530   20.3790  -33.1190 C   0  0  0  0  0  0  0  0  0  0  0  0
   -5.6200   19.3720  -33.1250 C   0  0  0  0  0  0  0  0  0  0  0  0
   -4.4020   19.4340  -33.8440 N   0  0  0  0  0  0  0  0  0  0  0  0
   -3.4380   20.1490  -33.4130 C   0  0  0  0  0  0  0  0  0  0  0  0
   -2.2190   20.2340  -34.0990 C   0  0  0  0  0  0  0  0  0  0  0  0
   -1.1620   20.9900  -33.6680 C   0  0  0  0  0  0  0  0  0  0  0  0
    0.1300   21.0860  -34.2930 C   0  0  0  0  0  0  0  0  0  0  0  0
    0.2730   21.8920  -35.4130 C   0  0  0  0  0  0  0  0  0  0  0  0
    1.4910   22.0020  -36.0960 C   0  0  0  0  0  0  0  0  0  0  0  0
    2.6120   21.3180  -35.6930 C   0  0  0  0  0  0  0  0  0  0  0  0
    2.4800   20.5160  -34.5840 C   0  0  0  0  0  0  0  0  0  0  0  0
    1.2610   20.4020  -33.8970 C   0  0  0  0  0  0  0  0  0  0  0  0
    1.2860   19.2960  -32.5420 Cl  0  0  0  0  0  0  0  0  0  0  0  0
   -1.3530   21.6720  -32.5140 N   0  0  0  0  0  0  0  0  0  0  0  0
   -2.5340   21.6060  -31.8230 C   0  0  0  0  0  0  0  0  0  0  0  0
   -2.7810   22.4980  -30.3170 S   0  0  0  0  0  0  0  0  0  0  0  0
   -4.3030   23.4230  -30.3170 C   0  0  0  0  0  0  0  0  0  0  0  0
   -5.5370   22.8170  -30.1640 C   0  0  0  0  0  0  0  0  0  0  0  0
   -6.6830   23.5700  -30.1700 C   0  0  0  0  0  0  0  0  0  0  0  0
   -6.5300   24.9420  -30.3350 C   0  0  0  0  0  0  0  0  0  0  0  0
   -5.3040   25.5450  -30.4860 C   0  0  0  0  0  0  0  0  0  0  0  0
   -4.2170   24.7560  -30.4730 N   0  0  0  0  0  0  0  0  0  0  0  0
   -3.5620   20.8470  -32.2800 N   0  0  0  0  0  0  0  0  0  0  0  0
   -5.8570   18.2100  -32.3920 C   0  0  0  0  0  0  0  0  0  0  0  0
   -7.0330   18.0700  -31.6560 C   0  0  0  0  0  0  0  0  0  0  0  0
   -8.4615   21.0561  -32.3894 H   0  0  0  0  0  0  0  0  0  0  0  0
   -6.3725   21.2979  -33.6961 H   0  0  0  0  0  0  0  0  0  0  0  0
   -2.1054   19.6635  -35.0326 H   0  0  0  0  0  0  0  0  0  0  0  0
   -0.5956   22.4614  -35.7754 H   0  0  0  0  0  0  0  0  0  0  0  0
    1.5515   22.6543  -36.9797 H   0  0  0  0  0  0  0  0  0  0  0  0
    3.5675   21.4074  -36.2306 H   0  0  0  0  0  0  0  0  0  0  0  0
    3.3520   19.9491  -34.2258 H   0  0  0  0  0  0  0  0  0  0  0  0
   -0.6510   22.2920  -32.0730 H   0  0  0  0  0  0  0  0  0  0  0  0
   -5.5993   21.7261  -30.0369 H   0  0  0  0  0  0  0  0  0  0  0  0
   -7.6753   23.1108  -30.0501 H   0  0  0  0  0  0  0  0  0  0  0  0
   -7.4307   25.5734  -30.3452 H   0  0  0  0  0  0  0  0  0  0  0  0
   -5.2163   26.6341  -30.6129 H   0  0  0  0  0  0  0  0  0  0  0  0
   -5.1129   17.3999  -32.3943 H   0  0  0  0  0  0  0  0  0  0  0  0
   -7.2148   17.1518  -31.0783 H   0  0  0  0  0  0  0  0  0  0  0  0
  1  2  1  0
  2  3  2  0
  3  4  1  0
  4  5  2  0
  5  6  1  0
  6  7  2  0
  7  8  1  0
  8  9  2  0
  9 10  1  0
 10 11  2  0
 11 12  1  0
 12 13  2  0
 13 14  1  0
 14 15  2  0
 15 16  1  0
  9 17  1  0
 17 18  1  0
 18 19  1  0
 19 20  1  0
 20 21  2  0
 21 22  1  0
 22 23  2  0
 23 24  1  0
 24 25  2  0
 18 26  2  0
  5 27  1  0
 27 28  2  0
 28  2  1  0
 26  7  1  0
 15 10  1  0
 25 20  1  0
  3 29  1  0
  4 30  1  0
  8 31  1  0
 11 32  1  0
 12 33  1  0
 13 34  1  0
 14 35  1  0
 17 36  1  0
 21 37  1  0
 22 38  1  0
 23 39  1  0
 24 40  1  0
 27 41  1  0
 28 42  1  0
M  END
>  <smiles>  (7) 
Fc1ccc(N=c2cc(-c3ccccc3Cl)[nH]c(Sc3ccccn3)n2)cc1

>  <score_type>  (7) 
oracle

>  <origin>  (7) 
adgpu

>  <m_score__min__energy>  (7) 
-9.0299999999999994

>  <m_primary>  (7) 
energy

$$$$
7:0
     RDKit          3D

 59 63  0  0  0  0  0  0  0  0999 V2000
   -6.8490   16.6440  -33.8160 C   0  0  0  0  0  0  0  0  0  0  0  0
   -5.8570   15.9730  -34.5880 O   0  0  0  0  0  0  0  0  0  0  0  0
   -4.4910   16.2910  -34.5710 C   0  0  0  0  0  0  0  0  0  0  0  0
   -3.5510   15.6060  -35.3600 C   0  0  0  0  0  0  0  0  0  0  0  0
   -2.2000   15.9490  -35.2990 C   0  0  0  0  0  0  0  0  0  0  0  0
   -1.7640   16.9720  -34.4460 C   0  0  0  0  0  0  0  0  0  0  0  0
   -2.7000   17.6950  -33.6730 C   0  0  0  0  0  0  0  0  0  0  0  0
   -4.0600   17.3260  -33.7330 C   0  0  0  0  0  0  0  0  0  0  0  0
   -2.2060   18.7790  -32.7730 C   0  0  0  0  0  0  0  0  0  0  0  0
   -3.0580   19.6960  -32.1280 C   0  0  0  0  0  0  0  0  0  0  0  0
   -2.5380   20.6440  -31.2420 C   0  0  0  0  0  0  0  0  0  0  0  0
   -1.1590   20.6910  -30.9750 C   0  0  0  0  0  0  0  0  0  0  0  0
   -0.6020   21.6570  -30.0660 N   0  0  0  0  0  0  0  0  0  0  0  0
   -1.3860   22.6300  -29.3610 C   0  0  0  0  0  0  0  0  0  0  0  0
   -2.2160   23.4890  -30.0930 C   0  0  0  0  0  0  0  0  0  0  0  0
   -3.0040   24.4490  -29.4510 C   0  0  0  0  0  0  0  0  0  0  0  0
   -3.8650   25.2770  -30.2470 N   0  0  0  0  0  0  0  0  0  0  0  0
   -5.2780   25.1140  -30.4310 C   0  0  0  0  0  0  0  0  0  0  0  0
   -6.0690   26.0360  -30.0940 O   0  0  0  0  0  0  0  0  0  0  0  0
   -5.8050   23.8840  -31.0670 C   0  0  0  0  0  0  0  0  0  0  0  0
   -4.9640   23.0660  -31.8440 C   0  0  0  0  0  0  0  0  0  0  0  0
   -5.4580   21.9030  -32.4390 C   0  0  0  0  0  0  0  0  0  0  0  0
   -6.7970   21.5430  -32.2750 C   0  0  0  0  0  0  0  0  0  0  0  0
   -7.2540   20.4030  -32.8530 F   0  0  0  0  0  0  0  0  0  0  0  0
   -7.6570   22.3530  -31.5160 C   0  0  0  0  0  0  0  0  0  0  0  0
   -9.0900   21.9520  -31.3160 C   0  0  0  0  0  0  0  0  0  0  0  0
   -7.1540   23.5140  -30.9070 C   0  0  0  0  0  0  0  0  0  0  0  0
   -2.9820   24.5290  -28.0490 C   0  0  0  0  0  0  0  0  0  0  0  0
   -2.1380   23.6950  -27.3100 C   0  0  0  0  0  0  0  0  0  0  0  0
   -1.3120   22.7620  -27.9540 C   0  0  0  0  0  0  0  0  0  0  0  0
   -0.3910   21.9070  -27.1260 C   0  0  0  0  0  0  0  0  0  0  0  0
   -0.3060   19.8050  -31.6450 C   0  0  0  0  0  0  0  0  0  0  0  0
   -0.8190   18.8700  -32.5480 C   0  0  0  0  0  0  0  0  0  0  0  0
    0.0550   18.0150  -33.2220 O   0  0  0  0  0  0  0  0  0  0  0  0
   -0.3080   17.3610  -34.4370 C   0  0  0  0  0  0  0  0  0  0  0  0
   -6.6388   16.5019  -32.7457 H   0  0  0  0  0  0  0  0  0  0  0  0
   -6.8338   17.7180  -34.0532 H   0  0  0  0  0  0  0  0  0  0  0  0
   -7.8402   16.2301  -34.0532 H   0  0  0  0  0  0  0  0  0  0  0  0
   -3.8815   14.7968  -36.0278 H   0  0  0  0  0  0  0  0  0  0  0  0
   -1.4717   15.4126  -35.9250 H   0  0  0  0  0  0  0  0  0  0  0  0
   -4.7936   17.8601  -33.1113 H   0  0  0  0  0  0  0  0  0  0  0  0
   -4.1402   19.6662  -32.3227 H   0  0  0  0  0  0  0  0  0  0  0  0
   -3.2136   21.3590  -30.7498 H   0  0  0  0  0  0  0  0  0  0  0  0
    0.4380   21.7300  -29.9920 H   0  0  0  0  0  0  0  0  0  0  0  0
   -2.2482   23.4069  -31.1895 H   0  0  0  0  0  0  0  0  0  0  0  0
   -3.9091   23.3448  -31.9839 H   0  0  0  0  0  0  0  0  0  0  0  0
   -4.7896   21.2682  -33.0392 H   0  0  0  0  0  0  0  0  0  0  0  0
   -9.3069   21.8913  -30.2393 H   0  0  0  0  0  0  0  0  0  0  0  0
   -9.7485   22.7004  -31.7811 H   0  0  0  0  0  0  0  0  0  0  0  0
   -9.2644   20.9705  -31.7811 H   0  0  0  0  0  0  0  0  0  0  0  0
   -7.8214   24.1415  -30.2981 H   0  0  0  0  0  0  0  0  0  0  0  0
   -3.6310   25.2503  -27.5308 H   0  0  0  0  0  0  0  0  0  0  0  0
   -2.1214   23.7711  -26.2128 H   0  0  0  0  0  0  0  0  0  0  0  0
   -0.5848   22.0869  -26.0583 H   0  0  0  0  0  0  0  0  0  0  0  0
   -0.5686   20.8463  -27.3573 H   0  0  0  0  0  0  0  0  0  0  0  0
    0.6535   22.1628  -27.3573 H   0  0  0  0  0  0  0  0  0  0  0  0
    0.7774   19.8455  -31.4588 H   0  0  0  0  0  0  0  0  0  0  0  0
   -0.1154   18.0414  -35.2796 H   0  0  0  0  0  0  0  0  0  0  0  0
    0.2929   16.4440  -34.5261 H   0  0  0  0  0  0  0  0  0  0  0  0
  1  2  1  0
  2  3  1  0
  3  4  2  0
  4  5  1  0
  5  6  2  0
  6  7  1  0
  7  8  2  0
  7  9  1  0
  9 10  2  0
 10 11  1  0
 11 12  2  0
 12 13  1  0
 13 14  1  0
 14 15  2  0
 15 16  1  0
 16 17  1  0
 17 18  1  0
 18 19  2  0
 18 20  1  0
 20 21  2  0
 21 22  1  0
 22 23  2  0
 23 24  1  0
 23 25  1  0
 25 26  1  0
 25 27  2  0
 16 28  2  0
 28 29  1  0
 29 30  2  0
 30 31  1  0
 12 32  1  0
 32 33  2  0
 33 34  1  0
 34 35  1  0
  8  3  1  0
 33  9  1  0
 35  6  1  0
 30 14  1  0
 27 20  1  0
  1 36  1  0
  1 37  1  0
  1 38  1  0
  4 39  1  0
  5 40  1  0
  8 41  1  0
 10 42  1  0
 11 43  1  0
 13 44  1  0
 15 45  1  0
 21 46  1  0
 22 47  1  0
 26 48  1  0
 26 49  1  0
 26 50  1  0
 27 51  1  0
 28 52  1  0
 29 53  1  0
 31 54  1  0
 31 55  1  0
 31 56  1  0
 32 57  1  0
 35 58  1  0
 35 59  1  0
M  CHG  1  17  -1
M  END
>  <UniqueID>  (8) 
6

>  <SMILES>  (8) 
COc1ccc2c(c1)-c1ccc(Nc3cc([N-]C(=O)c4ccc(F)c(C)c4)ccc3C)cc1OC2

>  <Energy>  (8) 
82.97500576640105

>  <Genealogy>  (8) 
COc1ccc2c(c1)-c1ccc(Nc3cc([N-]C(=O)c4ccc(F)c(C)c4)ccc3C)cc1OC2 (protonated)
COc1ccc2c(c1)-c1ccc(Nc3cc([N-]C(=O)c4ccc(F)c(C)c4)ccc3C)cc1OC2 (3D coordinates assigned)
COc1ccc2c(c1)-c1ccc(Nc3cc([N-]C(=O)c4ccc(F)c(C)c4)ccc3C)cc1OC2 (nonaromatic ring conformer: 82.97500576640105 kcal/mol)

>  <smiles>  (8) 
COc1ccc2c(c1)-c1ccc(Nc3cc(NC(=O)c4ccc(F)c(C)c4)ccc3C)cc1OC2

>  <score_type>  (8) 
oracle

>  <origin>  (8) 
adgpu

>  <m_score__min__energy>  (8) 
-11.289999999999999

>  <m_primary>  (8) 
energy

$$$$
8:0
     RDKit          3D

 35 37  0  0  0  0  0  0  0  0999 V2000
   -9.8415   21.7488  -31.2224 H   0  0  0  0  0  0  0  0  0  0  0  0
   -8.8660   22.2570  -31.2130 C   0  0  0  0  0  0  0  0  0  0  0  0
   -8.0100   22.1070  -30.1190 C   0  0  0  0  0  0  0  0  0  0  0  0
   -8.3156   21.4861  -29.2640 H   0  0  0  0  0  0  0  0  0  0  0  0
   -6.7670   22.7440  -30.1090 C   0  0  0  0  0  0  0  0  0  0  0  0
   -6.1017   22.6303  -29.2404 H   0  0  0  0  0  0  0  0  0  0  0  0
   -6.3600   23.5310  -31.2040 C   0  0  0  0  0  0  0  0  0  0  0  0
   -5.0250   24.1800  -31.2200 C   0  0  0  0  0  0  0  0  0  0  0  0
   -4.9460   25.4370  -31.1820 O   0  0  0  0  0  0  0  0  0  0  0  0
   -3.8090   23.4160  -31.2110 N   0  0  0  0  0  0  0  0  0  0  0  0
   -3.6200   22.2870  -31.8310 C   0  0  0  0  0  0  0  0  0  0  0  0
   -2.5010   21.5480  -31.6770 N   0  0  0  0  0  0  0  0  0  0  0  0
   -2.7640   20.4680  -32.4470 C   0  0  0  0  0  0  0  0  0  0  0  0
   -2.0796   19.6162  -32.5739 H   0  0  0  0  0  0  0  0  0  0  0  0
   -3.9700   20.5670  -33.0390 N   0  0  0  0  0  0  0  0  0  0  0  0
   -4.6400   19.5630  -33.8600 C   0  0  0  0  0  0  0  0  0  0  0  0
   -4.8428   19.9808  -34.8571 H   0  0  0  0  0  0  0  0  0  0  0  0
   -3.9934   18.6784  -33.9572 H   0  0  0  0  0  0  0  0  0  0  0  0
   -5.9380   19.1660  -33.2090 C   0  0  0  0  0  0  0  0  0  0  0  0
   -7.1060   19.9130  -33.4400 C   0  0  0  0  0  0  0  0  0  0  0  0
   -7.0886   20.7525  -34.1506 H   0  0  0  0  0  0  0  0  0  0  0  0
   -8.2900   19.5920  -32.7690 C   0  0  0  0  0  0  0  0  0  0  0  0
   -9.2035   20.1748  -32.9583 H   0  0  0  0  0  0  0  0  0  0  0  0
   -8.3150   18.5330  -31.8590 C   0  0  0  0  0  0  0  0  0  0  0  0
   -9.4620   18.2290  -31.2030 F   0  0  0  0  0  0  0  0  0  0  0  0
   -7.1540   17.7930  -31.6160 C   0  0  0  0  0  0  0  0  0  0  0  0
   -7.1744   16.9592  -30.8988 H   0  0  0  0  0  0  0  0  0  0  0  0
   -5.9670   18.1110  -32.2830 C   0  0  0  0  0  0  0  0  0  0  0  0
   -5.0531   17.5329  -32.0817 H   0  0  0  0  0  0  0  0  0  0  0  0
   -4.5060   21.7130  -32.6680 N   0  0  0  0  0  0  0  0  0  0  0  0
   -5.4340   22.0690  -32.9870 H   0  0  0  0  0  0  0  0  0  0  0  0
   -7.2370   23.6920  -32.2910 C   0  0  0  0  0  0  0  0  0  0  0  0
   -6.9431   24.3233  -33.1425 H   0  0  0  0  0  0  0  0  0  0  0  0
   -8.4820   23.0530  -32.2950 C   0  0  0  0  0  0  0  0  0  0  0  0
   -9.1600   23.1778  -33.1522 H   0  0  0  0  0  0  0  0  0  0  0  0
  1  2  1  0
  2  3  2  0
  3  4  1  0
  3  5  1  0
  5  6  1  0
  5  7  2  0
  7  8  1  0
  8  9  2  0
  8 10  1  0
 10 11  2  0
 11 12  1  0
 12 13  2  0
 13 14  1  0
 13 15  1  0
 15 16  1  0
 16 17  1  0
 16 18  1  0
 16 19  1  0
 19 20  2  0
 20 21  1  0
 20 22  1  0
 22 23  1  0
 22 24  2  0
 24 25  1  0
 24 26  1  0
 26 27  1  0
 26 28  2  0
 28 29  1  0
 15 30  1  0
 30 31  1  0
  7 32  1  0
 32 33  1  0
 32 34  2  0
 34 35  1  0
 34  2  1  0
 30 11  1  0
 28 19  1  0
M  END
>  <UniqueID>  (9) 
7

>  <SMILES>  (9) 
O=C(/N=c1/ncn(Cc2ccc(F)cc2)[nH]1)c1ccccc1

>  <Energy>  (9) 
76.60456904664755

>  <Genealogy>  (9) 
O=C(/N=c1/ncn(Cc2ccc(F)cc2)[nH]1)c1ccccc1 (cis-trans isomerization)
O=C(/N=c1/ncn(Cc2ccc(F)cc2)[nH]1)c1ccccc1 (3D coordinates assigned)
O=C(/N=c1/ncn(Cc2ccc(F)cc2)[nH]1)c1ccccc1 (optimized conformer: 76.60456904664755 kcal/mol)

>  <smiles>  (9) 
O=C(N=c1ncn(Cc2ccc(F)cc2)[nH]1)c1ccccc1

>  <score_type>  (9) 
oracle

>  <origin>  (9) 
adgpu

>  <m_score__min__energy>  (9) 
-8.0600000000000005

>  <m_primary>  (9) 
energy

$$$$
9:0
     RDKit          3D

 70 73  0  0  0  0  0  0  0  0999 V2000
    1.0620   18.3700  -37.9610 C   0  0  0  0  0  0  0  0  0  0  0  0
    1.5170   19.5350  -37.0880 C   0  0  0  0  0  0  0  0  0  0  0  0
    0.7120   19.6000  -35.8220 C   0  0  0  0  0  0  0  0  0  0  0  0
    0.0590   18.5380  -35.3150 N   0  0  0  0  0  0  0  0  0  0  0  0
   -0.5610   19.0090  -34.2110 C   0  0  0  0  0  0  0  0  0  0  0  0
   -1.3260   18.1110  -33.2730 C   0  0  0  0  0  0  0  0  0  0  0  0
   -2.7320   17.8140  -33.7890 C   0  0  0  0  0  0  0  0  0  0  0  0
   -0.3130   20.3290  -33.9960 N   0  0  0  0  0  0  0  0  0  0  0  0
   -0.6710   21.1260  -32.8150 C   0  0  0  0  0  0  0  0  0  0  0  0
   -2.1490   21.0340  -32.5460 C   0  0  0  0  0  0  0  0  0  0  0  0
   -2.6220   20.4630  -31.3540 C   0  0  0  0  0  0  0  0  0  0  0  0
   -3.9950   20.3910  -31.1010 C   0  0  0  0  0  0  0  0  0  0  0  0
   -4.9100   20.8920  -32.0360 C   0  0  0  0  0  0  0  0  0  0  0  0
   -6.3570   20.8010  -31.7790 C   0  0  0  0  0  0  0  0  0  0  0  0
   -6.9990   19.5730  -31.9950 C   0  0  0  0  0  0  0  0  0  0  0  0
   -8.3720   19.4450  -31.7760 C   0  0  0  0  0  0  0  0  0  0  0  0
   -9.1160   20.5420  -31.3410 C   0  0  0  0  0  0  0  0  0  0  0  0
   -8.4870   21.7700  -31.1150 C   0  0  0  0  0  0  0  0  0  0  0  0
   -7.1060   21.9140  -31.3230 C   0  0  0  0  0  0  0  0  0  0  0  0
   -6.3470   23.4830  -31.0120 S   0  0  0  0  0  0  0  0  0  0  0  0
   -7.2390   24.2870  -30.1090 O   0  0  0  0  0  0  0  0  0  0  0  0
   -6.1710   24.2360  -32.3000 O   0  0  0  0  0  0  0  0  0  0  0  0
   -4.7880   23.2240  -30.2900 N   0  0  0  0  0  0  0  0  0  0  0  0
   -3.8310   24.2390  -29.9690 C   0  0  0  0  0  0  0  0  0  0  0  0
   -3.8490   25.3140  -30.6240 O   0  0  0  0  0  0  0  0  0  0  0  0
   -2.8110   24.0700  -28.9210 C   0  0  0  0  0  0  0  0  0  0  0  0
   -1.4680   23.8400  -29.1450 C   0  0  0  0  0  0  0  0  0  0  0  0
   -0.8870   23.7960  -27.8950 C   0  0  0  0  0  0  0  0  0  0  0  0
    0.5590   23.5590  -27.6220 C   0  0  0  0  0  0  0  0  0  0  0  0
   -1.7880   24.0220  -26.9650 O   0  0  0  0  0  0  0  0  0  0  0  0
   -2.9510   24.2070  -27.5460 C   0  0  0  0  0  0  0  0  0  0  0  0
   -4.1970   24.5380  -26.7890 C   0  0  0  0  0  0  0  0  0  0  0  0
   -4.4420   21.4850  -33.2160 C   0  0  0  0  0  0  0  0  0  0  0  0
   -3.0700   21.5490  -33.4730 C   0  0  0  0  0  0  0  0  0  0  0  0
    0.4960   20.7020  -35.0140 C   0  0  0  0  0  0  0  0  0  0  0  0
    1.0500   22.0550  -35.2100 C   0  0  0  0  0  0  0  0  0  0  0  0
    0.2680   23.0360  -35.3370 O   0  0  0  0  0  0  0  0  0  0  0  0
    2.4680   22.2600  -35.2410 N   0  0  0  0  0  0  0  0  0  0  0  0
    3.0490   23.5720  -35.4910 C   0  0  0  0  0  0  0  0  0  0  0  0
    0.7367   17.5370  -37.3204 H   0  0  0  0  0  0  0  0  0  0  0  0
    0.2240   18.6931  -38.5961 H   0  0  0  0  0  0  0  0  0  0  0  0
    1.8972   18.0397  -38.5961 H   0  0  0  0  0  0  0  0  0  0  0  0
    2.5788   19.4016  -36.8336 H   0  0  0  0  0  0  0  0  0  0  0  0
    1.3714   20.4715  -37.6464 H   0  0  0  0  0  0  0  0  0  0  0  0
   -0.7795   17.1626  -33.1639 H   0  0  0  0  0  0  0  0  0  0  0  0
   -1.4197   18.6282  -32.3067 H   0  0  0  0  0  0  0  0  0  0  0  0
   -3.4126   17.6702  -32.9368 H   0  0  0  0  0  0  0  0  0  0  0  0
   -3.0838   18.6576  -34.4010 H   0  0  0  0  0  0  0  0  0  0  0  0
   -2.7126   16.9001  -34.4010 H   0  0  0  0  0  0  0  0  0  0  0  0
   -0.1197   20.7471  -31.9418 H   0  0  0  0  0  0  0  0  0  0  0  0
   -0.4080   22.1776  -33.0021 H   0  0  0  0  0  0  0  0  0  0  0  0
   -1.9083   20.0700  -30.6149 H   0  0  0  0  0  0  0  0  0  0  0  0
   -4.3577   19.9399  -30.1656 H   0  0  0  0  0  0  0  0  0  0  0  0
   -6.4172   18.7052  -32.3391 H   0  0  0  0  0  0  0  0  0  0  0  0
   -8.8677   18.4780  -31.9467 H   0  0  0  0  0  0  0  0  0  0  0  0
  -10.1988   20.4407  -31.1756 H   0  0  0  0  0  0  0  0  0  0  0  0
   -9.0793   22.6308  -30.7712 H   0  0  0  0  0  0  0  0  0  0  0  0
   -0.9668   23.7176  -30.1165 H   0  0  0  0  0  0  0  0  0  0  0  0
    0.7273   23.5314  -26.5353 H   0  0  0  0  0  0  0  0  0  0  0  0
    0.8632   22.5990  -28.0646 H   0  0  0  0  0  0  0  0  0  0  0  0
    1.1537   24.3717  -28.0646 H   0  0  0  0  0  0  0  0  0  0  0  0
   -3.9951   24.4844  -25.7090 H   0  0  0  0  0  0  0  0  0  0  0  0
   -4.5258   25.5546  -27.0505 H   0  0  0  0  0  0  0  0  0  0  0  0
   -4.9869   23.8186  -27.0505 H   0  0  0  0  0  0  0  0  0  0  0  0
   -5.1562   21.9011  -33.9417 H   0  0  0  0  0  0  0  0  0  0  0  0
   -2.7092   22.0053  -34.4066 H   0  0  0  0  0  0  0  0  0  0  0  0
    3.1080   21.4600  -35.0390 H   0  0  0  0  0  0  0  0  0  0  0  0
    3.2673   24.0651  -34.5322 H   0  0  0  0  0  0  0  0  0  0  0  0
    3.9805   23.4572  -36.0648 H   0  0  0  0  0  0  0  0  0  0  0  0
    2.3380   24.1846  -36.0648 H   0  0  0  0  0  0  0  0  0  0  0  0
  1  2  1  0
  2  3  1  0
  3  4  1  0
  4  5  2  0
  5  6  1  0
  6  7  1  0
  5  8  1  0
  8  9  1  0
  9 10  1  0
 10 11  2  0
 11 12  1  0
 12 13  2  0
 13 14  1  0
 14 15  2  0
 15 16  1  0
 16 17  2  0
 17 18  1  0
 18 19  2  0
 19 20  1  0
 20 21  2  0
 20 22  2  0
 20 23  1  0
 23 24  1  0
 24 25  2  0
 24 26  1  0
 26 27  1  0
 27 28  2  0
 28 29  1  0
 28 30  1  0
 30 31  1  0
 31 32  1  0
 13 33  1  0
 33 34  2  0
  8 35  1  0
 35 36  1  0
 36 37  2  0
 36 38  1  0
 38 39  1  0
 35  3  2  0
 34 10  1  0
 19 14  1  0
 31 26  2  0
  1 40  1  0
  1 41  1  0
  1 42  1  0
  2 43  1  0
  2 44  1  0
  6 45  1  0
  6 46  1  0
  7 47  1  0
  7 48  1  0
  7 49  1  0
  9 50  1  0
  9 51  1  0
 11 52  1  0
 12 53  1  0
 15 54  1  0
 16 55  1  0
 17 56  1  0
 18 57  1  0
 27 58  1  0
 29 59  1  0
 29 60  1  0
 29 61  1  0
 32 62  1  0
 32 63  1  0
 32 64  1  0
 33 65  1  0
 34 66  1  0
 38 67  1  0
 39 68  1  0
 39 69  1  0
 39 70  1  0
M  CHG  1  23  -1
M  END
>  <UniqueID>  (10) 
8

>  <SMILES>  (10) 
CCc1nc(CC)n(Cc2ccc(-c3ccccc3S(=O)(=O)[N-]C(=O)c3cc(C)oc3C)cc2)c1C(=O)NC

>  <Energy>  (10) 
135.01363037509142

>  <Genealogy>  (10) 
CCc1nc(CC)n(Cc2ccc(-c3ccccc3S(=O)(=O)[N-]C(=O)c3cc(C)oc3C)cc2)c1C(=O)NC (protonated)
CCc1nc(CC)n(Cc2ccc(-c3ccccc3S(=O)(=O)[N-]C(=O)c3cc(C)oc3C)cc2)c1C(=O)NC (3D coordinates assigned)
CCc1nc(CC)n(Cc2ccc(-c3ccccc3S(=O)(=O)[N-]C(=O)c3cc(C)oc3C)cc2)c1C(=O)NC (optimized conformer: 135.01363037509142 kcal/mol)

>  <smiles>  (10) 
CCc1nc(CC)n(Cc2ccc(-c3ccccc3S(=O)(=O)NC(=O)c3cc(C)oc3C)cc2)c1C(=O)NC

>  <score_type>  (10) 
oracle

>  <origin>  (10) 
adgpu

>  <m_score__min__energy>  (10) 
-11.380000000000001

>  <m_primary>  (10) 
energy

$$$$
10:0
     RDKit          3D

 57 59  0  0  0  0  0  0  0  0999 V2000
    1.5670   23.7030  -27.0770 C   0  0  0  0  0  0  0  0  0  0  0  0
    0.8460   24.1690  -28.2140 O   0  0  0  0  0  0  0  0  0  0  0  0
   -0.5530   24.2240  -28.2960 C   0  0  0  0  0  0  0  0  0  0  0  0
   -1.1670   23.7990  -29.4780 C   0  0  0  0  0  0  0  0  0  0  0  0
   -2.5570   23.8310  -29.6100 C   0  0  0  0  0  0  0  0  0  0  0  0
   -3.3630   24.2890  -28.5520 C   0  0  0  0  0  0  0  0  0  0  0  0
   -4.7990   24.3290  -28.6480 N   0  0  0  0  0  0  0  0  0  0  0  0
   -5.6650   24.7880  -30.0810 S   0  0  0  0  0  0  0  0  0  0  0  0
   -6.8730   25.5940  -29.6920 O   0  0  0  0  0  0  0  0  0  0  0  0
   -4.7700   25.6310  -30.9460 O   0  0  0  0  0  0  0  0  0  0  0  0
   -6.2020   23.3530  -30.9510 C   0  0  0  0  0  0  0  0  0  0  0  0
   -7.5500   22.9880  -30.9460 C   0  0  0  0  0  0  0  0  0  0  0  0
   -7.9710   21.8530  -31.6410 C   0  0  0  0  0  0  0  0  0  0  0  0
   -7.0480   21.0580  -32.3420 C   0  0  0  0  0  0  0  0  0  0  0  0
   -7.5320   19.8220  -33.0490 C   0  0  0  0  0  0  0  0  0  0  0  0
   -5.6810   21.4260  -32.3550 C   0  0  0  0  0  0  0  0  0  0  0  0
   -4.7120   20.6270  -33.0680 N   0  0  0  0  0  0  0  0  0  0  0  0
   -3.3860   21.1170  -33.4500 C   0  0  0  0  0  0  0  0  0  0  0  0
   -2.4140   20.9350  -32.3140 C   0  0  0  0  0  0  0  0  0  0  0  0
   -1.0450   21.1680  -32.5030 C   0  0  0  0  0  0  0  0  0  0  0  0
   -0.1560   21.0410  -31.4340 C   0  0  0  0  0  0  0  0  0  0  0  0
   -0.6230   20.6790  -30.1560 C   0  0  0  0  0  0  0  0  0  0  0  0
    0.2410   20.5510  -29.0560 O   0  0  0  0  0  0  0  0  0  0  0  0
    0.5740   19.3160  -28.4300 C   0  0  0  0  0  0  0  0  0  0  0  0
   -1.9920   20.4380  -29.9610 C   0  0  0  0  0  0  0  0  0  0  0  0
   -2.4300   20.0780  -28.6760 O   0  0  0  0  0  0  0  0  0  0  0  0
   -2.4890   20.9700  -27.5660 C   0  0  0  0  0  0  0  0  0  0  0  0
   -2.8830   20.5660  -31.0440 C   0  0  0  0  0  0  0  0  0  0  0  0
   -5.2750   22.5780  -31.6550 C   0  0  0  0  0  0  0  0  0  0  0  0
   -2.7460   24.7210  -27.3690 C   0  0  0  0  0  0  0  0  0  0  0  0
   -1.3540   24.6920  -27.2390 C   0  0  0  0  0  0  0  0  0  0  0  0
    1.0574   24.0323  -26.1595 H   0  0  0  0  0  0  0  0  0  0  0  0
    1.6126   22.6041  -27.0968 H   0  0  0  0  0  0  0  0  0  0  0  0
    2.5876   24.1127  -27.0968 H   0  0  0  0  0  0  0  0  0  0  0  0
   -0.5491   23.4358  -30.3124 H   0  0  0  0  0  0  0  0  0  0  0  0
   -3.0246   23.4958  -30.5475 H   0  0  0  0  0  0  0  0  0  0  0  0
   -5.3710   24.0020  -27.8370 H   0  0  0  0  0  0  0  0  0  0  0  0
   -8.2813   23.5960  -30.3934 H   0  0  0  0  0  0  0  0  0  0  0  0
   -9.0361   21.5780  -31.6400 H   0  0  0  0  0  0  0  0  0  0  0  0
   -7.8278   19.0667  -32.3060 H   0  0  0  0  0  0  0  0  0  0  0  0
   -8.3974   20.0751  -33.6790 H   0  0  0  0  0  0  0  0  0  0  0  0
   -6.7248   19.4202  -33.6790 H   0  0  0  0  0  0  0  0  0  0  0  0
   -4.9070   19.6160  -33.2410 H   0  0  0  0  0  0  0  0  0  0  0  0
   -3.0299   20.5548  -34.3258 H   0  0  0  0  0  0  0  0  0  0  0  0
   -3.4564   22.1876  -33.6925 H   0  0  0  0  0  0  0  0  0  0  0  0
   -0.6696   21.4520  -33.4972 H   0  0  0  0  0  0  0  0  0  0  0  0
    0.9170   21.2251  -31.5913 H   0  0  0  0  0  0  0  0  0  0  0  0
    0.5411   19.4382  -27.3373 H   0  0  0  0  0  0  0  0  0  0  0  0
   -0.1481   18.5441  -28.7346 H   0  0  0  0  0  0  0  0  0  0  0  0
    1.5863   19.0118  -28.7346 H   0  0  0  0  0  0  0  0  0  0  0  0
   -2.4509   20.3935  -26.6299 H   0  0  0  0  0  0  0  0  0  0  0  0
   -1.6346   21.6617  -27.6057 H   0  0  0  0  0  0  0  0  0  0  0  0
   -3.4270   21.5432  -27.6057 H   0  0  0  0  0  0  0  0  0  0  0  0
   -3.9557   20.3751  -30.8931 H   0  0  0  0  0  0  0  0  0  0  0  0
   -4.2151   22.8722  -31.6619 H   0  0  0  0  0  0  0  0  0  0  0  0
   -3.3632   25.0863  -26.5350 H   0  0  0  0  0  0  0  0  0  0  0  0
   -0.8836   25.0366  -26.3063 H   0  0  0  0  0  0  0  0  0  0  0  0
  1  2  1  0
  2  3  1  0
  3  4  2  0
  4  5  1  0
  5  6  2  0
  6  7  1  0
  7  8  1  0
  8  9  2  0
  8 10  2  0
  8 11  1  0
 11 12  2  0
 12 13  1  0
 13 14  2  0
 14 15  1  0
 14 16  1  0
 16 17  1  0
 17 18  1  0
 18 19  1  0
 19 20  2  0
 20 21  1  0
 21 22  2  0
 22 23  1  0
 23 24  1  0
 22 25  1  0
 25 26  1  0
 26 27  1  0
 25 28  2  0
 16 29  2  0
  6 30  1  0
 30 31  2  0
 31  3  1  0
 29 11  1  0
 28 19  1  0
  1 32  1  0
  1 33  1  0
  1 34  1  0
  4 35  1  0
  5 36  1  0
  7 37  1  0
 12 38  1  0
 13 39  1  0
 15 40  1  0
 15 41  1  0
 15 42  1  0
 17 43  1  0
 18 44  1  0
 18 45  1  0
 20 46  1  0
 21 47  1  0
 24 48  1  0
 24 49  1  0
 24 50  1  0
 27 51  1  0
 27 52  1  0
 27 53  1  0
 28 54  1  0
 29 55  1  0
 30 56  1  0
 31 57  1  0
M  END
>  <UniqueID>  (11) 
9

>  <SMILES>  (11) 
COc1ccc(NS(=O)(=O)c2ccc(C)c(NCc3ccc(OC)c(OC)c3)c2)cc1

>  <Energy>  (11) 
59.16933479505883

>  <Genealogy>  (11) 
COc1ccc(NS(=O)(=O)c2ccc(C)c(NCc3ccc(OC)c(OC)c3)c2)cc1 (3D coordinates assigned)
COc1ccc(NS(=O)(=O)c2ccc(C)c(NCc3ccc(OC)c(OC)c3)c2)cc1 (optimized conformer: 59.16933479505883 kcal/mol)

>  <smiles>  (11) 
COc1ccc(NS(=O)(=O)c2ccc(C)c(NCc3ccc(OC)c(OC)c3)c2)cc1

>  <score_type>  (11) 
oracle

>  <origin>  (11) 
adgpu

>  <m_score__min__energy>  (11) 
-9.8300000000000001

>  <m_primary>  (11) 
energy

$$$$
11:0
     RDKit          3D

 38 40  0  0  0  0  0  0  0  0999 V2000
   -5.7450   18.4240  -34.9590 C   0  0  0  0  0  0  0  0  0  0  0  0
   -6.4690   18.5170  -33.6580 C   0  0  0  0  0  0  0  0  0  0  0  0
   -7.0780   19.6420  -33.1450 C   0  0  0  0  0  0  0  0  0  0  0  0
   -7.5560   19.2020  -31.9240 C   0  0  0  0  0  0  0  0  0  0  0  0
   -8.2170   19.8980  -31.0490 N   0  0  0  0  0  0  0  0  0  0  0  0
   -8.6560   21.5640  -31.2560 S   0  0  0  0  0  0  0  0  0  0  0  0
   -9.7260   21.9200  -30.2630 O   0  0  0  0  0  0  0  0  0  0  0  0
   -9.1930   21.7670  -32.6440 O   0  0  0  0  0  0  0  0  0  0  0  0
   -7.2340   22.5790  -31.0380 C   0  0  0  0  0  0  0  0  0  0  0  0
   -6.0860   22.3330  -31.8020 C   0  0  0  0  0  0  0  0  0  0  0  0
   -4.9350   23.1010  -31.6080 C   0  0  0  0  0  0  0  0  0  0  0  0
   -4.9150   24.1130  -30.6320 C   0  0  0  0  0  0  0  0  0  0  0  0
   -3.7430   24.9040  -30.3900 N   0  0  0  0  0  0  0  0  0  0  0  0
   -2.6780   24.5830  -29.4830 C   0  0  0  0  0  0  0  0  0  0  0  0
   -2.0220   25.5270  -28.9680 O   0  0  0  0  0  0  0  0  0  0  0  0
   -2.3620   23.1870  -29.0980 C   0  0  0  0  0  0  0  0  0  0  0  0
   -2.7630   22.6950  -27.8440 C   0  0  0  0  0  0  0  0  0  0  0  0
   -2.4590   21.3820  -27.4690 C   0  0  0  0  0  0  0  0  0  0  0  0
   -1.7610   20.5460  -28.3440 C   0  0  0  0  0  0  0  0  0  0  0  0
   -1.3720   21.0190  -29.6010 C   0  0  0  0  0  0  0  0  0  0  0  0
   -0.5010   19.9680  -30.7020 Cl  0  0  0  0  0  0  0  0  0  0  0  0
   -1.6800   22.3300  -29.9820 C   0  0  0  0  0  0  0  0  0  0  0  0
   -6.0770   24.3810  -29.8980 C   0  0  0  0  0  0  0  0  0  0  0  0
   -7.2300   23.6140  -30.0950 C   0  0  0  0  0  0  0  0  0  0  0  0
   -7.2400   17.9070  -31.7380 N   0  0  0  0  0  0  0  0  0  0  0  0
   -6.5850   17.5300  -32.7980 O   0  0  0  0  0  0  0  0  0  0  0  0
   -4.6700   18.2859  -34.7713 H   0  0  0  0  0  0  0  0  0  0  0  0
   -6.1300   17.5679  -35.5325 H   0  0  0  0  0  0  0  0  0  0  0  0
   -5.9012   19.3496  -35.5325 H   0  0  0  0  0  0  0  0  0  0  0  0
   -7.1629   20.6421  -33.5952 H   0  0  0  0  0  0  0  0  0  0  0  0
   -6.0906   21.5329  -32.5569 H   0  0  0  0  0  0  0  0  0  0  0  0
   -4.0412   22.9132  -32.2211 H   0  0  0  0  0  0  0  0  0  0  0  0
   -3.3191   23.3461  -27.1535 H   0  0  0  0  0  0  0  0  0  0  0  0
   -2.7703   21.0069  -26.4829 H   0  0  0  0  0  0  0  0  0  0  0  0
   -1.5175   19.5160  -28.0442 H   0  0  0  0  0  0  0  0  0  0  0  0
   -1.3873   22.6928  -30.9783 H   0  0  0  0  0  0  0  0  0  0  0  0
   -6.0831   25.1990  -29.1626 H   0  0  0  0  0  0  0  0  0  0  0  0
   -8.1359   23.8245  -29.5076 H   0  0  0  0  0  0  0  0  0  0  0  0
  1  2  1  0
  2  3  2  0
  3  4  1  0
  4  5  2  3
  5  6  1  0
  6  7  2  0
  6  8  2  0
  6  9  1  0
  9 10  2  0
 10 11  1  0
 11 12  2  0
 12 13  1  0
 13 14  1  0
 14 15  2  0
 14 16  1  0
 16 17  2  0
 17 18  1  0
 18 19  2  0
 19 20  1  0
 20 21  1  0
 20 22  2  0
 12 23  1  0
 23 24  2  0
  4 25  1  0
 25 26  1  0
 26  2  1  0
 24  9  1  0
 22 16  1  0
  1 27  1  0
  1 28  1  0
  1 29  1  0
  3 30  1  0
 10 31  1  0
 11 32  1  0
 17 33  1  0
 18 34  1  0
 19 35  1  0
 22 36  1  0
 23 37  1  0
 24 38  1  0
M  CHG  2  13  -1  25  -1
M  END
>  <UniqueID>  (12) 
10

>  <SMILES>  (12) 
Cc1cc(=NS(=O)(=O)c2ccc([N-]C(=O)c3cccc(Cl)c3)cc2)[n-]o1

>  <Energy>  (12) 
78.89807273163312

>  <Genealogy>  (12) 
Cc1cc(=NS(=O)(=O)c2ccc([N-]C(=O)c3cccc(Cl)c3)cc2)[n-]o1 (protonated)
Cc1cc(=NS(=O)(=O)c2ccc([N-]C(=O)c3cccc(Cl)c3)cc2)[n-]o1 (3D coordinates assigned)
Cc1cc(=NS(=O)(=O)c2ccc([N-]C(=O)c3cccc(Cl)c3)cc2)[n-]o1 (optimized conformer: 78.89807273163312 kcal/mol)

>  <smiles>  (12) 
Cc1cc(=NS(=O)(=O)c2ccc(NC(=O)c3cccc(Cl)c3)cc2)[nH]o1

>  <score_type>  (12) 
oracle

>  <origin>  (12) 
adgpu

>  <m_score__min__energy>  (12) 
-10.81

>  <m_primary>  (12) 
energy

$$$$
12:0
     RDKit          3D

 41 43  0  0  0  0  0  0  0  0999 V2000
   -2.4480   25.2980  -29.3250 O   0  0  0  0  0  0  0  0  0  0  0  0
   -2.8070   24.1190  -29.9700 C   0  0  0  0  0  0  0  0  0  0  0  0
   -1.8900   23.0680  -30.0480 C   0  0  0  0  0  0  0  0  0  0  0  0
   -2.2350   21.8760  -30.6940 C   0  0  0  0  0  0  0  0  0  0  0  0
   -1.3030   20.8470  -30.7590 O   0  0  0  0  0  0  0  0  0  0  0  0
   -3.5080   21.7280  -31.2800 C   0  0  0  0  0  0  0  0  0  0  0  0
   -3.8570   20.4850  -31.9240 N   0  0  0  0  0  0  0  0  0  0  0  0
   -4.6010   20.3980  -33.1910 C   0  0  0  0  0  0  0  0  0  0  0  0
   -5.8720   19.4840  -33.0920 C   0  0  0  0  0  0  0  0  0  0  0  0
   -7.1330   20.3060  -32.6990 C   0  0  0  0  0  0  0  0  0  0  0  0
   -8.4050   19.6860  -32.7000 C   0  0  0  0  0  0  0  0  0  0  0  0
   -9.5560   20.3850  -32.3290 C   0  0  0  0  0  0  0  0  0  0  0  0
   -9.4720   21.7220  -31.9480 C   0  0  0  0  0  0  0  0  0  0  0  0
   -8.2360   22.3630  -31.9430 C   0  0  0  0  0  0  0  0  0  0  0  0
   -7.0790   21.6720  -32.3130 C   0  0  0  0  0  0  0  0  0  0  0  0
   -6.1120   18.8030  -34.4850 C   0  0  0  0  0  0  0  0  0  0  0  0
   -5.9720   17.2830  -34.4100 C   0  0  0  0  0  0  0  0  0  0  0  0
   -6.8520   16.7820  -33.4300 O   0  0  0  0  0  0  0  0  0  0  0  0
   -6.4130   17.1010  -32.1170 C   0  0  0  0  0  0  0  0  0  0  0  0
   -5.6040   18.4180  -31.9760 C   0  0  0  0  0  0  0  0  0  0  0  0
   -4.4300   22.7890  -31.1830 C   0  0  0  0  0  0  0  0  0  0  0  0
   -4.0790   23.9790  -30.5350 C   0  0  0  0  0  0  0  0  0  0  0  0
   -5.2510   25.2840  -30.4300 Cl  0  0  0  0  0  0  0  0  0  0  0  0
   -0.8918   23.1782  -29.5993 H   0  0  0  0  0  0  0  0  0  0  0  0
   -3.4090   19.6130  -31.5660 H   0  0  0  0  0  0  0  0  0  0  0  0
   -4.9186   21.4103  -33.4816 H   0  0  0  0  0  0  0  0  0  0  0  0
   -3.9294   19.9491  -33.9376 H   0  0  0  0  0  0  0  0  0  0  0  0
   -8.4892   18.6309  -32.9994 H   0  0  0  0  0  0  0  0  0  0  0  0
  -10.5321   19.8778  -32.3378 H   0  0  0  0  0  0  0  0  0  0  0  0
  -10.3789   22.2696  -31.6521 H   0  0  0  0  0  0  0  0  0  0  0  0
   -8.1698   23.4201  -31.6459 H   0  0  0  0  0  0  0  0  0  0  0  0
   -6.1109   22.1943  -32.3052 H   0  0  0  0  0  0  0  0  0  0  0  0
   -7.1266   19.0497  -34.8310 H   0  0  0  0  0  0  0  0  0  0  0  0
   -5.3510   19.1806  -35.1838 H   0  0  0  0  0  0  0  0  0  0  0  0
   -6.2206   16.8425  -35.3868 H   0  0  0  0  0  0  0  0  0  0  0  0
   -4.9372   17.0209  -34.1446 H   0  0  0  0  0  0  0  0  0  0  0  0
   -7.3020   17.1806  -31.4741 H   0  0  0  0  0  0  0  0  0  0  0  0
   -5.7228   16.2944  -31.8288 H   0  0  0  0  0  0  0  0  0  0  0  0
   -5.8552   18.8702  -31.0052 H   0  0  0  0  0  0  0  0  0  0  0  0
   -4.5441   18.1382  -32.0672 H   0  0  0  0  0  0  0  0  0  0  0  0
   -5.4337   22.6813  -31.6200 H   0  0  0  0  0  0  0  0  0  0  0  0
  1  2  1  0
  2  3  2  0
  3  4  1  0
  4  5  1  0
  4  6  2  0
  6  7  1  0
  7  8  1  0
  8  9  1  0
  9 10  1  0
 10 11  2  0
 11 12  1  0
 12 13  2  0
 13 14  1  0
 14 15  2  0
  9 16  1  0
 16 17  1  0
 17 18  1  0
 18 19  1  0
 19 20  1  0
  6 21  1  0
 21 22  2  0
 22 23  1  0
 22  2  1  0
 20  9  1  0
 15 10  1  0
  3 24  1  0
  7 25  1  0
  8 26  1  0
  8 27  1  0
 11 28  1  0
 12 29  1  0
 13 30  1  0
 14 31  1  0
 15 32  1  0
 16 33  1  0
 16 34  1  0
 17 35  1  0
 17 36  1  0
 19 37  1  0
 19 38  1  0
 20 39  1  0
 20 40  1  0
 21 41  1  0
M  CHG  2   1  -1   5  -1
M  END
>  <UniqueID>  (13) 
11

>  <SMILES>  (13) 
[O-]c1cc([O-])c(NCC2(c3ccccc3)CCOCC2)cc1Cl

>  <Energy>  (13) 
67.08324799487015

>  <Genealogy>  (13) 
[O-]c1cc([O-])c(NCC2(c3ccccc3)CCOCC2)cc1Cl (protonated)
[O-]c1cc([O-])c(NCC2(c3ccccc3)CCOCC2)cc1Cl (3D coordinates assigned)
[O-]c1cc([O-])c(NCC2(c3ccccc3)CCOCC2)cc1Cl (nonaromatic ring conformer: 67.08324799487015 kcal/mol)

>  <smiles>  (13) 
Oc1cc(O)c(NCC2(c3ccccc3)CCOCC2)cc1Cl

>  <score_type>  (13) 
oracle

>  <origin>  (13) 
adgpu

>  <m_score__min__energy>  (13) 
-11.58

>  <m_primary>  (13) 
energy

$$$$
13:0
     RDKit          3D

 48 50  0  0  0  0  0  0  0  0999 V2000
   -2.1080   23.3950  -29.6630 C   0  0  0  0  0  0  0  0  0  0  0  0
   -2.5070   24.8120  -29.2810 C   0  0  0  0  0  0  0  0  0  0  0  0
   -3.5330   25.2940  -30.2020 N   0  0  0  0  0  0  0  0  0  0  0  0
   -5.0880   24.6900  -29.7180 S   0  0  0  0  0  0  0  0  0  0  0  0
   -6.0580   25.8350  -29.6360 O   0  0  0  0  0  0  0  0  0  0  0  0
   -4.9850   24.0570  -28.3590 O   0  0  0  0  0  0  0  0  0  0  0  0
   -5.6800   23.5190  -30.8930 C   0  0  0  0  0  0  0  0  0  0  0  0
   -7.0530   23.3070  -31.0560 C   0  0  0  0  0  0  0  0  0  0  0  0
   -7.5130   22.3480  -31.9610 C   0  0  0  0  0  0  0  0  0  0  0  0
   -6.6030   21.5820  -32.7130 C   0  0  0  0  0  0  0  0  0  0  0  0
   -7.0410   20.5780  -33.5910 O   0  0  0  0  0  0  0  0  0  0  0  0
   -6.6840   19.2280  -33.5010 C   0  0  0  0  0  0  0  0  0  0  0  0
   -5.7390   18.7270  -34.4040 C   0  0  0  0  0  0  0  0  0  0  0  0
   -5.3680   17.3810  -34.3640 C   0  0  0  0  0  0  0  0  0  0  0  0
   -5.9340   16.5290  -33.4160 C   0  0  0  0  0  0  0  0  0  0  0  0
   -6.8600   17.0230  -32.4930 C   0  0  0  0  0  0  0  0  0  0  0  0
   -7.2270   18.3780  -32.5100 C   0  0  0  0  0  0  0  0  0  0  0  0
   -8.1990   18.8910  -31.4840 C   0  0  0  0  0  0  0  0  0  0  0  0
   -5.2210   21.8270  -32.5830 C   0  0  0  0  0  0  0  0  0  0  0  0
   -4.2550   21.0760  -33.3370 N   0  0  0  0  0  0  0  0  0  0  0  0
   -2.8950   20.8630  -32.9220 C   0  0  0  0  0  0  0  0  0  0  0  0
   -1.8130   21.1690  -33.7700 C   0  0  0  0  0  0  0  0  0  0  0  0
   -0.4980   20.9600  -33.3390 C   0  0  0  0  0  0  0  0  0  0  0  0
   -0.2520   20.4620  -32.0570 C   0  0  0  0  0  0  0  0  0  0  0  0
   -1.3190   20.1770  -31.2010 C   0  0  0  0  0  0  0  0  0  0  0  0
   -2.6350   20.3830  -31.6290 C   0  0  0  0  0  0  0  0  0  0  0  0
   -4.7690   22.7730  -31.6500 C   0  0  0  0  0  0  0  0  0  0  0  0
   -1.9412   22.8026  -28.7513 H   0  0  0  0  0  0  0  0  0  0  0  0
   -2.9116   22.9353  -30.2570 H   0  0  0  0  0  0  0  0  0  0  0  0
   -1.1826   23.4222  -30.2570 H   0  0  0  0  0  0  0  0  0  0  0  0
   -2.9036   24.8173  -28.2550 H   0  0  0  0  0  0  0  0  0  0  0  0
   -1.6263   25.4686  -29.3371 H   0  0  0  0  0  0  0  0  0  0  0  0
   -7.7725   23.8974  -30.4696 H   0  0  0  0  0  0  0  0  0  0  0  0
   -8.5943   22.1903  -32.0869 H   0  0  0  0  0  0  0  0  0  0  0  0
   -5.2860   19.3972  -35.1494 H   0  0  0  0  0  0  0  0  0  0  0  0
   -4.6291   16.9928  -35.0805 H   0  0  0  0  0  0  0  0  0  0  0  0
   -5.6511   15.4662  -33.3947 H   0  0  0  0  0  0  0  0  0  0  0  0
   -7.3041   16.3458  -31.7485 H   0  0  0  0  0  0  0  0  0  0  0  0
   -7.8102   18.6858  -30.4757 H   0  0  0  0  0  0  0  0  0  0  0  0
   -8.3298   19.9756  -31.6128 H   0  0  0  0  0  0  0  0  0  0  0  0
   -9.1682   18.3870  -31.6128 H   0  0  0  0  0  0  0  0  0  0  0  0
   -4.5810   20.6080  -34.2130 H   0  0  0  0  0  0  0  0  0  0  0  0
   -2.0022   21.5739  -34.7751 H   0  0  0  0  0  0  0  0  0  0  0  0
    0.3429   21.1881  -34.0104 H   0  0  0  0  0  0  0  0  0  0  0  0
    0.7820   20.2942  -31.7214 H   0  0  0  0  0  0  0  0  0  0  0  0
   -1.1241   19.7904  -30.1898 H   0  0  0  0  0  0  0  0  0  0  0  0
   -3.4713   20.1674  -30.9477 H   0  0  0  0  0  0  0  0  0  0  0  0
   -3.6890   22.9297  -31.5123 H   0  0  0  0  0  0  0  0  0  0  0  0
  1  2  1  0
  2  3  1  0
  3  4  1  0
  4  5  2  0
  4  6  2  0
  4  7  1  0
  7  8  2  0
  8  9  1  0
  9 10  2  0
 10 11  1  0
 11 12  1  0
 12 13  2  0
 13 14  1  0
 14 15  2  0
 15 16  1  0
 16 17  2  0
 17 18  1  0
 10 19  1  0
 19 20  1  0
 20 21  1  0
 21 22  2  0
 22 23  1  0
 23 24  2  0
 24 25  1  0
 25 26  2  0
 19 27  2  0
 27  7  1  0
 17 12  1  0
 26 21  1  0
  1 28  1  0
  1 29  1  0
  1 30  1  0
  2 31  1  0
  2 32  1  0
  8 33  1  0
  9 34  1  0
 13 35  1  0
 14 36  1  0
 15 37  1  0
 16 38  1  0
 18 39  1  0
 18 40  1  0
 18 41  1  0
 20 42  1  0
 22 43  1  0
 23 44  1  0
 24 45  1  0
 25 46  1  0
 26 47  1  0
 27 48  1  0
M  CHG  1   3  -1
M  END
>  <UniqueID>  (14) 
12

>  <SMILES>  (14) 
CC[N-]S(=O)(=O)c1ccc(Oc2ccccc2C)c(Nc2ccccc2)c1

>  <Energy>  (14) 
58.73512581720624

>  <Genealogy>  (14) 
CC[N-]S(=O)(=O)c1ccc(Oc2ccccc2C)c(Nc2ccccc2)c1 (protonated)
CC[N-]S(=O)(=O)c1ccc(Oc2ccccc2C)c(Nc2ccccc2)c1 (3D coordinates assigned)
CC[N-]S(=O)(=O)c1ccc(Oc2ccccc2C)c(Nc2ccccc2)c1 (optimized conformer: 58.73512581720624 kcal/mol)

>  <smiles>  (14) 
CCNS(=O)(=O)c1ccc(Oc2ccccc2C)c(Nc2ccccc2)c1

>  <score_type>  (14) 
oracle

>  <origin>  (14) 
adgpu

>  <m_score__min__energy>  (14) 
-10.550000000000001

>  <m_primary>  (14) 
energy

$$$$
14:0
     RDKit          3D

 46 49  0  0  0  0  0  0  0  0999 V2000
   -3.5250   21.1970  -33.4680 O   0  0  0  0  0  0  0  0  0  0  0  0
   -3.9770   21.0440  -32.3010 C   0  0  0  0  0  0  0  0  0  0  0  0
   -4.3850   19.7420  -31.8620 N   0  0  0  0  0  0  0  0  0  0  0  0
   -4.9750   18.7560  -32.7290 C   0  0  0  0  0  0  0  0  0  0  0  0
   -4.7170   18.7470  -34.1130 C   0  0  0  0  0  0  0  0  0  0  0  0
   -5.3440   17.8110  -34.9410 C   0  0  0  0  0  0  0  0  0  0  0  0
   -6.2370   16.8840  -34.4000 C   0  0  0  0  0  0  0  0  0  0  0  0
   -6.5100   16.8950  -33.0300 C   0  0  0  0  0  0  0  0  0  0  0  0
   -5.8870   17.8300  -32.1980 C   0  0  0  0  0  0  0  0  0  0  0  0
   -4.0030   22.2020  -31.3850 C   0  0  0  0  0  0  0  0  0  0  0  0
   -3.0660   22.4370  -30.3980 C   0  0  0  0  0  0  0  0  0  0  0  0
   -3.4400   23.6500  -29.8400 C   0  0  0  0  0  0  0  0  0  0  0  0
   -2.7670   24.3690  -28.7320 C   0  0  0  0  0  0  0  0  0  0  0  0
   -3.3750   24.5020  -27.4690 C   0  0  0  0  0  0  0  0  0  0  0  0
   -2.7230   25.1850  -26.4370 C   0  0  0  0  0  0  0  0  0  0  0  0
   -1.4620   25.7430  -26.6520 C   0  0  0  0  0  0  0  0  0  0  0  0
   -0.8480   25.6190  -27.9000 C   0  0  0  0  0  0  0  0  0  0  0  0
   -1.4950   24.9370  -28.9360 C   0  0  0  0  0  0  0  0  0  0  0  0
   -4.5330   24.1170  -30.4790 N   0  0  0  0  0  0  0  0  0  0  0  0
   -4.8710   23.2430  -31.4140 N   0  0  0  0  0  0  0  0  0  0  0  0
   -5.9790   23.4870  -32.3430 C   0  0  0  0  0  0  0  0  0  0  0  0
   -7.0960   22.4860  -32.1640 C   0  0  0  0  0  0  0  0  0  0  0  0
   -7.0380   21.2240  -32.7810 C   0  0  0  0  0  0  0  0  0  0  0  0
   -8.0870   20.3130  -32.6200 C   0  0  0  0  0  0  0  0  0  0  0  0
   -9.2090   20.6620  -31.8650 C   0  0  0  0  0  0  0  0  0  0  0  0
   -9.2900   21.9270  -31.2770 C   0  0  0  0  0  0  0  0  0  0  0  0
   -8.2420   22.8400  -31.4330 C   0  0  0  0  0  0  0  0  0  0  0  0
   -4.1690   19.4730  -30.8760 H   0  0  0  0  0  0  0  0  0  0  0  0
   -4.0191   19.4795  -34.5448 H   0  0  0  0  0  0  0  0  0  0  0  0
   -5.1334   17.8049  -36.0206 H   0  0  0  0  0  0  0  0  0  0  0  0
   -6.7255   16.1452  -35.0524 H   0  0  0  0  0  0  0  0  0  0  0  0
   -7.2164   16.1667  -32.6051 H   0  0  0  0  0  0  0  0  0  0  0  0
   -6.1126   17.8402  -31.1214 H   0  0  0  0  0  0  0  0  0  0  0  0
   -2.2124   21.8027  -30.1169 H   0  0  0  0  0  0  0  0  0  0  0  0
   -4.3693   24.0659  -27.2927 H   0  0  0  0  0  0  0  0  0  0  0  0
   -3.2055   25.2826  -25.4533 H   0  0  0  0  0  0  0  0  0  0  0  0
   -0.9520   26.2802  -25.8388 H   0  0  0  0  0  0  0  0  0  0  0  0
    0.1462   26.0584  -28.0688 H   0  0  0  0  0  0  0  0  0  0  0  0
   -1.0064   24.8438  -29.9171 H   0  0  0  0  0  0  0  0  0  0  0  0
   -6.3755   24.4976  -32.1657 H   0  0  0  0  0  0  0  0  0  0  0  0
   -5.5925   23.3864  -33.3679 H   0  0  0  0  0  0  0  0  0  0  0  0
   -6.1648   20.9522  -33.3923 H   0  0  0  0  0  0  0  0  0  0  0  0
   -8.0282   19.3197  -33.0889 H   0  0  0  0  0  0  0  0  0  0  0  0
  -10.0291   19.9409  -31.7332 H   0  0  0  0  0  0  0  0  0  0  0  0
  -10.1785   22.2049  -30.6911 H   0  0  0  0  0  0  0  0  0  0  0  0
   -8.3156   23.8402  -30.9810 H   0  0  0  0  0  0  0  0  0  0  0  0
  1  2  2  0
  2  3  1  0
  3  4  1  0
  4  5  2  0
  5  6  1  0
  6  7  2  0
  7  8  1  0
  8  9  2  0
  2 10  1  0
 10 11  2  0
 11 12  1  0
 12 13  1  0
 13 14  2  0
 14 15  1  0
 15 16  2  0
 16 17  1  0
 17 18  2  0
 12 19  2  0
 19 20  1  0
 20 21  1  0
 21 22  1  0
 22 23  2  0
 23 24  1  0
 24 25  2  0
 25 26  1  0
 26 27  2  0
  9  4  1  0
 20 10  1  0
 27 22  1  0
 18 13  1  0
  3 28  1  0
  5 29  1  0
  6 30  1  0
  7 31  1  0
  8 32  1  0
  9 33  1  0
 11 34  1  0
 14 35  1  0
 15 36  1  0
 16 37  1  0
 17 38  1  0
 18 39  1  0
 21 40  1  0
 21 41  1  0
 23 42  1  0
 24 43  1  0
 25 44  1  0
 26 45  1  0
 27 46  1  0
M  END
>  <UniqueID>  (15) 
13

>  <SMILES>  (15) 
O=C(Nc1ccccc1)c1cc(-c2ccccc2)nn1Cc1ccccc1

>  <Energy>  (15) 
85.36625986393659

>  <Genealogy>  (15) 
O=C(Nc1ccccc1)c1cc(-c2ccccc2)nn1Cc1ccccc1 (3D coordinates assigned)
O=C(Nc1ccccc1)c1cc(-c2ccccc2)nn1Cc1ccccc1 (optimized conformer: 85.36625986393659 kcal/mol)

>  <smiles>  (15) 
O=C(Nc1ccccc1)c1cc(-c2ccccc2)nn1Cc1ccccc1

>  <score_type>  (15) 
oracle

>  <origin>  (15) 
adgpu

>  <m_score__min__energy>  (15) 
-9.2300000000000004

>  <m_primary>  (15) 
energy

$$$$
15:0
     RDKit          3D

 37 38  0  0  0  0  0  0  0  0999 V2000
   -6.1080   25.3860  -29.4910 N   0  0  0  0  0  0  0  0  0  0  0  0
   -5.8110   24.1210  -30.1690 C   0  0  1  0  0  0  0  0  0  0  0  0
   -6.5120   24.0850  -31.5390 C   0  0  0  0  0  0  0  0  0  0  0  0
   -7.1450   22.7420  -31.8030 C   0  0  0  0  0  0  0  0  0  0  0  0
   -8.5180   22.5460  -31.5810 C   0  0  0  0  0  0  0  0  0  0  0  0
   -9.1110   21.3140  -31.8720 C   0  0  0  0  0  0  0  0  0  0  0  0
   -8.3400   20.2700  -32.3930 C   0  0  0  0  0  0  0  0  0  0  0  0
   -8.9200   19.0780  -32.6760 F   0  0  0  0  0  0  0  0  0  0  0  0
   -6.9740   20.4600  -32.6250 C   0  0  0  0  0  0  0  0  0  0  0  0
   -6.2260   19.4510  -33.1360 F   0  0  0  0  0  0  0  0  0  0  0  0
   -6.3780   21.6910  -32.3350 C   0  0  0  0  0  0  0  0  0  0  0  0
   -4.3200   23.9210  -30.3150 C   0  0  0  0  0  0  0  0  0  0  0  0
   -3.5630   24.9190  -30.4620 O   0  0  0  0  0  0  0  0  0  0  0  0
   -3.7780   22.5940  -30.3610 N   0  0  0  0  0  0  0  0  0  0  0  0
   -2.3520   22.3350  -30.5470 C   0  0  0  0  0  0  0  0  0  0  0  0
   -1.8490   21.4040  -29.4780 C   0  0  0  0  0  0  0  0  0  0  0  0
   -0.4930   21.0400  -29.4450 C   0  0  0  0  0  0  0  0  0  0  0  0
   -0.0230   20.1580  -28.4680 C   0  0  0  0  0  0  0  0  0  0  0  0
   -0.9040   19.6300  -27.5190 C   0  0  0  0  0  0  0  0  0  0  0  0
   -2.2550   19.9820  -27.5480 C   0  0  0  0  0  0  0  0  0  0  0  0
   -3.1100   19.4650  -26.6300 F   0  0  0  0  0  0  0  0  0  0  0  0
   -2.7300   20.8650  -28.5240 C   0  0  0  0  0  0  0  0  0  0  0  0
   -5.2260   25.9340  -29.3620 H   0  0  0  0  0  0  0  0  0  0  0  0
   -6.4910   25.1770  -28.5400 H   0  0  0  0  0  0  0  0  0  0  0  0
   -6.1955   23.2929  -29.5556 H   0  0  0  0  0  0  0  0  0  0  0  0
   -7.2937   24.8586  -31.5606 H   0  0  0  0  0  0  0  0  0  0  0  0
   -5.7565   24.2685  -32.3172 H   0  0  0  0  0  0  0  0  0  0  0  0
   -9.1296   23.3659  -31.1762 H   0  0  0  0  0  0  0  0  0  0  0  0
  -10.1858   21.1655  -31.6909 H   0  0  0  0  0  0  0  0  0  0  0  0
   -5.3043   21.8377  -32.5239 H   0  0  0  0  0  0  0  0  0  0  0  0
   -4.4250   21.7750  -30.2970 H   0  0  0  0  0  0  0  0  0  0  0  0
   -2.1919   21.8756  -31.5336 H   0  0  0  0  0  0  0  0  0  0  0  0
   -1.8031   23.2860  -30.4818 H   0  0  0  0  0  0  0  0  0  0  0  0
    0.2025   21.4510  -30.1916 H   0  0  0  0  0  0  0  0  0  0  0  0
    1.0408   19.8789  -28.4455 H   0  0  0  0  0  0  0  0  0  0  0  0
   -0.5327   18.9372  -26.7495 H   0  0  0  0  0  0  0  0  0  0  0  0
   -3.7953   21.1381  -28.5449 H   0  0  0  0  0  0  0  0  0  0  0  0
  1  2  1  0
  2  3  1  0
  3  4  1  0
  4  5  2  0
  5  6  1  0
  6  7  2  0
  7  8  1  0
  7  9  1  0
  9 10  1  0
  9 11  2  0
  2 12  1  0
 12 13  2  0
 12 14  1  0
 14 15  1  0
 15 16  1  0
 16 17  2  0
 17 18  1  0
 18 19  2  0
 19 20  1  0
 20 21  1  0
 20 22  2  0
 11  4  1  0
 22 16  1  0
  1 23  1  0
  1 24  1  0
  2 25  1  1
  3 26  1  0
  3 27  1  0
  5 28  1  0
  6 29  1  0
 11 30  1  0
 14 31  1  0
 15 32  1  0
 15 33  1  0
 17 34  1  0
 18 35  1  0
 19 36  1  0
 22 37  1  0
M  END
>  <UniqueID>  (16) 
14

>  <SMILES>  (16) 
N[C@@H](Cc1ccc(F)c(F)c1)C(=O)NCc1cccc(F)c1

>  <Energy>  (16) 
31.068956633293627

>  <Genealogy>  (16) 
N[C@@H](Cc1ccc(F)c(F)c1)C(=O)NCc1cccc(F)c1 (chirality)
N[C@@H](Cc1ccc(F)c(F)c1)C(=O)NCc1cccc(F)c1 (3D coordinates assigned)
N[C@@H](Cc1ccc(F)c(F)c1)C(=O)NCc1cccc(F)c1 (optimized conformer: 31.068956633293627 kcal/mol)

>  <smiles>  (16) 
NC(Cc1ccc(F)c(F)c1)C(=O)NCc1cccc(F)c1

>  <score_type>  (16) 
oracle

>  <origin>  (16) 
adgpu

>  <m_score__min__energy>  (16) 
-7.4900000000000002

>  <m_primary>  (16) 
energy

$$$$
16:0
     RDKit          3D

 38 40  0  0  0  0  0  0  0  0999 V2000
   -5.7390   26.0460  -30.0870 C   0  0  0  0  0  0  0  0  0  0  0  0
   -5.6300   24.6730  -30.6710 C   0  0  0  0  0  0  0  0  0  0  0  0
   -6.7800   23.9570  -31.0170 C   0  0  0  0  0  0  0  0  0  0  0  0
   -6.6390   22.6640  -31.5480 C   0  0  0  0  0  0  0  0  0  0  0  0
   -7.7840   21.8570  -31.9140 N   0  0  0  0  0  0  0  0  0  0  0  0
   -9.1420   22.4140  -31.9110 C   0  0  0  0  0  0  0  0  0  0  0  0
   -7.6020   20.4690  -32.2570 C   0  0  0  0  0  0  0  0  0  0  0  0
   -6.6710   20.0980  -33.2420 C   0  0  0  0  0  0  0  0  0  0  0  0
   -6.4890   18.7500  -33.5670 C   0  0  0  0  0  0  0  0  0  0  0  0
   -7.2330   17.7650  -32.9120 C   0  0  0  0  0  0  0  0  0  0  0  0
   -8.1640   18.1260  -31.9330 C   0  0  0  0  0  0  0  0  0  0  0  0
   -8.3490   19.4730  -31.6060 C   0  0  0  0  0  0  0  0  0  0  0  0
   -5.3840   22.1560  -31.7000 N   0  0  0  0  0  0  0  0  0  0  0  0
   -4.2690   22.8620  -31.3670 C   0  0  0  0  0  0  0  0  0  0  0  0
   -2.9290   22.2470  -31.5340 C   0  0  0  0  0  0  0  0  0  0  0  0
   -2.6510   21.5440  -32.7240 C   0  0  0  0  0  0  0  0  0  0  0  0
   -1.4080   20.9360  -32.9240 C   0  0  0  0  0  0  0  0  0  0  0  0
   -0.4220   21.0250  -31.9430 C   0  0  0  0  0  0  0  0  0  0  0  0
   -0.6720   21.7270  -30.7630 C   0  0  0  0  0  0  0  0  0  0  0  0
   -1.9130   22.3430  -30.5490 C   0  0  0  0  0  0  0  0  0  0  0  0
   -2.1030   23.2710  -29.0630 Cl  0  0  0  0  0  0  0  0  0  0  0  0
   -4.4080   24.1090  -30.8450 N   0  0  0  0  0  0  0  0  0  0  0  0
   -5.7337   25.9789  -28.9891 H   0  0  0  0  0  0  0  0  0  0  0  0
   -4.8864   26.6554  -30.4213 H   0  0  0  0  0  0  0  0  0  0  0  0
   -6.6771   26.5132  -30.4213 H   0  0  0  0  0  0  0  0  0  0  0  0
   -7.7777   24.3983  -30.8759 H   0  0  0  0  0  0  0  0  0  0  0  0
   -9.4793   22.5523  -30.8732 H   0  0  0  0  0  0  0  0  0  0  0  0
   -9.1414   23.3845  -32.4288 H   0  0  0  0  0  0  0  0  0  0  0  0
   -9.8231   21.7226  -32.4288 H   0  0  0  0  0  0  0  0  0  0  0  0
   -6.0832   20.8706  -33.7593 H   0  0  0  0  0  0  0  0  0  0  0  0
   -5.7593   18.4648  -34.3391 H   0  0  0  0  0  0  0  0  0  0  0  0
   -7.0862   16.7050  -33.1667 H   0  0  0  0  0  0  0  0  0  0  0  0
   -8.7511   17.3501  -31.4199 H   0  0  0  0  0  0  0  0  0  0  0  0
   -9.0825   19.7539  -30.8359 H   0  0  0  0  0  0  0  0  0  0  0  0
   -3.4221   21.4729  -33.5053 H   0  0  0  0  0  0  0  0  0  0  0  0
   -1.2081   20.3871  -33.8561 H   0  0  0  0  0  0  0  0  0  0  0  0
    0.5538   20.5417  -32.0989 H   0  0  0  0  0  0  0  0  0  0  0  0
    0.1115   21.7976  -29.9942 H   0  0  0  0  0  0  0  0  0  0  0  0
  1  2  1  0
  2  3  2  0
  3  4  1  0
  4  5  1  0
  5  6  1  0
  5  7  1  0
  7  8  2  0
  8  9  1  0
  9 10  2  0
 10 11  1  0
 11 12  2  0
  4 13  2  0
 13 14  1  0
 14 15  1  0
 15 16  2  0
 16 17  1  0
 17 18  2  0
 18 19  1  0
 19 20  2  0
 20 21  1  0
 14 22  2  0
 22  2  1  0
 12  7  1  0
 20 15  1  0
  1 23  1  0
  1 24  1  0
  1 25  1  0
  3 26  1  0
  6 27  1  0
  6 28  1  0
  6 29  1  0
  8 30  1  0
  9 31  1  0
 10 32  1  0
 11 33  1  0
 12 34  1  0
 16 35  1  0
 17 36  1  0
 18 37  1  0
 19 38  1  0
M  END
>  <UniqueID>  (17) 
15

>  <SMILES>  (17) 
Cc1cc(N(C)c2ccccc2)nc(-c2ccccc2Cl)n1

>  <Energy>  (17) 
52.20142373860594

>  <Genealogy>  (17) 
Cc1cc(N(C)c2ccccc2)nc(-c2ccccc2Cl)n1 (3D coordinates assigned)
Cc1cc(N(C)c2ccccc2)nc(-c2ccccc2Cl)n1 (optimized conformer: 52.20142373860594 kcal/mol)

>  <smiles>  (17) 
Cc1cc(N(C)c2ccccc2)nc(-c2ccccc2Cl)n1

>  <score_type>  (17) 
oracle

>  <origin>  (17) 
adgpu

>  <m_score__min__energy>  (17) 
-8.7200000000000006

>  <m_primary>  (17) 
energy

$$$$
17:0
     RDKit          3D

 33 35  0  0  0  0  0  0  0  0999 V2000
   -0.1950   26.1700  -25.8350 C   0  0  0  0  0  0  0  0  0  0  0  0
   -0.8990   25.6630  -27.0480 C   0  0  0  0  0  0  0  0  0  0  0  0
   -1.2120   24.3460  -27.3090 C   0  0  0  0  0  0  0  0  0  0  0  0
   -1.7750   24.3970  -28.5660 C   0  0  0  0  0  0  0  0  0  0  0  0
   -2.2760   23.2370  -29.3620 C   0  0  0  0  0  0  0  0  0  0  0  0
   -3.6860   23.4880  -29.7910 C   0  0  0  0  0  0  0  0  0  0  0  0
   -4.4760   22.5350  -30.3270 N   0  0  0  0  0  0  0  0  0  0  0  0
   -5.6620   23.1550  -30.5040 C   0  0  0  0  0  0  0  0  0  0  0  0
   -6.8470   22.4860  -31.0750 C   0  0  0  0  0  0  0  0  0  0  0  0
   -8.0050   23.1970  -31.4310 C   0  0  0  0  0  0  0  0  0  0  0  0
   -9.0960   22.5100  -31.9670 C   0  0  0  0  0  0  0  0  0  0  0  0
   -9.0300   21.1280  -32.1460 C   0  0  0  0  0  0  0  0  0  0  0  0
   -7.8630   20.4450  -31.7830 C   0  0  0  0  0  0  0  0  0  0  0  0
   -7.7660   18.9650  -31.9640 C   0  0  0  0  0  0  0  0  0  0  0  0
   -6.8120   21.1360  -31.2610 N   0  0  0  0  0  0  0  0  0  0  0  0
   -5.5690   24.4630  -30.0610 C   0  0  0  0  0  0  0  0  0  0  0  0
   -4.3220   24.6610  -29.6090 N   0  0  0  0  0  0  0  0  0  0  0  0
   -1.7630   25.6400  -28.9900 O   0  0  0  0  0  0  0  0  0  0  0  0
   -1.2370   26.4330  -28.1010 N   0  0  0  0  0  0  0  0  0  0  0  0
   -0.7064   25.8017  -24.9334 H   0  0  0  0  0  0  0  0  0  0  0  0
    0.8452   25.8123  -25.8384 H   0  0  0  0  0  0  0  0  0  0  0  0
   -0.2045   27.2700  -25.8384 H   0  0  0  0  0  0  0  0  0  0  0  0
   -1.0512   23.4664  -26.6684 H   0  0  0  0  0  0  0  0  0  0  0  0
   -1.6422   23.1032  -30.2510 H   0  0  0  0  0  0  0  0  0  0  0  0
   -2.2413   22.3291  -28.7419 H   0  0  0  0  0  0  0  0  0  0  0  0
   -8.0519   24.2867  -31.2886 H   0  0  0  0  0  0  0  0  0  0  0  0
  -10.0073   23.0583  -32.2480 H   0  0  0  0  0  0  0  0  0  0  0  0
   -9.8858   20.5807  -32.5679 H   0  0  0  0  0  0  0  0  0  0  0  0
   -7.7340   18.4765  -30.9790 H   0  0  0  0  0  0  0  0  0  0  0  0
   -8.6425   18.6058  -32.5231 H   0  0  0  0  0  0  0  0  0  0  0  0
   -6.8501   18.7232  -32.5231 H   0  0  0  0  0  0  0  0  0  0  0  0
   -6.3767   25.2096  -30.0769 H   0  0  0  0  0  0  0  0  0  0  0  0
   -3.9350   25.5380  -29.1930 H   0  0  0  0  0  0  0  0  0  0  0  0
  1  2  1  0
  2  3  1  0
  3  4  2  0
  4  5  1  0
  5  6  1  0
  6  7  2  0
  7  8  1  0
  8  9  1  0
  9 10  2  0
 10 11  1  0
 11 12  2  0
 12 13  1  0
 13 14  1  0
 13 15  2  0
  8 16  2  0
 16 17  1  0
  4 18  1  0
 18 19  1  0
 19  2  2  0
 17  6  1  0
 15  9  1  0
  1 20  1  0
  1 21  1  0
  1 22  1  0
  3 23  1  0
  5 24  1  0
  5 25  1  0
 10 26  1  0
 11 27  1  0
 12 28  1  0
 14 29  1  0
 14 30  1  0
 14 31  1  0
 16 32  1  0
 17 33  1  0
M  END
>  <UniqueID>  (18) 
16

>  <SMILES>  (18) 
Cc1cc(Cc2nc(-c3cccc(C)n3)c[nH]2)on1

>  <Energy>  (18) 
89.68481032711105

>  <Genealogy>  (18) 
Cc1cc(Cc2nc(-c3cccc(C)n3)c[nH]2)on1 (3D coordinates assigned)
Cc1cc(Cc2nc(-c3cccc(C)n3)c[nH]2)on1 (optimized conformer: 89.68481032711105 kcal/mol)

>  <smiles>  (18) 
Cc1cc(Cc2nc(-c3cccc(C)n3)c[nH]2)on1

>  <score_type>  (18) 
oracle

>  <origin>  (18) 
adgpu

>  <m_score__min__energy>  (18) 
-8.0700000000000003

>  <m_primary>  (18) 
energy

$$$$
18:0
     RDKit          3D

 29 30  0  0  0  0  0  0  0  0999 V2000
   -3.5210   25.2550  -30.4930 N   0  0  0  0  0  0  0  0  0  0  0  0
   -5.1450   24.6660  -30.4400 S   0  0  0  0  0  0  0  0  0  0  0  0
   -6.0410   25.6050  -31.1980 O   0  0  0  0  0  0  0  0  0  0  0  0
   -5.6100   24.6030  -29.0120 O   0  0  0  0  0  0  0  0  0  0  0  0
   -5.2120   23.0620  -31.1610 C   0  0  0  0  0  0  0  0  0  0  0  0
   -4.0600   22.4910  -31.7160 C   0  0  0  0  0  0  0  0  0  0  0  0
   -4.1140   21.2220  -32.3010 C   0  0  0  0  0  0  0  0  0  0  0  0
   -5.3220   20.5040  -32.3280 C   0  0  0  0  0  0  0  0  0  0  0  0
   -5.4130   19.2090  -32.9470 N   0  0  0  0  0  0  0  0  0  0  0  0
   -5.9120   18.0340  -32.2780 C   0  0  0  0  0  0  0  0  0  0  0  0
   -6.3970   18.1310  -31.1180 O   0  0  0  0  0  0  0  0  0  0  0  0
   -5.8750   16.7020  -32.9290 C   0  0  0  0  0  0  0  0  0  0  0  0
   -4.8540   15.7730  -32.6590 C   0  0  0  0  0  0  0  0  0  0  0  0
   -4.8490   14.5310  -33.2970 C   0  0  0  0  0  0  0  0  0  0  0  0
   -5.8610   14.2240  -34.2060 C   0  0  0  0  0  0  0  0  0  0  0  0
   -6.8370   15.1330  -34.4690 N   0  0  0  0  0  0  0  0  0  0  0  0
   -6.8640   16.3490  -33.8630 C   0  0  0  0  0  0  0  0  0  0  0  0
   -6.4800   21.0940  -31.8000 C   0  0  0  0  0  0  0  0  0  0  0  0
   -6.4250   22.3630  -31.2140 C   0  0  0  0  0  0  0  0  0  0  0  0
   -3.4930   26.0060  -31.2180 H   0  0  0  0  0  0  0  0  0  0  0  0
   -3.1088   23.0429  -31.6917 H   0  0  0  0  0  0  0  0  0  0  0  0
   -3.2067   20.7836  -32.7422 H   0  0  0  0  0  0  0  0  0  0  0  0
   -5.1430   19.1470  -33.9530 H   0  0  0  0  0  0  0  0  0  0  0  0
   -4.0576   16.0255  -31.9435 H   0  0  0  0  0  0  0  0  0  0  0  0
   -4.0539   13.8012  -33.0845 H   0  0  0  0  0  0  0  0  0  0  0  0
   -5.8695   13.2464  -34.7102 H   0  0  0  0  0  0  0  0  0  0  0  0
   -7.6657   17.0621  -34.1052 H   0  0  0  0  0  0  0  0  0  0  0  0
   -7.4378   20.5551  -31.8471 H   0  0  0  0  0  0  0  0  0  0  0  0
   -7.3364   22.8132  -30.7938 H   0  0  0  0  0  0  0  0  0  0  0  0
  1  2  1  0
  2  3  2  0
  2  4  2  0
  2  5  1  0
  5  6  2  0
  6  7  1  0
  7  8  2  0
  8  9  1  0
  9 10  1  0
 10 11  2  0
 10 12  1  0
 12 13  2  0
 13 14  1  0
 14 15  2  0
 15 16  1  0
 16 17  2  0
  8 18  1  0
 18 19  2  0
 19  5  1  0
 17 12  1  0
  1 20  1  0
  6 21  1  0
  7 22  1  0
  9 23  1  0
 13 24  1  0
 14 25  1  0
 15 26  1  0
 17 27  1  0
 18 28  1  0
 19 29  1  0
M  CHG  1   1  -1
M  END
>  <UniqueID>  (19) 
17

>  <SMILES>  (19) 
[NH-]S(=O)(=O)c1ccc(NC(=O)c2cccnc2)cc1

>  <Energy>  (19) 
37.21864154205302

>  <Genealogy>  (19) 
[NH-]S(=O)(=O)c1ccc(NC(=O)c2cccnc2)cc1 (protonated)
[NH-]S(=O)(=O)c1ccc(NC(=O)c2cccnc2)cc1 (3D coordinates assigned)
[NH-]S(=O)(=O)c1ccc(NC(=O)c2cccnc2)cc1 (optimized conformer: 37.21864154205302 kcal/mol)

>  <smiles>  (19) 
NS(=O)(=O)c1ccc(NC(=O)c2cccnc2)cc1

>  <score_type>  (19) 
oracle

>  <origin>  (19) 
adgpu

>  <m_score__min__energy>  (19) 
-8.7899999999999991

>  <m_primary>  (19) 
energy

$$$$
19:0
     RDKit          3D

 52 54  0  0  0  0  0  0  0  0999 V2000
   -5.4100   25.9120  -30.4660 C   0  0  0  0  0  0  0  0  0  0  0  0
   -4.0650   25.4460  -30.4750 O   0  0  0  0  0  0  0  0  0  0  0  0
   -3.7380   24.1180  -30.1790 C   0  0  0  0  0  0  0  0  0  0  0  0
   -4.2510   23.0570  -30.9590 C   0  0  0  0  0  0  0  0  0  0  0  0
   -5.0210   23.2930  -32.1060 O   0  0  0  0  0  0  0  0  0  0  0  0
   -6.4210   23.2690  -32.1280 C   0  0  0  0  0  0  0  0  0  0  0  0
   -7.1570   22.5360  -31.0600 C   0  0  0  0  0  0  0  0  0  0  0  0
   -7.0620   23.7940  -33.0780 O   0  0  0  0  0  0  0  0  0  0  0  0
   -3.9980   21.7280  -30.5950 C   0  0  0  0  0  0  0  0  0  0  0  0
   -4.5720   20.7030  -31.3640 O   0  0  0  0  0  0  0  0  0  0  0  0
   -4.3990   20.5320  -32.7430 C   0  0  0  0  0  0  0  0  0  0  0  0
   -5.3870   19.7180  -33.5050 C   0  0  0  0  0  0  0  0  0  0  0  0
   -3.4830   21.1350  -33.3640 O   0  0  0  0  0  0  0  0  0  0  0  0
   -3.2050   21.4530  -29.4680 C   0  0  0  0  0  0  0  0  0  0  0  0
   -2.6400   22.4950  -28.7240 C   0  0  0  0  0  0  0  0  0  0  0  0
   -1.8280   22.2130  -27.6170 C   0  0  0  0  0  0  0  0  0  0  0  0
   -1.2730   23.2500  -26.8660 C   0  0  0  0  0  0  0  0  0  0  0  0
   -1.5240   24.5900  -27.2030 C   0  0  0  0  0  0  0  0  0  0  0  0
   -0.9360   25.6910  -26.3960 C   0  0  0  0  0  0  0  0  0  0  0  0
   -0.1100   26.6550  -26.9960 C   0  0  0  0  0  0  0  0  0  0  0  0
    0.4440   27.6900  -26.2380 C   0  0  0  0  0  0  0  0  0  0  0  0
    0.1860   27.7920  -24.8560 C   0  0  0  0  0  0  0  0  0  0  0  0
    0.7610   28.8670  -24.0670 N   0  0  0  0  0  0  0  0  0  0  0  0
    0.5850   30.2670  -24.4730 C   0  0  0  0  0  0  0  0  0  0  0  0
    1.5290   28.5720  -22.8520 C   0  0  0  0  0  0  0  0  0  0  0  0
   -0.6440   26.8210  -24.2600 C   0  0  0  0  0  0  0  0  0  0  0  0
   -1.1970   25.7860  -25.0200 C   0  0  0  0  0  0  0  0  0  0  0  0
   -2.3400   24.8760  -28.3120 C   0  0  0  0  0  0  0  0  0  0  0  0
   -2.9010   23.8380  -29.0800 C   0  0  0  0  0  0  0  0  0  0  0  0
   -5.7503   26.0299  -29.4266 H   0  0  0  0  0  0  0  0  0  0  0  0
   -5.4655   26.8818  -30.9822 H   0  0  0  0  0  0  0  0  0  0  0  0
   -6.0536   25.1845  -30.9822 H   0  0  0  0  0  0  0  0  0  0  0  0
   -6.8114   22.8802  -30.0741 H   0  0  0  0  0  0  0  0  0  0  0  0
   -8.2353   22.7297  -31.1587 H   0  0  0  0  0  0  0  0  0  0  0  0
   -6.9677   21.4569  -31.1587 H   0  0  0  0  0  0  0  0  0  0  0  0
   -6.0396   19.1804  -32.8014 H   0  0  0  0  0  0  0  0  0  0  0  0
   -5.9966   20.3795  -34.1381 H   0  0  0  0  0  0  0  0  0  0  0  0
   -4.8544   18.9931  -34.1381 H   0  0  0  0  0  0  0  0  0  0  0  0
   -3.0268   20.4098  -29.1680 H   0  0  0  0  0  0  0  0  0  0  0  0
   -1.6270   21.1680  -27.3385 H   0  0  0  0  0  0  0  0  0  0  0  0
   -0.6332   23.0157  -26.0024 H   0  0  0  0  0  0  0  0  0  0  0  0
    0.1031   26.5949  -28.0735 H   0  0  0  0  0  0  0  0  0  0  0  0
    1.0898   28.4348  -26.7261 H   0  0  0  0  0  0  0  0  0  0  0  0
    0.5053   30.9011  -23.5777 H   0  0  0  0  0  0  0  0  0  0  0  0
    1.4501   30.5864  -25.0727 H   0  0  0  0  0  0  0  0  0  0  0  0
   -0.3322   30.3623  -25.0727 H   0  0  0  0  0  0  0  0  0  0  0  0
    0.9193   28.8062  -21.9669 H   0  0  0  0  0  0  0  0  0  0  0  0
    1.7997   27.5059  -22.8391 H   0  0  0  0  0  0  0  0  0  0  0  0
    2.4438   29.1827  -22.8391 H   0  0  0  0  0  0  0  0  0  0  0  0
   -0.8594   26.8783  -23.1828 H   0  0  0  0  0  0  0  0  0  0  0  0
   -1.8427   25.0390  -24.5351 H   0  0  0  0  0  0  0  0  0  0  0  0
   -2.5423   25.9228  -28.5825 H   0  0  0  0  0  0  0  0  0  0  0  0
  1  2  1  0
  2  3  1  0
  3  4  2  0
  4  5  1  0
  5  6  1  0
  6  7  1  0
  6  8  2  0
  4  9  1  0
  9 10  1  0
 10 11  1  0
 11 12  1  0
 11 13  2  0
  9 14  2  0
 14 15  1  0
 15 16  2  0
 16 17  1  0
 17 18  2  0
 18 19  1  0
 19 20  2  0
 20 21  1  0
 21 22  2  0
 22 23  1  0
 23 24  1  0
 23 25  1  0
 22 26  1  0
 26 27  2  0
 18 28  1  0
 28 29  2  0
 29  3  1  0
 29 15  1  0
 27 19  1  0
  1 30  1  0
  1 31  1  0
  1 32  1  0
  7 33  1  0
  7 34  1  0
  7 35  1  0
 12 36  1  0
 12 37  1  0
 12 38  1  0
 14 39  1  0
 16 40  1  0
 17 41  1  0
 20 42  1  0
 21 43  1  0
 24 44  1  0
 24 45  1  0
 24 46  1  0
 25 47  1  0
 25 48  1  0
 25 49  1  0
 26 50  1  0
 27 51  1  0
 28 52  1  0
M  END
>  <UniqueID>  (20) 
18

>  <SMILES>  (20) 
COc1c(OC(C)=O)c(OC(C)=O)cc2ccc(-c3ccc(N(C)C)cc3)cc12

>  <Energy>  (20) 
76.65987326718451

>  <Genealogy>  (20) 
COc1c(OC(C)=O)c(OC(C)=O)cc2ccc(-c3ccc(N(C)C)cc3)cc12 (3D coordinates assigned)
COc1c(OC(C)=O)c(OC(C)=O)cc2ccc(-c3ccc(N(C)C)cc3)cc12 (optimized conformer: 76.65987326718451 kcal/mol)

>  <smiles>  (20) 
COc1c(OC(C)=O)c(OC(C)=O)cc2ccc(-c3ccc(N(C)C)cc3)cc12

>  <score_type>  (20) 
oracle

>  <origin>  (20) 
adgpu

>  <m_score__min__energy>  (20) 
-8.7599999999999998

>  <m_primary>  (20) 
energy

$$$$
20:0
     RDKit          3D

 37 39  0  0  0  0  0  0  0  0999 V2000
   -4.2080   25.2880  -30.3990 O   0  0  0  0  0  0  0  0  0  0  0  0
   -4.8320   24.1430  -30.8880 C   0  0  0  0  0  0  0  0  0  0  0  0
   -4.1530   22.9180  -30.9250 C   0  0  0  0  0  0  0  0  0  0  0  0
   -4.7910   21.7760  -31.4180 C   0  0  0  0  0  0  0  0  0  0  0  0
   -6.1180   21.8440  -31.8740 C   0  0  0  0  0  0  0  0  0  0  0  0
   -6.7720   20.6710  -32.3950 N   0  0  0  0  0  0  0  0  0  0  0  0
   -7.3630   19.6960  -31.4630 C   0  0  0  0  0  0  0  0  0  0  0  0
   -7.7830   18.4120  -32.1900 C   0  0  0  0  0  0  0  0  0  0  0  0
   -6.7370   18.0180  -33.1460 N   0  0  0  0  0  0  0  0  0  0  0  0
   -6.1550   16.7010  -33.0990 C   0  0  0  0  0  0  0  0  0  0  0  0
   -6.3760   15.7860  -34.1440 C   0  0  0  0  0  0  0  0  0  0  0  0
   -5.8010   14.5130  -34.1020 C   0  0  0  0  0  0  0  0  0  0  0  0
   -4.9960   14.1430  -33.0220 C   0  0  0  0  0  0  0  0  0  0  0  0
   -4.7640   15.0460  -31.9820 C   0  0  0  0  0  0  0  0  0  0  0  0
   -5.3390   16.3210  -32.0190 C   0  0  0  0  0  0  0  0  0  0  0  0
   -6.2280   19.0040  -34.1150 C   0  0  0  0  0  0  0  0  0  0  0  0
   -6.7930   20.4020  -33.8400 C   0  0  0  0  0  0  0  0  0  0  0  0
   -6.7900   23.0780  -31.8400 C   0  0  0  0  0  0  0  0  0  0  0  0
   -6.1510   24.2190  -31.3470 C   0  0  0  0  0  0  0  0  0  0  0  0
   -4.5660   25.7810  -29.5880 H   0  0  0  0  0  0  0  0  0  0  0  0
   -3.1154   22.8547  -30.5653 H   0  0  0  0  0  0  0  0  0  0  0  0
   -4.2507   20.8184  -31.4491 H   0  0  0  0  0  0  0  0  0  0  0  0
   -6.6215   19.4440  -30.6906 H   0  0  0  0  0  0  0  0  0  0  0  0
   -8.2586   20.1473  -31.0110 H   0  0  0  0  0  0  0  0  0  0  0  0
   -7.9285   17.6067  -31.4549 H   0  0  0  0  0  0  0  0  0  0  0  0
   -8.7229   18.5917  -32.7325 H   0  0  0  0  0  0  0  0  0  0  0  0
   -7.0050   16.0740  -34.9992 H   0  0  0  0  0  0  0  0  0  0  0  0
   -5.9826   13.8012  -34.9207 H   0  0  0  0  0  0  0  0  0  0  0  0
   -4.5447   13.1403  -32.9906 H   0  0  0  0  0  0  0  0  0  0  0  0
   -4.1285   14.7544  -31.1328 H   0  0  0  0  0  0  0  0  0  0  0  0
   -5.1517   17.0297  -31.1989 H   0  0  0  0  0  0  0  0  0  0  0  0
   -5.1309   19.0413  -34.0448 H   0  0  0  0  0  0  0  0  0  0  0  0
   -6.5446   18.6948  -35.1221 H   0  0  0  0  0  0  0  0  0  0  0  0
   -6.1800   21.1527  -34.3603 H   0  0  0  0  0  0  0  0  0  0  0  0
   -7.8296   20.4535  -34.2045 H   0  0  0  0  0  0  0  0  0  0  0  0
   -7.8258   23.1462  -32.2039 H   0  0  0  0  0  0  0  0  0  0  0  0
   -6.6868   25.1793  -31.3199 H   0  0  0  0  0  0  0  0  0  0  0  0
  1  2  1  0
  2  3  2  0
  3  4  1  0
  4  5  2  0
  5  6  1  0
  6  7  1  0
  7  8  1  0
  8  9  1  0
  9 10  1  0
 10 11  2  0
 11 12  1  0
 12 13  2  0
 13 14  1  0
 14 15  2  0
  9 16  1  0
 16 17  1  0
  5 18  1  0
 18 19  2  0
 19  2  1  0
 17  6  1  0
 15 10  1  0
  1 20  1  0
  3 21  1  0
  4 22  1  0
  7 23  1  0
  7 24  1  0
  8 25  1  0
  8 26  1  0
 11 27  1  0
 12 28  1  0
 13 29  1  0
 14 30  1  0
 15 31  1  0
 16 32  1  0
 16 33  1  0
 17 34  1  0
 17 35  1  0
 18 36  1  0
 19 37  1  0
M  END
>  <UniqueID>  (21) 
19

>  <SMILES>  (21) 
Oc1ccc(N2CCN(c3ccccc3)CC2)cc1

>  <Energy>  (21) 
47.265835562362504

>  <Genealogy>  (21) 
Oc1ccc(N2CCN(c3ccccc3)CC2)cc1 (3D coordinates assigned)
Oc1ccc(N2CCN(c3ccccc3)CC2)cc1 (nonaromatic ring conformer: 47.265835562362504 kcal/mol)

>  <smiles>  (21) 
Oc1ccc(N2CCN(c3ccccc3)CC2)cc1

>  <score_type>  (21) 
oracle

>  <origin>  (21) 
adgpu

>  <m_score__min__energy>  (21) 
-7.3099999999999996

>  <m_primary>  (21) 
energy

$$$$
21:0
     RDKit          3D

 26 27  0  0  0  0  0  0  0  0999 V2000
   -5.1968   26.7469  -30.9286 H   0  0  0  0  0  0  0  0  0  0  0  0
   -5.0430   25.6620  -30.8320 C   0  0  0  0  0  0  0  0  0  0  0  0
   -3.8650   25.1840  -30.3530 N   0  0  0  0  0  0  0  0  0  0  0  0
   -3.6320   23.8480  -30.2160 C   0  0  0  0  0  0  0  0  0  0  0  0
   -2.4960   23.4110  -29.7570 N   0  0  0  0  0  0  0  0  0  0  0  0
   -1.3810   24.2570  -29.3330 C   0  0  0  0  0  0  0  0  0  0  0  0
   -1.2053   25.0309  -30.0947 H   0  0  0  0  0  0  0  0  0  0  0  0
   -0.4865   23.6281  -29.2132 H   0  0  0  0  0  0  0  0  0  0  0  0
   -1.6890   24.9290  -27.9990 C   0  0  0  0  0  0  0  0  0  0  0  0
   -1.3851   24.2659  -27.1756 H   0  0  0  0  0  0  0  0  0  0  0  0
   -1.1356   25.8771  -27.9296 H   0  0  0  0  0  0  0  0  0  0  0  0
   -2.7685   25.1287  -27.9296 H   0  0  0  0  0  0  0  0  0  0  0  0
   -4.6260   22.9320  -30.5790 C   0  0  0  0  0  0  0  0  0  0  0  0
   -4.4455   21.8519  -30.4747 H   0  0  0  0  0  0  0  0  0  0  0  0
   -5.8550   23.3960  -31.0770 C   0  0  0  0  0  0  0  0  0  0  0  0
   -6.9170   22.4420  -31.4640 C   0  0  0  0  0  0  0  0  0  0  0  0
   -8.2030   22.7930  -31.6690 N   0  0  0  0  0  0  0  0  0  0  0  0
   -8.8060   21.6890  -31.9900 O   0  0  0  0  0  0  0  0  0  0  0  0
   -7.9460   20.7010  -31.9810 C   0  0  0  0  0  0  0  0  0  0  0  0
   -8.2840   19.2920  -32.3260 C   0  0  0  0  0  0  0  0  0  0  0  0
   -8.4232   18.7116  -31.4020 H   0  0  0  0  0  0  0  0  0  0  0  0
   -9.2126   19.2714  -32.9154 H   0  0  0  0  0  0  0  0  0  0  0  0
   -7.4658   18.8524  -32.9154 H   0  0  0  0  0  0  0  0  0  0  0  0
   -6.7090   21.1210  -31.6560 N   0  0  0  0  0  0  0  0  0  0  0  0
   -6.0590   24.7780  -31.2020 C   0  0  0  0  0  0  0  0  0  0  0  0
   -7.0137   25.1634  -31.5892 H   0  0  0  0  0  0  0  0  0  0  0  0
  1  2  1  0
  2  3  1  0
  3  4  1  0
  4  5  2  0
  5  6  1  0
  6  7  1  0
  6  8  1  0
  6  9  1  0
  9 10  1  0
  9 11  1  0
  9 12  1  0
  4 13  1  0
 13 14  1  0
 13 15  2  0
 15 16  1  0
 16 17  2  0
 17 18  1  0
 18 19  1  0
 19 20  1  0
 20 21  1  0
 20 22  1  0
 20 23  1  0
 19 24  2  0
 15 25  1  0
 25 26  1  0
 25  2  2  0
 24 16  1  0
M  CHG  1   3  -1
M  END
>  <UniqueID>  (22) 
20

>  <SMILES>  (22) 
CC/N=c1/cc(-c2noc(C)n2)cc[n-]1

>  <Energy>  (22) 
55.971288133335634

>  <Genealogy>  (22) 
CCN=c1cc(-c2noc(C)n2)cc[n-]1 (protonated)
CC/N=c1/cc(-c2noc(C)n2)cc[n-]1 (cis-trans isomerization)
CC/N=c1/cc(-c2noc(C)n2)cc[n-]1 (3D coordinates assigned)
CC/N=c1/cc(-c2noc(C)n2)cc[n-]1 (optimized conformer: 55.971288133335634 kcal/mol)

>  <smiles>  (22) 
CCN=c1cc(-c2noc(C)n2)cc[nH]1

>  <score_type>  (22) 
oracle

>  <origin>  (22) 
adgpu

>  <m_score__min__energy>  (22) 
-7.0999999999999996

>  <m_primary>  (22) 
energy

$$$$
22:0
     RDKit          3D

 57 60  0  0  0  0  0  0  0  0999 V2000
    1.4080   15.3840  -27.0110 C   0  0  0  0  0  0  0  0  0  0  0  0
    1.7900   16.7560  -27.0790 O   0  0  0  0  0  0  0  0  0  0  0  0
    1.2510   17.6870  -27.9800 C   0  0  0  0  0  0  0  0  0  0  0  0
    1.5700   19.0370  -27.8130 C   0  0  0  0  0  0  0  0  0  0  0  0
    1.0800   20.0040  -28.6980 C   0  0  0  0  0  0  0  0  0  0  0  0
    0.2500   19.6310  -29.7680 C   0  0  0  0  0  0  0  0  0  0  0  0
   -0.2870   20.6400  -30.7120 C   0  0  0  0  0  0  0  0  0  0  0  0
   -0.4790   21.8200  -30.3100 O   0  0  0  0  0  0  0  0  0  0  0  0
   -0.6120   20.2900  -32.0700 N   0  0  0  0  0  0  0  0  0  0  0  0
   -1.1220   21.2720  -33.0260 C   0  0  0  0  0  0  0  0  0  0  0  0
   -2.5730   21.5350  -32.7630 C   0  0  0  0  0  0  0  0  0  0  0  0
   -3.0220   22.5900  -32.0600 N   0  0  0  0  0  0  0  0  0  0  0  0
   -4.3540   22.3760  -31.9750 C   0  0  0  0  0  0  0  0  0  0  0  0
   -5.3020   23.2800  -31.2770 C   0  0  0  0  0  0  0  0  0  0  0  0
   -6.6780   22.9790  -31.3140 C   0  0  0  0  0  0  0  0  0  0  0  0
   -7.6050   23.8040  -30.6740 C   0  0  0  0  0  0  0  0  0  0  0  0
   -7.1750   24.9440  -29.9950 C   0  0  0  0  0  0  0  0  0  0  0  0
   -5.8180   25.2550  -29.9390 C   0  0  0  0  0  0  0  0  0  0  0  0
   -4.8670   24.4220  -30.5590 C   0  0  0  0  0  0  0  0  0  0  0  0
   -3.4690   24.7450  -30.5070 N   0  0  0  0  0  0  0  0  0  0  0  0
   -2.6050   24.6560  -29.3670 C   0  0  0  0  0  0  0  0  0  0  0  0
   -1.9890   25.6760  -28.9590 O   0  0  0  0  0  0  0  0  0  0  0  0
   -2.4770   23.3740  -28.6370 C   0  0  0  0  0  0  0  0  0  0  0  0
   -3.2320   22.2580  -29.0280 C   0  0  0  0  0  0  0  0  0  0  0  0
   -3.0970   21.0420  -28.3570 C   0  0  0  0  0  0  0  0  0  0  0  0
   -2.2170   20.9150  -27.2790 C   0  0  0  0  0  0  0  0  0  0  0  0
   -2.0610   19.3180  -26.5510 Cl  0  0  0  0  0  0  0  0  0  0  0  0
   -1.4680   22.0390  -26.8430 C   0  0  0  0  0  0  0  0  0  0  0  0
   -0.5690   21.9720  -25.7210 N   0  0  0  0  0  0  0  0  0  0  0  0
   -0.9510   21.5420  -24.6130 O   0  0  0  0  0  0  0  0  0  0  0  0
    0.6920   22.5210  -25.8110 O   0  0  0  0  0  0  0  0  0  0  0  0
   -1.6060   23.2540  -27.5410 C   0  0  0  0  0  0  0  0  0  0  0  0
   -4.7210   21.2610  -32.5750 O   0  0  0  0  0  0  0  0  0  0  0  0
   -3.6370   20.7140  -33.0650 C   0  0  0  0  0  0  0  0  0  0  0  0
   -3.6020   19.4210  -33.8110 C   0  0  0  0  0  0  0  0  0  0  0  0
   -0.0920   18.2730  -29.9220 C   0  0  0  0  0  0  0  0  0  0  0  0
    0.4070   17.3090  -29.0420 C   0  0  0  0  0  0  0  0  0  0  0  0
    1.3230   15.0788  -25.9576 H   0  0  0  0  0  0  0  0  0  0  0  0
    0.4379   15.2482  -27.5115 H   0  0  0  0  0  0  0  0  0  0  0  0
    2.1684   14.7664  -27.5115 H   0  0  0  0  0  0  0  0  0  0  0  0
    2.2142   19.3435  -26.9757 H   0  0  0  0  0  0  0  0  0  0  0  0
    1.3462   21.0617  -28.5549 H   0  0  0  0  0  0  0  0  0  0  0  0
   -0.5500   19.2980  -32.3850 H   0  0  0  0  0  0  0  0  0  0  0  0
   -0.5568   22.2099  -32.9218 H   0  0  0  0  0  0  0  0  0  0  0  0
   -1.0049   20.8782  -34.0464 H   0  0  0  0  0  0  0  0  0  0  0  0
   -7.0254   22.0850  -31.8526 H   0  0  0  0  0  0  0  0  0  0  0  0
   -8.6759   23.5546  -30.7053 H   0  0  0  0  0  0  0  0  0  0  0  0
   -7.9089   25.5990  -29.5026 H   0  0  0  0  0  0  0  0  0  0  0  0
   -5.4869   26.1586  -29.4061 H   0  0  0  0  0  0  0  0  0  0  0  0
   -3.9354   22.3422  -29.8695 H   0  0  0  0  0  0  0  0  0  0  0  0
   -3.6899   20.1737  -28.6803 H   0  0  0  0  0  0  0  0  0  0  0  0
   -1.0194   24.1279  -27.2215 H   0  0  0  0  0  0  0  0  0  0  0  0
   -3.5794   18.5855  -33.0958 H   0  0  0  0  0  0  0  0  0  0  0  0
   -4.4982   19.3382  -34.4434 H   0  0  0  0  0  0  0  0  0  0  0  0
   -2.7026   19.3868  -34.4434 H   0  0  0  0  0  0  0  0  0  0  0  0
   -0.7581   17.9687  -30.7427 H   0  0  0  0  0  0  0  0  0  0  0  0
    0.1395   16.2509  -29.1794 H   0  0  0  0  0  0  0  0  0  0  0  0
  1  2  1  0
  2  3  1  0
  3  4  2  0
  4  5  1  0
  5  6  2  0
  6  7  1  0
  7  8  2  0
  7  9  1  0
  9 10  1  0
 10 11  1  0
 11 12  1  0
 12 13  2  0
 13 14  1  0
 14 15  2  0
 15 16  1  0
 16 17  2  0
 17 18  1  0
 18 19  2  0
 19 20  1  0
 20 21  1  0
 21 22  2  0
 21 23  1  0
 23 24  2  0
 24 25  1  0
 25 26  2  0
 26 27  1  0
 26 28  1  0
 28 29  1  0
 29 30  2  0
 29 31  1  0
 28 32  2  0
 13 33  1  0
 33 34  1  0
 34 35  1  0
  6 36  1  0
 36 37  2  0
 37  3  1  0
 34 11  2  0
 19 14  1  0
 32 23  1  0
  1 38  1  0
  1 39  1  0
  1 40  1  0
  4 41  1  0
  5 42  1  0
  9 43  1  0
 10 44  1  0
 10 45  1  0
 15 46  1  0
 16 47  1  0
 17 48  1  0
 18 49  1  0
 24 50  1  0
 25 51  1  0
 32 52  1  0
 35 53  1  0
 35 54  1  0
 35 55  1  0
 36 56  1  0
 37 57  1  0
M  CHG  3  20  -1  29   1  31  -1
M  END
>  <UniqueID>  (23) 
21

>  <SMILES>  (23) 
COc1ccc(C(=O)NCc2nc(-c3ccccc3[N-]C(=O)c3ccc(Cl)c([N+](=O)[O-])c3)oc2C)cc1

>  <Energy>  (23) 
99.0646973953264

>  <Genealogy>  (23) 
COc1ccc(C(=O)NCc2nc(-c3ccccc3[N-]C(=O)c3ccc(Cl)c([N+](=O)[O-])c3)oc2C)cc1 (protonated)
COc1ccc(C(=O)NCc2nc(-c3ccccc3[N-]C(=O)c3ccc(Cl)c([N+](=O)[O-])c3)oc2C)cc1 (3D coordinates assigned)
COc1ccc(C(=O)NCc2nc(-c3ccccc3[N-]C(=O)c3ccc(Cl)c([N+](=O)[O-])c3)oc2C)cc1 (optimized conformer: 99.0646973953264 kcal/mol)

>  <smiles>  (23) 
COc1ccc(C(=O)NCc2nc(-c3ccccc3NC(=O)c3ccc(Cl)c([N+](=O)[O-])c3)oc2C)cc1

>  <score_type>  (23) 
oracle

>  <origin>  (23) 
adgpu

>  <m_score__min__energy>  (23) 
-10.41

>  <m_primary>  (23) 
energy

$$$$
23:0
     RDKit          3D

 47 50  0  0  0  0  0  0  0  0999 V2000
   -5.0892   26.4520  -31.4096 H   0  0  0  0  0  0  0  0  0  0  0  0
   -5.1190   25.5090  -30.8440 C   0  0  0  0  0  0  0  0  0  0  0  0
   -3.9600   24.9240  -30.4340 N   0  0  0  0  0  0  0  0  0  0  0  0
   -3.9530   23.7480  -29.7460 C   0  0  0  0  0  0  0  0  0  0  0  0
   -2.6500   23.1800  -29.2610 C   0  0  0  0  0  0  0  0  0  0  0  0
   -2.6388   23.1935  -28.1611 H   0  0  0  0  0  0  0  0  0  0  0  0
   -1.8294   23.7929  -29.6621 H   0  0  0  0  0  0  0  0  0  0  0  0
   -2.4730   21.7990  -29.7260 N   0  0  0  0  0  0  0  0  0  0  0  0
   -2.5600   21.5200  -31.1310 C   0  0  0  0  0  0  0  0  0  0  0  0
   -1.4480   21.7190  -31.9530 C   0  0  0  0  0  0  0  0  0  0  0  0
   -0.5070   22.1022  -31.5315 H   0  0  0  0  0  0  0  0  0  0  0  0
   -1.5430   21.4270  -33.3130 C   0  0  0  0  0  0  0  0  0  0  0  0
   -0.6698   21.5718  -33.9662 H   0  0  0  0  0  0  0  0  0  0  0  0
   -2.7100   20.9640  -33.8360 N   0  0  0  0  0  0  0  0  0  0  0  0
   -2.7480   20.7550  -34.8600 H   0  0  0  0  0  0  0  0  0  0  0  0
   -3.8210   20.7680  -33.0660 C   0  0  0  0  0  0  0  0  0  0  0  0
   -4.9040   20.3090  -33.6340 N   0  0  0  0  0  0  0  0  0  0  0  0
   -6.1930   20.1140  -33.0320 C   0  0  0  0  0  0  0  0  0  0  0  0
   -6.7130   18.8190  -32.9380 C   0  0  0  0  0  0  0  0  0  0  0  0
   -6.1211   17.9640  -33.2968 H   0  0  0  0  0  0  0  0  0  0  0  0
   -7.9820   18.6060  -32.3900 C   0  0  0  0  0  0  0  0  0  0  0  0
   -8.3767   17.5830  -32.3019 H   0  0  0  0  0  0  0  0  0  0  0  0
   -8.7500   19.6890  -31.9540 C   0  0  0  0  0  0  0  0  0  0  0  0
   -9.7474   19.5163  -31.5235 H   0  0  0  0  0  0  0  0  0  0  0  0
   -8.2520   20.9960  -32.0640 C   0  0  0  0  0  0  0  0  0  0  0  0
   -9.0900   22.1630  -31.6370 C   0  0  0  0  0  0  0  0  0  0  0  0
   -9.1227   22.2085  -30.5384 H   0  0  0  0  0  0  0  0  0  0  0  0
   -8.6516   23.0924  -32.0296 H   0  0  0  0  0  0  0  0  0  0  0  0
  -10.1107   22.0446  -32.0296 H   0  0  0  0  0  0  0  0  0  0  0  0
   -6.9860   21.2060  -32.6360 C   0  0  0  0  0  0  0  0  0  0  0  0
   -6.6126   22.2313  -32.7750 H   0  0  0  0  0  0  0  0  0  0  0  0
   -3.7480   21.0290  -31.6810 C   0  0  0  0  0  0  0  0  0  0  0  0
   -4.6213   20.8471  -31.0374 H   0  0  0  0  0  0  0  0  0  0  0  0
   -1.6710   20.8860  -28.9100 C   0  0  0  0  0  0  0  0  0  0  0  0
   -0.9650   20.5876  -29.6990 H   0  0  0  0  0  0  0  0  0  0  0  0
   -1.5480   21.3030  -27.4520 C   0  0  0  0  0  0  0  0  0  0  0  0
   -0.6186   21.1016  -26.8991 H   0  0  0  0  0  0  0  0  0  0  0  0
   -1.6722   22.2464  -26.9002 H   0  0  0  0  0  0  0  0  0  0  0  0
   -2.4660   20.1560  -27.8370 C   0  0  0  0  0  0  0  0  0  0  0  0
   -2.2013   19.1241  -27.5630 H   0  0  0  0  0  0  0  0  0  0  0  0
   -3.5299   19.9251  -27.6795 H   0  0  0  0  0  0  0  0  0  0  0  0
   -5.1700   23.1260  -29.4240 C   0  0  0  0  0  0  0  0  0  0  0  0
   -5.1780   22.1843  -28.8555 H   0  0  0  0  0  0  0  0  0  0  0  0
   -6.3690   23.7120  -29.8310 C   0  0  0  0  0  0  0  0  0  0  0  0
   -7.3283   23.2310  -29.5894 H   0  0  0  0  0  0  0  0  0  0  0  0
   -6.3470   24.9110  -30.5460 C   0  0  0  0  0  0  0  0  0  0  0  0
   -7.2869   25.3806  -30.8717 H   0  0  0  0  0  0  0  0  0  0  0  0
  1  2  1  0
  2  3  2  0
  3  4  1  0
  4  5  1  0
  5  6  1  0
  5  7  1  0
  5  8  1  0
  8  9  1  0
  9 10  1  0
 10 11  1  0
 10 12  2  0
 12 13  1  0
 12 14  1  0
 14 15  1  0
 14 16  1  0
 16 17  2  0
 17 18  1  0
 18 19  2  0
 19 20  1  0
 19 21  1  0
 21 22  1  0
 21 23  2  0
 23 24  1  0
 23 25  1  0
 25 26  1  0
 26 27  1  0
 26 28  1  0
 26 29  1  0
 25 30  2  0
 30 31  1  0
 16 32  1  0
 32 33  1  0
  8 34  1  0
 34 35  1  0
 34 36  1  0
 36 37  1  0
 36 38  1  0
 36 39  1  0
 39 40  1  0
 39 41  1  0
  4 42  2  0
 42 43  1  0
 42 44  1  0
 44 45  1  0
 44 46  2  0
 46 47  1  0
 46  2  1  0
 32  9  2  0
 39 34  1  0
 30 18  1  0
M  END
>  <UniqueID>  (24) 
22

>  <SMILES>  (24) 
Cc1cccc(/N=c2\cc(N(Cc3ccccn3)C3CC3)cc[nH]2)c1

>  <Energy>  (24) 
327.81665539814816

>  <Genealogy>  (24) 
Cc1cccc(/N=c2\cc(N(Cc3ccccn3)C3CC3)cc[nH]2)c1 (cis-trans isomerization)
Cc1cccc(/N=c2\cc(N(Cc3ccccn3)C3CC3)cc[nH]2)c1 (3D coordinates assigned)
Cc1cccc(/N=c2\cc(N(Cc3ccccn3)C3CC3)cc[nH]2)c1 (nonaromatic ring conformer: 327.81665539814816 kcal/mol)

>  <smiles>  (24) 
Cc1cccc(N=c2cc(N(Cc3ccccn3)C3CC3)cc[nH]2)c1

>  <score_type>  (24) 
oracle

>  <origin>  (24) 
adgpu

>  <m_score__min__energy>  (24) 
-9.0099999999999998

>  <m_primary>  (24) 
energy

$$$$
24:0
     RDKit          3D

 42 44  0  0  0  0  0  0  0  0999 V2000
   -2.5730   17.7130  -33.1020 C   0  0  0  0  0  0  0  0  0  0  0  0
   -3.9950   17.7000  -33.0640 O   0  0  0  0  0  0  0  0  0  0  0  0
   -4.7580   16.6040  -33.4820 C   0  0  0  0  0  0  0  0  0  0  0  0
   -4.1400   15.4880  -33.9650 N   0  0  0  0  0  0  0  0  0  0  0  0
   -4.8370   14.4060  -34.3980 C   0  0  0  0  0  0  0  0  0  0  0  0
   -6.2300   14.4130  -34.3570 C   0  0  0  0  0  0  0  0  0  0  0  0
   -6.8940   15.5370  -33.8670 C   0  0  0  0  0  0  0  0  0  0  0  0
   -6.1660   16.6550  -33.4220 C   0  0  0  0  0  0  0  0  0  0  0  0
   -6.8700   17.8480  -32.8870 C   0  0  0  0  0  0  0  0  0  0  0  0
   -6.5000   19.1470  -33.2760 C   0  0  0  0  0  0  0  0  0  0  0  0
   -7.1830   20.2550  -32.7430 C   0  0  0  0  0  0  0  0  0  0  0  0
   -6.8570   21.5740  -33.0950 O   0  0  0  0  0  0  0  0  0  0  0  0
   -6.0110   22.4070  -32.3510 C   0  0  0  0  0  0  0  0  0  0  0  0
   -6.5740   23.4650  -31.6300 C   0  0  0  0  0  0  0  0  0  0  0  0
   -5.7620   24.3260  -30.8880 C   0  0  0  0  0  0  0  0  0  0  0  0
   -4.3770   24.1350  -30.8450 C   0  0  0  0  0  0  0  0  0  0  0  0
   -3.5840   25.0480  -30.0740 N   0  0  0  0  0  0  0  0  0  0  0  0
   -2.2620   24.6190  -29.0360 S   0  0  0  0  0  0  0  0  0  0  0  0
   -2.8610   24.2500  -27.4010 C   0  0  0  0  0  0  0  0  0  0  0  0
   -1.5930   23.3930  -29.5910 O   0  0  0  0  0  0  0  0  0  0  0  0
   -1.2600   25.7370  -28.9890 O   0  0  0  0  0  0  0  0  0  0  0  0
   -3.8110   23.0530  -31.5430 C   0  0  0  0  0  0  0  0  0  0  0  0
   -4.6210   22.1880  -32.2890 C   0  0  0  0  0  0  0  0  0  0  0  0
   -3.8770   20.8030  -33.0780 Cl  0  0  0  0  0  0  0  0  0  0  0  0
   -8.2370   20.0420  -31.8520 C   0  0  0  0  0  0  0  0  0  0  0  0
   -8.5770   18.7390  -31.4850 C   0  0  0  0  0  0  0  0  0  0  0  0
   -7.8930   17.6860  -32.0030 N   0  0  0  0  0  0  0  0  0  0  0  0
   -2.1788   17.7166  -32.0751 H   0  0  0  0  0  0  0  0  0  0  0  0
   -2.2121   16.8181  -33.6302 H   0  0  0  0  0  0  0  0  0  0  0  0
   -2.2285   18.6143  -33.6302 H   0  0  0  0  0  0  0  0  0  0  0  0
   -4.3023   13.5243  -34.7810 H   0  0  0  0  0  0  0  0  0  0  0  0
   -6.8002   13.5402  -34.7078 H   0  0  0  0  0  0  0  0  0  0  0  0
   -7.9933   15.5493  -33.8283 H   0  0  0  0  0  0  0  0  0  0  0  0
   -5.6801   19.2964  -33.9939 H   0  0  0  0  0  0  0  0  0  0  0  0
   -7.6629   23.6200  -31.6474 H   0  0  0  0  0  0  0  0  0  0  0  0
   -6.2153   25.1607  -30.3332 H   0  0  0  0  0  0  0  0  0  0  0  0
   -2.1733   24.6736  -26.6543 H   0  0  0  0  0  0  0  0  0  0  0  0
   -3.8610   24.6889  -27.2691 H   0  0  0  0  0  0  0  0  0  0  0  0
   -2.9189   23.1595  -27.2691 H   0  0  0  0  0  0  0  0  0  0  0  0
   -2.7246   22.8851  -31.5026 H   0  0  0  0  0  0  0  0  0  0  0  0
   -8.7959   20.8960  -31.4418 H   0  0  0  0  0  0  0  0  0  0  0  0
   -9.3995   18.5647  -30.7757 H   0  0  0  0  0  0  0  0  0  0  0  0
  1  2  1  0
  2  3  1  0
  3  4  2  0
  4  5  1  0
  5  6  2  0
  6  7  1  0
  7  8  2  0
  8  9  1  0
  9 10  2  0
 10 11  1  0
 11 12  1  0
 12 13  1  0
 13 14  2  0
 14 15  1  0
 15 16  2  0
 16 17  1  0
 17 18  1  0
 18 19  1  0
 18 20  2  0
 18 21  2  0
 16 22  1  0
 22 23  2  0
 23 24  1  0
 11 25  2  0
 25 26  1  0
 26 27  2  0
  8  3  1  0
 27  9  1  0
 23 13  1  0
  1 28  1  0
  1 29  1  0
  1 30  1  0
  5 31  1  0
  6 32  1  0
  7 33  1  0
 10 34  1  0
 14 35  1  0
 15 36  1  0
 19 37  1  0
 19 38  1  0
 19 39  1  0
 22 40  1  0
 25 41  1  0
 26 42  1  0
M  CHG  1  17  -1
M  END
>  <UniqueID>  (25) 
23

>  <SMILES>  (25) 
COc1ncccc1-c1cc(Oc2ccc([N-]S(C)(=O)=O)cc2Cl)ccn1

>  <Energy>  (25) 
56.15091920167183

>  <Genealogy>  (25) 
COc1ncccc1-c1cc(Oc2ccc([N-]S(C)(=O)=O)cc2Cl)ccn1 (protonated)
COc1ncccc1-c1cc(Oc2ccc([N-]S(C)(=O)=O)cc2Cl)ccn1 (3D coordinates assigned)
COc1ncccc1-c1cc(Oc2ccc([N-]S(C)(=O)=O)cc2Cl)ccn1 (optimized conformer: 56.15091920167183 kcal/mol)

>  <smiles>  (25) 
COc1ncccc1-c1cc(Oc2ccc(NS(C)(=O)=O)cc2Cl)ccn1

>  <score_type>  (25) 
oracle

>  <origin>  (25) 
adgpu

>  <m_score__min__energy>  (25) 
-10.35

>  <m_primary>  (25) 
energy

$$$$
25:0
     RDKit          3D

 41 44  0  0  0  0  0  0  0  0999 V2000
   -3.7330   21.8530  -33.4430 C   0  0  0  0  0  0  0  0  0  0  0  0
   -4.7170   21.7500  -32.3620 N   0  0  0  0  0  0  0  0  0  0  0  0
   -4.5150   22.4260  -31.0980 C   0  0  0  0  0  0  0  0  0  0  0  0
   -4.9410   23.7550  -30.9040 C   0  0  0  0  0  0  0  0  0  0  0  0
   -4.7380   24.3950  -29.6770 C   0  0  0  0  0  0  0  0  0  0  0  0
   -4.1100   23.7190  -28.6280 C   0  0  0  0  0  0  0  0  0  0  0  0
   -3.8580   24.5240  -27.0900 Cl  0  0  0  0  0  0  0  0  0  0  0  0
   -3.6850   22.4000  -28.8050 C   0  0  0  0  0  0  0  0  0  0  0  0
   -3.8850   21.7570  -30.0300 C   0  0  0  0  0  0  0  0  0  0  0  0
   -5.7500   20.7590  -32.4770 C   0  0  0  0  0  0  0  0  0  0  0  0
   -5.4040   19.4740  -32.7500 N   0  0  0  0  0  0  0  0  0  0  0  0
   -6.3330   18.4880  -32.8740 C   0  0  0  0  0  0  0  0  0  0  0  0
   -5.9130   17.0970  -33.1740 C   0  0  0  0  0  0  0  0  0  0  0  0
   -4.6740   16.6060  -32.7160 C   0  0  0  0  0  0  0  0  0  0  0  0
   -4.2800   15.2960  -33.0010 C   0  0  0  0  0  0  0  0  0  0  0  0
   -5.1150   14.4590  -33.7450 C   0  0  0  0  0  0  0  0  0  0  0  0
   -6.3470   14.9310  -34.2030 C   0  0  0  0  0  0  0  0  0  0  0  0
   -7.1570   14.1170  -34.9260 F   0  0  0  0  0  0  0  0  0  0  0  0
   -6.7460   16.2410  -33.9210 C   0  0  0  0  0  0  0  0  0  0  0  0
   -7.6510   18.7900  -32.7200 N   0  0  0  0  0  0  0  0  0  0  0  0
   -8.0590   20.0520  -32.4350 C   0  0  0  0  0  0  0  0  0  0  0  0
   -9.4220   20.3260  -32.2670 C   0  0  0  0  0  0  0  0  0  0  0  0
   -9.8420   21.6200  -31.9500 C   0  0  0  0  0  0  0  0  0  0  0  0
   -8.9030   22.6440  -31.7930 C   0  0  0  0  0  0  0  0  0  0  0  0
   -7.5400   22.3820  -31.9610 C   0  0  0  0  0  0  0  0  0  0  0  0
   -7.1080   21.0860  -32.2960 C   0  0  0  0  0  0  0  0  0  0  0  0
   -2.7259   21.9584  -33.0133 H   0  0  0  0  0  0  0  0  0  0  0  0
   -3.7737   20.9457  -34.0636 H   0  0  0  0  0  0  0  0  0  0  0  0
   -3.9607   22.7322  -34.0636 H   0  0  0  0  0  0  0  0  0  0  0  0
   -5.4375   24.2938  -31.7245 H   0  0  0  0  0  0  0  0  0  0  0  0
   -5.0737   25.4332  -29.5376 H   0  0  0  0  0  0  0  0  0  0  0  0
   -3.1921   21.8665  -27.9789 H   0  0  0  0  0  0  0  0  0  0  0  0
   -3.5472   20.7184  -30.1614 H   0  0  0  0  0  0  0  0  0  0  0  0
   -4.0116   17.2594  -32.1293 H   0  0  0  0  0  0  0  0  0  0  0  0
   -3.3105   14.9232  -32.6388 H   0  0  0  0  0  0  0  0  0  0  0  0
   -4.8023   13.4287  -33.9700 H   0  0  0  0  0  0  0  0  0  0  0  0
   -7.7177   16.6060  -34.2852 H   0  0  0  0  0  0  0  0  0  0  0  0
  -10.1627   19.5214  -32.3848 H   0  0  0  0  0  0  0  0  0  0  0  0
  -10.9136   21.8338  -31.8236 H   0  0  0  0  0  0  0  0  0  0  0  0
   -9.2380   23.6598  -31.5363 H   0  0  0  0  0  0  0  0  0  0  0  0
   -6.8049   23.1900  -31.8311 H   0  0  0  0  0  0  0  0  0  0  0  0
  1  2  1  0
  2  3  1  0
  3  4  2  0
  4  5  1  0
  5  6  2  0
  6  7  1  0
  6  8  1  0
  8  9  2  0
  2 10  1  0
 10 11  2  0
 11 12  1  0
 12 13  1  0
 13 14  2  0
 14 15  1  0
 15 16  2  0
 16 17  1  0
 17 18  1  0
 17 19  2  0
 12 20  2  0
 20 21  1  0
 21 22  2  0
 22 23  1  0
 23 24  2  0
 24 25  1  0
 25 26  2  0
  9  3  1  0
 26 10  1  0
 19 13  1  0
 26 21  1  0
  1 27  1  0
  1 28  1  0
  1 29  1  0
  4 30  1  0
  5 31  1  0
  8 32  1  0
  9 33  1  0
 14 34  1  0
 15 35  1  0
 16 36  1  0
 19 37  1  0
 22 38  1  0
 23 39  1  0
 24 40  1  0
 25 41  1  0
M  END
>  <UniqueID>  (26) 
24

>  <SMILES>  (26) 
CN(c1ccc(Cl)cc1)c1nc(-c2cccc(F)c2)nc2ccccc12

>  <Energy>  (26) 
60.15504838175296

>  <Genealogy>  (26) 
CN(c1ccc(Cl)cc1)c1nc(-c2cccc(F)c2)nc2ccccc12 (3D coordinates assigned)
CN(c1ccc(Cl)cc1)c1nc(-c2cccc(F)c2)nc2ccccc12 (optimized conformer: 60.15504838175296 kcal/mol)

>  <smiles>  (26) 
CN(c1ccc(Cl)cc1)c1nc(-c2cccc(F)c2)nc2ccccc12

>  <score_type>  (26) 
oracle

>  <origin>  (26) 
adgpu

>  <m_score__min__energy>  (26) 
-8.6600000000000001

>  <m_primary>  (26) 
energy

$$$$
26:0
     RDKit          3D

 41 44  0  0  0  0  0  0  0  0999 V2000
   -4.0950   24.5490  -28.2940 O   0  0  0  0  0  0  0  0  0  0  0  0
   -3.2940   24.7460  -29.2480 C   0  0  0  0  0  0  0  0  0  0  0  0
   -3.6770   24.4340  -30.5930 N   0  0  0  0  0  0  0  0  0  0  0  0
   -4.1270   23.1620  -31.0820 C   0  0  0  0  0  0  0  0  0  0  0  0
   -3.2330   22.1190  -31.3820 C   0  0  0  0  0  0  0  0  0  0  0  0
   -3.7110   20.9030  -31.8780 C   0  0  0  0  0  0  0  0  0  0  0  0
   -5.0860   20.7050  -32.0920 C   0  0  0  0  0  0  0  0  0  0  0  0
   -5.5740   19.4070  -32.6260 C   0  0  0  0  0  0  0  0  0  0  0  0
   -6.9240   19.2000  -32.9660 C   0  0  0  0  0  0  0  0  0  0  0  0
   -7.3230   17.9920  -33.4450 N   0  0  0  0  0  0  0  0  0  0  0  0
   -6.4430   16.9700  -33.6020 C   0  0  0  0  0  0  0  0  0  0  0  0
   -6.8650   15.7320  -34.0980 C   0  0  0  0  0  0  0  0  0  0  0  0
   -5.9420   14.6900  -34.2470 C   0  0  0  0  0  0  0  0  0  0  0  0
   -4.6000   14.8840  -33.9000 C   0  0  0  0  0  0  0  0  0  0  0  0
   -4.1720   16.1210  -33.4040 C   0  0  0  0  0  0  0  0  0  0  0  0
   -5.0920   17.1660  -33.2540 C   0  0  0  0  0  0  0  0  0  0  0  0
   -4.6970   18.3730  -32.7750 N   0  0  0  0  0  0  0  0  0  0  0  0
   -5.9710   21.7670  -31.8230 C   0  0  0  0  0  0  0  0  0  0  0  0
   -5.4910   22.9830  -31.3290 C   0  0  0  0  0  0  0  0  0  0  0  0
   -1.9920   25.2960  -29.0040 N   0  0  0  0  0  0  0  0  0  0  0  0
   -1.5610   25.8310  -27.7400 C   0  0  0  0  0  0  0  0  0  0  0  0
   -2.0600   25.2770  -26.5510 C   0  0  0  0  0  0  0  0  0  0  0  0
   -1.6380   25.7650  -25.3110 C   0  0  0  0  0  0  0  0  0  0  0  0
   -0.7030   26.8000  -25.2480 C   0  0  0  0  0  0  0  0  0  0  0  0
   -0.1800   27.3420  -26.4240 C   0  0  0  0  0  0  0  0  0  0  0  0
   -0.6000   26.8580  -27.6680 C   0  0  0  0  0  0  0  0  0  0  0  0
   -2.1534   22.2607  -31.2257 H   0  0  0  0  0  0  0  0  0  0  0  0
   -3.0032   20.0917  -32.1035 H   0  0  0  0  0  0  0  0  0  0  0  0
   -7.6543   20.0136  -32.8444 H   0  0  0  0  0  0  0  0  0  0  0  0
   -7.9195   15.5776  -34.3703 H   0  0  0  0  0  0  0  0  0  0  0  0
   -6.2723   13.7163  -34.6378 H   0  0  0  0  0  0  0  0  0  0  0  0
   -3.8791   14.0615  -34.0175 H   0  0  0  0  0  0  0  0  0  0  0  0
   -3.1166   16.2717  -33.1330 H   0  0  0  0  0  0  0  0  0  0  0  0
   -7.0485   21.6384  -32.0031 H   0  0  0  0  0  0  0  0  0  0  0  0
   -6.1931   23.8068  -31.1328 H   0  0  0  0  0  0  0  0  0  0  0  0
   -1.2870   25.2150  -29.7710 H   0  0  0  0  0  0  0  0  0  0  0  0
   -2.7879   24.4535  -26.5952 H   0  0  0  0  0  0  0  0  0  0  0  0
   -2.0429   25.3332  -24.3839 H   0  0  0  0  0  0  0  0  0  0  0  0
   -0.3782   27.1887  -24.2716 H   0  0  0  0  0  0  0  0  0  0  0  0
    0.5636   28.1510  -26.3723 H   0  0  0  0  0  0  0  0  0  0  0  0
   -0.1785   27.2807  -28.5919 H   0  0  0  0  0  0  0  0  0  0  0  0
  1  2  2  0
  2  3  1  0
  3  4  1  0
  4  5  2  0
  5  6  1  0
  6  7  2  0
  7  8  1  0
  8  9  2  0
  9 10  1  0
 10 11  2  0
 11 12  1  0
 12 13  2  0
 13 14  1  0
 14 15  2  0
 15 16  1  0
 16 17  2  0
  7 18  1  0
 18 19  2  0
  2 20  1  0
 20 21  1  0
 21 22  2  0
 22 23  1  0
 23 24  2  0
 24 25  1  0
 25 26  2  0
 19  4  1  0
 26 21  1  0
 17  8  1  0
 16 11  1  0
  5 27  1  0
  6 28  1  0
  9 29  1  0
 12 30  1  0
 13 31  1  0
 14 32  1  0
 15 33  1  0
 18 34  1  0
 19 35  1  0
 20 36  1  0
 22 37  1  0
 23 38  1  0
 24 39  1  0
 25 40  1  0
 26 41  1  0
M  CHG  1   3  -1
M  END
>  <UniqueID>  (27) 
25

>  <SMILES>  (27) 
O=C([N-]c1ccc(-c2cnc3ccccc3n2)cc1)Nc1ccccc1

>  <Energy>  (27) 
60.589694957227685

>  <Genealogy>  (27) 
O=C([N-]c1ccc(-c2cnc3ccccc3n2)cc1)Nc1ccccc1 (protonated)
O=C([N-]c1ccc(-c2cnc3ccccc3n2)cc1)Nc1ccccc1 (3D coordinates assigned)
O=C([N-]c1ccc(-c2cnc3ccccc3n2)cc1)Nc1ccccc1 (optimized conformer: 60.589694957227685 kcal/mol)

>  <smiles>  (27) 
O=C(Nc1ccccc1)Nc1ccc(-c2cnc3ccccc3n2)cc1

>  <score_type>  (27) 
oracle

>  <origin>  (27) 
adgpu

>  <m_score__min__energy>  (27) 
-9.6799999999999997

>  <m_primary>  (27) 
energy

$$$$
27:0
     RDKit          3D

 33 35  0  0  0  0  0  0  0  0999 V2000
   -3.1503   22.8965  -26.7046 H   0  0  0  0  0  0  0  0  0  0  0  0
   -3.3010   23.3960  -27.6730 C   0  0  0  0  0  0  0  0  0  0  0  0
   -4.3940   22.9300  -28.8630 S   0  0  0  0  0  0  0  0  0  0  0  0
   -3.9560   24.1800  -29.9050 C   0  0  0  0  0  0  0  0  0  0  0  0
   -4.4510   24.4190  -31.0850 N   0  0  0  0  0  0  0  0  0  0  0  0
   -5.4770   23.6860  -31.7760 C   0  0  0  0  0  0  0  0  0  0  0  0
   -6.6100   24.2020  -31.9810 O   0  0  0  0  0  0  0  0  0  0  0  0
   -5.2030   22.3090  -32.2520 C   0  0  0  0  0  0  0  0  0  0  0  0
   -6.2440   21.3680  -32.3660 C   0  0  0  0  0  0  0  0  0  0  0  0
   -7.2718   21.6553  -32.0994 H   0  0  0  0  0  0  0  0  0  0  0  0
   -5.9800   20.0700  -32.8160 C   0  0  0  0  0  0  0  0  0  0  0  0
   -6.7999   19.3418  -32.9029 H   0  0  0  0  0  0  0  0  0  0  0  0
   -4.6780   19.6970  -33.1550 C   0  0  0  0  0  0  0  0  0  0  0  0
   -4.4724   18.6753  -33.5071 H   0  0  0  0  0  0  0  0  0  0  0  0
   -3.6370   20.6210  -33.0470 C   0  0  0  0  0  0  0  0  0  0  0  0
   -2.6119   20.3265  -33.3161 H   0  0  0  0  0  0  0  0  0  0  0  0
   -3.8940   21.9190  -32.5980 C   0  0  0  0  0  0  0  0  0  0  0  0
   -3.0687   22.6414  -32.5141 H   0  0  0  0  0  0  0  0  0  0  0  0
   -2.9890   24.9520  -29.3690 N   0  0  0  0  0  0  0  0  0  0  0  0
   -2.6160   24.5290  -28.1270 C   0  0  0  0  0  0  0  0  0  0  0  0
   -1.5560   25.2330  -27.3570 C   0  0  0  0  0  0  0  0  0  0  0  0
   -0.8830   26.3540  -27.8860 C   0  0  0  0  0  0  0  0  0  0  0  0
   -1.1421   26.7238  -28.8890 H   0  0  0  0  0  0  0  0  0  0  0  0
    0.1110   26.9980  -27.1440 C   0  0  0  0  0  0  0  0  0  0  0  0
    0.6281   27.8731  -27.5646 H   0  0  0  0  0  0  0  0  0  0  0  0
    0.4500   26.5360  -25.8730 C   0  0  0  0  0  0  0  0  0  0  0  0
    1.2318   27.0490  -25.2937 H   0  0  0  0  0  0  0  0  0  0  0  0
   -0.2010   25.4220  -25.3320 C   0  0  0  0  0  0  0  0  0  0  0  0
    0.1480   24.9480  -24.0280 N   0  0  0  0  0  0  0  0  0  0  0  0
   -0.0760   23.9700  -23.7380 H   0  0  0  0  0  0  0  0  0  0  0  0
    0.6330   25.5710  -23.3440 H   0  0  0  0  0  0  0  0  0  0  0  0
   -1.1990   24.7740  -26.0740 C   0  0  0  0  0  0  0  0  0  0  0  0
   -1.7091   23.8969  -25.6491 H   0  0  0  0  0  0  0  0  0  0  0  0
  1  2  1  0
  2  3  1  0
  3  4  1  0
  4  5  2  0
  5  6  1  0
  6  7  2  0
  6  8  1  0
  8  9  2  0
  9 10  1  0
  9 11  1  0
 11 12  1  0
 11 13  2  0
 13 14  1  0
 13 15  1  0
 15 16  1  0
 15 17  2  0
 17 18  1  0
  4 19  1  0
 19 20  1  0
 20 21  1  0
 21 22  2  0
 22 23  1  0
 22 24  1  0
 24 25  1  0
 24 26  2  0
 26 27  1  0
 26 28  1  0
 28 29  1  0
 29 30  1  0
 29 31  1  0
 28 32  2  0
 32 33  1  0
 20  2  2  0
 32 21  1  0
 17  8  1  0
M  CHG  1  19  -1
M  END
>  <UniqueID>  (28) 
26

>  <SMILES>  (28) 
Nc1cccc(-c2cs/c(=N\C(=O)c3ccccc3)[n-]2)c1

>  <Energy>  (28) 
71.67125913449367

>  <Genealogy>  (28) 
Nc1cccc(-c2csc(=NC(=O)c3ccccc3)[n-]2)c1 (protonated)
Nc1cccc(-c2cs/c(=N\C(=O)c3ccccc3)[n-]2)c1 (cis-trans isomerization)
Nc1cccc(-c2cs/c(=N\C(=O)c3ccccc3)[n-]2)c1 (3D coordinates assigned)
Nc1cccc(-c2cs/c(=N\C(=O)c3ccccc3)[n-]2)c1 (optimized conformer: 71.67125913449367 kcal/mol)

>  <smiles>  (28) 
Nc1cccc(-c2csc(=NC(=O)c3ccccc3)[nH]2)c1

>  <score_type>  (28) 
oracle

>  <origin>  (28) 
adgpu

>  <m_score__min__energy>  (28) 
-8.8100000000000005

>  <m_primary>  (28) 
energy

$$$$
28:0
     RDKit          3D

 47 49  0  0  0  0  0  0  0  0999 V2000
    0.6190   16.9890  -27.5750 C   0  0  0  0  0  0  0  0  0  0  0  0
    0.2080   18.3310  -28.0790 C   0  0  0  0  0  0  0  0  0  0  0  0
    0.7690   18.8080  -29.1030 O   0  0  0  0  0  0  0  0  0  0  0  0
   -0.7930   19.0840  -27.3780 N   0  0  0  0  0  0  0  0  0  0  0  0
   -1.3970   20.2820  -27.8970 C   0  0  0  0  0  0  0  0  0  0  0  0
   -2.7940   20.4270  -27.8620 C   0  0  0  0  0  0  0  0  0  0  0  0
   -3.3920   21.6060  -28.3170 C   0  0  0  0  0  0  0  0  0  0  0  0
   -2.6060   22.6440  -28.8330 C   0  0  0  0  0  0  0  0  0  0  0  0
   -3.3600   24.1930  -29.2100 S   0  0  0  0  0  0  0  0  0  0  0  0
   -2.3630   25.2940  -28.9790 O   0  0  0  0  0  0  0  0  0  0  0  0
   -4.5700   24.4340  -28.3490 O   0  0  0  0  0  0  0  0  0  0  0  0
   -3.8310   24.1820  -30.8790 N   0  0  0  0  0  0  0  0  0  0  0  0
   -4.3690   23.0230  -31.5270 C   0  0  0  0  0  0  0  0  0  0  0  0
   -3.6340   21.9740  -32.0580 C   0  0  0  0  0  0  0  0  0  0  0  0
   -2.1350   21.8870  -32.1000 C   0  0  0  0  0  0  0  0  0  0  0  0
   -4.4820   20.9500  -32.3330 N   0  0  0  0  0  0  0  0  0  0  0  0
   -4.0930   19.6200  -32.8150 C   0  0  0  0  0  0  0  0  0  0  0  0
   -5.7200   21.3140  -31.9970 N   0  0  0  0  0  0  0  0  0  0  0  0
   -6.8720   20.4530  -31.9520 C   0  0  0  0  0  0  0  0  0  0  0  0
   -8.1350   20.9380  -32.3360 C   0  0  0  0  0  0  0  0  0  0  0  0
   -9.2460   20.0900  -32.3350 C   0  0  0  0  0  0  0  0  0  0  0  0
   -9.1030   18.7500  -31.9600 C   0  0  0  0  0  0  0  0  0  0  0  0
   -7.8470   18.2560  -31.5920 C   0  0  0  0  0  0  0  0  0  0  0  0
   -6.7320   19.1020  -31.5920 C   0  0  0  0  0  0  0  0  0  0  0  0
   -5.6760   22.5730  -31.5200 C   0  0  0  0  0  0  0  0  0  0  0  0
   -6.6810   23.2130  -31.1090 O   0  0  0  0  0  0  0  0  0  0  0  0
   -1.2170   22.4760  -28.9350 C   0  0  0  0  0  0  0  0  0  0  0  0
   -0.6150   21.3030  -28.4700 C   0  0  0  0  0  0  0  0  0  0  0  0
    0.6174   16.9942  -26.4750 H   0  0  0  0  0  0  0  0  0  0  0  0
   -0.0874   16.2285  -27.9391 H   0  0  0  0  0  0  0  0  0  0  0  0
    1.6301   16.7545  -27.9391 H   0  0  0  0  0  0  0  0  0  0  0  0
   -1.0370   18.7900  -26.4060 H   0  0  0  0  0  0  0  0  0  0  0  0
   -3.4199   19.6094  -27.4750 H   0  0  0  0  0  0  0  0  0  0  0  0
   -4.4852   21.7189  -28.2695 H   0  0  0  0  0  0  0  0  0  0  0  0
   -1.7401   21.8641  -31.0736 H   0  0  0  0  0  0  0  0  0  0  0  0
   -1.8356   20.9700  -32.6286 H   0  0  0  0  0  0  0  0  0  0  0  0
   -1.7315   22.7632  -32.6286 H   0  0  0  0  0  0  0  0  0  0  0  0
   -3.9001   18.9606  -31.9559 H   0  0  0  0  0  0  0  0  0  0  0  0
   -4.9056   19.1990  -33.4252 H   0  0  0  0  0  0  0  0  0  0  0  0
   -3.1816   19.7032  -33.4252 H   0  0  0  0  0  0  0  0  0  0  0  0
   -8.2490   21.9894  -32.6385 H   0  0  0  0  0  0  0  0  0  0  0  0
  -10.2330   20.4764  -32.6292 H   0  0  0  0  0  0  0  0  0  0  0  0
   -9.9787   18.0843  -31.9545 H   0  0  0  0  0  0  0  0  0  0  0  0
   -7.7355   17.2008  -31.3021 H   0  0  0  0  0  0  0  0  0  0  0  0
   -5.7443   18.7086  -31.3097 H   0  0  0  0  0  0  0  0  0  0  0  0
   -0.5999   23.2693  -29.3820 H   0  0  0  0  0  0  0  0  0  0  0  0
    0.4747   21.1772  -28.5522 H   0  0  0  0  0  0  0  0  0  0  0  0
  1  2  1  0
  2  3  2  0
  2  4  1  0
  4  5  1  0
  5  6  2  0
  6  7  1  0
  7  8  2  0
  8  9  1  0
  9 10  2  0
  9 11  2  0
  9 12  1  0
 12 13  1  0
 13 14  2  0
 14 15  1  0
 14 16  1  0
 16 17  1  0
 16 18  1  0
 18 19  1  0
 19 20  2  0
 20 21  1  0
 21 22  2  0
 22 23  1  0
 23 24  2  0
 18 25  1  0
 25 26  2  0
  8 27  1  0
 27 28  2  0
 28  5  1  0
 25 13  1  0
 24 19  1  0
  1 29  1  0
  1 30  1  0
  1 31  1  0
  4 32  1  0
  6 33  1  0
  7 34  1  0
 15 35  1  0
 15 36  1  0
 15 37  1  0
 17 38  1  0
 17 39  1  0
 17 40  1  0
 20 41  1  0
 21 42  1  0
 22 43  1  0
 23 44  1  0
 24 45  1  0
 27 46  1  0
 28 47  1  0
M  CHG  1  12  -1
M  END
>  <UniqueID>  (29) 
27

>  <SMILES>  (29) 
CC(=O)Nc1ccc(S(=O)(=O)[N-]c2c(C)n(C)n(-c3ccccc3)c2=O)cc1

>  <Energy>  (29) 
96.01093843865034

>  <Genealogy>  (29) 
CC(=O)Nc1ccc(S(=O)(=O)[N-]c2c(C)n(C)n(-c3ccccc3)c2=O)cc1 (protonated)
CC(=O)Nc1ccc(S(=O)(=O)[N-]c2c(C)n(C)n(-c3ccccc3)c2=O)cc1 (3D coordinates assigned)
CC(=O)Nc1ccc(S(=O)(=O)[N-]c2c(C)n(C)n(-c3ccccc3)c2=O)cc1 (optimized conformer: 96.01093843865034 kcal/mol)

>  <smiles>  (29) 
CC(=O)Nc1ccc(S(=O)(=O)Nc2c(C)n(C)n(-c3ccccc3)c2=O)cc1

>  <score_type>  (29) 
oracle

>  <origin>  (29) 
adgpu

>  <m_score__min__energy>  (29) 
-10.449999999999999

>  <m_primary>  (29) 
energy

$$$$
29:0
     RDKit          3D

 53 57  0  0  0  0  0  0  0  0999 V2000
   -1.0650   21.7470  -31.1970 C   0  0  0  0  0  0  0  0  0  0  0  0
   -2.4990   21.4360  -31.5060 C   0  0  0  0  0  0  0  0  0  0  0  0
   -3.2810   20.7190  -30.5860 C   0  0  0  0  0  0  0  0  0  0  0  0
   -4.6290   20.4670  -30.8550 C   0  0  0  0  0  0  0  0  0  0  0  0
   -5.2170   20.9410  -32.0340 C   0  0  0  0  0  0  0  0  0  0  0  0
   -6.6120   20.7220  -32.2900 N   0  0  0  0  0  0  0  0  0  0  0  0
   -7.1690   19.9100  -33.2090 C   0  0  0  0  0  0  0  0  0  0  0  0
   -6.4330   19.2660  -34.3480 C   0  0  0  0  0  0  0  0  0  0  0  0
   -5.5520   18.1580  -33.8310 C   0  0  0  0  0  0  0  0  0  0  0  0
   -4.1880   18.1140  -34.1690 C   0  0  0  0  0  0  0  0  0  0  0  0
   -3.3920   17.0470  -33.7440 C   0  0  0  0  0  0  0  0  0  0  0  0
   -3.9480   16.0190  -32.9750 C   0  0  0  0  0  0  0  0  0  0  0  0
   -5.3010   16.0600  -32.6300 C   0  0  0  0  0  0  0  0  0  0  0  0
   -6.1030   17.1230  -33.0580 C   0  0  0  0  0  0  0  0  0  0  0  0
   -8.5090   19.8530  -33.0640 N   0  0  0  0  0  0  0  0  0  0  0  0
   -8.8210   20.6270  -32.0330 N   0  0  0  0  0  0  0  0  0  0  0  0
   -7.6700   21.1590  -31.5790 C   0  0  0  0  0  0  0  0  0  0  0  0
   -7.5830   22.3290  -30.2180 S   0  0  0  0  0  0  0  0  0  0  0  0
   -6.7540   23.6560  -31.1700 C   0  0  0  0  0  0  0  0  0  0  0  0
   -5.4050   23.9870  -30.6190 C   0  0  0  0  0  0  0  0  0  0  0  0
   -4.8470   23.3690  -29.5600 N   0  0  0  0  0  0  0  0  0  0  0  0
   -3.6470   23.9870  -29.4960 C   0  0  0  0  0  0  0  0  0  0  0  0
   -2.5890   23.6320  -28.5270 C   0  0  0  0  0  0  0  0  0  0  0  0
   -2.6550   22.4220  -27.8120 C   0  0  0  0  0  0  0  0  0  0  0  0
   -1.6420   22.0770  -26.9120 C   0  0  0  0  0  0  0  0  0  0  0  0
   -0.5540   22.9330  -26.7200 C   0  0  0  0  0  0  0  0  0  0  0  0
   -0.4790   24.1360  -27.4250 C   0  0  0  0  0  0  0  0  0  0  0  0
   -1.4920   24.4880  -28.3240 C   0  0  0  0  0  0  0  0  0  0  0  0
   -3.4980   24.9210  -30.4570 N   0  0  0  0  0  0  0  0  0  0  0  0
   -4.6070   24.8910  -31.1290 O   0  0  0  0  0  0  0  0  0  0  0  0
   -4.4410   21.6720  -32.9450 C   0  0  0  0  0  0  0  0  0  0  0  0
   -3.0910   21.9220  -32.6810 C   0  0  0  0  0  0  0  0  0  0  0  0
   -0.9232   21.7777  -30.1066 H   0  0  0  0  0  0  0  0  0  0  0  0
   -0.4196   20.9680  -31.6289 H   0  0  0  0  0  0  0  0  0  0  0  0
   -0.8003   22.7234  -31.6289 H   0  0  0  0  0  0  0  0  0  0  0  0
   -2.8311   20.3546  -29.6507 H   0  0  0  0  0  0  0  0  0  0  0  0
   -5.2318   19.8927  -30.1361 H   0  0  0  0  0  0  0  0  0  0  0  0
   -7.1589   18.8509  -35.0626 H   0  0  0  0  0  0  0  0  0  0  0  0
   -5.8082   20.0211  -34.8474 H   0  0  0  0  0  0  0  0  0  0  0  0
   -3.7459   18.9223  -34.7701 H   0  0  0  0  0  0  0  0  0  0  0  0
   -2.3263   17.0153  -34.0146 H   0  0  0  0  0  0  0  0  0  0  0  0
   -3.3203   15.1792  -32.6423 H   0  0  0  0  0  0  0  0  0  0  0  0
   -5.7366   15.2546  -32.0204 H   0  0  0  0  0  0  0  0  0  0  0  0
   -7.1691   17.1484  -32.7882 H   0  0  0  0  0  0  0  0  0  0  0  0
   -6.6394   23.3253  -32.2128 H   0  0  0  0  0  0  0  0  0  0  0  0
   -7.3774   24.5598  -31.1031 H   0  0  0  0  0  0  0  0  0  0  0  0
   -3.5080   21.7438  -27.9618 H   0  0  0  0  0  0  0  0  0  0  0  0
   -1.7015   21.1307  -26.3544 H   0  0  0  0  0  0  0  0  0  0  0  0
    0.2433   22.6590  -26.0134 H   0  0  0  0  0  0  0  0  0  0  0  0
    0.3782   24.8084  -27.2734 H   0  0  0  0  0  0  0  0  0  0  0  0
   -1.4299   25.4384  -28.8743 H   0  0  0  0  0  0  0  0  0  0  0  0
   -4.8967   22.0506  -33.8718 H   0  0  0  0  0  0  0  0  0  0  0  0
   -2.4909   22.5020  -33.3975 H   0  0  0  0  0  0  0  0  0  0  0  0
  1  2  1  0
  2  3  2  0
  3  4  1  0
  4  5  2  0
  5  6  1  0
  6  7  1  0
  7  8  1  0
  8  9  1  0
  9 10  2  0
 10 11  1  0
 11 12  2  0
 12 13  1  0
 13 14  2  0
  7 15  2  0
 15 16  1  0
 16 17  2  0
 17 18  1  0
 18 19  1  0
 19 20  1  0
 20 21  2  0
 21 22  1  0
 22 23  1  0
 23 24  2  0
 24 25  1  0
 25 26  2  0
 26 27  1  0
 27 28  2  0
 22 29  2  0
 29 30  1  0
  5 31  1  0
 31 32  2  0
 32  2  1  0
 17  6  1  0
 30 20  1  0
 14  9  1  0
 28 23  1  0
  1 33  1  0
  1 34  1  0
  1 35  1  0
  3 36  1  0
  4 37  1  0
  8 38  1  0
  8 39  1  0
 10 40  1  0
 11 41  1  0
 12 42  1  0
 13 43  1  0
 14 44  1  0
 19 45  1  0
 19 46  1  0
 24 47  1  0
 25 48  1  0
 26 49  1  0
 27 50  1  0
 28 51  1  0
 31 52  1  0
 32 53  1  0
M  END
>  <UniqueID>  (30) 
28

>  <SMILES>  (30) 
Cc1ccc(-n2c(Cc3ccccc3)nnc2SCc2nc(-c3ccccc3)no2)cc1

>  <Energy>  (30) 
123.32398356417274

>  <Genealogy>  (30) 
Cc1ccc(-n2c(Cc3ccccc3)nnc2SCc2nc(-c3ccccc3)no2)cc1 (3D coordinates assigned)
Cc1ccc(-n2c(Cc3ccccc3)nnc2SCc2nc(-c3ccccc3)no2)cc1 (optimized conformer: 123.32398356417274 kcal/mol)

>  <smiles>  (30) 
Cc1ccc(-n2c(Cc3ccccc3)nnc2SCc2nc(-c3ccccc3)no2)cc1

>  <score_type>  (30) 
oracle

>  <origin>  (30) 
adgpu

>  <m_score__min__energy>  (30) 
-10.75

>  <m_primary>  (30) 
energy

$$$$
30:0
     RDKit          3D

 35 36  0  0  0  0  0  0  0  0999 V2000
   -3.0900   21.3530  -33.0170 C   0  0  0  0  0  0  0  0  0  0  0  0
   -4.2550   20.6510  -33.4390 O   0  0  0  0  0  0  0  0  0  0  0  0
   -5.5540   20.8830  -32.9590 C   0  0  0  0  0  0  0  0  0  0  0  0
   -5.8980   22.1180  -32.3760 C   0  0  0  0  0  0  0  0  0  0  0  0
   -7.1950   22.3550  -31.9050 C   0  0  0  0  0  0  0  0  0  0  0  0
   -7.5330   23.6670  -31.2410 C   0  0  0  0  0  0  0  0  0  0  0  0
   -6.8450   23.8040  -29.8770 C   0  0  0  0  0  0  0  0  0  0  0  0
   -5.4230   24.2530  -30.0250 C   0  0  0  0  0  0  0  0  0  0  0  0
   -4.9890   25.0890  -30.9890 N   0  0  0  0  0  0  0  0  0  0  0  0
   -3.6980   25.2820  -30.7620 N   0  0  0  0  0  0  0  0  0  0  0  0
   -3.4090   24.5580  -29.6670 C   0  0  0  0  0  0  0  0  0  0  0  0
   -2.2640   24.5010  -29.1480 O   0  0  0  0  0  0  0  0  0  0  0  0
   -4.4560   23.9240  -29.2020 O   0  0  0  0  0  0  0  0  0  0  0  0
   -8.1550   21.3440  -31.9960 C   0  0  0  0  0  0  0  0  0  0  0  0
   -7.8340   20.0990  -32.5640 C   0  0  0  0  0  0  0  0  0  0  0  0
   -8.7770   19.0620  -32.6550 O   0  0  0  0  0  0  0  0  0  0  0  0
   -9.1080   18.1750  -31.5910 C   0  0  0  0  0  0  0  0  0  0  0  0
   -6.5380   19.8630  -33.0530 C   0  0  0  0  0  0  0  0  0  0  0  0
   -6.2970   18.5940  -33.6150 O   0  0  0  0  0  0  0  0  0  0  0  0
   -5.9040   17.4170  -32.9180 C   0  0  0  0  0  0  0  0  0  0  0  0
   -3.0533   21.3751  -31.9178 H   0  0  0  0  0  0  0  0  0  0  0  0
   -2.1949   20.8438  -33.4036 H   0  0  0  0  0  0  0  0  0  0  0  0
   -3.1220   22.3823  -33.4036 H   0  0  0  0  0  0  0  0  0  0  0  0
   -5.1370   22.9075  -32.2895 H   0  0  0  0  0  0  0  0  0  0  0  0
   -7.2040   24.4911  -31.8910 H   0  0  0  0  0  0  0  0  0  0  0  0
   -8.6209   23.7017  -31.0823 H   0  0  0  0  0  0  0  0  0  0  0  0
   -7.3924   24.5422  -29.2725 H   0  0  0  0  0  0  0  0  0  0  0  0
   -6.8481   22.8192  -29.3870 H   0  0  0  0  0  0  0  0  0  0  0  0
   -9.1726   21.5242  -31.6192 H   0  0  0  0  0  0  0  0  0  0  0  0
   -8.9223   18.6725  -30.6277 H   0  0  0  0  0  0  0  0  0  0  0  0
  -10.1701   17.8977  -31.6618 H   0  0  0  0  0  0  0  0  0  0  0  0
   -8.4872   17.2697  -31.6618 H   0  0  0  0  0  0  0  0  0  0  0  0
   -5.9636   17.5955  -31.8342 H   0  0  0  0  0  0  0  0  0  0  0  0
   -6.5742   16.5884  -33.1905 H   0  0  0  0  0  0  0  0  0  0  0  0
   -4.8704   17.1573  -33.1905 H   0  0  0  0  0  0  0  0  0  0  0  0
  1  2  1  0
  2  3  1  0
  3  4  2  0
  4  5  1  0
  5  6  1  0
  6  7  1  0
  7  8  1  0
  8  9  2  0
  9 10  1  0
 10 11  1  0
 11 12  2  0
 11 13  1  0
  5 14  2  0
 14 15  1  0
 15 16  1  0
 16 17  1  0
 15 18  2  0
 18 19  1  0
 19 20  1  0
 18  3  1  0
 13  8  1  0
  1 21  1  0
  1 22  1  0
  1 23  1  0
  4 24  1  0
  6 25  1  0
  6 26  1  0
  7 27  1  0
  7 28  1  0
 14 29  1  0
 17 30  1  0
 17 31  1  0
 17 32  1  0
 20 33  1  0
 20 34  1  0
 20 35  1  0
M  CHG  1  10  -1
M  END
>  <UniqueID>  (31) 
29

>  <SMILES>  (31) 
COc1cc(CCc2n[n-]c(=O)o2)cc(OC)c1OC

>  <Energy>  (31) 
67.56944114135067

>  <Genealogy>  (31) 
COc1cc(CCc2n[n-]c(=O)o2)cc(OC)c1OC (protonated)
COc1cc(CCc2n[n-]c(=O)o2)cc(OC)c1OC (3D coordinates assigned)
COc1cc(CCc2n[n-]c(=O)o2)cc(OC)c1OC (optimized conformer: 67.56944114135067 kcal/mol)

>  <smiles>  (31) 
COc1cc(CCc2n[nH]c(=O)o2)cc(OC)c1OC

>  <score_type>  (31) 
oracle

>  <origin>  (31) 
adgpu

>  <m_score__min__energy>  (31) 
-7.5800000000000001

>  <m_primary>  (31) 
energy

$$$$
31:0
     RDKit          3D

 35 36  0  0  0  0  0  0  0  0999 V2000
   -2.5220   19.3430  -26.6420 C   0  0  0  0  0  0  0  0  0  0  0  0
   -2.2680   20.6890  -27.3090 C   0  0  0  0  0  0  0  0  0  0  0  0
   -3.0890   20.7820  -28.9390 S   0  0  0  0  0  0  0  0  0  0  0  0
   -2.8760   22.5630  -29.1360 C   0  0  0  0  0  0  0  0  0  0  0  0
   -1.8620   23.2000  -28.4150 C   0  0  0  0  0  0  0  0  0  0  0  0
   -1.6930   24.5830  -28.5310 C   0  0  0  0  0  0  0  0  0  0  0  0
   -0.6250   25.2820  -27.7520 C   0  0  0  0  0  0  0  0  0  0  0  0
   -2.5130   25.2970  -29.3470 N   0  0  0  0  0  0  0  0  0  0  0  0
   -3.5010   24.7100  -30.0730 C   0  0  0  0  0  0  0  0  0  0  0  0
   -4.2230   25.4210  -30.8190 O   0  0  0  0  0  0  0  0  0  0  0  0
   -3.7030   23.3180  -29.9930 C   0  0  0  0  0  0  0  0  0  0  0  0
   -4.7760   22.6750  -30.7870 C   0  0  0  0  0  0  0  0  0  0  0  0
   -6.1040   22.7470  -30.3370 C   0  0  0  0  0  0  0  0  0  0  0  0
   -7.1270   22.1380  -31.0640 C   0  0  0  0  0  0  0  0  0  0  0  0
   -6.8360   21.4560  -32.2470 C   0  0  0  0  0  0  0  0  0  0  0  0
   -5.5200   21.3860  -32.7090 C   0  0  0  0  0  0  0  0  0  0  0  0
   -4.4760   21.9980  -31.9860 C   0  0  0  0  0  0  0  0  0  0  0  0
   -3.1430   21.9590  -32.4290 O   0  0  0  0  0  0  0  0  0  0  0  0
   -2.5880   20.9200  -33.2280 C   0  0  0  0  0  0  0  0  0  0  0  0
   -2.4989   19.4652  -25.5491 H   0  0  0  0  0  0  0  0  0  0  0  0
   -3.5078   18.9625  -26.9477 H   0  0  0  0  0  0  0  0  0  0  0  0
   -1.7427   18.6294  -26.9477 H   0  0  0  0  0  0  0  0  0  0  0  0
   -2.6594   21.4892  -26.6636 H   0  0  0  0  0  0  0  0  0  0  0  0
   -1.1843   20.8063  -27.4568 H   0  0  0  0  0  0  0  0  0  0  0  0
   -1.1998   22.6157  -27.7592 H   0  0  0  0  0  0  0  0  0  0  0  0
   -0.8152   25.1575  -26.6757 H   0  0  0  0  0  0  0  0  0  0  0  0
    0.3548   24.8498  -28.0036 H   0  0  0  0  0  0  0  0  0  0  0  0
   -0.6289   26.3528  -28.0036 H   0  0  0  0  0  0  0  0  0  0  0  0
   -6.3387   23.2859  -29.4072 H   0  0  0  0  0  0  0  0  0  0  0  0
   -8.1650   22.1952  -30.7045 H   0  0  0  0  0  0  0  0  0  0  0  0
   -7.6443   20.9732  -32.8158 H   0  0  0  0  0  0  0  0  0  0  0  0
   -5.2966   20.8498  -33.6431 H   0  0  0  0  0  0  0  0  0  0  0  0
   -2.1707   20.1388  -32.5756 H   0  0  0  0  0  0  0  0  0  0  0  0
   -3.3744   20.4859  -33.8630 H   0  0  0  0  0  0  0  0  0  0  0  0
   -1.7900   21.3323  -33.8630 H   0  0  0  0  0  0  0  0  0  0  0  0
  1  2  1  0
  2  3  1  0
  3  4  1  0
  4  5  1  0
  5  6  2  0
  6  7  1  0
  6  8  1  0
  8  9  1  0
  9 10  2  0
  9 11  1  0
 11 12  1  0
 12 13  2  0
 13 14  1  0
 14 15  2  0
 15 16  1  0
 16 17  2  0
 17 18  1  0
 18 19  1  0
 11  4  2  0
 17 12  1  0
  1 20  1  0
  1 21  1  0
  1 22  1  0
  2 23  1  0
  2 24  1  0
  5 25  1  0
  7 26  1  0
  7 27  1  0
  7 28  1  0
 13 29  1  0
 14 30  1  0
 15 31  1  0
 16 32  1  0
 19 33  1  0
 19 34  1  0
 19 35  1  0
M  CHG  1   8  -1
M  END
>  <UniqueID>  (32) 
30

>  <SMILES>  (32) 
CCSc1cc(C)[n-]c(=O)c1-c1ccccc1OC

>  <Energy>  (32) 
36.099752128338885

>  <Genealogy>  (32) 
CCSc1cc(C)[n-]c(=O)c1-c1ccccc1OC (protonated)
CCSc1cc(C)[n-]c(=O)c1-c1ccccc1OC (3D coordinates assigned)
CCSc1cc(C)[n-]c(=O)c1-c1ccccc1OC (optimized conformer: 36.099752128338885 kcal/mol)

>  <smiles>  (32) 
CCSc1cc(C)[nH]c(=O)c1-c1ccccc1OC

>  <score_type>  (32) 
oracle

>  <origin>  (32) 
adgpu

>  <m_score__min__energy>  (32) 
-8.5800000000000001

>  <m_primary>  (32) 
energy

$$$$
32:0
     RDKit          3D

 54 57  0  0  1  0  0  0  0  0999 V2000
   -1.2510   21.2000  -32.2460 C   0  0  0  0  0  0  0  0  0  0  0  0
   -1.0570   21.1250  -33.7520 C   0  0  1  0  0  0  0  0  0  0  0  0
    0.4170   21.3050  -34.0000 C   0  0  0  0  0  0  0  0  0  0  0  0
    0.6750   20.4480  -35.2100 C   0  0  0  0  0  0  0  0  0  0  0  0
   -0.2720   19.2730  -35.0540 C   0  0  0  0  0  0  0  0  0  0  0  0
   -1.3740   19.8260  -34.2730 N   0  0  0  0  0  0  0  0  0  0  0  0
   -2.5930   19.0890  -34.0980 C   0  0  0  0  0  0  0  0  0  0  0  0
   -3.6490   19.6660  -33.4260 C   0  0  0  0  0  0  0  0  0  0  0  0
   -4.8390   18.9750  -33.2390 C   0  0  0  0  0  0  0  0  0  0  0  0
   -5.8050   19.5230  -32.6160 N   0  0  0  0  0  0  0  0  0  0  0  0
   -5.7560   20.8380  -32.0760 C   0  0  0  0  0  0  0  0  0  0  0  0
   -4.7850   21.0610  -31.0930 C   0  0  0  0  0  0  0  0  0  0  0  0
   -4.6680   22.3150  -30.5130 C   0  0  0  0  0  0  0  0  0  0  0  0
   -5.5140   23.3370  -30.9110 C   0  0  0  0  0  0  0  0  0  0  0  0
   -5.3100   24.8860  -30.1390 S   0  0  0  0  0  0  0  0  0  0  0  0
   -4.8780   24.6020  -28.4900 N   0  0  0  0  0  0  0  0  0  0  0  0
   -6.5930   25.6830  -30.1820 O   0  0  0  0  0  0  0  0  0  0  0  0
   -4.2370   25.6620  -30.8430 O   0  0  0  0  0  0  0  0  0  0  0  0
   -6.4880   23.1210  -31.8930 C   0  0  0  0  0  0  0  0  0  0  0  0
   -6.6000   21.8540  -32.4730 C   0  0  0  0  0  0  0  0  0  0  0  0
   -4.9030   17.7330  -33.7430 N   0  0  0  0  0  0  0  0  0  0  0  0
   -3.9020   17.1360  -34.4000 C   0  0  0  0  0  0  0  0  0  0  0  0
   -4.0060   15.8030  -34.9220 N   0  0  0  0  0  0  0  0  0  0  0  0
   -4.9430   14.7630  -34.5530 C   0  0  0  0  0  0  0  0  0  0  0  0
   -4.1800   13.5040  -34.8110 C   0  0  0  0  0  0  0  0  0  0  0  0
   -3.4500   13.8460  -36.0930 C   0  0  0  0  0  0  0  0  0  0  0  0
   -3.1040   15.3110  -35.9730 C   0  0  0  0  0  0  0  0  0  0  0  0
   -2.7590   17.8390  -34.5620 N   0  0  0  0  0  0  0  0  0  0  0  0
   -0.3396   20.8476  -31.7409 H   0  0  0  0  0  0  0  0  0  0  0  0
   -1.4530   22.2410  -31.9537 H   0  0  0  0  0  0  0  0  0  0  0  0
   -2.1008   20.5656  -31.9537 H   0  0  0  0  0  0  0  0  0  0  0  0
   -1.7027   21.8790  -34.2259 H   0  0  0  0  0  0  0  0  0  0  0  0
    0.6555   22.3589  -34.2061 H   0  0  0  0  0  0  0  0  0  0  0  0
    1.0353   21.0234  -33.1349 H   0  0  0  0  0  0  0  0  0  0  0  0
    0.4558   21.0037  -36.1336 H   0  0  0  0  0  0  0  0  0  0  0  0
    1.7259   20.1309  -35.2809 H   0  0  0  0  0  0  0  0  0  0  0  0
   -0.6236   18.9184  -36.0341 H   0  0  0  0  0  0  0  0  0  0  0  0
    0.1997   18.4030  -34.5738 H   0  0  0  0  0  0  0  0  0  0  0  0
   -3.5478   20.6881  -33.0323 H   0  0  0  0  0  0  0  0  0  0  0  0
   -4.1170   20.2444  -30.7817 H   0  0  0  0  0  0  0  0  0  0  0  0
   -3.9067   22.4974  -29.7402 H   0  0  0  0  0  0  0  0  0  0  0  0
   -5.7130   24.1820  -28.0260 H   0  0  0  0  0  0  0  0  0  0  0  0
   -4.7600   25.5690  -28.0630 H   0  0  0  0  0  0  0  0  0  0  0  0
   -7.1564   23.9374  -32.2041 H   0  0  0  0  0  0  0  0  0  0  0  0
   -7.3607   21.6675  -33.2454 H   0  0  0  0  0  0  0  0  0  0  0  0
   -5.2231   14.8435  -33.4923 H   0  0  0  0  0  0  0  0  0  0  0  0
   -5.8875   14.8162  -35.1143 H   0  0  0  0  0  0  0  0  0  0  0  0
   -3.4760   13.2870  -33.9941 H   0  0  0  0  0  0  0  0  0  0  0  0
   -4.8108   12.6056  -34.8819 H   0  0  0  0  0  0  0  0  0  0  0  0
   -2.5367   13.2407  -36.1901 H   0  0  0  0  0  0  0  0  0  0  0  0
   -4.0632   13.6400  -36.9827 H   0  0  0  0  0  0  0  0  0  0  0  0
   -2.0522   15.4418  -35.6787 H   0  0  0  0  0  0  0  0  0  0  0  0
   -3.2231   15.8539  -36.9223 H   0  0  0  0  0  0  0  0  0  0  0  0
   -1.9950   17.3730  -35.0650 H   0  0  0  0  0  0  0  0  0  0  0  0
  1  2  1  0
  2  3  1  0
  3  4  1  0
  4  5  1  0
  5  6  1  0
  6  7  1  0
  7  8  2  0
  8  9  1  0
  9 10  2  0
 10 11  1  0
 11 12  2  0
 12 13  1  0
 13 14  2  0
 14 15  1  0
 15 16  1  0
 15 17  2  0
 15 18  2  0
 14 19  1  0
 19 20  2  0
  9 21  1  0
 21 22  2  0
 22 23  1  0
 23 24  1  0
 24 25  1  0
 25 26  1  0
 26 27  1  0
 22 28  1  0
  6  2  1  0
 28  7  1  0
 20 11  1  0
 27 23  1  0
  1 29  1  0
  1 30  1  0
  1 31  1  0
  2 32  1  6
  3 33  1  0
  3 34  1  0
  4 35  1  0
  4 36  1  0
  5 37  1  0
  5 38  1  0
  8 39  1  0
 12 40  1  0
 13 41  1  0
 16 42  1  0
 16 43  1  0
 19 44  1  0
 20 45  1  0
 24 46  1  0
 24 47  1  0
 25 48  1  0
 25 49  1  0
 26 50  1  0
 26 51  1  0
 27 52  1  0
 27 53  1  0
 28 54  1  0
M  END
>  <smiles>  (33) 
CC1CCCN1c1cc(=Nc2ccc(S(N)(=O)=O)cc2)nc(N2CCCC2)[nH]1

>  <score_type>  (33) 
oracle

>  <origin>  (33) 
adgpu

>  <m_score__min__energy>  (33) 
-8.7899999999999991

>  <m_primary>  (33) 
energy

$$$$
33:0
     RDKit          3D

 38 39  0  0  0  0  0  0  0  0999 V2000
   -4.2210   21.0320  -32.9610 C   0  0  0  0  0  0  0  0  0  0  0  0
   -5.6540   20.6420  -32.7190 C   0  0  0  0  0  0  0  0  0  0  0  0
   -6.0540   19.3180  -32.9510 C   0  0  0  0  0  0  0  0  0  0  0  0
   -7.3760   18.9280  -32.7310 C   0  0  0  0  0  0  0  0  0  0  0  0
   -8.3150   19.8560  -32.2830 C   0  0  0  0  0  0  0  0  0  0  0  0
   -7.9440   21.1910  -32.0590 C   0  0  0  0  0  0  0  0  0  0  0  0
   -8.9780   22.1890  -31.6080 C   0  0  0  0  0  0  0  0  0  0  0  0
   -6.6100   21.5930  -32.2940 C   0  0  0  0  0  0  0  0  0  0  0  0
   -6.2320   22.9590  -32.0790 N   0  0  0  0  0  0  0  0  0  0  0  0
   -5.9660   23.4700  -30.7660 C   0  0  0  0  0  0  0  0  0  0  0  0
   -6.2270   22.7760  -29.7460 O   0  0  0  0  0  0  0  0  0  0  0  0
   -5.3410   24.8210  -30.6030 C   0  0  0  0  0  0  0  0  0  0  0  0
   -3.9030   24.7360  -30.8320 N   0  0  0  0  0  0  0  0  0  0  0  0
   -2.9570   24.4070  -29.8070 C   0  0  0  0  0  0  0  0  0  0  0  0
   -2.1980   25.3020  -29.3460 O   0  0  0  0  0  0  0  0  0  0  0  0
   -2.8840   23.0240  -29.2780 C   0  0  0  0  0  0  0  0  0  0  0  0
   -3.3970   22.7150  -28.0050 C   0  0  0  0  0  0  0  0  0  0  0  0
   -3.3130   21.4110  -27.5050 C   0  0  0  0  0  0  0  0  0  0  0  0
   -2.7180   20.4050  -28.2690 C   0  0  0  0  0  0  0  0  0  0  0  0
   -2.6380   19.1420  -27.7810 F   0  0  0  0  0  0  0  0  0  0  0  0
   -2.2040   20.6990  -29.5330 C   0  0  0  0  0  0  0  0  0  0  0  0
   -2.2850   22.0010  -30.0370 C   0  0  0  0  0  0  0  0  0  0  0  0
   -3.7109   21.1708  -31.9964 H   0  0  0  0  0  0  0  0  0  0  0  0
   -3.7164   20.2385  -33.5318 H   0  0  0  0  0  0  0  0  0  0  0  0
   -4.1881   21.9718  -33.5318 H   0  0  0  0  0  0  0  0  0  0  0  0
   -5.3201   18.5811  -33.3092 H   0  0  0  0  0  0  0  0  0  0  0  0
   -7.6778   17.8857  -32.9116 H   0  0  0  0  0  0  0  0  0  0  0  0
   -9.3533   19.5399  -32.1039 H   0  0  0  0  0  0  0  0  0  0  0  0
   -9.0063   22.2163  -30.5087 H   0  0  0  0  0  0  0  0  0  0  0  0
   -8.7177   23.1860  -31.9930 H   0  0  0  0  0  0  0  0  0  0  0  0
   -9.9652   21.8936  -31.9930 H   0  0  0  0  0  0  0  0  0  0  0  0
   -5.9480   23.5280  -32.9060 H   0  0  0  0  0  0  0  0  0  0  0  0
   -5.7850   25.5178  -31.3291 H   0  0  0  0  0  0  0  0  0  0  0  0
   -5.5231   25.1822  -29.5801 H   0  0  0  0  0  0  0  0  0  0  0  0
   -3.8671   23.5035  -27.3990 H   0  0  0  0  0  0  0  0  0  0  0  0
   -3.7163   21.1779  -26.5085 H   0  0  0  0  0  0  0  0  0  0  0  0
   -1.7347   19.9057  -30.1334 H   0  0  0  0  0  0  0  0  0  0  0  0
   -1.8778   22.2272  -31.0335 H   0  0  0  0  0  0  0  0  0  0  0  0
  1  2  1  0
  2  3  2  0
  3  4  1  0
  4  5  2  0
  5  6  1  0
  6  7  1  0
  6  8  2  0
  8  9  1  0
  9 10  1  0
 10 11  2  0
 10 12  1  0
 12 13  1  0
 13 14  1  0
 14 15  2  0
 14 16  1  0
 16 17  2  0
 17 18  1  0
 18 19  2  0
 19 20  1  0
 19 21  1  0
 21 22  2  0
  8  2  1  0
 22 16  1  0
  1 23  1  0
  1 24  1  0
  1 25  1  0
  3 26  1  0
  4 27  1  0
  5 28  1  0
  7 29  1  0
  7 30  1  0
  7 31  1  0
  9 32  1  0
 12 33  1  0
 12 34  1  0
 17 35  1  0
 18 36  1  0
 21 37  1  0
 22 38  1  0
M  CHG  1  13  -1
M  END
>  <UniqueID>  (34) 
31

>  <SMILES>  (34) 
Cc1cccc(C)c1NC(=O)C[N-]C(=O)c1ccc(F)cc1

>  <Energy>  (34) 
40.83977214690368

>  <Genealogy>  (34) 
Cc1cccc(C)c1NC(=O)C[N-]C(=O)c1ccc(F)cc1 (protonated)
Cc1cccc(C)c1NC(=O)C[N-]C(=O)c1ccc(F)cc1 (3D coordinates assigned)
Cc1cccc(C)c1NC(=O)C[N-]C(=O)c1ccc(F)cc1 (optimized conformer: 40.83977214690368 kcal/mol)

>  <smiles>  (34) 
Cc1cccc(C)c1NC(=O)CNC(=O)c1ccc(F)cc1

>  <score_type>  (34) 
oracle

>  <origin>  (34) 
adgpu

>  <m_score__min__energy>  (34) 
-9.4199999999999999

>  <m_primary>  (34) 
energy

$$$$
34:0
     RDKit          3D

 29 30  0  0  0  0  0  0  0  0999 V2000
   -6.6210   16.8330  -33.4650 C   0  0  0  0  0  0  0  0  0  0  0  0
   -7.0220   18.2000  -32.9940 C   0  0  0  0  0  0  0  0  0  0  0  0
   -6.3640   19.3390  -33.4830 C   0  0  0  0  0  0  0  0  0  0  0  0
   -6.7630   20.6140  -33.0730 C   0  0  0  0  0  0  0  0  0  0  0  0
   -7.8350   20.7650  -32.1840 C   0  0  0  0  0  0  0  0  0  0  0  0
   -8.3450   22.3770  -31.6870 S   0  0  0  0  0  0  0  0  0  0  0  0
   -9.8370   22.3850  -31.5220 O   0  0  0  0  0  0  0  0  0  0  0  0
   -7.9600   23.3970  -32.7220 O   0  0  0  0  0  0  0  0  0  0  0  0
   -7.6040   22.7950  -30.1770 N   0  0  0  0  0  0  0  0  0  0  0  0
   -6.3110   23.4000  -30.0290 C   0  0  0  0  0  0  0  0  0  0  0  0
   -6.0940   24.6650  -30.5890 C   0  0  0  0  0  0  0  0  0  0  0  0
   -4.8540   25.2940  -30.4590 C   0  0  0  0  0  0  0  0  0  0  0  0
   -3.8150   24.6630  -29.7690 C   0  0  0  0  0  0  0  0  0  0  0  0
   -2.5850   25.2990  -29.6440 O   0  0  0  0  0  0  0  0  0  0  0  0
   -4.0190   23.3950  -29.2070 C   0  0  0  0  0  0  0  0  0  0  0  0
   -2.7270   22.5860  -28.3350 Cl  0  0  0  0  0  0  0  0  0  0  0  0
   -5.2620   22.7640  -29.3390 C   0  0  0  0  0  0  0  0  0  0  0  0
   -8.5020   19.6310  -31.7030 C   0  0  0  0  0  0  0  0  0  0  0  0
   -8.1020   18.3550  -32.1120 C   0  0  0  0  0  0  0  0  0  0  0  0
   -6.4314   16.1866  -32.5954 H   0  0  0  0  0  0  0  0  0  0  0  0
   -7.4307   16.4023  -34.0724 H   0  0  0  0  0  0  0  0  0  0  0  0
   -5.7070   16.9079  -34.0724 H   0  0  0  0  0  0  0  0  0  0  0  0
   -5.5305   19.2277  -34.1921 H   0  0  0  0  0  0  0  0  0  0  0  0
   -6.2337   21.5017  -33.4495 H   0  0  0  0  0  0  0  0  0  0  0  0
   -6.9062   25.1669  -31.1353 H   0  0  0  0  0  0  0  0  0  0  0  0
   -4.6945   26.2887  -30.9008 H   0  0  0  0  0  0  0  0  0  0  0  0
   -5.4193   21.7670  -28.9016 H   0  0  0  0  0  0  0  0  0  0  0  0
   -9.3422   19.7445  -31.0021 H   0  0  0  0  0  0  0  0  0  0  0  0
   -8.6367   17.4685  -31.7404 H   0  0  0  0  0  0  0  0  0  0  0  0
  1  2  1  0
  2  3  2  0
  3  4  1  0
  4  5  2  0
  5  6  1  0
  6  7  2  0
  6  8  2  0
  6  9  1  0
  9 10  1  0
 10 11  2  0
 11 12  1  0
 12 13  2  0
 13 14  1  0
 13 15  1  0
 15 16  1  0
 15 17  2  0
  5 18  1  0
 18 19  2  0
 19  2  1  0
 17 10  1  0
  1 20  1  0
  1 21  1  0
  1 22  1  0
  3 23  1  0
  4 24  1  0
 11 25  1  0
 12 26  1  0
 17 27  1  0
 18 28  1  0
 19 29  1  0
M  CHG  2   9  -1  14  -1
M  END
>  <UniqueID>  (35) 
32

>  <SMILES>  (35) 
Cc1ccc(S(=O)(=O)[N-]c2ccc([O-])c(Cl)c2)cc1

>  <Energy>  (35) 
32.06895880558826

>  <Genealogy>  (35) 
Cc1ccc(S(=O)(=O)[N-]c2ccc([O-])c(Cl)c2)cc1 (protonated)
Cc1ccc(S(=O)(=O)[N-]c2ccc([O-])c(Cl)c2)cc1 (3D coordinates assigned)
Cc1ccc(S(=O)(=O)[N-]c2ccc([O-])c(Cl)c2)cc1 (optimized conformer: 32.06895880558826 kcal/mol)

>  <smiles>  (35) 
Cc1ccc(S(=O)(=O)Nc2ccc(O)c(Cl)c2)cc1

>  <score_type>  (35) 
oracle

>  <origin>  (35) 
adgpu

>  <m_score__min__energy>  (35) 
-11.19

>  <m_primary>  (35) 
energy

$$$$
35:0
     RDKit          3D

 31 33  0  0  0  0  0  0  0  0999 V2000
    0.0857   23.5422  -26.3143 H   0  0  0  0  0  0  0  0  0  0  0  0
   -0.3450   23.3300  -27.3040 C   0  0  0  0  0  0  0  0  0  0  0  0
   -1.2570   24.2230  -27.8760 C   0  0  0  0  0  0  0  0  0  0  0  0
   -1.5282   25.1441  -27.3393 H   0  0  0  0  0  0  0  0  0  0  0  0
   -1.8280   23.9540  -29.1270 C   0  0  0  0  0  0  0  0  0  0  0  0
   -2.7390   24.9140  -29.6880 N   0  0  0  0  0  0  0  0  0  0  0  0
   -3.8450   24.6550  -30.3210 C   0  0  0  0  0  0  0  0  0  0  0  0
   -4.3640   23.4170  -30.4770 N   0  0  0  0  0  0  0  0  0  0  0  0
   -5.5070   23.6760  -31.1470 C   0  0  0  0  0  0  0  0  0  0  0  0
   -6.4580   22.6190  -31.5740 C   0  0  0  0  0  0  0  0  0  0  0  0
   -5.9900   21.5110  -32.3050 C   0  0  0  0  0  0  0  0  0  0  0  0
   -4.9215   21.4360  -32.5554 H   0  0  0  0  0  0  0  0  0  0  0  0
   -6.8690   20.5050  -32.7160 C   0  0  0  0  0  0  0  0  0  0  0  0
   -6.4889   19.6448  -33.2866 H   0  0  0  0  0  0  0  0  0  0  0  0
   -8.2320   20.5880  -32.4040 C   0  0  0  0  0  0  0  0  0  0  0  0
   -9.1300   19.5590  -32.8250 N   0  0  0  0  0  0  0  0  0  0  0  0
   -9.3980   19.4600  -33.8300 H   0  0  0  0  0  0  0  0  0  0  0  0
   -9.5350   18.8870  -32.1350 H   0  0  0  0  0  0  0  0  0  0  0  0
   -8.7070   21.6860  -31.6760 C   0  0  0  0  0  0  0  0  0  0  0  0
   -9.7763   21.7567  -31.4278 H   0  0  0  0  0  0  0  0  0  0  0  0
   -7.8290   22.6930  -31.2630 C   0  0  0  0  0  0  0  0  0  0  0  0
   -8.2128   23.5501  -30.6903 H   0  0  0  0  0  0  0  0  0  0  0  0
   -5.6610   24.9970  -31.3660 N   0  0  0  0  0  0  0  0  0  0  0  0
   -6.4430   25.4850  -31.8540 H   0  0  0  0  0  0  0  0  0  0  0  0
   -4.6210   25.6210  -30.8440 N   0  0  0  0  0  0  0  0  0  0  0  0
   -1.4330   22.7950  -29.8260 C   0  0  0  0  0  0  0  0  0  0  0  0
   -1.8440   22.5908  -30.8257 H   0  0  0  0  0  0  0  0  0  0  0  0
   -0.5200   21.9040  -29.2520 C   0  0  0  0  0  0  0  0  0  0  0  0
   -0.2258   20.9938  -29.7951 H   0  0  0  0  0  0  0  0  0  0  0  0
    0.0190   22.1680  -27.9900 C   0  0  0  0  0  0  0  0  0  0  0  0
    0.9060   21.3040  -27.4370 F   0  0  0  0  0  0  0  0  0  0  0  0
  1  2  1  0
  2  3  2  0
  3  4  1  0
  3  5  1  0
  5  6  1  0
  6  7  2  0
  7  8  1  0
  8  9  2  0
  9 10  1  0
 10 11  2  0
 11 12  1  0
 11 13  1  0
 13 14  1  0
 13 15  2  0
 15 16  1  0
 16 17  1  0
 16 18  1  0
 15 19  1  0
 19 20  1  0
 19 21  2  0
 21 22  1  0
  9 23  1  0
 23 24  1  0
 23 25  1  0
  5 26  2  0
 26 27  1  0
 26 28  1  0
 28 29  1  0
 28 30  2  0
 30 31  1  0
 30  2  1  0
 25  7  1  0
 21 10  1  0
M  CHG  1  25  -1
M  END
>  <UniqueID>  (36) 
33

>  <SMILES>  (36) 
Nc1ccc(-c2n/c(=N\c3ccc(F)cc3)[n-][nH]2)cc1

>  <Energy>  (36) 
72.91646530931754

>  <Genealogy>  (36) 
Nc1ccc(-c2nc(=Nc3ccc(F)cc3)[n-][nH]2)cc1 (protonated)
Nc1ccc(-c2n/c(=N\c3ccc(F)cc3)[n-][nH]2)cc1 (cis-trans isomerization)
Nc1ccc(-c2n/c(=N\c3ccc(F)cc3)[n-][nH]2)cc1 (3D coordinates assigned)
Nc1ccc(-c2n/c(=N\c3ccc(F)cc3)[n-][nH]2)cc1 (optimized conformer: 72.91646530931754 kcal/mol)

>  <smiles>  (36) 
Nc1ccc(-c2nc(=Nc3ccc(F)cc3)[nH][nH]2)cc1

>  <score_type>  (36) 
oracle

>  <origin>  (36) 
adgpu

>  <m_score__min__energy>  (36) 
-8.4499999999999993

>  <m_primary>  (36) 
energy

$$$$
36:0
     RDKit          3D

 22 23  0  0  0  0  0  0  0  0999 V2000
   -7.6510   18.6130  -32.2760 C   0  0  0  0  0  0  0  0  0  0  0  0
   -8.7670   19.1240  -31.6070 C   0  0  0  0  0  0  0  0  0  0  0  0
   -8.9450   20.5070  -31.4950 C   0  0  0  0  0  0  0  0  0  0  0  0
   -7.9990   21.3880  -32.0440 C   0  0  0  0  0  0  0  0  0  0  0  0
   -8.2110   22.8740  -31.9630 C   0  0  0  0  0  0  0  0  0  0  0  0
   -7.0280   23.5170  -31.4010 N   0  0  0  0  0  0  0  0  0  0  0  0
   -6.8280   23.8600  -30.1190 C   0  0  0  0  0  0  0  0  0  0  0  0
   -5.5500   24.3610  -30.0120 C   0  0  0  0  0  0  0  0  0  0  0  0
   -4.9460   24.3210  -31.2180 N   0  0  0  0  0  0  0  0  0  0  0  0
   -5.8760   23.7950  -32.0410 C   0  0  0  0  0  0  0  0  0  0  0  0
   -6.8880   20.8680  -32.7280 C   0  0  0  0  0  0  0  0  0  0  0  0
   -6.7130   19.4840  -32.8380 C   0  0  0  0  0  0  0  0  0  0  0  0
   -7.5109   17.5252  -32.3602 H   0  0  0  0  0  0  0  0  0  0  0  0
   -9.5062   18.4377  -31.1681 H   0  0  0  0  0  0  0  0  0  0  0  0
   -9.8287   20.9057  -30.9753 H   0  0  0  0  0  0  0  0  0  0  0  0
   -8.3967   23.2710  -32.9719 H   0  0  0  0  0  0  0  0  0  0  0  0
   -9.0761   23.0805  -31.3157 H   0  0  0  0  0  0  0  0  0  0  0  0
   -7.5553   23.7589  -29.2999 H   0  0  0  0  0  0  0  0  0  0  0  0
   -5.0915   24.7364  -29.0852 H   0  0  0  0  0  0  0  0  0  0  0  0
   -5.7122   23.6136  -33.1135 H   0  0  0  0  0  0  0  0  0  0  0  0
   -6.1529   21.5510  -33.1788 H   0  0  0  0  0  0  0  0  0  0  0  0
   -5.8368   19.0811  -33.3671 H   0  0  0  0  0  0  0  0  0  0  0  0
  1  2  2  0
  2  3  1  0
  3  4  2  0
  4  5  1  0
  5  6  1  0
  6  7  1  0
  7  8  2  0
  8  9  1  0
  9 10  2  0
  4 11  1  0
 11 12  2  0
 12  1  1  0
 10  6  1  0
  1 13  1  0
  2 14  1  0
  3 15  1  0
  5 16  1  0
  5 17  1  0
  7 18  1  0
  8 19  1  0
 10 20  1  0
 11 21  1  0
 12 22  1  0
M  END
>  <UniqueID>  (37) 
34

>  <SMILES>  (37) 
c1ccc(Cn2ccnc2)cc1

>  <Energy>  (37) 
49.71247805018661

>  <Genealogy>  (37) 
c1ccc(Cn2ccnc2)cc1 (3D coordinates assigned)
c1ccc(Cn2ccnc2)cc1 (optimized conformer: 49.71247805018661 kcal/mol)

>  <smiles>  (37) 
c1ccc(Cn2ccnc2)cc1

>  <score_type>  (37) 
oracle

>  <origin>  (37) 
adgpu

>  <m_score__min__energy>  (37) 
-5.5999999999999996

>  <m_primary>  (37) 
energy

$$$$
37:0
     RDKit          3D

 33 33  0  0  0  0  0  0  0  0999 V2000
   -2.8044   22.3980  -29.2083 H   0  0  0  0  0  0  0  0  0  0  0  0
   -3.3360   22.6040  -30.1490 C   0  0  0  0  0  0  0  0  0  0  0  0
   -3.5570   21.6210  -31.0280 C   0  0  0  0  0  0  0  0  0  0  0  0
   -3.2871   20.5864  -30.7697 H   0  0  0  0  0  0  0  0  0  0  0  0
   -4.1760   21.9220  -32.3760 C   0  0  1  0  0  0  0  0  0  0  0  0
   -3.3850   22.2867  -33.0479 H   0  0  0  0  0  0  0  0  0  0  0  0
   -4.7320   20.6560  -33.0420 C   0  0  0  0  0  0  0  0  0  0  0  0
   -5.0458   19.9415  -32.2668 H   0  0  0  0  0  0  0  0  0  0  0  0
   -5.5967   20.9207  -33.6683 H   0  0  0  0  0  0  0  0  0  0  0  0
   -3.9520   20.1984  -33.6683 H   0  0  0  0  0  0  0  0  0  0  0  0
   -5.2240   23.0630  -32.2570 C   0  0  1  0  0  0  0  0  0  0  0  0
   -5.5183   23.3404  -33.2800 H   0  0  0  0  0  0  0  0  0  0  0  0
   -6.4750   22.6410  -31.5250 C   0  0  0  0  0  0  0  0  0  0  0  0
   -6.4528   22.5283  -30.4310 H   0  0  0  0  0  0  0  0  0  0  0  0
   -7.6080   22.4030  -32.1900 C   0  0  0  0  0  0  0  0  0  0  0  0
   -7.6213   22.4826  -33.2870 H   0  0  0  0  0  0  0  0  0  0  0  0
   -8.8440   22.0340  -31.4700 C   0  0  0  0  0  0  0  0  0  0  0  0
   -9.2565   22.7627  -30.7567 H   0  0  0  0  0  0  0  0  0  0  0  0
   -9.4990   20.8740  -31.6240 C   0  0  0  0  0  0  0  0  0  0  0  0
  -10.3985   20.7181  -31.0103 H   0  0  0  0  0  0  0  0  0  0  0  0
   -9.1060   19.7650  -32.5680 C   0  0  0  0  0  0  0  0  0  0  0  0
   -8.4120   20.1683  -33.3201 H   0  0  0  0  0  0  0  0  0  0  0  0
  -10.0223   19.3788  -33.0383 H   0  0  0  0  0  0  0  0  0  0  0  0
   -8.4220   18.6010  -31.8360 C   0  0  0  0  0  0  0  0  0  0  0  0
   -9.1305   17.7620  -31.7718 H   0  0  0  0  0  0  0  0  0  0  0  0
   -8.1269   18.9648  -30.8407 H   0  0  0  0  0  0  0  0  0  0  0  0
   -7.1560   18.1170  -32.5410 C   0  0  0  0  0  0  0  0  0  0  0  0
   -6.4051   17.8299  -31.7901 H   0  0  0  0  0  0  0  0  0  0  0  0
   -7.3964   17.2474  -33.1702 H   0  0  0  0  0  0  0  0  0  0  0  0
   -6.7549   18.9252  -33.1702 H   0  0  0  0  0  0  0  0  0  0  0  0
   -4.6350   24.1680  -31.5620 O   0  0  0  0  0  0  0  0  0  0  0  0
   -3.8100   23.9630  -30.4510 C   0  0  0  0  0  0  0  0  0  0  0  0
   -3.4730   24.9340  -29.7260 O   0  0  0  0  0  0  0  0  0  0  0  0
  1  2  1  0
  2  3  2  0
  3  4  1  0
  3  5  1  0
  5  6  1  6
  5  7  1  0
  7  8  1  0
  7  9  1  0
  7 10  1  0
  5 11  1  0
 11 12  1  6
 11 13  1  0
 13 14  1  0
 13 15  2  0
 15 16  1  0
 15 17  1  0
 17 18  1  0
 17 19  2  0
 19 20  1  0
 19 21  1  0
 21 22  1  0
 21 23  1  0
 21 24  1  0
 24 25  1  0
 24 26  1  0
 24 27  1  0
 27 28  1  0
 27 29  1  0
 27 30  1  0
 11 31  1  0
 31 32  1  0
 32 33  2  0
 32  2  1  0
M  END
>  <UniqueID>  (38) 
35

>  <SMILES>  (38) 
CCC/C=C\C=C\[C@H]1OC(=O)C=C[C@H]1C

>  <Energy>  (38) 
22.587832343595583

>  <Genealogy>  (38) 
CCCC=CC=C[C@H]1OC(=O)C=C[C@H]1C (chirality)
CCC/C=C\C=C\[C@H]1OC(=O)C=C[C@H]1C (cis-trans isomerization)
CCC/C=C\C=C\[C@H]1OC(=O)C=C[C@H]1C (3D coordinates assigned)
CCC/C=C\C=C\[C@H]1OC(=O)C=C[C@H]1C (nonaromatic ring conformer: 22.587832343595583 kcal/mol)

>  <smiles>  (38) 
CCCC=CC=CC1OC(=O)C=CC1C

>  <score_type>  (38) 
oracle

>  <origin>  (38) 
adgpu

>  <m_score__min__energy>  (38) 
-7

>  <m_primary>  (38) 
energy

$$$$
38:0
     RDKit          3D

 32 35  0  0  0  0  0  0  0  0999 V2000
   -6.1870   20.7530  -33.0250 C   0  0  0  0  0  0  0  0  0  0  0  0
   -6.2950   21.9670  -32.1580 C   0  0  0  0  0  0  0  0  0  0  0  0
   -7.5120   22.6490  -32.0430 C   0  0  0  0  0  0  0  0  0  0  0  0
   -7.5850   23.7790  -31.2290 C   0  0  0  0  0  0  0  0  0  0  0  0
   -6.4530   24.2160  -30.5390 C   0  0  0  0  0  0  0  0  0  0  0  0
   -5.2450   23.5120  -30.6750 C   0  0  0  0  0  0  0  0  0  0  0  0
   -4.0310   23.9530  -29.9550 C   0  0  0  0  0  0  0  0  0  0  0  0
   -3.4910   25.1910  -30.0790 N   0  0  0  0  0  0  0  0  0  0  0  0
   -2.4100   25.2800  -29.3110 N   0  0  0  0  0  0  0  0  0  0  0  0
   -2.2600   24.0960  -28.6950 C   0  0  0  0  0  0  0  0  0  0  0  0
   -1.2630   23.7330  -27.7970 C   0  0  0  0  0  0  0  0  0  0  0  0
   -1.2980   22.4300  -27.2690 C   0  0  0  0  0  0  0  0  0  0  0  0
   -2.3210   21.5200  -27.6450 C   0  0  0  0  0  0  0  0  0  0  0  0
   -2.3470   20.1530  -27.0840 C   0  0  0  0  0  0  0  0  0  0  0  0
   -3.4720   19.5330  -26.6610 N   0  0  0  0  0  0  0  0  0  0  0  0
   -3.0050   18.3410  -26.2440 C   0  0  0  0  0  0  0  0  0  0  0  0
   -1.6770   18.2490  -26.4090 N   0  0  0  0  0  0  0  0  0  0  0  0
   -1.2500   19.3810  -26.9350 N   0  0  0  0  0  0  0  0  0  0  0  0
   -3.3170   21.9310  -28.5640 C   0  0  0  0  0  0  0  0  0  0  0  0
   -3.2510   23.2310  -29.0670 C   0  0  0  0  0  0  0  0  0  0  0  0
   -5.2050   22.4130  -31.4770 N   0  0  0  0  0  0  0  0  0  0  0  0
   -6.1073   19.8566  -32.3925 H   0  0  0  0  0  0  0  0  0  0  0  0
   -7.0818   20.6752  -33.6601 H   0  0  0  0  0  0  0  0  0  0  0  0
   -5.2925   20.8344  -33.6601 H   0  0  0  0  0  0  0  0  0  0  0  0
   -8.4004   22.2977  -32.5883 H   0  0  0  0  0  0  0  0  0  0  0  0
   -8.5344   24.3258  -31.1307 H   0  0  0  0  0  0  0  0  0  0  0  0
   -6.5065   25.1051  -29.8935 H   0  0  0  0  0  0  0  0  0  0  0  0
   -0.4726   24.4417  -27.5088 H   0  0  0  0  0  0  0  0  0  0  0  0
   -0.5232   22.1119  -26.5559 H   0  0  0  0  0  0  0  0  0  0  0  0
   -3.6333   17.5432  -25.8213 H   0  0  0  0  0  0  0  0  0  0  0  0
   -1.0690   17.4360  -26.1680 H   0  0  0  0  0  0  0  0  0  0  0  0
   -4.1197   21.2451  -28.8725 H   0  0  0  0  0  0  0  0  0  0  0  0
  1  2  1  0
  2  3  2  0
  3  4  1  0
  4  5  2  0
  5  6  1  0
  6  7  1  0
  7  8  1  0
  8  9  1  0
  9 10  2  0
 10 11  1  0
 11 12  2  0
 12 13  1  0
 13 14  1  0
 14 15  1  0
 15 16  2  0
 16 17  1  0
 17 18  1  0
 13 19  2  0
 19 20  1  0
  6 21  2  0
 21  2  1  0
 20  7  2  0
 20 10  1  0
 18 14  2  0
  1 22  1  0
  1 23  1  0
  1 24  1  0
  3 25  1  0
  4 26  1  0
  5 27  1  0
 11 28  1  0
 12 29  1  0
 16 30  1  0
 17 31  1  0
 19 32  1  0
M  CHG  1   8  -1
M  END
>  <UniqueID>  (39) 
36

>  <SMILES>  (39) 
Cc1cccc(-c2[n-]nc3ccc(-c4nc[nH]n4)cc23)n1

>  <Energy>  (39) 
107.84045904552974

>  <Genealogy>  (39) 
Cc1cccc(-c2[n-]nc3ccc(-c4nc[nH]n4)cc23)n1 (protonated)
Cc1cccc(-c2[n-]nc3ccc(-c4nc[nH]n4)cc23)n1 (3D coordinates assigned)
Cc1cccc(-c2[n-]nc3ccc(-c4nc[nH]n4)cc23)n1 (optimized conformer: 107.84045904552974 kcal/mol)

>  <smiles>  (39) 
Cc1cccc(-c2[nH]nc3ccc(-c4nc[nH]n4)cc23)n1

>  <score_type>  (39) 
oracle

>  <origin>  (39) 
adgpu

>  <m_score__min__energy>  (39) 
-9.6099999999999994

>  <m_primary>  (39) 
energy

$$$$
39:0
     RDKit          3D

 43 45  0  0  0  0  0  0  0  0999 V2000
   -8.4000   18.6330  -31.9710 C   0  0  0  0  0  0  0  0  0  0  0  0
   -6.9580   18.4100  -32.4270 C   0  0  0  0  0  0  0  0  0  0  0  0
   -6.5210   19.3940  -33.5220 C   0  0  0  0  0  0  0  0  0  0  0  0
   -5.3760   20.3390  -33.1040 C   0  0  0  0  0  0  0  0  0  0  0  0
   -5.8530   21.4930  -32.3160 N   0  0  0  0  0  0  0  0  0  0  0  0
   -7.2850   21.8430  -32.3330 C   0  0  0  0  0  0  0  0  0  0  0  0
   -7.7770   22.2590  -30.9480 C   0  0  0  0  0  0  0  0  0  0  0  0
   -4.9810   22.1150  -31.3440 C   0  0  0  0  0  0  0  0  0  0  0  0
   -4.8020   23.4720  -31.3450 N   0  0  0  0  0  0  0  0  0  0  0  0
   -3.9810   24.0940  -30.4530 C   0  0  0  0  0  0  0  0  0  0  0  0
   -3.8450   25.3450  -30.4960 O   0  0  0  0  0  0  0  0  0  0  0  0
   -3.2990   23.3160  -29.5090 C   0  0  0  0  0  0  0  0  0  0  0  0
   -2.4080   23.7180  -28.4960 C   0  0  0  0  0  0  0  0  0  0  0  0
   -1.8850   22.6260  -27.7960 C   0  0  0  0  0  0  0  0  0  0  0  0
   -2.5600   21.1850  -28.3690 S   0  0  0  0  0  0  0  0  0  0  0  0
   -3.4840   21.9480  -29.5440 C   0  0  0  0  0  0  0  0  0  0  0  0
   -4.3040   21.3490  -30.4390 N   0  0  0  0  0  0  0  0  0  0  0  0
   -0.9450   22.7430  -26.6350 C   0  0  0  0  0  0  0  0  0  0  0  0
   -0.2400   24.1080  -26.6430 C   0  0  0  0  0  0  0  0  0  0  0  0
   -1.2460   25.2480  -26.8590 C   0  0  0  0  0  0  0  0  0  0  0  0
   -1.9530   25.1300  -28.2220 C   0  0  0  0  0  0  0  0  0  0  0  0
   -8.4401   18.6392  -30.8718 H   0  0  0  0  0  0  0  0  0  0  0  0
   -8.7615   19.5977  -32.3566 H   0  0  0  0  0  0  0  0  0  0  0  0
   -9.0360   17.8225  -32.3566 H   0  0  0  0  0  0  0  0  0  0  0  0
   -6.2924   18.5312  -31.5596 H   0  0  0  0  0  0  0  0  0  0  0  0
   -6.8974   17.3962  -32.8495 H   0  0  0  0  0  0  0  0  0  0  0  0
   -6.1874   18.8130  -34.3945 H   0  0  0  0  0  0  0  0  0  0  0  0
   -7.3914   20.0301  -33.7404 H   0  0  0  0  0  0  0  0  0  0  0  0
   -4.6545   19.7719  -32.4974 H   0  0  0  0  0  0  0  0  0  0  0  0
   -4.9139   20.7301  -34.0224 H   0  0  0  0  0  0  0  0  0  0  0  0
   -7.4406   22.6772  -33.0329 H   0  0  0  0  0  0  0  0  0  0  0  0
   -7.8531   20.9555  -32.6485 H   0  0  0  0  0  0  0  0  0  0  0  0
   -7.1770   21.7517  -30.1781 H   0  0  0  0  0  0  0  0  0  0  0  0
   -7.6742   23.3483  -30.8343 H   0  0  0  0  0  0  0  0  0  0  0  0
   -8.8340   21.9766  -30.8343 H   0  0  0  0  0  0  0  0  0  0  0  0
   -1.5122   22.6350  -25.6987 H   0  0  0  0  0  0  0  0  0  0  0  0
   -0.1849   21.9518  -26.7140 H   0  0  0  0  0  0  0  0  0  0  0  0
    0.2686   24.2554  -25.6788 H   0  0  0  0  0  0  0  0  0  0  0  0
    0.4863   24.1215  -27.4690 H   0  0  0  0  0  0  0  0  0  0  0  0
   -2.0019   25.2130  -26.0606 H   0  0  0  0  0  0  0  0  0  0  0  0
   -0.6961   26.2005  -26.8381 H   0  0  0  0  0  0  0  0  0  0  0  0
   -2.8299   25.7941  -28.2271 H   0  0  0  0  0  0  0  0  0  0  0  0
   -1.2359   25.4165  -29.0054 H   0  0  0  0  0  0  0  0  0  0  0  0
  1  2  1  0
  2  3  1  0
  3  4  1  0
  4  5  1  0
  5  6  1  0
  6  7  1  0
  5  8  1  0
  8  9  2  0
  9 10  1  0
 10 11  2  0
 10 12  1  0
 12 13  1  0
 13 14  2  0
 14 15  1  0
 15 16  1  0
 16 17  1  0
 14 18  1  0
 18 19  1  0
 19 20  1  0
 20 21  1  0
 17  8  1  0
 16 12  2  0
 21 13  1  0
  1 22  1  0
  1 23  1  0
  1 24  1  0
  2 25  1  0
  2 26  1  0
  3 27  1  0
  3 28  1  0
  4 29  1  0
  4 30  1  0
  6 31  1  0
  6 32  1  0
  7 33  1  0
  7 34  1  0
  7 35  1  0
 18 36  1  0
 18 37  1  0
 19 38  1  0
 19 39  1  0
 20 40  1  0
 20 41  1  0
 21 42  1  0
 21 43  1  0
M  CHG  1  17  -1
M  END
>  <UniqueID>  (40) 
37

>  <SMILES>  (40) 
CCCCN(CC)c1nc(=O)c2c3c(sc2[n-]1)CCCC3

>  <Energy>  (40) 
68.04536723626167

>  <Genealogy>  (40) 
CCCCN(CC)c1nc(=O)c2c3c(sc2[n-]1)CCCC3 (protonated)
CCCCN(CC)c1nc(=O)c2c3c(sc2[n-]1)CCCC3 (3D coordinates assigned)
CCCCN(CC)c1nc(=O)c2c3c(sc2[n-]1)CCCC3 (nonaromatic ring conformer: 68.04536723626167 kcal/mol)

>  <smiles>  (40) 
CCCCN(CC)c1nc(=O)c2c3c(sc2[nH]1)CCCC3

>  <score_type>  (40) 
oracle

>  <origin>  (40) 
adgpu

>  <m_score__min__energy>  (40) 
-7.9900000000000002

>  <m_primary>  (40) 
energy

$$$$
40:0
     RDKit          3D

 52 54  0  0  0  0  0  0  0  0999 V2000
   -8.5330   19.5100  -31.3900 C   0  0  0  0  0  0  0  0  0  0  0  0
   -8.1100   20.1150  -32.7250 C   0  0  0  0  0  0  0  0  0  0  0  0
   -7.0640   21.1250  -32.5280 N   0  0  0  0  0  0  0  0  0  0  0  0
   -5.6860   20.8270  -32.8160 C   0  0  0  0  0  0  0  0  0  0  0  0
   -4.7460   21.8600  -32.9590 C   0  0  0  0  0  0  0  0  0  0  0  0
   -3.4110   21.5660  -33.2500 C   0  0  0  0  0  0  0  0  0  0  0  0
   -2.9950   20.2300  -33.4050 C   0  0  0  0  0  0  0  0  0  0  0  0
   -1.6680   19.8840  -33.6980 O   0  0  0  0  0  0  0  0  0  0  0  0
   -0.6670   20.8100  -34.1070 C   0  0  0  0  0  0  0  0  0  0  0  0
   -3.9350   19.2030  -33.2660 C   0  0  0  0  0  0  0  0  0  0  0  0
   -5.2710   19.4960  -32.9750 C   0  0  0  0  0  0  0  0  0  0  0  0
   -7.5070   22.7000  -31.9380 S   0  0  0  0  0  0  0  0  0  0  0  0
   -7.5740   23.6530  -33.0980 O   0  0  0  0  0  0  0  0  0  0  0  0
   -8.8510   22.6480  -31.2670 O   0  0  0  0  0  0  0  0  0  0  0  0
   -6.3190   23.2370  -30.7570 C   0  0  0  0  0  0  0  0  0  0  0  0
   -5.5660   22.2910  -30.0530 C   0  0  0  0  0  0  0  0  0  0  0  0
   -4.6150   22.7030  -29.1160 C   0  0  0  0  0  0  0  0  0  0  0  0
   -4.4020   24.0710  -28.8680 C   0  0  0  0  0  0  0  0  0  0  0  0
   -3.3910   24.5120  -27.8750 C   0  0  0  0  0  0  0  0  0  0  0  0
   -2.0260   24.5430  -28.2120 C   0  0  0  0  0  0  0  0  0  0  0  0
   -1.0740   24.9600  -27.2760 C   0  0  0  0  0  0  0  0  0  0  0  0
   -1.4710   25.3500  -25.9910 C   0  0  0  0  0  0  0  0  0  0  0  0
   -0.2700   25.8950  -24.8240 S   0  0  0  0  0  0  0  0  0  0  0  0
    0.4940   24.5270  -24.0960 N   0  0  0  0  0  0  0  0  0  0  0  0
    0.7660   26.7390  -25.5130 O   0  0  0  0  0  0  0  0  0  0  0  0
   -0.9370   26.7230  -23.7610 O   0  0  0  0  0  0  0  0  0  0  0  0
   -2.8290   25.3300  -25.6510 C   0  0  0  0  0  0  0  0  0  0  0  0
   -3.7820   24.9100  -26.5840 C   0  0  0  0  0  0  0  0  0  0  0  0
   -5.1640   25.0160  -29.5790 C   0  0  0  0  0  0  0  0  0  0  0  0
   -6.1170   24.6010  -30.5150 C   0  0  0  0  0  0  0  0  0  0  0  0
   -8.1146   20.1084  -30.5673 H   0  0  0  0  0  0  0  0  0  0  0  0
   -9.6308   19.5073  -31.3201 H   0  0  0  0  0  0  0  0  0  0  0  0
   -8.1586   18.4780  -31.3201 H   0  0  0  0  0  0  0  0  0  0  0  0
   -7.7238   19.3175  -33.3768 H   0  0  0  0  0  0  0  0  0  0  0  0
   -8.9840   20.5964  -33.1881 H   0  0  0  0  0  0  0  0  0  0  0  0
   -5.0621   22.9070  -32.8413 H   0  0  0  0  0  0  0  0  0  0  0  0
   -2.6818   22.3824  -33.3584 H   0  0  0  0  0  0  0  0  0  0  0  0
   -0.1905   21.2508  -33.2190 H   0  0  0  0  0  0  0  0  0  0  0  0
    0.0914   20.2880  -34.7090 H   0  0  0  0  0  0  0  0  0  0  0  0
   -1.1284   21.6066  -34.7090 H   0  0  0  0  0  0  0  0  0  0  0  0
   -3.6203   18.1559  -33.3867 H   0  0  0  0  0  0  0  0  0  0  0  0
   -6.0002   18.6791  -32.8702 H   0  0  0  0  0  0  0  0  0  0  0  0
   -5.7234   21.2182  -30.2380 H   0  0  0  0  0  0  0  0  0  0  0  0
   -4.0281   21.9514  -28.5678 H   0  0  0  0  0  0  0  0  0  0  0  0
   -1.7048   24.2372  -29.2186 H   0  0  0  0  0  0  0  0  0  0  0  0
   -0.0090   24.9817  -27.5504 H   0  0  0  0  0  0  0  0  0  0  0  0
    1.3320   24.8820  -23.5820 H   0  0  0  0  0  0  0  0  0  0  0  0
   -0.1650   24.1550  -23.3760 H   0  0  0  0  0  0  0  0  0  0  0  0
   -3.1473   25.6458  -24.6465 H   0  0  0  0  0  0  0  0  0  0  0  0
   -4.8461   24.8907  -26.3060 H   0  0  0  0  0  0  0  0  0  0  0  0
   -5.0091   26.0898  -29.3974 H   0  0  0  0  0  0  0  0  0  0  0  0
   -6.7095   25.3487  -31.0626 H   0  0  0  0  0  0  0  0  0  0  0  0
  1  2  1  0
  2  3  1  0
  3  4  1  0
  4  5  2  0
  5  6  1  0
  6  7  2  0
  7  8  1  0
  8  9  1  0
  7 10  1  0
 10 11  2  0
  3 12  1  0
 12 13  2  0
 12 14  2  0
 12 15  1  0
 15 16  2  0
 16 17  1  0
 17 18  2  0
 18 19  1  0
 19 20  2  0
 20 21  1  0
 21 22  2  0
 22 23  1  0
 23 24  1  0
 23 25  2  0
 23 26  2  0
 22 27  1  0
 27 28  2  0
 18 29  1  0
 29 30  2  0
 11  4  1  0
 30 15  1  0
 28 19  1  0
  1 31  1  0
  1 32  1  0
  1 33  1  0
  2 34  1  0
  2 35  1  0
  5 36  1  0
  6 37  1  0
  9 38  1  0
  9 39  1  0
  9 40  1  0
 10 41  1  0
 11 42  1  0
 16 43  1  0
 17 44  1  0
 20 45  1  0
 21 46  1  0
 24 47  1  0
 24 48  1  0
 27 49  1  0
 28 50  1  0
 29 51  1  0
 30 52  1  0
M  END
>  <UniqueID>  (41) 
38

>  <SMILES>  (41) 
CCN(c1ccc(OC)cc1)S(=O)(=O)c1ccc(-c2ccc(S(N)(=O)=O)cc2)cc1

>  <Energy>  (41) 
59.44262299019624

>  <Genealogy>  (41) 
CCN(c1ccc(OC)cc1)S(=O)(=O)c1ccc(-c2ccc(S(N)(=O)=O)cc2)cc1 (3D coordinates assigned)
CCN(c1ccc(OC)cc1)S(=O)(=O)c1ccc(-c2ccc(S(N)(=O)=O)cc2)cc1 (optimized conformer: 59.44262299019624 kcal/mol)

>  <smiles>  (41) 
CCN(c1ccc(OC)cc1)S(=O)(=O)c1ccc(-c2ccc(S(N)(=O)=O)cc2)cc1

>  <score_type>  (41) 
oracle

>  <origin>  (41) 
adgpu

>  <m_score__min__energy>  (41) 
-8.9399999999999995

>  <m_primary>  (41) 
energy

$$$$
41:0
     RDKit          3D

 47 49  0  0  0  0  0  0  0  0999 V2000
   -0.1090   23.7150  -26.8440 C   0  0  0  0  0  0  0  0  0  0  0  0
    0.1720   23.5600  -28.2290 O   0  0  0  0  0  0  0  0  0  0  0  0
   -0.5000   22.6750  -29.0920 C   0  0  0  0  0  0  0  0  0  0  0  0
    0.0690   21.4460  -29.4710 C   0  0  0  0  0  0  0  0  0  0  0  0
   -0.6140   20.5700  -30.3140 C   0  0  0  0  0  0  0  0  0  0  0  0
   -1.8820   20.9080  -30.8150 C   0  0  0  0  0  0  0  0  0  0  0  0
   -2.6110   19.9890  -31.7220 C   0  0  0  0  0  0  0  0  0  0  0  0
   -1.9850   19.0610  -32.3010 O   0  0  0  0  0  0  0  0  0  0  0  0
   -4.0100   20.1770  -31.9900 N   0  0  0  0  0  0  0  0  0  0  0  0
   -4.8480   19.1690  -32.5770 C   0  0  0  0  0  0  0  0  0  0  0  0
   -4.7470   18.8980  -33.9510 C   0  0  0  0  0  0  0  0  0  0  0  0
   -5.5580   17.9230  -34.5400 C   0  0  0  0  0  0  0  0  0  0  0  0
   -6.4840   17.2200  -33.7640 C   0  0  0  0  0  0  0  0  0  0  0  0
   -7.2590   16.2640  -34.3340 F   0  0  0  0  0  0  0  0  0  0  0  0
   -6.6100   17.5010  -32.4010 C   0  0  0  0  0  0  0  0  0  0  0  0
   -5.8050   18.4770  -31.8080 C   0  0  0  0  0  0  0  0  0  0  0  0
   -2.4440   22.1410  -30.4550 C   0  0  0  0  0  0  0  0  0  0  0  0
   -1.7700   23.0210  -29.5950 C   0  0  0  0  0  0  0  0  0  0  0  0
   -2.5600   24.5510  -29.1950 S   0  0  0  0  0  0  0  0  0  0  0  0
   -3.3280   24.3710  -27.9130 O   0  0  0  0  0  0  0  0  0  0  0  0
   -1.5790   25.6770  -29.0050 O   0  0  0  0  0  0  0  0  0  0  0  0
   -3.6690   24.9650  -30.4650 N   0  0  0  0  0  0  0  0  0  0  0  0
   -4.9060   24.2880  -30.7350 C   0  0  0  0  0  0  0  0  0  0  0  0
   -6.0420   24.4440  -29.9200 C   0  0  0  0  0  0  0  0  0  0  0  0
   -7.2290   23.7640  -30.2190 C   0  0  0  0  0  0  0  0  0  0  0  0
   -7.2890   22.9030  -31.3280 C   0  0  0  0  0  0  0  0  0  0  0  0
   -8.5730   22.2010  -31.6630 C   0  0  0  0  0  0  0  0  0  0  0  0
   -6.1660   22.7690  -32.1520 C   0  0  0  0  0  0  0  0  0  0  0  0
   -4.9790   23.4460  -31.8530 C   0  0  0  0  0  0  0  0  0  0  0  0
    0.7032   23.2670  -26.2527 H   0  0  0  0  0  0  0  0  0  0  0  0
   -0.1900   24.7854  -26.6038 H   0  0  0  0  0  0  0  0  0  0  0  0
   -1.0576   23.2125  -26.6038 H   0  0  0  0  0  0  0  0  0  0  0  0
    1.0666   21.1720  -29.0973 H   0  0  0  0  0  0  0  0  0  0  0  0
   -0.1568   19.6079  -30.5885 H   0  0  0  0  0  0  0  0  0  0  0  0
   -4.3910   21.1480  -31.9150 H   0  0  0  0  0  0  0  0  0  0  0  0
   -4.0262   19.4555  -34.5672 H   0  0  0  0  0  0  0  0  0  0  0  0
   -5.4672   17.7090  -35.6152 H   0  0  0  0  0  0  0  0  0  0  0  0
   -7.3448   16.9525  -31.7934 H   0  0  0  0  0  0  0  0  0  0  0  0
   -5.9185   18.7058  -30.7381 H   0  0  0  0  0  0  0  0  0  0  0  0
   -3.4297   22.4231  -30.8535 H   0  0  0  0  0  0  0  0  0  0  0  0
   -5.9975   25.1048  -29.0417 H   0  0  0  0  0  0  0  0  0  0  0  0
   -8.1165   23.9041  -29.5844 H   0  0  0  0  0  0  0  0  0  0  0  0
   -9.0897   21.9185  -30.7339 H   0  0  0  0  0  0  0  0  0  0  0  0
   -9.2159   22.8731  -32.2503 H   0  0  0  0  0  0  0  0  0  0  0  0
   -8.3542   21.2970  -32.2503 H   0  0  0  0  0  0  0  0  0  0  0  0
   -6.2171   22.1256  -33.0427 H   0  0  0  0  0  0  0  0  0  0  0  0
   -4.0980   23.3168  -32.4989 H   0  0  0  0  0  0  0  0  0  0  0  0
  1  2  1  0
  2  3  1  0
  3  4  2  0
  4  5  1  0
  5  6  2  0
  6  7  1  0
  7  8  2  0
  7  9  1  0
  9 10  1  0
 10 11  2  0
 11 12  1  0
 12 13  2  0
 13 14  1  0
 13 15  1  0
 15 16  2  0
  6 17  1  0
 17 18  2  0
 18 19  1  0
 19 20  2  0
 19 21  2  0
 19 22  1  0
 22 23  1  0
 23 24  2  0
 24 25  1  0
 25 26  2  0
 26 27  1  0
 26 28  1  0
 28 29  2  0
 18  3  1  0
 29 23  1  0
 16 10  1  0
  1 30  1  0
  1 31  1  0
  1 32  1  0
  4 33  1  0
  5 34  1  0
  9 35  1  0
 11 36  1  0
 12 37  1  0
 15 38  1  0
 16 39  1  0
 17 40  1  0
 24 41  1  0
 25 42  1  0
 27 43  1  0
 27 44  1  0
 27 45  1  0
 28 46  1  0
 29 47  1  0
M  CHG  1  22  -1
M  END
>  <UniqueID>  (42) 
39

>  <SMILES>  (42) 
COc1ccc(C(=O)Nc2ccc(F)cc2)cc1S(=O)(=O)[N-]c1ccc(C)cc1

>  <Energy>  (42) 
58.56587162381989

>  <Genealogy>  (42) 
COc1ccc(C(=O)Nc2ccc(F)cc2)cc1S(=O)(=O)[N-]c1ccc(C)cc1 (protonated)
COc1ccc(C(=O)Nc2ccc(F)cc2)cc1S(=O)(=O)[N-]c1ccc(C)cc1 (3D coordinates assigned)
COc1ccc(C(=O)Nc2ccc(F)cc2)cc1S(=O)(=O)[N-]c1ccc(C)cc1 (optimized conformer: 58.56587162381989 kcal/mol)

>  <smiles>  (42) 
COc1ccc(C(=O)Nc2ccc(F)cc2)cc1S(=O)(=O)Nc1ccc(C)cc1

>  <score_type>  (42) 
oracle

>  <origin>  (42) 
adgpu

>  <m_score__min__energy>  (42) 
-10.15

>  <m_primary>  (42) 
energy

$$$$
42:0
     RDKit          3D

 45 47  0  0  0  0  0  0  0  0999 V2000
   -9.0690   18.5460  -31.9450 C   0  0  0  0  0  0  0  0  0  0  0  0
   -7.6720   18.2170  -31.4250 C   0  0  0  0  0  0  0  0  0  0  0  0
   -6.7300   17.9200  -32.5670 C   0  0  0  0  0  0  0  0  0  0  0  0
   -6.1220   16.6540  -32.6400 C   0  0  0  0  0  0  0  0  0  0  0  0
   -5.2890   16.3250  -33.7120 C   0  0  0  0  0  0  0  0  0  0  0  0
   -5.0600   17.2520  -34.7280 C   0  0  0  0  0  0  0  0  0  0  0  0
   -5.6650   18.5080  -34.6800 C   0  0  0  0  0  0  0  0  0  0  0  0
   -6.5110   18.8510  -33.6110 C   0  0  0  0  0  0  0  0  0  0  0  0
   -7.1170   20.1550  -33.5770 N   0  0  0  0  0  0  0  0  0  0  0  0
   -6.6470   21.2280  -32.7420 C   0  0  0  0  0  0  0  0  0  0  0  0
   -5.2840   21.5740  -32.6900 C   0  0  0  0  0  0  0  0  0  0  0  0
   -4.8550   22.6320  -31.8840 C   0  0  0  0  0  0  0  0  0  0  0  0
   -5.7780   23.3670  -31.1310 C   0  0  0  0  0  0  0  0  0  0  0  0
   -5.2190   24.6780  -30.0950 S   0  0  0  0  0  0  0  0  0  0  0  0
   -6.2290   25.7910  -30.0760 O   0  0  0  0  0  0  0  0  0  0  0  0
   -3.9270   25.2180  -30.6430 O   0  0  0  0  0  0  0  0  0  0  0  0
   -4.9570   24.0990  -28.4780 N   0  0  0  0  0  0  0  0  0  0  0  0
   -3.5370   24.1950  -28.1420 C   0  0  0  0  0  0  0  0  0  0  0  0
   -2.7790   23.1190  -28.8520 C   0  0  0  0  0  0  0  0  0  0  0  0
   -3.1980   21.8070  -29.0210 C   0  0  0  0  0  0  0  0  0  0  0  0
   -2.3170   21.0440  -29.7970 C   0  0  0  0  0  0  0  0  0  0  0  0
   -1.2140   21.7570  -30.2510 C   0  0  0  0  0  0  0  0  0  0  0  0
   -1.3380   23.3380  -29.6900 S   0  0  0  0  0  0  0  0  0  0  0  0
   -7.1380   23.0320  -31.1880 C   0  0  0  0  0  0  0  0  0  0  0  0
   -7.5690   21.9750  -31.9940 C   0  0  0  0  0  0  0  0  0  0  0  0
   -9.7484   18.7060  -31.0948 H   0  0  0  0  0  0  0  0  0  0  0  0
   -9.0267   19.4588  -32.5574 H   0  0  0  0  0  0  0  0  0  0  0  0
   -9.4385   17.7103  -32.5574 H   0  0  0  0  0  0  0  0  0  0  0  0
   -7.2880   19.0759  -30.8550 H   0  0  0  0  0  0  0  0  0  0  0  0
   -7.7363   17.3275  -30.7811 H   0  0  0  0  0  0  0  0  0  0  0  0
   -6.3042   15.9157  -31.8452 H   0  0  0  0  0  0  0  0  0  0  0  0
   -4.8134   15.3340  -33.7546 H   0  0  0  0  0  0  0  0  0  0  0  0
   -4.4007   16.9923  -35.5694 H   0  0  0  0  0  0  0  0  0  0  0  0
   -5.4788   19.2351  -35.4842 H   0  0  0  0  0  0  0  0  0  0  0  0
   -7.9710   20.3170  -34.1560 H   0  0  0  0  0  0  0  0  0  0  0  0
   -4.5527   21.0090  -33.2866 H   0  0  0  0  0  0  0  0  0  0  0  0
   -3.7862   22.8885  -31.8411 H   0  0  0  0  0  0  0  0  0  0  0  0
   -5.4880   24.7380  -27.8400 H   0  0  0  0  0  0  0  0  0  0  0  0
   -3.1533   25.1783  -28.4517 H   0  0  0  0  0  0  0  0  0  0  0  0
   -3.4100   24.0752  -27.0559 H   0  0  0  0  0  0  0  0  0  0  0  0
   -4.1274   21.4072  -28.5894 H   0  0  0  0  0  0  0  0  0  0  0  0
   -2.4823   19.9808  -30.0256 H   0  0  0  0  0  0  0  0  0  0  0  0
   -0.3989   21.3560  -30.8713 H   0  0  0  0  0  0  0  0  0  0  0  0
   -7.8684   23.6032  -30.5962 H   0  0  0  0  0  0  0  0  0  0  0  0
   -8.6395   21.7268  -32.0423 H   0  0  0  0  0  0  0  0  0  0  0  0
  1  2  1  0
  2  3  1  0
  3  4  2  0
  4  5  1  0
  5  6  2  0
  6  7  1  0
  7  8  2  0
  8  9  1  0
  9 10  1  0
 10 11  2  0
 11 12  1  0
 12 13  2  0
 13 14  1  0
 14 15  2  0
 14 16  2  0
 14 17  1  0
 17 18  1  0
 18 19  1  0
 19 20  2  0
 20 21  1  0
 21 22  2  0
 22 23  1  0
 13 24  1  0
 24 25  2  0
  8  3  1  0
 25 10  1  0
 23 19  1  0
  1 26  1  0
  1 27  1  0
  1 28  1  0
  2 29  1  0
  2 30  1  0
  4 31  1  0
  5 32  1  0
  6 33  1  0
  7 34  1  0
  9 35  1  0
 11 36  1  0
 12 37  1  0
 17 38  1  0
 18 39  1  0
 18 40  1  0
 20 41  1  0
 21 42  1  0
 22 43  1  0
 24 44  1  0
 25 45  1  0
M  END
>  <UniqueID>  (43) 
40

>  <SMILES>  (43) 
CCc1ccccc1Nc1ccc(S(=O)(=O)NCc2cccs2)cc1

>  <Energy>  (43) 
72.68017219708712

>  <Genealogy>  (43) 
CCc1ccccc1Nc1ccc(S(=O)(=O)NCc2cccs2)cc1 (3D coordinates assigned)
CCc1ccccc1Nc1ccc(S(=O)(=O)NCc2cccs2)cc1 (optimized conformer: 72.68017219708712 kcal/mol)

>  <smiles>  (43) 
CCc1ccccc1Nc1ccc(S(=O)(=O)NCc2cccs2)cc1

>  <score_type>  (43) 
oracle

>  <origin>  (43) 
adgpu

>  <m_score__min__energy>  (43) 
-10.9

>  <m_primary>  (43) 
energy

$$$$
43:0
     RDKit          3D

 31 33  0  0  0  0  0  0  0  0999 V2000
   -7.2420   22.6750  -30.6570 C   0  0  0  0  0  0  0  0  0  0  0  0
   -6.3390   21.8130  -31.4990 C   0  0  0  0  0  0  0  0  0  0  0  0
   -6.8890   20.7210  -32.1940 C   0  0  0  0  0  0  0  0  0  0  0  0
   -6.0790   19.8920  -32.9720 C   0  0  0  0  0  0  0  0  0  0  0  0
   -4.7120   20.1490  -33.0740 C   0  0  0  0  0  0  0  0  0  0  0  0
   -4.1510   21.2370  -32.4040 C   0  0  0  0  0  0  0  0  0  0  0  0
   -4.9510   22.0800  -31.6130 C   0  0  0  0  0  0  0  0  0  0  0  0
   -4.3210   23.2360  -30.9350 C   0  0  0  0  0  0  0  0  0  0  0  0
   -4.6440   24.5190  -31.2040 N   0  0  0  0  0  0  0  0  0  0  0  0
   -3.8580   25.2850  -30.4630 N   0  0  0  0  0  0  0  0  0  0  0  0
   -3.0590   24.4610  -29.7610 C   0  0  0  0  0  0  0  0  0  0  0  0
   -1.9920   24.9960  -28.6400 S   0  0  0  0  0  0  0  0  0  0  0  0
   -3.3180   23.1630  -30.0310 N   0  0  0  0  0  0  0  0  0  0  0  0
   -2.7520   21.9910  -29.4170 C   0  0  0  0  0  0  0  0  0  0  0  0
   -1.7200   21.2850  -30.0580 C   0  0  0  0  0  0  0  0  0  0  0  0
   -1.1590   20.1560  -29.4540 C   0  0  0  0  0  0  0  0  0  0  0  0
   -1.6200   19.7260  -28.2070 C   0  0  0  0  0  0  0  0  0  0  0  0
   -2.6450   20.4250  -27.5630 C   0  0  0  0  0  0  0  0  0  0  0  0
   -3.2090   21.5550  -28.1640 C   0  0  0  0  0  0  0  0  0  0  0  0
   -7.0424   22.4845  -29.5922 H   0  0  0  0  0  0  0  0  0  0  0  0
   -7.0515   23.7348  -30.8819 H   0  0  0  0  0  0  0  0  0  0  0  0
   -8.2918   22.4355  -30.8819 H   0  0  0  0  0  0  0  0  0  0  0  0
   -7.9679   20.5182  -32.1238 H   0  0  0  0  0  0  0  0  0  0  0  0
   -6.5189   19.0360  -33.5047 H   0  0  0  0  0  0  0  0  0  0  0  0
   -4.0744   19.4924  -33.6842 H   0  0  0  0  0  0  0  0  0  0  0  0
   -3.0732   21.4368  -32.4956 H   0  0  0  0  0  0  0  0  0  0  0  0
   -1.3523   21.6219  -31.0385 H   0  0  0  0  0  0  0  0  0  0  0  0
   -0.3532   19.6052  -29.9613 H   0  0  0  0  0  0  0  0  0  0  0  0
   -1.1767   18.8381  -27.7325 H   0  0  0  0  0  0  0  0  0  0  0  0
   -3.0087   20.0858  -26.5818 H   0  0  0  0  0  0  0  0  0  0  0  0
   -4.0136   22.1038  -27.6527 H   0  0  0  0  0  0  0  0  0  0  0  0
  1  2  1  0
  2  3  2  0
  3  4  1  0
  4  5  2  0
  5  6  1  0
  6  7  2  0
  7  8  1  0
  8  9  2  0
  9 10  1  0
 10 11  1  0
 11 12  2  0
 11 13  1  0
 13 14  1  0
 14 15  2  0
 15 16  1  0
 16 17  2  0
 17 18  1  0
 18 19  2  0
  7  2  1  0
 13  8  1  0
 19 14  1  0
  1 20  1  0
  1 21  1  0
  1 22  1  0
  3 23  1  0
  4 24  1  0
  5 25  1  0
  6 26  1  0
 15 27  1  0
 16 28  1  0
 17 29  1  0
 18 30  1  0
 19 31  1  0
M  CHG  1  10  -1
M  END
>  <UniqueID>  (44) 
41

>  <SMILES>  (44) 
Cc1ccccc1-c1n[n-]c(=S)n1-c1ccccc1

>  <Energy>  (44) 
80.584472977986

>  <Genealogy>  (44) 
Cc1ccccc1-c1n[n-]c(=S)n1-c1ccccc1 (protonated)
Cc1ccccc1-c1n[n-]c(=S)n1-c1ccccc1 (3D coordinates assigned)
Cc1ccccc1-c1n[n-]c(=S)n1-c1ccccc1 (optimized conformer: 80.584472977986 kcal/mol)

>  <smiles>  (44) 
Cc1ccccc1-c1n[nH]c(=S)n1-c1ccccc1

>  <score_type>  (44) 
oracle

>  <origin>  (44) 
adgpu

>  <m_score__min__energy>  (44) 
-8.6300000000000008

>  <m_primary>  (44) 
energy

$$$$
44:0
     RDKit          3D

 37 40  0  0  0  0  0  0  0  0999 V2000
    0.6903   25.6061  -25.4472 H   0  0  0  0  0  0  0  0  0  0  0  0
   -0.0040   25.3200  -26.2510 C   0  0  0  0  0  0  0  0  0  0  0  0
   -0.4550   26.3090  -27.5550 S   0  0  0  0  0  0  0  0  0  0  0  0
   -1.4580   25.1580  -28.2450 C   0  0  0  0  0  0  0  0  0  0  0  0
   -2.2520   25.2930  -29.3300 N   0  0  0  0  0  0  0  0  0  0  0  0
   -3.0630   24.2610  -29.7110 C   0  0  0  0  0  0  0  0  0  0  0  0
   -4.0210   24.5570  -30.5500 N   0  0  0  0  0  0  0  0  0  0  0  0
   -5.2660   23.8850  -30.7960 C   0  0  0  0  0  0  0  0  0  0  0  0
   -6.0630   23.4120  -29.7390 C   0  0  0  0  0  0  0  0  0  0  0  0
   -5.7222   23.5299  -28.6998 H   0  0  0  0  0  0  0  0  0  0  0  0
   -7.2880   22.7920  -30.0050 C   0  0  0  0  0  0  0  0  0  0  0  0
   -7.8975   22.4042  -29.1755 H   0  0  0  0  0  0  0  0  0  0  0  0
   -7.7420   22.6630  -31.3250 C   0  0  0  0  0  0  0  0  0  0  0  0
   -8.9890   22.0180  -31.5980 N   0  0  0  0  0  0  0  0  0  0  0  0
   -9.2760   21.1640  -31.0700 H   0  0  0  0  0  0  0  0  0  0  0  0
   -9.6350   22.3930  -32.3280 H   0  0  0  0  0  0  0  0  0  0  0  0
   -6.9690   23.1770  -32.3750 C   0  0  0  0  0  0  0  0  0  0  0  0
   -7.3260   23.0906  -33.4119 H   0  0  0  0  0  0  0  0  0  0  0  0
   -5.7460   23.7990  -32.1090 C   0  0  0  0  0  0  0  0  0  0  0  0
   -5.1571   24.2234  -32.9355 H   0  0  0  0  0  0  0  0  0  0  0  0
   -2.9190   22.9890  -29.0370 C   0  0  0  0  0  0  0  0  0  0  0  0
   -3.3050   21.8380  -29.5240 N   0  0  0  0  0  0  0  0  0  0  0  0
   -3.6670   21.4850  -30.8680 C   0  0  0  0  0  0  0  0  0  0  0  0
   -2.8830   21.8810  -31.9660 C   0  0  0  0  0  0  0  0  0  0  0  0
   -1.9902   22.5034  -31.8063 H   0  0  0  0  0  0  0  0  0  0  0  0
   -3.2350   21.4860  -33.2600 C   0  0  0  0  0  0  0  0  0  0  0  0
   -2.6294   21.8133  -34.1180 H   0  0  0  0  0  0  0  0  0  0  0  0
   -4.3550   20.6760  -33.4650 C   0  0  0  0  0  0  0  0  0  0  0  0
   -4.6399   20.3789  -34.4851 H   0  0  0  0  0  0  0  0  0  0  0  0
   -5.1140   20.2430  -32.3720 C   0  0  0  0  0  0  0  0  0  0  0  0
   -5.9894   19.5964  -32.5322 H   0  0  0  0  0  0  0  0  0  0  0  0
   -4.7600   20.6320  -31.0760 C   0  0  0  0  0  0  0  0  0  0  0  0
   -5.3415   20.2672  -30.2165 H   0  0  0  0  0  0  0  0  0  0  0  0
   -2.1830   22.9420  -27.8860 N   0  0  0  0  0  0  0  0  0  0  0  0
   -1.4720   24.0210  -27.4830 C   0  0  0  0  0  0  0  0  0  0  0  0
   -0.6510   24.0870  -26.3570 C   0  0  0  0  0  0  0  0  0  0  0  0
   -0.5278   23.2644  -25.6372 H   0  0  0  0  0  0  0  0  0  0  0  0
  1  2  1  0
  2  3  1  0
  3  4  1  0
  4  5  1  0
  5  6  1  0
  6  7  2  0
  7  8  1  0
  8  9  2  0
  9 10  1  0
  9 11  1  0
 11 12  1  0
 11 13  2  0
 13 14  1  0
 14 15  1  0
 14 16  1  0
 13 17  1  0
 17 18  1  0
 17 19  2  0
 19 20  1  0
  6 21  1  0
 21 22  2  0
 22 23  1  0
 23 24  2  0
 24 25  1  0
 24 26  1  0
 26 27  1  0
 26 28  2  0
 28 29  1  0
 28 30  1  0
 30 31  1  0
 30 32  2  0
 32 33  1  0
 21 34  1  0
 34 35  1  0
 35 36  1  0
 36 37  1  0
 36  2  2  0
 35  4  2  0
 19  8  1  0
 32 23  1  0
M  CHG  2   5  -1  34  -1
M  END
>  <UniqueID>  (45) 
42

>  <SMILES>  (45) 
Nc1ccc(/N=c2/[n-]c3sccc3[n-]/c2=N/c2ccccc2)cc1

>  <Energy>  (45) 
107.87823336403991

>  <Genealogy>  (45) 
Nc1ccc(N=c2[n-]c3sccc3[n-]c2=Nc2ccccc2)cc1 (protonated)
Nc1ccc(/N=c2/[n-]c3sccc3[n-]/c2=N/c2ccccc2)cc1 (cis-trans isomerization)
Nc1ccc(/N=c2/[n-]c3sccc3[n-]/c2=N/c2ccccc2)cc1 (3D coordinates assigned)
Nc1ccc(/N=c2/[n-]c3sccc3[n-]/c2=N/c2ccccc2)cc1 (optimized conformer: 107.87823336403991 kcal/mol)

>  <smiles>  (45) 
Nc1ccc(N=c2[nH]c3sccc3[nH]c2=Nc2ccccc2)cc1

>  <score_type>  (45) 
oracle

>  <origin>  (45) 
adgpu

>  <m_score__min__energy>  (45) 
-9.1199999999999992

>  <m_primary>  (45) 
energy

$$$$
45:0
     RDKit          3D

 44 45  0  0  0  0  0  0  0  0999 V2000
   -8.8330   19.1660  -32.0330 C   0  0  0  0  0  0  0  0  0  0  0  0
   -7.8180   19.9890  -31.2290 C   0  0  0  0  0  0  0  0  0  0  0  0
   -6.8980   20.7760  -32.1000 N   0  0  2  0  0  0  0  0  0  0  0  0
   -7.2320   22.2240  -32.0710 C   0  0  0  0  0  0  0  0  0  0  0  0
   -6.1530   23.0810  -31.4490 C   0  0  0  0  0  0  0  0  0  0  0  0
   -6.3560   24.4540  -31.2350 C   0  0  0  0  0  0  0  0  0  0  0  0
   -5.3270   25.2070  -30.6680 C   0  0  0  0  0  0  0  0  0  0  0  0
   -5.4810   26.4410  -30.4690 O   0  0  0  0  0  0  0  0  0  0  0  0
   -4.1270   24.5800  -30.3250 C   0  0  0  0  0  0  0  0  0  0  0  0
   -3.0810   25.2990  -29.7590 O   0  0  0  0  0  0  0  0  0  0  0  0
   -3.9960   23.2080  -30.5580 C   0  0  0  0  0  0  0  0  0  0  0  0
   -4.9960   22.5200  -31.1010 O   0  0  0  0  0  0  0  0  0  0  0  0
   -6.8620   20.2700  -33.5000 C   0  0  0  0  0  0  0  0  0  0  0  0
   -5.7860   19.2260  -33.7150 C   0  0  0  0  0  0  0  0  0  0  0  0
   -6.1550   17.9800  -34.2430 C   0  0  0  0  0  0  0  0  0  0  0  0
   -5.1990   16.9970  -34.4690 C   0  0  0  0  0  0  0  0  0  0  0  0
   -3.8610   17.2390  -34.1700 C   0  0  0  0  0  0  0  0  0  0  0  0
   -3.4550   18.4780  -33.6370 C   0  0  0  0  0  0  0  0  0  0  0  0
   -2.1060   18.7200  -33.3320 O   0  0  0  0  0  0  0  0  0  0  0  0
   -1.0150   18.4970  -34.2190 C   0  0  0  0  0  0  0  0  0  0  0  0
   -4.4290   19.4890  -33.4090 C   0  0  0  0  0  0  0  0  0  0  0  0
   -4.1130   20.7620  -32.8940 O   0  0  0  0  0  0  0  0  0  0  0  0
   -2.9700   21.5500  -33.2050 C   0  0  0  0  0  0  0  0  0  0  0  0
   -9.4977   18.6270  -31.3419 H   0  0  0  0  0  0  0  0  0  0  0  0
   -9.4302   19.8381  -32.6668 H   0  0  0  0  0  0  0  0  0  0  0  0
   -8.2988   18.4428  -32.6668 H   0  0  0  0  0  0  0  0  0  0  0  0
   -8.3664   20.6846  -30.5767 H   0  0  0  0  0  0  0  0  0  0  0  0
   -7.2047   19.2849  -30.6475 H   0  0  0  0  0  0  0  0  0  0  0  0
   -5.9260   20.7150  -31.7120 H   0  0  0  0  0  0  0  0  0  0  0  0
   -7.3941   22.5644  -33.1044 H   0  0  0  0  0  0  0  0  0  0  0  0
   -8.1318   22.3354  -31.4482 H   0  0  0  0  0  0  0  0  0  0  0  0
   -7.3099   24.9279  -31.5097 H   0  0  0  0  0  0  0  0  0  0  0  0
   -3.0606   22.6946  -30.2907 H   0  0  0  0  0  0  0  0  0  0  0  0
   -7.8386   19.8235  -33.7383 H   0  0  0  0  0  0  0  0  0  0  0  0
   -6.6344   21.1228  -34.1565 H   0  0  0  0  0  0  0  0  0  0  0  0
   -7.2102   17.7792  -34.4802 H   0  0  0  0  0  0  0  0  0  0  0  0
   -5.5005   16.0245  -34.8855 H   0  0  0  0  0  0  0  0  0  0  0  0
   -3.1125   16.4538  -34.3520 H   0  0  0  0  0  0  0  0  0  0  0  0
   -0.1009   18.3102  -33.6363 H   0  0  0  0  0  0  0  0  0  0  0  0
   -1.2304   17.6243  -34.8531 H   0  0  0  0  0  0  0  0  0  0  0  0
   -0.8707   19.3842  -34.8531 H   0  0  0  0  0  0  0  0  0  0  0  0
   -2.4888   21.8818  -32.2731 H   0  0  0  0  0  0  0  0  0  0  0  0
   -2.2590   20.9493  -33.7912 H   0  0  0  0  0  0  0  0  0  0  0  0
   -3.2785   22.4282  -33.7912 H   0  0  0  0  0  0  0  0  0  0  0  0
  1  2  1  0
  2  3  1  0
  3  4  1  0
  4  5  1  0
  5  6  2  0
  6  7  1  0
  7  8  2  0
  7  9  1  0
  9 10  1  0
  9 11  2  0
 11 12  1  0
  3 13  1  0
 13 14  1  0
 14 15  2  0
 15 16  1  0
 16 17  2  0
 17 18  1  0
 18 19  1  0
 19 20  1  0
 18 21  2  0
 21 22  1  0
 22 23  1  0
 12  5  1  0
 21 14  1  0
  1 24  1  0
  1 25  1  0
  1 26  1  0
  2 27  1  0
  2 28  1  0
  3 29  1  1
  4 30  1  0
  4 31  1  0
  6 32  1  0
 11 33  1  0
 13 34  1  0
 13 35  1  0
 15 36  1  0
 16 37  1  0
 17 38  1  0
 20 39  1  0
 20 40  1  0
 20 41  1  0
 23 42  1  0
 23 43  1  0
 23 44  1  0
M  CHG  2   3   1  10  -1
M  END
>  <UniqueID>  (46) 
43

>  <SMILES>  (46) 
CC[N@H+](Cc1cc(=O)c([O-])co1)Cc1cccc(OC)c1OC

>  <Energy>  (46) 
52.80557299300255

>  <Genealogy>  (46) 
CC[NH+](Cc1cc(=O)c([O-])co1)Cc1cccc(OC)c1OC (protonated)
CC[N@H+](Cc1cc(=O)c([O-])co1)Cc1cccc(OC)c1OC (chirality)
CC[N@H+](Cc1cc(=O)c([O-])co1)Cc1cccc(OC)c1OC (3D coordinates assigned)
CC[N@H+](Cc1cc(=O)c([O-])co1)Cc1cccc(OC)c1OC (optimized conformer: 52.80557299300255 kcal/mol)

>  <smiles>  (46) 
CCN(Cc1cc(=O)c(O)co1)Cc1cccc(OC)c1OC

>  <score_type>  (46) 
oracle

>  <origin>  (46) 
adgpu

>  <m_score__min__energy>  (46) 
-8.5500000000000007

>  <m_primary>  (46) 
energy

$$$$
46:0
     RDKit          3D

 39 41  0  0  0  0  0  0  0  0999 V2000
   -8.2790   18.3840  -32.1040 C   0  0  0  0  0  0  0  0  0  0  0  0
   -8.2560   19.8830  -32.0400 C   0  0  0  0  0  0  0  0  0  0  0  0
   -9.4560   20.6070  -32.0720 C   0  0  0  0  0  0  0  0  0  0  0  0
   -9.4390   21.9980  -31.9680 C   0  0  0  0  0  0  0  0  0  0  0  0
   -8.2270   22.6780  -31.8220 C   0  0  0  0  0  0  0  0  0  0  0  0
   -7.0120   21.9690  -31.7760 C   0  0  0  0  0  0  0  0  0  0  0  0
   -5.7610   22.6690  -31.6120 N   0  0  0  0  0  0  0  0  0  0  0  0
   -4.5930   22.2940  -32.4100 C   0  0  0  0  0  0  0  0  0  0  0  0
   -5.6370   24.0150  -30.5140 S   0  0  0  0  0  0  0  0  0  0  0  0
   -5.4450   25.2820  -31.2990 O   0  0  0  0  0  0  0  0  0  0  0  0
   -6.8980   24.1400  -29.7060 O   0  0  0  0  0  0  0  0  0  0  0  0
   -4.2740   23.7700  -29.4390 C   0  0  0  0  0  0  0  0  0  0  0  0
   -4.2520   22.9340  -28.3310 C   0  0  0  0  0  0  0  0  0  0  0  0
   -3.0300   22.9640  -27.6490 C   0  0  0  0  0  0  0  0  0  0  0  0
   -2.1000   23.8250  -28.2260 C   0  0  0  0  0  0  0  0  0  0  0  0
   -0.7340   24.0780  -27.7490 C   0  0  0  0  0  0  0  0  0  0  0  0
   -0.2830   23.9930  -26.4480 C   0  0  0  0  0  0  0  0  0  0  0  0
    1.0530   24.3170  -26.5540 C   0  0  0  0  0  0  0  0  0  0  0  0
    2.0150   24.4440  -25.4210 C   0  0  0  0  0  0  0  0  0  0  0  0
    1.3580   24.5940  -27.8370 N   0  0  0  0  0  0  0  0  0  0  0  0
    0.2640   24.4330  -28.5240 O   0  0  0  0  0  0  0  0  0  0  0  0
   -2.7920   24.5490  -29.5790 S   0  0  0  0  0  0  0  0  0  0  0  0
   -7.0410   20.5660  -31.8740 C   0  0  0  0  0  0  0  0  0  0  0  0
   -8.2853   17.9735  -31.0835 H   0  0  0  0  0  0  0  0  0  0  0  0
   -9.1823   18.0536  -32.6377 H   0  0  0  0  0  0  0  0  0  0  0  0
   -7.3862   18.0260  -32.6377 H   0  0  0  0  0  0  0  0  0  0  0  0
  -10.4137   20.0767  -32.1794 H   0  0  0  0  0  0  0  0  0  0  0  0
  -10.3831   22.5616  -32.0010 H   0  0  0  0  0  0  0  0  0  0  0  0
   -8.2225   23.7751  -31.7425 H   0  0  0  0  0  0  0  0  0  0  0  0
   -3.7619   22.0272  -31.7406 H   0  0  0  0  0  0  0  0  0  0  0  0
   -4.8441   21.4313  -33.0446 H   0  0  0  0  0  0  0  0  0  0  0  0
   -4.2950   23.1416  -33.0446 H   0  0  0  0  0  0  0  0  0  0  0  0
   -5.1055   22.3130  -28.0214 H   0  0  0  0  0  0  0  0  0  0  0  0
   -2.8249   22.3674  -26.7479 H   0  0  0  0  0  0  0  0  0  0  0  0
   -0.8520   23.7301  -25.5441 H   0  0  0  0  0  0  0  0  0  0  0  0
    1.4705   24.3721  -24.4679 H   0  0  0  0  0  0  0  0  0  0  0  0
    2.7595   23.6363  -25.4798 H   0  0  0  0  0  0  0  0  0  0  0  0
    2.5244   25.4172  -25.4798 H   0  0  0  0  0  0  0  0  0  0  0  0
   -6.1008   19.9976  -31.8199 H   0  0  0  0  0  0  0  0  0  0  0  0
  1  2  1  0
  2  3  2  0
  3  4  1  0
  4  5  2  0
  5  6  1  0
  6  7  1  0
  7  8  1  0
  7  9  1  0
  9 10  2  0
  9 11  2  0
  9 12  1  0
 12 13  2  0
 13 14  1  0
 14 15  2  0
 15 16  1  0
 16 17  2  0
 17 18  1  0
 18 19  1  0
 18 20  2  0
 20 21  1  0
 15 22  1  0
  6 23  2  0
 23  2  1  0
 22 12  1  0
 21 16  1  0
  1 24  1  0
  1 25  1  0
  1 26  1  0
  3 27  1  0
  4 28  1  0
  5 29  1  0
  8 30  1  0
  8 31  1  0
  8 32  1  0
 13 33  1  0
 14 34  1  0
 17 35  1  0
 19 36  1  0
 19 37  1  0
 19 38  1  0
 23 39  1  0
M  END
>  <UniqueID>  (47) 
44

>  <SMILES>  (47) 
Cc1cccc(N(C)S(=O)(=O)c2ccc(-c3cc(C)no3)s2)c1

>  <Energy>  (47) 
98.50261526265119

>  <Genealogy>  (47) 
Cc1cccc(N(C)S(=O)(=O)c2ccc(-c3cc(C)no3)s2)c1 (3D coordinates assigned)
Cc1cccc(N(C)S(=O)(=O)c2ccc(-c3cc(C)no3)s2)c1 (optimized conformer: 98.50261526265119 kcal/mol)

>  <smiles>  (47) 
Cc1cccc(N(C)S(=O)(=O)c2ccc(-c3cc(C)no3)s2)c1

>  <score_type>  (47) 
oracle

>  <origin>  (47) 
adgpu

>  <m_score__min__energy>  (47) 
-9.2100000000000009

>  <m_primary>  (47) 
energy

$$$$
47:0
     RDKit          3D

 47 50  0  0  0  0  0  0  0  0999 V2000
   -1.5670   18.7880  -33.1140 C   0  0  0  0  0  0  0  0  0  0  0  0
   -2.7060   18.2100  -33.7430 O   0  0  0  0  0  0  0  0  0  0  0  0
   -4.0150   18.6980  -33.6180 C   0  0  0  0  0  0  0  0  0  0  0  0
   -4.2970   20.0160  -33.2170 C   0  0  0  0  0  0  0  0  0  0  0  0
   -5.6210   20.4590  -33.1250 C   0  0  0  0  0  0  0  0  0  0  0  0
   -6.6860   19.5930  -33.4340 C   0  0  0  0  0  0  0  0  0  0  0  0
   -8.0580   20.0210  -33.3680 N   0  0  0  0  0  0  0  0  0  0  0  0
   -8.7620   20.7930  -31.9820 S   0  0  0  0  0  0  0  0  0  0  0  0
  -10.1780   21.1860  -32.3010 O   0  0  0  0  0  0  0  0  0  0  0  0
   -8.7680   19.8330  -30.8270 O   0  0  0  0  0  0  0  0  0  0  0  0
   -7.8070   22.2040  -31.5410 C   0  0  0  0  0  0  0  0  0  0  0  0
   -7.3230   23.0750  -32.5270 C   0  0  0  0  0  0  0  0  0  0  0  0
   -6.5160   24.1600  -32.1720 C   0  0  0  0  0  0  0  0  0  0  0  0
   -6.1750   24.3780  -30.8270 C   0  0  0  0  0  0  0  0  0  0  0  0
   -5.2520   25.4750  -30.4590 C   0  0  0  0  0  0  0  0  0  0  0  0
   -5.7230   26.5920  -30.1130 O   0  0  0  0  0  0  0  0  0  0  0  0
   -3.8300   25.2930  -30.4530 N   0  0  0  0  0  0  0  0  0  0  0  0
   -3.1510   24.0700  -30.1290 C   0  0  0  0  0  0  0  0  0  0  0  0
   -3.2630   22.9190  -30.9560 C   0  0  0  0  0  0  0  0  0  0  0  0
   -2.6100   21.7240  -30.6090 C   0  0  0  0  0  0  0  0  0  0  0  0
   -1.8440   21.7160  -29.4490 C   0  0  0  0  0  0  0  0  0  0  0  0
   -1.7110   22.8190  -28.6690 C   0  0  0  0  0  0  0  0  0  0  0  0
   -2.3410   24.0220  -28.9770 C   0  0  0  0  0  0  0  0  0  0  0  0
   -0.8940   22.5250  -27.5940 O   0  0  0  0  0  0  0  0  0  0  0  0
   -0.4920   21.1520  -27.7050 C   0  0  0  0  0  0  0  0  0  0  0  0
   -1.1200   20.6750  -28.9030 O   0  0  0  0  0  0  0  0  0  0  0  0
   -6.7000   23.5280  -29.8390 C   0  0  0  0  0  0  0  0  0  0  0  0
   -7.5080   22.4470  -30.1960 C   0  0  0  0  0  0  0  0  0  0  0  0
   -6.3980   18.2790  -33.8300 C   0  0  0  0  0  0  0  0  0  0  0  0
   -5.0750   17.8340  -33.9140 C   0  0  0  0  0  0  0  0  0  0  0  0
   -1.6823   18.7295  -32.0216 H   0  0  0  0  0  0  0  0  0  0  0  0
   -0.6629   18.2396  -33.4172 H   0  0  0  0  0  0  0  0  0  0  0  0
   -1.4758   19.8414  -33.4172 H   0  0  0  0  0  0  0  0  0  0  0  0
   -3.4723   20.7023  -32.9744 H   0  0  0  0  0  0  0  0  0  0  0  0
   -5.8307   21.4915  -32.8089 H   0  0  0  0  0  0  0  0  0  0  0  0
   -8.7090   19.7540  -34.1410 H   0  0  0  0  0  0  0  0  0  0  0  0
   -7.5789   22.9043  -33.5831 H   0  0  0  0  0  0  0  0  0  0  0  0
   -6.1467   24.8455  -32.9489 H   0  0  0  0  0  0  0  0  0  0  0  0
   -3.8658   22.9642  -31.8750 H   0  0  0  0  0  0  0  0  0  0  0  0
   -2.7020   20.8242  -31.2350 H   0  0  0  0  0  0  0  0  0  0  0  0
   -2.2102   24.9089  -28.3396 H   0  0  0  0  0  0  0  0  0  0  0  0
    0.6024   21.0752  -27.7857 H   0  0  0  0  0  0  0  0  0  0  0  0
   -0.7857   20.5638  -26.8231 H   0  0  0  0  0  0  0  0  0  0  0  0
   -6.4732   23.7153  -28.7790 H   0  0  0  0  0  0  0  0  0  0  0  0
   -7.9112   21.7836  -29.4167 H   0  0  0  0  0  0  0  0  0  0  0  0
   -7.2206   17.5918  -34.0769 H   0  0  0  0  0  0  0  0  0  0  0  0
   -4.8660   16.7968  -34.2151 H   0  0  0  0  0  0  0  0  0  0  0  0
  1  2  1  0
  2  3  1  0
  3  4  2  0
  4  5  1  0
  5  6  2  0
  6  7  1  0
  7  8  1  0
  8  9  2  0
  8 10  2  0
  8 11  1  0
 11 12  2  0
 12 13  1  0
 13 14  2  0
 14 15  1  0
 15 16  2  0
 15 17  1  0
 17 18  1  0
 18 19  2  0
 19 20  1  0
 20 21  2  0
 21 22  1  0
 22 23  2  0
 22 24  1  0
 24 25  1  0
 25 26  1  0
 14 27  1  0
 27 28  2  0
  6 29  1  0
 29 30  2  0
 30  3  1  0
 28 11  1  0
 23 18  1  0
 26 21  1  0
  1 31  1  0
  1 32  1  0
  1 33  1  0
  4 34  1  0
  5 35  1  0
  7 36  1  0
 12 37  1  0
 13 38  1  0
 19 39  1  0
 20 40  1  0
 23 41  1  0
 25 42  1  0
 25 43  1  0
 27 44  1  0
 28 45  1  0
 29 46  1  0
 30 47  1  0
M  CHG  1  17  -1
M  END
>  <UniqueID>  (48) 
45

>  <SMILES>  (48) 
COc1ccc(NS(=O)(=O)c2ccc(C(=O)[N-]c3ccc4c(c3)OCO4)cc2)cc1

>  <Energy>  (48) 
85.68927551686217

>  <Genealogy>  (48) 
COc1ccc(NS(=O)(=O)c2ccc(C(=O)[N-]c3ccc4c(c3)OCO4)cc2)cc1 (protonated)
COc1ccc(NS(=O)(=O)c2ccc(C(=O)[N-]c3ccc4c(c3)OCO4)cc2)cc1 (3D coordinates assigned)
COc1ccc(NS(=O)(=O)c2ccc(C(=O)[N-]c3ccc4c(c3)OCO4)cc2)cc1 (nonaromatic ring conformer: 85.68927551686217 kcal/mol)

>  <smiles>  (48) 
COc1ccc(NS(=O)(=O)c2ccc(C(=O)Nc3ccc4c(c3)OCO4)cc2)cc1

>  <score_type>  (48) 
oracle

>  <origin>  (48) 
adgpu

>  <m_score__min__energy>  (48) 
-11.6

>  <m_primary>  (48) 
energy

$$$$
