0:0
     RDKit          3D

 33 34  0  0  0  0  0  0  0  0999 V2000
   -6.3430   25.8800  -29.3310 C   0  0  0  0  0  0  0  0  0  0  0  0
   -5.6470   24.4610  -30.1490 S   0  0  0  0  0  0  0  0  0  0  0  0
   -4.8070   23.4650  -28.9320 C   0  0  0  0  0  0  0  0  0  0  0  0
   -4.6770   24.9340  -31.1950 O   0  0  0  0  0  0  0  0  0  0  0  0
   -6.8150   23.6440  -30.8200 N   0  0  0  0  0  0  0  0  0  0  0  0
   -6.6710   22.4580  -31.6210 C   0  0  0  0  0  0  0  0  0  0  0  0
   -5.4970   22.1580  -32.3380 C   0  0  0  0  0  0  0  0  0  0  0  0
   -5.4160   20.9910  -33.1010 C   0  0  0  0  0  0  0  0  0  0  0  0
   -6.4990   20.0980  -33.1560 C   0  0  0  0  0  0  0  0  0  0  0  0
   -6.4490   18.9260  -33.9270 O   0  0  0  0  0  0  0  0  0  0  0  0
   -5.8140   17.7330  -33.5510 C   0  0  0  0  0  0  0  0  0  0  0  0
   -6.0020   17.1580  -32.2820 C   0  0  0  0  0  0  0  0  0  0  0  0
   -5.3650   15.9580  -31.9520 C   0  0  0  0  0  0  0  0  0  0  0  0
   -4.5440   15.3160  -32.8850 C   0  0  0  0  0  0  0  0  0  0  0  0
   -3.7590   13.8080  -32.4330 Cl  0  0  0  0  0  0  0  0  0  0  0  0
   -4.3680   15.8750  -34.1620 C   0  0  0  0  0  0  0  0  0  0  0  0
   -3.3550   15.0940  -35.3680 Cl  0  0  0  0  0  0  0  0  0  0  0  0
   -5.0090   17.0760  -34.4890 C   0  0  0  0  0  0  0  0  0  0  0  0
   -7.6780   20.4110  -32.4650 C   0  0  0  0  0  0  0  0  0  0  0  0
   -9.0650   19.3330  -32.5360 Cl  0  0  0  0  0  0  0  0  0  0  0  0
   -7.7580   21.5800  -31.7000 C   0  0  0  0  0  0  0  0  0  0  0  0
   -6.2765   25.7444  -28.2414 H   0  0  0  0  0  0  0  0  0  0  0  0
   -5.7850   26.7819  -29.6230 H   0  0  0  0  0  0  0  0  0  0  0  0
   -7.3977   25.9908  -29.6230 H   0  0  0  0  0  0  0  0  0  0  0  0
   -5.0906   23.8013  -27.9238 H   0  0  0  0  0  0  0  0  0  0  0  0
   -5.0926   22.4105  -29.0607 H   0  0  0  0  0  0  0  0  0  0  0  0
   -3.7195   23.5686  -29.0607 H   0  0  0  0  0  0  0  0  0  0  0  0
   -4.6396   22.8459  -32.2970 H   0  0  0  0  0  0  0  0  0  0  0  0
   -4.4969   20.7694  -33.6633 H   0  0  0  0  0  0  0  0  0  0  0  0
   -6.6524   17.6538  -31.5463 H   0  0  0  0  0  0  0  0  0  0  0  0
   -5.5100   15.5170  -30.9548 H   0  0  0  0  0  0  0  0  0  0  0  0
   -4.8788   17.5074  -35.4925 H   0  0  0  0  0  0  0  0  0  0  0  0
   -8.6851   21.8113  -31.1550 H   0  0  0  0  0  0  0  0  0  0  0  0
  1  2  1  0
  2  3  1  0
  2  4  2  0
  2  5  2  0
  5  6  1  0
  6  7  2  0
  7  8  1  0
  8  9  2  0
  9 10  1  0
 10 11  1  0
 11 12  2  0
 12 13  1  0
 13 14  2  0
 14 15  1  0
 14 16  1  0
 16 17  1  0
 16 18  2  0
  9 19  1  0
 19 20  1  0
 19 21  2  0
 21  6  1  0
 18 11  1  0
  1 22  1  0
  1 23  1  0
  1 24  1  0
  3 25  1  0
  3 26  1  0
  3 27  1  0
  7 28  1  0
  8 29  1  0
 12 30  1  0
 13 31  1  0
 18 32  1  0
 21 33  1  0
M  END
>  <UniqueID>  (1) 
1

>  <SMILES>  (1) 
CS(C)(=O)=Nc1ccc(Oc2ccc(Cl)c(Cl)c2)c(Cl)c1

>  <Energy>  (1) 
34.14636697622716

>  <Genealogy>  (1) 
CS(C)(=O)=Nc1ccc(Oc2ccc(Cl)c(Cl)c2)c(Cl)c1 (3D coordinates assigned)
CS(C)(=O)=Nc1ccc(Oc2ccc(Cl)c(Cl)c2)c(Cl)c1 (optimized conformer: 34.14636697622716 kcal/mol)

>  <smiles>  (1) 
CS(C)(=O)=Nc1ccc(Oc2ccc(Cl)c(Cl)c2)c(Cl)c1

>  <score_type>  (1) 
oracle

>  <origin>  (1) 
adgpu

>  <m_score__min__energy>  (1) 
-8.4700000000000006

>  <m_primary>  (1) 
energy

$$$$
1:0
     RDKit          3D

 38 38  0  0  0  0  0  0  0  0999 V2000
   -3.2510   21.9480  -30.6070 C   0  0  0  0  0  0  0  0  0  0  0  0
   -3.4190   22.0340  -29.0940 C   0  0  0  0  0  0  0  0  0  0  0  0
   -2.7140   23.2740  -28.5270 C   0  0  0  0  0  0  0  0  0  0  0  0
   -3.7060   24.2630  -27.9040 C   0  0  0  0  0  0  0  0  0  0  0  0
   -4.9390   24.3570  -28.6870 N   0  0  0  0  0  0  0  0  0  0  0  0
   -4.9410   24.9000  -30.0130 C   0  0  0  0  0  0  0  0  0  0  0  0
   -3.8660   25.2980  -30.5400 O   0  0  0  0  0  0  0  0  0  0  0  0
   -6.2140   24.9560  -30.8020 C   0  0  0  0  0  0  0  0  0  0  0  0
   -6.9570   23.6230  -30.7180 C   0  0  0  0  0  0  0  0  0  0  0  0
   -7.1460   23.0720  -32.0200 O   0  0  0  0  0  0  0  0  0  0  0  0
   -7.1160   21.6950  -32.2640 C   0  0  0  0  0  0  0  0  0  0  0  0
   -5.9200   21.1170  -32.7080 C   0  0  0  0  0  0  0  0  0  0  0  0
   -5.8430   19.7430  -32.9420 C   0  0  0  0  0  0  0  0  0  0  0  0
   -6.9650   18.9350  -32.7400 C   0  0  0  0  0  0  0  0  0  0  0  0
   -6.8650   17.2070  -33.0230 Cl  0  0  0  0  0  0  0  0  0  0  0  0
   -8.1700   19.5060  -32.3160 C   0  0  0  0  0  0  0  0  0  0  0  0
   -8.2630   20.8900  -32.0950 C   0  0  0  0  0  0  0  0  0  0  0  0
   -9.5750   21.4760  -31.6530 C   0  0  0  0  0  0  0  0  0  0  0  0
   -2.2945   21.4584  -30.8425 H   0  0  0  0  0  0  0  0  0  0  0  0
   -4.0779   21.3623  -31.0350 H   0  0  0  0  0  0  0  0  0  0  0  0
   -3.2594   22.9613  -31.0350 H   0  0  0  0  0  0  0  0  0  0  0  0
   -4.4912   22.0899  -28.8546 H   0  0  0  0  0  0  0  0  0  0  0  0
   -2.9669   21.1389  -28.6418 H   0  0  0  0  0  0  0  0  0  0  0  0
   -1.9989   22.9541  -27.7548 H   0  0  0  0  0  0  0  0  0  0  0  0
   -2.2018   23.7832  -29.3567 H   0  0  0  0  0  0  0  0  0  0  0  0
   -3.9543   23.9261  -26.8867 H   0  0  0  0  0  0  0  0  0  0  0  0
   -3.2344   25.2566  -27.8855 H   0  0  0  0  0  0  0  0  0  0  0  0
   -5.8390   24.0030  -28.2930 H   0  0  0  0  0  0  0  0  0  0  0  0
   -6.8551   25.7534  -30.3981 H   0  0  0  0  0  0  0  0  0  0  0  0
   -5.9703   25.1609  -31.8549 H   0  0  0  0  0  0  0  0  0  0  0  0
   -6.3701   22.9195  -30.1092 H   0  0  0  0  0  0  0  0  0  0  0  0
   -7.9416   23.7936  -30.2582 H   0  0  0  0  0  0  0  0  0  0  0  0
   -5.0356   21.7499  -32.8734 H   0  0  0  0  0  0  0  0  0  0  0  0
   -4.8985   19.2960  -33.2856 H   0  0  0  0  0  0  0  0  0  0  0  0
   -9.0505   18.8667  -32.1546 H   0  0  0  0  0  0  0  0  0  0  0  0
   -9.6166   21.4946  -30.5539 H   0  0  0  0  0  0  0  0  0  0  0  0
   -9.6679   22.5012  -32.0408 H   0  0  0  0  0  0  0  0  0  0  0  0
  -10.4005   20.8610  -32.0408 H   0  0  0  0  0  0  0  0  0  0  0  0
  1  2  1  0
  2  3  1  0
  3  4  1  0
  4  5  1  0
  5  6  1  0
  6  7  2  0
  6  8  1  0
  8  9  1  0
  9 10  1  0
 10 11  1  0
 11 12  2  0
 12 13  1  0
 13 14  2  0
 14 15  1  0
 14 16  1  0
 16 17  2  0
 17 18  1  0
 17 11  1  0
  1 19  1  0
  1 20  1  0
  1 21  1  0
  2 22  1  0
  2 23  1  0
  3 24  1  0
  3 25  1  0
  4 26  1  0
  4 27  1  0
  5 28  1  0
  8 29  1  0
  8 30  1  0
  9 31  1  0
  9 32  1  0
 12 33  1  0
 13 34  1  0
 16 35  1  0
 18 36  1  0
 18 37  1  0
 18 38  1  0
M  END
>  <UniqueID>  (2) 
2

>  <SMILES>  (2) 
CCCCNC(=O)CCOc1ccc(Cl)cc1C

>  <Energy>  (2) 
29.15860703146175

>  <Genealogy>  (2) 
CCCCNC(=O)CCOc1ccc(Cl)cc1C (3D coordinates assigned)
CCCCNC(=O)CCOc1ccc(Cl)cc1C (optimized conformer: 29.15860703146175 kcal/mol)

>  <smiles>  (2) 
CCCCNC(=O)CCOc1ccc(Cl)cc1C

>  <score_type>  (2) 
oracle

>  <origin>  (2) 
adgpu

>  <m_score__min__energy>  (2) 
-7.5300000000000002

>  <m_primary>  (2) 
energy

$$$$
2:0
     RDKit          3D

 28 30  0  0  0  0  0  0  0  0999 V2000
   -4.6340   26.1430  -30.0320 H   0  0  0  0  0  0  0  0  0  0  0  0
   -4.3430   25.3230  -30.6120 N   0  0  0  0  0  0  0  0  0  0  0  0
   -5.1310   24.3180  -30.8240 C   0  0  0  0  0  0  0  0  0  0  0  0
   -4.6960   23.2790  -31.5810 N   0  0  0  0  0  0  0  0  0  0  0  0
   -5.4820   22.2000  -31.8380 C   0  0  0  0  0  0  0  0  0  0  0  0
   -4.8890   21.0840  -32.6030 C   0  0  0  0  0  0  0  0  0  0  0  0
   -5.6820   20.3010  -33.4600 C   0  0  0  0  0  0  0  0  0  0  0  0
   -6.7500   20.5335  -33.5837 H   0  0  0  0  0  0  0  0  0  0  0  0
   -5.1170   19.2270  -34.1560 C   0  0  0  0  0  0  0  0  0  0  0  0
   -5.7380   18.6257  -34.8363 H   0  0  0  0  0  0  0  0  0  0  0  0
   -3.7640   18.9170  -33.9880 C   0  0  0  0  0  0  0  0  0  0  0  0
   -3.2200   17.8760  -34.6620 F   0  0  0  0  0  0  0  0  0  0  0  0
   -2.9760   19.6770  -33.1200 C   0  0  0  0  0  0  0  0  0  0  0  0
   -1.9129   19.4290  -32.9849 H   0  0  0  0  0  0  0  0  0  0  0  0
   -3.5360   20.7530  -32.4220 C   0  0  0  0  0  0  0  0  0  0  0  0
   -2.9151   21.3409  -31.7300 H   0  0  0  0  0  0  0  0  0  0  0  0
   -6.8020   22.1670  -31.3240 C   0  0  0  0  0  0  0  0  0  0  0  0
   -7.7780   21.0970  -31.6390 C   0  0  0  0  0  0  0  0  0  0  0  0
   -8.9250   21.2910  -32.3260 N   0  0  0  0  0  0  0  0  0  0  0  0
   -9.4900   20.0700  -32.3460 C   0  0  0  0  0  0  0  0  0  0  0  0
  -10.4471   19.8184  -32.8262 H   0  0  0  0  0  0  0  0  0  0  0  0
   -8.6810   19.1870  -31.6710 C   0  0  0  0  0  0  0  0  0  0  0  0
   -8.8764   18.1156  -31.5166 H   0  0  0  0  0  0  0  0  0  0  0  0
   -7.6360   19.8510  -31.2450 O   0  0  0  0  0  0  0  0  0  0  0  0
   -7.2150   23.2410  -30.5240 C   0  0  0  0  0  0  0  0  0  0  0  0
   -8.2224   23.2358  -30.0823 H   0  0  0  0  0  0  0  0  0  0  0  0
   -6.3820   24.2890  -30.2890 N   0  0  0  0  0  0  0  0  0  0  0  0
   -6.7240   25.0810  -29.6980 H   0  0  0  0  0  0  0  0  0  0  0  0
  1  2  1  0
  2  3  2  0
  3  4  1  0
  4  5  2  0
  5  6  1  0
  6  7  2  0
  7  8  1  0
  7  9  1  0
  9 10  1  0
  9 11  2  0
 11 12  1  0
 11 13  1  0
 13 14  1  0
 13 15  2  0
 15 16  1  0
  5 17  1  0
 17 18  1  0
 18 19  2  0
 19 20  1  0
 20 21  1  0
 20 22  2  0
 22 23  1  0
 22 24  1  0
 17 25  2  0
 25 26  1  0
 25 27  1  0
 27 28  1  0
 27  3  1  0
 15  6  1  0
 24 18  1  0
M  END
>  <UniqueID>  (3) 
3

>  <SMILES>  (3) 
[H]/N=c1/nc(-c2ccc(F)cc2)c(-c2ncco2)c[nH]1

>  <Energy>  (3) 
69.88810161953366

>  <Genealogy>  (3) 
[H]/N=c1/nc(-c2ccc(F)cc2)c(-c2ncco2)c[nH]1 (cis-trans isomerization)
[H]/N=c1/nc(-c2ccc(F)cc2)c(-c2ncco2)c[nH]1 (3D coordinates assigned)
[H]/N=c1/nc(-c2ccc(F)cc2)c(-c2ncco2)c[nH]1 (optimized conformer: 69.88810161953366 kcal/mol)

>  <smiles>  (3) 
N=c1nc(-c2ccc(F)cc2)c(-c2ncco2)c[nH]1

>  <score_type>  (3) 
oracle

>  <origin>  (3) 
adgpu

>  <m_score__min__energy>  (3) 
-6.8099999999999996

>  <m_primary>  (3) 
energy

$$$$
3:0
     RDKit          3D

 42 45  0  0  0  0  0  0  0  0999 V2000
   -6.1430   25.6480  -29.4210 C   0  0  0  0  0  0  0  0  0  0  0  0
   -5.1300   25.3160  -30.4740 C   0  0  0  0  0  0  0  0  0  0  0  0
   -5.5250   24.9170  -31.6020 O   0  0  0  0  0  0  0  0  0  0  0  0
   -3.7270   25.2970  -30.1850 N   0  0  0  0  0  0  0  0  0  0  0  0
   -2.9120   24.1220  -30.0890 C   0  0  0  0  0  0  0  0  0  0  0  0
   -1.8910   24.0780  -29.1320 C   0  0  0  0  0  0  0  0  0  0  0  0
   -1.1080   22.9310  -28.9910 C   0  0  0  0  0  0  0  0  0  0  0  0
   -1.3540   21.8090  -29.7890 C   0  0  0  0  0  0  0  0  0  0  0  0
   -2.3980   21.8260  -30.7290 C   0  0  0  0  0  0  0  0  0  0  0  0
   -2.6910   20.6360  -31.5490 C   0  0  0  0  0  0  0  0  0  0  0  0
   -1.7830   19.7080  -31.9120 N   0  0  0  0  0  0  0  0  0  0  0  0
   -2.4360   18.8070  -32.6270 N   0  0  0  0  0  0  0  0  0  0  0  0
   -3.7170   19.2170  -32.6780 C   0  0  0  0  0  0  0  0  0  0  0  0
   -4.8040   18.4980  -33.3650 C   0  0  0  0  0  0  0  0  0  0  0  0
   -6.1610   18.7720  -33.3320 C   0  0  0  0  0  0  0  0  0  0  0  0
   -6.8210   19.9360  -32.7080 C   0  0  0  0  0  0  0  0  0  0  0  0
   -6.2840   21.2190  -32.9040 C   0  0  0  0  0  0  0  0  0  0  0  0
   -6.8990   22.3370  -32.3370 C   0  0  0  0  0  0  0  0  0  0  0  0
   -8.0530   22.1860  -31.5670 C   0  0  0  0  0  0  0  0  0  0  0  0
   -8.6010   20.9160  -31.3710 C   0  0  0  0  0  0  0  0  0  0  0  0
   -7.9970   19.7880  -31.9430 C   0  0  0  0  0  0  0  0  0  0  0  0
   -8.7120   18.2080  -31.6390 Cl  0  0  0  0  0  0  0  0  0  0  0  0
   -6.8240   17.8200  -34.0200 N   0  0  0  0  0  0  0  0  0  0  0  0
   -5.9340   16.9810  -34.4690 O   0  0  0  0  0  0  0  0  0  0  0  0
   -4.7220   17.3350  -34.1100 C   0  0  0  0  0  0  0  0  0  0  0  0
   -3.4900   16.5650  -34.4580 C   0  0  0  0  0  0  0  0  0  0  0  0
   -3.8800   20.3380  -32.0170 O   0  0  0  0  0  0  0  0  0  0  0  0
   -3.1790   22.9860  -30.8690 C   0  0  0  0  0  0  0  0  0  0  0  0
   -5.6983   25.5023  -28.4255 H   0  0  0  0  0  0  0  0  0  0  0  0
   -6.4575   26.6962  -29.5322 H   0  0  0  0  0  0  0  0  0  0  0  0
   -7.0169   24.9893  -29.5322 H   0  0  0  0  0  0  0  0  0  0  0  0
   -1.7051   24.9507  -28.4887 H   0  0  0  0  0  0  0  0  0  0  0  0
   -0.2952   22.9095  -28.2502 H   0  0  0  0  0  0  0  0  0  0  0  0
   -0.7284   20.9108  -29.6803 H   0  0  0  0  0  0  0  0  0  0  0  0
   -5.3732   21.3438  -33.5080 H   0  0  0  0  0  0  0  0  0  0  0  0
   -6.4732   23.3384  -32.4975 H   0  0  0  0  0  0  0  0  0  0  0  0
   -8.5312   23.0671  -31.1143 H   0  0  0  0  0  0  0  0  0  0  0  0
   -9.5114   20.8007  -30.7645 H   0  0  0  0  0  0  0  0  0  0  0  0
   -2.9828   16.2480  -33.5348 H   0  0  0  0  0  0  0  0  0  0  0  0
   -3.7661   15.6784  -35.0477 H   0  0  0  0  0  0  0  0  0  0  0  0
   -2.8140   17.2017  -35.0477 H   0  0  0  0  0  0  0  0  0  0  0  0
   -4.0053   23.0038  -31.5949 H   0  0  0  0  0  0  0  0  0  0  0  0
  1  2  1  0
  2  3  2  0
  2  4  1  0
  4  5  1  0
  5  6  2  0
  6  7  1  0
  7  8  2  0
  8  9  1  0
  9 10  1  0
 10 11  2  0
 11 12  1  0
 12 13  2  0
 13 14  1  0
 14 15  1  0
 15 16  1  0
 16 17  2  0
 17 18  1  0
 18 19  2  0
 19 20  1  0
 20 21  2  0
 21 22  1  0
 15 23  2  0
 23 24  1  0
 24 25  1  0
 25 26  1  0
 13 27  1  0
  9 28  2  0
 28  5  1  0
 27 10  1  0
 25 14  2  0
 21 16  1  0
  1 29  1  0
  1 30  1  0
  1 31  1  0
  6 32  1  0
  7 33  1  0
  8 34  1  0
 17 35  1  0
 18 36  1  0
 19 37  1  0
 20 38  1  0
 26 39  1  0
 26 40  1  0
 26 41  1  0
 28 42  1  0
M  CHG  1   4  -1
M  END
>  <UniqueID>  (4) 
4

>  <SMILES>  (4) 
CC(=O)[N-]c1cccc(-c2nnc(-c3c(-c4ccccc4Cl)noc3C)o2)c1

>  <Energy>  (4) 
119.95125938670462

>  <Genealogy>  (4) 
CC(=O)[N-]c1cccc(-c2nnc(-c3c(-c4ccccc4Cl)noc3C)o2)c1 (protonated)
CC(=O)[N-]c1cccc(-c2nnc(-c3c(-c4ccccc4Cl)noc3C)o2)c1 (3D coordinates assigned)
CC(=O)[N-]c1cccc(-c2nnc(-c3c(-c4ccccc4Cl)noc3C)o2)c1 (optimized conformer: 119.95125938670462 kcal/mol)

>  <smiles>  (4) 
CC(=O)Nc1cccc(-c2nnc(-c3c(-c4ccccc4Cl)noc3C)o2)c1

>  <score_type>  (4) 
oracle

>  <origin>  (4) 
adgpu

>  <m_score__min__energy>  (4) 
-11.210000000000001

>  <m_primary>  (4) 
energy

$$$$
4:0
     RDKit          3D

 61 63  0  0  0  0  0  0  0  0999 V2000
   -4.1000   20.9510  -31.2860 C   0  0  0  0  0  0  0  0  0  0  0  0
   -4.7990   19.7100  -31.3130 O   0  0  0  0  0  0  0  0  0  0  0  0
   -6.1600   19.5680  -31.6270 C   0  0  0  0  0  0  0  0  0  0  0  0
   -7.0420   20.6660  -31.5980 C   0  0  0  0  0  0  0  0  0  0  0  0
   -8.3870   20.5070  -31.9480 C   0  0  0  0  0  0  0  0  0  0  0  0
   -9.4940   21.9180  -31.9300 S   0  0  0  0  0  0  0  0  0  0  0  0
   -8.1360   23.1310  -31.9220 C   0  0  0  0  0  0  0  0  0  0  0  0
   -8.8680   19.2480  -32.3080 C   0  0  0  0  0  0  0  0  0  0  0  0
   -8.0090   18.1490  -32.3270 C   0  0  0  0  0  0  0  0  0  0  0  0
   -6.6500   18.2960  -31.9970 C   0  0  0  0  0  0  0  0  0  0  0  0
   -5.7570   17.1120  -32.0270 C   0  0  0  0  0  0  0  0  0  0  0  0
   -5.7620   16.3050  -31.0600 O   0  0  0  0  0  0  0  0  0  0  0  0
   -4.9250   16.8190  -33.1590 N   0  0  0  0  0  0  0  0  0  0  0  0
   -3.7080   17.4960  -33.5070 C   0  0  0  0  0  0  0  0  0  0  0  0
   -3.7610   18.8470  -33.8630 C   0  0  0  0  0  0  0  0  0  0  0  0
   -2.5960   19.5330  -34.2130 C   0  0  0  0  0  0  0  0  0  0  0  0
   -1.3560   18.8690  -34.2340 C   0  0  0  0  0  0  0  0  0  0  0  0
   -0.1190   19.5960  -34.6090 C   0  0  0  0  0  0  0  0  0  0  0  0
    0.1770   19.8560  -35.9590 C   0  0  0  0  0  0  0  0  0  0  0  0
    1.3360   20.5540  -36.3090 C   0  0  0  0  0  0  0  0  0  0  0  0
    2.2220   20.9920  -35.3160 C   0  0  0  0  0  0  0  0  0  0  0  0
    3.6600   21.9160  -35.7420 S   0  0  0  0  0  0  0  0  0  0  0  0
    3.7430   22.0900  -37.2330 O   0  0  0  0  0  0  0  0  0  0  0  0
    4.8780   21.1620  -35.2830 O   0  0  0  0  0  0  0  0  0  0  0  0
    3.6340   23.4770  -34.9740 N   0  0  0  0  0  0  0  0  0  0  0  0
    3.1540   24.5180  -35.8920 C   0  0  1  0  0  0  0  0  0  0  0  0
    1.7750   24.1780  -36.3890 C   0  0  0  0  0  0  0  0  0  0  0  0
    1.4080   24.5510  -37.5330 O   0  0  0  0  0  0  0  0  0  0  0  0
    0.8850   23.4820  -35.5790 O   0  0  0  0  0  0  0  0  0  0  0  0
    3.1650   25.9000  -35.1910 C   0  0  0  0  0  0  0  0  0  0  0  0
    2.5780   26.9810  -36.1080 C   0  0  0  0  0  0  0  0  0  0  0  0
    4.5680   26.3180  -34.7160 C   0  0  0  0  0  0  0  0  0  0  0  0
    1.9350   20.7330  -33.9710 C   0  0  0  0  0  0  0  0  0  0  0  0
    0.7730   20.0430  -33.6170 C   0  0  0  0  0  0  0  0  0  0  0  0
   -1.3100   17.5040  -33.9030 C   0  0  0  0  0  0  0  0  0  0  0  0
   -2.4760   16.8210  -33.5460 C   0  0  0  0  0  0  0  0  0  0  0  0
   -3.9297   21.2533  -30.2421 H   0  0  0  0  0  0  0  0  0  0  0  0
   -3.1327   20.8382  -31.7975 H   0  0  0  0  0  0  0  0  0  0  0  0
   -4.6978   21.7198  -31.7975 H   0  0  0  0  0  0  0  0  0  0  0  0
   -6.6700   21.6567  -31.2976 H   0  0  0  0  0  0  0  0  0  0  0  0
   -7.8659   23.3722  -30.8833 H   0  0  0  0  0  0  0  0  0  0  0  0
   -7.2625   22.7069  -32.4389 H   0  0  0  0  0  0  0  0  0  0  0  0
   -8.4592   24.0466  -32.4389 H   0  0  0  0  0  0  0  0  0  0  0  0
   -9.9270   19.1216  -32.5775 H   0  0  0  0  0  0  0  0  0  0  0  0
   -8.3985   17.1579  -32.6028 H   0  0  0  0  0  0  0  0  0  0  0  0
   -4.7270   19.3732  -33.8674 H   0  0  0  0  0  0  0  0  0  0  0  0
   -2.6484   20.6003  -34.4742 H   0  0  0  0  0  0  0  0  0  0  0  0
   -0.5088   19.5074  -36.7452 H   0  0  0  0  0  0  0  0  0  0  0  0
    1.5533   20.7602  -37.3674 H   0  0  0  0  0  0  0  0  0  0  0  0
    3.8296   24.5679  -36.7586 H   0  0  0  0  0  0  0  0  0  0  0  0
    2.5345   25.7981  -34.2954 H   0  0  0  0  0  0  0  0  0  0  0  0
    2.1419   27.7841  -35.4957 H   0  0  0  0  0  0  0  0  0  0  0  0
    3.3749   27.3956  -36.7429 H   0  0  0  0  0  0  0  0  0  0  0  0
    1.7963   26.5384  -36.7429 H   0  0  0  0  0  0  0  0  0  0  0  0
    4.5955   26.3262  -33.6164 H   0  0  0  0  0  0  0  0  0  0  0  0
    5.3121   25.6025  -35.0961 H   0  0  0  0  0  0  0  0  0  0  0  0
    4.7992   27.3240  -35.0961 H   0  0  0  0  0  0  0  0  0  0  0  0
    2.6282   21.0746  -33.1882 H   0  0  0  0  0  0  0  0  0  0  0  0
    0.5542   19.8481  -32.5567 H   0  0  0  0  0  0  0  0  0  0  0  0
   -0.3491   16.9691  -33.9250 H   0  0  0  0  0  0  0  0  0  0  0  0
   -2.4292   15.7511  -33.2946 H   0  0  0  0  0  0  0  0  0  0  0  0
  1  2  1  0
  2  3  1  0
  3  4  2  0
  4  5  1  0
  5  6  1  0
  6  7  1  0
  5  8  2  0
  8  9  1  0
  9 10  2  0
 10 11  1  0
 11 12  2  0
 11 13  1  0
 13 14  1  0
 14 15  2  0
 15 16  1  0
 16 17  2  0
 17 18  1  0
 18 19  2  0
 19 20  1  0
 20 21  2  0
 21 22  1  0
 22 23  2  0
 22 24  2  0
 22 25  1  0
 25 26  1  0
 26 27  1  0
 27 28  2  0
 27 29  1  0
 26 30  1  0
 30 31  1  0
 30 32  1  0
 21 33  1  0
 33 34  2  0
 17 35  1  0
 35 36  2  0
 10  3  1  0
 36 14  1  0
 34 18  1  0
  1 37  1  0
  1 38  1  0
  1 39  1  0
  4 40  1  0
  7 41  1  0
  7 42  1  0
  7 43  1  0
  8 44  1  0
  9 45  1  0
 15 46  1  0
 16 47  1  0
 19 48  1  0
 20 49  1  0
 26 50  1  6
 30 51  1  0
 31 52  1  0
 31 53  1  0
 31 54  1  0
 32 55  1  0
 32 56  1  0
 32 57  1  0
 33 58  1  0
 34 59  1  0
 35 60  1  0
 36 61  1  0
M  CHG  3  13  -1  25  -1  29  -1
M  END
>  <UniqueID>  (5) 
5

>  <SMILES>  (5) 
COc1cc(SC)ccc1C(=O)[N-]c1ccc(-c2ccc(S(=O)(=O)[N-][C@@H](C(=O)[O-])C(C)C)cc2)cc1

>  <Energy>  (5) 
65.52064965822211

>  <Genealogy>  (5) 
COc1cc(SC)ccc1C(=O)[N-]c1ccc(-c2ccc(S(=O)(=O)[N-]C(C(=O)[O-])C(C)C)cc2)cc1 (protonated)
COc1cc(SC)ccc1C(=O)[N-]c1ccc(-c2ccc(S(=O)(=O)[N-][C@@H](C(=O)[O-])C(C)C)cc2)cc1 (chirality)
COc1cc(SC)ccc1C(=O)[N-]c1ccc(-c2ccc(S(=O)(=O)[N-][C@@H](C(=O)[O-])C(C)C)cc2)cc1 (3D coordinates assigned)
COc1cc(SC)ccc1C(=O)[N-]c1ccc(-c2ccc(S(=O)(=O)[N-][C@@H](C(=O)[O-])C(C)C)cc2)cc1 (optimized conformer: 65.52064965822211 kcal/mol)

>  <smiles>  (5) 
COc1cc(SC)ccc1C(=O)Nc1ccc(-c2ccc(S(=O)(=O)NC(C(=O)O)C(C)C)cc2)cc1

>  <score_type>  (5) 
oracle

>  <origin>  (5) 
adgpu

>  <m_score__min__energy>  (5) 
-12.76

>  <m_primary>  (5) 
energy

$$$$
5:0
     RDKit          3D

 44 46  0  0  0  0  0  0  0  0999 V2000
   -0.9530   21.5920  -26.8830 C   0  0  0  0  0  0  0  0  0  0  0  0
   -0.6930   22.4200  -28.0130 O   0  0  0  0  0  0  0  0  0  0  0  0
   -1.5290   22.5360  -29.1360 C   0  0  0  0  0  0  0  0  0  0  0  0
   -1.6260   21.4880  -30.0700 C   0  0  0  0  0  0  0  0  0  0  0  0
   -2.4910   21.5760  -31.1690 C   0  0  0  0  0  0  0  0  0  0  0  0
   -2.6130   20.4610  -32.1360 C   0  0  0  0  0  0  0  0  0  0  0  0
   -1.5470   19.8310  -32.6720 N   0  0  0  0  0  0  0  0  0  0  0  0
   -2.0010   18.8900  -33.4470 O   0  0  0  0  0  0  0  0  0  0  0  0
   -3.3140   18.8700  -33.4560 C   0  0  0  0  0  0  0  0  0  0  0  0
   -4.1270   17.9120  -34.2620 C   0  0  0  0  0  0  0  0  0  0  0  0
   -3.7750   19.8680  -32.6150 C   0  0  0  0  0  0  0  0  0  0  0  0
   -5.1790   20.2750  -32.3920 C   0  0  0  0  0  0  0  0  0  0  0  0
   -6.1080   19.3620  -31.8720 C   0  0  0  0  0  0  0  0  0  0  0  0
   -7.4250   19.7580  -31.6320 C   0  0  0  0  0  0  0  0  0  0  0  0
   -7.8320   21.0680  -31.9080 C   0  0  0  0  0  0  0  0  0  0  0  0
   -9.4990   21.5200  -31.5790 Cl  0  0  0  0  0  0  0  0  0  0  0  0
   -6.9080   21.9890  -32.4370 C   0  0  0  0  0  0  0  0  0  0  0  0
   -7.2690   23.3060  -32.7290 O   0  0  0  0  0  0  0  0  0  0  0  0
   -5.5910   21.5860  -32.6800 C   0  0  0  0  0  0  0  0  0  0  0  0
   -3.2240   22.7500  -31.3680 C   0  0  0  0  0  0  0  0  0  0  0  0
   -3.1310   23.8180  -30.4590 C   0  0  0  0  0  0  0  0  0  0  0  0
   -3.8630   25.0050  -30.6320 O   0  0  0  0  0  0  0  0  0  0  0  0
   -5.2680   25.1250  -30.4320 C   0  0  0  0  0  0  0  0  0  0  0  0
   -2.2900   23.7160  -29.3380 C   0  0  0  0  0  0  0  0  0  0  0  0
   -2.2600   24.8240  -28.4680 O   0  0  0  0  0  0  0  0  0  0  0  0
   -2.6310   24.8340  -27.0930 C   0  0  0  0  0  0  0  0  0  0  0  0
   -0.7735   22.1636  -25.9605 H   0  0  0  0  0  0  0  0  0  0  0  0
   -2.0000   21.2556  -26.9080 H   0  0  0  0  0  0  0  0  0  0  0  0
   -0.2862   20.7175  -26.9080 H   0  0  0  0  0  0  0  0  0  0  0  0
   -1.0127   20.5848  -29.9352 H   0  0  0  0  0  0  0  0  0  0  0  0
   -4.6890   17.2497  -33.5870 H   0  0  0  0  0  0  0  0  0  0  0  0
   -4.8303   18.4713  -34.8964 H   0  0  0  0  0  0  0  0  0  0  0  0
   -3.4607   17.3090  -34.8964 H   0  0  0  0  0  0  0  0  0  0  0  0
   -5.7977   18.3298  -31.6524 H   0  0  0  0  0  0  0  0  0  0  0  0
   -8.1472   19.0358  -31.2234 H   0  0  0  0  0  0  0  0  0  0  0  0
   -6.9280   23.7990  -33.5440 H   0  0  0  0  0  0  0  0  0  0  0  0
   -4.8709   22.3031  -33.1009 H   0  0  0  0  0  0  0  0  0  0  0  0
   -3.8809   22.8387  -32.2459 H   0  0  0  0  0  0  0  0  0  0  0  0
   -5.4846   25.1435  -29.3537 H   0  0  0  0  0  0  0  0  0  0  0  0
   -5.6258   26.0570  -30.8939 H   0  0  0  0  0  0  0  0  0  0  0  0
   -5.7787   24.2672  -30.8939 H   0  0  0  0  0  0  0  0  0  0  0  0
   -1.7256   24.8096  -26.4688 H   0  0  0  0  0  0  0  0  0  0  0  0
   -3.2028   25.7479  -26.8741 H   0  0  0  0  0  0  0  0  0  0  0  0
   -3.2512   23.9522  -26.8741 H   0  0  0  0  0  0  0  0  0  0  0  0
  1  2  1  0
  2  3  1  0
  3  4  2  0
  4  5  1  0
  5  6  1  0
  6  7  2  0
  7  8  1  0
  8  9  1  0
  9 10  1  0
  9 11  2  0
 11 12  1  0
 12 13  2  0
 13 14  1  0
 14 15  2  0
 15 16  1  0
 15 17  1  0
 17 18  1  0
 17 19  2  0
  5 20  2  0
 20 21  1  0
 21 22  1  0
 22 23  1  0
 21 24  2  0
 24 25  1  0
 25 26  1  0
 24  3  1  0
 11  6  1  0
 19 12  1  0
  1 27  1  0
  1 28  1  0
  1 29  1  0
  4 30  1  0
 10 31  1  0
 10 32  1  0
 10 33  1  0
 13 34  1  0
 14 35  1  0
 18 36  1  0
 19 37  1  0
 20 38  1  0
 23 39  1  0
 23 40  1  0
 23 41  1  0
 26 42  1  0
 26 43  1  0
 26 44  1  0
M  END
>  <UniqueID>  (6) 
6

>  <SMILES>  (6) 
COc1cc(-c2noc(C)c2-c2ccc(Cl)c(O)c2)cc(OC)c1OC

>  <Energy>  (6) 
85.59108162203768

>  <Genealogy>  (6) 
COc1cc(-c2noc(C)c2-c2ccc(Cl)c(O)c2)cc(OC)c1OC (3D coordinates assigned)
COc1cc(-c2noc(C)c2-c2ccc(Cl)c(O)c2)cc(OC)c1OC (optimized conformer: 85.59108162203768 kcal/mol)

>  <smiles>  (6) 
COc1cc(-c2noc(C)c2-c2ccc(Cl)c(O)c2)cc(OC)c1OC

>  <score_type>  (6) 
oracle

>  <origin>  (6) 
adgpu

>  <m_score__min__energy>  (6) 
-7.9000000000000004

>  <m_primary>  (6) 
energy

$$$$
6:0
     RDKit          3D

 28 29  0  0  0  0  0  0  0  0999 V2000
   -4.0560   24.8080  -30.5140 O   0  0  0  0  0  0  0  0  0  0  0  0
   -4.5750   23.8240  -29.9190 C   0  0  0  0  0  0  0  0  0  0  0  0
   -4.1050   23.4420  -28.6150 N   0  0  0  0  0  0  0  0  0  0  0  0
   -3.1340   24.1950  -27.8690 C   0  0  0  0  0  0  0  0  0  0  0  0
   -3.5120   24.9090  -26.7170 C   0  0  0  0  0  0  0  0  0  0  0  0
   -2.5590   25.6160  -25.9780 C   0  0  0  0  0  0  0  0  0  0  0  0
   -1.2200   25.6080  -26.3720 C   0  0  0  0  0  0  0  0  0  0  0  0
   -0.8290   24.8900  -27.5050 C   0  0  0  0  0  0  0  0  0  0  0  0
   -1.7770   24.1780  -28.2510 C   0  0  0  0  0  0  0  0  0  0  0  0
   -1.2420   23.3050  -29.6820 Cl  0  0  0  0  0  0  0  0  0  0  0  0
   -5.6370   23.0440  -30.5940 C   0  0  0  0  0  0  0  0  0  0  0  0
   -6.9650   23.1570  -30.1480 C   0  0  0  0  0  0  0  0  0  0  0  0
   -7.9850   22.4200  -30.7540 C   0  0  0  0  0  0  0  0  0  0  0  0
   -7.7010   21.5500  -31.8190 C   0  0  0  0  0  0  0  0  0  0  0  0
   -8.7510   20.7900  -32.4460 N   0  0  0  0  0  0  0  0  0  0  0  0
   -8.4880   19.7550  -33.0920 O   0  0  0  0  0  0  0  0  0  0  0  0
  -10.0630   21.1940  -32.3460 O   0  0  0  0  0  0  0  0  0  0  0  0
   -6.3760   21.4350  -32.2670 C   0  0  0  0  0  0  0  0  0  0  0  0
   -5.3470   22.1710  -31.6640 C   0  0  0  0  0  0  0  0  0  0  0  0
   -3.7210   22.0070  -32.3230 Cl  0  0  0  0  0  0  0  0  0  0  0  0
   -4.4640   22.5570  -28.1930 H   0  0  0  0  0  0  0  0  0  0  0  0
   -4.5641   24.9109  -26.3959 H   0  0  0  0  0  0  0  0  0  0  0  0
   -2.8649   26.1797  -25.0843 H   0  0  0  0  0  0  0  0  0  0  0  0
   -0.4724   26.1672  -25.7903 H   0  0  0  0  0  0  0  0  0  0  0  0
    0.2272   24.8838  -27.8123 H   0  0  0  0  0  0  0  0  0  0  0  0
   -7.2035   23.8326  -29.3133 H   0  0  0  0  0  0  0  0  0  0  0  0
   -9.0194   22.5219  -30.3940 H   0  0  0  0  0  0  0  0  0  0  0  0
   -6.1421   20.7585  -33.1022 H   0  0  0  0  0  0  0  0  0  0  0  0
  1  2  2  0
  2  3  1  0
  3  4  1  0
  4  5  2  0
  5  6  1  0
  6  7  2  0
  7  8  1  0
  8  9  2  0
  9 10  1  0
  2 11  1  0
 11 12  2  0
 12 13  1  0
 13 14  2  0
 14 15  1  0
 15 16  2  0
 15 17  1  0
 14 18  1  0
 18 19  2  0
 19 20  1  0
  9  4  1  0
 19 11  1  0
  3 21  1  0
  5 22  1  0
  6 23  1  0
  7 24  1  0
  8 25  1  0
 12 26  1  0
 13 27  1  0
 18 28  1  0
M  CHG  2  15   1  17  -1
M  END
>  <UniqueID>  (7) 
7

>  <SMILES>  (7) 
O=C(Nc1ccccc1Cl)c1ccc([N+](=O)[O-])cc1Cl

>  <Energy>  (7) 
40.24998324326137

>  <Genealogy>  (7) 
O=C(Nc1ccccc1Cl)c1ccc([N+](=O)[O-])cc1Cl (3D coordinates assigned)
O=C(Nc1ccccc1Cl)c1ccc([N+](=O)[O-])cc1Cl (optimized conformer: 40.24998324326137 kcal/mol)

>  <smiles>  (7) 
O=C(Nc1ccccc1Cl)c1ccc([N+](=O)[O-])cc1Cl

>  <score_type>  (7) 
oracle

>  <origin>  (7) 
adgpu

>  <m_score__min__energy>  (7) 
-7.71

>  <m_primary>  (7) 
energy

$$$$
7:0
     RDKit          3D

 29 31  0  0  0  0  0  0  0  0999 V2000
   -0.7010   25.3640  -26.7300 C   0  0  0  0  0  0  0  0  0  0  0  0
   -0.8280   25.0640  -28.1930 C   0  0  0  0  0  0  0  0  0  0  0  0
    0.1290   24.4890  -28.7740 O   0  0  0  0  0  0  0  0  0  0  0  0
   -2.0110   25.3630  -28.9540 N   0  0  0  0  0  0  0  0  0  0  0  0
   -2.8030   24.5510  -29.5930 C   0  0  0  0  0  0  0  0  0  0  0  0
   -3.8660   25.0080  -30.2980 N   0  0  0  0  0  0  0  0  0  0  0  0
   -4.5680   23.9840  -30.8460 C   0  0  0  0  0  0  0  0  0  0  0  0
   -5.7170   24.1410  -31.6190 C   0  0  0  0  0  0  0  0  0  0  0  0
   -6.3590   22.9950  -32.1190 C   0  0  0  0  0  0  0  0  0  0  0  0
   -5.8420   21.7040  -31.8580 C   0  0  0  0  0  0  0  0  0  0  0  0
   -6.5500   20.5160  -32.3720 C   0  0  0  0  0  0  0  0  0  0  0  0
   -7.8610   20.5230  -32.7080 N   0  0  0  0  0  0  0  0  0  0  0  0
   -8.1530   19.2950  -33.1100 N   0  0  0  0  0  0  0  0  0  0  0  0
   -7.0360   18.5530  -33.0260 C   0  0  0  0  0  0  0  0  0  0  0  0
   -6.9380   16.9870  -33.4970 S   0  0  0  0  0  0  0  0  0  0  0  0
   -6.0100   19.2910  -32.5660 N   0  0  0  0  0  0  0  0  0  0  0  0
   -4.6570   18.9180  -32.4990 N   0  0  0  0  0  0  0  0  0  0  0  0
   -4.6910   21.5650  -31.0540 C   0  0  0  0  0  0  0  0  0  0  0  0
   -4.0770   22.7180  -30.5740 C   0  0  0  0  0  0  0  0  0  0  0  0
   -2.7120   22.8520  -29.6080 S   0  0  0  0  0  0  0  0  0  0  0  0
   -1.0646   24.5052  -26.1467 H   0  0  0  0  0  0  0  0  0  0  0  0
    0.3545   25.5534  -26.4848 H   0  0  0  0  0  0  0  0  0  0  0  0
   -1.2997   26.2536  -26.4848 H   0  0  0  0  0  0  0  0  0  0  0  0
   -6.1143   25.1439  -31.8340 H   0  0  0  0  0  0  0  0  0  0  0  0
   -7.2739   23.1030  -32.7201 H   0  0  0  0  0  0  0  0  0  0  0  0
   -9.0920   18.9870  -33.4470 H   0  0  0  0  0  0  0  0  0  0  0  0
   -4.1700   18.5270  -33.3340 H   0  0  0  0  0  0  0  0  0  0  0  0
   -4.0900   19.0970  -31.6410 H   0  0  0  0  0  0  0  0  0  0  0  0
   -4.2889   20.5700  -30.8125 H   0  0  0  0  0  0  0  0  0  0  0  0
  1  2  1  0
  2  3  2  0
  2  4  1  0
  4  5  2  3
  5  6  1  0
  6  7  1  0
  7  8  2  0
  8  9  1  0
  9 10  2  0
 10 11  1  0
 11 12  2  0
 12 13  1  0
 13 14  1  0
 14 15  2  0
 14 16  1  0
 16 17  1  0
 10 18  1  0
 18 19  2  0
 19 20  1  0
 20  5  1  0
 19  7  1  0
 16 11  1  0
  1 21  1  0
  1 22  1  0
  1 23  1  0
  8 24  1  0
  9 25  1  0
 13 26  1  0
 17 27  1  0
 17 28  1  0
 18 29  1  0
M  CHG  1   6  -1
M  END
>  <UniqueID>  (8) 
8

>  <SMILES>  (8) 
CC(=O)N=c1[n-]c2ccc(-c3n[nH]c(=S)n3N)cc2s1

>  <Energy>  (8) 
113.05698075040188

>  <Genealogy>  (8) 
CC(=O)N=c1[n-]c2ccc(-c3n[nH]c(=S)n3N)cc2s1 (protonated)
CC(=O)N=c1[n-]c2ccc(-c3n[nH]c(=S)n3N)cc2s1 (3D coordinates assigned)
CC(=O)N=c1[n-]c2ccc(-c3n[nH]c(=S)n3N)cc2s1 (optimized conformer: 113.05698075040188 kcal/mol)

>  <smiles>  (8) 
CC(=O)N=c1[nH]c2ccc(-c3n[nH]c(=S)n3N)cc2s1

>  <score_type>  (8) 
oracle

>  <origin>  (8) 
adgpu

>  <m_score__min__energy>  (8) 
-9.2300000000000004

>  <m_primary>  (8) 
energy

$$$$
8:0
     RDKit          3D

 14 14  0  0  0  0  0  0  0  0999 V2000
   -4.3300   22.2530  -32.7580 S   0  0  0  0  0  0  0  0  0  0  0  0
   -5.0370   23.0370  -31.5050 C   0  0  0  0  0  0  0  0  0  0  0  0
   -4.5080   24.2170  -31.0850 N   0  0  0  0  0  0  0  0  0  0  0  0
   -5.0540   24.9030  -30.0490 C   0  0  0  0  0  0  0  0  0  0  0  0
   -6.1420   24.4090  -29.4010 N   0  0  0  0  0  0  0  0  0  0  0  0
   -6.7060   23.2350  -29.7860 C   0  0  0  0  0  0  0  0  0  0  0  0
   -6.1820   22.5220  -30.8760 C   0  0  0  0  0  0  0  0  0  0  0  0
   -6.7250   21.2510  -31.2720 N   0  0  0  0  0  0  0  0  0  0  0  0
   -7.9430   21.0230  -31.6670 C   0  0  0  0  0  0  0  0  0  0  0  0
   -9.1110   22.3090  -31.9540 Cl  0  0  0  0  0  0  0  0  0  0  0  0
   -8.4030   19.3840  -32.0740 Cl  0  0  0  0  0  0  0  0  0  0  0  0
   -4.6151   25.8609  -29.7330 H   0  0  0  0  0  0  0  0  0  0  0  0
   -6.5440   24.9340  -28.5930 H   0  0  0  0  0  0  0  0  0  0  0  0
   -7.5769   22.8412  -29.2416 H   0  0  0  0  0  0  0  0  0  0  0  0
  1  2  2  0
  2  3  1  0
  3  4  2  0
  4  5  1  0
  5  6  1  0
  6  7  2  0
  7  8  1  0
  8  9  2  3
  9 10  1  0
  9 11  1  0
  7  2  1  0
  4 12  1  0
  5 13  1  0
  6 14  1  0
M  END
>  <UniqueID>  (9) 
9

>  <SMILES>  (9) 
S=c1nc[nH]cc1N=C(Cl)Cl

>  <Energy>  (9) 
20.77173462823498

>  <Genealogy>  (9) 
S=c1nc[nH]cc1N=C(Cl)Cl (3D coordinates assigned)
S=c1nc[nH]cc1N=C(Cl)Cl (optimized conformer: 20.77173462823498 kcal/mol)

>  <smiles>  (9) 
S=c1nc[nH]cc1N=C(Cl)Cl

>  <score_type>  (9) 
oracle

>  <origin>  (9) 
adgpu

>  <m_score__min__energy>  (9) 
-5.46

>  <m_primary>  (9) 
energy

$$$$
9:0
     RDKit          3D

 32 34  0  0  0  0  0  0  0  0999 V2000
   -4.5100   26.7800  -29.8670 H   0  0  0  0  0  0  0  0  0  0  0  0
   -4.6600   25.9440  -30.4760 N   0  0  0  0  0  0  0  0  0  0  0  0
   -3.8640   24.9270  -30.4260 C   0  0  0  0  0  0  0  0  0  0  0  0
   -2.7990   24.8700  -29.6010 N   0  0  0  0  0  0  0  0  0  0  0  0
   -2.2590   23.6670  -29.8670 C   0  0  0  0  0  0  0  0  0  0  0  0
   -1.3617   23.2513  -29.3852 H   0  0  0  0  0  0  0  0  0  0  0  0
   -3.0100   23.0350  -30.8420 C   0  0  0  0  0  0  0  0  0  0  0  0
   -2.7720   21.6930  -31.4320 C   0  0  0  0  0  0  0  0  0  0  0  0
   -1.7160   20.8760  -30.9870 C   0  0  0  0  0  0  0  0  0  0  0  0
   -1.0591   21.2251  -30.1767 H   0  0  0  0  0  0  0  0  0  0  0  0
   -1.4970   19.6260  -31.5670 C   0  0  0  0  0  0  0  0  0  0  0  0
   -0.6643   18.9982  -31.2172 H   0  0  0  0  0  0  0  0  0  0  0  0
   -2.3300   19.1690  -32.5890 C   0  0  0  0  0  0  0  0  0  0  0  0
   -2.1419   18.1884  -33.0505 H   0  0  0  0  0  0  0  0  0  0  0  0
   -3.4030   19.9510  -33.0300 C   0  0  0  0  0  0  0  0  0  0  0  0
   -4.2250   19.4520  -34.0950 N   0  0  0  0  0  0  0  0  0  0  0  0
   -5.3780   18.6090  -33.9610 C   0  0  0  0  0  0  0  0  0  0  0  0
   -5.4300   17.5070  -34.5730 O   0  0  0  0  0  0  0  0  0  0  0  0
   -6.5330   19.0570  -33.1470 C   0  0  0  0  0  0  0  0  0  0  0  0
   -7.3100   18.1230  -32.4340 C   0  0  0  0  0  0  0  0  0  0  0  0
   -7.0588   17.0532  -32.4822 H   0  0  0  0  0  0  0  0  0  0  0  0
   -8.3990   18.5470  -31.6650 C   0  0  0  0  0  0  0  0  0  0  0  0
   -9.0007   17.8109  -31.1117 H   0  0  0  0  0  0  0  0  0  0  0  0
   -8.7230   19.9040  -31.5990 C   0  0  0  0  0  0  0  0  0  0  0  0
   -9.5799   20.2356  -30.9943 H   0  0  0  0  0  0  0  0  0  0  0  0
   -7.9600   20.8400  -32.3000 C   0  0  0  0  0  0  0  0  0  0  0  0
   -8.2168   21.9083  -32.2465 H   0  0  0  0  0  0  0  0  0  0  0  0
   -6.8700   20.4220  -33.0700 C   0  0  0  0  0  0  0  0  0  0  0  0
   -6.2721   21.1643  -33.6190 H   0  0  0  0  0  0  0  0  0  0  0  0
   -3.6070   21.2220  -32.4620 C   0  0  0  0  0  0  0  0  0  0  0  0
   -4.4290   21.8550  -32.8275 H   0  0  0  0  0  0  0  0  0  0  0  0
   -4.0320   23.8370  -31.1990 N   0  0  0  0  0  0  0  0  0  0  0  0
  1  2  1  0
  2  3  2  0
  3  4  1  0
  4  5  1  0
  5  6  1  0
  5  7  2  0
  7  8  1  0
  8  9  2  0
  9 10  1  0
  9 11  1  0
 11 12  1  0
 11 13  2  0
 13 14  1  0
 13 15  1  0
 15 16  1  0
 16 17  1  0
 17 18  2  0
 17 19  1  0
 19 20  2  0
 20 21  1  0
 20 22  1  0
 22 23  1  0
 22 24  2  0
 24 25  1  0
 24 26  1  0
 26 27  1  0
 26 28  2  0
 28 29  1  0
 15 30  2  0
 30 31  1  0
  7 32  1  0
 32  3  1  0
 30  8  1  0
 28 19  1  0
M  CHG  3   4  -1  16  -1  32  -1
M  END
>  <UniqueID>  (10) 
10

>  <SMILES>  (10) 
[H]/N=c1\[n-]cc(-c2cccc([N-]C(=O)c3ccccc3)c2)[n-]1

>  <Energy>  (10) 
68.41762115151607

>  <Genealogy>  (10) 
N=c1[n-]cc(-c2cccc([N-]C(=O)c3ccccc3)c2)[n-]1 (protonated)
[H]/N=c1\[n-]cc(-c2cccc([N-]C(=O)c3ccccc3)c2)[n-]1 (cis-trans isomerization)
[H]/N=c1\[n-]cc(-c2cccc([N-]C(=O)c3ccccc3)c2)[n-]1 (3D coordinates assigned)
[H]/N=c1\[n-]cc(-c2cccc([N-]C(=O)c3ccccc3)c2)[n-]1 (optimized conformer: 68.41762115151607 kcal/mol)

>  <smiles>  (10) 
N=c1[nH]cc(-c2cccc(NC(=O)c3ccccc3)c2)[nH]1

>  <score_type>  (10) 
oracle

>  <origin>  (10) 
adgpu

>  <m_score__min__energy>  (10) 
-10.68

>  <m_primary>  (10) 
energy

$$$$
10:0
     RDKit          3D

 28 29  0  0  0  0  0  0  0  0999 V2000
   -7.2250   25.2830  -29.7850 O   0  0  0  0  0  0  0  0  0  0  0  0
   -6.2560   24.5780  -30.1800 C   0  0  0  0  0  0  0  0  0  0  0  0
   -5.0230   25.1910  -30.4290 C   0  0  0  0  0  0  0  0  0  0  0  0
   -3.9720   24.4410  -30.8440 N   0  0  0  0  0  0  0  0  0  0  0  0
   -4.0940   23.1030  -31.0250 C   0  0  0  0  0  0  0  0  0  0  0  0
   -2.7130   22.1630  -31.5520 Cl  0  0  0  0  0  0  0  0  0  0  0  0
   -5.3220   22.4830  -30.7800 C   0  0  0  0  0  0  0  0  0  0  0  0
   -6.3910   23.2230  -30.3550 N   0  0  0  0  0  0  0  0  0  0  0  0
   -7.6600   22.5340  -30.0670 C   0  0  0  0  0  0  0  0  0  0  0  0
   -8.5090   22.3580  -31.3330 C   0  0  0  0  0  0  0  0  0  0  0  0
   -7.7440   21.7900  -32.3990 O   0  0  0  0  0  0  0  0  0  0  0  0
   -7.4860   20.4230  -32.5980 C   0  0  0  0  0  0  0  0  0  0  0  0
   -8.2140   19.4010  -31.9570 C   0  0  0  0  0  0  0  0  0  0  0  0
   -7.9260   18.0590  -32.2210 C   0  0  0  0  0  0  0  0  0  0  0  0
   -6.9060   17.7210  -33.1130 C   0  0  0  0  0  0  0  0  0  0  0  0
   -6.6320   16.4180  -33.3660 F   0  0  0  0  0  0  0  0  0  0  0  0
   -6.1670   18.7290  -33.7400 C   0  0  0  0  0  0  0  0  0  0  0  0
   -5.1730   18.4050  -34.6030 F   0  0  0  0  0  0  0  0  0  0  0  0
   -6.4550   20.0720  -33.4790 C   0  0  0  0  0  0  0  0  0  0  0  0
   -4.9068   26.2758  -30.2888 H   0  0  0  0  0  0  0  0  0  0  0  0
   -5.4292   21.3984  -30.9291 H   0  0  0  0  0  0  0  0  0  0  0  0
   -7.4397   21.5425  -29.6446 H   0  0  0  0  0  0  0  0  0  0  0  0
   -8.2299   23.1479  -29.3540 H   0  0  0  0  0  0  0  0  0  0  0  0
   -9.3558   21.6935  -31.1066 H   0  0  0  0  0  0  0  0  0  0  0  0
   -8.8649   23.3488  -31.6518 H   0  0  0  0  0  0  0  0  0  0  0  0
   -9.0122   19.6603  -31.2459 H   0  0  0  0  0  0  0  0  0  0  0  0
   -8.5048   17.2663  -31.7244 H   0  0  0  0  0  0  0  0  0  0  0  0
   -5.8663   20.8607  -33.9702 H   0  0  0  0  0  0  0  0  0  0  0  0
  1  2  2  0
  2  3  1  0
  3  4  2  0
  4  5  1  0
  5  6  1  0
  5  7  2  0
  7  8  1  0
  8  9  1  0
  9 10  1  0
 10 11  1  0
 11 12  1  0
 12 13  2  0
 13 14  1  0
 14 15  2  0
 15 16  1  0
 15 17  1  0
 17 18  1  0
 17 19  2  0
  8  2  1  0
 19 12  1  0
  3 20  1  0
  7 21  1  0
  9 22  1  0
  9 23  1  0
 10 24  1  0
 10 25  1  0
 13 26  1  0
 14 27  1  0
 19 28  1  0
M  END
>  <UniqueID>  (11) 
11

>  <SMILES>  (11) 
O=c1cnc(Cl)cn1CCOc1ccc(F)c(F)c1

>  <Energy>  (11) 
30.169080997355668

>  <Genealogy>  (11) 
O=c1cnc(Cl)cn1CCOc1ccc(F)c(F)c1 (3D coordinates assigned)
O=c1cnc(Cl)cn1CCOc1ccc(F)c(F)c1 (optimized conformer: 30.169080997355668 kcal/mol)

>  <smiles>  (11) 
O=c1cnc(Cl)cn1CCOc1ccc(F)c(F)c1

>  <score_type>  (11) 
oracle

>  <origin>  (11) 
adgpu

>  <m_score__min__energy>  (11) 
-6.2599999999999998

>  <m_primary>  (11) 
energy

$$$$
11:0
     RDKit          3D

 43 46  0  0  0  0  0  0  0  0999 V2000
   -0.0830   26.4860  -27.3150 C   0  0  0  0  0  0  0  0  0  0  0  0
   -0.7630   25.4930  -28.1940 C   0  0  0  0  0  0  0  0  0  0  0  0
   -0.2280   24.3140  -28.5570 N   0  0  0  0  0  0  0  0  0  0  0  0
   -1.1380   23.7130  -29.3070 N   0  0  0  0  0  0  0  0  0  0  0  0
   -2.1950   24.5440  -29.3700 C   0  0  0  0  0  0  0  0  0  0  0  0
   -3.4560   24.2950  -30.0980 C   0  0  0  0  0  0  0  0  0  0  0  0
   -4.1140   25.2950  -30.7140 N   0  0  0  0  0  0  0  0  0  0  0  0
   -5.2170   24.7850  -31.2340 N   0  0  0  0  0  0  0  0  0  0  0  0
   -5.2160   23.4740  -30.9400 C   0  0  0  0  0  0  0  0  0  0  0  0
   -6.5820   22.3870  -31.3680 S   0  0  0  0  0  0  0  0  0  0  0  0
   -5.6650   21.4660  -32.6540 C   0  0  0  0  0  0  0  0  0  0  0  0
   -6.2270   20.0830  -32.8260 C   0  0  0  0  0  0  0  0  0  0  0  0
   -5.5410   19.1330  -33.6030 C   0  0  0  0  0  0  0  0  0  0  0  0
   -6.0520   17.8400  -33.7470 C   0  0  0  0  0  0  0  0  0  0  0  0
   -7.2490   17.4850  -33.1160 C   0  0  0  0  0  0  0  0  0  0  0  0
   -7.9350   18.4230  -32.3410 C   0  0  0  0  0  0  0  0  0  0  0  0
   -9.0940   18.0760  -31.7270 F   0  0  0  0  0  0  0  0  0  0  0  0
   -7.4290   19.7180  -32.1950 C   0  0  0  0  0  0  0  0  0  0  0  0
   -4.1200   23.1150  -30.2310 N   0  0  0  0  0  0  0  0  0  0  0  0
   -3.8520   21.7990  -29.6330 C   0  0  0  0  0  0  0  0  0  0  0  0
   -2.5750   21.1910  -30.1690 C   0  0  0  0  0  0  0  0  0  0  0  0
   -2.2930   21.2840  -31.5450 C   0  0  0  0  0  0  0  0  0  0  0  0
   -1.1150   20.7440  -32.0680 C   0  0  0  0  0  0  0  0  0  0  0  0
   -0.2110   20.0940  -31.2280 C   0  0  0  0  0  0  0  0  0  0  0  0
   -0.4850   19.9770  -29.8640 C   0  0  0  0  0  0  0  0  0  0  0  0
   -1.6610   20.5150  -29.3280 C   0  0  0  0  0  0  0  0  0  0  0  0
   -1.9470   20.3180  -27.6040 Cl  0  0  0  0  0  0  0  0  0  0  0  0
   -1.9700   25.6390  -28.6810 O   0  0  0  0  0  0  0  0  0  0  0  0
   -0.2613   26.2256  -26.2612 H   0  0  0  0  0  0  0  0  0  0  0  0
    0.9981   26.4752  -27.5175 H   0  0  0  0  0  0  0  0  0  0  0  0
   -0.4839   27.4901  -27.5175 H   0  0  0  0  0  0  0  0  0  0  0  0
   -5.7417   22.0073  -33.6085 H   0  0  0  0  0  0  0  0  0  0  0  0
   -4.6130   21.3820  -32.3437 H   0  0  0  0  0  0  0  0  0  0  0  0
   -4.5988   19.4083  -34.0994 H   0  0  0  0  0  0  0  0  0  0  0  0
   -5.5123   17.1008  -34.3572 H   0  0  0  0  0  0  0  0  0  0  0  0
   -7.6500   16.4671  -33.2302 H   0  0  0  0  0  0  0  0  0  0  0  0
   -7.9731   20.4537  -31.5845 H   0  0  0  0  0  0  0  0  0  0  0  0
   -3.7617   21.9145  -28.5428 H   0  0  0  0  0  0  0  0  0  0  0  0
   -4.6855   21.1290  -29.8906 H   0  0  0  0  0  0  0  0  0  0  0  0
   -3.0065   21.7864  -32.2147 H   0  0  0  0  0  0  0  0  0  0  0  0
   -0.9005   20.8317  -33.1433 H   0  0  0  0  0  0  0  0  0  0  0  0
    0.7181   19.6734  -31.6403 H   0  0  0  0  0  0  0  0  0  0  0  0
    0.2280   19.4586  -29.2061 H   0  0  0  0  0  0  0  0  0  0  0  0
  1  2  1  0
  2  3  2  0
  3  4  1  0
  4  5  2  0
  5  6  1  0
  6  7  2  0
  7  8  1  0
  8  9  2  0
  9 10  1  0
 10 11  1  0
 11 12  1  0
 12 13  2  0
 13 14  1  0
 14 15  2  0
 15 16  1  0
 16 17  1  0
 16 18  2  0
  9 19  1  0
 19 20  1  0
 20 21  1  0
 21 22  2  0
 22 23  1  0
 23 24  2  0
 24 25  1  0
 25 26  2  0
 26 27  1  0
  5 28  1  0
 28  2  1  0
 19  6  1  0
 26 21  1  0
 18 12  1  0
  1 29  1  0
  1 30  1  0
  1 31  1  0
 11 32  1  0
 11 33  1  0
 13 34  1  0
 14 35  1  0
 15 36  1  0
 18 37  1  0
 20 38  1  0
 20 39  1  0
 22 40  1  0
 23 41  1  0
 24 42  1  0
 25 43  1  0
M  END
>  <UniqueID>  (12) 
12

>  <SMILES>  (12) 
Cc1nnc(-c2nnc(SCc3cccc(F)c3)n2Cc2ccccc2Cl)o1

>  <Energy>  (12) 
112.52504083147163

>  <Genealogy>  (12) 
Cc1nnc(-c2nnc(SCc3cccc(F)c3)n2Cc2ccccc2Cl)o1 (3D coordinates assigned)
Cc1nnc(-c2nnc(SCc3cccc(F)c3)n2Cc2ccccc2Cl)o1 (optimized conformer: 112.52504083147163 kcal/mol)

>  <smiles>  (12) 
Cc1nnc(-c2nnc(SCc3cccc(F)c3)n2Cc2ccccc2Cl)o1

>  <score_type>  (12) 
oracle

>  <origin>  (12) 
adgpu

>  <m_score__min__energy>  (12) 
-9.8399999999999999

>  <m_primary>  (12) 
energy

$$$$
12:0
     RDKit          3D

 22 24  0  0  0  0  0  0  0  0999 V2000
   -9.1380   18.9220  -33.4690 H   0  0  0  0  0  0  0  0  0  0  0  0
   -8.5560   19.7020  -33.0890 N   0  0  0  0  0  0  0  0  0  0  0  0
   -7.2660   19.7190  -33.2170 C   0  0  0  0  0  0  0  0  0  0  0  0
   -6.5130   20.7700  -32.7000 C   0  0  0  0  0  0  0  0  0  0  0  0
   -6.9590   21.8550  -32.0380 N   0  0  0  0  0  0  0  0  0  0  0  0
   -5.7930   22.5080  -31.7900 C   0  0  0  0  0  0  0  0  0  0  0  0
   -5.7280   23.7850  -31.0720 C   0  0  0  0  0  0  0  0  0  0  0  0
   -4.7520   24.6530  -31.2100 O   0  0  0  0  0  0  0  0  0  0  0  0
   -4.9970   25.6820  -30.4310 C   0  0  0  0  0  0  0  0  0  0  0  0
   -4.3539   26.5689  -30.3325 H   0  0  0  0  0  0  0  0  0  0  0  0
   -6.1830   25.4820  -29.7550 C   0  0  0  0  0  0  0  0  0  0  0  0
   -6.6547   26.1639  -29.0322 H   0  0  0  0  0  0  0  0  0  0  0  0
   -6.6580   24.2550  -30.1680 C   0  0  0  0  0  0  0  0  0  0  0  0
   -7.5835   23.7561  -29.8447 H   0  0  0  0  0  0  0  0  0  0  0  0
   -4.7010   21.8650  -32.2720 N   0  0  0  0  0  0  0  0  0  0  0  0
   -5.1850   20.7780  -32.8370 N   0  0  0  0  0  0  0  0  0  0  0  0
   -4.4980   19.7970  -33.4670 C   0  0  0  0  0  0  0  0  0  0  0  0
   -3.4028   19.8368  -33.5612 H   0  0  0  0  0  0  0  0  0  0  0  0
   -5.2370   18.7260  -33.9960 C   0  0  0  0  0  0  0  0  0  0  0  0
   -4.4130   17.4180  -34.8270 Cl  0  0  0  0  0  0  0  0  0  0  0  0
   -6.6010   18.7090  -33.8610 N   0  0  0  0  0  0  0  0  0  0  0  0
   -7.1370   17.9050  -34.2600 H   0  0  0  0  0  0  0  0  0  0  0  0
  1  2  1  0
  2  3  2  0
  3  4  1  0
  4  5  2  0
  5  6  1  0
  6  7  1  0
  7  8  1  0
  8  9  1  0
  9 10  1  0
  9 11  2  0
 11 12  1  0
 11 13  1  0
 13 14  1  0
  6 15  2  0
 15 16  1  0
 16 17  1  0
 17 18  1  0
 17 19  2  0
 19 20  1  0
 19 21  1  0
 21 22  1  0
 21  3  1  0
 16  4  1  0
 13  7  2  0
M  END
>  <UniqueID>  (13) 
13

>  <SMILES>  (13) 
[H]/N=c1\[nH]c(Cl)cn2nc(-c3ccco3)nc12

>  <Energy>  (13) 
89.40608276308645

>  <Genealogy>  (13) 
[H]/N=c1\[nH]c(Cl)cn2nc(-c3ccco3)nc12 (cis-trans isomerization)
[H]/N=c1\[nH]c(Cl)cn2nc(-c3ccco3)nc12 (3D coordinates assigned)
[H]/N=c1\[nH]c(Cl)cn2nc(-c3ccco3)nc12 (optimized conformer: 89.40608276308645 kcal/mol)

>  <smiles>  (13) 
N=c1[nH]c(Cl)cn2nc(-c3ccco3)nc12

>  <score_type>  (13) 
oracle

>  <origin>  (13) 
adgpu

>  <m_score__min__energy>  (13) 
-6.5800000000000001

>  <m_primary>  (13) 
energy

$$$$
13:0
     RDKit          3D

 29 30  0  0  0  0  0  0  0  0999 V2000
   -0.3354   25.5398  -29.6619 H   0  0  0  0  0  0  0  0  0  0  0  0
   -1.1210   25.2640  -28.9430 C   0  0  0  0  0  0  0  0  0  0  0  0
   -2.3530   24.9020  -29.3890 N   0  0  0  0  0  0  0  0  0  0  0  0
   -3.3570   24.5540  -28.5350 C   0  0  0  0  0  0  0  0  0  0  0  0
   -4.5260   24.1890  -28.9790 N   0  0  0  0  0  0  0  0  0  0  0  0
   -4.9610   24.1700  -30.3490 C   0  0  0  0  0  0  0  0  0  0  0  0
   -4.3790   24.9200  -31.1760 O   0  0  0  0  0  0  0  0  0  0  0  0
   -5.9950   23.2280  -30.8380 C   0  0  0  0  0  0  0  0  0  0  0  0
   -7.1700   23.0670  -30.0820 C   0  0  0  0  0  0  0  0  0  0  0  0
   -7.3180   23.6633  -29.1695 H   0  0  0  0  0  0  0  0  0  0  0  0
   -8.1500   22.1560  -30.4810 C   0  0  0  0  0  0  0  0  0  0  0  0
   -9.0686   22.0422  -29.8867 H   0  0  0  0  0  0  0  0  0  0  0  0
   -7.9660   21.3900  -31.6320 C   0  0  0  0  0  0  0  0  0  0  0  0
   -8.7358   20.6671  -31.9399 H   0  0  0  0  0  0  0  0  0  0  0  0
   -6.8050   21.5400  -32.3940 C   0  0  0  0  0  0  0  0  0  0  0  0
   -6.6660   20.9336  -33.3012 H   0  0  0  0  0  0  0  0  0  0  0  0
   -5.8140   22.4580  -32.0120 C   0  0  0  0  0  0  0  0  0  0  0  0
   -4.6620   22.6230  -32.8510 N   0  0  0  0  0  0  0  0  0  0  0  0
   -3.8740   23.2540  -32.5920 H   0  0  0  0  0  0  0  0  0  0  0  0
   -4.6190   22.1620  -33.7870 H   0  0  0  0  0  0  0  0  0  0  0  0
   -3.1190   24.5540  -27.1560 C   0  0  0  0  0  0  0  0  0  0  0  0
   -3.9142   24.2523  -26.4584 H   0  0  0  0  0  0  0  0  0  0  0  0
   -1.8630   24.9400  -26.6670 C   0  0  0  0  0  0  0  0  0  0  0  0
   -1.5820   24.9130  -25.1940 C   0  0  0  0  0  0  0  0  0  0  0  0
   -2.5272   25.0038  -24.6387 H   0  0  0  0  0  0  0  0  0  0  0  0
   -1.0923   23.9637  -24.9315 H   0  0  0  0  0  0  0  0  0  0  0  0
   -0.9205   25.7517  -24.9315 H   0  0  0  0  0  0  0  0  0  0  0  0
   -0.8520   25.2860  -27.5740 C   0  0  0  0  0  0  0  0  0  0  0  0
    0.1455   25.5726  -27.2095 H   0  0  0  0  0  0  0  0  0  0  0  0
  1  2  1  0
  2  3  1  0
  3  4  1  0
  4  5  2  0
  5  6  1  0
  6  7  2  0
  6  8  1  0
  8  9  2  0
  9 10  1  0
  9 11  1  0
 11 12  1  0
 11 13  2  0
 13 14  1  0
 13 15  1  0
 15 16  1  0
 15 17  2  0
 17 18  1  0
 18 19  1  0
 18 20  1  0
  4 21  1  0
 21 22  1  0
 21 23  2  0
 23 24  1  0
 24 25  1  0
 24 26  1  0
 24 27  1  0
 23 28  1  0
 28 29  1  0
 28  2  2  0
 17  8  1  0
M  CHG  1   3  -1
M  END
>  <UniqueID>  (14) 
14

>  <SMILES>  (14) 
Cc1cc[n-]/c(=N\C(=O)c2ccccc2N)c1

>  <Energy>  (14) 
39.45308930393524

>  <Genealogy>  (14) 
Cc1cc[n-]c(=NC(=O)c2ccccc2N)c1 (protonated)
Cc1cc[n-]/c(=N\C(=O)c2ccccc2N)c1 (cis-trans isomerization)
Cc1cc[n-]/c(=N\C(=O)c2ccccc2N)c1 (3D coordinates assigned)
Cc1cc[n-]/c(=N\C(=O)c2ccccc2N)c1 (optimized conformer: 39.45308930393524 kcal/mol)

>  <smiles>  (14) 
Cc1cc[nH]c(=NC(=O)c2ccccc2N)c1

>  <score_type>  (14) 
oracle

>  <origin>  (14) 
adgpu

>  <m_score__min__energy>  (14) 
-8.1199999999999992

>  <m_primary>  (14) 
energy

$$$$
14:0
     RDKit          3D

 56 58  0  0  0  0  0  0  0  0999 V2000
   -0.0540   22.7670  -24.1310 C   0  0  0  0  0  0  0  0  0  0  0  0
   -0.6590   24.0880  -24.6370 C   0  0  0  0  0  0  0  0  0  0  0  0
    0.3340   25.0980  -25.0750 N   0  0  0  0  0  0  0  0  0  0  0  0
    0.4850   26.2390  -24.1470 C   0  0  0  0  0  0  0  0  0  0  0  0
   -0.8800   26.7780  -23.7120 C   0  0  0  0  0  0  0  0  0  0  0  0
    0.1000   25.5830  -26.7470 S   0  0  0  0  0  0  0  0  0  0  0  0
    1.3420   25.2580  -27.5300 O   0  0  0  0  0  0  0  0  0  0  0  0
   -0.1010   27.0700  -26.8260 O   0  0  0  0  0  0  0  0  0  0  0  0
   -1.2770   24.7900  -27.5140 C   0  0  0  0  0  0  0  0  0  0  0  0
   -1.0840   23.9530  -28.6210 C   0  0  0  0  0  0  0  0  0  0  0  0
   -2.1740   23.3230  -29.2290 C   0  0  0  0  0  0  0  0  0  0  0  0
   -3.4720   23.5030  -28.7200 C   0  0  0  0  0  0  0  0  0  0  0  0
   -4.6160   22.8960  -29.3460 N   0  0  0  0  0  0  0  0  0  0  0  0
   -5.3260   23.4780  -30.4550 C   0  0  0  0  0  0  0  0  0  0  0  0
   -4.8770   24.5170  -31.0130 O   0  0  0  0  0  0  0  0  0  0  0  0
   -6.5840   22.8790  -30.9620 C   0  0  0  0  0  0  0  0  0  0  0  0
   -7.5910   23.7040  -31.4770 C   0  0  0  0  0  0  0  0  0  0  0  0
   -8.7830   23.1500  -31.9360 C   0  0  0  0  0  0  0  0  0  0  0  0
   -8.9650   21.7670  -31.8950 C   0  0  0  0  0  0  0  0  0  0  0  0
  -10.0560   21.2840  -32.3020 O   0  0  0  0  0  0  0  0  0  0  0  0
   -7.9680   20.9520  -31.4200 N   0  0  0  0  0  0  0  0  0  0  0  0
   -8.1530   19.4920  -31.3530 C   0  0  0  0  0  0  0  0  0  0  0  0
   -7.3210   18.8130  -32.4090 C   0  0  0  0  0  0  0  0  0  0  0  0
   -7.1870   17.4140  -32.4130 C   0  0  0  0  0  0  0  0  0  0  0  0
   -6.4420   16.7800  -33.4130 C   0  0  0  0  0  0  0  0  0  0  0  0
   -5.8330   17.5370  -34.4180 C   0  0  0  0  0  0  0  0  0  0  0  0
   -5.9690   18.9270  -34.4270 C   0  0  0  0  0  0  0  0  0  0  0  0
   -6.7130   19.5650  -33.4290 C   0  0  0  0  0  0  0  0  0  0  0  0
   -6.7960   21.4890  -30.9580 C   0  0  0  0  0  0  0  0  0  0  0  0
   -3.6620   24.3510  -27.6180 C   0  0  0  0  0  0  0  0  0  0  0  0
   -2.5720   24.9770  -27.0110 C   0  0  0  0  0  0  0  0  0  0  0  0
   -0.0518   22.7623  -23.0310 H   0  0  0  0  0  0  0  0  0  0  0  0
   -0.6554   21.9231  -24.5001 H   0  0  0  0  0  0  0  0  0  0  0  0
    0.9778   22.6711  -24.5001 H   0  0  0  0  0  0  0  0  0  0  0  0
   -1.3144   23.8597  -25.4904 H   0  0  0  0  0  0  0  0  0  0  0  0
   -1.1955   24.5300  -23.7845 H   0  0  0  0  0  0  0  0  0  0  0  0
    1.0409   25.9078  -23.2574 H   0  0  0  0  0  0  0  0  0  0  0  0
    1.0294   27.0421  -24.6654 H   0  0  0  0  0  0  0  0  0  0  0  0
   -0.9328   26.7989  -22.6135 H   0  0  0  0  0  0  0  0  0  0  0  0
   -1.0142   27.7966  -24.1050 H   0  0  0  0  0  0  0  0  0  0  0  0
   -1.6739   26.1259  -24.1050 H   0  0  0  0  0  0  0  0  0  0  0  0
   -0.0694   23.7907  -29.0138 H   0  0  0  0  0  0  0  0  0  0  0  0
   -2.0152   22.6835  -30.1098 H   0  0  0  0  0  0  0  0  0  0  0  0
   -4.9020   21.9570  -28.9920 H   0  0  0  0  0  0  0  0  0  0  0  0
   -7.4401   24.7928  -31.5191 H   0  0  0  0  0  0  0  0  0  0  0  0
   -9.5784   23.8000  -32.3295 H   0  0  0  0  0  0  0  0  0  0  0  0
   -7.8447   19.1319  -30.3604 H   0  0  0  0  0  0  0  0  0  0  0  0
   -9.2136   19.2564  -31.5254 H   0  0  0  0  0  0  0  0  0  0  0  0
   -7.6698   16.8152  -31.6267 H   0  0  0  0  0  0  0  0  0  0  0  0
   -6.3354   15.6852  -33.4085 H   0  0  0  0  0  0  0  0  0  0  0  0
   -5.2460   17.0374  -35.2027 H   0  0  0  0  0  0  0  0  0  0  0  0
   -5.4905   19.5207  -35.2198 H   0  0  0  0  0  0  0  0  0  0  0  0
   -6.8227   20.6594  -33.4425 H   0  0  0  0  0  0  0  0  0  0  0  0
   -6.0080   20.8224  -30.5777 H   0  0  0  0  0  0  0  0  0  0  0  0
   -4.6767   24.5235  -27.2300 H   0  0  0  0  0  0  0  0  0  0  0  0
   -2.7301   25.6206  -26.1331 H   0  0  0  0  0  0  0  0  0  0  0  0
  1  2  1  0
  2  3  1  0
  3  4  1  0
  4  5  1  0
  3  6  1  0
  6  7  2  0
  6  8  2  0
  6  9  1  0
  9 10  2  0
 10 11  1  0
 11 12  2  0
 12 13  1  0
 13 14  1  0
 14 15  2  0
 14 16  1  0
 16 17  1  0
 17 18  2  0
 18 19  1  0
 19 20  2  0
 19 21  1  0
 21 22  1  0
 22 23  1  0
 23 24  2  0
 24 25  1  0
 25 26  2  0
 26 27  1  0
 27 28  2  0
 21 29  1  0
 12 30  1  0
 30 31  2  0
 31  9  1  0
 29 16  2  0
 28 23  1  0
  1 32  1  0
  1 33  1  0
  1 34  1  0
  2 35  1  0
  2 36  1  0
  4 37  1  0
  4 38  1  0
  5 39  1  0
  5 40  1  0
  5 41  1  0
 10 42  1  0
 11 43  1  0
 13 44  1  0
 17 45  1  0
 18 46  1  0
 22 47  1  0
 22 48  1  0
 24 49  1  0
 25 50  1  0
 26 51  1  0
 27 52  1  0
 28 53  1  0
 29 54  1  0
 30 55  1  0
 31 56  1  0
M  END
>  <UniqueID>  (15) 
15

>  <SMILES>  (15) 
CCN(CC)S(=O)(=O)c1ccc(NC(=O)c2ccc(=O)n(Cc3ccccc3)c2)cc1

>  <Energy>  (15) 
68.41669542300987

>  <Genealogy>  (15) 
CCN(CC)S(=O)(=O)c1ccc(NC(=O)c2ccc(=O)n(Cc3ccccc3)c2)cc1 (3D coordinates assigned)
CCN(CC)S(=O)(=O)c1ccc(NC(=O)c2ccc(=O)n(Cc3ccccc3)c2)cc1 (optimized conformer: 68.41669542300987 kcal/mol)

>  <smiles>  (15) 
CCN(CC)S(=O)(=O)c1ccc(NC(=O)c2ccc(=O)n(Cc3ccccc3)c2)cc1

>  <score_type>  (15) 
oracle

>  <origin>  (15) 
adgpu

>  <m_score__min__energy>  (15) 
-10.289999999999999

>  <m_primary>  (15) 
energy

$$$$
15:0
     RDKit          3D

 44 46  0  0  1  0  0  0  0  0999 V2000
   -4.5770   13.9570  -32.0270 C   0  0  0  0  0  0  0  0  0  0  0  0
   -4.0820   15.2810  -32.0900 O   0  0  0  0  0  0  0  0  0  0  0  0
   -4.7360   16.2020  -32.9130 C   0  0  0  0  0  0  0  0  0  0  0  0
   -4.3370   16.4170  -34.2220 C   0  0  0  0  0  0  0  0  0  0  0  0
   -5.0340   17.3450  -34.9800 C   0  0  0  0  0  0  0  0  0  0  0  0
   -6.1070   18.0330  -34.4100 C   0  0  0  0  0  0  0  0  0  0  0  0
   -6.5210   17.8430  -33.1220 C   0  0  0  0  0  0  0  0  0  0  0  0
   -7.6240   18.5410  -32.4530 C   0  0  0  0  0  0  0  0  0  0  0  0
   -7.8710   19.8370  -33.0290 N   0  0  0  0  0  0  0  0  0  0  0  0
   -7.3540   20.9660  -32.3460 C   0  0  0  0  0  0  0  0  0  0  0  0
   -6.0700   21.4430  -32.6320 C   0  0  0  0  0  0  0  0  0  0  0  0
   -5.5900   22.5650  -31.9800 C   0  0  0  0  0  0  0  0  0  0  0  0
   -6.3550   23.2290  -31.0480 C   0  0  0  0  0  0  0  0  0  0  0  0
   -5.7920   24.6140  -30.1660 S   0  0  0  0  0  0  0  0  0  0  0  0
   -6.9060   25.5380  -29.8940 O   0  0  0  0  0  0  0  0  0  0  0  0
   -4.7620   25.3010  -31.0810 O   0  0  0  0  0  0  0  0  0  0  0  0
   -4.8830   24.1380  -28.7670 N   0  0  0  0  0  0  0  0  0  0  0  0
   -3.5880   24.2190  -28.7620 C   0  0  0  0  0  0  0  0  0  0  0  0
   -2.7490   23.8700  -27.7000 C   0  0  0  0  0  0  0  0  0  0  0  0
   -1.4280   24.0820  -28.0600 C   0  0  0  0  0  0  0  0  0  0  0  0
   -1.4990   24.5570  -29.3430 N   0  0  0  0  0  0  0  0  0  0  0  0
   -2.7560   24.6280  -29.7280 N   0  0  0  0  0  0  0  0  0  0  0  0
   -7.6430   22.7720  -30.7490 C   0  0  0  0  0  0  0  0  0  0  0  0
   -8.1260   21.6550  -31.3930 C   0  0  0  0  0  0  0  0  0  0  0  0
   -5.8070   16.9020  -32.3740 C   0  0  0  0  0  0  0  0  0  0  0  0
   -6.1810   16.6620  -31.0670 O   0  0  0  0  0  0  0  0  0  0  0  0
   -4.6891   13.6571  -30.9746 H   0  0  0  0  0  0  0  0  0  0  0  0
   -5.5546   13.9068  -32.5287 H   0  0  0  0  0  0  0  0  0  0  0  0
   -3.8721   13.2777  -32.5287 H   0  0  0  0  0  0  0  0  0  0  0  0
   -3.4874   15.8645  -34.6497 H   0  0  0  0  0  0  0  0  0  0  0  0
   -4.7438   17.5380  -36.0233 H   0  0  0  0  0  0  0  0  0  0  0  0
   -6.6462   18.7650  -35.0293 H   0  0  0  0  0  0  0  0  0  0  0  0
   -8.5360   17.9326  -32.5434 H   0  0  0  0  0  0  0  0  0  0  0  0
   -7.3447   18.6856  -31.3989 H   0  0  0  0  0  0  0  0  0  0  0  0
   -8.4070   20.0220  -33.9020 H   0  0  0  0  0  0  0  0  0  0  0  0
   -5.4432   20.9268  -33.3740 H   0  0  0  0  0  0  0  0  0  0  0  0
   -4.5793   22.9329  -32.2105 H   0  0  0  0  0  0  0  0  0  0  0  0
   -3.0863   23.4854  -26.7262 H   0  0  0  0  0  0  0  0  0  0  0  0
   -0.5269   23.9084  -27.4534 H   0  0  0  0  0  0  0  0  0  0  0  0
   -0.6340   24.8070  -29.8830 H   0  0  0  0  0  0  0  0  0  0  0  0
   -3.0240   24.9630  -30.6700 H   0  0  0  0  0  0  0  0  0  0  0  0
   -8.2625   23.2988  -30.0082 H   0  0  0  0  0  0  0  0  0  0  0  0
   -9.1377   21.2934  -31.1571 H   0  0  0  0  0  0  0  0  0  0  0  0
   -5.7270   15.9740  -30.4750 H   0  0  0  0  0  0  0  0  0  0  0  0
  1  2  1  0
  2  3  1  0
  3  4  2  0
  4  5  1  0
  5  6  2  0
  6  7  1  0
  7  8  1  0
  8  9  1  0
  9 10  1  0
 10 11  2  0
 11 12  1  0
 12 13  2  0
 13 14  1  0
 14 15  2  0
 14 16  2  0
 14 17  1  0
 17 18  2  0
 18 19  1  0
 19 20  2  0
 20 21  1  0
 21 22  1  0
 13 23  1  0
 23 24  2  0
  7 25  2  0
 25 26  1  0
 25  3  1  0
 24 10  1  0
 22 18  1  0
  1 27  1  0
  1 28  1  0
  1 29  1  0
  4 30  1  0
  5 31  1  0
  6 32  1  0
  8 33  1  0
  8 34  1  0
  9 35  1  0
 11 36  1  0
 12 37  1  0
 19 38  1  0
 20 39  1  0
 21 40  1  0
 22 41  1  0
 23 42  1  0
 24 43  1  0
 26 44  1  0
M  END
>  <smiles>  (16) 
COc1cccc(CNc2ccc(S(=O)(=O)N=c3cc[nH][nH]3)cc2)c1O

>  <score_type>  (16) 
oracle

>  <origin>  (16) 
adgpu

>  <m_score__min__energy>  (16) 
-9.6999999999999993

>  <m_primary>  (16) 
energy

$$$$
16:0
     RDKit          3D

 58 59  0  0  0  0  0  0  0  0999 V2000
    1.1810   21.8510  -35.7260 C   0  0  0  0  0  0  0  0  0  0  0  0
    0.4200   21.9120  -34.5240 O   0  0  0  0  0  0  0  0  0  0  0  0
   -0.5870   20.9980  -34.1800 C   0  0  0  0  0  0  0  0  0  0  0  0
   -0.4370   19.6650  -34.5760 C   0  0  0  0  0  0  0  0  0  0  0  0
   -1.4220   18.7130  -34.2850 C   0  0  0  0  0  0  0  0  0  0  0  0
   -1.2180   17.3940  -34.7150 O   0  0  0  0  0  0  0  0  0  0  0  0
   -2.1900   16.3580  -34.6170 C   0  0  0  0  0  0  0  0  0  0  0  0
   -2.5760   19.1080  -33.5850 C   0  0  0  0  0  0  0  0  0  0  0  0
   -2.7340   20.4370  -33.1720 C   0  0  0  0  0  0  0  0  0  0  0  0
   -3.9280   20.8450  -32.4890 N   0  0  0  0  0  0  0  0  0  0  0  0
   -5.2250   20.7970  -33.1870 C   0  0  0  0  0  0  0  0  0  0  0  0
   -6.1820   19.7200  -32.6230 C   0  0  0  0  0  0  0  0  0  0  0  0
   -7.4600   19.5470  -33.3500 N   0  0  0  0  0  0  0  0  0  0  0  0
   -8.6930   19.8250  -32.5750 C   0  0  0  0  0  0  0  0  0  0  0  0
   -8.9880   18.6500  -31.6290 C   0  0  0  0  0  0  0  0  0  0  0  0
   -8.5860   21.1280  -31.7620 C   0  0  0  0  0  0  0  0  0  0  0  0
   -3.7750   21.6970  -31.3350 C   0  0  0  0  0  0  0  0  0  0  0  0
   -3.4550   21.1490  -30.0820 C   0  0  0  0  0  0  0  0  0  0  0  0
   -3.3280   21.9650  -28.9530 C   0  0  0  0  0  0  0  0  0  0  0  0
   -3.0130   21.3570  -27.7300 O   0  0  0  0  0  0  0  0  0  0  0  0
   -2.6320   19.9930  -27.5810 C   0  0  0  0  0  0  0  0  0  0  0  0
   -3.5240   23.3530  -29.0790 C   0  0  0  0  0  0  0  0  0  0  0  0
   -3.8530   23.9140  -30.3270 C   0  0  0  0  0  0  0  0  0  0  0  0
   -4.0660   25.2920  -30.4990 O   0  0  0  0  0  0  0  0  0  0  0  0
   -5.3450   25.9160  -30.4860 C   0  0  0  0  0  0  0  0  0  0  0  0
   -3.9760   23.0830  -31.4440 C   0  0  0  0  0  0  0  0  0  0  0  0
   -1.7360   21.3780  -33.4630 C   0  0  0  0  0  0  0  0  0  0  0  0
    2.2496   21.7653  -35.4795 H   0  0  0  0  0  0  0  0  0  0  0  0
    0.8689   20.9750  -36.3135 H   0  0  0  0  0  0  0  0  0  0  0  0
    1.0124   22.7655  -36.3135 H   0  0  0  0  0  0  0  0  0  0  0  0
    0.4671   19.3602  -35.1235 H   0  0  0  0  0  0  0  0  0  0  0  0
   -2.3914   16.1433  -33.5571 H   0  0  0  0  0  0  0  0  0  0  0  0
   -3.1197   16.6797  -35.1091 H   0  0  0  0  0  0  0  0  0  0  0  0
   -1.8097   15.4507  -35.1091 H   0  0  0  0  0  0  0  0  0  0  0  0
   -3.3591   18.3689  -33.3605 H   0  0  0  0  0  0  0  0  0  0  0  0
   -5.7098   21.7798  -33.0916 H   0  0  0  0  0  0  0  0  0  0  0  0
   -5.0218   20.5362  -34.2361 H   0  0  0  0  0  0  0  0  0  0  0  0
   -5.6519   18.7563  -32.6389 H   0  0  0  0  0  0  0  0  0  0  0  0
   -6.4568   20.0640  -31.6149 H   0  0  0  0  0  0  0  0  0  0  0  0
   -7.4510   20.1360  -34.2110 H   0  0  0  0  0  0  0  0  0  0  0  0
   -7.4940   18.5540  -33.6820 H   0  0  0  0  0  0  0  0  0  0  0  0
   -9.5155   19.9475  -33.2950 H   0  0  0  0  0  0  0  0  0  0  0  0
   -8.9029   18.9888  -30.5859 H   0  0  0  0  0  0  0  0  0  0  0  0
  -10.0072   18.2789  -31.8120 H   0  0  0  0  0  0  0  0  0  0  0  0
   -8.2650   17.8415  -31.8120 H   0  0  0  0  0  0  0  0  0  0  0  0
   -8.6053   20.8925  -30.6877 H   0  0  0  0  0  0  0  0  0  0  0  0
   -7.6430   21.6377  -32.0087 H   0  0  0  0  0  0  0  0  0  0  0  0
   -9.4332   21.7847  -32.0087 H   0  0  0  0  0  0  0  0  0  0  0  0
   -3.3022   20.0638  -29.9873 H   0  0  0  0  0  0  0  0  0  0  0  0
   -2.5631   19.7463  -26.5112 H   0  0  0  0  0  0  0  0  0  0  0  0
   -3.3843   19.3479  -28.0583 H   0  0  0  0  0  0  0  0  0  0  0  0
   -1.6543   19.8312  -28.0583 H   0  0  0  0  0  0  0  0  0  0  0  0
   -3.4195   24.0026  -28.1975 H   0  0  0  0  0  0  0  0  0  0  0  0
   -5.6660   26.0726  -29.4456 H   0  0  0  0  0  0  0  0  0  0  0  0
   -5.2850   26.8860  -31.0012 H   0  0  0  0  0  0  0  0  0  0  0  0
   -6.0726   25.2716  -31.0012 H   0  0  0  0  0  0  0  0  0  0  0  0
   -4.2333   23.5196  -32.4203 H   0  0  0  0  0  0  0  0  0  0  0  0
   -1.8523   22.4195  -33.1286 H   0  0  0  0  0  0  0  0  0  0  0  0
  1  2  1  0
  2  3  1  0
  3  4  2  0
  4  5  1  0
  5  6  1  0
  6  7  1  0
  5  8  2  0
  8  9  1  0
  9 10  1  0
 10 11  1  0
 11 12  1  0
 12 13  1  0
 13 14  1  0
 14 15  1  0
 14 16  1  0
 10 17  1  0
 17 18  2  0
 18 19  1  0
 19 20  1  0
 20 21  1  0
 19 22  2  0
 22 23  1  0
 23 24  1  0
 24 25  1  0
 23 26  2  0
  9 27  2  0
 27  3  1  0
 26 17  1  0
  1 28  1  0
  1 29  1  0
  1 30  1  0
  4 31  1  0
  7 32  1  0
  7 33  1  0
  7 34  1  0
  8 35  1  0
 11 36  1  0
 11 37  1  0
 12 38  1  0
 12 39  1  0
 13 40  1  0
 13 41  1  0
 14 42  1  0
 15 43  1  0
 15 44  1  0
 15 45  1  0
 16 46  1  0
 16 47  1  0
 16 48  1  0
 18 49  1  0
 21 50  1  0
 21 51  1  0
 21 52  1  0
 22 53  1  0
 25 54  1  0
 25 55  1  0
 25 56  1  0
 26 57  1  0
 27 58  1  0
M  CHG  1  13   1
M  END
>  <UniqueID>  (17) 
16

>  <SMILES>  (17) 
COc1cc(OC)cc(N(CC[NH2+]C(C)C)c2cc(OC)cc(OC)c2)c1

>  <Energy>  (17) 
65.13912638986774

>  <Genealogy>  (17) 
COc1cc(OC)cc(N(CC[NH2+]C(C)C)c2cc(OC)cc(OC)c2)c1 (protonated)
COc1cc(OC)cc(N(CC[NH2+]C(C)C)c2cc(OC)cc(OC)c2)c1 (3D coordinates assigned)
COc1cc(OC)cc(N(CC[NH2+]C(C)C)c2cc(OC)cc(OC)c2)c1 (optimized conformer: 65.13912638986774 kcal/mol)

>  <smiles>  (17) 
COc1cc(OC)cc(N(CCNC(C)C)c2cc(OC)cc(OC)c2)c1

>  <score_type>  (17) 
oracle

>  <origin>  (17) 
adgpu

>  <m_score__min__energy>  (17) 
-6.6399999999999997

>  <m_primary>  (17) 
energy

$$$$
17:0
     RDKit          3D

 63 67  0  0  0  0  0  0  0  0999 V2000
   -7.6140   23.4950  -31.1800 C   0  0  0  0  0  0  0  0  0  0  0  0
   -7.8240   21.9760  -31.2040 C   0  0  0  0  0  0  0  0  0  0  0  0
   -9.3190   21.6470  -31.3260 C   0  0  0  0  0  0  0  0  0  0  0  0
   -7.0190   21.3410  -32.3570 C   0  0  0  0  0  0  0  0  0  0  0  0
   -6.9370   19.8710  -32.1950 N   0  0  0  0  0  0  0  0  0  0  0  0
   -7.1610   19.1490  -33.4650 C   0  0  0  0  0  0  0  0  0  0  0  0
   -5.9770   19.2980  -34.4410 C   0  0  0  0  0  0  0  0  0  0  0  0
   -4.5990   19.2510  -33.7440 C   0  0  0  0  0  0  0  0  0  0  0  0
   -4.0690   20.5770  -33.6660 O   0  0  0  0  0  0  0  0  0  0  0  0
   -3.3080   21.1050  -32.6110 C   0  0  0  0  0  0  0  0  0  0  0  0
   -1.9570   20.7870  -32.4140 C   0  0  0  0  0  0  0  0  0  0  0  0
   -1.2550   21.3370  -31.3450 C   0  0  0  0  0  0  0  0  0  0  0  0
   -1.8820   22.2170  -30.4490 C   0  0  0  0  0  0  0  0  0  0  0  0
   -3.2540   22.5590  -30.6360 C   0  0  0  0  0  0  0  0  0  0  0  0
   -3.9380   21.9880  -31.7300 C   0  0  0  0  0  0  0  0  0  0  0  0
   -4.0120   23.5210  -29.6880 C   0  0  0  0  0  0  0  0  0  0  0  0
   -5.2020   22.7780  -29.0440 C   0  0  0  0  0  0  0  0  0  0  0  0
   -4.5220   24.7380  -30.4890 C   0  0  0  0  0  0  0  0  0  0  0  0
   -3.1230   24.0360  -28.5690 C   0  0  0  0  0  0  0  0  0  0  0  0
   -3.5090   24.8920  -27.5900 N   0  0  0  0  0  0  0  0  0  0  0  0
   -2.4210   25.0790  -26.8210 C   0  0  0  0  0  0  0  0  0  0  0  0
   -2.3200   25.8810  -25.6850 C   0  0  0  0  0  0  0  0  0  0  0  0
   -1.0790   25.9360  -25.0240 C   0  0  0  0  0  0  0  0  0  0  0  0
    0.0220   25.1960  -25.5090 C   0  0  0  0  0  0  0  0  0  0  0  0
   -0.1060   24.3940  -26.6570 C   0  0  0  0  0  0  0  0  0  0  0  0
   -1.3480   24.3600  -27.2920 C   0  0  0  0  0  0  0  0  0  0  0  0
   -1.7980   23.6900  -28.4130 C   0  0  0  0  0  0  0  0  0  0  0  0
   -1.1110   22.7820  -29.3200 C   0  0  0  0  0  0  0  0  0  0  0  0
    0.1020   22.4900  -29.1430 O   0  0  0  0  0  0  0  0  0  0  0  0
   -4.7170   18.6370  -32.3400 C   0  0  0  0  0  0  0  0  0  0  0  0
   -5.7150   19.4280  -31.4700 C   0  0  0  0  0  0  0  0  0  0  0  0
   -7.5660   23.8421  -30.1373 H   0  0  0  0  0  0  0  0  0  0  0  0
   -6.6730   23.7432  -31.6927 H   0  0  0  0  0  0  0  0  0  0  0  0
   -8.4524   23.9892  -31.6927 H   0  0  0  0  0  0  0  0  0  0  0  0
   -7.4568   21.5508  -30.2583 H   0  0  0  0  0  0  0  0  0  0  0  0
   -9.7564   21.5507  -30.3213 H   0  0  0  0  0  0  0  0  0  0  0  0
   -9.8288   22.4545  -31.8720 H   0  0  0  0  0  0  0  0  0  0  0  0
   -9.4427   20.7001  -31.8720 H   0  0  0  0  0  0  0  0  0  0  0  0
   -7.5140   21.5714  -33.3119 H   0  0  0  0  0  0  0  0  0  0  0  0
   -5.9996   21.7542  -32.3443 H   0  0  0  0  0  0  0  0  0  0  0  0
   -7.3046   18.0811  -33.2439 H   0  0  0  0  0  0  0  0  0  0  0  0
   -8.0497   19.5834  -33.9462 H   0  0  0  0  0  0  0  0  0  0  0  0
   -6.0248   18.4800  -35.1749 H   0  0  0  0  0  0  0  0  0  0  0  0
   -6.0684   20.2866  -34.9145 H   0  0  0  0  0  0  0  0  0  0  0  0
   -3.9191   18.6166  -34.3316 H   0  0  0  0  0  0  0  0  0  0  0  0
   -1.4494   20.1000  -33.1070 H   0  0  0  0  0  0  0  0  0  0  0  0
   -0.1955   21.0787  -31.2007 H   0  0  0  0  0  0  0  0  0  0  0  0
   -4.9950   22.2447  -31.8937 H   0  0  0  0  0  0  0  0  0  0  0  0
   -5.1177   22.8307  -27.9485 H   0  0  0  0  0  0  0  0  0  0  0  0
   -6.1438   23.2488  -29.3623 H   0  0  0  0  0  0  0  0  0  0  0  0
   -5.1925   21.7251  -29.3623 H   0  0  0  0  0  0  0  0  0  0  0  0
   -4.8511   25.5234  -29.7927 H   0  0  0  0  0  0  0  0  0  0  0  0
   -3.7108   25.1260  -31.1225 H   0  0  0  0  0  0  0  0  0  0  0  0
   -5.3675   24.4318  -31.1225 H   0  0  0  0  0  0  0  0  0  0  0  0
   -4.4520   25.3200  -27.4540 H   0  0  0  0  0  0  0  0  0  0  0  0
   -3.1842   26.4533  -25.3167 H   0  0  0  0  0  0  0  0  0  0  0  0
   -0.9657   26.5589  -24.1244 H   0  0  0  0  0  0  0  0  0  0  0  0
    0.9875   25.2475  -24.9844 H   0  0  0  0  0  0  0  0  0  0  0  0
    0.7449   23.8126  -27.0417 H   0  0  0  0  0  0  0  0  0  0  0  0
   -5.0649   17.5974  -32.4306 H   0  0  0  0  0  0  0  0  0  0  0  0
   -3.7286   18.6735  -31.8586 H   0  0  0  0  0  0  0  0  0  0  0  0
   -6.0246   18.7876  -30.6309 H   0  0  0  0  0  0  0  0  0  0  0  0
   -5.1946   20.3393  -31.1404 H   0  0  0  0  0  0  0  0  0  0  0  0
  1  2  1  0
  2  3  1  0
  2  4  1  0
  4  5  1  0
  5  6  1  0
  6  7  1  0
  7  8  1  0
  8  9  1  0
  9 10  1  0
 10 11  2  0
 11 12  1  0
 12 13  2  0
 13 14  1  0
 14 15  2  0
 14 16  1  0
 16 17  1  0
 16 18  1  0
 16 19  1  0
 19 20  1  0
 20 21  1  0
 21 22  2  0
 22 23  1  0
 23 24  2  0
 24 25  1  0
 25 26  2  0
 26 27  1  0
 27 28  1  0
 28 29  2  0
  8 30  1  0
 30 31  1  0
 31  5  1  0
 15 10  1  0
 27 19  2  0
 28 13  1  0
 26 21  1  0
  1 32  1  0
  1 33  1  0
  1 34  1  0
  2 35  1  0
  3 36  1  0
  3 37  1  0
  3 38  1  0
  4 39  1  0
  4 40  1  0
  6 41  1  0
  6 42  1  0
  7 43  1  0
  7 44  1  0
  8 45  1  0
 11 46  1  0
 12 47  1  0
 15 48  1  0
 17 49  1  0
 17 50  1  0
 17 51  1  0
 18 52  1  0
 18 53  1  0
 18 54  1  0
 20 55  1  0
 22 56  1  0
 23 57  1  0
 24 58  1  0
 25 59  1  0
 30 60  1  0
 30 61  1  0
 31 62  1  0
 31 63  1  0
M  END
>  <UniqueID>  (18) 
17

>  <SMILES>  (18) 
CC(C)CN1CCC(Oc2ccc3c(c2)C(C)(C)c2[nH]c4ccccc4c2C3=O)CC1

>  <Energy>  (18) 
109.95229665759017

>  <Genealogy>  (18) 
CC(C)CN1CCC(Oc2ccc3c(c2)C(C)(C)c2[nH]c4ccccc4c2C3=O)CC1 (3D coordinates assigned)
CC(C)CN1CCC(Oc2ccc3c(c2)C(C)(C)c2[nH]c4ccccc4c2C3=O)CC1 (nonaromatic ring conformer: 109.95229665759017 kcal/mol)

>  <smiles>  (18) 
CC(C)CN1CCC(Oc2ccc3c(c2)C(C)(C)c2[nH]c4ccccc4c2C3=O)CC1

>  <score_type>  (18) 
oracle

>  <origin>  (18) 
adgpu

>  <m_score__min__energy>  (18) 
-9.5800000000000001

>  <m_primary>  (18) 
energy

$$$$
18:0
     RDKit          3D

 43 47  0  0  0  0  0  0  0  0999 V2000
   -8.3886   22.6943  -29.5315 H   0  0  0  0  0  0  0  0  0  0  0  0
   -7.4660   22.4780  -30.0900 C   0  0  0  0  0  0  0  0  0  0  0  0
   -6.4550   22.2410  -30.7020 C   0  0  0  0  0  0  0  0  0  0  0  0
   -5.2500   21.9520  -31.4340 C   0  0  0  0  0  0  0  0  0  0  0  0
   -5.0260   22.5450  -32.6820 C   0  0  0  0  0  0  0  0  0  0  0  0
   -5.7764   23.2268  -33.1087 H   0  0  0  0  0  0  0  0  0  0  0  0
   -3.8500   22.2720  -33.3870 C   0  0  0  0  0  0  0  0  0  0  0  0
   -3.6717   22.7465  -34.3632 H   0  0  0  0  0  0  0  0  0  0  0  0
   -2.9000   21.3960  -32.8520 C   0  0  0  0  0  0  0  0  0  0  0  0
   -1.9686   21.1975  -33.4025 H   0  0  0  0  0  0  0  0  0  0  0  0
   -3.1270   20.7700  -31.6200 C   0  0  0  0  0  0  0  0  0  0  0  0
   -2.1140   19.9010  -31.0850 N   0  0  0  0  0  0  0  0  0  0  0  0
   -1.2320   20.2100  -30.1790 C   0  0  0  0  0  0  0  0  0  0  0  0
   -1.2620   21.4240  -29.5550 N   0  0  0  0  0  0  0  0  0  0  0  0
   -0.3340   21.6890  -28.6070 C   0  0  0  0  0  0  0  0  0  0  0  0
   -0.1310   22.8540  -27.8910 C   0  0  0  0  0  0  0  0  0  0  0  0
   -0.8190   24.0060  -27.8790 C   0  0  0  0  0  0  0  0  0  0  0  0
   -0.3786   24.8583  -27.3409 H   0  0  0  0  0  0  0  0  0  0  0  0
   -2.1240   24.2110  -28.5360 C   0  0  0  0  0  0  0  0  0  0  0  0
   -2.4010   25.2150  -29.3890 N   0  0  0  0  0  0  0  0  0  0  0  0
   -3.6410   24.9190  -29.8340 C   0  0  0  0  0  0  0  0  0  0  0  0
   -4.2570   25.6440  -30.6570 O   0  0  0  0  0  0  0  0  0  0  0  0
   -4.1650   23.7800  -29.3320 N   0  0  0  0  0  0  0  0  0  0  0  0
   -3.1900   23.3380  -28.5210 C   0  0  0  0  0  0  0  0  0  0  0  0
   -3.2850   22.1590  -27.7840 O   0  0  0  0  0  0  0  0  0  0  0  0
   -2.7930   21.3210  -28.0650 H   0  0  0  0  0  0  0  0  0  0  0  0
    1.0260   22.5880  -27.1630 C   0  0  0  0  0  0  0  0  0  0  0  0
    1.5149   23.2942  -26.4757 H   0  0  0  0  0  0  0  0  0  0  0  0
    1.4610   21.3330  -27.4250 N   0  0  0  0  0  0  0  0  0  0  0  0
    0.6220   20.8040  -28.3040 N   0  0  0  0  0  0  0  0  0  0  0  0
    0.6660   19.5780  -28.8990 C   0  0  0  0  0  0  0  0  0  0  0  0
    1.5620   18.6770  -28.6140 N   0  0  0  0  0  0  0  0  0  0  0  0
    2.6460   18.8050  -27.6450 C   0  0  0  0  0  0  0  0  0  0  0  0
    2.0302   19.0167  -26.7584 H   0  0  0  0  0  0  0  0  0  0  0  0
    3.8340   17.9040  -27.9250 C   0  0  0  0  0  0  0  0  0  0  0  0
    4.4261   17.4992  -27.0910 H   0  0  0  0  0  0  0  0  0  0  0  0
    3.9875   16.9708  -28.4867 H   0  0  0  0  0  0  0  0  0  0  0  0
    3.9060   19.3850  -28.2600 C   0  0  0  0  0  0  0  0  0  0  0  0
    4.5501   20.0522  -27.6685 H   0  0  0  0  0  0  0  0  0  0  0  0
    4.1332   19.9681  -29.1646 H   0  0  0  0  0  0  0  0  0  0  0  0
   -0.2810   19.2920  -29.8360 N   0  0  0  0  0  0  0  0  0  0  0  0
   -4.2980   21.0740  -30.8990 C   0  0  0  0  0  0  0  0  0  0  0  0
   -4.4660   20.6200  -29.9112 H   0  0  0  0  0  0  0  0  0  0  0  0
  1  2  1  0
  2  3  3  0
  3  4  1  0
  4  5  2  0
  5  6  1  0
  5  7  1  0
  7  8  1  0
  7  9  2  0
  9 10  1  0
  9 11  1  0
 11 12  1  0
 12 13  2  0
 13 14  1  0
 14 15  2  0
 15 16  1  0
 16 17  2  3
 17 18  1  0
 17 19  1  0
 19 20  1  0
 20 21  1  0
 21 22  2  0
 21 23  1  0
 23 24  1  0
 24 25  1  0
 25 26  1  0
 16 27  1  0
 27 28  1  0
 27 29  2  0
 29 30  1  0
 30 31  1  0
 31 32  2  3
 32 33  1  0
 33 34  1  0
 33 35  1  0
 35 36  1  0
 35 37  1  0
 35 38  1  0
 38 39  1  0
 38 40  1  0
 31 41  1  0
 11 42  2  0
 42 43  1  0
 42  4  1  0
 41 13  1  0
 30 15  1  0
 38 33  1  0
 24 19  2  0
M  CHG  3  20  -1  23  -1  41  -1
M  END
>  <UniqueID>  (19) 
18

>  <SMILES>  (19) 
C#Cc1cccc(/N=c2\nc3c(=Cc4[n-]c(=O)[n-]c4O)cnn3c(=NC3CC3)[n-]2)c1

>  <Energy>  (19) 
389.4797991575806

>  <Genealogy>  (19) 
C#Cc1cccc(N=c2nc3c(=Cc4[n-]c(=O)[n-]c4O)cnn3c(=NC3CC3)[n-]2)c1 (protonated)
C#Cc1cccc(/N=c2\nc3c(=Cc4[n-]c(=O)[n-]c4O)cnn3c(=NC3CC3)[n-]2)c1 (cis-trans isomerization)
C#Cc1cccc(/N=c2\nc3c(=Cc4[n-]c(=O)[n-]c4O)cnn3c(=NC3CC3)[n-]2)c1 (3D coordinates assigned)
C#Cc1cccc(/N=c2\nc3c(=Cc4[n-]c(=O)[n-]c4O)cnn3c(=NC3CC3)[n-]2)c1 (nonaromatic ring conformer: 389.4797991575806 kcal/mol)

>  <smiles>  (19) 
C#Cc1cccc(N=c2nc3c(=Cc4[nH]c(=O)[nH]c4O)cnn3c(=NC3CC3)[nH]2)c1

>  <score_type>  (19) 
oracle

>  <origin>  (19) 
adgpu

>  <m_score__min__energy>  (19) 
-9.4100000000000001

>  <m_primary>  (19) 
energy

$$$$
19:0
     RDKit          3D

 41 43  0  0  0  0  0  0  0  0999 V2000
   -5.5750   16.7640  -34.2090 C   0  0  0  0  0  0  0  0  0  0  0  0
   -6.7920   16.9640  -33.4980 O   0  0  0  0  0  0  0  0  0  0  0  0
   -7.2280   18.2030  -33.0050 C   0  0  0  0  0  0  0  0  0  0  0  0
   -6.6980   19.4260  -33.4620 C   0  0  0  0  0  0  0  0  0  0  0  0
   -7.1630   20.6350  -32.9360 C   0  0  0  0  0  0  0  0  0  0  0  0
   -8.1590   20.6390  -31.9500 C   0  0  0  0  0  0  0  0  0  0  0  0
   -8.7250   22.1550  -31.2550 S   0  0  0  0  0  0  0  0  0  0  0  0
   -8.9390   23.1840  -32.3310 O   0  0  0  0  0  0  0  0  0  0  0  0
  -10.0240   21.9110  -30.5420 O   0  0  0  0  0  0  0  0  0  0  0  0
   -7.5530   22.7560  -30.1300 N   0  0  0  0  0  0  0  0  0  0  0  0
   -6.1860   22.9800  -30.4980 C   0  0  0  0  0  0  0  0  0  0  0  0
   -5.2680   22.0460  -30.9310 C   0  0  0  0  0  0  0  0  0  0  0  0
   -4.0980   22.6870  -31.1480 N   0  0  0  0  0  0  0  0  0  0  0  0
   -2.8610   22.1010  -31.6030 C   0  0  0  0  0  0  0  0  0  0  0  0
   -2.7760   21.5510  -32.8950 C   0  0  0  0  0  0  0  0  0  0  0  0
   -1.5810   20.9840  -33.3490 C   0  0  0  0  0  0  0  0  0  0  0  0
   -0.4570   20.9630  -32.5210 C   0  0  0  0  0  0  0  0  0  0  0  0
   -0.5240   21.5110  -31.2390 C   0  0  0  0  0  0  0  0  0  0  0  0
   -1.7160   22.0790  -30.7800 C   0  0  0  0  0  0  0  0  0  0  0  0
   -4.2410   23.9790  -30.8800 N   0  0  0  0  0  0  0  0  0  0  0  0
   -5.5120   24.1820  -30.4810 C   0  0  0  0  0  0  0  0  0  0  0  0
   -6.0620   25.5090  -30.0770 C   0  0  0  0  0  0  0  0  0  0  0  0
   -8.6910   19.4250  -31.5000 C   0  0  0  0  0  0  0  0  0  0  0  0
   -8.2270   18.2160  -32.0250 C   0  0  0  0  0  0  0  0  0  0  0  0
   -4.7504   16.6285  -33.4936 H   0  0  0  0  0  0  0  0  0  0  0  0
   -5.6627   15.8682  -34.8414 H   0  0  0  0  0  0  0  0  0  0  0  0
   -5.3714   17.6407  -34.8414 H   0  0  0  0  0  0  0  0  0  0  0  0
   -5.9157   19.4295  -34.2353 H   0  0  0  0  0  0  0  0  0  0  0  0
   -6.7457   21.5865  -33.2973 H   0  0  0  0  0  0  0  0  0  0  0  0
   -7.8530   22.9190  -29.1430 H   0  0  0  0  0  0  0  0  0  0  0  0
   -5.4547   20.9715  -31.0741 H   0  0  0  0  0  0  0  0  0  0  0  0
   -3.6569   21.5671  -33.5536 H   0  0  0  0  0  0  0  0  0  0  0  0
   -1.5265   20.5539  -34.3600 H   0  0  0  0  0  0  0  0  0  0  0  0
    0.4815   20.5145  -32.8790 H   0  0  0  0  0  0  0  0  0  0  0  0
    0.3630   21.4959  -30.5886 H   0  0  0  0  0  0  0  0  0  0  0  0
   -1.7612   22.5118  -29.7698 H   0  0  0  0  0  0  0  0  0  0  0  0
   -6.0896   25.5757  -28.9794 H   0  0  0  0  0  0  0  0  0  0  0  0
   -5.4212   26.3087  -30.4769 H   0  0  0  0  0  0  0  0  0  0  0  0
   -7.0806   25.6209  -30.4769 H   0  0  0  0  0  0  0  0  0  0  0  0
   -9.4770   19.4227  -30.7305 H   0  0  0  0  0  0  0  0  0  0  0  0
   -8.6504   17.2667  -31.6651 H   0  0  0  0  0  0  0  0  0  0  0  0
  1  2  1  0
  2  3  1  0
  3  4  2  0
  4  5  1  0
  5  6  2  0
  6  7  1  0
  7  8  2  0
  7  9  2  0
  7 10  1  0
 10 11  1  0
 11 12  2  0
 12 13  1  0
 13 14  1  0
 14 15  2  0
 15 16  1  0
 16 17  2  0
 17 18  1  0
 18 19  2  0
 13 20  1  0
 20 21  2  0
 21 22  1  0
  6 23  1  0
 23 24  2  0
 24  3  1  0
 21 11  1  0
 19 14  1  0
  1 25  1  0
  1 26  1  0
  1 27  1  0
  4 28  1  0
  5 29  1  0
 10 30  1  0
 12 31  1  0
 15 32  1  0
 16 33  1  0
 17 34  1  0
 18 35  1  0
 19 36  1  0
 22 37  1  0
 22 38  1  0
 22 39  1  0
 23 40  1  0
 24 41  1  0
M  END
>  <UniqueID>  (20) 
19

>  <SMILES>  (20) 
COc1ccc(S(=O)(=O)Nc2cn(-c3ccccc3)nc2C)cc1

>  <Energy>  (20) 
75.7187515670642

>  <Genealogy>  (20) 
COc1ccc(S(=O)(=O)Nc2cn(-c3ccccc3)nc2C)cc1 (3D coordinates assigned)
COc1ccc(S(=O)(=O)Nc2cn(-c3ccccc3)nc2C)cc1 (optimized conformer: 75.7187515670642 kcal/mol)

>  <smiles>  (20) 
COc1ccc(S(=O)(=O)Nc2cn(-c3ccccc3)nc2C)cc1

>  <score_type>  (20) 
oracle

>  <origin>  (20) 
adgpu

>  <m_score__min__energy>  (20) 
-8.7300000000000004

>  <m_primary>  (20) 
energy

$$$$
20:0
     RDKit          3D

 58 61  0  0  0  0  0  0  0  0999 V2000
   -9.2250   18.9230  -32.3870 C   0  0  0  0  0  0  0  0  0  0  0  0
   -9.5900   20.4000  -32.3050 C   0  0  0  0  0  0  0  0  0  0  0  0
   -8.4980   21.2060  -32.7400 O   0  0  0  0  0  0  0  0  0  0  0  0
   -8.2930   22.5230  -32.3120 C   0  0  0  0  0  0  0  0  0  0  0  0
   -9.0570   23.4490  -32.6990 O   0  0  0  0  0  0  0  0  0  0  0  0
   -7.2000   22.8180  -31.4330 N   0  0  0  0  0  0  0  0  0  0  0  0
   -6.5870   24.1490  -31.3130 C   0  0  0  0  0  0  0  0  0  0  0  0
   -5.5530   23.9180  -30.2800 C   0  0  0  0  0  0  0  0  0  0  0  0
   -5.5280   22.6320  -29.8700 C   0  0  0  0  0  0  0  0  0  0  0  0
   -4.2570   22.3820  -29.3910 C   0  0  0  0  0  0  0  0  0  0  0  0
   -3.7760   21.1270  -29.0220 O   0  0  0  0  0  0  0  0  0  0  0  0
   -3.5150   23.5170  -29.4510 N   0  0  0  0  0  0  0  0  0  0  0  0
   -2.1240   23.6580  -29.1250 C   0  0  0  0  0  0  0  0  0  0  0  0
   -1.6930   24.7520  -28.3620 C   0  0  0  0  0  0  0  0  0  0  0  0
   -0.3430   24.9060  -28.0440 C   0  0  0  0  0  0  0  0  0  0  0  0
    0.6000   23.9710  -28.4790 C   0  0  0  0  0  0  0  0  0  0  0  0
    1.9450   24.1740  -28.1360 O   0  0  0  0  0  0  0  0  0  0  0  0
    2.3930   25.0690  -27.1240 C   0  0  0  0  0  0  0  0  0  0  0  0
    0.1720   22.8650  -29.2410 C   0  0  0  0  0  0  0  0  0  0  0  0
   -1.1890   22.7010  -29.5630 C   0  0  0  0  0  0  0  0  0  0  0  0
   -1.6520   21.5980  -30.3010 O   0  0  0  0  0  0  0  0  0  0  0  0
   -1.5120   21.4510  -31.7090 C   0  0  0  0  0  0  0  0  0  0  0  0
   -4.2980   24.4420  -30.0590 C   0  0  0  0  0  0  0  0  0  0  0  0
   -3.8670   25.6990  -30.4640 O   0  0  0  0  0  0  0  0  0  0  0  0
   -6.5470   21.8140  -30.5760 C   0  0  2  0  0  0  0  0  0  0  0  0
   -5.9170   20.7160  -31.4080 C   0  0  0  0  0  0  0  0  0  0  0  0
   -4.8770   21.0010  -32.3110 C   0  0  0  0  0  0  0  0  0  0  0  0
   -4.3080   19.9820  -33.0800 C   0  0  0  0  0  0  0  0  0  0  0  0
   -4.7690   18.6590  -32.9570 C   0  0  0  0  0  0  0  0  0  0  0  0
   -4.2330   17.6020  -33.7080 O   0  0  0  0  0  0  0  0  0  0  0  0
   -4.9990   16.5270  -34.2440 C   0  0  0  0  0  0  0  0  0  0  0  0
   -5.8010   18.3770  -32.0550 C   0  0  0  0  0  0  0  0  0  0  0  0
   -6.3690   19.3940  -31.2850 C   0  0  0  0  0  0  0  0  0  0  0  0
   -9.1238   18.5134  -31.3711 H   0  0  0  0  0  0  0  0  0  0  0  0
  -10.0158   18.3792  -32.9245 H   0  0  0  0  0  0  0  0  0  0  0  0
   -8.2719   18.8101  -32.9245 H   0  0  0  0  0  0  0  0  0  0  0  0
  -10.4621   20.5941  -32.9467 H   0  0  0  0  0  0  0  0  0  0  0  0
   -9.8260   20.6520  -31.2606 H   0  0  0  0  0  0  0  0  0  0  0  0
   -6.1373   24.4694  -32.2644 H   0  0  0  0  0  0  0  0  0  0  0  0
   -7.3011   24.9453  -31.0562 H   0  0  0  0  0  0  0  0  0  0  0  0
   -2.8960   20.7710  -29.3740 H   0  0  0  0  0  0  0  0  0  0  0  0
   -2.4245   25.4948  -28.0112 H   0  0  0  0  0  0  0  0  0  0  0  0
   -0.0185   25.7704  -27.4461 H   0  0  0  0  0  0  0  0  0  0  0  0
    2.1783   24.6402  -26.1340 H   0  0  0  0  0  0  0  0  0  0  0  0
    3.4766   25.2272  -27.2279 H   0  0  0  0  0  0  0  0  0  0  0  0
    1.8703   26.0313  -27.2279 H   0  0  0  0  0  0  0  0  0  0  0  0
    0.9074   22.1238  -29.5870 H   0  0  0  0  0  0  0  0  0  0  0  0
   -0.7680   20.6698  -31.9239 H   0  0  0  0  0  0  0  0  0  0  0  0
   -2.4803   21.1654  -32.1459 H   0  0  0  0  0  0  0  0  0  0  0  0
   -1.1795   22.4042  -32.1459 H   0  0  0  0  0  0  0  0  0  0  0  0
   -7.2311   21.2867  -29.8948 H   0  0  0  0  0  0  0  0  0  0  0  0
   -4.5090   22.0326  -32.4127 H   0  0  0  0  0  0  0  0  0  0  0  0
   -3.4961   20.2158  -33.7844 H   0  0  0  0  0  0  0  0  0  0  0  0
   -5.4226   15.9326  -33.4211 H   0  0  0  0  0  0  0  0  0  0  0  0
   -5.8144   16.9304  -34.8624 H   0  0  0  0  0  0  0  0  0  0  0  0
   -4.3515   15.8880  -34.8624 H   0  0  0  0  0  0  0  0  0  0  0  0
   -6.1680   17.3452  -31.9516 H   0  0  0  0  0  0  0  0  0  0  0  0
   -7.1767   19.1566  -30.5769 H   0  0  0  0  0  0  0  0  0  0  0  0
  1  2  1  0
  2  3  1  0
  3  4  1  0
  4  5  2  0
  4  6  1  0
  6  7  1  0
  7  8  1  0
  8  9  1  0
  9 10  2  0
 10 11  1  0
 10 12  1  0
 12 13  1  0
 13 14  2  0
 14 15  1  0
 15 16  2  0
 16 17  1  0
 17 18  1  0
 16 19  1  0
 19 20  2  0
 20 21  1  0
 21 22  1  0
 12 23  1  0
 23 24  1  0
  9 25  1  0
 25 26  1  0
 26 27  2  0
 27 28  1  0
 28 29  2  0
 29 30  1  0
 30 31  1  0
 29 32  1  0
 32 33  2  0
 25  6  1  0
 33 26  1  0
 23  8  2  0
 20 13  1  0
  1 34  1  0
  1 35  1  0
  1 36  1  0
  2 37  1  0
  2 38  1  0
  7 39  1  0
  7 40  1  0
 11 41  1  0
 14 42  1  0
 15 43  1  0
 18 44  1  0
 18 45  1  0
 18 46  1  0
 19 47  1  0
 22 48  1  0
 22 49  1  0
 22 50  1  0
 25 51  1  1
 27 52  1  0
 28 53  1  0
 31 54  1  0
 31 55  1  0
 31 56  1  0
 32 57  1  0
 33 58  1  0
M  CHG  1  24  -1
M  END
>  <UniqueID>  (21) 
20

>  <SMILES>  (21) 
CCOC(=O)N1Cc2c(c(O)n(-c3ccc(OC)cc3OC)c2[O-])[C@@H]1c1ccc(OC)cc1

>  <Energy>  (21) 
114.53994771780415

>  <Genealogy>  (21) 
CCOC(=O)N1Cc2c(c(O)n(-c3ccc(OC)cc3OC)c2[O-])C1c1ccc(OC)cc1 (protonated)
CCOC(=O)N1Cc2c(c(O)n(-c3ccc(OC)cc3OC)c2[O-])[C@@H]1c1ccc(OC)cc1 (chirality)
CCOC(=O)N1Cc2c(c(O)n(-c3ccc(OC)cc3OC)c2[O-])[C@@H]1c1ccc(OC)cc1 (3D coordinates assigned)
CCOC(=O)N1Cc2c(c(O)n(-c3ccc(OC)cc3OC)c2[O-])[C@@H]1c1ccc(OC)cc1 (nonaromatic ring conformer: 114.53994771780415 kcal/mol)

>  <smiles>  (21) 
CCOC(=O)N1Cc2c(c(O)n(-c3ccc(OC)cc3OC)c2O)C1c1ccc(OC)cc1

>  <score_type>  (21) 
oracle

>  <origin>  (21) 
adgpu

>  <m_score__min__energy>  (21) 
-8.7799999999999994

>  <m_primary>  (21) 
energy

$$$$
21:0
     RDKit          3D

 30 32  0  0  0  0  0  0  0  0999 V2000
   -3.8780   26.4200  -30.1640 H   0  0  0  0  0  0  0  0  0  0  0  0
   -4.8080   26.0500  -30.4610 N   0  0  0  0  0  0  0  0  0  0  0  0
   -4.9480   24.8390  -30.8910 C   0  0  0  0  0  0  0  0  0  0  0  0
   -3.8740   24.0060  -30.9620 N   0  0  0  0  0  0  0  0  0  0  0  0
   -3.9980   22.7300  -31.4130 C   0  0  0  0  0  0  0  0  0  0  0  0
   -3.1181   22.0715  -31.4591 H   0  0  0  0  0  0  0  0  0  0  0  0
   -5.2570   22.2570  -31.8200 C   0  0  0  0  0  0  0  0  0  0  0  0
   -5.4510   20.8690  -32.3010 C   0  0  0  0  0  0  0  0  0  0  0  0
   -6.5500   20.1290  -31.8420 C   0  0  0  0  0  0  0  0  0  0  0  0
   -7.2547   20.5857  -31.1315 H   0  0  0  0  0  0  0  0  0  0  0  0
   -6.7600   18.8180  -32.2770 C   0  0  0  0  0  0  0  0  0  0  0  0
   -7.6234   18.2505  -31.8995 H   0  0  0  0  0  0  0  0  0  0  0  0
   -5.8780   18.2170  -33.1930 C   0  0  0  0  0  0  0  0  0  0  0  0
   -6.0950   16.8240  -33.6560 C   0  0  0  0  0  0  0  0  0  0  0  0
   -7.2390   16.3660  -34.1150 O   0  0  0  0  0  0  0  0  0  0  0  0
   -7.1520   15.1100  -34.4460 N   0  0  0  0  0  0  0  0  0  0  0  0
   -5.8840   14.7330  -34.2020 C   0  0  0  0  0  0  0  0  0  0  0  0
   -5.3760   13.3410  -34.3840 C   0  0  0  0  0  0  0  0  0  0  0  0
   -5.2079   12.8804  -33.3993 H   0  0  0  0  0  0  0  0  0  0  0  0
   -6.1166   12.7506  -34.9434 H   0  0  0  0  0  0  0  0  0  0  0  0
   -4.4292   13.3664  -34.9434 H   0  0  0  0  0  0  0  0  0  0  0  0
   -5.1730   15.7920  -33.6830 C   0  0  0  0  0  0  0  0  0  0  0  0
   -4.1202   15.8129  -33.3648 H   0  0  0  0  0  0  0  0  0  0  0  0
   -4.7830   18.9650  -33.6690 C   0  0  0  0  0  0  0  0  0  0  0  0
   -3.9180   18.4330  -34.5710 F   0  0  0  0  0  0  0  0  0  0  0  0
   -4.5740   20.2780  -33.2320 C   0  0  0  0  0  0  0  0  0  0  0  0
   -3.5400   20.9840  -33.7590 F   0  0  0  0  0  0  0  0  0  0  0  0
   -6.3280   23.0920  -31.7290 N   0  0  0  0  0  0  0  0  0  0  0  0
   -6.2040   24.3680  -31.2790 C   0  0  0  0  0  0  0  0  0  0  0  0
   -7.0850   25.0241  -31.2208 H   0  0  0  0  0  0  0  0  0  0  0  0
  1  2  1  0
  2  3  2  0
  3  4  1  0
  4  5  1  0
  5  6  1  0
  5  7  2  0
  7  8  1  0
  8  9  2  0
  9 10  1  0
  9 11  1  0
 11 12  1  0
 11 13  2  0
 13 14  1  0
 14 15  1  0
 15 16  1  0
 16 17  2  0
 17 18  1  0
 18 19  1  0
 18 20  1  0
 18 21  1  0
 17 22  1  0
 22 23  1  0
 13 24  1  0
 24 25  1  0
 24 26  2  0
 26 27  1  0
  7 28  1  0
 28 29  2  0
 29 30  1  0
 29  3  1  0
 26  8  1  0
 22 14  2  0
M  CHG  1   4  -1
M  END
>  <UniqueID>  (22) 
21

>  <SMILES>  (22) 
[H]/N=c1/cnc(-c2ccc(-c3cc(C)no3)c(F)c2F)c[n-]1

>  <Energy>  (22) 
70.76518115060085

>  <Genealogy>  (22) 
Cc1cc(-c2ccc(-c3c[n-]c(=N)cn3)c(F)c2F)on1 (protonated)
[H]/N=c1/cnc(-c2ccc(-c3cc(C)no3)c(F)c2F)c[n-]1 (cis-trans isomerization)
[H]/N=c1/cnc(-c2ccc(-c3cc(C)no3)c(F)c2F)c[n-]1 (3D coordinates assigned)
[H]/N=c1/cnc(-c2ccc(-c3cc(C)no3)c(F)c2F)c[n-]1 (optimized conformer: 70.76518115060085 kcal/mol)

>  <smiles>  (22) 
Cc1cc(-c2ccc(-c3c[nH]c(=N)cn3)c(F)c2F)on1

>  <score_type>  (22) 
oracle

>  <origin>  (22) 
adgpu

>  <m_score__min__energy>  (22) 
-8.3000000000000007

>  <m_primary>  (22) 
energy

$$$$
22:0
     RDKit          3D

 27 28  0  0  0  0  0  0  0  0999 V2000
   -6.5700   20.8520  -31.8380 C   0  0  0  0  0  0  0  0  0  0  0  0
   -5.8490   22.1200  -31.4880 C   0  0  0  0  0  0  0  0  0  0  0  0
   -6.5190   23.3500  -31.5380 C   0  0  0  0  0  0  0  0  0  0  0  0
   -5.8540   24.5280  -31.1900 C   0  0  0  0  0  0  0  0  0  0  0  0
   -4.5210   24.4870  -30.7690 C   0  0  0  0  0  0  0  0  0  0  0  0
   -3.8620   25.6770  -30.4830 O   0  0  0  0  0  0  0  0  0  0  0  0
   -3.8540   23.2500  -30.6680 C   0  0  0  0  0  0  0  0  0  0  0  0
   -2.5240   23.1570  -30.2360 O   0  0  0  0  0  0  0  0  0  0  0  0
   -2.0280   23.7500  -29.0680 C   0  0  0  0  0  0  0  0  0  0  0  0
   -1.7320   22.9990  -27.9730 N   0  0  0  0  0  0  0  0  0  0  0  0
   -1.2360   23.5750  -26.8500 C   0  0  0  0  0  0  0  0  0  0  0  0
   -0.9740   22.8600  -25.8460 O   0  0  0  0  0  0  0  0  0  0  0  0
   -1.0230   24.9580  -26.8270 C   0  0  0  0  0  0  0  0  0  0  0  0
   -0.4750   25.6500  -25.6160 C   0  0  0  0  0  0  0  0  0  0  0  0
   -1.3190   25.6760  -27.9410 N   0  0  0  0  0  0  0  0  0  0  0  0
   -1.8060   25.0900  -29.0360 N   0  0  0  0  0  0  0  0  0  0  0  0
   -4.5180   22.0770  -31.0440 C   0  0  0  0  0  0  0  0  0  0  0  0
   -6.8658   20.3317  -30.9151 H   0  0  0  0  0  0  0  0  0  0  0  0
   -7.4672   21.0912  -32.4278 H   0  0  0  0  0  0  0  0  0  0  0  0
   -5.9057   20.2033  -32.4278 H   0  0  0  0  0  0  0  0  0  0  0  0
   -7.5724   23.3878  -31.8525 H   0  0  0  0  0  0  0  0  0  0  0  0
   -6.3809   25.4919  -31.2473 H   0  0  0  0  0  0  0  0  0  0  0  0
   -0.8612   25.1623  -24.7088 H   0  0  0  0  0  0  0  0  0  0  0  0
    0.6233   25.5902  -25.6251 H   0  0  0  0  0  0  0  0  0  0  0  0
   -0.7849   26.7054  -25.6251 H   0  0  0  0  0  0  0  0  0  0  0  0
   -2.0200   25.6730  -29.8760 H   0  0  0  0  0  0  0  0  0  0  0  0
   -3.9921   21.1123  -30.9912 H   0  0  0  0  0  0  0  0  0  0  0  0
  1  2  1  0
  2  3  2  0
  3  4  1  0
  4  5  2  0
  5  6  1  0
  5  7  1  0
  7  8  1  0
  8  9  1  0
  9 10  2  0
 10 11  1  0
 11 12  2  0
 11 13  1  0
 13 14  1  0
 13 15  2  0
 15 16  1  0
  7 17  2  0
 17  2  1  0
 16  9  1  0
  1 18  1  0
  1 19  1  0
  1 20  1  0
  3 21  1  0
  4 22  1  0
 14 23  1  0
 14 24  1  0
 14 25  1  0
 16 26  1  0
 17 27  1  0
M  CHG  1   6  -1
M  END
>  <UniqueID>  (23) 
22

>  <SMILES>  (23) 
Cc1ccc([O-])c(Oc2nc(=O)c(C)n[nH]2)c1

>  <Energy>  (23) 
33.974921810149986

>  <Genealogy>  (23) 
Cc1ccc([O-])c(Oc2nc(=O)c(C)n[nH]2)c1 (protonated)
Cc1ccc([O-])c(Oc2nc(=O)c(C)n[nH]2)c1 (3D coordinates assigned)
Cc1ccc([O-])c(Oc2nc(=O)c(C)n[nH]2)c1 (optimized conformer: 33.974921810149986 kcal/mol)

>  <smiles>  (23) 
Cc1ccc(O)c(Oc2nc(=O)c(C)n[nH]2)c1

>  <score_type>  (23) 
oracle

>  <origin>  (23) 
adgpu

>  <m_score__min__energy>  (23) 
-9.9800000000000004

>  <m_primary>  (23) 
energy

$$$$
23:0
     RDKit          3D

 40 43  0  0  0  0  0  0  0  0999 V2000
   -8.1670   18.5330  -32.0900 C   0  0  0  0  0  0  0  0  0  0  0  0
   -8.7880   19.3770  -31.1630 C   0  0  0  0  0  0  0  0  0  0  0  0
   -8.5930   20.7600  -31.2340 C   0  0  0  0  0  0  0  0  0  0  0  0
   -7.7780   21.3020  -32.2360 C   0  0  0  0  0  0  0  0  0  0  0  0
   -7.5390   23.0750  -32.3360 S   0  0  0  0  0  0  0  0  0  0  0  0
   -5.8010   22.9390  -31.9430 C   0  0  0  0  0  0  0  0  0  0  0  0
   -5.2160   23.8610  -31.1390 N   0  0  0  0  0  0  0  0  0  0  0  0
   -3.8890   23.7980  -30.8450 C   0  0  0  0  0  0  0  0  0  0  0  0
   -3.2580   24.7810  -30.0060 N   0  0  0  0  0  0  0  0  0  0  0  0
   -2.1660   24.6400  -29.3120 C   0  0  0  0  0  0  0  0  0  0  0  0
   -1.7120   25.6900  -28.5760 N   0  0  0  0  0  0  0  0  0  0  0  0
   -0.5800   25.5890  -27.8300 C   0  0  0  0  0  0  0  0  0  0  0  0
    0.1340   24.3920  -27.8090 C   0  0  0  0  0  0  0  0  0  0  0  0
   -0.3420   23.3230  -28.5650 C   0  0  0  0  0  0  0  0  0  0  0  0
   -1.4760   23.4640  -29.2980 N   0  0  0  0  0  0  0  0  0  0  0  0
   -3.1170   22.7590  -31.3730 C   0  0  0  0  0  0  0  0  0  0  0  0
   -3.7340   21.8050  -32.2010 C   0  0  0  0  0  0  0  0  0  0  0  0
   -2.9710   20.6870  -32.8120 C   0  0  0  0  0  0  0  0  0  0  0  0
   -3.6040   19.4880  -33.1950 C   0  0  0  0  0  0  0  0  0  0  0  0
   -2.8660   18.4530  -33.7760 C   0  0  0  0  0  0  0  0  0  0  0  0
   -1.4930   18.6000  -33.9850 C   0  0  0  0  0  0  0  0  0  0  0  0
   -0.8560   19.7870  -33.6190 C   0  0  0  0  0  0  0  0  0  0  0  0
   -1.5880   20.8260  -33.0400 C   0  0  0  0  0  0  0  0  0  0  0  0
   -5.0640   21.9280  -32.4690 N   0  0  0  0  0  0  0  0  0  0  0  0
   -7.1550   20.4560  -33.1620 C   0  0  0  0  0  0  0  0  0  0  0  0
   -7.3510   19.0730  -33.0900 C   0  0  0  0  0  0  0  0  0  0  0  0
   -8.3202   17.4452  -32.0327 H   0  0  0  0  0  0  0  0  0  0  0  0
   -9.4303   18.9523  -30.3775 H   0  0  0  0  0  0  0  0  0  0  0  0
   -9.0797   21.4223  -30.5029 H   0  0  0  0  0  0  0  0  0  0  0  0
   -0.2280   26.4506  -27.2438 H   0  0  0  0  0  0  0  0  0  0  0  0
    1.0513   24.2938  -27.2099 H   0  0  0  0  0  0  0  0  0  0  0  0
    0.2003   22.3660  -28.5680 H   0  0  0  0  0  0  0  0  0  0  0  0
   -2.0434   22.6890  -31.1441 H   0  0  0  0  0  0  0  0  0  0  0  0
   -4.6855   19.3657  -33.0358 H   0  0  0  0  0  0  0  0  0  0  0  0
   -3.3683   17.5195  -34.0696 H   0  0  0  0  0  0  0  0  0  0  0  0
   -0.9142   17.7814  -34.4375 H   0  0  0  0  0  0  0  0  0  0  0  0
    0.2248   19.9043  -33.7870 H   0  0  0  0  0  0  0  0  0  0  0  0
   -1.0802   21.7607  -32.7597 H   0  0  0  0  0  0  0  0  0  0  0  0
   -6.5109   20.8796  -33.9467 H   0  0  0  0  0  0  0  0  0  0  0  0
   -6.8635   18.4098  -33.8197 H   0  0  0  0  0  0  0  0  0  0  0  0
  1  2  2  0
  2  3  1  0
  3  4  2  0
  4  5  1  0
  5  6  1  0
  6  7  2  0
  7  8  1  0
  8  9  1  0
  9 10  2  3
 10 11  1  0
 11 12  2  0
 12 13  1  0
 13 14  2  0
 14 15  1  0
  8 16  2  0
 16 17  1  0
 17 18  1  0
 18 19  2  0
 19 20  1  0
 20 21  2  0
 21 22  1  0
 22 23  2  0
 17 24  2  0
  4 25  1  0
 25 26  2  0
 26  1  1  0
 24  6  1  0
 15 10  1  0
 23 18  1  0
  1 27  1  0
  2 28  1  0
  3 29  1  0
 12 30  1  0
 13 31  1  0
 14 32  1  0
 16 33  1  0
 19 34  1  0
 20 35  1  0
 21 36  1  0
 22 37  1  0
 23 38  1  0
 25 39  1  0
 26 40  1  0
M  CHG  1  15  -1
M  END
>  <UniqueID>  (24) 
23

>  <SMILES>  (24) 
c1ccc(Sc2nc(N=c3nccc[n-]3)cc(-c3ccccc3)n2)cc1

>  <Energy>  (24) 
48.69352486085114

>  <Genealogy>  (24) 
c1ccc(Sc2nc(N=c3nccc[n-]3)cc(-c3ccccc3)n2)cc1 (protonated)
c1ccc(Sc2nc(N=c3nccc[n-]3)cc(-c3ccccc3)n2)cc1 (3D coordinates assigned)
c1ccc(Sc2nc(N=c3nccc[n-]3)cc(-c3ccccc3)n2)cc1 (optimized conformer: 48.69352486085114 kcal/mol)

>  <smiles>  (24) 
c1ccc(Sc2nc(N=c3nccc[nH]3)cc(-c3ccccc3)n2)cc1

>  <score_type>  (24) 
oracle

>  <origin>  (24) 
adgpu

>  <m_score__min__energy>  (24) 
-10.26

>  <m_primary>  (24) 
energy

$$$$
24:0
     RDKit          3D

 37 39  0  0  0  0  0  0  0  0999 V2000
   -4.1030   24.9490  -30.5790 O   0  0  0  0  0  0  0  0  0  0  0  0
   -3.8330   23.7220  -30.4650 C   0  0  0  0  0  0  0  0  0  0  0  0
   -4.3390   22.8000  -31.4080 C   0  0  0  0  0  0  0  0  0  0  0  0
   -5.2040   23.1940  -32.4920 N   0  0  0  0  0  0  0  0  0  0  0  0
   -6.6310   23.4840  -32.3400 C   0  0  0  0  0  0  0  0  0  0  0  0
   -7.4300   22.2090  -32.2490 C   0  0  0  0  0  0  0  0  0  0  0  0
   -8.7200   22.2270  -31.6940 C   0  0  0  0  0  0  0  0  0  0  0  0
   -9.4750   21.0510  -31.6280 C   0  0  0  0  0  0  0  0  0  0  0  0
   -8.9470   19.8520  -32.1160 C   0  0  0  0  0  0  0  0  0  0  0  0
   -7.6640   19.8260  -32.6680 C   0  0  0  0  0  0  0  0  0  0  0  0
   -6.9050   20.9990  -32.7340 C   0  0  0  0  0  0  0  0  0  0  0  0
   -3.9810   21.4540  -31.2880 C   0  0  0  0  0  0  0  0  0  0  0  0
   -3.1780   21.0320  -30.2330 C   0  0  0  0  0  0  0  0  0  0  0  0
   -2.7230   21.9640  -29.3040 C   0  0  0  0  0  0  0  0  0  0  0  0
   -3.0410   23.2880  -29.4290 N   0  0  0  0  0  0  0  0  0  0  0  0
   -2.5300   24.2160  -28.4520 C   0  0  0  0  0  0  0  0  0  0  0  0
   -3.1940   24.3920  -27.2260 C   0  0  0  0  0  0  0  0  0  0  0  0
   -2.6950   25.2880  -26.2760 C   0  0  0  0  0  0  0  0  0  0  0  0
   -1.5290   26.0110  -26.5390 C   0  0  0  0  0  0  0  0  0  0  0  0
   -0.8580   25.8370  -27.7530 C   0  0  0  0  0  0  0  0  0  0  0  0
   -1.3540   24.9430  -28.7070 C   0  0  0  0  0  0  0  0  0  0  0  0
   -4.8560   23.0540  -33.4680 H   0  0  0  0  0  0  0  0  0  0  0  0
   -6.7838   24.0715  -31.4227 H   0  0  0  0  0  0  0  0  0  0  0  0
   -6.9710   24.0510  -33.2192 H   0  0  0  0  0  0  0  0  0  0  0  0
   -9.1382   23.1691  -31.3098 H   0  0  0  0  0  0  0  0  0  0  0  0
  -10.4847   21.0698  -31.1919 H   0  0  0  0  0  0  0  0  0  0  0  0
   -9.5423   18.9284  -32.0653 H   0  0  0  0  0  0  0  0  0  0  0  0
   -7.2500   18.8817  -33.0513 H   0  0  0  0  0  0  0  0  0  0  0  0
   -5.8940   20.9743  -33.1669 H   0  0  0  0  0  0  0  0  0  0  0  0
   -4.3359   20.7249  -32.0313 H   0  0  0  0  0  0  0  0  0  0  0  0
   -2.9049   19.9711  -30.1337 H   0  0  0  0  0  0  0  0  0  0  0  0
   -2.1008   21.6315  -28.4601 H   0  0  0  0  0  0  0  0  0  0  0  0
   -4.1105   23.8222  -27.0129 H   0  0  0  0  0  0  0  0  0  0  0  0
   -3.2214   25.4239  -25.3197 H   0  0  0  0  0  0  0  0  0  0  0  0
   -1.1389   26.7170  -25.7911 H   0  0  0  0  0  0  0  0  0  0  0  0
    0.0618   26.4044  -27.9582 H   0  0  0  0  0  0  0  0  0  0  0  0
   -0.8222   24.8081  -29.6604 H   0  0  0  0  0  0  0  0  0  0  0  0
  1  2  2  0
  2  3  1  0
  3  4  1  0
  4  5  1  0
  5  6  1  0
  6  7  2  0
  7  8  1  0
  8  9  2  0
  9 10  1  0
 10 11  2  0
  3 12  2  0
 12 13  1  0
 13 14  2  0
 14 15  1  0
 15 16  1  0
 16 17  2  0
 17 18  1  0
 18 19  2  0
 19 20  1  0
 20 21  2  0
 15  2  1  0
 21 16  1  0
 11  6  1  0
  4 22  1  0
  5 23  1  0
  5 24  1  0
  7 25  1  0
  8 26  1  0
  9 27  1  0
 10 28  1  0
 11 29  1  0
 12 30  1  0
 13 31  1  0
 14 32  1  0
 17 33  1  0
 18 34  1  0
 19 35  1  0
 20 36  1  0
 21 37  1  0
M  END
>  <UniqueID>  (25) 
24

>  <SMILES>  (25) 
O=c1c(NCc2ccccc2)cccn1-c1ccccc1

>  <Energy>  (25) 
50.79917038776665

>  <Genealogy>  (25) 
O=c1c(NCc2ccccc2)cccn1-c1ccccc1 (3D coordinates assigned)
O=c1c(NCc2ccccc2)cccn1-c1ccccc1 (optimized conformer: 50.79917038776665 kcal/mol)

>  <smiles>  (25) 
O=c1c(NCc2ccccc2)cccn1-c1ccccc1

>  <score_type>  (25) 
oracle

>  <origin>  (25) 
adgpu

>  <m_score__min__energy>  (25) 
-8.1699999999999999

>  <m_primary>  (25) 
energy

$$$$
25:0
     RDKit          3D

 27 28  0  0  0  0  0  0  0  0999 V2000
   -2.2030   20.0710  -27.1860 C   0  0  0  0  0  0  0  0  0  0  0  0
   -2.7070   21.3760  -27.7040 C   0  0  0  0  0  0  0  0  0  0  0  0
   -1.9930   22.2820  -28.4560 C   0  0  0  0  0  0  0  0  0  0  0  0
   -2.8930   23.3110  -28.6500 C   0  0  0  0  0  0  0  0  0  0  0  0
   -2.6440   24.5510  -29.3950 C   0  0  0  0  0  0  0  0  0  0  0  0
   -1.6680   25.2840  -29.0800 O   0  0  0  0  0  0  0  0  0  0  0  0
   -3.5220   24.9330  -30.4600 N   0  0  0  0  0  0  0  0  0  0  0  0
   -4.7940   24.3210  -30.7090 C   0  0  0  0  0  0  0  0  0  0  0  0
   -5.9390   24.9620  -30.2210 C   0  0  0  0  0  0  0  0  0  0  0  0
   -7.2050   24.4340  -30.4690 C   0  0  0  0  0  0  0  0  0  0  0  0
   -7.3400   23.2560  -31.2040 C   0  0  0  0  0  0  0  0  0  0  0  0
   -6.2080   22.5820  -31.6720 C   0  0  0  0  0  0  0  0  0  0  0  0
   -6.4530   21.1040  -32.5990 Cl  0  0  0  0  0  0  0  0  0  0  0  0
   -4.9160   23.0870  -31.4000 C   0  0  0  0  0  0  0  0  0  0  0  0
   -3.6960   22.3150  -31.8420 C   0  0  0  0  0  0  0  0  0  0  0  0
   -4.0590   23.0190  -28.0420 N   0  0  0  0  0  0  0  0  0  0  0  0
   -3.9100   21.8520  -27.4840 O   0  0  0  0  0  0  0  0  0  0  0  0
   -2.2089   20.0862  -26.0861 H   0  0  0  0  0  0  0  0  0  0  0  0
   -2.8521   19.2587  -27.5450 H   0  0  0  0  0  0  0  0  0  0  0  0
   -1.1764   19.9058  -27.5450 H   0  0  0  0  0  0  0  0  0  0  0  0
   -0.9562   22.2047  -28.8153 H   0  0  0  0  0  0  0  0  0  0  0  0
   -5.8388   25.8891  -29.6376 H   0  0  0  0  0  0  0  0  0  0  0  0
   -8.0989   24.9470  -30.0846 H   0  0  0  0  0  0  0  0  0  0  0  0
   -8.3422   22.8554  -31.4164 H   0  0  0  0  0  0  0  0  0  0  0  0
   -3.1432   21.9652  -30.9577 H   0  0  0  0  0  0  0  0  0  0  0  0
   -4.0083   21.4497  -32.4452 H   0  0  0  0  0  0  0  0  0  0  0  0
   -3.0477   22.9677  -32.4452 H   0  0  0  0  0  0  0  0  0  0  0  0
  1  2  1  0
  2  3  2  0
  3  4  1  0
  4  5  1  0
  5  6  2  0
  5  7  1  0
  7  8  1  0
  8  9  2  0
  9 10  1  0
 10 11  2  0
 11 12  1  0
 12 13  1  0
 12 14  2  0
 14 15  1  0
  4 16  2  0
 16 17  1  0
 17  2  1  0
 14  8  1  0
  1 18  1  0
  1 19  1  0
  1 20  1  0
  3 21  1  0
  9 22  1  0
 10 23  1  0
 11 24  1  0
 15 25  1  0
 15 26  1  0
 15 27  1  0
M  CHG  1   7  -1
M  END
>  <UniqueID>  (26) 
25

>  <SMILES>  (26) 
Cc1cc(C(=O)[N-]c2cccc(Cl)c2C)no1

>  <Energy>  (26) 
63.54388787736574

>  <Genealogy>  (26) 
Cc1cc(C(=O)[N-]c2cccc(Cl)c2C)no1 (protonated)
Cc1cc(C(=O)[N-]c2cccc(Cl)c2C)no1 (3D coordinates assigned)
Cc1cc(C(=O)[N-]c2cccc(Cl)c2C)no1 (optimized conformer: 63.54388787736574 kcal/mol)

>  <smiles>  (26) 
Cc1cc(C(=O)Nc2cccc(Cl)c2C)no1

>  <score_type>  (26) 
oracle

>  <origin>  (26) 
adgpu

>  <m_score__min__energy>  (26) 
-8.2100000000000009

>  <m_primary>  (26) 
energy

$$$$
26:0
     RDKit          3D

 71 75  0  0  0  0  0  0  0  0999 V2000
    2.1850   25.2140  -36.0490 C   0  0  0  0  0  0  0  0  0  0  0  0
    1.8250   23.7860  -35.7630 C   0  0  0  0  0  0  0  0  0  0  0  0
    2.8030   22.8820  -35.3250 C   0  0  0  0  0  0  0  0  0  0  0  0
    2.4740   21.5450  -35.0880 C   0  0  0  0  0  0  0  0  0  0  0  0
    1.1660   21.0850  -35.3130 C   0  0  0  0  0  0  0  0  0  0  0  0
    0.8230   19.6660  -35.0630 C   0  0  0  0  0  0  0  0  0  0  0  0
    1.4510   18.7600  -35.6730 O   0  0  0  0  0  0  0  0  0  0  0  0
   -0.1770   19.2870  -34.1080 N   0  0  0  0  0  0  0  0  0  0  0  0
   -1.0980   20.1760  -33.4510 C   0  0  0  0  0  0  0  0  0  0  0  0
   -2.3430   20.4630  -34.0330 C   0  0  0  0  0  0  0  0  0  0  0  0
   -3.2580   21.2820  -33.3780 C   0  0  0  0  0  0  0  0  0  0  0  0
   -2.9610   21.7950  -32.1190 C   0  0  0  0  0  0  0  0  0  0  0  0
   -1.7360   21.5050  -31.4950 C   0  0  0  0  0  0  0  0  0  0  0  0
   -1.5060   22.0070  -30.1190 C   0  0  0  0  0  0  0  0  0  0  0  0
   -1.5180   21.1440  -29.0190 C   0  0  0  0  0  0  0  0  0  0  0  0
   -1.2960   21.6300  -27.7620 N   0  0  0  0  0  0  0  0  0  0  0  0
   -1.3070   20.7050  -26.6200 C   0  0  0  0  0  0  0  0  0  0  0  0
   -1.0320   22.9630  -27.5690 C   0  0  0  0  0  0  0  0  0  0  0  0
   -0.8660   23.4000  -26.3960 O   0  0  0  0  0  0  0  0  0  0  0  0
   -0.9850   23.8360  -28.6860 C   0  0  0  0  0  0  0  0  0  0  0  0
   -0.7370   25.1160  -28.6070 N   0  0  0  0  0  0  0  0  0  0  0  0
   -0.3200   25.8820  -27.4690 C   0  0  0  0  0  0  0  0  0  0  0  0
    1.0230   25.9110  -27.0780 C   0  0  0  0  0  0  0  0  0  0  0  0
    1.4380   26.7330  -26.0260 C   0  0  0  0  0  0  0  0  0  0  0  0
    0.5200   27.5680  -25.3450 C   0  0  0  0  0  0  0  0  0  0  0  0
    0.9470   28.4440  -24.2540 N   0  0  0  0  0  0  0  0  0  0  0  0
    1.0470   29.8970  -24.5070 C   0  0  0  0  0  0  0  0  0  0  0  0
    1.3760   30.7360  -23.2690 C   0  0  0  0  0  0  0  0  0  0  0  0
    2.3590   30.0900  -22.3930 N   0  0  0  0  0  0  0  0  0  0  0  0
    3.6810   29.9290  -23.0240 C   0  0  0  0  0  0  0  0  0  0  0  0
    1.8140   28.8260  -21.8850 C   0  0  0  0  0  0  0  0  0  0  0  0
    1.4320   27.8310  -22.9950 C   0  0  0  0  0  0  0  0  0  0  0  0
   -0.8290   27.5450  -25.7810 C   0  0  0  0  0  0  0  0  0  0  0  0
   -1.2330   26.7220  -26.8360 C   0  0  0  0  0  0  0  0  0  0  0  0
   -1.2390   23.3220  -29.9160 N   0  0  0  0  0  0  0  0  0  0  0  0
   -0.7790   20.7050  -32.1770 C   0  0  0  0  0  0  0  0  0  0  0  0
    0.5660   20.4080  -31.5550 C   0  0  0  0  0  0  0  0  0  0  0  0
    0.1880   21.9910  -35.7600 C   0  0  0  0  0  0  0  0  0  0  0  0
    0.5180   23.3300  -35.9890 C   0  0  0  0  0  0  0  0  0  0  0  0
    2.3213   25.7547  -35.1008 H   0  0  0  0  0  0  0  0  0  0  0  0
    3.1197   25.2476  -36.6279 H   0  0  0  0  0  0  0  0  0  0  0  0
    1.3779   25.6867  -36.6279 H   0  0  0  0  0  0  0  0  0  0  0  0
    3.8354   23.2274  -35.1670 H   0  0  0  0  0  0  0  0  0  0  0  0
    3.2435   20.8487  -34.7232 H   0  0  0  0  0  0  0  0  0  0  0  0
   -2.5974   20.0370  -35.0148 H   0  0  0  0  0  0  0  0  0  0  0  0
   -4.2183   21.5244  -33.8567 H   0  0  0  0  0  0  0  0  0  0  0  0
   -3.6940   22.4352  -31.6062 H   0  0  0  0  0  0  0  0  0  0  0  0
   -1.7068   20.0704  -29.1664 H   0  0  0  0  0  0  0  0  0  0  0  0
   -1.3002   21.2800  -25.6823 H   0  0  0  0  0  0  0  0  0  0  0  0
   -2.2126   20.0820  -26.6615 H   0  0  0  0  0  0  0  0  0  0  0  0
   -0.4165   20.0606  -26.6615 H   0  0  0  0  0  0  0  0  0  0  0  0
    1.7579   25.2824  -27.6022 H   0  0  0  0  0  0  0  0  0  0  0  0
    2.4953   26.7308  -25.7225 H   0  0  0  0  0  0  0  0  0  0  0  0
    1.8375   30.0621  -25.2539 H   0  0  0  0  0  0  0  0  0  0  0  0
    0.0547   30.2236  -24.8515 H   0  0  0  0  0  0  0  0  0  0  0  0
    1.7803   31.7048  -23.5976 H   0  0  0  0  0  0  0  0  0  0  0  0
    0.4467   30.8576  -22.6932 H   0  0  0  0  0  0  0  0  0  0  0  0
    4.4507   29.8353  -22.2438 H   0  0  0  0  0  0  0  0  0  0  0  0
    3.6809   29.0242  -23.6496 H   0  0  0  0  0  0  0  0  0  0  0  0
    3.8981   30.8073  -23.6496 H   0  0  0  0  0  0  0  0  0  0  0  0
    2.5707   28.3548  -21.2406 H   0  0  0  0  0  0  0  0  0  0  0  0
    0.8915   29.0688  -21.3372 H   0  0  0  0  0  0  0  0  0  0  0  0
    2.3207   27.2272  -23.2311 H   0  0  0  0  0  0  0  0  0  0  0  0
    0.5917   27.2414  -22.5997 H   0  0  0  0  0  0  0  0  0  0  0  0
   -1.5700   28.1856  -25.2806 H   0  0  0  0  0  0  0  0  0  0  0  0
   -2.2812   26.7379  -27.1693 H   0  0  0  0  0  0  0  0  0  0  0  0
    0.4755   20.4280  -30.4589 H   0  0  0  0  0  0  0  0  0  0  0  0
    0.9070   19.4129  -31.8767 H   0  0  0  0  0  0  0  0  0  0  0  0
    1.2944   21.1669  -31.8767 H   0  0  0  0  0  0  0  0  0  0  0  0
   -0.8420   21.6444  -35.9304 H   0  0  0  0  0  0  0  0  0  0  0  0
   -0.2512   24.0295  -36.3482 H   0  0  0  0  0  0  0  0  0  0  0  0
  1  2  1  0
  2  3  2  0
  3  4  1  0
  4  5  2  0
  5  6  1  0
  6  7  2  0
  6  8  1  0
  8  9  1  0
  9 10  2  0
 10 11  1  0
 11 12  2  0
 12 13  1  0
 13 14  1  0
 14 15  2  0
 15 16  1  0
 16 17  1  0
 16 18  1  0
 18 19  2  0
 18 20  1  0
 20 21  2  3
 21 22  1  0
 22 23  2  0
 23 24  1  0
 24 25  2  0
 25 26  1  0
 26 27  1  0
 27 28  1  0
 28 29  1  0
 29 30  1  0
 29 31  1  0
 31 32  1  0
 25 33  1  0
 33 34  2  0
 20 35  1  0
 13 36  2  0
 36 37  1  0
  5 38  1  0
 38 39  2  0
 39  2  1  0
 36  9  1  0
 35 14  1  0
 34 22  1  0
 32 26  1  0
  1 40  1  0
  1 41  1  0
  1 42  1  0
  3 43  1  0
  4 44  1  0
 10 45  1  0
 11 46  1  0
 12 47  1  0
 15 48  1  0
 17 49  1  0
 17 50  1  0
 17 51  1  0
 23 52  1  0
 24 53  1  0
 27 54  1  0
 27 55  1  0
 28 56  1  0
 28 57  1  0
 30 58  1  0
 30 59  1  0
 30 60  1  0
 31 61  1  0
 31 62  1  0
 32 63  1  0
 32 64  1  0
 33 65  1  0
 34 66  1  0
 37 67  1  0
 37 68  1  0
 37 69  1  0
 38 70  1  0
 39 71  1  0
M  CHG  2   8  -1  35  -1
M  END
>  <UniqueID>  (27) 
26

>  <SMILES>  (27) 
Cc1ccc(C(=O)[N-]c2cccc(-c3cn(C)c(=O)c(=Nc4ccc(N5CCN(C)CC5)cc4)[n-]3)c2C)cc1

>  <Energy>  (27) 
117.37654046450497

>  <Genealogy>  (27) 
Cc1ccc(C(=O)[N-]c2cccc(-c3cn(C)c(=O)c(=Nc4ccc(N5CCN(C)CC5)cc4)[n-]3)c2C)cc1 (protonated)
Cc1ccc(C(=O)[N-]c2cccc(-c3cn(C)c(=O)c(=Nc4ccc(N5CCN(C)CC5)cc4)[n-]3)c2C)cc1 (3D coordinates assigned)
Cc1ccc(C(=O)[N-]c2cccc(-c3cn(C)c(=O)c(=Nc4ccc(N5CCN(C)CC5)cc4)[n-]3)c2C)cc1 (nonaromatic ring conformer: 117.37654046450497 kcal/mol)

>  <smiles>  (27) 
Cc1ccc(C(=O)Nc2cccc(-c3cn(C)c(=O)c(=Nc4ccc(N5CCN(C)CC5)cc4)[nH]3)c2C)cc1

>  <score_type>  (27) 
oracle

>  <origin>  (27) 
adgpu

>  <m_score__min__energy>  (27) 
-10.25

>  <m_primary>  (27) 
energy

$$$$
27:0
     RDKit          3D

 57 59  0  0  0  0  0  0  0  0999 V2000
   -4.2140   23.1360  -28.4850 C   0  0  0  0  0  0  0  0  0  0  0  0
   -3.4600   22.3130  -29.5350 C   0  0  0  0  0  0  0  0  0  0  0  0
   -3.7510   22.7690  -31.0070 C   0  0  2  0  0  0  0  0  0  0  0  0
   -3.7730   24.1840  -30.9880 O   0  0  0  0  0  0  0  0  0  0  0  0
   -5.1330   22.2820  -31.4810 C   0  0  0  0  0  0  0  0  0  0  0  0
   -5.5060   20.9190  -31.4240 C   0  0  0  0  0  0  0  0  0  0  0  0
   -6.7750   20.5040  -31.8380 C   0  0  0  0  0  0  0  0  0  0  0  0
   -7.6990   21.4360  -32.3090 C   0  0  0  0  0  0  0  0  0  0  0  0
   -7.3550   22.7850  -32.3740 C   0  0  0  0  0  0  0  0  0  0  0  0
   -6.0870   23.2070  -31.9640 C   0  0  0  0  0  0  0  0  0  0  0  0
   -2.5840   22.3040  -31.9710 C   0  0  1  0  0  0  0  0  0  0  0  0
   -1.2500   21.8700  -31.3250 C   0  0  0  0  0  0  0  0  0  0  0  0
   -1.1280   20.3710  -30.9970 C   0  0  0  0  0  0  0  0  0  0  0  0
   -1.5930   19.4510  -32.0620 N   0  0  2  0  0  0  0  0  0  0  0  0
   -0.5400   18.9960  -33.0110 C   0  0  0  0  0  0  0  0  0  0  0  0
    0.0030   20.0570  -33.9400 C   0  0  0  0  0  0  0  0  0  0  0  0
    1.2190   20.6960  -33.6550 C   0  0  0  0  0  0  0  0  0  0  0  0
    1.7410   21.6480  -34.5350 C   0  0  0  0  0  0  0  0  0  0  0  0
    1.0620   21.9680  -35.7150 C   0  0  0  0  0  0  0  0  0  0  0  0
    1.6290   22.9410  -36.6020 N   0  0  0  0  0  0  0  0  0  0  0  0
    1.4170   24.3590  -36.5560 C   0  0  0  0  0  0  0  0  0  0  0  0
    1.6970   25.1640  -35.3230 C   0  0  0  0  0  0  0  0  0  0  0  0
    1.0120   24.9490  -37.5920 O   0  0  0  0  0  0  0  0  0  0  0  0
   -0.1160   21.2760  -36.0410 C   0  0  0  0  0  0  0  0  0  0  0  0
   -0.6360   20.3230  -35.1610 C   0  0  0  0  0  0  0  0  0  0  0  0
   -2.8830   19.8290  -32.6810 C   0  0  0  0  0  0  0  0  0  0  0  0
   -2.9990   21.3090  -33.0760 C   0  0  0  0  0  0  0  0  0  0  0  0
   -3.9144   22.8090  -27.4784 H   0  0  0  0  0  0  0  0  0  0  0  0
   -3.9722   24.2016  -28.6115 H   0  0  0  0  0  0  0  0  0  0  0  0
   -5.2967   22.9882  -28.6115 H   0  0  0  0  0  0  0  0  0  0  0  0
   -2.3808   22.4108  -29.3461 H   0  0  0  0  0  0  0  0  0  0  0  0
   -3.8045   21.2725  -29.4422 H   0  0  0  0  0  0  0  0  0  0  0  0
   -3.0590   24.5210  -31.5910 H   0  0  0  0  0  0  0  0  0  0  0  0
   -4.7877   20.1753  -31.0487 H   0  0  0  0  0  0  0  0  0  0  0  0
   -7.0455   19.4388  -31.7921 H   0  0  0  0  0  0  0  0  0  0  0  0
   -8.6986   21.1068  -32.6290 H   0  0  0  0  0  0  0  0  0  0  0  0
   -8.0831   23.5194  -32.7489 H   0  0  0  0  0  0  0  0  0  0  0  0
   -5.8275   24.2746  -32.0179 H   0  0  0  0  0  0  0  0  0  0  0  0
   -2.3666   23.2713  -32.4475 H   0  0  0  0  0  0  0  0  0  0  0  0
   -1.1287   22.4328  -30.3877 H   0  0  0  0  0  0  0  0  0  0  0  0
   -0.4708   22.0794  -32.0726 H   0  0  0  0  0  0  0  0  0  0  0  0
   -1.7211   20.1714  -30.0923 H   0  0  0  0  0  0  0  0  0  0  0  0
   -0.0533   20.1731  -30.8711 H   0  0  0  0  0  0  0  0  0  0  0  0
   -1.8180   18.5660  -31.5440 H   0  0  0  0  0  0  0  0  0  0  0  0
    0.2999   18.6007  -32.4208 H   0  0  0  0  0  0  0  0  0  0  0  0
   -1.0203   18.2466  -33.6574 H   0  0  0  0  0  0  0  0  0  0  0  0
    1.7649   20.4462  -32.7333 H   0  0  0  0  0  0  0  0  0  0  0  0
    2.6915   22.1485  -34.2981 H   0  0  0  0  0  0  0  0  0  0  0  0
    1.4852   24.5552  -34.4317 H   0  0  0  0  0  0  0  0  0  0  0  0
    2.7539   25.4687  -35.3162 H   0  0  0  0  0  0  0  0  0  0  0  0
    1.0573   26.0589  -35.3162 H   0  0  0  0  0  0  0  0  0  0  0  0
   -0.6302   21.4846  -36.9908 H   0  0  0  0  0  0  0  0  0  0  0  0
   -1.5531   19.7772  -35.4273 H   0  0  0  0  0  0  0  0  0  0  0  0
   -3.6860   19.6022  -31.9642 H   0  0  0  0  0  0  0  0  0  0  0  0
   -2.9591   19.2525  -33.6147 H   0  0  0  0  0  0  0  0  0  0  0  0
   -4.0465   21.5114  -33.3441 H   0  0  0  0  0  0  0  0  0  0  0  0
   -2.3016   21.4638  -33.9125 H   0  0  0  0  0  0  0  0  0  0  0  0
  1  2  1  0
  2  3  1  0
  3  4  1  1
  3  5  1  0
  5  6  2  0
  6  7  1  0
  7  8  2  0
  8  9  1  0
  9 10  2  0
  3 11  1  0
 11 12  1  0
 12 13  1  0
 13 14  1  0
 14 15  1  0
 15 16  1  0
 16 17  2  0
 17 18  1  0
 18 19  2  0
 19 20  1  0
 20 21  1  0
 21 22  1  0
 21 23  2  0
 19 24  1  0
 24 25  2  0
 14 26  1  0
 26 27  1  0
 10  5  1  0
 27 11  1  0
 25 16  1  0
  1 28  1  0
  1 29  1  0
  1 30  1  0
  2 31  1  0
  2 32  1  0
  4 33  1  0
  6 34  1  0
  7 35  1  0
  8 36  1  0
  9 37  1  0
 10 38  1  0
 11 39  1  6
 12 40  1  0
 12 41  1  0
 13 42  1  0
 13 43  1  0
 14 44  1  1
 15 45  1  0
 15 46  1  0
 17 47  1  0
 18 48  1  0
 22 49  1  0
 22 50  1  0
 22 51  1  0
 24 52  1  0
 25 53  1  0
 26 54  1  0
 26 55  1  0
 27 56  1  0
 27 57  1  0
M  CHG  2  14   1  20  -1
M  END
>  <UniqueID>  (28) 
27

>  <SMILES>  (28) 
CC[C@](O)(c1ccccc1)C1CC[NH+](Cc2ccc([N-]C(C)=O)cc2)CC1

>  <Energy>  (28) 
83.12396549966323

>  <Genealogy>  (28) 
CCC(O)(c1ccccc1)C1CC[NH+](Cc2ccc([N-]C(C)=O)cc2)CC1 (protonated)
CC[C@](O)(c1ccccc1)C1CC[NH+](Cc2ccc([N-]C(C)=O)cc2)CC1 (chirality)
CC[C@](O)(c1ccccc1)C1CC[NH+](Cc2ccc([N-]C(C)=O)cc2)CC1 (3D coordinates assigned)
CC[C@](O)(c1ccccc1)C1CC[NH+](Cc2ccc([N-]C(C)=O)cc2)CC1 (nonaromatic ring conformer: 83.12396549966323 kcal/mol)

>  <smiles>  (28) 
CCC(O)(c1ccccc1)C1CCN(Cc2ccc(NC(C)=O)cc2)CC1

>  <score_type>  (28) 
oracle

>  <origin>  (28) 
adgpu

>  <m_score__min__energy>  (28) 
-10.02

>  <m_primary>  (28) 
energy

$$$$
28:0
     RDKit          3D

 52 54  0  0  0  0  0  0  0  0999 V2000
   -2.6770   21.5490  -32.0560 C   0  0  0  0  0  0  0  0  0  0  0  0
   -2.8780   22.7180  -31.2060 N   0  0  0  0  0  0  0  0  0  0  0  0
   -4.1810   23.2630  -30.9250 C   0  0  0  0  0  0  0  0  0  0  0  0
   -5.3410   22.6290  -31.4090 C   0  0  0  0  0  0  0  0  0  0  0  0
   -6.6080   23.1910  -31.1920 C   0  0  0  0  0  0  0  0  0  0  0  0
   -7.7850   22.5580  -31.7170 N   0  0  0  0  0  0  0  0  0  0  0  0
   -8.9030   23.3900  -32.1680 C   0  0  0  0  0  0  0  0  0  0  0  0
   -7.8000   21.1350  -31.9480 C   0  0  0  0  0  0  0  0  0  0  0  0
   -8.7610   20.3170  -31.3350 C   0  0  0  0  0  0  0  0  0  0  0  0
   -8.7610   18.9380  -31.5590 C   0  0  0  0  0  0  0  0  0  0  0  0
   -7.8040   18.3610  -32.3970 C   0  0  0  0  0  0  0  0  0  0  0  0
   -6.8360   19.1620  -33.0220 C   0  0  0  0  0  0  0  0  0  0  0  0
   -5.8240   18.5480  -33.9180 C   0  0  0  0  0  0  0  0  0  0  0  0
   -6.0380   18.5350  -35.3360 N   0  0  0  0  0  0  0  0  0  0  0  0
   -4.7560   17.9930  -33.4290 N   0  0  0  0  0  0  0  0  0  0  0  0
   -6.8430   20.5510  -32.7960 C   0  0  0  0  0  0  0  0  0  0  0  0
   -6.7110   24.3970  -30.4880 C   0  0  0  0  0  0  0  0  0  0  0  0
   -5.5680   25.0240  -29.9890 C   0  0  0  0  0  0  0  0  0  0  0  0
   -4.2950   24.4640  -30.1970 C   0  0  0  0  0  0  0  0  0  0  0  0
   -3.1270   25.0800  -29.7190 O   0  0  0  0  0  0  0  0  0  0  0  0
   -2.5100   24.8270  -28.4550 C   0  0  0  0  0  0  0  0  0  0  0  0
   -2.1570   23.3710  -28.2930 C   0  0  0  0  0  0  0  0  0  0  0  0
   -3.1160   22.4590  -27.8190 C   0  0  0  0  0  0  0  0  0  0  0  0
   -2.7810   21.1120  -27.6430 C   0  0  0  0  0  0  0  0  0  0  0  0
   -1.4890   20.6690  -27.9350 C   0  0  0  0  0  0  0  0  0  0  0  0
   -0.5260   21.5730  -28.3970 C   0  0  0  0  0  0  0  0  0  0  0  0
   -0.8550   22.9210  -28.5680 C   0  0  0  0  0  0  0  0  0  0  0  0
   -2.5241   20.6599  -31.4266 H   0  0  0  0  0  0  0  0  0  0  0  0
   -3.5628   21.4007  -32.6911 H   0  0  0  0  0  0  0  0  0  0  0  0
   -1.7925   21.7051  -32.6911 H   0  0  0  0  0  0  0  0  0  0  0  0
   -2.0270   23.2140  -30.8660 H   0  0  0  0  0  0  0  0  0  0  0  0
   -5.2530   21.6829  -31.9632 H   0  0  0  0  0  0  0  0  0  0  0  0
   -9.4390   23.7889  -31.2942 H   0  0  0  0  0  0  0  0  0  0  0  0
   -8.5186   24.2235  -32.7743 H   0  0  0  0  0  0  0  0  0  0  0  0
   -9.5910   22.7824  -32.7743 H   0  0  0  0  0  0  0  0  0  0  0  0
   -9.5186   20.7639  -30.6744 H   0  0  0  0  0  0  0  0  0  0  0  0
   -9.5176   18.3041  -31.0735 H   0  0  0  0  0  0  0  0  0  0  0  0
   -7.8091   17.2743  -32.5677 H   0  0  0  0  0  0  0  0  0  0  0  0
   -5.3900   18.0160  -35.9680 H   0  0  0  0  0  0  0  0  0  0  0  0
   -6.8450   19.0390  -35.7630 H   0  0  0  0  0  0  0  0  0  0  0  0
   -4.0400   17.5680  -34.0620 H   0  0  0  0  0  0  0  0  0  0  0  0
   -4.5860   17.9440  -32.3990 H   0  0  0  0  0  0  0  0  0  0  0  0
   -6.0918   21.1863  -33.2880 H   0  0  0  0  0  0  0  0  0  0  0  0
   -7.6989   24.8532  -30.3271 H   0  0  0  0  0  0  0  0  0  0  0  0
   -5.6640   25.9651  -29.4277 H   0  0  0  0  0  0  0  0  0  0  0  0
   -1.5917   25.4278  -28.3791 H   0  0  0  0  0  0  0  0  0  0  0  0
   -3.2231   25.0989  -27.6628 H   0  0  0  0  0  0  0  0  0  0  0  0
   -4.1335   22.8056  -27.5856 H   0  0  0  0  0  0  0  0  0  0  0  0
   -3.5356   20.4015  -27.2745 H   0  0  0  0  0  0  0  0  0  0  0  0
   -1.2283   19.6087  -27.8017 H   0  0  0  0  0  0  0  0  0  0  0  0
    0.4912   21.2226  -28.6259 H   0  0  0  0  0  0  0  0  0  0  0  0
   -0.0920   23.6314  -28.9190 H   0  0  0  0  0  0  0  0  0  0  0  0
  1  2  1  0
  2  3  1  0
  3  4  2  0
  4  5  1  0
  5  6  1  0
  6  7  1  0
  6  8  1  0
  8  9  2  0
  9 10  1  0
 10 11  2  0
 11 12  1  0
 12 13  1  0
 13 14  1  0
 13 15  2  0
 12 16  2  0
  5 17  2  0
 17 18  1  0
 18 19  2  0
 19 20  1  0
 20 21  1  0
 21 22  1  0
 22 23  2  0
 23 24  1  0
 24 25  2  0
 25 26  1  0
 26 27  2  0
 19  3  1  0
 27 22  1  0
 16  8  1  0
  1 28  1  0
  1 29  1  0
  1 30  1  0
  2 31  1  0
  4 32  1  0
  7 33  1  0
  7 34  1  0
  7 35  1  0
  9 36  1  0
 10 37  1  0
 11 38  1  0
 14 39  1  0
 14 40  1  0
 15 41  1  0
 15 42  1  0
 16 43  1  0
 17 44  1  0
 18 45  1  0
 21 46  1  0
 21 47  1  0
 23 48  1  0
 24 49  1  0
 25 50  1  0
 26 51  1  0
 27 52  1  0
M  CHG  1  15   1
M  END
>  <UniqueID>  (29) 
28

>  <SMILES>  (29) 
CNc1cc(N(C)c2cccc(C(N)=[NH2+])c2)ccc1OCc1ccccc1

>  <Energy>  (29) 
65.84959989870303

>  <Genealogy>  (29) 
CNc1cc(N(C)c2cccc(C(N)=[NH2+])c2)ccc1OCc1ccccc1 (protonated)
CNc1cc(N(C)c2cccc(C(N)=[NH2+])c2)ccc1OCc1ccccc1 (3D coordinates assigned)
CNc1cc(N(C)c2cccc(C(N)=[NH2+])c2)ccc1OCc1ccccc1 (optimized conformer: 65.84959989870303 kcal/mol)

>  <smiles>  (29) 
CNc1cc(N(C)c2cccc(C(=N)N)c2)ccc1OCc1ccccc1

>  <score_type>  (29) 
oracle

>  <origin>  (29) 
adgpu

>  <m_score__min__energy>  (29) 
-9.4499999999999993

>  <m_primary>  (29) 
energy

$$$$
29:0
     RDKit          3D

 45 47  0  0  0  0  0  0  0  0999 V2000
   -3.0490   12.7930  -32.6010 C   0  0  0  0  0  0  0  0  0  0  0  0
   -3.8130   13.8930  -33.1710 N   0  0  0  0  0  0  0  0  0  0  0  0
   -4.6400   14.8260  -32.4520 C   0  0  0  0  0  0  0  0  0  0  0  0
   -4.9550   14.5360  -31.2730 O   0  0  0  0  0  0  0  0  0  0  0  0
   -5.1070   16.1170  -33.0240 C   0  0  0  0  0  0  0  0  0  0  0  0
   -5.7490   17.0610  -32.2040 C   0  0  0  0  0  0  0  0  0  0  0  0
   -6.2340   18.2470  -32.7720 C   0  0  0  0  0  0  0  0  0  0  0  0
   -6.9200   19.1690  -31.9760 O   0  0  0  0  0  0  0  0  0  0  0  0
   -6.5670   20.5250  -31.9340 C   0  0  0  0  0  0  0  0  0  0  0  0
   -7.5690   21.5010  -31.9560 C   0  0  0  0  0  0  0  0  0  0  0  0
   -7.2330   22.8590  -31.8880 C   0  0  0  0  0  0  0  0  0  0  0  0
   -5.8890   23.2530  -31.8210 C   0  0  0  0  0  0  0  0  0  0  0  0
   -5.5730   24.6520  -31.7110 N   0  0  0  0  0  0  0  0  0  0  0  0
   -4.9290   25.3030  -30.6020 C   0  0  0  0  0  0  0  0  0  0  0  0
   -5.6390   25.9290  -29.7720 O   0  0  0  0  0  0  0  0  0  0  0  0
   -3.5040   25.2830  -30.4180 N   0  0  0  0  0  0  0  0  0  0  0  0
   -2.7940   24.5190  -29.4320 C   0  0  0  0  0  0  0  0  0  0  0  0
   -3.1980   23.1990  -29.1890 C   0  0  0  0  0  0  0  0  0  0  0  0
   -2.5840   22.4410  -28.1780 C   0  0  0  0  0  0  0  0  0  0  0  0
   -3.0940   21.0700  -27.8460 C   0  0  0  0  0  0  0  0  0  0  0  0
   -1.5380   23.0080  -27.4290 C   0  0  0  0  0  0  0  0  0  0  0  0
   -1.1070   24.3070  -27.7030 C   0  0  0  0  0  0  0  0  0  0  0  0
   -1.7300   25.0670  -28.6970 C   0  0  0  0  0  0  0  0  0  0  0  0
   -1.2740   26.3190  -28.9560 F   0  0  0  0  0  0  0  0  0  0  0  0
   -4.8830   22.2780  -31.9020 C   0  0  0  0  0  0  0  0  0  0  0  0
   -5.2220   20.9210  -31.9200 C   0  0  0  0  0  0  0  0  0  0  0  0
   -6.0430   18.5010  -34.1420 C   0  0  0  0  0  0  0  0  0  0  0  0
   -5.3850   17.5500  -34.9200 C   0  0  0  0  0  0  0  0  0  0  0  0
   -4.9470   16.3910  -34.3530 N   0  0  0  0  0  0  0  0  0  0  0  0
   -3.0882   12.8495  -31.5032 H   0  0  0  0  0  0  0  0  0  0  0  0
   -3.4784   11.8368  -32.9345 H   0  0  0  0  0  0  0  0  0  0  0  0
   -2.0030   12.8615  -32.9345 H   0  0  0  0  0  0  0  0  0  0  0  0
   -5.8696   16.8709  -31.1273 H   0  0  0  0  0  0  0  0  0  0  0  0
   -8.6248   21.2007  -32.0270 H   0  0  0  0  0  0  0  0  0  0  0  0
   -8.0272   23.6200  -31.8872 H   0  0  0  0  0  0  0  0  0  0  0  0
   -4.0014   22.7535  -29.7941 H   0  0  0  0  0  0  0  0  0  0  0  0
   -3.1386   20.9500  -26.7535 H   0  0  0  0  0  0  0  0  0  0  0  0
   -4.1005   20.9404  -28.2705 H   0  0  0  0  0  0  0  0  0  0  0  0
   -2.4169   20.3142  -28.2705 H   0  0  0  0  0  0  0  0  0  0  0  0
   -1.0590   22.4276  -26.6267 H   0  0  0  0  0  0  0  0  0  0  0  0
   -0.2703   24.7361  -27.1321 H   0  0  0  0  0  0  0  0  0  0  0  0
   -3.8268   22.5812  -31.9514 H   0  0  0  0  0  0  0  0  0  0  0  0
   -4.4282   20.1595  -31.9232 H   0  0  0  0  0  0  0  0  0  0  0  0
   -6.4074   19.4360  -34.5927 H   0  0  0  0  0  0  0  0  0  0  0  0
   -5.2193   17.7351  -35.9916 H   0  0  0  0  0  0  0  0  0  0  0  0
  1  2  1  0
  2  3  1  0
  3  4  2  0
  3  5  1  0
  5  6  2  0
  6  7  1  0
  7  8  1  0
  8  9  1  0
  9 10  2  0
 10 11  1  0
 11 12  2  0
 12 13  1  0
 13 14  1  0
 14 15  2  0
 14 16  1  0
 16 17  1  0
 17 18  2  0
 18 19  1  0
 19 20  1  0
 19 21  2  0
 21 22  1  0
 22 23  2  0
 23 24  1  0
 12 25  1  0
 25 26  2  0
  7 27  2  0
 27 28  1  0
 28 29  2  0
 29  5  1  0
 26  9  1  0
 23 17  1  0
  1 30  1  0
  1 31  1  0
  1 32  1  0
  6 33  1  0
 10 34  1  0
 11 35  1  0
 18 36  1  0
 20 37  1  0
 20 38  1  0
 20 39  1  0
 21 40  1  0
 22 41  1  0
 25 42  1  0
 26 43  1  0
 27 44  1  0
 28 45  1  0
M  CHG  3   2  -1  13  -1  16  -1
M  END
>  <UniqueID>  (30) 
29

>  <SMILES>  (30) 
C[N-]C(=O)c1cc(Oc2ccc([N-]C(=O)[N-]c3cc(C)ccc3F)cc2)ccn1

>  <Energy>  (30) 
64.46658383345904

>  <Genealogy>  (30) 
C[N-]C(=O)c1cc(Oc2ccc([N-]C(=O)[N-]c3cc(C)ccc3F)cc2)ccn1 (protonated)
C[N-]C(=O)c1cc(Oc2ccc([N-]C(=O)[N-]c3cc(C)ccc3F)cc2)ccn1 (3D coordinates assigned)
C[N-]C(=O)c1cc(Oc2ccc([N-]C(=O)[N-]c3cc(C)ccc3F)cc2)ccn1 (optimized conformer: 64.46658383345904 kcal/mol)

>  <smiles>  (30) 
CNC(=O)c1cc(Oc2ccc(NC(=O)Nc3cc(C)ccc3F)cc2)ccn1

>  <score_type>  (30) 
oracle

>  <origin>  (30) 
adgpu

>  <m_score__min__energy>  (30) 
-11.970000000000001

>  <m_primary>  (30) 
energy

$$$$
30:0
     RDKit          3D

 44 46  0  0  1  0  0  0  0  0999 V2000
   -3.2380   23.9780  -29.4480 C   0  0  0  0  0  0  0  0  0  0  0  0
   -4.6270   24.1900  -29.9280 C   0  0  0  0  0  0  0  0  0  0  0  0
   -5.4600   23.2510  -30.5280 C   0  0  0  0  0  0  0  0  0  0  0  0
   -6.6480   23.9000  -30.8010 C   0  0  0  0  0  0  0  0  0  0  0  0
   -7.6760   23.3660  -31.3590 N   0  0  0  0  0  0  0  0  0  0  0  0
   -7.7380   22.0010  -31.7830 C   0  0  0  0  0  0  0  0  0  0  0  0
   -8.6470   21.1470  -31.2280 N   0  0  0  0  0  0  0  0  0  0  0  0
   -8.7130   19.8540  -31.6230 C   0  0  0  0  0  0  0  0  0  0  0  0
   -7.8720   19.3970  -32.5790 C   0  0  0  0  0  0  0  0  0  0  0  0
   -7.8980   18.1380  -33.0000 F   0  0  0  0  0  0  0  0  0  0  0  0
   -6.9610   20.2680  -33.1310 C   0  0  0  0  0  0  0  0  0  0  0  0
   -6.1580   19.8520  -34.0360 N   0  0  0  0  0  0  0  0  0  0  0  0
   -6.0590   18.5530  -34.5900 C   0  0  0  0  0  0  0  0  0  0  0  0
   -4.7260   17.8970  -34.4440 C   0  0  1  0  0  0  0  0  0  0  0  0
   -3.7510   18.8930  -33.8060 C   0  0  0  0  0  0  0  0  0  0  0  0
   -2.5940   18.2350  -33.1170 C   0  0  0  0  0  0  0  0  0  0  0  0
   -1.8740   17.1950  -33.9040 C   0  0  0  0  0  0  0  0  0  0  0  0
   -2.5950   16.5310  -34.8510 O   0  0  0  0  0  0  0  0  0  0  0  0
   -3.6290   15.7430  -34.3600 C   0  0  0  0  0  0  0  0  0  0  0  0
   -4.6280   16.6490  -33.6700 C   0  0  0  0  0  0  0  0  0  0  0  0
   -6.9010   21.5440  -32.7360 N   0  0  0  0  0  0  0  0  0  0  0  0
   -6.5290   25.1710  -30.3840 N   0  0  0  0  0  0  0  0  0  0  0  0
   -5.3300   25.3390  -29.8670 N   0  0  0  0  0  0  0  0  0  0  0  0
   -3.2264   23.9762  -28.3481 H   0  0  0  0  0  0  0  0  0  0  0  0
   -2.8648   23.0125  -29.8202 H   0  0  0  0  0  0  0  0  0  0  0  0
   -2.5938   24.7882  -29.8202 H   0  0  0  0  0  0  0  0  0  0  0  0
   -5.2197   22.1992  -30.7426 H   0  0  0  0  0  0  0  0  0  0  0  0
   -9.4494   19.1758  -31.1673 H   0  0  0  0  0  0  0  0  0  0  0  0
   -6.8074   17.9153  -34.0968 H   0  0  0  0  0  0  0  0  0  0  0  0
   -6.2235   18.6702  -35.6713 H   0  0  0  0  0  0  0  0  0  0  0  0
   -4.4930   17.6016  -35.4777 H   0  0  0  0  0  0  0  0  0  0  0  0
   -3.3585   19.5510  -34.5953 H   0  0  0  0  0  0  0  0  0  0  0  0
   -4.3107   19.4503  -33.0404 H   0  0  0  0  0  0  0  0  0  0  0  0
   -1.8693   19.0190  -32.8520 H   0  0  0  0  0  0  0  0  0  0  0  0
   -3.0229   17.7093  -32.2512 H   0  0  0  0  0  0  0  0  0  0  0  0
   -1.0310   17.6864  -34.4117 H   0  0  0  0  0  0  0  0  0  0  0  0
   -1.5869   16.4271  -33.1706 H   0  0  0  0  0  0  0  0  0  0  0  0
   -4.1188   15.2121  -35.1896 H   0  0  0  0  0  0  0  0  0  0  0  0
   -3.2364   15.0000  -33.6502 H   0  0  0  0  0  0  0  0  0  0  0  0
   -5.6112   16.1573  -33.6297 H   0  0  0  0  0  0  0  0  0  0  0  0
   -4.3006   16.8635  -32.6420 H   0  0  0  0  0  0  0  0  0  0  0  0
   -6.2130   22.1820  -33.1590 H   0  0  0  0  0  0  0  0  0  0  0  0
   -7.2910   25.8720  -30.4760 H   0  0  0  0  0  0  0  0  0  0  0  0
   -4.9800   26.2550  -29.4620 H   0  0  0  0  0  0  0  0  0  0  0  0
  1  2  1  0
  2  3  2  0
  3  4  1  0
  4  5  2  0
  5  6  1  0
  6  7  2  0
  7  8  1  0
  8  9  2  0
  9 10  1  0
  9 11  1  0
 11 12  2  0
 12 13  1  0
 13 14  1  0
 14 15  1  0
 15 16  1  0
 16 17  1  0
 17 18  1  0
 18 19  1  0
 19 20  1  0
 11 21  1  0
  4 22  1  0
 22 23  1  0
 23  2  1  0
 21  6  1  0
 20 14  1  0
  1 24  1  0
  1 25  1  0
  1 26  1  0
  3 27  1  0
  8 28  1  0
 13 29  1  0
 13 30  1  0
 14 31  1  6
 15 32  1  0
 15 33  1  0
 16 34  1  0
 16 35  1  0
 17 36  1  0
 17 37  1  0
 19 38  1  0
 19 39  1  0
 20 40  1  0
 20 41  1  0
 21 42  1  0
 22 43  1  0
 23 44  1  0
M  END
>  <smiles>  (31) 
Cc1cc(=Nc2ncc(F)c(=NCC3CCCOCC3)[nH]2)[nH][nH]1

>  <score_type>  (31) 
oracle

>  <origin>  (31) 
adgpu

>  <m_score__min__energy>  (31) 
-6.4699999999999998

>  <m_primary>  (31) 
energy

$$$$
31:0
     RDKit          3D

 25 26  0  0  0  0  0  0  0  0999 V2000
   -8.4500   22.2900  -31.6180 C   0  0  0  0  0  0  0  0  0  0  0  0
   -7.1530   22.9970  -31.3560 C   0  0  0  0  0  0  0  0  0  0  0  0
   -5.9460   22.4590  -31.8270 C   0  0  0  0  0  0  0  0  0  0  0  0
   -4.7330   23.0970  -31.5510 C   0  0  0  0  0  0  0  0  0  0  0  0
   -4.7120   24.2850  -30.7970 C   0  0  0  0  0  0  0  0  0  0  0  0
   -3.4880   24.9600  -30.4710 N   0  0  0  0  0  0  0  0  0  0  0  0
   -2.6040   24.6490  -29.3850 C   0  0  0  0  0  0  0  0  0  0  0  0
   -1.7710   25.4970  -28.9690 O   0  0  0  0  0  0  0  0  0  0  0  0
   -2.7050   23.3480  -28.7140 C   0  0  0  0  0  0  0  0  0  0  0  0
   -3.8030   22.8700  -28.0250 C   0  0  0  0  0  0  0  0  0  0  0  0
   -3.4440   21.6200  -27.5700 C   0  0  0  0  0  0  0  0  0  0  0  0
   -2.1530   21.4170  -28.0100 C   0  0  0  0  0  0  0  0  0  0  0  0
   -1.1040   19.8560  -27.6920 Br  0  0  0  0  0  0  0  0  0  0  0  0
   -1.7360   22.4610  -28.6870 O   0  0  0  0  0  0  0  0  0  0  0  0
   -5.9150   24.7950  -30.2920 C   0  0  0  0  0  0  0  0  0  0  0  0
   -7.1280   24.1580  -30.5690 C   0  0  0  0  0  0  0  0  0  0  0  0
   -8.9260   22.0305  -30.6609 H   0  0  0  0  0  0  0  0  0  0  0  0
   -9.1173   22.9491  -32.1926 H   0  0  0  0  0  0  0  0  0  0  0  0
   -8.2576   21.3720  -32.1926 H   0  0  0  0  0  0  0  0  0  0  0  0
   -5.9540   21.5303  -32.4165 H   0  0  0  0  0  0  0  0  0  0  0  0
   -3.7913   22.6686  -31.9247 H   0  0  0  0  0  0  0  0  0  0  0  0
   -4.7647   23.3815  -27.8715 H   0  0  0  0  0  0  0  0  0  0  0  0
   -4.0600   20.9271  -26.9780 H   0  0  0  0  0  0  0  0  0  0  0  0
   -5.9050   25.7040  -29.6726 H   0  0  0  0  0  0  0  0  0  0  0  0
   -8.0665   24.5687  -30.1683 H   0  0  0  0  0  0  0  0  0  0  0  0
  1  2  1  0
  2  3  2  0
  3  4  1  0
  4  5  2  0
  5  6  1  0
  6  7  1  0
  7  8  2  0
  7  9  1  0
  9 10  2  0
 10 11  1  0
 11 12  2  0
 12 13  1  0
 12 14  1  0
  5 15  1  0
 15 16  2  0
 16  2  1  0
 14  9  1  0
  1 17  1  0
  1 18  1  0
  1 19  1  0
  3 20  1  0
  4 21  1  0
 10 22  1  0
 11 23  1  0
 15 24  1  0
 16 25  1  0
M  CHG  1   6  -1
M  END
>  <UniqueID>  (32) 
30

>  <SMILES>  (32) 
Cc1ccc([N-]C(=O)c2ccc(Br)o2)cc1

>  <Energy>  (32) 
52.94051741144568

>  <Genealogy>  (32) 
Cc1ccc([N-]C(=O)c2ccc(Br)o2)cc1 (protonated)
Cc1ccc([N-]C(=O)c2ccc(Br)o2)cc1 (3D coordinates assigned)
Cc1ccc([N-]C(=O)c2ccc(Br)o2)cc1 (optimized conformer: 52.94051741144568 kcal/mol)

>  <smiles>  (32) 
Cc1ccc(NC(=O)c2ccc(Br)o2)cc1

>  <score_type>  (32) 
oracle

>  <origin>  (32) 
adgpu

>  <m_score__min__energy>  (32) 
-8.1099999999999994

>  <m_primary>  (32) 
energy

$$$$
32:0
     RDKit          3D

 38 40  0  0  0  0  0  0  0  0999 V2000
    1.1700   25.8470  -24.8290 C   0  0  0  0  0  0  0  0  0  0  0  0
    1.1360   25.5350  -26.2180 O   0  0  0  0  0  0  0  0  0  0  0  0
    0.1290   24.7950  -26.8550 C   0  0  0  0  0  0  0  0  0  0  0  0
   -0.0770   23.4400  -26.5410 C   0  0  0  0  0  0  0  0  0  0  0  0
   -1.0810   22.7000  -27.1630 C   0  0  0  0  0  0  0  0  0  0  0  0
   -1.2250   21.4180  -26.8420 O   0  0  0  0  0  0  0  0  0  0  0  0
   -2.1500   20.6390  -27.3860 C   0  0  0  0  0  0  0  0  0  0  0  0
   -2.2290   19.4310  -27.0390 O   0  0  0  0  0  0  0  0  0  0  0  0
   -3.0360   21.1520  -28.3300 C   0  0  0  0  0  0  0  0  0  0  0  0
   -2.9440   22.4980  -28.7010 C   0  0  0  0  0  0  0  0  0  0  0  0
   -3.9410   23.0080  -29.6620 C   0  0  0  0  0  0  0  0  0  0  0  0
   -3.9230   22.5720  -30.9940 C   0  0  0  0  0  0  0  0  0  0  0  0
   -4.8610   23.0620  -31.9060 C   0  0  0  0  0  0  0  0  0  0  0  0
   -5.8130   24.0000  -31.4970 C   0  0  0  0  0  0  0  0  0  0  0  0
   -5.8220   24.4670  -30.1730 C   0  0  0  0  0  0  0  0  0  0  0  0
   -6.8650   25.4480  -29.7250 C   0  0  0  0  0  0  0  0  0  0  0  0
   -4.8890   23.9590  -29.2550 C   0  0  0  0  0  0  0  0  0  0  0  0
   -1.9290   23.3060  -28.1210 C   0  0  0  0  0  0  0  0  0  0  0  0
   -1.7070   24.6640  -28.4590 C   0  0  0  0  0  0  0  0  0  0  0  0
   -2.4700   25.2990  -29.4340 O   0  0  0  0  0  0  0  0  0  0  0  0
   -0.6960   25.4090  -27.8300 C   0  0  0  0  0  0  0  0  0  0  0  0
   -0.5650   26.7550  -28.2260 O   0  0  0  0  0  0  0  0  0  0  0  0
   -0.4860   27.8900  -27.3700 C   0  0  0  0  0  0  0  0  0  0  0  0
    1.0692   24.9217  -24.2428 H   0  0  0  0  0  0  0  0  0  0  0  0
    2.1264   26.3329  -24.5856 H   0  0  0  0  0  0  0  0  0  0  0  0
    0.3407   26.5275  -24.5856 H   0  0  0  0  0  0  0  0  0  0  0  0
    0.5656   22.9554  -25.7912 H   0  0  0  0  0  0  0  0  0  0  0  0
   -3.8023   20.5040  -28.7805 H   0  0  0  0  0  0  0  0  0  0  0  0
   -3.1683   21.8421  -31.3221 H   0  0  0  0  0  0  0  0  0  0  0  0
   -4.8503   22.7090  -32.9478 H   0  0  0  0  0  0  0  0  0  0  0  0
   -6.5579   24.3737  -32.2150 H   0  0  0  0  0  0  0  0  0  0  0  0
   -6.8943   25.4756  -28.6257 H   0  0  0  0  0  0  0  0  0  0  0  0
   -6.6174   26.4481  -30.1104 H   0  0  0  0  0  0  0  0  0  0  0  0
   -7.8480   25.1396  -30.1104 H   0  0  0  0  0  0  0  0  0  0  0  0
   -4.9013   24.3081  -28.2120 H   0  0  0  0  0  0  0  0  0  0  0  0
   -0.5089   27.5603  -26.3208 H   0  0  0  0  0  0  0  0  0  0  0  0
    0.4520   28.4309  -27.5639 H   0  0  0  0  0  0  0  0  0  0  0  0
   -1.3400   28.5557  -27.5639 H   0  0  0  0  0  0  0  0  0  0  0  0
  1  2  1  0
  2  3  1  0
  3  4  2  0
  4  5  1  0
  5  6  1  0
  6  7  1  0
  7  8  2  0
  7  9  1  0
  9 10  2  0
 10 11  1  0
 11 12  2  0
 12 13  1  0
 13 14  2  0
 14 15  1  0
 15 16  1  0
 15 17  2  0
 10 18  1  0
 18 19  1  0
 19 20  1  0
 19 21  2  0
 21 22  1  0
 22 23  1  0
 21  3  1  0
 18  5  2  0
 17 11  1  0
  1 24  1  0
  1 25  1  0
  1 26  1  0
  4 27  1  0
  9 28  1  0
 12 29  1  0
 13 30  1  0
 14 31  1  0
 16 32  1  0
 16 33  1  0
 16 34  1  0
 17 35  1  0
 23 36  1  0
 23 37  1  0
 23 38  1  0
M  CHG  1  20  -1
M  END
>  <UniqueID>  (33) 
31

>  <SMILES>  (33) 
COc1cc2oc(=O)cc(-c3cccc(C)c3)c2c([O-])c1OC

>  <Energy>  (33) 
57.8783905439747

>  <Genealogy>  (33) 
COc1cc2oc(=O)cc(-c3cccc(C)c3)c2c([O-])c1OC (protonated)
COc1cc2oc(=O)cc(-c3cccc(C)c3)c2c([O-])c1OC (3D coordinates assigned)
COc1cc2oc(=O)cc(-c3cccc(C)c3)c2c([O-])c1OC (optimized conformer: 57.8783905439747 kcal/mol)

>  <smiles>  (33) 
COc1cc2oc(=O)cc(-c3cccc(C)c3)c2c(O)c1OC

>  <score_type>  (33) 
oracle

>  <origin>  (33) 
adgpu

>  <m_score__min__energy>  (33) 
-9.4800000000000004

>  <m_primary>  (33) 
energy

$$$$
33:0
     RDKit          3D

 47 49  0  0  0  0  0  0  0  0999 V2000
    3.0490   24.5560  -38.0250 H   0  0  0  0  0  0  0  0  0  0  0  0
    2.1570   24.9520  -37.6490 N   0  0  0  0  0  0  0  0  0  0  0  0
    1.9760   24.3510  -36.0400 S   0  0  0  0  0  0  0  0  0  0  0  0
    3.2550   24.5630  -35.2810 O   0  0  0  0  0  0  0  0  0  0  0  0
    0.8730   25.0990  -35.3450 O   0  0  0  0  0  0  0  0  0  0  0  0
    1.5890   22.6340  -36.0950 C   0  0  0  0  0  0  0  0  0  0  0  0
    0.2780   22.2010  -35.8560 C   0  0  0  0  0  0  0  0  0  0  0  0
   -0.5080   22.9353  -35.6257 H   0  0  0  0  0  0  0  0  0  0  0  0
   -0.0350   20.8400  -35.9090 C   0  0  0  0  0  0  0  0  0  0  0  0
   -1.0625   20.5056  -35.7029 H   0  0  0  0  0  0  0  0  0  0  0  0
    0.9590   19.8960  -36.2250 C   0  0  0  0  0  0  0  0  0  0  0  0
    0.6820   18.4880  -36.2710 N   0  0  0  0  0  0  0  0  0  0  0  0
    0.7800   17.5740  -35.1740 C   0  0  0  0  0  0  0  0  0  0  0  0
    1.0700   16.3710  -35.4080 O   0  0  0  0  0  0  0  0  0  0  0  0
    0.5490   18.0220  -33.8320 N   0  0  0  0  0  0  0  0  0  0  0  0
   -0.4840   18.9100  -33.3800 C   0  0  0  0  0  0  0  0  0  0  0  0
   -1.8380   18.6750  -33.6680 C   0  0  0  0  0  0  0  0  0  0  0  0
   -2.1274   17.7809  -34.2397 H   0  0  0  0  0  0  0  0  0  0  0  0
   -2.8200   19.5680  -33.2340 C   0  0  0  0  0  0  0  0  0  0  0  0
   -4.1550   19.3120  -33.5300 O   0  0  0  0  0  0  0  0  0  0  0  0
   -2.4690   20.7130  -32.5070 C   0  0  0  0  0  0  0  0  0  0  0  0
   -3.5170   21.6060  -32.0900 N   0  0  0  0  0  0  0  0  0  0  0  0
   -3.4050   22.5810  -31.2360 C   0  0  0  0  0  0  0  0  0  0  0  0
   -2.4331   22.7675  -30.7558 H   0  0  0  0  0  0  0  0  0  0  0  0
   -4.5590   23.4450  -30.8970 C   0  0  0  0  0  0  0  0  0  0  0  0
   -5.8550   22.9440  -31.1180 C   0  0  0  0  0  0  0  0  0  0  0  0
   -5.9852   21.9333  -31.5322 H   0  0  0  0  0  0  0  0  0  0  0  0
   -6.9790   23.7190  -30.8160 C   0  0  0  0  0  0  0  0  0  0  0  0
   -7.9871   23.3166  -30.9945 H   0  0  0  0  0  0  0  0  0  0  0  0
   -6.8250   25.0010  -30.2890 C   0  0  0  0  0  0  0  0  0  0  0  0
   -7.7107   25.6085  -30.0515 H   0  0  0  0  0  0  0  0  0  0  0  0
   -5.5450   25.5130  -30.0630 C   0  0  0  0  0  0  0  0  0  0  0  0
   -5.4264   26.5246  -29.6474 H   0  0  0  0  0  0  0  0  0  0  0  0
   -4.4130   24.7470  -30.3620 C   0  0  0  0  0  0  0  0  0  0  0  0
   -3.1560   25.2940  -30.1200 O   0  0  0  0  0  0  0  0  0  0  0  0
   -1.1080   20.9750  -32.2580 C   0  0  0  0  0  0  0  0  0  0  0  0
   -0.8190   21.8887  -31.7179 H   0  0  0  0  0  0  0  0  0  0  0  0
   -0.1130   20.0780  -32.6940 C   0  0  0  0  0  0  0  0  0  0  0  0
    1.2540   20.3080  -32.4640 O   0  0  0  0  0  0  0  0  0  0  0  0
    2.1340   19.3870  -31.8290 C   0  0  0  0  0  0  0  0  0  0  0  0
    2.0411   19.4843  -30.7373 H   0  0  0  0  0  0  0  0  0  0  0  0
    1.8711   18.3620  -32.1295 H   0  0  0  0  0  0  0  0  0  0  0  0
    3.1699   19.6029  -32.1295 H   0  0  0  0  0  0  0  0  0  0  0  0
    2.2720   20.3320  -36.4420 C   0  0  0  0  0  0  0  0  0  0  0  0
    3.0627   19.5980  -36.6565 H   0  0  0  0  0  0  0  0  0  0  0  0
    2.5850   21.6930  -36.3880 C   0  0  0  0  0  0  0  0  0  0  0  0
    3.6162   22.0265  -36.5761 H   0  0  0  0  0  0  0  0  0  0  0  0
  1  2  1  0
  2  3  1  0
  3  4  2  0
  3  5  2  0
  3  6  1  0
  6  7  2  0
  7  8  1  0
  7  9  1  0
  9 10  1  0
  9 11  2  0
 11 12  1  0
 12 13  1  0
 13 14  2  0
 13 15  1  0
 15 16  1  0
 16 17  2  0
 17 18  1  0
 17 19  1  0
 19 20  1  0
 19 21  2  0
 21 22  1  0
 22 23  2  0
 23 24  1  0
 23 25  1  0
 25 26  2  0
 26 27  1  0
 26 28  1  0
 28 29  1  0
 28 30  2  0
 30 31  1  0
 30 32  1  0
 32 33  1  0
 32 34  2  0
 34 35  1  0
 21 36  1  0
 36 37  1  0
 36 38  2  0
 38 39  1  0
 39 40  1  0
 40 41  1  0
 40 42  1  0
 40 43  1  0
 11 44  1  0
 44 45  1  0
 44 46  2  0
 46 47  1  0
 46  6  1  0
 38 16  1  0
 34 25  1  0
M  CHG  5   2  -1  12  -1  15  -1  20  -1  35  -1
M  END
>  <UniqueID>  (34) 
32

>  <SMILES>  (34) 
COc1cc(/N=C/c2ccccc2[O-])c([O-])cc1[N-]C(=O)[N-]c1ccc(S([NH-])(=O)=O)cc1

>  <Energy>  (34) 
60.937108631046335

>  <Genealogy>  (34) 
COc1cc(N=Cc2ccccc2[O-])c([O-])cc1[N-]C(=O)[N-]c1ccc(S([NH-])(=O)=O)cc1 (protonated)
COc1cc(/N=C/c2ccccc2[O-])c([O-])cc1[N-]C(=O)[N-]c1ccc(S([NH-])(=O)=O)cc1 (cis-trans isomerization)
COc1cc(/N=C/c2ccccc2[O-])c([O-])cc1[N-]C(=O)[N-]c1ccc(S([NH-])(=O)=O)cc1 (3D coordinates assigned)
COc1cc(/N=C/c2ccccc2[O-])c([O-])cc1[N-]C(=O)[N-]c1ccc(S([NH-])(=O)=O)cc1 (optimized conformer: 60.937108631046335 kcal/mol)

>  <smiles>  (34) 
COc1cc(N=Cc2ccccc2O)c(O)cc1NC(=O)Nc1ccc(S(N)(=O)=O)cc1

>  <score_type>  (34) 
oracle

>  <origin>  (34) 
adgpu

>  <m_score__min__energy>  (34) 
-12.02

>  <m_primary>  (34) 
energy

$$$$
34:0
     RDKit          3D

 34 35  0  0  0  0  0  0  0  0999 V2000
   -4.7520   24.2900  -29.5090 C   0  0  0  0  0  0  0  0  0  0  0  0
   -4.2560   24.2290  -30.8430 O   0  0  0  0  0  0  0  0  0  0  0  0
   -3.8680   23.0490  -31.4980 C   0  0  0  0  0  0  0  0  0  0  0  0
   -2.6080   22.4640  -31.2780 C   0  0  0  0  0  0  0  0  0  0  0  0
   -2.2410   21.2950  -31.9450 C   0  0  0  0  0  0  0  0  0  0  0  0
   -3.1350   20.6690  -32.8250 C   0  0  0  0  0  0  0  0  0  0  0  0
   -2.7260   19.4320  -33.5870 C   0  0  0  0  0  0  0  0  0  0  0  0
   -1.7520   19.7670  -34.5090 F   0  0  0  0  0  0  0  0  0  0  0  0
   -2.2230   18.4670  -32.7310 F   0  0  0  0  0  0  0  0  0  0  0  0
   -3.8120   18.8940  -34.2540 F   0  0  0  0  0  0  0  0  0  0  0  0
   -4.3850   21.2600  -33.0630 C   0  0  0  0  0  0  0  0  0  0  0  0
   -4.7640   22.4480  -32.4060 C   0  0  0  0  0  0  0  0  0  0  0  0
   -6.0470   23.0580  -32.6520 N   0  0  0  0  0  0  0  0  0  0  0  0
   -7.4920   22.6640  -31.7730 S   0  0  0  0  0  0  0  0  0  0  0  0
   -8.6440   23.4430  -32.3420 O   0  0  0  0  0  0  0  0  0  0  0  0
   -7.3030   23.0490  -30.3320 O   0  0  0  0  0  0  0  0  0  0  0  0
   -7.8470   20.9420  -31.9240 C   0  0  0  0  0  0  0  0  0  0  0  0
   -6.8090   20.0060  -31.7850 C   0  0  0  0  0  0  0  0  0  0  0  0
   -7.0760   18.6380  -31.8870 C   0  0  0  0  0  0  0  0  0  0  0  0
   -8.3770   18.1950  -32.1370 C   0  0  0  0  0  0  0  0  0  0  0  0
   -9.4130   19.1210  -32.2900 C   0  0  0  0  0  0  0  0  0  0  0  0
   -9.1520   20.4910  -32.1870 C   0  0  0  0  0  0  0  0  0  0  0  0
  -10.1720   21.3720  -32.3500 F   0  0  0  0  0  0  0  0  0  0  0  0
   -3.9157   24.1872  -28.8018 H   0  0  0  0  0  0  0  0  0  0  0  0
   -5.2520   25.2564  -29.3475 H   0  0  0  0  0  0  0  0  0  0  0  0
   -5.4713   23.4735  -29.3475 H   0  0  0  0  0  0  0  0  0  0  0  0
   -1.9053   22.9327  -30.5733 H   0  0  0  0  0  0  0  0  0  0  0  0
   -1.2436   20.8616  -31.7794 H   0  0  0  0  0  0  0  0  0  0  0  0
   -5.0801   20.7888  -33.7735 H   0  0  0  0  0  0  0  0  0  0  0  0
   -6.1600   23.7220  -33.4490 H   0  0  0  0  0  0  0  0  0  0  0  0
   -5.7819   20.3511  -31.5951 H   0  0  0  0  0  0  0  0  0  0  0  0
   -6.2605   17.9091  -31.7703 H   0  0  0  0  0  0  0  0  0  0  0  0
   -8.5862   17.1178  -32.2135 H   0  0  0  0  0  0  0  0  0  0  0  0
  -10.4361   18.7711  -32.4919 H   0  0  0  0  0  0  0  0  0  0  0  0
  1  2  1  0
  2  3  1  0
  3  4  2  0
  4  5  1  0
  5  6  2  0
  6  7  1  0
  7  8  1  0
  7  9  1  0
  7 10  1  0
  6 11  1  0
 11 12  2  0
 12 13  1  0
 13 14  1  0
 14 15  2  0
 14 16  2  0
 14 17  1  0
 17 18  2  0
 18 19  1  0
 19 20  2  0
 20 21  1  0
 21 22  2  0
 22 23  1  0
 12  3  1  0
 22 17  1  0
  1 24  1  0
  1 25  1  0
  1 26  1  0
  4 27  1  0
  5 28  1  0
 11 29  1  0
 13 30  1  0
 18 31  1  0
 19 32  1  0
 20 33  1  0
 21 34  1  0
M  END
>  <UniqueID>  (35) 
33

>  <SMILES>  (35) 
COc1ccc(C(F)(F)F)cc1NS(=O)(=O)c1ccccc1F

>  <Energy>  (35) 
38.446847822164884

>  <Genealogy>  (35) 
COc1ccc(C(F)(F)F)cc1NS(=O)(=O)c1ccccc1F (3D coordinates assigned)
COc1ccc(C(F)(F)F)cc1NS(=O)(=O)c1ccccc1F (optimized conformer: 38.446847822164884 kcal/mol)

>  <smiles>  (35) 
COc1ccc(C(F)(F)F)cc1NS(=O)(=O)c1ccccc1F

>  <score_type>  (35) 
oracle

>  <origin>  (35) 
adgpu

>  <m_score__min__energy>  (35) 
-7.7400000000000002

>  <m_primary>  (35) 
energy

$$$$
35:0
     RDKit          3D

 41 43  0  0  1  0  0  0  0  0999 V2000
   -6.0200   25.6220  -30.4590 C   0  0  0  0  0  0  0  0  0  0  0  0
   -5.2160   24.4160  -30.8650 C   0  0  0  0  0  0  0  0  0  0  0  0
   -3.9990   24.3160  -30.3120 N   0  0  0  0  0  0  0  0  0  0  0  0
   -3.2770   23.2430  -30.6720 C   0  0  0  0  0  0  0  0  0  0  0  0
   -2.1210   23.0830  -30.1770 N   0  0  0  0  0  0  0  0  0  0  0  0
   -1.4020   23.8800  -29.2550 C   0  0  0  0  0  0  0  0  0  0  0  0
   -2.1610   24.7900  -28.3660 C   0  0  1  0  0  0  0  0  0  0  0  0
   -1.8780   24.5450  -26.9180 C   0  0  0  0  0  0  0  0  0  0  0  0
   -0.4550   25.0670  -26.7840 C   0  0  0  0  0  0  0  0  0  0  0  0
   -0.4400   26.1450  -27.8400 C   0  0  0  0  0  0  0  0  0  0  0  0
   -1.6090   26.0820  -28.5530 O   0  0  0  0  0  0  0  0  0  0  0  0
   -3.7460   22.2950  -31.5560 C   0  0  0  0  0  0  0  0  0  0  0  0
   -5.0250   22.4170  -32.1250 C   0  0  0  0  0  0  0  0  0  0  0  0
   -5.5120   21.4320  -33.0080 N   0  0  0  0  0  0  0  0  0  0  0  0
   -6.5520   20.5290  -32.8000 C   0  0  0  0  0  0  0  0  0  0  0  0
   -7.7800   21.0460  -32.3880 C   0  0  0  0  0  0  0  0  0  0  0  0
   -8.8730   20.2520  -32.1310 C   0  0  0  0  0  0  0  0  0  0  0  0
  -10.0340   20.8390  -31.7320 F   0  0  0  0  0  0  0  0  0  0  0  0
   -8.7660   18.8870  -32.2830 C   0  0  0  0  0  0  0  0  0  0  0  0
   -7.5710   18.3260  -32.6880 C   0  0  0  0  0  0  0  0  0  0  0  0
   -7.5090   16.9880  -32.8240 F   0  0  0  0  0  0  0  0  0  0  0  0
   -6.4880   19.1660  -32.9370 C   0  0  0  0  0  0  0  0  0  0  0  0
   -5.7120   23.5040  -31.7370 N   0  0  0  0  0  0  0  0  0  0  0  0
   -6.0607   25.6830  -29.3614 H   0  0  0  0  0  0  0  0  0  0  0  0
   -5.5461   26.5304  -30.8594 H   0  0  0  0  0  0  0  0  0  0  0  0
   -7.0407   25.5340  -30.8594 H   0  0  0  0  0  0  0  0  0  0  0  0
   -0.8321   23.1957  -28.6093 H   0  0  0  0  0  0  0  0  0  0  0  0
   -0.8079   24.5553  -29.8883 H   0  0  0  0  0  0  0  0  0  0  0  0
   -3.2285   24.6594  -28.5970 H   0  0  0  0  0  0  0  0  0  0  0  0
   -2.5720   25.1053  -26.2743 H   0  0  0  0  0  0  0  0  0  0  0  0
   -1.9969   23.4948  -26.6132 H   0  0  0  0  0  0  0  0  0  0  0  0
   -0.2698   25.4812  -25.7819 H   0  0  0  0  0  0  0  0  0  0  0  0
    0.3223   24.2990  -26.9105 H   0  0  0  0  0  0  0  0  0  0  0  0
   -0.3523   27.1310  -27.3604 H   0  0  0  0  0  0  0  0  0  0  0  0
    0.4168   25.9961  -28.5136 H   0  0  0  0  0  0  0  0  0  0  0  0
   -3.1129   21.4346  -31.8186 H   0  0  0  0  0  0  0  0  0  0  0  0
   -5.0190   21.3790  -33.9530 H   0  0  0  0  0  0  0  0  0  0  0  0
   -7.8784   22.1345  -32.2634 H   0  0  0  0  0  0  0  0  0  0  0  0
   -9.6344   18.2426  -32.0813 H   0  0  0  0  0  0  0  0  0  0  0  0
   -5.5375   18.7152  -33.2584 H   0  0  0  0  0  0  0  0  0  0  0  0
   -6.6690   23.6870  -32.0850 H   0  0  0  0  0  0  0  0  0  0  0  0
  1  2  1  0
  2  3  2  0
  3  4  1  0
  4  5  2  0
  5  6  1  0
  6  7  1  0
  7  8  1  0
  8  9  1  0
  9 10  1  0
 10 11  1  0
  4 12  1  0
 12 13  2  0
 13 14  1  0
 14 15  1  0
 15 16  2  0
 16 17  1  0
 17 18  1  0
 17 19  2  0
 19 20  1  0
 20 21  1  0
 20 22  2  0
 13 23  1  0
 23  2  1  0
 11  7  1  0
 22 15  1  0
  1 24  1  0
  1 25  1  0
  1 26  1  0
  6 27  1  0
  6 28  1  0
  7 29  1  1
  8 30  1  0
  8 31  1  0
  9 32  1  0
  9 33  1  0
 10 34  1  0
 10 35  1  0
 12 36  1  0
 14 37  1  0
 16 38  1  0
 19 39  1  0
 22 40  1  0
 23 41  1  0
M  END
>  <smiles>  (36) 
Cc1nc(=NCC2CCCO2)cc(Nc2cc(F)cc(F)c2)[nH]1

>  <score_type>  (36) 
oracle

>  <origin>  (36) 
adgpu

>  <m_score__min__energy>  (36) 
-7.8899999999999997

>  <m_primary>  (36) 
energy

$$$$
36:0
     RDKit          3D

 52 56  0  0  1  0  0  0  0  0999 V2000
   -9.3070   18.7240  -32.2430 C   0  0  0  0  0  0  0  0  0  0  0  0
   -9.1810   19.9990  -32.8390 O   0  0  0  0  0  0  0  0  0  0  0  0
   -8.2420   20.8840  -32.3330 C   0  0  0  0  0  0  0  0  0  0  0  0
   -8.5490   22.1130  -31.8040 C   0  0  0  0  0  0  0  0  0  0  0  0
   -7.5950   22.9740  -31.3080 C   0  0  0  0  0  0  0  0  0  0  0  0
   -6.2710   22.6150  -31.3280 C   0  0  0  0  0  0  0  0  0  0  0  0
   -5.1940   23.4630  -30.8250 C   0  0  0  0  0  0  0  0  0  0  0  0
   -4.2580   23.1600  -29.8590 C   0  0  0  0  0  0  0  0  0  0  0  0
   -3.4360   24.2120  -29.6790 N   0  0  0  0  0  0  0  0  0  0  0  0
   -2.3340   24.3560  -28.7970 C   0  0  0  0  0  0  0  0  0  0  0  0
   -1.7310   23.2800  -28.2490 N   0  0  0  0  0  0  0  0  0  0  0  0
   -0.7010   23.4830  -27.4280 C   0  0  0  0  0  0  0  0  0  0  0  0
   -0.1110   22.4890  -26.8950 N   0  0  0  0  0  0  0  0  0  0  0  0
   -0.4840   21.1340  -27.1190 C   0  0  0  0  0  0  0  0  0  0  0  0
   -1.6060   20.4850  -26.5910 C   0  0  0  0  0  0  0  0  0  0  0  0
   -1.6150   19.1810  -27.0430 C   0  0  0  0  0  0  0  0  0  0  0  0
   -0.5250   19.0460  -27.8250 N   0  0  0  0  0  0  0  0  0  0  0  0
    0.1270   20.1920  -27.8600 N   0  0  0  0  0  0  0  0  0  0  0  0
   -0.2570   24.7580  -27.1430 C   0  0  0  0  0  0  0  0  0  0  0  0
   -0.8740   25.8560  -27.7040 C   0  0  0  0  0  0  0  0  0  0  0  0
   -1.9120   25.6240  -28.5290 N   0  0  0  0  0  0  0  0  0  0  0  0
   -0.4720   27.2500  -27.4580 C   0  0  0  0  0  0  0  0  0  0  0  0
    0.4110   27.4230  -26.3440 N   0  0  0  0  0  0  0  0  0  0  0  0
    0.4790   26.2890  -25.4600 C   0  0  0  0  0  0  0  0  0  0  0  0
    0.8900   25.0280  -26.2330 C   0  0  0  0  0  0  0  0  0  0  0  0
   -3.8530   25.1620  -30.5230 N   0  0  0  0  0  0  0  0  0  0  0  0
   -4.8980   24.7270  -31.2080 N   0  0  0  0  0  0  0  0  0  0  0  0
   -5.9460   21.3840  -31.8570 C   0  0  0  0  0  0  0  0  0  0  0  0
   -6.9010   20.5120  -32.3590 C   0  0  0  0  0  0  0  0  0  0  0  0
   -6.5730   19.2750  -32.8900 O   0  0  0  0  0  0  0  0  0  0  0  0
   -6.0560   19.2170  -34.2060 C   0  0  0  0  0  0  0  0  0  0  0  0
   -9.2967   18.8285  -31.1480 H   0  0  0  0  0  0  0  0  0  0  0  0
  -10.2550   18.2638  -32.5585 H   0  0  0  0  0  0  0  0  0  0  0  0
   -8.4674   18.0872  -32.5585 H   0  0  0  0  0  0  0  0  0  0  0  0
   -9.6037   22.4241  -31.7749 H   0  0  0  0  0  0  0  0  0  0  0  0
   -7.8946   23.9490  -30.8961 H   0  0  0  0  0  0  0  0  0  0  0  0
   -4.1924   22.2047  -29.3177 H   0  0  0  0  0  0  0  0  0  0  0  0
   -2.3559   20.9387  -25.9263 H   0  0  0  0  0  0  0  0  0  0  0  0
   -2.3617   18.4071  -26.8117 H   0  0  0  0  0  0  0  0  0  0  0  0
   -0.2590   18.1520  -28.3180 H   0  0  0  0  0  0  0  0  0  0  0  0
   -2.3990   26.4430  -28.9690 H   0  0  0  0  0  0  0  0  0  0  0  0
    0.0335   27.6265  -28.3595 H   0  0  0  0  0  0  0  0  0  0  0  0
   -1.3915   27.8045  -27.2190 H   0  0  0  0  0  0  0  0  0  0  0  0
    1.4010   27.6410  -26.6630 H   0  0  0  0  0  0  0  0  0  0  0  0
    1.2203   26.4882  -24.6721 H   0  0  0  0  0  0  0  0  0  0  0  0
   -0.5134   26.1254  -25.0146 H   0  0  0  0  0  0  0  0  0  0  0  0
    1.8096   25.2077  -26.8093 H   0  0  0  0  0  0  0  0  0  0  0  0
    1.1035   24.1796  -25.5661 H   0  0  0  0  0  0  0  0  0  0  0  0
   -4.8887   21.0816  -31.8820 H   0  0  0  0  0  0  0  0  0  0  0  0
   -4.9636   19.0944  -34.1657 H   0  0  0  0  0  0  0  0  0  0  0  0
   -6.5014   18.3632  -34.7376 H   0  0  0  0  0  0  0  0  0  0  0  0
   -6.3011   20.1483  -34.7376 H   0  0  0  0  0  0  0  0  0  0  0  0
  1  2  1  0
  2  3  1  0
  3  4  2  0
  4  5  1  0
  5  6  2  0
  6  7  1  0
  7  8  2  0
  8  9  1  0
  9 10  1  0
 10 11  2  0
 11 12  1  0
 12 13  2  0
 13 14  1  0
 14 15  1  0
 15 16  2  0
 16 17  1  0
 17 18  1  0
 12 19  1  0
 19 20  2  0
 20 21  1  0
 20 22  1  0
 22 23  1  0
 23 24  1  0
 24 25  1  0
  9 26  1  0
 26 27  2  0
  6 28  1  0
 28 29  2  0
 29 30  1  0
 30 31  1  0
 29  3  1  0
 27  7  1  0
 21 10  1  0
 18 14  2  0
 25 19  1  0
  1 32  1  0
  1 33  1  0
  1 34  1  0
  4 35  1  0
  5 36  1  0
  8 37  1  0
 15 38  1  0
 16 39  1  0
 17 40  1  0
 21 41  1  0
 22 42  1  0
 22 43  1  0
 23 44  1  0
 24 45  1  0
 24 46  1  0
 25 47  1  0
 25 48  1  0
 28 49  1  0
 31 50  1  0
 31 51  1  0
 31 52  1  0
M  END
>  <smiles>  (37) 
COc1ccc(-c2cn(-c3nc(=Nc4cc[nH]n4)c4c([nH]3)CNCC4)nn2)cc1OC

>  <score_type>  (37) 
oracle

>  <origin>  (37) 
adgpu

>  <m_score__min__energy>  (37) 
-10.449999999999999

>  <m_primary>  (37) 
energy

$$$$
37:0
     RDKit          3D

 44 46  0  0  0  0  0  0  0  0999 V2000
   -4.9180   15.2260  -32.9280 C   0  0  0  0  0  0  0  0  0  0  0  0
   -4.2210   16.5740  -32.8130 C   0  0  0  0  0  0  0  0  0  0  0  0
   -5.1330   17.6840  -33.2280 C   0  0  0  0  0  0  0  0  0  0  0  0
   -5.5320   17.8870  -34.5050 N   0  0  0  0  0  0  0  0  0  0  0  0
   -6.3180   18.9530  -34.6420 N   0  0  0  0  0  0  0  0  0  0  0  0
   -6.5510   19.6100  -33.4880 C   0  0  0  0  0  0  0  0  0  0  0  0
   -7.2850   20.6790  -33.4230 N   0  0  0  0  0  0  0  0  0  0  0  0
   -7.5940   21.5710  -31.9670 S   0  0  0  0  0  0  0  0  0  0  0  0
   -8.1730   20.6440  -30.9330 O   0  0  0  0  0  0  0  0  0  0  0  0
   -8.5940   22.6520  -32.2680 O   0  0  0  0  0  0  0  0  0  0  0  0
   -6.1180   22.3100  -31.3530 C   0  0  0  0  0  0  0  0  0  0  0  0
   -4.9000   22.1530  -32.0360 C   0  0  0  0  0  0  0  0  0  0  0  0
   -3.7280   22.7000  -31.5120 C   0  0  0  0  0  0  0  0  0  0  0  0
   -3.7560   23.4150  -30.2990 C   0  0  0  0  0  0  0  0  0  0  0  0
   -2.5670   23.9660  -29.7180 N   0  0  0  0  0  0  0  0  0  0  0  0
   -1.1160   23.0780  -29.4030 S   0  0  0  0  0  0  0  0  0  0  0  0
   -0.4710   22.6790  -30.6990 O   0  0  0  0  0  0  0  0  0  0  0  0
   -0.1610   23.9520  -28.6370 O   0  0  0  0  0  0  0  0  0  0  0  0
   -1.5060   21.6660  -28.4270 C   0  0  0  0  0  0  0  0  0  0  0  0
   -0.4920   20.7560  -28.1000 C   0  0  0  0  0  0  0  0  0  0  0  0
   -0.7760   19.6450  -27.2980 C   0  0  0  0  0  0  0  0  0  0  0  0
   -2.0740   19.4400  -26.8040 C   0  0  0  0  0  0  0  0  0  0  0  0
   -2.3520   18.3100  -25.9680 N   0  0  0  0  0  0  0  0  0  0  0  0
   -3.0890   20.3510  -27.1310 C   0  0  0  0  0  0  0  0  0  0  0  0
   -2.8070   21.4580  -27.9410 C   0  0  0  0  0  0  0  0  0  0  0  0
   -4.9820   23.6100  -29.6450 C   0  0  0  0  0  0  0  0  0  0  0  0
   -6.1540   23.0510  -30.1630 C   0  0  0  0  0  0  0  0  0  0  0  0
   -5.7490   18.8700  -32.1960 S   0  0  0  0  0  0  0  0  0  0  0  0
   -5.1219   14.8316  -31.9216 H   0  0  0  0  0  0  0  0  0  0  0  0
   -5.8657   15.3485  -33.4728 H   0  0  0  0  0  0  0  0  0  0  0  0
   -4.2701   14.5235  -33.4728 H   0  0  0  0  0  0  0  0  0  0  0  0
   -3.9132   16.7322  -31.7689 H   0  0  0  0  0  0  0  0  0  0  0  0
   -3.3437   16.5735  -33.4766 H   0  0  0  0  0  0  0  0  0  0  0  0
   -6.7040   19.2430  -35.5640 H   0  0  0  0  0  0  0  0  0  0  0  0
   -4.8703   21.5980  -32.9853 H   0  0  0  0  0  0  0  0  0  0  0  0
   -2.7768   22.5720  -32.0495 H   0  0  0  0  0  0  0  0  0  0  0  0
    0.5299   20.9153  -28.4747 H   0  0  0  0  0  0  0  0  0  0  0  0
    0.0220   18.9285  -27.0533 H   0  0  0  0  0  0  0  0  0  0  0  0
   -3.1400   18.3420  -25.2900 H   0  0  0  0  0  0  0  0  0  0  0  0
   -1.8090   17.4190  -26.0610 H   0  0  0  0  0  0  0  0  0  0  0  0
   -4.1092   20.1955  -26.7502 H   0  0  0  0  0  0  0  0  0  0  0  0
   -3.6076   22.1673  -28.1975 H   0  0  0  0  0  0  0  0  0  0  0  0
   -5.0211   24.2052  -28.7208 H   0  0  0  0  0  0  0  0  0  0  0  0
   -7.1084   23.1930  -29.6349 H   0  0  0  0  0  0  0  0  0  0  0  0
  1  2  1  0
  2  3  1  0
  3  4  2  0
  4  5  1  0
  5  6  1  0
  6  7  2  3
  7  8  1  0
  8  9  2  0
  8 10  2  0
  8 11  1  0
 11 12  2  0
 12 13  1  0
 13 14  2  0
 14 15  1  0
 15 16  1  0
 16 17  2  0
 16 18  2  0
 16 19  1  0
 19 20  2  0
 20 21  1  0
 21 22  2  0
 22 23  1  0
 22 24  1  0
 24 25  2  0
 14 26  1  0
 26 27  2  0
  6 28  1  0
 28  3  1  0
 27 11  1  0
 25 19  1  0
  1 29  1  0
  1 30  1  0
  1 31  1  0
  2 32  1  0
  2 33  1  0
  5 34  1  0
 12 35  1  0
 13 36  1  0
 20 37  1  0
 21 38  1  0
 23 39  1  0
 23 40  1  0
 24 41  1  0
 25 42  1  0
 26 43  1  0
 27 44  1  0
M  CHG  1  15  -1
M  END
>  <UniqueID>  (38) 
34

>  <SMILES>  (38) 
CCc1n[nH]c(=NS(=O)(=O)c2ccc([N-]S(=O)(=O)c3ccc(N)cc3)cc2)s1

>  <Energy>  (38) 
80.99714173898431

>  <Genealogy>  (38) 
CCc1n[nH]c(=NS(=O)(=O)c2ccc([N-]S(=O)(=O)c3ccc(N)cc3)cc2)s1 (protonated)
CCc1n[nH]c(=NS(=O)(=O)c2ccc([N-]S(=O)(=O)c3ccc(N)cc3)cc2)s1 (3D coordinates assigned)
CCc1n[nH]c(=NS(=O)(=O)c2ccc([N-]S(=O)(=O)c3ccc(N)cc3)cc2)s1 (optimized conformer: 80.99714173898431 kcal/mol)

>  <smiles>  (38) 
CCc1n[nH]c(=NS(=O)(=O)c2ccc(NS(=O)(=O)c3ccc(N)cc3)cc2)s1

>  <score_type>  (38) 
oracle

>  <origin>  (38) 
adgpu

>  <m_score__min__energy>  (38) 
-11.07

>  <m_primary>  (38) 
energy

$$$$
38:0
     RDKit          3D

 35 36  0  0  0  0  0  0  0  0999 V2000
   -2.7420   19.2350  -26.7060 C   0  0  0  0  0  0  0  0  0  0  0  0
   -1.3490   19.5510  -27.1600 C   0  0  0  0  0  0  0  0  0  0  0  0
   -0.5280   18.6080  -27.3060 O   0  0  0  0  0  0  0  0  0  0  0  0
   -0.9100   20.8960  -27.3920 N   0  0  0  0  0  0  0  0  0  0  0  0
   -1.5640   21.8830  -28.2020 C   0  0  0  0  0  0  0  0  0  0  0  0
   -2.3090   22.8870  -27.5760 C   0  0  0  0  0  0  0  0  0  0  0  0
   -2.9420   23.8760  -28.3340 C   0  0  0  0  0  0  0  0  0  0  0  0
   -2.8080   23.8970  -29.7270 C   0  0  0  0  0  0  0  0  0  0  0  0
   -3.4980   24.9180  -30.4660 N   0  0  0  0  0  0  0  0  0  0  0  0
   -4.9080   25.1760  -30.4700 C   0  0  0  0  0  0  0  0  0  0  0  0
   -5.3580   26.3130  -30.7730 O   0  0  0  0  0  0  0  0  0  0  0  0
   -5.8540   24.0950  -30.0580 C   0  0  0  0  0  0  0  0  0  0  0  0
   -7.1680   23.8510  -31.3050 S   0  0  0  0  0  0  0  0  0  0  0  0
   -6.4530   22.3590  -32.0150 C   0  0  0  0  0  0  0  0  0  0  0  0
   -5.0860   22.3410  -32.3290 C   0  0  0  0  0  0  0  0  0  0  0  0
   -4.5020   21.1890  -32.8670 C   0  0  0  0  0  0  0  0  0  0  0  0
   -2.7890   21.1670  -33.2430 Cl  0  0  0  0  0  0  0  0  0  0  0  0
   -5.2850   20.0540  -33.1030 C   0  0  0  0  0  0  0  0  0  0  0  0
   -6.6510   20.0730  -32.8100 C   0  0  0  0  0  0  0  0  0  0  0  0
   -7.2430   21.2220  -32.2730 C   0  0  0  0  0  0  0  0  0  0  0  0
   -8.9750   21.2190  -31.9740 Cl  0  0  0  0  0  0  0  0  0  0  0  0
   -2.0500   22.8950  -30.3590 C   0  0  0  0  0  0  0  0  0  0  0  0
   -1.4200   21.9030  -29.6000 C   0  0  0  0  0  0  0  0  0  0  0  0
   -2.7764   19.2272  -25.6066 H   0  0  0  0  0  0  0  0  0  0  0  0
   -3.4347   19.9988  -27.0891 H   0  0  0  0  0  0  0  0  0  0  0  0
   -3.0373   18.2471  -27.0891 H   0  0  0  0  0  0  0  0  0  0  0  0
   -2.3975   22.8986  -26.4796 H   0  0  0  0  0  0  0  0  0  0  0  0
   -3.5498   24.6433  -27.8322 H   0  0  0  0  0  0  0  0  0  0  0  0
   -5.2944   23.1555  -29.9387 H   0  0  0  0  0  0  0  0  0  0  0  0
   -6.3263   24.3901  -29.1094 H   0  0  0  0  0  0  0  0  0  0  0  0
   -4.4710   23.2356  -32.1517 H   0  0  0  0  0  0  0  0  0  0  0  0
   -4.8249   19.1458  -33.5196 H   0  0  0  0  0  0  0  0  0  0  0  0
   -7.2643   19.1804  -33.0024 H   0  0  0  0  0  0  0  0  0  0  0  0
   -1.9521   22.8913  -31.4546 H   0  0  0  0  0  0  0  0  0  0  0  0
   -0.8097   21.1359  -30.0991 H   0  0  0  0  0  0  0  0  0  0  0  0
  1  2  1  0
  2  3  2  0
  2  4  1  0
  4  5  1  0
  5  6  2  0
  6  7  1  0
  7  8  2  0
  8  9  1  0
  9 10  1  0
 10 11  2  0
 10 12  1  0
 12 13  1  0
 13 14  1  0
 14 15  2  0
 15 16  1  0
 16 17  1  0
 16 18  2  0
 18 19  1  0
 19 20  2  0
 20 21  1  0
  8 22  1  0
 22 23  2  0
 23  5  1  0
 20 14  1  0
  1 24  1  0
  1 25  1  0
  1 26  1  0
  6 27  1  0
  7 28  1  0
 12 29  1  0
 12 30  1  0
 15 31  1  0
 18 32  1  0
 19 33  1  0
 22 34  1  0
 23 35  1  0
M  CHG  2   4  -1   9  -1
M  END
>  <UniqueID>  (39) 
35

>  <SMILES>  (39) 
CC(=O)[N-]c1ccc([N-]C(=O)CSc2cc(Cl)ccc2Cl)cc1

>  <Energy>  (39) 
37.096654119728655

>  <Genealogy>  (39) 
CC(=O)[N-]c1ccc([N-]C(=O)CSc2cc(Cl)ccc2Cl)cc1 (protonated)
CC(=O)[N-]c1ccc([N-]C(=O)CSc2cc(Cl)ccc2Cl)cc1 (3D coordinates assigned)
CC(=O)[N-]c1ccc([N-]C(=O)CSc2cc(Cl)ccc2Cl)cc1 (optimized conformer: 37.096654119728655 kcal/mol)

>  <smiles>  (39) 
CC(=O)Nc1ccc(NC(=O)CSc2cc(Cl)ccc2Cl)cc1

>  <score_type>  (39) 
oracle

>  <origin>  (39) 
adgpu

>  <m_score__min__energy>  (39) 
-10.15

>  <m_primary>  (39) 
energy

$$$$
39:0
     RDKit          3D

 39 40  0  0  0  0  0  0  0  0999 V2000
   -0.0530   23.1330  -24.5580 C   0  0  0  0  0  0  0  0  0  0  0  0
   -0.6990   23.6760  -25.7970 C   0  0  0  0  0  0  0  0  0  0  0  0
   -1.4230   24.8740  -25.7480 C   0  0  0  0  0  0  0  0  0  0  0  0
   -1.9910   25.4020  -26.9090 C   0  0  0  0  0  0  0  0  0  0  0  0
   -1.8190   24.7550  -28.1450 C   0  0  0  0  0  0  0  0  0  0  0  0
   -2.4130   25.2850  -29.3420 N   0  0  0  0  0  0  0  0  0  0  0  0
   -3.6600   24.8800  -29.9220 C   0  0  0  0  0  0  0  0  0  0  0  0
   -4.1540   25.5780  -30.8470 O   0  0  0  0  0  0  0  0  0  0  0  0
   -4.4090   23.6720  -29.4340 C   0  0  0  0  0  0  0  0  0  0  0  0
   -5.1690   23.0700  -30.5370 N   0  0  0  0  0  0  0  0  0  0  0  0
   -6.6090   23.0160  -30.2430 C   0  0  0  0  0  0  0  0  0  0  0  0
   -7.3310   22.0110  -31.1130 C   0  0  0  0  0  0  0  0  0  0  0  0
   -6.6050   21.1030  -31.9020 C   0  0  0  0  0  0  0  0  0  0  0  0
   -7.2760   20.1520  -32.6770 C   0  0  0  0  0  0  0  0  0  0  0  0
   -8.6720   20.0990  -32.6680 C   0  0  0  0  0  0  0  0  0  0  0  0
   -9.4010   20.9960  -31.8820 C   0  0  0  0  0  0  0  0  0  0  0  0
   -8.7340   21.9480  -31.1030 C   0  0  0  0  0  0  0  0  0  0  0  0
   -1.1070   23.5400  -28.1990 C   0  0  0  0  0  0  0  0  0  0  0  0
   -0.9200   22.8240  -29.5080 C   0  0  0  0  0  0  0  0  0  0  0  0
   -0.5340   23.0190  -27.0260 C   0  0  0  0  0  0  0  0  0  0  0  0
   -0.5511   23.5517  -23.6711 H   0  0  0  0  0  0  0  0  0  0  0  0
   -0.1448   22.0369  -24.5469 H   0  0  0  0  0  0  0  0  0  0  0  0
    1.0110   23.4119  -24.5469 H   0  0  0  0  0  0  0  0  0  0  0  0
   -1.5447   25.4013  -24.7903 H   0  0  0  0  0  0  0  0  0  0  0  0
   -2.5774   26.3311  -26.8561 H   0  0  0  0  0  0  0  0  0  0  0  0
   -3.6937   22.9350  -29.0402 H   0  0  0  0  0  0  0  0  0  0  0  0
   -5.1068   23.9773  -28.6404 H   0  0  0  0  0  0  0  0  0  0  0  0
   -5.0170   23.6400  -31.4040 H   0  0  0  0  0  0  0  0  0  0  0  0
   -6.7452   22.7345  -29.1884 H   0  0  0  0  0  0  0  0  0  0  0  0
   -7.0340   24.0094  -30.4495 H   0  0  0  0  0  0  0  0  0  0  0  0
   -5.5057   21.1403  -31.9101 H   0  0  0  0  0  0  0  0  0  0  0  0
   -6.7037   19.4444  -33.2948 H   0  0  0  0  0  0  0  0  0  0  0  0
   -9.1977   19.3511  -33.2797 H   0  0  0  0  0  0  0  0  0  0  0  0
  -10.5002   20.9535  -31.8758 H   0  0  0  0  0  0  0  0  0  0  0  0
   -9.3101   22.6489  -30.4811 H   0  0  0  0  0  0  0  0  0  0  0  0
   -0.6463   21.7759  -29.3168 H   0  0  0  0  0  0  0  0  0  0  0  0
   -1.8575   22.8592  -30.0824 H   0  0  0  0  0  0  0  0  0  0  0  0
   -0.1195   23.3131  -30.0824 H   0  0  0  0  0  0  0  0  0  0  0  0
    0.0493   22.0875  -27.0718 H   0  0  0  0  0  0  0  0  0  0  0  0
  1  2  1  0
  2  3  2  0
  3  4  1  0
  4  5  2  0
  5  6  1  0
  6  7  1  0
  7  8  2  0
  7  9  1  0
  9 10  1  0
 10 11  1  0
 11 12  1  0
 12 13  2  0
 13 14  1  0
 14 15  2  0
 15 16  1  0
 16 17  2  0
  5 18  1  0
 18 19  1  0
 18 20  2  0
 20  2  1  0
 17 12  1  0
  1 21  1  0
  1 22  1  0
  1 23  1  0
  3 24  1  0
  4 25  1  0
  9 26  1  0
  9 27  1  0
 10 28  1  0
 11 29  1  0
 11 30  1  0
 13 31  1  0
 14 32  1  0
 15 33  1  0
 16 34  1  0
 17 35  1  0
 19 36  1  0
 19 37  1  0
 19 38  1  0
 20 39  1  0
M  CHG  1   6  -1
M  END
>  <UniqueID>  (40) 
36

>  <SMILES>  (40) 
Cc1ccc([N-]C(=O)CNCc2ccccc2)c(C)c1

>  <Energy>  (40) 
41.443286173296

>  <Genealogy>  (40) 
Cc1ccc([N-]C(=O)CNCc2ccccc2)c(C)c1 (protonated)
Cc1ccc([N-]C(=O)CNCc2ccccc2)c(C)c1 (3D coordinates assigned)
Cc1ccc([N-]C(=O)CNCc2ccccc2)c(C)c1 (optimized conformer: 41.443286173296 kcal/mol)

>  <smiles>  (40) 
Cc1ccc(NC(=O)CNCc2ccccc2)c(C)c1

>  <score_type>  (40) 
oracle

>  <origin>  (40) 
adgpu

>  <m_score__min__energy>  (40) 
-9.3399999999999999

>  <m_primary>  (40) 
energy

$$$$
40:0
     RDKit          3D

 55 57  0  0  0  0  0  0  0  0999 V2000
   -0.8610   26.4560  -27.7940 C   0  0  0  0  0  0  0  0  0  0  0  0
   -1.6180   25.9390  -28.8840 O   0  0  0  0  0  0  0  0  0  0  0  0
   -2.1000   24.6240  -28.9800 C   0  0  0  0  0  0  0  0  0  0  0  0
   -1.4970   23.5830  -28.2440 C   0  0  0  0  0  0  0  0  0  0  0  0
   -1.9690   22.2770  -28.3440 C   0  0  0  0  0  0  0  0  0  0  0  0
   -3.0470   21.9840  -29.1720 C   0  0  0  0  0  0  0  0  0  0  0  0
   -3.6740   22.9970  -29.9110 C   0  0  0  0  0  0  0  0  0  0  0  0
   -4.8140   22.6200  -30.8310 C   0  0  0  0  0  0  0  0  0  0  0  0
   -4.3170   22.3400  -32.2540 C   0  0  0  0  0  0  0  0  0  0  0  0
   -2.8990   21.9830  -32.2600 N   0  0  0  0  0  0  0  0  0  0  0  0
   -2.2490   21.1630  -33.2410 C   0  0  0  0  0  0  0  0  0  0  0  0
   -1.1890   21.5840  -33.7740 O   0  0  0  0  0  0  0  0  0  0  0  0
   -2.7910   19.8550  -33.6570 C   0  0  0  0  0  0  0  0  0  0  0  0
   -1.9410   18.8910  -34.2180 C   0  0  0  0  0  0  0  0  0  0  0  0
   -2.4440   17.6480  -34.6060 C   0  0  0  0  0  0  0  0  0  0  0  0
   -3.7970   17.3490  -34.4220 C   0  0  0  0  0  0  0  0  0  0  0  0
   -4.6540   18.2940  -33.8380 C   0  0  0  0  0  0  0  0  0  0  0  0
   -6.1090   17.9750  -33.6120 C   0  0  0  0  0  0  0  0  0  0  0  0
   -6.6920   18.9050  -32.6240 N   0  0  0  0  0  0  0  0  0  0  0  0
   -7.2380   20.1000  -33.2990 C   0  0  0  0  0  0  0  0  0  0  0  0
   -8.1330   20.9020  -32.3380 C   0  0  0  0  0  0  0  0  0  0  0  0
   -9.2050   20.1680  -31.7550 O   0  0  0  0  0  0  0  0  0  0  0  0
   -9.1120   18.7680  -31.9530 C   0  0  0  0  0  0  0  0  0  0  0  0
   -7.6840   18.2410  -31.7380 C   0  0  0  0  0  0  0  0  0  0  0  0
   -4.1440   19.5420  -33.4490 C   0  0  0  0  0  0  0  0  0  0  0  0
   -3.2070   24.3290  -29.8230 C   0  0  0  0  0  0  0  0  0  0  0  0
   -3.8770   25.3060  -30.5870 O   0  0  0  0  0  0  0  0  0  0  0  0
   -5.2480   25.6740  -30.4860 C   0  0  0  0  0  0  0  0  0  0  0  0
   -1.3216   26.1415  -26.8459 H   0  0  0  0  0  0  0  0  0  0  0  0
    0.1681   26.0712  -27.8471 H   0  0  0  0  0  0  0  0  0  0  0  0
   -0.8449   27.5546  -27.8471 H   0  0  0  0  0  0  0  0  0  0  0  0
   -0.6452   23.8051  -27.5843 H   0  0  0  0  0  0  0  0  0  0  0  0
   -1.4876   21.4743  -27.7661 H   0  0  0  0  0  0  0  0  0  0  0  0
   -3.4109   20.9487  -29.2478 H   0  0  0  0  0  0  0  0  0  0  0  0
   -5.3057   21.7171  -30.4398 H   0  0  0  0  0  0  0  0  0  0  0  0
   -5.5193   23.4632  -30.8709 H   0  0  0  0  0  0  0  0  0  0  0  0
   -4.8978   21.5084  -32.6794 H   0  0  0  0  0  0  0  0  0  0  0  0
   -4.4482   23.2527  -32.8539 H   0  0  0  0  0  0  0  0  0  0  0  0
   -0.8726   19.1154  -34.3530 H   0  0  0  0  0  0  0  0  0  0  0  0
   -1.7738   16.9018  -35.0578 H   0  0  0  0  0  0  0  0  0  0  0  0
   -4.1906   16.3709  -34.7357 H   0  0  0  0  0  0  0  0  0  0  0  0
   -6.6528   18.0692  -34.5635 H   0  0  0  0  0  0  0  0  0  0  0  0
   -6.1939   16.9475  -33.2285 H   0  0  0  0  0  0  0  0  0  0  0  0
   -6.4066   20.7369  -33.6354 H   0  0  0  0  0  0  0  0  0  0  0  0
   -7.8416   19.7768  -34.1600 H   0  0  0  0  0  0  0  0  0  0  0  0
   -7.5005   21.2857  -31.5239 H   0  0  0  0  0  0  0  0  0  0  0  0
   -8.5982   21.6944  -32.9428 H   0  0  0  0  0  0  0  0  0  0  0  0
   -9.7851   18.2650  -31.2431 H   0  0  0  0  0  0  0  0  0  0  0  0
   -9.3951   18.5563  -32.9947 H   0  0  0  0  0  0  0  0  0  0  0  0
   -7.3964   18.4186  -30.6912 H   0  0  0  0  0  0  0  0  0  0  0  0
   -7.6838   17.1683  -31.9814 H   0  0  0  0  0  0  0  0  0  0  0  0
   -4.8090   20.2806  -32.9776 H   0  0  0  0  0  0  0  0  0  0  0  0
   -5.5301   25.7497  -29.4255 H   0  0  0  0  0  0  0  0  0  0  0  0
   -5.4039   26.6458  -30.9772 H   0  0  0  0  0  0  0  0  0  0  0  0
   -5.8696   24.9109  -30.9772 H   0  0  0  0  0  0  0  0  0  0  0  0
  1  2  1  0
  2  3  1  0
  3  4  2  0
  4  5  1  0
  5  6  2  0
  6  7  1  0
  7  8  1  0
  8  9  1  0
  9 10  1  0
 10 11  1  0
 11 12  2  0
 11 13  1  0
 13 14  2  0
 14 15  1  0
 15 16  2  0
 16 17  1  0
 17 18  1  0
 18 19  1  0
 19 20  1  0
 20 21  1  0
 21 22  1  0
 22 23  1  0
 23 24  1  0
 17 25  2  0
  7 26  2  0
 26 27  1  0
 27 28  1  0
 26  3  1  0
 25 13  1  0
 24 19  1  0
  1 29  1  0
  1 30  1  0
  1 31  1  0
  4 32  1  0
  5 33  1  0
  6 34  1  0
  8 35  1  0
  8 36  1  0
  9 37  1  0
  9 38  1  0
 14 39  1  0
 15 40  1  0
 16 41  1  0
 18 42  1  0
 18 43  1  0
 20 44  1  0
 20 45  1  0
 21 46  1  0
 21 47  1  0
 23 48  1  0
 23 49  1  0
 24 50  1  0
 24 51  1  0
 25 52  1  0
 28 53  1  0
 28 54  1  0
 28 55  1  0
M  CHG  1  10  -1
M  END
>  <UniqueID>  (41) 
37

>  <SMILES>  (41) 
COc1cccc(CC[N-]C(=O)c2cccc(CN3CCOCC3)c2)c1OC

>  <Energy>  (41) 
72.89768924387127

>  <Genealogy>  (41) 
COc1cccc(CC[N-]C(=O)c2cccc(CN3CCOCC3)c2)c1OC (protonated)
COc1cccc(CC[N-]C(=O)c2cccc(CN3CCOCC3)c2)c1OC (3D coordinates assigned)
COc1cccc(CC[N-]C(=O)c2cccc(CN3CCOCC3)c2)c1OC (nonaromatic ring conformer: 72.89768924387127 kcal/mol)

>  <smiles>  (41) 
COc1cccc(CCNC(=O)c2cccc(CN3CCOCC3)c2)c1OC

>  <score_type>  (41) 
oracle

>  <origin>  (41) 
adgpu

>  <m_score__min__energy>  (41) 
-10.01

>  <m_primary>  (41) 
energy

$$$$
41:0
     RDKit          3D

 26 27  0  0  0  0  0  0  0  0999 V2000
   -0.2430   24.2200  -28.6110 N   0  0  0  0  0  0  0  0  0  0  0  0
   -1.4080   23.9330  -29.0850 C   0  0  0  0  0  0  0  0  0  0  0  0
   -1.8370   22.6820  -29.0050 N   0  0  0  0  0  0  0  0  0  0  0  0
   -3.0580   22.3060  -29.4850 C   0  0  0  0  0  0  0  0  0  0  0  0
   -3.9020   23.2370  -30.0810 C   0  0  0  0  0  0  0  0  0  0  0  0
   -5.1710   22.7950  -30.5690 C   0  0  0  0  0  0  0  0  0  0  0  0
   -6.3150   23.3550  -29.9850 C   0  0  0  0  0  0  0  0  0  0  0  0
   -7.5700   22.9500  -30.4350 C   0  0  0  0  0  0  0  0  0  0  0  0
   -7.6960   22.0190  -31.4300 C   0  0  0  0  0  0  0  0  0  0  0  0
   -9.2930   21.5390  -31.9630 Cl  0  0  0  0  0  0  0  0  0  0  0  0
   -6.5890   21.4590  -32.0140 C   0  0  0  0  0  0  0  0  0  0  0  0
   -6.7870   20.4950  -33.0460 N   0  0  0  0  0  0  0  0  0  0  0  0
   -5.3490   21.8550  -31.5760 C   0  0  0  0  0  0  0  0  0  0  0  0
   -3.4360   24.5340  -30.1530 C   0  0  0  0  0  0  0  0  0  0  0  0
   -4.2020   25.4370  -30.7070 N   0  0  0  0  0  0  0  0  0  0  0  0
   -2.2110   24.8600  -29.6600 N   0  0  0  0  0  0  0  0  0  0  0  0
    0.0630   25.2240  -28.6920 H   0  0  0  0  0  0  0  0  0  0  0  0
   -1.2330   21.9540  -28.5650 H   0  0  0  0  0  0  0  0  0  0  0  0
   -3.3775   21.2569  -29.3997 H   0  0  0  0  0  0  0  0  0  0  0  0
   -6.2237   24.1029  -29.1836 H   0  0  0  0  0  0  0  0  0  0  0  0
   -8.4736   23.3854  -29.9834 H   0  0  0  0  0  0  0  0  0  0  0  0
   -7.6350   20.4390  -33.6370 H   0  0  0  0  0  0  0  0  0  0  0  0
   -6.0040   19.8000  -33.2000 H   0  0  0  0  0  0  0  0  0  0  0  0
   -4.4586   21.4086  -32.0427 H   0  0  0  0  0  0  0  0  0  0  0  0
   -3.8650   26.4240  -30.7720 H   0  0  0  0  0  0  0  0  0  0  0  0
   -1.8910   25.8560  -29.7350 H   0  0  0  0  0  0  0  0  0  0  0  0
  1  2  2  3
  2  3  1  0
  3  4  1  0
  4  5  2  0
  5  6  1  0
  6  7  2  0
  7  8  1  0
  8  9  2  0
  9 10  1  0
  9 11  1  0
 11 12  1  0
 11 13  2  0
  5 14  1  0
 14 15  2  3
 14 16  1  0
 16  2  1  0
 13  6  1  0
  1 17  1  0
  3 18  1  0
  4 19  1  0
  7 20  1  0
  8 21  1  0
 12 22  1  0
 12 23  1  0
 13 24  1  0
 15 25  1  0
 16 26  1  0
M  END
>  <smiles>  (42) 
N=c1[nH]cc(-c2ccc(Cl)c(N)c2)c(=N)[nH]1

>  <score_type>  (42) 
oracle

>  <origin>  (42) 
adgpu

>  <m_score__min__energy>  (42) 
-6.8600000000000003

>  <m_primary>  (42) 
energy

$$$$
42:0
     RDKit          3D

 38 41  0  0  0  0  0  0  0  0999 V2000
   -2.3830   21.2560  -29.6620 O   0  0  0  0  0  0  0  0  0  0  0  0
   -1.7560   22.0420  -30.4230 C   0  0  0  0  0  0  0  0  0  0  0  0
   -1.5320   23.4040  -30.0200 N   0  0  0  0  0  0  0  0  0  0  0  0
   -2.1200   23.9460  -28.8280 C   0  0  0  0  0  0  0  0  0  0  0  0
   -1.2740   24.3050  -27.7680 C   0  0  0  0  0  0  0  0  0  0  0  0
   -1.8040   24.7660  -26.5630 C   0  0  0  0  0  0  0  0  0  0  0  0
   -3.1840   24.8810  -26.4060 C   0  0  0  0  0  0  0  0  0  0  0  0
   -4.0390   24.5550  -27.4590 C   0  0  0  0  0  0  0  0  0  0  0  0
   -3.5230   24.1060  -28.6890 C   0  0  0  0  0  0  0  0  0  0  0  0
   -4.4670   23.8690  -29.8050 C   0  0  0  0  0  0  0  0  0  0  0  0
   -4.6100   24.6720  -30.8790 N   0  0  0  0  0  0  0  0  0  0  0  0
   -5.5570   24.1310  -31.6280 N   0  0  0  0  0  0  0  0  0  0  0  0
   -5.9630   23.0200  -30.9830 C   0  0  0  0  0  0  0  0  0  0  0  0
   -7.0150   22.1080  -31.4700 C   0  0  0  0  0  0  0  0  0  0  0  0
   -6.6840   20.9700  -32.2270 C   0  0  0  0  0  0  0  0  0  0  0  0
   -7.6880   20.1100  -32.6840 C   0  0  0  0  0  0  0  0  0  0  0  0
   -9.0270   20.3780  -32.3900 C   0  0  0  0  0  0  0  0  0  0  0  0
   -9.3660   21.5060  -31.6390 C   0  0  0  0  0  0  0  0  0  0  0  0
   -8.3650   22.3690  -31.1800 C   0  0  0  0  0  0  0  0  0  0  0  0
   -5.3000   22.8580  -29.8620 O   0  0  0  0  0  0  0  0  0  0  0  0
   -1.2590   21.5440  -31.7180 C   0  0  0  0  0  0  0  0  0  0  0  0
    0.0480   21.1760  -32.0240 C   0  0  0  0  0  0  0  0  0  0  0  0
    0.2080   20.7650  -33.3540 C   0  0  0  0  0  0  0  0  0  0  0  0
   -0.9620   20.8110  -34.0990 C   0  0  0  0  0  0  0  0  0  0  0  0
   -2.1980   21.3650  -33.1030 S   0  0  0  0  0  0  0  0  0  0  0  0
   -0.7520   23.9380  -30.4610 H   0  0  0  0  0  0  0  0  0  0  0  0
   -0.1837   24.2222  -27.8882 H   0  0  0  0  0  0  0  0  0  0  0  0
   -1.1322   25.0390  -25.7359 H   0  0  0  0  0  0  0  0  0  0  0  0
   -3.6001   25.2297  -25.4493 H   0  0  0  0  0  0  0  0  0  0  0  0
   -5.1269   24.6498  -27.3267 H   0  0  0  0  0  0  0  0  0  0  0  0
   -5.6308   20.7552  -32.4608 H   0  0  0  0  0  0  0  0  0  0  0  0
   -7.4228   19.2214  -33.2757 H   0  0  0  0  0  0  0  0  0  0  0  0
   -9.8151   19.7003  -32.7501 H   0  0  0  0  0  0  0  0  0  0  0  0
  -10.4209   21.7159  -31.4083 H   0  0  0  0  0  0  0  0  0  0  0  0
   -8.6361   23.2563  -30.5891 H   0  0  0  0  0  0  0  0  0  0  0  0
    0.8718   21.2049  -31.2956 H   0  0  0  0  0  0  0  0  0  0  0  0
    1.1721   20.4362  -33.7693 H   0  0  0  0  0  0  0  0  0  0  0  0
   -1.0632   20.5329  -35.1585 H   0  0  0  0  0  0  0  0  0  0  0  0
  1  2  2  0
  2  3  1  0
  3  4  1  0
  4  5  2  0
  5  6  1  0
  6  7  2  0
  7  8  1  0
  8  9  2  0
  9 10  1  0
 10 11  2  0
 11 12  1  0
 12 13  2  0
 13 14  1  0
 14 15  2  0
 15 16  1  0
 16 17  2  0
 17 18  1  0
 18 19  2  0
 13 20  1  0
  2 21  1  0
 21 22  2  0
 22 23  1  0
 23 24  2  0
 24 25  1  0
  9  4  1  0
 20 10  1  0
 25 21  1  0
 19 14  1  0
  3 26  1  0
  5 27  1  0
  6 28  1  0
  7 29  1  0
  8 30  1  0
 15 31  1  0
 16 32  1  0
 17 33  1  0
 18 34  1  0
 19 35  1  0
 22 36  1  0
 23 37  1  0
 24 38  1  0
M  END
>  <UniqueID>  (43) 
38

>  <SMILES>  (43) 
O=C(Nc1ccccc1-c1nnc(-c2ccccc2)o1)c1cccs1

>  <Energy>  (43) 
111.2395579770137

>  <Genealogy>  (43) 
O=C(Nc1ccccc1-c1nnc(-c2ccccc2)o1)c1cccs1 (3D coordinates assigned)
O=C(Nc1ccccc1-c1nnc(-c2ccccc2)o1)c1cccs1 (optimized conformer: 111.2395579770137 kcal/mol)

>  <smiles>  (43) 
O=C(Nc1ccccc1-c1nnc(-c2ccccc2)o1)c1cccs1

>  <score_type>  (43) 
oracle

>  <origin>  (43) 
adgpu

>  <m_score__min__energy>  (43) 
-8.9800000000000004

>  <m_primary>  (43) 
energy

$$$$
43:0
     RDKit          3D

 42 43  0  0  0  0  0  0  0  0999 V2000
   -8.6810   18.5570  -31.6650 C   0  0  0  0  0  0  0  0  0  0  0  0
   -8.8920   19.6340  -32.7230 C   0  0  0  0  0  0  0  0  0  0  0  0
   -7.6550   20.2610  -33.0620 O   0  0  0  0  0  0  0  0  0  0  0  0
   -7.0930   21.3680  -32.4030 C   0  0  0  0  0  0  0  0  0  0  0  0
   -7.8710   22.3470  -31.7540 C   0  0  0  0  0  0  0  0  0  0  0  0
   -7.2530   23.4130  -31.0950 C   0  0  0  0  0  0  0  0  0  0  0  0
   -5.8570   23.5080  -31.0570 C   0  0  0  0  0  0  0  0  0  0  0  0
   -5.0960   24.8020  -30.1370 S   0  0  0  0  0  0  0  0  0  0  0  0
   -6.0690   25.9410  -30.0190 O   0  0  0  0  0  0  0  0  0  0  0  0
   -3.8630   25.2940  -30.8430 O   0  0  0  0  0  0  0  0  0  0  0  0
   -4.6770   24.2480  -28.5400 N   0  0  0  0  0  0  0  0  0  0  0  0
   -3.6560   23.1980  -28.5810 C   0  0  0  0  0  0  0  0  0  0  0  0
   -2.2760   23.7850  -28.4730 C   0  0  0  0  0  0  0  0  0  0  0  0
   -1.1830   23.5060  -29.2790 C   0  0  0  0  0  0  0  0  0  0  0  0
   -1.1510   22.5690  -30.4420 C   0  0  0  0  0  0  0  0  0  0  0  0
   -0.1320   24.2590  -28.8980 N   0  0  0  0  0  0  0  0  0  0  0  0
   -0.5170   24.9910  -27.8650 N   0  0  0  0  0  0  0  0  0  0  0  0
    0.3560   25.9440  -27.1880 C   0  0  0  0  0  0  0  0  0  0  0  0
   -1.8140   24.7410  -27.5810 C   0  0  0  0  0  0  0  0  0  0  0  0
   -2.5750   25.3390  -26.4340 C   0  0  0  0  0  0  0  0  0  0  0  0
   -5.0820   22.5490  -31.7240 C   0  0  0  0  0  0  0  0  0  0  0  0
   -5.6980   21.4850  -32.3870 C   0  0  0  0  0  0  0  0  0  0  0  0
   -8.7686   19.0043  -30.6639 H   0  0  0  0  0  0  0  0  0  0  0  0
   -9.4424   17.7721  -31.7838 H   0  0  0  0  0  0  0  0  0  0  0  0
   -7.6797   18.1174  -31.7838 H   0  0  0  0  0  0  0  0  0  0  0  0
   -9.3223   19.1742  -33.6249 H   0  0  0  0  0  0  0  0  0  0  0  0
   -9.5745   20.3962  -32.3190 H   0  0  0  0  0  0  0  0  0  0  0  0
   -8.9684   22.2720  -31.7661 H   0  0  0  0  0  0  0  0  0  0  0  0
   -7.8670   24.1819  -30.6033 H   0  0  0  0  0  0  0  0  0  0  0  0
   -3.8188   22.5048  -27.7426 H   0  0  0  0  0  0  0  0  0  0  0  0
   -3.7372   22.6670  -29.5409 H   0  0  0  0  0  0  0  0  0  0  0  0
   -1.1156   21.5321  -30.0766 H   0  0  0  0  0  0  0  0  0  0  0  0
   -2.0545   22.7118  -31.0529 H   0  0  0  0  0  0  0  0  0  0  0  0
   -0.2593   22.7731  -31.0529 H   0  0  0  0  0  0  0  0  0  0  0  0
    0.2503   25.8287  -26.0992 H   0  0  0  0  0  0  0  0  0  0  0  0
    1.4002   25.7543  -27.4772 H   0  0  0  0  0  0  0  0  0  0  0  0
    0.0757   26.9676  -27.4772 H   0  0  0  0  0  0  0  0  0  0  0  0
   -2.1377   24.9954  -25.4850 H   0  0  0  0  0  0  0  0  0  0  0  0
   -2.5176   26.4362  -26.4882 H   0  0  0  0  0  0  0  0  0  0  0  0
   -3.6275   25.0238  -26.4882 H   0  0  0  0  0  0  0  0  0  0  0  0
   -3.9853   22.6347  -31.7253 H   0  0  0  0  0  0  0  0  0  0  0  0
   -5.0818   20.7326  -32.9009 H   0  0  0  0  0  0  0  0  0  0  0  0
  1  2  1  0
  2  3  1  0
  3  4  1  0
  4  5  2  0
  5  6  1  0
  6  7  2  0
  7  8  1  0
  8  9  2  0
  8 10  2  0
  8 11  1  0
 11 12  1  0
 12 13  1  0
 13 14  1  0
 14 15  1  0
 14 16  2  0
 16 17  1  0
 17 18  1  0
 17 19  1  0
 19 20  1  0
  7 21  1  0
 21 22  2  0
 22  4  1  0
 19 13  2  0
  1 23  1  0
  1 24  1  0
  1 25  1  0
  2 26  1  0
  2 27  1  0
  5 28  1  0
  6 29  1  0
 12 30  1  0
 12 31  1  0
 15 32  1  0
 15 33  1  0
 15 34  1  0
 18 35  1  0
 18 36  1  0
 18 37  1  0
 20 38  1  0
 20 39  1  0
 20 40  1  0
 21 41  1  0
 22 42  1  0
M  CHG  1  11  -1
M  END
>  <UniqueID>  (44) 
39

>  <SMILES>  (44) 
CCOc1ccc(S(=O)(=O)[N-]Cc2c(C)nn(C)c2C)cc1

>  <Energy>  (44) 
61.28483784439551

>  <Genealogy>  (44) 
CCOc1ccc(S(=O)(=O)[N-]Cc2c(C)nn(C)c2C)cc1 (protonated)
CCOc1ccc(S(=O)(=O)[N-]Cc2c(C)nn(C)c2C)cc1 (3D coordinates assigned)
CCOc1ccc(S(=O)(=O)[N-]Cc2c(C)nn(C)c2C)cc1 (optimized conformer: 61.28483784439551 kcal/mol)

>  <smiles>  (44) 
CCOc1ccc(S(=O)(=O)NCc2c(C)nn(C)c2C)cc1

>  <score_type>  (44) 
oracle

>  <origin>  (44) 
adgpu

>  <m_score__min__energy>  (44) 
-8.5500000000000007

>  <m_primary>  (44) 
energy

$$$$
44:0
     RDKit          3D

 37 39  0  0  0  0  0  0  0  0999 V2000
   -4.3790   19.5450  -32.0070 O   0  0  0  0  0  0  0  0  0  0  0  0
   -4.0170   20.6780  -32.4280 C   0  0  0  0  0  0  0  0  0  0  0  0
   -4.9970   21.6950  -32.6770 N   0  0  0  0  0  0  0  0  0  0  0  0
   -6.3390   21.6100  -32.1780 C   0  0  0  0  0  0  0  0  0  0  0  0
   -7.2720   20.8240  -32.8700 C   0  0  0  0  0  0  0  0  0  0  0  0
   -8.5750   20.6830  -32.3870 C   0  0  0  0  0  0  0  0  0  0  0  0
   -8.9620   21.3340  -31.2150 C   0  0  0  0  0  0  0  0  0  0  0  0
   -8.0500   22.1430  -30.5310 C   0  0  0  0  0  0  0  0  0  0  0  0
   -6.7390   22.2990  -31.0090 C   0  0  0  0  0  0  0  0  0  0  0  0
   -5.8550   23.2180  -30.3430 N   0  0  0  0  0  0  0  0  0  0  0  0
   -4.5230   22.7690  -29.9180 C   0  0  0  0  0  0  0  0  0  0  0  0
   -3.5980   23.9680  -29.6980 C   0  0  0  0  0  0  0  0  0  0  0  0
   -3.7810   24.9220  -30.7970 N   0  0  0  0  0  0  0  0  0  0  0  0
   -5.1190   25.5450  -30.7830 C   0  0  0  0  0  0  0  0  0  0  0  0
   -6.2210   24.6320  -30.2060 C   0  0  0  0  0  0  0  0  0  0  0  0
   -2.5880   20.9350  -32.6700 C   0  0  0  0  0  0  0  0  0  0  0  0
   -1.6410   21.3310  -31.7470 C   0  0  0  0  0  0  0  0  0  0  0  0
   -0.4530   21.4110  -32.4440 C   0  0  0  0  0  0  0  0  0  0  0  0
   -0.6520   21.0840  -33.7010 O   0  0  0  0  0  0  0  0  0  0  0  0
   -1.9210   20.7900  -33.8700 C   0  0  0  0  0  0  0  0  0  0  0  0
   -4.7810   22.4400  -33.3770 H   0  0  0  0  0  0  0  0  0  0  0  0
   -6.9756   20.3153  -33.7992 H   0  0  0  0  0  0  0  0  0  0  0  0
   -9.2976   20.0575  -32.9316 H   0  0  0  0  0  0  0  0  0  0  0  0
   -9.9848   21.2106  -30.8293 H   0  0  0  0  0  0  0  0  0  0  0  0
   -8.3615   22.6610  -29.6120 H   0  0  0  0  0  0  0  0  0  0  0  0
   -4.6140   22.2048  -28.9781 H   0  0  0  0  0  0  0  0  0  0  0  0
   -4.0955   22.1295  -30.7044 H   0  0  0  0  0  0  0  0  0  0  0  0
   -3.8457   24.4542  -28.7429 H   0  0  0  0  0  0  0  0  0  0  0  0
   -2.5518   23.6294  -29.6709 H   0  0  0  0  0  0  0  0  0  0  0  0
   -3.0630   25.6780  -30.6950 H   0  0  0  0  0  0  0  0  0  0  0  0
   -5.0703   26.4591  -30.1730 H   0  0  0  0  0  0  0  0  0  0  0  0
   -5.3883   25.7531  -31.8290 H   0  0  0  0  0  0  0  0  0  0  0  0
   -6.3611   24.8660  -29.1403 H   0  0  0  0  0  0  0  0  0  0  0  0
   -7.1521   24.8095  -30.7642 H   0  0  0  0  0  0  0  0  0  0  0  0
   -1.8003   21.5393  -30.6787 H   0  0  0  0  0  0  0  0  0  0  0  0
    0.5153   21.7044  -32.0123 H   0  0  0  0  0  0  0  0  0  0  0  0
   -2.3804   20.4772  -34.8192 H   0  0  0  0  0  0  0  0  0  0  0  0
  1  2  2  0
  2  3  1  0
  3  4  1  0
  4  5  2  0
  5  6  1  0
  6  7  2  0
  7  8  1  0
  8  9  2  0
  9 10  1  0
 10 11  1  0
 11 12  1  0
 12 13  1  0
 13 14  1  0
 14 15  1  0
  2 16  1  0
 16 17  1  0
 17 18  2  0
 18 19  1  0
 19 20  1  0
  9  4  1  0
 15 10  1  0
 20 16  2  0
  3 21  1  0
  5 22  1  0
  6 23  1  0
  7 24  1  0
  8 25  1  0
 11 26  1  0
 11 27  1  0
 12 28  1  0
 12 29  1  0
 13 30  1  0
 14 31  1  0
 14 32  1  0
 15 33  1  0
 15 34  1  0
 17 35  1  0
 18 36  1  0
 20 37  1  0
M  END
>  <UniqueID>  (45) 
40

>  <SMILES>  (45) 
O=C(Nc1ccccc1N1CCNCC1)c1ccoc1

>  <Energy>  (45) 
77.29205856894315

>  <Genealogy>  (45) 
O=C(Nc1ccccc1N1CCNCC1)c1ccoc1 (3D coordinates assigned)
O=C(Nc1ccccc1N1CCNCC1)c1ccoc1 (nonaromatic ring conformer: 77.29205856894315 kcal/mol)

>  <smiles>  (45) 
O=C(Nc1ccccc1N1CCNCC1)c1ccoc1

>  <score_type>  (45) 
oracle

>  <origin>  (45) 
adgpu

>  <m_score__min__energy>  (45) 
-7.7599999999999998

>  <m_primary>  (45) 
energy

$$$$
45:0
     RDKit          3D

 26 27  0  0  0  0  0  0  0  0999 V2000
   -2.9940   25.6710  -30.8380 H   0  0  0  0  0  0  0  0  0  0  0  0
   -3.9460   25.4040  -30.6190 O   0  0  0  0  0  0  0  0  0  0  0  0
   -4.4520   24.2150  -31.0900 N   0  0  0  0  0  0  0  0  0  0  0  0
   -5.7180   24.0860  -31.3230 C   0  0  0  0  0  0  0  0  0  0  0  0
   -6.3959   24.9335  -31.1433 H   0  0  0  0  0  0  0  0  0  0  0  0
   -6.2560   22.8150  -31.8260 C   0  0  0  0  0  0  0  0  0  0  0  0
   -7.5750   22.5140  -32.1130 C   0  0  0  0  0  0  0  0  0  0  0  0
   -8.7480   23.4260  -31.9720 C   0  0  0  0  0  0  0  0  0  0  0  0
   -8.9588   23.5899  -30.9049 H   0  0  0  0  0  0  0  0  0  0  0  0
   -8.5236   24.3892  -32.4536 H   0  0  0  0  0  0  0  0  0  0  0  0
   -9.6261   22.9711  -32.4536 H   0  0  0  0  0  0  0  0  0  0  0  0
   -7.6610   21.2380  -32.5360 N   0  0  0  0  0  0  0  0  0  0  0  0
   -6.4390   20.7230  -32.5320 N   0  0  0  0  0  0  0  0  0  0  0  0
   -6.1490   19.3650  -32.9200 C   0  0  0  0  0  0  0  0  0  0  0  0
   -6.2760   18.3220  -31.9810 C   0  0  0  0  0  0  0  0  0  0  0  0
   -6.5953   18.5501  -30.9534 H   0  0  0  0  0  0  0  0  0  0  0  0
   -6.0000   17.0000  -32.3430 C   0  0  0  0  0  0  0  0  0  0  0  0
   -6.1007   16.1947  -31.6005 H   0  0  0  0  0  0  0  0  0  0  0  0
   -5.5970   16.7010  -33.6450 C   0  0  0  0  0  0  0  0  0  0  0  0
   -5.3778   15.6608  -33.9277 H   0  0  0  0  0  0  0  0  0  0  0  0
   -5.4720   17.7220  -34.5890 C   0  0  0  0  0  0  0  0  0  0  0  0
   -5.1563   17.4843  -35.6156 H   0  0  0  0  0  0  0  0  0  0  0  0
   -5.7470   19.0460  -34.2330 C   0  0  0  0  0  0  0  0  0  0  0  0
   -5.6489   19.8446  -34.9831 H   0  0  0  0  0  0  0  0  0  0  0  0
   -5.5600   21.6560  -32.1020 C   0  0  0  0  0  0  0  0  0  0  0  0
   -4.4747   21.5151  -31.9911 H   0  0  0  0  0  0  0  0  0  0  0  0
  1  2  1  0
  2  3  1  0
  3  4  2  0
  4  5  1  0
  4  6  1  0
  6  7  1  0
  7  8  1  0
  8  9  1  0
  8 10  1  0
  8 11  1  0
  7 12  2  0
 12 13  1  0
 13 14  1  0
 14 15  2  0
 15 16  1  0
 15 17  1  0
 17 18  1  0
 17 19  2  0
 19 20  1  0
 19 21  1  0
 21 22  1  0
 21 23  2  0
 23 24  1  0
 13 25  1  0
 25 26  1  0
 25  6  2  0
 23 14  1  0
M  END
>  <UniqueID>  (46) 
41

>  <SMILES>  (46) 
Cc1nn(-c2ccccc2)cc1/C=N/O

>  <Energy>  (46) 
55.53949368098274

>  <Genealogy>  (46) 
Cc1nn(-c2ccccc2)cc1/C=N/O (cis-trans isomerization)
Cc1nn(-c2ccccc2)cc1/C=N/O (3D coordinates assigned)
Cc1nn(-c2ccccc2)cc1/C=N/O (optimized conformer: 55.53949368098274 kcal/mol)

>  <smiles>  (46) 
Cc1nn(-c2ccccc2)cc1C=NO

>  <score_type>  (46) 
oracle

>  <origin>  (46) 
adgpu

>  <m_score__min__energy>  (46) 
-7.96

>  <m_primary>  (46) 
energy

$$$$
46:0
     RDKit          3D

 44 47  0  0  0  0  0  0  0  0999 V2000
  -10.5841   22.0184  -32.0649 H   0  0  0  0  0  0  0  0  0  0  0  0
   -9.4890   21.9660  -31.9760 C   0  0  0  0  0  0  0  0  0  0  0  0
   -8.8550   20.7260  -31.8700 C   0  0  0  0  0  0  0  0  0  0  0  0
   -9.4521   19.8022  -31.8762 H   0  0  0  0  0  0  0  0  0  0  0  0
   -7.4630   20.6560  -31.7560 C   0  0  0  0  0  0  0  0  0  0  0  0
   -6.9699   19.6764  -31.6713 H   0  0  0  0  0  0  0  0  0  0  0  0
   -6.6890   21.8320  -31.7490 C   0  0  0  0  0  0  0  0  0  0  0  0
   -5.2100   21.7570  -31.6290 C   0  0  0  0  0  0  0  0  0  0  0  0
   -4.5780   22.1230  -30.4340 C   0  0  0  0  0  0  0  0  0  0  0  0
   -5.1819   22.4799  -29.5867 H   0  0  0  0  0  0  0  0  0  0  0  0
   -3.1910   22.0400  -30.3060 C   0  0  0  0  0  0  0  0  0  0  0  0
   -2.7121   22.3765  -29.3746 H   0  0  0  0  0  0  0  0  0  0  0  0
   -2.3930   21.5310  -31.3530 C   0  0  0  0  0  0  0  0  0  0  0  0
   -0.9750   21.3620  -31.2650 C   0  0  0  0  0  0  0  0  0  0  0  0
   -0.2870   21.3220  -30.1520 N   0  0  0  0  0  0  0  0  0  0  0  0
   -0.7350   21.1560  -28.8000 C   0  0  0  0  0  0  0  0  0  0  0  0
   -0.4420   22.1430  -27.8520 C   0  0  0  0  0  0  0  0  0  0  0  0
    0.1152   23.0428  -28.1517 H   0  0  0  0  0  0  0  0  0  0  0  0
   -0.8550   21.9890  -26.5260 C   0  0  0  0  0  0  0  0  0  0  0  0
   -0.6388   22.7765  -25.7890 H   0  0  0  0  0  0  0  0  0  0  0  0
   -1.5420   20.8370  -26.1340 C   0  0  0  0  0  0  0  0  0  0  0  0
   -1.8866   20.7313  -25.0947 H   0  0  0  0  0  0  0  0  0  0  0  0
   -1.7940   19.8140  -27.0620 C   0  0  0  0  0  0  0  0  0  0  0  0
   -2.5710   18.5930  -26.6570 C   0  0  0  0  0  0  0  0  0  0  0  0
   -1.8827   17.7417  -26.5494 H   0  0  0  0  0  0  0  0  0  0  0  0
   -3.3217   18.3688  -27.4291 H   0  0  0  0  0  0  0  0  0  0  0  0
   -3.2460   18.8330  -25.3860 N   0  0  0  0  0  0  0  0  0  0  0  0
   -3.1370   17.9740  -24.8000 H   0  0  0  0  0  0  0  0  0  0  0  0
   -4.2710   18.9350  -25.5730 H   0  0  0  0  0  0  0  0  0  0  0  0
   -1.3780   19.9740  -28.3920 C   0  0  0  0  0  0  0  0  0  0  0  0
   -1.5560   19.1694  -29.1207 H   0  0  0  0  0  0  0  0  0  0  0  0
   -0.2540   21.1710  -32.4490 C   0  0  0  0  0  0  0  0  0  0  0  0
    0.8457   21.1774  -32.4256 H   0  0  0  0  0  0  0  0  0  0  0  0
   -0.9180   20.9730  -33.6560 C   0  0  0  0  0  0  0  0  0  0  0  0
   -0.3404   20.8042  -34.5768 H   0  0  0  0  0  0  0  0  0  0  0  0
   -2.2730   20.9870  -33.7030 N   0  0  0  0  0  0  0  0  0  0  0  0
   -2.7360   20.8080  -34.6240 H   0  0  0  0  0  0  0  0  0  0  0  0
   -3.0240   21.2760  -32.6020 C   0  0  0  0  0  0  0  0  0  0  0  0
   -4.4210   21.3560  -32.7170 C   0  0  0  0  0  0  0  0  0  0  0  0
   -4.9028   21.1010  -33.6724 H   0  0  0  0  0  0  0  0  0  0  0  0
   -7.3390   23.0770  -31.8560 C   0  0  0  0  0  0  0  0  0  0  0  0
   -6.7481   24.0048  -31.8506 H   0  0  0  0  0  0  0  0  0  0  0  0
   -8.7310   23.1400  -31.9690 C   0  0  0  0  0  0  0  0  0  0  0  0
   -9.2309   24.1162  -32.0526 H   0  0  0  0  0  0  0  0  0  0  0  0
  1  2  1  0
  2  3  2  0
  3  4  1  0
  3  5  1  0
  5  6  1  0
  5  7  2  0
  7  8  1  0
  8  9  2  0
  9 10  1  0
  9 11  1  0
 11 12  1  0
 11 13  2  0
 13 14  1  0
 14 15  2  0
 15 16  1  0
 16 17  2  0
 17 18  1  0
 17 19  1  0
 19 20  1  0
 19 21  2  0
 21 22  1  0
 21 23  1  0
 23 24  1  0
 24 25  1  0
 24 26  1  0
 24 27  1  0
 27 28  1  0
 27 29  1  0
 23 30  2  0
 30 31  1  0
 14 32  1  0
 32 33  1  0
 32 34  2  0
 34 35  1  0
 34 36  1  0
 36 37  1  0
 36 38  1  0
 38 39  2  0
 39 40  1  0
  7 41  1  0
 41 42  1  0
 41 43  2  0
 43 44  1  0
 43  2  1  0
 39  8  1  0
 38 13  1  0
 30 16  1  0
M  END
>  <UniqueID>  (47) 
42

>  <SMILES>  (47) 
NCc1cccc(/N=c2/cc[nH]c3cc(-c4ccccc4)ccc23)c1

>  <Energy>  (47) 
74.62203813955311

>  <Genealogy>  (47) 
NCc1cccc(/N=c2/cc[nH]c3cc(-c4ccccc4)ccc23)c1 (cis-trans isomerization)
NCc1cccc(/N=c2/cc[nH]c3cc(-c4ccccc4)ccc23)c1 (3D coordinates assigned)
NCc1cccc(/N=c2/cc[nH]c3cc(-c4ccccc4)ccc23)c1 (optimized conformer: 74.62203813955311 kcal/mol)

>  <smiles>  (47) 
NCc1cccc(N=c2cc[nH]c3cc(-c4ccccc4)ccc23)c1

>  <score_type>  (47) 
oracle

>  <origin>  (47) 
adgpu

>  <m_score__min__energy>  (47) 
-9.0099999999999998

>  <m_primary>  (47) 
energy

$$$$
47:0
     RDKit          3D

 33 35  0  0  0  0  0  0  0  0999 V2000
   -6.0940   17.8230  -32.0830 O   0  0  0  0  0  0  0  0  0  0  0  0
   -5.6630   18.5630  -33.3180 S   0  0  0  0  0  0  0  0  0  0  0  0
   -5.6750   17.6130  -34.4820 O   0  0  0  0  0  0  0  0  0  0  0  0
   -6.7830   19.8510  -33.6350 N   0  0  0  0  0  0  0  0  0  0  0  0
   -7.1840   20.8230  -32.6520 C   0  0  0  0  0  0  0  0  0  0  0  0
   -8.3950   20.6450  -31.9690 C   0  0  0  0  0  0  0  0  0  0  0  0
   -8.8020   21.5610  -30.9990 C   0  0  0  0  0  0  0  0  0  0  0  0
   -8.0040   22.6650  -30.6960 C   0  0  0  0  0  0  0  0  0  0  0  0
   -6.7860   22.8690  -31.3680 C   0  0  0  0  0  0  0  0  0  0  0  0
   -5.9400   24.0390  -31.0270 C   0  0  0  0  0  0  0  0  0  0  0  0
   -6.3550   25.2360  -30.4700 C   0  0  0  0  0  0  0  0  0  0  0  0
   -5.2030   25.9830  -30.3720 C   0  0  0  0  0  0  0  0  0  0  0  0
   -4.1630   25.2720  -30.8460 N   0  0  0  0  0  0  0  0  0  0  0  0
   -4.6110   24.0920  -31.2460 N   0  0  0  0  0  0  0  0  0  0  0  0
   -6.3920   21.9490  -32.3570 C   0  0  0  0  0  0  0  0  0  0  0  0
   -4.0470   19.2290  -33.0390 C   0  0  0  0  0  0  0  0  0  0  0  0
   -3.0130   18.9330  -33.9440 C   0  0  0  0  0  0  0  0  0  0  0  0
   -3.2510   18.1680  -35.0390 F   0  0  0  0  0  0  0  0  0  0  0  0
   -1.7220   19.4230  -33.7210 C   0  0  0  0  0  0  0  0  0  0  0  0
   -1.4540   20.2110  -32.6000 C   0  0  0  0  0  0  0  0  0  0  0  0
   -2.4770   20.5160  -31.7000 C   0  0  0  0  0  0  0  0  0  0  0  0
   -3.7720   20.0320  -31.9150 C   0  0  0  0  0  0  0  0  0  0  0  0
   -4.7450   20.3460  -31.0240 F   0  0  0  0  0  0  0  0  0  0  0  0
   -7.2580   19.8470  -34.5660 H   0  0  0  0  0  0  0  0  0  0  0  0
   -9.0292   19.7763  -32.1997 H   0  0  0  0  0  0  0  0  0  0  0  0
   -9.7555   21.4126  -30.4709 H   0  0  0  0  0  0  0  0  0  0  0  0
   -8.3300   23.3802  -29.9265 H   0  0  0  0  0  0  0  0  0  0  0  0
   -7.3740   25.5249  -30.1730 H   0  0  0  0  0  0  0  0  0  0  0  0
   -5.1417   27.0044  -29.9682 H   0  0  0  0  0  0  0  0  0  0  0  0
   -5.4532   22.1116  -32.9067 H   0  0  0  0  0  0  0  0  0  0  0  0
   -0.9156   19.1868  -34.4308 H   0  0  0  0  0  0  0  0  0  0  0  0
   -0.4367   20.5916  -32.4258 H   0  0  0  0  0  0  0  0  0  0  0  0
   -2.2640   21.1390  -30.8188 H   0  0  0  0  0  0  0  0  0  0  0  0
  1  2  2  0
  2  3  2  0
  2  4  1  0
  4  5  1  0
  5  6  2  0
  6  7  1  0
  7  8  2  0
  8  9  1  0
  9 10  1  0
 10 11  1  0
 11 12  2  0
 12 13  1  0
 13 14  1  0
  9 15  2  0
  2 16  1  0
 16 17  2  0
 17 18  1  0
 17 19  1  0
 19 20  2  0
 20 21  1  0
 21 22  2  0
 22 23  1  0
 15  5  1  0
 22 16  1  0
 14 10  2  0
  4 24  1  0
  6 25  1  0
  7 26  1  0
  8 27  1  0
 11 28  1  0
 12 29  1  0
 15 30  1  0
 19 31  1  0
 20 32  1  0
 21 33  1  0
M  CHG  1  13  -1
M  END
>  <UniqueID>  (48) 
43

>  <SMILES>  (48) 
O=S(=O)(Nc1cccc(-c2cc[n-]n2)c1)c1c(F)cccc1F

>  <Energy>  (48) 
69.75862626704944

>  <Genealogy>  (48) 
O=S(=O)(Nc1cccc(-c2cc[n-]n2)c1)c1c(F)cccc1F (protonated)
O=S(=O)(Nc1cccc(-c2cc[n-]n2)c1)c1c(F)cccc1F (3D coordinates assigned)
O=S(=O)(Nc1cccc(-c2cc[n-]n2)c1)c1c(F)cccc1F (optimized conformer: 69.75862626704944 kcal/mol)

>  <smiles>  (48) 
O=S(=O)(Nc1cccc(-c2cc[nH]n2)c1)c1c(F)cccc1F

>  <score_type>  (48) 
oracle

>  <origin>  (48) 
adgpu

>  <m_score__min__energy>  (48) 
-10.44

>  <m_primary>  (48) 
energy

$$$$
