0:0
     RDKit          3D

 47 49  0  0  0  0  0  0  0  0999 V2000
   -0.0970   15.1570  -32.5490 C   0  0  0  0  0  0  0  0  0  0  0  0
   -1.4260   15.6610  -32.5440 O   0  0  0  0  0  0  0  0  0  0  0  0
   -1.7910   16.9450  -32.9800 C   0  0  0  0  0  0  0  0  0  0  0  0
   -1.3150   18.1130  -32.3520 C   0  0  0  0  0  0  0  0  0  0  0  0
   -1.7260   19.3720  -32.7930 C   0  0  0  0  0  0  0  0  0  0  0  0
   -2.6190   19.4800  -33.8570 C   0  0  0  0  0  0  0  0  0  0  0  0
   -3.0980   18.3280  -34.4910 C   0  0  0  0  0  0  0  0  0  0  0  0
   -2.6780   17.0610  -34.0650 C   0  0  0  0  0  0  0  0  0  0  0  0
   -3.1990   15.8910  -34.7080 N   0  0  0  0  0  0  0  0  0  0  0  0
   -2.6640   15.1700  -35.7120 C   0  0  0  0  0  0  0  0  0  0  0  0
   -1.3970   15.5080  -36.4330 C   0  0  0  0  0  0  0  0  0  0  0  0
   -3.4510   14.1260  -36.0370 N   0  0  0  0  0  0  0  0  0  0  0  0
   -4.5020   14.1660  -35.2300 N   0  0  0  0  0  0  0  0  0  0  0  0
   -4.3430   15.2370  -34.4320 C   0  0  0  0  0  0  0  0  0  0  0  0
   -5.4890   15.6740  -33.1180 S   0  0  0  0  0  0  0  0  0  0  0  0
   -6.0510   17.2300  -33.8950 C   0  0  0  0  0  0  0  0  0  0  0  0
   -6.1410   18.3310  -32.8840 C   0  0  0  0  0  0  0  0  0  0  0  0
   -5.9300   18.0730  -31.6670 O   0  0  0  0  0  0  0  0  0  0  0  0
   -6.4600   19.6670  -33.3040 N   0  0  0  0  0  0  0  0  0  0  0  0
   -6.1280   20.8520  -32.5590 C   0  0  0  0  0  0  0  0  0  0  0  0
   -4.7940   21.1820  -32.2540 C   0  0  0  0  0  0  0  0  0  0  0  0
   -4.4970   22.3660  -31.5700 C   0  0  0  0  0  0  0  0  0  0  0  0
   -5.5240   23.2370  -31.1870 C   0  0  0  0  0  0  0  0  0  0  0  0
   -5.1430   24.7430  -30.3600 S   0  0  0  0  0  0  0  0  0  0  0  0
   -3.4950   25.1710  -30.6380 N   0  0  0  0  0  0  0  0  0  0  0  0
   -6.0340   25.8350  -30.8780 O   0  0  0  0  0  0  0  0  0  0  0  0
   -5.3560   24.5850  -28.8800 O   0  0  0  0  0  0  0  0  0  0  0  0
   -6.8510   22.9260  -31.5130 C   0  0  0  0  0  0  0  0  0  0  0  0
   -7.1490   21.7440  -32.1970 C   0  0  0  0  0  0  0  0  0  0  0  0
    0.2492   15.0257  -31.5132 H   0  0  0  0  0  0  0  0  0  0  0  0
   -0.0743   14.1878  -33.0688 H   0  0  0  0  0  0  0  0  0  0  0  0
    0.5626   15.8674  -33.0688 H   0  0  0  0  0  0  0  0  0  0  0  0
   -0.6143   18.0321  -31.5079 H   0  0  0  0  0  0  0  0  0  0  0  0
   -1.3449   20.2788  -32.3005 H   0  0  0  0  0  0  0  0  0  0  0  0
   -2.9480   20.4723  -34.1992 H   0  0  0  0  0  0  0  0  0  0  0  0
   -3.8071   18.4176  -35.3272 H   0  0  0  0  0  0  0  0  0  0  0  0
   -0.6038   15.7196  -35.7009 H   0  0  0  0  0  0  0  0  0  0  0  0
   -1.0964   14.6586  -37.0641 H   0  0  0  0  0  0  0  0  0  0  0  0
   -1.5595   16.3942  -37.0641 H   0  0  0  0  0  0  0  0  0  0  0  0
   -5.3363   17.5192  -34.6796 H   0  0  0  0  0  0  0  0  0  0  0  0
   -7.0498   17.0665  -34.3259 H   0  0  0  0  0  0  0  0  0  0  0  0
   -6.9660   19.7840  -34.2120 H   0  0  0  0  0  0  0  0  0  0  0  0
   -3.9806   20.5054  -32.5550 H   0  0  0  0  0  0  0  0  0  0  0  0
   -3.4519   22.6135  -31.3321 H   0  0  0  0  0  0  0  0  0  0  0  0
   -3.4970   26.0390  -31.2160 H   0  0  0  0  0  0  0  0  0  0  0  0
   -7.6608   23.6144  -31.2296 H   0  0  0  0  0  0  0  0  0  0  0  0
   -8.1929   21.5110  -32.4537 H   0  0  0  0  0  0  0  0  0  0  0  0
  1  2  1  0
  2  3  1  0
  3  4  2  0
  4  5  1  0
  5  6  2  0
  6  7  1  0
  7  8  2  0
  8  9  1  0
  9 10  1  0
 10 11  1  0
 10 12  2  0
 12 13  1  0
 13 14  2  0
 14 15  1  0
 15 16  1  0
 16 17  1  0
 17 18  2  0
 17 19  1  0
 19 20  1  0
 20 21  2  0
 21 22  1  0
 22 23  2  0
 23 24  1  0
 24 25  1  0
 24 26  2  0
 24 27  2  0
 23 28  1  0
 28 29  2  0
  8  3  1  0
 14  9  1  0
 29 20  1  0
  1 30  1  0
  1 31  1  0
  1 32  1  0
  4 33  1  0
  5 34  1  0
  6 35  1  0
  7 36  1  0
 11 37  1  0
 11 38  1  0
 11 39  1  0
 16 40  1  0
 16 41  1  0
 19 42  1  0
 21 43  1  0
 22 44  1  0
 25 45  1  0
 28 46  1  0
 29 47  1  0
M  CHG  1  25  -1
M  END
>  <UniqueID>  (1) 
1

>  <SMILES>  (1) 
COc1ccccc1-n1c(C)nnc1SCC(=O)Nc1ccc(S([NH-])(=O)=O)cc1

>  <Energy>  (1) 
84.85016788018429

>  <Genealogy>  (1) 
COc1ccccc1-n1c(C)nnc1SCC(=O)Nc1ccc(S([NH-])(=O)=O)cc1 (protonated)
COc1ccccc1-n1c(C)nnc1SCC(=O)Nc1ccc(S([NH-])(=O)=O)cc1 (3D coordinates assigned)
COc1ccccc1-n1c(C)nnc1SCC(=O)Nc1ccc(S([NH-])(=O)=O)cc1 (optimized conformer: 84.85016788018429 kcal/mol)

>  <smiles>  (1) 
COc1ccccc1-n1c(C)nnc1SCC(=O)Nc1ccc(S(N)(=O)=O)cc1

>  <score_type>  (1) 
oracle

>  <origin>  (1) 
adgpu

>  <m_score__min__energy>  (1) 
-10.26

>  <m_primary>  (1) 
energy

$$$$
1:0
     RDKit          3D

 29 30  0  0  0  0  0  0  0  0999 V2000
   -9.4840   20.0370  -33.0660 N   0  0  0  0  0  0  0  0  0  0  0  0
   -8.0020   19.4510  -32.3980 S   0  0  0  0  0  0  0  0  0  0  0  0
   -7.1390   18.9030  -33.5000 O   0  0  0  0  0  0  0  0  0  0  0  0
   -8.2920   18.3470  -31.4210 O   0  0  0  0  0  0  0  0  0  0  0  0
   -7.1640   20.7670  -31.5820 C   0  0  0  0  0  0  0  0  0  0  0  0
   -5.7640   20.7760  -31.5150 C   0  0  0  0  0  0  0  0  0  0  0  0
   -5.0980   21.8130  -30.8560 C   0  0  0  0  0  0  0  0  0  0  0  0
   -5.8220   22.8400  -30.2390 C   0  0  0  0  0  0  0  0  0  0  0  0
   -5.1060   23.8960  -29.5810 N   0  0  0  0  0  0  0  0  0  0  0  0
   -3.8100   24.3940  -29.9410 C   0  0  0  0  0  0  0  0  0  0  0  0
   -3.7360   25.3010  -30.8120 O   0  0  0  0  0  0  0  0  0  0  0  0
   -2.5640   23.8240  -29.3720 C   0  0  0  0  0  0  0  0  0  0  0  0
   -2.4250   22.4300  -29.2390 C   0  0  0  0  0  0  0  0  0  0  0  0
   -1.2540   21.8820  -28.7110 C   0  0  0  0  0  0  0  0  0  0  0  0
   -0.2060   22.7150  -28.3160 C   0  0  0  0  0  0  0  0  0  0  0  0
   -0.3260   24.0990  -28.4520 C   0  0  0  0  0  0  0  0  0  0  0  0
   -1.4970   24.6580  -28.9770 C   0  0  0  0  0  0  0  0  0  0  0  0
   -1.5950   26.0420  -29.0860 O   0  0  0  0  0  0  0  0  0  0  0  0
   -7.2260   22.8400  -30.3230 C   0  0  0  0  0  0  0  0  0  0  0  0
   -7.8910   21.8030  -30.9830 C   0  0  0  0  0  0  0  0  0  0  0  0
   -9.5500   19.6600  -34.0380 H   0  0  0  0  0  0  0  0  0  0  0  0
   -5.1876   19.9642  -31.9826 H   0  0  0  0  0  0  0  0  0  0  0  0
   -3.9986   21.8222  -30.8220 H   0  0  0  0  0  0  0  0  0  0  0  0
   -3.2447   21.7671  -29.5532 H   0  0  0  0  0  0  0  0  0  0  0  0
   -1.1573   20.7913  -28.6062 H   0  0  0  0  0  0  0  0  0  0  0  0
    0.7141   22.2810  -27.8977 H   0  0  0  0  0  0  0  0  0  0  0  0
    0.5033   24.7533  -28.1452 H   0  0  0  0  0  0  0  0  0  0  0  0
   -7.8025   23.6588  -29.8678 H   0  0  0  0  0  0  0  0  0  0  0  0
   -8.9899   21.8007  -31.0321 H   0  0  0  0  0  0  0  0  0  0  0  0
  1  2  1  0
  2  3  2  0
  2  4  2  0
  2  5  1  0
  5  6  2  0
  6  7  1  0
  7  8  2  0
  8  9  1  0
  9 10  1  0
 10 11  2  0
 10 12  1  0
 12 13  2  0
 13 14  1  0
 14 15  2  0
 15 16  1  0
 16 17  2  0
 17 18  1  0
  8 19  1  0
 19 20  2  0
 20  5  1  0
 17 12  1  0
  1 21  1  0
  6 22  1  0
  7 23  1  0
 13 24  1  0
 14 25  1  0
 15 26  1  0
 16 27  1  0
 19 28  1  0
 20 29  1  0
M  CHG  3   1  -1   9  -1  18  -1
M  END
>  <UniqueID>  (2) 
2

>  <SMILES>  (2) 
[NH-]S(=O)(=O)c1ccc([N-]C(=O)c2ccccc2[O-])cc1

>  <Energy>  (2) 
37.60454171634107

>  <Genealogy>  (2) 
[NH-]S(=O)(=O)c1ccc([N-]C(=O)c2ccccc2[O-])cc1 (protonated)
[NH-]S(=O)(=O)c1ccc([N-]C(=O)c2ccccc2[O-])cc1 (3D coordinates assigned)
[NH-]S(=O)(=O)c1ccc([N-]C(=O)c2ccccc2[O-])cc1 (optimized conformer: 37.60454171634107 kcal/mol)

>  <smiles>  (2) 
NS(=O)(=O)c1ccc(NC(=O)c2ccccc2O)cc1

>  <score_type>  (2) 
oracle

>  <origin>  (2) 
adgpu

>  <m_score__min__energy>  (2) 
-11.380000000000001

>  <m_primary>  (2) 
energy

$$$$
2:0
     RDKit          3D

 52 54  0  0  0  0  0  0  0  0999 V2000
   -4.1320   23.4290  -28.7580 C   0  0  0  0  0  0  0  0  0  0  0  0
   -2.8440   22.8880  -29.3320 C   0  0  0  0  0  0  0  0  0  0  0  0
   -1.6030   23.2620  -28.7680 C   0  0  0  0  0  0  0  0  0  0  0  0
   -1.5580   24.1440  -27.6430 N   0  0  0  0  0  0  0  0  0  0  0  0
   -0.7900   25.6980  -27.7060 S   0  0  0  0  0  0  0  0  0  0  0  0
   -1.2160   26.6990  -26.2930 C   0  0  0  0  0  0  0  0  0  0  0  0
    0.7020   25.5140  -27.7700 O   0  0  0  0  0  0  0  0  0  0  0  0
   -1.2440   26.4050  -28.9530 O   0  0  0  0  0  0  0  0  0  0  0  0
   -0.4110   22.7420  -29.2930 C   0  0  0  0  0  0  0  0  0  0  0  0
   -0.4370   21.8910  -30.3960 C   0  0  0  0  0  0  0  0  0  0  0  0
   -1.6520   21.5580  -30.9930 C   0  0  0  0  0  0  0  0  0  0  0  0
   -2.8630   22.0530  -30.4770 C   0  0  0  0  0  0  0  0  0  0  0  0
   -4.0970   21.7660  -31.1600 N   0  0  0  0  0  0  0  0  0  0  0  0
   -5.0790   22.7730  -31.4510 C   0  0  0  0  0  0  0  0  0  0  0  0
   -4.7250   23.9820  -31.5310 O   0  0  0  0  0  0  0  0  0  0  0  0
   -6.4960   22.4100  -31.6890 C   0  0  0  0  0  0  0  0  0  0  0  0
   -7.4820   23.4100  -31.7460 C   0  0  0  0  0  0  0  0  0  0  0  0
   -8.8230   23.0720  -31.9490 C   0  0  0  0  0  0  0  0  0  0  0  0
   -9.1950   21.7340  -32.0910 C   0  0  0  0  0  0  0  0  0  0  0  0
   -8.2280   20.7240  -32.0310 C   0  0  0  0  0  0  0  0  0  0  0  0
   -8.7010   19.0300  -32.1920 S   0  0  0  0  0  0  0  0  0  0  0  0
   -9.0910   18.4950  -30.8420 O   0  0  0  0  0  0  0  0  0  0  0  0
   -9.9030   18.9380  -33.0930 O   0  0  0  0  0  0  0  0  0  0  0  0
   -7.4100   18.0530  -32.8480 N   0  0  0  0  0  0  0  0  0  0  0  0
   -6.5960   18.8380  -33.7890 C   0  0  0  0  0  0  0  0  0  0  0  0
   -5.3640   18.0280  -34.2440 C   0  0  0  0  0  0  0  0  0  0  0  0
   -5.4210   16.6930  -33.7740 O   0  0  0  0  0  0  0  0  0  0  0  0
   -5.4120   16.6840  -32.3570 C   0  0  0  0  0  0  0  0  0  0  0  0
   -6.5650   17.5230  -31.7670 C   0  0  0  0  0  0  0  0  0  0  0  0
   -6.8810   21.0630  -31.8280 C   0  0  0  0  0  0  0  0  0  0  0  0
   -4.0813   23.4077  -27.6594 H   0  0  0  0  0  0  0  0  0  0  0  0
   -4.2786   24.4647  -29.0983 H   0  0  0  0  0  0  0  0  0  0  0  0
   -4.9742   22.8086  -29.0983 H   0  0  0  0  0  0  0  0  0  0  0  0
   -0.9818   26.1487  -25.3698 H   0  0  0  0  0  0  0  0  0  0  0  0
   -0.6381   27.6346  -26.3188 H   0  0  0  0  0  0  0  0  0  0  0  0
   -2.2909   26.9312  -26.3188 H   0  0  0  0  0  0  0  0  0  0  0  0
    0.5511   23.0078  -28.8308 H   0  0  0  0  0  0  0  0  0  0  0  0
    0.5022   21.4815  -30.7962 H   0  0  0  0  0  0  0  0  0  0  0  0
   -1.6636   20.9020  -31.8759 H   0  0  0  0  0  0  0  0  0  0  0  0
   -4.2770   20.7850  -31.4740 H   0  0  0  0  0  0  0  0  0  0  0  0
   -7.1964   24.4659  -31.6301 H   0  0  0  0  0  0  0  0  0  0  0  0
   -9.5869   23.8620  -31.9970 H   0  0  0  0  0  0  0  0  0  0  0  0
  -10.2515   21.4727  -32.2506 H   0  0  0  0  0  0  0  0  0  0  0  0
   -7.2054   19.0945  -34.6681 H   0  0  0  0  0  0  0  0  0  0  0  0
   -6.2533   19.7537  -33.2849 H   0  0  0  0  0  0  0  0  0  0  0  0
   -5.3275   18.0192  -35.3434 H   0  0  0  0  0  0  0  0  0  0  0  0
   -4.4638   18.5036  -33.8275 H   0  0  0  0  0  0  0  0  0  0  0  0
   -5.5132   15.6459  -32.0077 H   0  0  0  0  0  0  0  0  0  0  0  0
   -4.4627   17.1261  -32.0201 H   0  0  0  0  0  0  0  0  0  0  0  0
   -7.1747   16.8893  -31.1062 H   0  0  0  0  0  0  0  0  0  0  0  0
   -6.1429   18.3629  -31.1957 H   0  0  0  0  0  0  0  0  0  0  0  0
   -6.1204   20.2700  -31.7771 H   0  0  0  0  0  0  0  0  0  0  0  0
  1  2  1  0
  2  3  2  0
  3  4  1  0
  4  5  1  0
  5  6  1  0
  5  7  2  0
  5  8  2  0
  3  9  1  0
  9 10  2  0
 10 11  1  0
 11 12  2  0
 12 13  1  0
 13 14  1  0
 14 15  2  0
 14 16  1  0
 16 17  2  0
 17 18  1  0
 18 19  2  0
 19 20  1  0
 20 21  1  0
 21 22  2  0
 21 23  2  0
 21 24  1  0
 24 25  1  0
 25 26  1  0
 26 27  1  0
 27 28  1  0
 28 29  1  0
 20 30  2  0
 12  2  1  0
 30 16  1  0
 29 24  1  0
  1 31  1  0
  1 32  1  0
  1 33  1  0
  6 34  1  0
  6 35  1  0
  6 36  1  0
  9 37  1  0
 10 38  1  0
 11 39  1  0
 13 40  1  0
 17 41  1  0
 18 42  1  0
 19 43  1  0
 25 44  1  0
 25 45  1  0
 26 46  1  0
 26 47  1  0
 28 48  1  0
 28 49  1  0
 29 50  1  0
 29 51  1  0
 30 52  1  0
M  CHG  1   4  -1
M  END
>  <UniqueID>  (3) 
3

>  <SMILES>  (3) 
Cc1c([N-]S(C)(=O)=O)cccc1NC(=O)c1cccc(S(=O)(=O)N2CCOCC2)c1

>  <Energy>  (3) 
72.02048759702026

>  <Genealogy>  (3) 
Cc1c([N-]S(C)(=O)=O)cccc1NC(=O)c1cccc(S(=O)(=O)N2CCOCC2)c1 (protonated)
Cc1c([N-]S(C)(=O)=O)cccc1NC(=O)c1cccc(S(=O)(=O)N2CCOCC2)c1 (3D coordinates assigned)
Cc1c([N-]S(C)(=O)=O)cccc1NC(=O)c1cccc(S(=O)(=O)N2CCOCC2)c1 (nonaromatic ring conformer: 72.02048759702026 kcal/mol)

>  <smiles>  (3) 
Cc1c(NC(=O)c2cccc(S(=O)(=O)N3CCOCC3)c2)cccc1NS(C)(=O)=O

>  <score_type>  (3) 
oracle

>  <origin>  (3) 
adgpu

>  <m_score__min__energy>  (3) 
-11.27

>  <m_primary>  (3) 
energy

$$$$
3:0
     RDKit          3D

 56 59  0  0  0  0  0  0  0  0999 V2000
   -6.4990   16.8350  -34.1960 C   0  0  0  0  0  0  0  0  0  0  0  0
   -5.7550   17.9630  -33.5450 C   0  0  0  0  0  0  0  0  0  0  0  0
   -4.6710   18.5670  -34.2000 C   0  0  0  0  0  0  0  0  0  0  0  0
   -3.9580   19.5970  -33.5810 C   0  0  0  0  0  0  0  0  0  0  0  0
   -4.3080   20.0240  -32.2900 C   0  0  0  0  0  0  0  0  0  0  0  0
   -3.5870   21.1750  -31.6520 C   0  0  0  0  0  0  0  0  0  0  0  0
   -4.0830   21.3920  -30.2940 N   0  0  0  0  0  0  0  0  0  0  0  0
   -3.5580   22.4070  -29.4220 C   0  0  0  0  0  0  0  0  0  0  0  0
   -4.0330   23.6990  -29.2520 C   0  0  0  0  0  0  0  0  0  0  0  0
   -5.3590   24.4930  -30.0940 S   0  0  0  0  0  0  0  0  0  0  0  0
   -6.0840   25.3940  -29.1330 O   0  0  0  0  0  0  0  0  0  0  0  0
   -4.8030   25.3330  -31.2090 O   0  0  0  0  0  0  0  0  0  0  0  0
   -6.4510   23.2890  -30.7740 C   0  0  0  0  0  0  0  0  0  0  0  0
   -7.4360   22.7040  -29.9670 C   0  0  0  0  0  0  0  0  0  0  0  0
   -8.3250   21.7700  -30.5060 C   0  0  0  0  0  0  0  0  0  0  0  0
   -8.2410   21.4150  -31.8600 C   0  0  0  0  0  0  0  0  0  0  0  0
   -9.1740   20.3890  -32.4300 C   0  0  0  0  0  0  0  0  0  0  0  0
   -7.2340   21.9770  -32.6590 C   0  0  0  0  0  0  0  0  0  0  0  0
   -6.3450   22.9110  -32.1190 C   0  0  0  0  0  0  0  0  0  0  0  0
   -3.4010   24.2710  -28.2070 N   0  0  0  0  0  0  0  0  0  0  0  0
   -2.5620   23.3180  -27.7530 C   0  0  0  0  0  0  0  0  0  0  0  0
   -2.6420   22.1730  -28.4600 N   0  0  0  0  0  0  0  0  0  0  0  0
   -1.9090   20.9630  -28.2000 C   0  0  0  0  0  0  0  0  0  0  0  0
   -0.7410   20.6750  -28.9240 C   0  0  0  0  0  0  0  0  0  0  0  0
   -0.0300   19.4970  -28.6790 C   0  0  0  0  0  0  0  0  0  0  0  0
   -0.4760   18.5910  -27.7030 C   0  0  0  0  0  0  0  0  0  0  0  0
    0.2640   17.3080  -27.4680 C   0  0  0  0  0  0  0  0  0  0  0  0
   -1.6610   18.8620  -27.0040 C   0  0  0  0  0  0  0  0  0  0  0  0
   -2.3710   20.0400  -27.2510 C   0  0  0  0  0  0  0  0  0  0  0  0
   -5.3870   19.4130  -31.6320 C   0  0  0  0  0  0  0  0  0  0  0  0
   -6.0990   18.3820  -32.2510 C   0  0  0  0  0  0  0  0  0  0  0  0
   -6.9287   16.1835  -33.4208 H   0  0  0  0  0  0  0  0  0  0  0  0
   -7.3067   17.2416  -34.8223 H   0  0  0  0  0  0  0  0  0  0  0  0
   -5.8072   16.2526  -34.8223 H   0  0  0  0  0  0  0  0  0  0  0  0
   -4.3811   18.2280  -35.2055 H   0  0  0  0  0  0  0  0  0  0  0  0
   -3.1189   20.0754  -34.1074 H   0  0  0  0  0  0  0  0  0  0  0  0
   -2.5103   20.9532  -31.6143 H   0  0  0  0  0  0  0  0  0  0  0  0
   -3.7631   22.0830  -32.2475 H   0  0  0  0  0  0  0  0  0  0  0  0
   -4.5860   20.5910  -29.8490 H   0  0  0  0  0  0  0  0  0  0  0  0
   -7.5098   22.9810  -28.9050 H   0  0  0  0  0  0  0  0  0  0  0  0
   -9.0933   21.3117  -29.8659 H   0  0  0  0  0  0  0  0  0  0  0  0
   -9.6674   19.8464  -31.6102 H   0  0  0  0  0  0  0  0  0  0  0  0
   -9.9340   20.8882  -33.0490 H   0  0  0  0  0  0  0  0  0  0  0  0
   -8.6051   19.6797  -33.0490 H   0  0  0  0  0  0  0  0  0  0  0  0
   -7.1436   21.6815  -33.7147 H   0  0  0  0  0  0  0  0  0  0  0  0
   -5.5599   23.3505  -32.7519 H   0  0  0  0  0  0  0  0  0  0  0  0
   -1.8850   23.4597  -26.8976 H   0  0  0  0  0  0  0  0  0  0  0  0
   -0.3835   21.3806  -29.6884 H   0  0  0  0  0  0  0  0  0  0  0  0
    0.8826   19.2786  -29.2529 H   0  0  0  0  0  0  0  0  0  0  0  0
    0.3637   17.1351  -26.3863 H   0  0  0  0  0  0  0  0  0  0  0  0
   -0.2925   16.4752  -27.9227 H   0  0  0  0  0  0  0  0  0  0  0  0
    1.2635   17.3726  -27.9227 H   0  0  0  0  0  0  0  0  0  0  0  0
   -2.0333   18.1443  -26.2581 H   0  0  0  0  0  0  0  0  0  0  0  0
   -3.2990   20.2446  -26.6969 H   0  0  0  0  0  0  0  0  0  0  0  0
   -5.6736   19.7474  -30.6240 H   0  0  0  0  0  0  0  0  0  0  0  0
   -6.9324   17.8971  -31.7216 H   0  0  0  0  0  0  0  0  0  0  0  0
  1  2  1  0
  2  3  2  0
  3  4  1  0
  4  5  2  0
  5  6  1  0
  6  7  1  0
  7  8  1  0
  8  9  2  0
  9 10  1  0
 10 11  2  0
 10 12  2  0
 10 13  1  0
 13 14  2  0
 14 15  1  0
 15 16  2  0
 16 17  1  0
 16 18  1  0
 18 19  2  0
  9 20  1  0
 20 21  2  0
 21 22  1  0
 22 23  1  0
 23 24  2  0
 24 25  1  0
 25 26  2  0
 26 27  1  0
 26 28  1  0
 28 29  2  0
  5 30  1  0
 30 31  2  0
 31  2  1  0
 22  8  1  0
 29 23  1  0
 19 13  1  0
  1 32  1  0
  1 33  1  0
  1 34  1  0
  3 35  1  0
  4 36  1  0
  6 37  1  0
  6 38  1  0
  7 39  1  0
 14 40  1  0
 15 41  1  0
 17 42  1  0
 17 43  1  0
 17 44  1  0
 18 45  1  0
 19 46  1  0
 21 47  1  0
 24 48  1  0
 25 49  1  0
 27 50  1  0
 27 51  1  0
 27 52  1  0
 28 53  1  0
 29 54  1  0
 30 55  1  0
 31 56  1  0
M  END
>  <UniqueID>  (4) 
4

>  <SMILES>  (4) 
Cc1ccc(CNc2c(S(=O)(=O)c3ccc(C)cc3)ncn2-c2ccc(C)cc2)cc1

>  <Energy>  (4) 
94.34979624607655

>  <Genealogy>  (4) 
Cc1ccc(CNc2c(S(=O)(=O)c3ccc(C)cc3)ncn2-c2ccc(C)cc2)cc1 (3D coordinates assigned)
Cc1ccc(CNc2c(S(=O)(=O)c3ccc(C)cc3)ncn2-c2ccc(C)cc2)cc1 (optimized conformer: 94.34979624607655 kcal/mol)

>  <smiles>  (4) 
Cc1ccc(CNc2c(S(=O)(=O)c3ccc(C)cc3)ncn2-c2ccc(C)cc2)cc1

>  <score_type>  (4) 
oracle

>  <origin>  (4) 
adgpu

>  <m_score__min__energy>  (4) 
-10.15

>  <m_primary>  (4) 
energy

$$$$
4:0
     RDKit          3D

 49 52  0  0  0  0  0  0  0  0999 V2000
   -1.7750   23.9540  -26.9080 C   0  0  0  0  0  0  0  0  0  0  0  0
   -1.0150   24.3590  -28.4640 S   0  0  0  0  0  0  0  0  0  0  0  0
   -1.6020   25.6370  -28.9940 O   0  0  0  0  0  0  0  0  0  0  0  0
    0.4620   24.5530  -28.2670 O   0  0  0  0  0  0  0  0  0  0  0  0
   -1.2980   23.0530  -29.6110 C   0  0  0  0  0  0  0  0  0  0  0  0
   -2.3940   23.1030  -30.4810 C   0  0  0  0  0  0  0  0  0  0  0  0
   -2.6110   22.0730  -31.4000 C   0  0  0  0  0  0  0  0  0  0  0  0
   -1.7230   20.9920  -31.4790 C   0  0  0  0  0  0  0  0  0  0  0  0
   -2.0000   19.9460  -32.4260 N   0  0  0  0  0  0  0  0  0  0  0  0
   -3.1760   19.5130  -32.7730 C   0  0  0  0  0  0  0  0  0  0  0  0
   -3.3710   18.5550  -33.6900 N   0  0  0  0  0  0  0  0  0  0  0  0
   -4.6760   18.3530  -33.7670 N   0  0  0  0  0  0  0  0  0  0  0  0
   -5.2340   19.2100  -32.8840 C   0  0  0  0  0  0  0  0  0  0  0  0
   -6.6860   19.3210  -32.6060 C   0  0  0  0  0  0  0  0  0  0  0  0
   -7.4150   18.1360  -32.3960 C   0  0  0  0  0  0  0  0  0  0  0  0
   -8.7970   18.1740  -32.2040 C   0  0  0  0  0  0  0  0  0  0  0  0
   -9.4710   19.3930  -32.2150 C   0  0  0  0  0  0  0  0  0  0  0  0
   -8.7650   20.5810  -32.4060 C   0  0  0  0  0  0  0  0  0  0  0  0
   -7.3720   20.5630  -32.5950 C   0  0  0  0  0  0  0  0  0  0  0  0
   -6.6610   21.8060  -32.7190 N   0  0  0  0  0  0  0  0  0  0  0  0
   -7.2010   23.0730  -32.2310 C   0  0  0  0  0  0  0  0  0  0  0  0
   -6.4250   23.5380  -31.0280 C   0  0  0  0  0  0  0  0  0  0  0  0
   -5.9350   22.6060  -30.1020 C   0  0  0  0  0  0  0  0  0  0  0  0
   -5.1700   23.0490  -29.0200 C   0  0  0  0  0  0  0  0  0  0  0  0
   -4.8990   24.3730  -28.8730 N   0  0  0  0  0  0  0  0  0  0  0  0
   -5.3530   25.2960  -29.7610 C   0  0  0  0  0  0  0  0  0  0  0  0
   -6.1210   24.8960  -30.8590 C   0  0  0  0  0  0  0  0  0  0  0  0
   -4.3140   19.9200  -32.2650 O   0  0  0  0  0  0  0  0  0  0  0  0
   -0.6340   20.9340  -30.5880 C   0  0  0  0  0  0  0  0  0  0  0  0
   -0.4190   21.9650  -29.6690 C   0  0  0  0  0  0  0  0  0  0  0  0
   -1.1309   24.2972  -26.0850 H   0  0  0  0  0  0  0  0  0  0  0  0
   -2.7545   24.4498  -26.8383 H   0  0  0  0  0  0  0  0  0  0  0  0
   -1.9097   22.8645  -26.8383 H   0  0  0  0  0  0  0  0  0  0  0  0
   -3.0869   23.9564  -30.4409 H   0  0  0  0  0  0  0  0  0  0  0  0
   -3.4854   22.1111  -32.0663 H   0  0  0  0  0  0  0  0  0  0  0  0
   -2.6490   18.0450  -34.2460 H   0  0  0  0  0  0  0  0  0  0  0  0
   -6.8902   17.1693  -32.3830 H   0  0  0  0  0  0  0  0  0  0  0  0
   -9.3549   17.2396  -32.0437 H   0  0  0  0  0  0  0  0  0  0  0  0
  -10.5615   19.4189  -32.0729 H   0  0  0  0  0  0  0  0  0  0  0  0
   -9.3031   21.5404  -32.4087 H   0  0  0  0  0  0  0  0  0  0  0  0
   -5.7500   21.8210  -33.2310 H   0  0  0  0  0  0  0  0  0  0  0  0
   -7.1276   23.8298  -33.0259 H   0  0  0  0  0  0  0  0  0  0  0  0
   -8.2538   22.9294  -31.9463 H   0  0  0  0  0  0  0  0  0  0  0  0
   -6.1512   21.5346  -30.2264 H   0  0  0  0  0  0  0  0  0  0  0  0
   -4.7864   22.3252  -28.2859 H   0  0  0  0  0  0  0  0  0  0  0  0
   -5.1158   26.3603  -29.6158 H   0  0  0  0  0  0  0  0  0  0  0  0
   -6.4833   25.6402  -31.5835 H   0  0  0  0  0  0  0  0  0  0  0  0
    0.0506   20.0734  -30.6154 H   0  0  0  0  0  0  0  0  0  0  0  0
    0.4443   21.9213  -28.9887 H   0  0  0  0  0  0  0  0  0  0  0  0
  1  2  1  0
  2  3  2  0
  2  4  2  0
  2  5  1  0
  5  6  2  0
  6  7  1  0
  7  8  2  0
  8  9  1  0
  9 10  2  3
 10 11  1  0
 11 12  1  0
 12 13  2  0
 13 14  1  0
 14 15  2  0
 15 16  1  0
 16 17  2  0
 17 18  1  0
 18 19  2  0
 19 20  1  0
 20 21  1  0
 21 22  1  0
 22 23  2  0
 23 24  1  0
 24 25  2  0
 25 26  1  0
 26 27  2  0
 13 28  1  0
  8 29  1  0
 29 30  2  0
 30  5  1  0
 28 10  1  0
 19 14  1  0
 27 22  1  0
  1 31  1  0
  1 32  1  0
  1 33  1  0
  6 34  1  0
  7 35  1  0
 11 36  1  0
 15 37  1  0
 16 38  1  0
 17 39  1  0
 18 40  1  0
 20 41  1  0
 21 42  1  0
 21 43  1  0
 23 44  1  0
 24 45  1  0
 26 46  1  0
 27 47  1  0
 29 48  1  0
 30 49  1  0
M  END
>  <UniqueID>  (5) 
5

>  <SMILES>  (5) 
CS(=O)(=O)c1ccc(N=c2[nH]nc(-c3ccccc3NCc3ccncc3)o2)cc1

>  <Energy>  (5) 
96.2008264660641

>  <Genealogy>  (5) 
CS(=O)(=O)c1ccc(N=c2[nH]nc(-c3ccccc3NCc3ccncc3)o2)cc1 (3D coordinates assigned)
CS(=O)(=O)c1ccc(N=c2[nH]nc(-c3ccccc3NCc3ccncc3)o2)cc1 (optimized conformer: 96.2008264660641 kcal/mol)

>  <smiles>  (5) 
CS(=O)(=O)c1ccc(N=c2[nH]nc(-c3ccccc3NCc3ccncc3)o2)cc1

>  <score_type>  (5) 
oracle

>  <origin>  (5) 
adgpu

>  <m_score__min__energy>  (5) 
-9.3699999999999992

>  <m_primary>  (5) 
energy

$$$$
5:0
     RDKit          3D

 52 54  0  0  0  0  0  0  0  0999 V2000
   -9.5930   21.0030  -31.9770 C   0  0  0  0  0  0  0  0  0  0  0  0
   -8.7110   19.9100  -32.5920 C   0  0  0  0  0  0  0  0  0  0  0  0
   -7.3260   20.4660  -32.9560 C   0  0  0  0  0  0  0  0  0  0  0  0
   -6.5220   19.4010  -33.7110 C   0  0  0  0  0  0  0  0  0  0  0  0
   -6.6700   18.0710  -33.1000 N   0  0  0  0  0  0  0  0  0  0  0  0
   -5.9400   16.9680  -33.6670 C   0  0  0  0  0  0  0  0  0  0  0  0
   -6.5940   15.7480  -33.8940 C   0  0  0  0  0  0  0  0  0  0  0  0
   -5.8860   14.6390  -34.3650 C   0  0  0  0  0  0  0  0  0  0  0  0
   -4.5030   14.7220  -34.5940 C   0  0  0  0  0  0  0  0  0  0  0  0
   -3.7490   13.5350  -35.1360 C   0  0  0  0  0  0  0  0  0  0  0  0
   -2.7100   13.1880  -34.2890 F   0  0  0  0  0  0  0  0  0  0  0  0
   -4.6120   12.4620  -35.2520 F   0  0  0  0  0  0  0  0  0  0  0  0
   -3.2140   13.8210  -36.3810 F   0  0  0  0  0  0  0  0  0  0  0  0
   -3.8530   15.9520  -34.4020 C   0  0  0  0  0  0  0  0  0  0  0  0
   -4.5610   17.0770  -33.9560 C   0  0  0  0  0  0  0  0  0  0  0  0
   -3.8590   18.3160  -33.7960 N   0  0  0  0  0  0  0  0  0  0  0  0
   -2.6000   18.4100  -33.1100 C   0  0  0  0  0  0  0  0  0  0  0  0
   -2.0820   17.3850  -32.5940 O   0  0  0  0  0  0  0  0  0  0  0  0
   -1.8890   19.6520  -33.0410 N   0  0  0  0  0  0  0  0  0  0  0  0
   -2.2760   20.7960  -32.2730 C   0  0  0  0  0  0  0  0  0  0  0  0
   -3.5150   21.3980  -32.5280 C   0  0  0  0  0  0  0  0  0  0  0  0
   -3.9090   22.5350  -31.8150 C   0  0  0  0  0  0  0  0  0  0  0  0
   -3.0560   23.0960  -30.8560 C   0  0  0  0  0  0  0  0  0  0  0  0
   -3.5500   24.5210  -29.9470 S   0  0  0  0  0  0  0  0  0  0  0  0
   -2.1540   25.2950  -29.2850 N   0  0  0  0  0  0  0  0  0  0  0  0
   -4.2740   25.4750  -30.8540 O   0  0  0  0  0  0  0  0  0  0  0  0
   -4.4740   24.1220  -28.8300 O   0  0  0  0  0  0  0  0  0  0  0  0
   -1.8060   22.5100  -30.6130 C   0  0  0  0  0  0  0  0  0  0  0  0
   -1.4130   21.3720  -31.3250 C   0  0  0  0  0  0  0  0  0  0  0  0
   -7.2580   17.9350  -31.7610 C   0  0  0  0  0  0  0  0  0  0  0  0
   -8.5980   18.6890  -31.6460 C   0  0  0  0  0  0  0  0  0  0  0  0
   -9.5427   20.9407  -30.8799 H   0  0  0  0  0  0  0  0  0  0  0  0
   -9.2356   21.9903  -32.3049 H   0  0  0  0  0  0  0  0  0  0  0  0
  -10.6335   20.8622  -32.3049 H   0  0  0  0  0  0  0  0  0  0  0  0
   -9.1896   19.5667  -33.5210 H   0  0  0  0  0  0  0  0  0  0  0  0
   -7.4450   21.3543  -33.5938 H   0  0  0  0  0  0  0  0  0  0  0  0
   -6.7909   20.7406  -32.0350 H   0  0  0  0  0  0  0  0  0  0  0  0
   -6.8777   19.3569  -34.7510 H   0  0  0  0  0  0  0  0  0  0  0  0
   -5.4590   19.6807  -33.6688 H   0  0  0  0  0  0  0  0  0  0  0  0
   -7.6734   15.6635  -33.6996 H   0  0  0  0  0  0  0  0  0  0  0  0
   -6.4158   13.6944  -34.5577 H   0  0  0  0  0  0  0  0  0  0  0  0
   -2.7748   16.0338  -34.6041 H   0  0  0  0  0  0  0  0  0  0  0  0
   -4.3250   19.1830  -34.1450 H   0  0  0  0  0  0  0  0  0  0  0  0
   -4.1818   20.9741  -33.2933 H   0  0  0  0  0  0  0  0  0  0  0  0
   -4.8917   22.9900  -32.0080 H   0  0  0  0  0  0  0  0  0  0  0  0
   -1.6080   25.6770  -30.0890 H   0  0  0  0  0  0  0  0  0  0  0  0
   -1.1325   22.9462  -29.8605 H   0  0  0  0  0  0  0  0  0  0  0  0
   -0.4243   20.9260  -31.1422 H   0  0  0  0  0  0  0  0  0  0  0  0
   -7.4305   16.8685  -31.5543 H   0  0  0  0  0  0  0  0  0  0  0  0
   -6.5569   18.3698  -31.0334 H   0  0  0  0  0  0  0  0  0  0  0  0
   -9.4118   17.9885  -31.8850 H   0  0  0  0  0  0  0  0  0  0  0  0
   -8.6622   19.0735  -30.6174 H   0  0  0  0  0  0  0  0  0  0  0  0
  1  2  1  0
  2  3  1  0
  3  4  1  0
  4  5  1  0
  5  6  1  0
  6  7  2  0
  7  8  1  0
  8  9  2  0
  9 10  1  0
 10 11  1  0
 10 12  1  0
 10 13  1  0
  9 14  1  0
 14 15  2  0
 15 16  1  0
 16 17  1  0
 17 18  2  0
 17 19  1  0
 19 20  1  0
 20 21  2  0
 21 22  1  0
 22 23  2  0
 23 24  1  0
 24 25  1  0
 24 26  2  0
 24 27  2  0
 23 28  1  0
 28 29  2  0
  5 30  1  0
 30 31  1  0
 31  2  1  0
 15  6  1  0
 29 20  1  0
  1 32  1  0
  1 33  1  0
  1 34  1  0
  2 35  1  0
  3 36  1  0
  3 37  1  0
  4 38  1  0
  4 39  1  0
  7 40  1  0
  8 41  1  0
 14 42  1  0
 16 43  1  0
 21 44  1  0
 22 45  1  0
 25 46  1  0
 28 47  1  0
 29 48  1  0
 30 49  1  0
 30 50  1  0
 31 51  1  0
 31 52  1  0
M  CHG  2  19  -1  25  -1
M  END
>  <UniqueID>  (6) 
6

>  <SMILES>  (6) 
CC1CCN(c2ccc(C(F)(F)F)cc2NC(=O)[N-]c2ccc(S([NH-])(=O)=O)cc2)CC1

>  <Energy>  (6) 
66.24162553561634

>  <Genealogy>  (6) 
CC1CCN(c2ccc(C(F)(F)F)cc2NC(=O)[N-]c2ccc(S([NH-])(=O)=O)cc2)CC1 (protonated)
CC1CCN(c2ccc(C(F)(F)F)cc2NC(=O)[N-]c2ccc(S([NH-])(=O)=O)cc2)CC1 (3D coordinates assigned)
CC1CCN(c2ccc(C(F)(F)F)cc2NC(=O)[N-]c2ccc(S([NH-])(=O)=O)cc2)CC1 (nonaromatic ring conformer: 66.24162553561634 kcal/mol)

>  <smiles>  (6) 
CC1CCN(c2ccc(C(F)(F)F)cc2NC(=O)Nc2ccc(S(N)(=O)=O)cc2)CC1

>  <score_type>  (6) 
oracle

>  <origin>  (6) 
adgpu

>  <m_score__min__energy>  (6) 
-11.74

>  <m_primary>  (6) 
energy

$$$$
6:0
     RDKit          3D

 40 42  0  0  0  0  0  0  0  0999 V2000
   -5.1730   16.3210  -32.3560 C   0  0  0  0  0  0  0  0  0  0  0  0
   -4.6260   16.9710  -33.5600 N   0  0  0  0  0  0  0  0  0  0  0  0
   -3.6700   18.0460  -33.2160 C   0  0  0  0  0  0  0  0  0  0  0  0
   -4.3760   19.2550  -32.5810 C   0  0  0  0  0  0  0  0  0  0  0  0
   -5.6330   19.5470  -33.2780 N   0  0  0  0  0  0  0  0  0  0  0  0
   -6.6900   20.2280  -32.5780 C   0  0  0  0  0  0  0  0  0  0  0  0
   -7.9580   19.6300  -32.5030 C   0  0  0  0  0  0  0  0  0  0  0  0
   -8.9740   20.2140  -31.7420 C   0  0  0  0  0  0  0  0  0  0  0  0
   -8.7300   21.3950  -31.0390 C   0  0  0  0  0  0  0  0  0  0  0  0
   -9.7130   21.9520  -30.2900 F   0  0  0  0  0  0  0  0  0  0  0  0
   -7.4750   22.0040  -31.1110 C   0  0  0  0  0  0  0  0  0  0  0  0
   -6.4580   21.4480  -31.8980 C   0  0  0  0  0  0  0  0  0  0  0  0
   -5.2050   22.1400  -31.9780 N   0  0  0  0  0  0  0  0  0  0  0  0
   -4.9230   23.4390  -31.4380 C   0  0  0  0  0  0  0  0  0  0  0  0
   -5.7200   24.3800  -31.6950 O   0  0  0  0  0  0  0  0  0  0  0  0
   -3.7070   23.7100  -30.6380 C   0  0  0  0  0  0  0  0  0  0  0  0
   -2.7340   22.7200  -30.4460 C   0  0  0  0  0  0  0  0  0  0  0  0
   -1.5990   23.0150  -29.6940 C   0  0  0  0  0  0  0  0  0  0  0  0
   -1.4630   24.2860  -29.1400 C   0  0  0  0  0  0  0  0  0  0  0  0
   -0.4470   24.5780  -28.4570 O   0  0  0  0  0  0  0  0  0  0  0  0
   -2.4370   25.2110  -29.3400 N   0  0  0  0  0  0  0  0  0  0  0  0
   -3.5230   24.9300  -30.0640 N   0  0  0  0  0  0  0  0  0  0  0  0
   -5.8840   18.9270  -34.5810 C   0  0  0  0  0  0  0  0  0  0  0  0
   -5.7020   17.4010  -34.4930 C   0  0  0  0  0  0  0  0  0  0  0  0
   -4.7635   16.8076  -31.4585 H   0  0  0  0  0  0  0  0  0  0  0  0
   -6.2691   16.4134  -32.3554 H   0  0  0  0  0  0  0  0  0  0  0  0
   -4.8947   15.2568  -32.3554 H   0  0  0  0  0  0  0  0  0  0  0  0
   -2.9307   17.6508  -32.5038 H   0  0  0  0  0  0  0  0  0  0  0  0
   -3.1842   18.3819  -34.1440 H   0  0  0  0  0  0  0  0  0  0  0  0
   -4.5916   19.0336  -31.5253 H   0  0  0  0  0  0  0  0  0  0  0  0
   -3.7160   20.1314  -32.6604 H   0  0  0  0  0  0  0  0  0  0  0  0
   -8.1532   18.6944  -33.0476 H   0  0  0  0  0  0  0  0  0  0  0  0
   -9.9669   19.7427  -31.6969 H   0  0  0  0  0  0  0  0  0  0  0  0
   -7.2836   22.9277  -30.5452 H   0  0  0  0  0  0  0  0  0  0  0  0
   -2.8651   21.7198  -30.8847 H   0  0  0  0  0  0  0  0  0  0  0  0
   -0.8200   22.2539  -29.5396 H   0  0  0  0  0  0  0  0  0  0  0  0
   -6.9134   19.1516  -34.8970 H   0  0  0  0  0  0  0  0  0  0  0  0
   -5.1677   19.3303  -35.3120 H   0  0  0  0  0  0  0  0  0  0  0  0
   -6.6504   16.9589  -34.1539 H   0  0  0  0  0  0  0  0  0  0  0  0
   -5.4083   17.0580  -35.4960 H   0  0  0  0  0  0  0  0  0  0  0  0
  1  2  1  0
  2  3  1  0
  3  4  1  0
  4  5  1  0
  5  6  1  0
  6  7  2  0
  7  8  1  0
  8  9  2  0
  9 10  1  0
  9 11  1  0
 11 12  2  0
 12 13  1  0
 13 14  1  0
 14 15  2  0
 14 16  1  0
 16 17  1  0
 17 18  2  0
 18 19  1  0
 19 20  2  0
 19 21  1  0
 21 22  1  0
  5 23  1  0
 23 24  1  0
 24  2  1  0
 12  6  1  0
 22 16  2  0
  1 25  1  0
  1 26  1  0
  1 27  1  0
  3 28  1  0
  3 29  1  0
  4 30  1  0
  4 31  1  0
  7 32  1  0
  8 33  1  0
 11 34  1  0
 17 35  1  0
 18 36  1  0
 23 37  1  0
 23 38  1  0
 24 39  1  0
 24 40  1  0
M  CHG  2  13  -1  21  -1
M  END
>  <UniqueID>  (7) 
7

>  <SMILES>  (7) 
CN1CCN(c2ccc(F)cc2[N-]C(=O)c2ccc(=O)[n-]n2)CC1

>  <Energy>  (7) 
61.07698416705074

>  <Genealogy>  (7) 
CN1CCN(c2ccc(F)cc2[N-]C(=O)c2ccc(=O)[n-]n2)CC1 (protonated)
CN1CCN(c2ccc(F)cc2[N-]C(=O)c2ccc(=O)[n-]n2)CC1 (3D coordinates assigned)
CN1CCN(c2ccc(F)cc2[N-]C(=O)c2ccc(=O)[n-]n2)CC1 (nonaromatic ring conformer: 61.07698416705074 kcal/mol)

>  <smiles>  (7) 
CN1CCN(c2ccc(F)cc2NC(=O)c2ccc(=O)[nH]n2)CC1

>  <score_type>  (7) 
oracle

>  <origin>  (7) 
adgpu

>  <m_score__min__energy>  (7) 
-10.34

>  <m_primary>  (7) 
energy

$$$$
7:0
     RDKit          3D

 36 38  0  0  0  0  0  0  0  0999 V2000
   -0.2970   25.0740  -25.7710 C   0  0  0  0  0  0  0  0  0  0  0  0
   -1.2060   24.9950  -26.9510 C   0  0  0  0  0  0  0  0  0  0  0  0
   -2.4100   24.3140  -27.0070 C   0  0  0  0  0  0  0  0  0  0  0  0
   -2.8500   24.5670  -28.2870 C   0  0  0  0  0  0  0  0  0  0  0  0
   -3.9490   24.0930  -28.7970 N   0  0  0  0  0  0  0  0  0  0  0  0
   -4.4590   24.3880  -30.1050 C   0  0  0  0  0  0  0  0  0  0  0  0
   -3.9600   25.3550  -30.7400 O   0  0  0  0  0  0  0  0  0  0  0  0
   -5.4950   23.5470  -30.7540 C   0  0  0  0  0  0  0  0  0  0  0  0
   -6.8560   23.7700  -30.4870 C   0  0  0  0  0  0  0  0  0  0  0  0
   -7.8380   22.9850  -31.0990 C   0  0  0  0  0  0  0  0  0  0  0  0
   -7.4740   21.9680  -32.0000 C   0  0  0  0  0  0  0  0  0  0  0  0
   -8.4470   21.1440  -32.6560 N   0  0  0  0  0  0  0  0  0  0  0  0
   -8.6400   19.4380  -32.4130 S   0  0  0  0  0  0  0  0  0  0  0  0
   -9.9050   18.9800  -33.0850 O   0  0  0  0  0  0  0  0  0  0  0  0
   -8.7340   19.1560  -30.9410 O   0  0  0  0  0  0  0  0  0  0  0  0
   -7.2570   18.5830  -33.0710 C   0  0  0  0  0  0  0  0  0  0  0  0
   -6.8870   17.2830  -32.7660 C   0  0  0  0  0  0  0  0  0  0  0  0
   -5.7460   16.8640  -33.4620 C   0  0  0  0  0  0  0  0  0  0  0  0
   -5.2230   17.8340  -34.3110 C   0  0  0  0  0  0  0  0  0  0  0  0
   -6.1810   19.2130  -34.1960 S   0  0  0  0  0  0  0  0  0  0  0  0
   -6.1190   21.7520  -32.2750 C   0  0  0  0  0  0  0  0  0  0  0  0
   -5.1370   22.5360  -31.6630 C   0  0  0  0  0  0  0  0  0  0  0  0
   -1.9520   25.3370  -28.9360 N   0  0  0  0  0  0  0  0  0  0  0  0
   -0.9800   25.5790  -28.1070 O   0  0  0  0  0  0  0  0  0  0  0  0
   -0.8909   25.0224  -24.8465 H   0  0  0  0  0  0  0  0  0  0  0  0
    0.4129   24.2342  -25.7981 H   0  0  0  0  0  0  0  0  0  0  0  0
    0.2574   26.0237  -25.7981 H   0  0  0  0  0  0  0  0  0  0  0  0
   -2.8961   23.7170  -26.2213 H   0  0  0  0  0  0  0  0  0  0  0  0
   -7.1516   24.5687  -29.7908 H   0  0  0  0  0  0  0  0  0  0  0  0
   -8.9000   23.1636  -30.8748 H   0  0  0  0  0  0  0  0  0  0  0  0
   -7.4318   16.6472  -32.0526 H   0  0  0  0  0  0  0  0  0  0  0  0
   -5.3052   15.8627  -33.3481 H   0  0  0  0  0  0  0  0  0  0  0  0
   -4.3343   17.7192  -34.9491 H   0  0  0  0  0  0  0  0  0  0  0  0
   -5.8245   20.9591  -32.9782 H   0  0  0  0  0  0  0  0  0  0  0  0
   -4.0760   22.3607  -31.8943 H   0  0  0  0  0  0  0  0  0  0  0  0
   -1.9800   25.6690  -29.9240 H   0  0  0  0  0  0  0  0  0  0  0  0
  1  2  1  0
  2  3  2  0
  3  4  1  0
  4  5  2  3
  5  6  1  0
  6  7  2  0
  6  8  1  0
  8  9  2  0
  9 10  1  0
 10 11  2  0
 11 12  1  0
 12 13  1  0
 13 14  2  0
 13 15  2  0
 13 16  1  0
 16 17  2  0
 17 18  1  0
 18 19  2  0
 19 20  1  0
 11 21  1  0
 21 22  2  0
  4 23  1  0
 23 24  1  0
 24  2  1  0
 22  8  1  0
 20 16  1  0
  1 25  1  0
  1 26  1  0
  1 27  1  0
  3 28  1  0
  9 29  1  0
 10 30  1  0
 17 31  1  0
 18 32  1  0
 19 33  1  0
 21 34  1  0
 22 35  1  0
 23 36  1  0
M  CHG  1  12  -1
M  END
>  <UniqueID>  (8) 
8

>  <SMILES>  (8) 
Cc1cc(=NC(=O)c2ccc([N-]S(=O)(=O)c3cccs3)cc2)[nH]o1

>  <Energy>  (8) 
106.27619313613279

>  <Genealogy>  (8) 
Cc1cc(=NC(=O)c2ccc([N-]S(=O)(=O)c3cccs3)cc2)[nH]o1 (protonated)
Cc1cc(=NC(=O)c2ccc([N-]S(=O)(=O)c3cccs3)cc2)[nH]o1 (3D coordinates assigned)
Cc1cc(=NC(=O)c2ccc([N-]S(=O)(=O)c3cccs3)cc2)[nH]o1 (optimized conformer: 106.27619313613279 kcal/mol)

>  <smiles>  (8) 
Cc1cc(=NC(=O)c2ccc(NS(=O)(=O)c3cccs3)cc2)[nH]o1

>  <score_type>  (8) 
oracle

>  <origin>  (8) 
adgpu

>  <m_score__min__energy>  (8) 
-10.06

>  <m_primary>  (8) 
energy

$$$$
8:0
     RDKit          3D

 46 48  0  0  0  0  0  0  0  0999 V2000
   -2.0750   20.7740  -27.1790 C   0  0  0  0  0  0  0  0  0  0  0  0
   -1.5760   22.1410  -27.5380 C   0  0  0  0  0  0  0  0  0  0  0  0
   -0.3250   22.5820  -27.0840 C   0  0  0  0  0  0  0  0  0  0  0  0
    0.1260   23.8660  -27.4000 C   0  0  0  0  0  0  0  0  0  0  0  0
   -0.6760   24.7240  -28.1560 C   0  0  0  0  0  0  0  0  0  0  0  0
   -1.9330   24.3030  -28.6070 C   0  0  0  0  0  0  0  0  0  0  0  0
   -2.7430   25.2110  -29.3620 N   0  0  0  0  0  0  0  0  0  0  0  0
   -3.6050   24.8580  -30.4530 C   0  0  0  0  0  0  0  0  0  0  0  0
   -4.4800   25.6800  -30.8290 O   0  0  0  0  0  0  0  0  0  0  0  0
   -3.4720   23.6130  -31.1550 N   0  0  0  0  0  0  0  0  0  0  0  0
   -4.5520   22.7350  -31.5100 C   0  0  0  0  0  0  0  0  0  0  0  0
   -4.3620   21.8810  -32.5960 C   0  0  0  0  0  0  0  0  0  0  0  0
   -5.3940   21.0680  -33.0470 C   0  0  0  0  0  0  0  0  0  0  0  0
   -6.6470   21.1000  -32.4310 C   0  0  0  0  0  0  0  0  0  0  0  0
   -7.9260   20.0130  -33.0880 S   0  0  0  0  0  0  0  0  0  0  0  0
   -6.8820   18.5520  -33.0540 C   0  0  0  0  0  0  0  0  0  0  0  0
   -6.6920   17.8400  -31.8620 C   0  0  0  0  0  0  0  0  0  0  0  0
   -5.8420   16.7300  -31.8360 C   0  0  0  0  0  0  0  0  0  0  0  0
   -5.1680   16.3370  -32.9960 C   0  0  0  0  0  0  0  0  0  0  0  0
   -4.3410   15.2630  -32.9700 F   0  0  0  0  0  0  0  0  0  0  0  0
   -5.3560   17.0440  -34.1870 C   0  0  0  0  0  0  0  0  0  0  0  0
   -6.2090   18.1520  -34.2160 C   0  0  0  0  0  0  0  0  0  0  0  0
   -6.8590   21.9290  -31.3010 C   0  0  0  0  0  0  0  0  0  0  0  0
   -8.1880   21.9240  -30.5780 C   0  0  0  0  0  0  0  0  0  0  0  0
   -5.7780   22.7060  -30.7970 C   0  0  0  0  0  0  0  0  0  0  0  0
   -5.9280   23.4780  -29.5040 C   0  0  0  0  0  0  0  0  0  0  0  0
   -2.3900   23.0160  -28.2720 C   0  0  0  0  0  0  0  0  0  0  0  0
   -2.1119   20.6729  -26.0843 H   0  0  0  0  0  0  0  0  0  0  0  0
   -3.0834   20.6309  -27.5946 H   0  0  0  0  0  0  0  0  0  0  0  0
   -1.3960   20.0149  -27.5946 H   0  0  0  0  0  0  0  0  0  0  0  0
    0.3039   21.9145  -26.4766 H   0  0  0  0  0  0  0  0  0  0  0  0
    1.1143   24.2018  -27.0529 H   0  0  0  0  0  0  0  0  0  0  0  0
   -0.3183   25.7356  -28.3983 H   0  0  0  0  0  0  0  0  0  0  0  0
   -3.3850   21.8509  -33.1006 H   0  0  0  0  0  0  0  0  0  0  0  0
   -5.2227   20.3922  -33.8978 H   0  0  0  0  0  0  0  0  0  0  0  0
   -7.2123   18.1548  -30.9454 H   0  0  0  0  0  0  0  0  0  0  0  0
   -5.7036   16.1656  -30.9020 H   0  0  0  0  0  0  0  0  0  0  0  0
   -4.8329   16.7288  -35.1019 H   0  0  0  0  0  0  0  0  0  0  0  0
   -6.3518   18.7105  -35.1529 H   0  0  0  0  0  0  0  0  0  0  0  0
   -8.0145   21.9247  -29.4918 H   0  0  0  0  0  0  0  0  0  0  0  0
   -8.7613   22.8200  -30.8583 H   0  0  0  0  0  0  0  0  0  0  0  0
   -8.7545   21.0237  -30.8583 H   0  0  0  0  0  0  0  0  0  0  0  0
   -5.7953   22.7952  -28.6518 H   0  0  0  0  0  0  0  0  0  0  0  0
   -5.1672   24.2712  -29.4602 H   0  0  0  0  0  0  0  0  0  0  0  0
   -6.9305   23.9286  -29.4602 H   0  0  0  0  0  0  0  0  0  0  0  0
   -3.3930   22.6933  -28.5879 H   0  0  0  0  0  0  0  0  0  0  0  0
  1  2  1  0
  2  3  2  0
  3  4  1  0
  4  5  2  0
  5  6  1  0
  6  7  1  0
  7  8  1  0
  8  9  2  0
  8 10  1  0
 10 11  1  0
 11 12  2  0
 12 13  1  0
 13 14  2  0
 14 15  1  0
 15 16  1  0
 16 17  2  0
 17 18  1  0
 18 19  2  0
 19 20  1  0
 19 21  1  0
 21 22  2  0
 14 23  1  0
 23 24  1  0
 23 25  2  0
 25 26  1  0
  6 27  2  0
 27  2  1  0
 25 11  1  0
 22 16  1  0
  1 28  1  0
  1 29  1  0
  1 30  1  0
  3 31  1  0
  4 32  1  0
  5 33  1  0
 12 34  1  0
 13 35  1  0
 17 36  1  0
 18 37  1  0
 21 38  1  0
 22 39  1  0
 24 40  1  0
 24 41  1  0
 24 42  1  0
 26 43  1  0
 26 44  1  0
 26 45  1  0
 27 46  1  0
M  CHG  2   7  -1  10  -1
M  END
>  <UniqueID>  (9) 
9

>  <SMILES>  (9) 
Cc1cccc([N-]C(=O)[N-]c2ccc(Sc3ccc(F)cc3)c(C)c2C)c1

>  <Energy>  (9) 
52.81934614909226

>  <Genealogy>  (9) 
Cc1cccc([N-]C(=O)[N-]c2ccc(Sc3ccc(F)cc3)c(C)c2C)c1 (protonated)
Cc1cccc([N-]C(=O)[N-]c2ccc(Sc3ccc(F)cc3)c(C)c2C)c1 (3D coordinates assigned)
Cc1cccc([N-]C(=O)[N-]c2ccc(Sc3ccc(F)cc3)c(C)c2C)c1 (optimized conformer: 52.81934614909226 kcal/mol)

>  <smiles>  (9) 
Cc1cccc(NC(=O)Nc2ccc(Sc3ccc(F)cc3)c(C)c2C)c1

>  <score_type>  (9) 
oracle

>  <origin>  (9) 
adgpu

>  <m_score__min__energy>  (9) 
-12.039999999999999

>  <m_primary>  (9) 
energy

$$$$
9:0
     RDKit          3D

 40 42  0  0  0  0  0  0  0  0999 V2000
    0.6170   26.1380  -27.4800 O   0  0  0  0  0  0  0  0  0  0  0  0
   -0.5010   25.6310  -27.7600 C   0  0  0  0  0  0  0  0  0  0  0  0
   -1.1440   25.8660  -28.9230 N   0  0  0  0  0  0  0  0  0  0  0  0
   -2.3280   25.1990  -28.9660 C   0  0  0  0  0  0  0  0  0  0  0  0
   -3.1780   25.2960  -30.0600 O   0  0  0  0  0  0  0  0  0  0  0  0
   -2.6160   24.4260  -27.8440 C   0  0  0  0  0  0  0  0  0  0  0  0
   -3.8750   23.6540  -27.5970 C   0  0  0  0  0  0  0  0  0  0  0  0
   -4.2740   22.9030  -28.8370 C   0  0  0  0  0  0  0  0  0  0  0  0
   -5.4200   23.2810  -29.5550 C   0  0  0  0  0  0  0  0  0  0  0  0
   -5.7680   22.6100  -30.7300 C   0  0  0  0  0  0  0  0  0  0  0  0
   -4.9740   21.5580  -31.2050 C   0  0  0  0  0  0  0  0  0  0  0  0
   -5.4160   20.7400  -32.7030 S   0  0  0  0  0  0  0  0  0  0  0  0
   -4.4940   21.2090  -33.7940 O   0  0  0  0  0  0  0  0  0  0  0  0
   -6.8290   21.0920  -33.0840 O   0  0  0  0  0  0  0  0  0  0  0  0
   -5.2680   19.0110  -32.4980 N   0  0  0  0  0  0  0  0  0  0  0  0
   -5.0430   18.3730  -33.8200 C   0  0  0  0  0  0  0  0  0  0  0  0
   -5.3760   16.8770  -33.7880 C   0  0  0  0  0  0  0  0  0  0  0  0
   -6.8620   16.6480  -33.4590 C   0  0  0  0  0  0  0  0  0  0  0  0
   -7.4770   17.8050  -32.6520 C   0  0  0  0  0  0  0  0  0  0  0  0
   -6.4300   18.4630  -31.7430 C   0  0  0  0  0  0  0  0  0  0  0  0
   -3.8230   21.1870  -30.4980 C   0  0  0  0  0  0  0  0  0  0  0  0
   -3.4730   21.8570  -29.3220 C   0  0  0  0  0  0  0  0  0  0  0  0
   -1.3560   24.6030  -26.7400 S   0  0  0  0  0  0  0  0  0  0  0  0
   -3.7086   22.9398  -26.7771 H   0  0  0  0  0  0  0  0  0  0  0  0
   -4.6789   24.3545  -27.3267 H   0  0  0  0  0  0  0  0  0  0  0  0
   -6.0463   24.1088  -29.1909 H   0  0  0  0  0  0  0  0  0  0  0  0
   -6.6696   22.9091  -31.2847 H   0  0  0  0  0  0  0  0  0  0  0  0
   -4.4090   18.8540  -31.9200 H   0  0  0  0  0  0  0  0  0  0  0  0
   -5.6825   18.8652  -34.5675 H   0  0  0  0  0  0  0  0  0  0  0  0
   -3.9797   18.4836  -34.0791 H   0  0  0  0  0  0  0  0  0  0  0  0
   -5.1540   16.4382  -34.7720 H   0  0  0  0  0  0  0  0  0  0  0  0
   -4.7671   16.3998  -33.0061 H   0  0  0  0  0  0  0  0  0  0  0  0
   -7.4188   16.5416  -34.4017 H   0  0  0  0  0  0  0  0  0  0  0  0
   -6.9294   15.7399  -32.8419 H   0  0  0  0  0  0  0  0  0  0  0  0
   -7.8722   18.5588  -33.3489 H   0  0  0  0  0  0  0  0  0  0  0  0
   -8.2827   17.4012  -32.0213 H   0  0  0  0  0  0  0  0  0  0  0  0
   -6.9103   19.2855  -31.1927 H   0  0  0  0  0  0  0  0  0  0  0  0
   -6.0463   17.6859  -31.0655 H   0  0  0  0  0  0  0  0  0  0  0  0
   -3.1925   20.3657  -30.8694 H   0  0  0  0  0  0  0  0  0  0  0  0
   -2.5656   21.5632  -28.7740 H   0  0  0  0  0  0  0  0  0  0  0  0
  1  2  2  0
  2  3  1  0
  3  4  1  0
  4  5  1  0
  4  6  2  0
  6  7  1  0
  7  8  1  0
  8  9  2  0
  9 10  1  0
 10 11  2  0
 11 12  1  0
 12 13  2  0
 12 14  2  0
 12 15  1  0
 15 16  1  0
 16 17  1  0
 17 18  1  0
 18 19  1  0
 19 20  1  0
 11 21  1  0
 21 22  2  0
  6 23  1  0
 23  2  1  0
 22  8  1  0
 20 15  1  0
  7 24  1  0
  7 25  1  0
  9 26  1  0
 10 27  1  0
 15 28  1  0
 16 29  1  0
 16 30  1  0
 17 31  1  0
 17 32  1  0
 18 33  1  0
 18 34  1  0
 19 35  1  0
 19 36  1  0
 20 37  1  0
 20 38  1  0
 21 39  1  0
 22 40  1  0
M  CHG  3   3  -1   5  -1  15   1
M  END
>  <UniqueID>  (10) 
10

>  <SMILES>  (10) 
O=c1[n-]c([O-])c(Cc2ccc(S(=O)(=O)[NH+]3CCCCC3)cc2)s1

>  <Energy>  (10) 
75.10651757786914

>  <Genealogy>  (10) 
O=c1[n-]c([O-])c(Cc2ccc(S(=O)(=O)[NH+]3CCCCC3)cc2)s1 (protonated)
O=c1[n-]c([O-])c(Cc2ccc(S(=O)(=O)[NH+]3CCCCC3)cc2)s1 (3D coordinates assigned)
O=c1[n-]c([O-])c(Cc2ccc(S(=O)(=O)[NH+]3CCCCC3)cc2)s1 (nonaromatic ring conformer: 75.10651757786914 kcal/mol)

>  <smiles>  (10) 
O=c1[nH]c(O)c(Cc2ccc(S(=O)(=O)N3CCCCC3)cc2)s1

>  <score_type>  (10) 
oracle

>  <origin>  (10) 
adgpu

>  <m_score__min__energy>  (10) 
-12.699999999999999

>  <m_primary>  (10) 
energy

$$$$
10:0
     RDKit          3D

 53 56  0  0  0  0  0  0  0  0999 V2000
   -3.0370   24.4630  -26.7160 C   0  0  0  0  0  0  0  0  0  0  0  0
   -3.5480   23.9940  -28.0510 C   0  0  0  0  0  0  0  0  0  0  0  0
   -4.6340   23.1040  -28.0850 C   0  0  0  0  0  0  0  0  0  0  0  0
   -5.1700   22.6830  -29.3030 C   0  0  0  0  0  0  0  0  0  0  0  0
   -4.6300   23.1450  -30.5080 C   0  0  0  0  0  0  0  0  0  0  0  0
   -5.3070   22.6150  -32.0510 S   0  0  0  0  0  0  0  0  0  0  0  0
   -4.1860   22.2200  -32.9700 O   0  0  0  0  0  0  0  0  0  0  0  0
   -6.0490   23.7580  -32.6870 O   0  0  0  0  0  0  0  0  0  0  0  0
   -6.3900   21.2610  -31.8460 N   0  0  0  0  0  0  0  0  0  0  0  0
   -6.1110   20.2260  -32.8640 C   0  0  0  0  0  0  0  0  0  0  0  0
   -7.2120   19.1420  -32.9190 C   0  0  0  0  0  0  0  0  0  0  0  0
   -8.1080   19.1800  -31.6780 C   0  0  0  0  0  0  0  0  0  0  0  0
   -8.7380   20.5710  -31.4930 C   0  0  0  0  0  0  0  0  0  0  0  0
   -7.7910   21.7080  -31.9200 C   0  0  0  0  0  0  0  0  0  0  0  0
   -3.5370   24.0200  -30.4850 C   0  0  0  0  0  0  0  0  0  0  0  0
   -2.9670   24.4200  -29.2700 C   0  0  0  0  0  0  0  0  0  0  0  0
   -1.8350   25.2970  -29.3100 N   0  0  0  0  0  0  0  0  0  0  0  0
   -0.5800   25.0230  -28.6770 C   0  0  0  0  0  0  0  0  0  0  0  0
   -0.1170   25.8190  -27.8180 O   0  0  0  0  0  0  0  0  0  0  0  0
    0.1170   23.8000  -28.9370 N   0  0  0  0  0  0  0  0  0  0  0  0
   -0.4800   22.5400  -29.2890 C   0  0  0  0  0  0  0  0  0  0  0  0
   -0.5850   22.1440  -30.6340 C   0  0  0  0  0  0  0  0  0  0  0  0
   -1.1440   20.9110  -30.9710 C   0  0  0  0  0  0  0  0  0  0  0  0
   -1.5930   20.0450  -29.9740 C   0  0  0  0  0  0  0  0  0  0  0  0
   -1.4750   20.4020  -28.6250 C   0  0  0  0  0  0  0  0  0  0  0  0
   -1.9140   19.5250  -27.6200 C   0  0  0  0  0  0  0  0  0  0  0  0
   -1.7940   19.8800  -26.2760 C   0  0  0  0  0  0  0  0  0  0  0  0
   -1.2380   21.1100  -25.9210 C   0  0  0  0  0  0  0  0  0  0  0  0
   -0.7990   21.9950  -26.9090 C   0  0  0  0  0  0  0  0  0  0  0  0
   -0.9090   21.6560  -28.2720 C   0  0  0  0  0  0  0  0  0  0  0  0
   -3.5905   23.9550  -25.9125 H   0  0  0  0  0  0  0  0  0  0  0  0
   -1.9661   24.2268  -26.6297 H   0  0  0  0  0  0  0  0  0  0  0  0
   -3.1808   25.5501  -26.6297 H   0  0  0  0  0  0  0  0  0  0  0  0
   -5.0661   22.7354  -27.1430 H   0  0  0  0  0  0  0  0  0  0  0  0
   -6.0203   21.9853  -29.3155 H   0  0  0  0  0  0  0  0  0  0  0  0
   -6.0416   20.7095  -33.8496 H   0  0  0  0  0  0  0  0  0  0  0  0
   -5.1671   19.7320  -32.5903 H   0  0  0  0  0  0  0  0  0  0  0  0
   -7.8325   19.3094  -33.8117 H   0  0  0  0  0  0  0  0  0  0  0  0
   -6.7221   18.1579  -32.9577 H   0  0  0  0  0  0  0  0  0  0  0  0
   -8.9092   18.4347  -31.7902 H   0  0  0  0  0  0  0  0  0  0  0  0
   -7.4919   18.9549  -30.7949 H   0  0  0  0  0  0  0  0  0  0  0  0
   -9.6535   20.6274  -32.1003 H   0  0  0  0  0  0  0  0  0  0  0  0
   -8.9547   20.7004  -30.4224 H   0  0  0  0  0  0  0  0  0  0  0  0
   -8.0231   22.0048  -32.9535 H   0  0  0  0  0  0  0  0  0  0  0  0
   -7.9301   22.5631  -31.2422 H   0  0  0  0  0  0  0  0  0  0  0  0
   -3.1218   24.3971  -31.4312 H   0  0  0  0  0  0  0  0  0  0  0  0
   -0.2228   22.8130  -31.4285 H   0  0  0  0  0  0  0  0  0  0  0  0
   -1.2311   20.6203  -32.0283 H   0  0  0  0  0  0  0  0  0  0  0  0
   -2.0412   19.0786  -30.2482 H   0  0  0  0  0  0  0  0  0  0  0  0
   -2.3541   18.5546  -27.8933 H   0  0  0  0  0  0  0  0  0  0  0  0
   -2.1388   19.1881  -25.4935 H   0  0  0  0  0  0  0  0  0  0  0  0
   -1.1451   21.3836  -24.8596 H   0  0  0  0  0  0  0  0  0  0  0  0
   -0.3643   22.9634  -26.6206 H   0  0  0  0  0  0  0  0  0  0  0  0
  1  2  1  0
  2  3  2  0
  3  4  1  0
  4  5  2  0
  5  6  1  0
  6  7  2  0
  6  8  2  0
  6  9  1  0
  9 10  1  0
 10 11  1  0
 11 12  1  0
 12 13  1  0
 13 14  1  0
  5 15  1  0
 15 16  2  0
 16 17  1  0
 17 18  1  0
 18 19  2  0
 18 20  1  0
 20 21  1  0
 21 22  2  0
 22 23  1  0
 23 24  2  0
 24 25  1  0
 25 26  2  0
 26 27  1  0
 27 28  2  0
 28 29  1  0
 29 30  2  0
 16  2  1  0
 30 21  1  0
 14  9  1  0
 30 25  1  0
  1 31  1  0
  1 32  1  0
  1 33  1  0
  3 34  1  0
  4 35  1  0
 10 36  1  0
 10 37  1  0
 11 38  1  0
 11 39  1  0
 12 40  1  0
 12 41  1  0
 13 42  1  0
 13 43  1  0
 14 44  1  0
 14 45  1  0
 15 46  1  0
 22 47  1  0
 23 48  1  0
 24 49  1  0
 26 50  1  0
 27 51  1  0
 28 52  1  0
 29 53  1  0
M  CHG  2  17  -1  20  -1
M  END
>  <UniqueID>  (11) 
11

>  <SMILES>  (11) 
Cc1ccc(S(=O)(=O)N2CCCCC2)cc1[N-]C(=O)[N-]c1cccc2ccccc12

>  <Energy>  (11) 
72.57538753150683

>  <Genealogy>  (11) 
Cc1ccc(S(=O)(=O)N2CCCCC2)cc1[N-]C(=O)[N-]c1cccc2ccccc12 (protonated)
Cc1ccc(S(=O)(=O)N2CCCCC2)cc1[N-]C(=O)[N-]c1cccc2ccccc12 (3D coordinates assigned)
Cc1ccc(S(=O)(=O)N2CCCCC2)cc1[N-]C(=O)[N-]c1cccc2ccccc12 (nonaromatic ring conformer: 72.57538753150683 kcal/mol)

>  <smiles>  (11) 
Cc1ccc(S(=O)(=O)N2CCCCC2)cc1NC(=O)Nc1cccc2ccccc12

>  <score_type>  (11) 
oracle

>  <origin>  (11) 
adgpu

>  <m_score__min__energy>  (11) 
-12.82

>  <m_primary>  (11) 
energy

$$$$
11:0
     RDKit          3D

 43 45  0  0  0  0  0  0  0  0999 V2000
   -9.1170   19.9920  -32.6720 C   0  0  0  0  0  0  0  0  0  0  0  0
   -8.0870   20.9950  -32.2420 C   0  0  0  0  0  0  0  0  0  0  0  0
   -8.4720   22.1570  -31.5560 C   0  0  0  0  0  0  0  0  0  0  0  0
   -7.5080   23.0740  -31.1260 C   0  0  0  0  0  0  0  0  0  0  0  0
   -6.1490   22.8330  -31.3680 C   0  0  0  0  0  0  0  0  0  0  0  0
   -4.9290   23.9910  -30.8450 S   0  0  0  0  0  0  0  0  0  0  0  0
   -3.6000   23.6860  -31.4750 O   0  0  0  0  0  0  0  0  0  0  0  0
   -5.3640   25.3690  -31.2610 O   0  0  0  0  0  0  0  0  0  0  0  0
   -4.7650   23.9400  -29.1180 N   0  0  0  0  0  0  0  0  0  0  0  0
   -3.6680   23.2970  -28.4390 C   0  0  0  0  0  0  0  0  0  0  0  0
   -3.7660   21.9650  -27.9920 C   0  0  0  0  0  0  0  0  0  0  0  0
   -2.6990   21.3630  -27.3270 C   0  0  0  0  0  0  0  0  0  0  0  0
   -1.5190   22.0700  -27.1050 C   0  0  0  0  0  0  0  0  0  0  0  0
   -1.3910   23.3910  -27.5560 C   0  0  0  0  0  0  0  0  0  0  0  0
    0.1050   24.2880  -27.2730 S   0  0  0  0  0  0  0  0  0  0  0  0
    1.0220   23.4750  -26.4010 O   0  0  0  0  0  0  0  0  0  0  0  0
    0.7860   24.5400  -28.5890 O   0  0  0  0  0  0  0  0  0  0  0  0
   -0.2070   25.8260  -26.4690 C   0  0  0  0  0  0  0  0  0  0  0  0
   -0.5800   25.8470  -25.1170 C   0  0  0  0  0  0  0  0  0  0  0  0
   -0.8480   27.0630  -24.4800 C   0  0  0  0  0  0  0  0  0  0  0  0
   -0.7490   28.2620  -25.1930 C   0  0  0  0  0  0  0  0  0  0  0  0
   -0.3850   28.2460  -26.5420 C   0  0  0  0  0  0  0  0  0  0  0  0
   -0.1160   27.0320  -27.1810 C   0  0  0  0  0  0  0  0  0  0  0  0
   -2.4700   24.0050  -28.2180 C   0  0  0  0  0  0  0  0  0  0  0  0
   -2.3570   25.3240  -28.6460 O   0  0  0  0  0  0  0  0  0  0  0  0
   -5.7610   21.6630  -32.0310 C   0  0  0  0  0  0  0  0  0  0  0  0
   -6.7230   20.7450  -32.4640 C   0  0  0  0  0  0  0  0  0  0  0  0
   -9.5816   19.5396  -31.7835 H   0  0  0  0  0  0  0  0  0  0  0  0
   -9.8888   20.4940  -33.2739 H   0  0  0  0  0  0  0  0  0  0  0  0
   -8.6356   19.2071  -33.2739 H   0  0  0  0  0  0  0  0  0  0  0  0
   -9.5367   22.3473  -31.3557 H   0  0  0  0  0  0  0  0  0  0  0  0
   -7.8173   23.9871  -30.5963 H   0  0  0  0  0  0  0  0  0  0  0  0
   -5.5640   24.3190  -28.5630 H   0  0  0  0  0  0  0  0  0  0  0  0
   -4.6906   21.3960  -28.1688 H   0  0  0  0  0  0  0  0  0  0  0  0
   -2.7890   20.3245  -26.9757 H   0  0  0  0  0  0  0  0  0  0  0  0
   -0.6844   21.5894  -26.5736 H   0  0  0  0  0  0  0  0  0  0  0  0
   -0.6620   24.9043  -24.5561 H   0  0  0  0  0  0  0  0  0  0  0  0
   -1.1365   27.0762  -23.4186 H   0  0  0  0  0  0  0  0  0  0  0  0
   -0.9578   29.2185  -24.6915 H   0  0  0  0  0  0  0  0  0  0  0  0
   -0.3100   29.1899  -27.1019 H   0  0  0  0  0  0  0  0  0  0  0  0
    0.1675   27.0220  -28.2438 H   0  0  0  0  0  0  0  0  0  0  0  0
   -4.6943   21.4646  -32.2123 H   0  0  0  0  0  0  0  0  0  0  0  0
   -6.4106   19.8250  -32.9797 H   0  0  0  0  0  0  0  0  0  0  0  0
  1  2  1  0
  2  3  2  0
  3  4  1  0
  4  5  2  0
  5  6  1  0
  6  7  2  0
  6  8  2  0
  6  9  1  0
  9 10  1  0
 10 11  2  0
 11 12  1  0
 12 13  2  0
 13 14  1  0
 14 15  1  0
 15 16  2  0
 15 17  2  0
 15 18  1  0
 18 19  2  0
 19 20  1  0
 20 21  2  0
 21 22  1  0
 22 23  2  0
 14 24  2  0
 24 25  1  0
  5 26  1  0
 26 27  2  0
 27  2  1  0
 24 10  1  0
 23 18  1  0
  1 28  1  0
  1 29  1  0
  1 30  1  0
  3 31  1  0
  4 32  1  0
  9 33  1  0
 11 34  1  0
 12 35  1  0
 13 36  1  0
 19 37  1  0
 20 38  1  0
 21 39  1  0
 22 40  1  0
 23 41  1  0
 26 42  1  0
 27 43  1  0
M  CHG  1  25  -1
M  END
>  <UniqueID>  (12) 
12

>  <SMILES>  (12) 
Cc1ccc(S(=O)(=O)Nc2cccc(S(=O)(=O)c3ccccc3)c2[O-])cc1

>  <Energy>  (12) 
51.6398705820436

>  <Genealogy>  (12) 
Cc1ccc(S(=O)(=O)Nc2cccc(S(=O)(=O)c3ccccc3)c2[O-])cc1 (protonated)
Cc1ccc(S(=O)(=O)Nc2cccc(S(=O)(=O)c3ccccc3)c2[O-])cc1 (3D coordinates assigned)
Cc1ccc(S(=O)(=O)Nc2cccc(S(=O)(=O)c3ccccc3)c2[O-])cc1 (optimized conformer: 51.6398705820436 kcal/mol)

>  <smiles>  (12) 
Cc1ccc(S(=O)(=O)Nc2cccc(S(=O)(=O)c3ccccc3)c2O)cc1

>  <score_type>  (12) 
oracle

>  <origin>  (12) 
adgpu

>  <m_score__min__energy>  (12) 
-13.02

>  <m_primary>  (12) 
energy

$$$$
12:0
     RDKit          3D

 39 41  0  0  0  0  0  0  0  0999 V2000
   -0.7284   27.5436  -24.1113 H   0  0  0  0  0  0  0  0  0  0  0  0
   -0.9290   27.1260  -25.1090 C   0  0  0  0  0  0  0  0  0  0  0  0
   -0.2660   27.6380  -26.2280 C   0  0  0  0  0  0  0  0  0  0  0  0
    0.4556   28.4598  -26.1099 H   0  0  0  0  0  0  0  0  0  0  0  0
   -0.5180   27.1080  -27.4970 C   0  0  0  0  0  0  0  0  0  0  0  0
    0.0064   27.5133  -28.3749 H   0  0  0  0  0  0  0  0  0  0  0  0
   -1.4420   26.0560  -27.6540 C   0  0  0  0  0  0  0  0  0  0  0  0
   -1.7300   25.4800  -28.9350 N   0  0  0  0  0  0  0  0  0  0  0  0
   -1.9420   23.7880  -29.2450 S   0  0  0  0  0  0  0  0  0  0  0  0
   -0.8160   23.2800  -30.1020 O   0  0  0  0  0  0  0  0  0  0  0  0
   -1.9600   23.0280  -27.9480 O   0  0  0  0  0  0  0  0  0  0  0  0
   -3.4710   23.5520  -30.0850 C   0  0  0  0  0  0  0  0  0  0  0  0
   -4.5490   24.4120  -29.8440 C   0  0  0  0  0  0  0  0  0  0  0  0
   -4.4438   25.2330  -29.1195 H   0  0  0  0  0  0  0  0  0  0  0  0
   -5.7590   24.2310  -30.5210 C   0  0  0  0  0  0  0  0  0  0  0  0
   -6.6028   24.9077  -30.3206 H   0  0  0  0  0  0  0  0  0  0  0  0
   -5.9060   23.1910  -31.4560 C   0  0  0  0  0  0  0  0  0  0  0  0
   -7.1890   22.9960  -32.1740 C   0  0  0  0  0  0  0  0  0  0  0  0
   -7.5210   23.7990  -33.0870 O   0  0  0  0  0  0  0  0  0  0  0  0
   -8.0850   21.9480  -31.7640 N   0  0  0  0  0  0  0  0  0  0  0  0
   -8.0090   20.6630  -31.9820 C   0  0  0  0  0  0  0  0  0  0  0  0
   -6.8880   20.0550  -32.5880 C   0  0  0  0  0  0  0  0  0  0  0  0
   -6.0305   20.6666  -32.9052 H   0  0  0  0  0  0  0  0  0  0  0  0
   -6.8750   18.6720  -32.7820 C   0  0  0  0  0  0  0  0  0  0  0  0
   -6.0094   18.1919  -33.2618 H   0  0  0  0  0  0  0  0  0  0  0  0
   -7.9580   17.9010  -32.3680 C   0  0  0  0  0  0  0  0  0  0  0  0
   -7.9578   16.8122  -32.5247 H   0  0  0  0  0  0  0  0  0  0  0  0
   -9.0420   18.5240  -31.7530 C   0  0  0  0  0  0  0  0  0  0  0  0
   -9.8995   17.9236  -31.4149 H   0  0  0  0  0  0  0  0  0  0  0  0
   -9.0440   19.8720  -31.5690 N   0  0  0  0  0  0  0  0  0  0  0  0
   -9.8740   20.3080  -31.1050 H   0  0  0  0  0  0  0  0  0  0  0  0
   -4.8150   22.3370  -31.6990 C   0  0  0  0  0  0  0  0  0  0  0  0
   -4.9135   21.5198  -32.4287 H   0  0  0  0  0  0  0  0  0  0  0  0
   -3.6060   22.5190  -31.0200 C   0  0  0  0  0  0  0  0  0  0  0  0
   -2.7580   21.8479  -31.2214 H   0  0  0  0  0  0  0  0  0  0  0  0
   -2.1020   25.5510  -26.5270 C   0  0  0  0  0  0  0  0  0  0  0  0
   -2.8258   24.7304  -26.6398 H   0  0  0  0  0  0  0  0  0  0  0  0
   -1.8470   26.0830  -25.2590 C   0  0  0  0  0  0  0  0  0  0  0  0
   -2.3695   25.6801  -24.3789 H   0  0  0  0  0  0  0  0  0  0  0  0
  1  2  1  0
  2  3  2  0
  3  4  1  0
  3  5  1  0
  5  6  1  0
  5  7  2  0
  7  8  1  0
  8  9  1  0
  9 10  2  0
  9 11  2  0
  9 12  1  0
 12 13  2  0
 13 14  1  0
 13 15  1  0
 15 16  1  0
 15 17  2  0
 17 18  1  0
 18 19  2  0
 18 20  1  0
 20 21  2  0
 21 22  1  0
 22 23  1  0
 22 24  2  0
 24 25  1  0
 24 26  1  0
 26 27  1  0
 26 28  2  0
 28 29  1  0
 28 30  1  0
 30 31  1  0
 17 32  1  0
 32 33  1  0
 32 34  2  0
 34 35  1  0
  7 36  1  0
 36 37  1  0
 36 38  2  0
 38 39  1  0
 38  2  1  0
 34 12  1  0
 30 21  1  0
M  CHG  1   8  -1
M  END
>  <UniqueID>  (13) 
13

>  <SMILES>  (13) 
O=C(/N=c1\cccc[nH]1)c1ccc(S(=O)(=O)[N-]c2ccccc2)cc1

>  <Energy>  (13) 
54.99817180803116

>  <Genealogy>  (13) 
O=C(N=c1cccc[nH]1)c1ccc(S(=O)(=O)[N-]c2ccccc2)cc1 (protonated)
O=C(/N=c1\cccc[nH]1)c1ccc(S(=O)(=O)[N-]c2ccccc2)cc1 (cis-trans isomerization)
O=C(/N=c1\cccc[nH]1)c1ccc(S(=O)(=O)[N-]c2ccccc2)cc1 (3D coordinates assigned)
O=C(/N=c1\cccc[nH]1)c1ccc(S(=O)(=O)[N-]c2ccccc2)cc1 (optimized conformer: 54.99817180803116 kcal/mol)

>  <smiles>  (13) 
O=C(N=c1cccc[nH]1)c1ccc(S(=O)(=O)Nc2ccccc2)cc1

>  <score_type>  (13) 
oracle

>  <origin>  (13) 
adgpu

>  <m_score__min__energy>  (13) 
-10.52

>  <m_primary>  (13) 
energy

$$$$
13:0
     RDKit          3D

 51 54  0  0  0  0  0  0  0  0999 V2000
   -4.7966   26.6521  -30.2885 H   0  0  0  0  0  0  0  0  0  0  0  0
   -4.6950   25.5880  -30.5480 C   0  0  0  0  0  0  0  0  0  0  0  0
   -3.5460   24.9320  -30.2670 N   0  0  0  0  0  0  0  0  0  0  0  0
   -3.3600   23.6280  -30.6020 C   0  0  0  0  0  0  0  0  0  0  0  0
   -2.1110   23.0470  -30.3650 C   0  0  0  0  0  0  0  0  0  0  0  0
   -1.3459   23.6072  -29.8074 H   0  0  0  0  0  0  0  0  0  0  0  0
   -1.8250   21.7560  -30.8320 C   0  0  0  0  0  0  0  0  0  0  0  0
   -0.5730   21.1510  -30.6340 O   0  0  0  0  0  0  0  0  0  0  0  0
   -0.3010   20.1610  -29.6460 C   0  0  0  0  0  0  0  0  0  0  0  0
   -0.4215   20.5997  -28.6445 H   0  0  0  0  0  0  0  0  0  0  0  0
   -1.0018   19.3216  -29.7654 H   0  0  0  0  0  0  0  0  0  0  0  0
    0.7303   19.7975  -29.7654 H   0  0  0  0  0  0  0  0  0  0  0  0
   -2.8060   21.0450  -31.5300 C   0  0  0  0  0  0  0  0  0  0  0  0
   -2.4610   19.7860  -32.1240 N   0  0  0  0  0  0  0  0  0  0  0  0
   -2.3110   19.5480  -33.5270 C   0  0  0  0  0  0  0  0  0  0  0  0
   -3.3230   19.2250  -34.2030 O   0  0  0  0  0  0  0  0  0  0  0  0
   -0.9980   19.7830  -34.2280 C   0  0  0  0  0  0  0  0  0  0  0  0
   -0.6285   18.8258  -34.6245 H   0  0  0  0  0  0  0  0  0  0  0  0
   -1.1656   20.5056  -35.0403 H   0  0  0  0  0  0  0  0  0  0  0  0
    0.0180   20.3470  -33.3070 N   0  0  0  0  0  0  0  0  0  0  0  0
   -0.4360   20.6100  -32.3990 H   0  0  0  0  0  0  0  0  0  0  0  0
    1.0910   19.3750  -33.0430 C   0  0  0  0  0  0  0  0  0  0  0  0
    1.5090   19.5395  -32.0389 H   0  0  0  0  0  0  0  0  0  0  0  0
    0.7036   18.3464  -33.0874 H   0  0  0  0  0  0  0  0  0  0  0  0
    2.1660   19.5900  -34.0950 C   0  0  0  0  0  0  0  0  0  0  0  0
    3.1666   19.4773  -33.6522 H   0  0  0  0  0  0  0  0  0  0  0  0
    2.0947   18.8554  -34.9107 H   0  0  0  0  0  0  0  0  0  0  0  0
    1.9610   21.0100  -34.5920 C   0  0  0  0  0  0  0  0  0  0  0  0
    2.8253   21.6375  -34.3289 H   0  0  0  0  0  0  0  0  0  0  0  0
    1.8579   21.0473  -35.6865 H   0  0  0  0  0  0  0  0  0  0  0  0
    0.7040   21.5130  -33.8890 C   0  0  0  0  0  0  0  0  0  0  0  0
    0.9780   22.2217  -33.0936 H   0  0  0  0  0  0  0  0  0  0  0  0
    0.0454   22.0305  -34.6020 H   0  0  0  0  0  0  0  0  0  0  0  0
   -4.0720   21.6150  -31.7500 C   0  0  0  0  0  0  0  0  0  0  0  0
   -4.8238   21.0557  -32.3262 H   0  0  0  0  0  0  0  0  0  0  0  0
   -4.3960   22.8960  -31.2430 C   0  0  0  0  0  0  0  0  0  0  0  0
   -5.6530   23.5530  -31.4520 C   0  0  0  0  0  0  0  0  0  0  0  0
   -6.7530   22.9780  -31.8640 N   0  0  0  0  0  0  0  0  0  0  0  0
   -7.0960   21.5900  -31.9340 C   0  0  0  0  0  0  0  0  0  0  0  0
   -8.1270   21.0740  -31.1340 C   0  0  0  0  0  0  0  0  0  0  0  0
   -8.6153   21.7164  -30.3864 H   0  0  0  0  0  0  0  0  0  0  0  0
   -8.5350   19.7450  -31.2850 C   0  0  0  0  0  0  0  0  0  0  0  0
   -9.3472   19.3453  -30.6601 H   0  0  0  0  0  0  0  0  0  0  0  0
   -7.9120   18.9240  -32.2290 C   0  0  0  0  0  0  0  0  0  0  0  0
   -8.3030   17.6300  -32.3570 F   0  0  0  0  0  0  0  0  0  0  0  0
   -6.8980   19.4410  -33.0460 C   0  0  0  0  0  0  0  0  0  0  0  0
   -6.1240   18.4250  -34.2500 Cl  0  0  0  0  0  0  0  0  0  0  0  0
   -6.5050   20.7780  -32.9100 C   0  0  0  0  0  0  0  0  0  0  0  0
   -5.7298   21.1918  -33.5717 H   0  0  0  0  0  0  0  0  0  0  0  0
   -5.7480   24.9210  -31.1640 C   0  0  0  0  0  0  0  0  0  0  0  0
   -6.6631   25.4717  -31.4274 H   0  0  0  0  0  0  0  0  0  0  0  0
  1  2  1  0
  2  3  1  0
  3  4  1  0
  4  5  2  0
  5  6  1  0
  5  7  1  0
  7  8  1  0
  8  9  1  0
  9 10  1  0
  9 11  1  0
  9 12  1  0
  7 13  2  0
 13 14  1  0
 14 15  1  0
 15 16  2  0
 15 17  1  0
 17 18  1  0
 17 19  1  0
 17 20  1  0
 20 21  1  0
 20 22  1  0
 22 23  1  0
 22 24  1  0
 22 25  1  0
 25 26  1  0
 25 27  1  0
 25 28  1  0
 28 29  1  0
 28 30  1  0
 28 31  1  0
 31 32  1  0
 31 33  1  0
 13 34  1  0
 34 35  1  0
 34 36  2  0
 36 37  1  0
 37 38  2  0
 38 39  1  0
 39 40  2  0
 40 41  1  0
 40 42  1  0
 42 43  1  0
 42 44  2  0
 44 45  1  0
 44 46  1  0
 46 47  1  0
 46 48  2  0
 48 49  1  0
 37 50  1  0
 50 51  1  0
 50  2  2  0
 36  4  1  0
 48 39  1  0
 31 20  1  0
M  CHG  3   3  -1  14  -1  20   1
M  END
>  <UniqueID>  (14) 
14

>  <SMILES>  (14) 
COc1cc2[n-]cc/c(=N/c3ccc(F)c(Cl)c3)c2cc1[N-]C(=O)C[NH+]1CCCC1

>  <Energy>  (14) 
84.7657820094924

>  <Genealogy>  (14) 
COc1cc2[n-]ccc(=Nc3ccc(F)c(Cl)c3)c2cc1[N-]C(=O)C[NH+]1CCCC1 (protonated)
COc1cc2[n-]cc/c(=N/c3ccc(F)c(Cl)c3)c2cc1[N-]C(=O)C[NH+]1CCCC1 (cis-trans isomerization)
COc1cc2[n-]cc/c(=N/c3ccc(F)c(Cl)c3)c2cc1[N-]C(=O)C[NH+]1CCCC1 (3D coordinates assigned)
COc1cc2[n-]cc/c(=N/c3ccc(F)c(Cl)c3)c2cc1[N-]C(=O)C[NH+]1CCCC1 (nonaromatic ring conformer: 84.7657820094924 kcal/mol)

>  <smiles>  (14) 
COc1cc2[nH]ccc(=Nc3ccc(F)c(Cl)c3)c2cc1NC(=O)CN1CCCC1

>  <score_type>  (14) 
oracle

>  <origin>  (14) 
adgpu

>  <m_score__min__energy>  (14) 
-9.5899999999999999

>  <m_primary>  (14) 
energy

$$$$
14:0
     RDKit          3D

 41 43  0  0  0  0  0  0  0  0999 V2000
   -2.2770   25.2840  -29.3430 O   0  0  0  0  0  0  0  0  0  0  0  0
   -3.0780   24.4460  -29.8310 C   0  0  0  0  0  0  0  0  0  0  0  0
   -4.2120   24.9190  -30.5720 N   0  0  0  0  0  0  0  0  0  0  0  0
   -5.4310   24.1960  -30.7950 C   0  0  0  0  0  0  0  0  0  0  0  0
   -6.0330   24.1360  -32.0650 C   0  0  0  0  0  0  0  0  0  0  0  0
   -7.2300   23.4380  -32.2430 C   0  0  0  0  0  0  0  0  0  0  0  0
   -7.8260   22.7780  -31.1630 C   0  0  0  0  0  0  0  0  0  0  0  0
   -9.3300   21.9070  -31.3870 Cl  0  0  0  0  0  0  0  0  0  0  0  0
   -7.2140   22.8100  -29.9050 C   0  0  0  0  0  0  0  0  0  0  0  0
   -6.0180   23.5090  -29.7240 C   0  0  0  0  0  0  0  0  0  0  0  0
   -2.8300   23.0470  -29.6320 N   0  0  0  0  0  0  0  0  0  0  0  0
   -2.7170   22.0580  -30.6650 C   0  0  0  0  0  0  0  0  0  0  0  0
   -2.0510   20.8390  -30.4490 C   0  0  0  0  0  0  0  0  0  0  0  0
   -1.9400   19.9060  -31.4840 C   0  0  0  0  0  0  0  0  0  0  0  0
   -2.5100   20.1720  -32.7350 C   0  0  0  0  0  0  0  0  0  0  0  0
   -2.3750   18.9940  -34.0590 S   0  0  0  0  0  0  0  0  0  0  0  0
   -1.8970   17.7070  -33.4010 O   0  0  0  0  0  0  0  0  0  0  0  0
   -4.0370   18.6630  -34.5180 N   0  0  0  0  0  0  0  0  0  0  0  0
   -5.1400   18.7350  -33.5940 C   0  0  0  0  0  0  0  0  0  0  0  0
   -5.9560   19.8830  -33.5350 C   0  0  0  0  0  0  0  0  0  0  0  0
   -7.0230   19.9540  -32.6360 C   0  0  0  0  0  0  0  0  0  0  0  0
   -7.2940   18.8840  -31.7840 C   0  0  0  0  0  0  0  0  0  0  0  0
   -6.4970   17.7390  -31.8270 C   0  0  0  0  0  0  0  0  0  0  0  0
   -5.4240   17.6550  -32.7230 C   0  0  0  0  0  0  0  0  0  0  0  0
   -4.4420   16.1510  -32.7210 S   0  0  0  0  0  0  0  0  0  0  0  0
   -3.2010   21.3700  -32.9420 C   0  0  0  0  0  0  0  0  0  0  0  0
   -3.3110   22.3060  -31.9090 C   0  0  0  0  0  0  0  0  0  0  0  0
   -5.5598   24.6402  -32.9205 H   0  0  0  0  0  0  0  0  0  0  0  0
   -7.7050   23.4073  -33.2347 H   0  0  0  0  0  0  0  0  0  0  0  0
   -7.6757   22.2836  -29.0566 H   0  0  0  0  0  0  0  0  0  0  0  0
   -5.5347   23.5201  -28.7359 H   0  0  0  0  0  0  0  0  0  0  0  0
   -1.6161   20.6188  -29.4629 H   0  0  0  0  0  0  0  0  0  0  0  0
   -1.4036   18.9606  -31.3153 H   0  0  0  0  0  0  0  0  0  0  0  0
   -4.1930   18.3890  -35.5120 H   0  0  0  0  0  0  0  0  0  0  0  0
   -5.7504   20.7318  -34.2038 H   0  0  0  0  0  0  0  0  0  0  0  0
   -7.6510   20.8564  -32.6002 H   0  0  0  0  0  0  0  0  0  0  0  0
   -8.1357   18.9423  -31.0782 H   0  0  0  0  0  0  0  0  0  0  0  0
   -6.7131   16.8972  -31.1528 H   0  0  0  0  0  0  0  0  0  0  0  0
   -3.2630   16.8560  -33.0260 H   0  0  0  0  0  0  0  0  0  0  0  0
   -3.6594   21.5767  -33.9204 H   0  0  0  0  0  0  0  0  0  0  0  0
   -3.8664   23.2410  -32.0740 H   0  0  0  0  0  0  0  0  0  0  0  0
  1  2  2  0
  2  3  1  0
  3  4  1  0
  4  5  2  0
  5  6  1  0
  6  7  2  0
  7  8  1  0
  7  9  1  0
  9 10  2  0
  2 11  1  0
 11 12  1  0
 12 13  2  0
 13 14  1  0
 14 15  2  0
 15 16  1  0
 16 17  2  0
 16 18  1  1
 18 19  1  0
 19 20  2  0
 20 21  1  0
 21 22  2  0
 22 23  1  0
 23 24  2  0
 24 25  1  0
 15 26  1  0
 26 27  2  0
 10  4  1  0
 27 12  1  0
 24 19  1  0
  5 28  1  0
  6 29  1  0
  9 30  1  0
 10 31  1  0
 13 32  1  0
 14 33  1  0
 18 34  1  0
 20 35  1  0
 21 36  1  0
 22 37  1  0
 23 38  1  0
 25 39  1  0
 26 40  1  0
 27 41  1  0
M  CHG  2   3  -1  11  -1
M  END
>  <UniqueID>  (15) 
15

>  <SMILES>  (15) 
O=C([N-]c1ccc(Cl)cc1)[N-]c1ccc([S@@](=O)Nc2ccccc2S)cc1

>  <Energy>  (15) 
52.586094732905046

>  <Genealogy>  (15) 
O=C([N-]c1ccc(Cl)cc1)[N-]c1ccc(S(=O)Nc2ccccc2S)cc1 (protonated)
O=C([N-]c1ccc(Cl)cc1)[N-]c1ccc([S@@](=O)Nc2ccccc2S)cc1 (chirality)
O=C([N-]c1ccc(Cl)cc1)[N-]c1ccc([S@@](=O)Nc2ccccc2S)cc1 (3D coordinates assigned)
O=C([N-]c1ccc(Cl)cc1)[N-]c1ccc([S@@](=O)Nc2ccccc2S)cc1 (optimized conformer: 52.586094732905046 kcal/mol)

>  <smiles>  (15) 
O=C(Nc1ccc(Cl)cc1)Nc1ccc(S(=O)Nc2ccccc2S)cc1

>  <score_type>  (15) 
oracle

>  <origin>  (15) 
adgpu

>  <m_score__min__energy>  (15) 
-12.300000000000001

>  <m_primary>  (15) 
energy

$$$$
15:0
     RDKit          3D

 39 42  0  0  0  0  0  0  0  0999 V2000
   -8.0660   19.5580  -33.4440 N   0  0  0  0  0  0  0  0  0  0  0  0
   -7.3200   19.1110  -32.3100 C   0  0  0  0  0  0  0  0  0  0  0  0
   -7.9200   18.5540  -31.3530 O   0  0  0  0  0  0  0  0  0  0  0  0
   -5.8650   19.3570  -32.2260 C   0  0  0  0  0  0  0  0  0  0  0  0
   -5.4650   20.5050  -31.5230 C   0  0  0  0  0  0  0  0  0  0  0  0
   -4.1640   21.0000  -31.6630 C   0  0  0  0  0  0  0  0  0  0  0  0
   -3.7060   22.2240  -30.9560 C   0  0  0  0  0  0  0  0  0  0  0  0
   -4.5270   23.3650  -30.8480 C   0  0  0  0  0  0  0  0  0  0  0  0
   -4.0690   24.5080  -30.1850 C   0  0  0  0  0  0  0  0  0  0  0  0
   -2.7870   24.5300  -29.6290 C   0  0  0  0  0  0  0  0  0  0  0  0
   -2.3340   25.6660  -28.9700 O   0  0  0  0  0  0  0  0  0  0  0  0
   -1.9600   23.4100  -29.7400 C   0  0  0  0  0  0  0  0  0  0  0  0
   -2.4130   22.2660  -30.4020 C   0  0  0  0  0  0  0  0  0  0  0  0
   -3.3140   20.3750  -32.5160 N   0  0  0  0  0  0  0  0  0  0  0  0
   -3.6390   19.2270  -33.1670 C   0  0  0  0  0  0  0  0  0  0  0  0
   -4.8940   18.6110  -32.9580 C   0  0  0  0  0  0  0  0  0  0  0  0
   -5.0920   17.2110  -33.4970 C   0  0  0  0  0  0  0  0  0  0  0  0
   -6.2070   16.4060  -33.1670 C   0  0  0  0  0  0  0  0  0  0  0  0
   -6.3740   15.1390  -33.7290 C   0  0  0  0  0  0  0  0  0  0  0  0
   -5.4050   14.6160  -34.5780 C   0  0  0  0  0  0  0  0  0  0  0  0
   -4.2380   15.3340  -34.8210 C   0  0  0  0  0  0  0  0  0  0  0  0
   -4.0590   16.6140  -34.2710 C   0  0  0  0  0  0  0  0  0  0  0  0
   -2.6830   17.2230  -34.3230 C   0  0  0  0  0  0  0  0  0  0  0  0
   -2.7220   18.7420  -34.2500 C   0  0  0  0  0  0  0  0  0  0  0  0
   -7.6020   20.0820  -34.2180 H   0  0  0  0  0  0  0  0  0  0  0  0
   -9.0940   19.3800  -33.5000 H   0  0  0  0  0  0  0  0  0  0  0  0
   -6.1775   21.0171  -30.8596 H   0  0  0  0  0  0  0  0  0  0  0  0
   -5.5350   23.3562  -31.2883 H   0  0  0  0  0  0  0  0  0  0  0  0
   -4.7190   25.3914  -30.1010 H   0  0  0  0  0  0  0  0  0  0  0  0
   -0.9497   23.4286  -29.3053 H   0  0  0  0  0  0  0  0  0  0  0  0
   -1.7531   21.3904  -30.4909 H   0  0  0  0  0  0  0  0  0  0  0  0
   -6.9554   16.7847  -32.4553 H   0  0  0  0  0  0  0  0  0  0  0  0
   -7.2756   14.5522  -33.4993 H   0  0  0  0  0  0  0  0  0  0  0  0
   -5.5604   13.6376  -35.0561 H   0  0  0  0  0  0  0  0  0  0  0  0
   -3.4488   14.8953  -35.4493 H   0  0  0  0  0  0  0  0  0  0  0  0
   -2.0954   16.8428  -33.4744 H   0  0  0  0  0  0  0  0  0  0  0  0
   -2.2268   16.9434  -35.2841 H   0  0  0  0  0  0  0  0  0  0  0  0
   -1.7066   19.1145  -34.0494 H   0  0  0  0  0  0  0  0  0  0  0  0
   -3.1005   19.1197  -35.2113 H   0  0  0  0  0  0  0  0  0  0  0  0
  1  2  1  0
  2  3  2  0
  2  4  1  0
  4  5  2  0
  5  6  1  0
  6  7  1  0
  7  8  2  0
  8  9  1  0
  9 10  2  0
 10 11  1  0
 10 12  1  0
 12 13  2  0
  6 14  2  0
 14 15  1  0
 15 16  2  0
 16 17  1  0
 17 18  2  0
 18 19  1  0
 19 20  2  0
 20 21  1  0
 21 22  2  0
 22 23  1  0
 23 24  1  0
 16  4  1  0
 22 17  1  0
 13  7  1  0
 24 15  1  0
  1 25  1  0
  1 26  1  0
  5 27  1  0
  8 28  1  0
  9 29  1  0
 12 30  1  0
 13 31  1  0
 18 32  1  0
 19 33  1  0
 20 34  1  0
 21 35  1  0
 23 36  1  0
 23 37  1  0
 24 38  1  0
 24 39  1  0
M  CHG  1  11  -1
M  END
>  <UniqueID>  (16) 
16

>  <SMILES>  (16) 
NC(=O)c1cc(-c2ccc([O-])cc2)nc2c1-c1ccccc1CC2

>  <Energy>  (16) 
69.7730236064188

>  <Genealogy>  (16) 
NC(=O)c1cc(-c2ccc([O-])cc2)nc2c1-c1ccccc1CC2 (protonated)
NC(=O)c1cc(-c2ccc([O-])cc2)nc2c1-c1ccccc1CC2 (3D coordinates assigned)
NC(=O)c1cc(-c2ccc([O-])cc2)nc2c1-c1ccccc1CC2 (nonaromatic ring conformer: 69.7730236064188 kcal/mol)

>  <smiles>  (16) 
NC(=O)c1cc(-c2ccc(O)cc2)nc2c1-c1ccccc1CC2

>  <score_type>  (16) 
oracle

>  <origin>  (16) 
adgpu

>  <m_score__min__energy>  (16) 
-10.359999999999999

>  <m_primary>  (16) 
energy

$$$$
16:0
     RDKit          3D

 55 57  0  0  0  0  0  0  0  0999 V2000
   -2.7140   18.8870  -33.1760 C   0  0  0  0  0  0  0  0  0  0  0  0
   -3.5290   17.6680  -33.6090 C   0  0  0  0  0  0  0  0  0  0  0  0
   -2.7390   16.3780  -33.3320 C   0  0  0  0  0  0  0  0  0  0  0  0
   -3.8630   17.8050  -35.0430 N   0  0  0  0  0  0  0  0  0  0  0  0
   -5.3100   17.8750  -35.3060 C   0  0  0  0  0  0  0  0  0  0  0  0
   -6.0930   18.2570  -34.0740 C   0  0  0  0  0  0  0  0  0  0  0  0
   -6.9030   17.3120  -33.4270 C   0  0  0  0  0  0  0  0  0  0  0  0
   -7.6410   17.6740  -32.2990 C   0  0  0  0  0  0  0  0  0  0  0  0
   -7.5790   18.9800  -31.8070 C   0  0  0  0  0  0  0  0  0  0  0  0
   -6.7780   19.9460  -32.4450 C   0  0  0  0  0  0  0  0  0  0  0  0
   -6.7110   21.3380  -31.9230 C   0  0  0  0  0  0  0  0  0  0  0  0
   -7.8700   22.1320  -31.8480 C   0  0  0  0  0  0  0  0  0  0  0  0
   -7.8050   23.4310  -31.3370 C   0  0  0  0  0  0  0  0  0  0  0  0
   -6.5870   23.9550  -30.8980 C   0  0  0  0  0  0  0  0  0  0  0  0
   -5.4200   23.1850  -30.9770 C   0  0  0  0  0  0  0  0  0  0  0  0
   -3.8830   23.8380  -30.4080 S   0  0  0  0  0  0  0  0  0  0  0  0
   -3.8700   25.3260  -30.6210 O   0  0  0  0  0  0  0  0  0  0  0  0
   -2.7370   23.2500  -31.1850 O   0  0  0  0  0  0  0  0  0  0  0  0
   -3.7070   23.5280  -28.7090 N   0  0  0  0  0  0  0  0  0  0  0  0
   -2.8720   22.5230  -28.1100 C   0  0  0  0  0  0  0  0  0  0  0  0
   -3.2910   21.1820  -28.0120 C   0  0  0  0  0  0  0  0  0  0  0  0
   -2.4590   20.2200  -27.4350 C   0  0  0  0  0  0  0  0  0  0  0  0
   -1.1940   20.5800  -26.9640 C   0  0  0  0  0  0  0  0  0  0  0  0
   -0.7590   21.9040  -27.0680 C   0  0  0  0  0  0  0  0  0  0  0  0
   -1.5890   22.8830  -27.6370 C   0  0  0  0  0  0  0  0  0  0  0  0
   -1.0260   24.5550  -27.7390 S   0  0  0  0  0  0  0  0  0  0  0  0
   -1.8920   25.4150  -28.9680 N   0  0  0  0  0  0  0  0  0  0  0  0
    0.4390   24.5730  -28.0790 O   0  0  0  0  0  0  0  0  0  0  0  0
   -1.2420   25.2370  -26.4180 O   0  0  0  0  0  0  0  0  0  0  0  0
   -5.4860   21.8810  -31.4880 C   0  0  0  0  0  0  0  0  0  0  0  0
   -6.0380   19.5710  -33.5830 C   0  0  0  0  0  0  0  0  0  0  0  0
   -2.6818   18.9352  -32.0775 H   0  0  0  0  0  0  0  0  0  0  0  0
   -1.6903   18.8022  -33.5695 H   0  0  0  0  0  0  0  0  0  0  0  0
   -3.1836   19.8006  -33.5695 H   0  0  0  0  0  0  0  0  0  0  0  0
   -4.4639   17.6098  -33.0323 H   0  0  0  0  0  0  0  0  0  0  0  0
   -2.6482   16.2297  -32.2458 H   0  0  0  0  0  0  0  0  0  0  0  0
   -3.2678   15.5217  -33.7760 H   0  0  0  0  0  0  0  0  0  0  0  0
   -1.7359   16.4598  -33.7760 H   0  0  0  0  0  0  0  0  0  0  0  0
   -3.4280   17.0450  -35.6210 H   0  0  0  0  0  0  0  0  0  0  0  0
   -5.4923   18.6257  -36.0890 H   0  0  0  0  0  0  0  0  0  0  0  0
   -5.6451   16.8768  -35.6243 H   0  0  0  0  0  0  0  0  0  0  0  0
   -6.9567   16.2822  -33.8099 H   0  0  0  0  0  0  0  0  0  0  0  0
   -8.2738   16.9282  -31.7956 H   0  0  0  0  0  0  0  0  0  0  0  0
   -8.1602   19.2555  -30.9147 H   0  0  0  0  0  0  0  0  0  0  0  0
   -8.8329   21.7279  -32.1936 H   0  0  0  0  0  0  0  0  0  0  0  0
   -8.7170   24.0435  -31.2803 H   0  0  0  0  0  0  0  0  0  0  0  0
   -6.5443   24.9753  -30.4891 H   0  0  0  0  0  0  0  0  0  0  0  0
   -4.2809   20.8901  -28.3927 H   0  0  0  0  0  0  0  0  0  0  0  0
   -2.8002   19.1776  -27.3513 H   0  0  0  0  0  0  0  0  0  0  0  0
   -0.5398   19.8206  -26.5109 H   0  0  0  0  0  0  0  0  0  0  0  0
    0.2405   22.1810  -26.7016 H   0  0  0  0  0  0  0  0  0  0  0  0
   -1.9210   24.7990  -29.8130 H   0  0  0  0  0  0  0  0  0  0  0  0
   -2.8790   25.5140  -28.6340 H   0  0  0  0  0  0  0  0  0  0  0  0
   -4.5703   21.2747  -31.5500 H   0  0  0  0  0  0  0  0  0  0  0  0
   -5.4098   20.3162  -34.0929 H   0  0  0  0  0  0  0  0  0  0  0  0
  1  2  1  0
  2  3  1  0
  2  4  1  0
  4  5  1  0
  5  6  1  0
  6  7  2  0
  7  8  1  0
  8  9  2  0
  9 10  1  0
 10 11  1  0
 11 12  2  0
 12 13  1  0
 13 14  2  0
 14 15  1  0
 15 16  1  0
 16 17  2  0
 16 18  2  0
 16 19  1  0
 19 20  1  0
 20 21  2  0
 21 22  1  0
 22 23  2  0
 23 24  1  0
 24 25  2  0
 25 26  1  0
 26 27  1  0
 26 28  2  0
 26 29  2  0
 15 30  2  0
 10 31  2  0
 31  6  1  0
 30 11  1  0
 25 20  1  0
  1 32  1  0
  1 33  1  0
  1 34  1  0
  2 35  1  0
  3 36  1  0
  3 37  1  0
  3 38  1  0
  4 39  1  0
  5 40  1  0
  5 41  1  0
  7 42  1  0
  8 43  1  0
  9 44  1  0
 12 45  1  0
 13 46  1  0
 14 47  1  0
 21 48  1  0
 22 49  1  0
 23 50  1  0
 24 51  1  0
 27 52  1  0
 27 53  1  0
 30 54  1  0
 31 55  1  0
M  CHG  1  19  -1
M  END
>  <UniqueID>  (17) 
17

>  <SMILES>  (17) 
CC(C)NCc1cccc(-c2cccc(S(=O)(=O)[N-]c3ccccc3S(N)(=O)=O)c2)c1

>  <Energy>  (17) 
64.12140844831166

>  <Genealogy>  (17) 
CC(C)NCc1cccc(-c2cccc(S(=O)(=O)[N-]c3ccccc3S(N)(=O)=O)c2)c1 (protonated)
CC(C)NCc1cccc(-c2cccc(S(=O)(=O)[N-]c3ccccc3S(N)(=O)=O)c2)c1 (3D coordinates assigned)
CC(C)NCc1cccc(-c2cccc(S(=O)(=O)[N-]c3ccccc3S(N)(=O)=O)c2)c1 (optimized conformer: 64.12140844831166 kcal/mol)

>  <smiles>  (17) 
CC(C)NCc1cccc(-c2cccc(S(=O)(=O)Nc3ccccc3S(N)(=O)=O)c2)c1

>  <score_type>  (17) 
oracle

>  <origin>  (17) 
adgpu

>  <m_score__min__energy>  (17) 
-11.06

>  <m_primary>  (17) 
energy

$$$$
17:0
     RDKit          3D

 39 41  0  0  0  0  0  0  0  0999 V2000
   -2.8070   23.7400  -28.2600 C   0  0  0  0  0  0  0  0  0  0  0  0
   -2.6130   24.9130  -29.1720 C   0  0  0  0  0  0  0  0  0  0  0  0
   -1.6160   25.6610  -28.9990 O   0  0  0  0  0  0  0  0  0  0  0  0
   -3.5060   25.1890  -30.2600 N   0  0  0  0  0  0  0  0  0  0  0  0
   -4.5510   24.3350  -30.7460 C   0  0  0  0  0  0  0  0  0  0  0  0
   -5.8740   24.7910  -30.8830 C   0  0  0  0  0  0  0  0  0  0  0  0
   -6.8640   23.9400  -31.3800 C   0  0  0  0  0  0  0  0  0  0  0  0
   -6.5390   22.6360  -31.7640 C   0  0  0  0  0  0  0  0  0  0  0  0
   -5.2180   22.1840  -31.6680 C   0  0  0  0  0  0  0  0  0  0  0  0
   -4.8070   20.5390  -32.1390 S   0  0  0  0  0  0  0  0  0  0  0  0
   -4.7610   19.6530  -30.9250 O   0  0  0  0  0  0  0  0  0  0  0  0
   -5.8540   19.9990  -33.0720 O   0  0  0  0  0  0  0  0  0  0  0  0
   -3.2380   20.5470  -32.9330 C   0  0  0  0  0  0  0  0  0  0  0  0
   -2.9280   19.5760  -33.8920 C   0  0  0  0  0  0  0  0  0  0  0  0
   -1.6890   19.5940  -34.5390 C   0  0  0  0  0  0  0  0  0  0  0  0
   -0.7500   20.6010  -34.2480 C   0  0  0  0  0  0  0  0  0  0  0  0
    0.5400   20.6320  -34.8840 N   0  0  0  0  0  0  0  0  0  0  0  0
    1.0940   21.7940  -35.5240 C   0  0  0  0  0  0  0  0  0  0  0  0
    0.5710   22.9280  -35.3550 O   0  0  0  0  0  0  0  0  0  0  0  0
    2.3020   21.6790  -36.3520 C   0  0  0  0  0  0  0  0  0  0  0  0
    3.1570   22.6870  -36.5980 N   0  0  0  0  0  0  0  0  0  0  0  0
    4.0900   22.1540  -37.3690 N   0  0  0  0  0  0  0  0  0  0  0  0
    3.8170   20.8760  -37.5840 N   0  0  0  0  0  0  0  0  0  0  0  0
    2.7000   20.5460  -36.9580 N   0  0  0  0  0  0  0  0  0  0  0  0
   -1.0600   21.5630  -33.2760 C   0  0  0  0  0  0  0  0  0  0  0  0
   -2.3000   21.5430  -32.6290 C   0  0  0  0  0  0  0  0  0  0  0  0
   -4.2270   23.0370  -31.1610 C   0  0  0  0  0  0  0  0  0  0  0  0
   -2.7515   24.0757  -27.2140 H   0  0  0  0  0  0  0  0  0  0  0  0
   -3.7921   23.2881  -28.4483 H   0  0  0  0  0  0  0  0  0  0  0  0
   -2.0199   22.9950  -28.4483 H   0  0  0  0  0  0  0  0  0  0  0  0
   -6.1304   25.8219  -30.5977 H   0  0  0  0  0  0  0  0  0  0  0  0
   -7.9008   24.2966  -31.4693 H   0  0  0  0  0  0  0  0  0  0  0  0
   -7.3231   21.9637  -32.1424 H   0  0  0  0  0  0  0  0  0  0  0  0
   -3.6627   18.7951  -34.1378 H   0  0  0  0  0  0  0  0  0  0  0  0
   -1.4468   18.8172  -35.2792 H   0  0  0  0  0  0  0  0  0  0  0  0
    1.1460   19.7850  -34.7960 H   0  0  0  0  0  0  0  0  0  0  0  0
   -0.3230   22.3386  -33.0206 H   0  0  0  0  0  0  0  0  0  0  0  0
   -2.5397   22.3114  -31.8793 H   0  0  0  0  0  0  0  0  0  0  0  0
   -3.1876   22.6841  -31.0887 H   0  0  0  0  0  0  0  0  0  0  0  0
  1  2  1  0
  2  3  2  0
  2  4  1  0
  4  5  1  0
  5  6  2  0
  6  7  1  0
  7  8  2  0
  8  9  1  0
  9 10  1  0
 10 11  2  0
 10 12  2  0
 10 13  1  0
 13 14  2  0
 14 15  1  0
 15 16  2  0
 16 17  1  0
 17 18  1  0
 18 19  2  0
 18 20  1  0
 20 21  1  0
 21 22  2  0
 22 23  1  0
 23 24  1  0
 16 25  1  0
 25 26  2  0
  9 27  2  0
 27  5  1  0
 26 13  1  0
 24 20  2  0
  1 28  1  0
  1 29  1  0
  1 30  1  0
  6 31  1  0
  7 32  1  0
  8 33  1  0
 14 34  1  0
 15 35  1  0
 17 36  1  0
 25 37  1  0
 26 38  1  0
 27 39  1  0
M  CHG  2   4  -1  23  -1
M  END
>  <UniqueID>  (18) 
18

>  <SMILES>  (18) 
CC(=O)[N-]c1cccc(S(=O)(=O)c2ccc(NC(=O)c3nn[n-]n3)cc2)c1

>  <Energy>  (18) 
87.16189532040217

>  <Genealogy>  (18) 
CC(=O)[N-]c1cccc(S(=O)(=O)c2ccc(NC(=O)c3nn[n-]n3)cc2)c1 (protonated)
CC(=O)[N-]c1cccc(S(=O)(=O)c2ccc(NC(=O)c3nn[n-]n3)cc2)c1 (3D coordinates assigned)
CC(=O)[N-]c1cccc(S(=O)(=O)c2ccc(NC(=O)c3nn[n-]n3)cc2)c1 (optimized conformer: 87.16189532040217 kcal/mol)

>  <smiles>  (18) 
CC(=O)Nc1cccc(S(=O)(=O)c2ccc(NC(=O)c3nn[nH]n3)cc2)c1

>  <score_type>  (18) 
oracle

>  <origin>  (18) 
adgpu

>  <m_score__min__energy>  (18) 
-11.130000000000001

>  <m_primary>  (18) 
energy

$$$$
18:0
     RDKit          3D

 49 52  0  0  0  0  0  0  0  0999 V2000
   -3.8740   25.3500  -30.4060 N   0  0  0  0  0  0  0  0  0  0  0  0
   -4.0350   23.9930  -30.8210 C   0  0  0  0  0  0  0  0  0  0  0  0
   -5.2030   23.5000  -31.2850 N   0  0  0  0  0  0  0  0  0  0  0  0
   -5.0230   22.2050  -31.5220 N   0  0  0  0  0  0  0  0  0  0  0  0
   -6.0680   21.3300  -31.9820 C   0  0  0  0  0  0  0  0  0  0  0  0
   -5.8230   20.3690  -32.9780 C   0  0  0  0  0  0  0  0  0  0  0  0
   -6.8460   19.5160  -33.4020 C   0  0  0  0  0  0  0  0  0  0  0  0
   -8.1200   19.6160  -32.8420 C   0  0  0  0  0  0  0  0  0  0  0  0
   -8.3820   20.5840  -31.8710 C   0  0  0  0  0  0  0  0  0  0  0  0
   -7.3650   21.4430  -31.4460 C   0  0  0  0  0  0  0  0  0  0  0  0
   -3.7560   21.8720  -31.1910 C   0  0  0  0  0  0  0  0  0  0  0  0
   -3.2790   20.7060  -31.2730 O   0  0  0  0  0  0  0  0  0  0  0  0
   -3.0830   22.9880  -30.7300 C   0  0  0  0  0  0  0  0  0  0  0  0
   -1.7080   23.0760  -30.1980 C   0  0  0  0  0  0  0  0  0  0  0  0
   -1.3120   24.1620  -29.7040 O   0  0  0  0  0  0  0  0  0  0  0  0
   -0.8030   21.9190  -30.1950 C   0  0  0  0  0  0  0  0  0  0  0  0
   -0.5320   21.3300  -31.2720 O   0  0  0  0  0  0  0  0  0  0  0  0
   -0.2270   21.4690  -28.9620 N   0  0  0  0  0  0  0  0  0  0  0  0
   -0.7840   20.4730  -28.0900 C   0  0  0  0  0  0  0  0  0  0  0  0
   -0.3550   19.1330  -28.1380 C   0  0  0  0  0  0  0  0  0  0  0  0
   -0.9290   18.1770  -27.2960 C   0  0  0  0  0  0  0  0  0  0  0  0
   -1.9440   18.5420  -26.4110 C   0  0  0  0  0  0  0  0  0  0  0  0
   -2.3960   19.8620  -26.3730 C   0  0  0  0  0  0  0  0  0  0  0  0
   -1.8280   20.8290  -27.2170 C   0  0  0  0  0  0  0  0  0  0  0  0
   -2.3010   22.1830  -27.1680 N   0  0  0  0  0  0  0  0  0  0  0  0
   -3.5960   22.4810  -27.7830 C   0  0  0  0  0  0  0  0  0  0  0  0
   -4.0870   23.8760  -27.3570 C   0  0  0  0  0  0  0  0  0  0  0  0
   -3.0650   24.8470  -27.4960 O   0  0  0  0  0  0  0  0  0  0  0  0
   -2.0200   24.5530  -26.5930 C   0  0  0  0  0  0  0  0  0  0  0  0
   -1.3200   23.2530  -26.9920 C   0  0  0  0  0  0  0  0  0  0  0  0
   -4.3160   26.1350  -30.9300 H   0  0  0  0  0  0  0  0  0  0  0  0
   -3.2960   25.5740  -29.5640 H   0  0  0  0  0  0  0  0  0  0  0  0
   -4.8216   20.2878  -33.4259 H   0  0  0  0  0  0  0  0  0  0  0  0
   -6.6461   18.7638  -34.1793 H   0  0  0  0  0  0  0  0  0  0  0  0
   -8.9182   18.9318  -33.1658 H   0  0  0  0  0  0  0  0  0  0  0  0
   -9.3903   20.6707  -31.4398 H   0  0  0  0  0  0  0  0  0  0  0  0
   -7.5789   22.2115  -30.6887 H   0  0  0  0  0  0  0  0  0  0  0  0
    0.4364   18.8370  -28.8423 H   0  0  0  0  0  0  0  0  0  0  0  0
   -0.5799   17.1344  -27.3309 H   0  0  0  0  0  0  0  0  0  0  0  0
   -2.3881   17.7893  -25.7430 H   0  0  0  0  0  0  0  0  0  0  0  0
   -3.2007   20.1456  -25.6787 H   0  0  0  0  0  0  0  0  0  0  0  0
   -3.4919   22.4526  -28.8777 H   0  0  0  0  0  0  0  0  0  0  0  0
   -4.3282   21.7298  -27.4520 H   0  0  0  0  0  0  0  0  0  0  0  0
   -4.9416   24.1628  -27.9874 H   0  0  0  0  0  0  0  0  0  0  0  0
   -4.3814   23.8316  -26.2981 H   0  0  0  0  0  0  0  0  0  0  0  0
   -1.2899   25.3757  -26.6034 H   0  0  0  0  0  0  0  0  0  0  0  0
   -2.4428   24.4354  -25.5843 H   0  0  0  0  0  0  0  0  0  0  0  0
   -0.7780   23.4076  -27.9366 H   0  0  0  0  0  0  0  0  0  0  0  0
   -0.6160   22.9665  -26.1968 H   0  0  0  0  0  0  0  0  0  0  0  0
  1  2  1  0
  2  3  1  0
  3  4  1  0
  4  5  1  0
  5  6  2  0
  6  7  1  0
  7  8  2  0
  8  9  1  0
  9 10  2  0
  4 11  1  0
 11 12  2  0
 11 13  1  0
 13 14  1  0
 14 15  2  0
 14 16  1  0
 16 17  2  0
 16 18  1  0
 18 19  1  0
 19 20  2  0
 20 21  1  0
 21 22  2  0
 22 23  1  0
 23 24  2  0
 24 25  1  0
 25 26  1  0
 26 27  1  0
 27 28  1  0
 28 29  1  0
 29 30  1  0
 13  2  2  0
 24 19  1  0
 30 25  1  0
 10  5  1  0
  1 31  1  0
  1 32  1  0
  6 33  1  0
  7 34  1  0
  8 35  1  0
  9 36  1  0
 10 37  1  0
 20 38  1  0
 21 39  1  0
 22 40  1  0
 23 41  1  0
 26 42  1  0
 26 43  1  0
 27 44  1  0
 27 45  1  0
 29 46  1  0
 29 47  1  0
 30 48  1  0
 30 49  1  0
M  CHG  2   3  -1  18  -1
M  END
>  <UniqueID>  (19) 
19

>  <SMILES>  (19) 
Nc1[n-]n(-c2ccccc2)c(=O)c1C(=O)C(=O)[N-]c1ccccc1N1CCOCC1

>  <Energy>  (19) 
103.43202861541809

>  <Genealogy>  (19) 
Nc1[n-]n(-c2ccccc2)c(=O)c1C(=O)C(=O)[N-]c1ccccc1N1CCOCC1 (protonated)
Nc1[n-]n(-c2ccccc2)c(=O)c1C(=O)C(=O)[N-]c1ccccc1N1CCOCC1 (3D coordinates assigned)
Nc1[n-]n(-c2ccccc2)c(=O)c1C(=O)C(=O)[N-]c1ccccc1N1CCOCC1 (nonaromatic ring conformer: 103.43202861541809 kcal/mol)

>  <smiles>  (19) 
Nc1[nH]n(-c2ccccc2)c(=O)c1C(=O)C(=O)Nc1ccccc1N1CCOCC1

>  <score_type>  (19) 
oracle

>  <origin>  (19) 
adgpu

>  <m_score__min__energy>  (19) 
-11.199999999999999

>  <m_primary>  (19) 
energy

$$$$
19:0
     RDKit          3D

 33 35  0  0  1  0  0  0  0  0999 V2000
   -0.8360   25.4120  -28.0570 C   0  0  0  0  0  0  0  0  0  0  0  0
   -1.9640   25.2970  -28.9740 N   0  0  0  0  0  0  0  0  0  0  0  0
   -2.6850   24.2380  -29.0390 C   0  0  0  0  0  0  0  0  0  0  0  0
   -2.4220   23.1790  -28.2510 N   0  0  0  0  0  0  0  0  0  0  0  0
   -3.2000   22.0700  -28.3380 C   0  0  0  0  0  0  0  0  0  0  0  0
   -4.2440   22.0040  -29.2080 N   0  0  0  0  0  0  0  0  0  0  0  0
   -4.5300   23.0460  -30.0090 C   0  0  0  0  0  0  0  0  0  0  0  0
   -3.7430   24.1780  -29.9250 C   0  0  0  0  0  0  0  0  0  0  0  0
   -4.2250   25.0670  -30.8140 N   0  0  0  0  0  0  0  0  0  0  0  0
   -5.2630   24.5130  -31.4210 N   0  0  0  0  0  0  0  0  0  0  0  0
   -5.4710   23.2920  -30.9550 N   0  0  0  0  0  0  0  0  0  0  0  0
   -6.4970   22.3920  -31.3680 C   0  0  0  0  0  0  0  0  0  0  0  0
   -7.8050   22.5580  -31.0100 C   0  0  0  0  0  0  0  0  0  0  0  0
   -8.7580   21.6340  -31.4530 C   0  0  0  0  0  0  0  0  0  0  0  0
   -8.3750   20.5580  -32.2480 C   0  0  0  0  0  0  0  0  0  0  0  0
   -9.4030   19.5750  -32.7160 C   0  0  0  0  0  0  0  0  0  0  0  0
   -7.0580   20.3840  -32.6130 C   0  0  0  0  0  0  0  0  0  0  0  0
   -6.6020   19.2550  -33.4580 C   0  0  0  0  0  0  0  0  0  0  0  0
   -6.1480   21.3160  -32.1570 C   0  0  0  0  0  0  0  0  0  0  0  0
   -1.2012   25.3748  -27.0201 H   0  0  0  0  0  0  0  0  0  0  0  0
   -0.1369   24.5805  -28.2296 H   0  0  0  0  0  0  0  0  0  0  0  0
   -0.3191   26.3675  -28.2296 H   0  0  0  0  0  0  0  0  0  0  0  0
   -1.6120   23.2260  -27.5740 H   0  0  0  0  0  0  0  0  0  0  0  0
   -2.9819   21.2069  -27.6918 H   0  0  0  0  0  0  0  0  0  0  0  0
   -8.1056   23.4085  -30.3805 H   0  0  0  0  0  0  0  0  0  0  0  0
   -9.8141   21.7587  -31.1717 H   0  0  0  0  0  0  0  0  0  0  0  0
   -9.8890   19.1103  -31.8455 H   0  0  0  0  0  0  0  0  0  0  0  0
  -10.1583   20.0954  -33.3232 H   0  0  0  0  0  0  0  0  0  0  0  0
   -8.9169   18.7972  -33.3232 H   0  0  0  0  0  0  0  0  0  0  0  0
   -6.2677   18.4274  -32.8150 H   0  0  0  0  0  0  0  0  0  0  0  0
   -7.4327   18.9135  -34.0931 H   0  0  0  0  0  0  0  0  0  0  0  0
   -5.7671   19.5862  -34.0931 H   0  0  0  0  0  0  0  0  0  0  0  0
   -5.0912   21.1945  -32.4369 H   0  0  0  0  0  0  0  0  0  0  0  0
  1  2  1  0
  2  3  2  0
  3  4  1  0
  4  5  1  0
  5  6  2  0
  6  7  1  0
  7  8  2  0
  8  9  1  0
  9 10  2  0
 10 11  1  0
 11 12  1  0
 12 13  2  0
 13 14  1  0
 14 15  2  0
 15 16  1  0
 15 17  1  0
 17 18  1  0
 17 19  2  0
  8  3  1  0
 19 12  1  0
 11  7  1  0
  1 20  1  0
  1 21  1  0
  1 22  1  0
  4 23  1  0
  5 24  1  0
 13 25  1  0
 14 26  1  0
 16 27  1  0
 16 28  1  0
 16 29  1  0
 18 30  1  0
 18 31  1  0
 18 32  1  0
 19 33  1  0
M  END
>  <smiles>  (20) 
CN=c1[nH]cnc2c1nnn2-c1ccc(C)c(C)c1

>  <score_type>  (20) 
oracle

>  <origin>  (20) 
adgpu

>  <m_score__min__energy>  (20) 
-8.1999999999999993

>  <m_primary>  (20) 
energy

$$$$
20:0
     RDKit          3D

 46 48  0  0  0  0  0  0  0  0999 V2000
    0.4490   26.8620  -23.4230 C   0  0  0  0  0  0  0  0  0  0  0  0
   -0.8000   26.9990  -24.0910 O   0  0  0  0  0  0  0  0  0  0  0  0
   -1.0430   26.5750  -25.4050 C   0  0  0  0  0  0  0  0  0  0  0  0
   -2.0620   25.6420  -25.6260 C   0  0  0  0  0  0  0  0  0  0  0  0
   -2.3550   25.2040  -26.9210 C   0  0  0  0  0  0  0  0  0  0  0  0
   -1.6350   25.6950  -28.0170 C   0  0  0  0  0  0  0  0  0  0  0  0
   -2.0150   25.2710  -29.3340 N   0  0  0  0  0  0  0  0  0  0  0  0
   -3.3880   24.2870  -29.7140 S   0  0  0  0  0  0  0  0  0  0  0  0
   -3.4880   24.1230  -31.2040 O   0  0  0  0  0  0  0  0  0  0  0  0
   -4.6500   24.9230  -29.2060 O   0  0  0  0  0  0  0  0  0  0  0  0
   -3.1810   22.7040  -28.9720 C   0  0  0  0  0  0  0  0  0  0  0  0
   -3.8290   22.2880  -27.4780 S   0  0  0  0  0  0  0  0  0  0  0  0
   -3.2960   20.6950  -27.4710 C   0  0  0  0  0  0  0  0  0  0  0  0
   -2.6060   20.4620  -28.6540 C   0  0  0  0  0  0  0  0  0  0  0  0
   -2.5420   21.5780  -29.5020 C   0  0  0  0  0  0  0  0  0  0  0  0
   -1.7230   21.5250  -31.0620 S   0  0  0  0  0  0  0  0  0  0  0  0
   -0.6390   22.5650  -31.0610 O   0  0  0  0  0  0  0  0  0  0  0  0
   -1.0890   20.1770  -31.2560 O   0  0  0  0  0  0  0  0  0  0  0  0
   -2.8990   21.7680  -32.3230 N   0  0  0  0  0  0  0  0  0  0  0  0
   -4.2700   21.3460  -32.3860 C   0  0  0  0  0  0  0  0  0  0  0  0
   -4.5520   20.1590  -33.0640 C   0  0  0  0  0  0  0  0  0  0  0  0
   -5.8490   19.6510  -33.1020 C   0  0  0  0  0  0  0  0  0  0  0  0
   -6.9010   20.3260  -32.4650 C   0  0  0  0  0  0  0  0  0  0  0  0
   -8.2670   19.6920  -32.4540 C   0  0  0  0  0  0  0  0  0  0  0  0
   -6.6470   21.5760  -31.8450 C   0  0  0  0  0  0  0  0  0  0  0  0
   -7.6990   22.3540  -31.2390 N   0  0  0  0  0  0  0  0  0  0  0  0
   -8.5040   22.9980  -31.9420 O   0  0  0  0  0  0  0  0  0  0  0  0
   -7.7390   22.5170  -29.8720 O   0  0  0  0  0  0  0  0  0  0  0  0
   -5.3280   22.0700  -31.8100 C   0  0  0  0  0  0  0  0  0  0  0  0
   -0.5910   26.6110  -27.7970 C   0  0  0  0  0  0  0  0  0  0  0  0
   -0.3030   27.0530  -26.5030 C   0  0  0  0  0  0  0  0  0  0  0  0
    0.2869   26.8798  -22.3352 H   0  0  0  0  0  0  0  0  0  0  0  0
    0.9149   25.9074  -23.7087 H   0  0  0  0  0  0  0  0  0  0  0  0
    1.1107   27.6929  -23.7087 H   0  0  0  0  0  0  0  0  0  0  0  0
   -2.6371   25.2500  -24.7742 H   0  0  0  0  0  0  0  0  0  0  0  0
   -3.1571   24.4682  -27.0801 H   0  0  0  0  0  0  0  0  0  0  0  0
   -3.4644   19.9624  -26.6679 H   0  0  0  0  0  0  0  0  0  0  0  0
   -2.1516   19.4917  -28.9030 H   0  0  0  0  0  0  0  0  0  0  0  0
   -3.7411   19.6184  -33.5741 H   0  0  0  0  0  0  0  0  0  0  0  0
   -6.0500   18.7111  -33.6369 H   0  0  0  0  0  0  0  0  0  0  0  0
   -8.5927   19.5408  -31.4143 H   0  0  0  0  0  0  0  0  0  0  0  0
   -8.9811   20.3507  -32.9699 H   0  0  0  0  0  0  0  0  0  0  0  0
   -8.2249   18.7214  -32.9699 H   0  0  0  0  0  0  0  0  0  0  0  0
   -5.1234   23.0359  -31.3251 H   0  0  0  0  0  0  0  0  0  0  0  0
    0.0013   26.9811  -28.6468 H   0  0  0  0  0  0  0  0  0  0  0  0
    0.5072   27.7792  -26.3413 H   0  0  0  0  0  0  0  0  0  0  0  0
  1  2  1  0
  2  3  1  0
  3  4  2  0
  4  5  1  0
  5  6  2  0
  6  7  1  0
  7  8  1  0
  8  9  2  0
  8 10  2  0
  8 11  1  0
 11 12  1  0
 12 13  1  0
 13 14  2  0
 14 15  1  0
 15 16  1  0
 16 17  2  0
 16 18  2  0
 16 19  1  0
 19 20  1  0
 20 21  2  0
 21 22  1  0
 22 23  2  0
 23 24  1  0
 23 25  1  0
 25 26  1  0
 26 27  2  0
 26 28  1  0
 25 29  2  0
  6 30  1  0
 30 31  2  0
 31  3  1  0
 15 11  2  0
 29 20  1  0
  1 32  1  0
  1 33  1  0
  1 34  1  0
  4 35  1  0
  5 36  1  0
 13 37  1  0
 14 38  1  0
 21 39  1  0
 22 40  1  0
 24 41  1  0
 24 42  1  0
 24 43  1  0
 29 44  1  0
 30 45  1  0
 31 46  1  0
M  CHG  4   7  -1  19  -1  26   1  28  -1
M  END
>  <UniqueID>  (21) 
20

>  <SMILES>  (21) 
COc1ccc([N-]S(=O)(=O)c2sccc2S(=O)(=O)[N-]c2ccc(C)c([N+](=O)[O-])c2)cc1

>  <Energy>  (21) 
84.99604494143753

>  <Genealogy>  (21) 
COc1ccc([N-]S(=O)(=O)c2sccc2S(=O)(=O)[N-]c2ccc(C)c([N+](=O)[O-])c2)cc1 (protonated)
COc1ccc([N-]S(=O)(=O)c2sccc2S(=O)(=O)[N-]c2ccc(C)c([N+](=O)[O-])c2)cc1 (3D coordinates assigned)
COc1ccc([N-]S(=O)(=O)c2sccc2S(=O)(=O)[N-]c2ccc(C)c([N+](=O)[O-])c2)cc1 (optimized conformer: 84.99604494143753 kcal/mol)

>  <smiles>  (21) 
COc1ccc(NS(=O)(=O)c2sccc2S(=O)(=O)Nc2ccc(C)c([N+](=O)[O-])c2)cc1

>  <score_type>  (21) 
oracle

>  <origin>  (21) 
adgpu

>  <m_score__min__energy>  (21) 
-11.07

>  <m_primary>  (21) 
energy

$$$$
21:0
     RDKit          3D

 31 32  0  0  0  0  0  0  0  0999 V2000
   -2.1640   25.2680  -29.2850 N   0  0  0  0  0  0  0  0  0  0  0  0
   -3.1890   24.8090  -29.9250 C   0  0  0  0  0  0  0  0  0  0  0  0
   -4.2440   25.6190  -30.2030 N   0  0  0  0  0  0  0  0  0  0  0  0
   -5.3300   25.1520  -30.8700 C   0  0  0  0  0  0  0  0  0  0  0  0
   -5.3810   23.8110  -31.2780 C   0  0  0  0  0  0  0  0  0  0  0  0
   -6.5030   23.2890  -32.0120 N   0  0  0  0  0  0  0  0  0  0  0  0
   -7.6220   22.6290  -31.3990 C   0  0  0  0  0  0  0  0  0  0  0  0
   -7.6360   22.4000  -30.1590 O   0  0  0  0  0  0  0  0  0  0  0  0
   -8.7470   22.1150  -32.2510 C   0  0  0  0  0  0  0  0  0  0  0  0
   -9.0950   20.6600  -31.9100 C   0  0  0  0  0  0  0  0  0  0  0  0
   -8.0580   19.6990  -32.4370 C   0  0  0  0  0  0  0  0  0  0  0  0
   -8.0020   18.3800  -31.9540 C   0  0  0  0  0  0  0  0  0  0  0  0
   -7.0070   17.5070  -32.4060 C   0  0  0  0  0  0  0  0  0  0  0  0
   -6.0610   17.9440  -33.3360 C   0  0  0  0  0  0  0  0  0  0  0  0
   -6.1070   19.2560  -33.8160 C   0  0  0  0  0  0  0  0  0  0  0  0
   -7.0990   20.1330  -33.3670 C   0  0  0  0  0  0  0  0  0  0  0  0
   -4.2720   22.9990  -30.9980 C   0  0  0  0  0  0  0  0  0  0  0  0
   -4.2550   21.7910  -31.3550 O   0  0  0  0  0  0  0  0  0  0  0  0
   -3.2080   23.5110  -30.3260 N   0  0  0  0  0  0  0  0  0  0  0  0
   -2.1190   26.2620  -28.9660 H   0  0  0  0  0  0  0  0  0  0  0  0
   -6.1709   25.8259  -31.0908 H   0  0  0  0  0  0  0  0  0  0  0  0
   -6.4480   23.2840  -33.0560 H   0  0  0  0  0  0  0  0  0  0  0  0
   -9.6352   22.7425  -32.0859 H   0  0  0  0  0  0  0  0  0  0  0  0
   -8.4277   22.1548  -33.3029 H   0  0  0  0  0  0  0  0  0  0  0  0
   -9.1552   20.5549  -30.8167 H   0  0  0  0  0  0  0  0  0  0  0  0
  -10.0580   20.4182  -32.3834 H   0  0  0  0  0  0  0  0  0  0  0  0
   -8.7428   18.0334  -31.2184 H   0  0  0  0  0  0  0  0  0  0  0  0
   -6.9695   16.4745  -32.0284 H   0  0  0  0  0  0  0  0  0  0  0  0
   -5.2797   17.2557  -33.6907 H   0  0  0  0  0  0  0  0  0  0  0  0
   -5.3614   19.5991  -34.5483 H   0  0  0  0  0  0  0  0  0  0  0  0
   -7.1285   21.1662  -33.7433 H   0  0  0  0  0  0  0  0  0  0  0  0
  1  2  2  3
  2  3  1  0
  3  4  1  0
  4  5  2  0
  5  6  1  0
  6  7  1  0
  7  8  2  0
  7  9  1  0
  9 10  1  0
 10 11  1  0
 11 12  2  0
 12 13  1  0
 13 14  2  0
 14 15  1  0
 15 16  2  0
  5 17  1  0
 17 18  2  0
 17 19  1  0
 19  2  1  0
 16 11  1  0
  1 20  1  0
  4 21  1  0
  6 22  1  0
  9 23  1  0
  9 24  1  0
 10 25  1  0
 10 26  1  0
 12 27  1  0
 13 28  1  0
 14 29  1  0
 15 30  1  0
 16 31  1  0
M  CHG  2   3  -1  19  -1
M  END
>  <UniqueID>  (22) 
21

>  <SMILES>  (22) 
N=c1[n-]cc(NC(=O)CCc2ccccc2)c(=O)[n-]1

>  <Energy>  (22) 
31.254883130759683

>  <Genealogy>  (22) 
N=c1[n-]cc(NC(=O)CCc2ccccc2)c(=O)[n-]1 (protonated)
N=c1[n-]cc(NC(=O)CCc2ccccc2)c(=O)[n-]1 (3D coordinates assigned)
N=c1[n-]cc(NC(=O)CCc2ccccc2)c(=O)[n-]1 (optimized conformer: 31.254883130759683 kcal/mol)

>  <smiles>  (22) 
N=c1[nH]cc(NC(=O)CCc2ccccc2)c(=O)[nH]1

>  <score_type>  (22) 
oracle

>  <origin>  (22) 
adgpu

>  <m_score__min__energy>  (22) 
-10.99

>  <m_primary>  (22) 
energy

$$$$
22:0
     RDKit          3D

 48 50  0  0  0  0  0  0  0  0999 V2000
   -7.2310   19.9410  -33.0940 C   0  0  0  0  0  0  0  0  0  0  0  0
   -6.7380   21.1670  -32.3680 C   0  0  0  0  0  0  0  0  0  0  0  0
   -5.3620   21.4540  -32.3680 C   0  0  0  0  0  0  0  0  0  0  0  0
   -4.8720   22.5820  -31.7070 C   0  0  0  0  0  0  0  0  0  0  0  0
   -5.7440   23.4290  -31.0230 C   0  0  0  0  0  0  0  0  0  0  0  0
   -5.1420   24.8670  -30.2040 S   0  0  0  0  0  0  0  0  0  0  0  0
   -5.5220   24.8570  -28.7480 O   0  0  0  0  0  0  0  0  0  0  0  0
   -5.7390   26.0810  -30.8570 O   0  0  0  0  0  0  0  0  0  0  0  0
   -3.4120   24.9410  -30.3390 N   0  0  0  0  0  0  0  0  0  0  0  0
   -2.4860   24.3170  -29.4360 C   0  0  0  0  0  0  0  0  0  0  0  0
   -2.6610   22.9890  -28.9980 C   0  0  0  0  0  0  0  0  0  0  0  0
   -1.7480   22.4070  -28.1110 C   0  0  0  0  0  0  0  0  0  0  0  0
   -2.0260   20.7670  -27.5270 S   0  0  0  0  0  0  0  0  0  0  0  0
   -3.5130   20.5380  -27.4710 O   0  0  0  0  0  0  0  0  0  0  0  0
   -1.4500   20.6040  -26.1460 O   0  0  0  0  0  0  0  0  0  0  0  0
   -1.2880   19.6050  -28.6100 N   0  0  0  0  0  0  0  0  0  0  0  0
   -0.7720   20.2820  -29.8170 C   0  0  0  0  0  0  0  0  0  0  0  0
    0.3710   19.4710  -30.4560 C   0  0  0  0  0  0  0  0  0  0  0  0
    1.4930   19.2860  -29.6000 O   0  0  0  0  0  0  0  0  0  0  0  0
    1.1660   19.3160  -28.2180 C   0  0  0  0  0  0  0  0  0  0  0  0
   -0.2550   18.8110  -27.9080 C   0  0  0  0  0  0  0  0  0  0  0  0
   -0.6590   23.1570  -27.6450 C   0  0  0  0  0  0  0  0  0  0  0  0
   -0.4900   24.4820  -28.0620 C   0  0  0  0  0  0  0  0  0  0  0  0
   -1.4020   25.0590  -28.9520 C   0  0  0  0  0  0  0  0  0  0  0  0
   -1.2320   26.3820  -29.3420 O   0  0  0  0  0  0  0  0  0  0  0  0
   -7.1140   23.1430  -30.9980 C   0  0  0  0  0  0  0  0  0  0  0  0
   -7.6250   22.0120  -31.6510 C   0  0  0  0  0  0  0  0  0  0  0  0
   -9.1120   21.7490  -31.6080 C   0  0  0  0  0  0  0  0  0  0  0  0
   -7.5372   19.1795  -32.3616 H   0  0  0  0  0  0  0  0  0  0  0  0
   -8.0910   20.2096  -33.7250 H   0  0  0  0  0  0  0  0  0  0  0  0
   -6.4244   19.5394  -33.7250 H   0  0  0  0  0  0  0  0  0  0  0  0
   -4.6653   20.7842  -32.8933 H   0  0  0  0  0  0  0  0  0  0  0  0
   -3.7947   22.8035  -31.7257 H   0  0  0  0  0  0  0  0  0  0  0  0
   -3.5219   22.4053  -29.3560 H   0  0  0  0  0  0  0  0  0  0  0  0
   -1.5885   20.3898  -30.5462 H   0  0  0  0  0  0  0  0  0  0  0  0
   -0.3829   21.2692  -29.5270 H   0  0  0  0  0  0  0  0  0  0  0  0
   -0.0197   18.4811  -30.7343 H   0  0  0  0  0  0  0  0  0  0  0  0
    0.7232   20.0447  -31.3260 H   0  0  0  0  0  0  0  0  0  0  0  0
    1.8852   18.6835  -27.6770 H   0  0  0  0  0  0  0  0  0  0  0  0
    1.2103   20.3680  -27.8996 H   0  0  0  0  0  0  0  0  0  0  0  0
   -0.3365   17.7611  -28.2257 H   0  0  0  0  0  0  0  0  0  0  0  0
   -0.4243   18.9120  -26.8258 H   0  0  0  0  0  0  0  0  0  0  0  0
    0.0635   22.7033  -26.9507 H   0  0  0  0  0  0  0  0  0  0  0  0
    0.3612   25.0707  -27.6894 H   0  0  0  0  0  0  0  0  0  0  0  0
   -7.7988   23.8142  -30.4590 H   0  0  0  0  0  0  0  0  0  0  0  0
   -9.4438   21.6903  -30.5609 H   0  0  0  0  0  0  0  0  0  0  0  0
   -9.6439   22.5670  -32.1159 H   0  0  0  0  0  0  0  0  0  0  0  0
   -9.3310   20.7982  -32.1159 H   0  0  0  0  0  0  0  0  0  0  0  0
  1  2  1  0
  2  3  2  0
  3  4  1  0
  4  5  2  0
  5  6  1  0
  6  7  2  0
  6  8  2  0
  6  9  1  0
  9 10  1  0
 10 11  2  0
 11 12  1  0
 12 13  1  0
 13 14  2  0
 13 15  2  0
 13 16  1  0
 16 17  1  0
 17 18  1  0
 18 19  1  0
 19 20  1  0
 20 21  1  0
 12 22  2  0
 22 23  1  0
 23 24  2  0
 24 25  1  0
  5 26  1  0
 26 27  2  0
 27 28  1  0
 27  2  1  0
 24 10  1  0
 21 16  1  0
  1 29  1  0
  1 30  1  0
  1 31  1  0
  3 32  1  0
  4 33  1  0
 11 34  1  0
 17 35  1  0
 17 36  1  0
 18 37  1  0
 18 38  1  0
 20 39  1  0
 20 40  1  0
 21 41  1  0
 21 42  1  0
 22 43  1  0
 23 44  1  0
 26 45  1  0
 28 46  1  0
 28 47  1  0
 28 48  1  0
M  CHG  2   9  -1  25  -1
M  END
>  <UniqueID>  (23) 
22

>  <SMILES>  (23) 
Cc1ccc(S(=O)(=O)[N-]c2cc(S(=O)(=O)N3CCOCC3)ccc2[O-])cc1C

>  <Energy>  (23) 
61.13319683572112

>  <Genealogy>  (23) 
Cc1ccc(S(=O)(=O)[N-]c2cc(S(=O)(=O)N3CCOCC3)ccc2[O-])cc1C (protonated)
Cc1ccc(S(=O)(=O)[N-]c2cc(S(=O)(=O)N3CCOCC3)ccc2[O-])cc1C (3D coordinates assigned)
Cc1ccc(S(=O)(=O)[N-]c2cc(S(=O)(=O)N3CCOCC3)ccc2[O-])cc1C (nonaromatic ring conformer: 61.13319683572112 kcal/mol)

>  <smiles>  (23) 
Cc1ccc(S(=O)(=O)Nc2cc(S(=O)(=O)N3CCOCC3)ccc2O)cc1C

>  <score_type>  (23) 
oracle

>  <origin>  (23) 
adgpu

>  <m_score__min__energy>  (23) 
-14.02

>  <m_primary>  (23) 
energy

$$$$
23:0
     RDKit          3D

 59 61  0  0  0  0  0  0  0  0999 V2000
   -2.6260   23.9490  -29.3350 C   0  0  0  0  0  0  0  0  0  0  0  0
   -3.0180   25.2880  -29.5020 O   0  0  0  0  0  0  0  0  0  0  0  0
   -3.8440   25.3060  -30.5790 N   0  0  0  0  0  0  0  0  0  0  0  0
   -5.2730   25.2920  -30.4830 C   0  0  0  0  0  0  0  0  0  0  0  0
   -5.8580   26.3500  -30.1280 O   0  0  0  0  0  0  0  0  0  0  0  0
   -6.0910   24.1180  -30.8740 C   0  0  0  0  0  0  0  0  0  0  0  0
   -6.1360   23.7320  -32.2240 C   0  0  0  0  0  0  0  0  0  0  0  0
   -6.9040   22.6350  -32.6250 C   0  0  0  0  0  0  0  0  0  0  0  0
   -7.6630   21.9200  -31.6950 C   0  0  0  0  0  0  0  0  0  0  0  0
   -8.4210   20.7900  -32.1480 N   0  0  0  0  0  0  0  0  0  0  0  0
   -7.9230   19.4690  -32.4000 C   0  0  0  0  0  0  0  0  0  0  0  0
   -8.6680   18.4640  -32.2420 O   0  0  0  0  0  0  0  0  0  0  0  0
   -6.5690   19.3080  -32.8450 N   0  0  0  0  0  0  0  0  0  0  0  0
   -6.0120   18.0580  -33.2880 C   0  0  0  0  0  0  0  0  0  0  0  0
   -6.6590   16.8450  -33.0140 C   0  0  0  0  0  0  0  0  0  0  0  0
   -6.1290   15.6380  -33.4680 C   0  0  0  0  0  0  0  0  0  0  0  0
   -4.9330   15.6000  -34.2150 C   0  0  0  0  0  0  0  0  0  0  0  0
   -4.3740   14.2430  -34.6910 C   0  0  0  0  0  0  0  0  0  0  0  0
   -3.5790   13.5820  -33.5430 C   0  0  0  0  0  0  0  0  0  0  0  0
   -5.4760   13.2480  -35.1280 C   0  0  0  0  0  0  0  0  0  0  0  0
   -3.4390   14.4670  -35.8990 C   0  0  0  0  0  0  0  0  0  0  0  0
   -4.2970   16.8310  -34.4990 C   0  0  0  0  0  0  0  0  0  0  0  0
   -4.8440   18.0520  -34.0650 C   0  0  0  0  0  0  0  0  0  0  0  0
   -4.2070   19.2720  -34.3440 O   0  0  0  0  0  0  0  0  0  0  0  0
   -3.4340   20.0170  -33.4400 C   0  0  0  0  0  0  0  0  0  0  0  0
   -3.9610   21.1730  -32.8320 C   0  0  0  0  0  0  0  0  0  0  0  0
   -3.2000   21.9080  -31.9220 C   0  0  0  0  0  0  0  0  0  0  0  0
   -1.9090   21.4930  -31.5990 C   0  0  0  0  0  0  0  0  0  0  0  0
   -1.3790   20.3380  -32.1760 C   0  0  0  0  0  0  0  0  0  0  0  0
   -2.1300   19.5820  -33.0960 C   0  0  0  0  0  0  0  0  0  0  0  0
   -1.5290   18.3590  -33.6870 C   0  0  0  0  0  0  0  0  0  0  0  0
   -1.5880   17.2510  -33.0900 O   0  0  0  0  0  0  0  0  0  0  0  0
   -0.8860   18.4180  -34.9180 O   0  0  0  0  0  0  0  0  0  0  0  0
   -7.6180   22.2980  -30.3420 C   0  0  0  0  0  0  0  0  0  0  0  0
   -6.8490   23.3930  -29.9380 C   0  0  0  0  0  0  0  0  0  0  0  0
   -2.5583   23.7179  -28.2617 H   0  0  0  0  0  0  0  0  0  0  0  0
   -3.3684   23.2881  -29.8063 H   0  0  0  0  0  0  0  0  0  0  0  0
   -1.6444   23.7928  -29.8063 H   0  0  0  0  0  0  0  0  0  0  0  0
   -5.5618   24.2981  -32.9722 H   0  0  0  0  0  0  0  0  0  0  0  0
   -6.9109   22.3319  -33.6824 H   0  0  0  0  0  0  0  0  0  0  0  0
   -5.9360   20.1350  -32.7590 H   0  0  0  0  0  0  0  0  0  0  0  0
   -7.5943   16.8454  -32.4350 H   0  0  0  0  0  0  0  0  0  0  0  0
   -6.6530   14.6982  -33.2395 H   0  0  0  0  0  0  0  0  0  0  0  0
   -3.9829   13.9178  -32.5765 H   0  0  0  0  0  0  0  0  0  0  0  0
   -3.6682   12.4882  -33.6176 H   0  0  0  0  0  0  0  0  0  0  0  0
   -2.5198   13.8694  -33.6176 H   0  0  0  0  0  0  0  0  0  0  0  0
   -5.9544   12.8160  -34.2366 H   0  0  0  0  0  0  0  0  0  0  0  0
   -6.2303   13.7770  -35.7290 H   0  0  0  0  0  0  0  0  0  0  0  0
   -5.0265   12.4438  -35.7290 H   0  0  0  0  0  0  0  0  0  0  0  0
   -2.4278   14.7092  -35.5400 H   0  0  0  0  0  0  0  0  0  0  0  0
   -3.4023   13.5522  -36.5088 H   0  0  0  0  0  0  0  0  0  0  0  0
   -3.8208   15.2991  -36.5088 H   0  0  0  0  0  0  0  0  0  0  0  0
   -3.3568   16.8335  -35.0701 H   0  0  0  0  0  0  0  0  0  0  0  0
   -4.9824   21.4997  -33.0769 H   0  0  0  0  0  0  0  0  0  0  0  0
   -3.6186   22.8142  -31.4599 H   0  0  0  0  0  0  0  0  0  0  0  0
   -1.3066   22.0772  -30.8877 H   0  0  0  0  0  0  0  0  0  0  0  0
   -0.3622   20.0145  -31.9087 H   0  0  0  0  0  0  0  0  0  0  0  0
   -8.1918   21.7283  -29.5962 H   0  0  0  0  0  0  0  0  0  0  0  0
   -6.8368   23.6899  -28.8789 H   0  0  0  0  0  0  0  0  0  0  0  0
  1  2  1  0
  2  3  1  0
  3  4  1  0
  4  5  2  0
  4  6  1  0
  6  7  2  0
  7  8  1  0
  8  9  2  0
  9 10  1  0
 10 11  1  0
 11 12  2  0
 11 13  1  0
 13 14  1  0
 14 15  2  0
 15 16  1  0
 16 17  2  0
 17 18  1  0
 18 19  1  0
 18 20  1  0
 18 21  1  0
 17 22  1  0
 22 23  2  0
 23 24  1  0
 24 25  1  0
 25 26  2  0
 26 27  1  0
 27 28  2  0
 28 29  1  0
 29 30  2  0
 30 31  1  0
 31 32  2  0
 31 33  1  0
  9 34  1  0
 34 35  2  0
 35  6  1  0
 23 14  1  0
 30 25  1  0
  1 36  1  0
  1 37  1  0
  1 38  1  0
  7 39  1  0
  8 40  1  0
 13 41  1  0
 15 42  1  0
 16 43  1  0
 19 44  1  0
 19 45  1  0
 19 46  1  0
 20 47  1  0
 20 48  1  0
 20 49  1  0
 21 50  1  0
 21 51  1  0
 21 52  1  0
 22 53  1  0
 26 54  1  0
 27 55  1  0
 28 56  1  0
 29 57  1  0
 34 58  1  0
 35 59  1  0
M  CHG  3   3  -1  10  -1  33  -1
M  END
>  <UniqueID>  (24) 
23

>  <SMILES>  (24) 
CO[N-]C(=O)c1ccc([N-]C(=O)Nc2ccc(C(C)(C)C)cc2Oc2ccccc2C(=O)[O-])cc1

>  <Energy>  (24) 
82.08144831629112

>  <Genealogy>  (24) 
CO[N-]C(=O)c1ccc([N-]C(=O)Nc2ccc(C(C)(C)C)cc2Oc2ccccc2C(=O)[O-])cc1 (protonated)
CO[N-]C(=O)c1ccc([N-]C(=O)Nc2ccc(C(C)(C)C)cc2Oc2ccccc2C(=O)[O-])cc1 (3D coordinates assigned)
CO[N-]C(=O)c1ccc([N-]C(=O)Nc2ccc(C(C)(C)C)cc2Oc2ccccc2C(=O)[O-])cc1 (optimized conformer: 82.08144831629112 kcal/mol)

>  <smiles>  (24) 
CONC(=O)c1ccc(NC(=O)Nc2ccc(C(C)(C)C)cc2Oc2ccccc2C(=O)O)cc1

>  <score_type>  (24) 
oracle

>  <origin>  (24) 
adgpu

>  <m_score__min__energy>  (24) 
-13.49

>  <m_primary>  (24) 
energy

$$$$
24:0
     RDKit          3D

 56 59  0  0  0  0  0  0  0  0999 V2000
   -1.5290   25.8310  -28.9640 O   0  0  0  0  0  0  0  0  0  0  0  0
   -2.3280   24.9090  -29.2840 C   0  0  0  0  0  0  0  0  0  0  0  0
   -3.4820   25.2030  -30.0870 N   0  0  0  0  0  0  0  0  0  0  0  0
   -4.6000   24.3370  -30.3320 C   0  0  0  0  0  0  0  0  0  0  0  0
   -4.4960   23.1950  -31.1460 C   0  0  0  0  0  0  0  0  0  0  0  0
   -5.6180   22.3940  -31.3820 C   0  0  0  0  0  0  0  0  0  0  0  0
   -6.8560   22.7290  -30.8200 C   0  0  0  0  0  0  0  0  0  0  0  0
   -8.2560   21.7070  -31.1270 S   0  0  0  0  0  0  0  0  0  0  0  0
   -8.9390   22.1810  -32.3790 O   0  0  0  0  0  0  0  0  0  0  0  0
   -9.2240   21.7960  -29.9780 O   0  0  0  0  0  0  0  0  0  0  0  0
   -7.7280   20.0550  -31.3380 N   0  0  0  0  0  0  0  0  0  0  0  0
   -7.0070   19.8870  -32.5970 C   0  0  0  0  0  0  0  0  0  0  0  0
   -7.1670   18.4280  -32.9880 C   0  0  0  0  0  0  0  0  0  0  0  0
   -8.4320   17.9650  -32.2830 C   0  0  0  0  0  0  0  0  0  0  0  0
   -8.8650   19.1350  -31.4090 C   0  0  0  0  0  0  0  0  0  0  0  0
   -6.9670   23.8810  -30.0290 C   0  0  0  0  0  0  0  0  0  0  0  0
   -5.8460   24.6820  -29.7940 C   0  0  0  0  0  0  0  0  0  0  0  0
   -2.0470   23.5140  -28.8740 C   0  0  0  0  0  0  0  0  0  0  0  0
   -2.5060   23.0260  -27.6370 C   0  0  0  0  0  0  0  0  0  0  0  0
   -2.2310   21.7130  -27.2480 C   0  0  0  0  0  0  0  0  0  0  0  0
   -1.4980   20.8680  -28.0850 C   0  0  0  0  0  0  0  0  0  0  0  0
   -1.2350   19.5990  -27.6820 F   0  0  0  0  0  0  0  0  0  0  0  0
   -1.0370   21.3360  -29.3240 C   0  0  0  0  0  0  0  0  0  0  0  0
   -0.1100   20.2670  -30.3800 S   0  0  0  0  0  0  0  0  0  0  0  0
    1.2470   20.0010  -29.7830 O   0  0  0  0  0  0  0  0  0  0  0  0
   -0.8500   18.9640  -30.5150 O   0  0  0  0  0  0  0  0  0  0  0  0
    0.0730   21.0120  -31.9490 N   0  0  0  0  0  0  0  0  0  0  0  0
    1.0220   20.2410  -32.7680 C   0  0  0  0  0  0  0  0  0  0  0  0
    1.1970   20.9190  -34.1460 C   0  0  0  0  0  0  0  0  0  0  0  0
    0.2350   21.9370  -34.3760 O   0  0  0  0  0  0  0  0  0  0  0  0
   -1.0630   21.4380  -34.1190 C   0  0  0  0  0  0  0  0  0  0  0  0
   -1.2350   21.0930  -32.6250 C   0  0  0  0  0  0  0  0  0  0  0  0
   -1.3090   22.6560  -29.7120 C   0  0  0  0  0  0  0  0  0  0  0  0
   -3.5289   22.9308  -31.5987 H   0  0  0  0  0  0  0  0  0  0  0  0
   -5.5275   21.4968  -32.0120 H   0  0  0  0  0  0  0  0  0  0  0  0
   -7.4369   20.5385  -33.3721 H   0  0  0  0  0  0  0  0  0  0  0  0
   -5.9464   20.1584  -32.4898 H   0  0  0  0  0  0  0  0  0  0  0  0
   -7.2747   18.3300  -34.0783 H   0  0  0  0  0  0  0  0  0  0  0  0
   -6.2919   17.8263  -32.7014 H   0  0  0  0  0  0  0  0  0  0  0  0
   -9.2147   17.7240  -33.0174 H   0  0  0  0  0  0  0  0  0  0  0  0
   -8.2576   17.0557  -31.6890 H   0  0  0  0  0  0  0  0  0  0  0  0
   -9.7335   19.6405  -31.8564 H   0  0  0  0  0  0  0  0  0  0  0  0
   -9.1569   18.7908  -30.4058 H   0  0  0  0  0  0  0  0  0  0  0  0
   -7.9386   24.1552  -29.5922 H   0  0  0  0  0  0  0  0  0  0  0  0
   -5.9433   25.5906  -29.1816 H   0  0  0  0  0  0  0  0  0  0  0  0
   -3.0854   23.6829  -26.9716 H   0  0  0  0  0  0  0  0  0  0  0  0
   -2.5934   21.3424  -26.2778 H   0  0  0  0  0  0  0  0  0  0  0  0
    1.9947   20.1979  -32.2562 H   0  0  0  0  0  0  0  0  0  0  0  0
    0.6329   19.2222  -32.9117 H   0  0  0  0  0  0  0  0  0  0  0  0
    2.2014   21.3650  -34.1949 H   0  0  0  0  0  0  0  0  0  0  0  0
    1.0594   20.1479  -34.9183 H   0  0  0  0  0  0  0  0  0  0  0  0
   -1.8041   22.2007  -34.4000 H   0  0  0  0  0  0  0  0  0  0  0  0
   -1.2106   20.5222  -34.7102 H   0  0  0  0  0  0  0  0  0  0  0  0
   -1.8417   21.8736  -32.1428 H   0  0  0  0  0  0  0  0  0  0  0  0
   -1.7326   20.1152  -32.5454 H   0  0  0  0  0  0  0  0  0  0  0  0
   -0.9420   23.0250  -30.6811 H   0  0  0  0  0  0  0  0  0  0  0  0
  1  2  2  0
  2  3  1  0
  3  4  1  0
  4  5  2  0
  5  6  1  0
  6  7  2  0
  7  8  1  0
  8  9  2  0
  8 10  2  0
  8 11  1  0
 11 12  1  0
 12 13  1  0
 13 14  1  0
 14 15  1  0
  7 16  1  0
 16 17  2  0
  2 18  1  0
 18 19  2  0
 19 20  1  0
 20 21  2  0
 21 22  1  0
 21 23  1  0
 23 24  1  0
 24 25  2  0
 24 26  2  0
 24 27  1  0
 27 28  1  0
 28 29  1  0
 29 30  1  0
 30 31  1  0
 31 32  1  0
 23 33  2  0
 17  4  1  0
 33 18  1  0
 15 11  1  0
 32 27  1  0
  5 34  1  0
  6 35  1  0
 12 36  1  0
 12 37  1  0
 13 38  1  0
 13 39  1  0
 14 40  1  0
 14 41  1  0
 15 42  1  0
 15 43  1  0
 16 44  1  0
 17 45  1  0
 19 46  1  0
 20 47  1  0
 28 48  1  0
 28 49  1  0
 29 50  1  0
 29 51  1  0
 31 52  1  0
 31 53  1  0
 32 54  1  0
 32 55  1  0
 33 56  1  0
M  CHG  1   3  -1
M  END
>  <UniqueID>  (25) 
24

>  <SMILES>  (25) 
O=C([N-]c1ccc(S(=O)(=O)N2CCCC2)cc1)c1ccc(F)c(S(=O)(=O)N2CCOCC2)c1

>  <Energy>  (25) 
70.86827314694783

>  <Genealogy>  (25) 
O=C([N-]c1ccc(S(=O)(=O)N2CCCC2)cc1)c1ccc(F)c(S(=O)(=O)N2CCOCC2)c1 (protonated)
O=C([N-]c1ccc(S(=O)(=O)N2CCCC2)cc1)c1ccc(F)c(S(=O)(=O)N2CCOCC2)c1 (3D coordinates assigned)
O=C([N-]c1ccc(S(=O)(=O)N2CCCC2)cc1)c1ccc(F)c(S(=O)(=O)N2CCOCC2)c1 (nonaromatic ring conformer: 70.86827314694783 kcal/mol)

>  <smiles>  (25) 
O=C(Nc1ccc(S(=O)(=O)N2CCCC2)cc1)c1ccc(F)c(S(=O)(=O)N2CCOCC2)c1

>  <score_type>  (25) 
oracle

>  <origin>  (25) 
adgpu

>  <m_score__min__energy>  (25) 
-12.09

>  <m_primary>  (25) 
energy

$$$$
25:0
     RDKit          3D

 69 74  0  0  0  0  0  0  0  0999 V2000
   -3.7240   16.1310  -34.9700 C   0  0  0  0  0  0  0  0  0  0  0  0
   -2.4470   17.1210  -34.2250 S   0  0  0  0  0  0  0  0  0  0  0  0
   -1.8030   16.3460  -33.1090 O   0  0  0  0  0  0  0  0  0  0  0  0
   -1.4010   17.4540  -35.2500 O   0  0  0  0  0  0  0  0  0  0  0  0
   -3.1550   18.6070  -33.6000 C   0  0  0  0  0  0  0  0  0  0  0  0
   -2.6020   19.8510  -33.9310 C   0  0  0  0  0  0  0  0  0  0  0  0
   -3.1610   21.0250  -33.4220 C   0  0  0  0  0  0  0  0  0  0  0  0
   -4.2660   20.9720  -32.5590 C   0  0  0  0  0  0  0  0  0  0  0  0
   -4.8840   22.2280  -32.0880 C   0  0  0  0  0  0  0  0  0  0  0  0
   -6.0400   22.6770  -32.6630 N   0  0  0  0  0  0  0  0  0  0  0  0
   -6.6820   23.8080  -32.2300 C   0  0  0  0  0  0  0  0  0  0  0  0
   -6.1700   24.5470  -31.1520 C   0  0  0  0  0  0  0  0  0  0  0  0
   -4.9980   24.0840  -30.5650 C   0  0  0  0  0  0  0  0  0  0  0  0
   -4.2900   24.5590  -29.4840 C   0  0  0  0  0  0  0  0  0  0  0  0
   -3.2260   23.6680  -29.3260 C   0  0  0  0  0  0  0  0  0  0  0  0
   -2.1670   23.7650  -28.2920 C   0  0  0  0  0  0  0  0  0  0  0  0
   -2.0620   22.7890  -27.2870 C   0  0  0  0  0  0  0  0  0  0  0  0
   -1.0490   22.8640  -26.3270 C   0  0  0  0  0  0  0  0  0  0  0  0
   -0.1240   23.9170  -26.3540 C   0  0  0  0  0  0  0  0  0  0  0  0
    0.9710   23.9880  -25.3130 C   0  0  0  0  0  0  0  0  0  0  0  0
    0.6930   25.0150  -24.2810 N   0  0  0  0  0  0  0  0  0  0  0  0
   -0.7590   25.3240  -24.2050 C   0  0  0  0  0  0  0  0  0  0  0  0
   -0.9980   26.7380  -23.6500 C   0  0  0  0  0  0  0  0  0  0  0  0
   -0.4330   27.7680  -24.4530 O   0  0  0  0  0  0  0  0  0  0  0  0
    0.7020   27.3500  -25.2000 C   0  0  0  0  0  0  0  0  0  0  0  0
    1.5130   26.2360  -24.5130 C   0  0  0  0  0  0  0  0  0  0  0  0
   -0.2340   24.9020  -27.3460 C   0  0  0  0  0  0  0  0  0  0  0  0
   -1.2440   24.8260  -28.3080 C   0  0  0  0  0  0  0  0  0  0  0  0
   -3.2810   22.6890  -30.2630 N   0  0  0  0  0  0  0  0  0  0  0  0
   -4.3610   22.9620  -31.0160 C   0  0  0  0  0  0  0  0  0  0  0  0
   -4.8030   19.7140  -32.1960 C   0  0  0  0  0  0  0  0  0  0  0  0
   -5.8850   19.5930  -31.3110 O   0  0  0  0  0  0  0  0  0  0  0  0
   -7.1990   19.9840  -31.6020 C   0  0  0  0  0  0  0  0  0  0  0  0
   -7.9780   19.3170  -32.5670 C   0  0  0  0  0  0  0  0  0  0  0  0
   -9.2940   19.7210  -32.8130 C   0  0  0  0  0  0  0  0  0  0  0  0
   -9.8360   20.8020  -32.1120 C   0  0  0  0  0  0  0  0  0  0  0  0
   -9.0620   21.4820  -31.1670 C   0  0  0  0  0  0  0  0  0  0  0  0
   -7.7450   21.0780  -30.9180 C   0  0  0  0  0  0  0  0  0  0  0  0
   -4.2570   18.5470  -32.7400 C   0  0  0  0  0  0  0  0  0  0  0  0
   -4.3303   15.6609  -34.1817 H   0  0  0  0  0  0  0  0  0  0  0  0
   -4.3659   16.7698  -35.5944 H   0  0  0  0  0  0  0  0  0  0  0  0
   -3.2653   15.3502  -35.5944 H   0  0  0  0  0  0  0  0  0  0  0  0
   -1.7254   19.9030  -34.5934 H   0  0  0  0  0  0  0  0  0  0  0  0
   -2.7317   21.9989  -33.6998 H   0  0  0  0  0  0  0  0  0  0  0  0
   -7.6041   24.1386  -32.7304 H   0  0  0  0  0  0  0  0  0  0  0  0
   -6.6746   25.4538  -30.7873 H   0  0  0  0  0  0  0  0  0  0  0  0
   -4.5139   25.4480  -28.8761 H   0  0  0  0  0  0  0  0  0  0  0  0
   -2.7830   21.9589  -27.2554 H   0  0  0  0  0  0  0  0  0  0  0  0
   -0.9772   22.0926  -25.5461 H   0  0  0  0  0  0  0  0  0  0  0  0
    1.0586   23.0072  -24.8228 H   0  0  0  0  0  0  0  0  0  0  0  0
    1.9058   24.2642  -25.8228 H   0  0  0  0  0  0  0  0  0  0  0  0
    0.9870   24.6230  -23.3530 H   0  0  0  0  0  0  0  0  0  0  0  0
   -1.1936   25.2560  -25.2132 H   0  0  0  0  0  0  0  0  0  0  0  0
   -1.2346   24.5990  -23.5281 H   0  0  0  0  0  0  0  0  0  0  0  0
   -2.0829   26.9060  -23.5816 H   0  0  0  0  0  0  0  0  0  0  0  0
   -0.5044   26.7869  -22.6682 H   0  0  0  0  0  0  0  0  0  0  0  0
    0.3585   26.9788  -26.1768 H   0  0  0  0  0  0  0  0  0  0  0  0
    1.3659   28.2219  -25.2951 H   0  0  0  0  0  0  0  0  0  0  0  0
    2.3690   25.9735  -25.1521 H   0  0  0  0  0  0  0  0  0  0  0  0
    1.8488   26.6121  -23.5354 H   0  0  0  0  0  0  0  0  0  0  0  0
    0.4791   25.7393  -27.3667 H   0  0  0  0  0  0  0  0  0  0  0  0
   -1.3180   25.6020  -29.0841 H   0  0  0  0  0  0  0  0  0  0  0  0
   -2.6430   21.8690  -30.3590 H   0  0  0  0  0  0  0  0  0  0  0  0
   -7.5495   18.4746  -33.1297 H   0  0  0  0  0  0  0  0  0  0  0  0
   -9.9027   19.1880  -33.5583 H   0  0  0  0  0  0  0  0  0  0  0  0
  -10.8720   21.1178  -32.3040 H   0  0  0  0  0  0  0  0  0  0  0  0
   -9.4882   22.3351  -30.6187 H   0  0  0  0  0  0  0  0  0  0  0  0
   -7.1357   21.6223  -30.1815 H   0  0  0  0  0  0  0  0  0  0  0  0
   -4.6987   17.5714  -32.4890 H   0  0  0  0  0  0  0  0  0  0  0  0
  1  2  1  0
  2  3  2  0
  2  4  2  0
  2  5  1  0
  5  6  2  0
  6  7  1  0
  7  8  2  0
  8  9  1  0
  9 10  2  0
 10 11  1  0
 11 12  2  0
 12 13  1  0
 13 14  1  0
 14 15  2  0
 15 16  1  0
 16 17  2  0
 17 18  1  0
 18 19  2  0
 19 20  1  0
 20 21  1  0
 21 22  1  0
 22 23  1  0
 23 24  1  0
 24 25  1  0
 25 26  1  0
 19 27  1  0
 27 28  2  0
 15 29  1  0
 29 30  1  0
  8 31  1  0
 31 32  1  0
 32 33  1  0
 33 34  2  0
 34 35  1  0
 35 36  2  0
 36 37  1  0
 37 38  2  0
 31 39  2  0
 39  5  1  0
 30  9  1  0
 38 33  1  0
 30 13  2  0
 28 16  1  0
 26 21  1  0
  1 40  1  0
  1 41  1  0
  1 42  1  0
  6 43  1  0
  7 44  1  0
 11 45  1  0
 12 46  1  0
 14 47  1  0
 17 48  1  0
 18 49  1  0
 20 50  1  0
 20 51  1  0
 21 52  1  0
 22 53  1  0
 22 54  1  0
 23 55  1  0
 23 56  1  0
 25 57  1  0
 25 58  1  0
 26 59  1  0
 26 60  1  0
 27 61  1  0
 28 62  1  0
 29 63  1  0
 34 64  1  0
 35 65  1  0
 36 66  1  0
 37 67  1  0
 38 68  1  0
 39 69  1  0
M  CHG  1  21   1
M  END
>  <UniqueID>  (26) 
25

>  <SMILES>  (26) 
CS(=O)(=O)c1ccc(-c2nccc3cc(-c4ccc(C[NH+]5CCOCC5)cc4)[nH]c23)c(Oc2ccccc2)c1

>  <Energy>  (26) 
136.17816646778607

>  <Genealogy>  (26) 
CS(=O)(=O)c1ccc(-c2nccc3cc(-c4ccc(C[NH+]5CCOCC5)cc4)[nH]c23)c(Oc2ccccc2)c1 (protonated)
CS(=O)(=O)c1ccc(-c2nccc3cc(-c4ccc(C[NH+]5CCOCC5)cc4)[nH]c23)c(Oc2ccccc2)c1 (3D coordinates assigned)
CS(=O)(=O)c1ccc(-c2nccc3cc(-c4ccc(C[NH+]5CCOCC5)cc4)[nH]c23)c(Oc2ccccc2)c1 (nonaromatic ring conformer: 136.17816646778607 kcal/mol)

>  <smiles>  (26) 
CS(=O)(=O)c1ccc(-c2nccc3cc(-c4ccc(CN5CCOCC5)cc4)[nH]c23)c(Oc2ccccc2)c1

>  <score_type>  (26) 
oracle

>  <origin>  (26) 
adgpu

>  <m_score__min__energy>  (26) 
-10.93

>  <m_primary>  (26) 
energy

$$$$
26:0
     RDKit          3D

 24 25  0  0  0  0  0  0  0  0999 V2000
   -6.6650   24.8130  -30.5860 O   0  0  0  0  0  0  0  0  0  0  0  0
   -6.0120   23.7480  -30.4140 C   0  0  0  0  0  0  0  0  0  0  0  0
   -6.5140   22.5040  -31.0390 C   0  0  0  0  0  0  0  0  0  0  0  0
   -7.7840   22.0260  -30.6710 C   0  0  0  0  0  0  0  0  0  0  0  0
   -8.2990   20.8630  -31.2470 C   0  0  0  0  0  0  0  0  0  0  0  0
   -7.5480   20.1550  -32.1860 C   0  0  0  0  0  0  0  0  0  0  0  0
   -6.2750   20.6040  -32.5460 C   0  0  0  0  0  0  0  0  0  0  0  0
   -5.7480   21.7700  -31.9750 C   0  0  0  0  0  0  0  0  0  0  0  0
   -4.1050   22.2330  -32.4100 Cl  0  0  0  0  0  0  0  0  0  0  0  0
   -4.7670   23.7900  -29.6080 C   0  0  0  0  0  0  0  0  0  0  0  0
   -4.6080   22.8840  -28.5430 C   0  0  0  0  0  0  0  0  0  0  0  0
   -3.4430   22.8910  -27.7720 C   0  0  0  0  0  0  0  0  0  0  0  0
   -2.4270   23.8080  -28.0460 C   0  0  0  0  0  0  0  0  0  0  0  0
   -2.5760   24.7270  -29.0870 C   0  0  0  0  0  0  0  0  0  0  0  0
   -1.5640   25.6450  -29.3440 O   0  0  0  0  0  0  0  0  0  0  0  0
   -3.7420   24.7290  -29.8640 C   0  0  0  0  0  0  0  0  0  0  0  0
   -3.8810   25.6790  -30.8720 O   0  0  0  0  0  0  0  0  0  0  0  0
   -8.3769   22.5728  -29.9230 H   0  0  0  0  0  0  0  0  0  0  0  0
   -9.2985   20.5043  -30.9600 H   0  0  0  0  0  0  0  0  0  0  0  0
   -7.9586   19.2426  -32.6431 H   0  0  0  0  0  0  0  0  0  0  0  0
   -5.6833   20.0392  -33.2815 H   0  0  0  0  0  0  0  0  0  0  0  0
   -5.4080   22.1640  -28.3156 H   0  0  0  0  0  0  0  0  0  0  0  0
   -3.3262   22.1724  -26.9474 H   0  0  0  0  0  0  0  0  0  0  0  0
   -1.5080   23.8068  -27.4414 H   0  0  0  0  0  0  0  0  0  0  0  0
  1  2  2  0
  2  3  1  0
  3  4  2  0
  4  5  1  0
  5  6  2  0
  6  7  1  0
  7  8  2  0
  8  9  1  0
  2 10  1  0
 10 11  2  0
 11 12  1  0
 12 13  2  0
 13 14  1  0
 14 15  1  0
 14 16  2  0
 16 17  1  0
  8  3  1  0
 16 10  1  0
  4 18  1  0
  5 19  1  0
  6 20  1  0
  7 21  1  0
 11 22  1  0
 12 23  1  0
 13 24  1  0
M  CHG  2  15  -1  17  -1
M  END
>  <UniqueID>  (27) 
26

>  <SMILES>  (27) 
O=C(c1ccccc1Cl)c1cccc([O-])c1[O-]

>  <Energy>  (27) 
35.698353031521265

>  <Genealogy>  (27) 
O=C(c1ccccc1Cl)c1cccc([O-])c1[O-] (protonated)
O=C(c1ccccc1Cl)c1cccc([O-])c1[O-] (3D coordinates assigned)
O=C(c1ccccc1Cl)c1cccc([O-])c1[O-] (optimized conformer: 35.698353031521265 kcal/mol)

>  <smiles>  (27) 
O=C(c1ccccc1Cl)c1cccc(O)c1O

>  <score_type>  (27) 
oracle

>  <origin>  (27) 
adgpu

>  <m_score__min__energy>  (27) 
-13.609999999999999

>  <m_primary>  (27) 
energy

$$$$
27:0
     RDKit          3D

 37 39  0  0  0  0  0  0  0  0999 V2000
   -0.8590   20.7510  -32.2390 O   0  0  0  0  0  0  0  0  0  0  0  0
   -1.1240   21.0310  -33.4390 C   0  0  0  0  0  0  0  0  0  0  0  0
   -2.4900   21.1910  -33.8590 N   0  0  0  0  0  0  0  0  0  0  0  0
   -3.5860   21.3900  -32.9490 C   0  0  0  0  0  0  0  0  0  0  0  0
   -4.4900   20.3420  -32.7180 C   0  0  0  0  0  0  0  0  0  0  0  0
   -5.5660   20.5150  -31.8430 C   0  0  0  0  0  0  0  0  0  0  0  0
   -5.7540   21.7390  -31.1980 C   0  0  0  0  0  0  0  0  0  0  0  0
   -4.8770   22.8040  -31.4390 C   0  0  0  0  0  0  0  0  0  0  0  0
   -5.1290   24.3390  -30.6130 S   0  0  0  0  0  0  0  0  0  0  0  0
   -6.0070   24.1070  -29.4160 O   0  0  0  0  0  0  0  0  0  0  0  0
   -5.8020   25.3360  -31.5160 O   0  0  0  0  0  0  0  0  0  0  0  0
   -3.6040   24.9740  -30.0880 N   0  0  0  0  0  0  0  0  0  0  0  0
   -2.6240   24.2530  -29.3270 C   0  0  0  0  0  0  0  0  0  0  0  0
   -2.8160   22.9130  -28.9410 C   0  0  0  0  0  0  0  0  0  0  0  0
   -1.8410   22.2470  -28.1940 C   0  0  0  0  0  0  0  0  0  0  0  0
   -0.6650   22.9070  -27.8290 C   0  0  0  0  0  0  0  0  0  0  0  0
   -0.4620   24.2340  -28.2140 C   0  0  0  0  0  0  0  0  0  0  0  0
   -1.4360   24.9070  -28.9600 C   0  0  0  0  0  0  0  0  0  0  0  0
   -1.2220   26.2290  -29.3320 O   0  0  0  0  0  0  0  0  0  0  0  0
   -3.8020   22.6320  -32.3230 C   0  0  0  0  0  0  0  0  0  0  0  0
   -0.0180   21.1450  -34.4030 C   0  0  0  0  0  0  0  0  0  0  0  0
    0.7580   20.1130  -34.8980 C   0  0  0  0  0  0  0  0  0  0  0  0
    1.6500   20.7030  -35.7680 C   0  0  0  0  0  0  0  0  0  0  0  0
    1.3640   22.0530  -35.7540 C   0  0  0  0  0  0  0  0  0  0  0  0
    0.3660   22.2850  -34.9320 O   0  0  0  0  0  0  0  0  0  0  0  0
   -2.7170   21.0500  -34.8690 H   0  0  0  0  0  0  0  0  0  0  0  0
   -4.3509   19.3779  -33.2290 H   0  0  0  0  0  0  0  0  0  0  0  0
   -6.2657   19.6857  -31.6622 H   0  0  0  0  0  0  0  0  0  0  0  0
   -6.5933   21.8672  -30.4986 H   0  0  0  0  0  0  0  0  0  0  0  0
   -3.7384   22.3875  -29.2290 H   0  0  0  0  0  0  0  0  0  0  0  0
   -1.9996   21.2010  -27.8927 H   0  0  0  0  0  0  0  0  0  0  0  0
    0.1004   22.3819  -27.2388 H   0  0  0  0  0  0  0  0  0  0  0  0
    0.4661   24.7516  -27.9300 H   0  0  0  0  0  0  0  0  0  0  0  0
   -3.1234   23.4730  -32.5284 H   0  0  0  0  0  0  0  0  0  0  0  0
    0.6799   19.0443  -34.6495 H   0  0  0  0  0  0  0  0  0  0  0  0
    2.4321   20.1992  -36.3550 H   0  0  0  0  0  0  0  0  0  0  0  0
    1.8916   22.8185  -36.3419 H   0  0  0  0  0  0  0  0  0  0  0  0
  1  2  2  0
  2  3  1  0
  3  4  1  0
  4  5  2  0
  5  6  1  0
  6  7  2  0
  7  8  1  0
  8  9  1  0
  9 10  2  0
  9 11  2  0
  9 12  1  0
 12 13  1  0
 13 14  2  0
 14 15  1  0
 15 16  2  0
 16 17  1  0
 17 18  2  0
 18 19  1  0
  8 20  2  0
  2 21  1  0
 21 22  2  0
 22 23  1  0
 23 24  2  0
 24 25  1  0
 20  4  1  0
 25 21  1  0
 18 13  1  0
  3 26  1  0
  5 27  1  0
  6 28  1  0
  7 29  1  0
 14 30  1  0
 15 31  1  0
 16 32  1  0
 17 33  1  0
 20 34  1  0
 22 35  1  0
 23 36  1  0
 24 37  1  0
M  CHG  2  12  -1  19  -1
M  END
>  <UniqueID>  (28) 
27

>  <SMILES>  (28) 
O=C(Nc1cccc(S(=O)(=O)[N-]c2ccccc2[O-])c1)c1ccco1

>  <Energy>  (28) 
71.84691110512935

>  <Genealogy>  (28) 
O=C(Nc1cccc(S(=O)(=O)[N-]c2ccccc2[O-])c1)c1ccco1 (protonated)
O=C(Nc1cccc(S(=O)(=O)[N-]c2ccccc2[O-])c1)c1ccco1 (3D coordinates assigned)
O=C(Nc1cccc(S(=O)(=O)[N-]c2ccccc2[O-])c1)c1ccco1 (optimized conformer: 71.84691110512935 kcal/mol)

>  <smiles>  (28) 
O=C(Nc1cccc(S(=O)(=O)Nc2ccccc2O)c1)c1ccco1

>  <score_type>  (28) 
oracle

>  <origin>  (28) 
adgpu

>  <m_score__min__energy>  (28) 
-12.9

>  <m_primary>  (28) 
energy

$$$$
28:0
     RDKit          3D

 43 45  0  0  1  0  0  0  0  0999 V2000
   -3.7980   21.2750  -32.2530 C   0  0  0  0  0  0  0  0  0  0  0  0
   -4.8000   21.3680  -31.2840 O   0  0  0  0  0  0  0  0  0  0  0  0
   -6.0610   21.8940  -31.5120 C   0  0  0  0  0  0  0  0  0  0  0  0
   -7.1040   21.0260  -31.7150 C   0  0  0  0  0  0  0  0  0  0  0  0
   -8.3590   21.5680  -31.9420 C   0  0  0  0  0  0  0  0  0  0  0  0
   -8.5540   22.9460  -31.9630 C   0  0  0  0  0  0  0  0  0  0  0  0
   -7.4760   23.7750  -31.7540 C   0  0  0  0  0  0  0  0  0  0  0  0
   -6.1930   23.2680  -31.5220 C   0  0  0  0  0  0  0  0  0  0  0  0
   -5.1080   24.1590  -31.3110 N   0  0  0  0  0  0  0  0  0  0  0  0
   -4.4170   24.1060  -30.1990 C   0  0  0  0  0  0  0  0  0  0  0  0
   -4.7830   23.1880  -29.2980 N   0  0  0  0  0  0  0  0  0  0  0  0
   -4.1160   23.0770  -28.1300 C   0  0  0  0  0  0  0  0  0  0  0  0
   -3.0640   23.9330  -27.9120 C   0  0  0  0  0  0  0  0  0  0  0  0
   -2.6740   24.8870  -28.8350 C   0  0  0  0  0  0  0  0  0  0  0  0
   -1.6710   25.6730  -28.5820 N   0  0  0  0  0  0  0  0  0  0  0  0
   -0.9470   25.5800  -27.3590 C   0  0  0  0  0  0  0  0  0  0  0  0
   -1.0860   26.6230  -26.4740 C   0  0  0  0  0  0  0  0  0  0  0  0
   -0.4350   26.6350  -25.2720 C   0  0  0  0  0  0  0  0  0  0  0  0
    0.3700   25.5660  -24.9670 C   0  0  0  0  0  0  0  0  0  0  0  0
    0.5070   24.5130  -25.8680 C   0  0  0  0  0  0  0  0  0  0  0  0
   -0.1280   24.4680  -27.0790 C   0  0  0  0  0  0  0  0  0  0  0  0
   -0.0300   23.4330  -28.0310 N   0  0  0  0  0  0  0  0  0  0  0  0
   -0.3890   22.0960  -27.9320 C   0  0  0  0  0  0  0  0  0  0  0  0
   -1.0450   21.3510  -26.6400 S   0  0  0  0  0  0  0  0  0  0  0  0
   -0.1160   21.0410  -29.3740 S   0  0  0  0  0  0  0  0  0  0  0  0
   -3.3750   24.9520  -29.9830 N   0  0  0  0  0  0  0  0  0  0  0  0
   -2.8187   21.1841  -31.7603 H   0  0  0  0  0  0  0  0  0  0  0  0
   -3.9761   20.3895  -32.8809 H   0  0  0  0  0  0  0  0  0  0  0  0
   -3.8101   22.1781  -32.8809 H   0  0  0  0  0  0  0  0  0  0  0  0
   -6.9493   19.9371  -31.6981 H   0  0  0  0  0  0  0  0  0  0  0  0
   -9.2154   20.8980  -32.1084 H   0  0  0  0  0  0  0  0  0  0  0  0
   -9.5545   23.3658  -32.1439 H   0  0  0  0  0  0  0  0  0  0  0  0
   -7.6269   24.8645  -31.7697 H   0  0  0  0  0  0  0  0  0  0  0  0
   -5.5800   22.5190  -29.4290 H   0  0  0  0  0  0  0  0  0  0  0  0
   -4.4047   22.3272  -27.3787 H   0  0  0  0  0  0  0  0  0  0  0  0
   -2.5092   23.8569  -26.9652 H   0  0  0  0  0  0  0  0  0  0  0  0
   -1.7372   27.4688  -26.7398 H   0  0  0  0  0  0  0  0  0  0  0  0
   -0.5526   27.4748  -24.5714 H   0  0  0  0  0  0  0  0  0  0  0  0
    0.9085   25.5409  -24.0081 H   0  0  0  0  0  0  0  0  0  0  0  0
    1.1606   23.6726  -25.5913 H   0  0  0  0  0  0  0  0  0  0  0  0
    0.3900   23.7380  -28.9720 H   0  0  0  0  0  0  0  0  0  0  0  0
   -1.2830   20.2470  -29.5580 H   0  0  0  0  0  0  0  0  0  0  0  0
   -3.1130   25.6680  -30.7200 H   0  0  0  0  0  0  0  0  0  0  0  0
  1  2  1  0
  2  3  1  0
  3  4  2  0
  4  5  1  0
  5  6  2  0
  6  7  1  0
  7  8  2  0
  8  9  1  0
  9 10  2  0
 10 11  1  0
 11 12  1  0
 12 13  2  0
 13 14  1  0
 14 15  2  0
 15 16  1  0
 16 17  2  0
 17 18  1  0
 18 19  2  0
 19 20  1  0
 20 21  2  0
 21 22  1  0
 22 23  1  0
 23 24  2  0
 23 25  1  0
 14 26  1  0
  8  3  1  0
 26 10  1  0
 21 16  1  0
  1 27  1  0
  1 28  1  0
  1 29  1  0
  4 30  1  0
  5 31  1  0
  6 32  1  0
  7 33  1  0
 11 34  1  0
 12 35  1  0
 13 36  1  0
 17 37  1  0
 18 38  1  0
 19 39  1  0
 20 40  1  0
 22 41  1  0
 25 42  1  0
 26 43  1  0
M  END
>  <smiles>  (29) 
COc1ccccc1N=c1[nH]ccc(=Nc2ccccc2NC(=S)S)[nH]1

>  <score_type>  (29) 
oracle

>  <origin>  (29) 
adgpu

>  <m_score__min__energy>  (29) 
-9.9000000000000004

>  <m_primary>  (29) 
energy

$$$$
29:0
     RDKit          3D

 53 55  0  0  0  0  0  0  0  0999 V2000
   -5.6990   18.8580  -34.2790 C   0  0  0  0  0  0  0  0  0  0  0  0
   -6.8120   18.0560  -33.7570 N   0  0  0  0  0  0  0  0  0  0  0  0
   -6.4340   16.6390  -33.7040 C   0  0  0  0  0  0  0  0  0  0  0  0
   -7.2450   18.6140  -32.1590 S   0  0  0  0  0  0  0  0  0  0  0  0
   -8.6890   18.2920  -31.8910 O   0  0  0  0  0  0  0  0  0  0  0  0
   -6.4120   17.8920  -31.1360 O   0  0  0  0  0  0  0  0  0  0  0  0
   -6.9970   20.3530  -31.9880 C   0  0  0  0  0  0  0  0  0  0  0  0
   -8.0930   21.2270  -32.0070 C   0  0  0  0  0  0  0  0  0  0  0  0
   -7.8970   22.6010  -31.8530 C   0  0  0  0  0  0  0  0  0  0  0  0
   -6.6080   23.1110  -31.6860 C   0  0  0  0  0  0  0  0  0  0  0  0
   -5.4970   22.2490  -31.6890 C   0  0  0  0  0  0  0  0  0  0  0  0
   -4.1600   22.7500  -31.5030 N   0  0  0  0  0  0  0  0  0  0  0  0
   -3.5280   22.8910  -30.2190 C   0  0  0  0  0  0  0  0  0  0  0  0
   -3.2610   21.7640  -29.4240 C   0  0  0  0  0  0  0  0  0  0  0  0
   -2.6240   21.9020  -28.1840 C   0  0  0  0  0  0  0  0  0  0  0  0
   -2.2140   20.4700  -27.2390 S   0  0  0  0  0  0  0  0  0  0  0  0
   -3.4740   19.7530  -26.8390 O   0  0  0  0  0  0  0  0  0  0  0  0
   -1.4910   20.8980  -25.9920 O   0  0  0  0  0  0  0  0  0  0  0  0
   -1.1880   19.4080  -28.1750 N   0  0  0  0  0  0  0  0  0  0  0  0
   -0.6710   18.3180  -27.3160 C   0  0  0  0  0  0  0  0  0  0  0  0
    0.5550   17.6450  -27.9380 C   0  0  0  0  0  0  0  0  0  0  0  0
    1.7160   18.6430  -28.0900 C   0  0  0  0  0  0  0  0  0  0  0  0
    1.2340   20.1000  -28.2070 C   0  0  0  0  0  0  0  0  0  0  0  0
   -0.1380   20.1770  -28.8910 C   0  0  0  0  0  0  0  0  0  0  0  0
   -2.2770   23.1770  -27.7220 C   0  0  0  0  0  0  0  0  0  0  0  0
   -2.5780   24.3060  -28.4880 C   0  0  0  0  0  0  0  0  0  0  0  0
   -3.2010   24.1680  -29.7310 C   0  0  0  0  0  0  0  0  0  0  0  0
   -3.4800   25.3020  -30.4860 O   0  0  0  0  0  0  0  0  0  0  0  0
   -5.7030   20.8670  -31.8220 C   0  0  0  0  0  0  0  0  0  0  0  0
   -5.1217   19.2740  -33.4401 H   0  0  0  0  0  0  0  0  0  0  0  0
   -5.0455   18.2219  -34.8940 H   0  0  0  0  0  0  0  0  0  0  0  0
   -6.0956   19.6792  -34.8940 H   0  0  0  0  0  0  0  0  0  0  0  0
   -6.3492   16.3211  -32.6543 H   0  0  0  0  0  0  0  0  0  0  0  0
   -7.2025   16.0354  -34.2090 H   0  0  0  0  0  0  0  0  0  0  0  0
   -5.4669   16.4984  -34.2090 H   0  0  0  0  0  0  0  0  0  0  0  0
   -9.1096   20.8296  -32.1435 H   0  0  0  0  0  0  0  0  0  0  0  0
   -8.7600   23.2830  -31.8633 H   0  0  0  0  0  0  0  0  0  0  0  0
   -6.4608   24.1928  -31.5514 H   0  0  0  0  0  0  0  0  0  0  0  0
   -3.6190   23.0320  -32.3530 H   0  0  0  0  0  0  0  0  0  0  0  0
   -3.5546   20.7648  -29.7781 H   0  0  0  0  0  0  0  0  0  0  0  0
   -0.3910   18.7363  -26.3379 H   0  0  0  0  0  0  0  0  0  0  0  0
   -1.4615   17.5608  -27.2072 H   0  0  0  0  0  0  0  0  0  0  0  0
    0.8765   16.8154  -27.2912 H   0  0  0  0  0  0  0  0  0  0  0  0
    0.2809   17.2726  -28.9361 H   0  0  0  0  0  0  0  0  0  0  0  0
    2.3706   18.5583  -27.2101 H   0  0  0  0  0  0  0  0  0  0  0  0
    2.2497   18.3935  -29.0189 H   0  0  0  0  0  0  0  0  0  0  0  0
    1.1576   20.5348  -27.1995 H   0  0  0  0  0  0  0  0  0  0  0  0
    1.9592   20.6591  -28.8165 H   0  0  0  0  0  0  0  0  0  0  0  0
   -0.4471   21.2316  -28.9387 H   0  0  0  0  0  0  0  0  0  0  0  0
   -0.0315   19.7344  -29.8924 H   0  0  0  0  0  0  0  0  0  0  0  0
   -1.7665   23.2902  -26.7542 H   0  0  0  0  0  0  0  0  0  0  0  0
   -2.3235   25.3075  -28.1110 H   0  0  0  0  0  0  0  0  0  0  0  0
   -4.8428   20.1819  -31.7958 H   0  0  0  0  0  0  0  0  0  0  0  0
  1  2  1  0
  2  3  1  0
  2  4  1  0
  4  5  2  0
  4  6  2  0
  4  7  1  0
  7  8  2  0
  8  9  1  0
  9 10  2  0
 10 11  1  0
 11 12  1  0
 12 13  1  0
 13 14  2  0
 14 15  1  0
 15 16  1  0
 16 17  2  0
 16 18  2  0
 16 19  1  0
 19 20  1  0
 20 21  1  0
 21 22  1  0
 22 23  1  0
 23 24  1  0
 15 25  2  0
 25 26  1  0
 26 27  2  0
 27 28  1  0
 11 29  2  0
 29  7  1  0
 27 13  1  0
 24 19  1  0
  1 30  1  0
  1 31  1  0
  1 32  1  0
  3 33  1  0
  3 34  1  0
  3 35  1  0
  8 36  1  0
  9 37  1  0
 10 38  1  0
 12 39  1  0
 14 40  1  0
 20 41  1  0
 20 42  1  0
 21 43  1  0
 21 44  1  0
 22 45  1  0
 22 46  1  0
 23 47  1  0
 23 48  1  0
 24 49  1  0
 24 50  1  0
 25 51  1  0
 26 52  1  0
 29 53  1  0
M  CHG  1  28  -1
M  END
>  <UniqueID>  (30) 
28

>  <SMILES>  (30) 
CN(C)S(=O)(=O)c1cccc(Nc2cc(S(=O)(=O)N3CCCCC3)ccc2[O-])c1

>  <Energy>  (30) 
61.09731595768583

>  <Genealogy>  (30) 
CN(C)S(=O)(=O)c1cccc(Nc2cc(S(=O)(=O)N3CCCCC3)ccc2[O-])c1 (protonated)
CN(C)S(=O)(=O)c1cccc(Nc2cc(S(=O)(=O)N3CCCCC3)ccc2[O-])c1 (3D coordinates assigned)
CN(C)S(=O)(=O)c1cccc(Nc2cc(S(=O)(=O)N3CCCCC3)ccc2[O-])c1 (nonaromatic ring conformer: 61.09731595768583 kcal/mol)

>  <smiles>  (30) 
CN(C)S(=O)(=O)c1cccc(Nc2cc(S(=O)(=O)N3CCCCC3)ccc2O)c1

>  <score_type>  (30) 
oracle

>  <origin>  (30) 
adgpu

>  <m_score__min__energy>  (30) 
-13.1

>  <m_primary>  (30) 
energy

$$$$
30:0
     RDKit          3D

 51 53  0  0  0  0  0  0  0  0999 V2000
   -6.1050   17.2450  -34.2090 C   0  0  0  0  0  0  0  0  0  0  0  0
   -6.3750   18.5980  -33.7420 N   0  0  0  0  0  0  0  0  0  0  0  0
   -7.3250   18.9250  -32.7180 C   0  0  0  0  0  0  0  0  0  0  0  0
   -7.9280   17.9880  -32.1270 O   0  0  0  0  0  0  0  0  0  0  0  0
   -7.6410   20.3210  -32.3590 C   0  0  0  0  0  0  0  0  0  0  0  0
   -8.9490   20.6720  -31.9910 C   0  0  0  0  0  0  0  0  0  0  0  0
   -9.2490   21.9880  -31.6340 C   0  0  0  0  0  0  0  0  0  0  0  0
   -8.2450   22.9610  -31.6310 C   0  0  0  0  0  0  0  0  0  0  0  0
   -6.9360   22.6290  -31.9940 C   0  0  0  0  0  0  0  0  0  0  0  0
   -5.9230   23.6440  -31.9350 N   0  0  0  0  0  0  0  0  0  0  0  0
   -4.5490   23.4320  -31.5960 C   0  0  0  0  0  0  0  0  0  0  0  0
   -3.8470   22.6180  -32.2570 O   0  0  0  0  0  0  0  0  0  0  0  0
   -3.9540   24.2190  -30.5610 N   0  0  0  0  0  0  0  0  0  0  0  0
   -3.2000   23.6860  -29.4620 C   0  0  0  0  0  0  0  0  0  0  0  0
   -3.4710   22.3880  -29.0330 C   0  0  0  0  0  0  0  0  0  0  0  0
   -2.7900   21.8480  -27.9450 C   0  0  0  0  0  0  0  0  0  0  0  0
   -1.8140   22.5900  -27.2730 C   0  0  0  0  0  0  0  0  0  0  0  0
   -1.2550   22.0170  -26.1300 O   0  0  0  0  0  0  0  0  0  0  0  0
   -1.4510   23.8730  -27.7570 C   0  0  0  0  0  0  0  0  0  0  0  0
   -0.1000   24.8150  -27.0840 S   0  0  0  0  0  0  0  0  0  0  0  0
    0.9810   24.9070  -28.1250 O   0  0  0  0  0  0  0  0  0  0  0  0
    0.5010   24.1580  -25.8750 O   0  0  0  0  0  0  0  0  0  0  0  0
   -0.6580   26.4770  -26.6840 C   0  0  0  0  0  0  0  0  0  0  0  0
    0.5360   27.3510  -26.2450 C   0  0  0  0  0  0  0  0  0  0  0  0
    0.0640   28.5130  -25.3640 C   0  0  0  0  0  0  0  0  0  0  0  0
   -0.5790   28.0470  -24.1160 N   0  0  0  0  0  0  0  0  0  0  0  0
   -1.2430   26.7310  -24.2220 C   0  0  0  0  0  0  0  0  0  0  0  0
   -1.7900   26.4670  -25.6310 C   0  0  0  0  0  0  0  0  0  0  0  0
   -2.1620   24.4160  -28.8490 C   0  0  0  0  0  0  0  0  0  0  0  0
   -1.8210   25.6710  -29.3420 O   0  0  0  0  0  0  0  0  0  0  0  0
   -6.6320   21.2980  -32.3370 C   0  0  0  0  0  0  0  0  0  0  0  0
   -5.9720   16.5783  -33.3442 H   0  0  0  0  0  0  0  0  0  0  0  0
   -6.9503   16.8917  -34.8177 H   0  0  0  0  0  0  0  0  0  0  0  0
   -5.1888   17.2432  -34.8177 H   0  0  0  0  0  0  0  0  0  0  0  0
   -9.7403   19.9079  -31.9838 H   0  0  0  0  0  0  0  0  0  0  0  0
  -10.2776   22.2599  -31.3545 H   0  0  0  0  0  0  0  0  0  0  0  0
   -8.4863   23.9943  -31.3412 H   0  0  0  0  0  0  0  0  0  0  0  0
   -4.2278   21.7861  -29.5573 H   0  0  0  0  0  0  0  0  0  0  0  0
   -3.0225   20.8262  -27.6105 H   0  0  0  0  0  0  0  0  0  0  0  0
   -0.6300   22.5020  -25.5060 H   0  0  0  0  0  0  0  0  0  0  0  0
   -1.0882   26.9228  -27.5929 H   0  0  0  0  0  0  0  0  0  0  0  0
    1.2461   26.7325  -25.6765 H   0  0  0  0  0  0  0  0  0  0  0  0
    1.0208   27.7628  -27.1425 H   0  0  0  0  0  0  0  0  0  0  0  0
    0.9332   29.1347  -25.1032 H   0  0  0  0  0  0  0  0  0  0  0  0
   -0.6831   29.0850  -25.9338 H   0  0  0  0  0  0  0  0  0  0  0  0
    0.1550   27.9800  -23.3700 H   0  0  0  0  0  0  0  0  0  0  0  0
   -0.5141   25.9458  -23.9726 H   0  0  0  0  0  0  0  0  0  0  0  0
   -2.0934   26.7258  -23.5243 H   0  0  0  0  0  0  0  0  0  0  0  0
   -2.2840   25.4843  -25.6453 H   0  0  0  0  0  0  0  0  0  0  0  0
   -2.5042   27.2653  -25.8814 H   0  0  0  0  0  0  0  0  0  0  0  0
   -5.5977   21.0213  -32.5894 H   0  0  0  0  0  0  0  0  0  0  0  0
  1  2  1  0
  2  3  1  0
  3  4  2  0
  3  5  1  0
  5  6  2  0
  6  7  1  0
  7  8  2  0
  8  9  1  0
  9 10  1  0
 10 11  1  0
 11 12  2  0
 11 13  1  0
 13 14  1  0
 14 15  2  0
 15 16  1  0
 16 17  2  0
 17 18  1  0
 17 19  1  0
 19 20  1  0
 20 21  2  0
 20 22  2  0
 20 23  1  0
 23 24  1  0
 24 25  1  0
 25 26  1  0
 26 27  1  0
 27 28  1  0
 19 29  2  0
 29 30  1  0
  9 31  2  0
 31  5  1  0
 29 14  1  0
 28 23  1  0
  1 32  1  0
  1 33  1  0
  1 34  1  0
  6 35  1  0
  7 36  1  0
  8 37  1  0
 15 38  1  0
 16 39  1  0
 18 40  1  0
 23 41  1  0
 24 42  1  0
 24 43  1  0
 25 44  1  0
 25 45  1  0
 26 46  1  0
 27 47  1  0
 27 48  1  0
 28 49  1  0
 28 50  1  0
 31 51  1  0
M  CHG  4   2  -1  10  -1  13  -1  30  -1
M  END
>  <UniqueID>  (31) 
29

>  <SMILES>  (31) 
C[N-]C(=O)c1cccc([N-]C(=O)[N-]c2ccc(O)c(S(=O)(=O)C3CCNCC3)c2[O-])c1

>  <Energy>  (31) 
73.48160919953344

>  <Genealogy>  (31) 
C[N-]C(=O)c1cccc([N-]C(=O)[N-]c2ccc(O)c(S(=O)(=O)C3CCNCC3)c2[O-])c1 (protonated)
C[N-]C(=O)c1cccc([N-]C(=O)[N-]c2ccc(O)c(S(=O)(=O)C3CCNCC3)c2[O-])c1 (3D coordinates assigned)
C[N-]C(=O)c1cccc([N-]C(=O)[N-]c2ccc(O)c(S(=O)(=O)C3CCNCC3)c2[O-])c1 (nonaromatic ring conformer: 73.48160919953344 kcal/mol)

>  <smiles>  (31) 
CNC(=O)c1cccc(NC(=O)Nc2ccc(O)c(S(=O)(=O)C3CCNCC3)c2O)c1

>  <score_type>  (31) 
oracle

>  <origin>  (31) 
adgpu

>  <m_score__min__energy>  (31) 
-14.85

>  <m_primary>  (31) 
energy

$$$$
31:0
     RDKit          3D

 44 46  0  0  0  0  0  0  0  0999 V2000
   -1.0010   19.7190  -32.8080 C   0  0  0  0  0  0  0  0  0  0  0  0
   -2.3440   20.2060  -32.4630 N   0  0  0  0  0  0  0  0  0  0  0  0
   -2.3440   20.8310  -31.1300 C   0  0  0  0  0  0  0  0  0  0  0  0
   -3.7930   21.0420  -30.6800 C   0  0  0  0  0  0  0  0  0  0  0  0
   -4.6270   21.4850  -31.8030 N   0  0  0  0  0  0  0  0  0  0  0  0
   -6.0510   21.5980  -31.6360 C   0  0  0  0  0  0  0  0  0  0  0  0
   -6.9130   20.8340  -32.4380 C   0  0  0  0  0  0  0  0  0  0  0  0
   -8.2930   20.8650  -32.2180 C   0  0  0  0  0  0  0  0  0  0  0  0
   -8.8210   21.6520  -31.1910 C   0  0  0  0  0  0  0  0  0  0  0  0
   -7.9710   22.4200  -30.3910 C   0  0  0  0  0  0  0  0  0  0  0  0
   -6.5890   22.4150  -30.6200 C   0  0  0  0  0  0  0  0  0  0  0  0
   -5.7410   23.2470  -29.8220 N   0  0  0  0  0  0  0  0  0  0  0  0
   -4.8790   24.2300  -30.4060 C   0  0  0  0  0  0  0  0  0  0  0  0
   -5.0170   24.5460  -31.6190 O   0  0  0  0  0  0  0  0  0  0  0  0
   -3.9310   24.9090  -29.5760 N   0  0  0  0  0  0  0  0  0  0  0  0
   -2.8820   24.3210  -28.7880 C   0  0  0  0  0  0  0  0  0  0  0  0
   -3.1410   23.0920  -28.1650 C   0  0  0  0  0  0  0  0  0  0  0  0
   -2.1580   22.4630  -27.3950 C   0  0  0  0  0  0  0  0  0  0  0  0
   -0.8990   23.0490  -27.2550 C   0  0  0  0  0  0  0  0  0  0  0  0
   -0.6160   24.2560  -27.8960 C   0  0  0  0  0  0  0  0  0  0  0  0
   -1.5940   24.8910  -28.6740 C   0  0  0  0  0  0  0  0  0  0  0  0
   -1.2530   26.0580  -29.3450 O   0  0  0  0  0  0  0  0  0  0  0  0
   -3.9960   22.0350  -33.0080 C   0  0  0  0  0  0  0  0  0  0  0  0
   -2.8410   21.1370  -33.5020 C   0  0  0  0  0  0  0  0  0  0  0  0
   -0.4371   19.5145  -31.8860 H   0  0  0  0  0  0  0  0  0  0  0  0
   -1.0865   18.7946  -33.3981 H   0  0  0  0  0  0  0  0  0  0  0  0
   -0.4742   20.4833  -33.3981 H   0  0  0  0  0  0  0  0  0  0  0  0
   -1.8272   20.1745  -30.4145 H   0  0  0  0  0  0  0  0  0  0  0  0
   -1.8226   21.7987  -31.1725 H   0  0  0  0  0  0  0  0  0  0  0  0
   -4.1904   20.0945  -30.2872 H   0  0  0  0  0  0  0  0  0  0  0  0
   -3.8110   21.8170  -29.8996 H   0  0  0  0  0  0  0  0  0  0  0  0
   -6.5008   20.2081  -33.2432 H   0  0  0  0  0  0  0  0  0  0  0  0
   -8.9642   20.2692  -32.8540 H   0  0  0  0  0  0  0  0  0  0  0  0
   -9.9063   21.6669  -31.0123 H   0  0  0  0  0  0  0  0  0  0  0  0
   -8.3890   23.0314  -29.5776 H   0  0  0  0  0  0  0  0  0  0  0  0
   -5.8520   23.2290  -28.7830 H   0  0  0  0  0  0  0  0  0  0  0  0
   -4.1267   22.6182  -28.2831 H   0  0  0  0  0  0  0  0  0  0  0  0
   -2.3770   21.5058  -26.8993 H   0  0  0  0  0  0  0  0  0  0  0  0
   -0.1299   22.5595  -26.6395 H   0  0  0  0  0  0  0  0  0  0  0  0
    0.3797   24.7114  -27.7902 H   0  0  0  0  0  0  0  0  0  0  0  0
   -4.7521   22.1144  -33.8029 H   0  0  0  0  0  0  0  0  0  0  0  0
   -3.5827   23.0239  -32.7605 H   0  0  0  0  0  0  0  0  0  0  0  0
   -3.1982   20.5470  -34.3589 H   0  0  0  0  0  0  0  0  0  0  0  0
   -2.0059   21.7981  -33.7767 H   0  0  0  0  0  0  0  0  0  0  0  0
  1  2  1  0
  2  3  1  0
  3  4  1  0
  4  5  1  0
  5  6  1  0
  6  7  2  0
  7  8  1  0
  8  9  2  0
  9 10  1  0
 10 11  2  0
 11 12  1  0
 12 13  1  0
 13 14  2  0
 13 15  1  0
 15 16  1  0
 16 17  2  0
 17 18  1  0
 18 19  2  0
 19 20  1  0
 20 21  2  0
 21 22  1  0
  5 23  1  0
 23 24  1  0
 24  2  1  0
 11  6  1  0
 21 16  1  0
  1 25  1  0
  1 26  1  0
  1 27  1  0
  3 28  1  0
  3 29  1  0
  4 30  1  0
  4 31  1  0
  7 32  1  0
  8 33  1  0
  9 34  1  0
 10 35  1  0
 12 36  1  0
 17 37  1  0
 18 38  1  0
 19 39  1  0
 20 40  1  0
 23 41  1  0
 23 42  1  0
 24 43  1  0
 24 44  1  0
M  CHG  2  15  -1  22  -1
M  END
>  <UniqueID>  (32) 
30

>  <SMILES>  (32) 
CN1CCN(c2ccccc2NC(=O)[N-]c2ccccc2[O-])CC1

>  <Energy>  (32) 
63.98331890132381

>  <Genealogy>  (32) 
CN1CCN(c2ccccc2NC(=O)[N-]c2ccccc2[O-])CC1 (protonated)
CN1CCN(c2ccccc2NC(=O)[N-]c2ccccc2[O-])CC1 (3D coordinates assigned)
CN1CCN(c2ccccc2NC(=O)[N-]c2ccccc2[O-])CC1 (nonaromatic ring conformer: 63.98331890132381 kcal/mol)

>  <smiles>  (32) 
CN1CCN(c2ccccc2NC(=O)Nc2ccccc2O)CC1

>  <score_type>  (32) 
oracle

>  <origin>  (32) 
adgpu

>  <m_score__min__energy>  (32) 
-12.140000000000001

>  <m_primary>  (32) 
energy

$$$$
32:0
     RDKit          3D

 50 53  0  0  0  0  0  0  0  0999 V2000
    2.2470   17.4730  -28.2100 C   0  0  0  0  0  0  0  0  0  0  0  0
    1.1620   18.5090  -28.1810 C   0  0  0  0  0  0  0  0  0  0  0  0
   -0.1880   18.1300  -28.1290 C   0  0  0  0  0  0  0  0  0  0  0  0
   -1.1930   19.1000  -28.1290 C   0  0  0  0  0  0  0  0  0  0  0  0
   -0.8640   20.4640  -28.1790 C   0  0  0  0  0  0  0  0  0  0  0  0
   -1.9150   21.5040  -28.1550 C   0  0  0  0  0  0  0  0  0  0  0  0
   -2.3000   22.1420  -27.0310 N   0  0  0  0  0  0  0  0  0  0  0  0
   -3.2850   22.9660  -27.3650 N   0  0  0  0  0  0  0  0  0  0  0  0
   -3.5020   22.8180  -28.6880 C   0  0  0  0  0  0  0  0  0  0  0  0
   -4.6000   23.4960  -29.4090 C   0  0  0  0  0  0  0  0  0  0  0  0
   -5.8960   22.9500  -29.4130 C   0  0  0  0  0  0  0  0  0  0  0  0
   -6.9340   23.5950  -30.0900 C   0  0  0  0  0  0  0  0  0  0  0  0
   -6.6960   24.7970  -30.7570 C   0  0  0  0  0  0  0  0  0  0  0  0
   -5.4180   25.3600  -30.7450 C   0  0  0  0  0  0  0  0  0  0  0  0
   -4.3710   24.7180  -30.0730 C   0  0  0  0  0  0  0  0  0  0  0  0
   -3.1040   25.2910  -30.0870 O   0  0  0  0  0  0  0  0  0  0  0  0
   -2.6470   21.9140  -29.2120 N   0  0  0  0  0  0  0  0  0  0  0  0
   -2.6060   21.4210  -30.5320 N   0  0  0  0  0  0  0  0  0  0  0  0
   -3.8360   21.0640  -31.2050 C   0  0  0  0  0  0  0  0  0  0  0  0
   -4.4660   19.8270  -30.9720 C   0  0  0  0  0  0  0  0  0  0  0  0
   -5.6740   19.5150  -31.6010 C   0  0  0  0  0  0  0  0  0  0  0  0
   -6.2770   20.4300  -32.4730 C   0  0  0  0  0  0  0  0  0  0  0  0
   -7.5760   20.0810  -33.1370 C   0  0  0  0  0  0  0  0  0  0  0  0
   -5.6520   21.6610  -32.7180 C   0  0  0  0  0  0  0  0  0  0  0  0
   -4.4440   21.9740  -32.0900 C   0  0  0  0  0  0  0  0  0  0  0  0
   -1.0590   21.2370  -31.3140 S   0  0  0  0  0  0  0  0  0  0  0  0
   -1.2490   21.4300  -33.0210 N   0  0  0  0  0  0  0  0  0  0  0  0
   -0.1010   22.2800  -30.8110 O   0  0  0  0  0  0  0  0  0  0  0  0
   -0.4920   19.8780  -31.0150 O   0  0  0  0  0  0  0  0  0  0  0  0
    0.4850   20.8400  -28.2650 C   0  0  0  0  0  0  0  0  0  0  0  0
    1.4910   19.8700  -28.2650 C   0  0  0  0  0  0  0  0  0  0  0  0
    2.5266   17.2060  -27.1802 H   0  0  0  0  0  0  0  0  0  0  0  0
    1.8846   16.5772  -28.7355 H   0  0  0  0  0  0  0  0  0  0  0  0
    3.1251   17.8763  -28.7355 H   0  0  0  0  0  0  0  0  0  0  0  0
   -0.4561   17.0640  -28.0880 H   0  0  0  0  0  0  0  0  0  0  0  0
   -2.2487   18.7934  -28.0896 H   0  0  0  0  0  0  0  0  0  0  0  0
   -6.0938   22.0086  -28.8794 H   0  0  0  0  0  0  0  0  0  0  0  0
   -7.9417   23.1539  -30.0972 H   0  0  0  0  0  0  0  0  0  0  0  0
   -7.5144   25.3010  -31.2920 H   0  0  0  0  0  0  0  0  0  0  0  0
   -5.2334   26.3113  -31.2654 H   0  0  0  0  0  0  0  0  0  0  0  0
   -4.0033   19.0996  -30.2888 H   0  0  0  0  0  0  0  0  0  0  0  0
   -6.1546   18.5442  -31.4100 H   0  0  0  0  0  0  0  0  0  0  0  0
   -8.3369   19.8766  -32.3694 H   0  0  0  0  0  0  0  0  0  0  0  0
   -7.9049   20.9226  -33.7643 H   0  0  0  0  0  0  0  0  0  0  0  0
   -7.4388   19.1879  -33.7643 H   0  0  0  0  0  0  0  0  0  0  0  0
   -6.1145   22.3829  -33.4072 H   0  0  0  0  0  0  0  0  0  0  0  0
   -3.9625   22.9427  -32.2895 H   0  0  0  0  0  0  0  0  0  0  0  0
   -2.1220   21.9840  -33.1700 H   0  0  0  0  0  0  0  0  0  0  0  0
    0.7524   21.9048  -28.3328 H   0  0  0  0  0  0  0  0  0  0  0  0
    2.5457   20.1752  -28.3312 H   0  0  0  0  0  0  0  0  0  0  0  0
  1  2  1  0
  2  3  2  0
  3  4  1  0
  4  5  2  0
  5  6  1  0
  6  7  2  0
  7  8  1  0
  8  9  2  0
  9 10  1  0
 10 11  2  0
 11 12  1  0
 12 13  2  0
 13 14  1  0
 14 15  2  0
 15 16  1  0
  9 17  1  0
 17 18  1  0
 18 19  1  0
 19 20  2  0
 20 21  1  0
 21 22  2  0
 22 23  1  0
 22 24  1  0
 24 25  2  0
 18 26  1  0
 26 27  1  0
 26 28  2  0
 26 29  2  0
  5 30  1  0
 30 31  2  0
 31  2  1  0
 17  6  1  0
 25 19  1  0
 15 10  1  0
  1 32  1  0
  1 33  1  0
  1 34  1  0
  3 35  1  0
  4 36  1  0
 11 37  1  0
 12 38  1  0
 13 39  1  0
 14 40  1  0
 20 41  1  0
 21 42  1  0
 23 43  1  0
 23 44  1  0
 23 45  1  0
 24 46  1  0
 25 47  1  0
 27 48  1  0
 30 49  1  0
 31 50  1  0
M  CHG  2  16  -1  27  -1
M  END
>  <UniqueID>  (33) 
31

>  <SMILES>  (33) 
Cc1ccc(-c2nnc(-c3ccccc3[O-])n2N(c2ccc(C)cc2)S([NH-])(=O)=O)cc1

>  <Energy>  (33) 
103.00328600783523

>  <Genealogy>  (33) 
Cc1ccc(-c2nnc(-c3ccccc3[O-])n2N(c2ccc(C)cc2)S([NH-])(=O)=O)cc1 (protonated)
Cc1ccc(-c2nnc(-c3ccccc3[O-])n2N(c2ccc(C)cc2)S([NH-])(=O)=O)cc1 (3D coordinates assigned)
Cc1ccc(-c2nnc(-c3ccccc3[O-])n2N(c2ccc(C)cc2)S([NH-])(=O)=O)cc1 (optimized conformer: 103.00328600783523 kcal/mol)

>  <smiles>  (33) 
Cc1ccc(-c2nnc(-c3ccccc3O)n2N(c2ccc(C)cc2)S(N)(=O)=O)cc1

>  <score_type>  (33) 
oracle

>  <origin>  (33) 
adgpu

>  <m_score__min__energy>  (33) 
-10.81

>  <m_primary>  (33) 
energy

$$$$
33:0
     RDKit          3D

 56 59  0  0  0  0  0  0  0  0999 V2000
    0.0545   28.2506  -27.1929 H   0  0  0  0  0  0  0  0  0  0  0  0
   -0.4310   27.2900  -26.9660 C   0  0  0  0  0  0  0  0  0  0  0  0
   -0.2440   26.2230  -27.7890 N   0  0  0  0  0  0  0  0  0  0  0  0
   -0.8250   25.0170  -27.5390 C   0  0  0  0  0  0  0  0  0  0  0  0
   -0.5410   23.6490  -28.6590 S   0  0  0  0  0  0  0  0  0  0  0  0
   -2.2860   23.4830  -29.0680 C   0  0  0  0  0  0  0  0  0  0  0  0
   -2.9200   24.5550  -29.7110 C   0  0  0  0  0  0  0  0  0  0  0  0
   -2.3502   25.4671  -29.9421 H   0  0  0  0  0  0  0  0  0  0  0  0
   -4.2680   24.4740  -30.0600 C   0  0  0  0  0  0  0  0  0  0  0  0
   -4.7502   25.3117  -30.5851 H   0  0  0  0  0  0  0  0  0  0  0  0
   -5.0100   23.3270  -29.7430 C   0  0  0  0  0  0  0  0  0  0  0  0
   -6.3880   23.2160  -30.1250 N   0  0  0  0  0  0  0  0  0  0  0  0
   -6.9630   22.3860  -30.9600 C   0  0  0  0  0  0  0  0  0  0  0  0
   -8.3580   22.2890  -30.8730 C   0  0  0  0  0  0  0  0  0  0  0  0
   -8.9174   23.0011  -30.2485 H   0  0  0  0  0  0  0  0  0  0  0  0
   -9.0410   21.2970  -31.5720 C   0  0  0  0  0  0  0  0  0  0  0  0
  -10.1334   21.2109  -31.4759 H   0  0  0  0  0  0  0  0  0  0  0  0
   -8.3630   20.4380  -32.3700 N   0  0  0  0  0  0  0  0  0  0  0  0
   -7.0220   20.5380  -32.5590 C   0  0  0  0  0  0  0  0  0  0  0  0
   -6.3930   19.6490  -33.4380 C   0  0  0  0  0  0  0  0  0  0  0  0
   -6.9730   18.8339  -33.8954 H   0  0  0  0  0  0  0  0  0  0  0  0
   -5.0290   19.7870  -33.7420 C   0  0  0  0  0  0  0  0  0  0  0  0
   -4.3560   18.8730  -34.5700 O   0  0  0  0  0  0  0  0  0  0  0  0
   -3.6870   17.7050  -34.1080 C   0  0  0  0  0  0  0  0  0  0  0  0
   -3.6820   17.6962  -33.0080 H   0  0  0  0  0  0  0  0  0  0  0  0
   -4.2103   16.8116  -34.4794 H   0  0  0  0  0  0  0  0  0  0  0  0
   -2.6516   17.7044  -34.4794 H   0  0  0  0  0  0  0  0  0  0  0  0
   -4.3150   20.8710  -33.2010 C   0  0  0  0  0  0  0  0  0  0  0  0
   -2.9320   21.0830  -33.5250 N   0  0  0  0  0  0  0  0  0  0  0  0
   -2.6770   21.1710  -34.5350 H   0  0  0  0  0  0  0  0  0  0  0  0
   -1.8710   20.9420  -32.5680 C   0  0  0  0  0  0  0  0  0  0  0  0
   -2.1180   20.5570  -31.3930 O   0  0  0  0  0  0  0  0  0  0  0  0
   -0.4500   21.1820  -32.9790 C   0  0  0  0  0  0  0  0  0  0  0  0
    0.0923   20.2250  -32.9821 H   0  0  0  0  0  0  0  0  0  0  0  0
    0.0136   21.8788  -32.2651 H   0  0  0  0  0  0  0  0  0  0  0  0
   -0.3970   21.7510  -34.2730 O   0  0  0  0  0  0  0  0  0  0  0  0
   -0.0590   20.7670  -35.2270 C   0  0  0  0  0  0  0  0  0  0  0  0
    0.2565   19.8485  -34.7104 H   0  0  0  0  0  0  0  0  0  0  0  0
   -0.9345   20.5511  -35.8570 H   0  0  0  0  0  0  0  0  0  0  0  0
    0.7644   21.1346  -35.8570 H   0  0  0  0  0  0  0  0  0  0  0  0
   -4.9380   21.7450  -32.3040 C   0  0  0  0  0  0  0  0  0  0  0  0
   -4.3721   22.5983  -31.9020 H   0  0  0  0  0  0  0  0  0  0  0  0
   -6.2790   21.5540  -31.9040 C   0  0  0  0  0  0  0  0  0  0  0  0
   -4.3770   22.2420  -29.1300 C   0  0  0  0  0  0  0  0  0  0  0  0
   -4.9435   21.3188  -28.9384 H   0  0  0  0  0  0  0  0  0  0  0  0
   -3.0250   22.3180  -28.7560 C   0  0  0  0  0  0  0  0  0  0  0  0
   -2.3860   21.1340  -28.0810 C   0  0  0  0  0  0  0  0  0  0  0  0
   -2.4512   21.2549  -26.9896 H   0  0  0  0  0  0  0  0  0  0  0  0
   -2.9103   20.2144  -28.3801 H   0  0  0  0  0  0  0  0  0  0  0  0
   -1.3295   21.0675  -28.3801 H   0  0  0  0  0  0  0  0  0  0  0  0
   -1.6510   24.8590  -26.4210 C   0  0  0  0  0  0  0  0  0  0  0  0
   -2.1360   23.8923  -26.2201 H   0  0  0  0  0  0  0  0  0  0  0  0
   -1.8530   25.9420  -25.5630 C   0  0  0  0  0  0  0  0  0  0  0  0
   -2.4944   25.8305  -24.6763 H   0  0  0  0  0  0  0  0  0  0  0  0
   -1.2390   27.1670  -25.8330 C   0  0  0  0  0  0  0  0  0  0  0  0
   -1.3899   28.0250  -25.1614 H   0  0  0  0  0  0  0  0  0  0  0  0
  1  2  1  0
  2  3  2  0
  3  4  1  0
  4  5  1  0
  5  6  1  0
  6  7  2  0
  7  8  1  0
  7  9  1  0
  9 10  1  0
  9 11  2  0
 11 12  1  0
 12 13  2  0
 13 14  1  0
 14 15  1  0
 14 16  2  0
 16 17  1  0
 16 18  1  0
 18 19  1  0
 19 20  2  0
 20 21  1  0
 20 22  1  0
 22 23  1  0
 23 24  1  0
 24 25  1  0
 24 26  1  0
 24 27  1  0
 22 28  2  0
 28 29  1  0
 29 30  1  0
 29 31  1  0
 31 32  2  0
 31 33  1  0
 33 34  1  0
 33 35  1  0
 33 36  1  0
 36 37  1  0
 37 38  1  0
 37 39  1  0
 37 40  1  0
 28 41  1  0
 41 42  1  0
 41 43  2  0
 11 44  1  0
 44 45  1  0
 44 46  2  0
 46 47  1  0
 47 48  1  0
 47 49  1  0
 47 50  1  0
  4 51  2  0
 51 52  1  0
 51 53  1  0
 53 54  1  0
 53 55  2  0
 55 56  1  0
 55  2  1  0
 46  6  1  0
 43 13  1  0
 43 19  1  0
M  CHG  1  18  -1
M  END
>  <UniqueID>  (34) 
32

>  <SMILES>  (34) 
COCC(=O)Nc1cc2/c(=N\c3ccc(Sc4ccccn4)c(C)c3)cc[n-]c2cc1OC

>  <Energy>  (34) 
84.84878467738062

>  <Genealogy>  (34) 
COCC(=O)Nc1cc2c(=Nc3ccc(Sc4ccccn4)c(C)c3)cc[n-]c2cc1OC (protonated)
COCC(=O)Nc1cc2/c(=N\c3ccc(Sc4ccccn4)c(C)c3)cc[n-]c2cc1OC (cis-trans isomerization)
COCC(=O)Nc1cc2/c(=N\c3ccc(Sc4ccccn4)c(C)c3)cc[n-]c2cc1OC (3D coordinates assigned)
COCC(=O)Nc1cc2/c(=N\c3ccc(Sc4ccccn4)c(C)c3)cc[n-]c2cc1OC (optimized conformer: 84.84878467738062 kcal/mol)

>  <smiles>  (34) 
COCC(=O)Nc1cc2c(=Nc3ccc(Sc4ccccn4)c(C)c3)cc[nH]c2cc1OC

>  <score_type>  (34) 
oracle

>  <origin>  (34) 
adgpu

>  <m_score__min__energy>  (34) 
-8.8800000000000008

>  <m_primary>  (34) 
energy

$$$$
34:0
     RDKit          3D

 44 45  0  0  0  0  0  0  0  0999 V2000
   -9.3040   19.4240  -32.5650 C   0  0  0  0  0  0  0  0  0  0  0  0
   -8.3600   20.5220  -32.1470 C   0  0  0  0  0  0  0  0  0  0  0  0
   -8.8130   21.5270  -31.2770 C   0  0  0  0  0  0  0  0  0  0  0  0
   -7.9610   22.5570  -30.8760 C   0  0  0  0  0  0  0  0  0  0  0  0
   -6.6430   22.6020  -31.3410 C   0  0  0  0  0  0  0  0  0  0  0  0
   -5.5710   23.9110  -30.8530 S   0  0  0  0  0  0  0  0  0  0  0  0
   -6.2100   25.2200  -31.2240 O   0  0  0  0  0  0  0  0  0  0  0  0
   -4.2440   23.7990  -31.5500 O   0  0  0  0  0  0  0  0  0  0  0  0
   -5.3160   23.8640  -29.1380 N   0  0  0  0  0  0  0  0  0  0  0  0
   -4.0590   23.5260  -28.5240 C   0  0  0  0  0  0  0  0  0  0  0  0
   -3.7880   22.2270  -28.0520 C   0  0  0  0  0  0  0  0  0  0  0  0
   -2.5570   21.9370  -27.4550 C   0  0  0  0  0  0  0  0  0  0  0  0
   -1.5860   22.9310  -27.3260 C   0  0  0  0  0  0  0  0  0  0  0  0
   -1.8410   24.2250  -27.7950 C   0  0  0  0  0  0  0  0  0  0  0  0
   -0.6220   25.4910  -27.6560 S   0  0  0  0  0  0  0  0  0  0  0  0
   -0.9140   26.6010  -28.6290 O   0  0  0  0  0  0  0  0  0  0  0  0
    0.7190   24.8990  -27.9850 O   0  0  0  0  0  0  0  0  0  0  0  0
   -0.6090   26.1160  -26.0250 N   0  0  0  0  0  0  0  0  0  0  0  0
   -1.8510   25.7290  -25.3430 C   0  0  0  0  0  0  0  0  0  0  0  0
   -0.4940   27.5800  -26.0660 C   0  0  0  0  0  0  0  0  0  0  0  0
   -3.0720   24.5160  -28.3970 C   0  0  0  0  0  0  0  0  0  0  0  0
   -6.1770   21.6010  -32.2020 C   0  0  0  0  0  0  0  0  0  0  0  0
   -7.0250   20.5600  -32.6170 C   0  0  0  0  0  0  0  0  0  0  0  0
   -6.4950   19.5050  -33.5530 C   0  0  0  0  0  0  0  0  0  0  0  0
   -9.7212   18.9388  -31.6703 H   0  0  0  0  0  0  0  0  0  0  0  0
  -10.1210   19.8514  -33.1649 H   0  0  0  0  0  0  0  0  0  0  0  0
   -8.7589   18.6804  -33.1649 H   0  0  0  0  0  0  0  0  0  0  0  0
   -9.8490   21.5021  -30.9082 H   0  0  0  0  0  0  0  0  0  0  0  0
   -8.3276   23.3363  -30.1917 H   0  0  0  0  0  0  0  0  0  0  0  0
   -6.1560   23.9980  -28.5310 H   0  0  0  0  0  0  0  0  0  0  0  0
   -4.5474   21.4376  -28.1533 H   0  0  0  0  0  0  0  0  0  0  0  0
   -2.3533   20.9211  -27.0856 H   0  0  0  0  0  0  0  0  0  0  0  0
   -0.6196   22.6975  -26.8554 H   0  0  0  0  0  0  0  0  0  0  0  0
   -1.7013   25.7756  -24.2542 H   0  0  0  0  0  0  0  0  0  0  0  0
   -2.6581   26.4182  -25.6320 H   0  0  0  0  0  0  0  0  0  0  0  0
   -2.1237   24.7033  -25.6320 H   0  0  0  0  0  0  0  0  0  0  0  0
   -0.4630   27.9742  -25.0395 H   0  0  0  0  0  0  0  0  0  0  0  0
    0.4290   27.8606  -26.5946 H   0  0  0  0  0  0  0  0  0  0  0  0
   -1.3618   28.0013  -26.5946 H   0  0  0  0  0  0  0  0  0  0  0  0
   -3.2672   25.5308  -28.7741 H   0  0  0  0  0  0  0  0  0  0  0  0
   -5.1363   21.6297  -32.5573 H   0  0  0  0  0  0  0  0  0  0  0  0
   -6.0768   18.6725  -32.9681 H   0  0  0  0  0  0  0  0  0  0  0  0
   -7.3132   19.1329  -34.1871 H   0  0  0  0  0  0  0  0  0  0  0  0
   -5.7081   19.9393  -34.1871 H   0  0  0  0  0  0  0  0  0  0  0  0
  1  2  1  0
  2  3  2  0
  3  4  1  0
  4  5  2  0
  5  6  1  0
  6  7  2  0
  6  8  2  0
  6  9  1  0
  9 10  1  0
 10 11  2  0
 11 12  1  0
 12 13  2  0
 13 14  1  0
 14 15  1  0
 15 16  2  0
 15 17  2  0
 15 18  1  0
 18 19  1  0
 18 20  1  0
 14 21  2  0
  5 22  1  0
 22 23  2  0
 23 24  1  0
 23  2  1  0
 21 10  1  0
  1 25  1  0
  1 26  1  0
  1 27  1  0
  3 28  1  0
  4 29  1  0
  9 30  1  0
 11 31  1  0
 12 32  1  0
 13 33  1  0
 19 34  1  0
 19 35  1  0
 19 36  1  0
 20 37  1  0
 20 38  1  0
 20 39  1  0
 21 40  1  0
 22 41  1  0
 24 42  1  0
 24 43  1  0
 24 44  1  0
M  END
>  <UniqueID>  (35) 
33

>  <SMILES>  (35) 
Cc1ccc(S(=O)(=O)Nc2cccc(S(=O)(=O)N(C)C)c2)cc1C

>  <Energy>  (35) 
44.05295484230827

>  <Genealogy>  (35) 
Cc1ccc(S(=O)(=O)Nc2cccc(S(=O)(=O)N(C)C)c2)cc1C (3D coordinates assigned)
Cc1ccc(S(=O)(=O)Nc2cccc(S(=O)(=O)N(C)C)c2)cc1C (optimized conformer: 44.05295484230827 kcal/mol)

>  <smiles>  (35) 
Cc1ccc(S(=O)(=O)Nc2cccc(S(=O)(=O)N(C)C)c2)cc1C

>  <score_type>  (35) 
oracle

>  <origin>  (35) 
adgpu

>  <m_score__min__energy>  (35) 
-9.8499999999999996

>  <m_primary>  (35) 
energy

$$$$
35:0
     RDKit          3D

 24 25  0  0  0  0  0  0  0  0999 V2000
   -3.5140   26.0420  -31.2230 H   0  0  0  0  0  0  0  0  0  0  0  0
   -3.4810   25.2990  -30.4880 N   0  0  0  0  0  0  0  0  0  0  0  0
   -5.1130   24.8330  -30.1690 S   0  0  0  0  0  0  0  0  0  0  0  0
   -6.0320   25.9740  -30.4980 O   0  0  0  0  0  0  0  0  0  0  0  0
   -5.2640   24.4970  -28.7120 O   0  0  0  0  0  0  0  0  0  0  0  0
   -5.5260   23.4300  -31.1500 C   0  0  0  0  0  0  0  0  0  0  0  0
   -4.5260   22.5460  -31.5760 C   0  0  0  0  0  0  0  0  0  0  0  0
   -3.4767   22.7334  -31.3042 H   0  0  0  0  0  0  0  0  0  0  0  0
   -4.8570   21.4270  -32.3450 C   0  0  0  0  0  0  0  0  0  0  0  0
   -4.0645   20.7489  -32.6945 H   0  0  0  0  0  0  0  0  0  0  0  0
   -6.1990   21.1640  -32.6740 C   0  0  0  0  0  0  0  0  0  0  0  0
   -6.5690   20.0470  -33.4980 N   0  0  0  0  0  0  0  0  0  0  0  0
   -6.3400   18.7920  -33.2470 C   0  0  0  0  0  0  0  0  0  0  0  0
   -6.6950   17.8150  -34.1080 N   0  0  0  0  0  0  0  0  0  0  0  0
   -6.4020   16.5830  -33.6130 C   0  0  0  0  0  0  0  0  0  0  0  0
   -6.6750   15.4260  -34.3350 O   0  0  0  0  0  0  0  0  0  0  0  0
   -6.3900   14.5160  -33.9920 H   0  0  0  0  0  0  0  0  0  0  0  0
   -5.8200   16.5660  -32.3480 C   0  0  0  0  0  0  0  0  0  0  0  0
   -5.5123   15.6709  -31.7875 H   0  0  0  0  0  0  0  0  0  0  0  0
   -5.6720   18.1590  -31.8310 S   0  0  0  0  0  0  0  0  0  0  0  0
   -7.1910   22.0650  -32.2690 C   0  0  0  0  0  0  0  0  0  0  0  0
   -8.2378   21.8911  -32.5588 H   0  0  0  0  0  0  0  0  0  0  0  0
   -6.8610   23.1840  -31.4990 C   0  0  0  0  0  0  0  0  0  0  0  0
   -7.6510   23.8732  -31.1661 H   0  0  0  0  0  0  0  0  0  0  0  0
  1  2  1  0
  2  3  1  0
  3  4  2  0
  3  5  2  0
  3  6  1  0
  6  7  2  0
  7  8  1  0
  7  9  1  0
  9 10  1  0
  9 11  2  0
 11 12  1  0
 12 13  2  0
 13 14  1  0
 14 15  1  0
 15 16  1  0
 16 17  1  0
 15 18  2  0
 18 19  1  0
 18 20  1  0
 11 21  1  0
 21 22  1  0
 21 23  2  0
 23 24  1  0
 23  6  1  0
 20 13  1  0
M  CHG  2   2  -1  14  -1
M  END
>  <UniqueID>  (36) 
34

>  <SMILES>  (36) 
[NH-]S(=O)(=O)c1ccc(/N=c2/[n-]c(O)cs2)cc1

>  <Energy>  (36) 
61.2146067567523

>  <Genealogy>  (36) 
[NH-]S(=O)(=O)c1ccc(N=c2[n-]c(O)cs2)cc1 (protonated)
[NH-]S(=O)(=O)c1ccc(/N=c2/[n-]c(O)cs2)cc1 (cis-trans isomerization)
[NH-]S(=O)(=O)c1ccc(/N=c2/[n-]c(O)cs2)cc1 (3D coordinates assigned)
[NH-]S(=O)(=O)c1ccc(/N=c2/[n-]c(O)cs2)cc1 (optimized conformer: 61.2146067567523 kcal/mol)

>  <smiles>  (36) 
NS(=O)(=O)c1ccc(N=c2[nH]c(O)cs2)cc1

>  <score_type>  (36) 
oracle

>  <origin>  (36) 
adgpu

>  <m_score__min__energy>  (36) 
-8.6099999999999994

>  <m_primary>  (36) 
energy

$$$$
36:0
     RDKit          3D

 57 60  0  0  0  0  0  0  0  0999 V2000
   -0.8500   26.8060  -28.1590 C   0  0  0  0  0  0  0  0  0  0  0  0
   -1.6000   25.9100  -28.9720 O   0  0  0  0  0  0  0  0  0  0  0  0
   -2.0610   24.6510  -28.5540 C   0  0  0  0  0  0  0  0  0  0  0  0
   -1.4130   23.9170  -27.5400 C   0  0  0  0  0  0  0  0  0  0  0  0
   -1.8950   22.6640  -27.1590 C   0  0  0  0  0  0  0  0  0  0  0  0
   -3.0160   22.1240  -27.7880 C   0  0  0  0  0  0  0  0  0  0  0  0
   -3.6680   22.8410  -28.7940 C   0  0  0  0  0  0  0  0  0  0  0  0
   -3.2070   24.1160  -29.1700 C   0  0  0  0  0  0  0  0  0  0  0  0
   -3.8400   24.8630  -30.2210 N   0  0  0  0  0  0  0  0  0  0  0  0
   -4.8270   24.3710  -31.1370 C   0  0  0  0  0  0  0  0  0  0  0  0
   -5.7850   25.1100  -31.4910 O   0  0  0  0  0  0  0  0  0  0  0  0
   -4.6720   23.0210  -31.7280 C   0  0  0  0  0  0  0  0  0  0  0  0
   -3.3930   22.5910  -32.1290 C   0  0  0  0  0  0  0  0  0  0  0  0
   -3.2130   21.3430  -32.7360 C   0  0  0  0  0  0  0  0  0  0  0  0
   -1.6080   20.8470  -33.2680 S   0  0  0  0  0  0  0  0  0  0  0  0
   -0.9990   21.9260  -34.1220 O   0  0  0  0  0  0  0  0  0  0  0  0
   -1.7250   19.5950  -34.0920 O   0  0  0  0  0  0  0  0  0  0  0  0
   -0.6120   20.5330  -31.8700 N   0  0  0  0  0  0  0  0  0  0  0  0
   -1.1880   19.4860  -31.0270 C   0  0  0  0  0  0  0  0  0  0  0  0
   -0.7190   19.7630  -29.6040 C   0  0  0  0  0  0  0  0  0  0  0  0
   -0.2180   21.2000  -29.6160 C   0  0  0  0  0  0  0  0  0  0  0  0
   -0.5130   21.7140  -31.0140 C   0  0  0  0  0  0  0  0  0  0  0  0
   -4.3160   20.5140  -32.9580 C   0  0  0  0  0  0  0  0  0  0  0  0
   -5.5890   20.9200  -32.5570 C   0  0  0  0  0  0  0  0  0  0  0  0
   -5.7800   22.1610  -31.9340 C   0  0  0  0  0  0  0  0  0  0  0  0
   -7.0940   22.5030  -31.4650 N   0  0  0  0  0  0  0  0  0  0  0  0
   -7.6220   21.9260  -30.2280 C   0  0  0  0  0  0  0  0  0  0  0  0
   -9.0260   21.3740  -30.4960 C   0  0  0  0  0  0  0  0  0  0  0  0
   -9.8500   22.3620  -31.0910 O   0  0  0  0  0  0  0  0  0  0  0  0
   -9.3500   22.7080  -32.3700 C   0  0  0  0  0  0  0  0  0  0  0  0
   -7.9720   23.3670  -32.2550 C   0  0  0  0  0  0  0  0  0  0  0  0
   -1.0370   26.5826  -27.0983 H   0  0  0  0  0  0  0  0  0  0  0  0
    0.2220   26.6874  -28.3752 H   0  0  0  0  0  0  0  0  0  0  0  0
   -1.1554   27.8404  -28.3752 H   0  0  0  0  0  0  0  0  0  0  0  0
   -0.5228   24.3340  -27.0465 H   0  0  0  0  0  0  0  0  0  0  0  0
   -1.3893   22.1011  -26.3606 H   0  0  0  0  0  0  0  0  0  0  0  0
   -3.3875   21.1320  -27.4916 H   0  0  0  0  0  0  0  0  0  0  0  0
   -4.5460   22.4068  -29.2946 H   0  0  0  0  0  0  0  0  0  0  0  0
   -2.5238   23.2444  -31.9631 H   0  0  0  0  0  0  0  0  0  0  0  0
   -2.2863   19.5198  -31.0776 H   0  0  0  0  0  0  0  0  0  0  0  0
   -0.8690   18.4879  -31.3618 H   0  0  0  0  0  0  0  0  0  0  0  0
   -1.5531   19.6521  -28.8955 H   0  0  0  0  0  0  0  0  0  0  0  0
    0.0648   19.0592  -29.2874 H   0  0  0  0  0  0  0  0  0  0  0  0
   -0.7510   21.8004  -28.8640 H   0  0  0  0  0  0  0  0  0  0  0  0
    0.8528   21.2636  -29.3725 H   0  0  0  0  0  0  0  0  0  0  0  0
   -1.4609   22.2721  -31.0230 H   0  0  0  0  0  0  0  0  0  0  0  0
    0.2741   22.3981  -31.3641 H   0  0  0  0  0  0  0  0  0  0  0  0
   -4.1801   19.5395  -33.4499 H   0  0  0  0  0  0  0  0  0  0  0  0
   -6.4513   20.2597  -32.7314 H   0  0  0  0  0  0  0  0  0  0  0  0
   -6.9638   21.1120  -29.8901 H   0  0  0  0  0  0  0  0  0  0  0  0
   -7.6690   22.6993  -29.4471 H   0  0  0  0  0  0  0  0  0  0  0  0
   -8.9509   20.5110  -31.1739 H   0  0  0  0  0  0  0  0  0  0  0  0
   -9.4744   21.0707  -29.5384 H   0  0  0  0  0  0  0  0  0  0  0  0
   -9.2647   21.7981  -32.9822 H   0  0  0  0  0  0  0  0  0  0  0  0
  -10.0440   23.4211  -32.8389 H   0  0  0  0  0  0  0  0  0  0  0  0
   -7.5453   23.5068  -33.2592 H   0  0  0  0  0  0  0  0  0  0  0  0
   -8.0688   24.3465  -31.7638 H   0  0  0  0  0  0  0  0  0  0  0  0
  1  2  1  0
  2  3  1  0
  3  4  2  0
  4  5  1  0
  5  6  2  0
  6  7  1  0
  7  8  2  0
  8  9  1  0
  9 10  1  0
 10 11  2  0
 10 12  1  0
 12 13  2  0
 13 14  1  0
 14 15  1  0
 15 16  2  0
 15 17  2  0
 15 18  1  0
 18 19  1  0
 19 20  1  0
 20 21  1  0
 21 22  1  0
 14 23  2  0
 23 24  1  0
 24 25  2  0
 25 26  1  0
 26 27  1  0
 27 28  1  0
 28 29  1  0
 29 30  1  0
 30 31  1  0
  8  3  1  0
 25 12  1  0
 31 26  1  0
 22 18  1  0
  1 32  1  0
  1 33  1  0
  1 34  1  0
  4 35  1  0
  5 36  1  0
  6 37  1  0
  7 38  1  0
 13 39  1  0
 19 40  1  0
 19 41  1  0
 20 42  1  0
 20 43  1  0
 21 44  1  0
 21 45  1  0
 22 46  1  0
 22 47  1  0
 23 48  1  0
 24 49  1  0
 27 50  1  0
 27 51  1  0
 28 52  1  0
 28 53  1  0
 30 54  1  0
 30 55  1  0
 31 56  1  0
 31 57  1  0
M  CHG  1   9  -1
M  END
>  <UniqueID>  (37) 
35

>  <SMILES>  (37) 
COc1ccccc1[N-]C(=O)c1cc(S(=O)(=O)N2CCCC2)ccc1N1CCOCC1

>  <Energy>  (37) 
72.51834229723349

>  <Genealogy>  (37) 
COc1ccccc1[N-]C(=O)c1cc(S(=O)(=O)N2CCCC2)ccc1N1CCOCC1 (protonated)
COc1ccccc1[N-]C(=O)c1cc(S(=O)(=O)N2CCCC2)ccc1N1CCOCC1 (3D coordinates assigned)
COc1ccccc1[N-]C(=O)c1cc(S(=O)(=O)N2CCCC2)ccc1N1CCOCC1 (nonaromatic ring conformer: 72.51834229723349 kcal/mol)

>  <smiles>  (37) 
COc1ccccc1NC(=O)c1cc(S(=O)(=O)N2CCCC2)ccc1N1CCOCC1

>  <score_type>  (37) 
oracle

>  <origin>  (37) 
adgpu

>  <m_score__min__energy>  (37) 
-10.48

>  <m_primary>  (37) 
energy

$$$$
37:0
     RDKit          3D

 46 49  0  0  0  0  0  0  0  0999 V2000
   -5.7520   18.8780  -34.3960 O   0  0  0  0  0  0  0  0  0  0  0  0
   -6.2060   19.7050  -33.5620 C   0  0  0  0  0  0  0  0  0  0  0  0
   -7.5350   19.4620  -32.9040 C   0  0  0  0  0  0  0  0  0  0  0  0
   -8.0920   20.6680  -32.3720 O   0  0  0  0  0  0  0  0  0  0  0  0
   -7.3100   21.7440  -31.9360 C   0  0  0  0  0  0  0  0  0  0  0  0
   -7.8730   22.7460  -31.1410 C   0  0  0  0  0  0  0  0  0  0  0  0
   -7.0930   23.8240  -30.7140 C   0  0  0  0  0  0  0  0  0  0  0  0
   -5.7370   23.9190  -31.0850 C   0  0  0  0  0  0  0  0  0  0  0  0
   -4.9100   25.0640  -30.6360 C   0  0  0  0  0  0  0  0  0  0  0  0
   -5.4460   26.1920  -30.4540 O   0  0  0  0  0  0  0  0  0  0  0  0
   -3.4960   24.9030  -30.4630 N   0  0  0  0  0  0  0  0  0  0  0  0
   -2.7980   24.7510  -29.2180 C   0  0  0  0  0  0  0  0  0  0  0  0
   -1.4040   24.8880  -29.2090 C   0  0  0  0  0  0  0  0  0  0  0  0
   -0.6830   24.7270  -28.0230 C   0  0  0  0  0  0  0  0  0  0  0  0
   -1.3500   24.4130  -26.8300 C   0  0  0  0  0  0  0  0  0  0  0  0
   -0.4570   24.1860  -25.3290 S   0  0  0  0  0  0  0  0  0  0  0  0
    1.0110   24.1400  -25.6520 O   0  0  0  0  0  0  0  0  0  0  0  0
   -0.8500   22.8820  -24.6910 O   0  0  0  0  0  0  0  0  0  0  0  0
   -0.7990   25.5250  -24.2540 N   0  0  0  0  0  0  0  0  0  0  0  0
    0.4400   26.1470  -23.7350 C   0  0  0  0  0  0  0  0  0  0  0  0
    0.8210   27.4340  -24.4900 C   0  0  0  0  0  0  0  0  0  0  0  0
    0.4300   27.3420  -25.8410 O   0  0  0  0  0  0  0  0  0  0  0  0
   -0.9830   27.3690  -25.9460 C   0  0  0  0  0  0  0  0  0  0  0  0
   -1.7020   26.5080  -24.8790 C   0  0  0  0  0  0  0  0  0  0  0  0
   -2.7400   24.2470  -26.8400 C   0  0  0  0  0  0  0  0  0  0  0  0
   -3.4620   24.4090  -28.0270 C   0  0  0  0  0  0  0  0  0  0  0  0
   -5.1820   22.9120  -31.8980 C   0  0  0  0  0  0  0  0  0  0  0  0
   -5.9650   21.8320  -32.3200 C   0  0  0  0  0  0  0  0  0  0  0  0
   -5.4180   20.8350  -33.1820 N   0  0  0  0  0  0  0  0  0  0  0  0
   -8.2303   19.0465  -33.6482 H   0  0  0  0  0  0  0  0  0  0  0  0
   -7.3815   18.7595  -32.0716 H   0  0  0  0  0  0  0  0  0  0  0  0
   -8.9323   22.6860  -30.8508 H   0  0  0  0  0  0  0  0  0  0  0  0
   -7.5415   24.6052  -30.0827 H   0  0  0  0  0  0  0  0  0  0  0  0
   -0.8728   25.1242  -30.1428 H   0  0  0  0  0  0  0  0  0  0  0  0
    0.4105   24.8468  -28.0251 H   0  0  0  0  0  0  0  0  0  0  0  0
    0.2921   26.3928  -22.6731 H   0  0  0  0  0  0  0  0  0  0  0  0
    1.2580   25.4251  -23.8757 H   0  0  0  0  0  0  0  0  0  0  0  0
    0.3149   28.2919  -24.0233 H   0  0  0  0  0  0  0  0  0  0  0  0
    1.9117   27.5681  -24.4413 H   0  0  0  0  0  0  0  0  0  0  0  0
   -1.3197   28.4105  -25.8366 H   0  0  0  0  0  0  0  0  0  0  0  0
   -1.2409   26.9460  -26.9281 H   0  0  0  0  0  0  0  0  0  0  0  0
   -2.0984   27.1720  -24.0967 H   0  0  0  0  0  0  0  0  0  0  0  0
   -2.5085   25.9534  -25.3809 H   0  0  0  0  0  0  0  0  0  0  0  0
   -3.2670   23.9879  -25.9099 H   0  0  0  0  0  0  0  0  0  0  0  0
   -4.5530   24.2683  -28.0286 H   0  0  0  0  0  0  0  0  0  0  0  0
   -4.1270   22.9748  -32.2030 H   0  0  0  0  0  0  0  0  0  0  0  0
  1  2  2  0
  2  3  1  0
  3  4  1  0
  4  5  1  0
  5  6  2  0
  6  7  1  0
  7  8  2  0
  8  9  1  0
  9 10  2  0
  9 11  1  0
 11 12  1  0
 12 13  2  0
 13 14  1  0
 14 15  2  0
 15 16  1  0
 16 17  2  0
 16 18  2  0
 16 19  1  0
 19 20  1  0
 20 21  1  0
 21 22  1  0
 22 23  1  0
 23 24  1  0
 15 25  1  0
 25 26  2  0
  8 27  1  0
 27 28  2  0
 28 29  1  0
 29  2  1  0
 28  5  1  0
 26 12  1  0
 24 19  1  0
  3 30  1  0
  3 31  1  0
  6 32  1  0
  7 33  1  0
 13 34  1  0
 14 35  1  0
 20 36  1  0
 20 37  1  0
 21 38  1  0
 21 39  1  0
 23 40  1  0
 23 41  1  0
 24 42  1  0
 24 43  1  0
 25 44  1  0
 26 45  1  0
 27 46  1  0
M  CHG  2  11  -1  29  -1
M  END
>  <UniqueID>  (38) 
36

>  <SMILES>  (38) 
O=C1COc2ccc(C(=O)[N-]c3ccc(S(=O)(=O)N4CCOCC4)cc3)cc2[N-]1

>  <Energy>  (38) 
66.4405256541624

>  <Genealogy>  (38) 
O=C1COc2ccc(C(=O)[N-]c3ccc(S(=O)(=O)N4CCOCC4)cc3)cc2[N-]1 (protonated)
O=C1COc2ccc(C(=O)[N-]c3ccc(S(=O)(=O)N4CCOCC4)cc3)cc2[N-]1 (3D coordinates assigned)
O=C1COc2ccc(C(=O)[N-]c3ccc(S(=O)(=O)N4CCOCC4)cc3)cc2[N-]1 (nonaromatic ring conformer: 66.4405256541624 kcal/mol)

>  <smiles>  (38) 
O=C1COc2ccc(C(=O)Nc3ccc(S(=O)(=O)N4CCOCC4)cc3)cc2N1

>  <score_type>  (38) 
oracle

>  <origin>  (38) 
adgpu

>  <m_score__min__energy>  (38) 
-11.31

>  <m_primary>  (38) 
energy

$$$$
38:0
     RDKit          3D

 57 60  0  0  0  0  0  0  0  0999 V2000
   -1.4158   26.8434  -28.7531 H   0  0  0  0  0  0  0  0  0  0  0  0
   -1.2390   25.7670  -28.6110 C   0  0  0  0  0  0  0  0  0  0  0  0
   -0.1190   25.3360  -27.8980 C   0  0  0  0  0  0  0  0  0  0  0  0
    0.5852   26.0723  -27.4834 H   0  0  0  0  0  0  0  0  0  0  0  0
    0.1090   23.9670  -27.7100 C   0  0  0  0  0  0  0  0  0  0  0  0
    1.5040   23.4030  -26.7930 S   0  0  0  0  0  0  0  0  0  0  0  0
    1.7750   21.9730  -27.1740 O   0  0  0  0  0  0  0  0  0  0  0  0
    2.7150   24.2320  -27.1280 O   0  0  0  0  0  0  0  0  0  0  0  0
    1.1580   23.5050  -25.0790 N   0  0  0  0  0  0  0  0  0  0  0  0
   -0.2890   23.4400  -24.8420 C   0  0  0  0  0  0  0  0  0  0  0  0
   -0.7766   22.8948  -25.6636 H   0  0  0  0  0  0  0  0  0  0  0  0
   -0.4958   22.9135  -23.8986 H   0  0  0  0  0  0  0  0  0  0  0  0
   -0.8260   24.8630  -24.7780 C   0  0  0  0  0  0  0  0  0  0  0  0
   -1.3539   25.1166  -25.7091 H   0  0  0  0  0  0  0  0  0  0  0  0
   -1.5457   24.9903  -23.9559 H   0  0  0  0  0  0  0  0  0  0  0  0
    0.3920   25.7500  -24.6010 C   0  0  0  0  0  0  0  0  0  0  0  0
    0.4896   26.4421  -25.4504 H   0  0  0  0  0  0  0  0  0  0  0  0
    0.3191   26.3648  -23.6918 H   0  0  0  0  0  0  0  0  0  0  0  0
    1.5830   24.8040  -24.5470 C   0  0  0  0  0  0  0  0  0  0  0  0
    2.4059   25.2054  -25.1567 H   0  0  0  0  0  0  0  0  0  0  0  0
    1.9357   24.6944  -23.5109 H   0  0  0  0  0  0  0  0  0  0  0  0
   -0.7870   23.0340  -28.2470 C   0  0  0  0  0  0  0  0  0  0  0  0
   -0.6129   21.9592  -28.0902 H   0  0  0  0  0  0  0  0  0  0  0  0
   -1.9060   23.4570  -28.9840 C   0  0  0  0  0  0  0  0  0  0  0  0
   -2.8250   22.4440  -29.5460 C   0  0  0  0  0  0  0  0  0  0  0  0
   -2.4810   21.2300  -29.5220 O   0  0  0  0  0  0  0  0  0  0  0  0
   -4.0860   22.8310  -30.1190 N   0  0  0  0  0  0  0  0  0  0  0  0
   -4.3780   23.8320  -30.0620 H   0  0  0  0  0  0  0  0  0  0  0  0
   -5.0150   21.9090  -30.7140 C   0  0  0  0  0  0  0  0  0  0  0  0
   -6.3910   22.1180  -30.5470 C   0  0  0  0  0  0  0  0  0  0  0  0
   -6.7455   22.9713  -29.9502 H   0  0  0  0  0  0  0  0  0  0  0  0
   -7.3160   21.2490  -31.1340 C   0  0  0  0  0  0  0  0  0  0  0  0
   -8.3934   21.4158  -30.9881 H   0  0  0  0  0  0  0  0  0  0  0  0
   -6.8760   20.1670  -31.9070 C   0  0  0  0  0  0  0  0  0  0  0  0
   -8.0420   19.0840  -32.6590 S   0  0  0  0  0  0  0  0  0  0  0  0
   -9.0970   19.9070  -33.3430 O   0  0  0  0  0  0  0  0  0  0  0  0
   -8.6690   18.2330  -31.5910 O   0  0  0  0  0  0  0  0  0  0  0  0
   -7.1950   18.1010  -33.8110 N   0  0  0  0  0  0  0  0  0  0  0  0
   -6.3500   17.1310  -33.6080 C   0  0  0  0  0  0  0  0  0  0  0  0
   -5.8030   16.4780  -34.6070 O   0  0  0  0  0  0  0  0  0  0  0  0
   -4.9850   15.5600  -34.1860 N   0  0  0  0  0  0  0  0  0  0  0  0
   -4.9930   15.6100  -32.8390 C   0  0  0  0  0  0  0  0  0  0  0  0
   -4.1620   14.7150  -31.9790 C   0  0  0  0  0  0  0  0  0  0  0  0
   -4.3643   14.9329  -30.9199 H   0  0  0  0  0  0  0  0  0  0  0  0
   -4.4131   13.6654  -32.1919 H   0  0  0  0  0  0  0  0  0  0  0  0
   -3.0967   14.8876  -32.1919 H   0  0  0  0  0  0  0  0  0  0  0  0
   -5.8620   16.6030  -32.4100 C   0  0  0  0  0  0  0  0  0  0  0  0
   -6.1050   17.0020  -30.9840 C   0  0  0  0  0  0  0  0  0  0  0  0
   -5.6517   16.2578  -30.3127 H   0  0  0  0  0  0  0  0  0  0  0  0
   -5.6536   17.9875  -30.7970 H   0  0  0  0  0  0  0  0  0  0  0  0
   -7.1878   17.0532  -30.7970 H   0  0  0  0  0  0  0  0  0  0  0  0
   -5.5020   19.9750  -32.1070 C   0  0  0  0  0  0  0  0  0  0  0  0
   -5.1503   19.1391  -32.7296 H   0  0  0  0  0  0  0  0  0  0  0  0
   -4.5770   20.8420  -31.5180 C   0  0  0  0  0  0  0  0  0  0  0  0
   -3.5005   20.6886  -31.6845 H   0  0  0  0  0  0  0  0  0  0  0  0
   -2.1380   24.8380  -29.1460 C   0  0  0  0  0  0  0  0  0  0  0  0
   -3.2720   25.3010  -29.8060 O   0  0  0  0  0  0  0  0  0  0  0  0
  1  2  1  0
  2  3  2  0
  3  4  1  0
  3  5  1  0
  5  6  1  0
  6  7  2  0
  6  8  2  0
  6  9  1  0
  9 10  1  0
 10 11  1  0
 10 12  1  0
 10 13  1  0
 13 14  1  0
 13 15  1  0
 13 16  1  0
 16 17  1  0
 16 18  1  0
 16 19  1  0
 19 20  1  0
 19 21  1  0
  5 22  2  0
 22 23  1  0
 22 24  1  0
 24 25  1  0
 25 26  2  0
 25 27  1  0
 27 28  1  0
 27 29  1  0
 29 30  2  0
 30 31  1  0
 30 32  1  0
 32 33  1  0
 32 34  2  0
 34 35  1  0
 35 36  2  0
 35 37  2  0
 35 38  1  0
 38 39  2  0
 39 40  1  0
 40 41  1  0
 41 42  1  0
 42 43  1  0
 43 44  1  0
 43 45  1  0
 43 46  1  0
 42 47  2  0
 47 48  1  0
 48 49  1  0
 48 50  1  0
 48 51  1  0
 34 52  1  0
 52 53  1  0
 52 54  2  0
 54 55  1  0
 24 56  2  0
 56 57  1  0
 56  2  1  0
 19  9  1  0
 54 29  1  0
 47 39  1  0
M  CHG  2  41  -1  57  -1
M  END
>  <UniqueID>  (39) 
37

>  <SMILES>  (39) 
Cc1[n-]o/c(=N/S(=O)(=O)c2ccc(NC(=O)c3cc(S(=O)(=O)N4CCCC4)ccc3[O-])cc2)c1C

>  <Energy>  (39) 
110.17283710675872

>  <Genealogy>  (39) 
Cc1[n-]oc(=NS(=O)(=O)c2ccc(NC(=O)c3cc(S(=O)(=O)N4CCCC4)ccc3[O-])cc2)c1C (protonated)
Cc1[n-]o/c(=N/S(=O)(=O)c2ccc(NC(=O)c3cc(S(=O)(=O)N4CCCC4)ccc3[O-])cc2)c1C (cis-trans isomerization)
Cc1[n-]o/c(=N/S(=O)(=O)c2ccc(NC(=O)c3cc(S(=O)(=O)N4CCCC4)ccc3[O-])cc2)c1C (3D coordinates assigned)
Cc1[n-]o/c(=N/S(=O)(=O)c2ccc(NC(=O)c3cc(S(=O)(=O)N4CCCC4)ccc3[O-])cc2)c1C (nonaromatic ring conformer: 110.17283710675872 kcal/mol)

>  <smiles>  (39) 
Cc1[nH]oc(=NS(=O)(=O)c2ccc(NC(=O)c3cc(S(=O)(=O)N4CCCC4)ccc3O)cc2)c1C

>  <score_type>  (39) 
oracle

>  <origin>  (39) 
adgpu

>  <m_score__min__energy>  (39) 
-13.25

>  <m_primary>  (39) 
energy

$$$$
39:0
     RDKit          3D

 46 49  0  0  0  0  0  0  0  0999 V2000
   -5.8690   18.5820  -33.8940 C   0  0  0  0  0  0  0  0  0  0  0  0
   -4.5700   19.3100  -33.7570 C   0  0  0  0  0  0  0  0  0  0  0  0
   -3.4170   18.8700  -34.3020 N   0  0  0  0  0  0  0  0  0  0  0  0
   -2.4570   19.7240  -33.9790 N   0  0  0  0  0  0  0  0  0  0  0  0
   -1.0890   19.5710  -34.4020 C   0  0  0  0  0  0  0  0  0  0  0  0
   -0.4290   18.3320  -34.3010 C   0  0  0  0  0  0  0  0  0  0  0  0
    0.8960   18.2000  -34.7300 C   0  0  0  0  0  0  0  0  0  0  0  0
    1.5710   19.2970  -35.2700 C   0  0  0  0  0  0  0  0  0  0  0  0
    0.9210   20.5280  -35.3880 C   0  0  0  0  0  0  0  0  0  0  0  0
   -0.4040   20.6640  -34.9620 C   0  0  0  0  0  0  0  0  0  0  0  0
   -2.9890   20.7220  -33.2440 C   0  0  0  0  0  0  0  0  0  0  0  0
   -2.2880   21.8340  -32.7900 O   0  0  0  0  0  0  0  0  0  0  0  0
   -4.3420   20.5010  -33.0750 C   0  0  0  0  0  0  0  0  0  0  0  0
   -5.3020   21.3490  -32.3360 C   0  0  0  0  0  0  0  0  0  0  0  0
   -6.6340   20.9380  -32.1570 C   0  0  0  0  0  0  0  0  0  0  0  0
   -7.5320   21.7420  -31.4510 C   0  0  0  0  0  0  0  0  0  0  0  0
   -7.1130   22.9640  -30.9210 C   0  0  0  0  0  0  0  0  0  0  0  0
   -5.7910   23.3900  -31.0970 C   0  0  0  0  0  0  0  0  0  0  0  0
   -5.2720   24.9220  -30.4020 S   0  0  0  0  0  0  0  0  0  0  0  0
   -5.8110   25.0280  -29.0030 O   0  0  0  0  0  0  0  0  0  0  0  0
   -5.7840   26.0820  -31.2090 O   0  0  0  0  0  0  0  0  0  0  0  0
   -3.5400   24.9840  -30.3510 N   0  0  0  0  0  0  0  0  0  0  0  0
   -2.7140   24.2900  -29.4040 C   0  0  0  0  0  0  0  0  0  0  0  0
   -3.0240   22.9920  -28.9560 C   0  0  0  0  0  0  0  0  0  0  0  0
   -2.1980   22.3510  -28.0270 C   0  0  0  0  0  0  0  0  0  0  0  0
   -1.0590   22.9950  -27.5400 C   0  0  0  0  0  0  0  0  0  0  0  0
   -0.7410   24.2810  -27.9840 C   0  0  0  0  0  0  0  0  0  0  0  0
   -1.5640   24.9280  -28.9130 C   0  0  0  0  0  0  0  0  0  0  0  0
   -1.2360   26.2080  -29.3440 O   0  0  0  0  0  0  0  0  0  0  0  0
   -4.8910   22.5850  -31.8110 C   0  0  0  0  0  0  0  0  0  0  0  0
   -6.2704   18.3570  -32.8949 H   0  0  0  0  0  0  0  0  0  0  0  0
   -6.5852   19.2102  -34.4440 H   0  0  0  0  0  0  0  0  0  0  0  0
   -5.7070   17.6432  -34.4440 H   0  0  0  0  0  0  0  0  0  0  0  0
   -0.9578   17.4629  -33.8826 H   0  0  0  0  0  0  0  0  0  0  0  0
    1.4073   17.2301  -34.6418 H   0  0  0  0  0  0  0  0  0  0  0  0
    2.6143   19.1918  -35.6024 H   0  0  0  0  0  0  0  0  0  0  0  0
    1.4519   21.3910  -35.8163 H   0  0  0  0  0  0  0  0  0  0  0  0
   -0.9141   21.6330  -35.0657 H   0  0  0  0  0  0  0  0  0  0  0  0
   -6.9712   19.9781  -32.5751 H   0  0  0  0  0  0  0  0  0  0  0  0
   -8.5720   21.4116  -31.3122 H   0  0  0  0  0  0  0  0  0  0  0  0
   -7.8230   23.5932  -30.3641 H   0  0  0  0  0  0  0  0  0  0  0  0
   -3.9194   22.4798  -29.3381 H   0  0  0  0  0  0  0  0  0  0  0  0
   -2.4463   21.3374  -27.6793 H   0  0  0  0  0  0  0  0  0  0  0  0
   -0.4124   22.4902  -26.8072 H   0  0  0  0  0  0  0  0  0  0  0  0
    0.1585   24.7863  -27.6025 H   0  0  0  0  0  0  0  0  0  0  0  0
   -3.8555   22.9245  -31.9608 H   0  0  0  0  0  0  0  0  0  0  0  0
  1  2  1  0
  2  3  2  0
  3  4  1  0
  4  5  1  0
  5  6  2  0
  6  7  1  0
  7  8  2  0
  8  9  1  0
  9 10  2  0
  4 11  1  0
 11 12  1  0
 11 13  2  0
 13 14  1  0
 14 15  2  0
 15 16  1  0
 16 17  2  0
 17 18  1  0
 18 19  1  0
 19 20  2  0
 19 21  2  0
 19 22  1  0
 22 23  1  0
 23 24  2  0
 24 25  1  0
 25 26  2  0
 26 27  1  0
 27 28  2  0
 28 29  1  0
 18 30  2  0
 13  2  1  0
 30 14  1  0
 10  5  1  0
 28 23  1  0
  1 31  1  0
  1 32  1  0
  1 33  1  0
  6 34  1  0
  7 35  1  0
  8 36  1  0
  9 37  1  0
 10 38  1  0
 15 39  1  0
 16 40  1  0
 17 41  1  0
 24 42  1  0
 25 43  1  0
 26 44  1  0
 27 45  1  0
 30 46  1  0
M  CHG  3  12  -1  22  -1  29  -1
M  END
>  <UniqueID>  (40) 
38

>  <SMILES>  (40) 
Cc1nn(-c2ccccc2)c([O-])c1-c1cccc(S(=O)(=O)[N-]c2ccccc2[O-])c1

>  <Energy>  (40) 
93.69514626232338

>  <Genealogy>  (40) 
Cc1nn(-c2ccccc2)c([O-])c1-c1cccc(S(=O)(=O)[N-]c2ccccc2[O-])c1 (protonated)
Cc1nn(-c2ccccc2)c([O-])c1-c1cccc(S(=O)(=O)[N-]c2ccccc2[O-])c1 (3D coordinates assigned)
Cc1nn(-c2ccccc2)c([O-])c1-c1cccc(S(=O)(=O)[N-]c2ccccc2[O-])c1 (optimized conformer: 93.69514626232338 kcal/mol)

>  <smiles>  (40) 
Cc1nn(-c2ccccc2)c(O)c1-c1cccc(S(=O)(=O)Nc2ccccc2O)c1

>  <score_type>  (40) 
oracle

>  <origin>  (40) 
adgpu

>  <m_score__min__energy>  (40) 
-14.44

>  <m_primary>  (40) 
energy

$$$$
40:0
     RDKit          3D

 55 58  0  0  0  0  0  0  0  0999 V2000
   -6.4340   20.6950  -33.0550 O   0  0  0  0  0  0  0  0  0  0  0  0
   -5.2150   20.6330  -32.7320 C   0  0  0  0  0  0  0  0  0  0  0  0
   -4.4330   19.4990  -33.1440 N   0  0  0  0  0  0  0  0  0  0  0  0
   -5.0000   18.2160  -33.4650 C   0  0  0  0  0  0  0  0  0  0  0  0
   -6.3940   18.0680  -33.5040 C   0  0  0  0  0  0  0  0  0  0  0  0
   -6.9670   16.8320  -33.8220 C   0  0  0  0  0  0  0  0  0  0  0  0
   -6.1520   15.7340  -34.1100 C   0  0  0  0  0  0  0  0  0  0  0  0
   -4.7580   15.8710  -34.0910 C   0  0  0  0  0  0  0  0  0  0  0  0
   -3.7150   14.5030  -34.4740 S   0  0  0  0  0  0  0  0  0  0  0  0
   -2.2950   14.9720  -34.6510 O   0  0  0  0  0  0  0  0  0  0  0  0
   -4.1790   13.8810  -35.7620 O   0  0  0  0  0  0  0  0  0  0  0  0
   -3.8160   13.3260  -33.1870 N   0  0  0  0  0  0  0  0  0  0  0  0
   -5.0280   12.5130  -33.2990 C   0  0  0  0  0  0  0  0  0  0  0  0
   -5.3660   12.0490  -31.8900 C   0  0  0  0  0  0  0  0  0  0  0  0
   -4.6300   13.0060  -30.9640 C   0  0  0  0  0  0  0  0  0  0  0  0
   -3.9020   13.9780  -31.8820 C   0  0  0  0  0  0  0  0  0  0  0  0
   -4.1860   17.1130  -33.7860 C   0  0  0  0  0  0  0  0  0  0  0  0
   -4.6050   21.7520  -31.9710 C   0  0  0  0  0  0  0  0  0  0  0  0
   -3.2410   21.7390  -31.6170 C   0  0  0  0  0  0  0  0  0  0  0  0
   -2.6900   22.7950  -30.8820 C   0  0  0  0  0  0  0  0  0  0  0  0
   -3.4910   23.8650  -30.4670 C   0  0  0  0  0  0  0  0  0  0  0  0
   -2.9000   24.9250  -29.7100 N   0  0  0  0  0  0  0  0  0  0  0  0
   -1.8630   24.6710  -28.3430 S   0  0  0  0  0  0  0  0  0  0  0  0
   -2.4370   25.3970  -27.1560 O   0  0  0  0  0  0  0  0  0  0  0  0
   -0.5090   25.2550  -28.6420 O   0  0  0  0  0  0  0  0  0  0  0  0
   -1.7160   22.9620  -27.9380 C   0  0  0  0  0  0  0  0  0  0  0  0
   -0.4490   22.3710  -27.8040 C   0  0  0  0  0  0  0  0  0  0  0  0
   -0.3380   21.0090  -27.5040 C   0  0  0  0  0  0  0  0  0  0  0  0
   -1.4900   20.2310  -27.3360 C   0  0  0  0  0  0  0  0  0  0  0  0
   -2.7540   20.8140  -27.4690 C   0  0  0  0  0  0  0  0  0  0  0  0
   -2.8680   22.1770  -27.7720 C   0  0  0  0  0  0  0  0  0  0  0  0
   -4.8450   23.8930  -30.8320 C   0  0  0  0  0  0  0  0  0  0  0  0
   -5.3980   22.8450  -31.5710 C   0  0  0  0  0  0  0  0  0  0  0  0
   -3.4180   19.6480  -33.3460 H   0  0  0  0  0  0  0  0  0  0  0  0
   -7.0412   18.9296  -33.2831 H   0  0  0  0  0  0  0  0  0  0  0  0
   -8.0615   16.7242  -33.8454 H   0  0  0  0  0  0  0  0  0  0  0  0
   -6.6054   14.7614  -34.3518 H   0  0  0  0  0  0  0  0  0  0  0  0
   -5.8527   13.1141  -33.7096 H   0  0  0  0  0  0  0  0  0  0  0  0
   -4.8737   11.6582  -33.9740 H   0  0  0  0  0  0  0  0  0  0  0  0
   -6.4509   12.1031  -31.7165 H   0  0  0  0  0  0  0  0  0  0  0  0
   -5.0679   11.0039  -31.7201 H   0  0  0  0  0  0  0  0  0  0  0  0
   -5.3425   13.5439  -30.3214 H   0  0  0  0  0  0  0  0  0  0  0  0
   -3.9350   12.4756  -30.2965 H   0  0  0  0  0  0  0  0  0  0  0  0
   -4.4654   14.9193  -31.9632 H   0  0  0  0  0  0  0  0  0  0  0  0
   -2.9032   14.2235  -31.4919 H   0  0  0  0  0  0  0  0  0  0  0  0
   -3.0920   17.2273  -33.7974 H   0  0  0  0  0  0  0  0  0  0  0  0
   -2.6055   20.8938  -31.9202 H   0  0  0  0  0  0  0  0  0  0  0  0
   -1.6196   22.7839  -30.6287 H   0  0  0  0  0  0  0  0  0  0  0  0
    0.4576   22.9800  -27.9351 H   0  0  0  0  0  0  0  0  0  0  0  0
    0.6556   20.5487  -27.4000 H   0  0  0  0  0  0  0  0  0  0  0  0
   -1.4006   19.1605  -27.0992 H   0  0  0  0  0  0  0  0  0  0  0  0
   -3.6586   20.2025  -27.3357 H   0  0  0  0  0  0  0  0  0  0  0  0
   -3.8630   22.6334  -27.8802 H   0  0  0  0  0  0  0  0  0  0  0  0
   -5.4744   24.7447  -30.5347 H   0  0  0  0  0  0  0  0  0  0  0  0
   -6.4634   22.8735  -31.8433 H   0  0  0  0  0  0  0  0  0  0  0  0
  1  2  2  0
  2  3  1  0
  3  4  1  0
  4  5  2  0
  5  6  1  0
  6  7  2  0
  7  8  1  0
  8  9  1  0
  9 10  2  0
  9 11  2  0
  9 12  1  0
 12 13  1  0
 13 14  1  0
 14 15  1  0
 15 16  1  0
  8 17  2  0
  2 18  1  0
 18 19  2  0
 19 20  1  0
 20 21  2  0
 21 22  1  0
 22 23  1  0
 23 24  2  0
 23 25  2  0
 23 26  1  0
 26 27  2  0
 27 28  1  0
 28 29  2  0
 29 30  1  0
 30 31  2  0
 21 32  1  0
 32 33  2  0
 17  4  1  0
 33 18  1  0
 16 12  1  0
 31 26  1  0
  3 34  1  0
  5 35  1  0
  6 36  1  0
  7 37  1  0
 13 38  1  0
 13 39  1  0
 14 40  1  0
 14 41  1  0
 15 42  1  0
 15 43  1  0
 16 44  1  0
 16 45  1  0
 17 46  1  0
 19 47  1  0
 20 48  1  0
 27 49  1  0
 28 50  1  0
 29 51  1  0
 30 52  1  0
 31 53  1  0
 32 54  1  0
 33 55  1  0
M  CHG  1  22  -1
M  END
>  <UniqueID>  (41) 
39

>  <SMILES>  (41) 
O=C(Nc1cccc(S(=O)(=O)N2CCCC2)c1)c1ccc([N-]S(=O)(=O)c2ccccc2)cc1

>  <Energy>  (41) 
72.72326538059183

>  <Genealogy>  (41) 
O=C(Nc1cccc(S(=O)(=O)N2CCCC2)c1)c1ccc([N-]S(=O)(=O)c2ccccc2)cc1 (protonated)
O=C(Nc1cccc(S(=O)(=O)N2CCCC2)c1)c1ccc([N-]S(=O)(=O)c2ccccc2)cc1 (3D coordinates assigned)
O=C(Nc1cccc(S(=O)(=O)N2CCCC2)c1)c1ccc([N-]S(=O)(=O)c2ccccc2)cc1 (nonaromatic ring conformer: 72.72326538059183 kcal/mol)

>  <smiles>  (41) 
O=C(Nc1cccc(S(=O)(=O)N2CCCC2)c1)c1ccc(NS(=O)(=O)c2ccccc2)cc1

>  <score_type>  (41) 
oracle

>  <origin>  (41) 
adgpu

>  <m_score__min__energy>  (41) 
-11.300000000000001

>  <m_primary>  (41) 
energy

$$$$
41:0
     RDKit          3D

 39 41  0  0  0  0  0  0  0  0999 V2000
   -1.2160   25.7420  -29.3330 N   0  0  0  0  0  0  0  0  0  0  0  0
   -0.6530   24.7090  -28.5190 C   0  0  0  0  0  0  0  0  0  0  0  0
    0.4710   24.9030  -27.9760 O   0  0  0  0  0  0  0  0  0  0  0  0
   -1.3680   23.4210  -28.3120 C   0  0  0  0  0  0  0  0  0  0  0  0
   -0.6180   22.2540  -28.0620 C   0  0  0  0  0  0  0  0  0  0  0  0
   -1.2640   21.0330  -27.8490 C   0  0  0  0  0  0  0  0  0  0  0  0
   -2.6610   20.9580  -27.8830 C   0  0  0  0  0  0  0  0  0  0  0  0
   -3.4190   22.1050  -28.1320 C   0  0  0  0  0  0  0  0  0  0  0  0
   -2.7870   23.3440  -28.3520 C   0  0  0  0  0  0  0  0  0  0  0  0
   -3.5490   24.5240  -28.6570 N   0  0  0  0  0  0  0  0  0  0  0  0
   -4.5650   24.7410  -30.0460 S   0  0  0  0  0  0  0  0  0  0  0  0
   -3.8870   25.6650  -31.0240 O   0  0  0  0  0  0  0  0  0  0  0  0
   -5.8570   25.3710  -29.6050 O   0  0  0  0  0  0  0  0  0  0  0  0
   -4.9200   23.1860  -30.8000 C   0  0  0  0  0  0  0  0  0  0  0  0
   -3.9140   22.4860  -31.4710 C   0  0  0  0  0  0  0  0  0  0  0  0
   -4.1850   21.2340  -32.0330 C   0  0  0  0  0  0  0  0  0  0  0  0
   -5.4820   20.6870  -31.9300 C   0  0  0  0  0  0  0  0  0  0  0  0
   -5.8290   19.3410  -32.4760 C   0  0  0  0  0  0  0  0  0  0  0  0
   -6.4590   18.3540  -31.6860 C   0  0  0  0  0  0  0  0  0  0  0  0
   -6.7750   17.1050  -32.2310 C   0  0  0  0  0  0  0  0  0  0  0  0
   -6.4500   16.8130  -33.5620 C   0  0  0  0  0  0  0  0  0  0  0  0
   -6.8460   15.2440  -34.2400 Cl  0  0  0  0  0  0  0  0  0  0  0  0
   -5.8180   17.7740  -34.3520 C   0  0  0  0  0  0  0  0  0  0  0  0
   -5.5060   19.0280  -33.8160 C   0  0  0  0  0  0  0  0  0  0  0  0
   -6.4400   21.3990  -31.2710 N   0  0  0  0  0  0  0  0  0  0  0  0
   -6.1970   22.6160  -30.7130 C   0  0  0  0  0  0  0  0  0  0  0  0
   -0.6790   26.6260  -29.5060 H   0  0  0  0  0  0  0  0  0  0  0  0
   -2.1860   25.6650  -29.7180 H   0  0  0  0  0  0  0  0  0  0  0  0
    0.4805   22.3045  -28.0344 H   0  0  0  0  0  0  0  0  0  0  0  0
   -0.6716   20.1269  -27.6538 H   0  0  0  0  0  0  0  0  0  0  0  0
   -3.1633   19.9942  -27.7134 H   0  0  0  0  0  0  0  0  0  0  0  0
   -4.5168   22.0397  -28.1563 H   0  0  0  0  0  0  0  0  0  0  0  0
   -2.9070   22.9202  -31.5575 H   0  0  0  0  0  0  0  0  0  0  0  0
   -3.3908   20.6782  -32.5529 H   0  0  0  0  0  0  0  0  0  0  0  0
   -6.7028   18.5690  -30.6351 H   0  0  0  0  0  0  0  0  0  0  0  0
   -7.2806   16.3492  -31.6120 H   0  0  0  0  0  0  0  0  0  0  0  0
   -5.5647   17.5453  -35.3977 H   0  0  0  0  0  0  0  0  0  0  0  0
   -5.0039   19.7785  -34.4442 H   0  0  0  0  0  0  0  0  0  0  0  0
   -7.0040   23.1530  -30.1930 H   0  0  0  0  0  0  0  0  0  0  0  0
  1  2  1  0
  2  3  2  0
  2  4  1  0
  4  5  2  0
  5  6  1  0
  6  7  2  0
  7  8  1  0
  8  9  2  0
  9 10  1  0
 10 11  1  0
 11 12  2  0
 11 13  2  0
 11 14  1  0
 14 15  2  0
 15 16  1  0
 16 17  2  0
 17 18  1  0
 18 19  2  0
 19 20  1  0
 20 21  2  0
 21 22  1  0
 21 23  1  0
 23 24  2  0
 17 25  1  0
 25 26  2  0
  9  4  1  0
 26 14  1  0
 24 18  1  0
  1 27  1  0
  1 28  1  0
  5 29  1  0
  6 30  1  0
  7 31  1  0
  8 32  1  0
 15 33  1  0
 16 34  1  0
 19 35  1  0
 20 36  1  0
 23 37  1  0
 24 38  1  0
 26 39  1  0
M  CHG  1  10  -1
M  END
>  <UniqueID>  (42) 
40

>  <SMILES>  (42) 
NC(=O)c1ccccc1[N-]S(=O)(=O)c1ccc(-c2ccc(Cl)cc2)nc1

>  <Energy>  (42) 
53.839714171918374

>  <Genealogy>  (42) 
NC(=O)c1ccccc1[N-]S(=O)(=O)c1ccc(-c2ccc(Cl)cc2)nc1 (protonated)
NC(=O)c1ccccc1[N-]S(=O)(=O)c1ccc(-c2ccc(Cl)cc2)nc1 (3D coordinates assigned)
NC(=O)c1ccccc1[N-]S(=O)(=O)c1ccc(-c2ccc(Cl)cc2)nc1 (optimized conformer: 53.839714171918374 kcal/mol)

>  <smiles>  (42) 
NC(=O)c1ccccc1NS(=O)(=O)c1ccc(-c2ccc(Cl)cc2)nc1

>  <score_type>  (42) 
oracle

>  <origin>  (42) 
adgpu

>  <m_score__min__energy>  (42) 
-10.6

>  <m_primary>  (42) 
energy

$$$$
42:0
     RDKit          3D

 50 52  0  0  0  0  0  0  0  0999 V2000
   -7.6630   22.6440  -29.7460 C   0  0  0  0  0  0  0  0  0  0  0  0
   -6.4930   23.5760  -30.0640 C   0  0  0  0  0  0  0  0  0  0  0  0
   -6.8620   25.0250  -29.7240 C   0  0  0  0  0  0  0  0  0  0  0  0
   -6.1650   23.4590  -31.4880 N   0  0  0  0  0  0  0  0  0  0  0  0
   -4.9710   23.4070  -32.0040 C   0  0  0  0  0  0  0  0  0  0  0  0
   -3.7410   23.4140  -31.1970 C   0  0  0  0  0  0  0  0  0  0  0  0
   -3.2530   24.4350  -30.3890 C   0  0  0  0  0  0  0  0  0  0  0  0
   -3.8610   25.6730  -30.2210 O   0  0  0  0  0  0  0  0  0  0  0  0
   -2.1180   24.0770  -29.7440 N   0  0  0  0  0  0  0  0  0  0  0  0
   -1.9010   22.8090  -30.1450 C   0  0  0  0  0  0  0  0  0  0  0  0
   -0.8450   21.9880  -29.7620 C   0  0  0  0  0  0  0  0  0  0  0  0
   -0.7850   20.6800  -30.2890 C   0  0  0  0  0  0  0  0  0  0  0  0
    0.3100   19.8230  -29.9230 N   0  0  0  0  0  0  0  0  0  0  0  0
    1.4440   19.6330  -30.8290 C   0  0  0  0  0  0  0  0  0  0  0  0
    0.3380   19.2210  -28.5910 C   0  0  0  0  0  0  0  0  0  0  0  0
   -1.7830   20.2310  -31.2000 C   0  0  0  0  0  0  0  0  0  0  0  0
   -1.6640   18.9220  -31.7770 N   0  0  0  0  0  0  0  0  0  0  0  0
   -2.3300   18.4400  -33.3020 S   0  0  0  0  0  0  0  0  0  0  0  0
   -1.5680   17.2490  -33.8120 O   0  0  0  0  0  0  0  0  0  0  0  0
   -2.1820   19.5650  -34.2870 O   0  0  0  0  0  0  0  0  0  0  0  0
   -4.0490   18.0620  -33.1210 C   0  0  0  0  0  0  0  0  0  0  0  0
   -4.4320   16.7310  -32.8890 C   0  0  0  0  0  0  0  0  0  0  0  0
   -5.7760   16.4040  -32.6990 C   0  0  0  0  0  0  0  0  0  0  0  0
   -6.7500   17.3990  -32.7340 C   0  0  0  0  0  0  0  0  0  0  0  0
   -6.3880   18.7280  -32.9650 C   0  0  0  0  0  0  0  0  0  0  0  0
   -7.7510   20.0720  -32.9990 Br  0  0  0  0  0  0  0  0  0  0  0  0
   -5.0410   19.0710  -33.1690 C   0  0  0  0  0  0  0  0  0  0  0  0
   -4.7260   20.4100  -33.4190 O   0  0  0  0  0  0  0  0  0  0  0  0
   -2.8490   21.0900  -31.5520 C   0  0  0  0  0  0  0  0  0  0  0  0
   -2.8680   22.3710  -31.0090 C   0  0  0  0  0  0  0  0  0  0  0  0
   -7.7748   22.5549  -28.6553 H   0  0  0  0  0  0  0  0  0  0  0  0
   -8.5875   23.0559  -30.1770 H   0  0  0  0  0  0  0  0  0  0  0  0
   -7.4683   21.6508  -30.1770 H   0  0  0  0  0  0  0  0  0  0  0  0
   -5.6198   23.2905  -29.4591 H   0  0  0  0  0  0  0  0  0  0  0  0
   -6.8935   25.1486  -28.6314 H   0  0  0  0  0  0  0  0  0  0  0  0
   -6.1082   25.7045  -30.1483 H   0  0  0  0  0  0  0  0  0  0  0  0
   -7.8490   25.2613  -30.1483 H   0  0  0  0  0  0  0  0  0  0  0  0
   -4.8770   23.3552  -33.0988 H   0  0  0  0  0  0  0  0  0  0  0  0
   -0.0749   22.3498  -29.0648 H   0  0  0  0  0  0  0  0  0  0  0  0
    2.3611   19.4793  -30.2413 H   0  0  0  0  0  0  0  0  0  0  0  0
    1.2631   18.7526  -31.4632 H   0  0  0  0  0  0  0  0  0  0  0  0
    1.5599   20.5242  -31.4632 H   0  0  0  0  0  0  0  0  0  0  0  0
    0.3011   20.0139  -27.8294 H   0  0  0  0  0  0  0  0  0  0  0  0
   -0.5302   18.5564  -28.4707 H   0  0  0  0  0  0  0  0  0  0  0  0
    1.2641   18.6398  -28.4707 H   0  0  0  0  0  0  0  0  0  0  0  0
   -3.6678   15.9405  -32.8567 H   0  0  0  0  0  0  0  0  0  0  0  0
   -6.0663   15.3580  -32.5212 H   0  0  0  0  0  0  0  0  0  0  0  0
   -7.8072   17.1374  -32.5793 H   0  0  0  0  0  0  0  0  0  0  0  0
   -3.8130   20.7210  -33.7200 H   0  0  0  0  0  0  0  0  0  0  0  0
   -3.6421   20.7549  -32.2366 H   0  0  0  0  0  0  0  0  0  0  0  0
  1  2  1  0
  2  3  1  0
  2  4  1  0
  4  5  2  3
  5  6  1  0
  6  7  2  0
  7  8  1  0
  7  9  1  0
  9 10  1  0
 10 11  2  0
 11 12  1  0
 12 13  1  0
 13 14  1  0
 13 15  1  0
 12 16  2  0
 16 17  1  0
 17 18  1  0
 18 19  2  0
 18 20  2  0
 18 21  1  0
 21 22  2  0
 22 23  1  0
 23 24  2  0
 24 25  1  0
 25 26  1  0
 25 27  2  0
 27 28  1  0
 16 29  1  0
 29 30  2  0
 30  6  1  0
 30 10  1  0
 27 21  1  0
  1 31  1  0
  1 32  1  0
  1 33  1  0
  2 34  1  0
  3 35  1  0
  3 36  1  0
  3 37  1  0
  5 38  1  0
 11 39  1  0
 14 40  1  0
 14 41  1  0
 14 42  1  0
 15 43  1  0
 15 44  1  0
 15 45  1  0
 22 46  1  0
 23 47  1  0
 24 48  1  0
 28 49  1  0
 29 50  1  0
M  CHG  3   8  -1   9  -1  17  -1
M  END
>  <UniqueID>  (43) 
41

>  <SMILES>  (43) 
CC(C)N=Cc1c([O-])[n-]c2cc(N(C)C)c([N-]S(=O)(=O)c3cccc(Br)c3O)cc12

>  <Energy>  (43) 
92.46173716321455

>  <Genealogy>  (43) 
CC(C)N=Cc1c([O-])[n-]c2cc(N(C)C)c([N-]S(=O)(=O)c3cccc(Br)c3O)cc12 (protonated)
CC(C)N=Cc1c([O-])[n-]c2cc(N(C)C)c([N-]S(=O)(=O)c3cccc(Br)c3O)cc12 (3D coordinates assigned)
CC(C)N=Cc1c([O-])[n-]c2cc(N(C)C)c([N-]S(=O)(=O)c3cccc(Br)c3O)cc12 (optimized conformer: 92.46173716321455 kcal/mol)

>  <smiles>  (43) 
CC(C)N=Cc1c(O)[nH]c2cc(N(C)C)c(NS(=O)(=O)c3cccc(Br)c3O)cc12

>  <score_type>  (43) 
oracle

>  <origin>  (43) 
adgpu

>  <m_score__min__energy>  (43) 
-12.48

>  <m_primary>  (43) 
energy

$$$$
43:0
     RDKit          3D

 56 58  0  0  1  0  0  0  0  0999 V2000
    4.3870   25.2390  -21.8640 C   0  0  0  0  0  0  0  0  0  0  0  0
    3.3660   25.3730  -22.8580 N   0  0  0  0  0  0  0  0  0  0  0  0
    3.5690   24.8750  -24.1740 C   0  0  0  0  0  0  0  0  0  0  0  0
    4.6960   24.3200  -24.3860 O   0  0  0  0  0  0  0  0  0  0  0  0
    2.5670   24.9820  -25.2320 C   0  0  0  0  0  0  0  0  0  0  0  0
    2.8530   24.5860  -26.5120 C   0  0  0  0  0  0  0  0  0  0  0  0
    1.8540   24.7160  -27.4620 C   0  0  0  0  0  0  0  0  0  0  0  0
    0.5930   25.2350  -27.1280 C   0  0  0  0  0  0  0  0  0  0  0  0
   -0.3870   25.3950  -28.1270 N   0  0  0  0  0  0  0  0  0  0  0  0
   -1.1940   24.4550  -28.4190 C   0  0  0  0  0  0  0  0  0  0  0  0
   -2.1030   24.7190  -29.4040 N   0  0  0  0  0  0  0  0  0  0  0  0
   -3.0070   23.8260  -29.8070 C   0  0  0  0  0  0  0  0  0  0  0  0
   -3.8300   24.1570  -30.7440 N   0  0  0  0  0  0  0  0  0  0  0  0
   -4.8220   23.2580  -31.2260 C   0  0  0  0  0  0  0  0  0  0  0  0
   -4.4750   22.3240  -32.2030 C   0  0  0  0  0  0  0  0  0  0  0  0
   -5.4260   21.4260  -32.6980 C   0  0  0  0  0  0  0  0  0  0  0  0
   -6.7200   21.4730  -32.2060 C   0  0  0  0  0  0  0  0  0  0  0  0
   -7.7930   20.5520  -32.6810 C   0  0  0  0  0  0  0  0  0  0  0  0
   -7.3200   18.9020  -32.1880 S   0  0  0  0  0  0  0  0  0  0  0  0
   -6.8610   18.0300  -33.6810 C   0  0  0  0  0  0  0  0  0  0  0  0
   -8.5410   18.2200  -31.6100 O   0  0  0  0  0  0  0  0  0  0  0  0
   -6.2110   18.9280  -31.1970 O   0  0  0  0  0  0  0  0  0  0  0  0
   -7.0840   22.3950  -31.2350 C   0  0  0  0  0  0  0  0  0  0  0  0
   -6.1360   23.2800  -30.7520 C   0  0  0  0  0  0  0  0  0  0  0  0
   -3.0630   22.6090  -29.2510 N   0  0  0  0  0  0  0  0  0  0  0  0
   -2.1770   22.3270  -28.2780 C   0  0  0  0  0  0  0  0  0  0  0  0
   -1.2280   23.2170  -27.8320 C   0  0  0  0  0  0  0  0  0  0  0  0
   -0.1120   22.8140  -26.5710 Cl  0  0  0  0  0  0  0  0  0  0  0  0
    0.3070   25.6330  -25.8440 C   0  0  0  0  0  0  0  0  0  0  0  0
   -1.1840   26.3080  -25.3130 S   0  0  0  0  0  0  0  0  0  0  0  0
   -2.6270   25.4080  -25.7530 C   0  0  0  0  0  0  0  0  0  0  0  0
   -1.2230   26.4680  -23.8020 O   0  0  0  0  0  0  0  0  0  0  0  0
   -1.2450   27.7280  -25.8410 O   0  0  0  0  0  0  0  0  0  0  0  0
    1.3300   25.4920  -24.9030 C   0  0  0  0  0  0  0  0  0  0  0  0
    3.9344   25.2984  -20.8632 H   0  0  0  0  0  0  0  0  0  0  0  0
    4.8888   24.2673  -21.9824 H   0  0  0  0  0  0  0  0  0  0  0  0
    5.1225   26.0483  -21.9824 H   0  0  0  0  0  0  0  0  0  0  0  0
    2.4800   25.8380  -22.6000 H   0  0  0  0  0  0  0  0  0  0  0  0
    3.8406   24.1795  -26.7755 H   0  0  0  0  0  0  0  0  0  0  0  0
    2.0523   24.4065  -28.4988 H   0  0  0  0  0  0  0  0  0  0  0  0
   -2.0970   25.6730  -29.8750 H   0  0  0  0  0  0  0  0  0  0  0  0
   -3.4447   22.2938  -32.5871 H   0  0  0  0  0  0  0  0  0  0  0  0
   -5.1498   20.6913  -33.4687 H   0  0  0  0  0  0  0  0  0  0  0  0
   -8.7546   20.8229  -32.2206 H   0  0  0  0  0  0  0  0  0  0  0  0
   -7.9115   20.6170  -33.7727 H   0  0  0  0  0  0  0  0  0  0  0  0
   -6.3638   17.0853  -33.4157 H   0  0  0  0  0  0  0  0  0  0  0  0
   -7.7633   17.8159  -34.2727 H   0  0  0  0  0  0  0  0  0  0  0  0
   -6.1737   18.6526  -34.2727 H   0  0  0  0  0  0  0  0  0  0  0  0
   -8.1152   22.4222  -30.8532 H   0  0  0  0  0  0  0  0  0  0  0  0
   -6.4216   24.0124  -29.9826 H   0  0  0  0  0  0  0  0  0  0  0  0
   -3.7690   21.9050  -29.5630 H   0  0  0  0  0  0  0  0  0  0  0  0
   -2.2138   21.3303  -27.8141 H   0  0  0  0  0  0  0  0  0  0  0  0
   -3.1486   25.0827  -24.8408 H   0  0  0  0  0  0  0  0  0  0  0  0
   -3.2933   26.0509  -26.3469 H   0  0  0  0  0  0  0  0  0  0  0  0
   -2.3427   24.5268  -26.3469 H   0  0  0  0  0  0  0  0  0  0  0  0
    1.1414   25.7987  -23.8636 H   0  0  0  0  0  0  0  0  0  0  0  0
  1  2  1  0
  2  3  1  0
  3  4  2  0
  3  5  1  0
  5  6  2  0
  6  7  1  0
  7  8  2  0
  8  9  1  0
  9 10  2  0
 10 11  1  0
 11 12  1  0
 12 13  2  0
 13 14  1  0
 14 15  2  0
 15 16  1  0
 16 17  2  0
 17 18  1  0
 18 19  1  0
 19 20  1  0
 19 21  2  0
 19 22  2  0
 17 23  1  0
 23 24  2  0
 12 25  1  0
 25 26  1  0
 26 27  2  0
 27 28  1  0
  8 29  1  0
 29 30  1  0
 30 31  1  0
 30 32  2  0
 30 33  2  0
 29 34  2  0
 34  5  1  0
 27 10  1  0
 24 14  1  0
  1 35  1  0
  1 36  1  0
  1 37  1  0
  2 38  1  0
  6 39  1  0
  7 40  1  0
 11 41  1  0
 15 42  1  0
 16 43  1  0
 18 44  1  0
 18 45  1  0
 20 46  1  0
 20 47  1  0
 20 48  1  0
 23 49  1  0
 24 50  1  0
 25 51  1  0
 26 52  1  0
 31 53  1  0
 31 54  1  0
 31 55  1  0
 34 56  1  0
M  END
>  <smiles>  (44) 
CNC(=O)c1ccc(N=c2[nH]c(=Nc3ccc(CS(C)(=O)=O)cc3)[nH]cc2Cl)c(S(C)(=O)=O)c1

>  <score_type>  (44) 
oracle

>  <origin>  (44) 
adgpu

>  <m_score__min__energy>  (44) 
-11.1

>  <m_primary>  (44) 
energy

$$$$
44:0
     RDKit          3D

 44 46  0  0  0  0  0  0  0  0999 V2000
   -1.8570   24.3600  -29.3300 O   0  0  0  0  0  0  0  0  0  0  0  0
   -3.2470   24.0160  -29.7850 S   0  0  0  0  0  0  0  0  0  0  0  0
   -4.1160   23.8320  -28.5730 O   0  0  0  0  0  0  0  0  0  0  0  0
   -3.8640   25.3180  -30.7640 N   0  0  0  0  0  0  0  0  0  0  0  0
   -5.2600   25.6220  -30.4320 C   0  0  0  0  0  0  0  0  0  0  0  0
   -6.1630   24.4590  -30.7510 C   0  0  0  0  0  0  0  0  0  0  0  0
   -6.3540   24.0540  -32.0830 C   0  0  0  0  0  0  0  0  0  0  0  0
   -7.1710   22.9590  -32.3760 C   0  0  0  0  0  0  0  0  0  0  0  0
   -7.8110   22.2650  -31.3450 C   0  0  0  0  0  0  0  0  0  0  0  0
   -7.6390   22.6710  -30.0200 C   0  0  0  0  0  0  0  0  0  0  0  0
   -6.8250   23.7670  -29.7210 C   0  0  0  0  0  0  0  0  0  0  0  0
   -3.1800   22.5300  -30.7280 C   0  0  0  0  0  0  0  0  0  0  0  0
   -4.2390   21.6110  -30.6960 C   0  0  0  0  0  0  0  0  0  0  0  0
   -4.2170   20.4880  -31.5280 C   0  0  0  0  0  0  0  0  0  0  0  0
   -3.1370   20.2710  -32.3940 C   0  0  0  0  0  0  0  0  0  0  0  0
   -3.1560   18.8910  -33.4850 S   0  0  0  0  0  0  0  0  0  0  0  0
   -2.8530   17.6440  -32.7020 O   0  0  0  0  0  0  0  0  0  0  0  0
   -2.1060   19.0740  -34.5430 O   0  0  0  0  0  0  0  0  0  0  0  0
   -4.7070   18.7490  -34.2480 N   0  0  0  0  0  0  0  0  0  0  0  0
   -5.9360   18.7650  -33.5180 C   0  0  0  0  0  0  0  0  0  0  0  0
   -6.8660   19.7820  -33.7730 C   0  0  0  0  0  0  0  0  0  0  0  0
   -8.0750   19.8230  -33.0740 C   0  0  0  0  0  0  0  0  0  0  0  0
   -8.3700   18.8390  -32.1270 C   0  0  0  0  0  0  0  0  0  0  0  0
   -7.4630   17.8020  -31.8910 C   0  0  0  0  0  0  0  0  0  0  0  0
   -6.2510   17.7500  -32.5960 C   0  0  0  0  0  0  0  0  0  0  0  0
   -5.3770   16.6800  -32.4020 O   0  0  0  0  0  0  0  0  0  0  0  0
   -2.0620   21.1710  -32.3980 C   0  0  0  0  0  0  0  0  0  0  0  0
   -2.0850   22.2950  -31.5700 C   0  0  0  0  0  0  0  0  0  0  0  0
   -5.3321   25.8478  -29.3578 H   0  0  0  0  0  0  0  0  0  0  0  0
   -5.5802   26.4859  -31.0330 H   0  0  0  0  0  0  0  0  0  0  0  0
   -5.8583   24.6013  -32.8983 H   0  0  0  0  0  0  0  0  0  0  0  0
   -7.3109   22.6424  -33.4201 H   0  0  0  0  0  0  0  0  0  0  0  0
   -8.4495   21.3999  -31.5772 H   0  0  0  0  0  0  0  0  0  0  0  0
   -8.1456   22.1267  -29.2094 H   0  0  0  0  0  0  0  0  0  0  0  0
   -6.7017   24.0895  -28.6766 H   0  0  0  0  0  0  0  0  0  0  0  0
   -5.0877   21.7741  -30.0155 H   0  0  0  0  0  0  0  0  0  0  0  0
   -5.0512   19.7714  -31.5028 H   0  0  0  0  0  0  0  0  0  0  0  0
   -6.6430   20.5514  -34.5269 H   0  0  0  0  0  0  0  0  0  0  0  0
   -8.7955   20.6309  -33.2695 H   0  0  0  0  0  0  0  0  0  0  0  0
   -9.3160   18.8804  -31.5672 H   0  0  0  0  0  0  0  0  0  0  0  0
   -7.7002   17.0242  -31.1502 H   0  0  0  0  0  0  0  0  0  0  0  0
   -4.4430   16.6820  -32.7940 H   0  0  0  0  0  0  0  0  0  0  0  0
   -1.1983   20.9912  -33.0551 H   0  0  0  0  0  0  0  0  0  0  0  0
   -1.2399   22.9990  -31.5787 H   0  0  0  0  0  0  0  0  0  0  0  0
  1  2  2  0
  2  3  2  0
  2  4  1  0
  4  5  1  0
  5  6  1  0
  6  7  2  0
  7  8  1  0
  8  9  2  0
  9 10  1  0
 10 11  2  0
  2 12  1  0
 12 13  2  0
 13 14  1  0
 14 15  2  0
 15 16  1  0
 16 17  2  0
 16 18  2  0
 16 19  1  0
 19 20  1  0
 20 21  2  0
 21 22  1  0
 22 23  2  0
 23 24  1  0
 24 25  2  0
 25 26  1  0
 15 27  1  0
 27 28  2  0
 11  6  1  0
 28 12  1  0
 25 20  1  0
  5 29  1  0
  5 30  1  0
  7 31  1  0
  8 32  1  0
  9 33  1  0
 10 34  1  0
 11 35  1  0
 13 36  1  0
 14 37  1  0
 21 38  1  0
 22 39  1  0
 23 40  1  0
 24 41  1  0
 26 42  1  0
 27 43  1  0
 28 44  1  0
M  CHG  2   4  -1  19  -1
M  END
>  <UniqueID>  (45) 
42

>  <SMILES>  (45) 
O=S(=O)([N-]Cc1ccccc1)c1ccc(S(=O)(=O)[N-]c2ccccc2O)cc1

>  <Energy>  (45) 
49.23660376826169

>  <Genealogy>  (45) 
O=S(=O)([N-]Cc1ccccc1)c1ccc(S(=O)(=O)[N-]c2ccccc2O)cc1 (protonated)
O=S(=O)([N-]Cc1ccccc1)c1ccc(S(=O)(=O)[N-]c2ccccc2O)cc1 (3D coordinates assigned)
O=S(=O)([N-]Cc1ccccc1)c1ccc(S(=O)(=O)[N-]c2ccccc2O)cc1 (optimized conformer: 49.23660376826169 kcal/mol)

>  <smiles>  (45) 
O=S(=O)(NCc1ccccc1)c1ccc(S(=O)(=O)Nc2ccccc2O)cc1

>  <score_type>  (45) 
oracle

>  <origin>  (45) 
adgpu

>  <m_score__min__energy>  (45) 
-10.67

>  <m_primary>  (45) 
energy

$$$$
45:0
     RDKit          3D

 47 48  0  0  0  0  0  0  0  0999 V2000
    0.5920   20.5270  -36.4640 C   0  0  0  0  0  0  0  0  0  0  0  0
    1.1840   21.6900  -35.6790 C   0  0  0  0  0  0  0  0  0  0  0  0
    0.2500   22.1260  -34.6390 N   0  0  0  0  0  0  0  0  0  0  0  0
    0.0980   20.9240  -33.3920 S   0  0  0  0  0  0  0  0  0  0  0  0
    0.2540   21.5620  -32.0390 O   0  0  0  0  0  0  0  0  0  0  0  0
    1.1790   19.8950  -33.5620 O   0  0  0  0  0  0  0  0  0  0  0  0
   -1.4720   20.1340  -33.5180 C   0  0  0  0  0  0  0  0  0  0  0  0
   -2.6390   20.7890  -33.1030 C   0  0  0  0  0  0  0  0  0  0  0  0
   -3.8790   20.1530  -33.2120 C   0  0  0  0  0  0  0  0  0  0  0  0
   -3.9630   18.8590  -33.7440 C   0  0  0  0  0  0  0  0  0  0  0  0
   -5.5390   18.0840  -33.9110 S   0  0  0  0  0  0  0  0  0  0  0  0
   -5.3870   16.6070  -33.6820 O   0  0  0  0  0  0  0  0  0  0  0  0
   -6.0920   18.3070  -35.2920 O   0  0  0  0  0  0  0  0  0  0  0  0
   -6.6390   18.7400  -32.7360 N   0  0  0  0  0  0  0  0  0  0  0  0
   -7.5650   19.6810  -33.3850 C   0  0  0  0  0  0  0  0  0  0  0  0
   -8.4260   20.4290  -32.3550 C   0  0  0  0  0  0  0  0  0  0  0  0
   -7.6700   21.5850  -31.7490 C   0  0  0  0  0  0  0  0  0  0  0  0
   -8.0290   22.0970  -30.4910 C   0  0  0  0  0  0  0  0  0  0  0  0
   -7.2860   23.1290  -29.9100 C   0  0  0  0  0  0  0  0  0  0  0  0
   -6.1810   23.6680  -30.5830 C   0  0  0  0  0  0  0  0  0  0  0  0
   -5.2420   24.9630  -29.8490 S   0  0  0  0  0  0  0  0  0  0  0  0
   -3.8630   25.3070  -30.8310 N   0  0  0  0  0  0  0  0  0  0  0  0
   -4.7910   24.5520  -28.4760 O   0  0  0  0  0  0  0  0  0  0  0  0
   -6.0910   26.1970  -29.7260 O   0  0  0  0  0  0  0  0  0  0  0  0
   -5.8200   23.1600  -31.8370 C   0  0  0  0  0  0  0  0  0  0  0  0
   -6.5560   22.1220  -32.4150 C   0  0  0  0  0  0  0  0  0  0  0  0
   -2.7970   18.2060  -34.1650 C   0  0  0  0  0  0  0  0  0  0  0  0
   -1.5560   18.8420  -34.0520 C   0  0  0  0  0  0  0  0  0  0  0  0
    0.2070   19.7706  -35.7643 H   0  0  0  0  0  0  0  0  0  0  0  0
   -0.2297   20.8926  -37.0974 H   0  0  0  0  0  0  0  0  0  0  0  0
    1.3711   20.0778  -37.0974 H   0  0  0  0  0  0  0  0  0  0  0  0
    2.1261   21.3697  -35.2101 H   0  0  0  0  0  0  0  0  0  0  0  0
    1.3723   22.5279  -36.3663 H   0  0  0  0  0  0  0  0  0  0  0  0
   -2.5792   21.8068  -32.6901 H   0  0  0  0  0  0  0  0  0  0  0  0
   -4.7914   20.6695  -32.8793 H   0  0  0  0  0  0  0  0  0  0  0  0
   -6.0480   19.2420  -32.0370 H   0  0  0  0  0  0  0  0  0  0  0  0
   -6.9825   20.4137  -33.9627 H   0  0  0  0  0  0  0  0  0  0  0  0
   -8.2353   19.1065  -34.0412 H   0  0  0  0  0  0  0  0  0  0  0  0
   -9.3290   20.8122  -32.8527 H   0  0  0  0  0  0  0  0  0  0  0  0
   -8.6944   19.7283  -31.5507 H   0  0  0  0  0  0  0  0  0  0  0  0
   -8.8994   21.6837  -29.9603 H   0  0  0  0  0  0  0  0  0  0  0  0
   -7.5696   23.5192  -28.9214 H   0  0  0  0  0  0  0  0  0  0  0  0
   -3.9960   26.2690  -31.2160 H   0  0  0  0  0  0  0  0  0  0  0  0
   -4.9536   23.5796  -32.3693 H   0  0  0  0  0  0  0  0  0  0  0  0
   -6.2612   21.7234  -33.3969 H   0  0  0  0  0  0  0  0  0  0  0  0
   -2.8575   17.1912  -34.5852 H   0  0  0  0  0  0  0  0  0  0  0  0
   -0.6432   18.3255  -34.3837 H   0  0  0  0  0  0  0  0  0  0  0  0
  1  2  1  0
  2  3  1  0
  3  4  1  0
  4  5  2  0
  4  6  2  0
  4  7  1  0
  7  8  2  0
  8  9  1  0
  9 10  2  0
 10 11  1  0
 11 12  2  0
 11 13  2  0
 11 14  1  0
 14 15  1  0
 15 16  1  0
 16 17  1  0
 17 18  2  0
 18 19  1  0
 19 20  2  0
 20 21  1  0
 21 22  1  0
 21 23  2  0
 21 24  2  0
 20 25  1  0
 25 26  2  0
 10 27  1  0
 27 28  2  0
 28  7  1  0
 26 17  1  0
  1 29  1  0
  1 30  1  0
  1 31  1  0
  2 32  1  0
  2 33  1  0
  8 34  1  0
  9 35  1  0
 14 36  1  0
 15 37  1  0
 15 38  1  0
 16 39  1  0
 16 40  1  0
 18 41  1  0
 19 42  1  0
 22 43  1  0
 25 44  1  0
 26 45  1  0
 27 46  1  0
 28 47  1  0
M  CHG  2   3  -1  22  -1
M  END
>  <UniqueID>  (46) 
43

>  <SMILES>  (46) 
CC[N-]S(=O)(=O)c1ccc(S(=O)(=O)NCCc2ccc(S([NH-])(=O)=O)cc2)cc1

>  <Energy>  (46) 
35.49635536781373

>  <Genealogy>  (46) 
CC[N-]S(=O)(=O)c1ccc(S(=O)(=O)NCCc2ccc(S([NH-])(=O)=O)cc2)cc1 (protonated)
CC[N-]S(=O)(=O)c1ccc(S(=O)(=O)NCCc2ccc(S([NH-])(=O)=O)cc2)cc1 (3D coordinates assigned)
CC[N-]S(=O)(=O)c1ccc(S(=O)(=O)NCCc2ccc(S([NH-])(=O)=O)cc2)cc1 (optimized conformer: 35.49635536781373 kcal/mol)

>  <smiles>  (46) 
CCNS(=O)(=O)c1ccc(S(=O)(=O)NCCc2ccc(S(N)(=O)=O)cc2)cc1

>  <score_type>  (46) 
oracle

>  <origin>  (46) 
adgpu

>  <m_score__min__energy>  (46) 
-12.26

>  <m_primary>  (46) 
energy

$$$$
46:0
     RDKit          3D

 63 66  0  0  0  0  0  0  0  0999 V2000
    1.7620   18.6180  -28.7400 C   0  0  0  0  0  0  0  0  0  0  0  0
    0.6260   19.4600  -28.2380 C   0  0  0  0  0  0  0  0  0  0  0  0
   -0.4290   18.8740  -27.5210 C   0  0  0  0  0  0  0  0  0  0  0  0
   -1.5080   19.6550  -27.0820 C   0  0  0  0  0  0  0  0  0  0  0  0
   -2.6400   19.0120  -26.3390 C   0  0  0  0  0  0  0  0  0  0  0  0
   -1.5480   21.0190  -27.4040 C   0  0  0  0  0  0  0  0  0  0  0  0
   -0.5130   21.6030  -28.1450 C   0  0  0  0  0  0  0  0  0  0  0  0
   -0.6240   23.2980  -28.6200 S   0  0  0  0  0  0  0  0  0  0  0  0
   -0.7590   23.4220  -30.1120 O   0  0  0  0  0  0  0  0  0  0  0  0
    0.6480   23.9800  -28.1960 O   0  0  0  0  0  0  0  0  0  0  0  0
   -2.0240   24.0680  -27.8500 C   0  0  0  0  0  0  0  0  0  0  0  0
   -1.8300   24.6910  -26.6060 C   0  0  0  0  0  0  0  0  0  0  0  0
   -2.9070   25.2290  -25.9020 C   0  0  0  0  0  0  0  0  0  0  0  0
   -4.1960   25.1530  -26.4290 C   0  0  0  0  0  0  0  0  0  0  0  0
   -4.4080   24.5470  -27.6670 C   0  0  0  0  0  0  0  0  0  0  0  0
   -3.3340   24.0110  -28.3990 C   0  0  0  0  0  0  0  0  0  0  0  0
   -3.6350   23.4000  -29.7110 C   0  0  0  0  0  0  0  0  0  0  0  0
   -4.0180   24.1370  -30.6610 O   0  0  0  0  0  0  0  0  0  0  0  0
   -3.4950   21.9860  -29.9010 N   0  0  0  0  0  0  0  0  0  0  0  0
   -3.3490   21.2940  -31.1500 C   0  0  0  0  0  0  0  0  0  0  0  0
   -2.2500   21.6000  -31.9620 C   0  0  0  0  0  0  0  0  0  0  0  0
   -2.0910   20.9730  -33.2000 C   0  0  0  0  0  0  0  0  0  0  0  0
   -3.0510   20.0660  -33.6530 C   0  0  0  0  0  0  0  0  0  0  0  0
   -4.1810   19.7790  -32.8730 C   0  0  0  0  0  0  0  0  0  0  0  0
   -5.4280   18.6780  -33.4810 S   0  0  0  0  0  0  0  0  0  0  0  0
   -5.1690   17.3040  -32.9270 O   0  0  0  0  0  0  0  0  0  0  0  0
   -5.3220   18.6030  -34.9790 O   0  0  0  0  0  0  0  0  0  0  0  0
   -7.0540   19.2020  -33.0780 N   0  0  0  0  0  0  0  0  0  0  0  0
   -7.0370   20.5660  -32.5140 C   0  0  0  0  0  0  0  0  0  0  0  0
   -8.4670   21.1230  -32.3610 C   0  0  0  0  0  0  0  0  0  0  0  0
   -9.4900   20.0350  -31.9920 C   0  0  0  0  0  0  0  0  0  0  0  0
   -8.8220   18.8430  -31.3000 C   0  0  0  0  0  0  0  0  0  0  0  0
   -7.7300   18.2180  -32.1940 C   0  0  0  0  0  0  0  0  0  0  0  0
   -4.3170   20.3860  -31.6160 C   0  0  0  0  0  0  0  0  0  0  0  0
    0.5800   20.8250  -28.5440 C   0  0  0  0  0  0  0  0  0  0  0  0
    2.3183   18.2056  -27.8853 H   0  0  0  0  0  0  0  0  0  0  0  0
    1.3654   17.7940  -29.3513 H   0  0  0  0  0  0  0  0  0  0  0  0
    2.4350   19.2371  -29.3513 H   0  0  0  0  0  0  0  0  0  0  0  0
   -0.4093   17.7962  -27.3022 H   0  0  0  0  0  0  0  0  0  0  0  0
   -2.4699   19.1086  -25.2565 H   0  0  0  0  0  0  0  0  0  0  0  0
   -3.5840   19.5087  -26.6076 H   0  0  0  0  0  0  0  0  0  0  0  0
   -2.6968   17.9468  -26.6076 H   0  0  0  0  0  0  0  0  0  0  0  0
   -2.3975   21.6342  -27.0726 H   0  0  0  0  0  0  0  0  0  0  0  0
   -0.8169   24.7552  -26.1823 H   0  0  0  0  0  0  0  0  0  0  0  0
   -2.7395   25.7142  -24.9291 H   0  0  0  0  0  0  0  0  0  0  0  0
   -5.0451   25.5709  -25.8684 H   0  0  0  0  0  0  0  0  0  0  0  0
   -5.4276   24.4877  -28.0756 H   0  0  0  0  0  0  0  0  0  0  0  0
   -1.5080   22.3380  -31.6232 H   0  0  0  0  0  0  0  0  0  0  0  0
   -1.2087   21.1940  -33.8186 H   0  0  0  0  0  0  0  0  0  0  0  0
   -2.9204   19.5733  -34.6278 H   0  0  0  0  0  0  0  0  0  0  0  0
   -7.5820   19.2390  -33.9820 H   0  0  0  0  0  0  0  0  0  0  0  0
   -6.5543   20.5399  -31.5259 H   0  0  0  0  0  0  0  0  0  0  0  0
   -6.4795   21.2203  -33.2004 H   0  0  0  0  0  0  0  0  0  0  0  0
   -8.4646   21.8870  -31.5697 H   0  0  0  0  0  0  0  0  0  0  0  0
   -8.7655   21.5450  -33.3320 H   0  0  0  0  0  0  0  0  0  0  0  0
  -10.2408   20.4665  -31.3137 H   0  0  0  0  0  0  0  0  0  0  0  0
   -9.9587   19.6752  -32.9198 H   0  0  0  0  0  0  0  0  0  0  0  0
   -8.3640   19.1845  -30.3600 H   0  0  0  0  0  0  0  0  0  0  0  0
   -9.5895   18.0800  -31.1031 H   0  0  0  0  0  0  0  0  0  0  0  0
   -6.9722   17.7542  -31.5455 H   0  0  0  0  0  0  0  0  0  0  0  0
   -8.2261   17.4841  -32.8461 H   0  0  0  0  0  0  0  0  0  0  0  0
   -5.1890   20.1497  -30.9885 H   0  0  0  0  0  0  0  0  0  0  0  0
    1.4073   21.2889  -29.1011 H   0  0  0  0  0  0  0  0  0  0  0  0
  1  2  1  0
  2  3  2  0
  3  4  1  0
  4  5  1  0
  4  6  2  0
  6  7  1  0
  7  8  1  0
  8  9  2  0
  8 10  2  0
  8 11  1  0
 11 12  2  0
 12 13  1  0
 13 14  2  0
 14 15  1  0
 15 16  2  0
 16 17  1  0
 17 18  2  0
 17 19  1  0
 19 20  1  0
 20 21  2  0
 21 22  1  0
 22 23  2  0
 23 24  1  0
 24 25  1  0
 25 26  2  0
 25 27  2  0
 25 28  1  0
 28 29  1  0
 29 30  1  0
 30 31  1  0
 31 32  1  0
 32 33  1  0
 24 34  2  0
  7 35  2  0
 35  2  1  0
 16 11  1  0
 34 20  1  0
 33 28  1  0
  1 36  1  0
  1 37  1  0
  1 38  1  0
  3 39  1  0
  5 40  1  0
  5 41  1  0
  5 42  1  0
  6 43  1  0
 12 44  1  0
 13 45  1  0
 14 46  1  0
 15 47  1  0
 21 48  1  0
 22 49  1  0
 23 50  1  0
 28 51  1  0
 29 52  1  0
 29 53  1  0
 30 54  1  0
 30 55  1  0
 31 56  1  0
 31 57  1  0
 32 58  1  0
 32 59  1  0
 33 60  1  0
 33 61  1  0
 34 62  1  0
 35 63  1  0
M  CHG  2  19  -1  28   1
M  END
>  <UniqueID>  (47) 
44

>  <SMILES>  (47) 
Cc1cc(C)cc(S(=O)(=O)c2ccccc2C(=O)[N-]c2cccc(S(=O)(=O)[NH+]3CCCCC3)c2)c1

>  <Energy>  (47) 
79.14202044224284

>  <Genealogy>  (47) 
Cc1cc(C)cc(S(=O)(=O)c2ccccc2C(=O)[N-]c2cccc(S(=O)(=O)[NH+]3CCCCC3)c2)c1 (protonated)
Cc1cc(C)cc(S(=O)(=O)c2ccccc2C(=O)[N-]c2cccc(S(=O)(=O)[NH+]3CCCCC3)c2)c1 (3D coordinates assigned)
Cc1cc(C)cc(S(=O)(=O)c2ccccc2C(=O)[N-]c2cccc(S(=O)(=O)[NH+]3CCCCC3)c2)c1 (nonaromatic ring conformer: 79.14202044224284 kcal/mol)

>  <smiles>  (47) 
Cc1cc(C)cc(S(=O)(=O)c2ccccc2C(=O)Nc2cccc(S(=O)(=O)N3CCCCC3)c2)c1

>  <score_type>  (47) 
oracle

>  <origin>  (47) 
adgpu

>  <m_score__min__energy>  (47) 
-13.09

>  <m_primary>  (47) 
energy

$$$$
47:0
     RDKit          3D

 47 50  0  0  0  0  0  0  0  0999 V2000
   -3.3910   24.9960  -26.4230 C   0  0  0  0  0  0  0  0  0  0  0  0
   -1.8910   25.1110  -26.3320 C   0  0  0  0  0  0  0  0  0  0  0  0
   -1.3220   25.4540  -25.0920 C   0  0  0  0  0  0  0  0  0  0  0  0
    0.0610   25.5420  -24.9430 C   0  0  0  0  0  0  0  0  0  0  0  0
    0.8970   25.2900  -26.0260 C   0  0  0  0  0  0  0  0  0  0  0  0
    0.3530   24.9600  -27.2680 C   0  0  0  0  0  0  0  0  0  0  0  0
   -1.0410   24.8770  -27.4490 C   0  0  0  0  0  0  0  0  0  0  0  0
   -1.5560   24.5490  -28.8050 C   0  0  0  0  0  0  0  0  0  0  0  0
   -1.0200   23.6360  -29.4890 O   0  0  0  0  0  0  0  0  0  0  0  0
   -2.6580   25.2940  -29.3420 N   0  0  0  0  0  0  0  0  0  0  0  0
   -3.9140   24.7660  -29.7950 C   0  0  0  0  0  0  0  0  0  0  0  0
   -4.6360   25.4870  -30.7530 C   0  0  0  0  0  0  0  0  0  0  0  0
   -5.8680   25.0150  -31.2160 C   0  0  0  0  0  0  0  0  0  0  0  0
   -6.3970   23.8140  -30.7210 C   0  0  0  0  0  0  0  0  0  0  0  0
   -7.7400   23.3280  -31.1920 C   0  0  0  0  0  0  0  0  0  0  0  0
   -7.6260   21.9650  -31.7100 N   0  0  0  0  0  0  0  0  0  0  0  0
   -8.5730   21.0010  -31.5980 C   0  0  0  0  0  0  0  0  0  0  0  0
   -8.1060   19.8040  -32.1270 C   0  0  0  0  0  0  0  0  0  0  0  0
   -8.8260   18.5240  -32.1760 C   0  0  0  0  0  0  0  0  0  0  0  0
   -8.2090   17.4380  -32.0220 O   0  0  0  0  0  0  0  0  0  0  0  0
   -6.8220   20.0590  -32.5660 C   0  0  0  0  0  0  0  0  0  0  0  0
   -5.8760   19.2260  -33.1680 C   0  0  0  0  0  0  0  0  0  0  0  0
   -4.6260   19.7810  -33.4950 C   0  0  0  0  0  0  0  0  0  0  0  0
   -4.3480   21.1350  -33.2130 C   0  0  0  0  0  0  0  0  0  0  0  0
   -5.3170   21.9510  -32.6030 C   0  0  0  0  0  0  0  0  0  0  0  0
   -6.5570   21.3800  -32.2930 C   0  0  0  0  0  0  0  0  0  0  0  0
   -5.6940   23.1120  -29.7300 C   0  0  0  0  0  0  0  0  0  0  0  0
   -4.4640   23.5840  -29.2660 C   0  0  0  0  0  0  0  0  0  0  0  0
   -3.8184   24.9632  -25.4099 H   0  0  0  0  0  0  0  0  0  0  0  0
   -3.7934   25.8659  -26.9627 H   0  0  0  0  0  0  0  0  0  0  0  0
   -3.6561   24.0749  -26.9627 H   0  0  0  0  0  0  0  0  0  0  0  0
   -1.9758   25.6550  -24.2305 H   0  0  0  0  0  0  0  0  0  0  0  0
    0.4922   25.8112  -23.9675 H   0  0  0  0  0  0  0  0  0  0  0  0
    1.9884   25.3510  -25.9032 H   0  0  0  0  0  0  0  0  0  0  0  0
    1.0227   24.7619  -28.1178 H   0  0  0  0  0  0  0  0  0  0  0  0
   -4.2312   26.4319  -31.1445 H   0  0  0  0  0  0  0  0  0  0  0  0
   -6.4249   25.5882  -31.9719 H   0  0  0  0  0  0  0  0  0  0  0  0
   -8.4473   23.3395  -30.3496 H   0  0  0  0  0  0  0  0  0  0  0  0
   -8.1024   23.9892  -31.9929 H   0  0  0  0  0  0  0  0  0  0  0  0
   -9.5682   21.1458  -31.1523 H   0  0  0  0  0  0  0  0  0  0  0  0
   -9.9123   18.5150  -32.3486 H   0  0  0  0  0  0  0  0  0  0  0  0
   -6.1015   18.1703  -33.3794 H   0  0  0  0  0  0  0  0  0  0  0  0
   -3.8592   19.1547  -33.9743 H   0  0  0  0  0  0  0  0  0  0  0  0
   -3.3653   21.5557  -33.4724 H   0  0  0  0  0  0  0  0  0  0  0  0
   -5.1070   23.0067  -32.3761 H   0  0  0  0  0  0  0  0  0  0  0  0
   -6.1144   22.1837  -29.3158 H   0  0  0  0  0  0  0  0  0  0  0  0
   -3.9236   23.0298  -28.4845 H   0  0  0  0  0  0  0  0  0  0  0  0
  1  2  1  0
  2  3  2  0
  3  4  1  0
  4  5  2  0
  5  6  1  0
  6  7  2  0
  7  8  1  0
  8  9  2  0
  8 10  1  0
 10 11  1  0
 11 12  2  0
 12 13  1  0
 13 14  2  0
 14 15  1  0
 15 16  1  0
 16 17  1  0
 17 18  2  0
 18 19  1  0
 19 20  2  0
 18 21  1  0
 21 22  2  0
 22 23  1  0
 23 24  2  0
 24 25  1  0
 25 26  2  0
 14 27  1  0
 27 28  2  0
  7  2  1  0
 28 11  1  0
 26 16  1  0
 26 21  1  0
  1 29  1  0
  1 30  1  0
  1 31  1  0
  3 32  1  0
  4 33  1  0
  5 34  1  0
  6 35  1  0
 12 36  1  0
 13 37  1  0
 15 38  1  0
 15 39  1  0
 17 40  1  0
 19 41  1  0
 22 42  1  0
 23 43  1  0
 24 44  1  0
 25 45  1  0
 27 46  1  0
 28 47  1  0
M  CHG  1  10  -1
M  END
>  <UniqueID>  (48) 
45

>  <SMILES>  (48) 
Cc1ccccc1C(=O)[N-]c1ccc(Cn2cc(C=O)c3ccccc32)cc1

>  <Energy>  (48) 
91.54561826163625

>  <Genealogy>  (48) 
Cc1ccccc1C(=O)[N-]c1ccc(Cn2cc(C=O)c3ccccc32)cc1 (protonated)
Cc1ccccc1C(=O)[N-]c1ccc(Cn2cc(C=O)c3ccccc32)cc1 (3D coordinates assigned)
Cc1ccccc1C(=O)[N-]c1ccc(Cn2cc(C=O)c3ccccc32)cc1 (optimized conformer: 91.54561826163625 kcal/mol)

>  <smiles>  (48) 
Cc1ccccc1C(=O)Nc1ccc(Cn2cc(C=O)c3ccccc32)cc1

>  <score_type>  (48) 
oracle

>  <origin>  (48) 
adgpu

>  <m_score__min__energy>  (48) 
-11.31

>  <m_primary>  (48) 
energy

$$$$
48:0
     RDKit          3D

 51 54  0  0  0  0  0  0  0  0999 V2000
   -0.4930   26.8520  -23.0670 C   0  0  0  0  0  0  0  0  0  0  0  0
   -0.3470   26.1040  -24.3600 C   0  0  0  0  0  0  0  0  0  0  0  0
    0.3300   26.6870  -25.4410 C   0  0  0  0  0  0  0  0  0  0  0  0
    0.5040   25.9750  -26.6310 C   0  0  0  0  0  0  0  0  0  0  0  0
    0.0240   24.6600  -26.7480 C   0  0  0  0  0  0  0  0  0  0  0  0
    0.2060   23.8900  -28.0300 C   0  0  0  0  0  0  0  0  0  0  0  0
   -1.0390   23.8520  -28.8060 N   0  0  0  0  0  0  0  0  0  0  0  0
   -1.6930   24.9220  -29.3040 C   0  0  0  0  0  0  0  0  0  0  0  0
   -1.2380   26.2320  -29.2150 O   0  0  0  0  0  0  0  0  0  0  0  0
   -2.8730   24.5320  -29.8900 C   0  0  0  0  0  0  0  0  0  0  0  0
   -3.8010   25.3710  -30.4930 O   0  0  0  0  0  0  0  0  0  0  0  0
   -2.9620   23.1600  -29.7630 C   0  0  0  0  0  0  0  0  0  0  0  0
   -4.0960   22.3190  -30.2050 C   0  0  0  0  0  0  0  0  0  0  0  0
   -5.1800   22.3670  -29.5630 O   0  0  0  0  0  0  0  0  0  0  0  0
   -3.9940   21.4200  -31.3730 C   0  0  0  0  0  0  0  0  0  0  0  0
   -5.1010   20.6480  -31.7680 C   0  0  0  0  0  0  0  0  0  0  0  0
   -4.9980   19.7710  -32.8500 C   0  0  0  0  0  0  0  0  0  0  0  0
   -3.7960   19.6640  -33.5550 C   0  0  0  0  0  0  0  0  0  0  0  0
   -2.6970   20.4440  -33.1840 C   0  0  0  0  0  0  0  0  0  0  0  0
   -2.7960   21.3250  -32.1030 C   0  0  0  0  0  0  0  0  0  0  0  0
   -1.8060   22.7670  -29.0830 C   0  0  0  0  0  0  0  0  0  0  0  0
   -1.5120   21.4000  -28.6130 C   0  0  0  0  0  0  0  0  0  0  0  0
   -2.1000   20.9160  -27.4370 C   0  0  0  0  0  0  0  0  0  0  0  0
   -1.7740   19.6450  -26.9580 C   0  0  0  0  0  0  0  0  0  0  0  0
   -0.8590   18.8400  -27.6540 C   0  0  0  0  0  0  0  0  0  0  0  0
   -0.4660   17.5000  -27.1090 C   0  0  0  0  0  0  0  0  0  0  0  0
   -0.2550   19.3340  -28.8210 C   0  0  0  0  0  0  0  0  0  0  0  0
   -0.5850   20.6050  -29.3010 C   0  0  0  0  0  0  0  0  0  0  0  0
   -0.6590   24.0800  -25.6660 C   0  0  0  0  0  0  0  0  0  0  0  0
   -0.8300   24.7930  -24.4760 C   0  0  0  0  0  0  0  0  0  0  0  0
   -0.3575   26.1578  -22.2245 H   0  0  0  0  0  0  0  0  0  0  0  0
    0.2673   27.6452  -23.0144 H   0  0  0  0  0  0  0  0  0  0  0  0
   -1.4958   27.3011  -23.0144 H   0  0  0  0  0  0  0  0  0  0  0  0
    0.7259   27.7094  -25.3519 H   0  0  0  0  0  0  0  0  0  0  0  0
    1.0195   26.4468  -27.4805 H   0  0  0  0  0  0  0  0  0  0  0  0
    0.9894   24.3742  -28.6315 H   0  0  0  0  0  0  0  0  0  0  0  0
    0.4926   22.8580  -27.7795 H   0  0  0  0  0  0  0  0  0  0  0  0
   -6.0522   20.7352  -31.2224 H   0  0  0  0  0  0  0  0  0  0  0  0
   -5.8649   19.1631  -33.1480 H   0  0  0  0  0  0  0  0  0  0  0  0
   -3.7148   18.9662  -34.4015 H   0  0  0  0  0  0  0  0  0  0  0  0
   -1.7531   20.3645  -33.7433 H   0  0  0  0  0  0  0  0  0  0  0  0
   -1.9329   21.9466  -31.8223 H   0  0  0  0  0  0  0  0  0  0  0  0
   -2.8214   21.5395  -26.8886 H   0  0  0  0  0  0  0  0  0  0  0  0
   -2.2363   19.2736  -26.0316 H   0  0  0  0  0  0  0  0  0  0  0  0
   -0.4760   17.5341  -26.0096 H   0  0  0  0  0  0  0  0  0  0  0  0
   -1.1787   16.7386  -27.4587 H   0  0  0  0  0  0  0  0  0  0  0  0
    0.5450   17.2441  -27.4587 H   0  0  0  0  0  0  0  0  0  0  0  0
    0.4807   18.7188  -29.3598 H   0  0  0  0  0  0  0  0  0  0  0  0
   -0.1156   20.9823  -30.2215 H   0  0  0  0  0  0  0  0  0  0  0  0
   -1.0611   23.0601  -25.7557 H   0  0  0  0  0  0  0  0  0  0  0  0
   -1.3463   24.3230  -23.6260 H   0  0  0  0  0  0  0  0  0  0  0  0
  1  2  1  0
  2  3  2  0
  3  4  1  0
  4  5  2  0
  5  6  1  0
  6  7  1  0
  7  8  1  0
  8  9  1  0
  8 10  2  0
 10 11  1  0
 10 12  1  0
 12 13  1  0
 13 14  2  0
 13 15  1  0
 15 16  2  0
 16 17  1  0
 17 18  2  0
 18 19  1  0
 19 20  2  0
 12 21  2  0
 21 22  1  0
 22 23  2  0
 23 24  1  0
 24 25  2  0
 25 26  1  0
 25 27  1  0
 27 28  2  0
  5 29  1  0
 29 30  2  0
 30  2  1  0
 21  7  1  0
 28 22  1  0
 20 15  1  0
  1 31  1  0
  1 32  1  0
  1 33  1  0
  3 34  1  0
  4 35  1  0
  6 36  1  0
  6 37  1  0
 16 38  1  0
 17 39  1  0
 18 40  1  0
 19 41  1  0
 20 42  1  0
 23 43  1  0
 24 44  1  0
 26 45  1  0
 26 46  1  0
 26 47  1  0
 27 48  1  0
 28 49  1  0
 29 50  1  0
 30 51  1  0
M  CHG  2   9  -1  11  -1
M  END
>  <UniqueID>  (49) 
46

>  <SMILES>  (49) 
Cc1ccc(Cn2c([O-])c([O-])c(C(=O)c3ccccc3)c2-c2ccc(C)cc2)cc1

>  <Energy>  (49) 
91.38739074831182

>  <Genealogy>  (49) 
Cc1ccc(Cn2c([O-])c([O-])c(C(=O)c3ccccc3)c2-c2ccc(C)cc2)cc1 (protonated)
Cc1ccc(Cn2c([O-])c([O-])c(C(=O)c3ccccc3)c2-c2ccc(C)cc2)cc1 (3D coordinates assigned)
Cc1ccc(Cn2c([O-])c([O-])c(C(=O)c3ccccc3)c2-c2ccc(C)cc2)cc1 (optimized conformer: 91.38739074831182 kcal/mol)

>  <smiles>  (49) 
Cc1ccc(Cn2c(O)c(O)c(C(=O)c3ccccc3)c2-c2ccc(C)cc2)cc1

>  <score_type>  (49) 
oracle

>  <origin>  (49) 
adgpu

>  <m_score__min__energy>  (49) 
-14.18

>  <m_primary>  (49) 
energy

$$$$
49:0
     RDKit          3D

 50 52  0  0  0  0  0  0  0  0999 V2000
   -8.5840   18.6070  -32.1780 C   0  0  0  0  0  0  0  0  0  0  0  0
   -8.5270   19.9550  -32.6340 O   0  0  0  0  0  0  0  0  0  0  0  0
   -7.5110   20.8590  -32.2960 C   0  0  0  0  0  0  0  0  0  0  0  0
   -7.7780   22.1710  -31.8680 C   0  0  0  0  0  0  0  0  0  0  0  0
   -6.7280   23.0410  -31.5690 C   0  0  0  0  0  0  0  0  0  0  0  0
   -5.4020   22.6310  -31.7230 C   0  0  0  0  0  0  0  0  0  0  0  0
   -4.3550   23.5710  -31.4430 N   0  0  0  0  0  0  0  0  0  0  0  0
   -4.4750   24.8000  -30.7150 C   0  0  0  0  0  0  0  0  0  0  0  0
   -5.1310   25.7480  -31.2220 O   0  0  0  0  0  0  0  0  0  0  0  0
   -3.8660   24.9890  -29.4320 N   0  0  0  0  0  0  0  0  0  0  0  0
   -3.0150   24.0560  -28.7490 C   0  0  0  0  0  0  0  0  0  0  0  0
   -3.6070   22.9340  -28.1830 C   0  0  0  0  0  0  0  0  0  0  0  0
   -2.8500   22.0270  -27.4630 C   0  0  0  0  0  0  0  0  0  0  0  0
   -1.4770   22.2300  -27.2580 C   0  0  0  0  0  0  0  0  0  0  0  0
   -0.7820   21.2250  -26.3750 C   0  0  0  0  0  0  0  0  0  0  0  0
   -0.8400   23.3940  -27.7920 C   0  0  0  0  0  0  0  0  0  0  0  0
    0.8560   23.8140  -27.3340 S   0  0  0  0  0  0  0  0  0  0  0  0
    1.6410   22.5440  -27.1570 O   0  0  0  0  0  0  0  0  0  0  0  0
    1.5140   24.5310  -28.4800 O   0  0  0  0  0  0  0  0  0  0  0  0
    1.0710   24.8070  -25.8980 N   0  0  0  0  0  0  0  0  0  0  0  0
    0.5060   26.1610  -26.0010 C   0  0  0  0  0  0  0  0  0  0  0  0
   -0.9870   26.1790  -25.6430 C   0  0  0  0  0  0  0  0  0  0  0  0
   -1.1900   25.6440  -24.3500 O   0  0  0  0  0  0  0  0  0  0  0  0
   -0.7890   24.2880  -24.3310 C   0  0  0  0  0  0  0  0  0  0  0  0
    0.7090   24.1530  -24.6310 C   0  0  0  0  0  0  0  0  0  0  0  0
   -1.6400   24.3040  -28.5570 C   0  0  0  0  0  0  0  0  0  0  0  0
   -1.1280   25.4780  -29.1090 O   0  0  0  0  0  0  0  0  0  0  0  0
   -5.1340   21.3010  -32.0860 C   0  0  0  0  0  0  0  0  0  0  0  0
   -6.1830   20.4290  -32.3850 C   0  0  0  0  0  0  0  0  0  0  0  0
   -8.5846   18.5917  -31.0781 H   0  0  0  0  0  0  0  0  0  0  0  0
   -9.5030   18.1320  -32.5518 H   0  0  0  0  0  0  0  0  0  0  0  0
   -7.7083   18.0561  -32.5518 H   0  0  0  0  0  0  0  0  0  0  0  0
   -8.8185   22.5136  -31.7683 H   0  0  0  0  0  0  0  0  0  0  0  0
   -6.9468   24.0573  -31.2093 H   0  0  0  0  0  0  0  0  0  0  0  0
   -4.6867   22.7653  -28.3083 H   0  0  0  0  0  0  0  0  0  0  0  0
   -3.3327   21.1317  -27.0442 H   0  0  0  0  0  0  0  0  0  0  0  0
   -0.9585   21.4802  -25.3197 H   0  0  0  0  0  0  0  0  0  0  0  0
   -1.1789   20.2199  -26.5805 H   0  0  0  0  0  0  0  0  0  0  0  0
    0.2985   21.2416  -26.5805 H   0  0  0  0  0  0  0  0  0  0  0  0
    1.0464   26.8267  -25.3119 H   0  0  0  0  0  0  0  0  0  0  0  0
    0.6145   26.5009  -27.0415 H   0  0  0  0  0  0  0  0  0  0  0  0
   -1.3533   27.2159  -25.6679 H   0  0  0  0  0  0  0  0  0  0  0  0
   -1.5365   25.5666  -26.3730 H   0  0  0  0  0  0  0  0  0  0  0  0
   -0.9961   23.8656  -23.3367 H   0  0  0  0  0  0  0  0  0  0  0  0
   -1.3515   23.7456  -25.1052 H   0  0  0  0  0  0  0  0  0  0  0  0
    1.2796   24.6184  -23.8138 H   0  0  0  0  0  0  0  0  0  0  0  0
    0.9464   23.0824  -24.7175 H   0  0  0  0  0  0  0  0  0  0  0  0
   -1.6230   26.0740  -29.7470 H   0  0  0  0  0  0  0  0  0  0  0  0
   -4.0944   20.9450  -32.1350 H   0  0  0  0  0  0  0  0  0  0  0  0
   -5.9632   19.3961  -32.6929 H   0  0  0  0  0  0  0  0  0  0  0  0
  1  2  1  0
  2  3  1  0
  3  4  2  0
  4  5  1  0
  5  6  2  0
  6  7  1  0
  7  8  1  0
  8  9  2  0
  8 10  1  0
 10 11  1  0
 11 12  2  0
 12 13  1  0
 13 14  2  0
 14 15  1  0
 14 16  1  0
 16 17  1  0
 17 18  2  0
 17 19  2  0
 17 20  1  0
 20 21  1  0
 21 22  1  0
 22 23  1  0
 23 24  1  0
 24 25  1  0
 16 26  2  0
 26 27  1  0
  6 28  1  0
 28 29  2  0
 29  3  1  0
 26 11  1  0
 25 20  1  0
  1 30  1  0
  1 31  1  0
  1 32  1  0
  4 33  1  0
  5 34  1  0
 12 35  1  0
 13 36  1  0
 15 37  1  0
 15 38  1  0
 15 39  1  0
 21 40  1  0
 21 41  1  0
 22 42  1  0
 22 43  1  0
 24 44  1  0
 24 45  1  0
 25 46  1  0
 25 47  1  0
 27 48  1  0
 28 49  1  0
 29 50  1  0
M  CHG  2   7  -1  10  -1
M  END
>  <UniqueID>  (50) 
47

>  <SMILES>  (50) 
COc1ccc([N-]C(=O)[N-]c2ccc(C)c(S(=O)(=O)N3CCOCC3)c2O)cc1

>  <Energy>  (50) 
74.7718945778859

>  <Genealogy>  (50) 
COc1ccc([N-]C(=O)[N-]c2ccc(C)c(S(=O)(=O)N3CCOCC3)c2O)cc1 (protonated)
COc1ccc([N-]C(=O)[N-]c2ccc(C)c(S(=O)(=O)N3CCOCC3)c2O)cc1 (3D coordinates assigned)
COc1ccc([N-]C(=O)[N-]c2ccc(C)c(S(=O)(=O)N3CCOCC3)c2O)cc1 (nonaromatic ring conformer: 74.7718945778859 kcal/mol)

>  <smiles>  (50) 
COc1ccc(NC(=O)Nc2ccc(C)c(S(=O)(=O)N3CCOCC3)c2O)cc1

>  <score_type>  (50) 
oracle

>  <origin>  (50) 
adgpu

>  <m_score__min__energy>  (50) 
-12.23

>  <m_primary>  (50) 
energy

$$$$
