0:0
     RDKit          3D

 33 34  0  0  0  0  0  0  0  0999 V2000
   -3.1280   18.8580  -25.9620 C   0  0  0  0  0  0  0  0  0  0  0  0
   -2.5570   19.3290  -27.0740 C   0  0  0  0  0  0  0  0  0  0  0  0
   -1.3010   20.1540  -27.0270 C   0  0  0  0  0  0  0  0  0  0  0  0
   -1.5310   21.5160  -27.6310 C   0  0  0  0  0  0  0  0  0  0  0  0
   -2.1180   21.6260  -28.9020 C   0  0  0  0  0  0  0  0  0  0  0  0
   -2.3150   22.8850  -29.4950 C   0  0  0  0  0  0  0  0  0  0  0  0
   -2.9790   22.9870  -30.8490 C   0  0  0  0  0  0  0  0  0  0  0  0
   -4.4720   23.2700  -30.7920 C   0  0  0  0  0  0  0  0  0  0  0  0
   -5.4180   22.2210  -30.8270 C   0  0  0  0  0  0  0  0  0  0  0  0
   -6.7880   22.4890  -30.7700 C   0  0  0  0  0  0  0  0  0  0  0  0
   -7.7020   21.4430  -30.7870 O   0  0  0  0  0  0  0  0  0  0  0  0
   -7.2390   23.8050  -30.6980 C   0  0  0  0  0  0  0  0  0  0  0  0
   -6.3240   24.8580  -30.7040 C   0  0  0  0  0  0  0  0  0  0  0  0
   -4.9480   24.6070  -30.7720 C   0  0  0  0  0  0  0  0  0  0  0  0
   -4.0890   25.7070  -30.8300 O   0  0  0  0  0  0  0  0  0  0  0  0
   -1.9260   24.0440  -28.7960 C   0  0  0  0  0  0  0  0  0  0  0  0
   -2.1290   25.3050  -29.3480 O   0  0  0  0  0  0  0  0  0  0  0  0
   -1.3310   23.9360  -27.5370 C   0  0  0  0  0  0  0  0  0  0  0  0
   -1.1270   22.6820  -26.9550 C   0  0  0  0  0  0  0  0  0  0  0  0
   -0.5230   22.6020  -25.7040 O   0  0  0  0  0  0  0  0  0  0  0  0
   -4.0470   18.2570  -26.0277 H   0  0  0  0  0  0  0  0  0  0  0  0
   -2.6792   19.0711  -24.9806 H   0  0  0  0  0  0  0  0  0  0  0  0
   -3.0172   19.1077  -28.0483 H   0  0  0  0  0  0  0  0  0  0  0  0
   -0.9867   20.2726  -25.9796 H   0  0  0  0  0  0  0  0  0  0  0  0
   -0.5198   19.6394  -27.6058 H   0  0  0  0  0  0  0  0  0  0  0  0
   -2.4269   20.7172  -29.4392 H   0  0  0  0  0  0  0  0  0  0  0  0
   -2.4951   23.8000  -31.4100 H   0  0  0  0  0  0  0  0  0  0  0  0
   -2.8617   22.0062  -31.3330 H   0  0  0  0  0  0  0  0  0  0  0  0
   -5.0712   21.1796  -30.9001 H   0  0  0  0  0  0  0  0  0  0  0  0
   -8.3172   24.0140  -30.6364 H   0  0  0  0  0  0  0  0  0  0  0  0
   -6.6868   25.8953  -30.6549 H   0  0  0  0  0  0  0  0  0  0  0  0
   -3.1070   25.6650  -30.5920 H   0  0  0  0  0  0  0  0  0  0  0  0
   -1.0208   24.8444  -26.9998 H   0  0  0  0  0  0  0  0  0  0  0  0
  1  2  2  0
  2  3  1  0
  3  4  1  0
  4  5  2  0
  5  6  1  0
  6  7  1  0
  7  8  1  0
  8  9  2  0
  9 10  1  0
 10 11  1  0
 10 12  2  0
 12 13  1  0
 13 14  2  0
 14 15  1  0
  6 16  2  0
 16 17  1  0
 16 18  1  0
 18 19  2  0
 19 20  1  0
 19  4  1  0
 14  8  1  0
  1 21  1  0
  1 22  1  0
  2 23  1  0
  3 24  1  0
  3 25  1  0
  5 26  1  0
  7 27  1  0
  7 28  1  0
  9 29  1  0
 12 30  1  0
 13 31  1  0
 15 32  1  0
 18 33  1  0
M  CHG  3  11  -1  17  -1  20  -1
M  END
>  <UniqueID>  (1) 
1

>  <SMILES>  (1) 
C=CCc1cc(Cc2cc([O-])ccc2O)c([O-])cc1[O-]

>  <Energy>  (1) 
35.126215136888696

>  <Genealogy>  (1) 
C=CCc1cc(Cc2cc([O-])ccc2O)c([O-])cc1[O-] (protonated)
C=CCc1cc(Cc2cc([O-])ccc2O)c([O-])cc1[O-] (3D coordinates assigned)
C=CCc1cc(Cc2cc([O-])ccc2O)c([O-])cc1[O-] (optimized conformer: 35.126215136888696 kcal/mol)

>  <smiles>  (1) 
C=CCc1cc(Cc2cc(O)ccc2O)c(O)cc1O

>  <score_type>  (1) 
oracle

>  <origin>  (1) 
adgpu

>  <m_score__min__energy>  (1) 
-10.69

>  <m_primary>  (1) 
energy

$$$$
1:0
     RDKit          3D

 65 68  0  0  0  0  0  0  0  0999 V2000
   -3.6870   25.1900  -26.3390 C   0  0  0  0  0  0  0  0  0  0  0  0
   -3.9940   23.9530  -27.1800 C   0  0  0  0  0  0  0  0  0  0  0  0
   -3.6210   24.1610  -28.5420 O   0  0  0  0  0  0  0  0  0  0  0  0
   -3.6750   23.1970  -29.5650 C   0  0  0  0  0  0  0  0  0  0  0  0
   -3.2610   21.8650  -29.3690 C   0  0  0  0  0  0  0  0  0  0  0  0
   -3.3100   20.9470  -30.4190 C   0  0  0  0  0  0  0  0  0  0  0  0
   -3.7750   21.3390  -31.6820 C   0  0  0  0  0  0  0  0  0  0  0  0
   -3.8180   20.3820  -32.8100 C   0  0  0  0  0  0  0  0  0  0  0  0
   -2.7210   20.0150  -33.5010 N   0  0  0  0  0  0  0  0  0  0  0  0
   -3.1030   19.1100  -34.3900 N   0  0  0  0  0  0  0  0  0  0  0  0
   -4.4260   18.9320  -34.2240 C   0  0  0  0  0  0  0  0  0  0  0  0
   -5.3640   17.6970  -35.1320 S   0  0  0  0  0  0  0  0  0  0  0  0
   -3.9050   16.7060  -35.6090 C   0  0  0  0  0  0  0  0  0  0  0  0
   -3.2300   16.1260  -34.4050 C   0  0  0  0  0  0  0  0  0  0  0  0
   -3.5590   14.9780  -34.0040 O   0  0  0  0  0  0  0  0  0  0  0  0
   -2.1920   16.8630  -33.7340 N   0  0  0  0  0  0  0  0  0  0  0  0
   -1.3260   16.2840  -32.7400 C   0  0  0  0  0  0  0  0  0  0  0  0
   -1.2370   14.8890  -32.5960 C   0  0  0  0  0  0  0  0  0  0  0  0
   -0.3970   14.3260  -31.6330 C   0  0  0  0  0  0  0  0  0  0  0  0
    0.3700   15.1500  -30.7920 C   0  0  0  0  0  0  0  0  0  0  0  0
    1.2130   14.6320  -29.7970 O   0  0  0  0  0  0  0  0  0  0  0  0
    1.4340   15.2480  -28.5300 C   0  0  0  0  0  0  0  0  0  0  0  0
    0.3020   16.5400  -30.9490 C   0  0  0  0  0  0  0  0  0  0  0  0
   -0.5280   17.1170  -31.9300 C   0  0  0  0  0  0  0  0  0  0  0  0
   -0.5970   18.5090  -32.1150 O   0  0  0  0  0  0  0  0  0  0  0  0
    0.3410   19.2720  -32.8670 C   0  0  0  0  0  0  0  0  0  0  0  0
   -4.9180   19.7290  -33.2520 N   0  0  0  0  0  0  0  0  0  0  0  0
   -6.2280   19.6800  -32.6600 C   0  0  0  0  0  0  0  0  0  0  0  0
   -7.0640   20.8030  -32.7360 C   0  0  0  0  0  0  0  0  0  0  0  0
   -8.3160   20.7980  -32.1170 C   0  0  0  0  0  0  0  0  0  0  0  0
   -8.7500   19.6650  -31.4290 C   0  0  0  0  0  0  0  0  0  0  0  0
   -7.9400   18.5270  -31.3780 C   0  0  0  0  0  0  0  0  0  0  0  0
   -6.6830   18.5240  -31.9950 C   0  0  0  0  0  0  0  0  0  0  0  0
   -5.7400   17.0410  -31.9840 Cl  0  0  0  0  0  0  0  0  0  0  0  0
   -4.2210   22.6550  -31.8710 C   0  0  0  0  0  0  0  0  0  0  0  0
   -4.1680   23.5890  -30.8190 C   0  0  0  0  0  0  0  0  0  0  0  0
   -4.5920   24.9180  -30.9820 O   0  0  0  0  0  0  0  0  0  0  0  0
   -5.7390   25.4820  -30.3510 C   0  0  0  0  0  0  0  0  0  0  0  0
   -3.7509   24.9327  -25.2714 H   0  0  0  0  0  0  0  0  0  0  0  0
   -2.6728   25.5479  -26.5699 H   0  0  0  0  0  0  0  0  0  0  0  0
   -4.4162   25.9806  -26.5699 H   0  0  0  0  0  0  0  0  0  0  0  0
   -3.4328   23.0960  -26.7792 H   0  0  0  0  0  0  0  0  0  0  0  0
   -5.0754   23.7565  -27.1366 H   0  0  0  0  0  0  0  0  0  0  0  0
   -2.8965   21.5461  -28.3814 H   0  0  0  0  0  0  0  0  0  0  0  0
   -2.9819   19.9100  -30.2546 H   0  0  0  0  0  0  0  0  0  0  0  0
   -4.2271   15.8874  -36.2694 H   0  0  0  0  0  0  0  0  0  0  0  0
   -3.1909   17.3629  -36.1272 H   0  0  0  0  0  0  0  0  0  0  0  0
   -2.1220   17.8880  -33.9190 H   0  0  0  0  0  0  0  0  0  0  0  0
   -1.8344   14.2346  -33.2478 H   0  0  0  0  0  0  0  0  0  0  0  0
   -0.3354   13.2324  -31.5323 H   0  0  0  0  0  0  0  0  0  0  0  0
    1.1797   14.5391  -27.7283 H   0  0  0  0  0  0  0  0  0  0  0  0
    2.4918   15.5367  -28.4422 H   0  0  0  0  0  0  0  0  0  0  0  0
    0.8010   16.1433  -28.4422 H   0  0  0  0  0  0  0  0  0  0  0  0
    0.9048   17.1898  -30.2976 H   0  0  0  0  0  0  0  0  0  0  0  0
    1.0074   19.8141  -32.1800 H   0  0  0  0  0  0  0  0  0  0  0  0
    0.9369   18.5989  -33.5010 H   0  0  0  0  0  0  0  0  0  0  0  0
   -0.1967   19.9924  -33.5010 H   0  0  0  0  0  0  0  0  0  0  0  0
   -6.7313   21.6948  -33.2874 H   0  0  0  0  0  0  0  0  0  0  0  0
   -8.9601   21.6880  -32.1721 H   0  0  0  0  0  0  0  0  0  0  0  0
   -9.7288   19.6670  -30.9270 H   0  0  0  0  0  0  0  0  0  0  0  0
   -8.2921   17.6285  -30.8501 H   0  0  0  0  0  0  0  0  0  0  0  0
   -4.6162   22.9605  -32.8510 H   0  0  0  0  0  0  0  0  0  0  0  0
   -5.6221   25.4245  -29.2587 H   0  0  0  0  0  0  0  0  0  0  0  0
   -5.8437   26.5343  -30.6537 H   0  0  0  0  0  0  0  0  0  0  0  0
   -6.6363   24.9224  -30.6537 H   0  0  0  0  0  0  0  0  0  0  0  0
  1  2  1  0
  2  3  1  0
  3  4  1  0
  4  5  2  0
  5  6  1  0
  6  7  2  0
  7  8  1  0
  8  9  2  0
  9 10  1  0
 10 11  2  0
 11 12  1  0
 12 13  1  0
 13 14  1  0
 14 15  2  0
 14 16  1  0
 16 17  1  0
 17 18  2  0
 18 19  1  0
 19 20  2  0
 20 21  1  0
 21 22  1  0
 20 23  1  0
 23 24  2  0
 24 25  1  0
 25 26  1  0
 11 27  1  0
 27 28  1  0
 28 29  2  0
 29 30  1  0
 30 31  2  0
 31 32  1  0
 32 33  2  0
 33 34  1  0
  7 35  1  0
 35 36  2  0
 36 37  1  0
 37 38  1  0
 36  4  1  0
 27  8  1  0
 33 28  1  0
 24 17  1  0
  1 39  1  0
  1 40  1  0
  1 41  1  0
  2 42  1  0
  2 43  1  0
  5 44  1  0
  6 45  1  0
 13 46  1  0
 13 47  1  0
 16 48  1  0
 18 49  1  0
 19 50  1  0
 22 51  1  0
 22 52  1  0
 22 53  1  0
 23 54  1  0
 26 55  1  0
 26 56  1  0
 26 57  1  0
 29 58  1  0
 30 59  1  0
 31 60  1  0
 32 61  1  0
 35 62  1  0
 38 63  1  0
 38 64  1  0
 38 65  1  0
M  END
>  <UniqueID>  (2) 
2

>  <SMILES>  (2) 
CCOc1ccc(-c2nnc(SCC(=O)Nc3ccc(OC)cc3OC)n2-c2ccccc2Cl)cc1OC

>  <Energy>  (2) 
105.05266685318617

>  <Genealogy>  (2) 
CCOc1ccc(-c2nnc(SCC(=O)Nc3ccc(OC)cc3OC)n2-c2ccccc2Cl)cc1OC (3D coordinates assigned)
CCOc1ccc(-c2nnc(SCC(=O)Nc3ccc(OC)cc3OC)n2-c2ccccc2Cl)cc1OC (optimized conformer: 105.05266685318617 kcal/mol)

>  <smiles>  (2) 
CCOc1ccc(-c2nnc(SCC(=O)Nc3ccc(OC)cc3OC)n2-c2ccccc2Cl)cc1OC

>  <score_type>  (2) 
oracle

>  <origin>  (2) 
adgpu

>  <m_score__min__energy>  (2) 
-9.5700000000000003

>  <m_primary>  (2) 
energy

$$$$
2:0
     RDKit          3D

 28 29  0  0  0  0  0  0  0  0999 V2000
   -1.5960   23.4730  -29.6940 C   0  0  0  0  0  0  0  0  0  0  0  0
   -3.0430   23.7960  -29.8470 C   0  0  0  0  0  0  0  0  0  0  0  0
   -4.0210   22.8660  -29.7960 N   0  0  0  0  0  0  0  0  0  0  0  0
   -5.1390   23.5850  -30.0090 C   0  0  0  0  0  0  0  0  0  0  0  0
   -6.5070   22.9840  -30.1160 C   0  0  0  0  0  0  0  0  0  0  0  0
   -7.1810   23.1810  -31.8040 S   0  0  0  0  0  0  0  0  0  0  0  0
   -7.0520   21.4390  -32.2370 C   0  0  0  0  0  0  0  0  0  0  0  0
   -8.1830   20.6210  -32.1080 C   0  0  0  0  0  0  0  0  0  0  0  0
   -8.1190   19.2680  -32.4470 C   0  0  0  0  0  0  0  0  0  0  0  0
   -6.9190   18.7180  -32.9080 C   0  0  0  0  0  0  0  0  0  0  0  0
   -6.8390   17.0190  -33.3360 Cl  0  0  0  0  0  0  0  0  0  0  0  0
   -5.7810   19.5240  -33.0240 C   0  0  0  0  0  0  0  0  0  0  0  0
   -5.8400   20.8820  -32.6890 C   0  0  0  0  0  0  0  0  0  0  0  0
   -4.3850   21.8580  -32.8470 Cl  0  0  0  0  0  0  0  0  0  0  0  0
   -4.7970   24.9100  -30.1920 C   0  0  0  0  0  0  0  0  0  0  0  0
   -5.7120   26.0510  -30.4910 C   0  0  0  0  0  0  0  0  0  0  0  0
   -3.4960   25.0080  -30.0880 O   0  0  0  0  0  0  0  0  0  0  0  0
   -1.3439   23.4167  -28.6247 H   0  0  0  0  0  0  0  0  0  0  0  0
   -1.3837   22.5054  -30.1722 H   0  0  0  0  0  0  0  0  0  0  0  0
   -0.9924   24.2585  -30.1722 H   0  0  0  0  0  0  0  0  0  0  0  0
   -6.4486   21.9123  -29.8751 H   0  0  0  0  0  0  0  0  0  0  0  0
   -7.1730   23.5026  -29.4107 H   0  0  0  0  0  0  0  0  0  0  0  0
   -9.1268   21.0476  -31.7374 H   0  0  0  0  0  0  0  0  0  0  0  0
   -9.0131   18.6344  -32.3513 H   0  0  0  0  0  0  0  0  0  0  0  0
   -4.8357   19.0885  -33.3801 H   0  0  0  0  0  0  0  0  0  0  0  0
   -6.0667   26.4933  -29.5484 H   0  0  0  0  0  0  0  0  0  0  0  0
   -5.1711   26.8121  -31.0725 H   0  0  0  0  0  0  0  0  0  0  0  0
   -6.5724   25.6883  -31.0725 H   0  0  0  0  0  0  0  0  0  0  0  0
  1  2  1  0
  2  3  2  0
  3  4  1  0
  4  5  1  0
  5  6  1  0
  6  7  1  0
  7  8  2  0
  8  9  1  0
  9 10  2  0
 10 11  1  0
 10 12  1  0
 12 13  2  0
 13 14  1  0
  4 15  2  0
 15 16  1  0
 15 17  1  0
 17  2  1  0
 13  7  1  0
  1 18  1  0
  1 19  1  0
  1 20  1  0
  5 21  1  0
  5 22  1  0
  8 23  1  0
  9 24  1  0
 12 25  1  0
 16 26  1  0
 16 27  1  0
 16 28  1  0
M  END
>  <UniqueID>  (3) 
3

>  <SMILES>  (3) 
Cc1nc(CSc2ccc(Cl)cc2Cl)c(C)o1

>  <Energy>  (3) 
49.91588178609161

>  <Genealogy>  (3) 
Cc1nc(CSc2ccc(Cl)cc2Cl)c(C)o1 (3D coordinates assigned)
Cc1nc(CSc2ccc(Cl)cc2Cl)c(C)o1 (optimized conformer: 49.91588178609161 kcal/mol)

>  <smiles>  (3) 
Cc1nc(CSc2ccc(Cl)cc2Cl)c(C)o1

>  <score_type>  (3) 
oracle

>  <origin>  (3) 
adgpu

>  <m_score__min__energy>  (3) 
-7.7800000000000002

>  <m_primary>  (3) 
energy

$$$$
3:0
     RDKit          3D

 67 70  0  0  0  0  0  0  0  0999 V2000
   -6.4250   25.7350  -29.1110 C   0  0  0  0  0  0  0  0  0  0  0  0
   -6.4590   25.4480  -30.5040 O   0  0  0  0  0  0  0  0  0  0  0  0
   -6.0760   24.2210  -31.0730 C   0  0  0  0  0  0  0  0  0  0  0  0
   -7.0170   23.2820  -31.5340 C   0  0  0  0  0  0  0  0  0  0  0  0
   -6.6010   22.0510  -32.0790 C   0  0  0  0  0  0  0  0  0  0  0  0
   -5.2220   21.7710  -32.1880 C   0  0  0  0  0  0  0  0  0  0  0  0
   -4.2900   22.7200  -31.7440 C   0  0  0  0  0  0  0  0  0  0  0  0
   -4.7110   23.9240  -31.1650 C   0  0  0  0  0  0  0  0  0  0  0  0
   -3.7480   24.8470  -30.6540 N   0  0  0  0  0  0  0  0  0  0  0  0
   -2.9170   24.5460  -29.1600 S   0  0  0  0  0  0  0  0  0  0  0  0
   -1.9330   25.6580  -28.9210 O   0  0  0  0  0  0  0  0  0  0  0  0
   -3.9080   24.5370  -28.0300 O   0  0  0  0  0  0  0  0  0  0  0  0
   -2.0600   23.0040  -29.2080 C   0  0  0  0  0  0  0  0  0  0  0  0
   -2.2530   22.0460  -28.2040 C   0  0  0  0  0  0  0  0  0  0  0  0
   -1.5830   20.8220  -28.2590 C   0  0  0  0  0  0  0  0  0  0  0  0
   -0.6970   20.5440  -29.3130 C   0  0  0  0  0  0  0  0  0  0  0  0
   -0.0150   19.2300  -29.3980 C   0  0  0  0  0  0  0  0  0  0  0  0
    0.5140   18.7810  -30.6230 C   0  0  0  0  0  0  0  0  0  0  0  0
    1.0970   17.5150  -30.7180 C   0  0  0  0  0  0  0  0  0  0  0  0
    1.1550   16.6830  -29.5990 C   0  0  0  0  0  0  0  0  0  0  0  0
    0.6450   17.1160  -28.3650 C   0  0  0  0  0  0  0  0  0  0  0  0
    0.6580   16.1880  -27.1730 C   0  0  0  0  0  0  0  0  0  0  0  0
    1.8850   15.3550  -27.1400 N   0  0  0  0  0  0  0  0  0  0  0  0
    1.6840   14.1310  -26.3400 C   0  0  0  0  0  0  0  0  0  0  0  0
    3.0080   16.1280  -26.5810 C   0  0  0  0  0  0  0  0  0  0  0  0
    0.0680   18.3960  -28.2680 C   0  0  0  0  0  0  0  0  0  0  0  0
   -0.4930   21.5160  -30.3070 C   0  0  0  0  0  0  0  0  0  0  0  0
   -1.1800   22.7300  -30.2620 C   0  0  0  0  0  0  0  0  0  0  0  0
   -4.7330   20.4520  -32.7410 C   0  0  0  0  0  0  0  0  0  0  0  0
   -5.1650   19.2720  -31.8550 C   0  0  0  0  0  0  0  0  0  0  0  0
   -6.5400   18.8280  -32.1810 N   0  0  0  0  0  0  0  0  0  0  0  0
   -6.7660   17.4810  -31.6250 C   0  0  0  0  0  0  0  0  0  0  0  0
   -7.5620   19.7640  -31.6590 C   0  0  0  0  0  0  0  0  0  0  0  0
   -7.6380   21.0420  -32.5100 C   0  0  0  0  0  0  0  0  0  0  0  0
   -6.5357   24.8006  -28.5413 H   0  0  0  0  0  0  0  0  0  0  0  0
   -5.4646   26.2075  -28.8573 H   0  0  0  0  0  0  0  0  0  0  0  0
   -7.2484   26.4188  -28.8573 H   0  0  0  0  0  0  0  0  0  0  0  0
   -8.0907   23.5117  -31.4681 H   0  0  0  0  0  0  0  0  0  0  0  0
   -3.2144   22.5163  -31.8518 H   0  0  0  0  0  0  0  0  0  0  0  0
   -2.9357   22.2591  -27.3682 H   0  0  0  0  0  0  0  0  0  0  0  0
   -1.7500   20.0713  -27.4725 H   0  0  0  0  0  0  0  0  0  0  0  0
    0.4680   19.4303  -31.5098 H   0  0  0  0  0  0  0  0  0  0  0  0
    1.5116   17.1729  -31.6777 H   0  0  0  0  0  0  0  0  0  0  0  0
    1.6030   15.6820  -29.6846 H   0  0  0  0  0  0  0  0  0  0  0  0
    0.6101   16.7888  -26.2528 H   0  0  0  0  0  0  0  0  0  0  0  0
   -0.2102   15.5170  -27.2511 H   0  0  0  0  0  0  0  0  0  0  0  0
    2.1500   15.0780  -28.1160 H   0  0  0  0  0  0  0  0  0  0  0  0
    1.7252   14.3816  -25.2697 H   0  0  0  0  0  0  0  0  0  0  0  0
    0.7022   13.6951  -26.5770 H   0  0  0  0  0  0  0  0  0  0  0  0
    2.4748   13.4041  -26.5770 H   0  0  0  0  0  0  0  0  0  0  0  0
    2.9634   16.0973  -25.4823 H   0  0  0  0  0  0  0  0  0  0  0  0
    3.9587   15.6921  -26.9217 H   0  0  0  0  0  0  0  0  0  0  0  0
    2.9403   17.1717  -26.9217 H   0  0  0  0  0  0  0  0  0  0  0  0
   -0.3212   18.7472  -27.3009 H   0  0  0  0  0  0  0  0  0  0  0  0
    0.2135   21.3186  -31.1267 H   0  0  0  0  0  0  0  0  0  0  0  0
   -1.0295   23.4745  -31.0577 H   0  0  0  0  0  0  0  0  0  0  0  0
   -5.1485   20.3118  -33.7498 H   0  0  0  0  0  0  0  0  0  0  0  0
   -3.6336   20.4769  -32.7690 H   0  0  0  0  0  0  0  0  0  0  0  0
   -4.4710   18.4332  -32.0123 H   0  0  0  0  0  0  0  0  0  0  0  0
   -5.1466   19.6014  -30.8056 H   0  0  0  0  0  0  0  0  0  0  0  0
   -6.7575   17.5317  -30.5262 H   0  0  0  0  0  0  0  0  0  0  0  0
   -7.7403   17.1019  -31.9670 H   0  0  0  0  0  0  0  0  0  0  0  0
   -5.9688   16.8046  -31.9670 H   0  0  0  0  0  0  0  0  0  0  0  0
   -8.5430   19.2665  -31.6718 H   0  0  0  0  0  0  0  0  0  0  0  0
   -7.2814   20.0467  -30.6336 H   0  0  0  0  0  0  0  0  0  0  0  0
   -7.4670   20.7808  -33.5647 H   0  0  0  0  0  0  0  0  0  0  0  0
   -8.6340   21.4893  -32.3762 H   0  0  0  0  0  0  0  0  0  0  0  0
  1  2  1  0
  2  3  1  0
  3  4  2  0
  4  5  1  0
  5  6  2  0
  6  7  1  0
  7  8  2  0
  8  9  1  0
  9 10  1  0
 10 11  2  0
 10 12  2  0
 10 13  1  0
 13 14  2  0
 14 15  1  0
 15 16  2  0
 16 17  1  0
 17 18  2  0
 18 19  1  0
 19 20  2  0
 20 21  1  0
 21 22  1  0
 22 23  1  0
 23 24  1  0
 23 25  1  0
 21 26  2  0
 16 27  1  0
 27 28  2  0
  6 29  1  0
 29 30  1  0
 30 31  1  0
 31 32  1  0
 31 33  1  0
 33 34  1  0
  8  3  1  0
 28 13  1  0
 34  5  1  0
 26 17  1  0
  1 35  1  0
  1 36  1  0
  1 37  1  0
  4 38  1  0
  7 39  1  0
 14 40  1  0
 15 41  1  0
 18 42  1  0
 19 43  1  0
 20 44  1  0
 22 45  1  0
 22 46  1  0
 23 47  1  0
 24 48  1  0
 24 49  1  0
 24 50  1  0
 25 51  1  0
 25 52  1  0
 25 53  1  0
 26 54  1  0
 27 55  1  0
 28 56  1  0
 29 57  1  0
 29 58  1  0
 30 59  1  0
 30 60  1  0
 32 61  1  0
 32 62  1  0
 32 63  1  0
 33 64  1  0
 33 65  1  0
 34 66  1  0
 34 67  1  0
M  CHG  2   9  -1  23   1
M  END
>  <UniqueID>  (4) 
4

>  <SMILES>  (4) 
COc1cc2c(cc1[N-]S(=O)(=O)c1ccc(-c3cccc(C[NH+](C)C)c3)cc1)CCN(C)CC2

>  <Energy>  (4) 
86.05469246179393

>  <Genealogy>  (4) 
COc1cc2c(cc1[N-]S(=O)(=O)c1ccc(-c3cccc(C[NH+](C)C)c3)cc1)CCN(C)CC2 (protonated)
COc1cc2c(cc1[N-]S(=O)(=O)c1ccc(-c3cccc(C[NH+](C)C)c3)cc1)CCN(C)CC2 (3D coordinates assigned)
COc1cc2c(cc1[N-]S(=O)(=O)c1ccc(-c3cccc(C[NH+](C)C)c3)cc1)CCN(C)CC2 (nonaromatic ring conformer: 86.05469246179393 kcal/mol)

>  <smiles>  (4) 
COc1cc2c(cc1NS(=O)(=O)c1ccc(-c3cccc(CN(C)C)c3)cc1)CCN(C)CC2

>  <score_type>  (4) 
oracle

>  <origin>  (4) 
adgpu

>  <m_score__min__energy>  (4) 
-10.35

>  <m_primary>  (4) 
energy

$$$$
4:0
     RDKit          3D

 36 36  0  0  0  0  0  0  0  0999 V2000
    2.6080   26.6020  -24.2000 C   0  0  0  0  0  0  0  0  0  0  0  0
    2.0310   27.3390  -23.0600 N   0  0  0  0  0  0  0  0  0  0  0  0
    2.9250   28.4290  -22.6350 C   0  0  0  0  0  0  0  0  0  0  0  0
    0.6400   27.7930  -23.3150 C   0  0  0  0  0  0  0  0  0  0  0  0
   -0.4570   26.7290  -23.0680 C   0  0  0  0  0  0  0  0  0  0  0  0
   -0.2820   25.5490  -23.9220 N   0  0  0  0  0  0  0  0  0  0  0  0
   -0.7170   25.4970  -25.2940 C   0  0  0  0  0  0  0  0  0  0  0  0
   -0.6280   26.6150  -26.1440 C   0  0  0  0  0  0  0  0  0  0  0  0
   -1.0590   26.5300  -27.4710 C   0  0  0  0  0  0  0  0  0  0  0  0
   -1.5840   25.3350  -27.9750 C   0  0  0  0  0  0  0  0  0  0  0  0
   -2.0140   25.3000  -29.3430 N   0  0  0  0  0  0  0  0  0  0  0  0
   -3.4710   24.5650  -29.9310 S   0  0  0  0  0  0  0  0  0  0  0  0
   -4.5220   24.1100  -28.5690 C   0  0  0  0  0  0  0  0  0  0  0  0
   -3.1390   23.3580  -30.7630 O   0  0  0  0  0  0  0  0  0  0  0  0
   -4.2000   25.5590  -30.7910 O   0  0  0  0  0  0  0  0  0  0  0  0
   -1.6700   24.2150  -27.1310 C   0  0  0  0  0  0  0  0  0  0  0  0
   -1.2390   24.2980  -25.8030 C   0  0  0  0  0  0  0  0  0  0  0  0
    3.2455   25.7877  -23.8253 H   0  0  0  0  0  0  0  0  0  0  0  0
    1.7972   26.1807  -24.8124 H   0  0  0  0  0  0  0  0  0  0  0  0
    3.2116   27.2880  -24.8124 H   0  0  0  0  0  0  0  0  0  0  0  0
    1.9800   26.6610  -22.2620 H   0  0  0  0  0  0  0  0  0  0  0  0
    2.9578   28.4690  -21.5362 H   0  0  0  0  0  0  0  0  0  0  0  0
    3.9370   28.2466  -23.0256 H   0  0  0  0  0  0  0  0  0  0  0  0
    2.5481   29.3857  -23.0256 H   0  0  0  0  0  0  0  0  0  0  0  0
    0.4362   28.6508  -22.6573 H   0  0  0  0  0  0  0  0  0  0  0  0
    0.5909   28.0387  -24.3861 H   0  0  0  0  0  0  0  0  0  0  0  0
   -0.4154   26.4142  -22.0148 H   0  0  0  0  0  0  0  0  0  0  0  0
   -1.4297   27.1820  -23.3104 H   0  0  0  0  0  0  0  0  0  0  0  0
    0.1840   24.7000  -23.5270 H   0  0  0  0  0  0  0  0  0  0  0  0
   -0.2170   27.5611  -25.7620 H   0  0  0  0  0  0  0  0  0  0  0  0
   -0.9847   27.4111  -28.1253 H   0  0  0  0  0  0  0  0  0  0  0  0
   -4.0101   24.3316  -27.6209 H   0  0  0  0  0  0  0  0  0  0  0  0
   -5.4596   24.6828  -28.6221 H   0  0  0  0  0  0  0  0  0  0  0  0
   -4.7460   23.0343  -28.6221 H   0  0  0  0  0  0  0  0  0  0  0  0
   -2.0780   23.2689  -27.5163 H   0  0  0  0  0  0  0  0  0  0  0  0
   -1.3099   23.4148  -25.1512 H   0  0  0  0  0  0  0  0  0  0  0  0
  1  2  1  0
  2  3  1  0
  2  4  1  0
  4  5  1  0
  5  6  1  0
  6  7  1  0
  7  8  2  0
  8  9  1  0
  9 10  2  0
 10 11  1  0
 11 12  1  0
 12 13  1  0
 12 14  2  0
 12 15  2  0
 10 16  1  0
 16 17  2  0
 17  7  1  0
  1 18  1  0
  1 19  1  0
  1 20  1  0
  2 21  1  0
  3 22  1  0
  3 23  1  0
  3 24  1  0
  4 25  1  0
  4 26  1  0
  5 27  1  0
  5 28  1  0
  6 29  1  0
  8 30  1  0
  9 31  1  0
 13 32  1  0
 13 33  1  0
 13 34  1  0
 16 35  1  0
 17 36  1  0
M  CHG  2   2   1  11  -1
M  END
>  <UniqueID>  (5) 
5

>  <SMILES>  (5) 
C[NH+](C)CCNc1ccc([N-]S(C)(=O)=O)cc1

>  <Energy>  (5) 
35.2144778580953

>  <Genealogy>  (5) 
C[NH+](C)CCNc1ccc([N-]S(C)(=O)=O)cc1 (protonated)
C[NH+](C)CCNc1ccc([N-]S(C)(=O)=O)cc1 (3D coordinates assigned)
C[NH+](C)CCNc1ccc([N-]S(C)(=O)=O)cc1 (optimized conformer: 35.2144778580953 kcal/mol)

>  <smiles>  (5) 
CN(C)CCNc1ccc(NS(C)(=O)=O)cc1

>  <score_type>  (5) 
oracle

>  <origin>  (5) 
adgpu

>  <m_score__min__energy>  (5) 
-8.2400000000000002

>  <m_primary>  (5) 
energy

$$$$
5:0
     RDKit          3D

 43 45  0  0  0  0  0  0  0  0999 V2000
   -9.7790   19.3520  -32.9620 N   0  0  0  0  0  0  0  0  0  0  0  0
   -8.8020   19.9240  -32.7240 C   0  0  0  0  0  0  0  0  0  0  0  0
   -7.5850   20.6370  -32.4280 C   0  0  0  0  0  0  0  0  0  0  0  0
   -6.3460   20.0900  -32.7860 C   0  0  0  0  0  0  0  0  0  0  0  0
   -6.2920   18.8870  -33.4150 F   0  0  0  0  0  0  0  0  0  0  0  0
   -5.1620   20.7830  -32.5040 C   0  0  0  0  0  0  0  0  0  0  0  0
   -3.6220   20.0830  -32.9920 Cl  0  0  0  0  0  0  0  0  0  0  0  0
   -5.2100   22.0370  -31.8670 C   0  0  0  0  0  0  0  0  0  0  0  0
   -3.9870   22.7440  -31.6000 N   0  0  0  0  0  0  0  0  0  0  0  0
   -3.4290   22.8830  -30.2800 C   0  0  0  0  0  0  0  0  0  0  0  0
   -3.1260   21.7500  -29.5020 C   0  0  0  0  0  0  0  0  0  0  0  0
   -2.5490   21.8880  -28.2340 C   0  0  0  0  0  0  0  0  0  0  0  0
   -2.1300   20.4530  -27.2950 S   0  0  0  0  0  0  0  0  0  0  0  0
   -3.3900   19.7040  -26.9580 O   0  0  0  0  0  0  0  0  0  0  0  0
   -1.4800   20.8730  -26.0060 O   0  0  0  0  0  0  0  0  0  0  0  0
   -1.0450   19.4000  -28.1710 N   0  0  0  0  0  0  0  0  0  0  0  0
   -0.6410   18.2540  -27.3300 C   0  0  0  0  0  0  0  0  0  0  0  0
    0.5570   17.5000  -27.9460 C   0  0  0  0  0  0  0  0  0  0  0  0
    0.7250   17.8410  -29.3080 O   0  0  0  0  0  0  0  0  0  0  0  0
    1.0890   19.2060  -29.4210 C   0  0  0  0  0  0  0  0  0  0  0  0
    0.1370   20.1420  -28.6410 C   0  0  0  0  0  0  0  0  0  0  0  0
   -2.3000   23.1680  -27.7230 C   0  0  0  0  0  0  0  0  0  0  0  0
   -2.6250   24.2990  -28.4750 C   0  0  0  0  0  0  0  0  0  0  0  0
   -3.1870   24.1620  -29.7480 C   0  0  0  0  0  0  0  0  0  0  0  0
   -3.4890   25.3010  -30.4860 O   0  0  0  0  0  0  0  0  0  0  0  0
   -6.4580   22.5740  -31.4840 C   0  0  0  0  0  0  0  0  0  0  0  0
   -6.5400   23.8200  -30.7590 C   0  0  0  0  0  0  0  0  0  0  0  0
   -6.6050   24.8190  -30.1780 N   0  0  0  0  0  0  0  0  0  0  0  0
   -7.6400   21.8760  -31.7730 C   0  0  0  0  0  0  0  0  0  0  0  0
   -8.8430   22.3980  -31.4120 F   0  0  0  0  0  0  0  0  0  0  0  0
   -3.5170   23.2250  -32.4000 H   0  0  0  0  0  0  0  0  0  0  0  0
   -3.3448   20.7459  -29.8942 H   0  0  0  0  0  0  0  0  0  0  0  0
   -1.5710   19.0410  -29.0030 H   0  0  0  0  0  0  0  0  0  0  0  0
   -0.3576   18.6234  -26.3334 H   0  0  0  0  0  0  0  0  0  0  0  0
   -1.4902   17.5583  -27.2606 H   0  0  0  0  0  0  0  0  0  0  0  0
    1.4708   17.7645  -27.3937 H   0  0  0  0  0  0  0  0  0  0  0  0
    0.3637   16.4193  -27.8768 H   0  0  0  0  0  0  0  0  0  0  0  0
    2.1082   19.3325  -29.0271 H   0  0  0  0  0  0  0  0  0  0  0  0
    1.0280   19.4800  -30.4846 H   0  0  0  0  0  0  0  0  0  0  0  0
    0.6701   20.5601  -27.7744 H   0  0  0  0  0  0  0  0  0  0  0  0
   -0.1932   20.9508  -29.3094 H   0  0  0  0  0  0  0  0  0  0  0  0
   -1.8474   23.2827  -26.7270 H   0  0  0  0  0  0  0  0  0  0  0  0
   -2.4380   25.3021  -28.0640 H   0  0  0  0  0  0  0  0  0  0  0  0
  1  2  3  0
  2  3  1  0
  3  4  2  0
  4  5  1  0
  4  6  1  0
  6  7  1  0
  6  8  2  0
  8  9  1  0
  9 10  1  0
 10 11  2  0
 11 12  1  0
 12 13  1  0
 13 14  2  0
 13 15  2  0
 13 16  1  0
 16 17  1  0
 17 18  1  0
 18 19  1  0
 19 20  1  0
 20 21  1  0
 12 22  2  0
 22 23  1  0
 23 24  2  0
 24 25  1  0
  8 26  1  0
 26 27  1  0
 27 28  3  0
 26 29  2  0
 29 30  1  0
 29  3  1  0
 24 10  1  0
 21 16  1  0
  9 31  1  0
 11 32  1  0
 16 33  1  0
 17 34  1  0
 17 35  1  0
 18 36  1  0
 18 37  1  0
 20 38  1  0
 20 39  1  0
 21 40  1  0
 21 41  1  0
 22 42  1  0
 23 43  1  0
M  CHG  2  16   1  25  -1
M  END
>  <UniqueID>  (6) 
6

>  <SMILES>  (6) 
N#Cc1c(F)c(Cl)c(Nc2cc(S(=O)(=O)[NH+]3CCOCC3)ccc2[O-])c(C#N)c1F

>  <Energy>  (6) 
58.720883061086866

>  <Genealogy>  (6) 
N#Cc1c(F)c(Cl)c(Nc2cc(S(=O)(=O)[NH+]3CCOCC3)ccc2[O-])c(C#N)c1F (protonated)
N#Cc1c(F)c(Cl)c(Nc2cc(S(=O)(=O)[NH+]3CCOCC3)ccc2[O-])c(C#N)c1F (3D coordinates assigned)
N#Cc1c(F)c(Cl)c(Nc2cc(S(=O)(=O)[NH+]3CCOCC3)ccc2[O-])c(C#N)c1F (nonaromatic ring conformer: 58.720883061086866 kcal/mol)

>  <smiles>  (6) 
N#Cc1c(F)c(Cl)c(Nc2cc(S(=O)(=O)N3CCOCC3)ccc2O)c(C#N)c1F

>  <score_type>  (6) 
oracle

>  <origin>  (6) 
adgpu

>  <m_score__min__energy>  (6) 
-11.66

>  <m_primary>  (6) 
energy

$$$$
6:0
     RDKit          3D

 39 41  0  0  0  0  0  0  0  0999 V2000
    1.8660   25.0370  -37.8810 N   0  0  0  0  0  0  0  0  0  0  0  0
    1.5410   24.7980  -36.2010 S   0  0  0  0  0  0  0  0  0  0  0  0
    0.2850   25.5260  -35.8150 O   0  0  0  0  0  0  0  0  0  0  0  0
    2.6890   25.3350  -35.3940 O   0  0  0  0  0  0  0  0  0  0  0  0
    1.3510   23.0880  -35.8750 C   0  0  0  0  0  0  0  0  0  0  0  0
    0.2170   22.5430  -35.3840 N   0  0  0  0  0  0  0  0  0  0  0  0
    0.3130   21.2300  -35.1840 N   0  0  0  0  0  0  0  0  0  0  0  0
    1.5260   20.7360  -35.5160 C   0  0  0  0  0  0  0  0  0  0  0  0
    1.8670   19.4930  -35.3740 N   0  0  0  0  0  0  0  0  0  0  0  0
    0.8040   18.2900  -34.7170 S   0  0  0  0  0  0  0  0  0  0  0  0
   -0.4510   18.2420  -35.5440 O   0  0  0  0  0  0  0  0  0  0  0  0
    1.4810   16.9490  -34.7640 O   0  0  0  0  0  0  0  0  0  0  0  0
    0.4270   18.6850  -33.0430 C   0  0  0  0  0  0  0  0  0  0  0  0
   -0.8990   18.8930  -32.6400 C   0  0  0  0  0  0  0  0  0  0  0  0
   -1.1810   19.2890  -31.3280 C   0  0  0  0  0  0  0  0  0  0  0  0
   -0.1400   19.4990  -30.4150 C   0  0  0  0  0  0  0  0  0  0  0  0
   -0.4510   19.9620  -29.0940 N   0  0  0  0  0  0  0  0  0  0  0  0
   -1.5360   20.8400  -28.7590 C   0  0  0  0  0  0  0  0  0  0  0  0
   -2.6470   20.3370  -28.4510 O   0  0  0  0  0  0  0  0  0  0  0  0
   -1.3920   22.3150  -28.8090 C   0  0  0  0  0  0  0  0  0  0  0  0
   -2.4050   23.1180  -29.3610 C   0  0  0  0  0  0  0  0  0  0  0  0
   -2.2600   24.5090  -29.4140 C   0  0  0  0  0  0  0  0  0  0  0  0
   -3.2770   25.2810  -29.9640 O   0  0  0  0  0  0  0  0  0  0  0  0
   -1.0980   25.1150  -28.9090 C   0  0  0  0  0  0  0  0  0  0  0  0
   -0.9310   26.4980  -28.9590 O   0  0  0  0  0  0  0  0  0  0  0  0
   -0.0940   24.3200  -28.3430 C   0  0  0  0  0  0  0  0  0  0  0  0
    1.0580   24.9100  -27.8350 O   0  0  0  0  0  0  0  0  0  0  0  0
   -0.2420   22.9290  -28.2860 C   0  0  0  0  0  0  0  0  0  0  0  0
    1.1840   19.2400  -30.8070 C   0  0  0  0  0  0  0  0  0  0  0  0
    1.4640   18.8370  -32.1130 C   0  0  0  0  0  0  0  0  0  0  0  0
    2.5600   21.9320  -36.0900 S   0  0  0  0  0  0  0  0  0  0  0  0
    2.7900   24.5910  -38.0800 H   0  0  0  0  0  0  0  0  0  0  0  0
   -1.7200   18.7446  -33.3568 H   0  0  0  0  0  0  0  0  0  0  0  0
   -2.2245   19.4360  -31.0124 H   0  0  0  0  0  0  0  0  0  0  0  0
   -3.3191   22.6494  -29.7545 H   0  0  0  0  0  0  0  0  0  0  0  0
   -1.6280   27.1100  -29.3660 H   0  0  0  0  0  0  0  0  0  0  0  0
    0.5468   22.3134  -27.8290 H   0  0  0  0  0  0  0  0  0  0  0  0
    2.0028   19.3554  -30.0816 H   0  0  0  0  0  0  0  0  0  0  0  0
    2.5031   18.6378  -32.4139 H   0  0  0  0  0  0  0  0  0  0  0  0
  1  2  1  0
  2  3  2  0
  2  4  2  0
  2  5  1  0
  5  6  2  0
  6  7  1  0
  7  8  1  0
  8  9  2  3
  9 10  1  0
 10 11  2  0
 10 12  2  0
 10 13  1  0
 13 14  2  0
 14 15  1  0
 15 16  2  0
 16 17  1  0
 17 18  1  0
 18 19  2  0
 18 20  1  0
 20 21  2  0
 21 22  1  0
 22 23  1  0
 22 24  2  0
 24 25  1  0
 24 26  1  0
 26 27  1  0
 26 28  2  0
 16 29  1  0
 29 30  2  0
  8 31  1  0
 31  5  1  0
 30 13  1  0
 28 20  1  0
  1 32  1  0
 14 33  1  0
 15 34  1  0
 21 35  1  0
 25 36  1  0
 28 37  1  0
 29 38  1  0
 30 39  1  0
M  CHG  5   1  -1   7  -1  17  -1  23  -1  27  -1
M  END
>  <UniqueID>  (7) 
7

>  <SMILES>  (7) 
[NH-]S(=O)(=O)c1n[n-]c(=NS(=O)(=O)c2ccc([N-]C(=O)c3cc([O-])c(O)c([O-])c3)cc2)s1

>  <Energy>  (7) 
84.16041763485437

>  <Genealogy>  (7) 
[NH-]S(=O)(=O)c1n[n-]c(=NS(=O)(=O)c2ccc([N-]C(=O)c3cc([O-])c(O)c([O-])c3)cc2)s1 (protonated)
[NH-]S(=O)(=O)c1n[n-]c(=NS(=O)(=O)c2ccc([N-]C(=O)c3cc([O-])c(O)c([O-])c3)cc2)s1 (3D coordinates assigned)
[NH-]S(=O)(=O)c1n[n-]c(=NS(=O)(=O)c2ccc([N-]C(=O)c3cc([O-])c(O)c([O-])c3)cc2)s1 (optimized conformer: 84.16041763485437 kcal/mol)

>  <smiles>  (7) 
NS(=O)(=O)c1n[nH]c(=NS(=O)(=O)c2ccc(NC(=O)c3cc(O)c(O)c(O)c3)cc2)s1

>  <score_type>  (7) 
oracle

>  <origin>  (7) 
adgpu

>  <m_score__min__energy>  (7) 
-13.09

>  <m_primary>  (7) 
energy

$$$$
7:0
     RDKit          3D

 22 23  0  0  0  0  0  0  0  0999 V2000
   -5.6590   22.2180  -33.2170 H   0  0  0  0  0  0  0  0  0  0  0  0
   -4.8100   22.1270  -32.6140 N   0  0  0  0  0  0  0  0  0  0  0  0
   -4.4840   23.0450  -31.7640 C   0  0  0  0  0  0  0  0  0  0  0  0
   -3.3750   22.8910  -30.9980 N   0  0  0  0  0  0  0  0  0  0  0  0
   -3.0150   23.8460  -30.0980 C   0  0  0  0  0  0  0  0  0  0  0  0
   -1.7940   23.6650  -29.2620 C   0  0  0  0  0  0  0  0  0  0  0  0
   -1.4510   22.3760  -28.8030 C   0  0  0  0  0  0  0  0  0  0  0  0
   -2.0888   21.5196  -29.0671 H   0  0  0  0  0  0  0  0  0  0  0  0
   -0.3120   22.1700  -28.0170 C   0  0  0  0  0  0  0  0  0  0  0  0
   -0.0020   20.8850  -27.5790 O   0  0  0  0  0  0  0  0  0  0  0  0
   -0.1500   20.0750  -28.1690 H   0  0  0  0  0  0  0  0  0  0  0  0
    0.5040   23.2540  -27.6790 C   0  0  0  0  0  0  0  0  0  0  0  0
    1.4006   23.0950  -27.0618 H   0  0  0  0  0  0  0  0  0  0  0  0
    0.1830   24.5360  -28.1230 C   0  0  0  0  0  0  0  0  0  0  0  0
    0.8288   25.3847  -27.8536 H   0  0  0  0  0  0  0  0  0  0  0  0
   -0.9550   24.7510  -28.9090 C   0  0  0  0  0  0  0  0  0  0  0  0
   -1.2330   26.0480  -29.3280 O   0  0  0  0  0  0  0  0  0  0  0  0
   -3.7870   24.9590  -29.9760 N   0  0  0  0  0  0  0  0  0  0  0  0
   -4.8980   25.1200  -30.7400 C   0  0  0  0  0  0  0  0  0  0  0  0
   -5.6270   26.1810  -30.6180 N   0  0  0  0  0  0  0  0  0  0  0  0
   -5.3830   26.9360  -29.9380 H   0  0  0  0  0  0  0  0  0  0  0  0
   -5.2460   24.1610  -31.6330 N   0  0  0  0  0  0  0  0  0  0  0  0
  1  2  1  0
  2  3  2  0
  3  4  1  0
  4  5  2  0
  5  6  1  0
  6  7  2  0
  7  8  1  0
  7  9  1  0
  9 10  1  0
 10 11  1  0
  9 12  2  0
 12 13  1  0
 12 14  1  0
 14 15  1  0
 14 16  2  0
 16 17  1  0
  5 18  1  0
 18 19  1  0
 19 20  2  0
 20 21  1  0
 19 22  1  0
 22  3  1  0
 16  6  1  0
M  CHG  3  17  -1  18  -1  22  -1
M  END
>  <UniqueID>  (8) 
8

>  <SMILES>  (8) 
[H]/N=c1/nc(-c2cc(O)ccc2[O-])[n-]/c(=N\[H])[n-]1

>  <Energy>  (8) 
26.115560650092842

>  <Genealogy>  (8) 
N=c1nc(-c2cc(O)ccc2[O-])[n-]c(=N)[n-]1 (protonated)
[H]/N=c1/nc(-c2cc(O)ccc2[O-])[n-]/c(=N\[H])[n-]1 (cis-trans isomerization)
[H]/N=c1/nc(-c2cc(O)ccc2[O-])[n-]/c(=N\[H])[n-]1 (3D coordinates assigned)
[H]/N=c1/nc(-c2cc(O)ccc2[O-])[n-]/c(=N\[H])[n-]1 (optimized conformer: 26.115560650092842 kcal/mol)

>  <smiles>  (8) 
N=c1nc(-c2cc(O)ccc2O)[nH]c(=N)[nH]1

>  <score_type>  (8) 
oracle

>  <origin>  (8) 
adgpu

>  <m_score__min__energy>  (8) 
-10

>  <m_primary>  (8) 
energy

$$$$
8:0
     RDKit          3D

 39 40  0  0  1  0  0  0  0  0999 V2000
   -4.1170   23.4380  -28.1400 C   0  0  0  0  0  0  0  0  0  0  0  0
   -5.0390   24.2150  -28.9080 N   0  0  0  0  0  0  0  0  0  0  0  0
   -4.8470   24.0290  -30.6120 S   0  0  0  0  0  0  0  0  0  0  0  0
   -5.0500   25.4130  -31.2130 O   0  0  0  0  0  0  0  0  0  0  0  0
   -3.4920   23.5740  -30.9890 O   0  0  0  0  0  0  0  0  0  0  0  0
   -6.0270   22.9110  -31.2660 C   0  0  0  0  0  0  0  0  0  0  0  0
   -7.3860   23.0960  -31.1010 C   0  0  0  0  0  0  0  0  0  0  0  0
   -8.3170   22.1980  -31.6280 C   0  0  0  0  0  0  0  0  0  0  0  0
   -7.8420   21.0910  -32.3360 C   0  0  0  0  0  0  0  0  0  0  0  0
   -6.4820   20.8880  -32.5130 C   0  0  0  0  0  0  0  0  0  0  0  0
   -6.0140   19.7440  -33.2450 N   0  0  0  0  0  0  0  0  0  0  0  0
   -5.9170   18.6090  -32.6120 C   0  0  0  0  0  0  0  0  0  0  0  0
   -6.2680   18.6070  -31.2990 N   0  0  0  0  0  0  0  0  0  0  0  0
   -6.1710   17.4380  -30.6340 C   0  0  0  0  0  0  0  0  0  0  0  0
   -5.7450   16.2980  -31.2210 N   0  0  0  0  0  0  0  0  0  0  0  0
   -5.3900   16.2720  -32.5170 C   0  0  0  0  0  0  0  0  0  0  0  0
   -4.9370   15.0800  -33.1580 N   0  0  0  0  0  0  0  0  0  0  0  0
   -3.5850   14.6290  -32.9440 C   0  0  0  0  0  0  0  0  0  0  0  0
   -5.7960   14.3080  -34.0170 C   0  0  0  0  0  0  0  0  0  0  0  0
   -5.4760   17.4590  -33.2430 C   0  0  0  0  0  0  0  0  0  0  0  0
   -5.1090   17.5000  -34.6430 C   0  0  0  0  0  0  0  0  0  0  0  0
   -4.8070   17.5180  -35.7740 N   0  0  0  0  0  0  0  0  0  0  0  0
   -5.5730   21.8060  -31.9730 C   0  0  0  0  0  0  0  0  0  0  0  0
   -4.3066   23.5978  -27.0683 H   0  0  0  0  0  0  0  0  0  0  0  0
   -4.2463   22.3724  -28.3804 H   0  0  0  0  0  0  0  0  0  0  0  0
   -3.0887   23.7460  -28.3804 H   0  0  0  0  0  0  0  0  0  0  0  0
   -6.0270   24.1680  -28.6150 H   0  0  0  0  0  0  0  0  0  0  0  0
   -7.7438   23.9723  -30.5406 H   0  0  0  0  0  0  0  0  0  0  0  0
   -9.3964   22.3582  -31.4892 H   0  0  0  0  0  0  0  0  0  0  0  0
   -8.5573   20.3703  -32.7590 H   0  0  0  0  0  0  0  0  0  0  0  0
   -6.4500   17.4114  -29.5703 H   0  0  0  0  0  0  0  0  0  0  0  0
   -5.6760   15.4020  -30.6930 H   0  0  0  0  0  0  0  0  0  0  0  0
   -3.3871   14.5630  -31.8640 H   0  0  0  0  0  0  0  0  0  0  0  0
   -3.4522   13.6379  -33.4024 H   0  0  0  0  0  0  0  0  0  0  0  0
   -2.8838   15.3419  -33.4024 H   0  0  0  0  0  0  0  0  0  0  0  0
   -6.4752   13.6976  -33.4037 H   0  0  0  0  0  0  0  0  0  0  0  0
   -6.3850   14.9862  -34.6519 H   0  0  0  0  0  0  0  0  0  0  0  0
   -5.1843   13.6502  -34.6519 H   0  0  0  0  0  0  0  0  0  0  0  0
   -4.4927   21.6506  -32.1098 H   0  0  0  0  0  0  0  0  0  0  0  0
  1  2  1  0
  2  3  1  0
  3  4  2  0
  3  5  2  0
  3  6  1  0
  6  7  2  0
  7  8  1  0
  8  9  2  0
  9 10  1  0
 10 11  1  0
 11 12  2  0
 12 13  1  0
 13 14  2  0
 14 15  1  0
 15 16  1  0
 16 17  1  0
 17 18  1  0
 17 19  1  0
 16 20  2  0
 20 21  1  0
 21 22  3  0
 10 23  2  0
 23  6  1  0
 20 12  1  0
  1 24  1  0
  1 25  1  0
  1 26  1  0
  2 27  1  0
  7 28  1  0
  8 29  1  0
  9 30  1  0
 14 31  1  0
 15 32  1  0
 18 33  1  0
 18 34  1  0
 18 35  1  0
 19 36  1  0
 19 37  1  0
 19 38  1  0
 23 39  1  0
M  END
>  <smiles>  (9) 
CNS(=O)(=O)c1cccc(N=c2nc[nH]c(N(C)C)c2C#N)c1

>  <score_type>  (9) 
oracle

>  <origin>  (9) 
adgpu

>  <m_score__min__energy>  (9) 
-8.2699999999999996

>  <m_primary>  (9) 
energy

$$$$
9:0
     RDKit          3D

 53 55  0  0  0  0  0  0  0  0999 V2000
   -0.8730   27.1740  -26.1340 C   0  0  0  0  0  0  0  0  0  0  0  0
    0.3280   26.8810  -27.0240 C   0  0  0  0  0  0  0  0  0  0  0  0
    0.5990   25.1220  -27.1840 S   0  0  0  0  0  0  0  0  0  0  0  0
    1.7370   24.8830  -28.1360 O   0  0  0  0  0  0  0  0  0  0  0  0
    1.0050   24.5660  -25.8480 O   0  0  0  0  0  0  0  0  0  0  0  0
   -0.8800   24.3190  -27.7690 C   0  0  0  0  0  0  0  0  0  0  0  0
   -1.3030   23.0680  -27.2500 C   0  0  0  0  0  0  0  0  0  0  0  0
   -0.5510   22.3500  -26.1600 C   0  0  0  0  0  0  0  0  0  0  0  0
   -2.4790   22.4790  -27.7400 C   0  0  0  0  0  0  0  0  0  0  0  0
   -3.2220   23.0830  -28.7520 C   0  0  0  0  0  0  0  0  0  0  0  0
   -4.3210   22.3930  -29.2640 O   0  0  0  0  0  0  0  0  0  0  0  0
   -2.8250   24.3390  -29.2530 C   0  0  0  0  0  0  0  0  0  0  0  0
   -3.5810   25.0230  -30.2620 N   0  0  0  0  0  0  0  0  0  0  0  0
   -4.9780   24.8300  -30.4960 C   0  0  0  0  0  0  0  0  0  0  0  0
   -5.8070   25.3010  -29.6740 O   0  0  0  0  0  0  0  0  0  0  0  0
   -5.4230   24.1420  -31.6740 N   0  0  0  0  0  0  0  0  0  0  0  0
   -6.5290   23.2330  -31.7730 C   0  0  0  0  0  0  0  0  0  0  0  0
   -7.8620   23.6860  -31.7490 C   0  0  0  0  0  0  0  0  0  0  0  0
   -8.9170   22.7760  -31.8560 C   0  0  0  0  0  0  0  0  0  0  0  0
   -8.6560   21.4110  -31.9840 C   0  0  0  0  0  0  0  0  0  0  0  0
   -7.3400   20.9480  -31.9830 C   0  0  0  0  0  0  0  0  0  0  0  0
   -6.2740   21.8510  -31.8530 C   0  0  0  0  0  0  0  0  0  0  0  0
   -4.5880   21.2220  -31.8140 S   0  0  0  0  0  0  0  0  0  0  0  0
   -4.6500   20.4700  -33.4800 C   0  0  0  0  0  0  0  0  0  0  0  0
   -5.2380   19.0870  -33.4320 C   0  0  0  0  0  0  0  0  0  0  0  0
   -5.5990   18.4250  -34.6190 C   0  0  0  0  0  0  0  0  0  0  0  0
   -6.1610   17.1470  -34.5680 C   0  0  0  0  0  0  0  0  0  0  0  0
   -6.3490   16.5120  -33.3380 C   0  0  0  0  0  0  0  0  0  0  0  0
   -5.9790   17.1590  -32.1560 C   0  0  0  0  0  0  0  0  0  0  0  0
   -5.4440   18.4490  -32.1980 C   0  0  0  0  0  0  0  0  0  0  0  0
   -1.6440   24.9300  -28.7870 C   0  0  0  0  0  0  0  0  0  0  0  0
   -1.2380   26.1390  -29.3450 O   0  0  0  0  0  0  0  0  0  0  0  0
   -0.5734   27.1009  -25.0781 H   0  0  0  0  0  0  0  0  0  0  0  0
   -1.2436   28.1889  -26.3406 H   0  0  0  0  0  0  0  0  0  0  0  0
   -1.6693   26.4438  -26.3406 H   0  0  0  0  0  0  0  0  0  0  0  0
    0.1484   27.3087  -28.0214 H   0  0  0  0  0  0  0  0  0  0  0  0
    1.2204   27.3308  -26.5644 H   0  0  0  0  0  0  0  0  0  0  0  0
   -0.9107   22.6935  -25.1789 H   0  0  0  0  0  0  0  0  0  0  0  0
   -0.7168   21.2665  -26.2526 H   0  0  0  0  0  0  0  0  0  0  0  0
    0.5237   22.5657  -26.2526 H   0  0  0  0  0  0  0  0  0  0  0  0
   -2.8204   21.5226  -27.3171 H   0  0  0  0  0  0  0  0  0  0  0  0
   -4.9260   22.7740  -29.9800 H   0  0  0  0  0  0  0  0  0  0  0  0
   -8.0737   24.7605  -31.6456 H   0  0  0  0  0  0  0  0  0  0  0  0
   -9.9561   23.1365  -31.8393 H   0  0  0  0  0  0  0  0  0  0  0  0
   -9.4887   20.6995  -32.0858 H   0  0  0  0  0  0  0  0  0  0  0  0
   -7.1374   19.8716  -32.0845 H   0  0  0  0  0  0  0  0  0  0  0  0
   -5.2692   21.1004  -34.1352 H   0  0  0  0  0  0  0  0  0  0  0  0
   -3.6231   20.3981  -33.8676 H   0  0  0  0  0  0  0  0  0  0  0  0
   -5.4384   18.9150  -35.5907 H   0  0  0  0  0  0  0  0  0  0  0  0
   -6.4561   16.6397  -35.4983 H   0  0  0  0  0  0  0  0  0  0  0  0
   -6.7877   15.5040  -33.3000 H   0  0  0  0  0  0  0  0  0  0  0  0
   -6.1094   16.6509  -31.1891 H   0  0  0  0  0  0  0  0  0  0  0  0
   -5.1836   18.9659  -31.2626 H   0  0  0  0  0  0  0  0  0  0  0  0
  1  2  1  0
  2  3  1  0
  3  4  2  0
  3  5  2  0
  3  6  1  0
  6  7  2  0
  7  8  1  0
  7  9  1  0
  9 10  2  0
 10 11  1  0
 10 12  1  0
 12 13  1  0
 13 14  1  0
 14 15  2  0
 14 16  1  0
 16 17  1  0
 17 18  2  0
 18 19  1  0
 19 20  2  0
 20 21  1  0
 21 22  2  0
 22 23  1  0
 23 24  1  0
 24 25  1  0
 25 26  2  0
 26 27  1  0
 27 28  2  0
 28 29  1  0
 29 30  2  0
 12 31  2  0
 31 32  1  0
 31  6  1  0
 22 17  1  0
 30 25  1  0
  1 33  1  0
  1 34  1  0
  1 35  1  0
  2 36  1  0
  2 37  1  0
  8 38  1  0
  8 39  1  0
  8 40  1  0
  9 41  1  0
 11 42  1  0
 18 43  1  0
 19 44  1  0
 20 45  1  0
 21 46  1  0
 24 47  1  0
 24 48  1  0
 26 49  1  0
 27 50  1  0
 28 51  1  0
 29 52  1  0
 30 53  1  0
M  CHG  3  13  -1  16  -1  32  -1
M  END
>  <UniqueID>  (10) 
9

>  <SMILES>  (10) 
CCS(=O)(=O)c1c(C)cc(O)c([N-]C(=O)[N-]c2ccccc2SCc2ccccc2)c1[O-]

>  <Energy>  (10) 
53.35432512981448

>  <Genealogy>  (10) 
CCS(=O)(=O)c1c(C)cc(O)c([N-]C(=O)[N-]c2ccccc2SCc2ccccc2)c1[O-] (protonated)
CCS(=O)(=O)c1c(C)cc(O)c([N-]C(=O)[N-]c2ccccc2SCc2ccccc2)c1[O-] (3D coordinates assigned)
CCS(=O)(=O)c1c(C)cc(O)c([N-]C(=O)[N-]c2ccccc2SCc2ccccc2)c1[O-] (optimized conformer: 53.35432512981448 kcal/mol)

>  <smiles>  (10) 
CCS(=O)(=O)c1c(C)cc(O)c(NC(=O)Nc2ccccc2SCc2ccccc2)c1O

>  <score_type>  (10) 
oracle

>  <origin>  (10) 
adgpu

>  <m_score__min__energy>  (10) 
-15.49

>  <m_primary>  (10) 
energy

$$$$
10:0
     RDKit          3D

 57 60  0  0  0  0  0  0  0  0999 V2000
   -2.4097   26.1471  -24.3869 H   0  0  0  0  0  0  0  0  0  0  0  0
   -1.9760   25.6410  -25.2620 C   0  0  0  0  0  0  0  0  0  0  0  0
   -2.6810   25.5680  -26.4210 N   0  0  0  0  0  0  0  0  0  0  0  0
   -2.1790   24.9490  -27.5240 C   0  0  0  0  0  0  0  0  0  0  0  0
   -2.7745   24.9077  -28.4479 H   0  0  0  0  0  0  0  0  0  0  0  0
   -0.9040   24.3630  -27.4870 C   0  0  0  0  0  0  0  0  0  0  0  0
   -0.3420   23.6880  -28.7100 C   0  0  0  0  0  0  0  0  0  0  0  0
    0.6933   24.0250  -28.8667 H   0  0  0  0  0  0  0  0  0  0  0  0
   -0.9608   23.9524  -29.5801 H   0  0  0  0  0  0  0  0  0  0  0  0
   -0.3560   22.2180  -28.5390 N   0  0  0  0  0  0  0  0  0  0  0  0
   -1.1120   21.7800  -27.3310 C   0  0  0  0  0  0  0  0  0  0  0  0
   -1.4160   22.6761  -26.7700 H   0  0  0  0  0  0  0  0  0  0  0  0
   -0.4397   21.1264  -26.7558 H   0  0  0  0  0  0  0  0  0  0  0  0
   -2.3740   20.9540  -27.6440 C   0  0  0  0  0  0  0  0  0  0  0  0
   -3.0214   20.9376  -26.7549 H   0  0  0  0  0  0  0  0  0  0  0  0
   -2.0635   19.9348  -27.9174 H   0  0  0  0  0  0  0  0  0  0  0  0
   -3.1560   21.5560  -28.8220 C   0  0  0  0  0  0  0  0  0  0  0  0
   -3.9929   20.8772  -29.0430 H   0  0  0  0  0  0  0  0  0  0  0  0
   -3.6910   22.8790  -28.4740 N   0  0  0  0  0  0  0  0  0  0  0  0
   -4.5990   23.5240  -29.1460 C   0  0  0  0  0  0  0  0  0  0  0  0
   -5.1430   22.9900  -30.2720 N   0  0  0  0  0  0  0  0  0  0  0  0
   -6.0900   23.6540  -30.9880 C   0  0  0  0  0  0  0  0  0  0  0  0
   -6.6490   23.0800  -32.1330 O   0  0  0  0  0  0  0  0  0  0  0  0
   -6.6730   21.6960  -32.3320 C   0  0  0  0  0  0  0  0  0  0  0  0
   -7.8550   20.9760  -32.0720 C   0  0  0  0  0  0  0  0  0  0  0  0
   -9.0850   21.6900  -31.5890 C   0  0  0  0  0  0  0  0  0  0  0  0
   -9.0968   21.6969  -30.4891 H   0  0  0  0  0  0  0  0  0  0  0  0
   -9.0786   22.7248  -31.9621 H   0  0  0  0  0  0  0  0  0  0  0  0
   -9.9804   21.1713  -31.9621 H   0  0  0  0  0  0  0  0  0  0  0  0
   -7.9020   19.5990  -32.3390 C   0  0  0  0  0  0  0  0  0  0  0  0
   -8.8301   19.0378  -32.1557 H   0  0  0  0  0  0  0  0  0  0  0  0
   -6.7750   18.9360  -32.8370 C   0  0  0  0  0  0  0  0  0  0  0  0
   -6.8340   17.5250  -33.1160 C   0  0  0  0  0  0  0  0  0  0  0  0
   -6.8810   16.3910  -33.3400 N   0  0  0  0  0  0  0  0  0  0  0  0
   -5.5900   19.6440  -33.0640 C   0  0  0  0  0  0  0  0  0  0  0  0
   -4.7057   19.1193  -33.4548 H   0  0  0  0  0  0  0  0  0  0  0  0
   -5.5230   21.0200  -32.7960 C   0  0  0  0  0  0  0  0  0  0  0  0
   -4.2370   21.7630  -33.0410 C   0  0  0  0  0  0  0  0  0  0  0  0
   -3.7776   22.0284  -32.0774 H   0  0  0  0  0  0  0  0  0  0  0  0
   -3.5475   21.1241  -33.6123 H   0  0  0  0  0  0  0  0  0  0  0  0
   -4.4461   22.6794  -33.6123 H   0  0  0  0  0  0  0  0  0  0  0  0
   -6.5010   24.9210  -30.5740 C   0  0  0  0  0  0  0  0  0  0  0  0
   -7.2510   25.4845  -31.1484 H   0  0  0  0  0  0  0  0  0  0  0  0
   -5.9400   25.4570  -29.4160 C   0  0  0  0  0  0  0  0  0  0  0  0
   -6.2539   26.4505  -29.0632 H   0  0  0  0  0  0  0  0  0  0  0  0
   -5.0050   24.7540  -28.7210 N   0  0  0  0  0  0  0  0  0  0  0  0
   -4.5940   25.1720  -27.8560 H   0  0  0  0  0  0  0  0  0  0  0  0
   -2.2620   21.6750  -30.0800 C   0  0  0  0  0  0  0  0  0  0  0  0
   -2.4261   22.6641  -30.5326 H   0  0  0  0  0  0  0  0  0  0  0  0
   -2.5441   20.8566  -30.7587 H   0  0  0  0  0  0  0  0  0  0  0  0
   -0.7590   21.5190  -29.7770 C   0  0  0  0  0  0  0  0  0  0  0  0
   -0.1846   21.9329  -30.6188 H   0  0  0  0  0  0  0  0  0  0  0  0
   -0.5557   20.4471  -29.6370 H   0  0  0  0  0  0  0  0  0  0  0  0
   -0.1650   24.4340  -26.2970 C   0  0  0  0  0  0  0  0  0  0  0  0
    0.8377   23.9846  -26.2446 H   0  0  0  0  0  0  0  0  0  0  0  0
   -0.7020   25.0750  -25.1790 C   0  0  0  0  0  0  0  0  0  0  0  0
   -0.1277   25.1336  -24.2427 H   0  0  0  0  0  0  0  0  0  0  0  0
  1  2  1  0
  2  3  2  0
  3  4  1  0
  4  5  1  0
  4  6  2  0
  6  7  1  0
  7  8  1  0
  7  9  1  0
  7 10  1  0
 10 11  1  0
 11 12  1  0
 11 13  1  0
 11 14  1  0
 14 15  1  0
 14 16  1  0
 14 17  1  0
 17 18  1  0
 17 19  1  0
 19 20  2  0
 20 21  1  0
 21 22  2  0
 22 23  1  0
 23 24  1  0
 24 25  2  0
 25 26  1  0
 26 27  1  0
 26 28  1  0
 26 29  1  0
 25 30  1  0
 30 31  1  0
 30 32  2  0
 32 33  1  0
 33 34  3  0
 32 35  1  0
 35 36  1  0
 35 37  2  0
 37 38  1  0
 38 39  1  0
 38 40  1  0
 38 41  1  0
 22 42  1  0
 42 43  1  0
 42 44  2  0
 44 45  1  0
 44 46  1  0
 46 47  1  0
 17 48  1  0
 48 49  1  0
 48 50  1  0
 48 51  1  0
 51 52  1  0
 51 53  1  0
  6 54  1  0
 54 55  1  0
 54 56  2  0
 56 57  1  0
 56  2  1  0
 51 10  1  0
 46 20  1  0
 37 24  1  0
M  END
>  <UniqueID>  (11) 
10

>  <SMILES>  (11) 
Cc1cc(C#N)cc(C)c1Oc1cc[nH]/c(=N/C2CCN(Cc3cccnc3)CC2)n1

>  <Energy>  (11) 
74.71780700714207

>  <Genealogy>  (11) 
Cc1cc(C#N)cc(C)c1Oc1cc[nH]/c(=N/C2CCN(Cc3cccnc3)CC2)n1 (cis-trans isomerization)
Cc1cc(C#N)cc(C)c1Oc1cc[nH]/c(=N/C2CCN(Cc3cccnc3)CC2)n1 (3D coordinates assigned)
Cc1cc(C#N)cc(C)c1Oc1cc[nH]/c(=N/C2CCN(Cc3cccnc3)CC2)n1 (nonaromatic ring conformer: 74.71780700714207 kcal/mol)

>  <smiles>  (11) 
Cc1cc(C#N)cc(C)c1Oc1cc[nH]c(=NC2CCN(Cc3cccnc3)CC2)n1

>  <score_type>  (11) 
oracle

>  <origin>  (11) 
adgpu

>  <m_score__min__energy>  (11) 
-9.3200000000000003

>  <m_primary>  (11) 
energy

$$$$
11:0
     RDKit          3D

 63 66  0  0  0  0  0  0  0  0999 V2000
   -0.4950   23.8320  -25.4760 C   0  0  0  0  0  0  0  0  0  0  0  0
   -1.2590   24.1200  -26.7340 C   0  0  0  0  0  0  0  0  0  0  0  0
   -2.6380   23.8770  -26.7880 C   0  0  0  0  0  0  0  0  0  0  0  0
   -3.3630   24.1690  -27.9470 C   0  0  0  0  0  0  0  0  0  0  0  0
   -2.7280   24.7350  -29.0580 C   0  0  0  0  0  0  0  0  0  0  0  0
   -3.5090   24.9970  -30.2320 N   0  0  0  0  0  0  0  0  0  0  0  0
   -4.3800   24.0770  -30.9070 C   0  0  0  0  0  0  0  0  0  0  0  0
   -5.5970   24.3610  -31.0630 O   0  0  0  0  0  0  0  0  0  0  0  0
   -3.8510   22.7670  -31.3600 C   0  0  0  0  0  0  0  0  0  0  0  0
   -2.5550   22.3860  -30.9640 C   0  0  0  0  0  0  0  0  0  0  0  0
   -1.9970   21.1780  -31.3930 C   0  0  0  0  0  0  0  0  0  0  0  0
   -0.4070   20.6960  -30.8070 S   0  0  0  0  0  0  0  0  0  0  0  0
    0.6350   21.1220  -31.8030 O   0  0  0  0  0  0  0  0  0  0  0  0
   -0.3380   19.2010  -30.6520 O   0  0  0  0  0  0  0  0  0  0  0  0
   -0.0910   21.4630  -29.2800 N   0  0  0  0  0  0  0  0  0  0  0  0
    0.2720   20.4540  -28.2840 C   0  0  0  0  0  0  0  0  0  0  0  0
   -0.9680   19.9430  -27.6080 C   0  0  0  0  0  0  0  0  0  0  0  0
   -2.1720   20.6570  -27.6890 C   0  0  0  0  0  0  0  0  0  0  0  0
   -3.3240   20.1540  -27.0790 C   0  0  0  0  0  0  0  0  0  0  0  0
   -3.2630   18.9340  -26.4010 C   0  0  0  0  0  0  0  0  0  0  0  0
   -2.0930   18.2440  -26.3460 N   0  0  0  0  0  0  0  0  0  0  0  0
   -0.9570   18.7120  -26.9330 C   0  0  0  0  0  0  0  0  0  0  0  0
   -2.7280   20.3370  -32.2360 C   0  0  0  0  0  0  0  0  0  0  0  0
   -4.0110   20.7000  -32.6460 C   0  0  0  0  0  0  0  0  0  0  0  0
   -4.5870   21.9070  -32.2160 C   0  0  0  0  0  0  0  0  0  0  0  0
   -5.9090   22.2480  -32.6620 N   0  0  0  0  0  0  0  0  0  0  0  0
   -7.0500   21.4070  -32.4190 C   0  0  0  0  0  0  0  0  0  0  0  0
   -6.8820   20.0150  -32.4680 C   0  0  0  0  0  0  0  0  0  0  0  0
   -7.9680   19.1530  -32.2640 C   0  0  0  0  0  0  0  0  0  0  0  0
   -7.7620   17.6690  -32.3270 C   0  0  0  0  0  0  0  0  0  0  0  0
   -9.2340   19.6890  -31.9920 C   0  0  0  0  0  0  0  0  0  0  0  0
   -9.4090   21.0730  -31.9140 C   0  0  0  0  0  0  0  0  0  0  0  0
   -8.3230   21.9450  -32.1010 C   0  0  0  0  0  0  0  0  0  0  0  0
   -8.5450   23.4260  -31.9580 C   0  0  0  0  0  0  0  0  0  0  0  0
   -1.3400   24.9700  -29.0090 C   0  0  0  0  0  0  0  0  0  0  0  0
   -0.6140   24.6770  -27.8500 C   0  0  0  0  0  0  0  0  0  0  0  0
   -1.1222   24.0684  -24.6038 H   0  0  0  0  0  0  0  0  0  0  0  0
   -0.2180   22.7677  -25.4507 H   0  0  0  0  0  0  0  0  0  0  0  0
    0.4156   24.4486  -25.4507 H   0  0  0  0  0  0  0  0  0  0  0  0
   -3.1532   23.4539  -25.9130 H   0  0  0  0  0  0  0  0  0  0  0  0
   -4.4407   23.9522  -27.9859 H   0  0  0  0  0  0  0  0  0  0  0  0
   -1.9725   23.0487  -30.3071 H   0  0  0  0  0  0  0  0  0  0  0  0
    0.7330   22.0920  -29.4200 H   0  0  0  0  0  0  0  0  0  0  0  0
    0.7886   19.6193  -28.7803 H   0  0  0  0  0  0  0  0  0  0  0  0
    0.9373   20.9053  -27.5332 H   0  0  0  0  0  0  0  0  0  0  0  0
   -2.2096   21.6126  -28.2325 H   0  0  0  0  0  0  0  0  0  0  0  0
   -4.2698   20.7132  -27.1321 H   0  0  0  0  0  0  0  0  0  0  0  0
   -4.1621   18.5316  -25.9114 H   0  0  0  0  0  0  0  0  0  0  0  0
   -0.0287   18.1244  -26.8782 H   0  0  0  0  0  0  0  0  0  0  0  0
   -2.2910   19.3869  -32.5770 H   0  0  0  0  0  0  0  0  0  0  0  0
   -4.5778   20.0340  -33.3132 H   0  0  0  0  0  0  0  0  0  0  0  0
   -6.0870   23.2450  -32.9140 H   0  0  0  0  0  0  0  0  0  0  0  0
   -5.8854   19.5949  -32.6690 H   0  0  0  0  0  0  0  0  0  0  0  0
   -7.7056   17.2630  -31.3062 H   0  0  0  0  0  0  0  0  0  0  0  0
   -8.6042   17.2042  -32.8605 H   0  0  0  0  0  0  0  0  0  0  0  0
   -6.8250   17.4512  -32.8605 H   0  0  0  0  0  0  0  0  0  0  0  0
  -10.0924   19.0182  -31.8395 H   0  0  0  0  0  0  0  0  0  0  0  0
  -10.4073   21.4843  -31.7040 H   0  0  0  0  0  0  0  0  0  0  0  0
   -8.5845   23.6895  -30.8908 H   0  0  0  0  0  0  0  0  0  0  0  0
   -7.7182   23.9689  -32.4393 H   0  0  0  0  0  0  0  0  0  0  0  0
   -9.4946   23.7026  -32.4393 H   0  0  0  0  0  0  0  0  0  0  0  0
   -0.8243   25.3862  -29.8870 H   0  0  0  0  0  0  0  0  0  0  0  0
    0.4658   24.8836  -27.8126 H   0  0  0  0  0  0  0  0  0  0  0  0
  1  2  1  0
  2  3  2  0
  3  4  1  0
  4  5  2  0
  5  6  1  0
  6  7  1  0
  7  8  2  0
  7  9  1  0
  9 10  2  0
 10 11  1  0
 11 12  1  0
 12 13  2  0
 12 14  2  0
 12 15  1  0
 15 16  1  0
 16 17  1  0
 17 18  2  0
 18 19  1  0
 19 20  2  0
 20 21  1  0
 21 22  2  0
 11 23  2  0
 23 24  1  0
 24 25  2  0
 25 26  1  0
 26 27  1  0
 27 28  2  0
 28 29  1  0
 29 30  1  0
 29 31  2  0
 31 32  1  0
 32 33  2  0
 33 34  1  0
  5 35  1  0
 35 36  2  0
 36  2  1  0
 25  9  1  0
 33 27  1  0
 22 17  1  0
  1 37  1  0
  1 38  1  0
  1 39  1  0
  3 40  1  0
  4 41  1  0
 10 42  1  0
 15 43  1  0
 16 44  1  0
 16 45  1  0
 18 46  1  0
 19 47  1  0
 20 48  1  0
 22 49  1  0
 23 50  1  0
 24 51  1  0
 26 52  1  0
 28 53  1  0
 30 54  1  0
 30 55  1  0
 30 56  1  0
 31 57  1  0
 32 58  1  0
 34 59  1  0
 34 60  1  0
 34 61  1  0
 35 62  1  0
 36 63  1  0
M  CHG  1   6  -1
M  END
>  <UniqueID>  (12) 
11

>  <SMILES>  (12) 
Cc1ccc([N-]C(=O)c2cc(S(=O)(=O)NCc3cccnc3)ccc2Nc2cc(C)ccc2C)cc1

>  <Energy>  (12) 
79.54131703441371

>  <Genealogy>  (12) 
Cc1ccc([N-]C(=O)c2cc(S(=O)(=O)NCc3cccnc3)ccc2Nc2cc(C)ccc2C)cc1 (protonated)
Cc1ccc([N-]C(=O)c2cc(S(=O)(=O)NCc3cccnc3)ccc2Nc2cc(C)ccc2C)cc1 (3D coordinates assigned)
Cc1ccc([N-]C(=O)c2cc(S(=O)(=O)NCc3cccnc3)ccc2Nc2cc(C)ccc2C)cc1 (optimized conformer: 79.54131703441371 kcal/mol)

>  <smiles>  (12) 
Cc1ccc(NC(=O)c2cc(S(=O)(=O)NCc3cccnc3)ccc2Nc2cc(C)ccc2C)cc1

>  <score_type>  (12) 
oracle

>  <origin>  (12) 
adgpu

>  <m_score__min__energy>  (12) 
-11.970000000000001

>  <m_primary>  (12) 
energy

$$$$
12:0
     RDKit          3D

 61 65  0  0  0  0  0  0  0  0999 V2000
   -3.9620   25.1090  -30.0100 N   0  0  0  0  0  0  0  0  0  0  0  0
   -4.7890   24.1610  -30.3360 C   0  0  0  0  0  0  0  0  0  0  0  0
   -4.4450   23.4310  -31.4300 N   0  0  0  0  0  0  0  0  0  0  0  0
   -5.2720   22.4370  -31.8050 C   0  0  0  0  0  0  0  0  0  0  0  0
   -4.9870   21.5720  -33.0000 C   0  0  0  0  0  0  0  0  0  0  0  0
   -4.0620   20.5400  -32.6480 N   0  0  0  0  0  0  0  0  0  0  0  0
   -2.9820   20.9620  -31.7990 C   0  0  0  0  0  0  0  0  0  0  0  0
   -1.8490   21.5730  -32.5720 C   0  0  0  0  0  0  0  0  0  0  0  0
   -1.3660   20.5950  -33.5170 N   0  0  0  0  0  0  0  0  0  0  0  0
   -0.0690   20.7840  -34.0630 C   0  0  0  0  0  0  0  0  0  0  0  0
    1.0490   20.1030  -33.6020 C   0  0  0  0  0  0  0  0  0  0  0  0
    2.3070   20.2970  -34.1450 C   0  0  0  0  0  0  0  0  0  0  0  0
    2.4640   21.1700  -35.1500 N   0  0  0  0  0  0  0  0  0  0  0  0
    1.4130   21.8720  -35.6510 C   0  0  0  0  0  0  0  0  0  0  0  0
    0.1620   21.6730  -35.1050 C   0  0  0  0  0  0  0  0  0  0  0  0
   -2.1890   19.4890  -33.8700 C   0  0  0  0  0  0  0  0  0  0  0  0
   -3.6610   19.6760  -33.7150 C   0  0  0  0  0  0  0  0  0  0  0  0
   -6.4480   22.1570  -31.1000 C   0  0  0  0  0  0  0  0  0  0  0  0
   -7.3140   21.0540  -31.5580 C   0  0  0  0  0  0  0  0  0  0  0  0
   -8.5980   21.3990  -31.9920 C   0  0  0  0  0  0  0  0  0  0  0  0
   -9.4750   20.4270  -32.4360 C   0  0  0  0  0  0  0  0  0  0  0  0
   -9.0070   19.1230  -32.4240 C   0  0  0  0  0  0  0  0  0  0  0  0
   -7.7490   18.7750  -32.0000 C   0  0  0  0  0  0  0  0  0  0  0  0
   -7.3360   17.4310  -32.0130 O   0  0  0  0  0  0  0  0  0  0  0  0
   -6.2660   17.0710  -32.8180 C   0  0  0  0  0  0  0  0  0  0  0  0
   -5.2340   16.2590  -32.3720 C   0  0  0  0  0  0  0  0  0  0  0  0
   -4.1910   15.9370  -33.2340 C   0  0  0  0  0  0  0  0  0  0  0  0
   -4.2030   16.4410  -34.5320 C   0  0  0  0  0  0  0  0  0  0  0  0
   -5.2390   17.2490  -34.9580 C   0  0  0  0  0  0  0  0  0  0  0  0
   -6.2830   17.5780  -34.1160 C   0  0  0  0  0  0  0  0  0  0  0  0
   -6.8770   19.7480  -31.5580 C   0  0  0  0  0  0  0  0  0  0  0  0
   -6.7630   22.9200  -29.9920 C   0  0  0  0  0  0  0  0  0  0  0  0
   -7.8320   22.6700  -29.3470 N   0  0  0  0  0  0  0  0  0  0  0  0
   -5.9140   23.9060  -29.6460 N   0  0  0  0  0  0  0  0  0  0  0  0
   -4.2180   25.6750  -29.1700 H   0  0  0  0  0  0  0  0  0  0  0  0
   -3.5710   23.6270  -31.9680 H   0  0  0  0  0  0  0  0  0  0  0  0
   -5.9244   21.1164  -33.3516 H   0  0  0  0  0  0  0  0  0  0  0  0
   -4.5505   22.1911  -33.7977 H   0  0  0  0  0  0  0  0  0  0  0  0
   -3.3644   21.7066  -31.0853 H   0  0  0  0  0  0  0  0  0  0  0  0
   -2.5935   20.0710  -31.2840 H   0  0  0  0  0  0  0  0  0  0  0  0
   -2.2034   22.4654  -33.1086 H   0  0  0  0  0  0  0  0  0  0  0  0
   -1.0406   21.8707  -31.8880 H   0  0  0  0  0  0  0  0  0  0  0  0
    0.9312   19.3848  -32.7772 H   0  0  0  0  0  0  0  0  0  0  0  0
    3.1712   19.7393  -33.7550 H   0  0  0  0  0  0  0  0  0  0  0  0
    1.5575   22.5851  -36.4760 H   0  0  0  0  0  0  0  0  0  0  0  0
   -0.6874   22.2416  -35.5114 H   0  0  0  0  0  0  0  0  0  0  0  0
   -1.9922   19.2499  -34.9255 H   0  0  0  0  0  0  0  0  0  0  0  0
   -1.9217   18.6907  -33.1620 H   0  0  0  0  0  0  0  0  0  0  0  0
   -4.0505   20.0945  -34.6548 H   0  0  0  0  0  0  0  0  0  0  0  0
   -4.0678   18.6838  -33.4699 H   0  0  0  0  0  0  0  0  0  0  0  0
   -8.9128   22.4529  -31.9799 H   0  0  0  0  0  0  0  0  0  0  0  0
  -10.4898   20.6755  -32.7803 H   0  0  0  0  0  0  0  0  0  0  0  0
   -9.6789   18.3249  -32.7726 H   0  0  0  0  0  0  0  0  0  0  0  0
   -5.2403   15.8718  -31.3424 H   0  0  0  0  0  0  0  0  0  0  0  0
   -3.3669   15.2922  -32.8946 H   0  0  0  0  0  0  0  0  0  0  0  0
   -3.3827   16.1942  -35.2221 H   0  0  0  0  0  0  0  0  0  0  0  0
   -5.2324   17.6377  -35.9870 H   0  0  0  0  0  0  0  0  0  0  0  0
   -7.1053   18.2224  -34.4603 H   0  0  0  0  0  0  0  0  0  0  0  0
   -5.8641   19.4889  -31.2162 H   0  0  0  0  0  0  0  0  0  0  0  0
   -8.0650   23.2610  -28.4990 H   0  0  0  0  0  0  0  0  0  0  0  0
   -6.1490   24.4890  -28.8040 H   0  0  0  0  0  0  0  0  0  0  0  0
  1  2  2  3
  2  3  1  0
  3  4  1  0
  4  5  1  0
  5  6  1  0
  6  7  1  0
  7  8  1  0
  8  9  1  0
  9 10  1  0
 10 11  2  0
 11 12  1  0
 12 13  2  0
 13 14  1  0
 14 15  2  0
  9 16  1  0
 16 17  1  0
  4 18  2  0
 18 19  1  0
 19 20  2  0
 20 21  1  0
 21 22  2  0
 22 23  1  0
 23 24  1  0
 24 25  1  0
 25 26  2  0
 26 27  1  0
 27 28  2  0
 28 29  1  0
 29 30  2  0
 23 31  2  0
 18 32  1  0
 32 33  2  3
 32 34  1  0
 34  2  1  0
 17  6  1  0
 31 19  1  0
 15 10  1  0
 30 25  1  0
  1 35  1  0
  3 36  1  0
  5 37  1  0
  5 38  1  0
  7 39  1  0
  7 40  1  0
  8 41  1  0
  8 42  1  0
 11 43  1  0
 12 44  1  0
 14 45  1  0
 15 46  1  0
 16 47  1  0
 16 48  1  0
 17 49  1  0
 17 50  1  0
 20 51  1  0
 21 52  1  0
 22 53  1  0
 26 54  1  0
 27 55  1  0
 28 56  1  0
 29 57  1  0
 30 58  1  0
 31 59  1  0
 33 60  1  0
 34 61  1  0
M  END
>  <smiles>  (13) 
N=c1[nH]c(CN2CCN(c3ccncc3)CC2)c(-c2cccc(Oc3ccccc3)c2)c(=N)[nH]1

>  <score_type>  (13) 
oracle

>  <origin>  (13) 
adgpu

>  <m_score__min__energy>  (13) 
-10.220000000000001

>  <m_primary>  (13) 
energy

$$$$
13:0
     RDKit          3D

 37 39  0  0  0  0  0  0  0  0999 V2000
   -1.8180   25.9040  -25.7460 C   0  0  0  0  0  0  0  0  0  0  0  0
   -1.5000   24.7560  -26.5260 O   0  0  0  0  0  0  0  0  0  0  0  0
   -2.3190   24.2350  -27.5420 C   0  0  0  0  0  0  0  0  0  0  0  0
   -3.0950   23.0760  -27.3610 C   0  0  0  0  0  0  0  0  0  0  0  0
   -3.8960   22.5920  -28.3990 C   0  0  0  0  0  0  0  0  0  0  0  0
   -3.9370   23.2550  -29.6380 C   0  0  0  0  0  0  0  0  0  0  0  0
   -4.7830   22.7500  -30.7440 C   0  0  0  0  0  0  0  0  0  0  0  0
   -5.6160   23.5360  -31.4660 N   0  0  0  0  0  0  0  0  0  0  0  0
   -6.2830   22.8830  -32.4170 N   0  0  0  0  0  0  0  0  0  0  0  0
   -5.9960   21.5650  -32.4580 C   0  0  0  0  0  0  0  0  0  0  0  0
   -6.5150   20.7710  -33.3470 N   0  0  0  0  0  0  0  0  0  0  0  0
   -6.3070   19.3540  -33.4520 C   0  0  0  0  0  0  0  0  0  0  0  0
   -5.7170   18.7750  -34.5900 C   0  0  0  0  0  0  0  0  0  0  0  0
   -5.4920   17.3970  -34.6420 C   0  0  0  0  0  0  0  0  0  0  0  0
   -5.8360   16.5840  -33.5560 C   0  0  0  0  0  0  0  0  0  0  0  0
   -5.5400   14.8500  -33.6210 S   0  0  0  0  0  0  0  0  0  0  0  0
   -4.9680   14.2950  -32.0860 N   0  0  0  0  0  0  0  0  0  0  0  0
   -6.8170   14.1380  -33.9670 O   0  0  0  0  0  0  0  0  0  0  0  0
   -4.5010   14.5470  -34.6650 O   0  0  0  0  0  0  0  0  0  0  0  0
   -6.3870   17.1640  -32.4050 C   0  0  0  0  0  0  0  0  0  0  0  0
   -6.6120   18.5420  -32.3510 C   0  0  0  0  0  0  0  0  0  0  0  0
   -4.8480   21.1520  -31.2900 S   0  0  0  0  0  0  0  0  0  0  0  0
   -3.1600   24.4130  -29.8140 C   0  0  0  0  0  0  0  0  0  0  0  0
   -2.3580   24.8970  -28.7750 C   0  0  0  0  0  0  0  0  0  0  0  0
   -1.5980   26.0440  -28.9740 O   0  0  0  0  0  0  0  0  0  0  0  0
   -1.7482   25.6521  -24.6775 H   0  0  0  0  0  0  0  0  0  0  0  0
   -1.1102   26.7131  -25.9790 H   0  0  0  0  0  0  0  0  0  0  0  0
   -2.8413   26.2336  -25.9790 H   0  0  0  0  0  0  0  0  0  0  0  0
   -3.0713   22.5473  -26.3967 H   0  0  0  0  0  0  0  0  0  0  0  0
   -4.4992   21.6851  -28.2453 H   0  0  0  0  0  0  0  0  0  0  0  0
   -5.4317   19.4094  -35.4422 H   0  0  0  0  0  0  0  0  0  0  0  0
   -5.0425   16.9491  -35.5405 H   0  0  0  0  0  0  0  0  0  0  0  0
   -5.3900   14.9160  -31.3600 H   0  0  0  0  0  0  0  0  0  0  0  0
   -3.9370   14.4630  -32.0650 H   0  0  0  0  0  0  0  0  0  0  0  0
   -6.6431   16.5324  -31.5416 H   0  0  0  0  0  0  0  0  0  0  0  0
   -7.0310   18.9922  -31.4390 H   0  0  0  0  0  0  0  0  0  0  0  0
   -3.1828   24.9434  -30.7774 H   0  0  0  0  0  0  0  0  0  0  0  0
  1  2  1  0
  2  3  1  0
  3  4  2  0
  4  5  1  0
  5  6  2  0
  6  7  1  0
  7  8  2  0
  8  9  1  0
  9 10  1  0
 10 11  2  3
 11 12  1  0
 12 13  2  0
 13 14  1  0
 14 15  2  0
 15 16  1  0
 16 17  1  0
 16 18  2  0
 16 19  2  0
 15 20  1  0
 20 21  2  0
 10 22  1  0
  6 23  1  0
 23 24  2  0
 24 25  1  0
 24  3  1  0
 22  7  1  0
 21 12  1  0
  1 26  1  0
  1 27  1  0
  1 28  1  0
  4 29  1  0
  5 30  1  0
 13 31  1  0
 14 32  1  0
 17 33  1  0
 17 34  1  0
 20 35  1  0
 21 36  1  0
 23 37  1  0
M  CHG  2   9  -1  25  -1
M  END
>  <UniqueID>  (14) 
12

>  <SMILES>  (14) 
COc1ccc(-c2n[n-]c(=Nc3ccc(S(N)(=O)=O)cc3)s2)cc1[O-]

>  <Energy>  (14) 
80.5568532480184

>  <Genealogy>  (14) 
COc1ccc(-c2n[n-]c(=Nc3ccc(S(N)(=O)=O)cc3)s2)cc1[O-] (protonated)
COc1ccc(-c2n[n-]c(=Nc3ccc(S(N)(=O)=O)cc3)s2)cc1[O-] (3D coordinates assigned)
COc1ccc(-c2n[n-]c(=Nc3ccc(S(N)(=O)=O)cc3)s2)cc1[O-] (optimized conformer: 80.5568532480184 kcal/mol)

>  <smiles>  (14) 
COc1ccc(-c2n[nH]c(=Nc3ccc(S(N)(=O)=O)cc3)s2)cc1O

>  <score_type>  (14) 
oracle

>  <origin>  (14) 
adgpu

>  <m_score__min__energy>  (14) 
-10.130000000000001

>  <m_primary>  (14) 
energy

$$$$
14:0
     RDKit          3D

 52 54  0  0  0  0  0  0  0  0999 V2000
   -1.9250   20.4580  -27.4110 C   0  0  0  0  0  0  0  0  0  0  0  0
   -1.7720   21.9500  -27.4060 C   0  0  0  0  0  0  0  0  0  0  0  0
   -1.1740   22.5940  -26.3130 C   0  0  0  0  0  0  0  0  0  0  0  0
   -1.0710   23.9930  -26.2820 C   0  0  0  0  0  0  0  0  0  0  0  0
   -0.4730   24.6790  -25.0900 C   0  0  0  0  0  0  0  0  0  0  0  0
   -1.6020   24.7490  -27.3380 C   0  0  0  0  0  0  0  0  0  0  0  0
   -2.1940   24.1170  -28.4380 C   0  0  0  0  0  0  0  0  0  0  0  0
   -2.7430   24.9260  -29.4880 N   0  0  0  0  0  0  0  0  0  0  0  0
   -3.7680   24.5230  -30.4040 C   0  0  0  0  0  0  0  0  0  0  0  0
   -4.5420   25.3960  -30.8760 O   0  0  0  0  0  0  0  0  0  0  0  0
   -3.8530   23.1660  -30.8580 N   0  0  0  0  0  0  0  0  0  0  0  0
   -5.0260   22.6210  -31.4770 C   0  0  0  0  0  0  0  0  0  0  0  0
   -6.3470   22.7790  -31.0840 C   0  0  0  0  0  0  0  0  0  0  0  0
   -6.8680   23.6110  -29.9570 C   0  0  0  0  0  0  0  0  0  0  0  0
   -7.1320   22.0090  -31.8630 N   0  0  0  0  0  0  0  0  0  0  0  0
   -6.3520   21.3470  -32.7080 N   0  0  0  0  0  0  0  0  0  0  0  0
   -6.8670   20.4270  -33.7230 C   0  0  0  0  0  0  0  0  0  0  0  0
   -6.3550   19.0250  -33.4790 C   0  0  0  0  0  0  0  0  0  0  0  0
   -5.3260   18.5260  -34.2980 C   0  0  0  0  0  0  0  0  0  0  0  0
   -4.8420   17.2280  -34.1190 C   0  0  0  0  0  0  0  0  0  0  0  0
   -5.3830   16.4110  -33.1280 C   0  0  0  0  0  0  0  0  0  0  0  0
   -6.4130   16.8840  -32.3140 C   0  0  0  0  0  0  0  0  0  0  0  0
   -6.9160   18.1870  -32.4810 C   0  0  0  0  0  0  0  0  0  0  0  0
   -8.0380   18.6600  -31.5940 C   0  0  0  0  0  0  0  0  0  0  0  0
   -5.0610   21.7010  -32.5060 C   0  0  0  0  0  0  0  0  0  0  0  0
   -3.8840   21.1510  -33.2550 C   0  0  0  0  0  0  0  0  0  0  0  0
   -2.3010   22.7160  -28.4570 C   0  0  0  0  0  0  0  0  0  0  0  0
   -1.9628   20.0898  -26.3751 H   0  0  0  0  0  0  0  0  0  0  0  0
   -2.8557   20.1866  -27.9308 H   0  0  0  0  0  0  0  0  0  0  0  0
   -1.0688   20.0033  -27.9308 H   0  0  0  0  0  0  0  0  0  0  0  0
   -0.7832   21.9985  -25.4747 H   0  0  0  0  0  0  0  0  0  0  0  0
   -0.8685   24.2254  -24.1692 H   0  0  0  0  0  0  0  0  0  0  0  0
    0.6211   24.5672  -25.1132 H   0  0  0  0  0  0  0  0  0  0  0  0
   -0.7330   25.7476  -25.1132 H   0  0  0  0  0  0  0  0  0  0  0  0
   -1.5527   25.8473  -27.3013 H   0  0  0  0  0  0  0  0  0  0  0  0
   -2.9900   22.5780  -30.8260 H   0  0  0  0  0  0  0  0  0  0  0  0
   -6.5808   23.1523  -28.9993 H   0  0  0  0  0  0  0  0  0  0  0  0
   -6.4421   24.6232  -30.0211 H   0  0  0  0  0  0  0  0  0  0  0  0
   -7.9646   23.6698  -30.0211 H   0  0  0  0  0  0  0  0  0  0  0  0
   -7.9663   20.4226  -33.6826 H   0  0  0  0  0  0  0  0  0  0  0  0
   -6.5241   20.7627  -34.7128 H   0  0  0  0  0  0  0  0  0  0  0  0
   -4.8988   19.1634  -35.0862 H   0  0  0  0  0  0  0  0  0  0  0  0
   -4.0327   16.8502  -34.7611 H   0  0  0  0  0  0  0  0  0  0  0  0
   -4.9971   15.3906  -32.9871 H   0  0  0  0  0  0  0  0  0  0  0  0
   -6.8353   16.2323  -31.5350 H   0  0  0  0  0  0  0  0  0  0  0  0
   -7.7484   18.5379  -30.5399 H   0  0  0  0  0  0  0  0  0  0  0  0
   -8.2435   19.7213  -31.7972 H   0  0  0  0  0  0  0  0  0  0  0  0
   -8.9413   18.0661  -31.7972 H   0  0  0  0  0  0  0  0  0  0  0  0
   -3.1269   20.7972  -32.5397 H   0  0  0  0  0  0  0  0  0  0  0  0
   -4.2111   20.3125  -33.8874 H   0  0  0  0  0  0  0  0  0  0  0  0
   -3.4506   21.9399  -33.8874 H   0  0  0  0  0  0  0  0  0  0  0  0
   -2.8018   22.2169  -29.2997 H   0  0  0  0  0  0  0  0  0  0  0  0
  1  2  1  0
  2  3  2  0
  3  4  1  0
  4  5  1  0
  4  6  2  0
  6  7  1  0
  7  8  1  0
  8  9  1  0
  9 10  2  0
  9 11  1  0
 11 12  1  0
 12 13  1  0
 13 14  1  0
 13 15  2  0
 15 16  1  0
 16 17  1  0
 17 18  1  0
 18 19  2  0
 19 20  1  0
 20 21  2  0
 21 22  1  0
 22 23  2  0
 23 24  1  0
 16 25  1  0
 25 26  1  0
  7 27  2  0
 27  2  1  0
 25 12  2  0
 23 18  1  0
  1 28  1  0
  1 29  1  0
  1 30  1  0
  3 31  1  0
  5 32  1  0
  5 33  1  0
  5 34  1  0
  6 35  1  0
 11 36  1  0
 14 37  1  0
 14 38  1  0
 14 39  1  0
 17 40  1  0
 17 41  1  0
 19 42  1  0
 20 43  1  0
 21 44  1  0
 22 45  1  0
 24 46  1  0
 24 47  1  0
 24 48  1  0
 26 49  1  0
 26 50  1  0
 26 51  1  0
 27 52  1  0
M  CHG  1   8  -1
M  END
>  <UniqueID>  (15) 
13

>  <SMILES>  (15) 
Cc1cc(C)cc([N-]C(=O)Nc2c(C)nn(Cc3ccccc3C)c2C)c1

>  <Energy>  (15) 
88.65347592854877

>  <Genealogy>  (15) 
Cc1cc(C)cc([N-]C(=O)Nc2c(C)nn(Cc3ccccc3C)c2C)c1 (protonated)
Cc1cc(C)cc([N-]C(=O)Nc2c(C)nn(Cc3ccccc3C)c2C)c1 (3D coordinates assigned)
Cc1cc(C)cc([N-]C(=O)Nc2c(C)nn(Cc3ccccc3C)c2C)c1 (optimized conformer: 88.65347592854877 kcal/mol)

>  <smiles>  (15) 
Cc1cc(C)cc(NC(=O)Nc2c(C)nn(Cc3ccccc3C)c2C)c1

>  <score_type>  (15) 
oracle

>  <origin>  (15) 
adgpu

>  <m_score__min__energy>  (15) 
-11.17

>  <m_primary>  (15) 
energy

$$$$
15:0
     RDKit          3D

 39 41  0  0  0  0  0  0  0  0999 V2000
   -4.5930   22.9190  -28.0900 O   0  0  0  0  0  0  0  0  0  0  0  0
   -3.8700   23.5280  -28.9250 C   0  0  0  0  0  0  0  0  0  0  0  0
   -4.0720   23.3260  -30.3350 N   0  0  0  0  0  0  0  0  0  0  0  0
   -4.8350   22.2390  -30.8880 C   0  0  0  0  0  0  0  0  0  0  0  0
   -4.3470   20.9200  -30.8770 C   0  0  0  0  0  0  0  0  0  0  0  0
   -5.0970   19.8850  -31.4440 C   0  0  0  0  0  0  0  0  0  0  0  0
   -6.3350   20.1560  -32.0420 C   0  0  0  0  0  0  0  0  0  0  0  0
   -7.2870   18.8610  -32.7620 S   0  0  0  0  0  0  0  0  0  0  0  0
   -8.6500   19.4010  -33.0930 O   0  0  0  0  0  0  0  0  0  0  0  0
   -7.4300   17.7260  -31.7860 O   0  0  0  0  0  0  0  0  0  0  0  0
   -6.5040   18.2940  -34.2220 N   0  0  0  0  0  0  0  0  0  0  0  0
   -5.1010   18.7240  -34.2560 C   0  0  0  0  0  0  0  0  0  0  0  0
   -4.2460   17.6040  -33.6800 C   0  0  0  0  0  0  0  0  0  0  0  0
   -5.1400   16.3780  -33.6590 C   0  0  0  0  0  0  0  0  0  0  0  0
   -6.4660   16.8290  -34.2510 C   0  0  0  0  0  0  0  0  0  0  0  0
   -6.8150   21.4710  -32.0700 C   0  0  0  0  0  0  0  0  0  0  0  0
   -6.0650   22.5060  -31.5060 C   0  0  0  0  0  0  0  0  0  0  0  0
   -2.8430   24.4800  -28.4470 C   0  0  0  0  0  0  0  0  0  0  0  0
   -2.5400   24.6010  -27.0840 C   0  0  0  0  0  0  0  0  0  0  0  0
   -1.5630   25.5080  -26.6800 C   0  0  0  0  0  0  0  0  0  0  0  0
   -0.9060   26.2730  -27.6420 C   0  0  0  0  0  0  0  0  0  0  0  0
   -0.0190   27.0980  -27.3040 O   0  0  0  0  0  0  0  0  0  0  0  0
   -1.2310   26.1210  -28.9520 N   0  0  0  0  0  0  0  0  0  0  0  0
   -2.1670   25.2530  -29.3410 N   0  0  0  0  0  0  0  0  0  0  0  0
   -3.7210   24.0570  -30.9940 H   0  0  0  0  0  0  0  0  0  0  0  0
   -3.3705   20.7015  -30.4201 H   0  0  0  0  0  0  0  0  0  0  0  0
   -4.7138   18.8542  -31.4205 H   0  0  0  0  0  0  0  0  0  0  0  0
   -4.7988   18.9269  -35.2940 H   0  0  0  0  0  0  0  0  0  0  0  0
   -4.9710   19.6431  -33.6658 H   0  0  0  0  0  0  0  0  0  0  0  0
   -3.3661   17.4268  -34.3159 H   0  0  0  0  0  0  0  0  0  0  0  0
   -3.8722   17.8525  -32.6758 H   0  0  0  0  0  0  0  0  0  0  0  0
   -4.7020   15.5728  -34.2672 H   0  0  0  0  0  0  0  0  0  0  0  0
   -5.2628   15.9811  -32.6405 H   0  0  0  0  0  0  0  0  0  0  0  0
   -6.5506   16.4745  -35.2889 H   0  0  0  0  0  0  0  0  0  0  0  0
   -7.3029   16.4149  -33.6696 H   0  0  0  0  0  0  0  0  0  0  0  0
   -7.7862   21.6900  -32.5378 H   0  0  0  0  0  0  0  0  0  0  0  0
   -6.4424   23.5384  -31.5471 H   0  0  0  0  0  0  0  0  0  0  0  0
   -3.0684   23.9859  -26.3407 H   0  0  0  0  0  0  0  0  0  0  0  0
   -1.3131   25.6191  -25.6145 H   0  0  0  0  0  0  0  0  0  0  0  0
  1  2  2  0
  2  3  1  0
  3  4  1  0
  4  5  2  0
  5  6  1  0
  6  7  2  0
  7  8  1  0
  8  9  2  0
  8 10  2  0
  8 11  1  0
 11 12  1  0
 12 13  1  0
 13 14  1  0
 14 15  1  0
  7 16  1  0
 16 17  2  0
  2 18  1  0
 18 19  1  0
 19 20  2  0
 20 21  1  0
 21 22  2  0
 21 23  1  0
 23 24  1  0
 17  4  1  0
 24 18  2  0
 15 11  1  0
  3 25  1  0
  5 26  1  0
  6 27  1  0
 12 28  1  0
 12 29  1  0
 13 30  1  0
 13 31  1  0
 14 32  1  0
 14 33  1  0
 15 34  1  0
 15 35  1  0
 16 36  1  0
 17 37  1  0
 19 38  1  0
 20 39  1  0
M  CHG  1  23  -1
M  END
>  <UniqueID>  (16) 
14

>  <SMILES>  (16) 
O=C(Nc1ccc(S(=O)(=O)N2CCCC2)cc1)c1ccc(=O)[n-]n1

>  <Energy>  (16) 
46.63552792734427

>  <Genealogy>  (16) 
O=C(Nc1ccc(S(=O)(=O)N2CCCC2)cc1)c1ccc(=O)[n-]n1 (protonated)
O=C(Nc1ccc(S(=O)(=O)N2CCCC2)cc1)c1ccc(=O)[n-]n1 (3D coordinates assigned)
O=C(Nc1ccc(S(=O)(=O)N2CCCC2)cc1)c1ccc(=O)[n-]n1 (nonaromatic ring conformer: 46.63552792734427 kcal/mol)

>  <smiles>  (16) 
O=C(Nc1ccc(S(=O)(=O)N2CCCC2)cc1)c1ccc(=O)[nH]n1

>  <score_type>  (16) 
oracle

>  <origin>  (16) 
adgpu

>  <m_score__min__energy>  (16) 
-9.4299999999999997

>  <m_primary>  (16) 
energy

$$$$
16:0
     RDKit          3D

 46 48  0  0  0  0  0  0  0  0999 V2000
   -4.5810   24.8890  -30.8370 O   0  0  0  0  0  0  0  0  0  0  0  0
   -3.5600   24.2800  -30.4140 C   0  0  0  0  0  0  0  0  0  0  0  0
   -2.6500   24.9570  -29.5400 N   0  0  0  0  0  0  0  0  0  0  0  0
   -2.6070   24.7520  -28.0960 C   0  0  0  0  0  0  0  0  0  0  0  0
   -1.2970   24.1340  -27.7030 C   0  0  0  0  0  0  0  0  0  0  0  0
   -1.2510   23.0120  -26.8620 C   0  0  0  0  0  0  0  0  0  0  0  0
   -0.0150   22.4500  -26.5380 C   0  0  0  0  0  0  0  0  0  0  0  0
    1.1580   23.0050  -27.0540 C   0  0  0  0  0  0  0  0  0  0  0  0
    1.0740   24.1170  -27.8950 C   0  0  0  0  0  0  0  0  0  0  0  0
   -0.1390   24.6510  -28.2000 N   0  0  0  0  0  0  0  0  0  0  0  0
   -3.3050   22.8780  -30.8410 C   0  0  0  0  0  0  0  0  0  0  0  0
   -4.3830   22.0850  -31.2790 C   0  0  0  0  0  0  0  0  0  0  0  0
   -4.1830   20.7650  -31.7050 C   0  0  0  0  0  0  0  0  0  0  0  0
   -5.5430   19.8010  -32.2880 S   0  0  0  0  0  0  0  0  0  0  0  0
   -5.9250   18.7960  -31.2360 O   0  0  0  0  0  0  0  0  0  0  0  0
   -5.1260   19.0480  -33.5200 O   0  0  0  0  0  0  0  0  0  0  0  0
   -6.9280   20.8040  -32.6580 N   0  0  0  0  0  0  0  0  0  0  0  0
   -7.2210   21.7120  -31.5270 C   0  0  0  0  0  0  0  0  0  0  0  0
   -8.6370   22.2880  -31.6230 C   0  0  0  0  0  0  0  0  0  0  0  0
   -9.6940   21.1710  -31.5520 C   0  0  0  0  0  0  0  0  0  0  0  0
   -9.1580   19.8120  -32.0370 C   0  0  0  0  0  0  0  0  0  0  0  0
   -8.0830   19.9940  -33.1190 C   0  0  0  0  0  0  0  0  0  0  0  0
   -2.8960   20.2190  -31.6750 C   0  0  0  0  0  0  0  0  0  0  0  0
   -1.8180   20.9860  -31.2360 C   0  0  0  0  0  0  0  0  0  0  0  0
   -2.0090   22.3100  -30.8180 C   0  0  0  0  0  0  0  0  0  0  0  0
   -0.9120   23.0470  -30.3710 O   0  0  0  0  0  0  0  0  0  0  0  0
   -2.7197   25.7207  -27.5872 H   0  0  0  0  0  0  0  0  0  0  0  0
   -3.4258   24.0785  -27.8028 H   0  0  0  0  0  0  0  0  0  0  0  0
   -2.1798   22.5794  -26.4618 H   0  0  0  0  0  0  0  0  0  0  0  0
    0.0349   21.5717  -25.8776 H   0  0  0  0  0  0  0  0  0  0  0  0
    2.1368   22.5714  -26.8010 H   0  0  0  0  0  0  0  0  0  0  0  0
    1.9901   24.5614  -28.3112 H   0  0  0  0  0  0  0  0  0  0  0  0
   -5.3982   22.5084  -31.2869 H   0  0  0  0  0  0  0  0  0  0  0  0
   -7.1258   21.1521  -30.5850 H   0  0  0  0  0  0  0  0  0  0  0  0
   -6.5055   22.5468  -31.5598 H   0  0  0  0  0  0  0  0  0  0  0  0
   -8.7975   22.9883  -30.7901 H   0  0  0  0  0  0  0  0  0  0  0  0
   -8.7395   22.8061  -32.5879 H   0  0  0  0  0  0  0  0  0  0  0  0
  -10.0252   21.0661  -30.5083 H   0  0  0  0  0  0  0  0  0  0  0  0
  -10.5232   21.4565  -32.2161 H   0  0  0  0  0  0  0  0  0  0  0  0
   -8.7206   19.2733  -31.1835 H   0  0  0  0  0  0  0  0  0  0  0  0
   -9.9937   19.2413  -32.4682 H   0  0  0  0  0  0  0  0  0  0  0  0
   -7.7171   19.0013  -33.4202 H   0  0  0  0  0  0  0  0  0  0  0  0
   -8.5483   20.5319  -33.9581 H   0  0  0  0  0  0  0  0  0  0  0  0
   -2.7337   19.1804  -31.9990 H   0  0  0  0  0  0  0  0  0  0  0  0
   -0.8090   20.5484  -31.2175 H   0  0  0  0  0  0  0  0  0  0  0  0
   -0.9990   24.0180  -30.0910 H   0  0  0  0  0  0  0  0  0  0  0  0
  1  2  2  0
  2  3  1  0
  3  4  1  0
  4  5  1  0
  5  6  2  0
  6  7  1  0
  7  8  2  0
  8  9  1  0
  9 10  2  0
  2 11  1  0
 11 12  2  0
 12 13  1  0
 13 14  1  0
 14 15  2  0
 14 16  2  0
 14 17  1  0
 17 18  1  0
 18 19  1  0
 19 20  1  0
 20 21  1  0
 21 22  1  0
 13 23  2  0
 23 24  1  0
 24 25  2  0
 25 26  1  0
 10  5  1  0
 25 11  1  0
 22 17  1  0
  4 27  1  0
  4 28  1  0
  6 29  1  0
  7 30  1  0
  8 31  1  0
  9 32  1  0
 12 33  1  0
 18 34  1  0
 18 35  1  0
 19 36  1  0
 19 37  1  0
 20 38  1  0
 20 39  1  0
 21 40  1  0
 21 41  1  0
 22 42  1  0
 22 43  1  0
 23 44  1  0
 24 45  1  0
 26 46  1  0
M  CHG  1   3  -1
M  END
>  <UniqueID>  (17) 
15

>  <SMILES>  (17) 
O=C([N-]Cc1ccccn1)c1cc(S(=O)(=O)N2CCCCC2)ccc1O

>  <Energy>  (17) 
52.24217192676445

>  <Genealogy>  (17) 
O=C([N-]Cc1ccccn1)c1cc(S(=O)(=O)N2CCCCC2)ccc1O (protonated)
O=C([N-]Cc1ccccn1)c1cc(S(=O)(=O)N2CCCCC2)ccc1O (3D coordinates assigned)
O=C([N-]Cc1ccccn1)c1cc(S(=O)(=O)N2CCCCC2)ccc1O (nonaromatic ring conformer: 52.24217192676445 kcal/mol)

>  <smiles>  (17) 
O=C(NCc1ccccn1)c1cc(S(=O)(=O)N2CCCCC2)ccc1O

>  <score_type>  (17) 
oracle

>  <origin>  (17) 
adgpu

>  <m_score__min__energy>  (17) 
-10.82

>  <m_primary>  (17) 
energy

$$$$
17:0
     RDKit          3D

 45 47  0  0  0  0  0  0  0  0999 V2000
    0.5880   20.0600  -28.8990 C   0  0  0  0  0  0  0  0  0  0  0  0
   -0.1220   19.9590  -30.2170 C   0  0  0  0  0  0  0  0  0  0  0  0
   -0.6650   21.1020  -30.8140 C   0  0  0  0  0  0  0  0  0  0  0  0
   -1.3570   21.0020  -32.0210 C   0  0  0  0  0  0  0  0  0  0  0  0
   -1.5170   19.7640  -32.6570 C   0  0  0  0  0  0  0  0  0  0  0  0
   -2.4450   19.7480  -34.2100 S   0  0  0  0  0  0  0  0  0  0  0  0
   -3.8750   18.8260  -33.5980 C   0  0  0  0  0  0  0  0  0  0  0  0
   -4.3520   17.6260  -34.1050 C   0  0  0  0  0  0  0  0  0  0  0  0
   -3.8560   16.8730  -35.2280 C   0  0  0  0  0  0  0  0  0  0  0  0
   -3.4680   16.2620  -36.1300 N   0  0  0  0  0  0  0  0  0  0  0  0
   -5.5000   17.3620  -33.3880 C   0  0  0  0  0  0  0  0  0  0  0  0
   -6.4520   16.2250  -33.6070 C   0  0  0  0  0  0  0  0  0  0  0  0
   -5.8440   15.0300  -33.2680 F   0  0  0  0  0  0  0  0  0  0  0  0
   -7.5780   16.3920  -32.8240 F   0  0  0  0  0  0  0  0  0  0  0  0
   -6.8250   16.1880  -34.9370 F   0  0  0  0  0  0  0  0  0  0  0  0
   -5.7360   18.3790  -32.5400 N   0  0  0  0  0  0  0  0  0  0  0  0
   -4.7540   19.2630  -32.6560 N   0  0  0  0  0  0  0  0  0  0  0  0
   -4.8380   20.5680  -32.0430 C   0  0  0  0  0  0  0  0  0  0  0  0
   -4.2180   20.8610  -30.8160 C   0  0  0  0  0  0  0  0  0  0  0  0
   -4.3270   22.1330  -30.2450 C   0  0  0  0  0  0  0  0  0  0  0  0
   -5.0620   23.1350  -30.8890 C   0  0  0  0  0  0  0  0  0  0  0  0
   -5.2030   24.7430  -30.1870 S   0  0  0  0  0  0  0  0  0  0  0  0
   -4.9120   24.6580  -28.4840 N   0  0  0  0  0  0  0  0  0  0  0  0
   -6.5860   25.2780  -30.4400 O   0  0  0  0  0  0  0  0  0  0  0  0
   -4.2020   25.6730  -30.8130 O   0  0  0  0  0  0  0  0  0  0  0  0
   -5.6930   22.8510  -32.1050 C   0  0  0  0  0  0  0  0  0  0  0  0
   -5.5870   21.5800  -32.6730 C   0  0  0  0  0  0  0  0  0  0  0  0
   -1.0050   18.5970  -32.0410 C   0  0  0  0  0  0  0  0  0  0  0  0
   -1.2020   17.2360  -32.6430 C   0  0  0  0  0  0  0  0  0  0  0  0
   -0.3120   18.7090  -30.8220 C   0  0  0  0  0  0  0  0  0  0  0  0
   -0.1404   19.9564  -28.0813 H   0  0  0  0  0  0  0  0  0  0  0  0
    1.3389   19.2596  -28.8248 H   0  0  0  0  0  0  0  0  0  0  0  0
    1.0860   21.0380  -28.8248 H   0  0  0  0  0  0  0  0  0  0  0  0
   -0.5458   22.0826  -30.3300 H   0  0  0  0  0  0  0  0  0  0  0  0
   -1.7826   21.9069  -32.4794 H   0  0  0  0  0  0  0  0  0  0  0  0
   -3.6403   20.0807  -30.2989 H   0  0  0  0  0  0  0  0  0  0  0  0
   -3.8330   22.3469  -29.2857 H   0  0  0  0  0  0  0  0  0  0  0  0
   -5.7390   24.1880  -28.0530 H   0  0  0  0  0  0  0  0  0  0  0  0
   -4.9020   25.6400  -28.1260 H   0  0  0  0  0  0  0  0  0  0  0  0
   -6.2750   23.6323  -32.6157 H   0  0  0  0  0  0  0  0  0  0  0  0
   -6.0952   21.3666  -33.6249 H   0  0  0  0  0  0  0  0  0  0  0  0
   -1.3097   16.4920  -31.8400 H   0  0  0  0  0  0  0  0  0  0  0  0
   -2.1092   17.2380  -33.2651 H   0  0  0  0  0  0  0  0  0  0  0  0
   -0.3314   16.9807  -33.2651 H   0  0  0  0  0  0  0  0  0  0  0  0
    0.0855   17.8048  -30.3378 H   0  0  0  0  0  0  0  0  0  0  0  0
  1  2  1  0
  2  3  2  0
  3  4  1  0
  4  5  2  0
  5  6  1  0
  6  7  1  0
  7  8  2  0
  8  9  1  0
  9 10  3  0
  8 11  1  0
 11 12  1  0
 12 13  1  0
 12 14  1  0
 12 15  1  0
 11 16  2  0
 16 17  1  0
 17 18  1  0
 18 19  2  0
 19 20  1  0
 20 21  2  0
 21 22  1  0
 22 23  1  0
 22 24  2  0
 22 25  2  0
 21 26  1  0
 26 27  2  0
  5 28  1  0
 28 29  1  0
 28 30  2  0
 30  2  1  0
 17  7  1  0
 27 18  1  0
  1 31  1  0
  1 32  1  0
  1 33  1  0
  3 34  1  0
  4 35  1  0
 19 36  1  0
 20 37  1  0
 23 38  1  0
 23 39  1  0
 26 40  1  0
 27 41  1  0
 29 42  1  0
 29 43  1  0
 29 44  1  0
 30 45  1  0
M  END
>  <UniqueID>  (18) 
16

>  <SMILES>  (18) 
Cc1ccc(Sc2c(C#N)c(C(F)(F)F)nn2-c2ccc(S(N)(=O)=O)cc2)c(C)c1

>  <Energy>  (18) 
83.53013941654565

>  <Genealogy>  (18) 
Cc1ccc(Sc2c(C#N)c(C(F)(F)F)nn2-c2ccc(S(N)(=O)=O)cc2)c(C)c1 (3D coordinates assigned)
Cc1ccc(Sc2c(C#N)c(C(F)(F)F)nn2-c2ccc(S(N)(=O)=O)cc2)c(C)c1 (optimized conformer: 83.53013941654565 kcal/mol)

>  <smiles>  (18) 
Cc1ccc(Sc2c(C#N)c(C(F)(F)F)nn2-c2ccc(S(N)(=O)=O)cc2)c(C)c1

>  <score_type>  (18) 
oracle

>  <origin>  (18) 
adgpu

>  <m_score__min__energy>  (18) 
-8.1999999999999993

>  <m_primary>  (18) 
energy

$$$$
18:0
     RDKit          3D

 53 56  0  0  0  0  0  0  0  0999 V2000
    3.5650   21.8360  -37.6010 H   0  0  0  0  0  0  0  0  0  0  0  0
    4.0530   21.1190  -38.1820 N   0  0  0  0  0  0  0  0  0  0  0  0
    3.3870   19.5840  -37.7520 S   0  0  0  0  0  0  0  0  0  0  0  0
    4.4930   18.5700  -37.6530 O   0  0  0  0  0  0  0  0  0  0  0  0
    2.4200   19.1400  -38.8140 O   0  0  0  0  0  0  0  0  0  0  0  0
    2.5560   19.7150  -36.2060 C   0  0  0  0  0  0  0  0  0  0  0  0
    1.2150   19.3260  -36.0930 C   0  0  0  0  0  0  0  0  0  0  0  0
    0.6842   18.9277  -36.9703 H   0  0  0  0  0  0  0  0  0  0  0  0
    0.5490   19.4420  -34.8700 C   0  0  0  0  0  0  0  0  0  0  0  0
   -0.5075   19.1459  -34.7916 H   0  0  0  0  0  0  0  0  0  0  0  0
    1.2240   19.9360  -33.7380 C   0  0  0  0  0  0  0  0  0  0  0  0
    0.5640   20.1110  -32.4730 N   0  0  0  0  0  0  0  0  0  0  0  0
   -0.7140   20.2690  -32.2620 C   0  0  0  0  0  0  0  0  0  0  0  0
   -1.5910   20.1740  -33.2910 N   0  0  0  0  0  0  0  0  0  0  0  0
   -2.9190   20.3170  -33.0970 C   0  0  0  0  0  0  0  0  0  0  0  0
   -3.6910   20.2230  -34.0900 O   0  0  0  0  0  0  0  0  0  0  0  0
   -3.4080   20.5610  -31.8440 N   0  0  0  0  0  0  0  0  0  0  0  0
   -4.8630   20.6930  -31.6180 C   0  0  0  0  0  0  0  0  0  0  0  0
   -5.3946   20.5073  -32.5629 H   0  0  0  0  0  0  0  0  0  0  0  0
   -5.1735   19.9603  -30.8586 H   0  0  0  0  0  0  0  0  0  0  0  0
   -5.1960   22.0780  -31.1250 C   0  0  0  0  0  0  0  0  0  0  0  0
   -6.5210   22.4240  -30.8110 C   0  0  0  0  0  0  0  0  0  0  0  0
   -7.3188   21.6721  -30.9020 H   0  0  0  0  0  0  0  0  0  0  0  0
   -6.8310   23.7170  -30.3840 C   0  0  0  0  0  0  0  0  0  0  0  0
   -7.8706   23.9782  -30.1372 H   0  0  0  0  0  0  0  0  0  0  0  0
   -5.8230   24.6820  -30.2690 C   0  0  0  0  0  0  0  0  0  0  0  0
   -6.1260   25.9750  -29.8440 O   0  0  0  0  0  0  0  0  0  0  0  0
   -5.4130   26.5890  -29.4660 H   0  0  0  0  0  0  0  0  0  0  0  0
   -4.5000   24.3460  -30.5840 C   0  0  0  0  0  0  0  0  0  0  0  0
   -3.4920   25.2970  -30.4730 O   0  0  0  0  0  0  0  0  0  0  0  0
   -4.1890   23.0510  -31.0120 C   0  0  0  0  0  0  0  0  0  0  0  0
   -3.1493   22.7929  -31.2617 H   0  0  0  0  0  0  0  0  0  0  0  0
   -2.5310   20.6430  -30.7920 C   0  0  0  0  0  0  0  0  0  0  0  0
   -2.9720   20.8640  -29.6290 O   0  0  0  0  0  0  0  0  0  0  0  0
   -1.1810   20.4900  -30.9920 N   0  0  0  0  0  0  0  0  0  0  0  0
   -0.2360   20.6070  -29.8590 C   0  0  0  0  0  0  0  0  0  0  0  0
   -0.3408   19.7268  -29.2076 H   0  0  0  0  0  0  0  0  0  0  0  0
    0.7888   20.6655  -30.2544 H   0  0  0  0  0  0  0  0  0  0  0  0
   -0.5230   21.8530  -29.0600 C   0  0  0  0  0  0  0  0  0  0  0  0
   -0.7420   23.0810  -29.7070 C   0  0  0  0  0  0  0  0  0  0  0  0
   -0.6803   23.1409  -30.8036 H   0  0  0  0  0  0  0  0  0  0  0  0
   -1.0380   24.2270  -28.9630 C   0  0  0  0  0  0  0  0  0  0  0  0
   -1.2075   25.1855  -29.4753 H   0  0  0  0  0  0  0  0  0  0  0  0
   -1.1190   24.1570  -27.5690 C   0  0  0  0  0  0  0  0  0  0  0  0
   -1.4930   25.5960  -26.6370 Cl  0  0  0  0  0  0  0  0  0  0  0  0
   -0.9030   22.9370  -26.9180 C   0  0  0  0  0  0  0  0  0  0  0  0
   -0.9664   22.8810  -25.8213 H   0  0  0  0  0  0  0  0  0  0  0  0
   -0.6070   21.7900  -27.6590 C   0  0  0  0  0  0  0  0  0  0  0  0
   -0.4389   20.8332  -27.1430 H   0  0  0  0  0  0  0  0  0  0  0  0
    2.5520   20.3610  -33.8670 C   0  0  0  0  0  0  0  0  0  0  0  0
    3.0746   20.7907  -32.9997 H   0  0  0  0  0  0  0  0  0  0  0  0
    3.2180   20.2430  -35.0900 C   0  0  0  0  0  0  0  0  0  0  0  0
    4.2660   20.5659  -35.1766 H   0  0  0  0  0  0  0  0  0  0  0  0
  1  2  1  0
  2  3  1  0
  3  4  2  0
  3  5  2  0
  3  6  1  0
  6  7  2  0
  7  8  1  0
  7  9  1  0
  9 10  1  0
  9 11  2  0
 11 12  1  0
 12 13  2  0
 13 14  1  0
 14 15  1  0
 15 16  2  0
 15 17  1  0
 17 18  1  0
 18 19  1  0
 18 20  1  0
 18 21  1  0
 21 22  2  0
 22 23  1  0
 22 24  1  0
 24 25  1  0
 24 26  2  0
 26 27  1  0
 27 28  1  0
 26 29  1  0
 29 30  1  0
 29 31  2  0
 31 32  1  0
 17 33  1  0
 33 34  2  0
 33 35  1  0
 35 36  1  0
 36 37  1  0
 36 38  1  0
 36 39  1  0
 39 40  2  0
 40 41  1  0
 40 42  1  0
 42 43  1  0
 42 44  2  0
 44 45  1  0
 44 46  1  0
 46 47  1  0
 46 48  2  0
 48 49  1  0
 11 50  1  0
 50 51  1  0
 50 52  2  0
 52 53  1  0
 52  6  1  0
 35 13  1  0
 48 39  1  0
 31 21  1  0
M  CHG  3   2  -1  14  -1  30  -1
M  END
>  <UniqueID>  (19) 
17

>  <SMILES>  (19) 
[NH-]S(=O)(=O)c1ccc(/N=c2\[n-]c(=O)n(Cc3ccc(O)c([O-])c3)c(=O)n2Cc2ccc(Cl)cc2)cc1

>  <Energy>  (19) 
69.82745465790084

>  <Genealogy>  (19) 
[NH-]S(=O)(=O)c1ccc(N=c2[n-]c(=O)n(Cc3ccc(O)c([O-])c3)c(=O)n2Cc2ccc(Cl)cc2)cc1 (protonated)
[NH-]S(=O)(=O)c1ccc(/N=c2\[n-]c(=O)n(Cc3ccc(O)c([O-])c3)c(=O)n2Cc2ccc(Cl)cc2)cc1 (cis-trans isomerization)
[NH-]S(=O)(=O)c1ccc(/N=c2\[n-]c(=O)n(Cc3ccc(O)c([O-])c3)c(=O)n2Cc2ccc(Cl)cc2)cc1 (3D coordinates assigned)
[NH-]S(=O)(=O)c1ccc(/N=c2\[n-]c(=O)n(Cc3ccc(O)c([O-])c3)c(=O)n2Cc2ccc(Cl)cc2)cc1 (optimized conformer: 69.82745465790084 kcal/mol)

>  <smiles>  (19) 
NS(=O)(=O)c1ccc(N=c2[nH]c(=O)n(Cc3ccc(O)c(O)c3)c(=O)n2Cc2ccc(Cl)cc2)cc1

>  <score_type>  (19) 
oracle

>  <origin>  (19) 
adgpu

>  <m_score__min__energy>  (19) 
-12.369999999999999

>  <m_primary>  (19) 
energy

$$$$
19:0
     RDKit          3D

 61 64  0  0  0  0  0  0  0  0999 V2000
   -2.1520   25.2930  -27.7980 C   0  0  0  0  0  0  0  0  0  0  0  0
   -2.3690   25.2190  -29.2040 O   0  0  0  0  0  0  0  0  0  0  0  0
   -3.3060   24.3750  -29.8230 C   0  0  0  0  0  0  0  0  0  0  0  0
   -4.5580   24.8490  -30.2540 C   0  0  0  0  0  0  0  0  0  0  0  0
   -5.4580   23.9940  -30.8930 C   0  0  0  0  0  0  0  0  0  0  0  0
   -5.1350   22.6470  -31.1050 C   0  0  0  0  0  0  0  0  0  0  0  0
   -6.0880   21.7770  -31.8270 C   0  0  0  0  0  0  0  0  0  0  0  0
   -5.7950   21.1670  -32.9540 O   0  0  0  0  0  0  0  0  0  0  0  0
   -6.7920   20.4520  -33.3880 N   0  0  0  0  0  0  0  0  0  0  0  0
   -7.7950   20.5970  -32.5010 C   0  0  0  0  0  0  0  0  0  0  0  0
   -9.1410   19.9670  -32.6590 C   0  0  0  0  0  0  0  0  0  0  0  0
   -7.3990   21.4580  -31.4950 C   0  0  0  0  0  0  0  0  0  0  0  0
   -8.2260   21.9400  -30.3420 C   0  0  0  0  0  0  0  0  0  0  0  0
   -3.8820   22.1730  -30.6840 C   0  0  0  0  0  0  0  0  0  0  0  0
   -2.9750   23.0230  -30.0320 C   0  0  0  0  0  0  0  0  0  0  0  0
   -1.3940   22.3940  -29.5630 S   0  0  0  0  0  0  0  0  0  0  0  0
   -0.4080   22.6360  -30.6710 O   0  0  0  0  0  0  0  0  0  0  0  0
   -0.8990   23.1040  -28.3330 O   0  0  0  0  0  0  0  0  0  0  0  0
   -1.4780   20.6940  -29.2390 N   0  0  0  0  0  0  0  0  0  0  0  0
   -1.2660   19.7220  -30.2630 C   0  0  0  0  0  0  0  0  0  0  0  0
   -0.3100   18.7080  -30.1070 C   0  0  0  0  0  0  0  0  0  0  0  0
   -0.0940   17.7840  -31.1330 C   0  0  0  0  0  0  0  0  0  0  0  0
   -0.8360   17.8620  -32.3140 C   0  0  0  0  0  0  0  0  0  0  0  0
   -1.8120   18.8550  -32.4670 C   0  0  0  0  0  0  0  0  0  0  0  0
   -2.7040   18.9870  -33.9820 S   0  0  0  0  0  0  0  0  0  0  0  0
   -2.3750   20.3060  -34.6240 O   0  0  0  0  0  0  0  0  0  0  0  0
   -2.2880   17.8830  -34.9140 O   0  0  0  0  0  0  0  0  0  0  0  0
   -4.4220   18.8930  -33.6690 N   0  0  0  0  0  0  0  0  0  0  0  0
   -4.6550   18.2710  -32.3420 C   0  0  0  0  0  0  0  0  0  0  0  0
   -6.0770   17.7140  -32.2180 C   0  0  0  0  0  0  0  0  0  0  0  0
   -6.3260   16.6030  -33.2520 C   0  0  0  0  0  0  0  0  0  0  0  0
   -5.4410   16.7460  -34.5040 C   0  0  0  0  0  0  0  0  0  0  0  0
   -5.1270   18.2200  -34.7940 C   0  0  0  0  0  0  0  0  0  0  0  0
   -2.0300   19.7800  -31.4340 C   0  0  0  0  0  0  0  0  0  0  0  0
   -3.0649   24.9817  -27.2692 H   0  0  0  0  0  0  0  0  0  0  0  0
   -1.3219   24.6272  -27.5196 H   0  0  0  0  0  0  0  0  0  0  0  0
   -1.9016   26.3273  -27.5196 H   0  0  0  0  0  0  0  0  0  0  0  0
   -4.8303   25.9015  -30.0864 H   0  0  0  0  0  0  0  0  0  0  0  0
   -6.4297   24.3814  -31.2332 H   0  0  0  0  0  0  0  0  0  0  0  0
   -9.5705   19.7660  -31.6665 H   0  0  0  0  0  0  0  0  0  0  0  0
   -9.8023   20.6491  -33.2134 H   0  0  0  0  0  0  0  0  0  0  0  0
   -9.0408   19.0222  -33.2134 H   0  0  0  0  0  0  0  0  0  0  0  0
   -7.7389   21.6561  -29.3974 H   0  0  0  0  0  0  0  0  0  0  0  0
   -8.3208   23.0348  -30.3911 H   0  0  0  0  0  0  0  0  0  0  0  0
   -9.2253   21.4829  -30.3911 H   0  0  0  0  0  0  0  0  0  0  0  0
   -3.6081   21.1235  -30.8673 H   0  0  0  0  0  0  0  0  0  0  0  0
    0.2709   18.6398  -29.1754 H   0  0  0  0  0  0  0  0  0  0  0  0
    0.6615   16.9940  -31.0104 H   0  0  0  0  0  0  0  0  0  0  0  0
   -0.6535   17.1421  -33.1255 H   0  0  0  0  0  0  0  0  0  0  0  0
   -4.7660   19.8820  -33.6240 H   0  0  0  0  0  0  0  0  0  0  0  0
   -3.9371   17.4493  -32.2026 H   0  0  0  0  0  0  0  0  0  0  0  0
   -4.5223   19.0458  -31.5725 H   0  0  0  0  0  0  0  0  0  0  0  0
   -6.2152   17.3023  -31.2073 H   0  0  0  0  0  0  0  0  0  0  0  0
   -6.7905   18.5306  -32.4024 H   0  0  0  0  0  0  0  0  0  0  0  0
   -6.1156   15.6311  -32.7816 H   0  0  0  0  0  0  0  0  0  0  0  0
   -7.3743   16.6801  -33.5761 H   0  0  0  0  0  0  0  0  0  0  0  0
   -4.4982   16.2032  -34.3413 H   0  0  0  0  0  0  0  0  0  0  0  0
   -5.9840   16.3288  -35.3649 H   0  0  0  0  0  0  0  0  0  0  0  0
   -4.4907   18.2739  -35.6897 H   0  0  0  0  0  0  0  0  0  0  0  0
   -6.0854   18.7394  -34.9416 H   0  0  0  0  0  0  0  0  0  0  0  0
   -2.8043   20.5534  -31.5454 H   0  0  0  0  0  0  0  0  0  0  0  0
  1  2  1  0
  2  3  1  0
  3  4  2  0
  4  5  1  0
  5  6  2  0
  6  7  1  0
  7  8  1  0
  8  9  1  0
  9 10  2  0
 10 11  1  0
 10 12  1  0
 12 13  1  0
  6 14  1  0
 14 15  2  0
 15 16  1  0
 16 17  2  0
 16 18  2  0
 16 19  1  0
 19 20  1  0
 20 21  2  0
 21 22  1  0
 22 23  2  0
 23 24  1  0
 24 25  1  0
 25 26  2  0
 25 27  2  0
 25 28  1  0
 28 29  1  0
 29 30  1  0
 30 31  1  0
 31 32  1  0
 32 33  1  0
 24 34  2  0
 15  3  1  0
 34 20  1  0
 12  7  2  0
 33 28  1  0
  1 35  1  0
  1 36  1  0
  1 37  1  0
  4 38  1  0
  5 39  1  0
 11 40  1  0
 11 41  1  0
 11 42  1  0
 13 43  1  0
 13 44  1  0
 13 45  1  0
 14 46  1  0
 21 47  1  0
 22 48  1  0
 23 49  1  0
 28 50  1  0
 29 51  1  0
 29 52  1  0
 30 53  1  0
 30 54  1  0
 31 55  1  0
 31 56  1  0
 32 57  1  0
 32 58  1  0
 33 59  1  0
 33 60  1  0
 34 61  1  0
M  CHG  2  19  -1  28   1
M  END
>  <UniqueID>  (20) 
18

>  <SMILES>  (20) 
COc1ccc(-c2onc(C)c2C)cc1S(=O)(=O)[N-]c1cccc(S(=O)(=O)[NH+]2CCCCC2)c1

>  <Energy>  (20) 
109.02936031369836

>  <Genealogy>  (20) 
COc1ccc(-c2onc(C)c2C)cc1S(=O)(=O)[N-]c1cccc(S(=O)(=O)[NH+]2CCCCC2)c1 (protonated)
COc1ccc(-c2onc(C)c2C)cc1S(=O)(=O)[N-]c1cccc(S(=O)(=O)[NH+]2CCCCC2)c1 (3D coordinates assigned)
COc1ccc(-c2onc(C)c2C)cc1S(=O)(=O)[N-]c1cccc(S(=O)(=O)[NH+]2CCCCC2)c1 (nonaromatic ring conformer: 109.02936031369836 kcal/mol)

>  <smiles>  (20) 
COc1ccc(-c2onc(C)c2C)cc1S(=O)(=O)Nc1cccc(S(=O)(=O)N2CCCCC2)c1

>  <score_type>  (20) 
oracle

>  <origin>  (20) 
adgpu

>  <m_score__min__energy>  (20) 
-11.5

>  <m_primary>  (20) 
energy

$$$$
20:0
     RDKit          3D

 56 59  0  0  0  0  0  0  0  0999 V2000
   -2.1890   25.6550  -28.6720 O   0  0  0  0  0  0  0  0  0  0  0  0
   -2.6550   24.7640  -29.4330 C   0  0  0  0  0  0  0  0  0  0  0  0
   -3.7340   25.1100  -30.3110 N   0  0  0  0  0  0  0  0  0  0  0  0
   -4.9110   24.3250  -30.5540 C   0  0  0  0  0  0  0  0  0  0  0  0
   -5.6390   23.7410  -29.5020 C   0  0  0  0  0  0  0  0  0  0  0  0
   -6.7890   22.9920  -29.7740 C   0  0  0  0  0  0  0  0  0  0  0  0
   -7.2330   22.8310  -31.0940 C   0  0  0  0  0  0  0  0  0  0  0  0
   -8.7050   21.9190  -31.4380 S   0  0  0  0  0  0  0  0  0  0  0  0
   -9.6330   22.7650  -32.2600 O   0  0  0  0  0  0  0  0  0  0  0  0
   -9.3970   21.5910  -30.1430 O   0  0  0  0  0  0  0  0  0  0  0  0
   -8.3600   20.4420  -32.3070 N   0  0  0  0  0  0  0  0  0  0  0  0
   -8.7230   19.2640  -31.4960 C   0  0  0  0  0  0  0  0  0  0  0  0
   -7.9770   18.0150  -31.9920 C   0  0  0  0  0  0  0  0  0  0  0  0
   -6.5600   18.1220  -31.9250 O   0  0  0  0  0  0  0  0  0  0  0  0
   -6.0850   19.4610  -31.9490 C   0  0  0  0  0  0  0  0  0  0  0  0
   -6.9610   20.4070  -32.7900 C   0  0  0  0  0  0  0  0  0  0  0  0
   -6.5050   23.4170  -32.1410 C   0  0  0  0  0  0  0  0  0  0  0  0
   -5.3600   24.1690  -31.8700 C   0  0  0  0  0  0  0  0  0  0  0  0
   -2.0350   23.4140  -29.4490 C   0  0  0  0  0  0  0  0  0  0  0  0
   -2.8270   22.2860  -29.7210 C   0  0  0  0  0  0  0  0  0  0  0  0
   -2.2740   21.0050  -29.6990 C   0  0  0  0  0  0  0  0  0  0  0  0
   -0.9110   20.8250  -29.4220 C   0  0  0  0  0  0  0  0  0  0  0  0
   -0.3190   19.5220  -29.3480 N   0  0  0  0  0  0  0  0  0  0  0  0
    0.4210   18.7090  -30.6900 S   0  0  0  0  0  0  0  0  0  0  0  0
   -0.0840   17.2960  -30.7520 O   0  0  0  0  0  0  0  0  0  0  0  0
    1.9140   18.6760  -30.5110 O   0  0  0  0  0  0  0  0  0  0  0  0
   -0.0220   19.5390  -32.1800 C   0  0  0  0  0  0  0  0  0  0  0  0
   -1.3540   19.5690  -32.6180 C   0  0  0  0  0  0  0  0  0  0  0  0
   -1.6780   20.1840  -33.8330 C   0  0  0  0  0  0  0  0  0  0  0  0
   -0.6780   20.7810  -34.6040 C   0  0  0  0  0  0  0  0  0  0  0  0
    0.6500   20.7560  -34.1700 C   0  0  0  0  0  0  0  0  0  0  0  0
    0.9800   20.1310  -32.9640 C   0  0  0  0  0  0  0  0  0  0  0  0
   -0.1050   21.9480  -29.2030 C   0  0  0  0  0  0  0  0  0  0  0  0
   -0.6570   23.2390  -29.2040 C   0  0  0  0  0  0  0  0  0  0  0  0
    0.1600   24.3400  -28.9430 O   0  0  0  0  0  0  0  0  0  0  0  0
   -5.3035   23.8734  -28.4628 H   0  0  0  0  0  0  0  0  0  0  0  0
   -7.3475   22.5272  -28.9481 H   0  0  0  0  0  0  0  0  0  0  0  0
   -8.4552   19.4517  -30.4457 H   0  0  0  0  0  0  0  0  0  0  0  0
   -9.8053   19.0903  -31.5876 H   0  0  0  0  0  0  0  0  0  0  0  0
   -8.2886   17.1587  -31.3759 H   0  0  0  0  0  0  0  0  0  0  0  0
   -8.2366   17.8902  -33.0536 H   0  0  0  0  0  0  0  0  0  0  0  0
   -6.0560   19.8389  -30.9164 H   0  0  0  0  0  0  0  0  0  0  0  0
   -5.0883   19.4430  -32.4141 H   0  0  0  0  0  0  0  0  0  0  0  0
   -6.5409   21.4222  -32.7359 H   0  0  0  0  0  0  0  0  0  0  0  0
   -6.9677   20.0343  -33.8249 H   0  0  0  0  0  0  0  0  0  0  0  0
   -6.8382   23.2832  -33.1808 H   0  0  0  0  0  0  0  0  0  0  0  0
   -4.8079   24.6414  -32.6958 H   0  0  0  0  0  0  0  0  0  0  0  0
   -3.8944   22.4139  -29.9538 H   0  0  0  0  0  0  0  0  0  0  0  0
   -2.9110   20.1311  -29.9001 H   0  0  0  0  0  0  0  0  0  0  0  0
   -2.1443   19.1091  -32.0066 H   0  0  0  0  0  0  0  0  0  0  0  0
   -2.7214   20.1971  -34.1810 H   0  0  0  0  0  0  0  0  0  0  0  0
   -0.9362   21.2715  -35.5541 H   0  0  0  0  0  0  0  0  0  0  0  0
    1.4360   21.2283  -34.7776 H   0  0  0  0  0  0  0  0  0  0  0  0
    2.0273   20.1032  -32.6288 H   0  0  0  0  0  0  0  0  0  0  0  0
    0.9732   21.8177  -29.0281 H   0  0  0  0  0  0  0  0  0  0  0  0
   -0.1160   25.2790  -29.2040 H   0  0  0  0  0  0  0  0  0  0  0  0
  1  2  2  0
  2  3  1  0
  3  4  1  0
  4  5  2  0
  5  6  1  0
  6  7  2  0
  7  8  1  0
  8  9  2  0
  8 10  2  0
  8 11  1  0
 11 12  1  0
 12 13  1  0
 13 14  1  0
 14 15  1  0
 15 16  1  0
  7 17  1  0
 17 18  2  0
  2 19  1  0
 19 20  2  0
 20 21  1  0
 21 22  2  0
 22 23  1  0
 23 24  1  0
 24 25  2  0
 24 26  2  0
 24 27  1  0
 27 28  2  0
 28 29  1  0
 29 30  2  0
 30 31  1  0
 31 32  2  0
 22 33  1  0
 33 34  2  0
 34 35  1  0
 18  4  1  0
 34 19  1  0
 16 11  1  0
 32 27  1  0
  5 36  1  0
  6 37  1  0
 12 38  1  0
 12 39  1  0
 13 40  1  0
 13 41  1  0
 15 42  1  0
 15 43  1  0
 16 44  1  0
 16 45  1  0
 17 46  1  0
 18 47  1  0
 20 48  1  0
 21 49  1  0
 28 50  1  0
 29 51  1  0
 30 52  1  0
 31 53  1  0
 32 54  1  0
 33 55  1  0
 35 56  1  0
M  CHG  2   3  -1  23  -1
M  END
>  <UniqueID>  (21) 
19

>  <SMILES>  (21) 
O=C([N-]c1ccc(S(=O)(=O)N2CCOCC2)cc1)c1ccc([N-]S(=O)(=O)c2ccccc2)cc1O

>  <Energy>  (21) 
80.8373503934164

>  <Genealogy>  (21) 
O=C([N-]c1ccc(S(=O)(=O)N2CCOCC2)cc1)c1ccc([N-]S(=O)(=O)c2ccccc2)cc1O (protonated)
O=C([N-]c1ccc(S(=O)(=O)N2CCOCC2)cc1)c1ccc([N-]S(=O)(=O)c2ccccc2)cc1O (3D coordinates assigned)
O=C([N-]c1ccc(S(=O)(=O)N2CCOCC2)cc1)c1ccc([N-]S(=O)(=O)c2ccccc2)cc1O (nonaromatic ring conformer: 80.8373503934164 kcal/mol)

>  <smiles>  (21) 
O=C(Nc1ccc(S(=O)(=O)N2CCOCC2)cc1)c1ccc(NS(=O)(=O)c2ccccc2)cc1O

>  <score_type>  (21) 
oracle

>  <origin>  (21) 
adgpu

>  <m_score__min__energy>  (21) 
-11.98

>  <m_primary>  (21) 
energy

$$$$
21:0
     RDKit          3D

 36 38  0  0  0  0  0  0  0  0999 V2000
   -4.0670   20.6940  -32.7400 C   0  0  0  0  0  0  0  0  0  0  0  0
   -5.2030   20.2290  -33.4630 O   0  0  0  0  0  0  0  0  0  0  0  0
   -6.4830   20.0610  -32.9100 C   0  0  0  0  0  0  0  0  0  0  0  0
   -7.0960   18.7950  -32.8160 C   0  0  0  0  0  0  0  0  0  0  0  0
   -8.3730   18.6690  -32.2670 C   0  0  0  0  0  0  0  0  0  0  0  0
   -9.0560   19.7980  -31.8180 C   0  0  0  0  0  0  0  0  0  0  0  0
   -8.4610   21.0590  -31.9050 C   0  0  0  0  0  0  0  0  0  0  0  0
   -7.1630   21.1960  -32.4330 C   0  0  0  0  0  0  0  0  0  0  0  0
   -6.5340   22.4810  -32.5570 N   0  0  0  0  0  0  0  0  0  0  0  0
   -6.5250   23.5260  -31.5760 C   0  0  0  0  0  0  0  0  0  0  0  0
   -7.6030   24.0470  -31.1790 O   0  0  0  0  0  0  0  0  0  0  0  0
   -5.2500   23.9550  -30.9920 C   0  0  0  0  0  0  0  0  0  0  0  0
   -4.3890   23.1730  -30.2500 C   0  0  0  0  0  0  0  0  0  0  0  0
   -3.3530   24.0320  -29.9250 C   0  0  0  0  0  0  0  0  0  0  0  0
   -2.1600   23.7270  -29.0990 C   0  0  0  0  0  0  0  0  0  0  0  0
   -1.8840   22.3870  -28.7710 C   0  0  0  0  0  0  0  0  0  0  0  0
   -0.7630   22.0560  -28.0050 C   0  0  0  0  0  0  0  0  0  0  0  0
    0.0930   23.0580  -27.5500 C   0  0  0  0  0  0  0  0  0  0  0  0
   -0.1720   24.3940  -27.8530 C   0  0  0  0  0  0  0  0  0  0  0  0
   -1.2980   24.7400  -28.6170 C   0  0  0  0  0  0  0  0  0  0  0  0
   -1.5660   26.0840  -28.8690 O   0  0  0  0  0  0  0  0  0  0  0  0
   -3.6070   25.2510  -30.4420 N   0  0  0  0  0  0  0  0  0  0  0  0
   -4.7590   25.2050  -31.0940 N   0  0  0  0  0  0  0  0  0  0  0  0
   -4.2617   20.6143  -31.6603 H   0  0  0  0  0  0  0  0  0  0  0  0
   -3.1908   20.0822  -33.0007 H   0  0  0  0  0  0  0  0  0  0  0  0
   -3.8713   21.7446  -33.0007 H   0  0  0  0  0  0  0  0  0  0  0  0
   -6.5651   17.9019  -33.1772 H   0  0  0  0  0  0  0  0  0  0  0  0
   -8.8413   17.6768  -32.1885 H   0  0  0  0  0  0  0  0  0  0  0  0
  -10.0659   19.6959  -31.3941 H   0  0  0  0  0  0  0  0  0  0  0  0
   -9.0087   21.9483  -31.5597 H   0  0  0  0  0  0  0  0  0  0  0  0
   -4.4999   22.1126  -29.9793 H   0  0  0  0  0  0  0  0  0  0  0  0
   -2.5579   21.5912  -29.1213 H   0  0  0  0  0  0  0  0  0  0  0  0
   -0.5558   21.0037  -27.7608 H   0  0  0  0  0  0  0  0  0  0  0  0
    0.9779   22.7952  -26.9517 H   0  0  0  0  0  0  0  0  0  0  0  0
    0.5056   25.1812  -27.4910 H   0  0  0  0  0  0  0  0  0  0  0  0
   -2.5140   26.4290  -28.9700 H   0  0  0  0  0  0  0  0  0  0  0  0
  1  2  1  0
  2  3  1  0
  3  4  2  0
  4  5  1  0
  5  6  2  0
  6  7  1  0
  7  8  2  0
  8  9  1  0
  9 10  1  0
 10 11  2  0
 10 12  1  0
 12 13  1  0
 13 14  2  0
 14 15  1  0
 15 16  2  0
 16 17  1  0
 17 18  2  0
 18 19  1  0
 19 20  2  0
 20 21  1  0
 14 22  1  0
 22 23  1  0
  8  3  1  0
 23 12  2  0
 20 15  1  0
  1 24  1  0
  1 25  1  0
  1 26  1  0
  4 27  1  0
  5 28  1  0
  6 29  1  0
  7 30  1  0
 13 31  1  0
 16 32  1  0
 17 33  1  0
 18 34  1  0
 19 35  1  0
 21 36  1  0
M  CHG  2   9  -1  22  -1
M  END
>  <UniqueID>  (22) 
20

>  <SMILES>  (22) 
COc1ccccc1[N-]C(=O)c1cc(-c2ccccc2O)[n-]n1

>  <Energy>  (22) 
74.01672545621123

>  <Genealogy>  (22) 
COc1ccccc1[N-]C(=O)c1cc(-c2ccccc2O)[n-]n1 (protonated)
COc1ccccc1[N-]C(=O)c1cc(-c2ccccc2O)[n-]n1 (3D coordinates assigned)
COc1ccccc1[N-]C(=O)c1cc(-c2ccccc2O)[n-]n1 (optimized conformer: 74.01672545621123 kcal/mol)

>  <smiles>  (22) 
COc1ccccc1NC(=O)c1cc(-c2ccccc2O)[nH]n1

>  <score_type>  (22) 
oracle

>  <origin>  (22) 
adgpu

>  <m_score__min__energy>  (22) 
-11.029999999999999

>  <m_primary>  (22) 
energy

$$$$
22:0
     RDKit          3D

 20 21  0  0  0  0  0  0  0  0999 V2000
   -3.9820   25.2990  -30.8230 O   0  0  0  0  0  0  0  0  0  0  0  0
   -5.0400   24.7700  -30.3910 C   0  0  0  0  0  0  0  0  0  0  0  0
   -5.6510   23.5960  -31.0560 C   0  0  0  0  0  0  0  0  0  0  0  0
   -4.9930   23.0350  -32.1600 C   0  0  0  0  0  0  0  0  0  0  0  0
   -5.5110   21.9560  -32.8050 N   0  0  0  0  0  0  0  0  0  0  0  0
   -6.6800   21.3800  -32.4100 C   0  0  0  0  0  0  0  0  0  0  0  0
   -7.1880   20.2660  -33.1000 C   0  0  0  0  0  0  0  0  0  0  0  0
   -8.3870   19.6750  -32.6950 C   0  0  0  0  0  0  0  0  0  0  0  0
   -9.0890   20.1880  -31.6030 C   0  0  0  0  0  0  0  0  0  0  0  0
   -8.5960   21.2950  -30.9070 C   0  0  0  0  0  0  0  0  0  0  0  0
   -7.3890   21.9030  -31.3030 C   0  0  0  0  0  0  0  0  0  0  0  0
   -6.8640   23.0200  -30.6240 C   0  0  0  0  0  0  0  0  0  0  0  0
   -7.4810   23.5020  -29.6330 O   0  0  0  0  0  0  0  0  0  0  0  0
   -5.5229   25.1907  -29.4967 H   0  0  0  0  0  0  0  0  0  0  0  0
   -4.0462   23.4733  -32.5084 H   0  0  0  0  0  0  0  0  0  0  0  0
   -4.9860   21.5710  -33.6240 H   0  0  0  0  0  0  0  0  0  0  0  0
   -6.6395   19.8582  -33.9619 H   0  0  0  0  0  0  0  0  0  0  0  0
   -8.7793   18.8026  -33.2382 H   0  0  0  0  0  0  0  0  0  0  0  0
  -10.0334   19.7193  -31.2893 H   0  0  0  0  0  0  0  0  0  0  0  0
   -9.1531   21.6932  -30.0461 H   0  0  0  0  0  0  0  0  0  0  0  0
  1  2  2  0
  2  3  1  0
  3  4  2  0
  4  5  1  0
  5  6  1  0
  6  7  2  0
  7  8  1  0
  8  9  2  0
  9 10  1  0
 10 11  2  0
 11 12  1  0
 12 13  2  0
 12  3  1  0
 11  6  1  0
  2 14  1  0
  4 15  1  0
  5 16  1  0
  7 17  1  0
  8 18  1  0
  9 19  1  0
 10 20  1  0
M  END
>  <UniqueID>  (23) 
21

>  <SMILES>  (23) 
O=Cc1c[nH]c2ccccc2c1=O

>  <Energy>  (23) 
26.994506636757148

>  <Genealogy>  (23) 
O=Cc1c[nH]c2ccccc2c1=O (3D coordinates assigned)
O=Cc1c[nH]c2ccccc2c1=O (optimized conformer: 26.994506636757148 kcal/mol)

>  <smiles>  (23) 
O=Cc1c[nH]c2ccccc2c1=O

>  <score_type>  (23) 
oracle

>  <origin>  (23) 
adgpu

>  <m_score__min__energy>  (23) 
-6.29

>  <m_primary>  (23) 
energy

$$$$
23:0
     RDKit          3D

 50 53  0  0  0  0  0  0  0  0999 V2000
   -3.2260   14.7690  -35.4150 C   0  0  0  0  0  0  0  0  0  0  0  0
   -3.9690   15.5550  -34.4300 N   0  0  0  0  0  0  0  0  0  0  0  0
   -4.5690   16.8130  -34.7740 C   0  0  0  0  0  0  0  0  0  0  0  0
   -4.2620   17.3620  -35.8670 O   0  0  0  0  0  0  0  0  0  0  0  0
   -5.5270   17.4900  -33.8650 C   0  0  0  0  0  0  0  0  0  0  0  0
   -6.7330   16.8700  -33.4870 C   0  0  0  0  0  0  0  0  0  0  0  0
   -7.6190   17.5170  -32.6270 C   0  0  0  0  0  0  0  0  0  0  0  0
   -7.3220   18.7900  -32.1380 C   0  0  0  0  0  0  0  0  0  0  0  0
   -6.1350   19.4350  -32.5150 C   0  0  0  0  0  0  0  0  0  0  0  0
   -5.8110   20.7790  -31.9890 C   0  0  0  0  0  0  0  0  0  0  0  0
   -6.7830   21.5250  -31.3020 C   0  0  0  0  0  0  0  0  0  0  0  0
   -6.4620   22.7700  -30.7560 C   0  0  0  0  0  0  0  0  0  0  0  0
   -5.1700   23.2910  -30.8980 C   0  0  0  0  0  0  0  0  0  0  0  0
   -4.7480   24.7990  -30.0880 S   0  0  0  0  0  0  0  0  0  0  0  0
   -3.9010   25.6710  -30.9790 O   0  0  0  0  0  0  0  0  0  0  0  0
   -6.0180   25.5300  -29.7390 O   0  0  0  0  0  0  0  0  0  0  0  0
   -3.8770   24.4440  -28.6260 N   0  0  0  0  0  0  0  0  0  0  0  0
   -3.1130   23.2450  -28.4100 C   0  0  0  0  0  0  0  0  0  0  0  0
   -3.7610   22.0180  -28.1320 C   0  0  0  0  0  0  0  0  0  0  0  0
   -3.0190   20.8720  -27.8160 C   0  0  0  0  0  0  0  0  0  0  0  0
   -1.6350   20.9670  -27.7950 C   0  0  0  0  0  0  0  0  0  0  0  0
   -0.9860   22.1350  -28.0860 C   0  0  0  0  0  0  0  0  0  0  0  0
   -1.6930   23.3070  -28.4250 C   0  0  0  0  0  0  0  0  0  0  0  0
   -0.9790   24.5650  -28.7610 C   0  0  0  0  0  0  0  0  0  0  0  0
    0.2530   24.6910  -28.5260 O   0  0  0  0  0  0  0  0  0  0  0  0
   -1.6600   25.6280  -29.3420 O   0  0  0  0  0  0  0  0  0  0  0  0
    0.4860   21.9020  -28.0050 C   0  0  0  0  0  0  0  0  0  0  0  0
    0.5870   20.4150  -27.5920 C   0  0  0  0  0  0  0  0  0  0  0  0
   -0.7540   19.9480  -27.5020 O   0  0  0  0  0  0  0  0  0  0  0  0
   -4.2050   22.5660  -31.6090 C   0  0  0  0  0  0  0  0  0  0  0  0
   -4.5220   21.3150  -32.1460 C   0  0  0  0  0  0  0  0  0  0  0  0
   -5.2450   18.7820  -33.3830 C   0  0  0  0  0  0  0  0  0  0  0  0
   -2.5601   14.0645  -34.8951 H   0  0  0  0  0  0  0  0  0  0  0  0
   -3.9323   14.2087  -36.0453 H   0  0  0  0  0  0  0  0  0  0  0  0
   -2.6269   15.4427  -36.0453 H   0  0  0  0  0  0  0  0  0  0  0  0
   -4.0170   15.1940  -33.4530 H   0  0  0  0  0  0  0  0  0  0  0  0
   -6.9776   15.8692  -33.8725 H   0  0  0  0  0  0  0  0  0  0  0  0
   -8.5562   17.0221  -32.3325 H   0  0  0  0  0  0  0  0  0  0  0  0
   -8.0227   19.2902  -31.4532 H   0  0  0  0  0  0  0  0  0  0  0  0
   -7.8025   21.1266  -31.1934 H   0  0  0  0  0  0  0  0  0  0  0  0
   -7.2272   23.3435  -30.2123 H   0  0  0  0  0  0  0  0  0  0  0  0
   -4.8592   21.9632  -28.1643 H   0  0  0  0  0  0  0  0  0  0  0  0
   -3.5217   19.9201  -27.5900 H   0  0  0  0  0  0  0  0  0  0  0  0
    0.9667   22.0742  -28.9793 H   0  0  0  0  0  0  0  0  0  0  0  0
    0.9917   22.5800  -27.3018 H   0  0  0  0  0  0  0  0  0  0  0  0
    1.1421   19.8433  -28.3503 H   0  0  0  0  0  0  0  0  0  0  0  0
    1.1236   20.2940  -26.6394 H   0  0  0  0  0  0  0  0  0  0  0  0
   -3.1958   22.9820  -31.7450 H   0  0  0  0  0  0  0  0  0  0  0  0
   -3.7570   20.7465  -32.6952 H   0  0  0  0  0  0  0  0  0  0  0  0
   -4.3167   19.2861  -33.6898 H   0  0  0  0  0  0  0  0  0  0  0  0
  1  2  1  0
  2  3  1  0
  3  4  2  0
  3  5  1  0
  5  6  2  0
  6  7  1  0
  7  8  2  0
  8  9  1  0
  9 10  1  0
 10 11  2  0
 11 12  1  0
 12 13  2  0
 13 14  1  0
 14 15  2  0
 14 16  2  0
 14 17  1  0
 17 18  1  0
 18 19  2  0
 19 20  1  0
 20 21  2  0
 21 22  1  0
 22 23  2  0
 23 24  1  0
 24 25  2  0
 24 26  1  0
 22 27  1  0
 27 28  1  0
 28 29  1  0
 13 30  1  0
 30 31  2  0
  9 32  2  0
 32  5  1  0
 31 10  1  0
 23 18  1  0
 29 21  1  0
  1 33  1  0
  1 34  1  0
  1 35  1  0
  2 36  1  0
  6 37  1  0
  7 38  1  0
  8 39  1  0
 11 40  1  0
 12 41  1  0
 19 42  1  0
 20 43  1  0
 27 44  1  0
 27 45  1  0
 28 46  1  0
 28 47  1  0
 30 48  1  0
 31 49  1  0
 32 50  1  0
M  CHG  2  17  -1  26  -1
M  END
>  <UniqueID>  (24) 
22

>  <SMILES>  (24) 
CNC(=O)c1cccc(-c2ccc(S(=O)(=O)[N-]c3ccc4c(c3C(=O)[O-])CCO4)cc2)c1

>  <Energy>  (24) 
83.57166509724209

>  <Genealogy>  (24) 
CNC(=O)c1cccc(-c2ccc(S(=O)(=O)[N-]c3ccc4c(c3C(=O)[O-])CCO4)cc2)c1 (protonated)
CNC(=O)c1cccc(-c2ccc(S(=O)(=O)[N-]c3ccc4c(c3C(=O)[O-])CCO4)cc2)c1 (3D coordinates assigned)
CNC(=O)c1cccc(-c2ccc(S(=O)(=O)[N-]c3ccc4c(c3C(=O)[O-])CCO4)cc2)c1 (nonaromatic ring conformer: 83.57166509724209 kcal/mol)

>  <smiles>  (24) 
CNC(=O)c1cccc(-c2ccc(S(=O)(=O)Nc3ccc4c(c3C(=O)O)CCO4)cc2)c1

>  <score_type>  (24) 
oracle

>  <origin>  (24) 
adgpu

>  <m_score__min__energy>  (24) 
-12.68

>  <m_primary>  (24) 
energy

$$$$
24:0
     RDKit          3D

 58 61  0  0  0  0  0  0  0  0999 V2000
   -3.6030   18.3300  -32.7330 C   0  0  0  0  0  0  0  0  0  0  0  0
   -3.9690   19.1040  -33.9300 N   0  0  2  0  0  0  0  0  0  0  0  0
   -3.5930   20.5390  -33.8390 C   0  0  0  0  0  0  0  0  0  0  0  0
   -2.4850   20.8340  -32.8560 C   0  0  0  0  0  0  0  0  0  0  0  0
   -1.2510   20.2990  -33.0510 N   0  0  0  0  0  0  0  0  0  0  0  0
   -0.2570   20.5390  -32.1600 C   0  0  0  0  0  0  0  0  0  0  0  0
    0.9130   20.0200  -32.3470 N   0  0  0  0  0  0  0  0  0  0  0  0
   -0.4950   21.3180  -31.0750 N   0  0  0  0  0  0  0  0  0  0  0  0
   -1.7240   21.8690  -30.8790 C   0  0  0  0  0  0  0  0  0  0  0  0
   -1.9760   22.6010  -29.8320 N   0  0  0  0  0  0  0  0  0  0  0  0
   -1.0240   23.0010  -28.8310 C   0  0  0  0  0  0  0  0  0  0  0  0
   -0.7610   24.3590  -28.5580 C   0  0  0  0  0  0  0  0  0  0  0  0
    0.1620   24.7070  -27.5670 C   0  0  0  0  0  0  0  0  0  0  0  0
    0.8150   23.7110  -26.8320 C   0  0  0  0  0  0  0  0  0  0  0  0
    0.5340   22.3650  -27.0770 C   0  0  0  0  0  0  0  0  0  0  0  0
   -0.3920   22.0120  -28.0620 C   0  0  0  0  0  0  0  0  0  0  0  0
   -2.7180   21.6170  -31.7700 N   0  0  0  0  0  0  0  0  0  0  0  0
   -5.3710   18.9290  -34.2450 C   0  0  0  0  0  0  0  0  0  0  0  0
   -5.7130   18.3530  -35.3130 O   0  0  0  0  0  0  0  0  0  0  0  0
   -6.4310   19.4360  -33.3420 C   0  0  0  0  0  0  0  0  0  0  0  0
   -7.3290   18.5530  -32.7180 C   0  0  0  0  0  0  0  0  0  0  0  0
   -8.2910   19.0350  -31.8290 C   0  0  0  0  0  0  0  0  0  0  0  0
   -8.3800   20.4040  -31.5660 C   0  0  0  0  0  0  0  0  0  0  0  0
   -7.5110   21.3000  -32.2000 C   0  0  0  0  0  0  0  0  0  0  0  0
   -7.6500   23.0290  -31.8850 S   0  0  0  0  0  0  0  0  0  0  0  0
   -6.8890   23.7940  -32.9320 O   0  0  0  0  0  0  0  0  0  0  0  0
   -9.1000   23.4110  -31.9860 O   0  0  0  0  0  0  0  0  0  0  0  0
   -7.0580   23.4100  -30.2820 N   0  0  0  0  0  0  0  0  0  0  0  0
   -5.7210   22.8400  -30.0410 C   0  0  0  0  0  0  0  0  0  0  0  0
   -4.6080   23.6120  -30.7930 C   0  0  0  0  0  0  0  0  0  0  0  0
   -5.0030   24.9070  -31.2150 O   0  0  0  0  0  0  0  0  0  0  0  0
   -5.7350   25.5490  -30.1970 C   0  0  0  0  0  0  0  0  0  0  0  0
   -7.1020   24.8650  -30.0120 C   0  0  0  0  0  0  0  0  0  0  0  0
   -6.5280   20.8130  -33.0750 C   0  0  0  0  0  0  0  0  0  0  0  0
   -3.8724   18.8997  -31.8314 H   0  0  0  0  0  0  0  0  0  0  0  0
   -4.1435   17.3719  -32.7364 H   0  0  0  0  0  0  0  0  0  0  0  0
   -2.5196   18.1398  -32.7364 H   0  0  0  0  0  0  0  0  0  0  0  0
   -3.4040   18.7170  -34.7220 H   0  0  0  0  0  0  0  0  0  0  0  0
   -3.2667   20.8727  -34.8351 H   0  0  0  0  0  0  0  0  0  0  0  0
   -4.4835   21.0738  -33.4771 H   0  0  0  0  0  0  0  0  0  0  0  0
    1.6960   20.1840  -31.6710 H   0  0  0  0  0  0  0  0  0  0  0  0
   -1.2820   25.1448  -29.1247 H   0  0  0  0  0  0  0  0  0  0  0  0
    0.3755   25.7669  -27.3645 H   0  0  0  0  0  0  0  0  0  0  0  0
    1.5495   23.9882  -26.0615 H   0  0  0  0  0  0  0  0  0  0  0  0
    1.0419   21.5824  -26.4942 H   0  0  0  0  0  0  0  0  0  0  0  0
   -0.6272   20.9516  -28.2358 H   0  0  0  0  0  0  0  0  0  0  0  0
   -7.2733   17.4754  -32.9316 H   0  0  0  0  0  0  0  0  0  0  0  0
   -8.9807   18.3352  -31.3343 H   0  0  0  0  0  0  0  0  0  0  0  0
   -9.1347   20.7790  -30.8590 H   0  0  0  0  0  0  0  0  0  0  0  0
   -5.5100   22.8770  -28.9621 H   0  0  0  0  0  0  0  0  0  0  0  0
   -5.7241   21.8054  -30.4147 H   0  0  0  0  0  0  0  0  0  0  0  0
   -3.7414   23.7135  -30.1232 H   0  0  0  0  0  0  0  0  0  0  0  0
   -4.3702   23.0353  -31.6990 H   0  0  0  0  0  0  0  0  0  0  0  0
   -5.1709   25.4943  -29.2542 H   0  0  0  0  0  0  0  0  0  0  0  0
   -5.8951   26.6002  -30.4787 H   0  0  0  0  0  0  0  0  0  0  0  0
   -7.4348   25.0199  -28.9751 H   0  0  0  0  0  0  0  0  0  0  0  0
   -7.7975   25.3148  -30.7359 H   0  0  0  0  0  0  0  0  0  0  0  0
   -5.8287   21.5132  -33.5552 H   0  0  0  0  0  0  0  0  0  0  0  0
  1  2  1  0
  2  3  1  0
  3  4  1  0
  4  5  2  0
  5  6  1  0
  6  7  2  3
  6  8  1  0
  8  9  1  0
  9 10  2  3
 10 11  1  0
 11 12  2  0
 12 13  1  0
 13 14  2  0
 14 15  1  0
 15 16  2  0
  9 17  1  0
  2 18  1  0
 18 19  2  0
 18 20  1  0
 20 21  2  0
 21 22  1  0
 22 23  2  0
 23 24  1  0
 24 25  1  0
 25 26  2  0
 25 27  2  0
 25 28  1  0
 28 29  1  0
 29 30  1  0
 30 31  1  0
 31 32  1  0
 32 33  1  0
 24 34  2  0
 17  4  1  0
 34 20  1  0
 16 11  1  0
 33 28  1  0
  1 35  1  0
  1 36  1  0
  1 37  1  0
  2 38  1  6
  3 39  1  0
  3 40  1  0
  7 41  1  0
 12 42  1  0
 13 43  1  0
 14 44  1  0
 15 45  1  0
 16 46  1  0
 21 47  1  0
 22 48  1  0
 23 49  1  0
 29 50  1  0
 29 51  1  0
 30 52  1  0
 30 53  1  0
 32 54  1  0
 32 55  1  0
 33 56  1  0
 33 57  1  0
 34 58  1  0
M  CHG  3   2   1   8  -1  17  -1
M  END
>  <UniqueID>  (25) 
23

>  <SMILES>  (25) 
C[N@H+](Cc1nc(=N)[n-]c(=Nc2ccccc2)[n-]1)C(=O)c1cccc(S(=O)(=O)N2CCOCC2)c1

>  <Energy>  (25) 
87.22850171603702

>  <Genealogy>  (25) 
C[NH+](Cc1nc(=N)[n-]c(=Nc2ccccc2)[n-]1)C(=O)c1cccc(S(=O)(=O)N2CCOCC2)c1 (protonated)
C[N@H+](Cc1nc(=N)[n-]c(=Nc2ccccc2)[n-]1)C(=O)c1cccc(S(=O)(=O)N2CCOCC2)c1 (chirality)
C[N@H+](Cc1nc(=N)[n-]c(=Nc2ccccc2)[n-]1)C(=O)c1cccc(S(=O)(=O)N2CCOCC2)c1 (3D coordinates assigned)
C[N@H+](Cc1nc(=N)[n-]c(=Nc2ccccc2)[n-]1)C(=O)c1cccc(S(=O)(=O)N2CCOCC2)c1 (nonaromatic ring conformer: 87.22850171603702 kcal/mol)

>  <smiles>  (25) 
CN(Cc1nc(=N)[nH]c(=Nc2ccccc2)[nH]1)C(=O)c1cccc(S(=O)(=O)N2CCOCC2)c1

>  <score_type>  (25) 
oracle

>  <origin>  (25) 
adgpu

>  <m_score__min__energy>  (25) 
-11.85

>  <m_primary>  (25) 
energy

$$$$
25:0
     RDKit          3D

 54 56  0  0  0  0  0  0  0  0999 V2000
   -4.0380   18.2100  -32.6680 C   0  0  0  0  0  0  0  0  0  0  0  0
   -5.3560   18.0480  -33.4380 C   0  0  1  0  0  0  0  0  0  0  0  0
   -6.4990   17.6670  -32.4690 C   0  0  0  0  0  0  0  0  0  0  0  0
   -7.8670   18.0790  -33.0350 C   0  0  0  0  0  0  0  0  0  0  0  0
   -7.9770   19.5440  -33.2790 N   0  0  1  0  0  0  0  0  0  0  0  0
   -8.8520   20.3400  -31.9880 S   0  0  0  0  0  0  0  0  0  0  0  0
  -10.2140   20.7470  -32.4790 O   0  0  0  0  0  0  0  0  0  0  0  0
   -9.0350   19.3830  -30.8440 O   0  0  0  0  0  0  0  0  0  0  0  0
   -7.9890   21.7700  -31.4160 C   0  0  0  0  0  0  0  0  0  0  0  0
   -7.4580   22.6890  -32.3330 C   0  0  0  0  0  0  0  0  0  0  0  0
   -6.6780   23.7580  -31.8880 C   0  0  0  0  0  0  0  0  0  0  0  0
   -6.4260   23.9230  -30.5190 C   0  0  0  0  0  0  0  0  0  0  0  0
   -5.3360   25.1830  -29.9520 S   0  0  0  0  0  0  0  0  0  0  0  0
   -5.4040   26.3770  -30.8660 O   0  0  0  0  0  0  0  0  0  0  0  0
   -5.7590   25.6050  -28.5720 O   0  0  0  0  0  0  0  0  0  0  0  0
   -3.7070   24.5550  -29.9110 N   0  0  0  0  0  0  0  0  0  0  0  0
   -3.1960   24.4780  -28.5200 C   0  0  0  0  0  0  0  0  0  0  0  0
   -3.1990   23.0440  -27.9710 C   0  0  0  0  0  0  0  0  0  0  0  0
   -2.3580   22.1510  -28.8000 N   0  0  0  0  0  0  0  0  0  0  0  0
   -2.7130   20.7450  -28.5540 C   0  0  0  0  0  0  0  0  0  0  0  0
   -2.3930   22.4730  -30.2500 C   0  0  0  0  0  0  0  0  0  0  0  0
   -3.6460   23.2710  -30.6400 C   0  0  0  0  0  0  0  0  0  0  0  0
   -6.9870   23.0280  -29.5990 C   0  0  0  0  0  0  0  0  0  0  0  0
   -7.7710   21.9610  -30.0440 C   0  0  0  0  0  0  0  0  0  0  0  0
   -6.6750   20.2220  -33.5060 C   0  0  0  0  0  0  0  0  0  0  0  0
   -5.6900   19.3200  -34.2580 C   0  0  0  0  0  0  0  0  0  0  0  0
   -4.2395   18.1852  -31.5869 H   0  0  0  0  0  0  0  0  0  0  0  0
   -3.3554   17.3890  -32.9327 H   0  0  0  0  0  0  0  0  0  0  0  0
   -3.5746   19.1719  -32.9327 H   0  0  0  0  0  0  0  0  0  0  0  0
   -5.2400   17.2274  -34.1613 H   0  0  0  0  0  0  0  0  0  0  0  0
   -6.4886   16.5783  -32.3121 H   0  0  0  0  0  0  0  0  0  0  0  0
   -6.3412   18.1971  -31.5182 H   0  0  0  0  0  0  0  0  0  0  0  0
   -8.0258   17.5519  -33.9873 H   0  0  0  0  0  0  0  0  0  0  0  0
   -8.6275   17.8115  -32.2866 H   0  0  0  0  0  0  0  0  0  0  0  0
   -8.5550   19.6740  -34.1430 H   0  0  0  0  0  0  0  0  0  0  0  0
   -7.6571   22.5669  -33.4079 H   0  0  0  0  0  0  0  0  0  0  0  0
   -6.2604   24.4721  -32.6130 H   0  0  0  0  0  0  0  0  0  0  0  0
   -3.8311   25.1037  -27.8757 H   0  0  0  0  0  0  0  0  0  0  0  0
   -2.1543   24.8312  -28.5266 H   0  0  0  0  0  0  0  0  0  0  0  0
   -4.2311   22.6634  -27.9674 H   0  0  0  0  0  0  0  0  0  0  0  0
   -2.7881   23.0610  -26.9508 H   0  0  0  0  0  0  0  0  0  0  0  0
   -2.7590   20.5627  -27.4702 H   0  0  0  0  0  0  0  0  0  0  0  0
   -3.6935   20.5303  -29.0039 H   0  0  0  0  0  0  0  0  0  0  0  0
   -1.9519   20.0905  -29.0039 H   0  0  0  0  0  0  0  0  0  0  0  0
   -2.3801   21.5332  -30.8214 H   0  0  0  0  0  0  0  0  0  0  0  0
   -1.5142   23.0940  -30.4780 H   0  0  0  0  0  0  0  0  0  0  0  0
   -4.5399   22.6774  -30.3977 H   0  0  0  0  0  0  0  0  0  0  0  0
   -3.6036   23.4831  -31.7185 H   0  0  0  0  0  0  0  0  0  0  0  0
   -6.8095   23.1659  -28.5222 H   0  0  0  0  0  0  0  0  0  0  0  0
   -8.2187   21.2685  -29.3160 H   0  0  0  0  0  0  0  0  0  0  0  0
   -6.8461   21.1338  -34.0971 H   0  0  0  0  0  0  0  0  0  0  0  0
   -6.2387   20.4640  -32.5256 H   0  0  0  0  0  0  0  0  0  0  0  0
   -6.1378   19.0211  -35.2172 H   0  0  0  0  0  0  0  0  0  0  0  0
   -4.7591   19.8824  -34.4228 H   0  0  0  0  0  0  0  0  0  0  0  0
  1  2  1  0
  2  3  1  0
  3  4  1  0
  4  5  1  0
  5  6  1  0
  6  7  2  0
  6  8  2  0
  6  9  1  0
  9 10  2  0
 10 11  1  0
 11 12  2  0
 12 13  1  0
 13 14  2  0
 13 15  2  0
 13 16  1  0
 16 17  1  0
 17 18  1  0
 18 19  1  0
 19 20  1  0
 19 21  1  0
 21 22  1  0
 12 23  1  0
 23 24  2  0
  5 25  1  0
 25 26  1  0
 26  2  1  0
 24  9  1  0
 22 16  1  0
  1 27  1  0
  1 28  1  0
  1 29  1  0
  2 30  1  1
  3 31  1  0
  3 32  1  0
  4 33  1  0
  4 34  1  0
  5 35  1  1
 10 36  1  0
 11 37  1  0
 17 38  1  0
 17 39  1  0
 18 40  1  0
 18 41  1  0
 20 42  1  0
 20 43  1  0
 20 44  1  0
 21 45  1  0
 21 46  1  0
 22 47  1  0
 22 48  1  0
 23 49  1  0
 24 50  1  0
 25 51  1  0
 25 52  1  0
 26 53  1  0
 26 54  1  0
M  CHG  1   5   1
M  END
>  <UniqueID>  (26) 
24

>  <SMILES>  (26) 
CC1CC[NH+](S(=O)(=O)c2ccc(S(=O)(=O)N3CCN(C)CC3)cc2)CC1

>  <Energy>  (26) 
66.35859021631121

>  <Genealogy>  (26) 
CC1CC[NH+](S(=O)(=O)c2ccc(S(=O)(=O)N3CCN(C)CC3)cc2)CC1 (protonated)
CC1CC[NH+](S(=O)(=O)c2ccc(S(=O)(=O)N3CCN(C)CC3)cc2)CC1 (3D coordinates assigned)
CC1CC[NH+](S(=O)(=O)c2ccc(S(=O)(=O)N3CCN(C)CC3)cc2)CC1 (nonaromatic ring conformer: 66.35859021631121 kcal/mol)

>  <smiles>  (26) 
CC1CCN(S(=O)(=O)c2ccc(S(=O)(=O)N3CCN(C)CC3)cc2)CC1

>  <score_type>  (26) 
oracle

>  <origin>  (26) 
adgpu

>  <m_score__min__energy>  (26) 
-9.8800000000000008

>  <m_primary>  (26) 
energy

$$$$
26:0
     RDKit          3D

 29 31  0  0  0  0  0  0  0  0999 V2000
   -3.8660   25.6730  -30.7560 O   0  0  0  0  0  0  0  0  0  0  0  0
   -3.4010   24.5470  -30.0870 C   0  0  0  0  0  0  0  0  0  0  0  0
   -4.1230   23.3520  -30.1520 C   0  0  0  0  0  0  0  0  0  0  0  0
   -3.6630   22.2160  -29.4790 C   0  0  0  0  0  0  0  0  0  0  0  0
   -2.4810   22.2680  -28.7220 C   0  0  0  0  0  0  0  0  0  0  0  0
   -2.0060   21.0550  -28.0220 C   0  0  0  0  0  0  0  0  0  0  0  0
   -2.3710   20.7460  -26.7590 N   0  0  0  0  0  0  0  0  0  0  0  0
   -1.8340   19.5800  -26.4300 N   0  0  0  0  0  0  0  0  0  0  0  0
   -1.1220   19.1400  -27.4820 C   0  0  0  0  0  0  0  0  0  0  0  0
   -0.4030   17.9490  -27.4870 O   0  0  0  0  0  0  0  0  0  0  0  0
   -1.1920   20.0430  -28.5190 C   0  0  0  0  0  0  0  0  0  0  0  0
   -0.4760   19.9590  -29.8100 C   0  0  0  0  0  0  0  0  0  0  0  0
   -1.1150   20.3900  -30.9840 C   0  0  0  0  0  0  0  0  0  0  0  0
   -0.4520   20.3280  -32.2130 C   0  0  0  0  0  0  0  0  0  0  0  0
    0.8500   19.8290  -32.2810 C   0  0  0  0  0  0  0  0  0  0  0  0
    1.4890   19.3810  -31.1220 C   0  0  0  0  0  0  0  0  0  0  0  0
    0.8300   19.4350  -29.8890 C   0  0  0  0  0  0  0  0  0  0  0  0
    1.4720   18.9490  -28.7550 O   0  0  0  0  0  0  0  0  0  0  0  0
   -1.7500   23.4690  -28.6770 C   0  0  0  0  0  0  0  0  0  0  0  0
   -2.2110   24.6050  -29.3520 C   0  0  0  0  0  0  0  0  0  0  0  0
   -1.4840   25.7870  -29.2930 O   0  0  0  0  0  0  0  0  0  0  0  0
   -5.0553   23.3051  -30.7340 H   0  0  0  0  0  0  0  0  0  0  0  0
   -4.2303   21.2757  -29.5428 H   0  0  0  0  0  0  0  0  0  0  0  0
    0.4940   17.8910  -27.9510 H   0  0  0  0  0  0  0  0  0  0  0  0
   -2.1430   20.7785  -30.9361 H   0  0  0  0  0  0  0  0  0  0  0  0
   -0.9567   20.6728  -33.1275 H   0  0  0  0  0  0  0  0  0  0  0  0
    1.3733   19.7885  -33.2477 H   0  0  0  0  0  0  0  0  0  0  0  0
    2.5135   18.9846  -31.1792 H   0  0  0  0  0  0  0  0  0  0  0  0
   -0.8100   23.5156  -28.1076 H   0  0  0  0  0  0  0  0  0  0  0  0
  1  2  1  0
  2  3  2  0
  3  4  1  0
  4  5  2  0
  5  6  1  0
  6  7  2  0
  7  8  1  0
  8  9  1  0
  9 10  1  0
  9 11  2  0
 11 12  1  0
 12 13  2  0
 13 14  1  0
 14 15  2  0
 15 16  1  0
 16 17  2  0
 17 18  1  0
  5 19  1  0
 19 20  2  0
 20 21  1  0
 20  2  1  0
 11  6  1  0
 17 12  1  0
  3 22  1  0
  4 23  1  0
 10 24  1  0
 13 25  1  0
 14 26  1  0
 15 27  1  0
 16 28  1  0
 19 29  1  0
M  CHG  4   1  -1   8  -1  18  -1  21  -1
M  END
>  <UniqueID>  (27) 
25

>  <SMILES>  (27) 
[O-]c1ccc(-c2n[n-]c(O)c2-c2ccccc2[O-])cc1[O-]

>  <Energy>  (27) 
72.01260903275157

>  <Genealogy>  (27) 
[O-]c1ccc(-c2n[n-]c(O)c2-c2ccccc2[O-])cc1[O-] (protonated)
[O-]c1ccc(-c2n[n-]c(O)c2-c2ccccc2[O-])cc1[O-] (3D coordinates assigned)
[O-]c1ccc(-c2n[n-]c(O)c2-c2ccccc2[O-])cc1[O-] (optimized conformer: 72.01260903275157 kcal/mol)

>  <smiles>  (27) 
Oc1ccc(-c2n[nH]c(O)c2-c2ccccc2O)cc1O

>  <score_type>  (27) 
oracle

>  <origin>  (27) 
adgpu

>  <m_score__min__energy>  (27) 
-11.51

>  <m_primary>  (27) 
energy

$$$$
27:0
     RDKit          3D

 57 60  0  0  0  0  0  0  0  0999 V2000
   -5.4930   26.0510  -30.0990 O   0  0  0  0  0  0  0  0  0  0  0  0
   -4.9070   25.0020  -30.4770 C   0  0  0  0  0  0  0  0  0  0  0  0
   -3.4730   24.9600  -30.4360 N   0  0  0  0  0  0  0  0  0  0  0  0
   -2.6880   24.5390  -29.3120 C   0  0  0  0  0  0  0  0  0  0  0  0
   -3.2770   23.9150  -28.1970 C   0  0  0  0  0  0  0  0  0  0  0  0
   -2.4970   23.5700  -27.0910 C   0  0  0  0  0  0  0  0  0  0  0  0
   -1.1220   23.8360  -27.0870 C   0  0  0  0  0  0  0  0  0  0  0  0
   -0.1510   23.4850  -25.6540 S   0  0  0  0  0  0  0  0  0  0  0  0
   -0.7920   22.3620  -24.8870 O   0  0  0  0  0  0  0  0  0  0  0  0
    1.2170   23.0340  -26.0850 O   0  0  0  0  0  0  0  0  0  0  0  0
    0.0080   24.8910  -24.6230 N   0  0  0  0  0  0  0  0  0  0  0  0
   -1.2190   25.7140  -24.6770 C   0  0  0  0  0  0  0  0  0  0  0  0
   -0.9210   27.1610  -24.2530 C   0  0  0  0  0  0  0  0  0  0  0  0
    0.0160   27.8220  -25.0950 O   0  0  0  0  0  0  0  0  0  0  0  0
    0.9120   26.9380  -25.7580 C   0  0  0  0  0  0  0  0  0  0  0  0
    1.2330   25.6670  -24.9470 C   0  0  0  0  0  0  0  0  0  0  0  0
   -0.5260   24.4080  -28.2210 C   0  0  0  0  0  0  0  0  0  0  0  0
   -1.3060   24.7500  -29.3290 C   0  0  0  0  0  0  0  0  0  0  0  0
   -5.7080   23.8390  -30.9220 C   0  0  0  0  0  0  0  0  0  0  0  0
   -5.2450   23.0180  -31.9640 C   0  0  0  0  0  0  0  0  0  0  0  0
   -5.9650   21.8820  -32.3420 C   0  0  0  0  0  0  0  0  0  0  0  0
   -7.1590   21.5500  -31.6860 C   0  0  0  0  0  0  0  0  0  0  0  0
   -8.0390   20.0830  -32.1260 S   0  0  0  0  0  0  0  0  0  0  0  0
   -8.6860   19.5110  -30.8960 O   0  0  0  0  0  0  0  0  0  0  0  0
   -9.1260   20.4360  -33.1030 O   0  0  0  0  0  0  0  0  0  0  0  0
   -7.0030   18.8690  -32.8410 N   0  0  0  0  0  0  0  0  0  0  0  0
   -6.3790   19.3420  -34.0750 C   0  0  0  0  0  0  0  0  0  0  0  0
   -5.1040   18.5420  -34.2320 C   0  0  0  0  0  0  0  0  0  0  0  0
   -4.6670   18.2530  -32.8110 C   0  0  0  0  0  0  0  0  0  0  0  0
   -5.9080   18.4730  -31.9490 C   0  0  0  0  0  0  0  0  0  0  0  0
   -7.6510   22.3950  -30.6830 C   0  0  0  0  0  0  0  0  0  0  0  0
   -6.9350   23.5320  -30.3060 C   0  0  0  0  0  0  0  0  0  0  0  0
   -4.3554   23.6981  -28.1963 H   0  0  0  0  0  0  0  0  0  0  0  0
   -2.9644   23.0876  -26.2199 H   0  0  0  0  0  0  0  0  0  0  0  0
    0.1070   24.5290  -23.6450 H   0  0  0  0  0  0  0  0  0  0  0  0
   -1.6102   25.7122  -25.7051 H   0  0  0  0  0  0  0  0  0  0  0  0
   -1.9613   25.2884  -23.9857 H   0  0  0  0  0  0  0  0  0  0  0  0
   -1.8631   27.7286  -24.2690 H   0  0  0  0  0  0  0  0  0  0  0  0
   -0.4750   27.1164  -23.2485 H   0  0  0  0  0  0  0  0  0  0  0  0
    0.4597   26.6361  -26.7142 H   0  0  0  0  0  0  0  0  0  0  0  0
    1.8585   27.4808  -25.8977 H   0  0  0  0  0  0  0  0  0  0  0  0
    1.9109   25.0315  -25.5357 H   0  0  0  0  0  0  0  0  0  0  0  0
    1.7004   25.9762  -24.0004 H   0  0  0  0  0  0  0  0  0  0  0  0
    0.5591   24.5879  -28.2380 H   0  0  0  0  0  0  0  0  0  0  0  0
   -0.8302   25.1875  -30.2191 H   0  0  0  0  0  0  0  0  0  0  0  0
   -4.3100   23.2712  -32.4853 H   0  0  0  0  0  0  0  0  0  0  0  0
   -5.5935   21.2449  -33.1582 H   0  0  0  0  0  0  0  0  0  0  0  0
   -7.0468   19.1685  -34.9317 H   0  0  0  0  0  0  0  0  0  0  0  0
   -6.1741   20.4220  -34.0342 H   0  0  0  0  0  0  0  0  0  0  0  0
   -5.2954   17.6069  -34.7787 H   0  0  0  0  0  0  0  0  0  0  0  0
   -4.3368   19.0819  -34.8063 H   0  0  0  0  0  0  0  0  0  0  0  0
   -4.3155   17.2146  -32.7207 H   0  0  0  0  0  0  0  0  0  0  0  0
   -3.8346   18.9016  -32.5005 H   0  0  0  0  0  0  0  0  0  0  0  0
   -6.1698   17.5425  -31.4239 H   0  0  0  0  0  0  0  0  0  0  0  0
   -5.7220   19.2529  -31.1959 H   0  0  0  0  0  0  0  0  0  0  0  0
   -8.6062   22.1613  -30.1902 H   0  0  0  0  0  0  0  0  0  0  0  0
   -7.3328   24.1928  -29.5217 H   0  0  0  0  0  0  0  0  0  0  0  0
  1  2  2  0
  2  3  1  0
  3  4  1  0
  4  5  2  0
  5  6  1  0
  6  7  2  0
  7  8  1  0
  8  9  2  0
  8 10  2  0
  8 11  1  0
 11 12  1  0
 12 13  1  0
 13 14  1  0
 14 15  1  0
 15 16  1  0
  7 17  1  0
 17 18  2  0
  2 19  1  0
 19 20  2  0
 20 21  1  0
 21 22  2  0
 22 23  1  0
 23 24  2  0
 23 25  2  0
 23 26  1  0
 26 27  1  0
 27 28  1  0
 28 29  1  0
 29 30  1  0
 22 31  1  0
 31 32  2  0
 18  4  1  0
 32 19  1  0
 16 11  1  0
 30 26  1  0
  5 33  1  0
  6 34  1  0
 11 35  1  0
 12 36  1  0
 12 37  1  0
 13 38  1  0
 13 39  1  0
 15 40  1  0
 15 41  1  0
 16 42  1  0
 16 43  1  0
 17 44  1  0
 18 45  1  0
 20 46  1  0
 21 47  1  0
 27 48  1  0
 27 49  1  0
 28 50  1  0
 28 51  1  0
 29 52  1  0
 29 53  1  0
 30 54  1  0
 30 55  1  0
 31 56  1  0
 32 57  1  0
M  CHG  2   3  -1  11   1
M  END
>  <UniqueID>  (28) 
26

>  <SMILES>  (28) 
O=C([N-]c1ccc(S(=O)(=O)[NH+]2CCOCC2)cc1)c1ccc(S(=O)(=O)N2CCCC2)cc1

>  <Energy>  (28) 
75.00051448630013

>  <Genealogy>  (28) 
O=C([N-]c1ccc(S(=O)(=O)[NH+]2CCOCC2)cc1)c1ccc(S(=O)(=O)N2CCCC2)cc1 (protonated)
O=C([N-]c1ccc(S(=O)(=O)[NH+]2CCOCC2)cc1)c1ccc(S(=O)(=O)N2CCCC2)cc1 (3D coordinates assigned)
O=C([N-]c1ccc(S(=O)(=O)[NH+]2CCOCC2)cc1)c1ccc(S(=O)(=O)N2CCCC2)cc1 (nonaromatic ring conformer: 75.00051448630013 kcal/mol)

>  <smiles>  (28) 
O=C(Nc1ccc(S(=O)(=O)N2CCOCC2)cc1)c1ccc(S(=O)(=O)N2CCCC2)cc1

>  <score_type>  (28) 
oracle

>  <origin>  (28) 
adgpu

>  <m_score__min__energy>  (28) 
-12.6

>  <m_primary>  (28) 
energy

$$$$
28:0
     RDKit          3D

 54 57  0  0  0  0  0  0  0  0999 V2000
   -4.3440   25.9740  -30.4670 O   0  0  0  0  0  0  0  0  0  0  0  0
   -4.0510   24.7670  -30.2550 C   0  0  0  0  0  0  0  0  0  0  0  0
   -2.7540   24.4520  -29.7330 N   0  0  0  0  0  0  0  0  0  0  0  0
   -2.1930   24.9550  -28.5120 C   0  0  0  0  0  0  0  0  0  0  0  0
   -2.8930   24.7640  -27.3150 C   0  0  0  0  0  0  0  0  0  0  0  0
   -2.3780   25.2480  -26.1090 C   0  0  0  0  0  0  0  0  0  0  0  0
   -1.1630   25.9490  -26.0900 C   0  0  0  0  0  0  0  0  0  0  0  0
   -0.5200   26.5740  -24.5700 S   0  0  0  0  0  0  0  0  0  0  0  0
   -1.6040   26.5460  -23.5280 O   0  0  0  0  0  0  0  0  0  0  0  0
   -0.1020   28.0060  -24.7640 O   0  0  0  0  0  0  0  0  0  0  0  0
    0.8470   25.6370  -24.0090 N   0  0  0  0  0  0  0  0  0  0  0  0
    2.0550   26.4960  -23.9330 C   0  0  0  0  0  0  0  0  0  0  0  0
    3.3380   25.6600  -23.8810 C   0  0  0  0  0  0  0  0  0  0  0  0
    3.5030   24.8190  -25.1600 C   0  0  0  0  0  0  0  0  0  0  0  0
    2.1610   24.5150  -25.8480 C   0  0  0  0  0  0  0  0  0  0  0  0
    1.0250   24.4000  -24.8200 C   0  0  0  0  0  0  0  0  0  0  0  0
   -0.4690   26.1570  -27.2900 C   0  0  0  0  0  0  0  0  0  0  0  0
   -0.9860   25.6740  -28.4950 C   0  0  0  0  0  0  0  0  0  0  0  0
   -5.0690   23.7290  -30.5000 C   0  0  0  0  0  0  0  0  0  0  0  0
   -4.8680   22.5060  -31.1350 C   0  0  0  0  0  0  0  0  0  0  0  0
   -6.0300   21.7230  -31.2130 C   0  0  0  0  0  0  0  0  0  0  0  0
   -7.1370   22.3250  -30.6230 C   0  0  0  0  0  0  0  0  0  0  0  0
   -6.6760   23.8220  -30.0100 S   0  0  0  0  0  0  0  0  0  0  0  0
   -8.5220   21.7570  -30.5530 C   0  0  0  0  0  0  0  0  0  0  0  0
   -9.0900   21.4950  -31.9530 C   0  0  0  0  0  0  0  0  0  0  0  0
   -8.5240   20.2200  -32.6010 C   0  0  0  0  0  0  0  0  0  0  0  0
   -7.0580   20.3510  -33.0480 C   0  0  0  0  0  0  0  0  0  0  0  0
   -6.0700   20.3740  -31.8730 C   0  0  0  0  0  0  0  0  0  0  0  0
   -3.8545   24.2296  -27.3234 H   0  0  0  0  0  0  0  0  0  0  0  0
   -2.9275   25.0786  -25.1713 H   0  0  0  0  0  0  0  0  0  0  0  0
    0.6120   25.3410  -23.0320 H   0  0  0  0  0  0  0  0  0  0  0  0
    2.0877   27.1456  -24.8201 H   0  0  0  0  0  0  0  0  0  0  0  0
    1.9955   27.0934  -23.0112 H   0  0  0  0  0  0  0  0  0  0  0  0
    4.2019   26.3334  -23.7798 H   0  0  0  0  0  0  0  0  0  0  0  0
    3.2765   24.9784  -23.0198 H   0  0  0  0  0  0  0  0  0  0  0  0
    4.1424   25.3714  -25.8643 H   0  0  0  0  0  0  0  0  0  0  0  0
    3.9528   23.8580  -24.8700 H   0  0  0  0  0  0  0  0  0  0  0  0
    1.9268   25.3265  -26.5527 H   0  0  0  0  0  0  0  0  0  0  0  0
    2.2502   23.5555  -26.3784 H   0  0  0  0  0  0  0  0  0  0  0  0
    0.0867   24.1940  -25.3559 H   0  0  0  0  0  0  0  0  0  0  0  0
    1.2889   23.5873  -24.1273 H   0  0  0  0  0  0  0  0  0  0  0  0
    0.4862   26.7025  -27.2831 H   0  0  0  0  0  0  0  0  0  0  0  0
   -0.4452   25.8576  -29.4351 H   0  0  0  0  0  0  0  0  0  0  0  0
   -3.8950   22.1855  -31.5357 H   0  0  0  0  0  0  0  0  0  0  0  0
   -8.4925   20.8092  -29.9955 H   0  0  0  0  0  0  0  0  0  0  0  0
   -9.1707   22.4871  -30.0470 H   0  0  0  0  0  0  0  0  0  0  0  0
  -10.1825   21.3935  -31.8749 H   0  0  0  0  0  0  0  0  0  0  0  0
   -8.8016   22.3443  -32.5899 H   0  0  0  0  0  0  0  0  0  0  0  0
   -8.5924   19.3999  -31.8711 H   0  0  0  0  0  0  0  0  0  0  0  0
   -9.1196   20.0280  -33.5057 H   0  0  0  0  0  0  0  0  0  0  0  0
   -6.8118   19.4967  -33.6958 H   0  0  0  0  0  0  0  0  0  0  0  0
   -6.9609   21.3105  -33.5771 H   0  0  0  0  0  0  0  0  0  0  0  0
   -6.3790   19.6224  -31.1316 H   0  0  0  0  0  0  0  0  0  0  0  0
   -5.0658   20.1506  -32.2623 H   0  0  0  0  0  0  0  0  0  0  0  0
  1  2  2  0
  2  3  1  0
  3  4  1  0
  4  5  2  0
  5  6  1  0
  6  7  2  0
  7  8  1  0
  8  9  2  0
  8 10  2  0
  8 11  1  0
 11 12  1  0
 12 13  1  0
 13 14  1  0
 14 15  1  0
 15 16  1  0
  7 17  1  0
 17 18  2  0
  2 19  1  0
 19 20  2  0
 20 21  1  0
 21 22  2  0
 22 23  1  0
 22 24  1  0
 24 25  1  0
 25 26  1  0
 26 27  1  0
 27 28  1  0
 18  4  1  0
 23 19  1  0
 16 11  1  0
 28 21  1  0
  5 29  1  0
  6 30  1  0
 11 31  1  0
 12 32  1  0
 12 33  1  0
 13 34  1  0
 13 35  1  0
 14 36  1  0
 14 37  1  0
 15 38  1  0
 15 39  1  0
 16 40  1  0
 16 41  1  0
 17 42  1  0
 18 43  1  0
 20 44  1  0
 24 45  1  0
 24 46  1  0
 25 47  1  0
 25 48  1  0
 26 49  1  0
 26 50  1  0
 27 51  1  0
 27 52  1  0
 28 53  1  0
 28 54  1  0
M  CHG  2   3  -1  11   1
M  END
>  <UniqueID>  (29) 
27

>  <SMILES>  (29) 
O=C([N-]c1ccc(S(=O)(=O)[NH+]2CCCCC2)cc1)c1cc2c(s1)CCCCC2

>  <Energy>  (29) 
87.83414012912415

>  <Genealogy>  (29) 
O=C([N-]c1ccc(S(=O)(=O)[NH+]2CCCCC2)cc1)c1cc2c(s1)CCCCC2 (protonated)
O=C([N-]c1ccc(S(=O)(=O)[NH+]2CCCCC2)cc1)c1cc2c(s1)CCCCC2 (3D coordinates assigned)
O=C([N-]c1ccc(S(=O)(=O)[NH+]2CCCCC2)cc1)c1cc2c(s1)CCCCC2 (nonaromatic ring conformer: 87.83414012912415 kcal/mol)

>  <smiles>  (29) 
O=C(Nc1ccc(S(=O)(=O)N2CCCCC2)cc1)c1cc2c(s1)CCCCC2

>  <score_type>  (29) 
oracle

>  <origin>  (29) 
adgpu

>  <m_score__min__energy>  (29) 
-10.960000000000001

>  <m_primary>  (29) 
energy

$$$$
29:0
     RDKit          3D

 60 63  0  0  0  0  0  0  0  0999 V2000
   -6.4900   17.3190  -33.6300 C   0  0  0  0  0  0  0  0  0  0  0  0
   -5.7470   18.4460  -34.8520 S   0  0  0  0  0  0  0  0  0  0  0  0
   -5.5590   19.7920  -33.6750 C   0  0  0  0  0  0  0  0  0  0  0  0
   -6.6510   20.1830  -32.9670 N   0  0  0  0  0  0  0  0  0  0  0  0
   -6.5860   21.1410  -32.0040 C   0  0  0  0  0  0  0  0  0  0  0  0
   -7.8340   21.5540  -31.2880 C   0  0  0  0  0  0  0  0  0  0  0  0
   -5.3640   21.7580  -31.7210 C   0  0  0  0  0  0  0  0  0  0  0  0
   -4.2170   21.3840  -32.4280 C   0  0  0  0  0  0  0  0  0  0  0  0
   -2.6340   22.1380  -32.0070 S   0  0  0  0  0  0  0  0  0  0  0  0
   -2.8420   21.9090  -30.2310 C   0  0  0  0  0  0  0  0  0  0  0  0
   -2.9270   20.5890  -29.7630 C   0  0  0  0  0  0  0  0  0  0  0  0
   -3.0690   20.3210  -28.4000 C   0  0  0  0  0  0  0  0  0  0  0  0
   -3.1440   21.3710  -27.4890 C   0  0  0  0  0  0  0  0  0  0  0  0
   -3.0920   22.6910  -27.9360 C   0  0  0  0  0  0  0  0  0  0  0  0
   -2.9520   22.9930  -29.3100 C   0  0  0  0  0  0  0  0  0  0  0  0
   -2.9670   24.4280  -29.7250 C   0  0  0  0  0  0  0  0  0  0  0  0
   -3.9180   24.9000  -30.4050 O   0  0  0  0  0  0  0  0  0  0  0  0
   -1.8970   25.2960  -29.3340 N   0  0  0  0  0  0  0  0  0  0  0  0
   -0.7880   24.8690  -28.4930 C   0  0  0  0  0  0  0  0  0  0  0  0
   -0.8500   25.5970  -27.1800 C   0  0  0  0  0  0  0  0  0  0  0  0
   -0.6560   26.9880  -27.1240 C   0  0  0  0  0  0  0  0  0  0  0  0
   -0.7490   27.6650  -25.9020 C   0  0  0  0  0  0  0  0  0  0  0  0
   -1.0450   26.9600  -24.7320 C   0  0  0  0  0  0  0  0  0  0  0  0
   -1.2520   25.5790  -24.7820 C   0  0  0  0  0  0  0  0  0  0  0  0
   -1.1560   24.8960  -26.0020 C   0  0  0  0  0  0  0  0  0  0  0  0
   -4.3090   20.4050  -33.4370 C   0  0  0  0  0  0  0  0  0  0  0  0
   -3.1300   19.9840  -34.1430 N   0  0  0  0  0  0  0  0  0  0  0  0
   -2.4660   18.7400  -33.8780 C   0  0  0  0  0  0  0  0  0  0  0  0
   -2.9950   17.8870  -33.1130 O   0  0  0  0  0  0  0  0  0  0  0  0
   -1.2320   18.4530  -34.5460 N   0  0  0  0  0  0  0  0  0  0  0  0
   -0.2620   19.4120  -34.9950 C   0  0  0  0  0  0  0  0  0  0  0  0
   -0.1200   20.6130  -34.2850 C   0  0  0  0  0  0  0  0  0  0  0  0
    0.8390   21.5560  -34.6670 C   0  0  0  0  0  0  0  0  0  0  0  0
    1.6740   21.3020  -35.7600 C   0  0  0  0  0  0  0  0  0  0  0  0
    1.5560   20.0980  -36.4610 C   0  0  0  0  0  0  0  0  0  0  0  0
    0.5970   19.1510  -36.0800 C   0  0  0  0  0  0  0  0  0  0  0  0
   -6.2565   17.6731  -32.6151 H   0  0  0  0  0  0  0  0  0  0  0  0
   -7.5810   17.2959  -33.7683 H   0  0  0  0  0  0  0  0  0  0  0  0
   -6.0813   16.3072  -33.7683 H   0  0  0  0  0  0  0  0  0  0  0  0
   -7.6687   21.4993  -30.2019 H   0  0  0  0  0  0  0  0  0  0  0  0
   -8.0930   22.5858  -31.5680 H   0  0  0  0  0  0  0  0  0  0  0  0
   -8.6573   20.8804  -31.5680 H   0  0  0  0  0  0  0  0  0  0  0  0
   -5.3049   22.5351  -30.9447 H   0  0  0  0  0  0  0  0  0  0  0  0
   -2.8812   19.7549  -30.4787 H   0  0  0  0  0  0  0  0  0  0  0  0
   -3.1216   19.2808  -28.0463 H   0  0  0  0  0  0  0  0  0  0  0  0
   -3.2445   21.1590  -26.4143 H   0  0  0  0  0  0  0  0  0  0  0  0
   -3.1611   23.5116  -27.2067 H   0  0  0  0  0  0  0  0  0  0  0  0
   -0.8574   23.7856  -28.3158 H   0  0  0  0  0  0  0  0  0  0  0  0
    0.1637   25.0966  -28.9954 H   0  0  0  0  0  0  0  0  0  0  0  0
   -0.4302   27.5470  -28.0441 H   0  0  0  0  0  0  0  0  0  0  0  0
   -0.5890   28.7526  -25.8627 H   0  0  0  0  0  0  0  0  0  0  0  0
   -1.1150   27.4923  -23.7719 H   0  0  0  0  0  0  0  0  0  0  0  0
   -1.4909   25.0265  -23.8613 H   0  0  0  0  0  0  0  0  0  0  0  0
   -1.3206   23.8089  -26.0371 H   0  0  0  0  0  0  0  0  0  0  0  0
   -2.7950   20.5580  -34.9480 H   0  0  0  0  0  0  0  0  0  0  0  0
   -0.7688   20.8149  -33.4200 H   0  0  0  0  0  0  0  0  0  0  0  0
    0.9369   22.4981  -34.1077 H   0  0  0  0  0  0  0  0  0  0  0  0
    2.4218   22.0478  -36.0674 H   0  0  0  0  0  0  0  0  0  0  0  0
    2.2188   19.8938  -37.3148 H   0  0  0  0  0  0  0  0  0  0  0  0
    0.5146   18.2015  -36.6293 H   0  0  0  0  0  0  0  0  0  0  0  0
  1  2  1  0
  2  3  1  0
  3  4  2  0
  4  5  1  0
  5  6  1  0
  5  7  2  0
  7  8  1  0
  8  9  1  0
  9 10  1  0
 10 11  2  0
 11 12  1  0
 12 13  2  0
 13 14  1  0
 14 15  2  0
 15 16  1  0
 16 17  2  0
 16 18  1  0
 18 19  1  0
 19 20  1  0
 20 21  2  0
 21 22  1  0
 22 23  2  0
 23 24  1  0
 24 25  2  0
  8 26  2  0
 26 27  1  0
 27 28  1  0
 28 29  2  0
 28 30  1  0
 30 31  1  0
 31 32  2  0
 32 33  1  0
 33 34  2  0
 34 35  1  0
 35 36  2  0
 26  3  1  0
 36 31  1  0
 15 10  1  0
 25 20  1  0
  1 37  1  0
  1 38  1  0
  1 39  1  0
  6 40  1  0
  6 41  1  0
  6 42  1  0
  7 43  1  0
 11 44  1  0
 12 45  1  0
 13 46  1  0
 14 47  1  0
 19 48  1  0
 19 49  1  0
 21 50  1  0
 22 51  1  0
 23 52  1  0
 24 53  1  0
 25 54  1  0
 27 55  1  0
 32 56  1  0
 33 57  1  0
 34 58  1  0
 35 59  1  0
 36 60  1  0
M  CHG  2  18  -1  30  -1
M  END
>  <UniqueID>  (30) 
28

>  <SMILES>  (30) 
CSc1nc(C)cc(Sc2ccccc2C(=O)[N-]Cc2ccccc2)c1NC(=O)[N-]c1ccccc1

>  <Energy>  (30) 
66.57889180165863

>  <Genealogy>  (30) 
CSc1nc(C)cc(Sc2ccccc2C(=O)[N-]Cc2ccccc2)c1NC(=O)[N-]c1ccccc1 (protonated)
CSc1nc(C)cc(Sc2ccccc2C(=O)[N-]Cc2ccccc2)c1NC(=O)[N-]c1ccccc1 (3D coordinates assigned)
CSc1nc(C)cc(Sc2ccccc2C(=O)[N-]Cc2ccccc2)c1NC(=O)[N-]c1ccccc1 (optimized conformer: 66.57889180165863 kcal/mol)

>  <smiles>  (30) 
CSc1nc(C)cc(Sc2ccccc2C(=O)NCc2ccccc2)c1NC(=O)Nc1ccccc1

>  <score_type>  (30) 
oracle

>  <origin>  (30) 
adgpu

>  <m_score__min__energy>  (30) 
-11.84

>  <m_primary>  (30) 
energy

$$$$
30:0
     RDKit          3D

 35 37  0  0  0  0  0  0  0  0999 V2000
   -6.8800   17.6570  -32.8520 O   0  0  0  0  0  0  0  0  0  0  0  0
   -7.4130   18.7960  -32.7540 C   0  0  0  0  0  0  0  0  0  0  0  0
   -8.8290   18.8980  -32.2670 C   0  0  0  0  0  0  0  0  0  0  0  0
   -9.5820   20.5190  -32.6600 S   0  0  0  0  0  0  0  0  0  0  0  0
   -8.6710   21.4240  -31.4120 C   0  0  0  0  0  0  0  0  0  0  0  0
   -9.0960   21.6180  -30.1510 N   0  0  0  0  0  0  0  0  0  0  0  0
   -8.1420   22.3090  -29.5450 N   0  0  0  0  0  0  0  0  0  0  0  0
   -7.1760   22.5110  -30.4630 C   0  0  0  0  0  0  0  0  0  0  0  0
   -5.9140   23.2320  -30.2090 C   0  0  0  0  0  0  0  0  0  0  0  0
   -4.8780   22.6090  -29.4930 C   0  0  0  0  0  0  0  0  0  0  0  0
   -3.6880   23.2950  -29.2310 C   0  0  0  0  0  0  0  0  0  0  0  0
   -3.5200   24.6060  -29.6850 C   0  0  0  0  0  0  0  0  0  0  0  0
   -2.3380   25.2870  -29.4240 O   0  0  0  0  0  0  0  0  0  0  0  0
   -4.5430   25.2320  -30.4050 C   0  0  0  0  0  0  0  0  0  0  0  0
   -5.7350   24.5500  -30.6660 C   0  0  0  0  0  0  0  0  0  0  0  0
   -7.4990   21.9710  -31.6140 O   0  0  0  0  0  0  0  0  0  0  0  0
   -6.7010   19.9690  -33.1750 N   0  0  0  0  0  0  0  0  0  0  0  0
   -5.2670   20.0600  -33.2520 C   0  0  0  0  0  0  0  0  0  0  0  0
   -4.4840   19.0080  -33.7690 C   0  0  0  0  0  0  0  0  0  0  0  0
   -3.0910   19.1100  -33.7920 C   0  0  0  0  0  0  0  0  0  0  0  0
   -2.4630   20.2530  -33.2930 C   0  0  0  0  0  0  0  0  0  0  0  0
   -3.2280   21.2950  -32.7640 C   0  0  0  0  0  0  0  0  0  0  0  0
   -4.6230   21.1970  -32.7370 C   0  0  0  0  0  0  0  0  0  0  0  0
   -9.4252   18.1059  -32.7436 H   0  0  0  0  0  0  0  0  0  0  0  0
   -8.8178   18.7880  -31.1726 H   0  0  0  0  0  0  0  0  0  0  0  0
   -5.0037   21.5760  -29.1366 H   0  0  0  0  0  0  0  0  0  0  0  0
   -2.8828   22.8019  -28.6666 H   0  0  0  0  0  0  0  0  0  0  0  0
   -4.4093   26.2623  -30.7663 H   0  0  0  0  0  0  0  0  0  0  0  0
   -6.5371   25.0467  -31.2317 H   0  0  0  0  0  0  0  0  0  0  0  0
   -7.2640   20.8030  -33.4570 H   0  0  0  0  0  0  0  0  0  0  0  0
   -4.9726   18.1018  -34.1564 H   0  0  0  0  0  0  0  0  0  0  0  0
   -2.4874   18.2880  -34.2042 H   0  0  0  0  0  0  0  0  0  0  0  0
   -1.3661   20.3327  -33.3165 H   0  0  0  0  0  0  0  0  0  0  0  0
   -2.7327   22.1939  -32.3681 H   0  0  0  0  0  0  0  0  0  0  0  0
   -5.2199   22.0161  -32.3095 H   0  0  0  0  0  0  0  0  0  0  0  0
  1  2  2  0
  2  3  1  0
  3  4  1  0
  4  5  1  0
  5  6  2  0
  6  7  1  0
  7  8  2  0
  8  9  1  0
  9 10  2  0
 10 11  1  0
 11 12  2  0
 12 13  1  0
 12 14  1  0
 14 15  2  0
  8 16  1  0
  2 17  1  0
 17 18  1  0
 18 19  2  0
 19 20  1  0
 20 21  2  0
 21 22  1  0
 22 23  2  0
 16  5  1  0
 23 18  1  0
 15  9  1  0
  3 24  1  0
  3 25  1  0
 10 26  1  0
 11 27  1  0
 14 28  1  0
 15 29  1  0
 17 30  1  0
 19 31  1  0
 20 32  1  0
 21 33  1  0
 22 34  1  0
 23 35  1  0
M  CHG  1  13  -1
M  END
>  <UniqueID>  (31) 
29

>  <SMILES>  (31) 
O=C(CSc1nnc(-c2ccc([O-])cc2)o1)Nc1ccccc1

>  <Energy>  (31) 
68.8981313972657

>  <Genealogy>  (31) 
O=C(CSc1nnc(-c2ccc([O-])cc2)o1)Nc1ccccc1 (protonated)
O=C(CSc1nnc(-c2ccc([O-])cc2)o1)Nc1ccccc1 (3D coordinates assigned)
O=C(CSc1nnc(-c2ccc([O-])cc2)o1)Nc1ccccc1 (optimized conformer: 68.8981313972657 kcal/mol)

>  <smiles>  (31) 
O=C(CSc1nnc(-c2ccc(O)cc2)o1)Nc1ccccc1

>  <score_type>  (31) 
oracle

>  <origin>  (31) 
adgpu

>  <m_score__min__energy>  (31) 
-11.550000000000001

>  <m_primary>  (31) 
energy

$$$$
31:0
     RDKit          3D

 39 41  0  0  0  0  0  0  0  0999 V2000
   -2.4780   16.9500  -34.8190 C   0  0  0  0  0  0  0  0  0  0  0  0
   -3.8880   17.4130  -34.6740 C   0  0  0  0  0  0  0  0  0  0  0  0
   -4.5180   17.7250  -33.4890 C   0  0  0  0  0  0  0  0  0  0  0  0
   -5.7680   18.1620  -33.8910 C   0  0  0  0  0  0  0  0  0  0  0  0
   -6.8820   18.6250  -33.0320 C   0  0  0  0  0  0  0  0  0  0  0  0
   -7.7870   17.7170  -32.4530 C   0  0  0  0  0  0  0  0  0  0  0  0
   -8.8350   18.1800  -31.6530 C   0  0  0  0  0  0  0  0  0  0  0  0
   -8.9960   19.5470  -31.4260 C   0  0  0  0  0  0  0  0  0  0  0  0
   -8.1070   20.4630  -31.9990 C   0  0  0  0  0  0  0  0  0  0  0  0
   -8.3220   22.1930  -31.7440 S   0  0  0  0  0  0  0  0  0  0  0  0
   -8.3270   22.4640  -30.2660 O   0  0  0  0  0  0  0  0  0  0  0  0
   -9.6250   22.6560  -32.3330 O   0  0  0  0  0  0  0  0  0  0  0  0
   -7.0220   23.0730  -32.4830 N   0  0  0  0  0  0  0  0  0  0  0  0
   -5.9070   23.6170  -31.7550 C   0  0  0  0  0  0  0  0  0  0  0  0
   -6.0120   24.9020  -31.2040 C   0  0  0  0  0  0  0  0  0  0  0  0
   -4.9520   25.4540  -30.4800 C   0  0  0  0  0  0  0  0  0  0  0  0
   -3.7720   24.7290  -30.2970 C   0  0  0  0  0  0  0  0  0  0  0  0
   -2.7270   25.2970  -29.5760 O   0  0  0  0  0  0  0  0  0  0  0  0
   -3.6470   23.4380  -30.8410 C   0  0  0  0  0  0  0  0  0  0  0  0
   -2.3730   22.6610  -30.6630 C   0  0  0  0  0  0  0  0  0  0  0  0
   -4.7100   22.8950  -31.5810 C   0  0  0  0  0  0  0  0  0  0  0  0
   -7.0490   20.0000  -32.7930 C   0  0  0  0  0  0  0  0  0  0  0  0
   -5.8240   18.1090  -35.2040 O   0  0  0  0  0  0  0  0  0  0  0  0
   -4.7080   17.6690  -35.7090 N   0  0  0  0  0  0  0  0  0  0  0  0
   -2.0355   16.8047  -33.8225 H   0  0  0  0  0  0  0  0  0  0  0  0
   -2.4594   15.9986  -35.3707 H   0  0  0  0  0  0  0  0  0  0  0  0
   -1.8990   17.7052  -35.3707 H   0  0  0  0  0  0  0  0  0  0  0  0
   -4.1214   17.6456  -32.4661 H   0  0  0  0  0  0  0  0  0  0  0  0
   -7.6692   16.6379  -32.6307 H   0  0  0  0  0  0  0  0  0  0  0  0
   -9.5361   17.4634  -31.2003 H   0  0  0  0  0  0  0  0  0  0  0  0
   -9.8231   19.9053  -30.7956 H   0  0  0  0  0  0  0  0  0  0  0  0
   -7.1220   23.2980  -33.4990 H   0  0  0  0  0  0  0  0  0  0  0  0
   -6.9371   25.4807  -31.3429 H   0  0  0  0  0  0  0  0  0  0  0  0
   -5.0470   26.4631  -30.0526 H   0  0  0  0  0  0  0  0  0  0  0  0
   -2.1670   22.5354  -29.5898 H   0  0  0  0  0  0  0  0  0  0  0  0
   -2.4774   21.6727  -31.1345 H   0  0  0  0  0  0  0  0  0  0  0  0
   -1.5421   23.2062  -31.1345 H   0  0  0  0  0  0  0  0  0  0  0  0
   -4.6068   21.8958  -32.0293 H   0  0  0  0  0  0  0  0  0  0  0  0
   -6.3428   20.7193  -33.2332 H   0  0  0  0  0  0  0  0  0  0  0  0
  1  2  1  0
  2  3  1  0
  3  4  2  0
  4  5  1  0
  5  6  2  0
  6  7  1  0
  7  8  2  0
  8  9  1  0
  9 10  1  0
 10 11  2  0
 10 12  2  0
 10 13  1  0
 13 14  1  0
 14 15  2  0
 15 16  1  0
 16 17  2  0
 17 18  1  0
 17 19  1  0
 19 20  1  0
 19 21  2  0
  9 22  2  0
  4 23  1  0
 23 24  1  0
 24  2  2  0
 22  5  1  0
 21 14  1  0
  1 25  1  0
  1 26  1  0
  1 27  1  0
  3 28  1  0
  6 29  1  0
  7 30  1  0
  8 31  1  0
 13 32  1  0
 15 33  1  0
 16 34  1  0
 20 35  1  0
 20 36  1  0
 20 37  1  0
 21 38  1  0
 22 39  1  0
M  CHG  1  18  -1
M  END
>  <UniqueID>  (32) 
30

>  <SMILES>  (32) 
Cc1cc(-c2cccc(S(=O)(=O)Nc3ccc([O-])c(C)c3)c2)on1

>  <Energy>  (32) 
73.21616807137798

>  <Genealogy>  (32) 
Cc1cc(-c2cccc(S(=O)(=O)Nc3ccc([O-])c(C)c3)c2)on1 (protonated)
Cc1cc(-c2cccc(S(=O)(=O)Nc3ccc([O-])c(C)c3)c2)on1 (3D coordinates assigned)
Cc1cc(-c2cccc(S(=O)(=O)Nc3ccc([O-])c(C)c3)c2)on1 (optimized conformer: 73.21616807137798 kcal/mol)

>  <smiles>  (32) 
Cc1cc(-c2cccc(S(=O)(=O)Nc3ccc(O)c(C)c3)c2)on1

>  <score_type>  (32) 
oracle

>  <origin>  (32) 
adgpu

>  <m_score__min__energy>  (32) 
-12.4

>  <m_primary>  (32) 
energy

$$$$
32:0
     RDKit          3D

 38 40  0  0  0  0  0  0  0  0999 V2000
   -1.0100   23.5640  -28.5090 O   0  0  0  0  0  0  0  0  0  0  0  0
   -2.2270   23.6700  -28.8130 C   0  0  0  0  0  0  0  0  0  0  0  0
   -2.6220   24.6290  -29.6880 N   0  0  0  0  0  0  0  0  0  0  0  0
   -3.9260   24.7620  -30.0450 C   0  0  0  0  0  0  0  0  0  0  0  0
   -4.2530   25.6710  -30.8530 O   0  0  0  0  0  0  0  0  0  0  0  0
   -4.8900   23.8860  -29.5150 C   0  0  0  0  0  0  0  0  0  0  0  0
   -6.6020   23.9870  -29.9730 S   0  0  0  0  0  0  0  0  0  0  0  0
   -7.3200   22.7850  -29.4250 O   0  0  0  0  0  0  0  0  0  0  0  0
   -7.1980   25.2040  -29.3240 O   0  0  0  0  0  0  0  0  0  0  0  0
   -6.8740   24.1000  -31.7060 N   0  0  0  0  0  0  0  0  0  0  0  0
   -5.7140   23.7310  -32.5210 C   0  0  0  0  0  0  0  0  0  0  0  0
   -5.5070   22.2110  -32.6880 C   0  0  0  0  0  0  0  0  0  0  0  0
   -6.6560   21.3530  -32.3190 N   0  0  0  0  0  0  0  0  0  0  0  0
   -6.4550   19.9090  -32.2370 C   0  0  0  0  0  0  0  0  0  0  0  0
   -7.4510   19.0570  -31.7010 C   0  0  0  0  0  0  0  0  0  0  0  0
   -7.2400   17.6790  -31.6010 C   0  0  0  0  0  0  0  0  0  0  0  0
   -6.0400   17.1180  -32.0340 C   0  0  0  0  0  0  0  0  0  0  0  0
   -5.0470   17.9340  -32.5720 C   0  0  0  0  0  0  0  0  0  0  0  0
   -5.2480   19.3130  -32.6760 C   0  0  0  0  0  0  0  0  0  0  0  0
   -7.9890   21.9070  -32.0080 C   0  0  0  0  0  0  0  0  0  0  0  0
   -8.0810   23.4200  -32.1790 C   0  0  0  0  0  0  0  0  0  0  0  0
   -4.4610   22.9320  -28.5860 C   0  0  0  0  0  0  0  0  0  0  0  0
   -3.1450   22.8310  -28.2620 N   0  0  0  0  0  0  0  0  0  0  0  0
   -5.8419   24.1722  -33.5205 H   0  0  0  0  0  0  0  0  0  0  0  0
   -4.8270   24.1115  -31.9933 H   0  0  0  0  0  0  0  0  0  0  0  0
   -5.2692   22.0182  -33.7445 H   0  0  0  0  0  0  0  0  0  0  0  0
   -4.7016   21.9437  -31.9881 H   0  0  0  0  0  0  0  0  0  0  0  0
   -8.4043   19.4858  -31.3585 H   0  0  0  0  0  0  0  0  0  0  0  0
   -8.0248   17.0343  -31.1786 H   0  0  0  0  0  0  0  0  0  0  0  0
   -5.8771   16.0333  -31.9512 H   0  0  0  0  0  0  0  0  0  0  0  0
   -4.1009   17.4909  -32.9163 H   0  0  0  0  0  0  0  0  0  0  0  0
   -4.4566   19.9449  -33.1054 H   0  0  0  0  0  0  0  0  0  0  0  0
   -8.7249   21.4368  -32.6769 H   0  0  0  0  0  0  0  0  0  0  0  0
   -8.1866   21.6914  -30.9476 H   0  0  0  0  0  0  0  0  0  0  0  0
   -8.2226   23.6488  -33.2456 H   0  0  0  0  0  0  0  0  0  0  0  0
   -8.9302   23.7786  -31.5788 H   0  0  0  0  0  0  0  0  0  0  0  0
   -5.1932   22.2596  -28.1150 H   0  0  0  0  0  0  0  0  0  0  0  0
   -2.8410   22.1000  -27.5800 H   0  0  0  0  0  0  0  0  0  0  0  0
  1  2  2  0
  2  3  1  0
  3  4  1  0
  4  5  2  0
  4  6  1  0
  6  7  1  0
  7  8  2  0
  7  9  2  0
  7 10  1  0
 10 11  1  0
 11 12  1  0
 12 13  1  0
 13 14  1  0
 14 15  2  0
 15 16  1  0
 16 17  2  0
 17 18  1  0
 18 19  2  0
 13 20  1  0
 20 21  1  0
  6 22  2  0
 22 23  1  0
 23  2  1  0
 21 10  1  0
 19 14  1  0
 11 24  1  0
 11 25  1  0
 12 26  1  0
 12 27  1  0
 15 28  1  0
 16 29  1  0
 17 30  1  0
 18 31  1  0
 19 32  1  0
 20 33  1  0
 20 34  1  0
 21 35  1  0
 21 36  1  0
 22 37  1  0
 23 38  1  0
M  CHG  1   3  -1
M  END
>  <UniqueID>  (33) 
31

>  <SMILES>  (33) 
O=c1[n-]c(=O)c(S(=O)(=O)N2CCN(c3ccccc3)CC2)c[nH]1

>  <Energy>  (33) 
52.70695331769724

>  <Genealogy>  (33) 
O=c1[n-]c(=O)c(S(=O)(=O)N2CCN(c3ccccc3)CC2)c[nH]1 (protonated)
O=c1[n-]c(=O)c(S(=O)(=O)N2CCN(c3ccccc3)CC2)c[nH]1 (3D coordinates assigned)
O=c1[n-]c(=O)c(S(=O)(=O)N2CCN(c3ccccc3)CC2)c[nH]1 (nonaromatic ring conformer: 52.70695331769724 kcal/mol)

>  <smiles>  (33) 
O=c1[nH]cc(S(=O)(=O)N2CCN(c3ccccc3)CC2)c(=O)[nH]1

>  <score_type>  (33) 
oracle

>  <origin>  (33) 
adgpu

>  <m_score__min__energy>  (33) 
-8.8300000000000001

>  <m_primary>  (33) 
energy

$$$$
33:0
     RDKit          3D

 45 47  0  0  0  0  0  0  0  0999 V2000
   -8.6130   22.9226  -30.8726 H   0  0  0  0  0  0  0  0  0  0  0  0
   -7.7130   22.5090  -31.3510 C   0  0  0  0  0  0  0  0  0  0  0  0
   -7.7620   21.2480  -31.9520 C   0  0  0  0  0  0  0  0  0  0  0  0
   -8.6982   20.6707  -31.9401 H   0  0  0  0  0  0  0  0  0  0  0  0
   -6.6210   20.7170  -32.5700 C   0  0  0  0  0  0  0  0  0  0  0  0
   -6.6630   19.1180  -33.3110 S   0  0  0  0  0  0  0  0  0  0  0  0
   -6.4550   19.2770  -34.7910 O   0  0  0  0  0  0  0  0  0  0  0  0
   -8.0110   18.4890  -33.0880 O   0  0  0  0  0  0  0  0  0  0  0  0
   -5.3970   18.1030  -32.6530 N   0  0  0  0  0  0  0  0  0  0  0  0
   -5.7110   16.6690  -32.7870 C   0  0  0  0  0  0  0  0  0  0  0  0
   -5.0485   16.0995  -32.1186 H   0  0  0  0  0  0  0  0  0  0  0  0
   -6.7698   16.5340  -32.5211 H   0  0  0  0  0  0  0  0  0  0  0  0
   -5.5220   16.1510  -34.2290 C   0  0  0  0  0  0  0  0  0  0  0  0
   -5.3613   15.0636  -34.1882 H   0  0  0  0  0  0  0  0  0  0  0  0
   -6.4297   16.4228  -34.7877 H   0  0  0  0  0  0  0  0  0  0  0  0
   -4.3840   16.7620  -34.9380 N   0  0  0  0  0  0  0  0  0  0  0  0
   -4.7360   17.5070  -35.5860 H   0  0  0  0  0  0  0  0  0  0  0  0
   -3.4080   17.3650  -34.0260 C   0  0  0  0  0  0  0  0  0  0  0  0
   -3.0102   16.5868  -33.3581 H   0  0  0  0  0  0  0  0  0  0  0  0
   -2.5976   17.8100  -34.6220 H   0  0  0  0  0  0  0  0  0  0  0  0
   -4.0610   18.4720  -33.1780 C   0  0  0  0  0  0  0  0  0  0  0  0
   -3.4010   18.6934  -32.3263 H   0  0  0  0  0  0  0  0  0  0  0  0
   -4.2004   19.3434  -33.8347 H   0  0  0  0  0  0  0  0  0  0  0  0
   -5.4300   21.4540  -32.5740 C   0  0  0  0  0  0  0  0  0  0  0  0
   -4.5303   21.0385  -33.0514 H   0  0  0  0  0  0  0  0  0  0  0  0
   -5.3800   22.7150  -31.9740 C   0  0  0  0  0  0  0  0  0  0  0  0
   -4.4429   23.2909  -31.9867 H   0  0  0  0  0  0  0  0  0  0  0  0
   -6.5210   23.2500  -31.3550 C   0  0  0  0  0  0  0  0  0  0  0  0
   -6.4820   24.6150  -30.7240 C   0  0  0  0  0  0  0  0  0  0  0  0
   -7.5100   24.9542  -30.5289 H   0  0  0  0  0  0  0  0  0  0  0  0
   -5.9792   25.3124  -31.4101 H   0  0  0  0  0  0  0  0  0  0  0  0
   -5.7420   24.5700  -29.4650 N   0  0  0  0  0  0  0  0  0  0  0  0
   -6.2910   24.5750  -28.5780 H   0  0  0  0  0  0  0  0  0  0  0  0
   -4.3080   24.6470  -29.4160 C   0  0  0  0  0  0  0  0  0  0  0  0
   -3.6570   24.9280  -30.4570 O   0  0  0  0  0  0  0  0  0  0  0  0
   -3.5920   24.4730  -28.1840 N   0  0  0  0  0  0  0  0  0  0  0  0
   -2.3940   24.9040  -27.9260 C   0  0  0  0  0  0  0  0  0  0  0  0
   -1.6610   25.6760  -28.7610 N   0  0  0  0  0  0  0  0  0  0  0  0
   -0.4830   26.0240  -28.2450 N   0  0  0  0  0  0  0  0  0  0  0  0
   -0.2720   25.5270  -27.0050 C   0  0  0  0  0  0  0  0  0  0  0  0
    0.9350   25.8380  -26.1820 C   0  0  0  0  0  0  0  0  0  0  0  0
    1.7680   26.6830  -26.8920 F   0  0  0  0  0  0  0  0  0  0  0  0
    0.5560   26.4560  -25.0050 F   0  0  0  0  0  0  0  0  0  0  0  0
    1.6170   24.6740  -25.8810 F   0  0  0  0  0  0  0  0  0  0  0  0
   -1.6010   24.6350  -26.4680 S   0  0  0  0  0  0  0  0  0  0  0  0
  1  2  1  0
  2  3  2  0
  3  4  1  0
  3  5  1  0
  5  6  1  0
  6  7  2  0
  6  8  2  0
  6  9  1  0
  9 10  1  0
 10 11  1  0
 10 12  1  0
 10 13  1  0
 13 14  1  0
 13 15  1  0
 13 16  1  0
 16 17  1  0
 16 18  1  0
 18 19  1  0
 18 20  1  0
 18 21  1  0
 21 22  1  0
 21 23  1  0
  5 24  2  0
 24 25  1  0
 24 26  1  0
 26 27  1  0
 26 28  2  0
 28 29  1  0
 29 30  1  0
 29 31  1  0
 29 32  1  0
 32 33  1  0
 32 34  1  0
 34 35  2  0
 34 36  1  0
 36 37  2  0
 37 38  1  0
 38 39  1  0
 39 40  2  0
 40 41  1  0
 41 42  1  0
 41 43  1  0
 41 44  1  0
 40 45  1  0
 28  2  1  0
 45 37  1  0
 21  9  1  0
M  CHG  1  38  -1
M  END
>  <UniqueID>  (34) 
32

>  <SMILES>  (34) 
O=C(/N=c1\[n-]nc(C(F)(F)F)s1)NCc1ccc(S(=O)(=O)N2CCNCC2)cc1

>  <Energy>  (34) 
90.79501918411412

>  <Genealogy>  (34) 
O=C(N=c1[n-]nc(C(F)(F)F)s1)NCc1ccc(S(=O)(=O)N2CCNCC2)cc1 (protonated)
O=C(/N=c1\[n-]nc(C(F)(F)F)s1)NCc1ccc(S(=O)(=O)N2CCNCC2)cc1 (cis-trans isomerization)
O=C(/N=c1\[n-]nc(C(F)(F)F)s1)NCc1ccc(S(=O)(=O)N2CCNCC2)cc1 (3D coordinates assigned)
O=C(/N=c1\[n-]nc(C(F)(F)F)s1)NCc1ccc(S(=O)(=O)N2CCNCC2)cc1 (nonaromatic ring conformer: 90.79501918411412 kcal/mol)

>  <smiles>  (34) 
O=C(N=c1[nH]nc(C(F)(F)F)s1)NCc1ccc(S(=O)(=O)N2CCNCC2)cc1

>  <score_type>  (34) 
oracle

>  <origin>  (34) 
adgpu

>  <m_score__min__energy>  (34) 
-10.43

>  <m_primary>  (34) 
energy

$$$$
34:0
     RDKit          3D

 63 66  0  0  0  0  0  0  0  0999 V2000
   -2.4970   24.5350  -27.9990 C   0  0  0  0  0  0  0  0  0  0  0  0
   -2.0810   23.1850  -28.5030 C   0  0  0  0  0  0  0  0  0  0  0  0
   -2.5750   22.0150  -27.9110 C   0  0  0  0  0  0  0  0  0  0  0  0
   -2.2100   20.7660  -28.4190 C   0  0  0  0  0  0  0  0  0  0  0  0
   -1.3570   20.6960  -29.5280 C   0  0  0  0  0  0  0  0  0  0  0  0
   -1.0370   19.5320  -30.0160 N   0  0  0  0  0  0  0  0  0  0  0  0
   -0.1550   19.2860  -31.1240 C   0  0  0  0  0  0  0  0  0  0  0  0
    0.6550   18.3240  -31.0520 O   0  0  0  0  0  0  0  0  0  0  0  0
   -0.1350   20.1560  -32.3230 C   0  0  0  0  0  0  0  0  0  0  0  0
    1.0770   20.3850  -32.9910 C   0  0  0  0  0  0  0  0  0  0  0  0
    1.0980   21.1920  -34.1300 C   0  0  0  0  0  0  0  0  0  0  0  0
   -0.0520   21.7460  -34.5940 N   0  0  0  0  0  0  0  0  0  0  0  0
   -1.2420   21.5420  -33.9730 C   0  0  0  0  0  0  0  0  0  0  0  0
   -1.3130   20.7480  -32.8210 C   0  0  0  0  0  0  0  0  0  0  0  0
   -2.5740   20.5820  -32.1640 N   0  0  0  0  0  0  0  0  0  0  0  0
   -3.5480   19.7010  -32.7370 C   0  0  0  0  0  0  0  0  0  0  0  0
   -3.3000   19.0500  -33.9560 C   0  0  0  0  0  0  0  0  0  0  0  0
   -4.2330   18.1480  -34.4750 C   0  0  0  0  0  0  0  0  0  0  0  0
   -5.4060   17.8690  -33.7680 C   0  0  0  0  0  0  0  0  0  0  0  0
   -5.6490   18.4960  -32.5360 C   0  0  0  0  0  0  0  0  0  0  0  0
   -6.7860   18.1480  -31.7420 N   0  0  0  0  0  0  0  0  0  0  0  0
   -8.0440   18.8400  -31.7450 C   0  0  0  0  0  0  0  0  0  0  0  0
   -9.0890   18.1750  -31.9790 O   0  0  0  0  0  0  0  0  0  0  0  0
   -8.1310   20.3280  -31.6670 C   0  0  0  0  0  0  0  0  0  0  0  0
   -9.3470   20.9580  -31.9790 C   0  0  0  0  0  0  0  0  0  0  0  0
   -9.4490   22.3470  -31.9620 C   0  0  0  0  0  0  0  0  0  0  0  0
   -8.3480   23.1330  -31.6220 C   0  0  0  0  0  0  0  0  0  0  0  0
   -7.1090   22.5400  -31.2900 C   0  0  0  0  0  0  0  0  0  0  0  0
   -5.8840   23.3630  -30.8290 C   0  0  0  0  0  0  0  0  0  0  0  0
   -6.1150   24.8910  -30.9350 C   0  0  0  0  0  0  0  0  0  0  0  0
   -5.5800   23.0250  -29.3530 C   0  0  0  0  0  0  0  0  0  0  0  0
   -4.6450   23.0220  -31.6970 C   0  0  0  0  0  0  0  0  0  0  0  0
   -7.0290   21.1300  -31.3120 C   0  0  0  0  0  0  0  0  0  0  0  0
   -4.7410   19.4440  -32.0490 C   0  0  0  0  0  0  0  0  0  0  0  0
   -0.9110   21.8490  -30.1030 N   0  0  0  0  0  0  0  0  0  0  0  0
   -1.2490   23.0740  -29.6240 C   0  0  0  0  0  0  0  0  0  0  0  0
   -2.4961   24.5320  -26.8990 H   0  0  0  0  0  0  0  0  0  0  0  0
   -1.7917   25.2960  -28.3642 H   0  0  0  0  0  0  0  0  0  0  0  0
   -3.5083   24.7671  -28.3642 H   0  0  0  0  0  0  0  0  0  0  0  0
   -3.2508   22.0801  -27.0455 H   0  0  0  0  0  0  0  0  0  0  0  0
   -2.5892   19.8450  -27.9521 H   0  0  0  0  0  0  0  0  0  0  0  0
    2.0071   19.9306  -32.6189 H   0  0  0  0  0  0  0  0  0  0  0  0
    2.0476   21.3795  -34.6526 H   0  0  0  0  0  0  0  0  0  0  0  0
   -2.1556   22.0028  -34.3767 H   0  0  0  0  0  0  0  0  0  0  0  0
   -2.5560   20.6500  -31.1220 H   0  0  0  0  0  0  0  0  0  0  0  0
   -2.3679   19.2506  -34.5046 H   0  0  0  0  0  0  0  0  0  0  0  0
   -4.0439   17.6571  -35.4410 H   0  0  0  0  0  0  0  0  0  0  0  0
   -6.1388   17.1580  -34.1772 H   0  0  0  0  0  0  0  0  0  0  0  0
  -10.2258   20.3495  -32.2388 H   0  0  0  0  0  0  0  0  0  0  0  0
  -10.4046   22.8275  -32.2185 H   0  0  0  0  0  0  0  0  0  0  0  0
   -8.4454   24.2286  -31.6122 H   0  0  0  0  0  0  0  0  0  0  0  0
   -6.1803   25.3229  -29.9254 H   0  0  0  0  0  0  0  0  0  0  0  0
   -5.2763   25.3519  -31.4774 H   0  0  0  0  0  0  0  0  0  0  0  0
   -7.0524   25.0834  -31.4774 H   0  0  0  0  0  0  0  0  0  0  0  0
   -6.1706   23.6817  -28.6973 H   0  0  0  0  0  0  0  0  0  0  0  0
   -5.8442   21.9757  -29.1552 H   0  0  0  0  0  0  0  0  0  0  0  0
   -4.5086   23.1769  -29.1552 H   0  0  0  0  0  0  0  0  0  0  0  0
   -3.7924   22.7873  -31.0428 H   0  0  0  0  0  0  0  0  0  0  0  0
   -4.8702   22.1524  -32.3319 H   0  0  0  0  0  0  0  0  0  0  0  0
   -4.3936   23.8843  -32.3319 H   0  0  0  0  0  0  0  0  0  0  0  0
   -6.0790   20.6445  -31.0443 H   0  0  0  0  0  0  0  0  0  0  0  0
   -4.9656   19.9901  -31.1209 H   0  0  0  0  0  0  0  0  0  0  0  0
   -0.8686   23.9806  -30.1174 H   0  0  0  0  0  0  0  0  0  0  0  0
  1  2  1  0
  2  3  1  0
  3  4  2  0
  4  5  1  0
  5  6  2  3
  6  7  1  0
  7  8  2  0
  7  9  1  0
  9 10  2  0
 10 11  1  0
 11 12  2  0
 12 13  1  0
 13 14  2  0
 14 15  1  0
 15 16  1  0
 16 17  2  0
 17 18  1  0
 18 19  2  0
 19 20  1  0
 20 21  1  0
 21 22  1  0
 22 23  2  0
 22 24  1  0
 24 25  2  0
 25 26  1  0
 26 27  2  0
 27 28  1  0
 28 29  1  0
 29 30  1  0
 29 31  1  0
 29 32  1  0
 28 33  2  0
 20 34  2  0
  5 35  1  0
 35 36  1  0
 36  2  2  0
 14  9  1  0
 34 16  1  0
 33 24  1  0
  1 37  1  0
  1 38  1  0
  1 39  1  0
  3 40  1  0
  4 41  1  0
 10 42  1  0
 11 43  1  0
 13 44  1  0
 15 45  1  0
 17 46  1  0
 18 47  1  0
 19 48  1  0
 25 49  1  0
 26 50  1  0
 27 51  1  0
 30 52  1  0
 30 53  1  0
 30 54  1  0
 31 55  1  0
 31 56  1  0
 31 57  1  0
 32 58  1  0
 32 59  1  0
 32 60  1  0
 33 61  1  0
 34 62  1  0
 36 63  1  0
M  CHG  2  21  -1  35  -1
M  END
>  <UniqueID>  (35) 
33

>  <SMILES>  (35) 
Cc1ccc(=NC(=O)c2ccncc2Nc2cccc([N-]C(=O)c3cccc(C(C)(C)C)c3)c2)[n-]c1

>  <Energy>  (35) 
99.74657971911157

>  <Genealogy>  (35) 
Cc1ccc(=NC(=O)c2ccncc2Nc2cccc([N-]C(=O)c3cccc(C(C)(C)C)c3)c2)[n-]c1 (protonated)
Cc1ccc(=NC(=O)c2ccncc2Nc2cccc([N-]C(=O)c3cccc(C(C)(C)C)c3)c2)[n-]c1 (3D coordinates assigned)
Cc1ccc(=NC(=O)c2ccncc2Nc2cccc([N-]C(=O)c3cccc(C(C)(C)C)c3)c2)[n-]c1 (optimized conformer: 99.74657971911157 kcal/mol)

>  <smiles>  (35) 
Cc1ccc(=NC(=O)c2ccncc2Nc2cccc(NC(=O)c3cccc(C(C)(C)C)c3)c2)[nH]c1

>  <score_type>  (35) 
oracle

>  <origin>  (35) 
adgpu

>  <m_score__min__energy>  (35) 
-13.029999999999999

>  <m_primary>  (35) 
energy

$$$$
35:0
     RDKit          3D

 46 48  0  0  0  0  0  0  0  0999 V2000
   -5.7550   17.4280  -34.9460 C   0  0  0  0  0  0  0  0  0  0  0  0
   -6.3830   16.3300  -34.1900 N   0  0  0  0  0  0  0  0  0  0  0  0
   -5.3380   15.4630  -33.6230 C   0  0  0  0  0  0  0  0  0  0  0  0
   -7.2400   16.8610  -33.1090 C   0  0  0  0  0  0  0  0  0  0  0  0
   -6.7840   18.2370  -32.6970 C   0  0  0  0  0  0  0  0  0  0  0  0
   -7.5750   19.3550  -32.9940 C   0  0  0  0  0  0  0  0  0  0  0  0
   -7.1510   20.6380  -32.6310 C   0  0  0  0  0  0  0  0  0  0  0  0
   -5.9240   20.8230  -31.9700 C   0  0  0  0  0  0  0  0  0  0  0  0
   -5.4710   22.1850  -31.5860 C   0  0  0  0  0  0  0  0  0  0  0  0
   -6.2420   23.3120  -31.9150 C   0  0  0  0  0  0  0  0  0  0  0  0
   -5.8170   24.5910  -31.5510 C   0  0  0  0  0  0  0  0  0  0  0  0
   -4.6190   24.7660  -30.8550 C   0  0  0  0  0  0  0  0  0  0  0  0
   -4.2390   26.0490  -30.4750 O   0  0  0  0  0  0  0  0  0  0  0  0
   -3.8230   23.6500  -30.5260 C   0  0  0  0  0  0  0  0  0  0  0  0
   -2.5380   23.8090  -29.8030 C   0  0  0  0  0  0  0  0  0  0  0  0
   -1.4710   22.9260  -30.0370 C   0  0  0  0  0  0  0  0  0  0  0  0
   -0.2650   23.0710  -29.3450 C   0  0  0  0  0  0  0  0  0  0  0  0
   -0.1020   24.1010  -28.4010 C   0  0  0  0  0  0  0  0  0  0  0  0
    1.1750   24.2580  -27.6670 C   0  0  0  0  0  0  0  0  0  0  0  0
    1.8260   23.1260  -27.0940 N   0  0  0  0  0  0  0  0  0  0  0  0
    1.7010   25.3970  -27.5420 O   0  0  0  0  0  0  0  0  0  0  0  0
   -1.1750   24.9800  -28.1630 C   0  0  0  0  0  0  0  0  0  0  0  0
   -2.3800   24.8320  -28.8540 C   0  0  0  0  0  0  0  0  0  0  0  0
   -4.2620   22.3650  -30.8910 C   0  0  0  0  0  0  0  0  0  0  0  0
   -5.1320   19.6980  -31.6790 C   0  0  0  0  0  0  0  0  0  0  0  0
   -5.5570   18.4170  -32.0400 C   0  0  0  0  0  0  0  0  0  0  0  0
   -5.3346   18.1631  -34.2439 H   0  0  0  0  0  0  0  0  0  0  0  0
   -4.9512   17.0244  -35.5792 H   0  0  0  0  0  0  0  0  0  0  0  0
   -6.5104   17.9162  -35.5792 H   0  0  0  0  0  0  0  0  0  0  0  0
   -5.3852   15.5021  -32.5247 H   0  0  0  0  0  0  0  0  0  0  0  0
   -5.4973   14.4282  -33.9602 H   0  0  0  0  0  0  0  0  0  0  0  0
   -4.3503   15.8106  -33.9602 H   0  0  0  0  0  0  0  0  0  0  0  0
   -8.2790   16.9164  -33.4658 H   0  0  0  0  0  0  0  0  0  0  0  0
   -7.1709   16.1899  -32.2401 H   0  0  0  0  0  0  0  0  0  0  0  0
   -8.5346   19.2232  -33.5154 H   0  0  0  0  0  0  0  0  0  0  0  0
   -7.7822   21.5081  -32.8644 H   0  0  0  0  0  0  0  0  0  0  0  0
   -7.1873   23.1860  -32.4633 H   0  0  0  0  0  0  0  0  0  0  0  0
   -6.4294   25.4661  -31.8140 H   0  0  0  0  0  0  0  0  0  0  0  0
   -1.5852   22.1142  -30.7704 H   0  0  0  0  0  0  0  0  0  0  0  0
    0.5632   22.3739  -29.5403 H   0  0  0  0  0  0  0  0  0  0  0  0
    2.8210   23.1790  -26.7810 H   0  0  0  0  0  0  0  0  0  0  0  0
   -1.0639   25.7900  -27.4271 H   0  0  0  0  0  0  0  0  0  0  0  0
   -3.2122   25.5227  -28.6531 H   0  0  0  0  0  0  0  0  0  0  0  0
   -3.6512   21.4884  -30.6292 H   0  0  0  0  0  0  0  0  0  0  0  0
   -4.1694   19.8277  -31.1626 H   0  0  0  0  0  0  0  0  0  0  0  0
   -4.9270   17.5455  -31.8082 H   0  0  0  0  0  0  0  0  0  0  0  0
  1  2  1  0
  2  3  1  0
  2  4  1  0
  4  5  1  0
  5  6  2  0
  6  7  1  0
  7  8  2  0
  8  9  1  0
  9 10  2  0
 10 11  1  0
 11 12  2  0
 12 13  1  0
 12 14  1  0
 14 15  1  0
 15 16  2  0
 16 17  1  0
 17 18  2  0
 18 19  1  0
 19 20  1  0
 19 21  2  0
 18 22  1  0
 22 23  2  0
 14 24  2  0
  8 25  1  0
 25 26  2  0
 26  5  1  0
 24  9  1  0
 23 15  1  0
  1 27  1  0
  1 28  1  0
  1 29  1  0
  3 30  1  0
  3 31  1  0
  3 32  1  0
  4 33  1  0
  4 34  1  0
  6 35  1  0
  7 36  1  0
 10 37  1  0
 11 38  1  0
 16 39  1  0
 17 40  1  0
 20 41  1  0
 22 42  1  0
 23 43  1  0
 24 44  1  0
 25 45  1  0
 26 46  1  0
M  CHG  2  13  -1  20  -1
M  END
>  <UniqueID>  (36) 
34

>  <SMILES>  (36) 
CN(C)Cc1ccc(-c2ccc([O-])c(-c3ccc(C([NH-])=O)cc3)c2)cc1

>  <Energy>  (36) 
60.15247319062576

>  <Genealogy>  (36) 
CN(C)Cc1ccc(-c2ccc([O-])c(-c3ccc(C([NH-])=O)cc3)c2)cc1 (protonated)
CN(C)Cc1ccc(-c2ccc([O-])c(-c3ccc(C([NH-])=O)cc3)c2)cc1 (3D coordinates assigned)
CN(C)Cc1ccc(-c2ccc([O-])c(-c3ccc(C([NH-])=O)cc3)c2)cc1 (optimized conformer: 60.15247319062576 kcal/mol)

>  <smiles>  (36) 
CN(C)Cc1ccc(-c2ccc(O)c(-c3ccc(C(N)=O)cc3)c2)cc1

>  <score_type>  (36) 
oracle

>  <origin>  (36) 
adgpu

>  <m_score__min__energy>  (36) 
-10.789999999999999

>  <m_primary>  (36) 
energy

$$$$
36:0
     RDKit          3D

 72 75  0  0  0  0  0  0  0  0999 V2000
   -1.6860   22.5040  -29.7320 C   0  0  0  0  0  0  0  0  0  0  0  0
   -2.7480   22.0030  -30.7410 C   0  0  0  0  0  0  0  0  0  0  0  0
   -3.1360   20.5620  -30.3160 C   0  0  0  0  0  0  0  0  0  0  0  0
   -2.1250   21.9000  -32.1540 C   0  0  0  0  0  0  0  0  0  0  0  0
   -3.9600   22.9760  -30.7560 C   0  0  0  0  0  0  0  0  0  0  0  0
   -4.0830   24.0200  -29.7980 C   0  0  0  0  0  0  0  0  0  0  0  0
   -5.1590   24.9060  -29.8240 C   0  0  0  0  0  0  0  0  0  0  0  0
   -6.1390   24.7920  -30.8020 C   0  0  0  0  0  0  0  0  0  0  0  0
   -6.0530   23.7820  -31.7570 C   0  0  0  0  0  0  0  0  0  0  0  0
   -4.9800   22.8680  -31.7460 C   0  0  0  0  0  0  0  0  0  0  0  0
   -4.9440   21.8230  -32.6840 O   0  0  0  0  0  0  0  0  0  0  0  0
   -5.8440   20.7540  -32.7230 C   0  0  0  0  0  0  0  0  0  0  0  0
   -7.1590   20.9960  -32.4740 N   0  0  0  0  0  0  0  0  0  0  0  0
   -8.0830   19.9990  -32.4550 C   0  0  0  0  0  0  0  0  0  0  0  0
   -7.6950   18.6830  -32.7010 C   0  0  0  0  0  0  0  0  0  0  0  0
   -6.3520   18.3990  -32.9520 C   0  0  0  0  0  0  0  0  0  0  0  0
   -5.4050   19.4400  -32.9780 C   0  0  0  0  0  0  0  0  0  0  0  0
   -4.0010   19.1880  -33.1490 N   0  0  0  0  0  0  0  0  0  0  0  0
   -3.3320   17.9370  -32.9730 C   0  0  0  0  0  0  0  0  0  0  0  0
   -3.9920   16.8820  -32.7790 O   0  0  0  0  0  0  0  0  0  0  0  0
   -1.9050   17.8900  -33.1100 N   0  0  0  0  0  0  0  0  0  0  0  0
   -1.0520   18.9530  -33.5500 C   0  0  0  0  0  0  0  0  0  0  0  0
   -1.4320   19.8480  -34.5680 C   0  0  0  0  0  0  0  0  0  0  0  0
   -0.5450   20.8340  -35.0110 C   0  0  0  0  0  0  0  0  0  0  0  0
    0.7460   20.9210  -34.4670 C   0  0  0  0  0  0  0  0  0  0  0  0
    1.7220   21.9510  -34.9760 C   0  0  0  0  0  0  0  0  0  0  0  0
    1.0870   22.9080  -35.9910 C   0  0  0  0  0  0  0  0  0  0  0  0
    0.9550   24.2580  -35.4230 N   0  0  0  0  0  0  0  0  0  0  0  0
    1.1620   25.2730  -36.4660 C   0  0  0  0  0  0  0  0  0  0  0  0
    2.1820   26.3370  -36.0260 C   0  0  2  0  0  0  0  0  0  0  0  0
    2.8050   25.9370  -34.8300 O   0  0  0  0  0  0  0  0  0  0  0  0
    1.5270   27.6950  -35.8650 C   0  0  0  0  0  0  0  0  0  0  0  0
    0.3050   27.9710  -36.4980 C   0  0  0  0  0  0  0  0  0  0  0  0
   -0.3000   29.2210  -36.3390 C   0  0  0  0  0  0  0  0  0  0  0  0
    0.3150   30.1840  -35.5380 C   0  0  0  0  0  0  0  0  0  0  0  0
    1.4900   29.9000  -34.9150 N   0  0  0  0  0  0  0  0  0  0  0  0
    2.1000   28.6920  -35.0540 C   0  0  0  0  0  0  0  0  0  0  0  0
    1.1230   20.0270  -33.4540 C   0  0  0  0  0  0  0  0  0  0  0  0
    0.2340   19.0480  -33.0070 C   0  0  0  0  0  0  0  0  0  0  0  0
   -2.0458   22.3343  -28.7064 H   0  0  0  0  0  0  0  0  0  0  0  0
   -0.7456   21.9545  -29.8863 H   0  0  0  0  0  0  0  0  0  0  0  0
   -1.5120   23.5791  -29.8863 H   0  0  0  0  0  0  0  0  0  0  0  0
   -3.1538   20.4958  -29.2181 H   0  0  0  0  0  0  0  0  0  0  0  0
   -4.1319   20.3179  -30.7143 H   0  0  0  0  0  0  0  0  0  0  0  0
   -2.3974   19.8508  -30.7143 H   0  0  0  0  0  0  0  0  0  0  0  0
   -1.0432   21.7212  -32.0656 H   0  0  0  0  0  0  0  0  0  0  0  0
   -2.5910   21.0667  -32.7003 H   0  0  0  0  0  0  0  0  0  0  0  0
   -2.2980   22.8389  -32.7003 H   0  0  0  0  0  0  0  0  0  0  0  0
   -3.3130   24.1307  -29.0203 H   0  0  0  0  0  0  0  0  0  0  0  0
   -5.2324   25.6997  -29.0660 H   0  0  0  0  0  0  0  0  0  0  0  0
   -6.9818   25.4986  -30.8221 H   0  0  0  0  0  0  0  0  0  0  0  0
   -6.8318   23.6965  -32.5291 H   0  0  0  0  0  0  0  0  0  0  0  0
   -9.1376   20.2310  -32.2453 H   0  0  0  0  0  0  0  0  0  0  0  0
   -8.4413   17.8749  -32.6973 H   0  0  0  0  0  0  0  0  0  0  0  0
   -6.0333   17.3613  -33.1296 H   0  0  0  0  0  0  0  0  0  0  0  0
   -2.4329   19.7712  -35.0177 H   0  0  0  0  0  0  0  0  0  0  0  0
   -0.8603   21.5446  -35.7892 H   0  0  0  0  0  0  0  0  0  0  0  0
    2.0937   22.5372  -34.1227 H   0  0  0  0  0  0  0  0  0  0  0  0
    2.5379   21.4166  -35.4846 H   0  0  0  0  0  0  0  0  0  0  0  0
    1.7212   22.9547  -36.8886 H   0  0  0  0  0  0  0  0  0  0  0  0
    0.0852   22.5344  -36.2495 H   0  0  0  0  0  0  0  0  0  0  0  0
    1.7070   24.3740  -34.7060 H   0  0  0  0  0  0  0  0  0  0  0  0
    1.5318   24.7789  -37.3766 H   0  0  0  0  0  0  0  0  0  0  0  0
    0.2011   25.7744  -36.6538 H   0  0  0  0  0  0  0  0  0  0  0  0
    2.9462   26.4313  -36.8116 H   0  0  0  0  0  0  0  0  0  0  0  0
    2.0780   25.6740  -34.2050 H   0  0  0  0  0  0  0  0  0  0  0  0
   -0.1772   27.2025  -37.1201 H   0  0  0  0  0  0  0  0  0  0  0  0
   -1.2530   29.4437  -36.8411 H   0  0  0  0  0  0  0  0  0  0  0  0
   -0.1505   31.1725  -35.4105 H   0  0  0  0  0  0  0  0  0  0  0  0
    3.0463   28.4935  -34.5295 H   0  0  0  0  0  0  0  0  0  0  0  0
    2.1263   20.0979  -33.0087 H   0  0  0  0  0  0  0  0  0  0  0  0
    0.5472   18.3451  -32.2210 H   0  0  0  0  0  0  0  0  0  0  0  0
  1  2  1  0
  2  3  1  0
  2  4  1  0
  2  5  1  0
  5  6  2  0
  6  7  1  0
  7  8  2  0
  8  9  1  0
  9 10  2  0
 10 11  1  0
 11 12  1  0
 12 13  2  0
 13 14  1  0
 14 15  2  0
 15 16  1  0
 16 17  2  0
 17 18  1  0
 18 19  1  0
 19 20  2  0
 19 21  1  0
 21 22  1  0
 22 23  2  0
 23 24  1  0
 24 25  2  0
 25 26  1  0
 26 27  1  0
 27 28  1  0
 28 29  1  0
 29 30  1  0
 30 31  1  0
 30 32  1  0
 32 33  2  0
 33 34  1  0
 34 35  2  0
 35 36  1  0
 36 37  2  0
 25 38  1  0
 38 39  2  0
 10  5  1  0
 17 12  1  0
 39 22  1  0
 37 32  1  0
  1 40  1  0
  1 41  1  0
  1 42  1  0
  3 43  1  0
  3 44  1  0
  3 45  1  0
  4 46  1  0
  4 47  1  0
  4 48  1  0
  6 49  1  0
  7 50  1  0
  8 51  1  0
  9 52  1  0
 14 53  1  0
 15 54  1  0
 16 55  1  0
 23 56  1  0
 24 57  1  0
 26 58  1  0
 26 59  1  0
 27 60  1  0
 27 61  1  0
 28 62  1  0
 29 63  1  0
 29 64  1  0
 30 65  1  6
 31 66  1  0
 33 67  1  0
 34 68  1  0
 35 69  1  0
 37 70  1  0
 38 71  1  0
 39 72  1  0
M  CHG  2  18  -1  21  -1
M  END
>  <UniqueID>  (37) 
35

>  <SMILES>  (37) 
CC(C)(C)c1ccccc1Oc1ncccc1[N-]C(=O)[N-]c1ccc(CCNC[C@H](O)c2cccnc2)cc1

>  <Energy>  (37) 
91.86730110136432

>  <Genealogy>  (37) 
CC(C)(C)c1ccccc1Oc1ncccc1[N-]C(=O)[N-]c1ccc(CCNCC(O)c2cccnc2)cc1 (protonated)
CC(C)(C)c1ccccc1Oc1ncccc1[N-]C(=O)[N-]c1ccc(CCNC[C@H](O)c2cccnc2)cc1 (chirality)
CC(C)(C)c1ccccc1Oc1ncccc1[N-]C(=O)[N-]c1ccc(CCNC[C@H](O)c2cccnc2)cc1 (3D coordinates assigned)
CC(C)(C)c1ccccc1Oc1ncccc1[N-]C(=O)[N-]c1ccc(CCNC[C@H](O)c2cccnc2)cc1 (optimized conformer: 91.86730110136432 kcal/mol)

>  <smiles>  (37) 
CC(C)(C)c1ccccc1Oc1ncccc1NC(=O)Nc1ccc(CCNCC(O)c2cccnc2)cc1

>  <score_type>  (37) 
oracle

>  <origin>  (37) 
adgpu

>  <m_score__min__energy>  (37) 
-12.92

>  <m_primary>  (37) 
energy

$$$$
37:0
     RDKit          3D

 52 54  0  0  0  0  0  0  0  0999 V2000
    4.2410   25.8710  -23.3070 C   0  0  0  0  0  0  0  0  0  0  0  0
    3.2400   25.6830  -24.4070 C   0  0  0  0  0  0  0  0  0  0  0  0
    2.3920   24.5670  -24.4070 C   0  0  0  0  0  0  0  0  0  0  0  0
    1.4830   24.3690  -25.4500 C   0  0  0  0  0  0  0  0  0  0  0  0
    1.4290   25.2740  -26.5250 C   0  0  0  0  0  0  0  0  0  0  0  0
    0.4870   25.1120  -27.5990 N   0  0  0  0  0  0  0  0  0  0  0  0
   -0.7020   25.9080  -27.7550 C   0  0  0  0  0  0  0  0  0  0  0  0
   -0.9620   26.8370  -26.9460 O   0  0  0  0  0  0  0  0  0  0  0  0
   -1.5990   25.6800  -28.8480 N   0  0  0  0  0  0  0  0  0  0  0  0
   -2.0540   24.3980  -29.3070 C   0  0  0  0  0  0  0  0  0  0  0  0
   -1.4370   23.2180  -28.8780 C   0  0  0  0  0  0  0  0  0  0  0  0
   -1.9120   21.9820  -29.3050 C   0  0  0  0  0  0  0  0  0  0  0  0
   -3.0160   21.8920  -30.1690 C   0  0  0  0  0  0  0  0  0  0  0  0
   -3.4940   20.5150  -30.5560 C   0  0  0  0  0  0  0  0  0  0  0  0
   -3.6720   23.0830  -30.5900 C   0  0  0  0  0  0  0  0  0  0  0  0
   -5.0770   23.0660  -31.6930 S   0  0  0  0  0  0  0  0  0  0  0  0
   -5.6490   24.4470  -31.8530 O   0  0  0  0  0  0  0  0  0  0  0  0
   -4.6290   22.6180  -33.0560 O   0  0  0  0  0  0  0  0  0  0  0  0
   -6.3870   21.9700  -31.1130 C   0  0  0  0  0  0  0  0  0  0  0  0
   -7.6890   22.7400  -30.7610 C   0  0  0  0  0  0  0  0  0  0  0  0
   -8.7570   22.6120  -31.8540 C   0  0  0  0  0  0  0  0  0  0  0  0
   -9.1490   21.1400  -32.0920 C   0  0  0  0  0  0  0  0  0  0  0  0
   -7.9860   20.1510  -31.8710 C   0  0  0  0  0  0  0  0  0  0  0  0
   -6.6280   20.8150  -32.1130 C   0  0  0  0  0  0  0  0  0  0  0  0
   -3.1830   24.3280  -30.1320 C   0  0  0  0  0  0  0  0  0  0  0  0
   -3.8120   25.5140  -30.4990 O   0  0  0  0  0  0  0  0  0  0  0  0
    2.2730   26.3940  -26.5180 C   0  0  0  0  0  0  0  0  0  0  0  0
    3.1830   26.5900  -25.4750 C   0  0  0  0  0  0  0  0  0  0  0  0
    3.7379   25.7765  -22.3334 H   0  0  0  0  0  0  0  0  0  0  0  0
    5.0256   25.1045  -23.3903 H   0  0  0  0  0  0  0  0  0  0  0  0
    4.6940   26.8699  -23.3903 H   0  0  0  0  0  0  0  0  0  0  0  0
    2.4422   23.8424  -23.5809 H   0  0  0  0  0  0  0  0  0  0  0  0
    0.8069   23.5015  -25.4299 H   0  0  0  0  0  0  0  0  0  0  0  0
    0.6480   24.3200  -28.2600 H   0  0  0  0  0  0  0  0  0  0  0  0
   -0.5723   23.2676  -28.1999 H   0  0  0  0  0  0  0  0  0  0  0  0
   -1.4161   21.0623  -28.9612 H   0  0  0  0  0  0  0  0  0  0  0  0
   -3.6975   19.9288  -29.6477 H   0  0  0  0  0  0  0  0  0  0  0  0
   -4.4151   20.6004  -31.1513 H   0  0  0  0  0  0  0  0  0  0  0  0
   -2.7181   20.0114  -31.1513 H   0  0  0  0  0  0  0  0  0  0  0  0
   -6.0464   21.5166  -30.1704 H   0  0  0  0  0  0  0  0  0  0  0  0
   -8.0949   22.3369  -29.8215 H   0  0  0  0  0  0  0  0  0  0  0  0
   -7.4332   23.8055  -30.6649 H   0  0  0  0  0  0  0  0  0  0  0  0
   -9.6511   23.1749  -31.5477 H   0  0  0  0  0  0  0  0  0  0  0  0
   -8.3424   23.0142  -32.7901 H   0  0  0  0  0  0  0  0  0  0  0  0
   -9.9635   20.8802  -31.3999 H   0  0  0  0  0  0  0  0  0  0  0  0
   -9.4533   21.0521  -33.1454 H   0  0  0  0  0  0  0  0  0  0  0  0
   -8.0233   19.7817  -30.8355 H   0  0  0  0  0  0  0  0  0  0  0  0
   -8.0970   19.3237  -32.5874 H   0  0  0  0  0  0  0  0  0  0  0  0
   -5.8339   20.0634  -31.9920 H   0  0  0  0  0  0  0  0  0  0  0  0
   -6.6176   21.2277  -33.1326 H   0  0  0  0  0  0  0  0  0  0  0  0
    2.2186   27.1237  -27.3393 H   0  0  0  0  0  0  0  0  0  0  0  0
    3.8570   27.4591  -25.4921 H   0  0  0  0  0  0  0  0  0  0  0  0
  1  2  1  0
  2  3  2  0
  3  4  1  0
  4  5  2  0
  5  6  1  0
  6  7  1  0
  7  8  2  0
  7  9  1  0
  9 10  1  0
 10 11  2  0
 11 12  1  0
 12 13  2  0
 13 14  1  0
 13 15  1  0
 15 16  1  0
 16 17  2  0
 16 18  2  0
 16 19  1  0
 19 20  1  0
 20 21  1  0
 21 22  1  0
 22 23  1  0
 23 24  1  0
 15 25  2  0
 25 26  1  0
  5 27  1  0
 27 28  2  0
 28  2  1  0
 25 10  1  0
 24 19  1  0
  1 29  1  0
  1 30  1  0
  1 31  1  0
  3 32  1  0
  4 33  1  0
  6 34  1  0
 11 35  1  0
 12 36  1  0
 14 37  1  0
 14 38  1  0
 14 39  1  0
 19 40  1  0
 20 41  1  0
 20 42  1  0
 21 43  1  0
 21 44  1  0
 22 45  1  0
 22 46  1  0
 23 47  1  0
 23 48  1  0
 24 49  1  0
 24 50  1  0
 27 51  1  0
 28 52  1  0
M  CHG  2   9  -1  26  -1
M  END
>  <UniqueID>  (38) 
36

>  <SMILES>  (38) 
Cc1ccc(NC(=O)[N-]c2ccc(C)c(S(=O)(=O)C3CCCCC3)c2[O-])cc1

>  <Energy>  (38) 
64.35857658191374

>  <Genealogy>  (38) 
Cc1ccc(NC(=O)[N-]c2ccc(C)c(S(=O)(=O)C3CCCCC3)c2[O-])cc1 (protonated)
Cc1ccc(NC(=O)[N-]c2ccc(C)c(S(=O)(=O)C3CCCCC3)c2[O-])cc1 (3D coordinates assigned)
Cc1ccc(NC(=O)[N-]c2ccc(C)c(S(=O)(=O)C3CCCCC3)c2[O-])cc1 (nonaromatic ring conformer: 64.35857658191374 kcal/mol)

>  <smiles>  (38) 
Cc1ccc(NC(=O)Nc2ccc(C)c(S(=O)(=O)C3CCCCC3)c2O)cc1

>  <score_type>  (38) 
oracle

>  <origin>  (38) 
adgpu

>  <m_score__min__energy>  (38) 
-13.84

>  <m_primary>  (38) 
energy

$$$$
38:0
     RDKit          3D

 44 46  0  0  0  0  0  0  0  0999 V2000
   -6.4230   16.3540  -33.6560 C   0  0  0  0  0  0  0  0  0  0  0  0
   -6.8280   17.7180  -33.1780 C   0  0  0  0  0  0  0  0  0  0  0  0
   -7.9010   17.8790  -32.2890 C   0  0  0  0  0  0  0  0  0  0  0  0
   -8.2760   19.1580  -31.8570 C   0  0  0  0  0  0  0  0  0  0  0  0
   -7.5800   20.2880  -32.3110 C   0  0  0  0  0  0  0  0  0  0  0  0
   -8.0020   21.9040  -31.7470 S   0  0  0  0  0  0  0  0  0  0  0  0
   -9.3660   22.2610  -32.2720 O   0  0  0  0  0  0  0  0  0  0  0  0
   -8.0390   21.9640  -30.2430 O   0  0  0  0  0  0  0  0  0  0  0  0
   -6.8380   23.0450  -32.3450 N   0  0  0  0  0  0  0  0  0  0  0  0
   -5.7580   23.5590  -31.5490 C   0  0  0  0  0  0  0  0  0  0  0  0
   -5.9560   24.7170  -30.7770 C   0  0  0  0  0  0  0  0  0  0  0  0
   -4.9000   25.2680  -30.0450 C   0  0  0  0  0  0  0  0  0  0  0  0
   -3.6410   24.6600  -30.0470 C   0  0  0  0  0  0  0  0  0  0  0  0
   -2.5620   25.2940  -29.3470 N   0  0  0  0  0  0  0  0  0  0  0  0
   -1.6500   24.5440  -28.0780 S   0  0  0  0  0  0  0  0  0  0  0  0
   -0.2050   24.9460  -28.2020 O   0  0  0  0  0  0  0  0  0  0  0  0
   -2.1800   25.0200  -26.7520 O   0  0  0  0  0  0  0  0  0  0  0  0
   -1.7720   22.7910  -28.2240 C   0  0  0  0  0  0  0  0  0  0  0  0
   -0.8870   22.0750  -29.0460 C   0  0  0  0  0  0  0  0  0  0  0  0
   -0.9640   20.6780  -29.1050 C   0  0  0  0  0  0  0  0  0  0  0  0
   -1.9250   19.9910  -28.3520 C   0  0  0  0  0  0  0  0  0  0  0  0
   -2.8060   20.7030  -27.5320 C   0  0  0  0  0  0  0  0  0  0  0  0
   -2.7310   22.0980  -27.4680 C   0  0  0  0  0  0  0  0  0  0  0  0
   -3.4570   23.4660  -30.7680 C   0  0  0  0  0  0  0  0  0  0  0  0
   -4.5010   22.9280  -31.5210 C   0  0  0  0  0  0  0  0  0  0  0  0
   -6.5080   20.1260  -33.2000 C   0  0  0  0  0  0  0  0  0  0  0  0
   -6.1370   18.8500  -33.6370 C   0  0  0  0  0  0  0  0  0  0  0  0
   -6.2301   15.7042  -32.7897 H   0  0  0  0  0  0  0  0  0  0  0  0
   -7.2321   15.9235  -34.2643 H   0  0  0  0  0  0  0  0  0  0  0  0
   -5.5101   16.4347  -34.2643 H   0  0  0  0  0  0  0  0  0  0  0  0
   -8.4508   16.9968  -31.9292 H   0  0  0  0  0  0  0  0  0  0  0  0
   -9.1186   19.2763  -31.1598 H   0  0  0  0  0  0  0  0  0  0  0  0
   -6.8540   23.2460  -33.3690 H   0  0  0  0  0  0  0  0  0  0  0  0
   -6.9476   25.1924  -30.7487 H   0  0  0  0  0  0  0  0  0  0  0  0
   -5.0610   26.1873  -29.4628 H   0  0  0  0  0  0  0  0  0  0  0  0
   -0.1342   22.6107  -29.6428 H   0  0  0  0  0  0  0  0  0  0  0  0
   -0.2669   20.1177  -29.7454 H   0  0  0  0  0  0  0  0  0  0  0  0
   -1.9864   18.8940  -28.4056 H   0  0  0  0  0  0  0  0  0  0  0  0
   -3.5587   20.1653  -26.9368 H   0  0  0  0  0  0  0  0  0  0  0  0
   -3.4263   22.6548  -26.8226 H   0  0  0  0  0  0  0  0  0  0  0  0
   -2.4841   22.9536  -30.7378 H   0  0  0  0  0  0  0  0  0  0  0  0
   -4.3402   22.0045  -32.0965 H   0  0  0  0  0  0  0  0  0  0  0  0
   -5.9552   21.0078  -33.5561 H   0  0  0  0  0  0  0  0  0  0  0  0
   -5.3011   18.7335  -34.3425 H   0  0  0  0  0  0  0  0  0  0  0  0
  1  2  1  0
  2  3  2  0
  3  4  1  0
  4  5  2  0
  5  6  1  0
  6  7  2  0
  6  8  2  0
  6  9  1  0
  9 10  1  0
 10 11  2  0
 11 12  1  0
 12 13  2  0
 13 14  1  0
 14 15  1  0
 15 16  2  0
 15 17  2  0
 15 18  1  0
 18 19  2  0
 19 20  1  0
 20 21  2  0
 21 22  1  0
 22 23  2  0
 13 24  1  0
 24 25  2  0
  5 26  1  0
 26 27  2  0
 27  2  1  0
 25 10  1  0
 23 18  1  0
  1 28  1  0
  1 29  1  0
  1 30  1  0
  3 31  1  0
  4 32  1  0
  9 33  1  0
 11 34  1  0
 12 35  1  0
 19 36  1  0
 20 37  1  0
 21 38  1  0
 22 39  1  0
 23 40  1  0
 24 41  1  0
 25 42  1  0
 26 43  1  0
 27 44  1  0
M  CHG  1  14  -1
M  END
>  <UniqueID>  (39) 
37

>  <SMILES>  (39) 
Cc1ccc(S(=O)(=O)Nc2ccc([N-]S(=O)(=O)c3ccccc3)cc2)cc1

>  <Energy>  (39) 
50.19345022945601

>  <Genealogy>  (39) 
Cc1ccc(S(=O)(=O)Nc2ccc([N-]S(=O)(=O)c3ccccc3)cc2)cc1 (protonated)
Cc1ccc(S(=O)(=O)Nc2ccc([N-]S(=O)(=O)c3ccccc3)cc2)cc1 (3D coordinates assigned)
Cc1ccc(S(=O)(=O)Nc2ccc([N-]S(=O)(=O)c3ccccc3)cc2)cc1 (optimized conformer: 50.19345022945601 kcal/mol)

>  <smiles>  (39) 
Cc1ccc(S(=O)(=O)Nc2ccc(NS(=O)(=O)c3ccccc3)cc2)cc1

>  <score_type>  (39) 
oracle

>  <origin>  (39) 
adgpu

>  <m_score__min__energy>  (39) 
-12.07

>  <m_primary>  (39) 
energy

$$$$
39:0
     RDKit          3D

 42 44  0  0  0  0  0  0  0  0999 V2000
   -1.2280   26.2210  -28.9700 N   0  0  0  0  0  0  0  0  0  0  0  0
   -0.8420   25.6480  -27.7230 C   0  0  0  0  0  0  0  0  0  0  0  0
   -0.3850   26.3940  -26.8170 O   0  0  0  0  0  0  0  0  0  0  0  0
   -1.0260   24.1990  -27.5000 C   0  0  0  0  0  0  0  0  0  0  0  0
   -1.1860   23.7330  -26.2330 N   0  0  0  0  0  0  0  0  0  0  0  0
   -1.2890   22.0850  -26.3730 S   0  0  0  0  0  0  0  0  0  0  0  0
   -1.1370   21.8980  -28.0210 C   0  0  0  0  0  0  0  0  0  0  0  0
   -1.2270   20.6110  -28.7350 C   0  0  0  0  0  0  0  0  0  0  0  0
   -1.4440   19.5430  -28.1060 O   0  0  0  0  0  0  0  0  0  0  0  0
   -1.0960   20.5960  -30.1620 N   0  0  0  0  0  0  0  0  0  0  0  0
   -2.0600   21.0710  -31.1140 C   0  0  0  0  0  0  0  0  0  0  0  0
   -1.7230   21.0600  -32.4730 C   0  0  0  0  0  0  0  0  0  0  0  0
   -2.6420   21.4890  -33.4330 C   0  0  0  0  0  0  0  0  0  0  0  0
   -3.9130   21.9160  -33.0450 C   0  0  0  0  0  0  0  0  0  0  0  0
   -4.2780   21.9020  -31.6920 C   0  0  0  0  0  0  0  0  0  0  0  0
   -5.9000   22.3950  -31.2060 S   0  0  0  0  0  0  0  0  0  0  0  0
   -6.7290   21.1640  -30.9680 O   0  0  0  0  0  0  0  0  0  0  0  0
   -6.5380   23.1670  -32.3270 O   0  0  0  0  0  0  0  0  0  0  0  0
   -5.8990   23.3740  -29.7520 N   0  0  0  0  0  0  0  0  0  0  0  0
   -6.3430   24.7590  -30.0000 C   0  0  0  0  0  0  0  0  0  0  0  0
   -5.2170   25.6720  -30.5360 C   0  0  0  0  0  0  0  0  0  0  0  0
   -3.9390   25.0660  -30.4960 O   0  0  0  0  0  0  0  0  0  0  0  0
   -3.7190   24.5100  -29.2210 C   0  0  0  0  0  0  0  0  0  0  0  0
   -4.6260   23.2870  -29.0040 C   0  0  0  0  0  0  0  0  0  0  0  0
   -3.3500   21.4810  -30.7290 C   0  0  0  0  0  0  0  0  0  0  0  0
   -1.0050   23.2010  -28.5210 C   0  0  0  0  0  0  0  0  0  0  0  0
   -0.8980   23.4970  -29.9200 N   0  0  0  0  0  0  0  0  0  0  0  0
   -1.6270   25.6290  -29.7310 H   0  0  0  0  0  0  0  0  0  0  0  0
   -0.7280   20.7112  -32.7865 H   0  0  0  0  0  0  0  0  0  0  0  0
   -2.3637   21.4904  -34.4972 H   0  0  0  0  0  0  0  0  0  0  0  0
   -4.6299   22.2644  -33.8031 H   0  0  0  0  0  0  0  0  0  0  0  0
   -7.1577   24.7381  -30.7388 H   0  0  0  0  0  0  0  0  0  0  0  0
   -6.6705   25.1751  -29.0358 H   0  0  0  0  0  0  0  0  0  0  0  0
   -5.4468   25.9340  -31.5793 H   0  0  0  0  0  0  0  0  0  0  0  0
   -5.1782   26.5580  -29.8853 H   0  0  0  0  0  0  0  0  0  0  0  0
   -2.6669   24.2000  -29.1377 H   0  0  0  0  0  0  0  0  0  0  0  0
   -3.9525   25.2666  -28.4574 H   0  0  0  0  0  0  0  0  0  0  0  0
   -4.0862   22.3870  -29.3335 H   0  0  0  0  0  0  0  0  0  0  0  0
   -4.8746   23.2465  -27.9332 H   0  0  0  0  0  0  0  0  0  0  0  0
   -3.6320   21.4711  -29.6658 H   0  0  0  0  0  0  0  0  0  0  0  0
   -0.7560   22.7410  -30.6250 H   0  0  0  0  0  0  0  0  0  0  0  0
   -0.9220   24.4760  -30.2750 H   0  0  0  0  0  0  0  0  0  0  0  0
  1  2  1  0
  2  3  2  0
  2  4  1  0
  4  5  2  0
  5  6  1  0
  6  7  1  0
  7  8  1  0
  8  9  2  0
  8 10  1  0
 10 11  1  0
 11 12  2  0
 12 13  1  0
 13 14  2  0
 14 15  1  0
 15 16  1  0
 16 17  2  0
 16 18  2  0
 16 19  1  0
 19 20  1  0
 20 21  1  0
 21 22  1  0
 22 23  1  0
 23 24  1  0
 15 25  2  0
  7 26  2  0
 26 27  1  0
 26  4  1  0
 25 11  1  0
 24 19  1  0
  1 28  1  0
 12 29  1  0
 13 30  1  0
 14 31  1  0
 20 32  1  0
 20 33  1  0
 21 34  1  0
 21 35  1  0
 23 36  1  0
 23 37  1  0
 24 38  1  0
 24 39  1  0
 25 40  1  0
 27 41  1  0
 27 42  1  0
M  CHG  2   1  -1  10  -1
M  END
>  <UniqueID>  (40) 
38

>  <SMILES>  (40) 
[NH-]C(=O)c1nsc(C(=O)[N-]c2cccc(S(=O)(=O)N3CCOCC3)c2)c1N

>  <Energy>  (40) 
92.4618487645479

>  <Genealogy>  (40) 
[NH-]C(=O)c1nsc(C(=O)[N-]c2cccc(S(=O)(=O)N3CCOCC3)c2)c1N (protonated)
[NH-]C(=O)c1nsc(C(=O)[N-]c2cccc(S(=O)(=O)N3CCOCC3)c2)c1N (3D coordinates assigned)
[NH-]C(=O)c1nsc(C(=O)[N-]c2cccc(S(=O)(=O)N3CCOCC3)c2)c1N (nonaromatic ring conformer: 92.4618487645479 kcal/mol)

>  <smiles>  (40) 
NC(=O)c1nsc(C(=O)Nc2cccc(S(=O)(=O)N3CCOCC3)c2)c1N

>  <score_type>  (40) 
oracle

>  <origin>  (40) 
adgpu

>  <m_score__min__energy>  (40) 
-10.789999999999999

>  <m_primary>  (40) 
energy

$$$$
40:0
     RDKit          3D

 46 48  0  0  0  0  0  0  0  0999 V2000
   -2.7180   24.9230  -29.7770 N   0  0  0  0  0  0  0  0  0  0  0  0
   -1.6230   24.3130  -28.5890 S   0  0  0  0  0  0  0  0  0  0  0  0
   -0.4340   25.2270  -28.4820 O   0  0  0  0  0  0  0  0  0  0  0  0
   -2.3130   24.2590  -27.2560 O   0  0  0  0  0  0  0  0  0  0  0  0
   -1.0880   22.7030  -29.0530 C   0  0  0  0  0  0  0  0  0  0  0  0
   -0.5670   21.8150  -28.0810 C   0  0  0  0  0  0  0  0  0  0  0  0
   -0.1030   20.5400  -28.4510 C   0  0  0  0  0  0  0  0  0  0  0  0
   -0.1800   20.1820  -29.7960 C   0  0  0  0  0  0  0  0  0  0  0  0
    0.2500   19.0410  -30.3600 N   0  0  0  0  0  0  0  0  0  0  0  0
    0.0090   19.1650  -31.6850 C   0  0  0  0  0  0  0  0  0  0  0  0
   -0.5910   20.3910  -31.9570 C   0  0  0  0  0  0  0  0  0  0  0  0
   -0.9220   20.9400  -33.3150 C   0  0  0  0  0  0  0  0  0  0  0  0
   -2.2530   20.3910  -33.8340 C   0  0  0  0  0  0  0  0  0  0  0  0
   -2.9150   19.5970  -32.7840 N   0  0  0  0  0  0  0  0  0  0  0  0
   -4.3740   19.7720  -32.7920 C   0  0  0  0  0  0  0  0  0  0  0  0
   -4.7340   21.0270  -32.0430 C   0  0  0  0  0  0  0  0  0  0  0  0
   -5.5210   22.0190  -32.6510 C   0  0  0  0  0  0  0  0  0  0  0  0
   -5.8060   23.2070  -31.9750 C   0  0  0  0  0  0  0  0  0  0  0  0
   -5.3100   23.4200  -30.6810 C   0  0  0  0  0  0  0  0  0  0  0  0
   -5.6530   24.9170  -29.8190 S   0  0  0  0  0  0  0  0  0  0  0  0
   -4.9890   24.8460  -28.2240 N   0  0  0  0  0  0  0  0  0  0  0  0
   -7.1400   25.1140  -29.7370 O   0  0  0  0  0  0  0  0  0  0  0  0
   -5.0460   26.0850  -30.5450 O   0  0  0  0  0  0  0  0  0  0  0  0
   -4.5370   22.4260  -30.0660 C   0  0  0  0  0  0  0  0  0  0  0  0
   -4.2480   21.2380  -30.7430 C   0  0  0  0  0  0  0  0  0  0  0  0
   -0.6970   21.0330  -30.7380 C   0  0  0  0  0  0  0  0  0  0  0  0
   -1.1660   22.3030  -30.4030 C   0  0  0  0  0  0  0  0  0  0  0  0
   -3.2750   25.6790  -29.3180 H   0  0  0  0  0  0  0  0  0  0  0  0
   -0.5248   22.1253  -27.0265 H   0  0  0  0  0  0  0  0  0  0  0  0
    0.3079   19.8468  -27.7023 H   0  0  0  0  0  0  0  0  0  0  0  0
    0.7020   18.2310  -29.8810 H   0  0  0  0  0  0  0  0  0  0  0  0
    0.2528   18.4042  -32.4411 H   0  0  0  0  0  0  0  0  0  0  0  0
   -0.9884   22.0361  -33.2507 H   0  0  0  0  0  0  0  0  0  0  0  0
   -0.1280   20.6355  -34.0128 H   0  0  0  0  0  0  0  0  0  0  0  0
   -2.9048   21.2288  -34.1225 H   0  0  0  0  0  0  0  0  0  0  0  0
   -2.0628   19.7485  -34.7063 H   0  0  0  0  0  0  0  0  0  0  0  0
   -2.7040   18.5840  -32.9440 H   0  0  0  0  0  0  0  0  0  0  0  0
   -4.7280   19.8507  -33.8305 H   0  0  0  0  0  0  0  0  0  0  0  0
   -4.8493   18.9068  -32.3067 H   0  0  0  0  0  0  0  0  0  0  0  0
   -5.9150   21.8590  -33.6655 H   0  0  0  0  0  0  0  0  0  0  0  0
   -6.4221   23.9788  -32.4595 H   0  0  0  0  0  0  0  0  0  0  0  0
   -3.9570   24.9810  -28.3110 H   0  0  0  0  0  0  0  0  0  0  0  0
   -5.3580   25.6710  -27.7010 H   0  0  0  0  0  0  0  0  0  0  0  0
   -4.1560   22.5815  -29.0459 H   0  0  0  0  0  0  0  0  0  0  0  0
   -3.6368   20.4646  -30.2549 H   0  0  0  0  0  0  0  0  0  0  0  0
   -1.5842   22.9726  -31.1689 H   0  0  0  0  0  0  0  0  0  0  0  0
  1  2  1  0
  2  3  2  0
  2  4  2  0
  2  5  1  0
  5  6  2  0
  6  7  1  0
  7  8  2  0
  8  9  1  0
  9 10  1  0
 10 11  2  0
 11 12  1  0
 12 13  1  0
 13 14  1  0
 14 15  1  0
 15 16  1  0
 16 17  2  0
 17 18  1  0
 18 19  2  0
 19 20  1  0
 20 21  1  0
 20 22  2  0
 20 23  2  0
 19 24  1  0
 24 25  2  0
 11 26  1  0
 26 27  2  0
 27  5  1  0
 26  8  1  0
 25 16  1  0
  1 28  1  0
  6 29  1  0
  7 30  1  0
  9 31  1  0
 10 32  1  0
 12 33  1  0
 12 34  1  0
 13 35  1  0
 13 36  1  0
 14 37  1  0
 15 38  1  0
 15 39  1  0
 17 40  1  0
 18 41  1  0
 21 42  1  0
 21 43  1  0
 24 44  1  0
 25 45  1  0
 27 46  1  0
M  CHG  1   1  -1
M  END
>  <UniqueID>  (41) 
39

>  <SMILES>  (41) 
[NH-]S(=O)(=O)c1ccc2[nH]cc(CCNCc3ccc(S(N)(=O)=O)cc3)c2c1

>  <Energy>  (41) 
70.28250920214036

>  <Genealogy>  (41) 
[NH-]S(=O)(=O)c1ccc2[nH]cc(CCNCc3ccc(S(N)(=O)=O)cc3)c2c1 (protonated)
[NH-]S(=O)(=O)c1ccc2[nH]cc(CCNCc3ccc(S(N)(=O)=O)cc3)c2c1 (3D coordinates assigned)
[NH-]S(=O)(=O)c1ccc2[nH]cc(CCNCc3ccc(S(N)(=O)=O)cc3)c2c1 (optimized conformer: 70.28250920214036 kcal/mol)

>  <smiles>  (41) 
NS(=O)(=O)c1ccc(CNCCc2c[nH]c3ccc(S(N)(=O)=O)cc23)cc1

>  <score_type>  (41) 
oracle

>  <origin>  (41) 
adgpu

>  <m_score__min__energy>  (41) 
-10.279999999999999

>  <m_primary>  (41) 
energy

$$$$
41:0
     RDKit          3D

 55 58  0  0  0  0  0  0  0  0999 V2000
   -5.8935   17.6978  -30.2377 H   0  0  0  0  0  0  0  0  0  0  0  0
   -6.1730   17.9470  -31.2720 C   0  0  0  0  0  0  0  0  0  0  0  0
   -6.8200   19.1100  -31.5410 N   0  0  0  0  0  0  0  0  0  0  0  0
   -7.1790   19.4410  -32.8140 C   0  0  0  0  0  0  0  0  0  0  0  0
   -7.8050   20.5510  -33.0600 N   0  0  0  0  0  0  0  0  0  0  0  0
   -8.2450   21.7030  -31.8390 S   0  0  0  0  0  0  0  0  0  0  0  0
   -8.7430   20.9700  -30.6260 O   0  0  0  0  0  0  0  0  0  0  0  0
   -9.3460   22.5790  -32.3690 O   0  0  0  0  0  0  0  0  0  0  0  0
   -6.8480   22.6760  -31.3880 C   0  0  0  0  0  0  0  0  0  0  0  0
   -5.5580   22.2550  -31.7370 C   0  0  0  0  0  0  0  0  0  0  0  0
   -5.4188   21.3111  -32.2845 H   0  0  0  0  0  0  0  0  0  0  0  0
   -4.4480   23.0300  -31.3920 C   0  0  0  0  0  0  0  0  0  0  0  0
   -3.4394   22.7041  -31.6863 H   0  0  0  0  0  0  0  0  0  0  0  0
   -4.6150   24.2250  -30.6700 C   0  0  0  0  0  0  0  0  0  0  0  0
   -3.4990   25.0550  -30.3130 N   0  0  0  0  0  0  0  0  0  0  0  0
   -2.4960   24.7530  -29.3340 C   0  0  0  0  0  0  0  0  0  0  0  0
   -1.7040   25.6640  -28.9750 O   0  0  0  0  0  0  0  0  0  0  0  0
   -2.4510   23.4420  -28.6480 C   0  0  0  0  0  0  0  0  0  0  0  0
   -3.6660   22.9020  -28.1990 C   0  0  0  0  0  0  0  0  0  0  0  0
   -4.6054   23.4413  -28.3904 H   0  0  0  0  0  0  0  0  0  0  0  0
   -3.6940   21.6910  -27.5140 C   0  0  0  0  0  0  0  0  0  0  0  0
   -4.6536   21.2769  -27.1710 H   0  0  0  0  0  0  0  0  0  0  0  0
   -2.5120   21.0030  -27.2620 C   0  0  0  0  0  0  0  0  0  0  0  0
   -2.5436   20.0507  -26.7123 H   0  0  0  0  0  0  0  0  0  0  0  0
   -1.2770   21.5110  -27.7020 C   0  0  0  0  0  0  0  0  0  0  0  0
   -0.0730   20.7580  -27.4500 N   0  0  0  0  0  0  0  0  0  0  0  0
    0.5200   21.0080  -26.6290 H   0  0  0  0  0  0  0  0  0  0  0  0
    0.3390   19.6380  -28.2540 C   0  0  0  0  0  0  0  0  0  0  0  0
    1.1530   19.8490  -29.3820 C   0  0  0  0  0  0  0  0  0  0  0  0
    1.5058   20.8638  -29.6180 H   0  0  0  0  0  0  0  0  0  0  0  0
    1.5170   18.7800  -30.2050 C   0  0  0  0  0  0  0  0  0  0  0  0
    2.1584   18.9542  -31.0815 H   0  0  0  0  0  0  0  0  0  0  0  0
    1.0670   17.4920  -29.9150 C   0  0  0  0  0  0  0  0  0  0  0  0
    1.3525   16.6514  -30.5645 H   0  0  0  0  0  0  0  0  0  0  0  0
    0.2550   17.2680  -28.8020 C   0  0  0  0  0  0  0  0  0  0  0  0
   -0.0988   16.2501  -28.5813 H   0  0  0  0  0  0  0  0  0  0  0  0
   -0.1140   18.3300  -27.9620 C   0  0  0  0  0  0  0  0  0  0  0  0
   -0.9140   18.0590  -26.8040 N   0  0  0  0  0  0  0  0  0  0  0  0
   -0.9210   17.1230  -26.3430 H   0  0  0  0  0  0  0  0  0  0  0  0
   -1.5640   18.7840  -26.4290 H   0  0  0  0  0  0  0  0  0  0  0  0
   -1.2390   22.7340  -28.4190 C   0  0  0  0  0  0  0  0  0  0  0  0
    0.0840   23.2280  -28.9630 C   0  0  0  0  0  0  0  0  0  0  0  0
    0.7538   23.4781  -28.1270 H   0  0  0  0  0  0  0  0  0  0  0  0
    0.5441   22.4411  -29.5787 H   0  0  0  0  0  0  0  0  0  0  0  0
   -0.0843   24.1239  -29.5787 H   0  0  0  0  0  0  0  0  0  0  0  0
   -5.9070   24.6510  -30.3390 C   0  0  0  0  0  0  0  0  0  0  0  0
   -6.0488   25.6004  -29.8019 H   0  0  0  0  0  0  0  0  0  0  0  0
   -7.0180   23.8770  -30.6870 C   0  0  0  0  0  0  0  0  0  0  0  0
   -8.0284   24.2119  -30.4096 H   0  0  0  0  0  0  0  0  0  0  0  0
   -6.8810   18.5930  -33.8390 N   0  0  0  0  0  0  0  0  0  0  0  0
   -7.1520   18.8380  -34.8180 H   0  0  0  0  0  0  0  0  0  0  0  0
   -6.2340   17.4200  -33.6080 C   0  0  0  0  0  0  0  0  0  0  0  0
   -6.0021   16.7462  -34.4460 H   0  0  0  0  0  0  0  0  0  0  0  0
   -5.8640   17.0700  -32.3100 C   0  0  0  0  0  0  0  0  0  0  0  0
   -5.3403   16.1236  -32.1100 H   0  0  0  0  0  0  0  0  0  0  0  0
  1  2  1  0
  2  3  2  0
  3  4  1  0
  4  5  2  0
  5  6  1  0
  6  7  2  0
  6  8  2  0
  6  9  1  0
  9 10  2  0
 10 11  1  0
 10 12  1  0
 12 13  1  0
 12 14  2  0
 14 15  1  0
 15 16  1  0
 16 17  2  0
 16 18  1  0
 18 19  2  0
 19 20  1  0
 19 21  1  0
 21 22  1  0
 21 23  2  0
 23 24  1  0
 23 25  1  0
 25 26  1  0
 26 27  1  0
 26 28  1  0
 28 29  2  0
 29 30  1  0
 29 31  1  0
 31 32  1  0
 31 33  2  0
 33 34  1  0
 33 35  1  0
 35 36  1  0
 35 37  2  0
 37 38  1  0
 38 39  1  0
 38 40  1  0
 25 41  2  0
 41 42  1  0
 42 43  1  0
 42 44  1  0
 42 45  1  0
 14 46  1  0
 46 47  1  0
 46 48  2  0
 48 49  1  0
  4 50  1  0
 50 51  1  0
 50 52  1  0
 52 53  1  0
 52 54  2  0
 54 55  1  0
 54  2  1  0
 48  9  1  0
 41 18  1  0
 37 28  1  0
M  CHG  1  15  -1
M  END
>  <UniqueID>  (42) 
40

>  <SMILES>  (42) 
Cc1c(Nc2ccccc2N)cccc1C(=O)[N-]c1ccc(S(=O)(=O)/N=c2\nccc[nH]2)cc1

>  <Energy>  (42) 
81.99278009131824

>  <Genealogy>  (42) 
Cc1c(Nc2ccccc2N)cccc1C(=O)[N-]c1ccc(S(=O)(=O)N=c2nccc[nH]2)cc1 (protonated)
Cc1c(Nc2ccccc2N)cccc1C(=O)[N-]c1ccc(S(=O)(=O)/N=c2\nccc[nH]2)cc1 (cis-trans isomerization)
Cc1c(Nc2ccccc2N)cccc1C(=O)[N-]c1ccc(S(=O)(=O)/N=c2\nccc[nH]2)cc1 (3D coordinates assigned)
Cc1c(Nc2ccccc2N)cccc1C(=O)[N-]c1ccc(S(=O)(=O)/N=c2\nccc[nH]2)cc1 (optimized conformer: 81.99278009131824 kcal/mol)

>  <smiles>  (42) 
Cc1c(Nc2ccccc2N)cccc1C(=O)Nc1ccc(S(=O)(=O)N=c2nccc[nH]2)cc1

>  <score_type>  (42) 
oracle

>  <origin>  (42) 
adgpu

>  <m_score__min__energy>  (42) 
-11.9

>  <m_primary>  (42) 
energy

$$$$
42:0
     RDKit          3D

 54 56  0  0  0  0  0  0  0  0999 V2000
   -7.6900   18.7010  -33.0720 N   0  0  0  0  0  0  0  0  0  0  0  0
   -8.6750   19.6790  -32.0390 S   0  0  0  0  0  0  0  0  0  0  0  0
   -8.9540   18.9350  -30.7620 O   0  0  0  0  0  0  0  0  0  0  0  0
   -9.9820   19.9700  -32.7190 O   0  0  0  0  0  0  0  0  0  0  0  0
   -7.8430   21.1930  -31.6850 C   0  0  0  0  0  0  0  0  0  0  0  0
   -6.8650   21.6820  -32.5630 C   0  0  0  0  0  0  0  0  0  0  0  0
   -6.2210   22.8950  -32.2900 C   0  0  0  0  0  0  0  0  0  0  0  0
   -6.5540   23.6350  -31.1410 C   0  0  0  0  0  0  0  0  0  0  0  0
   -5.8780   24.9570  -30.8550 C   0  0  0  0  0  0  0  0  0  0  0  0
   -5.3650   25.0250  -29.4750 N   0  0  0  0  0  0  0  0  0  0  0  0
   -4.5160   23.8750  -29.1240 C   0  0  0  0  0  0  0  0  0  0  0  0
   -3.1100   24.1390  -29.5580 C   0  0  0  0  0  0  0  0  0  0  0  0
   -2.5910   25.2680  -29.3390 O   0  0  0  0  0  0  0  0  0  0  0  0
   -2.3700   23.1010  -30.2180 N   0  0  0  0  0  0  0  0  0  0  0  0
   -2.9040   22.0280  -31.0100 C   0  0  0  0  0  0  0  0  0  0  0  0
   -3.8380   21.1060  -30.4950 C   0  0  0  0  0  0  0  0  0  0  0  0
   -4.3420   20.0860  -31.3070 C   0  0  0  0  0  0  0  0  0  0  0  0
   -3.9340   19.9830  -32.6450 C   0  0  0  0  0  0  0  0  0  0  0  0
   -4.5830   18.7130  -33.6810 S   0  0  0  0  0  0  0  0  0  0  0  0
   -5.6410   19.2880  -34.5830 O   0  0  0  0  0  0  0  0  0  0  0  0
   -5.2270   17.6730  -32.8060 O   0  0  0  0  0  0  0  0  0  0  0  0
   -3.3070   17.9660  -34.6210 N   0  0  0  0  0  0  0  0  0  0  0  0
   -3.7650   16.7410  -35.3000 C   0  0  0  0  0  0  0  0  0  0  0  0
   -3.9310   15.5520  -34.3220 C   0  0  0  0  0  0  0  0  0  0  0  0
   -3.2650   15.7400  -33.0850 O   0  0  0  0  0  0  0  0  0  0  0  0
   -1.9810   16.2830  -33.3010 C   0  0  0  0  0  0  0  0  0  0  0  0
   -2.0910   17.7330  -33.8080 C   0  0  0  0  0  0  0  0  0  0  0  0
   -3.0320   20.9210  -33.1690 C   0  0  0  0  0  0  0  0  0  0  0  0
   -2.5250   21.9380  -32.3560 C   0  0  0  0  0  0  0  0  0  0  0  0
   -7.5350   23.1420  -30.2670 C   0  0  0  0  0  0  0  0  0  0  0  0
   -8.1770   21.9290  -30.5390 C   0  0  0  0  0  0  0  0  0  0  0  0
   -7.7150   19.1400  -34.0220 H   0  0  0  0  0  0  0  0  0  0  0  0
   -6.7080   18.7860  -32.7300 H   0  0  0  0  0  0  0  0  0  0  0  0
   -6.6036   21.1122  -33.4669 H   0  0  0  0  0  0  0  0  0  0  0  0
   -5.4500   23.2715  -32.9783 H   0  0  0  0  0  0  0  0  0  0  0  0
   -5.0379   25.0852  -31.5534 H   0  0  0  0  0  0  0  0  0  0  0  0
   -6.6240   25.7555  -30.9810 H   0  0  0  0  0  0  0  0  0  0  0  0
   -4.8270   25.9110  -29.3460 H   0  0  0  0  0  0  0  0  0  0  0  0
   -4.5402   23.7208  -28.0351 H   0  0  0  0  0  0  0  0  0  0  0  0
   -4.8922   22.9746  -29.6317 H   0  0  0  0  0  0  0  0  0  0  0  0
   -4.1714   21.1897  -29.4501 H   0  0  0  0  0  0  0  0  0  0  0  0
   -5.0607   19.3620  -30.8955 H   0  0  0  0  0  0  0  0  0  0  0  0
   -4.7348   16.9434  -35.7781 H   0  0  0  0  0  0  0  0  0  0  0  0
   -3.0013   16.4622  -36.0409 H   0  0  0  0  0  0  0  0  0  0  0  0
   -5.0037   15.4127  -34.1222 H   0  0  0  0  0  0  0  0  0  0  0  0
   -3.4784   14.6722  -34.8026 H   0  0  0  0  0  0  0  0  0  0  0  0
   -1.4185   16.2710  -32.3558 H   0  0  0  0  0  0  0  0  0  0  0  0
   -1.4600   15.6783  -34.0579 H   0  0  0  0  0  0  0  0  0  0  0  0
   -2.1140   18.4081  -32.9398 H   0  0  0  0  0  0  0  0  0  0  0  0
   -1.2202   17.9257  -34.4518 H   0  0  0  0  0  0  0  0  0  0  0  0
   -2.7231   20.8557  -34.2227 H   0  0  0  0  0  0  0  0  0  0  0  0
   -1.8230   22.6735  -32.7758 H   0  0  0  0  0  0  0  0  0  0  0  0
   -7.8004   23.7117  -29.3642 H   0  0  0  0  0  0  0  0  0  0  0  0
   -8.9473   21.5509  -29.8507 H   0  0  0  0  0  0  0  0  0  0  0  0
  1  2  1  0
  2  3  2  0
  2  4  2  0
  2  5  1  0
  5  6  2  0
  6  7  1  0
  7  8  2  0
  8  9  1  0
  9 10  1  0
 10 11  1  0
 11 12  1  0
 12 13  2  0
 12 14  1  0
 14 15  1  0
 15 16  2  0
 16 17  1  0
 17 18  2  0
 18 19  1  0
 19 20  2  0
 19 21  2  0
 19 22  1  0
 22 23  1  0
 23 24  1  0
 24 25  1  0
 25 26  1  0
 26 27  1  0
 18 28  1  0
 28 29  2  0
  8 30  1  0
 30 31  2  0
 31  5  1  0
 29 15  1  0
 27 22  1  0
  1 32  1  0
  1 33  1  0
  6 34  1  0
  7 35  1  0
  9 36  1  0
  9 37  1  0
 10 38  1  0
 11 39  1  0
 11 40  1  0
 16 41  1  0
 17 42  1  0
 23 43  1  0
 23 44  1  0
 24 45  1  0
 24 46  1  0
 26 47  1  0
 26 48  1  0
 27 49  1  0
 27 50  1  0
 28 51  1  0
 29 52  1  0
 30 53  1  0
 31 54  1  0
M  CHG  1  14  -1
M  END
>  <UniqueID>  (43) 
41

>  <SMILES>  (43) 
NS(=O)(=O)c1ccc(CNCC(=O)[N-]c2ccc(S(=O)(=O)N3CCOCC3)cc2)cc1

>  <Energy>  (43) 
68.03392704856044

>  <Genealogy>  (43) 
NS(=O)(=O)c1ccc(CNCC(=O)[N-]c2ccc(S(=O)(=O)N3CCOCC3)cc2)cc1 (protonated)
NS(=O)(=O)c1ccc(CNCC(=O)[N-]c2ccc(S(=O)(=O)N3CCOCC3)cc2)cc1 (3D coordinates assigned)
NS(=O)(=O)c1ccc(CNCC(=O)[N-]c2ccc(S(=O)(=O)N3CCOCC3)cc2)cc1 (nonaromatic ring conformer: 68.03392704856044 kcal/mol)

>  <smiles>  (43) 
NS(=O)(=O)c1ccc(CNCC(=O)Nc2ccc(S(=O)(=O)N3CCOCC3)cc2)cc1

>  <score_type>  (43) 
oracle

>  <origin>  (43) 
adgpu

>  <m_score__min__energy>  (43) 
-11.140000000000001

>  <m_primary>  (43) 
energy

$$$$
43:0
     RDKit          3D

 40 43  0  0  0  0  0  0  0  0999 V2000
   -9.5700   20.0450  -32.7110 O   0  0  0  0  0  0  0  0  0  0  0  0
   -8.3500   20.3580  -32.7030 C   0  0  0  0  0  0  0  0  0  0  0  0
   -7.4310   19.5610  -33.4650 N   0  0  0  0  0  0  0  0  0  0  0  0
   -6.0020   19.5500  -33.3280 C   0  0  0  0  0  0  0  0  0  0  0  0
   -5.2650   18.5710  -34.0010 C   0  0  0  0  0  0  0  0  0  0  0  0
   -3.8720   18.5400  -33.8940 C   0  0  0  0  0  0  0  0  0  0  0  0
   -3.2060   19.4840  -33.1090 C   0  0  0  0  0  0  0  0  0  0  0  0
   -3.9300   20.4630  -32.4070 C   0  0  0  0  0  0  0  0  0  0  0  0
   -3.2290   21.4800  -31.5830 C   0  0  0  0  0  0  0  0  0  0  0  0
   -3.9260   22.5860  -31.0660 C   0  0  0  0  0  0  0  0  0  0  0  0
   -3.2630   23.5420  -30.2900 C   0  0  0  0  0  0  0  0  0  0  0  0
   -1.8920   23.4110  -30.0140 C   0  0  0  0  0  0  0  0  0  0  0  0
   -1.1920   24.4230  -29.1930 C   0  0  0  0  0  0  0  0  0  0  0  0
   -0.0100   24.2070  -28.5810 N   0  0  0  0  0  0  0  0  0  0  0  0
    0.3030   25.3230  -27.9460 N   0  0  0  0  0  0  0  0  0  0  0  0
   -0.6980   26.1830  -28.1920 C   0  0  0  0  0  0  0  0  0  0  0  0
   -0.7280   27.3550  -27.7380 O   0  0  0  0  0  0  0  0  0  0  0  0
   -1.6660   25.6680  -28.9710 N   0  0  0  0  0  0  0  0  0  0  0  0
   -1.1960   22.3050  -30.5290 C   0  0  0  0  0  0  0  0  0  0  0  0
   -1.8570   21.3510  -31.3050 C   0  0  0  0  0  0  0  0  0  0  0  0
   -5.3330   20.4740  -32.5060 C   0  0  0  0  0  0  0  0  0  0  0  0
   -7.9140   21.5560  -31.9450 C   0  0  0  0  0  0  0  0  0  0  0  0
   -7.3930   22.6810  -32.6090 C   0  0  0  0  0  0  0  0  0  0  0  0
   -6.9640   23.7940  -31.8820 C   0  0  0  0  0  0  0  0  0  0  0  0
   -7.0610   23.8020  -30.4890 C   0  0  0  0  0  0  0  0  0  0  0  0
   -7.5960   22.6980  -29.8210 C   0  0  0  0  0  0  0  0  0  0  0  0
   -8.0260   21.5810  -30.5440 C   0  0  0  0  0  0  0  0  0  0  0  0
   -5.7838   17.8220  -34.6173 H   0  0  0  0  0  0  0  0  0  0  0  0
   -3.2981   17.7696  -34.4298 H   0  0  0  0  0  0  0  0  0  0  0  0
   -2.1084   19.4611  -33.0398 H   0  0  0  0  0  0  0  0  0  0  0  0
   -5.0002   22.7002  -31.2733 H   0  0  0  0  0  0  0  0  0  0  0  0
   -3.8196   24.4035  -29.8926 H   0  0  0  0  0  0  0  0  0  0  0  0
   -0.1223   22.1896  -30.3194 H   0  0  0  0  0  0  0  0  0  0  0  0
   -1.2991   20.4904  -31.7026 H   0  0  0  0  0  0  0  0  0  0  0  0
   -5.9130   21.2134  -31.9343 H   0  0  0  0  0  0  0  0  0  0  0  0
   -7.3229   22.6845  -33.7068 H   0  0  0  0  0  0  0  0  0  0  0  0
   -6.5488   24.6662  -32.4081 H   0  0  0  0  0  0  0  0  0  0  0  0
   -6.7164   24.6769  -29.9182 H   0  0  0  0  0  0  0  0  0  0  0  0
   -7.6792   22.7073  -28.7242 H   0  0  0  0  0  0  0  0  0  0  0  0
   -8.4541   20.7175  -30.0138 H   0  0  0  0  0  0  0  0  0  0  0  0
  1  2  2  0
  2  3  1  0
  3  4  1  0
  4  5  2  0
  5  6  1  0
  6  7  2  0
  7  8  1  0
  8  9  1  0
  9 10  2  0
 10 11  1  0
 11 12  2  0
 12 13  1  0
 13 14  2  0
 14 15  1  0
 15 16  1  0
 16 17  2  0
 16 18  1  0
 12 19  1  0
 19 20  2  0
  8 21  2  0
  2 22  1  0
 22 23  2  0
 23 24  1  0
 24 25  2  0
 25 26  1  0
 26 27  2  0
 21  4  1  0
 27 22  1  0
 20  9  1  0
 18 13  1  0
  5 28  1  0
  6 29  1  0
  7 30  1  0
 10 31  1  0
 11 32  1  0
 19 33  1  0
 20 34  1  0
 21 35  1  0
 23 36  1  0
 24 37  1  0
 25 38  1  0
 26 39  1  0
 27 40  1  0
M  CHG  3   3  -1  15  -1  18  -1
M  END
>  <UniqueID>  (44) 
42

>  <SMILES>  (44) 
O=C([N-]c1cccc(-c2ccc(-c3n[n-]c(=O)[n-]3)cc2)c1)c1ccccc1

>  <Energy>  (44) 
89.33859136822217

>  <Genealogy>  (44) 
O=C([N-]c1cccc(-c2ccc(-c3n[n-]c(=O)[n-]3)cc2)c1)c1ccccc1 (protonated)
O=C([N-]c1cccc(-c2ccc(-c3n[n-]c(=O)[n-]3)cc2)c1)c1ccccc1 (3D coordinates assigned)
O=C([N-]c1cccc(-c2ccc(-c3n[n-]c(=O)[n-]3)cc2)c1)c1ccccc1 (optimized conformer: 89.33859136822217 kcal/mol)

>  <smiles>  (44) 
O=C(Nc1cccc(-c2ccc(-c3n[nH]c(=O)[nH]3)cc2)c1)c1ccccc1

>  <score_type>  (44) 
oracle

>  <origin>  (44) 
adgpu

>  <m_score__min__energy>  (44) 
-11.74

>  <m_primary>  (44) 
energy

$$$$
44:0
     RDKit          3D

 48 50  0  0  0  0  0  0  0  0999 V2000
   -5.4660   24.9480  -29.0880 N   0  0  0  0  0  0  0  0  0  0  0  0
   -5.3780   23.9690  -30.1270 C   0  0  0  0  0  0  0  0  0  0  0  0
   -6.0680   24.1550  -31.3330 C   0  0  0  0  0  0  0  0  0  0  0  0
   -5.9810   23.1980  -32.3480 C   0  0  0  0  0  0  0  0  0  0  0  0
   -5.2100   22.0430  -32.1640 C   0  0  0  0  0  0  0  0  0  0  0  0
   -5.0960   20.8080  -33.4610 S   0  0  0  0  0  0  0  0  0  0  0  0
   -6.4970   19.8640  -32.8360 C   0  0  0  0  0  0  0  0  0  0  0  0
   -7.7250   20.5220  -32.6900 C   0  0  0  0  0  0  0  0  0  0  0  0
   -8.8410   19.8390  -32.2080 C   0  0  0  0  0  0  0  0  0  0  0  0
   -8.7380   18.4940  -31.8600 C   0  0  0  0  0  0  0  0  0  0  0  0
   -7.5170   17.8290  -31.9840 C   0  0  0  0  0  0  0  0  0  0  0  0
   -6.3760   18.5050  -32.4620 C   0  0  0  0  0  0  0  0  0  0  0  0
   -5.1020   17.8290  -32.5560 N   0  0  0  0  0  0  0  0  0  0  0  0
   -4.3940   17.5640  -33.8110 C   0  0  0  0  0  0  0  0  0  0  0  0
   -2.8620   17.6700  -33.6490 C   0  0  0  0  0  0  0  0  0  0  0  0
   -2.3510   19.0560  -33.8010 N   0  0  0  0  0  0  0  0  0  0  0  0
   -1.0240   19.0280  -34.4520 C   0  0  0  0  0  0  0  0  0  0  0  0
   -0.5160   20.4560  -34.7500 C   0  0  0  0  0  0  0  0  0  0  0  0
   -1.0790   21.4700  -33.8440 N   0  0  0  0  0  0  0  0  0  0  0  0
   -1.2690   20.9310  -32.4950 C   0  0  0  0  0  0  0  0  0  0  0  0
   -2.2810   19.7640  -32.4950 C   0  0  0  0  0  0  0  0  0  0  0  0
   -4.5110   21.8620  -30.9630 C   0  0  0  0  0  0  0  0  0  0  0  0
   -4.5960   22.8180  -29.9480 C   0  0  0  0  0  0  0  0  0  0  0  0
   -5.0060   25.8810  -29.1920 H   0  0  0  0  0  0  0  0  0  0  0  0
   -5.9880   24.7460  -28.2080 H   0  0  0  0  0  0  0  0  0  0  0  0
   -6.6799   25.0570  -31.4810 H   0  0  0  0  0  0  0  0  0  0  0  0
   -6.5198   23.3523  -33.2945 H   0  0  0  0  0  0  0  0  0  0  0  0
   -7.8095   21.5856  -32.9576 H   0  0  0  0  0  0  0  0  0  0  0  0
   -9.8028   20.3623  -32.1025 H   0  0  0  0  0  0  0  0  0  0  0  0
   -9.6210   17.9547  -31.4866 H   0  0  0  0  0  0  0  0  0  0  0  0
   -7.4444   16.7672  -31.7060 H   0  0  0  0  0  0  0  0  0  0  0  0
   -4.6460   17.4760  -31.6880 H   0  0  0  0  0  0  0  0  0  0  0  0
   -4.6449   16.5487  -34.1519 H   0  0  0  0  0  0  0  0  0  0  0  0
   -4.7097   18.3213  -34.5437 H   0  0  0  0  0  0  0  0  0  0  0  0
   -2.5905   17.3054  -32.6473 H   0  0  0  0  0  0  0  0  0  0  0  0
   -2.4068   17.0650  -34.4470 H   0  0  0  0  0  0  0  0  0  0  0  0
   -3.0040   19.5760  -34.4360 H   0  0  0  0  0  0  0  0  0  0  0  0
   -0.3082   18.5247  -33.7854 H   0  0  0  0  0  0  0  0  0  0  0  0
   -1.1155   18.4857  -35.4046 H   0  0  0  0  0  0  0  0  0  0  0  0
    0.5793   20.4660  -34.6492 H   0  0  0  0  0  0  0  0  0  0  0  0
   -0.8382   20.7125  -35.7700 H   0  0  0  0  0  0  0  0  0  0  0  0
   -2.0080   21.7850  -34.2130 H   0  0  0  0  0  0  0  0  0  0  0  0
   -0.3029   20.5676  -32.1148 H   0  0  0  0  0  0  0  0  0  0  0  0
   -1.6629   21.7325  -31.8529 H   0  0  0  0  0  0  0  0  0  0  0  0
   -1.9835   19.0420  -31.7203 H   0  0  0  0  0  0  0  0  0  0  0  0
   -3.2756   20.1907  -32.2982 H   0  0  0  0  0  0  0  0  0  0  0  0
   -3.8929   20.9635  -30.8189 H   0  0  0  0  0  0  0  0  0  0  0  0
   -4.0484   22.6680  -29.0059 H   0  0  0  0  0  0  0  0  0  0  0  0
  1  2  1  0
  2  3  2  0
  3  4  1  0
  4  5  2  0
  5  6  1  0
  6  7  1  0
  7  8  2  0
  8  9  1  0
  9 10  2  0
 10 11  1  0
 11 12  2  0
 12 13  1  0
 13 14  1  0
 14 15  1  0
 15 16  1  0
 16 17  1  0
 17 18  1  0
 18 19  1  0
 19 20  1  0
 20 21  1  0
  5 22  1  0
 22 23  2  0
 23  2  1  0
 12  7  1  0
 21 16  1  0
  1 24  1  0
  1 25  1  0
  3 26  1  0
  4 27  1  0
  8 28  1  0
  9 29  1  0
 10 30  1  0
 11 31  1  0
 13 32  1  0
 14 33  1  0
 14 34  1  0
 15 35  1  0
 15 36  1  0
 16 37  1  0
 17 38  1  0
 17 39  1  0
 18 40  1  0
 18 41  1  0
 19 42  1  0
 20 43  1  0
 20 44  1  0
 21 45  1  0
 21 46  1  0
 22 47  1  0
 23 48  1  0
M  CHG  1  16   1
M  END
>  <UniqueID>  (45) 
43

>  <SMILES>  (45) 
Nc1ccc(Sc2ccccc2NCC[NH+]2CCNCC2)cc1

>  <Energy>  (45) 
52.697331530800085

>  <Genealogy>  (45) 
Nc1ccc(Sc2ccccc2NCC[NH+]2CCNCC2)cc1 (protonated)
Nc1ccc(Sc2ccccc2NCC[NH+]2CCNCC2)cc1 (3D coordinates assigned)
Nc1ccc(Sc2ccccc2NCC[NH+]2CCNCC2)cc1 (nonaromatic ring conformer: 52.697331530800085 kcal/mol)

>  <smiles>  (45) 
Nc1ccc(Sc2ccccc2NCCN2CCNCC2)cc1

>  <score_type>  (45) 
oracle

>  <origin>  (45) 
adgpu

>  <m_score__min__energy>  (45) 
-7.2300000000000004

>  <m_primary>  (45) 
energy

$$$$
45:0
     RDKit          3D

 58 60  0  0  0  0  0  0  0  0999 V2000
   -0.8970   26.4050  -27.9730 C   0  0  0  0  0  0  0  0  0  0  0  0
   -1.0650   25.1270  -27.1550 C   0  0  0  0  0  0  0  0  0  0  0  0
   -2.4650   24.5360  -27.3340 C   0  0  0  0  0  0  0  0  0  0  0  0
   -2.4800   23.5490  -28.4610 C   0  0  0  0  0  0  0  0  0  0  0  0
   -1.8970   22.3320  -28.4080 N   0  0  0  0  0  0  0  0  0  0  0  0
   -2.0430   21.7640  -29.5990 N   0  0  0  0  0  0  0  0  0  0  0  0
   -1.5240   20.4400  -29.9290 C   0  0  0  0  0  0  0  0  0  0  0  0
   -2.7070   22.5970  -30.4300 C   0  0  0  0  0  0  0  0  0  0  0  0
   -3.0340   22.3060  -31.8620 C   0  0  0  0  0  0  0  0  0  0  0  0
   -2.9870   23.7500  -29.7290 C   0  0  0  0  0  0  0  0  0  0  0  0
   -3.6160   24.9320  -30.2220 N   0  0  0  0  0  0  0  0  0  0  0  0
   -5.3270   25.1660  -30.0940 S   0  0  0  0  0  0  0  0  0  0  0  0
   -5.7250   26.4040  -30.8480 O   0  0  0  0  0  0  0  0  0  0  0  0
   -5.6860   25.3470  -28.6460 O   0  0  0  0  0  0  0  0  0  0  0  0
   -6.1910   23.7740  -30.7450 C   0  0  0  0  0  0  0  0  0  0  0  0
   -6.0450   23.4080  -32.0900 C   0  0  0  0  0  0  0  0  0  0  0  0
   -6.7570   22.3220  -32.6050 C   0  0  0  0  0  0  0  0  0  0  0  0
   -7.6240   21.5880  -31.7810 C   0  0  0  0  0  0  0  0  0  0  0  0
   -8.3800   20.4120  -32.3410 C   0  0  0  0  0  0  0  0  0  0  0  0
   -7.7160   19.8830  -33.4900 O   0  0  0  0  0  0  0  0  0  0  0  0
   -6.5940   19.0380  -33.4630 C   0  0  0  0  0  0  0  0  0  0  0  0
   -6.8050   17.6560  -33.5200 C   0  0  0  0  0  0  0  0  0  0  0  0
   -5.7240   16.7720  -33.5130 C   0  0  0  0  0  0  0  0  0  0  0  0
   -5.9500   15.4020  -33.5760 O   0  0  0  0  0  0  0  0  0  0  0  0
   -4.4170   17.2620  -33.4480 C   0  0  0  0  0  0  0  0  0  0  0  0
   -4.1780   18.6470  -33.3850 C   0  0  0  0  0  0  0  0  0  0  0  0
   -2.7920   19.1700  -33.3280 C   0  0  0  0  0  0  0  0  0  0  0  0
   -1.9690   18.6950  -32.4970 O   0  0  0  0  0  0  0  0  0  0  0  0
   -2.3770   20.2100  -34.2210 N   0  0  0  0  0  0  0  0  0  0  0  0
   -1.0410   20.7870  -34.1990 C   0  0  0  0  0  0  0  0  0  0  0  0
   -5.2760   19.5280  -33.3840 C   0  0  0  0  0  0  0  0  0  0  0  0
   -7.7840   21.9680  -30.4390 C   0  0  0  0  0  0  0  0  0  0  0  0
   -7.0640   23.0490  -29.9230 C   0  0  0  0  0  0  0  0  0  0  0  0
   -0.7842   27.2629  -27.2938 H   0  0  0  0  0  0  0  0  0  0  0  0
   -0.0024   26.3194  -28.6073 H   0  0  0  0  0  0  0  0  0  0  0  0
   -1.7833   26.5535  -28.6073 H   0  0  0  0  0  0  0  0  0  0  0  0
   -0.3190   24.3890  -27.4850 H   0  0  0  0  0  0  0  0  0  0  0  0
   -0.9236   25.3724  -26.0921 H   0  0  0  0  0  0  0  0  0  0  0  0
   -2.7649   24.0288  -26.4051 H   0  0  0  0  0  0  0  0  0  0  0  0
   -3.1670   25.3504  -27.5662 H   0  0  0  0  0  0  0  0  0  0  0  0
   -1.3081   19.8892  -29.0016 H   0  0  0  0  0  0  0  0  0  0  0  0
   -2.2726   19.8888  -30.5170 H   0  0  0  0  0  0  0  0  0  0  0  0
   -0.6002   20.5444  -30.5170 H   0  0  0  0  0  0  0  0  0  0  0  0
   -3.8550   21.5754  -31.9095 H   0  0  0  0  0  0  0  0  0  0  0  0
   -3.3407   23.2354  -32.3642 H   0  0  0  0  0  0  0  0  0  0  0  0
   -2.1465   21.8935  -32.3642 H   0  0  0  0  0  0  0  0  0  0  0  0
   -5.3673   23.9780  -32.7425 H   0  0  0  0  0  0  0  0  0  0  0  0
   -6.6375   22.0408  -33.6617 H   0  0  0  0  0  0  0  0  0  0  0  0
   -8.4495   19.6286  -31.5720 H   0  0  0  0  0  0  0  0  0  0  0  0
   -9.3848   20.7474  -32.6375 H   0  0  0  0  0  0  0  0  0  0  0  0
   -7.8310   17.2626  -33.5708 H   0  0  0  0  0  0  0  0  0  0  0  0
   -3.5697   16.5605  -33.4461 H   0  0  0  0  0  0  0  0  0  0  0  0
   -0.7188   20.9261  -33.1565 H   0  0  0  0  0  0  0  0  0  0  0  0
   -0.3411   20.1109  -34.7119 H   0  0  0  0  0  0  0  0  0  0  0  0
   -1.0533   21.7600  -34.7119 H   0  0  0  0  0  0  0  0  0  0  0  0
   -5.1024   20.6124  -33.3207 H   0  0  0  0  0  0  0  0  0  0  0  0
   -8.4785   21.4129  -29.7913 H   0  0  0  0  0  0  0  0  0  0  0  0
   -7.1832   23.3320  -28.8667 H   0  0  0  0  0  0  0  0  0  0  0  0
  1  2  1  0
  2  3  1  0
  3  4  1  0
  4  5  2  0
  5  6  1  0
  6  7  1  0
  6  8  1  0
  8  9  1  0
  8 10  2  0
 10 11  1  0
 11 12  1  0
 12 13  2  0
 12 14  2  0
 12 15  1  0
 15 16  2  0
 16 17  1  0
 17 18  2  0
 18 19  1  0
 19 20  1  0
 20 21  1  0
 21 22  2  0
 22 23  1  0
 23 24  1  0
 23 25  2  0
 25 26  1  0
 26 27  1  0
 27 28  2  0
 27 29  1  0
 29 30  1  0
 26 31  2  0
 18 32  1  0
 32 33  2  0
 10  4  1  0
 33 15  1  0
 31 21  1  0
  1 34  1  0
  1 35  1  0
  1 36  1  0
  2 37  1  0
  2 38  1  0
  3 39  1  0
  3 40  1  0
  7 41  1  0
  7 42  1  0
  7 43  1  0
  9 44  1  0
  9 45  1  0
  9 46  1  0
 16 47  1  0
 17 48  1  0
 19 49  1  0
 19 50  1  0
 22 51  1  0
 25 52  1  0
 30 53  1  0
 30 54  1  0
 30 55  1  0
 31 56  1  0
 32 57  1  0
 33 58  1  0
M  CHG  3  11  -1  24  -1  29  -1
M  END
>  <UniqueID>  (46) 
44

>  <SMILES>  (46) 
CCCc1nn(C)c(C)c1[N-]S(=O)(=O)c1ccc(COc2cc([O-])cc(C(=O)[N-]C)c2)cc1

>  <Energy>  (46) 
88.47312480484189

>  <Genealogy>  (46) 
CCCc1nn(C)c(C)c1[N-]S(=O)(=O)c1ccc(COc2cc([O-])cc(C(=O)[N-]C)c2)cc1 (protonated)
CCCc1nn(C)c(C)c1[N-]S(=O)(=O)c1ccc(COc2cc([O-])cc(C(=O)[N-]C)c2)cc1 (3D coordinates assigned)
CCCc1nn(C)c(C)c1[N-]S(=O)(=O)c1ccc(COc2cc([O-])cc(C(=O)[N-]C)c2)cc1 (optimized conformer: 88.47312480484189 kcal/mol)

>  <smiles>  (46) 
CCCc1nn(C)c(C)c1NS(=O)(=O)c1ccc(COc2cc(O)cc(C(=O)NC)c2)cc1

>  <score_type>  (46) 
oracle

>  <origin>  (46) 
adgpu

>  <m_score__min__energy>  (46) 
-10.75

>  <m_primary>  (46) 
energy

$$$$
46:0
     RDKit          3D

 45 46  0  0  0  0  0  0  0  0999 V2000
   -8.5240   18.5680  -31.7260 C   0  0  0  0  0  0  0  0  0  0  0  0
   -7.0630   18.7060  -31.6850 N   0  0  0  0  0  0  0  0  0  0  0  0
   -6.4520   17.4420  -31.2540 C   0  0  0  0  0  0  0  0  0  0  0  0
   -6.4720   19.1200  -33.2760 S   0  0  0  0  0  0  0  0  0  0  0  0
   -6.6200   17.9420  -34.1990 O   0  0  0  0  0  0  0  0  0  0  0  0
   -7.2620   20.2760  -33.8250 O   0  0  0  0  0  0  0  0  0  0  0  0
   -4.7660   19.5490  -33.1890 C   0  0  0  0  0  0  0  0  0  0  0  0
   -3.7780   18.5540  -33.2080 C   0  0  0  0  0  0  0  0  0  0  0  0
   -2.4270   18.9040  -33.1520 C   0  0  0  0  0  0  0  0  0  0  0  0
   -2.0500   20.2520  -33.0710 C   0  0  0  0  0  0  0  0  0  0  0  0
   -0.3490   20.7070  -33.0840 S   0  0  0  0  0  0  0  0  0  0  0  0
    0.4580   19.5710  -33.6480 O   0  0  0  0  0  0  0  0  0  0  0  0
   -0.1440   21.9130  -33.9590 O   0  0  0  0  0  0  0  0  0  0  0  0
    0.2020   21.0490  -31.4700 N   0  0  0  0  0  0  0  0  0  0  0  0
   -0.6070   22.0970  -30.8410 C   0  0  0  0  0  0  0  0  0  0  0  0
   -1.0100   21.6760  -29.4250 C   0  0  0  0  0  0  0  0  0  0  0  0
   -1.6150   22.8520  -28.6510 C   0  0  0  0  0  0  0  0  0  0  0  0
   -2.7890   23.4310  -29.3990 C   0  0  0  0  0  0  0  0  0  0  0  0
   -3.8220   22.5920  -29.8430 C   0  0  0  0  0  0  0  0  0  0  0  0
   -4.8930   23.1200  -30.5650 C   0  0  0  0  0  0  0  0  0  0  0  0
   -4.9200   24.4880  -30.8450 C   0  0  0  0  0  0  0  0  0  0  0  0
   -5.8790   24.9830  -31.4930 O   0  0  0  0  0  0  0  0  0  0  0  0
   -3.9080   25.2890  -30.4200 N   0  0  0  0  0  0  0  0  0  0  0  0
   -2.8490   24.8010  -29.7180 C   0  0  0  0  0  0  0  0  0  0  0  0
   -1.8360   25.6680  -29.3280 O   0  0  0  0  0  0  0  0  0  0  0  0
   -3.0380   21.2450  -33.0430 C   0  0  0  0  0  0  0  0  0  0  0  0
   -4.3900   20.8950  -33.0960 C   0  0  0  0  0  0  0  0  0  0  0  0
   -8.9177   18.5308  -30.6996 H   0  0  0  0  0  0  0  0  0  0  0  0
   -8.9589   19.4291  -32.2546 H   0  0  0  0  0  0  0  0  0  0  0  0
   -8.7900   17.6407  -32.2546 H   0  0  0  0  0  0  0  0  0  0  0  0
   -6.4319   17.4004  -30.1550 H   0  0  0  0  0  0  0  0  0  0  0  0
   -7.0418   16.5985  -31.6421 H   0  0  0  0  0  0  0  0  0  0  0  0
   -5.4246   17.3803  -31.6421 H   0  0  0  0  0  0  0  0  0  0  0  0
   -4.0679   17.4945  -33.2672 H   0  0  0  0  0  0  0  0  0  0  0  0
   -1.6562   18.1194  -33.1715 H   0  0  0  0  0  0  0  0  0  0  0  0
   -0.0216   23.0269  -30.7908 H   0  0  0  0  0  0  0  0  0  0  0  0
   -1.5156   22.2570  -31.4400 H   0  0  0  0  0  0  0  0  0  0  0  0
   -1.7530   20.8674  -29.4884 H   0  0  0  0  0  0  0  0  0  0  0  0
   -0.1102   21.3335  -28.8929 H   0  0  0  0  0  0  0  0  0  0  0  0
   -1.9523   22.5005  -27.6647 H   0  0  0  0  0  0  0  0  0  0  0  0
   -0.8484   23.6323  -28.5348 H   0  0  0  0  0  0  0  0  0  0  0  0
   -3.7876   21.5151  -29.6214 H   0  0  0  0  0  0  0  0  0  0  0  0
   -5.7073   22.4658  -30.9099 H   0  0  0  0  0  0  0  0  0  0  0  0
   -2.7484   22.3043  -32.9790 H   0  0  0  0  0  0  0  0  0  0  0  0
   -5.1611   21.6789  -33.0646 H   0  0  0  0  0  0  0  0  0  0  0  0
  1  2  1  0
  2  3  1  0
  2  4  1  0
  4  5  2  0
  4  6  2  0
  4  7  1  0
  7  8  2  0
  8  9  1  0
  9 10  2  0
 10 11  1  0
 11 12  2  0
 11 13  2  0
 11 14  1  0
 14 15  1  0
 15 16  1  0
 16 17  1  0
 17 18  1  0
 18 19  1  0
 19 20  2  0
 20 21  1  0
 21 22  2  0
 21 23  1  0
 23 24  1  0
 24 25  1  0
 10 26  1  0
 26 27  2  0
 27  7  1  0
 24 18  2  0
  1 28  1  0
  1 29  1  0
  1 30  1  0
  3 31  1  0
  3 32  1  0
  3 33  1  0
  8 34  1  0
  9 35  1  0
 15 36  1  0
 15 37  1  0
 16 38  1  0
 16 39  1  0
 17 40  1  0
 17 41  1  0
 19 42  1  0
 20 43  1  0
 26 44  1  0
 27 45  1  0
M  CHG  3  14  -1  23  -1  25  -1
M  END
>  <UniqueID>  (47) 
45

>  <SMILES>  (47) 
CN(C)S(=O)(=O)c1ccc(S(=O)(=O)[N-]CCCc2ccc(=O)[n-]c2[O-])cc1

>  <Energy>  (47) 
35.924503231316685

>  <Genealogy>  (47) 
CN(C)S(=O)(=O)c1ccc(S(=O)(=O)[N-]CCCc2ccc(=O)[n-]c2[O-])cc1 (protonated)
CN(C)S(=O)(=O)c1ccc(S(=O)(=O)[N-]CCCc2ccc(=O)[n-]c2[O-])cc1 (3D coordinates assigned)
CN(C)S(=O)(=O)c1ccc(S(=O)(=O)[N-]CCCc2ccc(=O)[n-]c2[O-])cc1 (optimized conformer: 35.924503231316685 kcal/mol)

>  <smiles>  (47) 
CN(C)S(=O)(=O)c1ccc(S(=O)(=O)NCCCc2ccc(=O)[nH]c2O)cc1

>  <score_type>  (47) 
oracle

>  <origin>  (47) 
adgpu

>  <m_score__min__energy>  (47) 
-14.44

>  <m_primary>  (47) 
energy

$$$$
