0:0
     RDKit          3D

 33 35  0  0  0  0  0  0  0  0999 V2000
   -6.1130   26.0380  -29.9500 S   0  0  0  0  0  0  0  0  0  0  0  0
   -5.1100   24.8520  -30.4680 C   0  0  0  0  0  0  0  0  0  0  0  0
   -3.7690   24.9690  -30.4640 N   0  0  0  0  0  0  0  0  0  0  0  0
   -3.2830   23.8180  -30.9070 N   0  0  0  0  0  0  0  0  0  0  0  0
   -4.3350   23.0160  -31.1700 C   0  0  0  0  0  0  0  0  0  0  0  0
   -4.1850   21.6250  -31.7260 C   0  0  0  0  0  0  0  0  0  0  0  0
   -5.1390   21.3800  -32.8110 N   0  0  0  0  0  0  0  0  0  0  0  0
   -5.8080   20.1260  -33.0340 C   0  0  0  0  0  0  0  0  0  0  0  0
   -5.1990   19.1610  -33.8540 C   0  0  0  0  0  0  0  0  0  0  0  0
   -5.8160   17.9250  -34.0730 C   0  0  0  0  0  0  0  0  0  0  0  0
   -7.0480   17.6430  -33.4810 C   0  0  0  0  0  0  0  0  0  0  0  0
   -7.6680   18.5970  -32.6700 C   0  0  0  0  0  0  0  0  0  0  0  0
   -7.0550   19.8340  -32.4470 C   0  0  0  0  0  0  0  0  0  0  0  0
   -5.5040   23.6340  -30.8920 N   0  0  0  0  0  0  0  0  0  0  0  0
   -6.8410   23.1330  -31.0520 C   0  0  0  0  0  0  0  0  0  0  0  0
   -7.6100   23.5150  -32.1630 C   0  0  0  0  0  0  0  0  0  0  0  0
   -8.8970   22.9970  -32.3380 C   0  0  0  0  0  0  0  0  0  0  0  0
   -9.4240   22.0990  -31.4050 C   0  0  0  0  0  0  0  0  0  0  0  0
   -8.6640   21.7180  -30.2950 C   0  0  0  0  0  0  0  0  0  0  0  0
   -7.3750   22.2330  -30.1180 C   0  0  0  0  0  0  0  0  0  0  0  0
   -3.1627   21.5020  -32.1130 H   0  0  0  0  0  0  0  0  0  0  0  0
   -4.3845   20.9049  -30.9188 H   0  0  0  0  0  0  0  0  0  0  0  0
   -5.2770   22.1490  -33.5060 H   0  0  0  0  0  0  0  0  0  0  0  0
   -4.2302   19.3792  -34.3270 H   0  0  0  0  0  0  0  0  0  0  0  0
   -5.3295   17.1741  -34.7128 H   0  0  0  0  0  0  0  0  0  0  0  0
   -7.5309   16.6697  -33.6529 H   0  0  0  0  0  0  0  0  0  0  0  0
   -8.6402   18.3746  -32.2060 H   0  0  0  0  0  0  0  0  0  0  0  0
   -7.5489   20.5827  -31.8102 H   0  0  0  0  0  0  0  0  0  0  0  0
   -7.1991   24.2234  -32.8974 H   0  0  0  0  0  0  0  0  0  0  0  0
   -9.4956   23.2965  -33.2109 H   0  0  0  0  0  0  0  0  0  0  0  0
  -10.4365   21.6922  -31.5442 H   0  0  0  0  0  0  0  0  0  0  0  0
   -9.0797   21.0128  -29.5602 H   0  0  0  0  0  0  0  0  0  0  0  0
   -6.7789   21.9313  -29.2441 H   0  0  0  0  0  0  0  0  0  0  0  0
  1  2  2  0
  2  3  1  0
  3  4  1  0
  4  5  2  0
  5  6  1  0
  6  7  1  0
  7  8  1  0
  8  9  2  0
  9 10  1  0
 10 11  2  0
 11 12  1  0
 12 13  2  0
  5 14  1  0
 14 15  1  0
 15 16  2  0
 16 17  1  0
 17 18  2  0
 18 19  1  0
 19 20  2  0
 14  2  1  0
 20 15  1  0
 13  8  1  0
  6 21  1  0
  6 22  1  0
  7 23  1  0
  9 24  1  0
 10 25  1  0
 11 26  1  0
 12 27  1  0
 13 28  1  0
 16 29  1  0
 17 30  1  0
 18 31  1  0
 19 32  1  0
 20 33  1  0
M  CHG  1   3  -1
M  END
>  <UniqueID>  (1) 
1

>  <SMILES>  (1) 
S=c1[n-]nc(CNc2ccccc2)n1-c1ccccc1

>  <Energy>  (1) 
75.05066811990402

>  <Genealogy>  (1) 
S=c1[n-]nc(CNc2ccccc2)n1-c1ccccc1 (protonated)
S=c1[n-]nc(CNc2ccccc2)n1-c1ccccc1 (3D coordinates assigned)
S=c1[n-]nc(CNc2ccccc2)n1-c1ccccc1 (optimized conformer: 75.05066811990402 kcal/mol)

>  <smiles>  (1) 
S=c1[nH]nc(CNc2ccccc2)n1-c1ccccc1

>  <score_type>  (1) 
oracle

>  <origin>  (1) 
adgpu

>  <m_score__min__energy>  (1) 
-9.25

>  <m_primary>  (1) 
energy

$$$$
1:0
     RDKit          3D

 51 53  0  0  0  0  0  0  0  0999 V2000
    0.7490   16.9310  -27.9280 C   0  0  0  0  0  0  0  0  0  0  0  0
   -0.0450   18.1990  -27.8630 C   0  0  0  0  0  0  0  0  0  0  0  0
   -1.0410   18.2560  -27.0970 O   0  0  0  0  0  0  0  0  0  0  0  0
    0.3120   19.3580  -28.6240 N   0  0  0  0  0  0  0  0  0  0  0  0
   -0.4100   20.5950  -28.6870 C   0  0  0  0  0  0  0  0  0  0  0  0
   -0.8220   21.0760  -29.9370 C   0  0  0  0  0  0  0  0  0  0  0  0
   -1.4940   22.3000  -30.0400 C   0  0  0  0  0  0  0  0  0  0  0  0
   -1.7490   23.0610  -28.8910 C   0  0  0  0  0  0  0  0  0  0  0  0
   -2.5580   24.6230  -29.0090 S   0  0  0  0  0  0  0  0  0  0  0  0
   -1.5560   25.7430  -28.9620 O   0  0  0  0  0  0  0  0  0  0  0  0
   -3.4950   24.7870  -27.8450 O   0  0  0  0  0  0  0  0  0  0  0  0
   -3.4890   24.6850  -30.4710 N   0  0  0  0  0  0  0  0  0  0  0  0
   -4.6400   23.8830  -30.7680 C   0  0  0  0  0  0  0  0  0  0  0  0
   -4.5670   22.7580  -31.6150 C   0  0  0  0  0  0  0  0  0  0  0  0
   -5.7140   21.9970  -31.8830 C   0  0  0  0  0  0  0  0  0  0  0  0
   -5.6320   20.5940  -32.9480 S   0  0  0  0  0  0  0  0  0  0  0  0
   -6.8540   20.5880  -33.8250 O   0  0  0  0  0  0  0  0  0  0  0  0
   -4.4190   20.6960  -33.8310 O   0  0  0  0  0  0  0  0  0  0  0  0
   -5.5670   19.1360  -31.9780 N   0  0  0  0  0  0  0  0  0  0  0  0
   -4.7380   18.0820  -32.6210 C   0  0  0  0  0  0  0  0  0  0  0  0
   -5.4990   16.7820  -32.9300 C   0  0  0  0  0  0  0  0  0  0  0  0
   -6.8470   17.0930  -33.5820 C   0  0  0  0  0  0  0  0  0  0  0  0
   -7.7000   18.0550  -32.7350 C   0  0  0  0  0  0  0  0  0  0  0  0
   -6.9140   18.6860  -31.5720 C   0  0  0  0  0  0  0  0  0  0  0  0
   -6.9330   22.3500  -31.2930 C   0  0  0  0  0  0  0  0  0  0  0  0
   -7.0170   23.4730  -30.4730 C   0  0  0  0  0  0  0  0  0  0  0  0
   -5.8780   24.2490  -30.2180 C   0  0  0  0  0  0  0  0  0  0  0  0
   -5.9660   25.3790  -29.4080 O   0  0  0  0  0  0  0  0  0  0  0  0
   -1.3150   22.5930  -27.6460 C   0  0  0  0  0  0  0  0  0  0  0  0
   -0.6400   21.3750  -27.5430 C   0  0  0  0  0  0  0  0  0  0  0  0
    0.9673   16.5824  -26.9078 H   0  0  0  0  0  0  0  0  0  0  0  0
    0.1702   16.1629  -28.4620 H   0  0  0  0  0  0  0  0  0  0  0  0
    1.6927   17.1163  -28.4620 H   0  0  0  0  0  0  0  0  0  0  0  0
   -0.6161   20.4879  -30.8435 H   0  0  0  0  0  0  0  0  0  0  0  0
   -1.8224   22.6650  -31.0244 H   0  0  0  0  0  0  0  0  0  0  0  0
   -3.6051   22.4758  -32.0680 H   0  0  0  0  0  0  0  0  0  0  0  0
   -4.3424   18.4830  -33.5658 H   0  0  0  0  0  0  0  0  0  0  0  0
   -3.9460   17.8215  -31.9035 H   0  0  0  0  0  0  0  0  0  0  0  0
   -4.8990   16.1654  -33.6154 H   0  0  0  0  0  0  0  0  0  0  0  0
   -5.6753   16.2405  -31.9889 H   0  0  0  0  0  0  0  0  0  0  0  0
   -6.6664   17.5529  -34.5648 H   0  0  0  0  0  0  0  0  0  0  0  0
   -7.4008   16.1472  -33.6755 H   0  0  0  0  0  0  0  0  0  0  0  0
   -8.0713   18.8605  -33.3857 H   0  0  0  0  0  0  0  0  0  0  0  0
   -8.5227   17.4697  -32.2984 H   0  0  0  0  0  0  0  0  0  0  0  0
   -7.4768   19.5527  -31.1951 H   0  0  0  0  0  0  0  0  0  0  0  0
   -6.7895   17.9162  -30.7962 H   0  0  0  0  0  0  0  0  0  0  0  0
   -7.8284   21.7382  -31.4775 H   0  0  0  0  0  0  0  0  0  0  0  0
   -7.9815   23.7520  -30.0236 H   0  0  0  0  0  0  0  0  0  0  0  0
   -5.1710   25.7120  -28.8750 H   0  0  0  0  0  0  0  0  0  0  0  0
   -1.5069   23.1890  -26.7416 H   0  0  0  0  0  0  0  0  0  0  0  0
   -0.2871   21.0254  -26.5615 H   0  0  0  0  0  0  0  0  0  0  0  0
  1  2  1  0
  2  3  2  0
  2  4  1  0
  4  5  1  0
  5  6  2  0
  6  7  1  0
  7  8  2  0
  8  9  1  0
  9 10  2  0
  9 11  2  0
  9 12  1  0
 12 13  1  0
 13 14  2  0
 14 15  1  0
 15 16  1  0
 16 17  2  0
 16 18  2  0
 16 19  1  0
 19 20  1  0
 20 21  1  0
 21 22  1  0
 22 23  1  0
 23 24  1  0
 15 25  2  0
 25 26  1  0
 26 27  2  0
 27 28  1  0
  8 29  1  0
 29 30  2  0
 30  5  1  0
 27 13  1  0
 24 19  1  0
  1 31  1  0
  1 32  1  0
  1 33  1  0
  6 34  1  0
  7 35  1  0
 14 36  1  0
 20 37  1  0
 20 38  1  0
 21 39  1  0
 21 40  1  0
 22 41  1  0
 22 42  1  0
 23 43  1  0
 23 44  1  0
 24 45  1  0
 24 46  1  0
 25 47  1  0
 26 48  1  0
 28 49  1  0
 29 50  1  0
 30 51  1  0
M  CHG  2   4  -1  12  -1
M  END
>  <UniqueID>  (2) 
2

>  <SMILES>  (2) 
CC(=O)[N-]c1ccc(S(=O)(=O)[N-]c2cc(S(=O)(=O)N3CCCCC3)ccc2O)cc1

>  <Energy>  (2) 
67.05210405824941

>  <Genealogy>  (2) 
CC(=O)[N-]c1ccc(S(=O)(=O)[N-]c2cc(S(=O)(=O)N3CCCCC3)ccc2O)cc1 (protonated)
CC(=O)[N-]c1ccc(S(=O)(=O)[N-]c2cc(S(=O)(=O)N3CCCCC3)ccc2O)cc1 (3D coordinates assigned)
CC(=O)[N-]c1ccc(S(=O)(=O)[N-]c2cc(S(=O)(=O)N3CCCCC3)ccc2O)cc1 (nonaromatic ring conformer: 67.05210405824941 kcal/mol)

>  <smiles>  (2) 
CC(=O)Nc1ccc(S(=O)(=O)Nc2cc(S(=O)(=O)N3CCCCC3)ccc2O)cc1

>  <score_type>  (2) 
oracle

>  <origin>  (2) 
adgpu

>  <m_score__min__energy>  (2) 
-11.24

>  <m_primary>  (2) 
energy

$$$$
2:0
     RDKit          3D

 46 48  0  0  0  0  0  0  0  0999 V2000
   -3.5140   25.2580  -30.4250 N   0  0  0  0  0  0  0  0  0  0  0  0
   -4.1780   24.3170  -29.5830 C   0  0  0  0  0  0  0  0  0  0  0  0
   -3.8410   24.2310  -28.3720 O   0  0  0  0  0  0  0  0  0  0  0  0
   -5.2490   23.4470  -30.1240 C   0  0  0  0  0  0  0  0  0  0  0  0
   -4.9270   22.2580  -30.8020 C   0  0  0  0  0  0  0  0  0  0  0  0
   -5.9340   21.4590  -31.3510 C   0  0  0  0  0  0  0  0  0  0  0  0
   -7.2780   21.8250  -31.2160 C   0  0  0  0  0  0  0  0  0  0  0  0
   -8.5330   20.8700  -32.0010 S   0  0  0  0  0  0  0  0  0  0  0  0
   -9.6450   21.7560  -32.4930 O   0  0  0  0  0  0  0  0  0  0  0  0
   -9.1040   19.8920  -31.0130 O   0  0  0  0  0  0  0  0  0  0  0  0
   -7.8300   20.0050  -33.3270 N   0  0  0  0  0  0  0  0  0  0  0  0
   -6.8500   18.9860  -33.0950 C   0  0  0  0  0  0  0  0  0  0  0  0
   -7.2270   17.7210  -32.6210 C   0  0  0  0  0  0  0  0  0  0  0  0
   -6.2720   16.7150  -32.4660 C   0  0  0  0  0  0  0  0  0  0  0  0
   -4.9370   16.9590  -32.7940 C   0  0  0  0  0  0  0  0  0  0  0  0
   -4.5480   18.2200  -33.2680 C   0  0  0  0  0  0  0  0  0  0  0  0
   -2.8810   18.5020  -33.7660 S   0  0  0  0  0  0  0  0  0  0  0  0
   -2.6010   17.6910  -35.0020 O   0  0  0  0  0  0  0  0  0  0  0  0
   -1.9540   18.0220  -32.6840 O   0  0  0  0  0  0  0  0  0  0  0  0
   -2.5620   20.1910  -34.1110 N   0  0  0  0  0  0  0  0  0  0  0  0
   -1.1860   20.4280  -34.5870 C   0  0  0  0  0  0  0  0  0  0  0  0
   -0.1570   20.5400  -33.4390 C   0  0  0  0  0  0  0  0  0  0  0  0
   -0.7540   20.5600  -32.1570 O   0  0  0  0  0  0  0  0  0  0  0  0
   -1.7770   21.5260  -32.1270 C   0  0  0  0  0  0  0  0  0  0  0  0
   -2.9630   21.0870  -33.0050 C   0  0  0  0  0  0  0  0  0  0  0  0
   -5.5030   19.2390  -33.3880 C   0  0  0  0  0  0  0  0  0  0  0  0
   -7.6070   22.9980  -30.5270 C   0  0  0  0  0  0  0  0  0  0  0  0
   -6.6020   23.8050  -29.9860 C   0  0  0  0  0  0  0  0  0  0  0  0
   -2.4710   25.2950  -30.4700 H   0  0  0  0  0  0  0  0  0  0  0  0
   -3.8744   21.9542  -30.9011 H   0  0  0  0  0  0  0  0  0  0  0  0
   -5.6689   20.5384  -31.8916 H   0  0  0  0  0  0  0  0  0  0  0  0
   -8.3650   19.9930  -34.2240 H   0  0  0  0  0  0  0  0  0  0  0  0
   -8.2792   17.5209  -32.3705 H   0  0  0  0  0  0  0  0  0  0  0  0
   -6.5718   15.7278  -32.0846 H   0  0  0  0  0  0  0  0  0  0  0  0
   -4.1890   16.1605  -32.6804 H   0  0  0  0  0  0  0  0  0  0  0  0
   -0.8927   19.5924  -35.2395 H   0  0  0  0  0  0  0  0  0  0  0  0
   -1.1855   21.3890  -35.1222 H   0  0  0  0  0  0  0  0  0  0  0  0
    0.5240   19.6779  -33.4943 H   0  0  0  0  0  0  0  0  0  0  0  0
    0.3743   21.4945  -33.5676 H   0  0  0  0  0  0  0  0  0  0  0  0
   -2.1226   21.6545  -31.0906 H   0  0  0  0  0  0  0  0  0  0  0  0
   -1.3799   22.4751  -32.5162 H   0  0  0  0  0  0  0  0  0  0  0  0
   -3.6911   20.5585  -32.3721 H   0  0  0  0  0  0  0  0  0  0  0  0
   -3.3927   21.9939  -33.4553 H   0  0  0  0  0  0  0  0  0  0  0  0
   -5.1935   20.2430  -33.7140 H   0  0  0  0  0  0  0  0  0  0  0  0
   -8.6621   23.2864  -30.4106 H   0  0  0  0  0  0  0  0  0  0  0  0
   -6.8712   24.7263  -29.4487 H   0  0  0  0  0  0  0  0  0  0  0  0
  1  2  1  0
  2  3  2  0
  2  4  1  0
  4  5  2  0
  5  6  1  0
  6  7  2  0
  7  8  1  0
  8  9  2  0
  8 10  2  0
  8 11  1  0
 11 12  1  0
 12 13  2  0
 13 14  1  0
 14 15  2  0
 15 16  1  0
 16 17  1  0
 17 18  2  0
 17 19  2  0
 17 20  1  0
 20 21  1  0
 21 22  1  0
 22 23  1  0
 23 24  1  0
 24 25  1  0
 16 26  2  0
  7 27  1  0
 27 28  2  0
 28  4  1  0
 26 12  1  0
 25 20  1  0
  1 29  1  0
  5 30  1  0
  6 31  1  0
 11 32  1  0
 13 33  1  0
 14 34  1  0
 15 35  1  0
 21 36  1  0
 21 37  1  0
 22 38  1  0
 22 39  1  0
 24 40  1  0
 24 41  1  0
 25 42  1  0
 25 43  1  0
 26 44  1  0
 27 45  1  0
 28 46  1  0
M  CHG  1   1  -1
M  END
>  <UniqueID>  (3) 
3

>  <SMILES>  (3) 
[NH-]C(=O)c1ccc(S(=O)(=O)Nc2cccc(S(=O)(=O)N3CCOCC3)c2)cc1

>  <Energy>  (3) 
58.89133863406506

>  <Genealogy>  (3) 
[NH-]C(=O)c1ccc(S(=O)(=O)Nc2cccc(S(=O)(=O)N3CCOCC3)c2)cc1 (protonated)
[NH-]C(=O)c1ccc(S(=O)(=O)Nc2cccc(S(=O)(=O)N3CCOCC3)c2)cc1 (3D coordinates assigned)
[NH-]C(=O)c1ccc(S(=O)(=O)Nc2cccc(S(=O)(=O)N3CCOCC3)c2)cc1 (nonaromatic ring conformer: 58.89133863406506 kcal/mol)

>  <smiles>  (3) 
NC(=O)c1ccc(S(=O)(=O)Nc2cccc(S(=O)(=O)N3CCOCC3)c2)cc1

>  <score_type>  (3) 
oracle

>  <origin>  (3) 
adgpu

>  <m_score__min__energy>  (3) 
-12.279999999999999

>  <m_primary>  (3) 
energy

$$$$
3:0
     RDKit          3D

 63 67  0  0  0  0  0  0  0  0999 V2000
   -4.5140   19.6690  -33.3850 C   0  0  0  0  0  0  0  0  0  0  0  0
   -6.0350   19.3350  -34.3220 S   0  0  0  0  0  0  0  0  0  0  0  0
   -7.1020   20.0520  -33.0740 C   0  0  0  0  0  0  0  0  0  0  0  0
   -8.2050   19.3310  -32.5990 C   0  0  0  0  0  0  0  0  0  0  0  0
   -9.0330   19.8850  -31.6160 C   0  0  0  0  0  0  0  0  0  0  0  0
   -8.7670   21.1620  -31.1160 C   0  0  0  0  0  0  0  0  0  0  0  0
   -7.6830   21.9050  -31.6150 C   0  0  0  0  0  0  0  0  0  0  0  0
   -7.3600   23.1920  -31.0690 N   0  0  0  0  0  0  0  0  0  0  0  0
   -6.1970   23.7080  -30.7670 C   0  0  0  0  0  0  0  0  0  0  0  0
   -6.1600   25.0990  -30.6000 C   0  0  0  0  0  0  0  0  0  0  0  0
   -4.9410   25.7640  -30.4940 C   0  0  0  0  0  0  0  0  0  0  0  0
   -3.7800   25.0650  -30.5130 N   0  0  0  0  0  0  0  0  0  0  0  0
   -3.7590   23.7080  -30.5780 C   0  0  0  0  0  0  0  0  0  0  0  0
   -2.5280   23.0450  -30.5270 C   0  0  0  0  0  0  0  0  0  0  0  0
   -2.4700   21.6440  -30.4590 C   0  0  0  0  0  0  0  0  0  0  0  0
   -1.1620   20.9370  -30.3940 C   0  0  0  0  0  0  0  0  0  0  0  0
   -0.6280   20.5320  -29.1570 C   0  0  0  0  0  0  0  0  0  0  0  0
    0.6030   19.8730  -29.0950 C   0  0  0  0  0  0  0  0  0  0  0  0
    1.3220   19.6050  -30.2650 C   0  0  0  0  0  0  0  0  0  0  0  0
    2.8840   18.7850  -30.1820 S   0  0  0  0  0  0  0  0  0  0  0  0
    3.7840   19.3280  -31.2580 O   0  0  0  0  0  0  0  0  0  0  0  0
    3.5230   19.0770  -28.8520 O   0  0  0  0  0  0  0  0  0  0  0  0
    2.7210   17.0540  -30.3810 N   0  0  0  0  0  0  0  0  0  0  0  0
    2.5460   16.7190  -31.8130 C   0  0  0  0  0  0  0  0  0  0  0  0
    1.9310   15.3210  -31.9870 C   0  0  0  0  0  0  0  0  0  0  0  0
    0.5920   15.2140  -31.3550 N   0  0  0  0  0  0  0  0  0  0  0  0
   -0.4820   15.2900  -32.3580 C   0  0  0  0  0  0  0  0  0  0  0  0
    0.3590   16.2030  -30.2770 C   0  0  0  0  0  0  0  0  0  0  0  0
    1.6530   16.5040  -29.5050 C   0  0  0  0  0  0  0  0  0  0  0  0
    0.7920   19.9940  -31.5010 C   0  0  0  0  0  0  0  0  0  0  0  0
   -0.4330   20.6610  -31.5660 C   0  0  0  0  0  0  0  0  0  0  0  0
   -3.6710   20.9210  -30.4080 C   0  0  0  0  0  0  0  0  0  0  0  0
   -4.9040   21.5730  -30.4840 C   0  0  0  0  0  0  0  0  0  0  0  0
   -4.9740   22.9740  -30.6490 C   0  0  0  0  0  0  0  0  0  0  0  0
   -6.8330   21.3310  -32.5680 C   0  0  0  0  0  0  0  0  0  0  0  0
   -4.7294   19.6217  -32.3073 H   0  0  0  0  0  0  0  0  0  0  0  0
   -3.7534   18.9165  -33.6403 H   0  0  0  0  0  0  0  0  0  0  0  0
   -4.1386   20.6710  -33.6403 H   0  0  0  0  0  0  0  0  0  0  0  0
   -8.4205   18.3291  -32.9987 H   0  0  0  0  0  0  0  0  0  0  0  0
   -9.8937   19.3145  -31.2369 H   0  0  0  0  0  0  0  0  0  0  0  0
   -9.4077   21.5874  -30.3295 H   0  0  0  0  0  0  0  0  0  0  0  0
   -7.0996   25.6690  -30.5524 H   0  0  0  0  0  0  0  0  0  0  0  0
   -4.9204   26.8593  -30.3946 H   0  0  0  0  0  0  0  0  0  0  0  0
   -1.5953   23.6280  -30.5403 H   0  0  0  0  0  0  0  0  0  0  0  0
   -1.1844   20.7358  -28.2302 H   0  0  0  0  0  0  0  0  0  0  0  0
    1.0089   19.5632  -28.1207 H   0  0  0  0  0  0  0  0  0  0  0  0
    3.6310   16.6400  -30.0670 H   0  0  0  0  0  0  0  0  0  0  0  0
    1.8818   17.4632  -32.2768 H   0  0  0  0  0  0  0  0  0  0  0  0
    3.5346   16.7265  -32.2953 H   0  0  0  0  0  0  0  0  0  0  0  0
    1.8333   15.1084  -33.0618 H   0  0  0  0  0  0  0  0  0  0  0  0
    2.5956   14.5963  -31.4940 H   0  0  0  0  0  0  0  0  0  0  0  0
   -1.4548   15.3588  -31.8491 H   0  0  0  0  0  0  0  0  0  0  0  0
   -0.3337   16.1799  -32.9874 H   0  0  0  0  0  0  0  0  0  0  0  0
   -0.4604   14.3881  -32.9874 H   0  0  0  0  0  0  0  0  0  0  0  0
   -0.0178   17.1357  -30.7220 H   0  0  0  0  0  0  0  0  0  0  0  0
   -0.3748   15.7827  -29.5735 H   0  0  0  0  0  0  0  0  0  0  0  0
    1.4310   17.2374  -28.7158 H   0  0  0  0  0  0  0  0  0  0  0  0
    2.0200   15.5566  -29.0834 H   0  0  0  0  0  0  0  0  0  0  0  0
    1.3439   19.7729  -32.4265 H   0  0  0  0  0  0  0  0  0  0  0  0
   -0.8320   20.9737  -32.5422 H   0  0  0  0  0  0  0  0  0  0  0  0
   -3.6414   19.8261  -30.3068 H   0  0  0  0  0  0  0  0  0  0  0  0
   -5.8327   20.9876  -30.4144 H   0  0  0  0  0  0  0  0  0  0  0  0
   -5.9511   21.8857  -32.9208 H   0  0  0  0  0  0  0  0  0  0  0  0
  1  2  1  0
  2  3  1  0
  3  4  2  0
  4  5  1  0
  5  6  2  0
  6  7  1  0
  7  8  1  0
  8  9  2  3
  9 10  1  0
 10 11  2  0
 11 12  1  0
 12 13  1  0
 13 14  2  0
 14 15  1  0
 15 16  1  0
 16 17  2  0
 17 18  1  0
 18 19  2  0
 19 20  1  0
 20 21  2  0
 20 22  2  0
 20 23  1  0
 23 24  1  0
 24 25  1  0
 25 26  1  0
 26 27  1  0
 26 28  1  0
 28 29  1  0
 19 30  1  0
 30 31  2  0
 15 32  2  0
 32 33  1  0
 33 34  2  0
  7 35  2  0
 35  3  1  0
 34  9  1  0
 34 13  1  0
 31 16  1  0
 29 23  1  0
  1 36  1  0
  1 37  1  0
  1 38  1  0
  4 39  1  0
  5 40  1  0
  6 41  1  0
 10 42  1  0
 11 43  1  0
 14 44  1  0
 17 45  1  0
 18 46  1  0
 23 47  1  0
 24 48  1  0
 24 49  1  0
 25 50  1  0
 25 51  1  0
 27 52  1  0
 27 53  1  0
 27 54  1  0
 28 55  1  0
 28 56  1  0
 29 57  1  0
 29 58  1  0
 30 59  1  0
 31 60  1  0
 32 61  1  0
 33 62  1  0
 35 63  1  0
M  CHG  2  12  -1  23   1
M  END
>  <UniqueID>  (4) 
4

>  <SMILES>  (4) 
CSc1cccc(N=c2cc[n-]c3cc(-c4ccc(S(=O)(=O)[NH+]5CCN(C)CC5)cc4)ccc23)c1

>  <Energy>  (4) 
101.92125031499388

>  <Genealogy>  (4) 
CSc1cccc(N=c2cc[n-]c3cc(-c4ccc(S(=O)(=O)[NH+]5CCN(C)CC5)cc4)ccc23)c1 (protonated)
CSc1cccc(N=c2cc[n-]c3cc(-c4ccc(S(=O)(=O)[NH+]5CCN(C)CC5)cc4)ccc23)c1 (3D coordinates assigned)
CSc1cccc(N=c2cc[n-]c3cc(-c4ccc(S(=O)(=O)[NH+]5CCN(C)CC5)cc4)ccc23)c1 (nonaromatic ring conformer: 101.92125031499388 kcal/mol)

>  <smiles>  (4) 
CSc1cccc(N=c2cc[nH]c3cc(-c4ccc(S(=O)(=O)N5CCN(C)CC5)cc4)ccc23)c1

>  <score_type>  (4) 
oracle

>  <origin>  (4) 
adgpu

>  <m_score__min__energy>  (4) 
-10.59

>  <m_primary>  (4) 
energy

$$$$
4:0
     RDKit          3D

 46 48  0  0  0  0  0  0  0  0999 V2000
   -8.3400   22.1660  -30.9650 C   0  0  0  0  0  0  0  0  0  0  0  0
   -7.0590   22.9410  -30.8080 C   0  0  0  0  0  0  0  0  0  0  0  0
   -7.0800   24.1460  -30.0840 C   0  0  0  0  0  0  0  0  0  0  0  0
   -5.9150   24.8950  -29.9130 C   0  0  0  0  0  0  0  0  0  0  0  0
   -4.7080   24.4450  -30.4460 C   0  0  0  0  0  0  0  0  0  0  0  0
   -3.5150   25.2090  -30.2390 N   0  0  0  0  0  0  0  0  0  0  0  0
   -2.4770   24.8480  -29.3170 C   0  0  0  0  0  0  0  0  0  0  0  0
   -1.6400   25.7210  -28.9690 O   0  0  0  0  0  0  0  0  0  0  0  0
   -2.4360   23.4920  -28.6760 C   0  0  0  0  0  0  0  0  0  0  0  0
   -1.7380   22.2930  -29.8640 S   0  0  0  0  0  0  0  0  0  0  0  0
   -1.7210   20.9100  -28.7250 C   0  0  0  0  0  0  0  0  0  0  0  0
   -2.7900   20.7010  -27.8480 C   0  0  0  0  0  0  0  0  0  0  0  0
   -2.7680   19.5950  -26.9970 C   0  0  0  0  0  0  0  0  0  0  0  0
   -1.6800   18.7190  -27.0230 C   0  0  0  0  0  0  0  0  0  0  0  0
   -0.6280   18.9640  -27.9080 C   0  0  0  0  0  0  0  0  0  0  0  0
   -0.6730   20.0430  -28.7360 N   0  0  0  0  0  0  0  0  0  0  0  0
   -4.6810   23.2730  -31.2130 C   0  0  0  0  0  0  0  0  0  0  0  0
   -5.8470   22.5130  -31.4050 C   0  0  0  0  0  0  0  0  0  0  0  0
   -5.7590   21.0510  -32.4050 S   0  0  0  0  0  0  0  0  0  0  0  0
   -5.6190   19.8490  -31.5140 O   0  0  0  0  0  0  0  0  0  0  0  0
   -7.0180   20.8760  -33.2090 O   0  0  0  0  0  0  0  0  0  0  0  0
   -4.3940   21.1260  -33.4770 N   0  0  0  0  0  0  0  0  0  0  0  0
   -3.0750   20.6480  -33.1550 C   0  0  0  0  0  0  0  0  0  0  0  0
   -1.9420   21.4820  -33.2110 C   0  0  0  0  0  0  0  0  0  0  0  0
   -0.6770   20.9790  -32.8920 C   0  0  0  0  0  0  0  0  0  0  0  0
   -0.5270   19.6440  -32.5140 C   0  0  0  0  0  0  0  0  0  0  0  0
   -1.6450   18.8090  -32.4490 C   0  0  0  0  0  0  0  0  0  0  0  0
   -2.9120   19.3070  -32.7660 C   0  0  0  0  0  0  0  0  0  0  0  0
   -8.7445   21.9213  -29.9718 H   0  0  0  0  0  0  0  0  0  0  0  0
   -9.0707   22.7737  -31.5190 H   0  0  0  0  0  0  0  0  0  0  0  0
   -8.1408   21.2368  -31.5190 H   0  0  0  0  0  0  0  0  0  0  0  0
   -8.0248   24.5022  -29.6477 H   0  0  0  0  0  0  0  0  0  0  0  0
   -5.9492   25.8430  -29.3561 H   0  0  0  0  0  0  0  0  0  0  0  0
   -1.8052   23.5287  -27.7756 H   0  0  0  0  0  0  0  0  0  0  0  0
   -3.4532   23.1844  -28.3921 H   0  0  0  0  0  0  0  0  0  0  0  0
   -3.6387   21.4005  -27.8291 H   0  0  0  0  0  0  0  0  0  0  0  0
   -3.6055   19.4134  -26.3073 H   0  0  0  0  0  0  0  0  0  0  0  0
   -1.6524   17.8463  -26.3540 H   0  0  0  0  0  0  0  0  0  0  0  0
    0.2369   18.2849  -27.9358 H   0  0  0  0  0  0  0  0  0  0  0  0
   -3.7361   22.9440  -31.6701 H   0  0  0  0  0  0  0  0  0  0  0  0
   -4.5430   21.6110  -34.3900 H   0  0  0  0  0  0  0  0  0  0  0  0
   -2.0527   22.5355  -33.5075 H   0  0  0  0  0  0  0  0  0  0  0  0
    0.2028   21.6376  -32.9391 H   0  0  0  0  0  0  0  0  0  0  0  0
    0.4700   19.2499  -32.2676 H   0  0  0  0  0  0  0  0  0  0  0  0
   -1.5281   17.7575  -32.1478 H   0  0  0  0  0  0  0  0  0  0  0  0
   -3.7883   18.6444  -32.7106 H   0  0  0  0  0  0  0  0  0  0  0  0
  1  2  1  0
  2  3  2  0
  3  4  1  0
  4  5  2  0
  5  6  1  0
  6  7  1  0
  7  8  2  0
  7  9  1  0
  9 10  1  0
 10 11  1  0
 11 12  2  0
 12 13  1  0
 13 14  2  0
 14 15  1  0
 15 16  2  0
  5 17  1  0
 17 18  2  0
 18 19  1  0
 19 20  2  0
 19 21  2  0
 19 22  1  0
 22 23  1  0
 23 24  2  0
 24 25  1  0
 25 26  2  0
 26 27  1  0
 27 28  2  0
 18  2  1  0
 28 23  1  0
 16 11  1  0
  1 29  1  0
  1 30  1  0
  1 31  1  0
  3 32  1  0
  4 33  1  0
  9 34  1  0
  9 35  1  0
 12 36  1  0
 13 37  1  0
 14 38  1  0
 15 39  1  0
 17 40  1  0
 22 41  1  0
 24 42  1  0
 25 43  1  0
 26 44  1  0
 27 45  1  0
 28 46  1  0
M  CHG  1   6  -1
M  END
>  <UniqueID>  (5) 
5

>  <SMILES>  (5) 
Cc1ccc([N-]C(=O)CSc2ccccn2)cc1S(=O)(=O)Nc1ccccc1

>  <Energy>  (5) 
48.11395949988679

>  <Genealogy>  (5) 
Cc1ccc([N-]C(=O)CSc2ccccn2)cc1S(=O)(=O)Nc1ccccc1 (protonated)
Cc1ccc([N-]C(=O)CSc2ccccn2)cc1S(=O)(=O)Nc1ccccc1 (3D coordinates assigned)
Cc1ccc([N-]C(=O)CSc2ccccn2)cc1S(=O)(=O)Nc1ccccc1 (optimized conformer: 48.11395949988679 kcal/mol)

>  <smiles>  (5) 
Cc1ccc(NC(=O)CSc2ccccn2)cc1S(=O)(=O)Nc1ccccc1

>  <score_type>  (5) 
oracle

>  <origin>  (5) 
adgpu

>  <m_score__min__energy>  (5) 
-11.039999999999999

>  <m_primary>  (5) 
energy

$$$$
5:0
     RDKit          3D

 42 44  0  0  0  0  0  0  0  0999 V2000
   -9.4020   22.2730  -31.8680 C   0  0  0  0  0  0  0  0  0  0  0  0
   -8.5180   21.0550  -31.9180 C   0  0  0  0  0  0  0  0  0  0  0  0
   -9.1190   19.7850  -31.9110 C   0  0  0  0  0  0  0  0  0  0  0  0
   -8.3420   18.6280  -31.9580 C   0  0  0  0  0  0  0  0  0  0  0  0
   -6.9450   18.7160  -32.0260 C   0  0  0  0  0  0  0  0  0  0  0  0
   -6.1200   17.5380  -32.0620 N   0  0  0  0  0  0  0  0  0  0  0  0
   -6.0250   16.6570  -33.1950 C   0  0  0  0  0  0  0  0  0  0  0  0
   -6.4890   17.0030  -34.3140 O   0  0  0  0  0  0  0  0  0  0  0  0
   -5.3470   15.3590  -33.0610 C   0  0  0  0  0  0  0  0  0  0  0  0
   -5.2870   14.3730  -34.0270 C   0  0  0  0  0  0  0  0  0  0  0  0
   -4.5580   13.3470  -33.4640 C   0  0  0  0  0  0  0  0  0  0  0  0
   -4.2210   13.7680  -32.1940 C   0  0  0  0  0  0  0  0  0  0  0  0
   -4.7050   14.9710  -31.9830 O   0  0  0  0  0  0  0  0  0  0  0  0
   -6.3370   19.9770  -31.9950 C   0  0  0  0  0  0  0  0  0  0  0  0
   -7.1050   21.1510  -31.9290 C   0  0  0  0  0  0  0  0  0  0  0  0
   -6.2700   22.7160  -31.8940 S   0  0  0  0  0  0  0  0  0  0  0  0
   -4.8600   22.5090  -32.3730 O   0  0  0  0  0  0  0  0  0  0  0  0
   -6.9700   23.6840  -32.8070 O   0  0  0  0  0  0  0  0  0  0  0  0
   -6.2560   23.3550  -30.2600 N   0  0  0  0  0  0  0  0  0  0  0  0
   -6.6820   24.7720  -30.2210 C   0  0  0  0  0  0  0  0  0  0  0  0
   -5.4950   25.7490  -30.1370 C   0  0  0  0  0  0  0  0  0  0  0  0
   -4.3830   25.2280  -30.8300 O   0  0  0  0  0  0  0  0  0  0  0  0
   -3.8630   24.0990  -30.1490 C   0  0  0  0  0  0  0  0  0  0  0  0
   -4.9550   23.1470  -29.6020 C   0  0  0  0  0  0  0  0  0  0  0  0
   -9.5970   22.5417  -30.8193 H   0  0  0  0  0  0  0  0  0  0  0  0
   -8.9005   23.1111  -32.3741 H   0  0  0  0  0  0  0  0  0  0  0  0
  -10.3542   22.0560  -32.3741 H   0  0  0  0  0  0  0  0  0  0  0  0
  -10.2151   19.7024  -31.8679 H   0  0  0  0  0  0  0  0  0  0  0  0
   -8.8280   17.6413  -31.9416 H   0  0  0  0  0  0  0  0  0  0  0  0
   -5.4860   17.3600  -31.2500 H   0  0  0  0  0  0  0  0  0  0  0  0
   -5.7283   14.4007  -35.0342 H   0  0  0  0  0  0  0  0  0  0  0  0
   -4.2976   12.3866  -33.9328 H   0  0  0  0  0  0  0  0  0  0  0  0
   -3.6356   13.1846  -31.4680 H   0  0  0  0  0  0  0  0  0  0  0  0
   -5.2397   20.0493  -32.0228 H   0  0  0  0  0  0  0  0  0  0  0  0
   -7.2547   24.9922  -31.1340 H   0  0  0  0  0  0  0  0  0  0  0  0
   -7.2901   24.9105  -29.3149 H   0  0  0  0  0  0  0  0  0  0  0  0
   -5.7841   26.7109  -30.5856 H   0  0  0  0  0  0  0  0  0  0  0  0
   -5.2235   25.8925  -29.0807 H   0  0  0  0  0  0  0  0  0  0  0  0
   -3.2274   23.5343  -30.8469 H   0  0  0  0  0  0  0  0  0  0  0  0
   -3.3006   24.4763  -29.2822 H   0  0  0  0  0  0  0  0  0  0  0  0
   -4.6354   22.1079  -29.7699 H   0  0  0  0  0  0  0  0  0  0  0  0
   -5.0814   23.3592  -28.5301 H   0  0  0  0  0  0  0  0  0  0  0  0
  1  2  1  0
  2  3  2  0
  3  4  1  0
  4  5  2  0
  5  6  1  0
  6  7  1  0
  7  8  2  0
  7  9  1  0
  9 10  2  0
 10 11  1  0
 11 12  2  0
 12 13  1  0
  5 14  1  0
 14 15  2  0
 15 16  1  0
 16 17  2  0
 16 18  2  0
 16 19  1  0
 19 20  1  0
 20 21  1  0
 21 22  1  0
 22 23  1  0
 23 24  1  0
 15  2  1  0
 24 19  1  0
 13  9  1  0
  1 25  1  0
  1 26  1  0
  1 27  1  0
  3 28  1  0
  4 29  1  0
  6 30  1  0
 10 31  1  0
 11 32  1  0
 12 33  1  0
 14 34  1  0
 20 35  1  0
 20 36  1  0
 21 37  1  0
 21 38  1  0
 23 39  1  0
 23 40  1  0
 24 41  1  0
 24 42  1  0
M  END
>  <UniqueID>  (6) 
6

>  <SMILES>  (6) 
Cc1ccc(NC(=O)c2ccco2)cc1S(=O)(=O)N1CCOCC1

>  <Energy>  (6) 
84.15156786409145

>  <Genealogy>  (6) 
Cc1ccc(NC(=O)c2ccco2)cc1S(=O)(=O)N1CCOCC1 (3D coordinates assigned)
Cc1ccc(NC(=O)c2ccco2)cc1S(=O)(=O)N1CCOCC1 (nonaromatic ring conformer: 84.15156786409145 kcal/mol)

>  <smiles>  (6) 
Cc1ccc(NC(=O)c2ccco2)cc1S(=O)(=O)N1CCOCC1

>  <score_type>  (6) 
oracle

>  <origin>  (6) 
adgpu

>  <m_score__min__energy>  (6) 
-9.1400000000000006

>  <m_primary>  (6) 
energy

$$$$
6:0
     RDKit          3D

 26 27  0  0  0  0  0  0  0  0999 V2000
   -3.4880   21.3810  -27.7900 N   0  0  0  0  0  0  0  0  0  0  0  0
   -3.0000   22.6110  -28.3520 C   0  0  0  0  0  0  0  0  0  0  0  0
   -1.7110   23.0300  -28.0010 C   0  0  0  0  0  0  0  0  0  0  0  0
   -1.2230   24.2200  -28.5250 C   0  0  0  0  0  0  0  0  0  0  0  0
   -0.0680   24.6200  -28.2240 O   0  0  0  0  0  0  0  0  0  0  0  0
   -1.9960   24.9530  -29.3590 N   0  0  0  0  0  0  0  0  0  0  0  0
   -3.2450   24.5520  -29.7050 C   0  0  0  0  0  0  0  0  0  0  0  0
   -3.9200   25.2830  -30.4800 O   0  0  0  0  0  0  0  0  0  0  0  0
   -3.7630   23.3740  -29.2120 N   0  0  0  0  0  0  0  0  0  0  0  0
   -5.1270   22.9480  -29.5990 C   0  0  0  0  0  0  0  0  0  0  0  0
   -5.1190   22.1480  -30.8880 C   0  0  0  0  0  0  0  0  0  0  0  0
   -3.8940   21.7190  -31.4340 C   0  0  0  0  0  0  0  0  0  0  0  0
   -3.8620   20.9580  -32.6050 C   0  0  0  0  0  0  0  0  0  0  0  0
   -5.0510   20.5960  -33.2360 C   0  0  0  0  0  0  0  0  0  0  0  0
   -6.2760   20.9850  -32.6930 C   0  0  0  0  0  0  0  0  0  0  0  0
   -6.3220   21.7480  -31.5200 C   0  0  0  0  0  0  0  0  0  0  0  0
   -7.9080   22.1640  -30.8750 Cl  0  0  0  0  0  0  0  0  0  0  0  0
   -3.0580   20.4690  -28.0650 H   0  0  0  0  0  0  0  0  0  0  0  0
   -4.2590   21.3380  -27.0920 H   0  0  0  0  0  0  0  0  0  0  0  0
   -1.0938   22.4255  -27.3201 H   0  0  0  0  0  0  0  0  0  0  0  0
   -5.5478   22.3256  -28.7955 H   0  0  0  0  0  0  0  0  0  0  0  0
   -5.7363   23.8499  -29.7583 H   0  0  0  0  0  0  0  0  0  0  0  0
   -2.9519   21.9861  -30.9329 H   0  0  0  0  0  0  0  0  0  0  0  0
   -2.8971   20.6440  -33.0297 H   0  0  0  0  0  0  0  0  0  0  0  0
   -5.0235   20.0035  -34.1624 H   0  0  0  0  0  0  0  0  0  0  0  0
   -7.2120   20.6902  -33.1899 H   0  0  0  0  0  0  0  0  0  0  0  0
  1  2  1  0
  2  3  2  0
  3  4  1  0
  4  5  2  0
  4  6  1  0
  6  7  1  0
  7  8  2  0
  7  9  1  0
  9 10  1  0
 10 11  1  0
 11 12  2  0
 12 13  1  0
 13 14  2  0
 14 15  1  0
 15 16  2  0
 16 17  1  0
  9  2  1  0
 16 11  1  0
  1 18  1  0
  1 19  1  0
  3 20  1  0
 10 21  1  0
 10 22  1  0
 12 23  1  0
 13 24  1  0
 14 25  1  0
 15 26  1  0
M  CHG  1   6  -1
M  END
>  <UniqueID>  (7) 
7

>  <SMILES>  (7) 
Nc1cc(=O)[n-]c(=O)n1Cc1ccccc1Cl

>  <Energy>  (7) 
34.137604700398796

>  <Genealogy>  (7) 
Nc1cc(=O)[n-]c(=O)n1Cc1ccccc1Cl (protonated)
Nc1cc(=O)[n-]c(=O)n1Cc1ccccc1Cl (3D coordinates assigned)
Nc1cc(=O)[n-]c(=O)n1Cc1ccccc1Cl (optimized conformer: 34.137604700398796 kcal/mol)

>  <smiles>  (7) 
Nc1cc(=O)[nH]c(=O)n1Cc1ccccc1Cl

>  <score_type>  (7) 
oracle

>  <origin>  (7) 
adgpu

>  <m_score__min__energy>  (7) 
-7.0499999999999998

>  <m_primary>  (7) 
energy

$$$$
7:0
     RDKit          3D

 47 49  0  0  0  0  0  0  0  0999 V2000
   -7.4680   18.1460  -32.7480 C   0  0  0  0  0  0  0  0  0  0  0  0
   -6.6960   16.8260  -32.8600 C   0  0  2  0  0  0  0  0  0  0  0  0
   -5.6370   16.6810  -31.7470 C   0  0  0  0  0  0  0  0  0  0  0  0
   -4.6840   15.4940  -31.9750 C   0  0  0  0  0  0  0  0  0  0  0  0
   -5.2100   14.5250  -33.0340 C   0  0  0  0  0  0  0  0  0  0  0  0
   -5.4740   15.2540  -34.3650 C   0  0  0  0  0  0  0  0  0  0  0  0
   -6.1450   16.5720  -34.2170 N   0  0  0  0  0  0  0  0  0  0  0  0
   -5.2170   17.8760  -34.9520 S   0  0  0  0  0  0  0  0  0  0  0  0
   -6.1230   18.7420  -35.7840 O   0  0  0  0  0  0  0  0  0  0  0  0
   -4.1970   17.2840  -35.8860 O   0  0  0  0  0  0  0  0  0  0  0  0
   -4.3650   18.8790  -33.7770 C   0  0  0  0  0  0  0  0  0  0  0  0
   -4.9550   20.0560  -33.2960 C   0  0  0  0  0  0  0  0  0  0  0  0
   -4.2880   20.8530  -32.3620 C   0  0  0  0  0  0  0  0  0  0  0  0
   -3.0250   20.4720  -31.8720 C   0  0  0  0  0  0  0  0  0  0  0  0
   -2.2930   21.3060  -30.8890 C   0  0  0  0  0  0  0  0  0  0  0  0
   -1.1160   20.9810  -30.5700 O   0  0  0  0  0  0  0  0  0  0  0  0
   -2.8980   22.4760  -30.3040 N   0  0  0  0  0  0  0  0  0  0  0  0
   -2.2620   23.2790  -29.2950 C   0  0  0  0  0  0  0  0  0  0  0  0
   -1.4440   22.6940  -28.3100 C   0  0  0  0  0  0  0  0  0  0  0  0
   -0.8560   23.4850  -27.3170 C   0  0  0  0  0  0  0  0  0  0  0  0
    0.2540   22.6790  -25.9880 Br  0  0  0  0  0  0  0  0  0  0  0  0
   -1.0900   24.8620  -27.2920 C   0  0  0  0  0  0  0  0  0  0  0  0
   -1.9180   25.4490  -28.2510 C   0  0  0  0  0  0  0  0  0  0  0  0
   -2.5080   24.6630  -29.2470 C   0  0  0  0  0  0  0  0  0  0  0  0
   -3.3290   25.2650  -30.1930 O   0  0  0  0  0  0  0  0  0  0  0  0
   -2.4430   19.2840  -32.3480 C   0  0  0  0  0  0  0  0  0  0  0  0
   -3.1130   18.4880  -33.2810 C   0  0  0  0  0  0  0  0  0  0  0  0
   -7.6144   18.3963  -31.6869 H   0  0  0  0  0  0  0  0  0  0  0  0
   -6.8965   18.9478  -33.2384 H   0  0  0  0  0  0  0  0  0  0  0  0
   -8.4470   18.0409  -33.2384 H   0  0  0  0  0  0  0  0  0  0  0  0
   -7.4366   16.0283  -32.7013 H   0  0  0  0  0  0  0  0  0  0  0  0
   -5.0422   17.6054  -31.7065 H   0  0  0  0  0  0  0  0  0  0  0  0
   -6.1732   16.4963  -30.8045 H   0  0  0  0  0  0  0  0  0  0  0  0
   -3.7081   15.8814  -32.3031 H   0  0  0  0  0  0  0  0  0  0  0  0
   -4.5984   14.9432  -31.0267 H   0  0  0  0  0  0  0  0  0  0  0  0
   -4.4647   13.7330  -33.1991 H   0  0  0  0  0  0  0  0  0  0  0  0
   -6.1567   14.0940  -32.6761 H   0  0  0  0  0  0  0  0  0  0  0  0
   -4.5088   15.4132  -34.8681 H   0  0  0  0  0  0  0  0  0  0  0  0
   -6.1573   14.6155  -34.9441 H   0  0  0  0  0  0  0  0  0  0  0  0
   -5.9505   20.3545  -33.6565 H   0  0  0  0  0  0  0  0  0  0  0  0
   -4.7533   21.7845  -32.0073 H   0  0  0  0  0  0  0  0  0  0  0  0
   -3.8310   22.7920  -30.6450 H   0  0  0  0  0  0  0  0  0  0  0  0
   -1.2660   21.6085  -28.3211 H   0  0  0  0  0  0  0  0  0  0  0  0
   -0.6213   25.4847  -26.5158 H   0  0  0  0  0  0  0  0  0  0  0  0
   -2.1070   26.5323  -28.2234 H   0  0  0  0  0  0  0  0  0  0  0  0
   -1.4514   18.9783  -31.9828 H   0  0  0  0  0  0  0  0  0  0  0  0
   -2.6558   17.5497  -33.6282 H   0  0  0  0  0  0  0  0  0  0  0  0
  1  2  1  0
  2  3  1  0
  3  4  1  0
  4  5  1  0
  5  6  1  0
  6  7  1  0
  7  8  1  0
  8  9  2  0
  8 10  2  0
  8 11  1  0
 11 12  2  0
 12 13  1  0
 13 14  2  0
 14 15  1  0
 15 16  2  0
 15 17  1  0
 17 18  1  0
 18 19  2  0
 19 20  1  0
 20 21  1  0
 20 22  2  0
 22 23  1  0
 23 24  2  0
 24 25  1  0
 14 26  1  0
 26 27  2  0
  7  2  1  0
 27 11  1  0
 24 18  1  0
  1 28  1  0
  1 29  1  0
  1 30  1  0
  2 31  1  1
  3 32  1  0
  3 33  1  0
  4 34  1  0
  4 35  1  0
  5 36  1  0
  5 37  1  0
  6 38  1  0
  6 39  1  0
 12 40  1  0
 13 41  1  0
 17 42  1  0
 19 43  1  0
 22 44  1  0
 23 45  1  0
 26 46  1  0
 27 47  1  0
M  CHG  1  25  -1
M  END
>  <UniqueID>  (8) 
8

>  <SMILES>  (8) 
C[C@@H]1CCCCN1S(=O)(=O)c1ccc(C(=O)Nc2cc(Br)ccc2[O-])cc1

>  <Energy>  (8) 
66.02519690455345

>  <Genealogy>  (8) 
CC1CCCCN1S(=O)(=O)c1ccc(C(=O)Nc2cc(Br)ccc2[O-])cc1 (protonated)
C[C@@H]1CCCCN1S(=O)(=O)c1ccc(C(=O)Nc2cc(Br)ccc2[O-])cc1 (chirality)
C[C@@H]1CCCCN1S(=O)(=O)c1ccc(C(=O)Nc2cc(Br)ccc2[O-])cc1 (3D coordinates assigned)
C[C@@H]1CCCCN1S(=O)(=O)c1ccc(C(=O)Nc2cc(Br)ccc2[O-])cc1 (nonaromatic ring conformer: 66.02519690455345 kcal/mol)

>  <smiles>  (8) 
CC1CCCCN1S(=O)(=O)c1ccc(C(=O)Nc2cc(Br)ccc2O)cc1

>  <score_type>  (8) 
oracle

>  <origin>  (8) 
adgpu

>  <m_score__min__energy>  (8) 
-11.57

>  <m_primary>  (8) 
energy

$$$$
8:0
     RDKit          3D

 46 48  0  0  0  0  0  0  0  0999 V2000
   -3.0330   23.5030  -28.3320 C   0  0  0  0  0  0  0  0  0  0  0  0
   -2.7790   24.5390  -29.3840 C   0  0  0  0  0  0  0  0  0  0  0  0
   -1.7940   25.3110  -29.2540 O   0  0  0  0  0  0  0  0  0  0  0  0
   -3.5950   24.6490  -30.5570 N   0  0  0  0  0  0  0  0  0  0  0  0
   -4.8680   24.0210  -30.7760 C   0  0  0  0  0  0  0  0  0  0  0  0
   -4.9820   23.0530  -31.7810 C   0  0  0  0  0  0  0  0  0  0  0  0
   -6.2120   22.4380  -32.0340 C   0  0  0  0  0  0  0  0  0  0  0  0
   -7.3450   22.7930  -31.2860 C   0  0  0  0  0  0  0  0  0  0  0  0
   -8.9020   22.0450  -31.6320 S   0  0  0  0  0  0  0  0  0  0  0  0
   -9.8600   23.0590  -32.1910 O   0  0  0  0  0  0  0  0  0  0  0  0
   -9.4790   21.4980  -30.3560 O   0  0  0  0  0  0  0  0  0  0  0  0
   -8.6760   20.7440  -32.7510 N   0  0  0  0  0  0  0  0  0  0  0  0
   -7.7940   19.6500  -32.4850 C   0  0  0  0  0  0  0  0  0  0  0  0
   -7.9740   18.9140  -31.3110 C   0  0  0  0  0  0  0  0  0  0  0  0
   -7.1230   17.8520  -31.0100 C   0  0  0  0  0  0  0  0  0  0  0  0
   -6.0930   17.5090  -31.8860 C   0  0  0  0  0  0  0  0  0  0  0  0
   -5.9100   18.2160  -33.0850 C   0  0  0  0  0  0  0  0  0  0  0  0
   -4.6160   17.7150  -34.1840 S   0  0  0  0  0  0  0  0  0  0  0  0
   -4.2100   16.2940  -33.9080 O   0  0  0  0  0  0  0  0  0  0  0  0
   -5.1260   17.7970  -35.5970 O   0  0  0  0  0  0  0  0  0  0  0  0
   -3.1970   18.7400  -33.9770 C   0  0  0  0  0  0  0  0  0  0  0  0
   -1.9180   18.2550  -34.2890 C   0  0  0  0  0  0  0  0  0  0  0  0
   -0.7940   19.0670  -34.1080 C   0  0  0  0  0  0  0  0  0  0  0  0
   -0.9420   20.3670  -33.6150 C   0  0  0  0  0  0  0  0  0  0  0  0
   -2.2140   20.8560  -33.3090 C   0  0  0  0  0  0  0  0  0  0  0  0
   -3.3400   20.0470  -33.4900 C   0  0  0  0  0  0  0  0  0  0  0  0
   -6.7780   19.2930  -33.3940 C   0  0  0  0  0  0  0  0  0  0  0  0
   -6.6720   20.0010  -34.5910 O   0  0  0  0  0  0  0  0  0  0  0  0
   -7.2420   23.7900  -30.3070 C   0  0  0  0  0  0  0  0  0  0  0  0
   -6.0120   24.4080  -30.0590 C   0  0  0  0  0  0  0  0  0  0  0  0
   -2.9218   23.9567  -27.3361 H   0  0  0  0  0  0  0  0  0  0  0  0
   -4.0542   23.1097  -28.4437 H   0  0  0  0  0  0  0  0  0  0  0  0
   -2.3096   22.6819  -28.4437 H   0  0  0  0  0  0  0  0  0  0  0  0
   -4.0990   22.7747  -32.3750 H   0  0  0  0  0  0  0  0  0  0  0  0
   -6.2917   21.6740  -32.8214 H   0  0  0  0  0  0  0  0  0  0  0  0
   -8.7907   19.1738  -30.6215 H   0  0  0  0  0  0  0  0  0  0  0  0
   -7.2639   17.2829  -30.0793 H   0  0  0  0  0  0  0  0  0  0  0  0
   -5.4183   16.6773  -31.6351 H   0  0  0  0  0  0  0  0  0  0  0  0
   -1.7990   17.2327  -34.6773 H   0  0  0  0  0  0  0  0  0  0  0  0
    0.2070   18.6828  -34.3536 H   0  0  0  0  0  0  0  0  0  0  0  0
   -0.0574   21.0041  -33.4683 H   0  0  0  0  0  0  0  0  0  0  0  0
   -2.3303   21.8801  -32.9247 H   0  0  0  0  0  0  0  0  0  0  0  0
   -4.3402   20.4368  -33.2498 H   0  0  0  0  0  0  0  0  0  0  0  0
   -6.5600   19.5620  -35.4960 H   0  0  0  0  0  0  0  0  0  0  0  0
   -8.1311   24.0876  -29.7317 H   0  0  0  0  0  0  0  0  0  0  0  0
   -5.9404   25.2003  -29.2993 H   0  0  0  0  0  0  0  0  0  0  0  0
  1  2  1  0
  2  3  2  0
  2  4  1  0
  4  5  1  0
  5  6  2  0
  6  7  1  0
  7  8  2  0
  8  9  1  0
  9 10  2  0
  9 11  2  0
  9 12  1  0
 12 13  1  0
 13 14  2  0
 14 15  1  0
 15 16  2  0
 16 17  1  0
 17 18  1  0
 18 19  2  0
 18 20  2  0
 18 21  1  0
 21 22  2  0
 22 23  1  0
 23 24  2  0
 24 25  1  0
 25 26  2  0
 17 27  2  0
 27 28  1  0
  8 29  1  0
 29 30  2  0
 30  5  1  0
 27 13  1  0
 26 21  1  0
  1 31  1  0
  1 32  1  0
  1 33  1  0
  6 34  1  0
  7 35  1  0
 14 36  1  0
 15 37  1  0
 16 38  1  0
 22 39  1  0
 23 40  1  0
 24 41  1  0
 25 42  1  0
 26 43  1  0
 28 44  1  0
 29 45  1  0
 30 46  1  0
M  CHG  2   4  -1  12  -1
M  END
>  <UniqueID>  (9) 
9

>  <SMILES>  (9) 
CC(=O)[N-]c1ccc(S(=O)(=O)[N-]c2cccc(S(=O)(=O)c3ccccc3)c2O)cc1

>  <Energy>  (9) 
61.61629431729792

>  <Genealogy>  (9) 
CC(=O)[N-]c1ccc(S(=O)(=O)[N-]c2cccc(S(=O)(=O)c3ccccc3)c2O)cc1 (protonated)
CC(=O)[N-]c1ccc(S(=O)(=O)[N-]c2cccc(S(=O)(=O)c3ccccc3)c2O)cc1 (3D coordinates assigned)
CC(=O)[N-]c1ccc(S(=O)(=O)[N-]c2cccc(S(=O)(=O)c3ccccc3)c2O)cc1 (optimized conformer: 61.61629431729792 kcal/mol)

>  <smiles>  (9) 
CC(=O)Nc1ccc(S(=O)(=O)Nc2cccc(S(=O)(=O)c3ccccc3)c2O)cc1

>  <score_type>  (9) 
oracle

>  <origin>  (9) 
adgpu

>  <m_score__min__energy>  (9) 
-12.25

>  <m_primary>  (9) 
energy

$$$$
9:0
     RDKit          3D

 82 87  0  0  0  0  0  0  0  0999 V2000
    0.7820   27.5290  -25.8860 C   0  0  0  0  0  0  0  0  0  0  0  0
    0.4330   26.2930  -25.0290 C   0  0  0  0  0  0  0  0  0  0  0  0
   -0.3530   26.7880  -23.7890 C   0  0  0  0  0  0  0  0  0  0  0  0
    1.7350   25.6350  -24.5230 C   0  0  0  0  0  0  0  0  0  0  0  0
   -0.3600   25.2820  -25.8840 C   0  0  0  0  0  0  0  0  0  0  0  0
   -0.4550   23.9090  -25.5530 C   0  0  0  0  0  0  0  0  0  0  0  0
   -1.1790   23.0230  -26.3550 C   0  0  0  0  0  0  0  0  0  0  0  0
   -1.8300   23.4800  -27.5100 C   0  0  0  0  0  0  0  0  0  0  0  0
   -2.5650   22.6250  -28.3490 C   0  0  0  0  0  0  0  0  0  0  0  0
   -2.6650   21.3970  -28.0680 O   0  0  0  0  0  0  0  0  0  0  0  0
   -3.1690   23.1240  -29.4740 N   0  0  0  0  0  0  0  0  0  0  0  0
   -3.9160   22.2450  -30.3380 C   0  0  0  0  0  0  0  0  0  0  0  0
   -5.3070   22.4010  -30.4200 C   0  0  0  0  0  0  0  0  0  0  0  0
   -6.0640   21.5570  -31.2280 C   0  0  0  0  0  0  0  0  0  0  0  0
   -5.4410   20.5570  -31.9720 C   0  0  0  0  0  0  0  0  0  0  0  0
   -4.0490   20.3920  -31.9250 C   0  0  0  0  0  0  0  0  0  0  0  0
   -3.4590   19.3510  -32.7120 N   0  0  0  0  0  0  0  0  0  0  0  0
   -3.9720   18.8110  -33.8380 C   0  0  0  0  0  0  0  0  0  0  0  0
   -3.1280   17.7980  -34.2580 C   0  0  0  0  0  0  0  0  0  0  0  0
   -3.2820   16.9220  -35.4380 C   0  0  0  0  0  0  0  0  0  0  0  0
   -2.3040   15.9290  -35.7540 N   0  0  0  0  0  0  0  0  0  0  0  0
   -4.2930   17.0450  -36.1790 O   0  0  0  0  0  0  0  0  0  0  0  0
   -2.1190   17.7830  -33.3090 C   0  0  0  0  0  0  0  0  0  0  0  0
   -1.1240   16.9450  -33.2940 N   0  0  0  0  0  0  0  0  0  0  0  0
   -0.0430   16.9010  -32.3450 C   0  0  0  0  0  0  0  0  0  0  0  0
   -0.0770   16.0600  -31.2160 C   0  0  0  0  0  0  0  0  0  0  0  0
    0.9910   16.0470  -30.3140 C   0  0  0  0  0  0  0  0  0  0  0  0
    2.0940   16.8790  -30.5190 C   0  0  0  0  0  0  0  0  0  0  0  0
    3.1290   16.8620  -29.6440 F   0  0  0  0  0  0  0  0  0  0  0  0
    2.1230   17.7410  -31.6190 C   0  0  0  0  0  0  0  0  0  0  0  0
    1.0520   17.7670  -32.5230 C   0  0  0  0  0  0  0  0  0  0  0  0
    1.0950   18.6660  -33.6390 N   0  0  0  0  0  0  0  0  0  0  0  0
    1.5670   18.1770  -34.9420 C   0  0  0  0  0  0  0  0  0  0  0  0
    1.8930   19.3440  -35.8800 C   0  0  0  0  0  0  0  0  0  0  0  0
    0.7120   20.3220  -36.0220 C   0  0  0  0  0  0  0  0  0  0  0  0
   -0.0970   20.5270  -34.7140 C   0  0  2  0  0  0  0  0  0  0  0  0
   -0.5100   21.9260  -34.5860 N   0  0  0  0  0  0  0  0  0  0  0  0
    0.6770   20.0610  -33.4660 C   0  0  0  0  0  0  0  0  0  0  0  0
   -2.3470   18.7190  -32.3670 N   0  0  0  0  0  0  0  0  0  0  0  0
   -3.2710   21.2280  -31.0830 C   0  0  0  0  0  0  0  0  0  0  0  0
   -1.7730   21.0340  -30.9410 C   0  0  0  0  0  0  0  0  0  0  0  0
   -1.1070   21.4660  -32.0950 O   0  0  0  0  0  0  0  0  0  0  0  0
   -3.0820   24.4580  -29.7700 C   0  0  0  0  0  0  0  0  0  0  0  0
   -3.6500   24.9290  -30.7930 O   0  0  0  0  0  0  0  0  0  0  0  0
   -2.3780   25.2920  -28.9640 N   0  0  0  0  0  0  0  0  0  0  0  0
   -1.7500   24.8390  -27.8510 C   0  0  0  0  0  0  0  0  0  0  0  0
   -1.0270   25.7270  -27.0470 C   0  0  0  0  0  0  0  0  0  0  0  0
    1.0213   28.3765  -25.2268 H   0  0  0  0  0  0  0  0  0  0  0  0
    1.6510   27.3015  -26.5209 H   0  0  0  0  0  0  0  0  0  0  0  0
   -0.0777   27.7896  -26.5209 H   0  0  0  0  0  0  0  0  0  0  0  0
    0.1633   26.4628  -22.8738 H   0  0  0  0  0  0  0  0  0  0  0  0
   -0.4116   27.8863  -23.8064 H   0  0  0  0  0  0  0  0  0  0  0  0
   -1.3688   26.3663  -23.8064 H   0  0  0  0  0  0  0  0  0  0  0  0
    1.7409   25.6320  -23.4230 H   0  0  0  0  0  0  0  0  0  0  0  0
    1.7907   24.6005  -24.8928 H   0  0  0  0  0  0  0  0  0  0  0  0
    2.6009   26.2037  -24.8928 H   0  0  0  0  0  0  0  0  0  0  0  0
    0.0491   23.5336  -24.6502 H   0  0  0  0  0  0  0  0  0  0  0  0
   -1.2387   21.9600  -26.0786 H   0  0  0  0  0  0  0  0  0  0  0  0
   -5.8031   23.1950  -29.8425 H   0  0  0  0  0  0  0  0  0  0  0  0
   -7.1559   21.6798  -31.2792 H   0  0  0  0  0  0  0  0  0  0  0  0
   -6.0472   19.8901  -32.6027 H   0  0  0  0  0  0  0  0  0  0  0  0
   -4.9017   19.1229  -34.3363 H   0  0  0  0  0  0  0  0  0  0  0  0
   -2.4310   15.3200  -36.5930 H   0  0  0  0  0  0  0  0  0  0  0  0
   -1.4620   15.7820  -35.1580 H   0  0  0  0  0  0  0  0  0  0  0  0
   -0.9477   15.4104  -31.0431 H   0  0  0  0  0  0  0  0  0  0  0  0
    0.9626   15.3795  -29.4401 H   0  0  0  0  0  0  0  0  0  0  0  0
    2.9889   18.4010  -31.7757 H   0  0  0  0  0  0  0  0  0  0  0  0
    2.4731   17.5715  -34.7925 H   0  0  0  0  0  0  0  0  0  0  0  0
    0.7705   17.5714  -35.3990 H   0  0  0  0  0  0  0  0  0  0  0  0
    2.7592   19.8902  -35.4784 H   0  0  0  0  0  0  0  0  0  0  0  0
    2.1091   18.9279  -36.8751 H   0  0  0  0  0  0  0  0  0  0  0  0
    1.1071   21.2977  -36.3411 H   0  0  0  0  0  0  0  0  0  0  0  0
    0.0220   19.8838  -36.7581 H   0  0  0  0  0  0  0  0  0  0  0  0
   -0.9956   19.8960  -34.7799 H   0  0  0  0  0  0  0  0  0  0  0  0
   -0.0130   22.3580  -33.7720 H   0  0  0  0  0  0  0  0  0  0  0  0
   -1.5340   21.9550  -34.3770 H   0  0  0  0  0  0  0  0  0  0  0  0
    1.5653   20.6950  -33.3282 H   0  0  0  0  0  0  0  0  0  0  0  0
    0.0271   20.1408  -32.5821 H   0  0  0  0  0  0  0  0  0  0  0  0
   -1.4138   21.6140  -30.0781 H   0  0  0  0  0  0  0  0  0  0  0  0
   -1.5671   19.9636  -30.7932 H   0  0  0  0  0  0  0  0  0  0  0  0
   -1.3850   20.8600  -32.8290 H   0  0  0  0  0  0  0  0  0  0  0  0
   -0.9771   26.7900  -27.3254 H   0  0  0  0  0  0  0  0  0  0  0  0
  1  2  1  0
  2  3  1  0
  2  4  1  0
  2  5  1  0
  5  6  2  0
  6  7  1  0
  7  8  2  0
  8  9  1  0
  9 10  2  0
  9 11  1  0
 11 12  1  0
 12 13  2  0
 13 14  1  0
 14 15  2  0
 15 16  1  0
 16 17  1  0
 17 18  1  0
 18 19  2  0
 19 20  1  0
 20 21  1  0
 20 22  2  0
 19 23  1  0
 23 24  2  3
 24 25  1  0
 25 26  2  0
 26 27  1  0
 27 28  2  0
 28 29  1  0
 28 30  1  0
 30 31  2  0
 31 32  1  0
 32 33  1  0
 33 34  1  0
 34 35  1  0
 35 36  1  0
 36 37  1  0
 36 38  1  0
 23 39  1  0
 16 40  2  0
 40 41  1  0
 41 42  1  0
 11 43  1  0
 43 44  2  0
 43 45  1  0
 45 46  1  0
 46 47  2  0
 47  5  1  0
 46  8  1  0
 40 12  1  0
 39 17  1  0
 31 25  1  0
 38 32  1  0
  1 48  1  0
  1 49  1  0
  1 50  1  0
  3 51  1  0
  3 52  1  0
  3 53  1  0
  4 54  1  0
  4 55  1  0
  4 56  1  0
  6 57  1  0
  7 58  1  0
 13 59  1  0
 14 60  1  0
 15 61  1  0
 18 62  1  0
 21 63  1  0
 21 64  1  0
 26 65  1  0
 27 66  1  0
 30 67  1  0
 33 68  1  0
 33 69  1  0
 34 70  1  0
 34 71  1  0
 35 72  1  0
 35 73  1  0
 36 74  1  6
 37 75  1  0
 37 76  1  0
 38 77  1  0
 38 78  1  0
 41 79  1  0
 41 80  1  0
 42 81  1  0
 47 82  1  0
M  CHG  2  39  -1  45  -1
M  END
>  <UniqueID>  (10) 
10

>  <SMILES>  (10) 
CC(C)(C)c1ccc2c(=O)n(-c3cccc(-n4cc(C(N)=O)c(=Nc5ccc(F)cc5N5CCC[C@H](N)C5)[n-]4)c3CO)c(=O)[n-]c2c1

>  <Energy>  (10) 
154.49464386852

>  <Genealogy>  (10) 
CC(C)(C)c1ccc2c(=O)n(-c3cccc(-n4cc(C(N)=O)c(=Nc5ccc(F)cc5N5CCCC(N)C5)[n-]4)c3CO)c(=O)[n-]c2c1 (protonated)
CC(C)(C)c1ccc2c(=O)n(-c3cccc(-n4cc(C(N)=O)c(=Nc5ccc(F)cc5N5CCC[C@H](N)C5)[n-]4)c3CO)c(=O)[n-]c2c1 (chirality)
CC(C)(C)c1ccc2c(=O)n(-c3cccc(-n4cc(C(N)=O)c(=Nc5ccc(F)cc5N5CCC[C@H](N)C5)[n-]4)c3CO)c(=O)[n-]c2c1 (3D coordinates assigned)
CC(C)(C)c1ccc2c(=O)n(-c3cccc(-n4cc(C(N)=O)c(=Nc5ccc(F)cc5N5CCC[C@H](N)C5)[n-]4)c3CO)c(=O)[n-]c2c1 (nonaromatic ring conformer: 154.49464386852 kcal/mol)

>  <smiles>  (10) 
CC(C)(C)c1ccc2c(=O)n(-c3cccc(-n4cc(C(N)=O)c(=Nc5ccc(F)cc5N5CCCC(N)C5)[nH]4)c3CO)c(=O)[nH]c2c1

>  <score_type>  (10) 
oracle

>  <origin>  (10) 
adgpu

>  <m_score__min__energy>  (10) 
-10.74

>  <m_primary>  (10) 
energy

$$$$
10:0
     RDKit          3D

 26 27  0  0  0  0  0  0  0  0999 V2000
   -5.6490   25.9140  -30.8660 O   0  0  0  0  0  0  0  0  0  0  0  0
   -4.8990   24.9010  -30.8680 C   0  0  0  0  0  0  0  0  0  0  0  0
   -3.5310   25.0230  -30.4540 N   0  0  0  0  0  0  0  0  0  0  0  0
   -2.9350   24.4440  -29.2830 C   0  0  0  0  0  0  0  0  0  0  0  0
   -3.4490   23.2740  -28.6900 C   0  0  0  0  0  0  0  0  0  0  0  0
   -2.8260   22.7250  -27.5650 C   0  0  0  0  0  0  0  0  0  0  0  0
   -1.6830   23.3250  -27.0320 C   0  0  0  0  0  0  0  0  0  0  0  0
   -1.1540   24.4710  -27.6290 C   0  0  0  0  0  0  0  0  0  0  0  0
   -1.7720   25.0270  -28.7560 C   0  0  0  0  0  0  0  0  0  0  0  0
   -1.2290   26.1630  -29.3440 O   0  0  0  0  0  0  0  0  0  0  0  0
   -5.4140   23.5970  -31.3630 C   0  0  0  0  0  0  0  0  0  0  0  0
   -6.7990   23.3170  -31.3260 C   0  0  0  0  0  0  0  0  0  0  0  0
   -7.7020   24.2610  -30.8450 O   0  0  0  0  0  0  0  0  0  0  0  0
   -7.2830   22.0880  -31.7910 C   0  0  0  0  0  0  0  0  0  0  0  0
   -9.0040   21.7340  -31.7510 Cl  0  0  0  0  0  0  0  0  0  0  0  0
   -6.4020   21.1350  -32.3010 C   0  0  0  0  0  0  0  0  0  0  0  0
   -5.0310   21.3910  -32.3460 C   0  0  0  0  0  0  0  0  0  0  0  0
   -3.9730   20.1450  -32.9950 Cl  0  0  0  0  0  0  0  0  0  0  0  0
   -4.5260   22.6200  -31.8730 C   0  0  0  0  0  0  0  0  0  0  0  0
   -3.1510   22.8720  -31.8830 O   0  0  0  0  0  0  0  0  0  0  0  0
   -4.3424   22.7913  -29.1129 H   0  0  0  0  0  0  0  0  0  0  0  0
   -3.2374   21.8178  -27.0984 H   0  0  0  0  0  0  0  0  0  0  0  0
   -1.1997   22.8950  -26.1423 H   0  0  0  0  0  0  0  0  0  0  0  0
   -0.2493   24.9384  -27.2129 H   0  0  0  0  0  0  0  0  0  0  0  0
   -6.7906   20.1745  -32.6705 H   0  0  0  0  0  0  0  0  0  0  0  0
   -2.7270   23.6410  -31.3800 H   0  0  0  0  0  0  0  0  0  0  0  0
  1  2  2  0
  2  3  1  0
  3  4  1  0
  4  5  2  0
  5  6  1  0
  6  7  2  0
  7  8  1  0
  8  9  2  0
  9 10  1  0
  2 11  1  0
 11 12  2  0
 12 13  1  0
 12 14  1  0
 14 15  1  0
 14 16  2  0
 16 17  1  0
 17 18  1  0
 17 19  2  0
 19 20  1  0
  9  4  1  0
 19 11  1  0
  5 21  1  0
  6 22  1  0
  7 23  1  0
  8 24  1  0
 16 25  1  0
 20 26  1  0
M  CHG  3   3  -1  10  -1  13  -1
M  END
>  <UniqueID>  (11) 
11

>  <SMILES>  (11) 
O=C([N-]c1ccccc1[O-])c1c([O-])c(Cl)cc(Cl)c1O

>  <Energy>  (11) 
37.223839005146814

>  <Genealogy>  (11) 
O=C([N-]c1ccccc1[O-])c1c([O-])c(Cl)cc(Cl)c1O (protonated)
O=C([N-]c1ccccc1[O-])c1c([O-])c(Cl)cc(Cl)c1O (3D coordinates assigned)
O=C([N-]c1ccccc1[O-])c1c([O-])c(Cl)cc(Cl)c1O (optimized conformer: 37.223839005146814 kcal/mol)

>  <smiles>  (11) 
O=C(Nc1ccccc1O)c1c(O)c(Cl)cc(Cl)c1O

>  <score_type>  (11) 
oracle

>  <origin>  (11) 
adgpu

>  <m_score__min__energy>  (11) 
-11.609999999999999

>  <m_primary>  (11) 
energy

$$$$
11:0
     RDKit          3D

 31 33  0  0  0  0  0  0  0  0999 V2000
   -4.2750   26.0420  -30.4550 O   0  0  0  0  0  0  0  0  0  0  0  0
   -4.6370   24.5860  -30.3730 S   0  0  0  0  0  0  0  0  0  0  0  0
   -5.8510   24.4300  -29.5030 O   0  0  0  0  0  0  0  0  0  0  0  0
   -5.0110   24.0120  -31.9660 N   0  0  0  0  0  0  0  0  0  0  0  0
   -5.3200   22.6520  -32.3020 C   0  0  0  0  0  0  0  0  0  0  0  0
   -6.6030   22.1070  -32.1280 C   0  0  0  0  0  0  0  0  0  0  0  0
   -6.8510   20.7800  -32.4810 C   0  0  0  0  0  0  0  0  0  0  0  0
   -5.8130   19.9990  -33.0090 C   0  0  0  0  0  0  0  0  0  0  0  0
   -6.0340   18.5950  -33.3960 C   0  0  0  0  0  0  0  0  0  0  0  0
   -5.3670   18.0000  -34.4080 N   0  0  0  0  0  0  0  0  0  0  0  0
   -5.8550   16.7490  -34.4260 C   0  0  0  0  0  0  0  0  0  0  0  0
   -6.7970   16.6150  -33.4360 C   0  0  0  0  0  0  0  0  0  0  0  0
   -6.9170   17.7810  -32.7780 N   0  0  0  0  0  0  0  0  0  0  0  0
   -4.5780   20.5500  -33.1680 N   0  0  0  0  0  0  0  0  0  0  0  0
   -4.3140   21.8400  -32.8310 C   0  0  0  0  0  0  0  0  0  0  0  0
   -3.3110   23.6530  -29.6720 C   0  0  0  0  0  0  0  0  0  0  0  0
   -3.4340   22.2630  -29.5300 C   0  0  0  0  0  0  0  0  0  0  0  0
   -2.3910   21.5130  -28.9810 C   0  0  0  0  0  0  0  0  0  0  0  0
   -1.2180   22.1480  -28.5630 C   0  0  0  0  0  0  0  0  0  0  0  0
   -1.0910   23.5340  -28.6890 C   0  0  0  0  0  0  0  0  0  0  0  0
   -2.1330   24.2900  -29.2370 C   0  0  0  0  0  0  0  0  0  0  0  0
   -1.9900   25.6690  -29.3410 O   0  0  0  0  0  0  0  0  0  0  0  0
   -7.4121   22.7263  -31.7135 H   0  0  0  0  0  0  0  0  0  0  0  0
   -7.8542   20.3494  -32.3460 H   0  0  0  0  0  0  0  0  0  0  0  0
   -5.5483   15.9562  -35.1241 H   0  0  0  0  0  0  0  0  0  0  0  0
   -7.3639   15.6983  -33.2161 H   0  0  0  0  0  0  0  0  0  0  0  0
   -3.3023   22.2469  -32.9757 H   0  0  0  0  0  0  0  0  0  0  0  0
   -4.3575   21.7603  -29.8530 H   0  0  0  0  0  0  0  0  0  0  0  0
   -2.4929   20.4226  -28.8777 H   0  0  0  0  0  0  0  0  0  0  0  0
   -0.3950   21.5569  -28.1349 H   0  0  0  0  0  0  0  0  0  0  0  0
   -0.1686   24.0323  -28.3562 H   0  0  0  0  0  0  0  0  0  0  0  0
  1  2  2  0
  2  3  2  0
  2  4  1  0
  4  5  1  0
  5  6  2  0
  6  7  1  0
  7  8  2  0
  8  9  1  0
  9 10  2  0
 10 11  1  0
 11 12  2  0
 12 13  1  0
  8 14  1  0
 14 15  2  0
  2 16  1  0
 16 17  2  0
 17 18  1  0
 18 19  2  0
 19 20  1  0
 20 21  2  0
 21 22  1  0
 15  5  1  0
 21 16  1  0
 13  9  1  0
  6 23  1  0
  7 24  1  0
 11 25  1  0
 12 26  1  0
 15 27  1  0
 17 28  1  0
 18 29  1  0
 19 30  1  0
 20 31  1  0
M  CHG  3   4  -1  13  -1  22  -1
M  END
>  <UniqueID>  (12) 
12

>  <SMILES>  (12) 
O=S(=O)([N-]c1ccc(-c2ncc[n-]2)nc1)c1ccccc1[O-]

>  <Energy>  (12) 
65.60286357389877

>  <Genealogy>  (12) 
O=S(=O)([N-]c1ccc(-c2ncc[n-]2)nc1)c1ccccc1[O-] (protonated)
O=S(=O)([N-]c1ccc(-c2ncc[n-]2)nc1)c1ccccc1[O-] (3D coordinates assigned)
O=S(=O)([N-]c1ccc(-c2ncc[n-]2)nc1)c1ccccc1[O-] (optimized conformer: 65.60286357389877 kcal/mol)

>  <smiles>  (12) 
O=S(=O)(Nc1ccc(-c2ncc[nH]2)nc1)c1ccccc1O

>  <score_type>  (12) 
oracle

>  <origin>  (12) 
adgpu

>  <m_score__min__energy>  (12) 
-11.09

>  <m_primary>  (12) 
energy

$$$$
12:0
     RDKit          3D

 51 53  0  0  0  0  0  0  0  0999 V2000
   -0.4890   18.9900  -29.5110 C   0  0  0  0  0  0  0  0  0  0  0  0
   -0.9920   20.4010  -29.3430 C   0  0  0  0  0  0  0  0  0  0  0  0
   -0.5410   21.3960  -30.2210 C   0  0  0  0  0  0  0  0  0  0  0  0
   -0.9630   22.7200  -30.0700 C   0  0  0  0  0  0  0  0  0  0  0  0
   -1.8600   23.0650  -29.0590 C   0  0  0  0  0  0  0  0  0  0  0  0
   -2.3560   24.7460  -28.8710 S   0  0  0  0  0  0  0  0  0  0  0  0
   -3.0210   24.9130  -27.5340 O   0  0  0  0  0  0  0  0  0  0  0  0
   -1.1660   25.6650  -28.9180 O   0  0  0  0  0  0  0  0  0  0  0  0
   -3.4920   25.1570  -30.1140 N   0  0  0  0  0  0  0  0  0  0  0  0
   -4.5080   24.2880  -30.6360 C   0  0  0  0  0  0  0  0  0  0  0  0
   -5.8480   24.6930  -30.5570 C   0  0  0  0  0  0  0  0  0  0  0  0
   -6.8640   23.8750  -31.0570 C   0  0  0  0  0  0  0  0  0  0  0  0
   -6.5470   22.6500  -31.6540 C   0  0  0  0  0  0  0  0  0  0  0  0
   -5.2100   22.2360  -31.7520 C   0  0  0  0  0  0  0  0  0  0  0  0
   -4.7980   20.7140  -32.5460 S   0  0  0  0  0  0  0  0  0  0  0  0
   -3.8870   20.9960  -33.7080 O   0  0  0  0  0  0  0  0  0  0  0  0
   -4.0560   19.8320  -31.5800 O   0  0  0  0  0  0  0  0  0  0  0  0
   -6.2240   19.8800  -33.1200 N   0  0  0  0  0  0  0  0  0  0  0  0
   -6.9760   19.3140  -31.9750 C   0  0  0  0  0  0  0  0  0  0  0  0
   -7.9600   18.2310  -32.4270 C   0  0  0  0  0  0  0  0  0  0  0  0
   -7.2180   17.0440  -33.0680 C   0  0  0  0  0  0  0  0  0  0  0  0
   -5.8600   17.4440  -33.6640 C   0  0  0  0  0  0  0  0  0  0  0  0
   -5.8840   18.8910  -34.1790 C   0  0  0  0  0  0  0  0  0  0  0  0
   -4.1980   23.0540  -31.2350 C   0  0  0  0  0  0  0  0  0  0  0  0
   -2.3290   22.0800  -28.1830 C   0  0  0  0  0  0  0  0  0  0  0  0
   -1.9020   20.7450  -28.3150 C   0  0  0  0  0  0  0  0  0  0  0  0
   -2.3820   19.7210  -27.3250 C   0  0  0  0  0  0  0  0  0  0  0  0
   -0.3278   18.5379  -28.5212 H   0  0  0  0  0  0  0  0  0  0  0  0
   -1.2320   18.3996  -30.0672 H   0  0  0  0  0  0  0  0  0  0  0  0
    0.4599   19.0028  -30.0672 H   0  0  0  0  0  0  0  0  0  0  0  0
    0.1504   21.1330  -31.0352 H   0  0  0  0  0  0  0  0  0  0  0  0
   -0.5852   23.4951  -30.7530 H   0  0  0  0  0  0  0  0  0  0  0  0
   -6.1007   25.6605  -30.0986 H   0  0  0  0  0  0  0  0  0  0  0  0
   -7.9139   24.1942  -30.9813 H   0  0  0  0  0  0  0  0  0  0  0  0
   -7.3492   22.0089  -32.0481 H   0  0  0  0  0  0  0  0  0  0  0  0
   -6.8300   20.6150  -33.5570 H   0  0  0  0  0  0  0  0  0  0  0  0
   -6.2631   18.8737  -31.2623 H   0  0  0  0  0  0  0  0  0  0  0  0
   -7.5501   20.1262  -31.5052 H   0  0  0  0  0  0  0  0  0  0  0  0
   -8.5261   17.8726  -31.5546 H   0  0  0  0  0  0  0  0  0  0  0  0
   -8.6393   18.6650  -33.1754 H   0  0  0  0  0  0  0  0  0  0  0  0
   -7.0517   16.2761  -32.2981 H   0  0  0  0  0  0  0  0  0  0  0  0
   -7.8433   16.6674  -33.8909 H   0  0  0  0  0  0  0  0  0  0  0  0
   -5.0863   17.3523  -32.8875 H   0  0  0  0  0  0  0  0  0  0  0  0
   -5.6409   16.7766  -34.5105 H   0  0  0  0  0  0  0  0  0  0  0  0
   -4.8901   19.1363  -34.5815 H   0  0  0  0  0  0  0  0  0  0  0  0
   -6.6661   18.9528  -34.9500 H   0  0  0  0  0  0  0  0  0  0  0  0
   -3.1493   22.7279  -31.2981 H   0  0  0  0  0  0  0  0  0  0  0  0
   -3.0365   22.3506  -27.3854 H   0  0  0  0  0  0  0  0  0  0  0  0
   -2.2092   20.0897  -26.3032 H   0  0  0  0  0  0  0  0  0  0  0  0
   -3.4573   19.5431  -27.4737 H   0  0  0  0  0  0  0  0  0  0  0  0
   -1.8308   18.7807  -27.4737 H   0  0  0  0  0  0  0  0  0  0  0  0
  1  2  1  0
  2  3  2  0
  3  4  1  0
  4  5  2  0
  5  6  1  0
  6  7  2  0
  6  8  2  0
  6  9  1  0
  9 10  1  0
 10 11  2  0
 11 12  1  0
 12 13  2  0
 13 14  1  0
 14 15  1  0
 15 16  2  0
 15 17  2  0
 15 18  1  0
 18 19  1  0
 19 20  1  0
 20 21  1  0
 21 22  1  0
 22 23  1  0
 14 24  2  0
  5 25  1  0
 25 26  2  0
 26 27  1  0
 26  2  1  0
 24 10  1  0
 23 18  1  0
  1 28  1  0
  1 29  1  0
  1 30  1  0
  3 31  1  0
  4 32  1  0
 11 33  1  0
 12 34  1  0
 13 35  1  0
 18 36  1  0
 19 37  1  0
 19 38  1  0
 20 39  1  0
 20 40  1  0
 21 41  1  0
 21 42  1  0
 22 43  1  0
 22 44  1  0
 23 45  1  0
 23 46  1  0
 24 47  1  0
 25 48  1  0
 27 49  1  0
 27 50  1  0
 27 51  1  0
M  CHG  2   9  -1  18   1
M  END
>  <UniqueID>  (13) 
13

>  <SMILES>  (13) 
Cc1ccc(S(=O)(=O)[N-]c2cccc(S(=O)(=O)[NH+]3CCCCC3)c2)cc1C

>  <Energy>  (13) 
59.742618478906095

>  <Genealogy>  (13) 
Cc1ccc(S(=O)(=O)[N-]c2cccc(S(=O)(=O)[NH+]3CCCCC3)c2)cc1C (protonated)
Cc1ccc(S(=O)(=O)[N-]c2cccc(S(=O)(=O)[NH+]3CCCCC3)c2)cc1C (3D coordinates assigned)
Cc1ccc(S(=O)(=O)[N-]c2cccc(S(=O)(=O)[NH+]3CCCCC3)c2)cc1C (nonaromatic ring conformer: 59.742618478906095 kcal/mol)

>  <smiles>  (13) 
Cc1ccc(S(=O)(=O)Nc2cccc(S(=O)(=O)N3CCCCC3)c2)cc1C

>  <score_type>  (13) 
oracle

>  <origin>  (13) 
adgpu

>  <m_score__min__energy>  (13) 
-11.01

>  <m_primary>  (13) 
energy

$$$$
13:0
     RDKit          3D

 39 41  0  0  0  0  0  0  0  0999 V2000
   -7.9660   23.4250  -32.3130 C   0  0  0  0  0  0  0  0  0  0  0  0
   -7.2460   22.4530  -31.4660 N   0  0  2  0  0  0  0  0  0  0  0  0
   -8.0250   21.2050  -31.2840 C   0  0  0  0  0  0  0  0  0  0  0  0
   -7.4660   20.0720  -32.1070 C   0  0  0  0  0  0  0  0  0  0  0  0
   -7.8890   18.7510  -31.8950 C   0  0  0  0  0  0  0  0  0  0  0  0
   -7.3670   17.7300  -32.6920 C   0  0  0  0  0  0  0  0  0  0  0  0
   -6.4370   18.0320  -33.6880 C   0  0  0  0  0  0  0  0  0  0  0  0
   -6.0420   19.3590  -33.8740 C   0  0  0  0  0  0  0  0  0  0  0  0
   -6.5620   20.3400  -33.0900 N   0  0  0  0  0  0  0  0  0  0  0  0
   -6.8430   23.0510  -30.1690 C   0  0  0  0  0  0  0  0  0  0  0  0
   -5.7350   24.0750  -30.2820 C   0  0  0  0  0  0  0  0  0  0  0  0
   -5.8400   25.4190  -29.9940 C   0  0  0  0  0  0  0  0  0  0  0  0
   -4.7000   26.0430  -30.3450 N   0  0  0  0  0  0  0  0  0  0  0  0
   -3.8640   25.1470  -30.8460 N   0  0  0  0  0  0  0  0  0  0  0  0
   -4.4590   23.9390  -30.8140 C   0  0  0  0  0  0  0  0  0  0  0  0
   -3.8160   22.7120  -31.3180 C   0  0  0  0  0  0  0  0  0  0  0  0
   -3.0450   21.9240  -30.4490 C   0  0  0  0  0  0  0  0  0  0  0  0
   -2.4280   20.7590  -30.9130 C   0  0  0  0  0  0  0  0  0  0  0  0
   -2.5910   20.3620  -32.2440 C   0  0  0  0  0  0  0  0  0  0  0  0
   -1.8170   18.8990  -32.8250 Cl  0  0  0  0  0  0  0  0  0  0  0  0
   -3.3790   21.1280  -33.1080 C   0  0  0  0  0  0  0  0  0  0  0  0
   -3.9950   22.2950  -32.6470 C   0  0  0  0  0  0  0  0  0  0  0  0
   -8.4989   24.1444  -31.6738 H   0  0  0  0  0  0  0  0  0  0  0  0
   -7.2460   23.9620  -32.9481 H   0  0  0  0  0  0  0  0  0  0  0  0
   -8.6895   22.8928  -32.9481 H   0  0  0  0  0  0  0  0  0  0  0  0
   -6.3550   22.2130  -31.9640 H   0  0  0  0  0  0  0  0  0  0  0  0
   -7.9988   20.9204  -30.2218 H   0  0  0  0  0  0  0  0  0  0  0  0
   -9.0563   21.3936  -31.6170 H   0  0  0  0  0  0  0  0  0  0  0  0
   -8.6240   18.5221  -31.1093 H   0  0  0  0  0  0  0  0  0  0  0  0
   -7.6882   16.6897  -32.5351 H   0  0  0  0  0  0  0  0  0  0  0  0
   -6.0197   17.2339  -34.3195 H   0  0  0  0  0  0  0  0  0  0  0  0
   -5.3097   19.6101  -34.6554 H   0  0  0  0  0  0  0  0  0  0  0  0
   -7.7226   23.5405  -29.7255 H   0  0  0  0  0  0  0  0  0  0  0  0
   -6.4563   22.2307  -29.5465 H   0  0  0  0  0  0  0  0  0  0  0  0
   -6.7190   25.9061  -29.5467 H   0  0  0  0  0  0  0  0  0  0  0  0
   -2.9259   22.2249  -29.3977 H   0  0  0  0  0  0  0  0  0  0  0  0
   -1.8134   20.1536  -30.2305 H   0  0  0  0  0  0  0  0  0  0  0  0
   -3.5146   20.8117  -34.1528 H   0  0  0  0  0  0  0  0  0  0  0  0
   -4.6224   22.8890  -33.3278 H   0  0  0  0  0  0  0  0  0  0  0  0
  1  2  1  0
  2  3  1  0
  3  4  1  0
  4  5  2  0
  5  6  1  0
  6  7  2  0
  7  8  1  0
  8  9  2  0
  2 10  1  0
 10 11  1  0
 11 12  1  0
 12 13  2  0
 13 14  1  0
 14 15  1  0
 15 16  1  0
 16 17  2  0
 17 18  1  0
 18 19  2  0
 19 20  1  0
 19 21  1  0
 21 22  2  0
  9  4  1  0
 15 11  2  0
 22 16  1  0
  1 23  1  0
  1 24  1  0
  1 25  1  0
  2 26  1  6
  3 27  1  0
  3 28  1  0
  5 29  1  0
  6 30  1  0
  7 31  1  0
  8 32  1  0
 10 33  1  0
 10 34  1  0
 12 35  1  0
 17 36  1  0
 18 37  1  0
 21 38  1  0
 22 39  1  0
M  CHG  2   2   1  14  -1
M  END
>  <UniqueID>  (14) 
14

>  <SMILES>  (14) 
C[N@H+](Cc1ccccn1)Cc1cn[n-]c1-c1ccc(Cl)cc1

>  <Energy>  (14) 
78.7139395813854

>  <Genealogy>  (14) 
C[NH+](Cc1ccccn1)Cc1cn[n-]c1-c1ccc(Cl)cc1 (protonated)
C[N@H+](Cc1ccccn1)Cc1cn[n-]c1-c1ccc(Cl)cc1 (chirality)
C[N@H+](Cc1ccccn1)Cc1cn[n-]c1-c1ccc(Cl)cc1 (3D coordinates assigned)
C[N@H+](Cc1ccccn1)Cc1cn[n-]c1-c1ccc(Cl)cc1 (optimized conformer: 78.7139395813854 kcal/mol)

>  <smiles>  (14) 
CN(Cc1ccccn1)Cc1cn[nH]c1-c1ccc(Cl)cc1

>  <score_type>  (14) 
oracle

>  <origin>  (14) 
adgpu

>  <m_score__min__energy>  (14) 
-8.8200000000000003

>  <m_primary>  (14) 
energy

$$$$
14:0
     RDKit          3D

 75 80  0  0  0  0  0  0  0  0999 V2000
    1.4180   12.2360  -25.1380 C   0  0  0  0  0  0  0  0  0  0  0  0
    1.4820   13.1660  -26.3120 C   0  0  0  0  0  0  0  0  0  0  0  0
    1.3310   14.5470  -26.1290 C   0  0  0  0  0  0  0  0  0  0  0  0
    1.4180   15.4200  -27.2200 C   0  0  0  0  0  0  0  0  0  0  0  0
    1.6580   14.9210  -28.5120 C   0  0  0  0  0  0  0  0  0  0  0  0
    1.7310   15.8380  -29.6740 C   0  0  0  0  0  0  0  0  0  0  0  0
    1.3310   15.3980  -30.9480 C   0  0  0  0  0  0  0  0  0  0  0  0
    1.4080   16.2520  -32.0510 C   0  0  0  0  0  0  0  0  0  0  0  0
    1.9050   17.5550  -31.9030 C   0  0  0  0  0  0  0  0  0  0  0  0
    2.0450   18.4650  -33.0960 C   0  0  0  0  0  0  0  0  0  0  0  0
    0.8530   19.3310  -33.2330 N   0  0  0  0  0  0  0  0  0  0  0  0
   -0.4060   18.5950  -32.9380 C   0  0  1  0  0  0  0  0  0  0  0  0
   -0.7280   18.5840  -31.4370 C   0  0  0  0  0  0  0  0  0  0  0  0
   -1.5860   18.9720  -33.8190 C   0  0  0  0  0  0  0  0  0  0  0  0
   -2.0250   18.1000  -34.6200 O   0  0  0  0  0  0  0  0  0  0  0  0
   -2.1990   20.2790  -33.8100 N   0  0  0  0  0  0  0  0  0  0  0  0
   -3.6450   20.3840  -33.5790 C   0  0  0  0  0  0  0  0  0  0  0  0
   -3.9260   21.3940  -32.5130 C   0  0  0  0  0  0  0  0  0  0  0  0
   -3.6280   21.2910  -31.1720 C   0  0  0  0  0  0  0  0  0  0  0  0
   -3.9840   22.4650  -30.6240 N   0  0  0  0  0  0  0  0  0  0  0  0
   -3.8790   22.8420  -29.2180 C   0  0  0  0  0  0  0  0  0  0  0  0
   -2.4230   22.9210  -28.8030 C   0  0  0  0  0  0  0  0  0  0  0  0
   -1.7610   24.1670  -28.8680 C   0  0  0  0  0  0  0  0  0  0  0  0
   -2.4280   25.3030  -29.3110 O   0  0  0  0  0  0  0  0  0  0  0  0
   -0.4260   24.2850  -28.4820 C   0  0  0  0  0  0  0  0  0  0  0  0
    0.2820   23.1760  -28.0320 C   0  0  0  0  0  0  0  0  0  0  0  0
   -0.3320   21.9210  -27.9790 C   0  0  0  0  0  0  0  0  0  0  0  0
    0.3990   20.8110  -27.5260 C   0  0  0  0  0  0  0  0  0  0  0  0
   -0.1970   19.5510  -27.4730 C   0  0  0  0  0  0  0  0  0  0  0  0
   -1.5210   19.3880  -27.8800 C   0  0  0  0  0  0  0  0  0  0  0  0
   -2.2660   20.4840  -28.3260 C   0  0  0  0  0  0  0  0  0  0  0  0
   -1.6920   21.7740  -28.3760 C   0  0  0  0  0  0  0  0  0  0  0  0
   -4.4760   23.2410  -31.5740 N   0  0  0  0  0  0  0  0  0  0  0  0
   -4.4480   22.6150  -32.7420 N   0  0  0  0  0  0  0  0  0  0  0  0
   -1.3860   21.5050  -33.7870 C   0  0  0  0  0  0  0  0  0  0  0  0
   -0.2930   21.5360  -34.8710 C   0  0  0  0  0  0  0  0  0  0  0  0
    0.8920   20.2040  -34.7610 S   0  0  0  0  0  0  0  0  0  0  0  0
    0.6480   19.2660  -35.9130 O   0  0  0  0  0  0  0  0  0  0  0  0
    2.2580   20.8070  -34.9230 O   0  0  0  0  0  0  0  0  0  0  0  0
    2.3100   17.9960  -30.6330 C   0  0  0  0  0  0  0  0  0  0  0  0
    2.2140   17.1490  -29.5240 C   0  0  0  0  0  0  0  0  0  0  0  0
    1.8270   13.5350  -28.6880 C   0  0  0  0  0  0  0  0  0  0  0  0
    1.7510   12.6670  -27.5960 C   0  0  0  0  0  0  0  0  0  0  0  0
    1.4581   12.8188  -24.2059 H   0  0  0  0  0  0  0  0  0  0  0  0
    0.4784   11.6651  -25.1733 H   0  0  0  0  0  0  0  0  0  0  0  0
    2.2705   11.5417  -25.1733 H   0  0  0  0  0  0  0  0  0  0  0  0
    1.1430   14.9476  -25.1220 H   0  0  0  0  0  0  0  0  0  0  0  0
    1.2979   16.5024  -27.0653 H   0  0  0  0  0  0  0  0  0  0  0  0
    0.9542   14.3727  -31.0774 H   0  0  0  0  0  0  0  0  0  0  0  0
    1.0774   15.9009  -33.0397 H   0  0  0  0  0  0  0  0  0  0  0  0
    2.9371   19.0955  -32.9670 H   0  0  0  0  0  0  0  0  0  0  0  0
    2.1421   17.8493  -34.0023 H   0  0  0  0  0  0  0  0  0  0  0  0
   -0.2075   17.5509  -33.2217 H   0  0  0  0  0  0  0  0  0  0  0  0
    0.2085   18.6160  -30.8609 H   0  0  0  0  0  0  0  0  0  0  0  0
   -1.3423   19.4617  -31.1873 H   0  0  0  0  0  0  0  0  0  0  0  0
   -1.2809   17.6664  -31.1873 H   0  0  0  0  0  0  0  0  0  0  0  0
   -4.1404   20.6925  -34.5114 H   0  0  0  0  0  0  0  0  0  0  0  0
   -4.0287   19.4051  -33.2558 H   0  0  0  0  0  0  0  0  0  0  0  0
   -3.1885   20.4249  -30.6555 H   0  0  0  0  0  0  0  0  0  0  0  0
   -4.3528   23.8235  -29.0689 H   0  0  0  0  0  0  0  0  0  0  0  0
   -4.3857   22.0825  -28.6046 H   0  0  0  0  0  0  0  0  0  0  0  0
    0.0716   25.2646  -28.5340 H   0  0  0  0  0  0  0  0  0  0  0  0
    1.3299   23.2866  -27.7163 H   0  0  0  0  0  0  0  0  0  0  0  0
    1.4458   20.9356  -27.2117 H   0  0  0  0  0  0  0  0  0  0  0  0
    0.3773   18.6858  -27.1102 H   0  0  0  0  0  0  0  0  0  0  0  0
   -1.9825   18.3900  -27.8499 H   0  0  0  0  0  0  0  0  0  0  0  0
   -3.3100   20.3403  -28.6413 H   0  0  0  0  0  0  0  0  0  0  0  0
   -2.0517   22.3674  -33.9387 H   0  0  0  0  0  0  0  0  0  0  0  0
   -0.8770   21.5381  -32.8124 H   0  0  0  0  0  0  0  0  0  0  0  0
   -0.7822   21.4811  -35.8547 H   0  0  0  0  0  0  0  0  0  0  0  0
    0.2693   22.4699  -34.7237 H   0  0  0  0  0  0  0  0  0  0  0  0
    2.7056   19.0149  -30.5093 H   0  0  0  0  0  0  0  0  0  0  0  0
    2.5178   17.5106  -28.5305 H   0  0  0  0  0  0  0  0  0  0  0  0
    2.0204   13.1320  -29.6931 H   0  0  0  0  0  0  0  0  0  0  0  0
    1.9027   11.5875  -27.7431 H   0  0  0  0  0  0  0  0  0  0  0  0
  1  2  1  0
  2  3  2  0
  3  4  1  0
  4  5  2  0
  5  6  1  0
  6  7  2  0
  7  8  1  0
  8  9  2  0
  9 10  1  0
 10 11  1  0
 11 12  1  0
 12 13  1  0
 12 14  1  0
 14 15  2  0
 14 16  1  0
 16 17  1  0
 17 18  1  0
 18 19  2  0
 19 20  1  0
 20 21  1  0
 21 22  1  0
 22 23  2  0
 23 24  1  0
 23 25  1  0
 25 26  2  0
 26 27  1  0
 27 28  2  0
 28 29  1  0
 29 30  2  0
 30 31  1  0
 31 32  2  0
 20 33  1  0
 33 34  2  0
 16 35  1  0
 35 36  1  0
 36 37  1  0
 37 38  2  0
 37 39  2  0
  9 40  1  0
 40 41  2  0
  5 42  1  0
 42 43  2  0
 43  2  1  0
 41  6  1  0
 37 11  1  0
 34 18  1  0
 32 22  1  0
 32 27  1  0
  1 44  1  0
  1 45  1  0
  1 46  1  0
  3 47  1  0
  4 48  1  0
  7 49  1  0
  8 50  1  0
 10 51  1  0
 10 52  1  0
 12 53  1  6
 13 54  1  0
 13 55  1  0
 13 56  1  0
 17 57  1  0
 17 58  1  0
 19 59  1  0
 21 60  1  0
 21 61  1  0
 25 62  1  0
 26 63  1  0
 28 64  1  0
 29 65  1  0
 30 66  1  0
 31 67  1  0
 35 68  1  0
 35 69  1  0
 36 70  1  0
 36 71  1  0
 40 72  1  0
 41 73  1  0
 42 74  1  0
 43 75  1  0
M  CHG  1  24  -1
M  END
>  <UniqueID>  (15) 
15

>  <SMILES>  (15) 
Cc1ccc(-c2ccc(CN3[C@@H](C)C(=O)N(Cc4cn(Cc5c([O-])ccc6ccccc56)nn4)CCS3(=O)=O)cc2)cc1

>  <Energy>  (15) 
139.7003932789408

>  <Genealogy>  (15) 
Cc1ccc(-c2ccc(CN3C(C)C(=O)N(Cc4cn(Cc5c([O-])ccc6ccccc56)nn4)CCS3(=O)=O)cc2)cc1 (protonated)
Cc1ccc(-c2ccc(CN3[C@@H](C)C(=O)N(Cc4cn(Cc5c([O-])ccc6ccccc56)nn4)CCS3(=O)=O)cc2)cc1 (chirality)
Cc1ccc(-c2ccc(CN3[C@@H](C)C(=O)N(Cc4cn(Cc5c([O-])ccc6ccccc56)nn4)CCS3(=O)=O)cc2)cc1 (3D coordinates assigned)
Cc1ccc(-c2ccc(CN3[C@@H](C)C(=O)N(Cc4cn(Cc5c([O-])ccc6ccccc56)nn4)CCS3(=O)=O)cc2)cc1 (nonaromatic ring conformer: 139.7003932789408 kcal/mol)

>  <smiles>  (15) 
Cc1ccc(-c2ccc(CN3C(C)C(=O)N(Cc4cn(Cc5c(O)ccc6ccccc56)nn4)CCS3(=O)=O)cc2)cc1

>  <score_type>  (15) 
oracle

>  <origin>  (15) 
adgpu

>  <m_score__min__energy>  (15) 
-11.279999999999999

>  <m_primary>  (15) 
energy

$$$$
15:0
     RDKit          3D

 45 47  0  0  0  0  0  0  0  0999 V2000
   -6.4060   17.6400  -31.2950 C   0  0  0  0  0  0  0  0  0  0  0  0
   -7.4080   17.2080  -32.7570 S   0  0  0  0  0  0  0  0  0  0  0  0
   -5.9970   16.5820  -33.6850 C   0  0  0  0  0  0  0  0  0  0  0  0
   -5.7740   15.1980  -33.7060 C   0  0  0  0  0  0  0  0  0  0  0  0
   -4.6830   14.6700  -34.4020 C   0  0  0  0  0  0  0  0  0  0  0  0
   -3.8090   15.5220  -35.0830 C   0  0  0  0  0  0  0  0  0  0  0  0
   -4.0270   16.8990  -35.0650 C   0  0  0  0  0  0  0  0  0  0  0  0
   -5.1080   17.4490  -34.3530 C   0  0  0  0  0  0  0  0  0  0  0  0
   -5.3340   18.8720  -34.3430 N   0  0  0  0  0  0  0  0  0  0  0  0
   -4.7530   19.7670  -33.3840 C   0  0  0  0  0  0  0  0  0  0  0  0
   -4.0640   19.3240  -32.4250 O   0  0  0  0  0  0  0  0  0  0  0  0
   -5.0390   21.1680  -33.4780 N   0  0  0  0  0  0  0  0  0  0  0  0
   -5.7760   21.9290  -32.5140 C   0  0  0  0  0  0  0  0  0  0  0  0
   -7.1170   21.6030  -32.2750 C   0  0  0  0  0  0  0  0  0  0  0  0
   -7.8710   22.3380  -31.3550 C   0  0  0  0  0  0  0  0  0  0  0  0
   -7.2960   23.4170  -30.6850 C   0  0  0  0  0  0  0  0  0  0  0  0
   -5.9620   23.7710  -30.9320 C   0  0  0  0  0  0  0  0  0  0  0  0
   -5.2770   25.2010  -30.1670 S   0  0  0  0  0  0  0  0  0  0  0  0
   -5.7150   25.2790  -28.7300 O   0  0  0  0  0  0  0  0  0  0  0  0
   -5.7490   26.4400  -30.8770 O   0  0  0  0  0  0  0  0  0  0  0  0
   -3.5490   25.1000  -30.2740 N   0  0  0  0  0  0  0  0  0  0  0  0
   -2.7550   24.5170  -29.2400 C   0  0  0  0  0  0  0  0  0  0  0  0
   -3.1120   23.2850  -28.6720 C   0  0  0  0  0  0  0  0  0  0  0  0
   -2.3420   22.7380  -27.6400 C   0  0  0  0  0  0  0  0  0  0  0  0
   -1.2190   23.4250  -27.1650 C   0  0  0  0  0  0  0  0  0  0  0  0
   -0.8620   24.6540  -27.7250 C   0  0  0  0  0  0  0  0  0  0  0  0
   -1.6240   25.1990  -28.7650 C   0  0  0  0  0  0  0  0  0  0  0  0
   -1.2380   26.4050  -29.3430 O   0  0  0  0  0  0  0  0  0  0  0  0
   -5.2040   23.0300  -31.8500 C   0  0  0  0  0  0  0  0  0  0  0  0
   -6.9678   17.3978  -30.3808 H   0  0  0  0  0  0  0  0  0  0  0  0
   -5.4674   17.0666  -31.3113 H   0  0  0  0  0  0  0  0  0  0  0  0
   -6.1786   18.7161  -31.3113 H   0  0  0  0  0  0  0  0  0  0  0  0
   -6.4608   14.5246  -33.1723 H   0  0  0  0  0  0  0  0  0  0  0  0
   -4.5121   13.5834  -34.4138 H   0  0  0  0  0  0  0  0  0  0  0  0
   -2.9509   15.1070  -35.6320 H   0  0  0  0  0  0  0  0  0  0  0  0
   -3.3446   17.5639  -35.6148 H   0  0  0  0  0  0  0  0  0  0  0  0
   -6.0270   19.2780  -35.0100 H   0  0  0  0  0  0  0  0  0  0  0  0
   -7.5799   20.7635  -32.8144 H   0  0  0  0  0  0  0  0  0  0  0  0
   -8.9185   22.0647  -31.1597 H   0  0  0  0  0  0  0  0  0  0  0  0
   -7.8908   23.9924  -29.9603 H   0  0  0  0  0  0  0  0  0  0  0  0
   -3.9992   22.7480  -29.0388 H   0  0  0  0  0  0  0  0  0  0  0  0
   -2.6192   21.7679  -27.2018 H   0  0  0  0  0  0  0  0  0  0  0  0
   -0.6169   22.9968  -26.3500 H   0  0  0  0  0  0  0  0  0  0  0  0
    0.0191   25.1941  -27.3482 H   0  0  0  0  0  0  0  0  0  0  0  0
   -4.1595   23.3101  -32.0516 H   0  0  0  0  0  0  0  0  0  0  0  0
  1  2  1  0
  2  3  1  0
  3  4  2  0
  4  5  1  0
  5  6  2  0
  6  7  1  0
  7  8  2  0
  8  9  1  0
  9 10  1  0
 10 11  2  0
 10 12  1  0
 12 13  1  0
 13 14  2  0
 14 15  1  0
 15 16  2  0
 16 17  1  0
 17 18  1  0
 18 19  2  0
 18 20  2  0
 18 21  1  0
 21 22  1  0
 22 23  2  0
 23 24  1  0
 24 25  2  0
 25 26  1  0
 26 27  2  0
 27 28  1  0
 17 29  2  0
  8  3  1  0
 29 13  1  0
 27 22  1  0
  1 30  1  0
  1 31  1  0
  1 32  1  0
  4 33  1  0
  5 34  1  0
  6 35  1  0
  7 36  1  0
  9 37  1  0
 14 38  1  0
 15 39  1  0
 16 40  1  0
 23 41  1  0
 24 42  1  0
 25 43  1  0
 26 44  1  0
 29 45  1  0
M  CHG  3  12  -1  21  -1  28  -1
M  END
>  <UniqueID>  (16) 
16

>  <SMILES>  (16) 
CSc1ccccc1NC(=O)[N-]c1cccc(S(=O)(=O)[N-]c2ccccc2[O-])c1

>  <Energy>  (16) 
60.62141347964983

>  <Genealogy>  (16) 
CSc1ccccc1NC(=O)[N-]c1cccc(S(=O)(=O)[N-]c2ccccc2[O-])c1 (protonated)
CSc1ccccc1NC(=O)[N-]c1cccc(S(=O)(=O)[N-]c2ccccc2[O-])c1 (3D coordinates assigned)
CSc1ccccc1NC(=O)[N-]c1cccc(S(=O)(=O)[N-]c2ccccc2[O-])c1 (optimized conformer: 60.62141347964983 kcal/mol)

>  <smiles>  (16) 
CSc1ccccc1NC(=O)Nc1cccc(S(=O)(=O)Nc2ccccc2O)c1

>  <score_type>  (16) 
oracle

>  <origin>  (16) 
adgpu

>  <m_score__min__energy>  (16) 
-13.869999999999999

>  <m_primary>  (16) 
energy

$$$$
16:0
     RDKit          3D

 34 36  0  0  0  0  0  0  0  0999 V2000
   -5.5270   25.8700  -31.2480 O   0  0  0  0  0  0  0  0  0  0  0  0
   -5.0410   24.7370  -30.3880 S   0  0  0  0  0  0  0  0  0  0  0  0
   -5.7500   24.7870  -29.0640 O   0  0  0  0  0  0  0  0  0  0  0  0
   -3.3370   24.9160  -30.1260 N   0  0  0  0  0  0  0  0  0  0  0  0
   -2.5320   24.0720  -29.2910 C   0  0  0  0  0  0  0  0  0  0  0  0
   -2.7510   22.6820  -29.2110 C   0  0  0  0  0  0  0  0  0  0  0  0
   -1.9550   21.8880  -28.3820 C   0  0  0  0  0  0  0  0  0  0  0  0
   -0.9330   22.4660  -27.6280 C   0  0  0  0  0  0  0  0  0  0  0  0
   -0.7030   23.8410  -27.7020 C   0  0  0  0  0  0  0  0  0  0  0  0
   -1.4970   24.6460  -28.5290 C   0  0  0  0  0  0  0  0  0  0  0  0
   -1.1750   26.4220  -28.5950 S   0  0  0  0  0  0  0  0  0  0  0  0
   -5.3760   23.1870  -31.1530 C   0  0  0  0  0  0  0  0  0  0  0  0
   -4.4160   22.5780  -31.9680 C   0  0  0  0  0  0  0  0  0  0  0  0
   -4.6800   21.3400  -32.5620 C   0  0  0  0  0  0  0  0  0  0  0  0
   -5.9090   20.6880  -32.3460 C   0  0  0  0  0  0  0  0  0  0  0  0
   -6.1700   19.3730  -32.9870 C   0  0  0  0  0  0  0  0  0  0  0  0
   -7.0250   18.4160  -32.4090 C   0  0  0  0  0  0  0  0  0  0  0  0
   -7.2220   17.2260  -33.0350 N   0  0  0  0  0  0  0  0  0  0  0  0
   -6.6090   16.9370  -34.2100 C   0  0  0  0  0  0  0  0  0  0  0  0
   -5.7520   17.8740  -34.7850 C   0  0  0  0  0  0  0  0  0  0  0  0
   -5.5520   19.0650  -34.1620 N   0  0  0  0  0  0  0  0  0  0  0  0
   -6.8750   21.3180  -31.5390 C   0  0  0  0  0  0  0  0  0  0  0  0
   -6.6080   22.5560  -30.9480 C   0  0  0  0  0  0  0  0  0  0  0  0
   -3.5533   22.2198  -29.8048 H   0  0  0  0  0  0  0  0  0  0  0  0
   -2.1343   20.8043  -28.3234 H   0  0  0  0  0  0  0  0  0  0  0  0
   -0.3086   21.8382  -26.9753 H   0  0  0  0  0  0  0  0  0  0  0  0
    0.1049   24.2941  -27.1086 H   0  0  0  0  0  0  0  0  0  0  0  0
   -3.4501   23.0747  -32.1422 H   0  0  0  0  0  0  0  0  0  0  0  0
   -3.9201   20.8709  -33.2043 H   0  0  0  0  0  0  0  0  0  0  0  0
   -7.5309   18.6301  -31.4560 H   0  0  0  0  0  0  0  0  0  0  0  0
   -6.7868   15.9710  -34.7051 H   0  0  0  0  0  0  0  0  0  0  0  0
   -5.2424   17.6514  -35.7341 H   0  0  0  0  0  0  0  0  0  0  0  0
   -7.8477   20.8321  -31.3722 H   0  0  0  0  0  0  0  0  0  0  0  0
   -7.3707   23.0371  -30.3181 H   0  0  0  0  0  0  0  0  0  0  0  0
  1  2  2  0
  2  3  2  0
  2  4  1  0
  4  5  1  0
  5  6  2  0
  6  7  1  0
  7  8  2  0
  8  9  1  0
  9 10  2  0
 10 11  1  0
  2 12  1  0
 12 13  2  0
 13 14  1  0
 14 15  2  0
 15 16  1  0
 16 17  2  0
 17 18  1  0
 18 19  2  0
 19 20  1  0
 20 21  2  0
 15 22  1  0
 22 23  2  0
 10  5  1  0
 23 12  1  0
 21 16  1  0
  6 24  1  0
  7 25  1  0
  8 26  1  0
  9 27  1  0
 13 28  1  0
 14 29  1  0
 17 30  1  0
 19 31  1  0
 20 32  1  0
 22 33  1  0
 23 34  1  0
M  CHG  2   4  -1  11  -1
M  END
>  <UniqueID>  (17) 
17

>  <SMILES>  (17) 
O=S(=O)([N-]c1ccccc1[S-])c1ccc(-c2cnccn2)cc1

>  <Energy>  (17) 
46.449216689635186

>  <Genealogy>  (17) 
O=S(=O)([N-]c1ccccc1[S-])c1ccc(-c2cnccn2)cc1 (protonated)
O=S(=O)([N-]c1ccccc1[S-])c1ccc(-c2cnccn2)cc1 (3D coordinates assigned)
O=S(=O)([N-]c1ccccc1[S-])c1ccc(-c2cnccn2)cc1 (optimized conformer: 46.449216689635186 kcal/mol)

>  <smiles>  (17) 
O=S(=O)(Nc1ccccc1S)c1ccc(-c2cnccn2)cc1

>  <score_type>  (17) 
oracle

>  <origin>  (17) 
adgpu

>  <m_score__min__energy>  (17) 
-10.890000000000001

>  <m_primary>  (17) 
energy

$$$$
17:0
     RDKit          3D

 39 41  0  0  0  0  0  0  0  0999 V2000
   -1.9450   18.1210  -26.3230 N   0  0  0  0  0  0  0  0  0  0  0  0
   -1.5510   19.3860  -26.8590 C   0  0  0  0  0  0  0  0  0  0  0  0
   -1.1690   19.4950  -28.2040 C   0  0  0  0  0  0  0  0  0  0  0  0
   -0.7840   20.7330  -28.7280 C   0  0  0  0  0  0  0  0  0  0  0  0
   -0.7670   21.8700  -27.9100 C   0  0  0  0  0  0  0  0  0  0  0  0
   -0.2730   23.4560  -28.5920 S   0  0  0  0  0  0  0  0  0  0  0  0
   -0.7690   24.3790  -27.1270 C   0  0  0  0  0  0  0  0  0  0  0  0
    0.1550   24.5350  -26.0830 C   0  0  0  0  0  0  0  0  0  0  0  0
   -0.1910   25.2500  -24.9350 C   0  0  0  0  0  0  0  0  0  0  0  0
   -1.4580   25.8220  -24.8240 C   0  0  0  0  0  0  0  0  0  0  0  0
   -2.3770   25.6950  -25.8670 C   0  0  0  0  0  0  0  0  0  0  0  0
   -2.0370   24.9910  -27.0370 C   0  0  0  0  0  0  0  0  0  0  0  0
   -2.9810   24.8780  -28.1150 N   0  0  0  0  0  0  0  0  0  0  0  0
   -3.8980   23.7790  -28.2550 C   0  0  0  0  0  0  0  0  0  0  0  0
   -3.8770   22.8250  -27.4300 O   0  0  0  0  0  0  0  0  0  0  0  0
   -4.8680   23.7410  -29.3710 C   0  0  0  0  0  0  0  0  0  0  0  0
   -5.8980   22.7830  -29.3540 C   0  0  0  0  0  0  0  0  0  0  0  0
   -6.8230   22.7170  -30.3990 C   0  0  0  0  0  0  0  0  0  0  0  0
   -6.7360   23.6130  -31.4670 C   0  0  0  0  0  0  0  0  0  0  0  0
   -5.7320   24.5830  -31.4860 C   0  0  0  0  0  0  0  0  0  0  0  0
   -4.8040   24.6600  -30.4400 C   0  0  0  0  0  0  0  0  0  0  0  0
   -3.8490   25.6700  -30.4620 O   0  0  0  0  0  0  0  0  0  0  0  0
   -1.1660   21.7660  -26.5710 C   0  0  0  0  0  0  0  0  0  0  0  0
   -1.5520   20.5280  -26.0470 C   0  0  0  0  0  0  0  0  0  0  0  0
   -2.9530   17.8500  -26.2750 H   0  0  0  0  0  0  0  0  0  0  0  0
   -1.2320   17.4450  -25.9690 H   0  0  0  0  0  0  0  0  0  0  0  0
   -1.1722   18.6038  -28.8488 H   0  0  0  0  0  0  0  0  0  0  0  0
   -0.4936   20.8142  -29.7859 H   0  0  0  0  0  0  0  0  0  0  0  0
    1.1579   24.0914  -26.1695 H   0  0  0  0  0  0  0  0  0  0  0  0
    0.5363   25.3623  -24.1174 H   0  0  0  0  0  0  0  0  0  0  0  0
   -1.7336   26.3740  -23.9133 H   0  0  0  0  0  0  0  0  0  0  0  0
   -3.3747   26.1488  -25.7736 H   0  0  0  0  0  0  0  0  0  0  0  0
   -3.0200   25.6500  -28.8130 H   0  0  0  0  0  0  0  0  0  0  0  0
   -5.9757   22.0803  -28.5113 H   0  0  0  0  0  0  0  0  0  0  0  0
   -7.6201   21.9591  -30.3807 H   0  0  0  0  0  0  0  0  0  0  0  0
   -7.4591   23.5543  -32.2938 H   0  0  0  0  0  0  0  0  0  0  0  0
   -5.6696   25.2900  -32.3264 H   0  0  0  0  0  0  0  0  0  0  0  0
   -1.1757   22.6601  -25.9303 H   0  0  0  0  0  0  0  0  0  0  0  0
   -1.8576   20.4505  -24.9932 H   0  0  0  0  0  0  0  0  0  0  0  0
  1  2  1  0
  2  3  2  0
  3  4  1  0
  4  5  2  0
  5  6  1  0
  6  7  1  0
  7  8  2  0
  8  9  1  0
  9 10  2  0
 10 11  1  0
 11 12  2  0
 12 13  1  0
 13 14  1  0
 14 15  2  0
 14 16  1  0
 16 17  2  0
 17 18  1  0
 18 19  2  0
 19 20  1  0
 20 21  2  0
 21 22  1  0
  5 23  1  0
 23 24  2  0
 24  2  1  0
 12  7  1  0
 21 16  1  0
  1 25  1  0
  1 26  1  0
  3 27  1  0
  4 28  1  0
  8 29  1  0
  9 30  1  0
 10 31  1  0
 11 32  1  0
 13 33  1  0
 17 34  1  0
 18 35  1  0
 19 36  1  0
 20 37  1  0
 23 38  1  0
 24 39  1  0
M  CHG  1  22  -1
M  END
>  <UniqueID>  (18) 
18

>  <SMILES>  (18) 
Nc1ccc(Sc2ccccc2NC(=O)c2ccccc2[O-])cc1

>  <Energy>  (18) 
46.43456219766671

>  <Genealogy>  (18) 
Nc1ccc(Sc2ccccc2NC(=O)c2ccccc2[O-])cc1 (protonated)
Nc1ccc(Sc2ccccc2NC(=O)c2ccccc2[O-])cc1 (3D coordinates assigned)
Nc1ccc(Sc2ccccc2NC(=O)c2ccccc2[O-])cc1 (optimized conformer: 46.43456219766671 kcal/mol)

>  <smiles>  (18) 
Nc1ccc(Sc2ccccc2NC(=O)c2ccccc2O)cc1

>  <score_type>  (18) 
oracle

>  <origin>  (18) 
adgpu

>  <m_score__min__energy>  (18) 
-10.619999999999999

>  <m_primary>  (18) 
energy

$$$$
18:0
     RDKit          3D

 43 46  0  0  0  0  0  0  0  0999 V2000
   -6.5260   17.6550  -31.2290 C   0  0  0  0  0  0  0  0  0  0  0  0
   -5.6160   17.3600  -32.3880 C   0  0  0  0  0  0  0  0  0  0  0  0
   -5.5300   16.0770  -32.8280 N   0  0  0  0  0  0  0  0  0  0  0  0
   -4.7270   15.7310  -33.8620 C   0  0  0  0  0  0  0  0  0  0  0  0
   -4.6640   14.3990  -34.2850 C   0  0  0  0  0  0  0  0  0  0  0  0
   -3.8340   14.0410  -35.3510 C   0  0  0  0  0  0  0  0  0  0  0  0
   -3.0650   15.0140  -35.9970 C   0  0  0  0  0  0  0  0  0  0  0  0
   -3.1220   16.3470  -35.5810 C   0  0  0  0  0  0  0  0  0  0  0  0
   -3.9550   16.7150  -34.5080 C   0  0  0  0  0  0  0  0  0  0  0  0
   -4.0540   18.0410  -34.0510 C   0  0  0  0  0  0  0  0  0  0  0  0
   -3.3790   18.9500  -34.6130 O   0  0  0  0  0  0  0  0  0  0  0  0
   -4.8830   18.3480  -33.0020 N   0  0  0  0  0  0  0  0  0  0  0  0
   -4.9740   19.7120  -32.5510 C   0  0  0  0  0  0  0  0  0  0  0  0
   -3.8110   20.4360  -32.2580 C   0  0  0  0  0  0  0  0  0  0  0  0
   -3.8990   21.7620  -31.8250 C   0  0  0  0  0  0  0  0  0  0  0  0
   -5.1480   22.3760  -31.6660 C   0  0  0  0  0  0  0  0  0  0  0  0
   -5.1930   23.7440  -31.2380 N   0  0  0  0  0  0  0  0  0  0  0  0
   -4.1570   24.4620  -30.5540 C   0  0  0  0  0  0  0  0  0  0  0  0
   -3.9410   25.6700  -30.8410 O   0  0  0  0  0  0  0  0  0  0  0  0
   -3.3750   23.8140  -29.4650 C   0  0  0  0  0  0  0  0  0  0  0  0
   -3.7890   22.5630  -28.9660 C   0  0  0  0  0  0  0  0  0  0  0  0
   -3.0750   21.9270  -27.9460 C   0  0  0  0  0  0  0  0  0  0  0  0
   -3.4980   20.6920  -27.4680 O   0  0  0  0  0  0  0  0  0  0  0  0
   -1.9390   22.5300  -27.4070 C   0  0  0  0  0  0  0  0  0  0  0  0
   -1.5150   23.7700  -27.8850 C   0  0  0  0  0  0  0  0  0  0  0  0
   -2.2210   24.4170  -28.9050 C   0  0  0  0  0  0  0  0  0  0  0  0
   -1.7670   25.6560  -29.3420 O   0  0  0  0  0  0  0  0  0  0  0  0
   -6.3150   21.6560  -31.9880 C   0  0  0  0  0  0  0  0  0  0  0  0
   -6.2250   20.3310  -32.4230 C   0  0  0  0  0  0  0  0  0  0  0  0
   -5.9872   17.4803  -30.2860 H   0  0  0  0  0  0  0  0  0  0  0  0
   -6.8515   18.7047  -31.2763 H   0  0  0  0  0  0  0  0  0  0  0  0
   -7.4054   16.9959  -31.2763 H   0  0  0  0  0  0  0  0  0  0  0  0
   -5.2685   13.6325  -33.7780 H   0  0  0  0  0  0  0  0  0  0  0  0
   -3.7857   12.9931  -35.6820 H   0  0  0  0  0  0  0  0  0  0  0  0
   -2.4128   14.7292  -36.8357 H   0  0  0  0  0  0  0  0  0  0  0  0
   -2.5155   17.1089  -36.0925 H   0  0  0  0  0  0  0  0  0  0  0  0
   -2.8258   19.9595  -32.3690 H   0  0  0  0  0  0  0  0  0  0  0  0
   -2.9809   22.3275  -31.6075 H   0  0  0  0  0  0  0  0  0  0  0  0
   -4.6850   22.0809  -29.3841 H   0  0  0  0  0  0  0  0  0  0  0  0
   -1.3775   22.0281  -26.6053 H   0  0  0  0  0  0  0  0  0  0  0  0
   -0.6188   24.2427  -27.4568 H   0  0  0  0  0  0  0  0  0  0  0  0
   -7.2996   22.1378  -31.8968 H   0  0  0  0  0  0  0  0  0  0  0  0
   -7.1402   19.7712  -32.6661 H   0  0  0  0  0  0  0  0  0  0  0  0
  1  2  1  0
  2  3  2  0
  3  4  1  0
  4  5  2  0
  5  6  1  0
  6  7  2  0
  7  8  1  0
  8  9  2  0
  9 10  1  0
 10 11  2  0
 10 12  1  0
 12 13  1  0
 13 14  2  0
 14 15  1  0
 15 16  2  0
 16 17  1  0
 17 18  1  0
 18 19  2  0
 18 20  1  0
 20 21  2  0
 21 22  1  0
 22 23  1  0
 22 24  2  0
 24 25  1  0
 25 26  2  0
 26 27  1  0
 16 28  1  0
 28 29  2  0
 12  2  1  0
 29 13  1  0
  9  4  1  0
 26 20  1  0
  1 30  1  0
  1 31  1  0
  1 32  1  0
  5 33  1  0
  6 34  1  0
  7 35  1  0
  8 36  1  0
 14 37  1  0
 15 38  1  0
 21 39  1  0
 24 40  1  0
 25 41  1  0
 28 42  1  0
 29 43  1  0
M  CHG  3  17  -1  23  -1  27  -1
M  END
>  <UniqueID>  (19) 
19

>  <SMILES>  (19) 
Cc1nc2ccccc2c(=O)n1-c1ccc([N-]C(=O)c2cc([O-])ccc2[O-])cc1

>  <Energy>  (19) 
68.44201278254893

>  <Genealogy>  (19) 
Cc1nc2ccccc2c(=O)n1-c1ccc([N-]C(=O)c2cc([O-])ccc2[O-])cc1 (protonated)
Cc1nc2ccccc2c(=O)n1-c1ccc([N-]C(=O)c2cc([O-])ccc2[O-])cc1 (3D coordinates assigned)
Cc1nc2ccccc2c(=O)n1-c1ccc([N-]C(=O)c2cc([O-])ccc2[O-])cc1 (optimized conformer: 68.44201278254893 kcal/mol)

>  <smiles>  (19) 
Cc1nc2ccccc2c(=O)n1-c1ccc(NC(=O)c2cc(O)ccc2O)cc1

>  <score_type>  (19) 
oracle

>  <origin>  (19) 
adgpu

>  <m_score__min__energy>  (19) 
-11.98

>  <m_primary>  (19) 
energy

$$$$
19:0
     RDKit          3D

 40 42  0  0  0  0  0  0  0  0999 V2000
   -5.4320   17.8100  -35.2040 O   0  0  0  0  0  0  0  0  0  0  0  0
   -5.3180   17.9290  -33.7110 S   0  0  0  0  0  0  0  0  0  0  0  0
   -4.9840   16.5800  -33.1360 O   0  0  0  0  0  0  0  0  0  0  0  0
   -4.0360   19.0350  -33.3280 N   0  0  0  0  0  0  0  0  0  0  0  0
   -4.1990   20.2890  -32.6540 C   0  0  0  0  0  0  0  0  0  0  0  0
   -4.5870   21.4610  -33.3290 C   0  0  0  0  0  0  0  0  0  0  0  0
   -4.7120   22.6660  -32.6320 C   0  0  0  0  0  0  0  0  0  0  0  0
   -4.4670   22.7150  -31.2540 C   0  0  0  0  0  0  0  0  0  0  0  0
   -4.6390   24.2420  -30.3930 S   0  0  0  0  0  0  0  0  0  0  0  0
   -5.4190   25.2210  -31.2260 O   0  0  0  0  0  0  0  0  0  0  0  0
   -5.3820   23.9920  -29.1110 O   0  0  0  0  0  0  0  0  0  0  0  0
   -3.0910   24.9260  -30.0100 N   0  0  0  0  0  0  0  0  0  0  0  0
   -2.2670   24.5590  -28.8940 C   0  0  0  0  0  0  0  0  0  0  0  0
   -2.3550   23.2930  -28.2850 C   0  0  0  0  0  0  0  0  0  0  0  0
   -1.5430   22.9810  -27.1890 C   0  0  0  0  0  0  0  0  0  0  0  0
   -0.6320   23.9220  -26.7000 C   0  0  0  0  0  0  0  0  0  0  0  0
   -0.5340   25.1770  -27.3020 C   0  0  0  0  0  0  0  0  0  0  0  0
   -1.3540   25.4990  -28.3900 C   0  0  0  0  0  0  0  0  0  0  0  0
   -1.2660   26.7610  -28.9670 O   0  0  0  0  0  0  0  0  0  0  0  0
   -4.0980   21.5450  -30.5770 C   0  0  0  0  0  0  0  0  0  0  0  0
   -3.9560   20.3420  -31.2760 C   0  0  0  0  0  0  0  0  0  0  0  0
   -6.8510   18.5140  -33.0700 C   0  0  0  0  0  0  0  0  0  0  0  0
   -7.5920   17.7180  -32.1830 C   0  0  0  0  0  0  0  0  0  0  0  0
   -8.8090   18.1840  -31.6700 C   0  0  0  0  0  0  0  0  0  0  0  0
   -9.2870   19.4430  -32.0410 C   0  0  0  0  0  0  0  0  0  0  0  0
   -8.5510   20.2380  -32.9250 C   0  0  0  0  0  0  0  0  0  0  0  0
   -7.3340   19.7770  -33.4360 C   0  0  0  0  0  0  0  0  0  0  0  0
   -4.7927   21.4288  -34.4091 H   0  0  0  0  0  0  0  0  0  0  0  0
   -5.0043   23.5807  -33.1686 H   0  0  0  0  0  0  0  0  0  0  0  0
   -3.0643   22.5466  -28.6719 H   0  0  0  0  0  0  0  0  0  0  0  0
   -1.6216   21.9933  -26.7112 H   0  0  0  0  0  0  0  0  0  0  0  0
    0.0077   23.6730  -25.8405 H   0  0  0  0  0  0  0  0  0  0  0  0
    0.1883   25.9141  -26.9213 H   0  0  0  0  0  0  0  0  0  0  0  0
   -3.9194   21.5728  -29.4920 H   0  0  0  0  0  0  0  0  0  0  0  0
   -3.6513   19.4312  -30.7396 H   0  0  0  0  0  0  0  0  0  0  0  0
   -7.2163   16.7265  -31.8902 H   0  0  0  0  0  0  0  0  0  0  0  0
   -9.3884   17.5586  -30.9749 H   0  0  0  0  0  0  0  0  0  0  0  0
  -10.2426   19.8091  -31.6376 H   0  0  0  0  0  0  0  0  0  0  0  0
   -8.9302   21.2279  -33.2189 H   0  0  0  0  0  0  0  0  0  0  0  0
   -6.7547   20.4072  -34.1268 H   0  0  0  0  0  0  0  0  0  0  0  0
  1  2  2  0
  2  3  2  0
  2  4  1  0
  4  5  1  0
  5  6  2  0
  6  7  1  0
  7  8  2  0
  8  9  1  0
  9 10  2  0
  9 11  2  0
  9 12  1  0
 12 13  1  0
 13 14  2  0
 14 15  1  0
 15 16  2  0
 16 17  1  0
 17 18  2  0
 18 19  1  0
  8 20  1  0
 20 21  2  0
  2 22  1  0
 22 23  2  0
 23 24  1  0
 24 25  2  0
 25 26  1  0
 26 27  2  0
 21  5  1  0
 27 22  1  0
 18 13  1  0
  6 28  1  0
  7 29  1  0
 14 30  1  0
 15 31  1  0
 16 32  1  0
 17 33  1  0
 20 34  1  0
 21 35  1  0
 23 36  1  0
 24 37  1  0
 25 38  1  0
 26 39  1  0
 27 40  1  0
M  CHG  3   4  -1  12  -1  19  -1
M  END
>  <UniqueID>  (20) 
20

>  <SMILES>  (20) 
O=S(=O)([N-]c1ccc(S(=O)(=O)[N-]c2ccccc2[O-])cc1)c1ccccc1

>  <Energy>  (20) 
49.7583475981328

>  <Genealogy>  (20) 
O=S(=O)([N-]c1ccc(S(=O)(=O)[N-]c2ccccc2[O-])cc1)c1ccccc1 (protonated)
O=S(=O)([N-]c1ccc(S(=O)(=O)[N-]c2ccccc2[O-])cc1)c1ccccc1 (3D coordinates assigned)
O=S(=O)([N-]c1ccc(S(=O)(=O)[N-]c2ccccc2[O-])cc1)c1ccccc1 (optimized conformer: 49.7583475981328 kcal/mol)

>  <smiles>  (20) 
O=S(=O)(Nc1ccc(S(=O)(=O)Nc2ccccc2O)cc1)c1ccccc1

>  <score_type>  (20) 
oracle

>  <origin>  (20) 
adgpu

>  <m_score__min__energy>  (20) 
-14.039999999999999

>  <m_primary>  (20) 
energy

$$$$
20:0
     RDKit          3D

 43 45  0  0  0  0  0  0  0  0999 V2000
   -5.2550   19.0270  -31.8320 O   0  0  0  0  0  0  0  0  0  0  0  0
   -4.6490   19.6300  -32.7560 C   0  0  0  0  0  0  0  0  0  0  0  0
   -3.5540   18.9780  -33.4100 N   0  0  0  0  0  0  0  0  0  0  0  0
   -2.3240   19.6080  -33.7930 C   0  0  0  0  0  0  0  0  0  0  0  0
   -2.0360   20.9390  -33.4420 C   0  0  0  0  0  0  0  0  0  0  0  0
   -0.8130   21.5130  -33.8020 C   0  0  0  0  0  0  0  0  0  0  0  0
    0.1320   20.7630  -34.5070 C   0  0  0  0  0  0  0  0  0  0  0  0
    1.7990   21.5510  -35.0030 Br  0  0  0  0  0  0  0  0  0  0  0  0
   -0.1390   19.4320  -34.8380 C   0  0  0  0  0  0  0  0  0  0  0  0
   -1.3590   18.8540  -34.4730 C   0  0  0  0  0  0  0  0  0  0  0  0
   -5.1110   20.9130  -33.2070 N   0  0  0  0  0  0  0  0  0  0  0  0
   -5.8920   21.8080  -32.3990 C   0  0  0  0  0  0  0  0  0  0  0  0
   -7.2530   21.5650  -32.1470 C   0  0  0  0  0  0  0  0  0  0  0  0
   -7.9770   22.4160  -31.3090 C   0  0  0  0  0  0  0  0  0  0  0  0
   -7.3480   23.5060  -30.7020 C   0  0  0  0  0  0  0  0  0  0  0  0
   -5.9900   23.7530  -30.9360 C   0  0  0  0  0  0  0  0  0  0  0  0
   -5.1930   25.0870  -30.1030 S   0  0  0  0  0  0  0  0  0  0  0  0
   -5.7680   26.4070  -30.5340 O   0  0  0  0  0  0  0  0  0  0  0  0
   -5.4150   24.9260  -28.6260 O   0  0  0  0  0  0  0  0  0  0  0  0
   -3.4890   25.0510  -30.4280 N   0  0  0  0  0  0  0  0  0  0  0  0
   -2.5040   24.5430  -29.5200 C   0  0  0  0  0  0  0  0  0  0  0  0
   -1.6860   25.3460  -29.0000 O   0  0  0  0  0  0  0  0  0  0  0  0
   -2.4250   23.1130  -29.1720 C   0  0  0  0  0  0  0  0  0  0  0  0
   -2.0750   22.1620  -30.1430 C   0  0  0  0  0  0  0  0  0  0  0  0
   -2.0120   20.8050  -29.8090 C   0  0  0  0  0  0  0  0  0  0  0  0
   -2.2890   20.3920  -28.5030 C   0  0  0  0  0  0  0  0  0  0  0  0
   -2.6210   21.3360  -27.5270 C   0  0  0  0  0  0  0  0  0  0  0  0
   -2.6810   22.6940  -27.8560 C   0  0  0  0  0  0  0  0  0  0  0  0
   -5.2660   22.9030  -31.7840 C   0  0  0  0  0  0  0  0  0  0  0  0
   -2.7755   21.5305  -32.8823 H   0  0  0  0  0  0  0  0  0  0  0  0
   -0.5945   22.5562  -33.5299 H   0  0  0  0  0  0  0  0  0  0  0  0
    0.6080   18.8389  -35.3860 H   0  0  0  0  0  0  0  0  0  0  0  0
   -1.5619   17.8017  -34.7212 H   0  0  0  0  0  0  0  0  0  0  0  0
   -4.9170   21.1800  -34.1990 H   0  0  0  0  0  0  0  0  0  0  0  0
   -7.7502   20.7008  -32.6117 H   0  0  0  0  0  0  0  0  0  0  0  0
   -9.0453   22.2276  -31.1264 H   0  0  0  0  0  0  0  0  0  0  0  0
   -7.9208   24.1712  -30.0391 H   0  0  0  0  0  0  0  0  0  0  0  0
   -1.8495   22.4848  -31.1701 H   0  0  0  0  0  0  0  0  0  0  0  0
   -1.7442   20.0624  -30.5750 H   0  0  0  0  0  0  0  0  0  0  0  0
   -2.2458   19.3240  -28.2430 H   0  0  0  0  0  0  0  0  0  0  0  0
   -2.8354   21.0102  -26.4985 H   0  0  0  0  0  0  0  0  0  0  0  0
   -2.9292   23.4356  -27.0824 H   0  0  0  0  0  0  0  0  0  0  0  0
   -4.1989   23.0960  -31.9687 H   0  0  0  0  0  0  0  0  0  0  0  0
  1  2  2  0
  2  3  1  0
  3  4  1  0
  4  5  2  0
  5  6  1  0
  6  7  2  0
  7  8  1  0
  7  9  1  0
  9 10  2  0
  2 11  1  0
 11 12  1  0
 12 13  2  0
 13 14  1  0
 14 15  2  0
 15 16  1  0
 16 17  1  0
 17 18  2  0
 17 19  2  0
 17 20  1  0
 20 21  1  0
 21 22  2  0
 21 23  1  0
 23 24  2  0
 24 25  1  0
 25 26  2  0
 26 27  1  0
 27 28  2  0
 16 29  2  0
 10  4  1  0
 29 12  1  0
 28 23  1  0
  5 30  1  0
  6 31  1  0
  9 32  1  0
 10 33  1  0
 11 34  1  0
 13 35  1  0
 14 36  1  0
 15 37  1  0
 24 38  1  0
 25 39  1  0
 26 40  1  0
 27 41  1  0
 28 42  1  0
 29 43  1  0
M  CHG  2   3  -1  20  -1
M  END
>  <UniqueID>  (21) 
21

>  <SMILES>  (21) 
O=C([N-]c1ccc(Br)cc1)Nc1cccc(S(=O)(=O)[N-]C(=O)c2ccccc2)c1

>  <Energy>  (21) 
55.78306019803709

>  <Genealogy>  (21) 
O=C([N-]c1ccc(Br)cc1)Nc1cccc(S(=O)(=O)[N-]C(=O)c2ccccc2)c1 (protonated)
O=C([N-]c1ccc(Br)cc1)Nc1cccc(S(=O)(=O)[N-]C(=O)c2ccccc2)c1 (3D coordinates assigned)
O=C([N-]c1ccc(Br)cc1)Nc1cccc(S(=O)(=O)[N-]C(=O)c2ccccc2)c1 (optimized conformer: 55.78306019803709 kcal/mol)

>  <smiles>  (21) 
O=C(Nc1ccc(Br)cc1)Nc1cccc(S(=O)(=O)NC(=O)c2ccccc2)c1

>  <score_type>  (21) 
oracle

>  <origin>  (21) 
adgpu

>  <m_score__min__energy>  (21) 
-11.630000000000001

>  <m_primary>  (21) 
energy

$$$$
21:0
     RDKit          3D

 61 64  0  0  0  0  0  0  0  0999 V2000
   -0.8360   18.0010  -33.4040 C   0  0  0  0  0  0  0  0  0  0  0  0
   -1.2230   19.0320  -32.3770 C   0  0  0  0  0  0  0  0  0  0  0  0
   -0.4680   19.1480  -31.1990 C   0  0  0  0  0  0  0  0  0  0  0  0
   -0.8030   20.0910  -30.2280 C   0  0  0  0  0  0  0  0  0  0  0  0
   -1.9030   20.9470  -30.4110 C   0  0  0  0  0  0  0  0  0  0  0  0
   -2.2790   21.9530  -29.3840 C   0  0  0  0  0  0  0  0  0  0  0  0
   -1.5470   22.1150  -28.2010 C   0  0  0  0  0  0  0  0  0  0  0  0
   -1.9530   23.0690  -27.2730 C   0  0  0  0  0  0  0  0  0  0  0  0
   -3.0750   23.8520  -27.5410 C   0  0  0  0  0  0  0  0  0  0  0  0
   -3.4500   24.7070  -26.6930 O   0  0  0  0  0  0  0  0  0  0  0  0
   -3.7530   23.6830  -28.7200 N   0  0  0  0  0  0  0  0  0  0  0  0
   -4.9580   24.4570  -29.0300 C   0  0  0  0  0  0  0  0  0  0  0  0
   -4.8880   24.9600  -30.4370 C   0  0  0  0  0  0  0  0  0  0  0  0
   -3.9110   25.6690  -30.7980 O   0  0  0  0  0  0  0  0  0  0  0  0
   -5.9380   24.6330  -31.3540 N   0  0  0  0  0  0  0  0  0  0  0  0
   -6.5020   23.3330  -31.5780 C   0  0  0  0  0  0  0  0  0  0  0  0
   -5.7300   22.1600  -31.4880 C   0  0  0  0  0  0  0  0  0  0  0  0
   -6.3250   20.9100  -31.6840 C   0  0  0  0  0  0  0  0  0  0  0  0
   -7.6970   20.8130  -31.9510 C   0  0  0  0  0  0  0  0  0  0  0  0
   -8.4470   19.2300  -32.1760 S   0  0  0  0  0  0  0  0  0  0  0  0
   -8.9230   18.7120  -30.8470 O   0  0  0  0  0  0  0  0  0  0  0  0
   -9.6450   19.3780  -33.0730 O   0  0  0  0  0  0  0  0  0  0  0  0
   -7.3340   18.0840  -32.8820 N   0  0  0  0  0  0  0  0  0  0  0  0
   -6.4810   18.7460  -33.8810 C   0  0  0  0  0  0  0  0  0  0  0  0
   -5.6810   17.6990  -34.6800 C   0  0  0  0  0  0  0  0  0  0  0  0
   -5.4910   16.3870  -33.9000 C   0  0  0  0  0  0  0  0  0  0  0  0
   -5.3230   16.6550  -32.4020 C   0  0  0  0  0  0  0  0  0  0  0  0
   -6.5170   17.4490  -31.8260 C   0  0  0  0  0  0  0  0  0  0  0  0
   -8.4710   21.9790  -32.0190 C   0  0  0  0  0  0  0  0  0  0  0  0
   -7.8770   23.2290  -31.8250 C   0  0  0  0  0  0  0  0  0  0  0  0
   -3.3600   22.7540  -29.5970 N   0  0  0  0  0  0  0  0  0  0  0  0
   -2.6730   20.8200  -31.5800 C   0  0  0  0  0  0  0  0  0  0  0  0
   -2.3480   19.8690  -32.5630 C   0  0  0  0  0  0  0  0  0  0  0  0
   -3.1920   19.7770  -33.8080 C   0  0  0  0  0  0  0  0  0  0  0  0
   -0.4932   17.0877  -32.8956 H   0  0  0  0  0  0  0  0  0  0  0  0
   -1.7069   17.7654  -34.0333 H   0  0  0  0  0  0  0  0  0  0  0  0
   -0.0252   18.3967  -34.0333 H   0  0  0  0  0  0  0  0  0  0  0  0
    0.3973   18.4877  -31.0403 H   0  0  0  0  0  0  0  0  0  0  0  0
   -0.2010   20.1658  -29.3104 H   0  0  0  0  0  0  0  0  0  0  0  0
   -0.6598   21.4942  -28.0074 H   0  0  0  0  0  0  0  0  0  0  0  0
   -1.3934   23.2043  -26.3357 H   0  0  0  0  0  0  0  0  0  0  0  0
   -5.8440   23.8153  -28.9151 H   0  0  0  0  0  0  0  0  0  0  0  0
   -5.0282   25.3119  -28.3413 H   0  0  0  0  0  0  0  0  0  0  0  0
   -4.6554   22.2266  -31.2628 H   0  0  0  0  0  0  0  0  0  0  0  0
   -5.7127   19.9979  -31.6283 H   0  0  0  0  0  0  0  0  0  0  0  0
   -7.1127   19.3242  -34.5714 H   0  0  0  0  0  0  0  0  0  0  0  0
   -5.7776   19.4150  -33.3636 H   0  0  0  0  0  0  0  0  0  0  0  0
   -6.2195   17.4801  -35.6139 H   0  0  0  0  0  0  0  0  0  0  0  0
   -4.6839   18.1187  -34.8790 H   0  0  0  0  0  0  0  0  0  0  0  0
   -6.3723   15.7469  -34.0537 H   0  0  0  0  0  0  0  0  0  0  0  0
   -4.5823   15.8895  -34.2697 H   0  0  0  0  0  0  0  0  0  0  0  0
   -5.2467   15.6930  -31.8741 H   0  0  0  0  0  0  0  0  0  0  0  0
   -4.4121   17.2553  -32.2611 H   0  0  0  0  0  0  0  0  0  0  0  0
   -7.1548   16.7608  -31.2519 H   0  0  0  0  0  0  0  0  0  0  0  0
   -6.1116   18.2491  -31.1892 H   0  0  0  0  0  0  0  0  0  0  0  0
   -9.5492   21.9103  -32.2257 H   0  0  0  0  0  0  0  0  0  0  0  0
   -8.4941   24.1386  -31.8666 H   0  0  0  0  0  0  0  0  0  0  0  0
   -3.5440   21.4753  -31.7281 H   0  0  0  0  0  0  0  0  0  0  0  0
   -4.2491   19.6618  -33.5266 H   0  0  0  0  0  0  0  0  0  0  0  0
   -3.0688   20.6939  -34.4031 H   0  0  0  0  0  0  0  0  0  0  0  0
   -2.8741   18.9082  -34.4031 H   0  0  0  0  0  0  0  0  0  0  0  0
  1  2  1  0
  2  3  2  0
  3  4  1  0
  4  5  2  0
  5  6  1  0
  6  7  1  0
  7  8  2  0
  8  9  1  0
  9 10  2  0
  9 11  1  0
 11 12  1  0
 12 13  1  0
 13 14  2  0
 13 15  1  0
 15 16  1  0
 16 17  2  0
 17 18  1  0
 18 19  2  0
 19 20  1  0
 20 21  2  0
 20 22  2  0
 20 23  1  0
 23 24  1  0
 24 25  1  0
 25 26  1  0
 26 27  1  0
 27 28  1  0
 19 29  1  0
 29 30  2  0
 11 31  1  0
  5 32  1  0
 32 33  2  0
 33 34  1  0
 33  2  1  0
 31  6  2  0
 30 16  1  0
 28 23  1  0
  1 35  1  0
  1 36  1  0
  1 37  1  0
  3 38  1  0
  4 39  1  0
  7 40  1  0
  8 41  1  0
 12 42  1  0
 12 43  1  0
 17 44  1  0
 18 45  1  0
 24 46  1  0
 24 47  1  0
 25 48  1  0
 25 49  1  0
 26 50  1  0
 26 51  1  0
 27 52  1  0
 27 53  1  0
 28 54  1  0
 28 55  1  0
 29 56  1  0
 30 57  1  0
 32 58  1  0
 34 59  1  0
 34 60  1  0
 34 61  1  0
M  CHG  1  15  -1
M  END
>  <UniqueID>  (22) 
22

>  <SMILES>  (22) 
Cc1ccc(-c2ccc(=O)n(CC(=O)[N-]c3ccc(S(=O)(=O)N4CCCCC4)cc3)n2)cc1C

>  <Energy>  (22) 
73.94046167186572

>  <Genealogy>  (22) 
Cc1ccc(-c2ccc(=O)n(CC(=O)[N-]c3ccc(S(=O)(=O)N4CCCCC4)cc3)n2)cc1C (protonated)
Cc1ccc(-c2ccc(=O)n(CC(=O)[N-]c3ccc(S(=O)(=O)N4CCCCC4)cc3)n2)cc1C (3D coordinates assigned)
Cc1ccc(-c2ccc(=O)n(CC(=O)[N-]c3ccc(S(=O)(=O)N4CCCCC4)cc3)n2)cc1C (nonaromatic ring conformer: 73.94046167186572 kcal/mol)

>  <smiles>  (22) 
Cc1ccc(-c2ccc(=O)n(CC(=O)Nc3ccc(S(=O)(=O)N4CCCCC4)cc3)n2)cc1C

>  <score_type>  (22) 
oracle

>  <origin>  (22) 
adgpu

>  <m_score__min__energy>  (22) 
-12.300000000000001

>  <m_primary>  (22) 
energy

$$$$
22:0
     RDKit          3D

 44 46  0  0  0  0  0  0  0  0999 V2000
   -1.9670   25.3140  -29.1750 O   0  0  0  0  0  0  0  0  0  0  0  0
   -2.7430   24.4650  -29.6870 C   0  0  0  0  0  0  0  0  0  0  0  0
   -2.4520   23.0010  -29.4860 C   0  0  0  0  0  0  0  0  0  0  0  0
   -1.0050   22.4450  -30.4580 S   0  0  0  0  0  0  0  0  0  0  0  0
   -1.9620   21.4840  -31.6350 C   0  0  0  0  0  0  0  0  0  0  0  0
   -1.4780   20.2530  -32.0960 C   0  0  0  0  0  0  0  0  0  0  0  0
   -2.2250   19.5070  -33.0130 C   0  0  0  0  0  0  0  0  0  0  0  0
   -3.4530   19.9910  -33.4750 C   0  0  0  0  0  0  0  0  0  0  0  0
   -3.9330   21.2240  -33.0230 C   0  0  0  0  0  0  0  0  0  0  0  0
   -3.1880   21.9730  -32.1060 C   0  0  0  0  0  0  0  0  0  0  0  0
   -3.9010   24.9310  -30.3950 N   0  0  0  0  0  0  0  0  0  0  0  0
   -5.0640   24.1530  -30.6990 C   0  0  0  0  0  0  0  0  0  0  0  0
   -5.7060   23.3880  -29.7130 C   0  0  0  0  0  0  0  0  0  0  0  0
   -6.8630   22.6700  -30.0260 C   0  0  0  0  0  0  0  0  0  0  0  0
   -7.3840   22.7020  -31.3270 C   0  0  0  0  0  0  0  0  0  0  0  0
   -8.8950   21.8720  -31.6990 S   0  0  0  0  0  0  0  0  0  0  0  0
   -9.8500   22.8440  -32.3350 O   0  0  0  0  0  0  0  0  0  0  0  0
   -9.5180   21.3810  -30.4210 O   0  0  0  0  0  0  0  0  0  0  0  0
   -8.6420   20.5160  -32.7780 N   0  0  0  0  0  0  0  0  0  0  0  0
   -7.2140   20.2950  -33.0270 C   0  0  0  0  0  0  0  0  0  0  0  0
   -6.7330   19.1710  -32.1180 C   0  0  0  0  0  0  0  0  0  0  0  0
   -7.9860   18.5250  -31.5610 C   0  0  0  0  0  0  0  0  0  0  0  0
   -9.1520   19.2720  -32.1920 C   0  0  0  0  0  0  0  0  0  0  0  0
   -6.7080   23.4210  -32.3230 C   0  0  0  0  0  0  0  0  0  0  0  0
   -5.5490   24.1360  -32.0110 C   0  0  0  0  0  0  0  0  0  0  0  0
   -2.2520   22.8227  -28.4191 H   0  0  0  0  0  0  0  0  0  0  0  0
   -3.3286   22.4319  -29.8292 H   0  0  0  0  0  0  0  0  0  0  0  0
   -0.5102   19.8731  -31.7367 H   0  0  0  0  0  0  0  0  0  0  0  0
   -1.8463   18.5384  -33.3713 H   0  0  0  0  0  0  0  0  0  0  0  0
   -4.0412   19.4018  -34.1939 H   0  0  0  0  0  0  0  0  0  0  0  0
   -4.8976   21.6055  -33.3889 H   0  0  0  0  0  0  0  0  0  0  0  0
   -3.5642   22.9452  -31.7548 H   0  0  0  0  0  0  0  0  0  0  0  0
   -5.2977   23.3536  -28.6922 H   0  0  0  0  0  0  0  0  0  0  0  0
   -7.3671   22.0773  -29.2484 H   0  0  0  0  0  0  0  0  0  0  0  0
   -7.0601   20.0130  -34.0790 H   0  0  0  0  0  0  0  0  0  0  0  0
   -6.6484   21.2154  -32.8197 H   0  0  0  0  0  0  0  0  0  0  0  0
   -6.1472   18.4382  -32.6923 H   0  0  0  0  0  0  0  0  0  0  0  0
   -6.0821   19.5495  -31.3161 H   0  0  0  0  0  0  0  0  0  0  0  0
   -8.0212   17.4597  -31.8329 H   0  0  0  0  0  0  0  0  0  0  0  0
   -8.0163   18.5798  -30.4628 H   0  0  0  0  0  0  0  0  0  0  0  0
   -9.6094   18.6518  -32.9769 H   0  0  0  0  0  0  0  0  0  0  0  0
   -9.9132   19.4972  -31.4305 H   0  0  0  0  0  0  0  0  0  0  0  0
   -7.0917   23.4221  -33.3539 H   0  0  0  0  0  0  0  0  0  0  0  0
   -5.0161   24.6874  -32.7996 H   0  0  0  0  0  0  0  0  0  0  0  0
  1  2  2  0
  2  3  1  0
  3  4  1  0
  4  5  1  0
  5  6  2  0
  6  7  1  0
  7  8  2  0
  8  9  1  0
  9 10  2  0
  2 11  1  0
 11 12  1  0
 12 13  2  0
 13 14  1  0
 14 15  2  0
 15 16  1  0
 16 17  2  0
 16 18  2  0
 16 19  1  0
 19 20  1  0
 20 21  1  0
 21 22  1  0
 22 23  1  0
 15 24  1  0
 24 25  2  0
 10  5  1  0
 25 12  1  0
 23 19  1  0
  3 26  1  0
  3 27  1  0
  6 28  1  0
  7 29  1  0
  8 30  1  0
  9 31  1  0
 10 32  1  0
 13 33  1  0
 14 34  1  0
 20 35  1  0
 20 36  1  0
 21 37  1  0
 21 38  1  0
 22 39  1  0
 22 40  1  0
 23 41  1  0
 23 42  1  0
 24 43  1  0
 25 44  1  0
M  CHG  1  11  -1
M  END
>  <UniqueID>  (23) 
23

>  <SMILES>  (23) 
O=C(CSc1ccccc1)[N-]c1ccc(S(=O)(=O)N2CCCC2)cc1

>  <Energy>  (23) 
44.76947326040893

>  <Genealogy>  (23) 
O=C(CSc1ccccc1)[N-]c1ccc(S(=O)(=O)N2CCCC2)cc1 (protonated)
O=C(CSc1ccccc1)[N-]c1ccc(S(=O)(=O)N2CCCC2)cc1 (3D coordinates assigned)
O=C(CSc1ccccc1)[N-]c1ccc(S(=O)(=O)N2CCCC2)cc1 (nonaromatic ring conformer: 44.76947326040893 kcal/mol)

>  <smiles>  (23) 
O=C(CSc1ccccc1)Nc1ccc(S(=O)(=O)N2CCCC2)cc1

>  <score_type>  (23) 
oracle

>  <origin>  (23) 
adgpu

>  <m_score__min__energy>  (23) 
-11.6

>  <m_primary>  (23) 
energy

$$$$
23:0
     RDKit          3D

 35 37  0  0  0  0  0  0  0  0999 V2000
   -5.7031   24.2716  -31.9211 H   0  0  0  0  0  0  0  0  0  0  0  0
   -5.1760   23.3450  -31.6500 C   0  0  0  0  0  0  0  0  0  0  0  0
   -5.3780   22.2900  -32.3860 N   0  0  0  0  0  0  0  0  0  0  0  0
   -4.7180   21.0570  -32.2180 N   0  0  0  0  0  0  0  0  0  0  0  0
   -5.2870   19.8340  -32.2570 C   0  0  0  0  0  0  0  0  0  0  0  0
   -6.7410   19.5450  -32.2160 C   0  0  0  0  0  0  0  0  0  0  0  0
   -7.7020   20.5620  -32.3770 C   0  0  0  0  0  0  0  0  0  0  0  0
   -7.3765   21.5991  -32.5457 H   0  0  0  0  0  0  0  0  0  0  0  0
   -9.0660   20.2630  -32.3240 C   0  0  0  0  0  0  0  0  0  0  0  0
   -9.8085   21.0635  -32.4576 H   0  0  0  0  0  0  0  0  0  0  0  0
   -9.4890   18.9510  -32.1020 C   0  0  0  0  0  0  0  0  0  0  0  0
  -10.5633   18.7175  -32.0658 H   0  0  0  0  0  0  0  0  0  0  0  0
   -8.5470   17.9360  -31.9260 C   0  0  0  0  0  0  0  0  0  0  0  0
   -8.8803   16.9033  -31.7460 H   0  0  0  0  0  0  0  0  0  0  0  0
   -7.1800   18.2290  -31.9780 C   0  0  0  0  0  0  0  0  0  0  0  0
   -6.4432   17.4254  -31.8319 H   0  0  0  0  0  0  0  0  0  0  0  0
   -4.3490   18.8730  -32.4030 N   0  0  0  0  0  0  0  0  0  0  0  0
   -3.1740   19.4780  -32.4980 N   0  0  0  0  0  0  0  0  0  0  0  0
   -3.4050   20.8000  -32.4010 C   0  0  0  0  0  0  0  0  0  0  0  0
   -2.2540   21.9240  -32.7070 S   0  0  0  0  0  0  0  0  0  0  0  0
   -4.2810   23.3750  -30.4710 C   0  0  0  0  0  0  0  0  0  0  0  0
   -4.1260   22.1990  -29.7240 C   0  0  0  0  0  0  0  0  0  0  0  0
   -4.6583   21.2852  -30.0268 H   0  0  0  0  0  0  0  0  0  0  0  0
   -3.3010   22.1800  -28.5990 C   0  0  0  0  0  0  0  0  0  0  0  0
   -3.1979   21.2565  -28.0103 H   0  0  0  0  0  0  0  0  0  0  0  0
   -2.6060   23.3290  -28.2180 C   0  0  0  0  0  0  0  0  0  0  0  0
   -1.9697   23.3121  -27.3208 H   0  0  0  0  0  0  0  0  0  0  0  0
   -2.7160   24.5090  -28.9770 C   0  0  0  0  0  0  0  0  0  0  0  0
   -2.0190   25.6790  -28.6440 O   0  0  0  0  0  0  0  0  0  0  0  0
   -1.2510   25.8490  -27.4560 C   0  0  0  0  0  0  0  0  0  0  0  0
   -1.8976   25.7059  -26.5777 H   0  0  0  0  0  0  0  0  0  0  0  0
   -0.4371   25.1093  -27.4365 H   0  0  0  0  0  0  0  0  0  0  0  0
   -0.8253   26.8631  -27.4365 H   0  0  0  0  0  0  0  0  0  0  0  0
   -3.5420   24.5210  -30.1120 C   0  0  0  0  0  0  0  0  0  0  0  0
   -3.5970   25.6720  -30.8910 O   0  0  0  0  0  0  0  0  0  0  0  0
  1  2  1  0
  2  3  2  0
  3  4  1  0
  4  5  1  0
  5  6  1  0
  6  7  2  0
  7  8  1  0
  7  9  1  0
  9 10  1  0
  9 11  2  0
 11 12  1  0
 11 13  1  0
 13 14  1  0
 13 15  2  0
 15 16  1  0
  5 17  2  0
 17 18  1  0
 18 19  1  0
 19 20  2  0
  2 21  1  0
 21 22  2  0
 22 23  1  0
 22 24  1  0
 24 25  1  0
 24 26  2  0
 26 27  1  0
 26 28  1  0
 28 29  1  0
 29 30  1  0
 30 31  1  0
 30 32  1  0
 30 33  1  0
 28 34  2  0
 34 35  1  0
 19  4  1  0
 34 21  1  0
 15  6  1  0
M  CHG  2  18  -1  35  -1
M  END
>  <UniqueID>  (24) 
24

>  <SMILES>  (24) 
COc1cccc(/C=N\n2c(-c3ccccc3)n[n-]c2=S)c1[O-]

>  <Energy>  (24) 
90.52439795564159

>  <Genealogy>  (24) 
COc1cccc(C=Nn2c(-c3ccccc3)n[n-]c2=S)c1[O-] (protonated)
COc1cccc(/C=N\n2c(-c3ccccc3)n[n-]c2=S)c1[O-] (cis-trans isomerization)
COc1cccc(/C=N\n2c(-c3ccccc3)n[n-]c2=S)c1[O-] (3D coordinates assigned)
COc1cccc(/C=N\n2c(-c3ccccc3)n[n-]c2=S)c1[O-] (optimized conformer: 90.52439795564159 kcal/mol)

>  <smiles>  (24) 
COc1cccc(C=Nn2c(-c3ccccc3)n[nH]c2=S)c1O

>  <score_type>  (24) 
oracle

>  <origin>  (24) 
adgpu

>  <m_score__min__energy>  (24) 
-11.039999999999999

>  <m_primary>  (24) 
energy

$$$$
24:0
     RDKit          3D

 11 11  0  0  0  0  0  0  0  0999 V2000
   -5.9630   22.5050  -32.4930 O   0  0  0  0  0  0  0  0  0  0  0  0
   -5.8290   23.3990  -31.6180 C   0  0  0  0  0  0  0  0  0  0  0  0
   -6.9480   23.9100  -30.9600 C   0  0  0  0  0  0  0  0  0  0  0  0
   -6.7580   24.9010  -29.9980 C   0  0  0  0  0  0  0  0  0  0  0  0
   -5.5040   25.3460  -29.7190 N   0  0  0  0  0  0  0  0  0  0  0  0
   -4.4240   24.8350  -30.3720 C   0  0  0  0  0  0  0  0  0  0  0  0
   -3.1480   25.2990  -30.0790 O   0  0  0  0  0  0  0  0  0  0  0  0
   -4.5920   23.8690  -31.3130 N   0  0  0  0  0  0  0  0  0  0  0  0
   -7.9568   23.5396  -31.1948 H   0  0  0  0  0  0  0  0  0  0  0  0
   -7.6227   25.3229  -29.4647 H   0  0  0  0  0  0  0  0  0  0  0  0
   -5.3700   26.0880  -28.9960 H   0  0  0  0  0  0  0  0  0  0  0  0
  1  2  2  0
  2  3  1  0
  3  4  2  0
  4  5  1  0
  5  6  1  0
  6  7  1  0
  6  8  2  0
  8  2  1  0
  3  9  1  0
  4 10  1  0
  5 11  1  0
M  CHG  1   7  -1
M  END
>  <UniqueID>  (25) 
25

>  <SMILES>  (25) 
O=c1cc[nH]c([O-])n1

>  <Energy>  (25) 
10.241167399001025

>  <Genealogy>  (25) 
O=c1cc[nH]c([O-])n1 (protonated)
O=c1cc[nH]c([O-])n1 (3D coordinates assigned)
O=c1cc[nH]c([O-])n1 (optimized conformer: 10.241167399001025 kcal/mol)

>  <smiles>  (25) 
O=c1cc[nH]c(O)n1

>  <score_type>  (25) 
oracle

>  <origin>  (25) 
adgpu

>  <m_score__min__energy>  (25) 
-7.3700000000000001

>  <m_primary>  (25) 
energy

$$$$
25:0
     RDKit          3D

 43 45  0  0  0  0  0  0  0  0999 V2000
   -3.4500   24.5720  -27.1090 C   0  0  0  0  0  0  0  0  0  0  0  0
   -2.5140   23.7220  -27.9230 C   0  0  0  0  0  0  0  0  0  0  0  0
   -1.7260   22.7460  -27.2870 C   0  0  0  0  0  0  0  0  0  0  0  0
   -0.8520   21.9490  -28.0270 C   0  0  0  0  0  0  0  0  0  0  0  0
   -0.7480   22.1230  -29.4070 C   0  0  0  0  0  0  0  0  0  0  0  0
   -1.5080   23.1030  -30.0510 C   0  0  0  0  0  0  0  0  0  0  0  0
   -2.4000   23.9100  -29.3180 C   0  0  0  0  0  0  0  0  0  0  0  0
   -3.1980   24.9200  -29.9560 N   0  0  0  0  0  0  0  0  0  0  0  0
   -4.8950   24.7950  -30.3040 S   0  0  0  0  0  0  0  0  0  0  0  0
   -5.6720   24.9200  -29.0220 O   0  0  0  0  0  0  0  0  0  0  0  0
   -5.2940   25.9160  -31.2250 O   0  0  0  0  0  0  0  0  0  0  0  0
   -5.2410   23.2280  -31.0280 C   0  0  0  0  0  0  0  0  0  0  0  0
   -6.4840   22.6100  -30.8350 C   0  0  0  0  0  0  0  0  0  0  0  0
   -6.7570   21.3750  -31.4330 C   0  0  0  0  0  0  0  0  0  0  0  0
   -5.7890   20.7470  -32.2370 C   0  0  0  0  0  0  0  0  0  0  0  0
   -6.0430   19.4720  -32.8510 N   0  0  0  0  0  0  0  0  0  0  0  0
   -6.1300   18.2420  -32.1130 C   0  0  0  0  0  0  0  0  0  0  0  0
   -6.3710   18.2730  -30.8750 O   0  0  0  0  0  0  0  0  0  0  0  0
   -5.9960   16.9350  -32.7980 C   0  0  0  0  0  0  0  0  0  0  0  0
   -4.9700   16.0440  -32.4250 C   0  0  0  0  0  0  0  0  0  0  0  0
   -4.8390   14.8080  -33.0660 C   0  0  0  0  0  0  0  0  0  0  0  0
   -5.7180   14.4530  -34.0920 C   0  0  0  0  0  0  0  0  0  0  0  0
   -6.7270   15.3340  -34.4800 C   0  0  0  0  0  0  0  0  0  0  0  0
   -6.8700   16.5690  -33.8380 C   0  0  0  0  0  0  0  0  0  0  0  0
   -4.5370   21.3570  -32.4020 C   0  0  0  0  0  0  0  0  0  0  0  0
   -4.2680   22.5940  -31.8090 C   0  0  0  0  0  0  0  0  0  0  0  0
   -3.2626   24.4018  -26.0385 H   0  0  0  0  0  0  0  0  0  0  0  0
   -3.2822   25.6329  -27.3465 H   0  0  0  0  0  0  0  0  0  0  0  0
   -4.4898   24.3031  -27.3465 H   0  0  0  0  0  0  0  0  0  0  0  0
   -1.7993   22.6100  -26.1979 H   0  0  0  0  0  0  0  0  0  0  0  0
   -0.2448   21.1833  -27.5220 H   0  0  0  0  0  0  0  0  0  0  0  0
   -0.0658   21.4869  -29.9901 H   0  0  0  0  0  0  0  0  0  0  0  0
   -1.4091   23.2451  -31.1373 H   0  0  0  0  0  0  0  0  0  0  0  0
   -7.2476   23.0976  -30.2112 H   0  0  0  0  0  0  0  0  0  0  0  0
   -7.7329   20.8931  -31.2736 H   0  0  0  0  0  0  0  0  0  0  0  0
   -6.3070   19.4590  -33.8620 H   0  0  0  0  0  0  0  0  0  0  0  0
   -4.2681   16.3223  -31.6251 H   0  0  0  0  0  0  0  0  0  0  0  0
   -4.0419   14.1137  -32.7616 H   0  0  0  0  0  0  0  0  0  0  0  0
   -5.6144   13.4794  -34.5934 H   0  0  0  0  0  0  0  0  0  0  0  0
   -7.4131   15.0569  -35.2939 H   0  0  0  0  0  0  0  0  0  0  0  0
   -7.6700   17.2574  -34.1481 H   0  0  0  0  0  0  0  0  0  0  0  0
   -3.7614   20.8587  -33.0021 H   0  0  0  0  0  0  0  0  0  0  0  0
   -3.2878   23.0709  -31.9568 H   0  0  0  0  0  0  0  0  0  0  0  0
  1  2  1  0
  2  3  2  0
  3  4  1  0
  4  5  2  0
  5  6  1  0
  6  7  2  0
  7  8  1  0
  8  9  1  0
  9 10  2  0
  9 11  2  0
  9 12  1  0
 12 13  2  0
 13 14  1  0
 14 15  2  0
 15 16  1  0
 16 17  1  0
 17 18  2  0
 17 19  1  0
 19 20  2  0
 20 21  1  0
 21 22  2  0
 22 23  1  0
 23 24  2  0
 15 25  1  0
 25 26  2  0
  7  2  1  0
 26 12  1  0
 24 19  1  0
  1 27  1  0
  1 28  1  0
  1 29  1  0
  3 30  1  0
  4 31  1  0
  5 32  1  0
  6 33  1  0
 13 34  1  0
 14 35  1  0
 16 36  1  0
 20 37  1  0
 21 38  1  0
 22 39  1  0
 23 40  1  0
 24 41  1  0
 25 42  1  0
 26 43  1  0
M  CHG  1   8  -1
M  END
>  <UniqueID>  (26) 
26

>  <SMILES>  (26) 
Cc1ccccc1[N-]S(=O)(=O)c1ccc(NC(=O)c2ccccc2)cc1

>  <Energy>  (26) 
54.5344654395627

>  <Genealogy>  (26) 
Cc1ccccc1[N-]S(=O)(=O)c1ccc(NC(=O)c2ccccc2)cc1 (protonated)
Cc1ccccc1[N-]S(=O)(=O)c1ccc(NC(=O)c2ccccc2)cc1 (3D coordinates assigned)
Cc1ccccc1[N-]S(=O)(=O)c1ccc(NC(=O)c2ccccc2)cc1 (optimized conformer: 54.5344654395627 kcal/mol)

>  <smiles>  (26) 
Cc1ccccc1NS(=O)(=O)c1ccc(NC(=O)c2ccccc2)cc1

>  <score_type>  (26) 
oracle

>  <origin>  (26) 
adgpu

>  <m_score__min__energy>  (26) 
-9.5199999999999996

>  <m_primary>  (26) 
energy

$$$$
26:0
     RDKit          3D

 59 62  0  0  0  0  0  0  0  0999 V2000
   -8.6430   20.0680  -33.4720 O   0  0  0  0  0  0  0  0  0  0  0  0
   -7.7760   19.5220  -32.3710 S   0  0  0  0  0  0  0  0  0  0  0  0
   -8.6590   18.8260  -31.3690 O   0  0  0  0  0  0  0  0  0  0  0  0
   -6.9350   20.8600  -31.5940 C   0  0  0  0  0  0  0  0  0  0  0  0
   -5.5430   20.9790  -31.6960 C   0  0  0  0  0  0  0  0  0  0  0  0
   -4.8830   22.0440  -31.0770 C   0  0  0  0  0  0  0  0  0  0  0  0
   -5.6030   22.9870  -30.3280 C   0  0  0  0  0  0  0  0  0  0  0  0
   -4.7620   24.3160  -29.5170 S   0  0  0  0  0  0  0  0  0  0  0  0
   -3.8850   25.0240  -30.5110 O   0  0  0  0  0  0  0  0  0  0  0  0
   -5.7950   25.2990  -29.0400 O   0  0  0  0  0  0  0  0  0  0  0  0
   -3.7750   23.8100  -28.1570 N   0  0  0  0  0  0  0  0  0  0  0  0
   -3.8380   24.7260  -27.0030 C   0  0  0  0  0  0  0  0  0  0  0  0
   -2.4720   25.2830  -26.6930 C   0  0  0  0  0  0  0  0  0  0  0  0
   -2.1790   25.7500  -25.3990 C   0  0  0  0  0  0  0  0  0  0  0  0
   -0.9220   26.2910  -25.1120 C   0  0  0  0  0  0  0  0  0  0  0  0
    0.0480   26.3790  -26.1140 C   0  0  0  0  0  0  0  0  0  0  0  0
   -0.2390   25.9310  -27.4080 C   0  0  0  0  0  0  0  0  0  0  0  0
   -1.4970   25.3920  -27.7020 C   0  0  0  0  0  0  0  0  0  0  0  0
   -3.9060   22.3780  -27.8110 C   0  0  0  0  0  0  0  0  0  0  0  0
   -2.6100   21.5930  -27.8650 C   0  0  0  0  0  0  0  0  0  0  0  0
   -1.5210   22.0880  -28.6050 C   0  0  0  0  0  0  0  0  0  0  0  0
   -0.3140   21.3840  -28.6490 C   0  0  0  0  0  0  0  0  0  0  0  0
   -0.1790   20.1820  -27.9510 C   0  0  0  0  0  0  0  0  0  0  0  0
   -1.2400   19.7020  -27.1800 C   0  0  0  0  0  0  0  0  0  0  0  0
   -2.4440   20.4120  -27.1190 C   0  0  0  0  0  0  0  0  0  0  0  0
   -7.0010   22.9020  -30.2890 C   0  0  0  0  0  0  0  0  0  0  0  0
   -7.6640   21.8370  -30.9060 C   0  0  0  0  0  0  0  0  0  0  0  0
   -6.6150   18.4020  -33.0390 N   0  0  0  0  0  0  0  0  0  0  0  0
   -7.2310   17.0700  -33.1930 C   0  0  0  0  0  0  0  0  0  0  0  0
   -6.3670   16.1610  -34.0890 C   0  0  0  0  0  0  0  0  0  0  0  0
   -5.0610   16.6830  -34.2220 O   0  0  0  0  0  0  0  0  0  0  0  0
   -5.1050   17.9100  -34.9290 C   0  0  0  0  0  0  0  0  0  0  0  0
   -6.1350   18.8950  -34.3380 C   0  0  0  0  0  0  0  0  0  0  0  0
   -4.9684   20.2328  -32.2643 H   0  0  0  0  0  0  0  0  0  0  0  0
   -3.7921   22.1436  -31.1776 H   0  0  0  0  0  0  0  0  0  0  0  0
   -4.5221   25.5551  -27.2364 H   0  0  0  0  0  0  0  0  0  0  0  0
   -4.2010   24.1685  -26.1270 H   0  0  0  0  0  0  0  0  0  0  0  0
   -2.9422   25.6893  -24.6092 H   0  0  0  0  0  0  0  0  0  0  0  0
   -0.6964   26.6478  -24.0962 H   0  0  0  0  0  0  0  0  0  0  0  0
    1.0378   26.8008  -25.8853 H   0  0  0  0  0  0  0  0  0  0  0  0
    0.5253   26.0025  -28.1958 H   0  0  0  0  0  0  0  0  0  0  0  0
   -1.7239   25.0530  -28.7236 H   0  0  0  0  0  0  0  0  0  0  0  0
   -4.3072   22.3075  -26.7892 H   0  0  0  0  0  0  0  0  0  0  0  0
   -4.5700   21.9346  -28.5676 H   0  0  0  0  0  0  0  0  0  0  0  0
   -1.6199   23.0364  -29.1534 H   0  0  0  0  0  0  0  0  0  0  0  0
    0.5304   21.7773  -29.2341 H   0  0  0  0  0  0  0  0  0  0  0  0
    0.7614   19.6142  -28.0084 H   0  0  0  0  0  0  0  0  0  0  0  0
   -1.1287   18.7625  -26.6188 H   0  0  0  0  0  0  0  0  0  0  0  0
   -3.2645   20.0451  -26.4848 H   0  0  0  0  0  0  0  0  0  0  0  0
   -7.5810   23.6788  -29.7692 H   0  0  0  0  0  0  0  0  0  0  0  0
   -8.7604   21.7667  -30.8507 H   0  0  0  0  0  0  0  0  0  0  0  0
   -7.3338   16.6046  -32.2016 H   0  0  0  0  0  0  0  0  0  0  0  0
   -8.2166   17.1927  -33.6658 H   0  0  0  0  0  0  0  0  0  0  0  0
   -6.3108   15.1590  -33.6386 H   0  0  0  0  0  0  0  0  0  0  0  0
   -6.8285   16.1072  -35.0861 H   0  0  0  0  0  0  0  0  0  0  0  0
   -4.1091   18.3755  -34.8903 H   0  0  0  0  0  0  0  0  0  0  0  0
   -5.4081   17.6895  -35.9632 H   0  0  0  0  0  0  0  0  0  0  0  0
   -5.6618   19.8786  -34.2019 H   0  0  0  0  0  0  0  0  0  0  0  0
   -6.9873   18.9830  -35.0279 H   0  0  0  0  0  0  0  0  0  0  0  0
  1  2  2  0
  2  3  2  0
  2  4  1  0
  4  5  2  0
  5  6  1  0
  6  7  2  0
  7  8  1  0
  8  9  2  0
  8 10  2  0
  8 11  1  0
 11 12  1  0
 12 13  1  0
 13 14  2  0
 14 15  1  0
 15 16  2  0
 16 17  1  0
 17 18  2  0
 11 19  1  0
 19 20  1  0
 20 21  2  0
 21 22  1  0
 22 23  2  0
 23 24  1  0
 24 25  2  0
  7 26  1  0
 26 27  2  0
  2 28  1  0
 28 29  1  0
 29 30  1  0
 30 31  1  0
 31 32  1  0
 32 33  1  0
 27  4  1  0
 33 28  1  0
 18 13  1  0
 25 20  1  0
  5 34  1  0
  6 35  1  0
 12 36  1  0
 12 37  1  0
 14 38  1  0
 15 39  1  0
 16 40  1  0
 17 41  1  0
 18 42  1  0
 19 43  1  0
 19 44  1  0
 21 45  1  0
 22 46  1  0
 23 47  1  0
 24 48  1  0
 25 49  1  0
 26 50  1  0
 27 51  1  0
 29 52  1  0
 29 53  1  0
 30 54  1  0
 30 55  1  0
 32 56  1  0
 32 57  1  0
 33 58  1  0
 33 59  1  0
M  END
>  <UniqueID>  (27) 
27

>  <SMILES>  (27) 
O=S(=O)(c1ccc(S(=O)(=O)N(Cc2ccccc2)Cc2ccccc2)cc1)N1CCOCC1

>  <Energy>  (27) 
72.1765877149758

>  <Genealogy>  (27) 
O=S(=O)(c1ccc(S(=O)(=O)N(Cc2ccccc2)Cc2ccccc2)cc1)N1CCOCC1 (3D coordinates assigned)
O=S(=O)(c1ccc(S(=O)(=O)N(Cc2ccccc2)Cc2ccccc2)cc1)N1CCOCC1 (nonaromatic ring conformer: 72.1765877149758 kcal/mol)

>  <smiles>  (27) 
O=S(=O)(c1ccc(S(=O)(=O)N(Cc2ccccc2)Cc2ccccc2)cc1)N1CCOCC1

>  <score_type>  (27) 
oracle

>  <origin>  (27) 
adgpu

>  <m_score__min__energy>  (27) 
-11.17

>  <m_primary>  (27) 
energy

$$$$
27:0
     RDKit          3D

 58 61  0  0  0  0  0  0  0  0999 V2000
   -9.1670   18.9730  -32.3780 C   0  0  0  0  0  0  0  0  0  0  0  0
   -7.6810   19.1210  -32.5040 C   0  0  0  0  0  0  0  0  0  0  0  0
   -6.8240   18.2060  -31.8730 C   0  0  0  0  0  0  0  0  0  0  0  0
   -5.4380   18.3290  -32.0100 C   0  0  0  0  0  0  0  0  0  0  0  0
   -4.8950   19.3650  -32.7870 C   0  0  0  0  0  0  0  0  0  0  0  0
   -3.1500   19.5440  -32.9270 S   0  0  0  0  0  0  0  0  0  0  0  0
   -2.4620   18.2550  -32.5710 O   0  0  0  0  0  0  0  0  0  0  0  0
   -2.8120   19.8960  -34.3490 O   0  0  0  0  0  0  0  0  0  0  0  0
   -2.5730   20.8180  -31.8550 C   0  0  0  0  0  0  0  0  0  0  0  0
   -3.4500   21.7800  -31.4550 N   0  0  0  0  0  0  0  0  0  0  0  0
   -3.0870   22.7920  -30.6230 C   0  0  0  0  0  0  0  0  0  0  0  0
   -4.2700   24.0040  -30.1610 S   0  0  0  0  0  0  0  0  0  0  0  0
   -3.9010   25.3220  -30.7840 O   0  0  0  0  0  0  0  0  0  0  0  0
   -4.2760   24.1620  -28.6640 O   0  0  0  0  0  0  0  0  0  0  0  0
   -5.8750   23.4980  -30.6850 C   0  0  0  0  0  0  0  0  0  0  0  0
   -6.3370   23.8140  -31.9730 C   0  0  0  0  0  0  0  0  0  0  0  0
   -7.6010   23.3810  -32.3930 C   0  0  0  0  0  0  0  0  0  0  0  0
   -8.4060   22.6300  -31.5280 C   0  0  0  0  0  0  0  0  0  0  0  0
   -7.9480   22.3100  -30.2460 C   0  0  0  0  0  0  0  0  0  0  0  0
   -6.6850   22.7410  -29.8250 C   0  0  0  0  0  0  0  0  0  0  0  0
   -1.7780   22.8600  -30.1390 C   0  0  0  0  0  0  0  0  0  0  0  0
   -0.8530   21.8940  -30.5340 C   0  0  0  0  0  0  0  0  0  0  0  0
   -1.2400   20.8630  -31.3990 C   0  0  0  0  0  0  0  0  0  0  0  0
   -0.2690   19.8950  -31.8190 N   0  0  0  0  0  0  0  0  0  0  0  0
    0.1480   18.8310  -30.9020 C   0  0  0  0  0  0  0  0  0  0  0  0
    1.6780   18.7730  -30.8740 C   0  0  0  0  0  0  0  0  0  0  0  0
    2.2610   18.5090  -32.2200 N   0  0  0  0  0  0  0  0  0  0  0  0
    3.6120   19.0910  -32.3100 C   0  0  0  0  0  0  0  0  0  0  0  0
    1.4120   18.9600  -33.3590 C   0  0  0  0  0  0  0  0  0  0  0  0
    0.5370   20.1730  -33.0120 C   0  0  0  0  0  0  0  0  0  0  0  0
   -5.7510   20.2590  -33.4470 C   0  0  0  0  0  0  0  0  0  0  0  0
   -7.1370   20.1380  -33.3060 C   0  0  0  0  0  0  0  0  0  0  0  0
   -9.4438   18.9454  -31.3138 H   0  0  0  0  0  0  0  0  0  0  0  0
   -9.6630   19.8262  -32.8639 H   0  0  0  0  0  0  0  0  0  0  0  0
   -9.4849   18.0387  -32.8639 H   0  0  0  0  0  0  0  0  0  0  0  0
   -7.2444   17.3889  -31.2683 H   0  0  0  0  0  0  0  0  0  0  0  0
   -4.7713   17.6125  -31.5079 H   0  0  0  0  0  0  0  0  0  0  0  0
   -5.7046   24.4030  -32.6536 H   0  0  0  0  0  0  0  0  0  0  0  0
   -7.9611   23.6308  -33.4019 H   0  0  0  0  0  0  0  0  0  0  0  0
   -9.3995   22.2914  -31.8571 H   0  0  0  0  0  0  0  0  0  0  0  0
   -8.5811   21.7190  -29.5679 H   0  0  0  0  0  0  0  0  0  0  0  0
   -6.3262   22.4856  -28.8170 H   0  0  0  0  0  0  0  0  0  0  0  0
   -1.4802   23.6671  -29.4535 H   0  0  0  0  0  0  0  0  0  0  0  0
    0.1823   21.9420  -30.1655 H   0  0  0  0  0  0  0  0  0  0  0  0
   -0.2322   19.0438  -29.8920 H   0  0  0  0  0  0  0  0  0  0  0  0
   -0.2558   17.8659  -31.2420 H   0  0  0  0  0  0  0  0  0  0  0  0
    2.0614   19.7360  -30.5056 H   0  0  0  0  0  0  0  0  0  0  0  0
    1.9703   17.9436  -30.2132 H   0  0  0  0  0  0  0  0  0  0  0  0
    2.3700   17.4690  -32.3120 H   0  0  0  0  0  0  0  0  0  0  0  0
    4.0063   19.2609  -31.2972 H   0  0  0  0  0  0  0  0  0  0  0  0
    4.2744   18.3984  -32.8500 H   0  0  0  0  0  0  0  0  0  0  0  0
    3.5637   20.0481  -32.8500 H   0  0  0  0  0  0  0  0  0  0  0  0
    2.0680   19.2301  -34.1997 H   0  0  0  0  0  0  0  0  0  0  0  0
    0.7370   18.1300  -33.6149 H   0  0  0  0  0  0  0  0  0  0  0  0
    1.1824   21.0426  -32.8192 H   0  0  0  0  0  0  0  0  0  0  0  0
   -0.1354   20.3824  -33.8570 H   0  0  0  0  0  0  0  0  0  0  0  0
   -5.3311   21.0571  -34.0769 H   0  0  0  0  0  0  0  0  0  0  0  0
   -7.8040   20.8420  -33.8252 H   0  0  0  0  0  0  0  0  0  0  0  0
  1  2  1  0
  2  3  2  0
  3  4  1  0
  4  5  2  0
  5  6  1  0
  6  7  2  0
  6  8  2  0
  6  9  1  0
  9 10  2  0
 10 11  1  0
 11 12  1  0
 12 13  2  0
 12 14  2  0
 12 15  1  0
 15 16  2  0
 16 17  1  0
 17 18  2  0
 18 19  1  0
 19 20  2  0
 11 21  2  0
 21 22  1  0
 22 23  2  0
 23 24  1  0
 24 25  1  0
 25 26  1  0
 26 27  1  0
 27 28  1  0
 27 29  1  0
 29 30  1  0
  5 31  1  0
 31 32  2  0
 32  2  1  0
 23  9  1  0
 30 24  1  0
 20 15  1  0
  1 33  1  0
  1 34  1  0
  1 35  1  0
  3 36  1  0
  4 37  1  0
 16 38  1  0
 17 39  1  0
 18 40  1  0
 19 41  1  0
 20 42  1  0
 21 43  1  0
 22 44  1  0
 25 45  1  0
 25 46  1  0
 26 47  1  0
 26 48  1  0
 27 49  1  0
 28 50  1  0
 28 51  1  0
 28 52  1  0
 29 53  1  0
 29 54  1  0
 30 55  1  0
 30 56  1  0
 31 57  1  0
 32 58  1  0
M  CHG  1  27   1
M  END
>  <UniqueID>  (28) 
28

>  <SMILES>  (28) 
Cc1ccc(S(=O)(=O)c2nc(S(=O)(=O)c3ccccc3)ccc2N2CC[NH+](C)CC2)cc1

>  <Energy>  (28) 
75.84623160898575

>  <Genealogy>  (28) 
Cc1ccc(S(=O)(=O)c2nc(S(=O)(=O)c3ccccc3)ccc2N2CC[NH+](C)CC2)cc1 (protonated)
Cc1ccc(S(=O)(=O)c2nc(S(=O)(=O)c3ccccc3)ccc2N2CC[NH+](C)CC2)cc1 (3D coordinates assigned)
Cc1ccc(S(=O)(=O)c2nc(S(=O)(=O)c3ccccc3)ccc2N2CC[NH+](C)CC2)cc1 (nonaromatic ring conformer: 75.84623160898575 kcal/mol)

>  <smiles>  (28) 
Cc1ccc(S(=O)(=O)c2nc(S(=O)(=O)c3ccccc3)ccc2N2CCN(C)CC2)cc1

>  <score_type>  (28) 
oracle

>  <origin>  (28) 
adgpu

>  <m_score__min__energy>  (28) 
-9.9000000000000004

>  <m_primary>  (28) 
energy

$$$$
28:0
     RDKit          3D

 20 20  0  0  0  0  0  0  0  0999 V2000
   -8.5850   22.1720  -31.6230 C   0  0  0  0  0  0  0  0  0  0  0  0
   -7.6340   23.0940  -31.4550 C   0  0  0  0  0  0  0  0  0  0  0  0
   -6.4090   23.1280  -32.3260 C   0  0  0  0  0  0  0  0  0  0  0  0
   -5.2510   23.6020  -31.5730 N   0  0  0  0  0  0  0  0  0  0  0  0
   -4.7520   22.9550  -30.5650 C   0  0  0  0  0  0  0  0  0  0  0  0
   -3.5690   23.4620  -29.8230 C   0  0  0  0  0  0  0  0  0  0  0  0
   -3.1740   24.8040  -29.9720 C   0  0  0  0  0  0  0  0  0  0  0  0
   -3.8770   25.6660  -30.8080 O   0  0  0  0  0  0  0  0  0  0  0  0
   -2.0950   25.2770  -29.2980 N   0  0  0  0  0  0  0  0  0  0  0  0
   -1.3770   24.4780  -28.4710 C   0  0  0  0  0  0  0  0  0  0  0  0
   -0.0840   25.0780  -27.6760 S   0  0  0  0  0  0  0  0  0  0  0  0
   -1.7320   23.1800  -28.3060 N   0  0  0  0  0  0  0  0  0  0  0  0
   -2.8020   22.6530  -28.9550 C   0  0  0  0  0  0  0  0  0  0  0  0
   -3.0910   21.4420  -28.7660 O   0  0  0  0  0  0  0  0  0  0  0  0
   -9.4710   22.1706  -30.9711 H   0  0  0  0  0  0  0  0  0  0  0  0
   -8.4825   21.4138  -32.4133 H   0  0  0  0  0  0  0  0  0  0  0  0
   -7.7495   23.8463  -30.6608 H   0  0  0  0  0  0  0  0  0  0  0  0
   -6.2050   22.1143  -32.7013 H   0  0  0  0  0  0  0  0  0  0  0  0
   -6.5910   23.8169  -33.1641 H   0  0  0  0  0  0  0  0  0  0  0  0
   -5.2162   22.0081  -30.2523 H   0  0  0  0  0  0  0  0  0  0  0  0
  1  2  2  0
  2  3  1  0
  3  4  1  0
  4  5  2  3
  5  6  1  0
  6  7  2  0
  7  8  1  0
  7  9  1  0
  9 10  1  0
 10 11  2  0
 10 12  1  0
 12 13  1  0
 13 14  2  0
 13  6  1  0
  1 15  1  0
  1 16  1  0
  2 17  1  0
  3 18  1  0
  3 19  1  0
  5 20  1  0
M  CHG  3   8  -1   9  -1  12  -1
M  END
>  <UniqueID>  (29) 
29

>  <SMILES>  (29) 
C=CCN=Cc1c([O-])[n-]c(=S)[n-]c1=O

>  <Energy>  (29) 
17.35554793579552

>  <Genealogy>  (29) 
C=CCN=Cc1c([O-])[n-]c(=S)[n-]c1=O (protonated)
C=CCN=Cc1c([O-])[n-]c(=S)[n-]c1=O (3D coordinates assigned)
C=CCN=Cc1c([O-])[n-]c(=S)[n-]c1=O (optimized conformer: 17.35554793579552 kcal/mol)

>  <smiles>  (29) 
C=CCN=Cc1c(O)[nH]c(=S)[nH]c1=O

>  <score_type>  (29) 
oracle

>  <origin>  (29) 
adgpu

>  <m_score__min__energy>  (29) 
-10.380000000000001

>  <m_primary>  (29) 
energy

$$$$
29:0
     RDKit          3D

 43 45  0  0  0  0  0  0  0  0999 V2000
   -6.4830   26.0280  -28.9960 C   0  0  0  0  0  0  0  0  0  0  0  0
   -6.1660   25.7950  -30.3640 O   0  0  0  0  0  0  0  0  0  0  0  0
   -5.8940   24.5330  -30.9150 C   0  0  0  0  0  0  0  0  0  0  0  0
   -6.9150   23.6990  -31.4090 C   0  0  0  0  0  0  0  0  0  0  0  0
   -6.6080   22.4460  -31.9440 C   0  0  0  0  0  0  0  0  0  0  0  0
   -5.2830   21.9880  -31.9690 C   0  0  0  0  0  0  0  0  0  0  0  0
   -4.9790   20.6560  -32.5390 C   0  0  0  0  0  0  0  0  0  0  0  0
   -5.8890   19.6540  -32.3930 N   0  0  0  0  0  0  0  0  0  0  0  0
   -5.6900   18.4260  -32.8820 N   0  0  0  0  0  0  0  0  0  0  0  0
   -6.7280   17.4140  -32.6810 C   0  0  0  0  0  0  0  0  0  0  0  0
   -4.5400   18.1250  -33.5590 C   0  0  0  0  0  0  0  0  0  0  0  0
   -4.3480   16.9700  -34.0270 O   0  0  0  0  0  0  0  0  0  0  0  0
   -3.5630   19.1060  -33.7270 C   0  0  0  0  0  0  0  0  0  0  0  0
   -3.7740   20.3800  -33.2060 C   0  0  0  0  0  0  0  0  0  0  0  0
   -2.7780   21.3420  -33.3320 O   0  0  0  0  0  0  0  0  0  0  0  0
   -4.2620   22.8260  -31.4910 C   0  0  0  0  0  0  0  0  0  0  0  0
   -4.5590   24.1030  -30.9810 C   0  0  0  0  0  0  0  0  0  0  0  0
   -3.5280   24.9610  -30.4700 N   0  0  0  0  0  0  0  0  0  0  0  0
   -2.8350   24.7990  -29.2280 C   0  0  0  0  0  0  0  0  0  0  0  0
   -1.9360   25.6230  -28.9150 O   0  0  0  0  0  0  0  0  0  0  0  0
   -3.1370   23.6970  -28.3620 N   0  0  0  0  0  0  0  0  0  0  0  0
   -2.4800   22.4270  -28.4120 C   0  0  0  0  0  0  0  0  0  0  0  0
   -2.8930   21.4270  -27.5230 C   0  0  0  0  0  0  0  0  0  0  0  0
   -2.2550   20.1820  -27.5100 C   0  0  0  0  0  0  0  0  0  0  0  0
   -2.7660   18.9460  -26.3740 Cl  0  0  0  0  0  0  0  0  0  0  0  0
   -1.2070   19.9260  -28.3970 C   0  0  0  0  0  0  0  0  0  0  0  0
   -0.8090   20.9050  -29.3110 C   0  0  0  0  0  0  0  0  0  0  0  0
   -1.4530   22.1480  -29.3440 C   0  0  0  0  0  0  0  0  0  0  0  0
   -1.0780   23.0640  -30.3270 O   0  0  0  0  0  0  0  0  0  0  0  0
   -5.7616   25.4977  -28.3570 H   0  0  0  0  0  0  0  0  0  0  0  0
   -6.4343   27.1068  -28.7869 H   0  0  0  0  0  0  0  0  0  0  0  0
   -7.4981   25.6595  -28.7869 H   0  0  0  0  0  0  0  0  0  0  0  0
   -7.9614   24.0365  -31.3734 H   0  0  0  0  0  0  0  0  0  0  0  0
   -7.4118   21.8136  -32.3489 H   0  0  0  0  0  0  0  0  0  0  0  0
   -6.8861   17.2599  -31.6034 H   0  0  0  0  0  0  0  0  0  0  0  0
   -7.6660   17.7538  -33.1443 H   0  0  0  0  0  0  0  0  0  0  0  0
   -6.4121   16.4677  -33.1443 H   0  0  0  0  0  0  0  0  0  0  0  0
   -2.6329   18.8751  -34.2669 H   0  0  0  0  0  0  0  0  0  0  0  0
   -3.2182   22.4797  -31.5157 H   0  0  0  0  0  0  0  0  0  0  0  0
   -3.7248   21.6217  -26.8301 H   0  0  0  0  0  0  0  0  0  0  0  0
   -0.6945   18.9529  -28.3760 H   0  0  0  0  0  0  0  0  0  0  0  0
    0.0155   20.6980  -30.0091 H   0  0  0  0  0  0  0  0  0  0  0  0
   -1.4980   23.9810  -30.4110 H   0  0  0  0  0  0  0  0  0  0  0  0
  1  2  1  0
  2  3  1  0
  3  4  2  0
  4  5  1  0
  5  6  2  0
  6  7  1  0
  7  8  2  0
  8  9  1  0
  9 10  1  0
  9 11  1  0
 11 12  2  0
 11 13  1  0
 13 14  2  0
 14 15  1  0
  6 16  1  0
 16 17  2  0
 17 18  1  0
 18 19  1  0
 19 20  2  0
 19 21  1  0
 21 22  1  0
 22 23  2  0
 23 24  1  0
 24 25  1  0
 24 26  2  0
 26 27  1  0
 27 28  2  0
 28 29  1  0
 17  3  1  0
 28 22  1  0
 14  7  1  0
  1 30  1  0
  1 31  1  0
  1 32  1  0
  4 33  1  0
  5 34  1  0
 10 35  1  0
 10 36  1  0
 10 37  1  0
 13 38  1  0
 16 39  1  0
 23 40  1  0
 26 41  1  0
 27 42  1  0
 29 43  1  0
M  CHG  3  15  -1  18  -1  21  -1
M  END
>  <UniqueID>  (30) 
30

>  <SMILES>  (30) 
COc1ccc(-c2nn(C)c(=O)cc2[O-])cc1[N-]C(=O)[N-]c1cc(Cl)ccc1O

>  <Energy>  (30) 
62.19971155455587

>  <Genealogy>  (30) 
COc1ccc(-c2nn(C)c(=O)cc2[O-])cc1[N-]C(=O)[N-]c1cc(Cl)ccc1O (protonated)
COc1ccc(-c2nn(C)c(=O)cc2[O-])cc1[N-]C(=O)[N-]c1cc(Cl)ccc1O (3D coordinates assigned)
COc1ccc(-c2nn(C)c(=O)cc2[O-])cc1[N-]C(=O)[N-]c1cc(Cl)ccc1O (optimized conformer: 62.19971155455587 kcal/mol)

>  <smiles>  (30) 
COc1ccc(-c2nn(C)c(=O)cc2O)cc1NC(=O)Nc1cc(Cl)ccc1O

>  <score_type>  (30) 
oracle

>  <origin>  (30) 
adgpu

>  <m_score__min__energy>  (30) 
-11.59

>  <m_primary>  (30) 
energy

$$$$
30:0
     RDKit          3D

 38 40  0  0  1  0  0  0  0  0999 V2000
   -7.1810   22.3890  -32.3110 C   0  0  0  0  0  0  0  0  0  0  0  0
   -5.9750   22.8420  -31.5740 C   0  0  0  0  0  0  0  0  0  0  0  0
   -5.0760   21.9130  -31.1090 C   0  0  0  0  0  0  0  0  0  0  0  0
   -3.9260   22.2930  -30.4110 C   0  0  0  0  0  0  0  0  0  0  0  0
   -3.6380   23.6300  -30.1550 C   0  0  0  0  0  0  0  0  0  0  0  0
   -2.4330   23.9840  -29.4260 C   0  0  0  0  0  0  0  0  0  0  0  0
   -1.5440   22.9810  -29.0390 C   0  0  0  0  0  0  0  0  0  0  0  0
   -0.3730   23.2940  -28.3340 C   0  0  0  0  0  0  0  0  0  0  0  0
    0.4570   22.3800  -27.9700 N   0  0  0  0  0  0  0  0  0  0  0  0
    0.1450   21.0340  -28.3080 C   0  0  0  0  0  0  0  0  0  0  0  0
    0.6000   20.4410  -29.4530 C   0  0  0  0  0  0  0  0  0  0  0  0
    0.2470   19.1300  -29.7030 C   0  0  0  0  0  0  0  0  0  0  0  0
   -0.5280   18.4180  -28.8580 N   0  0  0  0  0  0  0  0  0  0  0  0
   -0.9850   18.9840  -27.7270 C   0  0  0  0  0  0  0  0  0  0  0  0
   -0.6530   20.3020  -27.4400 C   0  0  0  0  0  0  0  0  0  0  0  0
   -1.2520   21.0450  -25.9550 Cl  0  0  0  0  0  0  0  0  0  0  0  0
   -0.0750   24.5640  -28.0140 N   0  0  0  0  0  0  0  0  0  0  0  0
   -0.9410   25.5180  -28.3940 C   0  0  0  0  0  0  0  0  0  0  0  0
   -0.6020   26.9190  -28.0330 C   0  0  0  0  0  0  0  0  0  0  0  0
   -2.0790   25.2280  -29.0760 N   0  0  0  0  0  0  0  0  0  0  0  0
   -4.5530   24.5410  -30.6300 C   0  0  0  0  0  0  0  0  0  0  0  0
   -4.4120   25.9070  -30.4580 O   0  0  0  0  0  0  0  0  0  0  0  0
   -5.7050   24.1580  -31.3310 C   0  0  0  0  0  0  0  0  0  0  0  0
   -7.9610   22.0960  -31.5929 H   0  0  0  0  0  0  0  0  0  0  0  0
   -7.5537   23.2084  -32.9432 H   0  0  0  0  0  0  0  0  0  0  0  0
   -6.9221   21.5268  -32.9432 H   0  0  0  0  0  0  0  0  0  0  0  0
   -5.2656   20.8447  -31.2903 H   0  0  0  0  0  0  0  0  0  0  0  0
   -3.2324   21.5167  -30.0557 H   0  0  0  0  0  0  0  0  0  0  0  0
   -1.7641   21.9328  -29.2897 H   0  0  0  0  0  0  0  0  0  0  0  0
    1.2338   20.9967  -30.1598 H   0  0  0  0  0  0  0  0  0  0  0  0
    0.6101   18.6488  -30.6231 H   0  0  0  0  0  0  0  0  0  0  0  0
   -1.6166   18.4080  -27.0347 H   0  0  0  0  0  0  0  0  0  0  0  0
   -0.5776   27.0198  -26.9379 H   0  0  0  0  0  0  0  0  0  0  0  0
    0.3842   27.1759  -28.4469 H   0  0  0  0  0  0  0  0  0  0  0  0
   -1.3617   27.5984  -28.4469 H   0  0  0  0  0  0  0  0  0  0  0  0
   -2.6620   26.0480  -29.3100 H   0  0  0  0  0  0  0  0  0  0  0  0
   -4.9650   26.4650  -29.8170 H   0  0  0  0  0  0  0  0  0  0  0  0
   -6.4019   24.9294  -31.6907 H   0  0  0  0  0  0  0  0  0  0  0  0
  1  2  1  0
  2  3  2  0
  3  4  1  0
  4  5  2  0
  5  6  1  0
  6  7  2  0
  7  8  1  0
  8  9  2  0
  9 10  1  0
 10 11  2  0
 11 12  1  0
 12 13  2  0
 13 14  1  0
 14 15  2  0
 15 16  1  0
  8 17  1  0
 17 18  2  0
 18 19  1  0
 18 20  1  0
  5 21  1  0
 21 22  1  0
 21 23  2  0
 23  2  1  0
 20  6  1  0
 15 10  1  0
  1 24  1  0
  1 25  1  0
  1 26  1  0
  3 27  1  0
  4 28  1  0
  7 29  1  0
 11 30  1  0
 12 31  1  0
 14 32  1  0
 19 33  1  0
 19 34  1  0
 19 35  1  0
 20 36  1  0
 22 37  1  0
 23 38  1  0
M  END
>  <smiles>  (31) 
Cc1ccc(-c2cc(=Nc3ccncc3Cl)nc(C)[nH]2)c(O)c1

>  <score_type>  (31) 
oracle

>  <origin>  (31) 
adgpu

>  <m_score__min__energy>  (31) 
-8.3300000000000001

>  <m_primary>  (31) 
energy

$$$$
31:0
     RDKit          3D

 43 45  0  0  0  0  0  0  0  0999 V2000
   -1.1360   26.7730  -23.7360 C   0  0  0  0  0  0  0  0  0  0  0  0
   -0.7880   25.9390  -24.9330 C   0  0  0  0  0  0  0  0  0  0  0  0
    0.0900   24.8540  -24.8040 C   0  0  0  0  0  0  0  0  0  0  0  0
    0.4020   24.0670  -25.9160 C   0  0  0  0  0  0  0  0  0  0  0  0
   -0.1770   24.3430  -27.1570 C   0  0  0  0  0  0  0  0  0  0  0  0
    0.1380   23.5700  -28.2280 F   0  0  0  0  0  0  0  0  0  0  0  0
   -1.0920   25.3970  -27.2930 C   0  0  0  0  0  0  0  0  0  0  0  0
   -1.6580   25.6580  -28.5860 N   0  0  0  0  0  0  0  0  0  0  0  0
   -2.4930   24.7720  -29.3420 C   0  0  0  0  0  0  0  0  0  0  0  0
   -2.1030   23.6040  -29.6130 O   0  0  0  0  0  0  0  0  0  0  0  0
   -3.7360   25.2620  -29.8640 N   0  0  0  0  0  0  0  0  0  0  0  0
   -4.7420   24.4320  -30.4720 C   0  0  0  0  0  0  0  0  0  0  0  0
   -6.0940   24.7790  -30.3350 C   0  0  0  0  0  0  0  0  0  0  0  0
   -7.0910   23.9790  -30.8980 C   0  0  0  0  0  0  0  0  0  0  0  0
   -6.7550   22.8190  -31.6050 C   0  0  0  0  0  0  0  0  0  0  0  0
   -7.7870   22.0360  -32.1460 O   0  0  0  0  0  0  0  0  0  0  0  0
   -7.7780   20.6370  -32.2440 C   0  0  0  0  0  0  0  0  0  0  0  0
   -8.7300   19.9070  -31.5230 C   0  0  0  0  0  0  0  0  0  0  0  0
   -8.7610   18.5130  -31.6030 C   0  0  0  0  0  0  0  0  0  0  0  0
   -7.8490   17.8360  -32.4150 C   0  0  0  0  0  0  0  0  0  0  0  0
   -6.9000   18.5540  -33.1640 C   0  0  0  0  0  0  0  0  0  0  0  0
   -5.9370   17.8600  -34.0390 C   0  0  0  0  0  0  0  0  0  0  0  0
   -5.7440   18.2400  -35.2250 O   0  0  0  0  0  0  0  0  0  0  0  0
   -6.8740   19.9550  -33.0790 C   0  0  0  0  0  0  0  0  0  0  0  0
   -5.4040   22.4440  -31.7070 C   0  0  0  0  0  0  0  0  0  0  0  0
   -4.4060   23.2440  -31.1440 C   0  0  0  0  0  0  0  0  0  0  0  0
   -1.3840   26.2030  -26.1770 C   0  0  0  0  0  0  0  0  0  0  0  0
   -0.9023   26.2130  -22.8185 H   0  0  0  0  0  0  0  0  0  0  0  0
   -0.5516   27.7047  -23.7558 H   0  0  0  0  0  0  0  0  0  0  0  0
   -2.2093   27.0130  -23.7558 H   0  0  0  0  0  0  0  0  0  0  0  0
    0.5346   24.6214  -23.8251 H   0  0  0  0  0  0  0  0  0  0  0  0
    1.1056   23.2277  -25.8137 H   0  0  0  0  0  0  0  0  0  0  0  0
   -3.8810   26.2970  -29.8680 H   0  0  0  0  0  0  0  0  0  0  0  0
   -6.3712   25.6876  -29.7803 H   0  0  0  0  0  0  0  0  0  0  0  0
   -8.1477   24.2628  -30.7848 H   0  0  0  0  0  0  0  0  0  0  0  0
   -9.4583   20.4345  -30.8894 H   0  0  0  0  0  0  0  0  0  0  0  0
   -9.5060   17.9469  -31.0247 H   0  0  0  0  0  0  0  0  0  0  0  0
   -7.8730   16.7376  -32.4689 H   0  0  0  0  0  0  0  0  0  0  0  0
   -5.3778   16.9963  -33.6500 H   0  0  0  0  0  0  0  0  0  0  0  0
   -6.1411   20.5240  -33.6698 H   0  0  0  0  0  0  0  0  0  0  0  0
   -5.1312   21.5168  -32.2323 H   0  0  0  0  0  0  0  0  0  0  0  0
   -3.3515   22.9423  -31.2272 H   0  0  0  0  0  0  0  0  0  0  0  0
   -2.0838   27.0455  -26.2797 H   0  0  0  0  0  0  0  0  0  0  0  0
  1  2  1  0
  2  3  2  0
  3  4  1  0
  4  5  2  0
  5  6  1  0
  5  7  1  0
  7  8  1  0
  8  9  1  0
  9 10  2  0
  9 11  1  0
 11 12  1  0
 12 13  2  0
 13 14  1  0
 14 15  2  0
 15 16  1  0
 16 17  1  0
 17 18  2  0
 18 19  1  0
 19 20  2  0
 20 21  1  0
 21 22  1  0
 22 23  2  0
 21 24  2  0
 15 25  1  0
 25 26  2  0
  7 27  2  0
 27  2  1  0
 26 12  1  0
 24 17  1  0
  1 28  1  0
  1 29  1  0
  1 30  1  0
  3 31  1  0
  4 32  1  0
 11 33  1  0
 13 34  1  0
 14 35  1  0
 18 36  1  0
 19 37  1  0
 20 38  1  0
 22 39  1  0
 24 40  1  0
 25 41  1  0
 26 42  1  0
 27 43  1  0
M  CHG  1   8  -1
M  END
>  <UniqueID>  (32) 
31

>  <SMILES>  (32) 
Cc1ccc(F)c([N-]C(=O)Nc2ccc(Oc3cccc(C=O)c3)cc2)c1

>  <Energy>  (32) 
57.97989836714488

>  <Genealogy>  (32) 
Cc1ccc(F)c([N-]C(=O)Nc2ccc(Oc3cccc(C=O)c3)cc2)c1 (protonated)
Cc1ccc(F)c([N-]C(=O)Nc2ccc(Oc3cccc(C=O)c3)cc2)c1 (3D coordinates assigned)
Cc1ccc(F)c([N-]C(=O)Nc2ccc(Oc3cccc(C=O)c3)cc2)c1 (optimized conformer: 57.97989836714488 kcal/mol)

>  <smiles>  (32) 
Cc1ccc(F)c(NC(=O)Nc2ccc(Oc3cccc(C=O)c3)cc2)c1

>  <score_type>  (32) 
oracle

>  <origin>  (32) 
adgpu

>  <m_score__min__energy>  (32) 
-10.77

>  <m_primary>  (32) 
energy

$$$$
32:0
     RDKit          3D

 61 64  0  0  0  0  0  0  0  0999 V2000
   -4.3350   24.5420  -28.3390 C   0  0  0  0  0  0  0  0  0  0  0  0
   -3.8650   23.6170  -29.5050 C   0  0  0  0  0  0  0  0  0  0  0  0
   -4.5780   23.9550  -30.7930 N   0  0  0  0  0  0  0  0  0  0  0  0
   -4.4500   23.0490  -31.9650 C   0  0  0  0  0  0  0  0  0  0  0  0
   -5.6990   22.1670  -32.1980 C   0  0  0  0  0  0  0  0  0  0  0  0
   -7.0070   22.9750  -32.1390 C   0  0  0  0  0  0  0  0  0  0  0  0
   -8.2630   22.0910  -32.3200 C   0  0  0  0  0  0  0  0  0  0  0  0
   -7.9760   20.6060  -32.3640 C   0  0  0  0  0  0  0  0  0  0  0  0
   -8.4820   19.7550  -31.3670 C   0  0  0  0  0  0  0  0  0  0  0  0
   -8.2290   18.3800  -31.4190 C   0  0  0  0  0  0  0  0  0  0  0  0
   -7.4660   17.8470  -32.4610 C   0  0  0  0  0  0  0  0  0  0  0  0
   -6.9510   18.6880  -33.4500 C   0  0  0  0  0  0  0  0  0  0  0  0
   -7.2010   20.0620  -33.4020 C   0  0  0  0  0  0  0  0  0  0  0  0
   -7.0520   23.8100  -30.8510 C   0  0  0  0  0  0  0  0  0  0  0  0
   -5.8400   24.7340  -30.8090 C   0  0  0  0  0  0  0  0  0  0  0  0
   -4.0860   22.1270  -29.0750 C   0  0  0  0  0  0  0  0  0  0  0  0
   -2.9020   21.5150  -28.2990 C   0  0  0  0  0  0  0  0  0  0  0  0
   -2.1560   22.5550  -27.5700 N   0  0  0  0  0  0  0  0  0  0  0  0
   -1.1970   21.9650  -26.6160 C   0  0  0  0  0  0  0  0  0  0  0  0
   -0.7190   20.6270  -27.1170 C   0  0  0  0  0  0  0  0  0  0  0  0
    0.3800   20.5590  -27.9900 C   0  0  0  0  0  0  0  0  0  0  0  0
    0.8410   19.3190  -28.4450 C   0  0  0  0  0  0  0  0  0  0  0  0
    0.2100   18.1420  -28.0310 C   0  0  0  0  0  0  0  0  0  0  0  0
   -0.8830   18.2030  -27.1620 C   0  0  0  0  0  0  0  0  0  0  0  0
   -1.3470   19.4400  -26.7050 C   0  0  0  0  0  0  0  0  0  0  0  0
   -1.4610   23.4610  -28.5110 C   0  0  0  0  0  0  0  0  0  0  0  0
   -2.3440   23.8700  -29.7170 C   0  0  0  0  0  0  0  0  0  0  0  0
   -4.0945   24.0686  -27.3757 H   0  0  0  0  0  0  0  0  0  0  0  0
   -3.8202   25.5115  -28.4098 H   0  0  0  0  0  0  0  0  0  0  0  0
   -5.4216   24.6978  -28.4098 H   0  0  0  0  0  0  0  0  0  0  0  0
   -4.2833   23.6619  -32.8631 H   0  0  0  0  0  0  0  0  0  0  0  0
   -3.6072   22.3719  -31.7619 H   0  0  0  0  0  0  0  0  0  0  0  0
   -5.6191   21.6961  -33.1889 H   0  0  0  0  0  0  0  0  0  0  0  0
   -5.7329   21.4150  -31.3959 H   0  0  0  0  0  0  0  0  0  0  0  0
   -7.0179   23.6670  -32.9940 H   0  0  0  0  0  0  0  0  0  0  0  0
   -8.9456   22.2855  -31.4797 H   0  0  0  0  0  0  0  0  0  0  0  0
   -8.6990   22.3574  -33.2942 H   0  0  0  0  0  0  0  0  0  0  0  0
   -9.0793   20.1714  -30.5425 H   0  0  0  0  0  0  0  0  0  0  0  0
   -8.6314   17.7176  -30.6384 H   0  0  0  0  0  0  0  0  0  0  0  0
   -7.2709   16.7652  -32.5024 H   0  0  0  0  0  0  0  0  0  0  0  0
   -6.3475   18.2680  -34.2682 H   0  0  0  0  0  0  0  0  0  0  0  0
   -6.7891   20.7208  -34.1806 H   0  0  0  0  0  0  0  0  0  0  0  0
   -7.9733   24.4108  -30.8342 H   0  0  0  0  0  0  0  0  0  0  0  0
   -7.0374   23.1420  -29.9772 H   0  0  0  0  0  0  0  0  0  0  0  0
   -5.8512   25.3825  -31.6974 H   0  0  0  0  0  0  0  0  0  0  0  0
   -5.8910   25.3374  -29.8907 H   0  0  0  0  0  0  0  0  0  0  0  0
   -4.9796   22.0807  -28.4352 H   0  0  0  0  0  0  0  0  0  0  0  0
   -4.1961   21.5421  -30.0001 H   0  0  0  0  0  0  0  0  0  0  0  0
   -3.2862   20.7767  -27.5798 H   0  0  0  0  0  0  0  0  0  0  0  0
   -2.2222   21.0343  -29.0179 H   0  0  0  0  0  0  0  0  0  0  0  0
   -0.3354   22.6395  -26.5033 H   0  0  0  0  0  0  0  0  0  0  0  0
   -1.6960   21.8268  -25.6455 H   0  0  0  0  0  0  0  0  0  0  0  0
    0.8792   21.4832  -28.3165 H   0  0  0  0  0  0  0  0  0  0  0  0
    1.7009   19.2699  -29.1292 H   0  0  0  0  0  0  0  0  0  0  0  0
    0.5739   17.1677  -28.3893 H   0  0  0  0  0  0  0  0  0  0  0  0
   -1.3788   17.2763  -26.8372 H   0  0  0  0  0  0  0  0  0  0  0  0
   -2.2069   19.4840  -26.0204 H   0  0  0  0  0  0  0  0  0  0  0  0
   -1.1648   24.3708  -27.9683 H   0  0  0  0  0  0  0  0  0  0  0  0
   -0.5898   22.9195  -28.9082 H   0  0  0  0  0  0  0  0  0  0  0  0
   -2.1953   24.9434  -29.9059 H   0  0  0  0  0  0  0  0  0  0  0  0
   -2.0331   23.2426  -30.5653 H   0  0  0  0  0  0  0  0  0  0  0  0
  1  2  1  0
  2  3  1  0
  3  4  1  0
  4  5  1  0
  5  6  1  0
  6  7  1  0
  7  8  1  0
  8  9  2  0
  9 10  1  0
 10 11  2  0
 11 12  1  0
 12 13  2  0
  6 14  1  0
 14 15  1  0
  2 16  1  0
 16 17  1  0
 17 18  1  0
 18 19  1  0
 19 20  1  0
 20 21  2  0
 21 22  1  0
 22 23  2  0
 23 24  1  0
 24 25  2  0
 18 26  1  0
 26 27  1  0
 27  2  1  0
 15  3  1  0
 25 20  1  0
 13  8  1  0
  1 28  1  0
  1 29  1  0
  1 30  1  0
  4 31  1  0
  4 32  1  0
  5 33  1  0
  5 34  1  0
  6 35  1  0
  7 36  1  0
  7 37  1  0
  9 38  1  0
 10 39  1  0
 11 40  1  0
 12 41  1  0
 13 42  1  0
 14 43  1  0
 14 44  1  0
 15 45  1  0
 15 46  1  0
 16 47  1  0
 16 48  1  0
 17 49  1  0
 17 50  1  0
 19 51  1  0
 19 52  1  0
 21 53  1  0
 22 54  1  0
 23 55  1  0
 24 56  1  0
 25 57  1  0
 26 58  1  0
 26 59  1  0
 27 60  1  0
 27 61  1  0
M  END
>  <UniqueID>  (33) 
32

>  <SMILES>  (33) 
CC1(N2CCC(Cc3ccccc3)CC2)CCN(Cc2ccccc2)CC1

>  <Energy>  (33) 
89.95419001441643

>  <Genealogy>  (33) 
CC1(N2CCC(Cc3ccccc3)CC2)CCN(Cc2ccccc2)CC1 (3D coordinates assigned)
CC1(N2CCC(Cc3ccccc3)CC2)CCN(Cc2ccccc2)CC1 (nonaromatic ring conformer: 89.95419001441643 kcal/mol)

>  <smiles>  (33) 
CC1(N2CCC(Cc3ccccc3)CC2)CCN(Cc2ccccc2)CC1

>  <score_type>  (33) 
oracle

>  <origin>  (33) 
adgpu

>  <m_score__min__energy>  (33) 
-9.8900000000000006

>  <m_primary>  (33) 
energy

$$$$
33:0
     RDKit          3D

 48 51  0  0  0  0  0  0  0  0999 V2000
   -0.8570   18.1350  -34.6910 C   0  0  0  0  0  0  0  0  0  0  0  0
   -2.0190   18.4510  -33.8080 C   0  0  0  0  0  0  0  0  0  0  0  0
   -2.2330   17.7400  -32.7900 O   0  0  0  0  0  0  0  0  0  0  0  0
   -2.8220   19.6110  -34.0690 N   0  0  0  0  0  0  0  0  0  0  0  0
   -4.0950   19.8470  -33.4470 C   0  0  0  0  0  0  0  0  0  0  0  0
   -4.1850   20.4790  -32.1950 C   0  0  0  0  0  0  0  0  0  0  0  0
   -5.4300   20.6910  -31.6000 C   0  0  0  0  0  0  0  0  0  0  0  0
   -6.6040   20.2810  -32.2490 C   0  0  0  0  0  0  0  0  0  0  0  0
   -8.1720   20.6190  -31.5230 S   0  0  0  0  0  0  0  0  0  0  0  0
   -9.1610   21.0580  -32.5660 O   0  0  0  0  0  0  0  0  0  0  0  0
   -8.6760   19.3730  -30.8510 O   0  0  0  0  0  0  0  0  0  0  0  0
   -7.9900   21.8720  -30.3410 N   0  0  0  0  0  0  0  0  0  0  0  0
   -7.0010   22.9020  -30.4470 C   0  0  0  0  0  0  0  0  0  0  0  0
   -6.8000   23.6080  -31.6450 C   0  0  0  0  0  0  0  0  0  0  0  0
   -5.7700   24.5480  -31.7430 C   0  0  0  0  0  0  0  0  0  0  0  0
   -4.9130   24.7640  -30.6600 C   0  0  0  0  0  0  0  0  0  0  0  0
   -3.8650   25.6710  -30.7840 O   0  0  0  0  0  0  0  0  0  0  0  0
   -5.1030   24.0550  -29.4650 C   0  0  0  0  0  0  0  0  0  0  0  0
   -3.9270   24.1940  -28.1170 S   0  0  0  0  0  0  0  0  0  0  0  0
   -3.0220   22.7650  -28.6990 C   0  0  0  0  0  0  0  0  0  0  0  0
   -2.4160   22.7970  -29.9150 N   0  0  0  0  0  0  0  0  0  0  0  0
   -1.6640   21.7530  -30.3500 C   0  0  0  0  0  0  0  0  0  0  0  0
   -1.0310   21.8170  -31.5960 C   0  0  0  0  0  0  0  0  0  0  0  0
   -0.2440   20.7490  -32.0360 C   0  0  0  0  0  0  0  0  0  0  0  0
   -0.0910   19.6120  -31.2360 C   0  0  0  0  0  0  0  0  0  0  0  0
   -0.7230   19.5370  -29.9910 C   0  0  0  0  0  0  0  0  0  0  0  0
   -1.5110   20.6100  -29.5360 C   0  0  0  0  0  0  0  0  0  0  0  0
   -2.1520   20.6010  -28.2860 C   0  0  0  0  0  0  0  0  0  0  0  0
   -2.0520   19.6100  -27.5130 O   0  0  0  0  0  0  0  0  0  0  0  0
   -2.8840   21.6770  -27.8970 N   0  0  0  0  0  0  0  0  0  0  0  0
   -6.1690   23.1540  -29.3520 C   0  0  0  0  0  0  0  0  0  0  0  0
   -6.5160   19.6210  -33.4820 C   0  0  0  0  0  0  0  0  0  0  0  0
   -5.2670   19.3970  -34.0720 C   0  0  0  0  0  0  0  0  0  0  0  0
    0.0201   17.8965  -34.0715 H   0  0  0  0  0  0  0  0  0  0  0  0
   -1.1032   17.2712  -35.3260 H   0  0  0  0  0  0  0  0  0  0  0  0
   -0.6319   19.0045  -35.3260 H   0  0  0  0  0  0  0  0  0  0  0  0
   -2.4230   20.3570  -34.6830 H   0  0  0  0  0  0  0  0  0  0  0  0
   -3.2698   20.8083  -31.6812 H   0  0  0  0  0  0  0  0  0  0  0  0
   -5.4906   21.1819  -30.6175 H   0  0  0  0  0  0  0  0  0  0  0  0
   -7.4552   23.4205  -32.5085 H   0  0  0  0  0  0  0  0  0  0  0  0
   -5.6337   25.1185  -32.6736 H   0  0  0  0  0  0  0  0  0  0  0  0
   -1.1527   22.7080  -32.2295 H   0  0  0  0  0  0  0  0  0  0  0  0
    0.2564   20.8029  -33.0141 H   0  0  0  0  0  0  0  0  0  0  0  0
    0.5287   18.7739  -31.5875 H   0  0  0  0  0  0  0  0  0  0  0  0
   -0.6041   18.6388  -29.3672 H   0  0  0  0  0  0  0  0  0  0  0  0
   -6.3528   22.6415  -28.3962 H   0  0  0  0  0  0  0  0  0  0  0  0
   -7.4309   19.2782  -33.9873 H   0  0  0  0  0  0  0  0  0  0  0  0
   -5.2041   18.8644  -35.0324 H   0  0  0  0  0  0  0  0  0  0  0  0
  1  2  1  0
  2  3  2  0
  2  4  1  0
  4  5  1  0
  5  6  2  0
  6  7  1  0
  7  8  2  0
  8  9  1  0
  9 10  2  0
  9 11  2  0
  9 12  1  0
 12 13  1  0
 13 14  2  0
 14 15  1  0
 15 16  2  0
 16 17  1  0
 16 18  1  0
 18 19  1  0
 19 20  1  0
 20 21  2  0
 21 22  1  0
 22 23  2  0
 23 24  1  0
 24 25  2  0
 25 26  1  0
 26 27  2  0
 27 28  1  0
 28 29  2  0
 28 30  1  0
 18 31  2  0
  8 32  1  0
 32 33  2  0
 33  5  1  0
 31 13  1  0
 30 20  1  0
 27 22  1  0
  1 34  1  0
  1 35  1  0
  1 36  1  0
  4 37  1  0
  6 38  1  0
  7 39  1  0
 14 40  1  0
 15 41  1  0
 23 42  1  0
 24 43  1  0
 25 44  1  0
 26 45  1  0
 31 46  1  0
 32 47  1  0
 33 48  1  0
M  CHG  3  12  -1  17  -1  30  -1
M  END
>  <UniqueID>  (34) 
33

>  <SMILES>  (34) 
CC(=O)Nc1ccc(S(=O)(=O)[N-]c2ccc([O-])c(Sc3nc4ccccc4c(=O)[n-]3)c2)cc1

>  <Energy>  (34) 
55.84330257961779

>  <Genealogy>  (34) 
CC(=O)Nc1ccc(S(=O)(=O)[N-]c2ccc([O-])c(Sc3nc4ccccc4c(=O)[n-]3)c2)cc1 (protonated)
CC(=O)Nc1ccc(S(=O)(=O)[N-]c2ccc([O-])c(Sc3nc4ccccc4c(=O)[n-]3)c2)cc1 (3D coordinates assigned)
CC(=O)Nc1ccc(S(=O)(=O)[N-]c2ccc([O-])c(Sc3nc4ccccc4c(=O)[n-]3)c2)cc1 (optimized conformer: 55.84330257961779 kcal/mol)

>  <smiles>  (34) 
CC(=O)Nc1ccc(S(=O)(=O)Nc2ccc(O)c(Sc3nc4ccccc4c(=O)[nH]3)c2)cc1

>  <score_type>  (34) 
oracle

>  <origin>  (34) 
adgpu

>  <m_score__min__energy>  (34) 
-14.109999999999999

>  <m_primary>  (34) 
energy

$$$$
34:0
     RDKit          3D

 41 43  0  0  0  0  0  0  0  0999 V2000
   -8.7880   18.5310  -31.6250 C   0  0  0  0  0  0  0  0  0  0  0  0
   -7.6820   18.8710  -32.6220 C   0  0  0  0  0  0  0  0  0  0  0  0
   -6.6560   19.7810  -32.0050 C   0  0  0  0  0  0  0  0  0  0  0  0
   -5.5760   19.2800  -31.5900 O   0  0  0  0  0  0  0  0  0  0  0  0
   -6.9150   21.1770  -31.7740 N   0  0  0  0  0  0  0  0  0  0  0  0
   -8.2540   21.7600  -31.8600 C   0  0  0  0  0  0  0  0  0  0  0  0
   -8.0730   23.2840  -31.6820 C   0  0  0  0  0  0  0  0  0  0  0  0
   -6.6180   23.4270  -31.4070 C   0  0  0  0  0  0  0  0  0  0  0  0
   -5.9280   24.5890  -31.0670 C   0  0  0  0  0  0  0  0  0  0  0  0
   -4.5590   24.4990  -30.7710 C   0  0  0  0  0  0  0  0  0  0  0  0
   -3.8630   25.6570  -30.4400 O   0  0  0  0  0  0  0  0  0  0  0  0
   -3.8970   23.2470  -30.8070 C   0  0  0  0  0  0  0  0  0  0  0  0
   -2.4980   23.1680  -30.4760 N   0  0  0  0  0  0  0  0  0  0  0  0
   -1.5710   21.7030  -30.5630 S   0  0  0  0  0  0  0  0  0  0  0  0
   -0.1150   22.0530  -30.6960 O   0  0  0  0  0  0  0  0  0  0  0  0
   -1.9990   20.9250  -31.7760 O   0  0  0  0  0  0  0  0  0  0  0  0
   -1.7930   20.7320  -29.1120 C   0  0  0  0  0  0  0  0  0  0  0  0
   -2.9130   20.9250  -28.2900 C   0  0  0  0  0  0  0  0  0  0  0  0
   -3.0920   20.1330  -27.1500 C   0  0  0  0  0  0  0  0  0  0  0  0
   -2.1520   19.1510  -26.8250 C   0  0  0  0  0  0  0  0  0  0  0  0
   -2.3280   18.3830  -25.7210 F   0  0  0  0  0  0  0  0  0  0  0  0
   -1.0290   18.9630  -27.6360 C   0  0  0  0  0  0  0  0  0  0  0  0
   -0.8490   19.7510  -28.7760 C   0  0  0  0  0  0  0  0  0  0  0  0
   -4.6370   22.0880  -31.1390 C   0  0  0  0  0  0  0  0  0  0  0  0
   -5.9900   22.2140  -31.4670 C   0  0  0  0  0  0  0  0  0  0  0  0
   -8.4064   18.6483  -30.6000 H   0  0  0  0  0  0  0  0  0  0  0  0
   -9.6410   19.2084  -31.7785 H   0  0  0  0  0  0  0  0  0  0  0  0
   -9.1131   17.4914  -31.7785 H   0  0  0  0  0  0  0  0  0  0  0  0
   -7.1901   17.9411  -32.9434 H   0  0  0  0  0  0  0  0  0  0  0  0
   -8.1341   19.3872  -33.4817 H   0  0  0  0  0  0  0  0  0  0  0  0
   -8.7029   21.5412  -32.8401 H   0  0  0  0  0  0  0  0  0  0  0  0
   -8.9226   21.3434  -31.0922 H   0  0  0  0  0  0  0  0  0  0  0  0
   -8.3557   23.8238  -32.5978 H   0  0  0  0  0  0  0  0  0  0  0  0
   -8.7046   23.7018  -30.8842 H   0  0  0  0  0  0  0  0  0  0  0  0
   -6.4465   25.5585  -31.0313 H   0  0  0  0  0  0  0  0  0  0  0  0
   -1.9710   24.0440  -30.2610 H   0  0  0  0  0  0  0  0  0  0  0  0
   -3.6519   21.7001  -28.5417 H   0  0  0  0  0  0  0  0  0  0  0  0
   -3.9733   20.2835  -26.5092 H   0  0  0  0  0  0  0  0  0  0  0  0
   -0.2864   18.1941  -27.3766 H   0  0  0  0  0  0  0  0  0  0  0  0
    0.0361   19.6012  -29.4118 H   0  0  0  0  0  0  0  0  0  0  0  0
   -4.1537   21.0998  -31.1391 H   0  0  0  0  0  0  0  0  0  0  0  0
  1  2  1  0
  2  3  1  0
  3  4  2  0
  3  5  1  0
  5  6  1  0
  6  7  1  0
  7  8  1  0
  8  9  2  0
  9 10  1  0
 10 11  1  0
 10 12  2  0
 12 13  1  0
 13 14  1  0
 14 15  2  0
 14 16  2  0
 14 17  1  0
 17 18  2  0
 18 19  1  0
 19 20  2  0
 20 21  1  0
 20 22  1  0
 22 23  2  0
 12 24  1  0
 24 25  2  0
 25  5  1  0
 25  8  1  0
 23 17  1  0
  1 26  1  0
  1 27  1  0
  1 28  1  0
  2 29  1  0
  2 30  1  0
  6 31  1  0
  6 32  1  0
  7 33  1  0
  7 34  1  0
  9 35  1  0
 13 36  1  0
 18 37  1  0
 19 38  1  0
 22 39  1  0
 23 40  1  0
 24 41  1  0
M  CHG  1  11  -1
M  END
>  <UniqueID>  (35) 
34

>  <SMILES>  (35) 
CCC(=O)N1CCc2cc([O-])c(NS(=O)(=O)c3ccc(F)cc3)cc21

>  <Energy>  (35) 
59.58020021610975

>  <Genealogy>  (35) 
CCC(=O)N1CCc2cc([O-])c(NS(=O)(=O)c3ccc(F)cc3)cc21 (protonated)
CCC(=O)N1CCc2cc([O-])c(NS(=O)(=O)c3ccc(F)cc3)cc21 (3D coordinates assigned)
CCC(=O)N1CCc2cc([O-])c(NS(=O)(=O)c3ccc(F)cc3)cc21 (nonaromatic ring conformer: 59.58020021610975 kcal/mol)

>  <smiles>  (35) 
CCC(=O)N1CCc2cc(O)c(NS(=O)(=O)c3ccc(F)cc3)cc21

>  <score_type>  (35) 
oracle

>  <origin>  (35) 
adgpu

>  <m_score__min__energy>  (35) 
-11.92

>  <m_primary>  (35) 
energy

$$$$
35:0
     RDKit          3D

 45 47  0  0  0  0  0  0  0  0999 V2000
   -3.9470   24.9110  -26.7720 C   0  0  0  0  0  0  0  0  0  0  0  0
   -2.7490   24.3610  -27.5070 C   0  0  0  0  0  0  0  0  0  0  0  0
   -1.4760   24.3130  -26.8880 C   0  0  0  0  0  0  0  0  0  0  0  0
   -1.2130   24.8630  -25.2340 Cl  0  0  0  0  0  0  0  0  0  0  0  0
   -0.3760   23.8030  -27.5850 C   0  0  0  0  0  0  0  0  0  0  0  0
   -0.5250   23.3180  -28.8820 C   0  0  0  0  0  0  0  0  0  0  0  0
   -1.7770   23.3310  -29.4930 C   0  0  0  0  0  0  0  0  0  0  0  0
   -2.8960   23.8530  -28.8230 C   0  0  0  0  0  0  0  0  0  0  0  0
   -4.1940   23.7950  -29.4430 N   0  0  0  0  0  0  0  0  0  0  0  0
   -4.6410   24.7300  -30.4410 C   0  0  0  0  0  0  0  0  0  0  0  0
   -3.8800   25.6500  -30.8390 O   0  0  0  0  0  0  0  0  0  0  0  0
   -5.9440   24.6140  -31.0280 N   0  0  0  0  0  0  0  0  0  0  0  0
   -6.5730   23.3900  -31.4340 C   0  0  0  0  0  0  0  0  0  0  0  0
   -7.9660   23.2780  -31.3490 C   0  0  0  0  0  0  0  0  0  0  0  0
   -8.6010   22.0930  -31.7330 C   0  0  0  0  0  0  0  0  0  0  0  0
   -7.8480   21.0090  -32.1920 C   0  0  0  0  0  0  0  0  0  0  0  0
   -6.4500   21.0990  -32.2480 C   0  0  0  0  0  0  0  0  0  0  0  0
   -5.4980   19.7460  -32.8520 S   0  0  0  0  0  0  0  0  0  0  0  0
   -5.0230   18.9420  -31.6730 O   0  0  0  0  0  0  0  0  0  0  0  0
   -4.3090   20.2650  -33.6130 O   0  0  0  0  0  0  0  0  0  0  0  0
   -6.4790   18.7360  -33.8960 N   0  0  0  0  0  0  0  0  0  0  0  0
   -5.6660   18.1690  -34.9770 C   0  0  0  0  0  0  0  0  0  0  0  0
   -5.2040   16.7820  -34.5510 C   0  0  0  0  0  0  0  0  0  0  0  0
   -6.0430   16.4240  -33.3390 C   0  0  0  0  0  0  0  0  0  0  0  0
   -7.0060   17.5860  -33.1550 C   0  0  0  0  0  0  0  0  0  0  0  0
   -5.8170   22.2840  -31.8540 C   0  0  0  0  0  0  0  0  0  0  0  0
   -3.7791   24.8339  -25.6876 H   0  0  0  0  0  0  0  0  0  0  0  0
   -4.0928   25.9662  -27.0463 H   0  0  0  0  0  0  0  0  0  0  0  0
   -4.8423   24.3337  -27.0463 H   0  0  0  0  0  0  0  0  0  0  0  0
    0.6138   23.7848  -27.1055 H   0  0  0  0  0  0  0  0  0  0  0  0
    0.3470   22.9242  -29.4247 H   0  0  0  0  0  0  0  0  0  0  0  0
   -1.8905   22.9284  -30.5104 H   0  0  0  0  0  0  0  0  0  0  0  0
   -4.8390   23.0310  -29.1440 H   0  0  0  0  0  0  0  0  0  0  0  0
   -8.5626   24.1248  -30.9790 H   0  0  0  0  0  0  0  0  0  0  0  0
   -9.6965   22.0138  -31.6736 H   0  0  0  0  0  0  0  0  0  0  0  0
   -8.3524   20.0845  -32.5096 H   0  0  0  0  0  0  0  0  0  0  0  0
   -6.2674   18.0950  -35.8951 H   0  0  0  0  0  0  0  0  0  0  0  0
   -4.7970   18.8135  -35.1755 H   0  0  0  0  0  0  0  0  0  0  0  0
   -5.3710   16.0566  -35.3609 H   0  0  0  0  0  0  0  0  0  0  0  0
   -4.1287   16.7656  -34.3196 H   0  0  0  0  0  0  0  0  0  0  0  0
   -6.5966   15.4902  -33.5167 H   0  0  0  0  0  0  0  0  0  0  0  0
   -5.4219   16.2629  -32.4455 H   0  0  0  0  0  0  0  0  0  0  0  0
   -7.9978   17.3137  -33.5452 H   0  0  0  0  0  0  0  0  0  0  0  0
   -7.1053   17.8333  -32.0878 H   0  0  0  0  0  0  0  0  0  0  0  0
   -4.7191   22.3490  -31.8737 H   0  0  0  0  0  0  0  0  0  0  0  0
  1  2  1  0
  2  3  2  0
  3  4  1  0
  3  5  1  0
  5  6  2  0
  6  7  1  0
  7  8  2  0
  8  9  1  0
  9 10  1  0
 10 11  2  0
 10 12  1  0
 12 13  1  0
 13 14  2  0
 14 15  1  0
 15 16  2  0
 16 17  1  0
 17 18  1  0
 18 19  2  0
 18 20  2  0
 18 21  1  0
 21 22  1  0
 22 23  1  0
 23 24  1  0
 24 25  1  0
 17 26  2  0
  8  2  1  0
 26 13  1  0
 25 21  1  0
  1 27  1  0
  1 28  1  0
  1 29  1  0
  5 30  1  0
  6 31  1  0
  7 32  1  0
  9 33  1  0
 14 34  1  0
 15 35  1  0
 16 36  1  0
 22 37  1  0
 22 38  1  0
 23 39  1  0
 23 40  1  0
 24 41  1  0
 24 42  1  0
 25 43  1  0
 25 44  1  0
 26 45  1  0
M  CHG  1  12  -1
M  END
>  <UniqueID>  (36) 
35

>  <SMILES>  (36) 
Cc1c(Cl)cccc1NC(=O)[N-]c1cccc(S(=O)(=O)N2CCCC2)c1

>  <Energy>  (36) 
56.52910345669353

>  <Genealogy>  (36) 
Cc1c(Cl)cccc1NC(=O)[N-]c1cccc(S(=O)(=O)N2CCCC2)c1 (protonated)
Cc1c(Cl)cccc1NC(=O)[N-]c1cccc(S(=O)(=O)N2CCCC2)c1 (3D coordinates assigned)
Cc1c(Cl)cccc1NC(=O)[N-]c1cccc(S(=O)(=O)N2CCCC2)c1 (nonaromatic ring conformer: 56.52910345669353 kcal/mol)

>  <smiles>  (36) 
Cc1c(Cl)cccc1NC(=O)Nc1cccc(S(=O)(=O)N2CCCC2)c1

>  <score_type>  (36) 
oracle

>  <origin>  (36) 
adgpu

>  <m_score__min__energy>  (36) 
-10.98

>  <m_primary>  (36) 
energy

$$$$
36:0
     RDKit          3D

 55 58  0  0  0  0  0  0  0  0999 V2000
   -5.9860   19.2530  -34.1260 O   0  0  0  0  0  0  0  0  0  0  0  0
   -5.2040   19.7810  -33.2880 C   0  0  0  0  0  0  0  0  0  0  0  0
   -5.7430   20.3940  -32.1060 N   0  0  0  0  0  0  0  0  0  0  0  0
   -7.1150   20.8070  -32.0110 C   0  0  0  0  0  0  0  0  0  0  0  0
   -8.1210   19.8300  -32.0340 C   0  0  0  0  0  0  0  0  0  0  0  0
   -9.4660   20.1980  -31.9720 C   0  0  0  0  0  0  0  0  0  0  0  0
   -9.8190   21.5440  -31.8750 C   0  0  0  0  0  0  0  0  0  0  0  0
   -8.8280   22.5260  -31.8250 C   0  0  0  0  0  0  0  0  0  0  0  0
   -7.4700   22.1710  -31.8800 C   0  0  0  0  0  0  0  0  0  0  0  0
   -6.4660   23.1910  -31.7250 N   0  0  0  0  0  0  0  0  0  0  0  0
   -6.6730   24.3350  -30.8350 C   0  0  0  0  0  0  0  0  0  0  0  0
   -5.5230   24.3900  -29.8250 C   0  0  0  0  0  0  0  0  0  0  0  0
   -4.2710   24.3950  -30.4910 O   0  0  0  0  0  0  0  0  0  0  0  0
   -4.0880   23.1790  -31.1970 C   0  0  0  0  0  0  0  0  0  0  0  0
   -5.1330   23.0280  -32.3060 C   0  0  0  0  0  0  0  0  0  0  0  0
   -3.7410   19.7440  -33.5270 C   0  0  0  0  0  0  0  0  0  0  0  0
   -2.9650   20.9030  -33.3470 C   0  0  0  0  0  0  0  0  0  0  0  0
   -1.5820   20.8690  -33.5420 C   0  0  0  0  0  0  0  0  0  0  0  0
   -0.9490   19.6740  -33.9070 C   0  0  0  0  0  0  0  0  0  0  0  0
    0.8010   19.6180  -34.1110 S   0  0  0  0  0  0  0  0  0  0  0  0
    1.4420   20.4230  -33.0160 O   0  0  0  0  0  0  0  0  0  0  0  0
    1.2700   18.1970  -33.9700 O   0  0  0  0  0  0  0  0  0  0  0  0
    1.3150   20.2450  -35.6650 N   0  0  0  0  0  0  0  0  0  0  0  0
    2.6520   20.8750  -35.6160 C   0  0  0  0  0  0  0  0  0  0  0  0
    2.5910   22.4110  -35.6150 C   0  0  0  0  0  0  0  0  0  0  0  0
    1.4160   22.8530  -34.9770 O   0  0  0  0  0  0  0  0  0  0  0  0
    0.2940   22.5490  -35.7820 C   0  0  0  0  0  0  0  0  0  0  0  0
    0.2870   21.0910  -36.3000 C   0  0  0  0  0  0  0  0  0  0  0  0
   -1.7170   18.5180  -34.0950 C   0  0  0  0  0  0  0  0  0  0  0  0
   -3.1010   18.5490  -33.9000 C   0  0  0  0  0  0  0  0  0  0  0  0
   -5.1790   20.3570  -31.2280 H   0  0  0  0  0  0  0  0  0  0  0  0
   -7.8482   18.7665  -32.1014 H   0  0  0  0  0  0  0  0  0  0  0  0
  -10.2486   19.4255  -31.9997 H   0  0  0  0  0  0  0  0  0  0  0  0
  -10.8799   21.8321  -31.8378 H   0  0  0  0  0  0  0  0  0  0  0  0
   -9.1126   23.5853  -31.7419 H   0  0  0  0  0  0  0  0  0  0  0  0
   -6.6917   25.2634  -31.4247 H   0  0  0  0  0  0  0  0  0  0  0  0
   -7.6308   24.2272  -30.3048 H   0  0  0  0  0  0  0  0  0  0  0  0
   -5.6151   25.3056  -29.2224 H   0  0  0  0  0  0  0  0  0  0  0  0
   -5.5766   23.5011  -29.1792 H   0  0  0  0  0  0  0  0  0  0  0  0
   -3.0835   23.1705  -31.6452 H   0  0  0  0  0  0  0  0  0  0  0  0
   -4.2012   22.3427  -30.4914 H   0  0  0  0  0  0  0  0  0  0  0  0
   -4.9688   23.7967  -33.0755 H   0  0  0  0  0  0  0  0  0  0  0  0
   -5.0462   22.0333  -32.7676 H   0  0  0  0  0  0  0  0  0  0  0  0
   -3.4510   21.8441  -33.0502 H   0  0  0  0  0  0  0  0  0  0  0  0
   -0.9875   21.7848  -33.4083 H   0  0  0  0  0  0  0  0  0  0  0  0
    3.1626   20.5436  -34.6998 H   0  0  0  0  0  0  0  0  0  0  0  0
    3.1948   20.5672  -36.5219 H   0  0  0  0  0  0  0  0  0  0  0  0
    3.4660   22.8086  -35.0799 H   0  0  0  0  0  0  0  0  0  0  0  0
    2.5902   22.7698  -36.6549 H   0  0  0  0  0  0  0  0  0  0  0  0
   -0.6167   22.7121  -35.1870 H   0  0  0  0  0  0  0  0  0  0  0  0
    0.3382   23.2066  -36.6627 H   0  0  0  0  0  0  0  0  0  0  0  0
   -0.7012   20.6524  -36.0971 H   0  0  0  0  0  0  0  0  0  0  0  0
    0.5102   21.1250  -37.3766 H   0  0  0  0  0  0  0  0  0  0  0  0
   -1.2284   17.5802  -34.3979 H   0  0  0  0  0  0  0  0  0  0  0  0
   -3.6931   17.6325  -34.0393 H   0  0  0  0  0  0  0  0  0  0  0  0
  1  2  2  0
  2  3  1  0
  3  4  1  0
  4  5  2  0
  5  6  1  0
  6  7  2  0
  7  8  1  0
  8  9  2  0
  9 10  1  0
 10 11  1  0
 11 12  1  0
 12 13  1  0
 13 14  1  0
 14 15  1  0
  2 16  1  0
 16 17  2  0
 17 18  1  0
 18 19  2  0
 19 20  1  0
 20 21  2  0
 20 22  2  0
 20 23  1  0
 23 24  1  0
 24 25  1  0
 25 26  1  0
 26 27  1  0
 27 28  1  0
 19 29  1  0
 29 30  2  0
  9  4  1  0
 15 10  1  0
 30 16  1  0
 28 23  1  0
  3 31  1  0
  5 32  1  0
  6 33  1  0
  7 34  1  0
  8 35  1  0
 11 36  1  0
 11 37  1  0
 12 38  1  0
 12 39  1  0
 14 40  1  0
 14 41  1  0
 15 42  1  0
 15 43  1  0
 17 44  1  0
 18 45  1  0
 24 46  1  0
 24 47  1  0
 25 48  1  0
 25 49  1  0
 27 50  1  0
 27 51  1  0
 28 52  1  0
 28 53  1  0
 29 54  1  0
 30 55  1  0
M  END
>  <UniqueID>  (37) 
36

>  <SMILES>  (37) 
O=C(Nc1ccccc1N1CCOCC1)c1ccc(S(=O)(=O)N2CCOCC2)cc1

>  <Energy>  (37) 
80.02396010697274

>  <Genealogy>  (37) 
O=C(Nc1ccccc1N1CCOCC1)c1ccc(S(=O)(=O)N2CCOCC2)cc1 (3D coordinates assigned)
O=C(Nc1ccccc1N1CCOCC1)c1ccc(S(=O)(=O)N2CCOCC2)cc1 (nonaromatic ring conformer: 80.02396010697274 kcal/mol)

>  <smiles>  (37) 
O=C(Nc1ccccc1N1CCOCC1)c1ccc(S(=O)(=O)N2CCOCC2)cc1

>  <score_type>  (37) 
oracle

>  <origin>  (37) 
adgpu

>  <m_score__min__energy>  (37) 
-9.3699999999999992

>  <m_primary>  (37) 
energy

$$$$
37:0
     RDKit          3D

 28 30  0  0  0  0  0  0  0  0999 V2000
   -0.8980   26.5330  -28.5100 O   0  0  0  0  0  0  0  0  0  0  0  0
   -1.3080   25.4290  -28.9540 C   0  0  0  0  0  0  0  0  0  0  0  0
   -2.6020   25.2900  -29.3400 N   0  0  0  0  0  0  0  0  0  0  0  0
   -3.0630   24.1100  -29.8290 C   0  0  0  0  0  0  0  0  0  0  0  0
   -2.1950   23.0150  -29.9550 C   0  0  0  0  0  0  0  0  0  0  0  0
   -2.6490   21.7320  -30.4160 N   0  0  0  0  0  0  0  0  0  0  0  0
   -3.6670   21.5040  -31.1950 C   0  0  0  0  0  0  0  0  0  0  0  0
   -4.0410   20.2560  -31.5480 N   0  0  0  0  0  0  0  0  0  0  0  0
   -5.0950   20.2480  -32.4160 C   0  0  0  0  0  0  0  0  0  0  0  0
   -5.6880   18.9910  -32.9380 C   0  0  0  0  0  0  0  0  0  0  0  0
   -5.2480   18.4460  -34.1590 C   0  0  0  0  0  0  0  0  0  0  0  0
   -5.8070   17.2620  -34.6480 C   0  0  0  0  0  0  0  0  0  0  0  0
   -6.8100   16.6100  -33.9280 C   0  0  0  0  0  0  0  0  0  0  0  0
   -7.2550   17.1390  -32.7150 C   0  0  0  0  0  0  0  0  0  0  0  0
   -6.6980   18.3220  -32.2190 C   0  0  0  0  0  0  0  0  0  0  0  0
   -5.5570   21.5200  -32.7670 C   0  0  0  0  0  0  0  0  0  0  0  0
   -4.6170   22.6640  -31.9660 S   0  0  0  0  0  0  0  0  0  0  0  0
   -0.8740   23.1730  -29.5180 C   0  0  0  0  0  0  0  0  0  0  0  0
   -0.0650   22.2100  -29.5730 O   0  0  0  0  0  0  0  0  0  0  0  0
   -0.4570   24.3740  -29.0370 N   0  0  0  0  0  0  0  0  0  0  0  0
   -4.1175   24.0126  -30.1265 H   0  0  0  0  0  0  0  0  0  0  0  0
   -3.5510   19.3980  -31.2080 H   0  0  0  0  0  0  0  0  0  0  0  0
   -4.4591   18.9552  -34.7320 H   0  0  0  0  0  0  0  0  0  0  0  0
   -5.4559   16.8428  -35.6025 H   0  0  0  0  0  0  0  0  0  0  0  0
   -7.2496   15.6795  -34.3165 H   0  0  0  0  0  0  0  0  0  0  0  0
   -8.0451   16.6244  -32.1485 H   0  0  0  0  0  0  0  0  0  0  0  0
   -7.0507   18.7327  -31.2615 H   0  0  0  0  0  0  0  0  0  0  0  0
   -6.3919   21.7363  -33.4498 H   0  0  0  0  0  0  0  0  0  0  0  0
  1  2  2  0
  2  3  1  0
  3  4  1  0
  4  5  2  0
  5  6  1  0
  6  7  2  3
  7  8  1  0
  8  9  1  0
  9 10  1  0
 10 11  2  0
 11 12  1  0
 12 13  2  0
 13 14  1  0
 14 15  2  0
  9 16  2  0
 16 17  1  0
  5 18  1  0
 18 19  2  0
 18 20  1  0
 20  2  1  0
 17  7  1  0
 15 10  1  0
  4 21  1  0
  8 22  1  0
 11 23  1  0
 12 24  1  0
 13 25  1  0
 14 26  1  0
 15 27  1  0
 16 28  1  0
M  CHG  2   3  -1  20  -1
M  END
>  <UniqueID>  (38) 
37

>  <SMILES>  (38) 
O=c1[n-]cc(N=c2[nH]c(-c3ccccc3)cs2)c(=O)[n-]1

>  <Energy>  (38) 
73.17957736073924

>  <Genealogy>  (38) 
O=c1[n-]cc(N=c2[nH]c(-c3ccccc3)cs2)c(=O)[n-]1 (protonated)
O=c1[n-]cc(N=c2[nH]c(-c3ccccc3)cs2)c(=O)[n-]1 (3D coordinates assigned)
O=c1[n-]cc(N=c2[nH]c(-c3ccccc3)cs2)c(=O)[n-]1 (optimized conformer: 73.17957736073924 kcal/mol)

>  <smiles>  (38) 
O=c1[nH]cc(N=c2[nH]c(-c3ccccc3)cs2)c(=O)[nH]1

>  <score_type>  (38) 
oracle

>  <origin>  (38) 
adgpu

>  <m_score__min__energy>  (38) 
-9.4100000000000001

>  <m_primary>  (38) 
energy

$$$$
38:0
     RDKit          3D

 47 49  0  0  0  0  0  0  0  0999 V2000
   -7.9970   19.0910  -32.7320 C   0  0  0  0  0  0  0  0  0  0  0  0
   -7.6910   20.4300  -32.1310 C   0  0  0  0  0  0  0  0  0  0  0  0
   -6.5090   21.1060  -32.4730 C   0  0  0  0  0  0  0  0  0  0  0  0
   -6.2410   22.3700  -31.9400 C   0  0  0  0  0  0  0  0  0  0  0  0
   -7.1560   22.9820  -31.0710 C   0  0  0  0  0  0  0  0  0  0  0  0
   -6.8490   24.3340  -30.4860 C   0  0  0  0  0  0  0  0  0  0  0  0
   -5.7770   24.2260  -29.4980 N   0  0  0  0  0  0  0  0  0  0  0  0
   -4.4330   24.6540  -29.7760 C   0  0  0  0  0  0  0  0  0  0  0  0
   -4.1730   25.2180  -30.8750 O   0  0  0  0  0  0  0  0  0  0  0  0
   -3.3470   24.4660  -28.7840 C   0  0  0  0  0  0  0  0  0  0  0  0
   -2.0370   24.2030  -29.2220 C   0  0  0  0  0  0  0  0  0  0  0  0
   -1.0020   24.0200  -28.2990 C   0  0  0  0  0  0  0  0  0  0  0  0
   -1.2630   24.0890  -26.9240 C   0  0  0  0  0  0  0  0  0  0  0  0
    0.0320   23.8810  -25.7490 S   0  0  0  0  0  0  0  0  0  0  0  0
   -0.4900   23.0490  -24.6100 O   0  0  0  0  0  0  0  0  0  0  0  0
    1.1920   23.1600  -26.3800 O   0  0  0  0  0  0  0  0  0  0  0  0
    0.5420   25.4460  -25.1510 N   0  0  0  0  0  0  0  0  0  0  0  0
   -0.3740   25.9240  -24.1100 C   0  0  0  0  0  0  0  0  0  0  0  0
   -1.4310   26.7970  -24.7710 C   0  0  0  0  0  0  0  0  0  0  0  0
   -0.8810   27.1340  -26.1430 C   0  0  0  0  0  0  0  0  0  0  0  0
    0.4760   26.4490  -26.2200 C   0  0  0  0  0  0  0  0  0  0  0  0
   -2.5660   24.3410  -26.4820 C   0  0  0  0  0  0  0  0  0  0  0  0
   -3.6030   24.5230  -27.4030 C   0  0  0  0  0  0  0  0  0  0  0  0
   -8.3450   22.3120  -30.7410 C   0  0  0  0  0  0  0  0  0  0  0  0
   -8.6140   21.0490  -31.2730 C   0  0  0  0  0  0  0  0  0  0  0  0
   -8.1645   18.3582  -31.9289 H   0  0  0  0  0  0  0  0  0  0  0  0
   -8.9011   19.1663  -33.3540 H   0  0  0  0  0  0  0  0  0  0  0  0
   -7.1500   18.7661  -33.3540 H   0  0  0  0  0  0  0  0  0  0  0  0
   -5.7910   20.6390  -33.1632 H   0  0  0  0  0  0  0  0  0  0  0  0
   -5.3070   22.8878  -32.2037 H   0  0  0  0  0  0  0  0  0  0  0  0
   -6.5341   25.0148  -31.2906 H   0  0  0  0  0  0  0  0  0  0  0  0
   -7.7518   24.7252  -29.9941 H   0  0  0  0  0  0  0  0  0  0  0  0
   -6.0310   23.8840  -28.5450 H   0  0  0  0  0  0  0  0  0  0  0  0
   -1.8243   24.1406  -30.2994 H   0  0  0  0  0  0  0  0  0  0  0  0
    0.0201   23.8213  -28.6537 H   0  0  0  0  0  0  0  0  0  0  0  0
   -0.8549   25.0673  -23.6151 H   0  0  0  0  0  0  0  0  0  0  0  0
    0.1780   26.5021  -23.3543 H   0  0  0  0  0  0  0  0  0  0  0  0
   -2.3802   26.2485  -24.8618 H   0  0  0  0  0  0  0  0  0  0  0  0
   -1.6381   27.7024  -24.1816 H   0  0  0  0  0  0  0  0  0  0  0  0
   -1.5491   26.7519  -26.9289 H   0  0  0  0  0  0  0  0  0  0  0  0
   -0.7973   28.2206  -26.2921 H   0  0  0  0  0  0  0  0  0  0  0  0
    0.5915   25.9594  -27.1982 H   0  0  0  0  0  0  0  0  0  0  0  0
    1.2827   27.1872  -26.1001 H   0  0  0  0  0  0  0  0  0  0  0  0
   -2.7764   24.3964  -25.4037 H   0  0  0  0  0  0  0  0  0  0  0  0
   -4.6255   24.7120  -27.0442 H   0  0  0  0  0  0  0  0  0  0  0  0
   -9.0683   22.7843  -30.0600 H   0  0  0  0  0  0  0  0  0  0  0  0
   -9.5536   20.5367  -31.0186 H   0  0  0  0  0  0  0  0  0  0  0  0
  1  2  1  0
  2  3  2  0
  3  4  1  0
  4  5  2  0
  5  6  1  0
  6  7  1  0
  7  8  1  0
  8  9  2  0
  8 10  1  0
 10 11  2  0
 11 12  1  0
 12 13  2  0
 13 14  1  0
 14 15  2  0
 14 16  2  0
 14 17  1  0
 17 18  1  0
 18 19  1  0
 19 20  1  0
 20 21  1  0
 13 22  1  0
 22 23  2  0
  5 24  1  0
 24 25  2  0
 25  2  1  0
 23 10  1  0
 21 17  1  0
  1 26  1  0
  1 27  1  0
  1 28  1  0
  3 29  1  0
  4 30  1  0
  6 31  1  0
  6 32  1  0
  7 33  1  0
 11 34  1  0
 12 35  1  0
 18 36  1  0
 18 37  1  0
 19 38  1  0
 19 39  1  0
 20 40  1  0
 20 41  1  0
 21 42  1  0
 21 43  1  0
 22 44  1  0
 23 45  1  0
 24 46  1  0
 25 47  1  0
M  END
>  <UniqueID>  (39) 
38

>  <SMILES>  (39) 
Cc1ccc(CNC(=O)c2ccc(S(=O)(=O)N3CCCC3)cc2)cc1

>  <Energy>  (39) 
48.373200517495796

>  <Genealogy>  (39) 
Cc1ccc(CNC(=O)c2ccc(S(=O)(=O)N3CCCC3)cc2)cc1 (3D coordinates assigned)
Cc1ccc(CNC(=O)c2ccc(S(=O)(=O)N3CCCC3)cc2)cc1 (nonaromatic ring conformer: 48.373200517495796 kcal/mol)

>  <smiles>  (39) 
Cc1ccc(CNC(=O)c2ccc(S(=O)(=O)N3CCCC3)cc2)cc1

>  <score_type>  (39) 
oracle

>  <origin>  (39) 
adgpu

>  <m_score__min__energy>  (39) 
-9.0999999999999996

>  <m_primary>  (39) 
energy

$$$$
39:0
     RDKit          3D

 57 60  0  0  0  0  0  0  0  0999 V2000
   -4.4940   24.3240  -31.1870 O   0  0  0  0  0  0  0  0  0  0  0  0
   -4.6660   23.8730  -30.0210 C   0  0  0  0  0  0  0  0  0  0  0  0
   -5.9610   23.3840  -29.6310 N   0  0  0  0  0  0  0  0  0  0  0  0
   -6.9450   22.9000  -30.5620 C   0  0  0  0  0  0  0  0  0  0  0  0
   -7.7900   23.8140  -31.2080 C   0  0  0  0  0  0  0  0  0  0  0  0
   -8.7680   23.3650  -32.0980 C   0  0  0  0  0  0  0  0  0  0  0  0
   -8.9260   21.9980  -32.3360 C   0  0  0  0  0  0  0  0  0  0  0  0
   -8.1110   21.0690  -31.6750 C   0  0  0  0  0  0  0  0  0  0  0  0
   -8.3400   19.3370  -31.9410 S   0  0  0  0  0  0  0  0  0  0  0  0
   -8.9500   18.7260  -30.7120 O   0  0  0  0  0  0  0  0  0  0  0  0
   -9.2950   19.1350  -33.0850 O   0  0  0  0  0  0  0  0  0  0  0  0
   -6.8280   18.5320  -32.2950 N   0  0  0  0  0  0  0  0  0  0  0  0
   -5.9410   19.3750  -33.1260 C   0  0  0  0  0  0  0  0  0  0  0  0
   -5.8920   18.8950  -34.5880 C   0  0  0  0  0  0  0  0  0  0  0  0
   -5.4490   17.5510  -34.7230 O   0  0  0  0  0  0  0  0  0  0  0  0
   -5.8390   16.7060  -33.6460 C   0  0  0  0  0  0  0  0  0  0  0  0
   -7.0770   17.2000  -32.8790 C   0  0  0  0  0  0  0  0  0  0  0  0
   -7.1200   21.5230  -30.7930 C   0  0  0  0  0  0  0  0  0  0  0  0
   -3.5420   23.8990  -29.0540 C   0  0  0  0  0  0  0  0  0  0  0  0
   -3.7690   24.1490  -27.6890 C   0  0  0  0  0  0  0  0  0  0  0  0
   -2.7040   24.1670  -26.7840 C   0  0  0  0  0  0  0  0  0  0  0  0
   -1.3950   23.9360  -27.2280 C   0  0  0  0  0  0  0  0  0  0  0  0
   -0.0490   23.9800  -26.0880 S   0  0  0  0  0  0  0  0  0  0  0  0
   -0.4490   23.2690  -24.8240 O   0  0  0  0  0  0  0  0  0  0  0  0
    1.1230   23.2450  -26.6780 O   0  0  0  0  0  0  0  0  0  0  0  0
    0.4320   25.6190  -25.7010 N   0  0  0  0  0  0  0  0  0  0  0  0
   -0.5050   26.5940  -26.2700 C   0  0  0  0  0  0  0  0  0  0  0  0
   -1.4810   27.0140  -25.1810 C   0  0  0  0  0  0  0  0  0  0  0  0
   -0.8740   26.5370  -23.8760 C   0  0  0  0  0  0  0  0  0  0  0  0
    0.4290   25.8450  -24.2520 C   0  0  0  0  0  0  0  0  0  0  0  0
   -1.1640   23.6690  -28.5830 C   0  0  0  0  0  0  0  0  0  0  0  0
   -2.2270   23.6500  -29.4890 C   0  0  0  0  0  0  0  0  0  0  0  0
   -6.2390   23.4760  -28.6270 H   0  0  0  0  0  0  0  0  0  0  0  0
   -7.6818   24.8911  -31.0125 H   0  0  0  0  0  0  0  0  0  0  0  0
   -9.4156   24.0899  -32.6129 H   0  0  0  0  0  0  0  0  0  0  0  0
   -9.6922   21.6495  -33.0442 H   0  0  0  0  0  0  0  0  0  0  0  0
   -6.3125   20.4101  -33.1044 H   0  0  0  0  0  0  0  0  0  0  0  0
   -4.9239   19.3083  -32.7124 H   0  0  0  0  0  0  0  0  0  0  0  0
   -6.9023   18.9745  -35.0158 H   0  0  0  0  0  0  0  0  0  0  0  0
   -5.1674   19.5320  -35.1164 H   0  0  0  0  0  0  0  0  0  0  0  0
   -6.0594   15.7078  -34.0521 H   0  0  0  0  0  0  0  0  0  0  0  0
   -5.0039   16.6976  -32.9301 H   0  0  0  0  0  0  0  0  0  0  0  0
   -7.9300   17.2621  -33.5708 H   0  0  0  0  0  0  0  0  0  0  0  0
   -7.2972   16.4918  -32.0666 H   0  0  0  0  0  0  0  0  0  0  0  0
   -6.4742   20.7969  -30.2775 H   0  0  0  0  0  0  0  0  0  0  0  0
   -4.7928   24.3318  -27.3306 H   0  0  0  0  0  0  0  0  0  0  0  0
   -2.8941   24.3634  -25.7185 H   0  0  0  0  0  0  0  0  0  0  0  0
    0.0481   27.4731  -26.6324 H   0  0  0  0  0  0  0  0  0  0  0  0
   -1.0501   26.1463  -27.1140 H   0  0  0  0  0  0  0  0  0  0  0  0
   -1.5975   28.1078  -25.1721 H   0  0  0  0  0  0  0  0  0  0  0  0
   -2.4798   26.5831  -25.3443 H   0  0  0  0  0  0  0  0  0  0  0  0
   -0.6762   27.3907  -23.2111 H   0  0  0  0  0  0  0  0  0  0  0  0
   -1.5523   25.8578  -23.3388 H   0  0  0  0  0  0  0  0  0  0  0  0
    1.2816   26.4819  -23.9736 H   0  0  0  0  0  0  0  0  0  0  0  0
    0.5148   24.8861  -23.7199 H   0  0  0  0  0  0  0  0  0  0  0  0
   -0.1406   23.4733  -28.9357 H   0  0  0  0  0  0  0  0  0  0  0  0
   -2.0347   23.4387  -30.5512 H   0  0  0  0  0  0  0  0  0  0  0  0
  1  2  2  0
  2  3  1  0
  3  4  1  0
  4  5  2  0
  5  6  1  0
  6  7  2  0
  7  8  1  0
  8  9  1  0
  9 10  2  0
  9 11  2  0
  9 12  1  0
 12 13  1  0
 13 14  1  0
 14 15  1  0
 15 16  1  0
 16 17  1  0
  8 18  2  0
  2 19  1  0
 19 20  2  0
 20 21  1  0
 21 22  2  0
 22 23  1  0
 23 24  2  0
 23 25  2  0
 23 26  1  0
 26 27  1  0
 27 28  1  0
 28 29  1  0
 29 30  1  0
 22 31  1  0
 31 32  2  0
 18  4  1  0
 32 19  1  0
 17 12  1  0
 30 26  1  0
  3 33  1  0
  5 34  1  0
  6 35  1  0
  7 36  1  0
 13 37  1  0
 13 38  1  0
 14 39  1  0
 14 40  1  0
 16 41  1  0
 16 42  1  0
 17 43  1  0
 17 44  1  0
 18 45  1  0
 20 46  1  0
 21 47  1  0
 27 48  1  0
 27 49  1  0
 28 50  1  0
 28 51  1  0
 29 52  1  0
 29 53  1  0
 30 54  1  0
 30 55  1  0
 31 56  1  0
 32 57  1  0
M  END
>  <UniqueID>  (40) 
39

>  <SMILES>  (40) 
O=C(Nc1cccc(S(=O)(=O)N2CCOCC2)c1)c1ccc(S(=O)(=O)N2CCCC2)cc1

>  <Energy>  (40) 
76.14533281510256

>  <Genealogy>  (40) 
O=C(Nc1cccc(S(=O)(=O)N2CCOCC2)c1)c1ccc(S(=O)(=O)N2CCCC2)cc1 (3D coordinates assigned)
O=C(Nc1cccc(S(=O)(=O)N2CCOCC2)c1)c1ccc(S(=O)(=O)N2CCCC2)cc1 (nonaromatic ring conformer: 76.14533281510256 kcal/mol)

>  <smiles>  (40) 
O=C(Nc1cccc(S(=O)(=O)N2CCOCC2)c1)c1ccc(S(=O)(=O)N2CCCC2)cc1

>  <score_type>  (40) 
oracle

>  <origin>  (40) 
adgpu

>  <m_score__min__energy>  (40) 
-10.6

>  <m_primary>  (40) 
energy

$$$$
40:0
     RDKit          3D

 39 42  0  0  0  0  0  0  0  0999 V2000
   -6.8560   18.4860  -35.6360 H   0  0  0  0  0  0  0  0  0  0  0  0
   -6.1230   17.8570  -35.3270 O   0  0  0  0  0  0  0  0  0  0  0  0
   -5.0340   18.3160  -34.5900 C   0  0  0  0  0  0  0  0  0  0  0  0
   -3.7780   17.7350  -34.7860 C   0  0  0  0  0  0  0  0  0  0  0  0
   -3.6576   16.9205  -35.5154 H   0  0  0  0  0  0  0  0  0  0  0  0
   -2.6750   18.1870  -34.0570 C   0  0  0  0  0  0  0  0  0  0  0  0
   -1.6880   17.7271  -34.2132 H   0  0  0  0  0  0  0  0  0  0  0  0
   -2.8230   19.2220  -33.1300 C   0  0  0  0  0  0  0  0  0  0  0  0
   -1.9502   19.5739  -32.5604 H   0  0  0  0  0  0  0  0  0  0  0  0
   -4.0800   19.8170  -32.9200 C   0  0  0  0  0  0  0  0  0  0  0  0
   -4.2370   20.9160  -31.9330 C   0  0  0  0  0  0  0  0  0  0  0  0
   -3.5130   20.9100  -30.7320 C   0  0  0  0  0  0  0  0  0  0  0  0
   -2.8253   20.0791  -30.5159 H   0  0  0  0  0  0  0  0  0  0  0  0
   -3.6550   21.9470  -29.8070 C   0  0  0  0  0  0  0  0  0  0  0  0
   -3.1073   21.9019  -28.8541 H   0  0  0  0  0  0  0  0  0  0  0  0
   -4.4910   23.0520  -30.0770 C   0  0  0  0  0  0  0  0  0  0  0  0
   -4.6570   24.1700  -29.1970 C   0  0  0  0  0  0  0  0  0  0  0  0
   -3.8540   24.4820  -28.2110 N   0  0  0  0  0  0  0  0  0  0  0  0
   -2.5300   24.0160  -27.9140 C   0  0  0  0  0  0  0  0  0  0  0  0
   -2.3340   22.8710  -27.1220 C   0  0  0  0  0  0  0  0  0  0  0  0
   -3.1996   22.3507  -26.6861 H   0  0  0  0  0  0  0  0  0  0  0  0
   -1.0420   22.3920  -26.8870 C   0  0  0  0  0  0  0  0  0  0  0  0
   -0.8910   21.5095  -26.2479 H   0  0  0  0  0  0  0  0  0  0  0  0
    0.0580   23.0330  -27.4630 C   0  0  0  0  0  0  0  0  0  0  0  0
    1.0746   22.6590  -27.2717 H   0  0  0  0  0  0  0  0  0  0  0  0
   -0.1330   24.1490  -28.2820 C   0  0  0  0  0  0  0  0  0  0  0  0
    0.7333   24.6475  -28.7414 H   0  0  0  0  0  0  0  0  0  0  0  0
   -1.4250   24.6340  -28.5190 C   0  0  0  0  0  0  0  0  0  0  0  0
   -1.6050   25.7380  -29.3470 O   0  0  0  0  0  0  0  0  0  0  0  0
   -5.7320   25.0400  -29.4190 C   0  0  0  0  0  0  0  0  0  0  0  0
   -5.9563   25.8295  -28.6866 H   0  0  0  0  0  0  0  0  0  0  0  0
   -6.5180   24.9120  -30.5600 C   0  0  0  0  0  0  0  0  0  0  0  0
   -7.3406   25.6195  -30.7410 H   0  0  0  0  0  0  0  0  0  0  0  0
   -6.2740   23.9200  -31.4480 N   0  0  0  0  0  0  0  0  0  0  0  0
   -5.3020   22.9940  -31.2420 C   0  0  0  0  0  0  0  0  0  0  0  0
   -5.1460   21.9590  -32.1700 C   0  0  0  0  0  0  0  0  0  0  0  0
   -5.7417   21.9625  -33.0948 H   0  0  0  0  0  0  0  0  0  0  0  0
   -5.1850   19.3540  -33.6600 C   0  0  0  0  0  0  0  0  0  0  0  0
   -6.1742   19.8103  -33.5071 H   0  0  0  0  0  0  0  0  0  0  0  0
  1  2  1  0
  2  3  1  0
  3  4  2  0
  4  5  1  0
  4  6  1  0
  6  7  1  0
  6  8  2  0
  8  9  1  0
  8 10  1  0
 10 11  1  0
 11 12  2  0
 12 13  1  0
 12 14  1  0
 14 15  1  0
 14 16  2  0
 16 17  1  0
 17 18  2  0
 18 19  1  0
 19 20  2  0
 20 21  1  0
 20 22  1  0
 22 23  1  0
 22 24  2  0
 24 25  1  0
 24 26  1  0
 26 27  1  0
 26 28  2  0
 28 29  1  0
 17 30  1  0
 30 31  1  0
 30 32  2  0
 32 33  1  0
 32 34  1  0
 34 35  1  0
 35 36  2  0
 36 37  1  0
 10 38  2  0
 38 39  1  0
 38  3  1  0
 36 11  1  0
 35 16  1  0
 28 19  1  0
M  CHG  2  29  -1  34  -1
M  END
>  <UniqueID>  (41) 
40

>  <SMILES>  (41) 
[O-]c1ccccc1/N=c1/cc[n-]c2cc(-c3cccc(O)c3)ccc12

>  <Energy>  (41) 
72.83937235660136

>  <Genealogy>  (41) 
[O-]c1ccccc1N=c1cc[n-]c2cc(-c3cccc(O)c3)ccc12 (protonated)
[O-]c1ccccc1/N=c1/cc[n-]c2cc(-c3cccc(O)c3)ccc12 (cis-trans isomerization)
[O-]c1ccccc1/N=c1/cc[n-]c2cc(-c3cccc(O)c3)ccc12 (3D coordinates assigned)
[O-]c1ccccc1/N=c1/cc[n-]c2cc(-c3cccc(O)c3)ccc12 (optimized conformer: 72.83937235660136 kcal/mol)

>  <smiles>  (41) 
Oc1cccc(-c2ccc3c(=Nc4ccccc4O)cc[nH]c3c2)c1

>  <score_type>  (41) 
oracle

>  <origin>  (41) 
adgpu

>  <m_score__min__energy>  (41) 
-10.98

>  <m_primary>  (41) 
energy

$$$$
41:0
     RDKit          3D

 53 57  0  0  0  0  0  0  0  0999 V2000
   -5.6159   16.3361  -35.1187 H   0  0  0  0  0  0  0  0  0  0  0  0
   -5.2040   17.2120  -34.5960 C   0  0  0  0  0  0  0  0  0  0  0  0
   -3.9060   17.4870  -34.7900 C   0  0  0  0  0  0  0  0  0  0  0  0
   -3.3876   16.9414  -35.5922 H   0  0  0  0  0  0  0  0  0  0  0  0
   -3.1190   18.4610  -34.0150 C   0  0  0  0  0  0  0  0  0  0  0  0
   -2.0080   18.1030  -33.3170 N   0  0  0  0  0  0  0  0  0  0  0  0
   -1.6520   19.2510  -32.7120 C   0  0  0  0  0  0  0  0  0  0  0  0
   -0.5700   19.4660  -31.8610 C   0  0  0  0  0  0  0  0  0  0  0  0
    0.1320   18.6555  -31.6152 H   0  0  0  0  0  0  0  0  0  0  0  0
   -0.4080   20.7590  -31.3270 C   0  0  0  0  0  0  0  0  0  0  0  0
    0.4363   20.9698  -30.6542 H   0  0  0  0  0  0  0  0  0  0  0  0
   -1.3220   21.7880  -31.6490 C   0  0  0  0  0  0  0  0  0  0  0  0
   -1.1855   22.7935  -31.2243 H   0  0  0  0  0  0  0  0  0  0  0  0
   -2.4070   21.5330  -32.5110 C   0  0  0  0  0  0  0  0  0  0  0  0
   -3.1285   22.3220  -32.7696 H   0  0  0  0  0  0  0  0  0  0  0  0
   -2.5310   20.2440  -33.0230 C   0  0  0  0  0  0  0  0  0  0  0  0
   -3.4740   19.7610  -33.8400 N   0  0  0  0  0  0  0  0  0  0  0  0
   -4.3090   20.2640  -34.2150 H   0  0  0  0  0  0  0  0  0  0  0  0
   -6.1270   17.9830  -33.7420 C   0  0  0  0  0  0  0  0  0  0  0  0
   -6.0270   19.2810  -33.5750 O   0  0  0  0  0  0  0  0  0  0  0  0
   -6.9580   19.6750  -32.7340 C   0  0  0  0  0  0  0  0  0  0  0  0
   -7.1410   21.0870  -32.3210 C   0  0  0  0  0  0  0  0  0  0  0  0
   -8.4060   21.5890  -31.9620 C   0  0  0  0  0  0  0  0  0  0  0  0
   -9.2817   20.9233  -31.9713 H   0  0  0  0  0  0  0  0  0  0  0  0
   -8.5550   22.9280  -31.5940 C   0  0  0  0  0  0  0  0  0  0  0  0
   -9.5484   23.3142  -31.3221 H   0  0  0  0  0  0  0  0  0  0  0  0
   -7.4480   23.7780  -31.5700 C   0  0  0  0  0  0  0  0  0  0  0  0
   -7.5753   24.8339  -31.2891 H   0  0  0  0  0  0  0  0  0  0  0  0
   -6.1780   23.2950  -31.9010 C   0  0  0  0  0  0  0  0  0  0  0  0
   -5.0970   24.1890  -31.8700 O   0  0  0  0  0  0  0  0  0  0  0  0
   -4.8180   25.0920  -30.8350 C   0  0  0  0  0  0  0  0  0  0  0  0
   -5.6760   25.9380  -30.4680 O   0  0  0  0  0  0  0  0  0  0  0  0
   -3.5450   25.0720  -30.1830 N   0  0  0  0  0  0  0  0  0  0  0  0
   -3.0310   24.0080  -29.3660 C   0  0  0  0  0  0  0  0  0  0  0  0
   -3.6260   22.7310  -29.3750 C   0  0  0  0  0  0  0  0  0  0  0  0
   -4.5082   22.5432  -30.0046 H   0  0  0  0  0  0  0  0  0  0  0  0
   -3.1020   21.7020  -28.5890 C   0  0  0  0  0  0  0  0  0  0  0  0
   -3.5793   20.7109  -28.5927 H   0  0  0  0  0  0  0  0  0  0  0  0
   -1.9740   21.9290  -27.7990 C   0  0  0  0  0  0  0  0  0  0  0  0
   -1.5689   21.1194  -27.1741 H   0  0  0  0  0  0  0  0  0  0  0  0
   -1.3590   23.1830  -27.8010 C   0  0  0  0  0  0  0  0  0  0  0  0
   -0.4657   23.3545  -27.1825 H   0  0  0  0  0  0  0  0  0  0  0  0
   -1.8740   24.2270  -28.5880 C   0  0  0  0  0  0  0  0  0  0  0  0
   -1.2030   25.5730  -28.5820 C   0  0  0  0  0  0  0  0  0  0  0  0
   -1.0413   25.8974  -27.5435 H   0  0  0  0  0  0  0  0  0  0  0  0
   -0.2347   25.5023  -29.0991 H   0  0  0  0  0  0  0  0  0  0  0  0
   -1.8423   26.3037  -29.0991 H   0  0  0  0  0  0  0  0  0  0  0  0
   -6.0320   21.9520  -32.2930 C   0  0  0  0  0  0  0  0  0  0  0  0
   -5.0399   21.5741  -32.5808 H   0  0  0  0  0  0  0  0  0  0  0  0
   -7.6990   18.5790  -32.3190 C   0  0  0  0  0  0  0  0  0  0  0  0
   -8.5466   18.5801  -31.6179 H   0  0  0  0  0  0  0  0  0  0  0  0
   -7.1580   17.4890  -32.9630 C   0  0  0  0  0  0  0  0  0  0  0  0
   -7.4795   16.4406  -32.8760 H   0  0  0  0  0  0  0  0  0  0  0  0
  1  2  1  0
  2  3  2  0
  3  4  1  0
  3  5  1  0
  5  6  2  0
  6  7  1  0
  7  8  2  0
  8  9  1  0
  8 10  1  0
 10 11  1  0
 10 12  2  0
 12 13  1  0
 12 14  1  0
 14 15  1  0
 14 16  2  0
 16 17  1  0
 17 18  1  0
  2 19  1  0
 19 20  1  0
 20 21  1  0
 21 22  1  0
 22 23  2  0
 23 24  1  0
 23 25  1  0
 25 26  1  0
 25 27  2  0
 27 28  1  0
 27 29  1  0
 29 30  1  0
 30 31  1  0
 31 32  2  0
 31 33  1  0
 33 34  1  0
 34 35  2  0
 35 36  1  0
 35 37  1  0
 37 38  1  0
 37 39  2  0
 39 40  1  0
 39 41  1  0
 41 42  1  0
 41 43  2  0
 43 44  1  0
 44 45  1  0
 44 46  1  0
 44 47  1  0
 29 48  2  0
 48 49  1  0
 21 50  2  0
 50 51  1  0
 50 52  1  0
 52 53  1  0
 17  5  1  0
 52 19  2  0
 16  7  1  0
 48 22  1  0
 43 34  1  0
M  CHG  1  33  -1
M  END
>  <UniqueID>  (42) 
41

>  <SMILES>  (42) 
Cc1ccccc1[N-]C(=O)Oc1cccc(-c2ccc(/C=C\c3nc4ccccc4[nH]3)o2)c1

>  <Energy>  (42) 
137.32658068293648

>  <Genealogy>  (42) 
Cc1ccccc1[N-]C(=O)Oc1cccc(-c2ccc(C=Cc3nc4ccccc4[nH]3)o2)c1 (protonated)
Cc1ccccc1[N-]C(=O)Oc1cccc(-c2ccc(/C=C\c3nc4ccccc4[nH]3)o2)c1 (cis-trans isomerization)
Cc1ccccc1[N-]C(=O)Oc1cccc(-c2ccc(/C=C\c3nc4ccccc4[nH]3)o2)c1 (3D coordinates assigned)
Cc1ccccc1[N-]C(=O)Oc1cccc(-c2ccc(/C=C\c3nc4ccccc4[nH]3)o2)c1 (optimized conformer: 137.32658068293648 kcal/mol)

>  <smiles>  (42) 
Cc1ccccc1NC(=O)Oc1cccc(-c2ccc(C=Cc3nc4ccccc4[nH]3)o2)c1

>  <score_type>  (42) 
oracle

>  <origin>  (42) 
adgpu

>  <m_score__min__energy>  (42) 
-11.699999999999999

>  <m_primary>  (42) 
energy

$$$$
42:0
     RDKit          3D

 53 56  0  0  0  0  0  0  0  0999 V2000
   -1.1360   26.2910  -27.2050 C   0  0  0  0  0  0  0  0  0  0  0  0
   -1.6400   25.9450  -28.4910 O   0  0  0  0  0  0  0  0  0  0  0  0
   -1.7030   24.6360  -28.9930 C   0  0  0  0  0  0  0  0  0  0  0  0
   -0.7430   23.6610  -28.6620 C   0  0  0  0  0  0  0  0  0  0  0  0
   -0.8420   22.3680  -29.1770 C   0  0  0  0  0  0  0  0  0  0  0  0
   -1.9070   22.0200  -30.0200 C   0  0  0  0  0  0  0  0  0  0  0  0
   -2.0490   20.6060  -30.5260 C   0  0  0  0  0  0  0  0  0  0  0  0
   -1.7770   20.5290  -32.0040 C   0  0  0  0  0  0  0  0  0  0  0  0
   -0.5340   20.5740  -32.5240 N   0  0  0  0  0  0  0  0  0  0  0  0
   -0.7760   20.6050  -33.8550 C   0  0  0  0  0  0  0  0  0  0  0  0
    0.2850   20.6730  -34.8810 C   0  0  0  0  0  0  0  0  0  0  0  0
    0.8760   19.4960  -35.3760 C   0  0  0  0  0  0  0  0  0  0  0  0
    1.8780   19.5630  -36.3480 C   0  0  0  0  0  0  0  0  0  0  0  0
    2.3010   20.8020  -36.8380 C   0  0  0  0  0  0  0  0  0  0  0  0
    3.2970   20.8600  -37.8060 O   0  0  0  0  0  0  0  0  0  0  0  0
    1.7200   21.9790  -36.3530 C   0  0  0  0  0  0  0  0  0  0  0  0
    2.1360   23.2140  -36.8380 O   0  0  0  0  0  0  0  0  0  0  0  0
    0.7180   21.9160  -35.3790 C   0  0  0  0  0  0  0  0  0  0  0  0
   -2.0950   20.5930  -34.1410 N   0  0  0  0  0  0  0  0  0  0  0  0
   -2.7130   20.5300  -32.9760 N   0  0  0  0  0  0  0  0  0  0  0  0
   -4.1370   20.5740  -32.8280 C   0  0  0  0  0  0  0  0  0  0  0  0
   -4.7810   21.8030  -32.6240 C   0  0  0  0  0  0  0  0  0  0  0  0
   -6.1600   21.8470  -32.4010 C   0  0  0  0  0  0  0  0  0  0  0  0
   -6.9100   20.6640  -32.3990 C   0  0  0  0  0  0  0  0  0  0  0  0
   -8.6370   20.7130  -32.0640 S   0  0  0  0  0  0  0  0  0  0  0  0
   -9.4520   19.5840  -33.0880 N   0  0  0  0  0  0  0  0  0  0  0  0
   -8.8900   20.3580  -30.6250 O   0  0  0  0  0  0  0  0  0  0  0  0
   -9.1680   22.0940  -32.3210 O   0  0  0  0  0  0  0  0  0  0  0  0
   -6.2720   19.4370  -32.6260 C   0  0  0  0  0  0  0  0  0  0  0  0
   -4.8920   19.3930  -32.8460 C   0  0  0  0  0  0  0  0  0  0  0  0
   -2.8550   22.9940  -30.3680 C   0  0  0  0  0  0  0  0  0  0  0  0
   -2.7610   24.3030  -29.8530 C   0  0  0  0  0  0  0  0  0  0  0  0
   -3.7020   25.2960  -30.1690 O   0  0  0  0  0  0  0  0  0  0  0  0
   -5.1060   25.0740  -30.2680 C   0  0  0  0  0  0  0  0  0  0  0  0
   -1.7784   25.8500  -26.4286 H   0  0  0  0  0  0  0  0  0  0  0  0
   -0.1118   25.9047  -27.0965 H   0  0  0  0  0  0  0  0  0  0  0  0
   -1.1284   27.3856  -27.0965 H   0  0  0  0  0  0  0  0  0  0  0  0
    0.0907   23.9202  -27.9929 H   0  0  0  0  0  0  0  0  0  0  0  0
   -0.0801   21.6173  -28.9202 H   0  0  0  0  0  0  0  0  0  0  0  0
   -1.3334   19.9610  -29.9951 H   0  0  0  0  0  0  0  0  0  0  0  0
   -3.0809   20.2717  -30.3430 H   0  0  0  0  0  0  0  0  0  0  0  0
    0.5475   18.5175  -34.9958 H   0  0  0  0  0  0  0  0  0  0  0  0
    2.3353   18.6378  -36.7287 H   0  0  0  0  0  0  0  0  0  0  0  0
    0.2655   22.8441  -34.9998 H   0  0  0  0  0  0  0  0  0  0  0  0
   -4.1985   22.7360  -32.6396 H   0  0  0  0  0  0  0  0  0  0  0  0
   -6.6573   22.8125  -32.2267 H   0  0  0  0  0  0  0  0  0  0  0  0
   -8.7160   18.9960  -33.5390 H   0  0  0  0  0  0  0  0  0  0  0  0
   -6.8584   18.5063  -32.6311 H   0  0  0  0  0  0  0  0  0  0  0  0
   -4.3972   18.4287  -33.0338 H   0  0  0  0  0  0  0  0  0  0  0  0
   -3.6790   22.7340  -31.0488 H   0  0  0  0  0  0  0  0  0  0  0  0
   -5.5385   25.0056  -29.2589 H   0  0  0  0  0  0  0  0  0  0  0  0
   -5.5720   25.9096  -30.8108 H   0  0  0  0  0  0  0  0  0  0  0  0
   -5.2914   24.1354  -30.8108 H   0  0  0  0  0  0  0  0  0  0  0  0
  1  2  1  0
  2  3  1  0
  3  4  2  0
  4  5  1  0
  5  6  2  0
  6  7  1  0
  7  8  1  0
  8  9  2  0
  9 10  1  0
 10 11  1  0
 11 12  2  0
 12 13  1  0
 13 14  2  0
 14 15  1  0
 14 16  1  0
 16 17  1  0
 16 18  2  0
 10 19  2  0
 19 20  1  0
 20 21  1  0
 21 22  2  0
 22 23  1  0
 23 24  2  0
 24 25  1  0
 25 26  1  0
 25 27  2  0
 25 28  2  0
 24 29  1  0
 29 30  2  0
  6 31  1  0
 31 32  2  0
 32 33  1  0
 33 34  1  0
 32  3  1  0
 20  8  1  0
 30 21  1  0
 18 11  1  0
  1 35  1  0
  1 36  1  0
  1 37  1  0
  4 38  1  0
  5 39  1  0
  7 40  1  0
  7 41  1  0
 12 42  1  0
 13 43  1  0
 18 44  1  0
 22 45  1  0
 23 46  1  0
 26 47  1  0
 29 48  1  0
 30 49  1  0
 31 50  1  0
 34 51  1  0
 34 52  1  0
 34 53  1  0
M  CHG  3  15  -1  17  -1  26  -1
M  END
>  <UniqueID>  (43) 
42

>  <SMILES>  (43) 
COc1ccc(Cc2nc(-c3ccc([O-])c([O-])c3)nn2-c2ccc(S([NH-])(=O)=O)cc2)cc1OC

>  <Energy>  (43) 
91.76406201570362

>  <Genealogy>  (43) 
COc1ccc(Cc2nc(-c3ccc([O-])c([O-])c3)nn2-c2ccc(S([NH-])(=O)=O)cc2)cc1OC (protonated)
COc1ccc(Cc2nc(-c3ccc([O-])c([O-])c3)nn2-c2ccc(S([NH-])(=O)=O)cc2)cc1OC (3D coordinates assigned)
COc1ccc(Cc2nc(-c3ccc([O-])c([O-])c3)nn2-c2ccc(S([NH-])(=O)=O)cc2)cc1OC (optimized conformer: 91.76406201570362 kcal/mol)

>  <smiles>  (43) 
COc1ccc(Cc2nc(-c3ccc(O)c(O)c3)nn2-c2ccc(S(N)(=O)=O)cc2)cc1OC

>  <score_type>  (43) 
oracle

>  <origin>  (43) 
adgpu

>  <m_score__min__energy>  (43) 
-12.5

>  <m_primary>  (43) 
energy

$$$$
43:0
     RDKit          3D

 40 41  0  0  0  0  0  0  0  0999 V2000
    1.1810   17.8790  -28.6640 C   0  0  0  0  0  0  0  0  0  0  0  0
    0.5060   18.4670  -27.5570 O   0  0  0  0  0  0  0  0  0  0  0  0
   -0.5550   19.3800  -27.6650 C   0  0  0  0  0  0  0  0  0  0  0  0
   -0.4290   20.5880  -28.3790 C   0  0  0  0  0  0  0  0  0  0  0  0
   -1.5070   21.4820  -28.4680 C   0  0  0  0  0  0  0  0  0  0  0  0
   -1.3650   22.7630  -29.2470 C   0  0  0  0  0  0  0  0  0  0  0  0
   -1.9250   23.9670  -28.4800 C   0  0  0  0  0  0  0  0  0  0  0  0
   -2.5130   24.9430  -29.3970 N   0  0  0  0  0  0  0  0  0  0  0  0
   -3.5390   24.7040  -30.3690 C   0  0  0  0  0  0  0  0  0  0  0  0
   -4.2030   25.6820  -30.7980 O   0  0  0  0  0  0  0  0  0  0  0  0
   -3.8510   23.3930  -30.8600 N   0  0  0  0  0  0  0  0  0  0  0  0
   -5.1370   22.9220  -31.2850 C   0  0  0  0  0  0  0  0  0  0  0  0
   -6.2630   23.6440  -30.8660 C   0  0  0  0  0  0  0  0  0  0  0  0
   -7.5490   23.2050  -31.1770 C   0  0  0  0  0  0  0  0  0  0  0  0
   -7.7250   22.0440  -31.9270 C   0  0  0  0  0  0  0  0  0  0  0  0
   -6.6160   21.3440  -32.4030 C   0  0  0  0  0  0  0  0  0  0  0  0
   -5.3070   21.7920  -32.1340 C   0  0  0  0  0  0  0  0  0  0  0  0
   -4.1410   21.0600  -32.7670 C   0  0  0  0  0  0  0  0  0  0  0  0
   -4.5890   20.0790  -33.6370 F   0  0  0  0  0  0  0  0  0  0  0  0
   -3.3510   21.9280  -33.4990 F   0  0  0  0  0  0  0  0  0  0  0  0
   -3.3790   20.4550  -31.7860 F   0  0  0  0  0  0  0  0  0  0  0  0
   -2.7210   21.1600  -27.8450 C   0  0  0  0  0  0  0  0  0  0  0  0
   -2.8560   19.9630  -27.1420 C   0  0  0  0  0  0  0  0  0  0  0  0
   -1.7810   19.0720  -27.0470 C   0  0  0  0  0  0  0  0  0  0  0  0
   -1.9520   17.8850  -26.3370 O   0  0  0  0  0  0  0  0  0  0  0  0
    1.9629   17.1979  -28.2970 H   0  0  0  0  0  0  0  0  0  0  0  0
    0.4609   17.3152  -29.2752 H   0  0  0  0  0  0  0  0  0  0  0  0
    1.6408   18.6696  -29.2752 H   0  0  0  0  0  0  0  0  0  0  0  0
    0.5237   20.8328  -28.8715 H   0  0  0  0  0  0  0  0  0  0  0  0
   -0.2985   22.9375  -29.4522 H   0  0  0  0  0  0  0  0  0  0  0  0
   -1.9379   22.6584  -30.1802 H   0  0  0  0  0  0  0  0  0  0  0  0
   -2.6987   23.6195  -27.7795 H   0  0  0  0  0  0  0  0  0  0  0  0
   -1.1010   24.4499  -27.9342 H   0  0  0  0  0  0  0  0  0  0  0  0
   -6.1302   24.5683  -30.2846 H   0  0  0  0  0  0  0  0  0  0  0  0
   -8.4240   23.7746  -30.8306 H   0  0  0  0  0  0  0  0  0  0  0  0
   -8.7397   21.6789  -32.1441 H   0  0  0  0  0  0  0  0  0  0  0  0
   -6.7653   20.4299  -32.9964 H   0  0  0  0  0  0  0  0  0  0  0  0
   -3.5712   21.8548  -27.9110 H   0  0  0  0  0  0  0  0  0  0  0  0
   -3.8135   19.7177  -26.6592 H   0  0  0  0  0  0  0  0  0  0  0  0
   -1.2130   17.1980  -26.2470 H   0  0  0  0  0  0  0  0  0  0  0  0
  1  2  1  0
  2  3  1  0
  3  4  2  0
  4  5  1  0
  5  6  1  0
  6  7  1  0
  7  8  1  0
  8  9  1  0
  9 10  2  0
  9 11  1  0
 11 12  1  0
 12 13  2  0
 13 14  1  0
 14 15  2  0
 15 16  1  0
 16 17  2  0
 17 18  1  0
 18 19  1  0
 18 20  1  0
 18 21  1  0
  5 22  2  0
 22 23  1  0
 23 24  2  0
 24 25  1  0
 24  3  1  0
 17 12  1  0
  1 26  1  0
  1 27  1  0
  1 28  1  0
  4 29  1  0
  6 30  1  0
  6 31  1  0
  7 32  1  0
  7 33  1  0
 13 34  1  0
 14 35  1  0
 15 36  1  0
 16 37  1  0
 22 38  1  0
 23 39  1  0
 25 40  1  0
M  CHG  2   8  -1  11  -1
M  END
>  <UniqueID>  (44) 
43

>  <SMILES>  (44) 
COc1cc(CC[N-]C(=O)[N-]c2ccccc2C(F)(F)F)ccc1O

>  <Energy>  (44) 
46.72536997493554

>  <Genealogy>  (44) 
COc1cc(CC[N-]C(=O)[N-]c2ccccc2C(F)(F)F)ccc1O (protonated)
COc1cc(CC[N-]C(=O)[N-]c2ccccc2C(F)(F)F)ccc1O (3D coordinates assigned)
COc1cc(CC[N-]C(=O)[N-]c2ccccc2C(F)(F)F)ccc1O (optimized conformer: 46.72536997493554 kcal/mol)

>  <smiles>  (44) 
COc1cc(CCNC(=O)Nc2ccccc2C(F)(F)F)ccc1O

>  <score_type>  (44) 
oracle

>  <origin>  (44) 
adgpu

>  <m_score__min__energy>  (44) 
-9.8000000000000007

>  <m_primary>  (44) 
energy

$$$$
44:0
     RDKit          3D

 76 80  0  0  0  0  0  0  0  0999 V2000
    0.1220   17.0170  -36.9240 N   0  0  0  0  0  0  0  0  0  0  0  0
    1.2640   16.7260  -36.1080 C   0  0  0  0  0  0  0  0  0  0  0  0
    2.5430   16.7750  -36.6860 C   0  0  0  0  0  0  0  0  0  0  0  0
    3.6820   16.5420  -35.9130 C   0  0  0  0  0  0  0  0  0  0  0  0
    3.5560   16.2540  -34.5530 C   0  0  0  0  0  0  0  0  0  0  0  0
    2.2920   16.1890  -33.9660 C   0  0  0  0  0  0  0  0  0  0  0  0
    1.1330   16.4280  -34.7300 C   0  0  0  0  0  0  0  0  0  0  0  0
   -0.1630   16.2990  -34.1200 N   0  0  0  0  0  0  0  0  0  0  0  0
   -1.2510   15.5960  -34.7480 C   0  0  0  0  0  0  0  0  0  0  0  0
   -1.0020   14.7310  -35.6330 O   0  0  0  0  0  0  0  0  0  0  0  0
   -2.6600   15.8580  -34.3600 C   0  0  0  0  0  0  0  0  0  0  0  0
   -3.5650   16.4500  -35.2610 C   0  0  0  0  0  0  0  0  0  0  0  0
   -4.8950   16.6700  -34.8890 C   0  0  0  0  0  0  0  0  0  0  0  0
   -5.3510   16.2940  -33.6160 C   0  0  0  0  0  0  0  0  0  0  0  0
   -6.7910   16.5340  -33.2180 C   0  0  0  0  0  0  0  0  0  0  0  0
   -7.0770   17.9380  -32.8430 N   0  0  0  0  0  0  0  0  0  0  0  0
   -5.9110   18.8230  -33.0360 C   0  0  0  0  0  0  0  0  0  0  0  0
   -6.2880   20.1490  -33.7270 C   0  0  0  0  0  0  0  0  0  0  0  0
   -7.3820   20.9540  -32.9820 C   0  0  0  0  0  0  0  0  0  0  0  0
   -7.6240   20.5880  -31.5560 N   0  0  0  0  0  0  0  0  0  0  0  0
   -8.0270   21.7390  -30.7170 C   0  0  0  0  0  0  0  0  0  0  0  0
   -6.9200   22.7580  -30.6800 C   0  0  0  0  0  0  0  0  0  0  0  0
   -7.2150   24.1000  -30.3990 C   0  0  0  0  0  0  0  0  0  0  0  0
   -6.1950   25.0510  -30.3480 C   0  0  0  0  0  0  0  0  0  0  0  0
   -4.8660   24.6700  -30.5580 C   0  0  0  0  0  0  0  0  0  0  0  0
   -3.8640   25.6340  -30.5100 O   0  0  0  0  0  0  0  0  0  0  0  0
   -4.5500   23.3220  -30.8130 C   0  0  0  0  0  0  0  0  0  0  0  0
   -3.1240   22.9000  -31.0560 C   0  0  0  0  0  0  0  0  0  0  0  0
   -3.0770   21.5290  -31.5990 N   0  0  0  0  0  0  0  0  0  0  0  0
   -3.3230   21.5170  -33.0430 C   0  0  0  0  0  0  0  0  0  0  0  0
   -2.6460   20.2730  -33.5910 C   0  0  0  0  0  0  0  0  0  0  0  0
   -1.5910   19.9040  -32.5620 C   0  0  0  0  0  0  0  0  0  0  0  0
   -1.7640   20.8980  -31.4230 C   0  0  0  0  0  0  0  0  0  0  0  0
   -5.5860   22.3730  -30.8820 C   0  0  0  0  0  0  0  0  0  0  0  0
   -8.4360   19.3760  -31.2970 C   0  0  0  0  0  0  0  0  0  0  0  0
   -7.6690   18.0520  -31.4950 C   0  0  0  0  0  0  0  0  0  0  0  0
   -4.4570   15.6830  -32.7230 C   0  0  0  0  0  0  0  0  0  0  0  0
   -3.1250   15.4710  -33.0890 C   0  0  0  0  0  0  0  0  0  0  0  0
    0.0410   17.9390  -37.4110 H   0  0  0  0  0  0  0  0  0  0  0  0
   -0.6870   16.3650  -37.0050 H   0  0  0  0  0  0  0  0  0  0  0  0
    2.6483   16.9991  -37.7578 H   0  0  0  0  0  0  0  0  0  0  0  0
    4.6790   16.5854  -36.3758 H   0  0  0  0  0  0  0  0  0  0  0  0
    4.4545   16.0781  -33.9433 H   0  0  0  0  0  0  0  0  0  0  0  0
    2.1996   15.9489  -32.8965 H   0  0  0  0  0  0  0  0  0  0  0  0
   -0.3110   16.7030  -33.1690 H   0  0  0  0  0  0  0  0  0  0  0  0
   -3.2236   16.7417  -36.2651 H   0  0  0  0  0  0  0  0  0  0  0  0
   -5.5894   17.1416  -35.5999 H   0  0  0  0  0  0  0  0  0  0  0  0
   -7.4361   16.2625  -34.0666 H   0  0  0  0  0  0  0  0  0  0  0  0
   -6.9868   15.9166  -32.3289 H   0  0  0  0  0  0  0  0  0  0  0  0
   -5.4725   19.0491  -32.0529 H   0  0  0  0  0  0  0  0  0  0  0  0
   -5.1950   18.2979  -33.6854 H   0  0  0  0  0  0  0  0  0  0  0  0
   -5.3848   20.7731  -33.7959 H   0  0  0  0  0  0  0  0  0  0  0  0
   -6.6977   19.8902  -34.7145 H   0  0  0  0  0  0  0  0  0  0  0  0
   -7.0934   22.0151  -33.0102 H   0  0  0  0  0  0  0  0  0  0  0  0
   -8.3212   20.7214  -33.5053 H   0  0  0  0  0  0  0  0  0  0  0  0
   -8.9324   22.1991  -31.1395 H   0  0  0  0  0  0  0  0  0  0  0  0
   -8.2309   21.3882  -29.6945 H   0  0  0  0  0  0  0  0  0  0  0  0
   -8.2563   24.4047  -30.2178 H   0  0  0  0  0  0  0  0  0  0  0  0
   -6.4372   26.1040  -30.1419 H   0  0  0  0  0  0  0  0  0  0  0  0
   -2.6596   23.5905  -31.7754 H   0  0  0  0  0  0  0  0  0  0  0  0
   -2.5780   22.9238  -30.1014 H   0  0  0  0  0  0  0  0  0  0  0  0
   -4.4040   21.4795  -33.2430 H   0  0  0  0  0  0  0  0  0  0  0  0
   -2.9262   22.4256  -33.5194 H   0  0  0  0  0  0  0  0  0  0  0  0
   -3.3745   19.4568  -33.7056 H   0  0  0  0  0  0  0  0  0  0  0  0
   -2.2064   20.4492  -34.5838 H   0  0  0  0  0  0  0  0  0  0  0  0
   -1.7486   18.8766  -32.2021 H   0  0  0  0  0  0  0  0  0  0  0  0
   -0.5771   19.9444  -32.9866 H   0  0  0  0  0  0  0  0  0  0  0  0
   -1.7228   20.3752  -30.4560 H   0  0  0  0  0  0  0  0  0  0  0  0
   -0.9622   21.6510  -31.4344 H   0  0  0  0  0  0  0  0  0  0  0  0
   -5.3484   21.3205  -31.0961 H   0  0  0  0  0  0  0  0  0  0  0  0
   -8.7948   19.4157  -30.2579 H   0  0  0  0  0  0  0  0  0  0  0  0
   -9.2568   19.3806  -32.0293 H   0  0  0  0  0  0  0  0  0  0  0  0
   -6.8621   17.9968  -30.7494 H   0  0  0  0  0  0  0  0  0  0  0  0
   -8.3877   17.2280  -31.3746 H   0  0  0  0  0  0  0  0  0  0  0  0
   -4.8070   15.3690  -31.7286 H   0  0  0  0  0  0  0  0  0  0  0  0
   -2.4333   14.9971  -32.3770 H   0  0  0  0  0  0  0  0  0  0  0  0
  1  2  1  0
  2  3  2  0
  3  4  1  0
  4  5  2  0
  5  6  1  0
  6  7  2  0
  7  8  1  0
  8  9  1  0
  9 10  2  0
  9 11  1  0
 11 12  2  0
 12 13  1  0
 13 14  2  0
 14 15  1  0
 15 16  1  0
 16 17  1  0
 17 18  1  0
 18 19  1  0
 19 20  1  0
 20 21  1  0
 21 22  1  0
 22 23  2  0
 23 24  1  0
 24 25  2  0
 25 26  1  0
 25 27  1  0
 27 28  1  0
 28 29  1  0
 29 30  1  0
 30 31  1  0
 31 32  1  0
 32 33  1  0
 27 34  2  0
 20 35  1  0
 35 36  1  0
 14 37  1  0
 37 38  2  0
  7  2  1  0
 38 11  1  0
 36 16  1  0
 34 22  1  0
 33 29  1  0
  1 39  1  0
  1 40  1  0
  3 41  1  0
  4 42  1  0
  5 43  1  0
  6 44  1  0
  8 45  1  0
 12 46  1  0
 13 47  1  0
 15 48  1  0
 15 49  1  0
 17 50  1  0
 17 51  1  0
 18 52  1  0
 18 53  1  0
 19 54  1  0
 19 55  1  0
 21 56  1  0
 21 57  1  0
 23 58  1  0
 24 59  1  0
 28 60  1  0
 28 61  1  0
 30 62  1  0
 30 63  1  0
 31 64  1  0
 31 65  1  0
 32 66  1  0
 32 67  1  0
 33 68  1  0
 33 69  1  0
 34 70  1  0
 35 71  1  0
 35 72  1  0
 36 73  1  0
 36 74  1  0
 37 75  1  0
 38 76  1  0
M  CHG  1  26  -1
M  END
>  <UniqueID>  (45) 
44

>  <SMILES>  (45) 
Nc1ccccc1NC(=O)c1ccc(CN2CCCN(Cc3ccc([O-])c(CN4CCCC4)c3)CC2)cc1

>  <Energy>  (45) 
108.52835098093354

>  <Genealogy>  (45) 
Nc1ccccc1NC(=O)c1ccc(CN2CCCN(Cc3ccc([O-])c(CN4CCCC4)c3)CC2)cc1 (protonated)
Nc1ccccc1NC(=O)c1ccc(CN2CCCN(Cc3ccc([O-])c(CN4CCCC4)c3)CC2)cc1 (3D coordinates assigned)
Nc1ccccc1NC(=O)c1ccc(CN2CCCN(Cc3ccc([O-])c(CN4CCCC4)c3)CC2)cc1 (nonaromatic ring conformer: 108.52835098093354 kcal/mol)

>  <smiles>  (45) 
Nc1ccccc1NC(=O)c1ccc(CN2CCCN(Cc3ccc(O)c(CN4CCCC4)c3)CC2)cc1

>  <score_type>  (45) 
oracle

>  <origin>  (45) 
adgpu

>  <m_score__min__energy>  (45) 
-10.98

>  <m_primary>  (45) 
energy

$$$$
45:0
     RDKit          3D

 45 48  0  0  0  0  0  0  0  0999 V2000
    1.9900   18.1570  -29.9190 C   0  0  0  0  0  0  0  0  0  0  0  0
    1.7230   19.3940  -30.6590 N   0  0  0  0  0  0  0  0  0  0  0  0
    1.3320   19.1240  -32.0490 C   0  0  0  0  0  0  0  0  0  0  0  0
   -0.1420   19.3100  -32.2660 C   0  0  0  0  0  0  0  0  0  0  0  0
   -0.9490   19.9000  -31.3460 N   0  0  0  0  0  0  0  0  0  0  0  0
   -2.1520   19.8380  -31.9340 C   0  0  0  0  0  0  0  0  0  0  0  0
   -3.3710   20.2950  -31.4340 C   0  0  0  0  0  0  0  0  0  0  0  0
   -3.4190   20.9040  -30.1720 O   0  0  0  0  0  0  0  0  0  0  0  0
   -2.9060   22.1730  -29.8720 C   0  0  0  0  0  0  0  0  0  0  0  0
   -3.6010   23.2900  -30.3540 C   0  0  0  0  0  0  0  0  0  0  0  0
   -3.1650   24.5830  -30.0550 C   0  0  0  0  0  0  0  0  0  0  0  0
   -3.8760   25.6790  -30.5290 O   0  0  0  0  0  0  0  0  0  0  0  0
   -2.0180   24.7710  -29.2810 C   0  0  0  0  0  0  0  0  0  0  0  0
   -1.5840   26.0560  -28.9740 O   0  0  0  0  0  0  0  0  0  0  0  0
   -1.2980   23.6670  -28.8160 C   0  0  0  0  0  0  0  0  0  0  0  0
   -1.7130   22.3590  -29.1260 C   0  0  0  0  0  0  0  0  0  0  0  0
   -0.8760   21.2250  -28.6670 C   0  0  0  0  0  0  0  0  0  0  0  0
    0.3200   21.1610  -29.0600 O   0  0  0  0  0  0  0  0  0  0  0  0
   -1.4000   20.1550  -27.7820 C   0  0  0  0  0  0  0  0  0  0  0  0
   -0.6680   18.9750  -27.5550 C   0  0  0  0  0  0  0  0  0  0  0  0
   -1.1750   17.9780  -26.7160 C   0  0  0  0  0  0  0  0  0  0  0  0
   -2.4100   18.1520  -26.0870 C   0  0  0  0  0  0  0  0  0  0  0  0
   -3.1450   19.3200  -26.3030 C   0  0  0  0  0  0  0  0  0  0  0  0
   -2.6440   20.3190  -27.1420 C   0  0  0  0  0  0  0  0  0  0  0  0
   -4.5130   20.1250  -32.2520 C   0  0  0  0  0  0  0  0  0  0  0  0
   -4.4050   19.4870  -33.5080 C   0  0  0  0  0  0  0  0  0  0  0  0
   -3.1570   19.0230  -33.9660 C   0  0  0  0  0  0  0  0  0  0  0  0
   -2.0510   19.2240  -33.1450 C   0  0  0  0  0  0  0  0  0  0  0  0
   -0.7800   18.8730  -33.3830 N   0  0  0  0  0  0  0  0  0  0  0  0
    1.9463   18.3593  -28.8387 H   0  0  0  0  0  0  0  0  0  0  0  0
    1.2341   17.4022  -30.1815 H   0  0  0  0  0  0  0  0  0  0  0  0
    2.9899   17.7812  -30.1815 H   0  0  0  0  0  0  0  0  0  0  0  0
    0.9540   19.9170  -30.1760 H   0  0  0  0  0  0  0  0  0  0  0  0
    1.8779   19.8120  -32.7113 H   0  0  0  0  0  0  0  0  0  0  0  0
    1.5784   18.0757  -32.2733 H   0  0  0  0  0  0  0  0  0  0  0  0
   -4.4985   23.1474  -30.9738 H   0  0  0  0  0  0  0  0  0  0  0  0
   -0.3986   23.8223  -28.2020 H   0  0  0  0  0  0  0  0  0  0  0  0
    0.3092   18.8360  -28.0406 H   0  0  0  0  0  0  0  0  0  0  0  0
   -0.6002   17.0548  -26.5509 H   0  0  0  0  0  0  0  0  0  0  0  0
   -2.8036   17.3694  -25.4217 H   0  0  0  0  0  0  0  0  0  0  0  0
   -4.1201   19.4537  -25.8117 H   0  0  0  0  0  0  0  0  0  0  0  0
   -3.2247   21.2391  -27.3036 H   0  0  0  0  0  0  0  0  0  0  0  0
   -5.4912   20.4919  -31.9078 H   0  0  0  0  0  0  0  0  0  0  0  0
   -5.3010   19.3520  -34.1316 H   0  0  0  0  0  0  0  0  0  0  0  0
   -3.0594   18.5191  -34.9389 H   0  0  0  0  0  0  0  0  0  0  0  0
  1  2  1  0
  2  3  1  0
  3  4  1  0
  4  5  2  0
  5  6  1  0
  6  7  2  0
  7  8  1  0
  8  9  1  0
  9 10  2  0
 10 11  1  0
 11 12  1  0
 11 13  2  0
 13 14  1  0
 13 15  1  0
 15 16  2  0
 16 17  1  0
 17 18  2  0
 17 19  1  0
 19 20  2  0
 20 21  1  0
 21 22  2  0
 22 23  1  0
 23 24  2  0
  7 25  1  0
 25 26  2  0
 26 27  1  0
 27 28  2  0
 28 29  1  0
 29  4  1  0
 28  6  1  0
 16  9  1  0
 24 19  1  0
  1 30  1  0
  1 31  1  0
  1 32  1  0
  2 33  1  0
  3 34  1  0
  3 35  1  0
 10 36  1  0
 15 37  1  0
 20 38  1  0
 21 39  1  0
 22 40  1  0
 23 41  1  0
 24 42  1  0
 25 43  1  0
 26 44  1  0
 27 45  1  0
M  CHG  3  12  -1  14  -1  29  -1
M  END
>  <UniqueID>  (46) 
45

>  <SMILES>  (46) 
CNCc1nc2c(Oc3cc([O-])c([O-])cc3C(=O)c3ccccc3)cccc2[n-]1

>  <Energy>  (46) 
93.01334821011307

>  <Genealogy>  (46) 
CNCc1nc2c(Oc3cc([O-])c([O-])cc3C(=O)c3ccccc3)cccc2[n-]1 (protonated)
CNCc1nc2c(Oc3cc([O-])c([O-])cc3C(=O)c3ccccc3)cccc2[n-]1 (3D coordinates assigned)
CNCc1nc2c(Oc3cc([O-])c([O-])cc3C(=O)c3ccccc3)cccc2[n-]1 (optimized conformer: 93.01334821011307 kcal/mol)

>  <smiles>  (46) 
CNCc1nc2c(Oc3cc(O)c(O)cc3C(=O)c3ccccc3)cccc2[nH]1

>  <score_type>  (46) 
oracle

>  <origin>  (46) 
adgpu

>  <m_score__min__energy>  (46) 
-14.15

>  <m_primary>  (46) 
energy

$$$$
46:0
     RDKit          3D

 57 60  0  0  0  0  0  0  0  0999 V2000
   -4.9960   24.0270  -31.5690 O   0  0  0  0  0  0  0  0  0  0  0  0
   -5.6930   23.3860  -30.7340 C   0  0  0  0  0  0  0  0  0  0  0  0
   -5.4150   23.5140  -29.3290 N   0  0  0  0  0  0  0  0  0  0  0  0
   -4.1440   23.9340  -28.8030 C   0  0  0  0  0  0  0  0  0  0  0  0
   -4.0700   24.4270  -27.4910 C   0  0  0  0  0  0  0  0  0  0  0  0
   -2.8440   24.8260  -26.9530 C   0  0  0  0  0  0  0  0  0  0  0  0
   -1.6720   24.7290  -27.7140 C   0  0  0  0  0  0  0  0  0  0  0  0
   -0.1260   25.2490  -27.0430 S   0  0  0  0  0  0  0  0  0  0  0  0
   -0.0250   26.7440  -27.1620 O   0  0  0  0  0  0  0  0  0  0  0  0
    0.9900   24.6490  -27.8520 O   0  0  0  0  0  0  0  0  0  0  0  0
    0.0670   24.7910  -25.3630 N   0  0  0  0  0  0  0  0  0  0  0  0
    1.4730   24.8650  -24.9070 C   0  0  0  0  0  0  0  0  0  0  0  0
    1.7630   26.1180  -24.0650 C   0  0  0  0  0  0  0  0  0  0  0  0
    0.9310   27.1820  -24.4620 O   0  0  0  0  0  0  0  0  0  0  0  0
   -0.4030   26.9120  -24.0810 C   0  0  0  0  0  0  0  0  0  0  0  0
   -0.8780   25.4920  -24.4730 C   0  0  0  0  0  0  0  0  0  0  0  0
   -1.7360   24.2060  -29.0140 C   0  0  0  0  0  0  0  0  0  0  0  0
   -2.9620   23.8090  -29.5540 C   0  0  0  0  0  0  0  0  0  0  0  0
   -6.8180   22.5480  -31.2130 C   0  0  0  0  0  0  0  0  0  0  0  0
   -8.0690   23.1200  -31.5090 C   0  0  0  0  0  0  0  0  0  0  0  0
   -9.1280   22.3200  -31.9480 C   0  0  0  0  0  0  0  0  0  0  0  0
   -8.9540   20.9420  -32.0920 C   0  0  0  0  0  0  0  0  0  0  0  0
   -7.7180   20.3550  -31.7990 C   0  0  0  0  0  0  0  0  0  0  0  0
   -7.5240   18.6110  -31.9630 S   0  0  0  0  0  0  0  0  0  0  0  0
   -8.8490   17.9250  -31.7790 O   0  0  0  0  0  0  0  0  0  0  0  0
   -6.5840   18.1350  -30.8910 O   0  0  0  0  0  0  0  0  0  0  0  0
   -6.8590   18.2400  -33.5400 N   0  0  0  0  0  0  0  0  0  0  0  0
   -5.8900   17.1430  -33.4460 C   0  0  0  0  0  0  0  0  0  0  0  0
   -4.5050   17.7490  -33.2700 C   0  0  0  0  0  0  0  0  0  0  0  0
   -4.6420   19.2040  -33.6740 C   0  0  0  0  0  0  0  0  0  0  0  0
   -6.1030   19.3850  -34.0600 C   0  0  0  0  0  0  0  0  0  0  0  0
   -6.6560   21.1570  -31.3550 C   0  0  0  0  0  0  0  0  0  0  0  0
   -6.2090   23.4050  -28.6590 H   0  0  0  0  0  0  0  0  0  0  0  0
   -4.9834   24.4997  -26.8823 H   0  0  0  0  0  0  0  0  0  0  0  0
   -2.7988   25.2184  -25.9264 H   0  0  0  0  0  0  0  0  0  0  0  0
    1.6922   23.9749  -24.2990 H   0  0  0  0  0  0  0  0  0  0  0  0
    2.1088   24.9148  -25.8033 H   0  0  0  0  0  0  0  0  0  0  0  0
    1.5800   25.8917  -23.0042 H   0  0  0  0  0  0  0  0  0  0  0  0
    2.8124   26.4120  -24.2143 H   0  0  0  0  0  0  0  0  0  0  0  0
   -0.4819   27.0171  -22.9889 H   0  0  0  0  0  0  0  0  0  0  0  0
   -1.0448   27.6284  -24.6147 H   0  0  0  0  0  0  0  0  0  0  0  0
   -1.0008   24.8981  -23.5553 H   0  0  0  0  0  0  0  0  0  0  0  0
   -1.8249   25.6026  -25.0217 H   0  0  0  0  0  0  0  0  0  0  0  0
   -0.8172   24.1080  -29.6108 H   0  0  0  0  0  0  0  0  0  0  0  0
   -3.0027   23.3962  -30.5728 H   0  0  0  0  0  0  0  0  0  0  0  0
   -8.2147   24.2042  -31.3942 H   0  0  0  0  0  0  0  0  0  0  0  0
  -10.1010   22.7773  -32.1806 H   0  0  0  0  0  0  0  0  0  0  0  0
   -9.7906   20.3164  -32.4366 H   0  0  0  0  0  0  0  0  0  0  0  0
   -6.1307   16.5059  -32.5822 H   0  0  0  0  0  0  0  0  0  0  0  0
   -5.9232   16.5263  -34.3563 H   0  0  0  0  0  0  0  0  0  0  0  0
   -4.1820   17.6705  -32.2214 H   0  0  0  0  0  0  0  0  0  0  0  0
   -3.7520   17.2269  -33.8786 H   0  0  0  0  0  0  0  0  0  0  0  0
   -4.3828   19.8625  -32.8319 H   0  0  0  0  0  0  0  0  0  0  0  0
   -3.9667   19.4618  -34.5032 H   0  0  0  0  0  0  0  0  0  0  0  0
   -6.4910   20.3170  -33.6231 H   0  0  0  0  0  0  0  0  0  0  0  0
   -6.2031   19.4416  -35.1540 H   0  0  0  0  0  0  0  0  0  0  0  0
   -5.6872   20.6943  -31.1155 H   0  0  0  0  0  0  0  0  0  0  0  0
  1  2  2  0
  2  3  1  0
  3  4  1  0
  4  5  2  0
  5  6  1  0
  6  7  2  0
  7  8  1  0
  8  9  2  0
  8 10  2  0
  8 11  1  0
 11 12  1  0
 12 13  1  0
 13 14  1  0
 14 15  1  0
 15 16  1  0
  7 17  1  0
 17 18  2  0
  2 19  1  0
 19 20  2  0
 20 21  1  0
 21 22  2  0
 22 23  1  0
 23 24  1  0
 24 25  2  0
 24 26  2  0
 24 27  1  0
 27 28  1  0
 28 29  1  0
 29 30  1  0
 30 31  1  0
 23 32  2  0
 18  4  1  0
 32 19  1  0
 16 11  1  0
 31 27  1  0
  3 33  1  0
  5 34  1  0
  6 35  1  0
 12 36  1  0
 12 37  1  0
 13 38  1  0
 13 39  1  0
 15 40  1  0
 15 41  1  0
 16 42  1  0
 16 43  1  0
 17 44  1  0
 18 45  1  0
 20 46  1  0
 21 47  1  0
 22 48  1  0
 28 49  1  0
 28 50  1  0
 29 51  1  0
 29 52  1  0
 30 53  1  0
 30 54  1  0
 31 55  1  0
 31 56  1  0
 32 57  1  0
M  END
>  <UniqueID>  (47) 
46

>  <SMILES>  (47) 
O=C(Nc1ccc(S(=O)(=O)N2CCOCC2)cc1)c1cccc(S(=O)(=O)N2CCCC2)c1

>  <Energy>  (47) 
76.18343366740451

>  <Genealogy>  (47) 
O=C(Nc1ccc(S(=O)(=O)N2CCOCC2)cc1)c1cccc(S(=O)(=O)N2CCCC2)c1 (3D coordinates assigned)
O=C(Nc1ccc(S(=O)(=O)N2CCOCC2)cc1)c1cccc(S(=O)(=O)N2CCCC2)c1 (nonaromatic ring conformer: 76.18343366740451 kcal/mol)

>  <smiles>  (47) 
O=C(Nc1ccc(S(=O)(=O)N2CCOCC2)cc1)c1cccc(S(=O)(=O)N2CCCC2)c1

>  <score_type>  (47) 
oracle

>  <origin>  (47) 
adgpu

>  <m_score__min__energy>  (47) 
-11.369999999999999

>  <m_primary>  (47) 
energy

$$$$
47:0
     RDKit          3D

 29 30  0  0  0  0  0  0  0  0999 V2000
    1.7470   20.8610  -27.5600 O   0  0  0  0  0  0  0  0  0  0  0  0
    0.5330   20.8100  -27.8950 C   0  0  0  0  0  0  0  0  0  0  0  0
   -0.0900   19.5700  -27.9770 O   0  0  0  0  0  0  0  0  0  0  0  0
   -0.2180   22.0490  -28.1990 C   0  0  0  0  0  0  0  0  0  0  0  0
    0.0500   23.2300  -27.4900 C   0  0  0  0  0  0  0  0  0  0  0  0
   -0.6570   24.4000  -27.7730 C   0  0  0  0  0  0  0  0  0  0  0  0
   -1.6420   24.4120  -28.7630 C   0  0  0  0  0  0  0  0  0  0  0  0
   -2.3280   25.6010  -29.0120 O   0  0  0  0  0  0  0  0  0  0  0  0
   -1.9280   23.2370  -29.4840 C   0  0  0  0  0  0  0  0  0  0  0  0
   -2.9520   23.2660  -30.4910 N   0  0  0  0  0  0  0  0  0  0  0  0
   -4.4770   24.0820  -30.3540 S   0  0  0  0  0  0  0  0  0  0  0  0
   -4.7140   24.4430  -28.9150 O   0  0  0  0  0  0  0  0  0  0  0  0
   -4.4350   25.3400  -31.1750 O   0  0  0  0  0  0  0  0  0  0  0  0
   -5.7770   23.0260  -30.8970 C   0  0  0  0  0  0  0  0  0  0  0  0
   -5.5790   22.1800  -31.9960 C   0  0  0  0  0  0  0  0  0  0  0  0
   -6.6140   21.3520  -32.4420 C   0  0  0  0  0  0  0  0  0  0  0  0
   -7.8510   21.3630  -31.7880 C   0  0  0  0  0  0  0  0  0  0  0  0
   -9.1490   20.3260  -32.3490 Cl  0  0  0  0  0  0  0  0  0  0  0  0
   -8.0510   22.2020  -30.6870 C   0  0  0  0  0  0  0  0  0  0  0  0
   -7.0170   23.0320  -30.2410 C   0  0  0  0  0  0  0  0  0  0  0  0
   -1.2070   22.0620  -29.1990 C   0  0  0  0  0  0  0  0  0  0  0  0
    0.8220   23.2339  -26.7064 H   0  0  0  0  0  0  0  0  0  0  0  0
   -0.4365   25.3199  -27.2117 H   0  0  0  0  0  0  0  0  0  0  0  0
   -3.0490   25.6750  -29.7190 H   0  0  0  0  0  0  0  0  0  0  0  0
   -4.6064   22.1670  -32.5097 H   0  0  0  0  0  0  0  0  0  0  0  0
   -6.4556   20.6917  -33.3074 H   0  0  0  0  0  0  0  0  0  0  0  0
   -9.0225   22.2092  -30.1712 H   0  0  0  0  0  0  0  0  0  0  0  0
   -7.1765   23.6905  -29.3744 H   0  0  0  0  0  0  0  0  0  0  0  0
   -1.4196   21.1431  -29.7651 H   0  0  0  0  0  0  0  0  0  0  0  0
  1  2  2  0
  2  3  1  0
  2  4  1  0
  4  5  2  0
  5  6  1  0
  6  7  2  0
  7  8  1  0
  7  9  1  0
  9 10  1  0
 10 11  1  0
 11 12  2  0
 11 13  2  0
 11 14  1  0
 14 15  2  0
 15 16  1  0
 16 17  2  0
 17 18  1  0
 17 19  1  0
 19 20  2  0
  9 21  2  0
 21  4  1  0
 20 14  1  0
  5 22  1  0
  6 23  1  0
  8 24  1  0
 15 25  1  0
 16 26  1  0
 19 27  1  0
 20 28  1  0
 21 29  1  0
M  CHG  2   3  -1  10  -1
M  END
>  <UniqueID>  (48) 
47

>  <SMILES>  (48) 
O=C([O-])c1ccc(O)c([N-]S(=O)(=O)c2ccc(Cl)cc2)c1

>  <Energy>  (48) 
33.680889268141364

>  <Genealogy>  (48) 
O=C([O-])c1ccc(O)c([N-]S(=O)(=O)c2ccc(Cl)cc2)c1 (protonated)
O=C([O-])c1ccc(O)c([N-]S(=O)(=O)c2ccc(Cl)cc2)c1 (3D coordinates assigned)
O=C([O-])c1ccc(O)c([N-]S(=O)(=O)c2ccc(Cl)cc2)c1 (optimized conformer: 33.680889268141364 kcal/mol)

>  <smiles>  (48) 
O=C(O)c1ccc(O)c(NS(=O)(=O)c2ccc(Cl)cc2)c1

>  <score_type>  (48) 
oracle

>  <origin>  (48) 
adgpu

>  <m_score__min__energy>  (48) 
-10.16

>  <m_primary>  (48) 
energy

$$$$
48:0
     RDKit          3D

 52 54  0  0  0  0  0  0  0  0999 V2000
    1.6830   26.2020  -23.9000 C   0  0  0  0  0  0  0  0  0  0  0  0
    0.3480   26.9390  -24.1490 C   0  0  0  0  0  0  0  0  0  0  0  0
   -0.5980   26.6050  -22.9700 C   0  0  0  0  0  0  0  0  0  0  0  0
    0.5930   28.4630  -24.1370 C   0  0  0  0  0  0  0  0  0  0  0  0
   -0.2220   26.5200  -25.5190 C   0  0  0  0  0  0  0  0  0  0  0  0
   -0.6350   25.1850  -25.7260 C   0  0  0  0  0  0  0  0  0  0  0  0
   -1.1570   24.7700  -26.9530 C   0  0  0  0  0  0  0  0  0  0  0  0
   -1.2970   25.6830  -28.0080 C   0  0  0  0  0  0  0  0  0  0  0  0
   -1.7990   25.2790  -29.2900 N   0  0  0  0  0  0  0  0  0  0  0  0
   -2.9330   24.4350  -29.5170 C   0  0  0  0  0  0  0  0  0  0  0  0
   -3.0290   23.3640  -28.8620 O   0  0  0  0  0  0  0  0  0  0  0  0
   -3.9280   24.7850  -30.4970 N   0  0  0  0  0  0  0  0  0  0  0  0
   -5.1190   24.0210  -30.7440 C   0  0  0  0  0  0  0  0  0  0  0  0
   -5.7410   24.1080  -31.9980 C   0  0  0  0  0  0  0  0  0  0  0  0
   -6.8900   23.3610  -32.2720 C   0  0  0  0  0  0  0  0  0  0  0  0
   -7.4240   22.5100  -31.2980 C   0  0  0  0  0  0  0  0  0  0  0  0
   -8.9040   21.5590  -31.6510 S   0  0  0  0  0  0  0  0  0  0  0  0
   -7.9720   20.1750  -32.3260 C   0  0  0  0  0  0  0  0  0  0  0  0
   -6.9910   20.4390  -33.2920 C   0  0  0  0  0  0  0  0  0  0  0  0
   -6.2600   19.3940  -33.8610 C   0  0  0  0  0  0  0  0  0  0  0  0
   -6.5000   18.0770  -33.4640 C   0  0  0  0  0  0  0  0  0  0  0  0
   -7.4670   17.8030  -32.4940 C   0  0  0  0  0  0  0  0  0  0  0  0
   -8.2070   18.8450  -31.9120 C   0  0  0  0  0  0  0  0  0  0  0  0
   -9.1770   18.5330  -30.9030 N   0  0  0  0  0  0  0  0  0  0  0  0
   -6.7900   22.3920  -30.0570 C   0  0  0  0  0  0  0  0  0  0  0  0
   -5.6400   23.1390  -29.7800 C   0  0  0  0  0  0  0  0  0  0  0  0
   -0.8650   26.9990  -27.8330 C   0  0  0  0  0  0  0  0  0  0  0  0
   -0.3420   27.4200  -26.6060 C   0  0  0  0  0  0  0  0  0  0  0  0
    1.8535   26.1079  -22.8174 H   0  0  0  0  0  0  0  0  0  0  0  0
    1.6389   25.2004  -24.3527 H   0  0  0  0  0  0  0  0  0  0  0  0
    2.5070   26.7730  -24.3527 H   0  0  0  0  0  0  0  0  0  0  0  0
   -0.0773   26.7888  -22.0187 H   0  0  0  0  0  0  0  0  0  0  0  0
   -1.4935   27.2413  -23.0268 H   0  0  0  0  0  0  0  0  0  0  0  0
   -0.8954   25.5475  -23.0268 H   0  0  0  0  0  0  0  0  0  0  0  0
    0.6499   28.8170  -23.0971 H   0  0  0  0  0  0  0  0  0  0  0  0
    1.5386   28.6864  -24.6527 H   0  0  0  0  0  0  0  0  0  0  0  0
   -0.2349   28.9715  -24.6527 H   0  0  0  0  0  0  0  0  0  0  0  0
   -0.5437   24.4585  -24.9051 H   0  0  0  0  0  0  0  0  0  0  0  0
   -1.4598   23.7218  -27.0925 H   0  0  0  0  0  0  0  0  0  0  0  0
   -3.8250   25.6890  -31.0090 H   0  0  0  0  0  0  0  0  0  0  0  0
   -5.3217   24.7686  -32.7711 H   0  0  0  0  0  0  0  0  0  0  0  0
   -7.3757   23.4422  -33.2556 H   0  0  0  0  0  0  0  0  0  0  0  0
   -6.7958   21.4757  -33.6037 H   0  0  0  0  0  0  0  0  0  0  0  0
   -5.4951   19.6084  -34.6219 H   0  0  0  0  0  0  0  0  0  0  0  0
   -5.9267   17.2541  -33.9158 H   0  0  0  0  0  0  0  0  0  0  0  0
   -7.6502   16.7637  -32.1838 H   0  0  0  0  0  0  0  0  0  0  0  0
   -9.5900   17.5760  -30.8430 H   0  0  0  0  0  0  0  0  0  0  0  0
   -9.4720   19.2300  -30.1850 H   0  0  0  0  0  0  0  0  0  0  0  0
   -7.1969   21.7096  -29.2962 H   0  0  0  0  0  0  0  0  0  0  0  0
   -5.1414   23.0363  -28.8049 H   0  0  0  0  0  0  0  0  0  0  0  0
   -0.9366   27.7115  -28.6680 H   0  0  0  0  0  0  0  0  0  0  0  0
   -0.0194   28.4645  -26.4836 H   0  0  0  0  0  0  0  0  0  0  0  0
  1  2  1  0
  2  3  1  0
  2  4  1  0
  2  5  1  0
  5  6  2  0
  6  7  1  0
  7  8  2  0
  8  9  1  0
  9 10  1  0
 10 11  2  0
 10 12  1  0
 12 13  1  0
 13 14  2  0
 14 15  1  0
 15 16  2  0
 16 17  1  0
 17 18  1  0
 18 19  2  0
 19 20  1  0
 20 21  2  0
 21 22  1  0
 22 23  2  0
 23 24  1  0
 16 25  1  0
 25 26  2  0
  8 27  1  0
 27 28  2  0
 28  5  1  0
 26 13  1  0
 23 18  1  0
  1 29  1  0
  1 30  1  0
  1 31  1  0
  3 32  1  0
  3 33  1  0
  3 34  1  0
  4 35  1  0
  4 36  1  0
  4 37  1  0
  6 38  1  0
  7 39  1  0
 12 40  1  0
 14 41  1  0
 15 42  1  0
 19 43  1  0
 20 44  1  0
 21 45  1  0
 22 46  1  0
 24 47  1  0
 24 48  1  0
 25 49  1  0
 26 50  1  0
 27 51  1  0
 28 52  1  0
M  CHG  1   9  -1
M  END
>  <UniqueID>  (49) 
48

>  <SMILES>  (49) 
CC(C)(C)c1ccc([N-]C(=O)Nc2ccc(Sc3ccccc3N)cc2)cc1

>  <Energy>  (49) 
59.54481752026787

>  <Genealogy>  (49) 
CC(C)(C)c1ccc([N-]C(=O)Nc2ccc(Sc3ccccc3N)cc2)cc1 (protonated)
CC(C)(C)c1ccc([N-]C(=O)Nc2ccc(Sc3ccccc3N)cc2)cc1 (3D coordinates assigned)
CC(C)(C)c1ccc([N-]C(=O)Nc2ccc(Sc3ccccc3N)cc2)cc1 (optimized conformer: 59.54481752026787 kcal/mol)

>  <smiles>  (49) 
CC(C)(C)c1ccc(NC(=O)Nc2ccc(Sc3ccccc3N)cc2)cc1

>  <score_type>  (49) 
oracle

>  <origin>  (49) 
adgpu

>  <m_score__min__energy>  (49) 
-10.93

>  <m_primary>  (49) 
energy

$$$$
