0:0
     RDKit          3D

 59 62  0  0  0  0  0  0  0  0999 V2000
   -4.7190   15.2530  -34.2920 C   0  0  0  0  0  0  0  0  0  0  0  0
   -5.6170   16.3320  -33.8430 N   0  0  0  0  0  0  0  0  0  0  0  0
   -5.5660   16.4640  -32.3710 C   0  0  0  0  0  0  0  0  0  0  0  0
   -6.3200   17.7160  -31.8730 C   0  0  0  0  0  0  0  0  0  0  0  0
   -7.0880   18.3320  -32.9670 N   0  0  0  0  0  0  0  0  0  0  0  0
   -8.0130   19.6890  -32.3690 S   0  0  0  0  0  0  0  0  0  0  0  0
   -9.0710   20.0640  -33.3680 O   0  0  0  0  0  0  0  0  0  0  0  0
   -8.6970   19.2900  -31.0910 O   0  0  0  0  0  0  0  0  0  0  0  0
   -6.9810   21.0870  -32.0620 C   0  0  0  0  0  0  0  0  0  0  0  0
   -7.5360   22.3760  -31.9730 C   0  0  0  0  0  0  0  0  0  0  0  0
   -6.7300   23.4660  -31.6250 C   0  0  0  0  0  0  0  0  0  0  0  0
   -5.3750   23.2660  -31.3340 C   0  0  0  0  0  0  0  0  0  0  0  0
   -4.5910   24.3290  -30.8830 O   0  0  0  0  0  0  0  0  0  0  0  0
   -3.9740   24.2770  -29.6320 C   0  0  0  0  0  0  0  0  0  0  0  0
   -4.7150   24.5230  -28.4640 C   0  0  0  0  0  0  0  0  0  0  0  0
   -4.0870   24.4360  -27.2220 C   0  0  0  0  0  0  0  0  0  0  0  0
   -2.7760   24.0790  -27.1500 N   0  0  0  0  0  0  0  0  0  0  0  0
   -2.0320   23.8320  -28.2670 C   0  0  0  0  0  0  0  0  0  0  0  0
   -0.4070   23.1910  -28.0940 S   0  0  0  0  0  0  0  0  0  0  0  0
    0.5880   24.1790  -28.6380 O   0  0  0  0  0  0  0  0  0  0  0  0
   -0.1150   22.9630  -26.6330 O   0  0  0  0  0  0  0  0  0  0  0  0
   -0.2760   21.6370  -28.9770 C   0  0  0  0  0  0  0  0  0  0  0  0
   -1.0300   20.5500  -28.2530 C   0  0  0  0  0  0  0  0  0  0  0  0
   -0.3700   19.3730  -27.8530 C   0  0  0  0  0  0  0  0  0  0  0  0
   -1.0440   18.4100  -27.0940 C   0  0  0  0  0  0  0  0  0  0  0  0
   -2.3760   18.6190  -26.7170 C   0  0  0  0  0  0  0  0  0  0  0  0
   -3.0400   19.7880  -27.1060 C   0  0  0  0  0  0  0  0  0  0  0  0
   -2.3710   20.7480  -27.8750 C   0  0  0  0  0  0  0  0  0  0  0  0
   -2.6190   23.9500  -29.5330 C   0  0  0  0  0  0  0  0  0  0  0  0
   -4.8120   21.9890  -31.4660 C   0  0  0  0  0  0  0  0  0  0  0  0
   -5.6070   20.9060  -31.8380 C   0  0  0  0  0  0  0  0  0  0  0  0
   -6.1770   18.7610  -34.0430 C   0  0  0  0  0  0  0  0  0  0  0  0
   -5.2590   17.6020  -34.4980 C   0  0  0  0  0  0  0  0  0  0  0  0
   -4.2935   14.7417  -33.4159 H   0  0  0  0  0  0  0  0  0  0  0  0
   -5.2870   14.5314  -34.8976 H   0  0  0  0  0  0  0  0  0  0  0  0
   -3.9063   15.6805  -34.8976 H   0  0  0  0  0  0  0  0  0  0  0  0
   -6.5930   16.0670  -34.1230 H   0  0  0  0  0  0  0  0  0  0  0  0
   -6.0233   15.5715  -31.9189 H   0  0  0  0  0  0  0  0  0  0  0  0
   -4.5109   16.5649  -32.0766 H   0  0  0  0  0  0  0  0  0  0  0  0
   -7.0099   17.4250  -31.0672 H   0  0  0  0  0  0  0  0  0  0  0  0
   -5.5856   18.4463  -31.5025 H   0  0  0  0  0  0  0  0  0  0  0  0
   -8.6061   22.5280  -32.1774 H   0  0  0  0  0  0  0  0  0  0  0  0
   -7.1600   24.4775  -31.5802 H   0  0  0  0  0  0  0  0  0  0  0  0
   -5.7821   24.7822  -28.5287 H   0  0  0  0  0  0  0  0  0  0  0  0
   -4.6500   24.6554  -26.3028 H   0  0  0  0  0  0  0  0  0  0  0  0
   -0.6965   21.7581  -29.9862 H   0  0  0  0  0  0  0  0  0  0  0  0
    0.7847   21.3523  -29.0384 H   0  0  0  0  0  0  0  0  0  0  0  0
    0.6797   19.2096  -28.1382 H   0  0  0  0  0  0  0  0  0  0  0  0
   -0.5265   17.4872  -26.7930 H   0  0  0  0  0  0  0  0  0  0  0  0
   -2.9013   17.8635  -26.1143 H   0  0  0  0  0  0  0  0  0  0  0  0
   -4.0860   19.9524  -26.8080 H   0  0  0  0  0  0  0  0  0  0  0  0
   -2.8970   21.6628  -28.1856 H   0  0  0  0  0  0  0  0  0  0  0  0
   -2.0193   23.7869  -30.4406 H   0  0  0  0  0  0  0  0  0  0  0  0
   -3.7388   21.8410  -31.2753 H   0  0  0  0  0  0  0  0  0  0  0  0
   -5.1575   19.9090  -31.9561 H   0  0  0  0  0  0  0  0  0  0  0  0
   -6.7730   19.1041  -34.9015 H   0  0  0  0  0  0  0  0  0  0  0  0
   -5.5443   19.5744  -33.6583 H   0  0  0  0  0  0  0  0  0  0  0  0
   -5.3528   17.4799  -35.5872 H   0  0  0  0  0  0  0  0  0  0  0  0
   -4.2258   17.8530  -34.2162 H   0  0  0  0  0  0  0  0  0  0  0  0
  1  2  1  0
  2  3  1  0
  3  4  1  0
  4  5  1  0
  5  6  1  0
  6  7  2  0
  6  8  2  0
  6  9  1  0
  9 10  2  0
 10 11  1  0
 11 12  2  0
 12 13  1  0
 13 14  1  0
 14 15  2  0
 15 16  1  0
 16 17  2  0
 17 18  1  0
 18 19  1  0
 19 20  2  0
 19 21  2  0
 19 22  1  0
 22 23  1  0
 23 24  2  0
 24 25  1  0
 25 26  2  0
 26 27  1  0
 27 28  2  0
 18 29  2  0
 12 30  1  0
 30 31  2  0
  5 32  1  0
 32 33  1  0
 33  2  1  0
 31  9  1  0
 29 14  1  0
 28 23  1  0
  1 34  1  0
  1 35  1  0
  1 36  1  0
  2 37  1  0
  3 38  1  0
  3 39  1  0
  4 40  1  0
  4 41  1  0
 10 42  1  0
 11 43  1  0
 15 44  1  0
 16 45  1  0
 22 46  1  0
 22 47  1  0
 24 48  1  0
 25 49  1  0
 26 50  1  0
 27 51  1  0
 28 52  1  0
 29 53  1  0
 30 54  1  0
 31 55  1  0
 32 56  1  0
 32 57  1  0
 33 58  1  0
 33 59  1  0
M  CHG  1   2   1
M  END
>  <UniqueID>  (1) 
1

>  <SMILES>  (1) 
C[NH+]1CCN(S(=O)(=O)c2ccc(Oc3ccnc(S(=O)(=O)Cc4ccccc4)c3)cc2)CC1

>  <Energy>  (1) 
76.02367126449049

>  <Genealogy>  (1) 
C[NH+]1CCN(S(=O)(=O)c2ccc(Oc3ccnc(S(=O)(=O)Cc4ccccc4)c3)cc2)CC1 (protonated)
C[NH+]1CCN(S(=O)(=O)c2ccc(Oc3ccnc(S(=O)(=O)Cc4ccccc4)c3)cc2)CC1 (3D coordinates assigned)
C[NH+]1CCN(S(=O)(=O)c2ccc(Oc3ccnc(S(=O)(=O)Cc4ccccc4)c3)cc2)CC1 (nonaromatic ring conformer: 76.02367126449049 kcal/mol)

>  <smiles>  (1) 
CN1CCN(S(=O)(=O)c2ccc(Oc3ccnc(S(=O)(=O)Cc4ccccc4)c3)cc2)CC1

>  <score_type>  (1) 
oracle

>  <origin>  (1) 
adgpu

>  <m_score__min__energy>  (1) 
-11.109999999999999

>  <m_primary>  (1) 
energy

$$$$
1:0
     RDKit          3D

 35 37  0  0  0  0  0  0  0  0999 V2000
   -9.4730   21.5790  -30.5580 C   0  0  0  0  0  0  0  0  0  0  0  0
   -8.6160   20.7150  -31.4230 C   0  0  0  0  0  0  0  0  0  0  0  0
   -8.6520   19.3610  -31.3960 N   0  0  0  0  0  0  0  0  0  0  0  0
   -7.7130   19.0060  -32.2970 C   0  0  0  0  0  0  0  0  0  0  0  0
   -7.3540   17.6990  -32.6210 C   0  0  0  0  0  0  0  0  0  0  0  0
   -6.3340   17.5180  -33.5700 C   0  0  0  0  0  0  0  0  0  0  0  0
   -5.7060   18.6310  -34.1590 C   0  0  0  0  0  0  0  0  0  0  0  0
   -6.1080   19.9240  -33.7940 C   0  0  0  0  0  0  0  0  0  0  0  0
   -7.1010   20.0560  -32.8750 N   0  0  0  0  0  0  0  0  0  0  0  0
   -7.6670   21.1520  -32.3410 C   0  0  0  0  0  0  0  0  0  0  0  0
   -7.2460   22.5700  -32.6030 C   0  0  0  0  0  0  0  0  0  0  0  0
   -6.4250   23.0720  -31.4570 C   0  0  0  0  0  0  0  0  0  0  0  0
   -6.9970   23.4060  -30.3840 O   0  0  0  0  0  0  0  0  0  0  0  0
   -4.9970   23.1500  -31.5710 N   0  0  0  0  0  0  0  0  0  0  0  0
   -4.1230   23.2690  -30.4390 C   0  0  0  0  0  0  0  0  0  0  0  0
   -3.8670   22.1380  -29.6490 C   0  0  0  0  0  0  0  0  0  0  0  0
   -3.0280   22.2280  -28.5330 C   0  0  0  0  0  0  0  0  0  0  0  0
   -2.6990   20.8030  -27.5660 Cl  0  0  0  0  0  0  0  0  0  0  0  0
   -2.4520   23.4550  -28.1900 C   0  0  0  0  0  0  0  0  0  0  0  0
   -2.7230   24.5920  -28.9520 C   0  0  0  0  0  0  0  0  0  0  0  0
   -3.5660   24.5100  -30.0670 C   0  0  0  0  0  0  0  0  0  0  0  0
   -3.8670   25.6680  -30.7780 O   0  0  0  0  0  0  0  0  0  0  0  0
   -9.2603   21.3646  -29.5003 H   0  0  0  0  0  0  0  0  0  0  0  0
   -9.2574   22.6370  -30.7682 H   0  0  0  0  0  0  0  0  0  0  0  0
  -10.5327   21.3720  -30.7682 H   0  0  0  0  0  0  0  0  0  0  0  0
   -7.8521   16.8387  -32.1500 H   0  0  0  0  0  0  0  0  0  0  0  0
   -6.0248   16.5013  -33.8540 H   0  0  0  0  0  0  0  0  0  0  0  0
   -4.9058   18.4879  -34.9001 H   0  0  0  0  0  0  0  0  0  0  0  0
   -5.6316   20.8094  -34.2402 H   0  0  0  0  0  0  0  0  0  0  0  0
   -6.6486   22.6096  -33.5258 H   0  0  0  0  0  0  0  0  0  0  0  0
   -8.1402   23.2009  -32.7146 H   0  0  0  0  0  0  0  0  0  0  0  0
   -4.5810   23.2390  -32.5260 H   0  0  0  0  0  0  0  0  0  0  0  0
   -4.3290   21.1741  -29.9088 H   0  0  0  0  0  0  0  0  0  0  0  0
   -1.7844   23.5240  -27.3184 H   0  0  0  0  0  0  0  0  0  0  0  0
   -2.2725   25.5567  -28.6757 H   0  0  0  0  0  0  0  0  0  0  0  0
  1  2  1  0
  2  3  1  0
  3  4  2  0
  4  5  1  0
  5  6  2  0
  6  7  1  0
  7  8  2  0
  8  9  1  0
  9 10  1  0
 10 11  1  0
 11 12  1  0
 12 13  2  0
 12 14  1  0
 14 15  1  0
 15 16  2  0
 16 17  1  0
 17 18  1  0
 17 19  2  0
 19 20  1  0
 20 21  2  0
 21 22  1  0
 10  2  2  0
 21 15  1  0
  9  4  1  0
  1 23  1  0
  1 24  1  0
  1 25  1  0
  5 26  1  0
  6 27  1  0
  7 28  1  0
  8 29  1  0
 11 30  1  0
 11 31  1  0
 14 32  1  0
 16 33  1  0
 19 34  1  0
 20 35  1  0
M  CHG  1  22  -1
M  END
>  <UniqueID>  (2) 
2

>  <SMILES>  (2) 
Cc1nc2ccccn2c1CC(=O)Nc1cc(Cl)ccc1[O-]

>  <Energy>  (2) 
73.33358718551972

>  <Genealogy>  (2) 
Cc1nc2ccccn2c1CC(=O)Nc1cc(Cl)ccc1[O-] (protonated)
Cc1nc2ccccn2c1CC(=O)Nc1cc(Cl)ccc1[O-] (3D coordinates assigned)
Cc1nc2ccccn2c1CC(=O)Nc1cc(Cl)ccc1[O-] (optimized conformer: 73.33358718551972 kcal/mol)

>  <smiles>  (2) 
Cc1nc2ccccn2c1CC(=O)Nc1cc(Cl)ccc1O

>  <score_type>  (2) 
oracle

>  <origin>  (2) 
adgpu

>  <m_score__min__energy>  (2) 
-11.289999999999999

>  <m_primary>  (2) 
energy

$$$$
2:0
     RDKit          3D

 44 47  0  0  1  0  0  0  0  0999 V2000
   -1.2040   24.8310  -28.3110 C   0  0  0  0  0  0  0  0  0  0  0  0
   -2.2020   24.2650  -29.2580 C   0  0  0  0  0  0  0  0  0  0  0  0
   -2.1170   23.0600  -29.9370 C   0  0  0  0  0  0  0  0  0  0  0  0
   -3.2260   22.9630  -30.6660 N   0  0  0  0  0  0  0  0  0  0  0  0
   -3.6450   21.9130  -31.5560 C   0  0  0  0  0  0  0  0  0  0  0  0
   -2.7200   21.4010  -32.3880 N   0  0  0  0  0  0  0  0  0  0  0  0
   -3.1020   20.4220  -33.2220 C   0  0  0  0  0  0  0  0  0  0  0  0
   -2.2380   19.9110  -34.0310 N   0  0  0  0  0  0  0  0  0  0  0  0
   -0.8770   20.3260  -34.0980 C   0  0  0  0  0  0  0  0  0  0  0  0
    0.1240   19.4710  -33.6440 C   0  0  0  0  0  0  0  0  0  0  0  0
    1.4450   19.8840  -33.7140 C   0  0  0  0  0  0  0  0  0  0  0  0
    1.7870   21.1160  -34.2220 C   0  0  0  0  0  0  0  0  0  0  0  0
    0.8000   21.9270  -34.6560 N   0  0  0  0  0  0  0  0  0  0  0  0
   -0.4870   21.5510  -34.5990 C   0  0  0  0  0  0  0  0  0  0  0  0
   -4.4250   19.9600  -33.2140 C   0  0  0  0  0  0  0  0  0  0  0  0
   -5.3640   20.4970  -32.3540 C   0  0  0  0  0  0  0  0  0  0  0  0
   -6.7380   20.0260  -32.3370 C   0  0  0  0  0  0  0  0  0  0  0  0
   -7.8050   20.8980  -32.3350 C   0  0  0  0  0  0  0  0  0  0  0  0
   -9.1290   20.4520  -32.3190 C   0  0  0  0  0  0  0  0  0  0  0  0
   -9.4250   19.1090  -32.3050 C   0  0  0  0  0  0  0  0  0  0  0  0
   -8.3680   18.2310  -32.3070 C   0  0  0  0  0  0  0  0  0  0  0  0
   -7.0390   18.6800  -32.3240 C   0  0  0  0  0  0  0  0  0  0  0  0
   -4.9320   21.4750  -31.5380 N   0  0  0  0  0  0  0  0  0  0  0  0
   -4.0050   24.0590  -30.4710 C   0  0  0  0  0  0  0  0  0  0  0  0
   -5.3280   24.3500  -31.0930 C   0  0  0  0  0  0  0  0  0  0  0  0
   -3.3760   24.8760  -29.5960 N   0  0  0  0  0  0  0  0  0  0  0  0
   -1.5323   24.6448  -27.2778 H   0  0  0  0  0  0  0  0  0  0  0  0
   -0.2278   24.3521  -28.4775 H   0  0  0  0  0  0  0  0  0  0  0  0
   -1.1140   25.9146  -28.4775 H   0  0  0  0  0  0  0  0  0  0  0  0
   -1.2964   22.3294  -29.8839 H   0  0  0  0  0  0  0  0  0  0  0  0
   -0.1302   18.4818  -33.2356 H   0  0  0  0  0  0  0  0  0  0  0  0
    2.2381   19.2115  -33.3552 H   0  0  0  0  0  0  0  0  0  0  0  0
    2.8394   21.4321  -34.2731 H   0  0  0  0  0  0  0  0  0  0  0  0
   -1.2587   22.2443  -34.9648 H   0  0  0  0  0  0  0  0  0  0  0  0
   -4.7211   19.1562  -33.9041 H   0  0  0  0  0  0  0  0  0  0  0  0
   -7.6080   21.9802  -32.3464 H   0  0  0  0  0  0  0  0  0  0  0  0
   -9.9477   21.1867  -32.3176 H   0  0  0  0  0  0  0  0  0  0  0  0
  -10.4655   18.7522  -32.2927 H   0  0  0  0  0  0  0  0  0  0  0  0
   -8.5688   17.1496  -32.2950 H   0  0  0  0  0  0  0  0  0  0  0  0
   -6.2212   17.9444  -32.3270 H   0  0  0  0  0  0  0  0  0  0  0  0
   -5.5510   21.9510  -30.8510 H   0  0  0  0  0  0  0  0  0  0  0  0
   -6.0761   24.5145  -30.3035 H   0  0  0  0  0  0  0  0  0  0  0  0
   -5.2492   25.2523  -31.7172 H   0  0  0  0  0  0  0  0  0  0  0  0
   -5.6351   23.4979  -31.7172 H   0  0  0  0  0  0  0  0  0  0  0  0
  1  2  1  0
  2  3  2  0
  3  4  1  0
  4  5  1  0
  5  6  2  0
  6  7  1  0
  7  8  2  0
  8  9  1  0
  9 10  2  0
 10 11  1  0
 11 12  2  0
 12 13  1  0
 13 14  2  0
  7 15  1  0
 15 16  2  0
 16 17  1  0
 17 18  2  0
 18 19  1  0
 19 20  2  0
 20 21  1  0
 21 22  2  0
 16 23  1  0
  4 24  1  0
 24 25  1  0
 24 26  2  0
 26  2  1  0
 23  5  1  0
 14  9  1  0
 22 17  1  0
  1 27  1  0
  1 28  1  0
  1 29  1  0
  3 30  1  0
 10 31  1  0
 11 32  1  0
 12 33  1  0
 14 34  1  0
 15 35  1  0
 18 36  1  0
 19 37  1  0
 20 38  1  0
 21 39  1  0
 22 40  1  0
 23 41  1  0
 25 42  1  0
 25 43  1  0
 25 44  1  0
M  END
>  <smiles>  (3) 
Cc1cn(-c2nc(=Nc3cccnc3)cc(-c3ccccc3)[nH]2)c(C)n1

>  <score_type>  (3) 
oracle

>  <origin>  (3) 
adgpu

>  <m_score__min__energy>  (3) 
-8.4900000000000002

>  <m_primary>  (3) 
energy

$$$$
3:0
     RDKit          3D

 70 74  0  0  0  0  0  0  0  0999 V2000
   -2.1330   21.8320  -32.0820 O   0  0  0  0  0  0  0  0  0  0  0  0
   -2.6620   21.0100  -32.8770 C   0  0  0  0  0  0  0  0  0  0  0  0
   -1.8640   20.0190  -33.5360 N   0  0  0  0  0  0  0  0  0  0  0  0
   -2.0840   18.6010  -33.5200 C   0  0  0  0  0  0  0  0  0  0  0  0
   -1.0050   17.7520  -33.7910 C   0  0  0  0  0  0  0  0  0  0  0  0
   -1.1710   16.3660  -33.7560 C   0  0  0  0  0  0  0  0  0  0  0  0
   -2.4130   15.8160  -33.4310 C   0  0  0  0  0  0  0  0  0  0  0  0
   -3.4940   16.6520  -33.1260 C   0  0  0  0  0  0  0  0  0  0  0  0
   -5.0510   15.9570  -32.6700 S   0  0  0  0  0  0  0  0  0  0  0  0
   -5.3670   16.3440  -31.2520 O   0  0  0  0  0  0  0  0  0  0  0  0
   -4.9580   14.4580  -32.7300 O   0  0  0  0  0  0  0  0  0  0  0  0
   -6.3480   16.5020  -33.7140 N   0  0  0  0  0  0  0  0  0  0  0  0
   -7.3200   17.3110  -32.9700 C   0  0  0  0  0  0  0  0  0  0  0  0
   -6.9970   18.7790  -33.2020 C   0  0  0  0  0  0  0  0  0  0  0  0
   -6.0710   18.8110  -34.4020 C   0  0  0  0  0  0  0  0  0  0  0  0
   -5.8410   17.3570  -34.7920 C   0  0  0  0  0  0  0  0  0  0  0  0
   -3.3290   18.0440  -33.1750 C   0  0  0  0  0  0  0  0  0  0  0  0
   -4.0730   21.0530  -33.1380 N   0  0  0  0  0  0  0  0  0  0  0  0
   -5.0060   21.8690  -32.4100 C   0  0  0  0  0  0  0  0  0  0  0  0
   -6.3810   21.5790  -32.4030 C   0  0  0  0  0  0  0  0  0  0  0  0
   -7.2700   22.4040  -31.7090 C   0  0  0  0  0  0  0  0  0  0  0  0
   -6.7990   23.5240  -31.0220 C   0  0  0  0  0  0  0  0  0  0  0  0
   -5.4270   23.8300  -31.0190 C   0  0  0  0  0  0  0  0  0  0  0  0
   -4.9120   25.0010  -30.2740 C   0  0  0  0  0  0  0  0  0  0  0  0
   -5.7240   25.7540  -29.6720 O   0  0  0  0  0  0  0  0  0  0  0  0
   -3.5100   25.2900  -30.1800 N   0  0  0  0  0  0  0  0  0  0  0  0
   -2.5540   24.6040  -29.3570 C   0  0  0  0  0  0  0  0  0  0  0  0
   -1.4210   25.2960  -28.9160 C   0  0  0  0  0  0  0  0  0  0  0  0
   -0.4760   24.6600  -28.1070 C   0  0  0  0  0  0  0  0  0  0  0  0
   -0.6540   23.3240  -27.7370 C   0  0  0  0  0  0  0  0  0  0  0  0
   -1.7770   22.6150  -28.1840 C   0  0  0  0  0  0  0  0  0  0  0  0
   -2.0120   20.9350  -27.7100 S   0  0  0  0  0  0  0  0  0  0  0  0
   -1.2760   20.6790  -26.4240 O   0  0  0  0  0  0  0  0  0  0  0  0
   -3.4780   20.6790  -27.4800 O   0  0  0  0  0  0  0  0  0  0  0  0
   -1.3900   19.8820  -28.9550 N   0  0  0  0  0  0  0  0  0  0  0  0
   -0.4580   18.8910  -28.4090 C   0  0  0  0  0  0  0  0  0  0  0  0
    0.5590   18.5830  -29.5050 C   0  0  0  0  0  0  0  0  0  0  0  0
    0.3480   19.6510  -30.5670 C   0  0  0  0  0  0  0  0  0  0  0  0
   -0.6230   20.6360  -29.9440 C   0  0  0  0  0  0  0  0  0  0  0  0
   -2.7100   23.2480  -29.0160 C   0  0  0  0  0  0  0  0  0  0  0  0
   -4.5420   23.0090  -31.7380 C   0  0  0  0  0  0  0  0  0  0  0  0
   -0.0205   18.1789  -34.0330 H   0  0  0  0  0  0  0  0  0  0  0  0
   -0.3215   15.7057  -33.9850 H   0  0  0  0  0  0  0  0  0  0  0  0
   -2.5422   14.7237  -33.4146 H   0  0  0  0  0  0  0  0  0  0  0  0
   -8.3370   17.0929  -33.3280 H   0  0  0  0  0  0  0  0  0  0  0  0
   -7.2659   17.0762  -31.8967 H   0  0  0  0  0  0  0  0  0  0  0  0
   -7.9163   19.3454  -33.4118 H   0  0  0  0  0  0  0  0  0  0  0  0
   -6.5306   19.2367  -32.3171 H   0  0  0  0  0  0  0  0  0  0  0  0
   -6.5395   19.3601  -35.2321 H   0  0  0  0  0  0  0  0  0  0  0  0
   -5.1246   19.3204  -34.1678 H   0  0  0  0  0  0  0  0  0  0  0  0
   -6.3771   17.1339  -35.7262 H   0  0  0  0  0  0  0  0  0  0  0  0
   -4.7676   17.1729  -34.9468 H   0  0  0  0  0  0  0  0  0  0  0  0
   -4.1778   18.7039  -32.9424 H   0  0  0  0  0  0  0  0  0  0  0  0
   -4.4210   20.5270  -33.9710 H   0  0  0  0  0  0  0  0  0  0  0  0
   -6.7587   20.6998  -32.9455 H   0  0  0  0  0  0  0  0  0  0  0  0
   -8.3448   22.1700  -31.7041 H   0  0  0  0  0  0  0  0  0  0  0  0
   -7.5050   24.1705  -30.4802 H   0  0  0  0  0  0  0  0  0  0  0  0
   -1.2734   26.3463  -29.2077 H   0  0  0  0  0  0  0  0  0  0  0  0
    0.4101   25.2120  -27.7605 H   0  0  0  0  0  0  0  0  0  0  0  0
    0.0884   22.8285  -27.0941 H   0  0  0  0  0  0  0  0  0  0  0  0
    0.0522   19.2996  -27.5243 H   0  0  0  0  0  0  0  0  0  0  0  0
   -0.9908   17.9794  -28.1006 H   0  0  0  0  0  0  0  0  0  0  0  0
    1.5825   18.6352  -29.1054 H   0  0  0  0  0  0  0  0  0  0  0  0
    0.4254   17.5701  -29.9127 H   0  0  0  0  0  0  0  0  0  0  0  0
    1.2990   20.1471  -30.8110 H   0  0  0  0  0  0  0  0  0  0  0  0
   -0.0369   19.2291  -31.5072 H   0  0  0  0  0  0  0  0  0  0  0  0
   -0.0746   21.4559  -29.4571 H   0  0  0  0  0  0  0  0  0  0  0  0
   -1.2801   21.0857  -30.7030 H   0  0  0  0  0  0  0  0  0  0  0  0
   -3.5691   22.6816  -29.4047 H   0  0  0  0  0  0  0  0  0  0  0  0
   -3.4725   23.2635  -31.7742 H   0  0  0  0  0  0  0  0  0  0  0  0
  1  2  2  0
  2  3  1  0
  3  4  1  0
  4  5  2  0
  5  6  1  0
  6  7  2  0
  7  8  1  0
  8  9  1  0
  9 10  2  0
  9 11  2  0
  9 12  1  0
 12 13  1  0
 13 14  1  0
 14 15  1  0
 15 16  1  0
  8 17  2  0
  2 18  1  0
 18 19  1  0
 19 20  2  0
 20 21  1  0
 21 22  2  0
 22 23  1  0
 23 24  1  0
 24 25  2  0
 24 26  1  0
 26 27  1  0
 27 28  2  0
 28 29  1  0
 29 30  2  0
 30 31  1  0
 31 32  1  0
 32 33  2  0
 32 34  2  0
 32 35  1  0
 35 36  1  0
 36 37  1  0
 37 38  1  0
 38 39  1  0
 31 40  2  0
 23 41  2  0
 17  4  1  0
 41 19  1  0
 16 12  1  0
 40 27  1  0
 39 35  1  0
  5 42  1  0
  6 43  1  0
  7 44  1  0
 13 45  1  0
 13 46  1  0
 14 47  1  0
 14 48  1  0
 15 49  1  0
 15 50  1  0
 16 51  1  0
 16 52  1  0
 17 53  1  0
 18 54  1  0
 20 55  1  0
 21 56  1  0
 22 57  1  0
 28 58  1  0
 29 59  1  0
 30 60  1  0
 36 61  1  0
 36 62  1  0
 37 63  1  0
 37 64  1  0
 38 65  1  0
 38 66  1  0
 39 67  1  0
 39 68  1  0
 40 69  1  0
 41 70  1  0
M  CHG  2   3  -1  26  -1
M  END
>  <UniqueID>  (4) 
3

>  <SMILES>  (4) 
O=C([N-]c1cccc(S(=O)(=O)N2CCCC2)c1)Nc1cccc(C(=O)[N-]c2cccc(S(=O)(=O)N3CCCC3)c2)c1

>  <Energy>  (4) 
86.81184699976978

>  <Genealogy>  (4) 
O=C([N-]c1cccc(S(=O)(=O)N2CCCC2)c1)Nc1cccc(C(=O)[N-]c2cccc(S(=O)(=O)N3CCCC3)c2)c1 (protonated)
O=C([N-]c1cccc(S(=O)(=O)N2CCCC2)c1)Nc1cccc(C(=O)[N-]c2cccc(S(=O)(=O)N3CCCC3)c2)c1 (3D coordinates assigned)
O=C([N-]c1cccc(S(=O)(=O)N2CCCC2)c1)Nc1cccc(C(=O)[N-]c2cccc(S(=O)(=O)N3CCCC3)c2)c1 (nonaromatic ring conformer: 86.81184699976978 kcal/mol)

>  <smiles>  (4) 
O=C(Nc1cccc(C(=O)Nc2cccc(S(=O)(=O)N3CCCC3)c2)c1)Nc1cccc(S(=O)(=O)N2CCCC2)c1

>  <score_type>  (4) 
oracle

>  <origin>  (4) 
adgpu

>  <m_score__min__energy>  (4) 
-13.18

>  <m_primary>  (4) 
energy

$$$$
4:0
     RDKit          3D

 28 30  0  0  0  0  0  0  0  0999 V2000
    0.8360   21.9050  -27.7790 O   0  0  0  0  0  0  0  0  0  0  0  0
   -0.1460   21.5650  -28.4970 C   0  0  0  0  0  0  0  0  0  0  0  0
   -0.3680   20.2060  -28.7970 C   0  0  0  0  0  0  0  0  0  0  0  0
    0.5460   19.1370  -28.3230 C   0  0  0  0  0  0  0  0  0  0  0  0
    1.9290   19.3740  -28.2390 C   0  0  0  0  0  0  0  0  0  0  0  0
    2.7900   18.3710  -27.7860 C   0  0  0  0  0  0  0  0  0  0  0  0
    2.2830   17.1240  -27.4070 C   0  0  0  0  0  0  0  0  0  0  0  0
    3.1530   16.1380  -26.9600 O   0  0  0  0  0  0  0  0  0  0  0  0
    0.9020   16.8780  -27.4790 C   0  0  0  0  0  0  0  0  0  0  0  0
    0.3690   15.6460  -27.1020 O   0  0  0  0  0  0  0  0  0  0  0  0
    0.0410   17.8830  -27.9340 C   0  0  0  0  0  0  0  0  0  0  0  0
   -1.4960   19.8740  -29.5660 C   0  0  0  0  0  0  0  0  0  0  0  0
   -2.3240   20.8140  -30.0070 O   0  0  0  0  0  0  0  0  0  0  0  0
   -2.1440   22.1050  -29.7540 C   0  0  0  0  0  0  0  0  0  0  0  0
   -3.0550   23.0420  -30.2520 C   0  0  0  0  0  0  0  0  0  0  0  0
   -2.8780   24.4050  -29.9910 C   0  0  0  0  0  0  0  0  0  0  0  0
   -3.7900   25.3270  -30.4910 O   0  0  0  0  0  0  0  0  0  0  0  0
   -1.7870   24.8360  -29.2270 C   0  0  0  0  0  0  0  0  0  0  0  0
   -1.6110   26.1900  -28.9660 O   0  0  0  0  0  0  0  0  0  0  0  0
   -0.8710   23.9070  -28.7240 C   0  0  0  0  0  0  0  0  0  0  0  0
   -1.0400   22.5340  -28.9840 C   0  0  0  0  0  0  0  0  0  0  0  0
    2.3353   20.3535  -28.5312 H   0  0  0  0  0  0  0  0  0  0  0  0
    3.8715   18.5632  -27.7272 H   0  0  0  0  0  0  0  0  0  0  0  0
    0.7590   15.1010  -26.3430 H   0  0  0  0  0  0  0  0  0  0  0  0
   -1.0407   17.6906  -27.9880 H   0  0  0  0  0  0  0  0  0  0  0  0
   -1.6964   18.8195  -29.8064 H   0  0  0  0  0  0  0  0  0  0  0  0
   -3.9141   22.7060  -30.8513 H   0  0  0  0  0  0  0  0  0  0  0  0
   -0.0158   24.2502  -28.1233 H   0  0  0  0  0  0  0  0  0  0  0  0
  1  2  2  0
  2  3  1  0
  3  4  1  0
  4  5  2  0
  5  6  1  0
  6  7  2  0
  7  8  1  0
  7  9  1  0
  9 10  1  0
  9 11  2  0
  3 12  2  0
 12 13  1  0
 13 14  1  0
 14 15  2  0
 15 16  1  0
 16 17  1  0
 16 18  2  0
 18 19  1  0
 18 20  1  0
 20 21  2  0
 21  2  1  0
 11  4  1  0
 21 14  1  0
  5 22  1  0
  6 23  1  0
 10 24  1  0
 11 25  1  0
 12 26  1  0
 15 27  1  0
 20 28  1  0
M  CHG  3   8  -1  17  -1  19  -1
M  END
>  <UniqueID>  (5) 
4

>  <SMILES>  (5) 
O=c1c(-c2ccc([O-])c(O)c2)coc2cc([O-])c([O-])cc12

>  <Energy>  (5) 
43.92626862688651

>  <Genealogy>  (5) 
O=c1c(-c2ccc([O-])c(O)c2)coc2cc([O-])c([O-])cc12 (protonated)
O=c1c(-c2ccc([O-])c(O)c2)coc2cc([O-])c([O-])cc12 (3D coordinates assigned)
O=c1c(-c2ccc([O-])c(O)c2)coc2cc([O-])c([O-])cc12 (optimized conformer: 43.92626862688651 kcal/mol)

>  <smiles>  (5) 
O=c1c(-c2ccc(O)c(O)c2)coc2cc(O)c(O)cc12

>  <score_type>  (5) 
oracle

>  <origin>  (5) 
adgpu

>  <m_score__min__energy>  (5) 
-10.82

>  <m_primary>  (5) 
energy

$$$$
5:0
     RDKit          3D

 41 42  0  0  0  0  0  0  0  0999 V2000
   -1.2530   20.9460  -26.1610 C   0  0  0  0  0  0  0  0  0  0  0  0
   -2.2450   20.4500  -27.1230 N   0  0  0  0  0  0  0  0  0  0  0  0
   -3.0430   19.2690  -26.7730 C   0  0  0  0  0  0  0  0  0  0  0  0
   -2.4360   21.1210  -28.3970 C   0  0  0  0  0  0  0  0  0  0  0  0
   -2.4020   20.3990  -29.6080 C   0  0  0  0  0  0  0  0  0  0  0  0
   -2.5840   21.0470  -30.8310 C   0  0  0  0  0  0  0  0  0  0  0  0
   -2.7920   22.4240  -30.8730 C   0  0  0  0  0  0  0  0  0  0  0  0
   -2.8080   23.1680  -29.6880 C   0  0  0  0  0  0  0  0  0  0  0  0
   -2.9690   24.6320  -29.7460 C   0  0  0  0  0  0  0  0  0  0  0  0
   -2.3390   25.3500  -28.9280 O   0  0  0  0  0  0  0  0  0  0  0  0
   -3.8710   25.2610  -30.6690 N   0  0  0  0  0  0  0  0  0  0  0  0
   -5.3300   25.2970  -30.5500 C   0  0  0  0  0  0  0  0  0  0  0  0
   -5.9320   23.9490  -30.8520 C   0  0  0  0  0  0  0  0  0  0  0  0
   -6.8820   23.3840  -29.9850 C   0  0  0  0  0  0  0  0  0  0  0  0
   -7.4880   22.1650  -30.3000 C   0  0  0  0  0  0  0  0  0  0  0  0
   -7.1410   21.4860  -31.4750 C   0  0  0  0  0  0  0  0  0  0  0  0
   -7.9260   19.9590  -31.8670 S   0  0  0  0  0  0  0  0  0  0  0  0
   -8.6390   20.0470  -33.4400 N   0  0  0  0  0  0  0  0  0  0  0  0
   -9.0070   19.6600  -30.8650 O   0  0  0  0  0  0  0  0  0  0  0  0
   -6.9080   18.8530  -31.8330 O   0  0  0  0  0  0  0  0  0  0  0  0
   -6.1790   22.0380  -32.3330 C   0  0  0  0  0  0  0  0  0  0  0  0
   -5.5760   23.2600  -32.0220 C   0  0  0  0  0  0  0  0  0  0  0  0
   -2.6510   22.5150  -28.4560 C   0  0  0  0  0  0  0  0  0  0  0  0
   -1.6131   20.7660  -25.1373 H   0  0  0  0  0  0  0  0  0  0  0  0
   -0.2997   20.4185  -26.3125 H   0  0  0  0  0  0  0  0  0  0  0  0
   -1.1030   22.0251  -26.3125 H   0  0  0  0  0  0  0  0  0  0  0  0
   -3.1039   19.1789  -25.6784 H   0  0  0  0  0  0  0  0  0  0  0  0
   -4.0558   19.3743  -27.1891 H   0  0  0  0  0  0  0  0  0  0  0  0
   -2.5674   18.3686  -27.1891 H   0  0  0  0  0  0  0  0  0  0  0  0
   -2.2301   19.3127  -29.5886 H   0  0  0  0  0  0  0  0  0  0  0  0
   -2.5631   20.4677  -31.7659 H   0  0  0  0  0  0  0  0  0  0  0  0
   -2.9439   22.9271  -31.8393 H   0  0  0  0  0  0  0  0  0  0  0  0
   -5.5998   25.5894  -29.5245 H   0  0  0  0  0  0  0  0  0  0  0  0
   -5.7220   26.0253  -31.2752 H   0  0  0  0  0  0  0  0  0  0  0  0
   -7.1502   23.9039  -29.0534 H   0  0  0  0  0  0  0  0  0  0  0  0
   -8.2410   21.7366  -29.6222 H   0  0  0  0  0  0  0  0  0  0  0  0
   -7.8570   20.0290  -34.1320 H   0  0  0  0  0  0  0  0  0  0  0  0
   -9.1900   19.1710  -33.5800 H   0  0  0  0  0  0  0  0  0  0  0  0
   -5.8978   21.5072  -33.2545 H   0  0  0  0  0  0  0  0  0  0  0  0
   -4.8185   23.6840  -32.6976 H   0  0  0  0  0  0  0  0  0  0  0  0
   -2.6960   23.0971  -27.5237 H   0  0  0  0  0  0  0  0  0  0  0  0
  1  2  1  0
  2  3  1  0
  2  4  1  0
  4  5  2  0
  5  6  1  0
  6  7  2  0
  7  8  1  0
  8  9  1  0
  9 10  2  0
  9 11  1  0
 11 12  1  0
 12 13  1  0
 13 14  2  0
 14 15  1  0
 15 16  2  0
 16 17  1  0
 17 18  1  0
 17 19  2  0
 17 20  2  0
 16 21  1  0
 21 22  2  0
  8 23  2  0
 23  4  1  0
 22 13  1  0
  1 24  1  0
  1 25  1  0
  1 26  1  0
  3 27  1  0
  3 28  1  0
  3 29  1  0
  5 30  1  0
  6 31  1  0
  7 32  1  0
 12 33  1  0
 12 34  1  0
 14 35  1  0
 15 36  1  0
 18 37  1  0
 18 38  1  0
 21 39  1  0
 22 40  1  0
 23 41  1  0
M  CHG  1  11  -1
M  END
>  <UniqueID>  (6) 
5

>  <SMILES>  (6) 
CN(C)c1cccc(C(=O)[N-]Cc2ccc(S(N)(=O)=O)cc2)c1

>  <Energy>  (6) 
42.5063295123459

>  <Genealogy>  (6) 
CN(C)c1cccc(C(=O)[N-]Cc2ccc(S(N)(=O)=O)cc2)c1 (protonated)
CN(C)c1cccc(C(=O)[N-]Cc2ccc(S(N)(=O)=O)cc2)c1 (3D coordinates assigned)
CN(C)c1cccc(C(=O)[N-]Cc2ccc(S(N)(=O)=O)cc2)c1 (optimized conformer: 42.5063295123459 kcal/mol)

>  <smiles>  (6) 
CN(C)c1cccc(C(=O)NCc2ccc(S(N)(=O)=O)cc2)c1

>  <score_type>  (6) 
oracle

>  <origin>  (6) 
adgpu

>  <m_score__min__energy>  (6) 
-10.199999999999999

>  <m_primary>  (6) 
energy

$$$$
6:0
     RDKit          3D

 48 50  0  0  0  0  0  0  0  0999 V2000
   -1.4939   24.5194  -28.0377 H   0  0  0  0  0  0  0  0  0  0  0  0
   -1.9910   24.0900  -28.9200 C   0  0  0  0  0  0  0  0  0  0  0  0
   -3.1260   24.6500  -29.4050 N   0  0  0  0  0  0  0  0  0  0  0  0
   -3.7810   24.1480  -30.4870 C   0  0  0  0  0  0  0  0  0  0  0  0
   -4.8760   24.7610  -30.8580 N   0  0  0  0  0  0  0  0  0  0  0  0
   -5.8140   24.4680  -31.9460 C   0  0  0  0  0  0  0  0  0  0  0  0
   -6.4791   25.3329  -32.0859 H   0  0  0  0  0  0  0  0  0  0  0  0
   -5.2308   24.2678  -32.8569 H   0  0  0  0  0  0  0  0  0  0  0  0
   -6.6530   23.2490  -31.6470 C   0  0  0  0  0  0  0  0  0  0  0  0
   -7.2290   23.0710  -30.3790 C   0  0  0  0  0  0  0  0  0  0  0  0
   -7.0710   23.8260  -29.5948 H   0  0  0  0  0  0  0  0  0  0  0  0
   -8.0020   21.9390  -30.1090 C   0  0  0  0  0  0  0  0  0  0  0  0
   -8.4442   21.8018  -29.1112 H   0  0  0  0  0  0  0  0  0  0  0  0
   -8.2150   20.9800  -31.1040 C   0  0  0  0  0  0  0  0  0  0  0  0
   -8.8149   20.0846  -30.8838 H   0  0  0  0  0  0  0  0  0  0  0  0
   -7.6660   21.1570  -32.3810 C   0  0  0  0  0  0  0  0  0  0  0  0
   -7.8780   20.1760  -33.3990 N   0  0  0  0  0  0  0  0  0  0  0  0
   -7.0910   19.5800  -33.7400 H   0  0  0  0  0  0  0  0  0  0  0  0
   -8.8220   20.0470  -33.8290 H   0  0  0  0  0  0  0  0  0  0  0  0
   -6.9010   22.3000  -32.6540 C   0  0  0  0  0  0  0  0  0  0  0  0
   -6.4920   22.4552  -33.6633 H   0  0  0  0  0  0  0  0  0  0  0  0
   -3.2470   22.9900  -31.1230 C   0  0  0  0  0  0  0  0  0  0  0  0
   -3.8280   22.4850  -32.1750 N   0  0  0  0  0  0  0  0  0  0  0  0
   -3.5260   21.2590  -32.8540 C   0  0  0  0  0  0  0  0  0  0  0  0
   -2.1980   20.8300  -33.0210 C   0  0  0  0  0  0  0  0  0  0  0  0
   -1.3678   21.4811  -32.7099 H   0  0  0  0  0  0  0  0  0  0  0  0
   -1.9300   19.5790  -33.5810 C   0  0  0  0  0  0  0  0  0  0  0  0
   -0.8891   19.2536  -33.7247 H   0  0  0  0  0  0  0  0  0  0  0  0
   -2.9810   18.7400  -33.9590 C   0  0  0  0  0  0  0  0  0  0  0  0
   -2.7641   17.7555  -34.3991 H   0  0  0  0  0  0  0  0  0  0  0  0
   -4.3130   19.1470  -33.7800 C   0  0  0  0  0  0  0  0  0  0  0  0
   -5.4210   18.2360  -34.1400 C   0  0  0  0  0  0  0  0  0  0  0  0
   -6.0260   18.4190  -35.2320 O   0  0  0  0  0  0  0  0  0  0  0  0
   -5.8270   17.1580  -33.2750 N   0  0  0  0  0  0  0  0  0  0  0  0
   -6.4940   15.9910  -33.8590 C   0  0  0  0  0  0  0  0  0  0  0  0
   -6.8659   15.3402  -33.0539 H   0  0  0  0  0  0  0  0  0  0  0  0
   -7.3381   16.3241  -34.4807 H   0  0  0  0  0  0  0  0  0  0  0  0
   -5.7786   15.4327  -34.4807 H   0  0  0  0  0  0  0  0  0  0  0  0
   -5.7240   17.2940  -31.8170 C   0  0  0  0  0  0  0  0  0  0  0  0
   -6.3202   16.5068  -31.3323 H   0  0  0  0  0  0  0  0  0  0  0  0
   -4.6713   17.1963  -31.5131 H   0  0  0  0  0  0  0  0  0  0  0  0
   -6.1033   18.2808  -31.5131 H   0  0  0  0  0  0  0  0  0  0  0  0
   -4.5750   20.3980  -33.1980 C   0  0  0  0  0  0  0  0  0  0  0  0
   -5.6147   20.7044  -33.0106 H   0  0  0  0  0  0  0  0  0  0  0  0
   -2.0880   22.4470  -30.6310 N   0  0  0  0  0  0  0  0  0  0  0  0
   -1.6230   21.6400  -31.1010 H   0  0  0  0  0  0  0  0  0  0  0  0
   -1.4610   22.9700  -29.5460 C   0  0  0  0  0  0  0  0  0  0  0  0
   -0.5379   22.5086  -29.1651 H   0  0  0  0  0  0  0  0  0  0  0  0
  1  2  1  0
  2  3  1  0
  3  4  1  0
  4  5  2  0
  5  6  1  0
  6  7  1  0
  6  8  1  0
  6  9  1  0
  9 10  2  0
 10 11  1  0
 10 12  1  0
 12 13  1  0
 12 14  2  0
 14 15  1  0
 14 16  1  0
 16 17  1  0
 17 18  1  0
 17 19  1  0
 16 20  2  0
 20 21  1  0
  4 22  1  0
 22 23  2  0
 23 24  1  0
 24 25  2  0
 25 26  1  0
 25 27  1  0
 27 28  1  0
 27 29  2  0
 29 30  1  0
 29 31  1  0
 31 32  1  0
 32 33  2  0
 32 34  1  0
 34 35  1  0
 35 36  1  0
 35 37  1  0
 35 38  1  0
 34 39  1  0
 39 40  1  0
 39 41  1  0
 39 42  1  0
 31 43  2  0
 43 44  1  0
 22 45  1  0
 45 46  1  0
 45 47  1  0
 47 48  1  0
 47  2  2  0
 20  9  1  0
 43 24  1  0
M  CHG  1   3  -1
M  END
>  <UniqueID>  (7) 
6

>  <SMILES>  (7) 
CN(C)C(=O)c1cccc(/N=c2\[nH]cc[n-]\c2=N\Cc2cccc(N)c2)c1

>  <Energy>  (7) 
67.3986532635286

>  <Genealogy>  (7) 
CN(C)C(=O)c1cccc(N=c2[nH]cc[n-]c2=NCc2cccc(N)c2)c1 (protonated)
CN(C)C(=O)c1cccc(/N=c2\[nH]cc[n-]\c2=N\Cc2cccc(N)c2)c1 (cis-trans isomerization)
CN(C)C(=O)c1cccc(/N=c2\[nH]cc[n-]\c2=N\Cc2cccc(N)c2)c1 (3D coordinates assigned)
CN(C)C(=O)c1cccc(/N=c2\[nH]cc[n-]\c2=N\Cc2cccc(N)c2)c1 (optimized conformer: 67.3986532635286 kcal/mol)

>  <smiles>  (7) 
CN(C)C(=O)c1cccc(N=c2[nH]cc[nH]c2=NCc2cccc(N)c2)c1

>  <score_type>  (7) 
oracle

>  <origin>  (7) 
adgpu

>  <m_score__min__energy>  (7) 
-9.4800000000000004

>  <m_primary>  (7) 
energy

$$$$
7:0
     RDKit          3D

 51 54  0  0  0  0  0  0  0  0999 V2000
   -6.5150   24.9780  -30.4730 C   0  0  0  0  0  0  0  0  0  0  0  0
   -6.7360   23.6900  -31.2100 C   0  0  0  0  0  0  0  0  0  0  0  0
   -5.6700   23.0690  -31.8700 C   0  0  0  0  0  0  0  0  0  0  0  0
   -5.8620   21.8520  -32.5250 C   0  0  0  0  0  0  0  0  0  0  0  0
   -7.1190   21.2330  -32.5300 C   0  0  0  0  0  0  0  0  0  0  0  0
   -7.2590   19.9740  -33.2020 N   0  0  0  0  0  0  0  0  0  0  0  0
   -6.3240   18.5820  -32.7550 S   0  0  0  0  0  0  0  0  0  0  0  0
   -6.5100   18.3070  -31.2880 O   0  0  0  0  0  0  0  0  0  0  0  0
   -6.8010   17.3930  -33.5380 O   0  0  0  0  0  0  0  0  0  0  0  0
   -4.6230   18.8700  -33.1040 C   0  0  0  0  0  0  0  0  0  0  0  0
   -4.0870   18.5190  -34.3430 C   0  0  0  0  0  0  0  0  0  0  0  0
   -2.7280   18.7000  -34.5950 C   0  0  0  0  0  0  0  0  0  0  0  0
   -1.8800   19.2090  -33.5930 C   0  0  0  0  0  0  0  0  0  0  0  0
   -0.5070   19.3620  -33.8140 C   0  0  0  0  0  0  0  0  0  0  0  0
    0.0110   19.0750  -34.9270 O   0  0  0  0  0  0  0  0  0  0  0  0
    0.2830   19.8210  -32.8170 N   0  0  0  0  0  0  0  0  0  0  0  0
   -0.2110   20.1360  -31.5960 C   0  0  0  0  0  0  0  0  0  0  0  0
    0.5930   20.5390  -30.7110 O   0  0  0  0  0  0  0  0  0  0  0  0
   -1.5550   20.0120  -31.3280 N   0  0  0  0  0  0  0  0  0  0  0  0
   -2.0560   20.3130  -29.9630 C   0  0  0  0  0  0  0  0  0  0  0  0
   -2.0390   21.8000  -29.6860 C   0  0  0  0  0  0  0  0  0  0  0  0
   -3.0800   22.6230  -30.1460 C   0  0  0  0  0  0  0  0  0  0  0  0
   -3.0510   24.0000  -29.9040 C   0  0  0  0  0  0  0  0  0  0  0  0
   -1.9900   24.5650  -29.1900 C   0  0  0  0  0  0  0  0  0  0  0  0
   -1.9660   25.9370  -28.9680 O   0  0  0  0  0  0  0  0  0  0  0  0
   -0.9610   23.7500  -28.7030 C   0  0  0  0  0  0  0  0  0  0  0  0
    0.3760   24.4430  -27.7990 Cl  0  0  0  0  0  0  0  0  0  0  0  0
   -0.9900   22.3720  -28.9450 C   0  0  0  0  0  0  0  0  0  0  0  0
   -2.4050   19.5650  -32.3250 C   0  0  0  0  0  0  0  0  0  0  0  0
   -3.7970   19.4270  -32.1200 C   0  0  0  0  0  0  0  0  0  0  0  0
   -8.1900   21.8270  -31.8200 C   0  0  0  0  0  0  0  0  0  0  0  0
   -9.5360   21.1650  -31.7160 C   0  0  0  0  0  0  0  0  0  0  0  0
   -7.9870   23.0600  -31.1760 C   0  0  0  0  0  0  0  0  0  0  0  0
   -6.5471   24.7907  -29.3895 H   0  0  0  0  0  0  0  0  0  0  0  0
   -5.5327   25.3919  -30.7446 H   0  0  0  0  0  0  0  0  0  0  0  0
   -7.3031   25.6957  -30.7446 H   0  0  0  0  0  0  0  0  0  0  0  0
   -4.6769   23.5419  -31.8725 H   0  0  0  0  0  0  0  0  0  0  0  0
   -5.0177   21.3735  -33.0429 H   0  0  0  0  0  0  0  0  0  0  0  0
   -8.1490   19.7910  -33.7180 H   0  0  0  0  0  0  0  0  0  0  0  0
   -4.7384   18.0983  -35.1232 H   0  0  0  0  0  0  0  0  0  0  0  0
   -2.3159   18.4437  -35.5822 H   0  0  0  0  0  0  0  0  0  0  0  0
   -3.0878   19.9432  -29.8705 H   0  0  0  0  0  0  0  0  0  0  0  0
   -1.3977   19.8169  -29.2346 H   0  0  0  0  0  0  0  0  0  0  0  0
   -3.9223   22.1822  -30.6994 H   0  0  0  0  0  0  0  0  0  0  0  0
   -3.8646   24.6399  -30.2762 H   0  0  0  0  0  0  0  0  0  0  0  0
   -0.1862   21.7317  -28.5526 H   0  0  0  0  0  0  0  0  0  0  0  0
   -4.2391   19.7632  -31.1705 H   0  0  0  0  0  0  0  0  0  0  0  0
   -9.7999   21.0352  -30.6560 H   0  0  0  0  0  0  0  0  0  0  0  0
  -10.2928   21.7937  -32.2079 H   0  0  0  0  0  0  0  0  0  0  0  0
   -9.5000   20.1818  -32.2079 H   0  0  0  0  0  0  0  0  0  0  0  0
   -8.8206   23.5360  -30.6388 H   0  0  0  0  0  0  0  0  0  0  0  0
  1  2  1  0
  2  3  2  0
  3  4  1  0
  4  5  2  0
  5  6  1  0
  6  7  1  0
  7  8  2  0
  7  9  2  0
  7 10  1  0
 10 11  2  0
 11 12  1  0
 12 13  2  0
 13 14  1  0
 14 15  2  0
 14 16  1  0
 16 17  1  0
 17 18  2  0
 17 19  1  0
 19 20  1  0
 20 21  1  0
 21 22  2  0
 22 23  1  0
 23 24  2  0
 24 25  1  0
 24 26  1  0
 26 27  1  0
 26 28  2  0
 19 29  1  0
 29 30  2  0
  5 31  1  0
 31 32  1  0
 31 33  2  0
 33  2  1  0
 30 10  1  0
 29 13  1  0
 28 21  1  0
  1 34  1  0
  1 35  1  0
  1 36  1  0
  3 37  1  0
  4 38  1  0
  6 39  1  0
 11 40  1  0
 12 41  1  0
 20 42  1  0
 20 43  1  0
 22 44  1  0
 23 45  1  0
 28 46  1  0
 30 47  1  0
 32 48  1  0
 32 49  1  0
 32 50  1  0
 33 51  1  0
M  CHG  2  16  -1  25  -1
M  END
>  <UniqueID>  (8) 
7

>  <SMILES>  (8) 
Cc1ccc(NS(=O)(=O)c2ccc3c(=O)[n-]c(=O)n(Cc4ccc([O-])c(Cl)c4)c3c2)c(C)c1

>  <Energy>  (8) 
68.35307176311134

>  <Genealogy>  (8) 
Cc1ccc(NS(=O)(=O)c2ccc3c(=O)[n-]c(=O)n(Cc4ccc([O-])c(Cl)c4)c3c2)c(C)c1 (protonated)
Cc1ccc(NS(=O)(=O)c2ccc3c(=O)[n-]c(=O)n(Cc4ccc([O-])c(Cl)c4)c3c2)c(C)c1 (3D coordinates assigned)
Cc1ccc(NS(=O)(=O)c2ccc3c(=O)[n-]c(=O)n(Cc4ccc([O-])c(Cl)c4)c3c2)c(C)c1 (optimized conformer: 68.35307176311134 kcal/mol)

>  <smiles>  (8) 
Cc1ccc(NS(=O)(=O)c2ccc3c(=O)[nH]c(=O)n(Cc4ccc(O)c(Cl)c4)c3c2)c(C)c1

>  <score_type>  (8) 
oracle

>  <origin>  (8) 
adgpu

>  <m_score__min__energy>  (8) 
-12.869999999999999

>  <m_primary>  (8) 
energy

$$$$
8:0
     RDKit          3D

 34 36  0  0  0  0  0  0  0  0999 V2000
   -5.9542   24.5915  -31.5483 H   0  0  0  0  0  0  0  0  0  0  0  0
   -5.0810   24.1520  -31.0440 C   0  0  0  0  0  0  0  0  0  0  0  0
   -4.1990   24.9590  -30.3950 N   0  0  0  0  0  0  0  0  0  0  0  0
   -3.1100   24.4580  -29.7600 C   0  0  0  0  0  0  0  0  0  0  0  0
   -2.2430   25.2850  -29.1220 N   0  0  0  0  0  0  0  0  0  0  0  0
   -1.1440   24.8010  -28.4760 C   0  0  0  0  0  0  0  0  0  0  0  0
   -0.3230   25.6090  -27.8710 N   0  0  0  0  0  0  0  0  0  0  0  0
   -0.4870   27.0580  -27.8250 C   0  0  0  0  0  0  0  0  0  0  0  0
   -0.5245   27.3897  -26.7769 H   0  0  0  0  0  0  0  0  0  0  0  0
    0.3624   27.5394  -28.3317 H   0  0  0  0  0  0  0  0  0  0  0  0
   -1.4225   27.3374  -28.3317 H   0  0  0  0  0  0  0  0  0  0  0  0
   -0.9090   23.4100  -28.4700 C   0  0  0  0  0  0  0  0  0  0  0  0
    0.2820   22.8190  -27.7750 C   0  0  0  0  0  0  0  0  0  0  0  0
    0.1427   22.8881  -26.6860 H   0  0  0  0  0  0  0  0  0  0  0  0
    0.3890   21.7632  -28.0647 H   0  0  0  0  0  0  0  0  0  0  0  0
    1.1875   23.3723  -28.0647 H   0  0  0  0  0  0  0  0  0  0  0  0
   -1.7830   22.5860  -29.1110 N   0  0  0  0  0  0  0  0  0  0  0  0
   -2.8740   23.0750  -29.7530 C   0  0  0  0  0  0  0  0  0  0  0  0
   -3.7660   22.2240  -30.4080 C   0  0  0  0  0  0  0  0  0  0  0  0
   -3.5944   21.1375  -30.4024 H   0  0  0  0  0  0  0  0  0  0  0  0
   -4.8840   22.7560  -31.0750 C   0  0  0  0  0  0  0  0  0  0  0  0
   -5.8370   21.8500  -31.7670 C   0  0  0  0  0  0  0  0  0  0  0  0
   -5.3630   20.9560  -32.6800 N   0  0  0  0  0  0  0  0  0  0  0  0
   -6.1790   20.1060  -33.3560 C   0  0  0  0  0  0  0  0  0  0  0  0
   -5.6530   19.2390  -34.2550 F   0  0  0  0  0  0  0  0  0  0  0  0
   -7.5550   20.1280  -33.1280 C   0  0  0  0  0  0  0  0  0  0  0  0
   -8.2192   19.4450  -33.6779 H   0  0  0  0  0  0  0  0  0  0  0  0
   -8.0840   21.0270  -32.1930 C   0  0  0  0  0  0  0  0  0  0  0  0
   -9.5650   21.1040  -31.9730 C   0  0  0  0  0  0  0  0  0  0  0  0
   -9.7752   21.1149  -30.8933 H   0  0  0  0  0  0  0  0  0  0  0  0
   -9.9566   22.0237  -32.4321 H   0  0  0  0  0  0  0  0  0  0  0  0
  -10.0498   20.2298  -32.4321 H   0  0  0  0  0  0  0  0  0  0  0  0
   -7.2220   21.9060  -31.5220 C   0  0  0  0  0  0  0  0  0  0  0  0
   -7.6267   22.6369  -30.8065 H   0  0  0  0  0  0  0  0  0  0  0  0
  1  2  1  0
  2  3  2  0
  3  4  1  0
  4  5  1  0
  5  6  1  0
  6  7  2  0
  7  8  1  0
  8  9  1  0
  8 10  1  0
  8 11  1  0
  6 12  1  0
 12 13  1  0
 13 14  1  0
 13 15  1  0
 13 16  1  0
 12 17  2  0
 17 18  1  0
 18 19  1  0
 19 20  1  0
 19 21  2  0
 21 22  1  0
 22 23  2  0
 23 24  1  0
 24 25  1  0
 24 26  2  0
 26 27  1  0
 26 28  1  0
 28 29  1  0
 29 30  1  0
 29 31  1  0
 29 32  1  0
 28 33  2  0
 33 34  1  0
 21  2  1  0
 33 22  1  0
 18  4  2  0
M  CHG  1   5  -1
M  END
>  <UniqueID>  (9) 
8

>  <SMILES>  (9) 
C/N=c1\[n-]c2ncc(-c3cc(C)cc(F)n3)cc2nc1C

>  <Energy>  (9) 
43.31886712225345

>  <Genealogy>  (9) 
CN=c1[n-]c2ncc(-c3cc(C)cc(F)n3)cc2nc1C (protonated)
C/N=c1\[n-]c2ncc(-c3cc(C)cc(F)n3)cc2nc1C (cis-trans isomerization)
C/N=c1\[n-]c2ncc(-c3cc(C)cc(F)n3)cc2nc1C (3D coordinates assigned)
C/N=c1\[n-]c2ncc(-c3cc(C)cc(F)n3)cc2nc1C (optimized conformer: 43.31886712225345 kcal/mol)

>  <smiles>  (9) 
CN=c1[nH]c2ncc(-c3cc(C)cc(F)n3)cc2nc1C

>  <score_type>  (9) 
oracle

>  <origin>  (9) 
adgpu

>  <m_score__min__energy>  (9) 
-9.0500000000000007

>  <m_primary>  (9) 
energy

$$$$
9:0
     RDKit          3D

 44 46  0  0  0  0  0  0  0  0999 V2000
    1.3770   24.3410  -27.4670 C   0  0  0  0  0  0  0  0  0  0  0  0
    0.3230   24.3980  -28.4210 O   0  0  0  0  0  0  0  0  0  0  0  0
   -0.9450   23.8270  -28.2360 C   0  0  0  0  0  0  0  0  0  0  0  0
   -1.0180   22.4780  -27.8710 C   0  0  0  0  0  0  0  0  0  0  0  0
   -2.2560   21.8640  -27.6720 C   0  0  0  0  0  0  0  0  0  0  0  0
   -3.4360   22.5920  -27.8400 C   0  0  0  0  0  0  0  0  0  0  0  0
   -3.3880   23.9470  -28.2150 C   0  0  0  0  0  0  0  0  0  0  0  0
   -4.5830   24.7260  -28.4030 N   0  0  0  0  0  0  0  0  0  0  0  0
   -5.3830   24.9180  -29.9320 S   0  0  0  0  0  0  0  0  0  0  0  0
   -6.6500   25.7010  -29.7290 O   0  0  0  0  0  0  0  0  0  0  0  0
   -4.4860   25.6750  -30.8700 O   0  0  0  0  0  0  0  0  0  0  0  0
   -5.7290   23.3400  -30.6330 C   0  0  0  0  0  0  0  0  0  0  0  0
   -4.7000   22.5670  -31.1870 C   0  0  0  0  0  0  0  0  0  0  0  0
   -4.9840   21.3220  -31.7560 C   0  0  0  0  0  0  0  0  0  0  0  0
   -6.2990   20.8270  -31.7690 C   0  0  0  0  0  0  0  0  0  0  0  0
   -6.5880   19.5140  -32.3880 C   0  0  0  0  0  0  0  0  0  0  0  0
   -5.6660   18.7050  -33.0270 C   0  0  0  0  0  0  0  0  0  0  0  0
   -6.3720   17.5940  -33.4430 C   0  0  0  0  0  0  0  0  0  0  0  0
   -5.8070   16.4460  -34.2100 C   0  0  0  0  0  0  0  0  0  0  0  0
   -7.6310   17.6930  -33.0850 O   0  0  0  0  0  0  0  0  0  0  0  0
   -7.7960   18.8250  -32.4400 C   0  0  0  0  0  0  0  0  0  0  0  0
   -9.1090   19.2490  -31.8650 C   0  0  0  0  0  0  0  0  0  0  0  0
   -7.3280   21.6130  -31.2200 C   0  0  0  0  0  0  0  0  0  0  0  0
   -7.0420   22.8560  -30.6510 C   0  0  0  0  0  0  0  0  0  0  0  0
   -2.1370   24.5580  -28.4050 C   0  0  0  0  0  0  0  0  0  0  0  0
    0.9542   24.3639  -26.4517 H   0  0  0  0  0  0  0  0  0  0  0  0
    1.9473   23.4107  -27.6058 H   0  0  0  0  0  0  0  0  0  0  0  0
    2.0443   25.2044  -27.6058 H   0  0  0  0  0  0  0  0  0  0  0  0
   -0.0931   21.8971  -27.7399 H   0  0  0  0  0  0  0  0  0  0  0  0
   -2.3022   20.8039  -27.3821 H   0  0  0  0  0  0  0  0  0  0  0  0
   -4.4081   22.1032  -27.6782 H   0  0  0  0  0  0  0  0  0  0  0  0
   -4.9600   25.2800  -27.6020 H   0  0  0  0  0  0  0  0  0  0  0  0
   -3.6656   22.9409  -31.1742 H   0  0  0  0  0  0  0  0  0  0  0  0
   -4.1718   20.7254  -32.1969 H   0  0  0  0  0  0  0  0  0  0  0  0
   -4.5943   18.9050  -33.1732 H   0  0  0  0  0  0  0  0  0  0  0  0
   -5.4327   15.6854  -33.5090 H   0  0  0  0  0  0  0  0  0  0  0  0
   -6.5917   16.0064  -34.8433 H   0  0  0  0  0  0  0  0  0  0  0  0
   -4.9800   16.7996  -34.8433 H   0  0  0  0  0  0  0  0  0  0  0  0
   -9.0514   19.2304  -30.7667 H   0  0  0  0  0  0  0  0  0  0  0  0
   -9.3449   20.2690  -32.2026 H   0  0  0  0  0  0  0  0  0  0  0  0
   -9.8969   18.5596  -32.2026 H   0  0  0  0  0  0  0  0  0  0  0  0
   -8.3649   21.2463  -31.2389 H   0  0  0  0  0  0  0  0  0  0  0  0
   -7.8530   23.4577  -30.2147 H   0  0  0  0  0  0  0  0  0  0  0  0
   -2.0880   25.6196  -28.6890 H   0  0  0  0  0  0  0  0  0  0  0  0
  1  2  1  0
  2  3  1  0
  3  4  2  0
  4  5  1  0
  5  6  2  0
  6  7  1  0
  7  8  1  0
  8  9  1  0
  9 10  2  0
  9 11  2  0
  9 12  1  0
 12 13  2  0
 13 14  1  0
 14 15  2  0
 15 16  1  0
 16 17  1  0
 17 18  2  0
 18 19  1  0
 18 20  1  0
 20 21  1  0
 21 22  1  0
 15 23  1  0
 23 24  2  0
  7 25  2  0
 25  3  1  0
 24 12  1  0
 21 16  2  0
  1 26  1  0
  1 27  1  0
  1 28  1  0
  4 29  1  0
  5 30  1  0
  6 31  1  0
  8 32  1  0
 13 33  1  0
 14 34  1  0
 17 35  1  0
 19 36  1  0
 19 37  1  0
 19 38  1  0
 22 39  1  0
 22 40  1  0
 22 41  1  0
 23 42  1  0
 24 43  1  0
 25 44  1  0
M  END
>  <UniqueID>  (10) 
9

>  <SMILES>  (10) 
COc1cccc(NS(=O)(=O)c2ccc(-c3cc(C)oc3C)cc2)c1

>  <Energy>  (10) 
76.33156788968873

>  <Genealogy>  (10) 
COc1cccc(NS(=O)(=O)c2ccc(-c3cc(C)oc3C)cc2)c1 (3D coordinates assigned)
COc1cccc(NS(=O)(=O)c2ccc(-c3cc(C)oc3C)cc2)c1 (optimized conformer: 76.33156788968873 kcal/mol)

>  <smiles>  (10) 
COc1cccc(NS(=O)(=O)c2ccc(-c3cc(C)oc3C)cc2)c1

>  <score_type>  (10) 
oracle

>  <origin>  (10) 
adgpu

>  <m_score__min__energy>  (10) 
-9.6500000000000004

>  <m_primary>  (10) 
energy

$$$$
10:0
     RDKit          3D

 47 50  0  0  0  0  0  0  0  0999 V2000
   -2.8501   26.4624  -25.8360 H   0  0  0  0  0  0  0  0  0  0  0  0
   -2.4160   25.6210  -26.3960 C   0  0  0  0  0  0  0  0  0  0  0  0
   -1.0640   25.6380  -26.7430 C   0  0  0  0  0  0  0  0  0  0  0  0
   -0.4344   26.4940  -26.4586 H   0  0  0  0  0  0  0  0  0  0  0  0
   -0.5100   24.5690  -27.4510 C   0  0  0  0  0  0  0  0  0  0  0  0
    0.5545   24.5898  -27.7275 H   0  0  0  0  0  0  0  0  0  0  0  0
   -1.3030   23.4680  -27.8120 C   0  0  0  0  0  0  0  0  0  0  0  0
   -2.6760   23.4630  -27.4830 C   0  0  0  0  0  0  0  0  0  0  0  0
   -3.2180   24.5370  -26.7590 C   0  0  0  0  0  0  0  0  0  0  0  0
   -4.2809   24.5244  -26.4760 H   0  0  0  0  0  0  0  0  0  0  0  0
   -3.5520   22.2760  -27.8110 C   0  0  0  0  0  0  0  0  0  0  0  0
   -3.6590   21.6596  -26.9062 H   0  0  0  0  0  0  0  0  0  0  0  0
   -4.5186   22.6689  -28.1593 H   0  0  0  0  0  0  0  0  0  0  0  0
   -3.0060   21.4330  -28.8910 N   0  0  0  0  0  0  0  0  0  0  0  0
   -3.3190   22.1200  -30.4710 S   0  0  0  0  0  0  0  0  0  0  0  0
   -3.4070   21.0360  -31.5100 O   0  0  0  0  0  0  0  0  0  0  0  0
   -2.1870   23.0380  -30.8420 O   0  0  0  0  0  0  0  0  0  0  0  0
   -4.8100   23.0600  -30.4530 C   0  0  0  0  0  0  0  0  0  0  0  0
   -4.8320   24.3550  -29.9200 C   0  0  0  0  0  0  0  0  0  0  0  0
   -3.9152   24.7901  -29.4955 H   0  0  0  0  0  0  0  0  0  0  0  0
   -6.0160   25.0940  -29.9270 C   0  0  0  0  0  0  0  0  0  0  0  0
   -6.0308   26.1093  -29.5041 H   0  0  0  0  0  0  0  0  0  0  0  0
   -7.1820   24.5490  -30.4690 C   0  0  0  0  0  0  0  0  0  0  0  0
   -8.1107   25.1385  -30.4714 H   0  0  0  0  0  0  0  0  0  0  0  0
   -7.1770   23.2510  -31.0120 C   0  0  0  0  0  0  0  0  0  0  0  0
   -8.4100   22.6740  -31.5990 C   0  0  0  0  0  0  0  0  0  0  0  0
   -9.1680   23.4000  -32.2980 O   0  0  0  0  0  0  0  0  0  0  0  0
   -8.6880   21.2710  -31.4450 N   0  0  0  0  0  0  0  0  0  0  0  0
   -8.0920   20.2490  -31.9990 C   0  0  0  0  0  0  0  0  0  0  0  0
   -7.1070   20.3910  -33.0020 C   0  0  0  0  0  0  0  0  0  0  0  0
   -6.8034   21.3918  -33.3430 H   0  0  0  0  0  0  0  0  0  0  0  0
   -6.5220   19.2510  -33.5570 C   0  0  0  0  0  0  0  0  0  0  0  0
   -5.7499   19.3521  -34.3339 H   0  0  0  0  0  0  0  0  0  0  0  0
   -6.9160   17.9850  -33.1270 C   0  0  0  0  0  0  0  0  0  0  0  0
   -6.1880   16.5470  -33.8200 Cl  0  0  0  0  0  0  0  0  0  0  0  0
   -7.9040   17.8750  -32.1490 C   0  0  0  0  0  0  0  0  0  0  0  0
   -8.2278   16.8811  -31.8064 H   0  0  0  0  0  0  0  0  0  0  0  0
   -8.4690   18.9930  -31.6170 N   0  0  0  0  0  0  0  0  0  0  0  0
   -9.2080   18.8750  -30.8860 H   0  0  0  0  0  0  0  0  0  0  0  0
   -5.9790   22.5130  -30.9990 C   0  0  0  0  0  0  0  0  0  0  0  0
   -5.9599   21.4975  -31.4213 H   0  0  0  0  0  0  0  0  0  0  0  0
   -1.5840   21.1110  -28.6700 C   0  0  0  0  0  0  0  0  0  0  0  0
   -1.4888   20.5771  -27.7130 H   0  0  0  0  0  0  0  0  0  0  0  0
   -1.2481   20.4933  -29.5159 H   0  0  0  0  0  0  0  0  0  0  0  0
   -0.6940   22.3590  -28.6260 C   0  0  0  0  0  0  0  0  0  0  0  0
    0.2752   22.0865  -28.1829 H   0  0  0  0  0  0  0  0  0  0  0  0
   -0.5768   22.7244  -29.6569 H   0  0  0  0  0  0  0  0  0  0  0  0
  1  2  1  0
  2  3  2  0
  3  4  1  0
  3  5  1  0
  5  6  1  0
  5  7  2  0
  7  8  1  0
  8  9  2  0
  9 10  1  0
  8 11  1  0
 11 12  1  0
 11 13  1  0
 11 14  1  0
 14 15  1  0
 15 16  2  0
 15 17  2  0
 15 18  1  0
 18 19  2  0
 19 20  1  0
 19 21  1  0
 21 22  1  0
 21 23  2  0
 23 24  1  0
 23 25  1  0
 25 26  1  0
 26 27  2  0
 26 28  1  0
 28 29  2  0
 29 30  1  0
 30 31  1  0
 30 32  2  0
 32 33  1  0
 32 34  1  0
 34 35  1  0
 34 36  2  0
 36 37  1  0
 36 38  1  0
 38 39  1  0
 25 40  2  0
 40 41  1  0
 14 42  1  0
 42 43  1  0
 42 44  1  0
 42 45  1  0
 45 46  1  0
 45 47  1  0
  9  2  1  0
 40 18  1  0
 45  7  1  0
 38 29  1  0
M  END
>  <UniqueID>  (11) 
10

>  <SMILES>  (11) 
O=C(/N=c1\ccc(Cl)c[nH]1)c1cccc(S(=O)(=O)N2CCc3ccccc3C2)c1

>  <Energy>  (11) 
64.38240292670447

>  <Genealogy>  (11) 
O=C(/N=c1\ccc(Cl)c[nH]1)c1cccc(S(=O)(=O)N2CCc3ccccc3C2)c1 (cis-trans isomerization)
O=C(/N=c1\ccc(Cl)c[nH]1)c1cccc(S(=O)(=O)N2CCc3ccccc3C2)c1 (3D coordinates assigned)
O=C(/N=c1\ccc(Cl)c[nH]1)c1cccc(S(=O)(=O)N2CCc3ccccc3C2)c1 (nonaromatic ring conformer: 64.38240292670447 kcal/mol)

>  <smiles>  (11) 
O=C(N=c1ccc(Cl)c[nH]1)c1cccc(S(=O)(=O)N2CCc3ccccc3C2)c1

>  <score_type>  (11) 
oracle

>  <origin>  (11) 
adgpu

>  <m_score__min__energy>  (11) 
-10.449999999999999

>  <m_primary>  (11) 
energy

$$$$
11:0
     RDKit          3D

 50 52  0  0  0  0  0  0  0  0999 V2000
   -4.4460   14.8810  -32.3450 C   0  0  0  0  0  0  0  0  0  0  0  0
   -4.1440   16.2500  -32.6110 O   0  0  0  0  0  0  0  0  0  0  0  0
   -5.1090   17.2570  -32.7560 C   0  0  0  0  0  0  0  0  0  0  0  0
   -6.1550   17.3160  -31.8260 C   0  0  0  0  0  0  0  0  0  0  0  0
   -7.1290   18.3170  -31.9110 C   0  0  0  0  0  0  0  0  0  0  0  0
   -7.0910   19.2580  -32.9610 C   0  0  0  0  0  0  0  0  0  0  0  0
   -8.0940   20.2830  -33.1050 N   0  0  0  0  0  0  0  0  0  0  0  0
   -8.5420   21.4000  -31.8520 S   0  0  0  0  0  0  0  0  0  0  0  0
   -9.6990   22.2400  -32.3260 O   0  0  0  0  0  0  0  0  0  0  0  0
   -8.9730   20.6350  -30.6280 O   0  0  0  0  0  0  0  0  0  0  0  0
   -7.1810   22.4560  -31.4940 C   0  0  0  0  0  0  0  0  0  0  0  0
   -7.3470   23.5090  -30.5840 C   0  0  0  0  0  0  0  0  0  0  0  0
   -6.2640   24.3250  -30.2470 C   0  0  0  0  0  0  0  0  0  0  0  0
   -5.0020   24.1070  -30.8340 C   0  0  0  0  0  0  0  0  0  0  0  0
   -3.8550   24.8910  -30.4710 N   0  0  0  0  0  0  0  0  0  0  0  0
   -2.7950   24.4870  -29.5930 C   0  0  0  0  0  0  0  0  0  0  0  0
   -2.1640   25.3770  -28.9620 O   0  0  0  0  0  0  0  0  0  0  0  0
   -2.4640   23.0610  -29.3620 C   0  0  0  0  0  0  0  0  0  0  0  0
   -2.6830   22.4790  -28.0990 C   0  0  0  0  0  0  0  0  0  0  0  0
   -2.3650   21.1370  -27.8760 C   0  0  0  0  0  0  0  0  0  0  0  0
   -1.8420   20.3580  -28.9110 C   0  0  0  0  0  0  0  0  0  0  0  0
   -1.6390   20.9200  -30.1800 C   0  0  0  0  0  0  0  0  0  0  0  0
   -0.9980   19.9460  -31.5000 S   0  0  0  0  0  0  0  0  0  0  0  0
   -0.0160   18.6200  -30.8390 C   0  0  0  0  0  0  0  0  0  0  0  0
   -0.1520   20.8100  -32.3950 O   0  0  0  0  0  0  0  0  0  0  0  0
   -2.1210   19.3610  -32.3090 O   0  0  0  0  0  0  0  0  0  0  0  0
   -1.9520   22.2680  -30.4030 C   0  0  0  0  0  0  0  0  0  0  0  0
   -4.8390   23.0490  -31.7380 C   0  0  0  0  0  0  0  0  0  0  0  0
   -5.9210   22.2290  -32.0700 C   0  0  0  0  0  0  0  0  0  0  0  0
   -6.0460   19.1920  -33.8960 C   0  0  0  0  0  0  0  0  0  0  0  0
   -5.0580   18.2070  -33.7960 C   0  0  0  0  0  0  0  0  0  0  0  0
   -4.4820   14.7180  -31.2577 H   0  0  0  0  0  0  0  0  0  0  0  0
   -5.4215   14.6283  -32.7861 H   0  0  0  0  0  0  0  0  0  0  0  0
   -3.6674   14.2413  -32.7861 H   0  0  0  0  0  0  0  0  0  0  0  0
   -6.2112   16.5682  -31.0212 H   0  0  0  0  0  0  0  0  0  0  0  0
   -7.9273   18.3703  -31.1561 H   0  0  0  0  0  0  0  0  0  0  0  0
   -8.5990   20.3710  -34.0170 H   0  0  0  0  0  0  0  0  0  0  0  0
   -8.3334   23.6937  -30.1335 H   0  0  0  0  0  0  0  0  0  0  0  0
   -6.3972   25.1404  -29.5208 H   0  0  0  0  0  0  0  0  0  0  0  0
   -3.1066   23.0839  -27.2837 H   0  0  0  0  0  0  0  0  0  0  0  0
   -2.5269   20.6926  -26.8829 H   0  0  0  0  0  0  0  0  0  0  0  0
   -1.5891   19.3028  -28.7306 H   0  0  0  0  0  0  0  0  0  0  0  0
   -0.0430   18.6564  -29.7399 H   0  0  0  0  0  0  0  0  0  0  0  0
   -0.4204   17.6570  -31.1840 H   0  0  0  0  0  0  0  0  0  0  0  0
    1.0231   18.7260  -31.1840 H   0  0  0  0  0  0  0  0  0  0  0  0
   -1.7959   22.7078  -31.3991 H   0  0  0  0  0  0  0  0  0  0  0  0
   -3.8533   22.8626  -32.1892 H   0  0  0  0  0  0  0  0  0  0  0  0
   -5.7850   21.4037  -32.7844 H   0  0  0  0  0  0  0  0  0  0  0  0
   -6.0037   19.9233  -34.7167 H   0  0  0  0  0  0  0  0  0  0  0  0
   -4.2397   18.1737  -34.5303 H   0  0  0  0  0  0  0  0  0  0  0  0
  1  2  1  0
  2  3  1  0
  3  4  2  0
  4  5  1  0
  5  6  2  0
  6  7  1  0
  7  8  1  0
  8  9  2  0
  8 10  2  0
  8 11  1  0
 11 12  2  0
 12 13  1  0
 13 14  2  0
 14 15  1  0
 15 16  1  0
 16 17  2  0
 16 18  1  0
 18 19  2  0
 19 20  1  0
 20 21  2  0
 21 22  1  0
 22 23  1  0
 23 24  1  0
 23 25  2  0
 23 26  2  0
 22 27  2  0
 14 28  1  0
 28 29  2  0
  6 30  1  0
 30 31  2  0
 31  3  1  0
 29 11  1  0
 27 18  1  0
  1 32  1  0
  1 33  1  0
  1 34  1  0
  4 35  1  0
  5 36  1  0
  7 37  1  0
 12 38  1  0
 13 39  1  0
 19 40  1  0
 20 41  1  0
 21 42  1  0
 24 43  1  0
 24 44  1  0
 24 45  1  0
 27 46  1  0
 28 47  1  0
 29 48  1  0
 30 49  1  0
 31 50  1  0
M  CHG  1  15  -1
M  END
>  <UniqueID>  (12) 
11

>  <SMILES>  (12) 
COc1ccc(NS(=O)(=O)c2ccc([N-]C(=O)c3cccc(S(C)(=O)=O)c3)cc2)cc1

>  <Energy>  (12) 
55.768022911401395

>  <Genealogy>  (12) 
COc1ccc(NS(=O)(=O)c2ccc([N-]C(=O)c3cccc(S(C)(=O)=O)c3)cc2)cc1 (protonated)
COc1ccc(NS(=O)(=O)c2ccc([N-]C(=O)c3cccc(S(C)(=O)=O)c3)cc2)cc1 (3D coordinates assigned)
COc1ccc(NS(=O)(=O)c2ccc([N-]C(=O)c3cccc(S(C)(=O)=O)c3)cc2)cc1 (optimized conformer: 55.768022911401395 kcal/mol)

>  <smiles>  (12) 
COc1ccc(NS(=O)(=O)c2ccc(NC(=O)c3cccc(S(C)(=O)=O)c3)cc2)cc1

>  <score_type>  (12) 
oracle

>  <origin>  (12) 
adgpu

>  <m_score__min__energy>  (12) 
-11.81

>  <m_primary>  (12) 
energy

$$$$
12:0
     RDKit          3D

 41 42  0  0  0  0  0  0  0  0999 V2000
   -6.4820   25.6900  -29.4340 C   0  0  0  0  0  0  0  0  0  0  0  0
   -6.1360   24.2950  -29.7310 N   0  0  0  0  0  0  0  0  0  0  0  0
   -6.9040   23.8180  -30.8870 C   0  0  0  0  0  0  0  0  0  0  0  0
   -4.4250   24.1660  -30.0610 S   0  0  0  0  0  0  0  0  0  0  0  0
   -3.9710   25.3770  -30.8280 O   0  0  0  0  0  0  0  0  0  0  0  0
   -3.6670   24.1280  -28.7630 O   0  0  0  0  0  0  0  0  0  0  0  0
   -4.0490   22.7160  -30.9940 C   0  0  0  0  0  0  0  0  0  0  0  0
   -4.3200   22.6690  -32.3680 C   0  0  0  0  0  0  0  0  0  0  0  0
   -4.0210   21.5220  -33.1060 C   0  0  0  0  0  0  0  0  0  0  0  0
   -3.4450   20.4090  -32.4790 C   0  0  0  0  0  0  0  0  0  0  0  0
   -3.0590   18.9640  -33.4100 S   0  0  0  0  0  0  0  0  0  0  0  0
   -2.2730   18.0010  -32.5650 O   0  0  0  0  0  0  0  0  0  0  0  0
   -2.2220   19.3460  -34.5980 O   0  0  0  0  0  0  0  0  0  0  0  0
   -4.5220   18.1810  -33.9390 N   0  0  0  0  0  0  0  0  0  0  0  0
   -4.4530   17.2000  -35.0250 C   0  0  0  0  0  0  0  0  0  0  0  0
   -5.7890   18.5050  -33.3280 C   0  0  0  0  0  0  0  0  0  0  0  0
   -6.4850   19.6740  -33.6930 C   0  0  0  0  0  0  0  0  0  0  0  0
   -7.7140   19.9820  -33.1040 C   0  0  0  0  0  0  0  0  0  0  0  0
   -8.2670   19.1290  -32.1450 C   0  0  0  0  0  0  0  0  0  0  0  0
   -9.4610   19.4290  -31.5790 F   0  0  0  0  0  0  0  0  0  0  0  0
   -7.5910   17.9660  -31.7760 C   0  0  0  0  0  0  0  0  0  0  0  0
   -6.3590   17.6550  -32.3610 C   0  0  0  0  0  0  0  0  0  0  0  0
   -3.1810   20.4530  -31.1040 C   0  0  0  0  0  0  0  0  0  0  0  0
   -3.4790   21.6010  -30.3650 C   0  0  0  0  0  0  0  0  0  0  0  0
   -6.5179   25.8348  -28.3442 H   0  0  0  0  0  0  0  0  0  0  0  0
   -5.7220   26.3566  -29.8676 H   0  0  0  0  0  0  0  0  0  0  0  0
   -7.4654   25.9242  -29.8676 H   0  0  0  0  0  0  0  0  0  0  0  0
   -7.7899   23.2678  -30.5369 H   0  0  0  0  0  0  0  0  0  0  0  0
   -7.2228   24.6773  -31.4953 H   0  0  0  0  0  0  0  0  0  0  0  0
   -6.2750   23.1514  -31.4953 H   0  0  0  0  0  0  0  0  0  0  0  0
   -4.7703   23.5395  -32.8674 H   0  0  0  0  0  0  0  0  0  0  0  0
   -4.2385   21.4920  -34.1839 H   0  0  0  0  0  0  0  0  0  0  0  0
   -4.3818   16.1876  -34.6007 H   0  0  0  0  0  0  0  0  0  0  0  0
   -5.3586   17.2749  -35.6449 H   0  0  0  0  0  0  0  0  0  0  0  0
   -3.5668   17.4009  -35.6449 H   0  0  0  0  0  0  0  0  0  0  0  0
   -6.0574   20.3500  -34.4480 H   0  0  0  0  0  0  0  0  0  0  0  0
   -8.2478   20.8984  -33.3959 H   0  0  0  0  0  0  0  0  0  0  0  0
   -8.0274   17.2924  -31.0238 H   0  0  0  0  0  0  0  0  0  0  0  0
   -5.8304   16.7376  -32.0627 H   0  0  0  0  0  0  0  0  0  0  0  0
   -2.7370   19.5798  -30.6036 H   0  0  0  0  0  0  0  0  0  0  0  0
   -3.2655   21.6295  -29.2863 H   0  0  0  0  0  0  0  0  0  0  0  0
  1  2  1  0
  2  3  1  0
  2  4  1  0
  4  5  2  0
  4  6  2  0
  4  7  1  0
  7  8  2  0
  8  9  1  0
  9 10  2  0
 10 11  1  0
 11 12  2  0
 11 13  2  0
 11 14  1  0
 14 15  1  0
 14 16  1  0
 16 17  2  0
 17 18  1  0
 18 19  2  0
 19 20  1  0
 19 21  1  0
 21 22  2  0
 10 23  1  0
 23 24  2  0
 24  7  1  0
 22 16  1  0
  1 25  1  0
  1 26  1  0
  1 27  1  0
  3 28  1  0
  3 29  1  0
  3 30  1  0
  8 31  1  0
  9 32  1  0
 15 33  1  0
 15 34  1  0
 15 35  1  0
 17 36  1  0
 18 37  1  0
 21 38  1  0
 22 39  1  0
 23 40  1  0
 24 41  1  0
M  END
>  <UniqueID>  (13) 
12

>  <SMILES>  (13) 
CN(C)S(=O)(=O)c1ccc(S(=O)(=O)N(C)c2ccc(F)cc2)cc1

>  <Energy>  (13) 
42.780174541285774

>  <Genealogy>  (13) 
CN(C)S(=O)(=O)c1ccc(S(=O)(=O)N(C)c2ccc(F)cc2)cc1 (3D coordinates assigned)
CN(C)S(=O)(=O)c1ccc(S(=O)(=O)N(C)c2ccc(F)cc2)cc1 (optimized conformer: 42.780174541285774 kcal/mol)

>  <smiles>  (13) 
CN(C)S(=O)(=O)c1ccc(S(=O)(=O)N(C)c2ccc(F)cc2)cc1

>  <score_type>  (13) 
oracle

>  <origin>  (13) 
adgpu

>  <m_score__min__energy>  (13) 
-8.5700000000000003

>  <m_primary>  (13) 
energy

$$$$
13:0
     RDKit          3D

 49 52  0  0  0  0  0  0  0  0999 V2000
   -5.5140   26.3350  -30.4520 O   0  0  0  0  0  0  0  0  0  0  0  0
   -4.8610   25.2800  -30.6760 C   0  0  0  0  0  0  0  0  0  0  0  0
   -3.4820   25.2930  -30.5040 O   0  0  0  0  0  0  0  0  0  0  0  0
   -5.5510   24.0450  -31.1130 C   0  0  0  0  0  0  0  0  0  0  0  0
   -4.8290   22.8570  -31.3170 C   0  0  0  0  0  0  0  0  0  0  0  0
   -5.4750   21.6900  -31.7470 C   0  0  0  0  0  0  0  0  0  0  0  0
   -4.7080   20.4870  -31.9230 N   0  0  0  0  0  0  0  0  0  0  0  0
   -3.7640   20.2910  -32.9920 C   0  0  0  0  0  0  0  0  0  0  0  0
   -3.5030   21.2400  -33.7810 O   0  0  0  0  0  0  0  0  0  0  0  0
   -3.0810   18.9890  -33.1890 C   0  0  0  0  0  0  0  0  0  0  0  0
   -3.8270   17.8660  -33.6250 C   0  0  0  0  0  0  0  0  0  0  0  0
   -3.2060   16.6240  -33.8240 C   0  0  0  0  0  0  0  0  0  0  0  0
   -1.8340   16.5230  -33.5870 C   0  0  0  0  0  0  0  0  0  0  0  0
   -1.1000   17.5990  -33.1760 C   0  0  0  0  0  0  0  0  0  0  0  0
   -1.6900   18.8470  -32.9720 C   0  0  0  0  0  0  0  0  0  0  0  0
    0.3350   17.2250  -33.0170 C   0  0  0  0  0  0  0  0  0  0  0  0
    0.3600   15.7250  -33.4040 C   0  0  0  0  0  0  0  0  0  0  0  0
   -1.0190   15.3770  -33.7330 N   0  0  0  0  0  0  0  0  0  0  0  0
   -1.5420   13.8180  -34.2820 S   0  0  0  0  0  0  0  0  0  0  0  0
   -1.9860   13.9110  -35.7150 O   0  0  0  0  0  0  0  0  0  0  0  0
   -0.4040   12.8410  -34.1840 O   0  0  0  0  0  0  0  0  0  0  0  0
   -2.8850   13.2580  -33.2900 C   0  0  0  0  0  0  0  0  0  0  0  0
   -3.8470   12.3920  -33.8290 C   0  0  0  0  0  0  0  0  0  0  0  0
   -4.9280   11.9690  -33.0490 C   0  0  0  0  0  0  0  0  0  0  0  0
   -5.0560   12.4140  -31.7300 C   0  0  0  0  0  0  0  0  0  0  0  0
   -4.1040   13.2840  -31.1910 C   0  0  0  0  0  0  0  0  0  0  0  0
   -3.0210   13.7080  -31.9690 C   0  0  0  0  0  0  0  0  0  0  0  0
   -6.8670   21.7020  -31.9350 C   0  0  0  0  0  0  0  0  0  0  0  0
   -7.6070   22.8790  -31.7350 C   0  0  0  0  0  0  0  0  0  0  0  0
   -9.0730   22.8820  -31.9430 C   0  0  0  0  0  0  0  0  0  0  0  0
   -9.7940   21.9790  -31.4420 O   0  0  0  0  0  0  0  0  0  0  0  0
   -9.6750   23.8830  -32.6980 O   0  0  0  0  0  0  0  0  0  0  0  0
   -6.9390   24.0480  -31.3290 C   0  0  0  0  0  0  0  0  0  0  0  0
   -3.7439   22.8427  -31.1371 H   0  0  0  0  0  0  0  0  0  0  0  0
   -4.8190   19.7480  -31.1960 H   0  0  0  0  0  0  0  0  0  0  0  0
   -4.9064   17.9694  -33.8097 H   0  0  0  0  0  0  0  0  0  0  0  0
   -3.7859   15.7512  -34.1586 H   0  0  0  0  0  0  0  0  0  0  0  0
   -1.0840   19.7059  -32.6480 H   0  0  0  0  0  0  0  0  0  0  0  0
    0.9728   17.8160  -33.6907 H   0  0  0  0  0  0  0  0  0  0  0  0
    0.7182   17.4134  -32.0033 H   0  0  0  0  0  0  0  0  0  0  0  0
    1.0137   15.5646  -34.2740 H   0  0  0  0  0  0  0  0  0  0  0  0
    0.7511   15.1020  -32.5861 H   0  0  0  0  0  0  0  0  0  0  0  0
   -3.7512   12.0443  -34.8682 H   0  0  0  0  0  0  0  0  0  0  0  0
   -5.6781   11.2856  -33.4737 H   0  0  0  0  0  0  0  0  0  0  0  0
   -5.9056   12.0796  -31.1165 H   0  0  0  0  0  0  0  0  0  0  0  0
   -4.2063   13.6358  -30.1538 H   0  0  0  0  0  0  0  0  0  0  0  0
   -2.2751   14.3955  -31.5436 H   0  0  0  0  0  0  0  0  0  0  0  0
   -7.3828   20.7802  -32.2420 H   0  0  0  0  0  0  0  0  0  0  0  0
   -7.5103   24.9759  -31.1788 H   0  0  0  0  0  0  0  0  0  0  0  0
  1  2  2  0
  2  3  1  0
  2  4  1  0
  4  5  2  0
  5  6  1  0
  6  7  1  0
  7  8  1  0
  8  9  2  0
  8 10  1  0
 10 11  2  0
 11 12  1  0
 12 13  2  0
 13 14  1  0
 14 15  2  0
 14 16  1  0
 16 17  1  0
 17 18  1  0
 18 19  1  0
 19 20  2  0
 19 21  2  0
 19 22  1  0
 22 23  2  0
 23 24  1  0
 24 25  2  0
 25 26  1  0
 26 27  2  0
  6 28  2  0
 28 29  1  0
 29 30  1  0
 30 31  2  0
 30 32  1  0
 29 33  2  0
 33  4  1  0
 15 10  1  0
 27 22  1  0
 18 13  1  0
  5 34  1  0
  7 35  1  0
 11 36  1  0
 12 37  1  0
 15 38  1  0
 16 39  1  0
 16 40  1  0
 17 41  1  0
 17 42  1  0
 23 43  1  0
 24 44  1  0
 25 45  1  0
 26 46  1  0
 27 47  1  0
 28 48  1  0
 33 49  1  0
M  CHG  2   3  -1  32  -1
M  END
>  <UniqueID>  (14) 
13

>  <SMILES>  (14) 
O=C([O-])c1cc(NC(=O)c2ccc3c(c2)CCN3S(=O)(=O)c2ccccc2)cc(C(=O)[O-])c1

>  <Energy>  (14) 
77.65329398875339

>  <Genealogy>  (14) 
O=C([O-])c1cc(NC(=O)c2ccc3c(c2)CCN3S(=O)(=O)c2ccccc2)cc(C(=O)[O-])c1 (protonated)
O=C([O-])c1cc(NC(=O)c2ccc3c(c2)CCN3S(=O)(=O)c2ccccc2)cc(C(=O)[O-])c1 (3D coordinates assigned)
O=C([O-])c1cc(NC(=O)c2ccc3c(c2)CCN3S(=O)(=O)c2ccccc2)cc(C(=O)[O-])c1 (nonaromatic ring conformer: 77.65329398875339 kcal/mol)

>  <smiles>  (14) 
O=C(O)c1cc(NC(=O)c2ccc3c(c2)CCN3S(=O)(=O)c2ccccc2)cc(C(=O)O)c1

>  <score_type>  (14) 
oracle

>  <origin>  (14) 
adgpu

>  <m_score__min__energy>  (14) 
-10.460000000000001

>  <m_primary>  (14) 
energy

$$$$
14:0
     RDKit          3D

 47 50  0  0  1  0  0  0  0  0999 V2000
   -0.8630   26.6280  -27.8790 C   0  0  0  0  0  0  0  0  0  0  0  0
   -1.5970   25.9970  -28.9080 O   0  0  0  0  0  0  0  0  0  0  0  0
   -1.9630   24.6430  -28.7790 C   0  0  0  0  0  0  0  0  0  0  0  0
   -1.2810   23.7960  -27.9070 C   0  0  0  0  0  0  0  0  0  0  0  0
   -1.6990   22.5050  -27.8440 C   0  0  0  0  0  0  0  0  0  0  0  0
   -1.0670   21.6310  -27.0070 C   0  0  0  0  0  0  0  0  0  0  0  0
   -0.1120   21.9780  -26.3100 N   0  0  0  0  0  0  0  0  0  0  0  0
    0.5820   23.1380  -26.1110 C   0  0  0  0  0  0  0  0  0  0  0  0
    1.5310   23.5190  -27.0960 C   0  0  0  0  0  0  0  0  0  0  0  0
    2.1860   24.7200  -27.0210 C   0  0  0  0  0  0  0  0  0  0  0  0
    1.9090   25.5510  -25.9720 C   0  0  0  0  0  0  0  0  0  0  0  0
    0.9940   25.2270  -24.9870 C   0  0  0  0  0  0  0  0  0  0  0  0
    0.7520   26.1120  -23.9420 O   0  0  0  0  0  0  0  0  0  0  0  0
    0.3320   24.0390  -25.0430 C   0  0  0  0  0  0  0  0  0  0  0  0
   -1.4960   20.3480  -26.9550 N   0  0  0  0  0  0  0  0  0  0  0  0
   -2.5180   19.8790  -27.6870 C   0  0  0  0  0  0  0  0  0  0  0  0
   -3.1470   20.7290  -28.5140 N   0  0  0  0  0  0  0  0  0  0  0  0
   -2.7380   22.0100  -28.5840 C   0  0  0  0  0  0  0  0  0  0  0  0
   -3.4080   22.8430  -29.4410 C   0  0  0  0  0  0  0  0  0  0  0  0
   -3.0170   24.1480  -29.5310 C   0  0  0  0  0  0  0  0  0  0  0  0
   -3.6130   25.0450  -30.3440 O   0  0  0  0  0  0  0  0  0  0  0  0
   -4.8570   25.3080  -30.8160 C   0  0  0  0  0  0  0  0  0  0  0  0
   -5.7930   24.1780  -30.9500 C   0  0  0  0  0  0  0  0  0  0  0  0
   -5.6820   23.4190  -32.1190 C   0  0  0  0  0  0  0  0  0  0  0  0
   -6.4930   22.3150  -32.3440 C   0  0  0  0  0  0  0  0  0  0  0  0
   -7.4310   21.9610  -31.3870 C   0  0  0  0  0  0  0  0  0  0  0  0
   -7.5620   22.6920  -30.2200 C   0  0  0  0  0  0  0  0  0  0  0  0
   -6.7280   23.7810  -30.0510 C   0  0  0  0  0  0  0  0  0  0  0  0
   -1.2453   26.2993  -26.9013 H   0  0  0  0  0  0  0  0  0  0  0  0
    0.1994   26.3569  -27.9672 H   0  0  0  0  0  0  0  0  0  0  0  0
   -0.9716   27.7191  -27.9672 H   0  0  0  0  0  0  0  0  0  0  0  0
   -0.4406   24.1574  -27.2962 H   0  0  0  0  0  0  0  0  0  0  0  0
    1.7439   22.8384  -27.9335 H   0  0  0  0  0  0  0  0  0  0  0  0
    2.9190   25.0091  -27.7885 H   0  0  0  0  0  0  0  0  0  0  0  0
    2.4344   26.5153  -25.9087 H   0  0  0  0  0  0  0  0  0  0  0  0
    0.8830   25.8980  -22.9640 H   0  0  0  0  0  0  0  0  0  0  0  0
   -0.3962   23.7773  -24.2612 H   0  0  0  0  0  0  0  0  0  0  0  0
   -1.0300   19.6520  -26.3200 H   0  0  0  0  0  0  0  0  0  0  0  0
   -2.8317   18.8274  -27.6116 H   0  0  0  0  0  0  0  0  0  0  0  0
   -4.2462   22.4669  -30.0459 H   0  0  0  0  0  0  0  0  0  0  0  0
   -5.3190   26.0380  -30.1350 H   0  0  0  0  0  0  0  0  0  0  0  0
   -4.6947   25.6575  -31.8463 H   0  0  0  0  0  0  0  0  0  0  0  0
   -4.9364   23.7026  -32.8763 H   0  0  0  0  0  0  0  0  0  0  0  0
   -6.3925   21.7290  -33.2695 H   0  0  0  0  0  0  0  0  0  0  0  0
   -8.0789   21.0885  -31.5575 H   0  0  0  0  0  0  0  0  0  0  0  0
   -8.3026   22.4167  -29.4547 H   0  0  0  0  0  0  0  0  0  0  0  0
   -6.8293   24.3655  -29.1246 H   0  0  0  0  0  0  0  0  0  0  0  0
  1  2  1  0
  2  3  1  0
  3  4  2  0
  4  5  1  0
  5  6  1  0
  6  7  2  0
  7  8  1  0
  8  9  2  0
  9 10  1  0
 10 11  2  0
 11 12  1  0
 12 13  1  0
 12 14  2  0
  6 15  1  0
 15 16  1  0
 16 17  2  0
 17 18  1  0
 18 19  1  0
 19 20  2  0
 20 21  1  0
 21 22  1  0
 22 23  1  0
 23 24  2  0
 24 25  1  0
 25 26  2  0
 26 27  1  0
 27 28  2  0
 20  3  1  0
 28 23  1  0
 18  5  2  0
 14  8  1  0
  1 29  1  0
  1 30  1  0
  1 31  1  0
  4 32  1  0
  9 33  1  0
 10 34  1  0
 11 35  1  0
 13 36  1  0
 14 37  1  0
 15 38  1  0
 16 39  1  0
 19 40  1  0
 22 41  1  0
 22 42  1  0
 24 43  1  0
 25 44  1  0
 26 45  1  0
 27 46  1  0
 28 47  1  0
M  END
>  <smiles>  (15) 
COc1cc2c(=Nc3cccc(O)c3)[nH]cnc2cc1OCc1ccccc1

>  <score_type>  (15) 
oracle

>  <origin>  (15) 
adgpu

>  <m_score__min__energy>  (15) 
-8.6999999999999993

>  <m_primary>  (15) 
energy

$$$$
15:0
     RDKit          3D

 51 54  0  0  0  0  0  0  0  0999 V2000
   -4.4110   24.9190  -28.9800 O   0  0  0  0  0  0  0  0  0  0  0  0
   -3.3580   24.5350  -29.5550 C   0  0  0  0  0  0  0  0  0  0  0  0
   -2.1390   25.2570  -29.3280 N   0  0  0  0  0  0  0  0  0  0  0  0
   -1.6630   25.6710  -28.0400 C   0  0  0  0  0  0  0  0  0  0  0  0
   -2.2590   25.1510  -26.8860 C   0  0  0  0  0  0  0  0  0  0  0  0
   -1.7560   25.4840  -25.6240 C   0  0  0  0  0  0  0  0  0  0  0  0
   -0.6750   26.3680  -25.5050 C   0  0  0  0  0  0  0  0  0  0  0  0
    0.0050   26.7250  -23.9200 S   0  0  0  0  0  0  0  0  0  0  0  0
    0.1140   28.2140  -23.7370 O   0  0  0  0  0  0  0  0  0  0  0  0
   -0.9150   26.1830  -22.8610 O   0  0  0  0  0  0  0  0  0  0  0  0
    1.5770   25.9770  -23.7800 N   0  0  0  0  0  0  0  0  0  0  0  0
    1.9120   25.2420  -25.0130 C   0  0  0  0  0  0  0  0  0  0  0  0
    3.3010   24.5760  -24.8850 C   0  0  0  0  0  0  0  0  0  0  0  0
    4.0120   25.0160  -23.7390 O   0  0  0  0  0  0  0  0  0  0  0  0
    4.0280   26.4290  -23.6990 C   0  0  0  0  0  0  0  0  0  0  0  0
    2.6070   26.9940  -23.4880 C   0  0  0  0  0  0  0  0  0  0  0  0
   -0.1080   26.9260  -26.6590 C   0  0  0  0  0  0  0  0  0  0  0  0
   -0.6010   26.5830  -27.9200 C   0  0  0  0  0  0  0  0  0  0  0  0
   -3.3920   23.3190  -30.3870 C   0  0  0  0  0  0  0  0  0  0  0  0
   -2.6550   22.2120  -30.1350 N   0  0  0  0  0  0  0  0  0  0  0  0
   -3.0140   21.3930  -31.1460 C   0  0  0  0  0  0  0  0  0  0  0  0
   -3.9030   21.9860  -31.9610 N   0  0  0  0  0  0  0  0  0  0  0  0
   -4.6010   21.3860  -33.0940 C   0  0  0  0  0  0  0  0  0  0  0  0
   -6.0000   20.9870  -32.6980 C   0  0  0  0  0  0  0  0  0  0  0  0
   -6.3420   19.6250  -32.6230 C   0  0  0  0  0  0  0  0  0  0  0  0
   -7.6290   19.2380  -32.2410 C   0  0  0  0  0  0  0  0  0  0  0  0
   -8.5820   20.2050  -31.9190 C   0  0  0  0  0  0  0  0  0  0  0  0
   -8.2490   21.5610  -31.9710 C   0  0  0  0  0  0  0  0  0  0  0  0
   -6.9610   21.9550  -32.3520 C   0  0  0  0  0  0  0  0  0  0  0  0
   -6.6550   23.2780  -32.3810 F   0  0  0  0  0  0  0  0  0  0  0  0
   -4.1530   23.1920  -31.4900 N   0  0  0  0  0  0  0  0  0  0  0  0
   -3.1254   24.4786  -26.9713 H   0  0  0  0  0  0  0  0  0  0  0  0
   -2.2108   25.0502  -24.7212 H   0  0  0  0  0  0  0  0  0  0  0  0
    1.5300   25.3010  -22.9810 H   0  0  0  0  0  0  0  0  0  0  0  0
    1.1530   24.4656  -25.1893 H   0  0  0  0  0  0  0  0  0  0  0  0
    1.9327   25.9497  -25.8549 H   0  0  0  0  0  0  0  0  0  0  0  0
    3.1648   23.4865  -24.8186 H   0  0  0  0  0  0  0  0  0  0  0  0
    3.8890   24.8574  -25.7710 H   0  0  0  0  0  0  0  0  0  0  0  0
    4.6723   26.7579  -22.8703 H   0  0  0  0  0  0  0  0  0  0  0  0
    4.4137   26.8018  -24.6593 H   0  0  0  0  0  0  0  0  0  0  0  0
    2.5025   27.3201  -22.4427 H   0  0  0  0  0  0  0  0  0  0  0  0
    2.4641   27.8406  -24.1756 H   0  0  0  0  0  0  0  0  0  0  0  0
    0.7276   27.6360  -26.5713 H   0  0  0  0  0  0  0  0  0  0  0  0
   -0.1563   27.0284  -28.8222 H   0  0  0  0  0  0  0  0  0  0  0  0
   -2.6287   20.3721  -31.2849 H   0  0  0  0  0  0  0  0  0  0  0  0
   -4.6510   22.1150  -33.9162 H   0  0  0  0  0  0  0  0  0  0  0  0
   -4.0521   20.4891  -33.4169 H   0  0  0  0  0  0  0  0  0  0  0  0
   -5.5911   18.8590  -32.8668 H   0  0  0  0  0  0  0  0  0  0  0  0
   -7.8911   18.1707  -32.1941 H   0  0  0  0  0  0  0  0  0  0  0  0
   -9.5967   19.8994  -31.6239 H   0  0  0  0  0  0  0  0  0  0  0  0
   -9.0010   22.3209  -31.7119 H   0  0  0  0  0  0  0  0  0  0  0  0
  1  2  2  0
  2  3  1  0
  3  4  1  0
  4  5  2  0
  5  6  1  0
  6  7  2  0
  7  8  1  0
  8  9  2  0
  8 10  2  0
  8 11  1  0
 11 12  1  0
 12 13  1  0
 13 14  1  0
 14 15  1  0
 15 16  1  0
  7 17  1  0
 17 18  2  0
  2 19  1  0
 19 20  1  0
 20 21  2  0
 21 22  1  0
 22 23  1  0
 23 24  1  0
 24 25  2  0
 25 26  1  0
 26 27  2  0
 27 28  1  0
 28 29  2  0
 29 30  1  0
 22 31  1  0
 18  4  1  0
 31 19  2  0
 16 11  1  0
 29 24  1  0
  5 32  1  0
  6 33  1  0
 11 34  1  0
 12 35  1  0
 12 36  1  0
 13 37  1  0
 13 38  1  0
 15 39  1  0
 15 40  1  0
 16 41  1  0
 16 42  1  0
 17 43  1  0
 18 44  1  0
 21 45  1  0
 23 46  1  0
 23 47  1  0
 25 48  1  0
 26 49  1  0
 27 50  1  0
 28 51  1  0
M  CHG  2   3  -1  11   1
M  END
>  <UniqueID>  (16) 
14

>  <SMILES>  (16) 
O=C([N-]c1ccc(S(=O)(=O)[NH+]2CCOCC2)cc1)c1ncn(Cc2ccccc2F)n1

>  <Energy>  (16) 
94.62467393821821

>  <Genealogy>  (16) 
O=C([N-]c1ccc(S(=O)(=O)[NH+]2CCOCC2)cc1)c1ncn(Cc2ccccc2F)n1 (protonated)
O=C([N-]c1ccc(S(=O)(=O)[NH+]2CCOCC2)cc1)c1ncn(Cc2ccccc2F)n1 (3D coordinates assigned)
O=C([N-]c1ccc(S(=O)(=O)[NH+]2CCOCC2)cc1)c1ncn(Cc2ccccc2F)n1 (nonaromatic ring conformer: 94.62467393821821 kcal/mol)

>  <smiles>  (16) 
O=C(Nc1ccc(S(=O)(=O)N2CCOCC2)cc1)c1ncn(Cc2ccccc2F)n1

>  <score_type>  (16) 
oracle

>  <origin>  (16) 
adgpu

>  <m_score__min__energy>  (16) 
-11.369999999999999

>  <m_primary>  (16) 
energy

$$$$
16:0
     RDKit          3D

 37 39  0  0  0  0  0  0  0  0999 V2000
   -3.5070   25.2630  -30.5250 N   0  0  0  0  0  0  0  0  0  0  0  0
   -5.1250   25.0420  -29.9620 S   0  0  0  0  0  0  0  0  0  0  0  0
   -5.1080   24.6930  -28.5000 O   0  0  0  0  0  0  0  0  0  0  0  0
   -5.8950   26.3200  -30.1440 O   0  0  0  0  0  0  0  0  0  0  0  0
   -5.8920   23.7450  -30.8740 C   0  0  0  0  0  0  0  0  0  0  0  0
   -7.2850   23.7110  -31.0180 C   0  0  0  0  0  0  0  0  0  0  0  0
   -7.8890   22.6910  -31.7540 C   0  0  0  0  0  0  0  0  0  0  0  0
   -7.1060   21.7010  -32.3560 C   0  0  0  0  0  0  0  0  0  0  0  0
   -5.7060   21.7230  -32.2260 C   0  0  0  0  0  0  0  0  0  0  0  0
   -4.8730   20.6740  -32.8660 C   0  0  0  0  0  0  0  0  0  0  0  0
   -3.5120   20.9040  -33.1300 C   0  0  0  0  0  0  0  0  0  0  0  0
   -2.7270   19.9140  -33.7230 C   0  0  0  0  0  0  0  0  0  0  0  0
   -3.2840   18.6800  -34.0690 C   0  0  0  0  0  0  0  0  0  0  0  0
   -2.4720   17.7190  -34.6720 O   0  0  0  0  0  0  0  0  0  0  0  0
   -4.6460   18.4340  -33.8130 C   0  0  0  0  0  0  0  0  0  0  0  0
   -5.2270   17.1670  -34.1370 N   0  0  0  0  0  0  0  0  0  0  0  0
   -6.6420   16.8740  -34.0020 C   0  0  0  0  0  0  0  0  0  0  0  0
   -6.8410   15.3530  -34.2200 C   0  0  0  0  0  0  0  0  0  0  0  0
   -5.6420   14.5930  -33.8420 N   0  0  0  0  0  0  0  0  0  0  0  0
   -4.3500   15.7130  -34.0140 S   0  0  0  0  0  0  0  0  0  0  0  0
   -3.4700   15.7020  -32.7950 O   0  0  0  0  0  0  0  0  0  0  0  0
   -3.5610   15.4390  -35.2630 O   0  0  0  0  0  0  0  0  0  0  0  0
   -5.4310   19.4300  -33.2140 C   0  0  0  0  0  0  0  0  0  0  0  0
   -5.1060   22.7570  -31.4820 C   0  0  0  0  0  0  0  0  0  0  0  0
   -3.5290   26.0460  -31.2160 H   0  0  0  0  0  0  0  0  0  0  0  0
   -7.9042   24.4903  -30.5497 H   0  0  0  0  0  0  0  0  0  0  0  0
   -8.9835   22.6656  -31.8609 H   0  0  0  0  0  0  0  0  0  0  0  0
   -7.5884   20.8998  -32.9350 H   0  0  0  0  0  0  0  0  0  0  0  0
   -3.0616   21.8725  -32.8671 H   0  0  0  0  0  0  0  0  0  0  0  0
   -1.6620   20.1066  -33.9195 H   0  0  0  0  0  0  0  0  0  0  0  0
   -2.3760   16.7810  -34.3020 H   0  0  0  0  0  0  0  0  0  0  0  0
   -6.9867   17.1548  -32.9958 H   0  0  0  0  0  0  0  0  0  0  0  0
   -7.2219   17.4444  -34.7425 H   0  0  0  0  0  0  0  0  0  0  0  0
   -7.6883   15.0120  -33.6069 H   0  0  0  0  0  0  0  0  0  0  0  0
   -7.0361   15.1804  -35.2887 H   0  0  0  0  0  0  0  0  0  0  0  0
   -6.4952   19.2365  -33.0139 H   0  0  0  0  0  0  0  0  0  0  0  0
   -4.0115   22.7895  -31.3772 H   0  0  0  0  0  0  0  0  0  0  0  0
  1  2  1  0
  2  3  2  0
  2  4  2  0
  2  5  1  0
  5  6  2  0
  6  7  1  0
  7  8  2  0
  8  9  1  0
  9 10  1  0
 10 11  2  0
 11 12  1  0
 12 13  2  0
 13 14  1  0
 13 15  1  0
 15 16  1  0
 16 17  1  0
 17 18  1  0
 18 19  1  0
 19 20  1  0
 20 21  2  0
 20 22  2  0
 15 23  2  0
  9 24  2  0
 24  5  1  0
 23 10  1  0
 20 16  1  0
  1 25  1  0
  6 26  1  0
  7 27  1  0
  8 28  1  0
 11 29  1  0
 12 30  1  0
 14 31  1  0
 17 32  1  0
 17 33  1  0
 18 34  1  0
 18 35  1  0
 23 36  1  0
 24 37  1  0
M  CHG  2   1  -1  19  -1
M  END
>  <UniqueID>  (17) 
15

>  <SMILES>  (17) 
[NH-]S(=O)(=O)c1cccc(-c2ccc(O)c(N3CC[N-]S3(=O)=O)c2)c1

>  <Energy>  (17) 
56.05686661997843

>  <Genealogy>  (17) 
[NH-]S(=O)(=O)c1cccc(-c2ccc(O)c(N3CC[N-]S3(=O)=O)c2)c1 (protonated)
[NH-]S(=O)(=O)c1cccc(-c2ccc(O)c(N3CC[N-]S3(=O)=O)c2)c1 (3D coordinates assigned)
[NH-]S(=O)(=O)c1cccc(-c2ccc(O)c(N3CC[N-]S3(=O)=O)c2)c1 (nonaromatic ring conformer: 56.05686661997843 kcal/mol)

>  <smiles>  (17) 
NS(=O)(=O)c1cccc(-c2ccc(O)c(N3CCNS3(=O)=O)c2)c1

>  <score_type>  (17) 
oracle

>  <origin>  (17) 
adgpu

>  <m_score__min__energy>  (17) 
-10.94

>  <m_primary>  (17) 
energy

$$$$
17:0
     RDKit          3D

 54 57  0  0  0  0  0  0  0  0999 V2000
   -5.3100   26.0670  -30.7720 O   0  0  0  0  0  0  0  0  0  0  0  0
   -4.8700   24.8920  -30.6590 C   0  0  0  0  0  0  0  0  0  0  0  0
   -3.4690   24.7010  -30.4240 N   0  0  0  0  0  0  0  0  0  0  0  0
   -2.8110   23.4300  -30.3210 C   0  0  0  0  0  0  0  0  0  0  0  0
   -2.5420   22.6620  -31.4680 C   0  0  0  0  0  0  0  0  0  0  0  0
   -1.8660   21.4450  -31.3610 C   0  0  0  0  0  0  0  0  0  0  0  0
   -1.4680   20.9740  -30.1080 C   0  0  0  0  0  0  0  0  0  0  0  0
   -1.7500   21.7170  -28.9600 C   0  0  0  0  0  0  0  0  0  0  0  0
   -2.4260   22.9450  -29.0580 C   0  0  0  0  0  0  0  0  0  0  0  0
   -2.6610   23.7300  -27.8780 N   0  0  0  0  0  0  0  0  0  0  0  0
   -1.5400   24.3570  -27.1800 C   0  0  0  0  0  0  0  0  0  0  0  0
   -2.0250   25.6290  -26.4790 C   0  0  0  0  0  0  0  0  0  0  0  0
   -3.1520   25.3560  -25.6660 O   0  0  0  0  0  0  0  0  0  0  0  0
   -4.2420   24.9540  -26.4760 C   0  0  0  0  0  0  0  0  0  0  0  0
   -3.9390   23.6240  -27.1710 C   0  0  0  0  0  0  0  0  0  0  0  0
   -5.7970   23.7460  -30.8110 C   0  0  0  0  0  0  0  0  0  0  0  0
   -6.9710   23.6770  -30.0440 C   0  0  0  0  0  0  0  0  0  0  0  0
   -7.8310   22.5820  -30.1640 C   0  0  0  0  0  0  0  0  0  0  0  0
   -7.5320   21.5460  -31.0530 C   0  0  0  0  0  0  0  0  0  0  0  0
   -8.3750   20.4860  -31.1340 F   0  0  0  0  0  0  0  0  0  0  0  0
   -6.3710   21.6090  -31.8420 C   0  0  0  0  0  0  0  0  0  0  0  0
   -5.9640   20.3200  -32.9770 S   0  0  0  0  0  0  0  0  0  0  0  0
   -7.1480   20.0850  -33.8720 O   0  0  0  0  0  0  0  0  0  0  0  0
   -4.8080   20.7500  -33.8370 O   0  0  0  0  0  0  0  0  0  0  0  0
   -5.5700   18.8700  -32.0700 N   0  0  0  0  0  0  0  0  0  0  0  0
   -6.7610   18.0500  -31.8000 C   0  0  0  0  0  0  0  0  0  0  0  0
   -7.2830   17.3430  -33.0720 C   0  0  0  0  0  0  0  0  0  0  0  0
   -6.3570   17.3620  -34.1390 O   0  0  0  0  0  0  0  0  0  0  0  0
   -5.0750   17.0000  -33.6750 C   0  0  0  0  0  0  0  0  0  0  0  0
   -4.5100   18.0800  -32.7310 C   0  0  0  0  0  0  0  0  0  0  0  0
   -5.5210   22.7180  -31.7280 C   0  0  0  0  0  0  0  0  0  0  0  0
   -2.8661   23.0223  -32.4555 H   0  0  0  0  0  0  0  0  0  0  0  0
   -1.6468   20.8568  -32.2643 H   0  0  0  0  0  0  0  0  0  0  0  0
   -0.9320   20.0170  -30.0254 H   0  0  0  0  0  0  0  0  0  0  0  0
   -1.4415   21.3392  -27.9740 H   0  0  0  0  0  0  0  0  0  0  0  0
   -1.1353   23.6580  -26.4333 H   0  0  0  0  0  0  0  0  0  0  0  0
   -0.7533   24.6139  -27.9046 H   0  0  0  0  0  0  0  0  0  0  0  0
   -1.2143   26.0259  -25.8503 H   0  0  0  0  0  0  0  0  0  0  0  0
   -2.3118   26.3658  -27.2438 H   0  0  0  0  0  0  0  0  0  0  0  0
   -5.1360   24.8366  -25.8459 H   0  0  0  0  0  0  0  0  0  0  0  0
   -4.4141   25.7227  -27.2437 H   0  0  0  0  0  0  0  0  0  0  0  0
   -3.8788   22.8221  -26.4205 H   0  0  0  0  0  0  0  0  0  0  0  0
   -4.7398   23.3912  -27.8883 H   0  0  0  0  0  0  0  0  0  0  0  0
   -7.2154   24.4899  -29.3443 H   0  0  0  0  0  0  0  0  0  0  0  0
   -8.7468   22.5354  -29.5564 H   0  0  0  0  0  0  0  0  0  0  0  0
   -6.5034   17.2869  -31.0508 H   0  0  0  0  0  0  0  0  0  0  0  0
   -7.5551   18.7175  -31.4343 H   0  0  0  0  0  0  0  0  0  0  0  0
   -7.5075   16.2955  -32.8226 H   0  0  0  0  0  0  0  0  0  0  0  0
   -8.1776   17.8891  -33.4058 H   0  0  0  0  0  0  0  0  0  0  0  0
   -5.1441   16.0461  -33.1315 H   0  0  0  0  0  0  0  0  0  0  0  0
   -4.4021   16.8999  -34.5394 H   0  0  0  0  0  0  0  0  0  0  0  0
   -3.9029   17.5882  -31.9567 H   0  0  0  0  0  0  0  0  0  0  0  0
   -3.9096   18.7724  -33.3394 H   0  0  0  0  0  0  0  0  0  0  0  0
   -4.6264   22.7841  -32.3647 H   0  0  0  0  0  0  0  0  0  0  0  0
  1  2  2  0
  2  3  1  0
  3  4  1  0
  4  5  2  0
  5  6  1  0
  6  7  2  0
  7  8  1  0
  8  9  2  0
  9 10  1  0
 10 11  1  0
 11 12  1  0
 12 13  1  0
 13 14  1  0
 14 15  1  0
  2 16  1  0
 16 17  2  0
 17 18  1  0
 18 19  2  0
 19 20  1  0
 19 21  1  0
 21 22  1  0
 22 23  2  0
 22 24  2  0
 22 25  1  0
 25 26  1  0
 26 27  1  0
 27 28  1  0
 28 29  1  0
 29 30  1  0
 21 31  2  0
  9  4  1  0
 15 10  1  0
 31 16  1  0
 30 25  1  0
  5 32  1  0
  6 33  1  0
  7 34  1  0
  8 35  1  0
 11 36  1  0
 11 37  1  0
 12 38  1  0
 12 39  1  0
 14 40  1  0
 14 41  1  0
 15 42  1  0
 15 43  1  0
 17 44  1  0
 18 45  1  0
 26 46  1  0
 26 47  1  0
 27 48  1  0
 27 49  1  0
 29 50  1  0
 29 51  1  0
 30 52  1  0
 30 53  1  0
 31 54  1  0
M  CHG  1   3  -1
M  END
>  <UniqueID>  (18) 
16

>  <SMILES>  (18) 
O=C([N-]c1ccccc1N1CCOCC1)c1ccc(F)c(S(=O)(=O)N2CCOCC2)c1

>  <Energy>  (18) 
80.62578174373236

>  <Genealogy>  (18) 
O=C([N-]c1ccccc1N1CCOCC1)c1ccc(F)c(S(=O)(=O)N2CCOCC2)c1 (protonated)
O=C([N-]c1ccccc1N1CCOCC1)c1ccc(F)c(S(=O)(=O)N2CCOCC2)c1 (3D coordinates assigned)
O=C([N-]c1ccccc1N1CCOCC1)c1ccc(F)c(S(=O)(=O)N2CCOCC2)c1 (nonaromatic ring conformer: 80.62578174373236 kcal/mol)

>  <smiles>  (18) 
O=C(Nc1ccccc1N1CCOCC1)c1ccc(F)c(S(=O)(=O)N2CCOCC2)c1

>  <score_type>  (18) 
oracle

>  <origin>  (18) 
adgpu

>  <m_score__min__energy>  (18) 
-10.25

>  <m_primary>  (18) 
energy

$$$$
18:0
     RDKit          3D

 49 52  0  0  0  0  0  0  0  0999 V2000
   -3.1510   25.5610  -31.2280 H   0  0  0  0  0  0  0  0  0  0  0  0
   -3.8660   25.6070  -30.4690 N   0  0  0  0  0  0  0  0  0  0  0  0
   -4.2430   24.4370  -29.7450 C   0  0  0  0  0  0  0  0  0  0  0  0
   -4.8280   24.5550  -28.6360 O   0  0  0  0  0  0  0  0  0  0  0  0
   -3.8650   23.0990  -30.2320 C   0  0  0  0  0  0  0  0  0  0  0  0
   -4.4460   22.6880  -31.3920 N   0  0  0  0  0  0  0  0  0  0  0  0
   -4.3440   21.4150  -31.8490 C   0  0  0  0  0  0  0  0  0  0  0  0
   -5.0110   21.0480  -33.0670 N   0  0  0  0  0  0  0  0  0  0  0  0
   -5.0520   21.7640  -33.8280 H   0  0  0  0  0  0  0  0  0  0  0  0
   -5.6140   19.7660  -33.3150 C   0  0  0  0  0  0  0  0  0  0  0  0
   -6.7870   19.4120  -32.6290 C   0  0  0  0  0  0  0  0  0  0  0  0
   -7.2223   20.1057  -31.8947 H   0  0  0  0  0  0  0  0  0  0  0  0
   -7.4040   18.1820  -32.8750 C   0  0  0  0  0  0  0  0  0  0  0  0
   -8.3160   17.9058  -32.3255 H   0  0  0  0  0  0  0  0  0  0  0  0
   -6.8650   17.3030  -33.8170 C   0  0  0  0  0  0  0  0  0  0  0  0
   -7.3493   16.3333  -34.0046 H   0  0  0  0  0  0  0  0  0  0  0  0
   -5.7110   17.6550  -34.5210 C   0  0  0  0  0  0  0  0  0  0  0  0
   -5.2902   16.9647  -35.2669 H   0  0  0  0  0  0  0  0  0  0  0  0
   -5.0900   18.8850  -34.2780 C   0  0  0  0  0  0  0  0  0  0  0  0
   -4.1881   19.1642  -34.8425 H   0  0  0  0  0  0  0  0  0  0  0  0
   -3.6850   20.4700  -31.0570 C   0  0  0  0  0  0  0  0  0  0  0  0
   -3.6654   19.4117  -31.3564 H   0  0  0  0  0  0  0  0  0  0  0  0
   -3.0700   20.8700  -29.9160 N   0  0  0  0  0  0  0  0  0  0  0  0
   -3.0860   22.1620  -29.4930 C   0  0  0  0  0  0  0  0  0  0  0  0
   -2.3540   22.4570  -28.4510 N   0  0  0  0  0  0  0  0  0  0  0  0
   -1.9520   23.7410  -27.9510 C   0  0  0  0  0  0  0  0  0  0  0  0
   -2.6040   24.3230  -26.8580 C   0  0  0  0  0  0  0  0  0  0  0  0
   -3.4093   23.7748  -26.3471 H   0  0  0  0  0  0  0  0  0  0  0  0
   -2.2390   25.5960  -26.4110 C   0  0  0  0  0  0  0  0  0  0  0  0
   -2.7431   26.0263  -25.5331 H   0  0  0  0  0  0  0  0  0  0  0  0
   -1.2320   26.3400  -27.0690 C   0  0  0  0  0  0  0  0  0  0  0  0
   -0.8430   27.6690  -26.6010 N   0  0  0  0  0  0  0  0  0  0  0  0
   -1.1080   28.0470  -25.1960 C   0  0  0  0  0  0  0  0  0  0  0  0
   -2.1953   28.0295  -25.0301 H   0  0  0  0  0  0  0  0  0  0  0  0
   -0.5767   27.3228  -24.5610 H   0  0  0  0  0  0  0  0  0  0  0  0
   -0.5840   29.4380  -24.8270 C   0  0  0  0  0  0  0  0  0  0  0  0
   -1.1268   29.8039  -23.9429 H   0  0  0  0  0  0  0  0  0  0  0  0
    0.4925   29.3616  -24.6144 H   0  0  0  0  0  0  0  0  0  0  0  0
   -0.7680   30.3450  -25.8880 O   0  0  0  0  0  0  0  0  0  0  0  0
    0.1000   29.9810  -26.9360 C   0  0  0  0  0  0  0  0  0  0  0  0
    0.0899   30.7704  -27.7020 H   0  0  0  0  0  0  0  0  0  0  0  0
    1.1125   29.8558  -26.5248 H   0  0  0  0  0  0  0  0  0  0  0  0
   -0.3340   28.6590  -27.5740 C   0  0  0  0  0  0  0  0  0  0  0  0
   -1.1299   28.8701  -28.3034 H   0  0  0  0  0  0  0  0  0  0  0  0
    0.5588   28.2196  -28.0428 H   0  0  0  0  0  0  0  0  0  0  0  0
   -0.6140   25.7500  -28.1980 C   0  0  0  0  0  0  0  0  0  0  0  0
    0.1693   26.3038  -28.7363 H   0  0  0  0  0  0  0  0  0  0  0  0
   -0.9820   24.4750  -28.6410 C   0  0  0  0  0  0  0  0  0  0  0  0
   -0.3760   23.9440  -29.7310 F   0  0  0  0  0  0  0  0  0  0  0  0
  1  2  1  0
  2  3  1  0
  3  4  2  0
  3  5  1  0
  5  6  2  0
  6  7  1  0
  7  8  1  0
  8  9  1  0
  8 10  1  0
 10 11  2  0
 11 12  1  0
 11 13  1  0
 13 14  1  0
 13 15  2  0
 15 16  1  0
 15 17  1  0
 17 18  1  0
 17 19  2  0
 19 20  1  0
  7 21  2  0
 21 22  1  0
 21 23  1  0
 23 24  1  0
 24 25  2  0
 25 26  1  0
 26 27  2  0
 27 28  1  0
 27 29  1  0
 29 30  1  0
 29 31  2  0
 31 32  1  0
 32 33  1  0
 33 34  1  0
 33 35  1  0
 33 36  1  0
 36 37  1  0
 36 38  1  0
 36 39  1  0
 39 40  1  0
 40 41  1  0
 40 42  1  0
 40 43  1  0
 43 44  1  0
 43 45  1  0
 31 46  1  0
 46 47  1  0
 46 48  2  0
 48 49  1  0
 24  5  1  0
 48 26  1  0
 19 10  1  0
 43 32  1  0
M  CHG  2   2  -1  23  -1
M  END
>  <UniqueID>  (19) 
17

>  <SMILES>  (19) 
[NH-]C(=O)c1nc(Nc2ccccc2)c[n-]/c1=N/c1ccc(N2CCOCC2)cc1F

>  <Energy>  (19) 
87.49953308444745

>  <Genealogy>  (19) 
[NH-]C(=O)c1nc(Nc2ccccc2)c[n-]c1=Nc1ccc(N2CCOCC2)cc1F (protonated)
[NH-]C(=O)c1nc(Nc2ccccc2)c[n-]/c1=N/c1ccc(N2CCOCC2)cc1F (cis-trans isomerization)
[NH-]C(=O)c1nc(Nc2ccccc2)c[n-]/c1=N/c1ccc(N2CCOCC2)cc1F (3D coordinates assigned)
[NH-]C(=O)c1nc(Nc2ccccc2)c[n-]/c1=N/c1ccc(N2CCOCC2)cc1F (nonaromatic ring conformer: 87.49953308444745 kcal/mol)

>  <smiles>  (19) 
NC(=O)c1nc(Nc2ccccc2)c[nH]c1=Nc1ccc(N2CCOCC2)cc1F

>  <score_type>  (19) 
oracle

>  <origin>  (19) 
adgpu

>  <m_score__min__energy>  (19) 
-10.35

>  <m_primary>  (19) 
energy

$$$$
19:0
     RDKit          3D

 35 36  0  0  0  0  0  0  0  0999 V2000
   -9.2040   21.2770  -31.6780 C   0  0  0  0  0  0  0  0  0  0  0  0
   -8.0660   20.3340  -31.9620 C   0  0  0  0  0  0  0  0  0  0  0  0
   -6.7860   20.8500  -32.2190 C   0  0  0  0  0  0  0  0  0  0  0  0
   -5.7010   20.0010  -32.4860 C   0  0  0  0  0  0  0  0  0  0  0  0
   -4.1090   20.7140  -32.7950 S   0  0  0  0  0  0  0  0  0  0  0  0
   -4.2830   22.1520  -33.1940 O   0  0  0  0  0  0  0  0  0  0  0  0
   -3.4230   19.9500  -33.8940 O   0  0  0  0  0  0  0  0  0  0  0  0
   -3.1300   20.6330  -31.3650 N   0  0  0  0  0  0  0  0  0  0  0  0
   -2.5420   21.7590  -30.6980 C   0  0  0  0  0  0  0  0  0  0  0  0
   -1.3100   21.6720  -30.0300 C   0  0  0  0  0  0  0  0  0  0  0  0
   -0.7750   22.7940  -29.3920 C   0  0  0  0  0  0  0  0  0  0  0  0
   -1.4550   24.0260  -29.4070 C   0  0  0  0  0  0  0  0  0  0  0  0
   -0.8610   25.2010  -28.7210 C   0  0  0  0  0  0  0  0  0  0  0  0
   -1.2780   26.3630  -28.9720 O   0  0  0  0  0  0  0  0  0  0  0  0
    0.1610   25.0490  -27.7900 O   0  0  0  0  0  0  0  0  0  0  0  0
   -2.6930   24.1070  -30.0810 C   0  0  0  0  0  0  0  0  0  0  0  0
   -3.4120   25.2960  -30.1300 O   0  0  0  0  0  0  0  0  0  0  0  0
   -3.2240   22.9790  -30.7180 C   0  0  0  0  0  0  0  0  0  0  0  0
   -5.9060   18.6010  -32.5120 C   0  0  0  0  0  0  0  0  0  0  0  0
   -4.7810   17.6380  -32.7870 C   0  0  0  0  0  0  0  0  0  0  0  0
   -7.1860   18.0890  -32.2420 C   0  0  0  0  0  0  0  0  0  0  0  0
   -8.2610   18.9380  -31.9710 C   0  0  0  0  0  0  0  0  0  0  0  0
   -9.5090   18.3650  -31.7150 O   0  0  0  0  0  0  0  0  0  0  0  0
   -9.3306   21.3819  -30.5903 H   0  0  0  0  0  0  0  0  0  0  0  0
   -8.9835   22.2608  -32.1180 H   0  0  0  0  0  0  0  0  0  0  0  0
  -10.1297   20.8776  -32.1180 H   0  0  0  0  0  0  0  0  0  0  0  0
   -6.6308   21.9390  -32.2110 H   0  0  0  0  0  0  0  0  0  0  0  0
   -0.7642   20.7172  -30.0089 H   0  0  0  0  0  0  0  0  0  0  0  0
    0.1905   22.7133  -28.8711 H   0  0  0  0  0  0  0  0  0  0  0  0
   -4.1892   23.0537  -31.2403 H   0  0  0  0  0  0  0  0  0  0  0  0
   -4.3633   17.2804  -31.8343 H   0  0  0  0  0  0  0  0  0  0  0  0
   -5.1631   16.7828  -33.3638 H   0  0  0  0  0  0  0  0  0  0  0  0
   -3.9950   18.1474  -33.3638 H   0  0  0  0  0  0  0  0  0  0  0  0
   -7.3442   17.0004  -32.2441 H   0  0  0  0  0  0  0  0  0  0  0  0
   -9.7120   17.8330  -30.8780 H   0  0  0  0  0  0  0  0  0  0  0  0
  1  2  1  0
  2  3  2  0
  3  4  1  0
  4  5  1  0
  5  6  2  0
  5  7  2  0
  5  8  1  0
  8  9  1  0
  9 10  2  0
 10 11  1  0
 11 12  2  0
 12 13  1  0
 13 14  2  0
 13 15  1  0
 12 16  1  0
 16 17  1  0
 16 18  2  0
  4 19  2  0
 19 20  1  0
 19 21  1  0
 21 22  2  0
 22 23  1  0
 22  2  1  0
 18  9  1  0
  1 24  1  0
  1 25  1  0
  1 26  1  0
  3 27  1  0
 10 28  1  0
 11 29  1  0
 18 30  1  0
 20 31  1  0
 20 32  1  0
 20 33  1  0
 21 34  1  0
 23 35  1  0
M  CHG  3   8  -1  15  -1  17  -1
M  END
>  <UniqueID>  (20) 
18

>  <SMILES>  (20) 
Cc1cc(S(=O)(=O)[N-]c2ccc(C(=O)[O-])c([O-])c2)c(C)cc1O

>  <Energy>  (20) 
44.1100224916345

>  <Genealogy>  (20) 
Cc1cc(S(=O)(=O)[N-]c2ccc(C(=O)[O-])c([O-])c2)c(C)cc1O (protonated)
Cc1cc(S(=O)(=O)[N-]c2ccc(C(=O)[O-])c([O-])c2)c(C)cc1O (3D coordinates assigned)
Cc1cc(S(=O)(=O)[N-]c2ccc(C(=O)[O-])c([O-])c2)c(C)cc1O (optimized conformer: 44.1100224916345 kcal/mol)

>  <smiles>  (20) 
Cc1cc(S(=O)(=O)Nc2ccc(C(=O)O)c(O)c2)c(C)cc1O

>  <score_type>  (20) 
oracle

>  <origin>  (20) 
adgpu

>  <m_score__min__energy>  (20) 
-12.880000000000001

>  <m_primary>  (20) 
energy

$$$$
20:0
     RDKit          3D

 57 60  0  0  0  0  0  0  0  0999 V2000
   -0.2040   20.5640  -32.6680 O   0  0  0  0  0  0  0  0  0  0  0  0
   -1.1010   20.6900  -33.5470 C   0  0  0  0  0  0  0  0  0  0  0  0
   -0.7430   21.1290  -34.8690 N   0  0  0  0  0  0  0  0  0  0  0  0
    0.4550   21.8670  -35.1640 C   0  0  0  0  0  0  0  0  0  0  0  0
    1.7050   21.2910  -34.8930 C   0  0  0  0  0  0  0  0  0  0  0  0
    2.8820   21.9870  -35.1810 C   0  0  0  0  0  0  0  0  0  0  0  0
    2.8210   23.2600  -35.7530 C   0  0  0  0  0  0  0  0  0  0  0  0
    1.5810   23.8400  -36.0520 C   0  0  0  0  0  0  0  0  0  0  0  0
    1.5000   25.4450  -36.7820 S   0  0  0  0  0  0  0  0  0  0  0  0
    2.8310   26.1290  -36.6270 O   0  0  0  0  0  0  0  0  0  0  0  0
    1.2190   25.3030  -38.2510 O   0  0  0  0  0  0  0  0  0  0  0  0
    0.2570   26.4280  -36.0490 N   0  0  0  0  0  0  0  0  0  0  0  0
    0.8470   27.6010  -35.3890 C   0  0  0  0  0  0  0  0  0  0  0  0
   -0.2620   28.4390  -34.7180 C   0  0  0  0  0  0  0  0  0  0  0  0
   -1.5620   27.9960  -35.0750 O   0  0  0  0  0  0  0  0  0  0  0  0
   -1.6750   27.9230  -36.4820 C   0  0  0  0  0  0  0  0  0  0  0  0
   -0.7250   26.8550  -37.0610 C   0  0  0  0  0  0  0  0  0  0  0  0
    0.4020   23.1370  -35.7670 C   0  0  0  0  0  0  0  0  0  0  0  0
   -2.5020   20.3370  -33.2160 C   0  0  0  0  0  0  0  0  0  0  0  0
   -2.8000   19.1720  -32.4830 C   0  0  0  0  0  0  0  0  0  0  0  0
   -4.1250   18.8440  -32.1820 C   0  0  0  0  0  0  0  0  0  0  0  0
   -5.1720   19.6660  -32.6150 C   0  0  0  0  0  0  0  0  0  0  0  0
   -6.8360   19.2570  -32.2090 S   0  0  0  0  0  0  0  0  0  0  0  0
   -7.6040   18.9420  -33.4650 O   0  0  0  0  0  0  0  0  0  0  0  0
   -6.8440   18.0420  -31.3250 O   0  0  0  0  0  0  0  0  0  0  0  0
   -7.5690   20.5980  -31.3640 N   0  0  0  0  0  0  0  0  0  0  0  0
   -7.3290   21.8600  -32.0620 C   0  0  0  0  0  0  0  0  0  0  0  0
   -8.4840   22.7810  -31.6990 C   0  0  0  0  0  0  0  0  0  0  0  0
   -9.5920   21.8640  -31.2030 C   0  0  0  0  0  0  0  0  0  0  0  0
   -9.0230   20.4560  -31.3010 C   0  0  0  0  0  0  0  0  0  0  0  0
   -4.8840   20.8250  -33.3450 C   0  0  0  0  0  0  0  0  0  0  0  0
   -3.5600   21.1560  -33.6490 C   0  0  0  0  0  0  0  0  0  0  0  0
   -1.3230   20.7960  -35.6710 H   0  0  0  0  0  0  0  0  0  0  0  0
    1.7590   20.2852  -34.4510 H   0  0  0  0  0  0  0  0  0  0  0  0
    3.8580   21.5318  -34.9570 H   0  0  0  0  0  0  0  0  0  0  0  0
    3.7494   23.8089  -35.9694 H   0  0  0  0  0  0  0  0  0  0  0  0
    1.5647   27.2672  -34.6251 H   0  0  0  0  0  0  0  0  0  0  0  0
    1.3630   28.2177  -36.1396 H   0  0  0  0  0  0  0  0  0  0  0  0
   -0.1502   28.3644  -33.6262 H   0  0  0  0  0  0  0  0  0  0  0  0
   -0.1540   29.4780  -35.0627 H   0  0  0  0  0  0  0  0  0  0  0  0
   -2.7108   27.6635  -36.7462 H   0  0  0  0  0  0  0  0  0  0  0  0
   -1.4011   28.9005  -36.9055 H   0  0  0  0  0  0  0  0  0  0  0  0
   -1.3144   25.9836  -37.3825 H   0  0  0  0  0  0  0  0  0  0  0  0
   -0.1858   27.2877  -37.9166 H   0  0  0  0  0  0  0  0  0  0  0  0
   -0.5724   23.5820  -36.0169 H   0  0  0  0  0  0  0  0  0  0  0  0
   -1.9845   18.5157  -32.1450 H   0  0  0  0  0  0  0  0  0  0  0  0
   -4.3460   17.9357  -31.6022 H   0  0  0  0  0  0  0  0  0  0  0  0
   -6.3752   22.2997  -31.7350 H   0  0  0  0  0  0  0  0  0  0  0  0
   -7.2685   21.7076  -33.1497 H   0  0  0  0  0  0  0  0  0  0  0  0
   -8.1823   23.4829  -30.9076 H   0  0  0  0  0  0  0  0  0  0  0  0
   -8.8087   23.3875  -32.5573 H   0  0  0  0  0  0  0  0  0  0  0  0
   -9.8520   22.1027  -30.1612 H   0  0  0  0  0  0  0  0  0  0  0  0
  -10.5124   21.9761  -31.7948 H   0  0  0  0  0  0  0  0  0  0  0  0
   -9.3092   19.8683  -30.4163 H   0  0  0  0  0  0  0  0  0  0  0  0
   -9.4098   19.9320  -32.1874 H   0  0  0  0  0  0  0  0  0  0  0  0
   -5.7028   21.4782  -33.6810 H   0  0  0  0  0  0  0  0  0  0  0  0
   -3.3443   22.0640  -34.2313 H   0  0  0  0  0  0  0  0  0  0  0  0
  1  2  2  0
  2  3  1  0
  3  4  1  0
  4  5  2  0
  5  6  1  0
  6  7  2  0
  7  8  1  0
  8  9  1  0
  9 10  2  0
  9 11  2  0
  9 12  1  0
 12 13  1  0
 13 14  1  0
 14 15  1  0
 15 16  1  0
 16 17  1  0
  8 18  2  0
  2 19  1  0
 19 20  2  0
 20 21  1  0
 21 22  2  0
 22 23  1  0
 23 24  2  0
 23 25  2  0
 23 26  1  0
 26 27  1  0
 27 28  1  0
 28 29  1  0
 29 30  1  0
 22 31  1  0
 31 32  2  0
 18  4  1  0
 32 19  1  0
 17 12  1  0
 30 26  1  0
  3 33  1  0
  5 34  1  0
  6 35  1  0
  7 36  1  0
 13 37  1  0
 13 38  1  0
 14 39  1  0
 14 40  1  0
 16 41  1  0
 16 42  1  0
 17 43  1  0
 17 44  1  0
 18 45  1  0
 20 46  1  0
 21 47  1  0
 27 48  1  0
 27 49  1  0
 28 50  1  0
 28 51  1  0
 29 52  1  0
 29 53  1  0
 30 54  1  0
 30 55  1  0
 31 56  1  0
 32 57  1  0
M  END
>  <UniqueID>  (21) 
19

>  <SMILES>  (21) 
O=C(Nc1cccc(S(=O)(=O)N2CCOCC2)c1)c1ccc(S(=O)(=O)N2CCCC2)cc1

>  <Energy>  (21) 
71.79940819162844

>  <Genealogy>  (21) 
O=C(Nc1cccc(S(=O)(=O)N2CCOCC2)c1)c1ccc(S(=O)(=O)N2CCCC2)cc1 (3D coordinates assigned)
O=C(Nc1cccc(S(=O)(=O)N2CCOCC2)c1)c1ccc(S(=O)(=O)N2CCCC2)cc1 (nonaromatic ring conformer: 71.79940819162844 kcal/mol)

>  <smiles>  (21) 
O=C(Nc1cccc(S(=O)(=O)N2CCOCC2)c1)c1ccc(S(=O)(=O)N2CCCC2)cc1

>  <score_type>  (21) 
oracle

>  <origin>  (21) 
adgpu

>  <m_score__min__energy>  (21) 
-10.67

>  <m_primary>  (21) 
energy

$$$$
21:0
     RDKit          3D

 56 58  0  0  0  0  0  0  0  0999 V2000
   -0.0750   23.1950  -24.5780 C   0  0  0  0  0  0  0  0  0  0  0  0
   -0.2920   22.1800  -25.5340 O   0  0  0  0  0  0  0  0  0  0  0  0
    0.2580   22.5550  -26.7800 C   0  0  0  0  0  0  0  0  0  0  0  0
   -0.7740   23.2110  -27.6770 C   0  0  0  0  0  0  0  0  0  0  0  0
   -0.7970   24.6140  -27.7100 C   0  0  0  0  0  0  0  0  0  0  0  0
   -1.6860   25.2990  -28.5290 C   0  0  0  0  0  0  0  0  0  0  0  0
   -2.5700   24.6000  -29.3570 C   0  0  0  0  0  0  0  0  0  0  0  0
   -3.5040   25.2990  -30.1940 N   0  0  0  0  0  0  0  0  0  0  0  0
   -4.8800   24.9580  -30.3940 C   0  0  0  0  0  0  0  0  0  0  0  0
   -5.7060   25.1960  -29.4730 O   0  0  0  0  0  0  0  0  0  0  0  0
   -5.3090   24.3510  -31.6200 N   0  0  0  0  0  0  0  0  0  0  0  0
   -6.1360   23.1860  -31.7610 C   0  0  0  0  0  0  0  0  0  0  0  0
   -7.4860   23.2770  -31.4010 C   0  0  0  0  0  0  0  0  0  0  0  0
   -8.3330   22.1730  -31.5400 C   0  0  0  0  0  0  0  0  0  0  0  0
   -7.8380   20.9700  -32.0580 C   0  0  0  0  0  0  0  0  0  0  0  0
   -8.7100   19.8330  -32.2040 C   0  0  0  0  0  0  0  0  0  0  0  0
   -9.4100   18.9200  -32.3220 N   0  0  0  0  0  0  0  0  0  0  0  0
   -6.4960   20.8790  -32.4440 C   0  0  0  0  0  0  0  0  0  0  0  0
   -5.6480   21.9840  -32.3040 C   0  0  0  0  0  0  0  0  0  0  0  0
   -2.5920   23.1930  -29.3180 C   0  0  0  0  0  0  0  0  0  0  0  0
   -3.5030   22.4930  -30.1140 O   0  0  0  0  0  0  0  0  0  0  0  0
   -1.6970   22.4800  -28.4800 C   0  0  0  0  0  0  0  0  0  0  0  0
   -1.7930   20.6940  -28.4400 S   0  0  0  0  0  0  0  0  0  0  0  0
   -0.9810   20.1630  -27.2920 O   0  0  0  0  0  0  0  0  0  0  0  0
   -3.2100   20.2470  -28.2200 O   0  0  0  0  0  0  0  0  0  0  0  0
   -1.1810   19.9740  -29.9750 C   0  0  0  0  0  0  0  0  0  0  0  0
    0.2520   20.4740  -30.2600 C   0  0  0  0  0  0  0  0  0  0  0  0
    0.5590   20.4170  -31.7600 C   0  0  0  0  0  0  0  0  0  0  0  0
   -0.3240   21.3260  -32.5320 N   0  0  0  0  0  0  0  0  0  0  0  0
   -0.3500   20.9320  -33.9480 C   0  0  0  0  0  0  0  0  0  0  0  0
   -1.6990   21.4610  -31.9810 C   0  0  0  0  0  0  0  0  0  0  0  0
   -2.1340   20.2360  -31.1640 C   0  0  0  0  0  0  0  0  0  0  0  0
   -0.1655   22.7717  -23.5668 H   0  0  0  0  0  0  0  0  0  0  0  0
    0.9331   23.6145  -24.7110 H   0  0  0  0  0  0  0  0  0  0  0  0
   -0.8235   23.9901  -24.7110 H   0  0  0  0  0  0  0  0  0  0  0  0
    1.0812   23.2637  -26.6069 H   0  0  0  0  0  0  0  0  0  0  0  0
    0.6184   21.6451  -27.2822 H   0  0  0  0  0  0  0  0  0  0  0  0
   -0.0991   25.1810  -27.0765 H   0  0  0  0  0  0  0  0  0  0  0  0
   -1.6946   26.3990  -28.5261 H   0  0  0  0  0  0  0  0  0  0  0  0
   -7.8832   24.2237  -31.0060 H   0  0  0  0  0  0  0  0  0  0  0  0
   -9.3891   22.2497  -31.2421 H   0  0  0  0  0  0  0  0  0  0  0  0
   -6.1066   19.9373  -32.8583 H   0  0  0  0  0  0  0  0  0  0  0  0
   -4.5967   21.9119  -32.6197 H   0  0  0  0  0  0  0  0  0  0  0  0
   -4.1840   22.9520  -30.7060 H   0  0  0  0  0  0  0  0  0  0  0  0
   -1.1468   18.8816  -29.8502 H   0  0  0  0  0  0  0  0  0  0  0  0
    0.3476   21.5129  -29.9114 H   0  0  0  0  0  0  0  0  0  0  0  0
    0.9643   19.8253  -29.7291 H   0  0  0  0  0  0  0  0  0  0  0  0
    1.6059   20.7134  -31.9219 H   0  0  0  0  0  0  0  0  0  0  0  0
    0.3841   19.3885  -32.1087 H   0  0  0  0  0  0  0  0  0  0  0  0
   -0.4223   19.8369  -34.0226 H   0  0  0  0  0  0  0  0  0  0  0  0
   -1.2198   21.3913  -34.4405 H   0  0  0  0  0  0  0  0  0  0  0  0
    0.5726   21.2730  -34.4405 H   0  0  0  0  0  0  0  0  0  0  0  0
   -1.7317   22.3474  -31.3304 H   0  0  0  0  0  0  0  0  0  0  0  0
   -2.3897   21.5546  -32.8320 H   0  0  0  0  0  0  0  0  0  0  0  0
   -3.1489   20.4082  -30.7762 H   0  0  0  0  0  0  0  0  0  0  0  0
   -2.1083   19.3566  -31.8243 H   0  0  0  0  0  0  0  0  0  0  0  0
  1  2  1  0
  2  3  1  0
  3  4  1  0
  4  5  2  0
  5  6  1  0
  6  7  2  0
  7  8  1  0
  8  9  1  0
  9 10  2  0
  9 11  1  0
 11 12  1  0
 12 13  2  0
 13 14  1  0
 14 15  2  0
 15 16  1  0
 16 17  3  0
 15 18  1  0
 18 19  2  0
  7 20  1  0
 20 21  1  0
 20 22  2  0
 22 23  1  0
 23 24  2  0
 23 25  2  0
 23 26  1  0
 26 27  1  0
 27 28  1  0
 28 29  1  0
 29 30  1  0
 29 31  1  0
 31 32  1  0
 22  4  1  0
 32 26  1  0
 19 12  1  0
  1 33  1  0
  1 34  1  0
  1 35  1  0
  3 36  1  0
  3 37  1  0
  5 38  1  0
  6 39  1  0
 13 40  1  0
 14 41  1  0
 18 42  1  0
 19 43  1  0
 21 44  1  0
 26 45  1  0
 27 46  1  0
 27 47  1  0
 28 48  1  0
 28 49  1  0
 30 50  1  0
 30 51  1  0
 30 52  1  0
 31 53  1  0
 31 54  1  0
 32 55  1  0
 32 56  1  0
M  CHG  2   8  -1  11  -1
M  END
>  <UniqueID>  (22) 
20

>  <SMILES>  (22) 
COCc1ccc([N-]C(=O)[N-]c2ccc(C#N)cc2)c(O)c1S(=O)(=O)C1CCN(C)CC1

>  <Energy>  (22) 
75.71938775054399

>  <Genealogy>  (22) 
COCc1ccc([N-]C(=O)[N-]c2ccc(C#N)cc2)c(O)c1S(=O)(=O)C1CCN(C)CC1 (protonated)
COCc1ccc([N-]C(=O)[N-]c2ccc(C#N)cc2)c(O)c1S(=O)(=O)C1CCN(C)CC1 (3D coordinates assigned)
COCc1ccc([N-]C(=O)[N-]c2ccc(C#N)cc2)c(O)c1S(=O)(=O)C1CCN(C)CC1 (nonaromatic ring conformer: 75.71938775054399 kcal/mol)

>  <smiles>  (22) 
COCc1ccc(NC(=O)Nc2ccc(C#N)cc2)c(O)c1S(=O)(=O)C1CCN(C)CC1

>  <score_type>  (22) 
oracle

>  <origin>  (22) 
adgpu

>  <m_score__min__energy>  (22) 
-13.390000000000001

>  <m_primary>  (22) 
energy

$$$$
22:0
     RDKit          3D

 39 42  0  0  0  0  0  0  0  0999 V2000
    2.1870   18.6560  -32.1200 C   0  0  0  0  0  0  0  0  0  0  0  0
    1.7030   19.9960  -32.1510 O   0  0  0  0  0  0  0  0  0  0  0  0
    0.4070   20.3590  -32.5460 C   0  0  0  0  0  0  0  0  0  0  0  0
   -0.1030   20.0700  -33.8250 C   0  0  0  0  0  0  0  0  0  0  0  0
   -1.4050   20.4470  -34.1670 C   0  0  0  0  0  0  0  0  0  0  0  0
   -2.2220   21.1040  -33.2360 C   0  0  0  0  0  0  0  0  0  0  0  0
   -3.5650   21.4620  -33.6020 N   0  0  0  0  0  0  0  0  0  0  0  0
   -4.7350   20.8010  -33.1020 C   0  0  0  0  0  0  0  0  0  0  0  0
   -5.7540   21.3090  -32.2780 C   0  0  0  0  0  0  0  0  0  0  0  0
   -5.7940   22.6260  -31.6120 C   0  0  0  0  0  0  0  0  0  0  0  0
   -7.0270   23.1680  -31.2120 C   0  0  0  0  0  0  0  0  0  0  0  0
   -7.0800   24.4220  -30.5990 C   0  0  0  0  0  0  0  0  0  0  0  0
   -5.9020   25.1460  -30.3670 C   0  0  0  0  0  0  0  0  0  0  0  0
   -5.9500   26.4000  -29.7620 O   0  0  0  0  0  0  0  0  0  0  0  0
   -4.6690   24.6010  -30.7430 C   0  0  0  0  0  0  0  0  0  0  0  0
   -3.4940   25.3060  -30.5080 O   0  0  0  0  0  0  0  0  0  0  0  0
   -4.6140   23.3430  -31.3520 C   0  0  0  0  0  0  0  0  0  0  0  0
   -6.7340   20.3720  -32.1230 N   0  0  0  0  0  0  0  0  0  0  0  0
   -6.2520   19.3380  -32.8410 C   0  0  0  0  0  0  0  0  0  0  0  0
   -6.8690   17.8200  -33.1860 S   0  0  0  0  0  0  0  0  0  0  0  0
   -5.5030   17.4440  -34.1580 C   0  0  0  0  0  0  0  0  0  0  0  0
   -4.6230   18.5350  -34.1710 C   0  0  0  0  0  0  0  0  0  0  0  0
   -5.0880   19.5540  -33.4160 N   0  0  0  0  0  0  0  0  0  0  0  0
   -1.7020   21.4170  -31.9690 C   0  0  0  0  0  0  0  0  0  0  0  0
   -0.4010   21.0390  -31.6260 C   0  0  0  0  0  0  0  0  0  0  0  0
    2.3039   18.3324  -31.0752 H   0  0  0  0  0  0  0  0  0  0  0  0
    1.4706   17.9955  -32.6304 H   0  0  0  0  0  0  0  0  0  0  0  0
    3.1601   18.6057  -32.6304 H   0  0  0  0  0  0  0  0  0  0  0  0
    0.5257   19.5450  -34.5593 H   0  0  0  0  0  0  0  0  0  0  0  0
   -1.7911   20.2267  -35.1732 H   0  0  0  0  0  0  0  0  0  0  0  0
   -3.7050   22.2850  -34.2310 H   0  0  0  0  0  0  0  0  0  0  0  0
   -7.9548   22.6022  -31.3824 H   0  0  0  0  0  0  0  0  0  0  0  0
   -8.0502   24.8433  -30.2970 H   0  0  0  0  0  0  0  0  0  0  0  0
   -5.1240   26.9820  -29.6820 H   0  0  0  0  0  0  0  0  0  0  0  0
   -3.6406   22.9122  -31.6292 H   0  0  0  0  0  0  0  0  0  0  0  0
   -5.3436   16.4936  -34.6884 H   0  0  0  0  0  0  0  0  0  0  0  0
   -3.6736   18.5584  -34.7260 H   0  0  0  0  0  0  0  0  0  0  0  0
   -2.3224   21.9627  -31.2428 H   0  0  0  0  0  0  0  0  0  0  0  0
   -0.0088   21.2772  -30.6263 H   0  0  0  0  0  0  0  0  0  0  0  0
  1  2  1  0
  2  3  1  0
  3  4  2  0
  4  5  1  0
  5  6  2  0
  6  7  1  0
  7  8  1  0
  8  9  2  0
  9 10  1  0
 10 11  2  0
 11 12  1  0
 12 13  2  0
 13 14  1  0
 13 15  1  0
 15 16  1  0
 15 17  2  0
  9 18  1  0
 18 19  2  0
 19 20  1  0
 20 21  1  0
 21 22  2  0
 22 23  1  0
  6 24  1  0
 24 25  2  0
 25  3  1  0
 23  8  1  0
 17 10  1  0
 23 19  1  0
  1 26  1  0
  1 27  1  0
  1 28  1  0
  4 29  1  0
  5 30  1  0
  7 31  1  0
 11 32  1  0
 12 33  1  0
 14 34  1  0
 17 35  1  0
 21 36  1  0
 22 37  1  0
 24 38  1  0
 25 39  1  0
M  CHG  1  16  -1
M  END
>  <UniqueID>  (23) 
21

>  <SMILES>  (23) 
COc1ccc(Nc2c(-c3ccc(O)c([O-])c3)nc3sccn23)cc1

>  <Energy>  (23) 
129.8280145623727

>  <Genealogy>  (23) 
COc1ccc(Nc2c(-c3ccc(O)c([O-])c3)nc3sccn23)cc1 (protonated)
COc1ccc(Nc2c(-c3ccc(O)c([O-])c3)nc3sccn23)cc1 (3D coordinates assigned)
COc1ccc(Nc2c(-c3ccc(O)c([O-])c3)nc3sccn23)cc1 (optimized conformer: 129.8280145623727 kcal/mol)

>  <smiles>  (23) 
COc1ccc(Nc2c(-c3ccc(O)c(O)c3)nc3sccn23)cc1

>  <score_type>  (23) 
oracle

>  <origin>  (23) 
adgpu

>  <m_score__min__energy>  (23) 
-11.34

>  <m_primary>  (23) 
energy

$$$$
23:0
     RDKit          3D

 61 67  0  0  0  0  0  0  0  0999 V2000
   -1.8020   20.4830  -27.2970 O   0  0  0  0  0  0  0  0  0  0  0  0
   -1.4340   20.9500  -28.4090 C   0  0  0  0  0  0  0  0  0  0  0  0
   -0.3990   20.2930  -29.1520 N   0  0  0  0  0  0  0  0  0  0  0  0
   -0.6220   19.5490  -30.3900 C   0  0  2  0  0  0  0  0  0  0  0  0
    0.4920   18.5030  -30.5790 C   0  0  0  0  0  0  0  0  0  0  0  0
    0.3890   17.8080  -31.9430 C   0  0  0  0  0  0  0  0  0  0  0  0
    0.5670   18.8320  -33.0810 C   0  0  1  0  0  0  0  0  0  0  0  0
    1.8840   19.3400  -32.9970 O   0  0  0  0  0  0  0  0  0  0  0  0
    0.3890   18.1970  -34.5050 C   0  0  1  0  0  0  0  0  0  0  0  0
   -1.0260   17.5740  -34.7440 C   0  0  0  0  0  0  0  0  0  0  0  0
   -2.1520   18.4000  -34.1690 C   0  0  0  0  0  0  0  0  0  0  0  0
   -3.5130   18.0850  -34.3560 C   0  0  0  0  0  0  0  0  0  0  0  0
   -4.5100   18.8120  -33.6600 C   0  0  0  0  0  0  0  0  0  0  0  0
   -4.1450   19.8170  -32.7400 C   0  0  0  0  0  0  0  0  0  0  0  0
   -5.1080   20.4960  -32.0030 O   0  0  0  0  0  0  0  0  0  0  0  0
   -2.7890   20.0870  -32.5680 C   0  0  0  0  0  0  0  0  0  0  0  0
   -1.8470   19.4410  -33.3040 C   0  0  0  0  0  0  0  0  0  0  0  0
   -0.4930   19.9590  -32.9830 C   0  0  2  0  0  0  0  0  0  0  0  0
   -0.1430   21.0490  -34.0300 C   0  0  0  0  0  0  0  0  0  0  0  0
   -0.0880   20.4710  -35.4650 C   0  0  0  0  0  0  0  0  0  0  0  0
    0.6710   19.1970  -35.5750 N   0  0  0  0  0  0  0  0  0  0  0  0
    2.1110   19.4150  -35.8470 C   0  0  0  0  0  0  0  0  0  0  0  0
    2.4110   20.8540  -36.3120 C   0  0  0  0  0  0  0  0  0  0  0  0
    2.9980   21.7290  -35.2080 C   0  0  0  0  0  0  0  0  0  0  0  0
    3.8540   21.3480  -36.4020 C   0  0  0  0  0  0  0  0  0  0  0  0
   -0.7820   20.5660  -31.5660 C   0  0  1  0  0  0  0  0  0  0  0  0
   -2.1800   20.9020  -31.6290 O   0  0  0  0  0  0  0  0  0  0  0  0
   -2.0670   22.1780  -28.9450 C   0  0  0  0  0  0  0  0  0  0  0  0
   -3.3400   22.1220  -29.5430 C   0  0  0  0  0  0  0  0  0  0  0  0
   -3.9420   23.2830  -30.0360 C   0  0  0  0  0  0  0  0  0  0  0  0
   -3.2800   24.5120  -29.9450 C   0  0  0  0  0  0  0  0  0  0  0  0
   -3.8870   25.6650  -30.4310 O   0  0  0  0  0  0  0  0  0  0  0  0
   -2.0100   24.5800  -29.3600 C   0  0  0  0  0  0  0  0  0  0  0  0
   -1.3480   25.8000  -29.2650 O   0  0  0  0  0  0  0  0  0  0  0  0
   -1.4060   23.4200  -28.8640 C   0  0  0  0  0  0  0  0  0  0  0  0
   -1.5561   18.9690  -30.3561 H   0  0  0  0  0  0  0  0  0  0  0  0
    1.4684   19.0044  -30.5067 H   0  0  0  0  0  0  0  0  0  0  0  0
    0.3834   17.7393  -29.7948 H   0  0  0  0  0  0  0  0  0  0  0  0
    1.1737   17.0409  -32.0194 H   0  0  0  0  0  0  0  0  0  0  0  0
   -0.6037   17.3427  -32.0330 H   0  0  0  0  0  0  0  0  0  0  0  0
    2.0870   19.8670  -33.8130 H   0  0  0  0  0  0  0  0  0  0  0  0
    1.1194   17.3757  -34.5502 H   0  0  0  0  0  0  0  0  0  0  0  0
   -1.1846   17.4755  -35.8280 H   0  0  0  0  0  0  0  0  0  0  0  0
   -1.0427   16.6015  -34.2303 H   0  0  0  0  0  0  0  0  0  0  0  0
   -3.8010   17.2749  -35.0422 H   0  0  0  0  0  0  0  0  0  0  0  0
   -5.5730   18.5919  -33.8377 H   0  0  0  0  0  0  0  0  0  0  0  0
   -0.9091   21.8375  -33.9928 H   0  0  0  0  0  0  0  0  0  0  0  0
    0.8509   21.4517  -33.7852 H   0  0  0  0  0  0  0  0  0  0  0  0
   -1.1184   20.2902  -35.8049 H   0  0  0  0  0  0  0  0  0  0  0  0
    0.4392   21.2103  -36.0860 H   0  0  0  0  0  0  0  0  0  0  0  0
    2.6784   19.2161  -34.9259 H   0  0  0  0  0  0  0  0  0  0  0  0
    2.4058   18.7326  -36.6578 H   0  0  0  0  0  0  0  0  0  0  0  0
    1.5738   20.8811  -37.0250 H   0  0  0  0  0  0  0  0  0  0  0  0
    2.6534   22.7667  -35.0879 H   0  0  0  0  0  0  0  0  0  0  0  0
    3.1023   21.6363  -34.1169 H   0  0  0  0  0  0  0  0  0  0  0  0
    4.1288   22.1096  -37.1467 H   0  0  0  0  0  0  0  0  0  0  0  0
    4.8337   20.8654  -36.5333 H   0  0  0  0  0  0  0  0  0  0  0  0
   -0.0807   21.3897  -31.3665 H   0  0  0  0  0  0  0  0  0  0  0  0
   -3.8644   21.1583  -29.6228 H   0  0  0  0  0  0  0  0  0  0  0  0
   -4.9394   23.2302  -30.4970 H   0  0  0  0  0  0  0  0  0  0  0  0
   -0.4071   23.4776  -28.4071 H   0  0  0  0  0  0  0  0  0  0  0  0
  1  2  2  0
  2  3  1  0
  3  4  1  0
  4  5  1  0
  5  6  1  0
  6  7  1  0
  7  8  1  6
  7  9  1  0
  9 10  1  0
 10 11  1  0
 11 12  2  0
 12 13  1  0
 13 14  2  0
 14 15  1  0
 14 16  1  0
 16 17  2  0
 17 18  1  0
 18 19  1  6
 19 20  1  0
 20 21  1  0
 21 22  1  0
 22 23  1  0
 23 24  1  0
 24 25  1  0
 18 26  1  0
 26 27  1  0
  2 28  1  0
 28 29  2  0
 29 30  1  0
 30 31  2  0
 31 32  1  0
 31 33  1  0
 33 34  1  0
 33 35  2  0
 26  4  1  0
 35 28  1  0
 18  7  1  0
 25 23  1  0
 21  9  1  0
 17 11  1  0
 27 16  1  0
  4 36  1  1
  5 37  1  0
  5 38  1  0
  6 39  1  0
  6 40  1  0
  8 41  1  0
  9 42  1  1
 10 43  1  0
 10 44  1  0
 12 45  1  0
 13 46  1  0
 19 47  1  0
 19 48  1  0
 20 49  1  0
 20 50  1  0
 22 51  1  0
 22 52  1  0
 23 53  1  0
 24 54  1  0
 24 55  1  0
 25 56  1  0
 25 57  1  0
 26 58  1  1
 29 59  1  0
 30 60  1  0
 35 61  1  0
M  CHG  4   3  -1  15  -1  32  -1  34  -1
M  END
>  <UniqueID>  (24) 
22

>  <SMILES>  (24) 
O=C([N-][C@@H]1CC[C@@]2(O)C3Cc4ccc([O-])c5c4C2(CCN3CC2CC2)C1O5)c1ccc([O-])c([O-])c1

>  <Energy>  (24) 
381.23731348349884

>  <Genealogy>  (24) 
O=C([N-]C1CCC2(O)C3Cc4ccc([O-])c5c4C2(CCN3CC2CC2)C1O5)c1ccc([O-])c([O-])c1 (protonated)
O=C([N-][C@@H]1CC[C@@]2(O)C3Cc4ccc([O-])c5c4C2(CCN3CC2CC2)C1O5)c1ccc([O-])c([O-])c1 (chirality)
O=C([N-][C@@H]1CC[C@@]2(O)C3Cc4ccc([O-])c5c4C2(CCN3CC2CC2)C1O5)c1ccc([O-])c([O-])c1 (3D coordinates assigned)
O=C([N-][C@@H]1CC[C@@]2(O)C3Cc4ccc([O-])c5c4C2(CCN3CC2CC2)C1O5)c1ccc([O-])c([O-])c1 (nonaromatic ring conformer: 381.23731348349884 kcal/mol)

>  <smiles>  (24) 
O=C(NC1CCC2(O)C3Cc4ccc(O)c5c4C2(CCN3CC2CC2)C1O5)c1ccc(O)c(O)c1

>  <score_type>  (24) 
oracle

>  <origin>  (24) 
adgpu

>  <m_score__min__energy>  (24) 
-13.24

>  <m_primary>  (24) 
energy

$$$$
24:0
     RDKit          3D

 41 42  0  0  0  0  0  0  0  0999 V2000
    0.0612   25.3466  -26.9932 H   0  0  0  0  0  0  0  0  0  0  0  0
   -1.0320   25.4680  -27.0030 C   0  0  0  0  0  0  0  0  0  0  0  0
   -1.7530   25.2780  -28.2780 C   0  0  0  0  0  0  0  0  0  0  0  0
   -1.2450   25.7420  -29.3320 O   0  0  0  0  0  0  0  0  0  0  0  0
   -3.0240   24.6170  -28.3570 N   0  0  0  0  0  0  0  0  0  0  0  0
   -3.5130   23.8690  -29.4790 C   0  0  0  0  0  0  0  0  0  0  0  0
   -2.9540   22.6290  -29.8370 C   0  0  0  0  0  0  0  0  0  0  0  0
   -2.1139   22.2183  -29.2576 H   0  0  0  0  0  0  0  0  0  0  0  0
   -3.4630   21.9170  -30.9270 C   0  0  0  0  0  0  0  0  0  0  0  0
   -3.0173   20.9512  -31.2073 H   0  0  0  0  0  0  0  0  0  0  0  0
   -4.5380   22.4290  -31.6630 C   0  0  0  0  0  0  0  0  0  0  0  0
   -5.2230   21.5060  -33.0440 S   0  0  0  0  0  0  0  0  0  0  0  0
   -6.8990   21.4450  -32.3710 C   0  0  0  0  0  0  0  0  0  0  0  0
   -7.6460   22.6360  -32.3390 C   0  0  0  0  0  0  0  0  0  0  0  0
   -7.1110   23.7970  -32.7920 F   0  0  0  0  0  0  0  0  0  0  0  0
   -8.9420   22.6450  -31.8190 C   0  0  0  0  0  0  0  0  0  0  0  0
   -9.5243   23.5782  -31.8144 H   0  0  0  0  0  0  0  0  0  0  0  0
   -9.5000   21.4760  -31.3060 C   0  0  0  0  0  0  0  0  0  0  0  0
  -10.5250   21.4854  -30.9070 H   0  0  0  0  0  0  0  0  0  0  0  0
   -8.7600   20.2940  -31.2980 C   0  0  0  0  0  0  0  0  0  0  0  0
   -9.2022   19.3779  -30.8794 H   0  0  0  0  0  0  0  0  0  0  0  0
   -7.4530   20.2610  -31.8200 C   0  0  0  0  0  0  0  0  0  0  0  0
   -6.6890   18.9570  -31.7700 C   0  0  0  0  0  0  0  0  0  0  0  0
   -5.6109   19.1738  -31.7445 H   0  0  0  0  0  0  0  0  0  0  0  0
   -6.9964   18.4082  -30.8676 H   0  0  0  0  0  0  0  0  0  0  0  0
   -6.9820   18.1230  -32.9430 N   0  0  0  0  0  0  0  0  0  0  0  0
   -7.7860   18.5650  -33.4480 H   0  0  0  0  0  0  0  0  0  0  0  0
   -5.8570   18.0800  -33.8790 C   0  0  0  0  0  0  0  0  0  0  0  0
   -4.9127   18.0439  -33.3159 H   0  0  0  0  0  0  0  0  0  0  0  0
   -5.9408   17.1844  -34.5122 H   0  0  0  0  0  0  0  0  0  0  0  0
   -5.8722   18.9794  -34.5122 H   0  0  0  0  0  0  0  0  0  0  0  0
   -5.0500   23.6940  -31.3480 C   0  0  0  0  0  0  0  0  0  0  0  0
   -5.8560   24.1269  -31.9587 H   0  0  0  0  0  0  0  0  0  0  0  0
   -4.5400   24.4080  -30.2600 C   0  0  0  0  0  0  0  0  0  0  0  0
   -4.9489   25.3998  -30.0167 H   0  0  0  0  0  0  0  0  0  0  0  0
   -1.6510   25.7810  -25.8610 C   0  0  0  0  0  0  0  0  0  0  0  0
   -2.7446   25.8991  -25.8522 H   0  0  0  0  0  0  0  0  0  0  0  0
   -0.8800   25.9730  -24.5960 C   0  0  0  0  0  0  0  0  0  0  0  0
   -1.5430   25.8079  -23.7339 H   0  0  0  0  0  0  0  0  0  0  0  0
   -0.0476   25.2547  -24.5613 H   0  0  0  0  0  0  0  0  0  0  0  0
   -0.4817   26.9978  -24.5613 H   0  0  0  0  0  0  0  0  0  0  0  0
  1  2  1  0
  2  3  1  0
  3  4  2  0
  3  5  1  0
  5  6  1  0
  6  7  2  0
  7  8  1  0
  7  9  1  0
  9 10  1  0
  9 11  2  0
 11 12  1  0
 12 13  1  0
 13 14  2  0
 14 15  1  0
 14 16  1  0
 16 17  1  0
 16 18  2  0
 18 19  1  0
 18 20  1  0
 20 21  1  0
 20 22  2  0
 22 23  1  0
 23 24  1  0
 23 25  1  0
 23 26  1  0
 26 27  1  0
 26 28  1  0
 28 29  1  0
 28 30  1  0
 28 31  1  0
 11 32  1  0
 32 33  1  0
 32 34  2  0
 34 35  1  0
  2 36  2  0
 36 37  1  0
 36 38  1  0
 38 39  1  0
 38 40  1  0
 38 41  1  0
 34  6  1  0
 22 13  1  0
M  CHG  1   5  -1
M  END
>  <UniqueID>  (25) 
23

>  <SMILES>  (25) 
C/C=C/C(=O)[N-]c1ccc(Sc2c(F)cccc2CNC)cc1

>  <Energy>  (25) 
39.56739819242621

>  <Genealogy>  (25) 
CC=CC(=O)[N-]c1ccc(Sc2c(F)cccc2CNC)cc1 (protonated)
C/C=C/C(=O)[N-]c1ccc(Sc2c(F)cccc2CNC)cc1 (cis-trans isomerization)
C/C=C/C(=O)[N-]c1ccc(Sc2c(F)cccc2CNC)cc1 (3D coordinates assigned)
C/C=C/C(=O)[N-]c1ccc(Sc2c(F)cccc2CNC)cc1 (optimized conformer: 39.56739819242621 kcal/mol)

>  <smiles>  (25) 
CC=CC(=O)Nc1ccc(Sc2c(F)cccc2CNC)cc1

>  <score_type>  (25) 
oracle

>  <origin>  (25) 
adgpu

>  <m_score__min__energy>  (25) 
-9.5800000000000001

>  <m_primary>  (25) 
energy

$$$$
25:0
     RDKit          3D

 34 36  0  0  0  0  0  0  0  0999 V2000
   -6.4890   16.6990  -33.5900 C   0  0  0  0  0  0  0  0  0  0  0  0
   -5.7550   17.9240  -34.1270 C   0  0  0  0  0  0  0  0  0  0  0  0
   -6.1470   19.1570  -33.3590 C   0  0  0  0  0  0  0  0  0  0  0  0
   -5.3790   20.3280  -33.4580 C   0  0  0  0  0  0  0  0  0  0  0  0
   -5.7210   21.4610  -32.7170 C   0  0  0  0  0  0  0  0  0  0  0  0
   -6.8300   21.4360  -31.8610 C   0  0  0  0  0  0  0  0  0  0  0  0
   -7.2330   22.8650  -30.9140 S   0  0  0  0  0  0  0  0  0  0  0  0
   -8.2400   23.6840  -31.6690 O   0  0  0  0  0  0  0  0  0  0  0  0
   -7.8160   22.4750  -29.5840 O   0  0  0  0  0  0  0  0  0  0  0  0
   -5.7790   23.8080  -30.6380 C   0  0  0  0  0  0  0  0  0  0  0  0
   -5.5520   25.1250  -31.0260 C   0  0  0  0  0  0  0  0  0  0  0  0
   -4.3060   25.5140  -30.6660 N   0  0  0  0  0  0  0  0  0  0  0  0
   -3.7580   24.4500  -30.0590 C   0  0  0  0  0  0  0  0  0  0  0  0
   -2.5060   24.3810  -29.5410 N   0  0  0  0  0  0  0  0  0  0  0  0
   -2.0920   23.2150  -28.9580 C   0  0  0  0  0  0  0  0  0  0  0  0
   -2.9540   22.0950  -28.8980 C   0  0  0  0  0  0  0  0  0  0  0  0
   -4.2480   22.1810  -29.4410 C   0  0  0  0  0  0  0  0  0  0  0  0
   -4.6200   23.3900  -30.0200 C   0  0  0  0  0  0  0  0  0  0  0  0
   -7.5950   20.2670  -31.7520 C   0  0  0  0  0  0  0  0  0  0  0  0
   -7.2530   19.1310  -32.4930 C   0  0  0  0  0  0  0  0  0  0  0  0
   -6.4778   16.7177  -32.4902 H   0  0  0  0  0  0  0  0  0  0  0  0
   -7.5296   16.7097  -33.9463 H   0  0  0  0  0  0  0  0  0  0  0  0
   -5.9888   15.7864  -33.9463 H   0  0  0  0  0  0  0  0  0  0  0  0
   -4.6707   17.7670  -34.0292 H   0  0  0  0  0  0  0  0  0  0  0  0
   -6.0262   18.0641  -35.1838 H   0  0  0  0  0  0  0  0  0  0  0  0
   -4.5031   20.3531  -34.1229 H   0  0  0  0  0  0  0  0  0  0  0  0
   -5.1176   22.3765  -32.8056 H   0  0  0  0  0  0  0  0  0  0  0  0
   -6.2812   25.7598  -31.5506 H   0  0  0  0  0  0  0  0  0  0  0  0
   -3.8650   26.4450  -30.8320 H   0  0  0  0  0  0  0  0  0  0  0  0
   -1.0800   23.1476  -28.5321 H   0  0  0  0  0  0  0  0  0  0  0  0
   -2.6132   21.1605  -28.4284 H   0  0  0  0  0  0  0  0  0  0  0  0
   -4.9392   21.3259  -29.4093 H   0  0  0  0  0  0  0  0  0  0  0  0
   -8.4669   20.2426  -31.0818 H   0  0  0  0  0  0  0  0  0  0  0  0
   -7.8524   18.2136  -32.3973 H   0  0  0  0  0  0  0  0  0  0  0  0
  1  2  1  0
  2  3  1  0
  3  4  2  0
  4  5  1  0
  5  6  2  0
  6  7  1  0
  7  8  2  0
  7  9  2  0
  7 10  1  0
 10 11  2  0
 11 12  1  0
 12 13  1  0
 13 14  2  0
 14 15  1  0
 15 16  2  0
 16 17  1  0
 17 18  2  0
  6 19  1  0
 19 20  2  0
 20  3  1  0
 18 10  1  0
 18 13  1  0
  1 21  1  0
  1 22  1  0
  1 23  1  0
  2 24  1  0
  2 25  1  0
  4 26  1  0
  5 27  1  0
 11 28  1  0
 12 29  1  0
 15 30  1  0
 16 31  1  0
 17 32  1  0
 19 33  1  0
 20 34  1  0
M  END
>  <UniqueID>  (26) 
24

>  <SMILES>  (26) 
CCc1ccc(S(=O)(=O)c2c[nH]c3ncccc23)cc1

>  <Energy>  (26) 
69.60718982913811

>  <Genealogy>  (26) 
CCc1ccc(S(=O)(=O)c2c[nH]c3ncccc23)cc1 (3D coordinates assigned)
CCc1ccc(S(=O)(=O)c2c[nH]c3ncccc23)cc1 (optimized conformer: 69.60718982913811 kcal/mol)

>  <smiles>  (26) 
CCc1ccc(S(=O)(=O)c2c[nH]c3ncccc23)cc1

>  <score_type>  (26) 
oracle

>  <origin>  (26) 
adgpu

>  <m_score__min__energy>  (26) 
-8.3100000000000005

>  <m_primary>  (26) 
energy

$$$$
26:0
     RDKit          3D

 38 39  0  0  0  0  0  0  0  0999 V2000
    0.7040   24.0410  -27.8550 C   0  0  0  0  0  0  0  0  0  0  0  0
   -0.0790   23.5220  -29.0580 C   0  0  0  0  0  0  0  0  0  0  0  0
   -1.4800   23.1390  -28.6510 C   0  0  0  0  0  0  0  0  0  0  0  0
   -1.7250   21.8690  -28.1060 C   0  0  0  0  0  0  0  0  0  0  0  0
   -3.0250   21.4850  -27.7680 C   0  0  0  0  0  0  0  0  0  0  0  0
   -4.0950   22.3460  -28.0100 C   0  0  0  0  0  0  0  0  0  0  0  0
   -3.8770   23.5950  -28.6040 C   0  0  0  0  0  0  0  0  0  0  0  0
   -5.0130   24.4220  -28.9100 N   0  0  0  0  0  0  0  0  0  0  0  0
   -5.8530   24.2520  -29.8960 C   0  0  0  0  0  0  0  0  0  0  0  0
   -6.9260   25.2770  -30.0960 C   0  0  0  0  0  0  0  0  0  0  0  0
   -5.7740   23.0870  -30.8180 C   0  0  0  0  0  0  0  0  0  0  0  0
   -4.6230   22.8610  -31.5880 C   0  0  0  0  0  0  0  0  0  0  0  0
   -3.5480   23.7400  -31.5280 O   0  0  0  0  0  0  0  0  0  0  0  0
   -4.5360   21.7920  -32.3710 O   0  0  0  0  0  0  0  0  0  0  0  0
   -5.5020   20.8870  -32.4720 C   0  0  0  0  0  0  0  0  0  0  0  0
   -5.3360   19.9100  -33.2500 O   0  0  0  0  0  0  0  0  0  0  0  0
   -6.7000   21.0330  -31.7410 C   0  0  0  0  0  0  0  0  0  0  0  0
   -7.7940   20.0300  -31.8190 C   0  0  0  0  0  0  0  0  0  0  0  0
   -9.1560   20.3860  -32.3320 C   0  0  0  0  0  0  0  0  0  0  0  0
   -7.5850   18.8480  -31.4330 O   0  0  0  0  0  0  0  0  0  0  0  0
   -6.8340   22.1710  -30.9240 C   0  0  0  0  0  0  0  0  0  0  0  0
   -8.0130   22.3910  -30.2160 O   0  0  0  0  0  0  0  0  0  0  0  0
   -2.5600   24.0140  -28.8780 C   0  0  0  0  0  0  0  0  0  0  0  0
   -2.3230   25.2990  -29.3590 O   0  0  0  0  0  0  0  0  0  0  0  0
    0.2108   23.7141  -26.9277 H   0  0  0  0  0  0  0  0  0  0  0  0
    1.7290   23.6429  -27.8851 H   0  0  0  0  0  0  0  0  0  0  0  0
    0.7365   25.1401  -27.8851 H   0  0  0  0  0  0  0  0  0  0  0  0
   -0.1272   24.3087  -29.8253 H   0  0  0  0  0  0  0  0  0  0  0  0
    0.4309   22.6331  -29.4578 H   0  0  0  0  0  0  0  0  0  0  0  0
   -0.8891   21.1725  -27.9442 H   0  0  0  0  0  0  0  0  0  0  0  0
   -3.2050   20.5013  -27.3099 H   0  0  0  0  0  0  0  0  0  0  0  0
   -5.1153   22.0424  -27.7328 H   0  0  0  0  0  0  0  0  0  0  0  0
   -7.2889   25.6237  -29.1172 H   0  0  0  0  0  0  0  0  0  0  0  0
   -6.5183   26.1296  -30.6589 H   0  0  0  0  0  0  0  0  0  0  0  0
   -7.7591   24.8307  -30.6589 H   0  0  0  0  0  0  0  0  0  0  0  0
   -9.8328   20.5629  -31.4831 H   0  0  0  0  0  0  0  0  0  0  0  0
   -9.0904   21.2972  -32.9447 H   0  0  0  0  0  0  0  0  0  0  0  0
   -9.5447   19.5593  -32.9447 H   0  0  0  0  0  0  0  0  0  0  0  0
  1  2  1  0
  2  3  1  0
  3  4  2  0
  4  5  1  0
  5  6  2  0
  6  7  1  0
  7  8  1  0
  8  9  2  3
  9 10  1  0
  9 11  1  0
 11 12  2  0
 12 13  1  0
 12 14  1  0
 14 15  1  0
 15 16  2  0
 15 17  1  0
 17 18  1  0
 18 19  1  0
 18 20  2  0
 17 21  2  0
 21 22  1  0
  7 23  2  0
 23 24  1  0
 23  3  1  0
 21 11  1  0
  1 25  1  0
  1 26  1  0
  1 27  1  0
  2 28  1  0
  2 29  1  0
  4 30  1  0
  5 31  1  0
  6 32  1  0
 10 33  1  0
 10 34  1  0
 10 35  1  0
 19 36  1  0
 19 37  1  0
 19 38  1  0
M  CHG  3  13  -1  22  -1  24  -1
M  END
>  <UniqueID>  (27) 
25

>  <SMILES>  (27) 
CCc1cccc(N=C(C)c2c([O-])oc(=O)c(C(C)=O)c2[O-])c1[O-]

>  <Energy>  (27) 
54.206663942015425

>  <Genealogy>  (27) 
CCc1cccc(N=C(C)c2c([O-])oc(=O)c(C(C)=O)c2[O-])c1[O-] (protonated)
CCc1cccc(N=C(C)c2c([O-])oc(=O)c(C(C)=O)c2[O-])c1[O-] (3D coordinates assigned)
CCc1cccc(N=C(C)c2c([O-])oc(=O)c(C(C)=O)c2[O-])c1[O-] (optimized conformer: 54.206663942015425 kcal/mol)

>  <smiles>  (27) 
CCc1cccc(N=C(C)c2c(O)oc(=O)c(C(C)=O)c2O)c1O

>  <score_type>  (27) 
oracle

>  <origin>  (27) 
adgpu

>  <m_score__min__energy>  (27) 
-10.390000000000001

>  <m_primary>  (27) 
energy

$$$$
27:0
     RDKit          3D

 53 56  0  0  0  0  0  0  0  0999 V2000
   -5.0480   24.0090  -31.5750 O   0  0  0  0  0  0  0  0  0  0  0  0
   -4.1160   23.5760  -30.4760 S   0  0  0  0  0  0  0  0  0  0  0  0
   -4.9250   23.1180  -29.2940 O   0  0  0  0  0  0  0  0  0  0  0  0
   -3.1280   24.9250  -30.0030 N   0  0  0  0  0  0  0  0  0  0  0  0
   -2.3610   24.9360  -28.9560 C   0  0  0  0  0  0  0  0  0  0  0  0
   -1.5870   25.9960  -28.6430 N   0  0  0  0  0  0  0  0  0  0  0  0
   -0.8740   25.7760  -27.5060 C   0  0  0  0  0  0  0  0  0  0  0  0
   -1.0810   24.5400  -26.9060 C   0  0  0  0  0  0  0  0  0  0  0  0
   -2.1900   23.6860  -27.8350 S   0  0  0  0  0  0  0  0  0  0  0  0
   -3.0810   22.2780  -31.0640 C   0  0  0  0  0  0  0  0  0  0  0  0
   -3.1250   21.8770  -32.4080 C   0  0  0  0  0  0  0  0  0  0  0  0
   -2.4200   20.7420  -32.8260 C   0  0  0  0  0  0  0  0  0  0  0  0
   -1.6800   19.9890  -31.9030 C   0  0  0  0  0  0  0  0  0  0  0  0
   -1.1100   18.7420  -32.3190 N   0  0  0  0  0  0  0  0  0  0  0  0
   -1.5050   17.9920  -33.8350 S   0  0  0  0  0  0  0  0  0  0  0  0
   -0.5780   16.8310  -34.0810 O   0  0  0  0  0  0  0  0  0  0  0  0
   -1.3460   18.9910  -34.9480 O   0  0  0  0  0  0  0  0  0  0  0  0
   -3.1860   17.4610  -33.7840 C   0  0  0  0  0  0  0  0  0  0  0  0
   -3.6010   16.4000  -34.6000 C   0  0  0  0  0  0  0  0  0  0  0  0
   -4.9450   16.0090  -34.6220 C   0  0  0  0  0  0  0  0  0  0  0  0
   -5.8850   16.6910  -33.8440 C   0  0  0  0  0  0  0  0  0  0  0  0
   -7.1810   16.2880  -33.8650 F   0  0  0  0  0  0  0  0  0  0  0  0
   -5.4840   17.7790  -33.0470 C   0  0  0  0  0  0  0  0  0  0  0  0
   -6.6730   18.6790  -32.1030 S   0  0  0  0  0  0  0  0  0  0  0  0
   -7.6760   17.7230  -31.5120 O   0  0  0  0  0  0  0  0  0  0  0  0
   -5.9590   19.3620  -30.9670 O   0  0  0  0  0  0  0  0  0  0  0  0
   -7.4750   19.8870  -33.0920 N   0  0  0  0  0  0  0  0  0  0  0  0
   -6.7550   21.1840  -33.0510 C   0  0  0  0  0  0  0  0  0  0  0  0
   -7.3470   22.1640  -32.0130 C   0  0  0  0  0  0  0  0  0  0  0  0
   -7.9310   21.4600  -30.9420 O   0  0  0  0  0  0  0  0  0  0  0  0
   -9.0890   20.7660  -31.3800 C   0  0  0  0  0  0  0  0  0  0  0  0
   -8.9010   20.0440  -32.7360 C   0  0  0  0  0  0  0  0  0  0  0  0
   -4.1300   18.1460  -33.0040 C   0  0  0  0  0  0  0  0  0  0  0  0
   -1.5740   20.4420  -30.5750 C   0  0  0  0  0  0  0  0  0  0  0  0
   -2.2750   21.5770  -30.1580 C   0  0  0  0  0  0  0  0  0  0  0  0
   -0.1823   26.5237  -27.0907 H   0  0  0  0  0  0  0  0  0  0  0  0
   -0.6017   24.1826  -25.9827 H   0  0  0  0  0  0  0  0  0  0  0  0
   -3.7145   22.4555  -33.1345 H   0  0  0  0  0  0  0  0  0  0  0  0
   -2.4467   20.4395  -33.8833 H   0  0  0  0  0  0  0  0  0  0  0  0
   -2.8670   15.8718  -35.2263 H   0  0  0  0  0  0  0  0  0  0  0  0
   -5.2616   15.1646  -35.2519 H   0  0  0  0  0  0  0  0  0  0  0  0
   -7.4350   19.5270  -34.0760 H   0  0  0  0  0  0  0  0  0  0  0  0
   -5.7023   20.9939  -32.7946 H   0  0  0  0  0  0  0  0  0  0  0  0
   -6.8553   21.6504  -34.0422 H   0  0  0  0  0  0  0  0  0  0  0  0
   -6.5443   22.8092  -31.6264 H   0  0  0  0  0  0  0  0  0  0  0  0
   -8.1224   22.7720  -32.5019 H   0  0  0  0  0  0  0  0  0  0  0  0
   -9.3535   20.0160  -30.6201 H   0  0  0  0  0  0  0  0  0  0  0  0
   -9.8815   21.5158  -31.5202 H   0  0  0  0  0  0  0  0  0  0  0  0
   -9.3623   19.0474  -32.6736 H   0  0  0  0  0  0  0  0  0  0  0  0
   -9.3778   20.6579  -33.5144 H   0  0  0  0  0  0  0  0  0  0  0  0
   -3.8075   18.9743  -32.3560 H   0  0  0  0  0  0  0  0  0  0  0  0
   -0.9361   19.9000  -29.8613 H   0  0  0  0  0  0  0  0  0  0  0  0
   -2.1935   21.9204  -29.1162 H   0  0  0  0  0  0  0  0  0  0  0  0
  1  2  2  0
  2  3  2  0
  2  4  1  0
  4  5  2  3
  5  6  1  0
  6  7  1  0
  7  8  2  0
  8  9  1  0
  2 10  1  0
 10 11  2  0
 11 12  1  0
 12 13  2  0
 13 14  1  0
 14 15  1  0
 15 16  2  0
 15 17  2  0
 15 18  1  0
 18 19  2  0
 19 20  1  0
 20 21  2  0
 21 22  1  0
 21 23  1  0
 23 24  1  0
 24 25  2  0
 24 26  2  0
 24 27  1  0
 27 28  1  0
 28 29  1  0
 29 30  1  0
 30 31  1  0
 31 32  1  0
 23 33  2  0
 13 34  1  0
 34 35  2  0
  9  5  1  0
 35 10  1  0
 33 18  1  0
 32 27  1  0
  7 36  1  0
  8 37  1  0
 11 38  1  0
 12 39  1  0
 19 40  1  0
 20 41  1  0
 27 42  1  0
 28 43  1  0
 28 44  1  0
 29 45  1  0
 29 46  1  0
 31 47  1  0
 31 48  1  0
 32 49  1  0
 32 50  1  0
 33 51  1  0
 34 52  1  0
 35 53  1  0
M  CHG  3   6  -1  14  -1  27   1
M  END
>  <UniqueID>  (28) 
26

>  <SMILES>  (28) 
O=S(=O)(N=c1[n-]ccs1)c1ccc([N-]S(=O)(=O)c2ccc(F)c(S(=O)(=O)[NH+]3CCOCC3)c2)cc1

>  <Energy>  (28) 
102.44446346482702

>  <Genealogy>  (28) 
O=S(=O)(N=c1[n-]ccs1)c1ccc([N-]S(=O)(=O)c2ccc(F)c(S(=O)(=O)[NH+]3CCOCC3)c2)cc1 (protonated)
O=S(=O)(N=c1[n-]ccs1)c1ccc([N-]S(=O)(=O)c2ccc(F)c(S(=O)(=O)[NH+]3CCOCC3)c2)cc1 (3D coordinates assigned)
O=S(=O)(N=c1[n-]ccs1)c1ccc([N-]S(=O)(=O)c2ccc(F)c(S(=O)(=O)[NH+]3CCOCC3)c2)cc1 (nonaromatic ring conformer: 102.44446346482702 kcal/mol)

>  <smiles>  (28) 
O=S(=O)(N=c1[nH]ccs1)c1ccc(NS(=O)(=O)c2ccc(F)c(S(=O)(=O)N3CCOCC3)c2)cc1

>  <score_type>  (28) 
oracle

>  <origin>  (28) 
adgpu

>  <m_score__min__energy>  (28) 
-11.529999999999999

>  <m_primary>  (28) 
energy

$$$$
28:0
     RDKit          3D

 51 54  0  0  0  0  0  0  0  0999 V2000
   -4.1930   25.5240  -30.8860 O   0  0  0  0  0  0  0  0  0  0  0  0
   -3.8690   24.4840  -30.2510 C   0  0  0  0  0  0  0  0  0  0  0  0
   -3.6930   24.5400  -28.8290 N   0  0  0  0  0  0  0  0  0  0  0  0
   -2.4660   24.2930  -28.1300 C   0  0  0  0  0  0  0  0  0  0  0  0
   -2.4110   23.2160  -27.2340 C   0  0  0  0  0  0  0  0  0  0  0  0
   -1.2320   22.9330  -26.5390 C   0  0  0  0  0  0  0  0  0  0  0  0
   -0.0920   23.7120  -26.7480 C   0  0  0  0  0  0  0  0  0  0  0  0
   -0.1260   24.7660  -27.6640 C   0  0  0  0  0  0  0  0  0  0  0  0
   -1.3000   25.0520  -28.3690 C   0  0  0  0  0  0  0  0  0  0  0  0
   -1.2870   26.0610  -29.3250 O   0  0  0  0  0  0  0  0  0  0  0  0
   -3.7170   23.1960  -30.9680 C   0  0  0  0  0  0  0  0  0  0  0  0
   -4.4040   22.9650  -32.1750 C   0  0  0  0  0  0  0  0  0  0  0  0
   -4.2600   21.7500  -32.8520 C   0  0  0  0  0  0  0  0  0  0  0  0
   -3.4250   20.7500  -32.3380 C   0  0  0  0  0  0  0  0  0  0  0  0
   -3.2710   19.2100  -33.1720 S   0  0  0  0  0  0  0  0  0  0  0  0
   -2.2510   18.3510  -32.4780 O   0  0  0  0  0  0  0  0  0  0  0  0
   -2.8080   19.4340  -34.5850 O   0  0  0  0  0  0  0  0  0  0  0  0
   -4.8340   18.4030  -33.1700 C   0  0  0  0  0  0  0  0  0  0  0  0
   -4.9590   17.1020  -33.6770 C   0  0  0  0  0  0  0  0  0  0  0  0
   -6.2070   16.4740  -33.6950 C   0  0  0  0  0  0  0  0  0  0  0  0
   -7.3360   17.1430  -33.2160 C   0  0  0  0  0  0  0  0  0  0  0  0
   -7.2230   18.4500  -32.7230 C   0  0  0  0  0  0  0  0  0  0  0  0
   -8.6460   19.2850  -32.1120 S   0  0  0  0  0  0  0  0  0  0  0  0
   -9.7390   19.2760  -33.1450 O   0  0  0  0  0  0  0  0  0  0  0  0
   -9.1570   18.5800  -30.8860 O   0  0  0  0  0  0  0  0  0  0  0  0
   -8.2150   20.9460  -31.7240 C   0  0  0  0  0  0  0  0  0  0  0  0
   -7.1340   21.2200  -30.8720 C   0  0  0  0  0  0  0  0  0  0  0  0
   -6.7880   22.5420  -30.5800 C   0  0  0  0  0  0  0  0  0  0  0  0
   -7.5130   23.5970  -31.1420 C   0  0  0  0  0  0  0  0  0  0  0  0
   -8.5860   23.3300  -31.9990 C   0  0  0  0  0  0  0  0  0  0  0  0
   -8.9340   22.0070  -32.2930 C   0  0  0  0  0  0  0  0  0  0  0  0
   -5.9690   19.0760  -32.6960 C   0  0  0  0  0  0  0  0  0  0  0  0
   -2.7460   20.9690  -31.1340 C   0  0  0  0  0  0  0  0  0  0  0  0
   -2.8860   22.1820  -30.4550 C   0  0  0  0  0  0  0  0  0  0  0  0
   -3.3016   22.5897  -27.0770 H   0  0  0  0  0  0  0  0  0  0  0  0
   -1.2020   22.0955  -25.8264 H   0  0  0  0  0  0  0  0  0  0  0  0
    0.8320   23.4958  -26.1917 H   0  0  0  0  0  0  0  0  0  0  0  0
    0.7750   25.3743  -27.8319 H   0  0  0  0  0  0  0  0  0  0  0  0
   -5.0589   23.7461  -32.5885 H   0  0  0  0  0  0  0  0  0  0  0  0
   -4.8048   21.5789  -33.7922 H   0  0  0  0  0  0  0  0  0  0  0  0
   -4.0733   16.5748  -34.0612 H   0  0  0  0  0  0  0  0  0  0  0  0
   -6.3008   15.4506  -34.0872 H   0  0  0  0  0  0  0  0  0  0  0  0
   -8.3157   16.6429  -33.2258 H   0  0  0  0  0  0  0  0  0  0  0  0
   -6.5577   20.3922  -30.4330 H   0  0  0  0  0  0  0  0  0  0  0  0
   -5.9439   22.7529  -29.9069 H   0  0  0  0  0  0  0  0  0  0  0  0
   -7.2397   24.6370  -30.9103 H   0  0  0  0  0  0  0  0  0  0  0  0
   -9.1561   24.1601  -32.4417 H   0  0  0  0  0  0  0  0  0  0  0  0
   -9.7738   21.7987  -32.9722 H   0  0  0  0  0  0  0  0  0  0  0  0
   -5.8752   20.0986  -32.3016 H   0  0  0  0  0  0  0  0  0  0  0  0
   -2.0986   20.1819  -30.7200 H   0  0  0  0  0  0  0  0  0  0  0  0
   -2.3429   22.3459  -29.5126 H   0  0  0  0  0  0  0  0  0  0  0  0
  1  2  2  0
  2  3  1  0
  3  4  1  0
  4  5  2  0
  5  6  1  0
  6  7  2  0
  7  8  1  0
  8  9  2  0
  9 10  1  0
  2 11  1  0
 11 12  2  0
 12 13  1  0
 13 14  2  0
 14 15  1  0
 15 16  2  0
 15 17  2  0
 15 18  1  0
 18 19  2  0
 19 20  1  0
 20 21  2  0
 21 22  1  0
 22 23  1  0
 23 24  2  0
 23 25  2  0
 23 26  1  0
 26 27  2  0
 27 28  1  0
 28 29  2  0
 29 30  1  0
 30 31  2  0
 22 32  2  0
 14 33  1  0
 33 34  2  0
  9  4  1  0
 34 11  1  0
 32 18  1  0
 31 26  1  0
  5 35  1  0
  6 36  1  0
  7 37  1  0
  8 38  1  0
 12 39  1  0
 13 40  1  0
 19 41  1  0
 20 42  1  0
 21 43  1  0
 27 44  1  0
 28 45  1  0
 29 46  1  0
 30 47  1  0
 31 48  1  0
 32 49  1  0
 33 50  1  0
 34 51  1  0
M  CHG  2   3  -1  10  -1
M  END
>  <UniqueID>  (29) 
27

>  <SMILES>  (29) 
O=C([N-]c1ccccc1[O-])c1ccc(S(=O)(=O)c2cccc(S(=O)(=O)c3ccccc3)c2)cc1

>  <Energy>  (29) 
66.30154814492587

>  <Genealogy>  (29) 
O=C([N-]c1ccccc1[O-])c1ccc(S(=O)(=O)c2cccc(S(=O)(=O)c3ccccc3)c2)cc1 (protonated)
O=C([N-]c1ccccc1[O-])c1ccc(S(=O)(=O)c2cccc(S(=O)(=O)c3ccccc3)c2)cc1 (3D coordinates assigned)
O=C([N-]c1ccccc1[O-])c1ccc(S(=O)(=O)c2cccc(S(=O)(=O)c3ccccc3)c2)cc1 (optimized conformer: 66.30154814492587 kcal/mol)

>  <smiles>  (29) 
O=C(Nc1ccccc1O)c1ccc(S(=O)(=O)c2cccc(S(=O)(=O)c3ccccc3)c2)cc1

>  <score_type>  (29) 
oracle

>  <origin>  (29) 
adgpu

>  <m_score__min__energy>  (29) 
-16.07

>  <m_primary>  (29) 
energy

$$$$
29:0
     RDKit          3D

 61 65  0  0  0  0  0  0  0  0999 V2000
   -3.9620   15.4330  -34.6700 O   0  0  0  0  0  0  0  0  0  0  0  0
   -3.8280   16.5530  -34.1010 C   0  0  0  0  0  0  0  0  0  0  0  0
   -2.5200   17.0180  -33.7400 N   0  0  0  0  0  0  0  0  0  0  0  0
   -1.9320   18.2570  -34.2330 C   0  0  0  0  0  0  0  0  0  0  0  0
   -2.2920   19.4010  -33.3270 C   0  0  0  0  0  0  0  0  0  0  0  0
   -1.8210   19.4410  -32.0020 C   0  0  0  0  0  0  0  0  0  0  0  0
   -2.1400   20.5240  -31.1750 C   0  0  0  0  0  0  0  0  0  0  0  0
   -2.9220   21.5740  -31.6660 C   0  0  0  0  0  0  0  0  0  0  0  0
   -3.3880   21.5460  -32.9840 C   0  0  0  0  0  0  0  0  0  0  0  0
   -3.0660   20.4680  -33.8170 C   0  0  0  0  0  0  0  0  0  0  0  0
   -5.0220   17.3650  -33.7720 C   0  0  0  0  0  0  0  0  0  0  0  0
   -5.8140   17.0540  -32.6540 C   0  0  0  0  0  0  0  0  0  0  0  0
   -6.9160   17.8440  -32.3200 C   0  0  0  0  0  0  0  0  0  0  0  0
   -7.2560   18.9580  -33.1000 C   0  0  0  0  0  0  0  0  0  0  0  0
   -8.3910   19.8550  -32.6610 C   0  0  0  0  0  0  0  0  0  0  0  0
   -7.9010   21.0510  -31.9780 N   0  0  0  0  0  0  0  0  0  0  0  0
   -6.7240   21.1840  -31.3420 C   0  0  0  0  0  0  0  0  0  0  0  0
   -6.6600   22.5000  -30.9270 C   0  0  0  0  0  0  0  0  0  0  0  0
   -5.5510   23.1700  -30.2070 C   0  0  0  0  0  0  0  0  0  0  0  0
   -5.1300   22.6870  -28.9550 C   0  0  0  0  0  0  0  0  0  0  0  0
   -4.0920   23.3170  -28.2630 C   0  0  0  0  0  0  0  0  0  0  0  0
   -3.4740   24.4570  -28.7950 C   0  0  0  0  0  0  0  0  0  0  0  0
   -2.4000   25.0800  -28.0720 N   0  0  0  0  0  0  0  0  0  0  0  0
   -2.4850   25.4460  -26.6850 C   0  0  0  0  0  0  0  0  0  0  0  0
   -3.5640   25.2750  -26.0510 O   0  0  0  0  0  0  0  0  0  0  0  0
   -1.3270   26.0420  -25.9790 C   0  0  0  0  0  0  0  0  0  0  0  0
   -1.1540   25.7940  -24.6030 C   0  0  0  0  0  0  0  0  0  0  0  0
   -0.0750   26.3510  -23.9130 C   0  0  0  0  0  0  0  0  0  0  0  0
    0.8480   27.1530  -24.5880 C   0  0  0  0  0  0  0  0  0  0  0  0
    0.7020   27.3880  -25.9600 C   0  0  0  0  0  0  0  0  0  0  0  0
   -0.3760   26.8310  -26.6580 C   0  0  0  0  0  0  0  0  0  0  0  0
   -0.4480   27.0220  -28.0010 F   0  0  0  0  0  0  0  0  0  0  0  0
   -3.8700   24.9250  -30.0570 C   0  0  0  0  0  0  0  0  0  0  0  0
   -4.9000   24.2900  -30.7540 C   0  0  0  0  0  0  0  0  0  0  0  0
   -7.7950   23.1180  -31.3210 N   0  0  0  0  0  0  0  0  0  0  0  0
   -8.5280   22.2150  -31.9590 N   0  0  0  0  0  0  0  0  0  0  0  0
   -6.4540   19.2860  -34.2080 C   0  0  0  0  0  0  0  0  0  0  0  0
   -5.3590   18.4880  -34.5490 C   0  0  0  0  0  0  0  0  0  0  0  0
   -0.8376   18.1512  -34.2668 H   0  0  0  0  0  0  0  0  0  0  0  0
   -2.3217   18.4621  -35.2410 H   0  0  0  0  0  0  0  0  0  0  0  0
   -1.2006   18.6192  -31.6151 H   0  0  0  0  0  0  0  0  0  0  0  0
   -1.7751   20.5492  -30.1376 H   0  0  0  0  0  0  0  0  0  0  0  0
   -3.1712   22.4241  -31.0139 H   0  0  0  0  0  0  0  0  0  0  0  0
   -4.0074   22.3708  -33.3662 H   0  0  0  0  0  0  0  0  0  0  0  0
   -3.4197   20.4555  -34.8585 H   0  0  0  0  0  0  0  0  0  0  0  0
   -5.5635   16.1795  -32.0356 H   0  0  0  0  0  0  0  0  0  0  0  0
   -7.5221   17.5901  -31.4378 H   0  0  0  0  0  0  0  0  0  0  0  0
   -8.9668   20.1610  -33.5469 H   0  0  0  0  0  0  0  0  0  0  0  0
   -9.0210   19.2916  -31.9570 H   0  0  0  0  0  0  0  0  0  0  0  0
   -5.9656   20.4031  -31.1841 H   0  0  0  0  0  0  0  0  0  0  0  0
   -5.6218   21.8060  -28.5168 H   0  0  0  0  0  0  0  0  0  0  0  0
   -3.7579   22.9157  -27.2948 H   0  0  0  0  0  0  0  0  0  0  0  0
   -1.5120   25.2490  -28.5920 H   0  0  0  0  0  0  0  0  0  0  0  0
   -1.8740   25.1571  -24.0682 H   0  0  0  0  0  0  0  0  0  0  0  0
    0.0480   26.1579  -22.8371 H   0  0  0  0  0  0  0  0  0  0  0  0
    1.6907   27.6005  -24.0406 H   0  0  0  0  0  0  0  0  0  0  0  0
    1.4361   28.0118  -26.4910 H   0  0  0  0  0  0  0  0  0  0  0  0
   -3.3663   25.7969  -30.4998 H   0  0  0  0  0  0  0  0  0  0  0  0
   -5.2050   24.6695  -31.7404 H   0  0  0  0  0  0  0  0  0  0  0  0
   -6.6903   20.1761  -34.8096 H   0  0  0  0  0  0  0  0  0  0  0  0
   -4.7550   18.7402  -35.4331 H   0  0  0  0  0  0  0  0  0  0  0  0
  1  2  2  0
  2  3  1  0
  3  4  1  0
  4  5  1  0
  5  6  2  0
  6  7  1  0
  7  8  2  0
  8  9  1  0
  9 10  2  0
  2 11  1  0
 11 12  2  0
 12 13  1  0
 13 14  2  0
 14 15  1  0
 15 16  1  0
 16 17  1  0
 17 18  2  0
 18 19  1  0
 19 20  2  0
 20 21  1  0
 21 22  2  0
 22 23  1  0
 23 24  1  0
 24 25  2  0
 24 26  1  0
 26 27  2  0
 27 28  1  0
 28 29  2  0
 29 30  1  0
 30 31  2  0
 31 32  1  0
 22 33  1  0
 33 34  2  0
 18 35  1  0
 35 36  2  0
 14 37  1  0
 37 38  2  0
 10  5  1  0
 38 11  1  0
 36 16  1  0
 34 19  1  0
 31 26  1  0
  4 39  1  0
  4 40  1  0
  6 41  1  0
  7 42  1  0
  8 43  1  0
  9 44  1  0
 10 45  1  0
 12 46  1  0
 13 47  1  0
 15 48  1  0
 15 49  1  0
 17 50  1  0
 20 51  1  0
 21 52  1  0
 23 53  1  0
 27 54  1  0
 28 55  1  0
 29 56  1  0
 30 57  1  0
 33 58  1  0
 34 59  1  0
 37 60  1  0
 38 61  1  0
M  CHG  1   3  -1
M  END
>  <UniqueID>  (30) 
28

>  <SMILES>  (30) 
O=C([N-]Cc1ccccc1)c1ccc(Cn2cc(-c3ccc(NC(=O)c4ccccc4F)cc3)nn2)cc1

>  <Energy>  (30) 
111.73186785550826

>  <Genealogy>  (30) 
O=C([N-]Cc1ccccc1)c1ccc(Cn2cc(-c3ccc(NC(=O)c4ccccc4F)cc3)nn2)cc1 (protonated)
O=C([N-]Cc1ccccc1)c1ccc(Cn2cc(-c3ccc(NC(=O)c4ccccc4F)cc3)nn2)cc1 (3D coordinates assigned)
O=C([N-]Cc1ccccc1)c1ccc(Cn2cc(-c3ccc(NC(=O)c4ccccc4F)cc3)nn2)cc1 (optimized conformer: 111.73186785550826 kcal/mol)

>  <smiles>  (30) 
O=C(NCc1ccccc1)c1ccc(Cn2cc(-c3ccc(NC(=O)c4ccccc4F)cc3)nn2)cc1

>  <score_type>  (30) 
oracle

>  <origin>  (30) 
adgpu

>  <m_score__min__energy>  (30) 
-11.699999999999999

>  <m_primary>  (30) 
energy

$$$$
30:0
     RDKit          3D

 28 29  0  0  0  0  0  0  0  0999 V2000
   -8.7090   19.8370  -32.3020 C   0  0  0  0  0  0  0  0  0  0  0  0
   -7.3910   20.5370  -32.2710 C   0  0  0  0  0  0  0  0  0  0  0  0
   -6.2310   20.1000  -32.8800 C   0  0  0  0  0  0  0  0  0  0  0  0
   -5.3210   21.1090  -32.6330 C   0  0  0  0  0  0  0  0  0  0  0  0
   -3.8950   21.1160  -33.0890 C   0  0  0  0  0  0  0  0  0  0  0  0
   -5.9320   22.0860  -31.9250 N   0  0  0  0  0  0  0  0  0  0  0  0
   -5.3500   23.3040  -31.4270 C   0  0  0  0  0  0  0  0  0  0  0  0
   -5.6640   24.4100  -31.9460 O   0  0  0  0  0  0  0  0  0  0  0  0
   -4.3410   23.2820  -30.3440 C   0  0  0  0  0  0  0  0  0  0  0  0
   -4.0460   22.0670  -29.7010 C   0  0  0  0  0  0  0  0  0  0  0  0
   -3.1010   22.0210  -28.6700 C   0  0  0  0  0  0  0  0  0  0  0  0
   -2.7560   20.5010  -27.8660 Cl  0  0  0  0  0  0  0  0  0  0  0  0
   -2.4380   23.1850  -28.2790 C   0  0  0  0  0  0  0  0  0  0  0  0
   -2.7070   24.3950  -28.9230 C   0  0  0  0  0  0  0  0  0  0  0  0
   -3.6470   24.4500  -29.9630 C   0  0  0  0  0  0  0  0  0  0  0  0
   -3.8710   25.6540  -30.6310 O   0  0  0  0  0  0  0  0  0  0  0  0
   -7.1930   21.7430  -31.7070 N   0  0  0  0  0  0  0  0  0  0  0  0
   -9.0518   19.6549  -31.2727 H   0  0  0  0  0  0  0  0  0  0  0  0
   -9.4445   20.4633  -32.8280 H   0  0  0  0  0  0  0  0  0  0  0  0
   -8.6020   18.8769  -32.8280 H   0  0  0  0  0  0  0  0  0  0  0  0
   -6.0692   19.1637  -33.4342 H   0  0  0  0  0  0  0  0  0  0  0  0
   -3.2299   21.1193  -32.2129 H   0  0  0  0  0  0  0  0  0  0  0  0
   -3.6993   20.2188  -33.6946 H   0  0  0  0  0  0  0  0  0  0  0  0
   -3.7081   22.0151  -33.6946 H   0  0  0  0  0  0  0  0  0  0  0  0
   -4.5617   21.1460  -30.0106 H   0  0  0  0  0  0  0  0  0  0  0  0
   -1.7022   23.1496  -27.4621 H   0  0  0  0  0  0  0  0  0  0  0  0
   -2.1793   25.3091  -28.6132 H   0  0  0  0  0  0  0  0  0  0  0  0
   -4.1820   25.6770  -31.5960 H   0  0  0  0  0  0  0  0  0  0  0  0
  1  2  1  0
  2  3  1  0
  3  4  2  0
  4  5  1  0
  4  6  1  0
  6  7  1  0
  7  8  2  0
  7  9  1  0
  9 10  2  0
 10 11  1  0
 11 12  1  0
 11 13  2  0
 13 14  1  0
 14 15  2  0
 15 16  1  0
  6 17  1  0
 17  2  2  0
 15  9  1  0
  1 18  1  0
  1 19  1  0
  1 20  1  0
  3 21  1  0
  5 22  1  0
  5 23  1  0
  5 24  1  0
 10 25  1  0
 13 26  1  0
 14 27  1  0
 16 28  1  0
M  END
>  <UniqueID>  (31) 
29

>  <SMILES>  (31) 
Cc1cc(C)n(C(=O)c2cc(Cl)ccc2O)n1

>  <Energy>  (31) 
62.00078108041883

>  <Genealogy>  (31) 
Cc1cc(C)n(C(=O)c2cc(Cl)ccc2O)n1 (3D coordinates assigned)
Cc1cc(C)n(C(=O)c2cc(Cl)ccc2O)n1 (optimized conformer: 62.00078108041883 kcal/mol)

>  <smiles>  (31) 
Cc1cc(C)n(C(=O)c2cc(Cl)ccc2O)n1

>  <score_type>  (31) 
oracle

>  <origin>  (31) 
adgpu

>  <m_score__min__energy>  (31) 
-7.8099999999999996

>  <m_primary>  (31) 
energy

$$$$
31:0
     RDKit          3D

 48 51  0  0  0  0  0  0  0  0999 V2000
    1.0390   16.5170  -27.6550 C   0  0  0  0  0  0  0  0  0  0  0  0
    0.2600   17.7860  -27.8320 C   0  0  0  0  0  0  0  0  0  0  0  0
   -0.8900   18.0310  -27.0660 C   0  0  0  0  0  0  0  0  0  0  0  0
   -1.5920   19.2310  -27.2100 C   0  0  0  0  0  0  0  0  0  0  0  0
   -1.1470   20.2140  -28.1130 C   0  0  0  0  0  0  0  0  0  0  0  0
   -1.8540   21.5090  -28.2490 C   0  0  0  0  0  0  0  0  0  0  0  0
   -1.3690   22.6660  -28.8380 C   0  0  0  0  0  0  0  0  0  0  0  0
   -2.4430   23.5290  -28.7860 C   0  0  0  0  0  0  0  0  0  0  0  0
   -2.4960   24.8930  -29.3360 C   0  0  0  0  0  0  0  0  0  0  0  0
   -1.6560   25.7480  -28.9500 O   0  0  0  0  0  0  0  0  0  0  0  0
   -3.5030   25.2830  -30.2800 N   0  0  0  0  0  0  0  0  0  0  0  0
   -4.7610   24.6210  -30.4910 C   0  0  0  0  0  0  0  0  0  0  0  0
   -5.9300   25.2030  -29.9890 C   0  0  0  0  0  0  0  0  0  0  0  0
   -7.1630   24.5720  -30.1680 C   0  0  0  0  0  0  0  0  0  0  0  0
   -7.2410   23.3550  -30.8520 C   0  0  0  0  0  0  0  0  0  0  0  0
   -6.0800   22.7690  -31.3890 C   0  0  0  0  0  0  0  0  0  0  0  0
   -6.1170   21.4490  -32.0640 C   0  0  0  0  0  0  0  0  0  0  0  0
   -5.0630   20.9890  -32.8680 C   0  0  0  0  0  0  0  0  0  0  0  0
   -5.1570   19.7720  -33.4640 N   0  0  0  0  0  0  0  0  0  0  0  0
   -6.2500   18.9790  -33.3060 C   0  0  0  0  0  0  0  0  0  0  0  0
   -6.2900   17.6470  -33.9940 C   0  0  0  0  0  0  0  0  0  0  0  0
   -7.3110   19.4330  -32.4980 C   0  0  0  0  0  0  0  0  0  0  0  0
   -8.5480   18.6140  -32.2650 C   0  0  0  0  0  0  0  0  0  0  0  0
   -7.2060   20.6500  -31.9000 N   0  0  0  0  0  0  0  0  0  0  0  0
   -4.8510   23.4270  -31.2280 C   0  0  0  0  0  0  0  0  0  0  0  0
   -3.4480   22.9230  -28.1970 O   0  0  0  0  0  0  0  0  0  0  0  0
   -3.1310   21.7080  -27.8630 N   0  0  0  0  0  0  0  0  0  0  0  0
    0.0130   19.9690  -28.8690 C   0  0  0  0  0  0  0  0  0  0  0  0
    0.7130   18.7670  -28.7260 C   0  0  0  0  0  0  0  0  0  0  0  0
    1.1654   16.3110  -26.5819 H   0  0  0  0  0  0  0  0  0  0  0  0
    0.4961   15.6847  -28.1266 H   0  0  0  0  0  0  0  0  0  0  0  0
    2.0269   16.6244  -28.1266 H   0  0  0  0  0  0  0  0  0  0  0  0
   -1.2408   17.2746  -26.3485 H   0  0  0  0  0  0  0  0  0  0  0  0
   -2.4988   19.4082  -26.6131 H   0  0  0  0  0  0  0  0  0  0  0  0
   -0.3658   22.8516  -29.2492 H   0  0  0  0  0  0  0  0  0  0  0  0
   -5.8778   26.1612  -29.4513 H   0  0  0  0  0  0  0  0  0  0  0  0
   -8.0776   25.0349  -29.7688 H   0  0  0  0  0  0  0  0  0  0  0  0
   -8.2131   22.8541  -30.9707 H   0  0  0  0  0  0  0  0  0  0  0  0
   -4.1668   21.6097  -33.0146 H   0  0  0  0  0  0  0  0  0  0  0  0
   -6.3141   16.8458  -33.2407 H   0  0  0  0  0  0  0  0  0  0  0  0
   -7.1904   17.5861  -34.6230 H   0  0  0  0  0  0  0  0  0  0  0  0
   -5.3949   17.5322  -34.6230 H   0  0  0  0  0  0  0  0  0  0  0  0
   -8.7159   18.5029  -31.1836 H   0  0  0  0  0  0  0  0  0  0  0  0
   -9.4129   19.1185  -32.7204 H   0  0  0  0  0  0  0  0  0  0  0  0
   -8.4213   17.6207  -32.7204 H   0  0  0  0  0  0  0  0  0  0  0  0
   -3.9449   23.0025  -31.6850 H   0  0  0  0  0  0  0  0  0  0  0  0
    0.3726   20.7288  -29.5784 H   0  0  0  0  0  0  0  0  0  0  0  0
    1.6234   18.5900  -29.3176 H   0  0  0  0  0  0  0  0  0  0  0  0
  1  2  1  0
  2  3  2  0
  3  4  1  0
  4  5  2  0
  5  6  1  0
  6  7  1  0
  7  8  2  0
  8  9  1  0
  9 10  2  0
  9 11  1  0
 11 12  1  0
 12 13  2  0
 13 14  1  0
 14 15  2  0
 15 16  1  0
 16 17  1  0
 17 18  2  0
 18 19  1  0
 19 20  2  0
 20 21  1  0
 20 22  1  0
 22 23  1  0
 22 24  2  0
 16 25  2  0
  8 26  1  0
 26 27  1  0
  5 28  1  0
 28 29  2  0
 29  2  1  0
 27  6  2  0
 25 12  1  0
 24 17  1  0
  1 30  1  0
  1 31  1  0
  1 32  1  0
  3 33  1  0
  4 34  1  0
  7 35  1  0
 13 36  1  0
 14 37  1  0
 15 38  1  0
 18 39  1  0
 21 40  1  0
 21 41  1  0
 21 42  1  0
 23 43  1  0
 23 44  1  0
 23 45  1  0
 25 46  1  0
 28 47  1  0
 29 48  1  0
M  CHG  1  11  -1
M  END
>  <UniqueID>  (32) 
30

>  <SMILES>  (32) 
Cc1ccc(-c2cc(C(=O)[N-]c3cccc(-c4cnc(C)c(C)n4)c3)on2)cc1

>  <Energy>  (32) 
91.00888517814066

>  <Genealogy>  (32) 
Cc1ccc(-c2cc(C(=O)[N-]c3cccc(-c4cnc(C)c(C)n4)c3)on2)cc1 (protonated)
Cc1ccc(-c2cc(C(=O)[N-]c3cccc(-c4cnc(C)c(C)n4)c3)on2)cc1 (3D coordinates assigned)
Cc1ccc(-c2cc(C(=O)[N-]c3cccc(-c4cnc(C)c(C)n4)c3)on2)cc1 (optimized conformer: 91.00888517814066 kcal/mol)

>  <smiles>  (32) 
Cc1ccc(-c2cc(C(=O)Nc3cccc(-c4cnc(C)c(C)n4)c3)on2)cc1

>  <score_type>  (32) 
oracle

>  <origin>  (32) 
adgpu

>  <m_score__min__energy>  (32) 
-11.550000000000001

>  <m_primary>  (32) 
energy

$$$$
32:0
     RDKit          3D

 64 68  0  0  0  0  0  0  0  0999 V2000
   -3.1990   22.3690  -28.2930 O   0  0  0  0  0  0  0  0  0  0  0  0
   -3.4210   22.6990  -29.4900 C   0  0  0  0  0  0  0  0  0  0  0  0
   -2.3470   22.5600  -30.4310 N   0  0  0  0  0  0  0  0  0  0  0  0
   -2.2200   21.6370  -31.5240 C   0  0  0  0  0  0  0  0  0  0  0  0
   -3.2210   20.6730  -31.6930 C   0  0  0  0  0  0  0  0  0  0  0  0
   -3.1670   19.7770  -32.7620 C   0  0  0  0  0  0  0  0  0  0  0  0
   -2.1080   19.8330  -33.6690 C   0  0  0  0  0  0  0  0  0  0  0  0
   -1.0980   20.7950  -33.5190 C   0  0  0  0  0  0  0  0  0  0  0  0
    0.2880   20.8000  -34.6230 S   0  0  0  0  0  0  0  0  0  0  0  0
    0.6070   22.2230  -34.9980 O   0  0  0  0  0  0  0  0  0  0  0  0
   -0.1060   20.0710  -35.8760 O   0  0  0  0  0  0  0  0  0  0  0  0
    1.7300   20.0840  -33.9370 N   0  0  0  0  0  0  0  0  0  0  0  0
    1.4450   19.4460  -32.6410 C   0  0  0  0  0  0  0  0  0  0  0  0
    2.7500   18.8930  -32.0200 C   0  0  0  0  0  0  0  0  0  0  0  0
    3.8130   18.8050  -32.9570 O   0  0  0  0  0  0  0  0  0  0  0  0
    3.3580   18.2040  -34.1520 C   0  0  0  0  0  0  0  0  0  0  0  0
    2.3590   19.1300  -34.8760 C   0  0  0  0  0  0  0  0  0  0  0  0
   -1.1670   21.7090  -32.4550 C   0  0  0  0  0  0  0  0  0  0  0  0
   -4.7430   23.2840  -29.8410 C   0  0  0  0  0  0  0  0  0  0  0  0
   -4.9420   24.6710  -29.7060 C   0  0  0  0  0  0  0  0  0  0  0  0
   -6.1570   25.2540  -30.0700 C   0  0  0  0  0  0  0  0  0  0  0  0
   -7.1940   24.4640  -30.5610 C   0  0  0  0  0  0  0  0  0  0  0  0
   -7.0260   23.0790  -30.6840 C   0  0  0  0  0  0  0  0  0  0  0  0
   -8.3830   22.0690  -31.1790 S   0  0  0  0  0  0  0  0  0  0  0  0
   -9.0880   22.7270  -32.3330 O   0  0  0  0  0  0  0  0  0  0  0  0
   -9.3590   21.9330  -30.0430 O   0  0  0  0  0  0  0  0  0  0  0  0
   -7.7750   20.5010  -31.6580 N   0  0  0  0  0  0  0  0  0  0  0  0
   -8.8600   19.5060  -31.6220 C   0  0  0  0  0  0  0  0  0  0  0  0
   -8.2880   18.0990  -31.8100 C   0  0  0  0  0  0  0  0  0  0  0  0
   -7.2900   18.0390  -32.9390 C   0  0  0  0  0  0  0  0  0  0  0  0
   -6.8470   16.7900  -33.3990 C   0  0  0  0  0  0  0  0  0  0  0  0
   -5.8740   16.7080  -34.3970 C   0  0  0  0  0  0  0  0  0  0  0  0
   -5.3340   17.8740  -34.9420 C   0  0  0  0  0  0  0  0  0  0  0  0
   -5.7620   19.1260  -34.4900 C   0  0  0  0  0  0  0  0  0  0  0  0
   -6.7250   19.2190  -33.4740 C   0  0  0  0  0  0  0  0  0  0  0  0
   -7.2040   20.5730  -33.0140 C   0  0  0  0  0  0  0  0  0  0  0  0
   -5.7920   22.4970  -30.3550 C   0  0  0  0  0  0  0  0  0  0  0  0
   -4.0558   20.6213  -30.9785 H   0  0  0  0  0  0  0  0  0  0  0  0
   -3.9603   19.0258  -32.8896 H   0  0  0  0  0  0  0  0  0  0  0  0
   -2.0650   19.1197  -34.5053 H   0  0  0  0  0  0  0  0  0  0  0  0
    2.4030   20.8710  -33.7730 H   0  0  0  0  0  0  0  0  0  0  0  0
    1.0043   20.1885  -31.9594 H   0  0  0  0  0  0  0  0  0  0  0  0
    0.7410   18.6152  -32.7967 H   0  0  0  0  0  0  0  0  0  0  0  0
    3.0585   19.5588  -31.2005 H   0  0  0  0  0  0  0  0  0  0  0  0
    2.5398   17.8743  -31.6622 H   0  0  0  0  0  0  0  0  0  0  0  0
    4.2176   18.0129  -34.8112 H   0  0  0  0  0  0  0  0  0  0  0  0
    2.8523   17.2589  -33.9048 H   0  0  0  0  0  0  0  0  0  0  0  0
    2.8933   19.6939  -35.6548 H   0  0  0  0  0  0  0  0  0  0  0  0
    1.5678   18.5072  -35.3188 H   0  0  0  0  0  0  0  0  0  0  0  0
   -0.3944   22.4848  -32.3488 H   0  0  0  0  0  0  0  0  0  0  0  0
   -4.1323   25.3015  -29.3099 H   0  0  0  0  0  0  0  0  0  0  0  0
   -6.2960   26.3405  -29.9688 H   0  0  0  0  0  0  0  0  0  0  0  0
   -8.1472   24.9291  -30.8528 H   0  0  0  0  0  0  0  0  0  0  0  0
   -9.3743   19.5632  -30.6513 H   0  0  0  0  0  0  0  0  0  0  0  0
   -9.5706   19.7179  -32.4345 H   0  0  0  0  0  0  0  0  0  0  0  0
   -7.7894   17.7914  -30.8790 H   0  0  0  0  0  0  0  0  0  0  0  0
   -9.1211   17.4248  -32.0579 H   0  0  0  0  0  0  0  0  0  0  0  0
   -7.2690   15.8690  -32.9705 H   0  0  0  0  0  0  0  0  0  0  0  0
   -5.5331   15.7248  -34.7536 H   0  0  0  0  0  0  0  0  0  0  0  0
   -4.5691   17.8077  -35.7298 H   0  0  0  0  0  0  0  0  0  0  0  0
   -5.3422   20.0413  -34.9326 H   0  0  0  0  0  0  0  0  0  0  0  0
   -6.3547   21.2721  -33.0095 H   0  0  0  0  0  0  0  0  0  0  0  0
   -7.9867   20.9199  -33.7047 H   0  0  0  0  0  0  0  0  0  0  0  0
   -5.6427   21.4168  -30.4998 H   0  0  0  0  0  0  0  0  0  0  0  0
  1  2  2  0
  2  3  1  0
  3  4  1  0
  4  5  2  0
  5  6  1  0
  6  7  2  0
  7  8  1  0
  8  9  1  0
  9 10  2  0
  9 11  2  0
  9 12  1  0
 12 13  1  0
 13 14  1  0
 14 15  1  0
 15 16  1  0
 16 17  1  0
  8 18  2  0
  2 19  1  0
 19 20  2  0
 20 21  1  0
 21 22  2  0
 22 23  1  0
 23 24  1  0
 24 25  2  0
 24 26  2  0
 24 27  1  0
 27 28  1  0
 28 29  1  0
 29 30  1  0
 30 31  2  0
 31 32  1  0
 32 33  2  0
 33 34  1  0
 34 35  2  0
 35 36  1  0
 23 37  2  0
 18  4  1  0
 37 19  1  0
 17 12  1  0
 36 27  1  0
 35 30  1  0
  5 38  1  0
  6 39  1  0
  7 40  1  0
 12 41  1  0
 13 42  1  0
 13 43  1  0
 14 44  1  0
 14 45  1  0
 16 46  1  0
 16 47  1  0
 17 48  1  0
 17 49  1  0
 18 50  1  0
 20 51  1  0
 21 52  1  0
 22 53  1  0
 28 54  1  0
 28 55  1  0
 29 56  1  0
 29 57  1  0
 31 58  1  0
 32 59  1  0
 33 60  1  0
 34 61  1  0
 36 62  1  0
 36 63  1  0
 37 64  1  0
M  CHG  2   3  -1  12   1
M  END
>  <UniqueID>  (33) 
31

>  <SMILES>  (33) 
O=C([N-]c1cccc(S(=O)(=O)[NH+]2CCOCC2)c1)c1cccc(S(=O)(=O)N2CCc3ccccc3C2)c1

>  <Energy>  (33) 
84.22074738377754

>  <Genealogy>  (33) 
O=C([N-]c1cccc(S(=O)(=O)[NH+]2CCOCC2)c1)c1cccc(S(=O)(=O)N2CCc3ccccc3C2)c1 (protonated)
O=C([N-]c1cccc(S(=O)(=O)[NH+]2CCOCC2)c1)c1cccc(S(=O)(=O)N2CCc3ccccc3C2)c1 (3D coordinates assigned)
O=C([N-]c1cccc(S(=O)(=O)[NH+]2CCOCC2)c1)c1cccc(S(=O)(=O)N2CCc3ccccc3C2)c1 (nonaromatic ring conformer: 84.22074738377754 kcal/mol)

>  <smiles>  (33) 
O=C(Nc1cccc(S(=O)(=O)N2CCOCC2)c1)c1cccc(S(=O)(=O)N2CCc3ccccc3C2)c1

>  <score_type>  (33) 
oracle

>  <origin>  (33) 
adgpu

>  <m_score__min__energy>  (33) 
-11.970000000000001

>  <m_primary>  (33) 
energy

$$$$
33:0
     RDKit          3D

 43 44  0  0  0  0  0  0  0  0999 V2000
   -1.5990   20.3930  -26.4430 C   0  0  0  0  0  0  0  0  0  0  0  0
   -1.5040   21.5240  -27.3010 O   0  0  0  0  0  0  0  0  0  0  0  0
   -1.6500   21.4830  -28.6950 C   0  0  0  0  0  0  0  0  0  0  0  0
   -1.3730   20.3190  -29.4420 C   0  0  0  0  0  0  0  0  0  0  0  0
   -1.5290   20.3200  -30.8300 C   0  0  0  0  0  0  0  0  0  0  0  0
   -1.9580   21.4750  -31.4890 C   0  0  0  0  0  0  0  0  0  0  0  0
   -2.2370   22.6330  -30.7580 C   0  0  0  0  0  0  0  0  0  0  0  0
   -2.0860   22.6410  -29.3650 C   0  0  0  0  0  0  0  0  0  0  0  0
   -2.3830   23.8350  -28.6320 N   0  0  0  0  0  0  0  0  0  0  0  0
   -3.7680   24.1650  -28.2940 C   0  0  0  0  0  0  0  0  0  0  0  0
   -4.5230   24.5590  -29.5280 C   0  0  0  0  0  0  0  0  0  0  0  0
   -3.9080   25.1060  -30.4810 O   0  0  0  0  0  0  0  0  0  0  0  0
   -5.9290   24.2900  -29.6330 N   0  0  0  0  0  0  0  0  0  0  0  0
   -6.6580   24.4230  -30.8910 C   0  0  0  0  0  0  0  0  0  0  0  0
   -6.8390   23.0730  -31.5280 C   0  0  0  0  0  0  0  0  0  0  0  0
   -5.7400   22.3620  -32.0310 C   0  0  0  0  0  0  0  0  0  0  0  0
   -5.9250   21.0970  -32.5890 C   0  0  0  0  0  0  0  0  0  0  0  0
   -7.2080   20.5490  -32.6340 C   0  0  0  0  0  0  0  0  0  0  0  0
   -8.2630   21.2440  -32.1350 N   0  0  0  0  0  0  0  0  0  0  0  0
   -8.1090   22.4790  -31.5860 C   0  0  0  0  0  0  0  0  0  0  0  0
   -1.0820   24.9100  -28.2200 S   0  0  0  0  0  0  0  0  0  0  0  0
   -1.1000   25.2220  -26.4700 C   0  0  0  0  0  0  0  0  0  0  0  0
   -1.2340   26.2130  -28.9520 O   0  0  0  0  0  0  0  0  0  0  0  0
    0.2260   24.2830  -28.6090 O   0  0  0  0  0  0  0  0  0  0  0  0
   -1.5711   20.7247  -25.3946 H   0  0  0  0  0  0  0  0  0  0  0  0
   -2.5446   19.8651  -26.6355 H   0  0  0  0  0  0  0  0  0  0  0  0
   -0.7547   19.7147  -26.6355 H   0  0  0  0  0  0  0  0  0  0  0  0
   -1.0329   19.4071  -28.9295 H   0  0  0  0  0  0  0  0  0  0  0  0
   -1.3134   19.4083  -31.4064 H   0  0  0  0  0  0  0  0  0  0  0  0
   -2.0761   21.4728  -32.5826 H   0  0  0  0  0  0  0  0  0  0  0  0
   -2.5762   23.5411  -31.2779 H   0  0  0  0  0  0  0  0  0  0  0  0
   -4.2497   23.2874  -27.8382 H   0  0  0  0  0  0  0  0  0  0  0  0
   -3.7736   25.0069  -27.5860 H   0  0  0  0  0  0  0  0  0  0  0  0
   -6.4560   23.9780  -28.7850 H   0  0  0  0  0  0  0  0  0  0  0  0
   -7.6446   24.8679  -30.6946 H   0  0  0  0  0  0  0  0  0  0  0  0
   -6.0853   25.0691  -31.5726 H   0  0  0  0  0  0  0  0  0  0  0  0
   -4.7326   22.8015  -31.9856 H   0  0  0  0  0  0  0  0  0  0  0  0
   -5.0677   20.5364  -32.9899 H   0  0  0  0  0  0  0  0  0  0  0  0
   -7.3649   19.5532  -33.0741 H   0  0  0  0  0  0  0  0  0  0  0  0
   -8.9830   23.0139  -31.1861 H   0  0  0  0  0  0  0  0  0  0  0  0
   -1.0449   24.2671  -25.9267 H   0  0  0  0  0  0  0  0  0  0  0  0
   -0.2365   25.8477  -26.2002 H   0  0  0  0  0  0  0  0  0  0  0  0
   -2.0298   25.7442  -26.2002 H   0  0  0  0  0  0  0  0  0  0  0  0
  1  2  1  0
  2  3  1  0
  3  4  2  0
  4  5  1  0
  5  6  2  0
  6  7  1  0
  7  8  2  0
  8  9  1  0
  9 10  1  0
 10 11  1  0
 11 12  2  0
 11 13  1  0
 13 14  1  0
 14 15  1  0
 15 16  2  0
 16 17  1  0
 17 18  2  0
 18 19  1  0
 19 20  2  0
  9 21  1  0
 21 22  1  0
 21 23  2  0
 21 24  2  0
  8  3  1  0
 20 15  1  0
  1 25  1  0
  1 26  1  0
  1 27  1  0
  4 28  1  0
  5 29  1  0
  6 30  1  0
  7 31  1  0
 10 32  1  0
 10 33  1  0
 13 34  1  0
 14 35  1  0
 14 36  1  0
 16 37  1  0
 17 38  1  0
 18 39  1  0
 20 40  1  0
 22 41  1  0
 22 42  1  0
 22 43  1  0
M  END
>  <UniqueID>  (34) 
32

>  <SMILES>  (34) 
COc1ccccc1N(CC(=O)NCc1cccnc1)S(C)(=O)=O

>  <Energy>  (34) 
38.07406147151924

>  <Genealogy>  (34) 
COc1ccccc1N(CC(=O)NCc1cccnc1)S(C)(=O)=O (3D coordinates assigned)
COc1ccccc1N(CC(=O)NCc1cccnc1)S(C)(=O)=O (optimized conformer: 38.07406147151924 kcal/mol)

>  <smiles>  (34) 
COc1ccccc1N(CC(=O)NCc1cccnc1)S(C)(=O)=O

>  <score_type>  (34) 
oracle

>  <origin>  (34) 
adgpu

>  <m_score__min__energy>  (34) 
-8.1600000000000001

>  <m_primary>  (34) 
energy

$$$$
34:0
     RDKit          3D

 70 73  0  0  0  0  0  0  0  0999 V2000
   -1.1880   12.0110  -31.1850 C   0  0  0  0  0  0  0  0  0  0  0  0
   -2.4590   12.5800  -31.4810 O   0  0  0  0  0  0  0  0  0  0  0  0
   -2.6530   13.6980  -32.3060 C   0  0  0  0  0  0  0  0  0  0  0  0
   -3.9240   14.0730  -32.7840 C   0  0  0  0  0  0  0  0  0  0  0  0
   -4.0660   15.2020  -33.5960 C   0  0  0  0  0  0  0  0  0  0  0  0
   -2.9440   15.9670  -33.9510 C   0  0  0  0  0  0  0  0  0  0  0  0
   -3.1120   17.2060  -34.7860 C   0  0  0  0  0  0  0  0  0  0  0  0
   -3.8330   18.2230  -34.0260 N   0  0  0  0  0  0  0  0  0  0  0  0
   -5.2550   18.3990  -34.1330 C   0  0  0  0  0  0  0  0  0  0  0  0
   -5.9180   17.6760  -34.9270 O   0  0  0  0  0  0  0  0  0  0  0  0
   -5.9570   19.4490  -33.3520 C   0  0  0  0  0  0  0  0  0  0  0  0
   -7.3410   19.3450  -33.1620 C   0  0  0  0  0  0  0  0  0  0  0  0
   -8.0410   20.2900  -32.4630 N   0  0  0  0  0  0  0  0  0  0  0  0
   -9.4970   20.1160  -32.3320 C   0  0  0  0  0  0  0  0  0  0  0  0
   -7.3930   21.3780  -31.9170 C   0  0  0  0  0  0  0  0  0  0  0  0
   -8.0920   22.3750  -31.1970 C   0  0  0  0  0  0  0  0  0  0  0  0
   -7.4230   23.4770  -30.6640 C   0  0  0  0  0  0  0  0  0  0  0  0
   -6.0430   23.6140  -30.8320 C   0  0  0  0  0  0  0  0  0  0  0  0
   -5.2060   25.0490  -30.2330 S   0  0  0  0  0  0  0  0  0  0  0  0
   -5.4900   25.1880  -28.7630 O   0  0  0  0  0  0  0  0  0  0  0  0
   -5.7310   26.2740  -30.9290 O   0  0  0  0  0  0  0  0  0  0  0  0
   -3.4790   24.9650  -30.4650 N   0  0  0  0  0  0  0  0  0  0  0  0
   -2.7730   24.4820  -29.2750 C   0  0  0  0  0  0  0  0  0  0  0  0
   -3.1970   23.0560  -28.9040 C   0  0  0  0  0  0  0  0  0  0  0  0
   -2.2180   22.0580  -29.4650 C   0  0  0  0  0  0  0  0  0  0  0  0
   -1.0620   21.7270  -28.7440 C   0  0  0  0  0  0  0  0  0  0  0  0
   -0.1310   20.8340  -29.2750 C   0  0  0  0  0  0  0  0  0  0  0  0
   -0.3360   20.2610  -30.5440 C   0  0  0  0  0  0  0  0  0  0  0  0
    0.5780   19.3590  -31.1100 O   0  0  0  0  0  0  0  0  0  0  0  0
    0.3300   17.9680  -31.2940 C   0  0  0  0  0  0  0  0  0  0  0  0
   -1.4850   20.5970  -31.2790 C   0  0  0  0  0  0  0  0  0  0  0  0
   -1.6600   20.0140  -32.5440 O   0  0  0  0  0  0  0  0  0  0  0  0
   -1.1480   20.5520  -33.7590 C   0  0  0  0  0  0  0  0  0  0  0  0
   -2.4200   21.5010  -30.7360 C   0  0  0  0  0  0  0  0  0  0  0  0
   -5.3290   22.6330  -31.5220 C   0  0  0  0  0  0  0  0  0  0  0  0
   -5.9890   21.5150  -32.0720 C   0  0  0  0  0  0  0  0  0  0  0  0
   -5.2750   20.5350  -32.7820 C   0  0  0  0  0  0  0  0  0  0  0  0
   -4.0180   20.6190  -32.8880 O   0  0  0  0  0  0  0  0  0  0  0  0
   -1.6790   15.5960  -33.4700 C   0  0  0  0  0  0  0  0  0  0  0  0
   -1.5380   14.4660  -32.6570 C   0  0  0  0  0  0  0  0  0  0  0  0
   -1.0575   11.9526  -30.0943 H   0  0  0  0  0  0  0  0  0  0  0  0
   -1.1292   11.0007  -31.6160 H   0  0  0  0  0  0  0  0  0  0  0  0
   -0.3953   12.6401  -31.6160 H   0  0  0  0  0  0  0  0  0  0  0  0
   -4.8080   13.4752  -32.5173 H   0  0  0  0  0  0  0  0  0  0  0  0
   -5.0629   15.4926  -33.9589 H   0  0  0  0  0  0  0  0  0  0  0  0
   -2.1216   17.5940  -35.0664 H   0  0  0  0  0  0  0  0  0  0  0  0
   -3.6840   16.9575  -35.6921 H   0  0  0  0  0  0  0  0  0  0  0  0
   -3.2650   18.9420  -33.5230 H   0  0  0  0  0  0  0  0  0  0  0  0
   -7.8777   18.4830  -33.5849 H   0  0  0  0  0  0  0  0  0  0  0  0
   -9.7680   20.0836  -31.2664 H   0  0  0  0  0  0  0  0  0  0  0  0
  -10.0120   20.9590  -32.8159 H   0  0  0  0  0  0  0  0  0  0  0  0
   -9.7989   19.1754  -32.8159 H   0  0  0  0  0  0  0  0  0  0  0  0
   -9.1787   22.2800  -31.0554 H   0  0  0  0  0  0  0  0  0  0  0  0
   -7.9851   24.2421  -30.1085 H   0  0  0  0  0  0  0  0  0  0  0  0
   -1.6911   24.4919  -29.4737 H   0  0  0  0  0  0  0  0  0  0  0  0
   -3.0253   25.1446  -28.4340 H   0  0  0  0  0  0  0  0  0  0  0  0
   -3.2265   22.9594  -27.8086 H   0  0  0  0  0  0  0  0  0  0  0  0
   -4.1931   22.8571  -29.3263 H   0  0  0  0  0  0  0  0  0  0  0  0
   -0.8882   22.1740  -27.7540 H   0  0  0  0  0  0  0  0  0  0  0  0
    0.7693   20.5760  -28.6980 H   0  0  0  0  0  0  0  0  0  0  0  0
    0.2427   17.4782  -30.3129 H   0  0  0  0  0  0  0  0  0  0  0  0
   -0.6063   17.8336  -31.8556 H   0  0  0  0  0  0  0  0  0  0  0  0
    1.1621   17.5183  -31.8556 H   0  0  0  0  0  0  0  0  0  0  0  0
   -0.4062   21.3315  -33.5310 H   0  0  0  0  0  0  0  0  0  0  0  0
   -0.6706   19.7509  -34.3423 H   0  0  0  0  0  0  0  0  0  0  0  0
   -1.9718   20.9892  -34.3423 H   0  0  0  0  0  0  0  0  0  0  0  0
   -3.3158   21.7719  -31.3141 H   0  0  0  0  0  0  0  0  0  0  0  0
   -4.2397   22.7332  -31.6379 H   0  0  0  0  0  0  0  0  0  0  0  0
   -0.7951   16.1957  -33.7330 H   0  0  0  0  0  0  0  0  0  0  0  0
   -0.5413   14.1791  -32.2906 H   0  0  0  0  0  0  0  0  0  0  0  0
  1  2  1  0
  2  3  1  0
  3  4  2  0
  4  5  1  0
  5  6  2  0
  6  7  1  0
  7  8  1  0
  8  9  1  0
  9 10  2  0
  9 11  1  0
 11 12  2  0
 12 13  1  0
 13 14  1  0
 13 15  1  0
 15 16  2  0
 16 17  1  0
 17 18  2  0
 18 19  1  0
 19 20  2  0
 19 21  2  0
 19 22  1  0
 22 23  1  0
 23 24  1  0
 24 25  1  0
 25 26  2  0
 26 27  1  0
 27 28  2  0
 28 29  1  0
 29 30  1  0
 28 31  1  0
 31 32  1  0
 32 33  1  0
 31 34  2  0
 18 35  1  0
 35 36  2  0
 36 37  1  0
 37 38  2  0
  6 39  1  0
 39 40  2  0
 40  3  1  0
 37 11  1  0
 36 15  1  0
 34 25  1  0
  1 41  1  0
  1 42  1  0
  1 43  1  0
  4 44  1  0
  5 45  1  0
  7 46  1  0
  7 47  1  0
  8 48  1  0
 12 49  1  0
 14 50  1  0
 14 51  1  0
 14 52  1  0
 16 53  1  0
 17 54  1  0
 23 55  1  0
 23 56  1  0
 24 57  1  0
 24 58  1  0
 26 59  1  0
 27 60  1  0
 30 61  1  0
 30 62  1  0
 30 63  1  0
 33 64  1  0
 33 65  1  0
 33 66  1  0
 34 67  1  0
 35 68  1  0
 39 69  1  0
 40 70  1  0
M  CHG  1  22  -1
M  END
>  <UniqueID>  (35) 
33

>  <SMILES>  (35) 
COc1ccc(CNC(=O)c2cn(C)c3ccc(S(=O)(=O)[N-]CCc4ccc(OC)c(OC)c4)cc3c2=O)cc1

>  <Energy>  (35) 
80.0052707955043

>  <Genealogy>  (35) 
COc1ccc(CNC(=O)c2cn(C)c3ccc(S(=O)(=O)[N-]CCc4ccc(OC)c(OC)c4)cc3c2=O)cc1 (protonated)
COc1ccc(CNC(=O)c2cn(C)c3ccc(S(=O)(=O)[N-]CCc4ccc(OC)c(OC)c4)cc3c2=O)cc1 (3D coordinates assigned)
COc1ccc(CNC(=O)c2cn(C)c3ccc(S(=O)(=O)[N-]CCc4ccc(OC)c(OC)c4)cc3c2=O)cc1 (optimized conformer: 80.0052707955043 kcal/mol)

>  <smiles>  (35) 
COc1ccc(CNC(=O)c2cn(C)c3ccc(S(=O)(=O)NCCc4ccc(OC)c(OC)c4)cc3c2=O)cc1

>  <score_type>  (35) 
oracle

>  <origin>  (35) 
adgpu

>  <m_score__min__energy>  (35) 
-10.640000000000001

>  <m_primary>  (35) 
energy

$$$$
35:0
     RDKit          3D

 49 53  0  0  0  0  0  0  0  0999 V2000
   -4.1780   17.0880  -35.9150 O   0  0  0  0  0  0  0  0  0  0  0  0
   -4.1480   16.3340  -34.7470 C   0  0  0  0  0  0  0  0  0  0  0  0
   -2.9760   15.6470  -34.4120 C   0  0  0  0  0  0  0  0  0  0  0  0
   -2.9130   14.8940  -33.2360 C   0  0  0  0  0  0  0  0  0  0  0  0
   -4.0190   14.8300  -32.3880 C   0  0  0  0  0  0  0  0  0  0  0  0
   -5.1950   15.5120  -32.7160 C   0  0  0  0  0  0  0  0  0  0  0  0
   -5.2780   16.2580  -33.9050 C   0  0  0  0  0  0  0  0  0  0  0  0
   -6.5540   16.9980  -34.2310 C   0  0  0  0  0  0  0  0  0  0  0  0
   -6.2740   18.3920  -34.5800 N   0  0  0  0  0  0  0  0  0  0  0  0
   -5.6950   19.3570  -33.6800 C   0  0  0  0  0  0  0  0  0  0  0  0
   -6.4870   20.2470  -32.9330 C   0  0  0  0  0  0  0  0  0  0  0  0
   -5.8930   21.1680  -32.0640 C   0  0  0  0  0  0  0  0  0  0  0  0
   -4.4960   21.2210  -31.9250 C   0  0  0  0  0  0  0  0  0  0  0  0
   -3.8650   22.1980  -31.0010 C   0  0  0  0  0  0  0  0  0  0  0  0
   -4.6030   23.2770  -30.4860 C   0  0  0  0  0  0  0  0  0  0  0  0
   -4.0080   24.1950  -29.6170 C   0  0  0  0  0  0  0  0  0  0  0  0
   -2.6620   24.0540  -29.2420 C   0  0  0  0  0  0  0  0  0  0  0  0
   -2.0320   25.0260  -28.3220 C   0  0  0  0  0  0  0  0  0  0  0  0
   -2.1760   24.9670  -26.9700 N   0  0  0  0  0  0  0  0  0  0  0  0
   -1.4550   26.0150  -26.5490 C   0  0  0  0  0  0  0  0  0  0  0  0
   -1.2490   26.4370  -25.2370 C   0  0  0  0  0  0  0  0  0  0  0  0
   -0.4450   27.5760  -25.0380 C   0  0  0  0  0  0  0  0  0  0  0  0
    0.1230   28.2520  -26.1420 C   0  0  0  0  0  0  0  0  0  0  0  0
   -0.1070   27.7930  -27.4530 C   0  0  0  0  0  0  0  0  0  0  0  0
   -0.9080   26.6640  -27.6110 C   0  0  0  0  0  0  0  0  0  0  0  0
   -1.2570   26.0590  -28.7540 N   0  0  0  0  0  0  0  0  0  0  0  0
   -1.9220   22.9750  -29.7560 C   0  0  0  0  0  0  0  0  0  0  0  0
   -2.5160   22.0570  -30.6250 C   0  0  0  0  0  0  0  0  0  0  0  0
   -3.7050   20.3340  -32.6760 C   0  0  0  0  0  0  0  0  0  0  0  0
   -4.2990   19.4160  -33.5450 C   0  0  0  0  0  0  0  0  0  0  0  0
   -2.1010   15.6997  -35.0765 H   0  0  0  0  0  0  0  0  0  0  0  0
   -1.9911   14.3517  -32.9791 H   0  0  0  0  0  0  0  0  0  0  0  0
   -3.9659   14.2421  -31.4598 H   0  0  0  0  0  0  0  0  0  0  0  0
   -6.0609   15.4645  -32.0393 H   0  0  0  0  0  0  0  0  0  0  0  0
   -7.0486   16.5060  -35.0815 H   0  0  0  0  0  0  0  0  0  0  0  0
   -7.2064   16.9813  -33.3455 H   0  0  0  0  0  0  0  0  0  0  0  0
   -6.4810   18.6870  -35.5610 H   0  0  0  0  0  0  0  0  0  0  0  0
   -7.5821   20.2187  -33.0329 H   0  0  0  0  0  0  0  0  0  0  0  0
   -6.5251   21.8568  -31.4844 H   0  0  0  0  0  0  0  0  0  0  0  0
   -5.6587   23.4001  -30.7695 H   0  0  0  0  0  0  0  0  0  0  0  0
   -4.5987   25.0352  -29.2232 H   0  0  0  0  0  0  0  0  0  0  0  0
   -1.6978   25.9003  -24.3881 H   0  0  0  0  0  0  0  0  0  0  0  0
   -0.2579   27.9418  -24.0176 H   0  0  0  0  0  0  0  0  0  0  0  0
    0.7482   29.1417  -25.9758 H   0  0  0  0  0  0  0  0  0  0  0  0
    0.3301   28.3074  -28.3215 H   0  0  0  0  0  0  0  0  0  0  0  0
   -0.8665   22.8527  -29.4715 H   0  0  0  0  0  0  0  0  0  0  0  0
   -1.9248   21.2171  -31.0187 H   0  0  0  0  0  0  0  0  0  0  0  0
   -2.6097   20.3632  -32.5784 H   0  0  0  0  0  0  0  0  0  0  0  0
   -3.6663   18.7321  -34.1297 H   0  0  0  0  0  0  0  0  0  0  0  0
  1  2  1  0
  2  3  2  0
  3  4  1  0
  4  5  2  0
  5  6  1  0
  6  7  2  0
  7  8  1  0
  8  9  1  0
  9 10  1  0
 10 11  2  0
 11 12  1  0
 12 13  2  0
 13 14  1  0
 14 15  2  0
 15 16  1  0
 16 17  2  0
 17 18  1  0
 18 19  2  0
 19 20  1  0
 20 21  2  0
 21 22  1  0
 22 23  2  0
 23 24  1  0
 24 25  2  0
 25 26  1  0
 17 27  1  0
 27 28  2  0
 13 29  1  0
 29 30  2  0
  7  2  1  0
 30 10  1  0
 28 14  1  0
 26 18  1  0
 25 20  1  0
  3 31  1  0
  4 32  1  0
  5 33  1  0
  6 34  1  0
  8 35  1  0
  8 36  1  0
  9 37  1  0
 11 38  1  0
 12 39  1  0
 15 40  1  0
 16 41  1  0
 21 42  1  0
 22 43  1  0
 23 44  1  0
 24 45  1  0
 27 46  1  0
 28 47  1  0
 29 48  1  0
 30 49  1  0
M  CHG  2   1  -1  26  -1
M  END
>  <UniqueID>  (36) 
34

>  <SMILES>  (36) 
[O-]c1ccccc1CNc1ccc(-c2ccc(-c3nc4ccccc4[n-]3)cc2)cc1

>  <Energy>  (36) 
97.08318368591718

>  <Genealogy>  (36) 
[O-]c1ccccc1CNc1ccc(-c2ccc(-c3nc4ccccc4[n-]3)cc2)cc1 (protonated)
[O-]c1ccccc1CNc1ccc(-c2ccc(-c3nc4ccccc4[n-]3)cc2)cc1 (3D coordinates assigned)
[O-]c1ccccc1CNc1ccc(-c2ccc(-c3nc4ccccc4[n-]3)cc2)cc1 (optimized conformer: 97.08318368591718 kcal/mol)

>  <smiles>  (36) 
Oc1ccccc1CNc1ccc(-c2ccc(-c3nc4ccccc4[nH]3)cc2)cc1

>  <score_type>  (36) 
oracle

>  <origin>  (36) 
adgpu

>  <m_score__min__energy>  (36) 
-10.789999999999999

>  <m_primary>  (36) 
energy

$$$$
36:0
     RDKit          3D

 36 38  0  0  0  0  0  0  0  0999 V2000
    0.3550   26.5740  -28.5710 H   0  0  0  0  0  0  0  0  0  0  0  0
    0.2170   25.6530  -28.1000 N   0  0  0  0  0  0  0  0  0  0  0  0
   -0.7990   24.9000  -28.3700 C   0  0  0  0  0  0  0  0  0  0  0  0
   -0.9450   23.7100  -27.7340 N   0  0  0  0  0  0  0  0  0  0  0  0
   -2.0070   22.9130  -28.0180 C   0  0  0  0  0  0  0  0  0  0  0  0
   -2.1920   21.6140  -27.2990 C   0  0  0  0  0  0  0  0  0  0  0  0
   -1.2067   21.2168  -27.0137 H   0  0  0  0  0  0  0  0  0  0  0  0
   -2.8081   21.7916  -26.4052 H   0  0  0  0  0  0  0  0  0  0  0  0
   -3.0430   20.3960  -28.3620 S   0  0  0  0  0  0  0  0  0  0  0  0
   -1.9670   20.6310  -29.7760 C   0  0  0  0  0  0  0  0  0  0  0  0
   -0.6570   20.2710  -29.7030 N   0  0  0  0  0  0  0  0  0  0  0  0
    0.1750   20.4540  -30.7610 C   0  0  0  0  0  0  0  0  0  0  0  0
    1.2335   20.1643  -30.6859 H   0  0  0  0  0  0  0  0  0  0  0  0
   -0.3150   21.0100  -31.9430 C   0  0  0  0  0  0  0  0  0  0  0  0
    0.3456   21.1624  -32.8093 H   0  0  0  0  0  0  0  0  0  0  0  0
   -1.6610   21.3680  -32.0010 C   0  0  0  0  0  0  0  0  0  0  0  0
   -2.0746   21.8086  -32.9201 H   0  0  0  0  0  0  0  0  0  0  0  0
   -2.4610   21.1720  -30.9210 N   0  0  0  0  0  0  0  0  0  0  0  0
   -2.9290   23.3180  -28.9250 N   0  0  0  0  0  0  0  0  0  0  0  0
   -2.7910   24.5090  -29.5660 C   0  0  0  0  0  0  0  0  0  0  0  0
   -3.6940   24.9320  -30.4020 N   0  0  0  0  0  0  0  0  0  0  0  0
   -4.8710   24.2170  -30.8200 C   0  0  0  0  0  0  0  0  0  0  0  0
   -4.7990   23.0630  -31.6210 C   0  0  0  0  0  0  0  0  0  0  0  0
   -3.8197   22.6852  -31.9499 H   0  0  0  0  0  0  0  0  0  0  0  0
   -5.9660   22.3940  -32.0010 C   0  0  0  0  0  0  0  0  0  0  0  0
   -5.8995   21.4784  -32.6070 H   0  0  0  0  0  0  0  0  0  0  0  0
   -7.2220   22.8850  -31.6130 C   0  0  0  0  0  0  0  0  0  0  0  0
   -8.4690   22.1370  -31.9750 C   0  0  0  0  0  0  0  0  0  0  0  0
   -8.9890   21.8251  -31.0572 H   0  0  0  0  0  0  0  0  0  0  0  0
   -9.1287   22.7886  -32.5668 H   0  0  0  0  0  0  0  0  0  0  0  0
   -8.2047   21.2482  -32.5668 H   0  0  0  0  0  0  0  0  0  0  0  0
   -7.2940   24.0460  -30.8290 C   0  0  0  0  0  0  0  0  0  0  0  0
   -8.2738   24.4311  -30.5101 H   0  0  0  0  0  0  0  0  0  0  0  0
   -6.1270   24.7160  -30.4510 C   0  0  0  0  0  0  0  0  0  0  0  0
   -6.1952   25.6412  -29.8599 H   0  0  0  0  0  0  0  0  0  0  0  0
   -1.7250   25.2990  -29.2820 N   0  0  0  0  0  0  0  0  0  0  0  0
  1  2  1  0
  2  3  2  0
  3  4  1  0
  4  5  2  0
  5  6  1  0
  6  7  1  0
  6  8  1  0
  6  9  1  0
  9 10  1  0
 10 11  2  0
 11 12  1  0
 12 13  1  0
 12 14  2  0
 14 15  1  0
 14 16  1  0
 16 17  1  0
 16 18  2  0
  5 19  1  0
 19 20  1  0
 20 21  2  0
 21 22  1  0
 22 23  2  0
 23 24  1  0
 23 25  1  0
 25 26  1  0
 25 27  2  0
 27 28  1  0
 28 29  1  0
 28 30  1  0
 28 31  1  0
 27 32  1  0
 32 33  1  0
 32 34  2  0
 34 35  1  0
 20 36  1  0
 36  3  1  0
 18 10  1  0
 34 22  1  0
M  CHG  2  19  -1  36  -1
M  END
>  <UniqueID>  (37) 
35

>  <SMILES>  (37) 
[H]/N=c1/nc(CSc2ncccn2)[n-]/c(=N\c2ccc(C)cc2)[n-]1

>  <Energy>  (37) 
36.86895591899188

>  <Genealogy>  (37) 
Cc1ccc(N=c2[n-]c(CSc3ncccn3)nc(=N)[n-]2)cc1 (protonated)
[H]/N=c1/nc(CSc2ncccn2)[n-]/c(=N\c2ccc(C)cc2)[n-]1 (cis-trans isomerization)
[H]/N=c1/nc(CSc2ncccn2)[n-]/c(=N\c2ccc(C)cc2)[n-]1 (3D coordinates assigned)
[H]/N=c1/nc(CSc2ncccn2)[n-]/c(=N\c2ccc(C)cc2)[n-]1 (optimized conformer: 36.86895591899188 kcal/mol)

>  <smiles>  (37) 
Cc1ccc(N=c2[nH]c(CSc3ncccn3)nc(=N)[nH]2)cc1

>  <score_type>  (37) 
oracle

>  <origin>  (37) 
adgpu

>  <m_score__min__energy>  (37) 
-9.3599999999999994

>  <m_primary>  (37) 
energy

$$$$
37:0
     RDKit          3D

 28 29  0  0  0  0  0  0  0  0999 V2000
   -4.6250   25.0380  -30.8650 N   0  0  0  0  0  0  0  0  0  0  0  0
   -5.3600   24.1970  -31.1660 C   0  0  0  0  0  0  0  0  0  0  0  0
   -6.2750   23.1500  -31.5400 C   0  0  0  0  0  0  0  0  0  0  0  0
   -7.6450   23.2980  -31.2980 C   0  0  0  0  0  0  0  0  0  0  0  0
   -8.5310   22.2840  -31.6620 C   0  0  0  0  0  0  0  0  0  0  0  0
   -8.0570   21.1160  -32.2670 C   0  0  0  0  0  0  0  0  0  0  0  0
   -6.6800   20.9490  -32.5140 C   0  0  0  0  0  0  0  0  0  0  0  0
   -6.1530   19.7180  -33.1550 C   0  0  0  0  0  0  0  0  0  0  0  0
   -5.3090   18.8670  -32.5270 N   0  0  0  0  0  0  0  0  0  0  0  0
   -5.0830   17.8990  -33.4360 C   0  0  0  0  0  0  0  0  0  0  0  0
   -4.2380   16.6890  -33.1760 C   0  0  0  0  0  0  0  0  0  0  0  0
   -4.9810   15.6560  -32.3250 C   0  0  0  0  0  0  0  0  0  0  0  0
   -5.7360   16.3070  -31.2570 N   0  0  0  0  0  0  0  0  0  0  0  0
   -5.7920   18.1620  -34.5850 C   0  0  0  0  0  0  0  0  0  0  0  0
   -6.4610   19.3100  -34.4070 N   0  0  0  0  0  0  0  0  0  0  0  0
   -5.7950   21.9810  -32.1460 C   0  0  0  0  0  0  0  0  0  0  0  0
   -8.0234   24.2140  -30.8207 H   0  0  0  0  0  0  0  0  0  0  0  0
   -9.6078   22.4038  -31.4722 H   0  0  0  0  0  0  0  0  0  0  0  0
   -8.7636   20.3225  -32.5519 H   0  0  0  0  0  0  0  0  0  0  0  0
   -3.9659   16.2300  -34.1379 H   0  0  0  0  0  0  0  0  0  0  0  0
   -3.3406   17.0075  -32.6253 H   0  0  0  0  0  0  0  0  0  0  0  0
   -5.6758   15.0937  -32.9662 H   0  0  0  0  0  0  0  0  0  0  0  0
   -4.2432   14.9780  -31.8712 H   0  0  0  0  0  0  0  0  0  0  0  0
   -5.4940   15.8280  -30.3600 H   0  0  0  0  0  0  0  0  0  0  0  0
   -5.3930   17.2910  -31.1640 H   0  0  0  0  0  0  0  0  0  0  0  0
   -5.8074   17.5391  -35.4915 H   0  0  0  0  0  0  0  0  0  0  0  0
   -7.0990   19.7580  -35.1000 H   0  0  0  0  0  0  0  0  0  0  0  0
   -4.7174   21.8685  -32.3359 H   0  0  0  0  0  0  0  0  0  0  0  0
  1  2  3  0
  2  3  1  0
  3  4  2  0
  4  5  1  0
  5  6  2  0
  6  7  1  0
  7  8  1  0
  8  9  2  0
  9 10  1  0
 10 11  1  0
 11 12  1  0
 12 13  1  0
 10 14  2  0
 14 15  1  0
  7 16  2  0
 16  3  1  0
 15  8  1  0
  4 17  1  0
  5 18  1  0
  6 19  1  0
 11 20  1  0
 11 21  1  0
 12 22  1  0
 12 23  1  0
 13 24  1  0
 13 25  1  0
 14 26  1  0
 15 27  1  0
 16 28  1  0
M  END
>  <UniqueID>  (38) 
36

>  <SMILES>  (38) 
N#Cc1cccc(-c2nc(CCN)c[nH]2)c1

>  <Energy>  (38) 
53.338147804806155

>  <Genealogy>  (38) 
N#Cc1cccc(-c2nc(CCN)c[nH]2)c1 (3D coordinates assigned)
N#Cc1cccc(-c2nc(CCN)c[nH]2)c1 (optimized conformer: 53.338147804806155 kcal/mol)

>  <smiles>  (38) 
N#Cc1cccc(-c2nc(CCN)c[nH]2)c1

>  <score_type>  (38) 
oracle

>  <origin>  (38) 
adgpu

>  <m_score__min__energy>  (38) 
-7.5800000000000001

>  <m_primary>  (38) 
energy

$$$$
38:0
     RDKit          3D

 37 39  0  0  0  0  0  0  0  0999 V2000
   -0.8670   24.6040  -29.7910 H   0  0  0  0  0  0  0  0  0  0  0  0
   -0.1320   24.5560  -29.0950 O   0  0  0  0  0  0  0  0  0  0  0  0
   -0.3050   25.0610  -27.8060 C   0  0  0  0  0  0  0  0  0  0  0  0
    0.8020   25.5780  -27.1160 C   0  0  0  0  0  0  0  0  0  0  0  0
    1.7919   25.5794  -27.5956 H   0  0  0  0  0  0  0  0  0  0  0  0
    0.6570   26.0900  -25.8270 C   0  0  0  0  0  0  0  0  0  0  0  0
    1.5312   26.4919  -25.2938 H   0  0  0  0  0  0  0  0  0  0  0  0
   -0.5960   26.0930  -25.2130 C   0  0  0  0  0  0  0  0  0  0  0  0
   -0.7930   26.7950  -23.4480 Br  0  0  0  0  0  0  0  0  0  0  0  0
   -1.7080   25.5810  -25.8890 C   0  0  0  0  0  0  0  0  0  0  0  0
   -2.6929   25.5865  -25.3991 H   0  0  0  0  0  0  0  0  0  0  0  0
   -1.5800   25.0590  -27.1890 C   0  0  0  0  0  0  0  0  0  0  0  0
   -2.7940   24.5310  -27.8550 C   0  0  0  0  0  0  0  0  0  0  0  0
   -3.5909   24.0826  -27.2435 H   0  0  0  0  0  0  0  0  0  0  0  0
   -2.9380   24.5860  -29.1450 N   0  0  0  0  0  0  0  0  0  0  0  0
   -4.0690   24.1190  -29.9010 C   0  0  0  0  0  0  0  0  0  0  0  0
   -5.3210   24.7680  -29.8830 C   0  0  0  0  0  0  0  0  0  0  0  0
   -5.4635   25.6668  -29.2650 H   0  0  0  0  0  0  0  0  0  0  0  0
   -6.3820   24.2730  -30.6480 C   0  0  0  0  0  0  0  0  0  0  0  0
   -7.3551   24.7856  -30.6299 H   0  0  0  0  0  0  0  0  0  0  0  0
   -6.2120   23.1240  -31.4400 C   0  0  0  0  0  0  0  0  0  0  0  0
   -7.2490   22.6080  -32.2320 O   0  0  0  0  0  0  0  0  0  0  0  0
   -7.6300   21.2600  -32.2950 C   0  0  0  0  0  0  0  0  0  0  0  0
   -8.7700   20.7750  -31.6250 C   0  0  0  0  0  0  0  0  0  0  0  0
   -9.3981   21.4648  -31.0423 H   0  0  0  0  0  0  0  0  0  0  0  0
   -9.1060   19.4200  -31.6980 C   0  0  0  0  0  0  0  0  0  0  0  0
  -10.0025   19.0474  -31.1809 H   0  0  0  0  0  0  0  0  0  0  0  0
   -8.3030   18.5380  -32.4280 C   0  0  0  0  0  0  0  0  0  0  0  0
   -8.5716   17.4731  -32.4903 H   0  0  0  0  0  0  0  0  0  0  0  0
   -7.1600   19.0090  -33.0780 C   0  0  0  0  0  0  0  0  0  0  0  0
   -6.5254   18.3132  -33.6465 H   0  0  0  0  0  0  0  0  0  0  0  0
   -6.8210   20.3650  -33.0070 C   0  0  0  0  0  0  0  0  0  0  0  0
   -5.9148   20.7298  -33.5128 H   0  0  0  0  0  0  0  0  0  0  0  0
   -4.9600   22.5040  -31.4840 C   0  0  0  0  0  0  0  0  0  0  0  0
   -4.8092   21.6226  -32.1246 H   0  0  0  0  0  0  0  0  0  0  0  0
   -3.8990   22.9960  -30.7200 C   0  0  0  0  0  0  0  0  0  0  0  0
   -2.9200   22.4962  -30.7622 H   0  0  0  0  0  0  0  0  0  0  0  0
  1  2  1  0
  2  3  1  0
  3  4  2  0
  4  5  1  0
  4  6  1  0
  6  7  1  0
  6  8  2  0
  8  9  1  0
  8 10  1  0
 10 11  1  0
 10 12  2  0
 12 13  1  0
 13 14  1  0
 13 15  2  0
 15 16  1  0
 16 17  2  0
 17 18  1  0
 17 19  1  0
 19 20  1  0
 19 21  2  0
 21 22  1  0
 22 23  1  0
 23 24  2  0
 24 25  1  0
 24 26  1  0
 26 27  1  0
 26 28  2  0
 28 29  1  0
 28 30  1  0
 30 31  1  0
 30 32  2  0
 32 33  1  0
 21 34  1  0
 34 35  1  0
 34 36  2  0
 36 37  1  0
 12  3  1  0
 36 16  1  0
 32 23  1  0
M  END
>  <UniqueID>  (39) 
37

>  <SMILES>  (39) 
Oc1ccc(Br)cc1/C=N/c1ccc(Oc2ccccc2)cc1

>  <Energy>  (39) 
50.37089543763334

>  <Genealogy>  (39) 
Oc1ccc(Br)cc1/C=N/c1ccc(Oc2ccccc2)cc1 (cis-trans isomerization)
Oc1ccc(Br)cc1/C=N/c1ccc(Oc2ccccc2)cc1 (3D coordinates assigned)
Oc1ccc(Br)cc1/C=N/c1ccc(Oc2ccccc2)cc1 (optimized conformer: 50.37089543763334 kcal/mol)

>  <smiles>  (39) 
Oc1ccc(Br)cc1C=Nc1ccc(Oc2ccccc2)cc1

>  <score_type>  (39) 
oracle

>  <origin>  (39) 
adgpu

>  <m_score__min__energy>  (39) 
-9.1400000000000006

>  <m_primary>  (39) 
energy

$$$$
39:0
     RDKit          3D

 46 49  0  0  0  0  0  0  0  0999 V2000
   -5.9030   26.3370  -30.1260 O   0  0  0  0  0  0  0  0  0  0  0  0
   -5.2950   25.2930  -30.4820 C   0  0  0  0  0  0  0  0  0  0  0  0
   -3.8610   25.2960  -30.4610 N   0  0  0  0  0  0  0  0  0  0  0  0
   -3.0180   24.2010  -30.0720 C   0  0  0  0  0  0  0  0  0  0  0  0
   -2.1900   24.2750  -28.9180 C   0  0  0  0  0  0  0  0  0  0  0  0
   -1.3780   23.1860  -28.5470 C   0  0  0  0  0  0  0  0  0  0  0  0
   -1.4340   22.0450  -29.3390 C   0  0  0  0  0  0  0  0  0  0  0  0
   -0.7950   20.8330  -29.2620 C   0  0  0  0  0  0  0  0  0  0  0  0
   -1.2250   20.0660  -30.2920 N   0  0  0  0  0  0  0  0  0  0  0  0
   -2.1090   20.7520  -31.0120 N   0  0  0  0  0  0  0  0  0  0  0  0
   -2.2400   21.9580  -30.4340 C   0  0  0  0  0  0  0  0  0  0  0  0
   -3.0550   23.0140  -30.8330 C   0  0  0  0  0  0  0  0  0  0  0  0
   -6.0740   24.0890  -30.8550 C   0  0  0  0  0  0  0  0  0  0  0  0
   -6.4830   23.8990  -32.1850 C   0  0  0  0  0  0  0  0  0  0  0  0
   -7.2190   22.7670  -32.5450 C   0  0  0  0  0  0  0  0  0  0  0  0
   -7.5610   21.8110  -31.5800 C   0  0  0  0  0  0  0  0  0  0  0  0
   -8.5060   20.3990  -32.0450 S   0  0  0  0  0  0  0  0  0  0  0  0
   -8.8710   19.6340  -30.8030 O   0  0  0  0  0  0  0  0  0  0  0  0
   -9.7730   20.8320  -32.7290 O   0  0  0  0  0  0  0  0  0  0  0  0
   -7.5660   19.3830  -33.1110 N   0  0  0  0  0  0  0  0  0  0  0  0
   -7.5040   18.0100  -32.5750 C   0  0  0  0  0  0  0  0  0  0  0  0
   -6.8370   17.0470  -33.5790 C   0  0  0  0  0  0  0  0  0  0  0  0
   -5.8660   17.7650  -34.5320 C   0  0  0  0  0  0  0  0  0  0  0  0
   -5.1850   18.9450  -33.8390 C   0  0  0  0  0  0  0  0  0  0  0  0
   -6.2130   19.9620  -33.2930 C   0  0  0  0  0  0  0  0  0  0  0  0
   -7.1760   22.0060  -30.2480 C   0  0  0  0  0  0  0  0  0  0  0  0
   -6.4400   23.1390  -29.8860 C   0  0  0  0  0  0  0  0  0  0  0  0
   -2.1839   25.1914  -28.3096 H   0  0  0  0  0  0  0  0  0  0  0  0
   -0.7241   23.2363  -27.6639 H   0  0  0  0  0  0  0  0  0  0  0  0
   -0.0618   20.5364  -28.4975 H   0  0  0  0  0  0  0  0  0  0  0  0
   -3.7074   22.9253  -31.7142 H   0  0  0  0  0  0  0  0  0  0  0  0
   -6.2222   24.6465  -32.9487 H   0  0  0  0  0  0  0  0  0  0  0  0
   -7.5310   22.6261  -33.5904 H   0  0  0  0  0  0  0  0  0  0  0  0
   -8.0630   19.3690  -34.0330 H   0  0  0  0  0  0  0  0  0  0  0  0
   -6.9213   18.0153  -31.6421 H   0  0  0  0  0  0  0  0  0  0  0  0
   -8.5311   17.6624  -32.3897 H   0  0  0  0  0  0  0  0  0  0  0  0
   -6.2791   16.2834  -33.0172 H   0  0  0  0  0  0  0  0  0  0  0  0
   -7.6340   16.5992  -34.1908 H   0  0  0  0  0  0  0  0  0  0  0  0
   -5.0974   17.0522  -34.8656 H   0  0  0  0  0  0  0  0  0  0  0  0
   -6.4381   18.1472  -35.3903 H   0  0  0  0  0  0  0  0  0  0  0  0
   -4.5805   18.5656  -33.0019 H   0  0  0  0  0  0  0  0  0  0  0  0
   -4.5558   19.4597  -34.5801 H   0  0  0  0  0  0  0  0  0  0  0  0
   -5.8568   20.3313  -32.3200 H   0  0  0  0  0  0  0  0  0  0  0  0
   -6.2997   20.7699  -34.0345 H   0  0  0  0  0  0  0  0  0  0  0  0
   -7.4534   21.2654  -29.4834 H   0  0  0  0  0  0  0  0  0  0  0  0
   -6.1458   23.2874  -28.8365 H   0  0  0  0  0  0  0  0  0  0  0  0
  1  2  2  0
  2  3  1  0
  3  4  1  0
  4  5  1  0
  5  6  2  0
  6  7  1  0
  7  8  2  0
  8  9  1  0
  9 10  1  0
 10 11  2  0
 11 12  1  0
  2 13  1  0
 13 14  2  0
 14 15  1  0
 15 16  2  0
 16 17  1  0
 17 18  2  0
 17 19  2  0
 17 20  1  0
 20 21  1  0
 21 22  1  0
 22 23  1  0
 23 24  1  0
 24 25  1  0
 16 26  1  0
 26 27  2  0
 12  4  2  0
 27 13  1  0
 11  7  1  0
 25 20  1  0
  5 28  1  0
  6 29  1  0
  8 30  1  0
 12 31  1  0
 14 32  1  0
 15 33  1  0
 20 34  1  0
 21 35  1  0
 21 36  1  0
 22 37  1  0
 22 38  1  0
 23 39  1  0
 23 40  1  0
 24 41  1  0
 24 42  1  0
 25 43  1  0
 25 44  1  0
 26 45  1  0
 27 46  1  0
M  CHG  3   3  -1   9  -1  20   1
M  END
>  <UniqueID>  (40) 
38

>  <SMILES>  (40) 
O=C([N-]c1ccc2c[n-]nc2c1)c1ccc(S(=O)(=O)[NH+]2CCCCC2)cc1

>  <Energy>  (40) 
96.908176136583

>  <Genealogy>  (40) 
O=C([N-]c1ccc2c[n-]nc2c1)c1ccc(S(=O)(=O)[NH+]2CCCCC2)cc1 (protonated)
O=C([N-]c1ccc2c[n-]nc2c1)c1ccc(S(=O)(=O)[NH+]2CCCCC2)cc1 (3D coordinates assigned)
O=C([N-]c1ccc2c[n-]nc2c1)c1ccc(S(=O)(=O)[NH+]2CCCCC2)cc1 (nonaromatic ring conformer: 96.908176136583 kcal/mol)

>  <smiles>  (40) 
O=C(Nc1ccc2c[nH]nc2c1)c1ccc(S(=O)(=O)N2CCCCC2)cc1

>  <score_type>  (40) 
oracle

>  <origin>  (40) 
adgpu

>  <m_score__min__energy>  (40) 
-11.949999999999999

>  <m_primary>  (40) 
energy

$$$$
40:0
     RDKit          3D

 32 33  0  0  0  0  0  0  0  0999 V2000
   -2.4640   20.7310  -30.0830 C   0  0  0  0  0  0  0  0  0  0  0  0
   -2.4450   22.2110  -29.8730 C   0  0  0  0  0  0  0  0  0  0  0  0
   -1.3660   22.8230  -29.2250 C   0  0  0  0  0  0  0  0  0  0  0  0
   -1.3890   24.2070  -29.0540 C   0  0  0  0  0  0  0  0  0  0  0  0
   -0.4370   24.7900  -28.4740 O   0  0  0  0  0  0  0  0  0  0  0  0
   -2.4420   24.9290  -29.5180 N   0  0  0  0  0  0  0  0  0  0  0  0
   -3.4800   24.3210  -30.1500 C   0  0  0  0  0  0  0  0  0  0  0  0
   -4.8510   25.3000  -30.7580 S   0  0  0  0  0  0  0  0  0  0  0  0
   -6.0640   24.6120  -29.5780 C   0  0  0  0  0  0  0  0  0  0  0  0
   -6.6260   23.3210  -30.0850 C   0  0  0  0  0  0  0  0  0  0  0  0
   -7.5510   22.7540  -29.4420 O   0  0  0  0  0  0  0  0  0  0  0  0
   -6.0690   22.7070  -31.2580 N   0  0  0  0  0  0  0  0  0  0  0  0
   -6.5820   21.4950  -31.8400 C   0  0  0  0  0  0  0  0  0  0  0  0
   -7.8960   21.0740  -31.5630 C   0  0  0  0  0  0  0  0  0  0  0  0
   -8.4040   19.9100  -32.1470 C   0  0  0  0  0  0  0  0  0  0  0  0
   -7.6110   19.1600  -33.0170 C   0  0  0  0  0  0  0  0  0  0  0  0
   -6.3100   19.5720  -33.3110 C   0  0  0  0  0  0  0  0  0  0  0  0
   -5.7920   20.7390  -32.7330 C   0  0  0  0  0  0  0  0  0  0  0  0
   -4.4370   21.1290  -33.0410 C   0  0  0  0  0  0  0  0  0  0  0  0
   -3.3510   21.4420  -33.2880 N   0  0  0  0  0  0  0  0  0  0  0  0
   -3.4780   22.9740  -30.3230 N   0  0  0  0  0  0  0  0  0  0  0  0
   -2.4705   20.2223  -29.1077 H   0  0  0  0  0  0  0  0  0  0  0  0
   -3.3658   20.4524  -30.6479 H   0  0  0  0  0  0  0  0  0  0  0  0
   -1.5697   20.4293  -30.6479 H   0  0  0  0  0  0  0  0  0  0  0  0
   -0.5183   22.2255  -28.8585 H   0  0  0  0  0  0  0  0  0  0  0  0
   -5.5673   24.4346  -28.6127 H   0  0  0  0  0  0  0  0  0  0  0  0
   -6.8871   25.3320  -29.4588 H   0  0  0  0  0  0  0  0  0  0  0  0
   -5.1890   23.1150  -31.6500 H   0  0  0  0  0  0  0  0  0  0  0  0
   -8.5272   21.6646  -30.8827 H   0  0  0  0  0  0  0  0  0  0  0  0
   -9.4301   19.5846  -31.9206 H   0  0  0  0  0  0  0  0  0  0  0  0
   -8.0121   18.2423  -33.4719 H   0  0  0  0  0  0  0  0  0  0  0  0
   -5.6893   18.9787  -33.9986 H   0  0  0  0  0  0  0  0  0  0  0  0
  1  2  1  0
  2  3  2  0
  3  4  1  0
  4  5  2  0
  4  6  1  0
  6  7  1  0
  7  8  1  0
  8  9  1  0
  9 10  1  0
 10 11  2  0
 10 12  1  0
 12 13  1  0
 13 14  2  0
 14 15  1  0
 15 16  2  0
 16 17  1  0
 17 18  2  0
 18 19  1  0
 19 20  3  0
  7 21  2  0
 21  2  1  0
 18 13  1  0
  1 22  1  0
  1 23  1  0
  1 24  1  0
  3 25  1  0
  9 26  1  0
  9 27  1  0
 12 28  1  0
 14 29  1  0
 15 30  1  0
 16 31  1  0
 17 32  1  0
M  CHG  1   6  -1
M  END
>  <UniqueID>  (41) 
39

>  <SMILES>  (41) 
Cc1cc(=O)[n-]c(SCC(=O)Nc2ccccc2C#N)n1

>  <Energy>  (41) 
30.79987268469485

>  <Genealogy>  (41) 
Cc1cc(=O)[n-]c(SCC(=O)Nc2ccccc2C#N)n1 (protonated)
Cc1cc(=O)[n-]c(SCC(=O)Nc2ccccc2C#N)n1 (3D coordinates assigned)
Cc1cc(=O)[n-]c(SCC(=O)Nc2ccccc2C#N)n1 (optimized conformer: 30.79987268469485 kcal/mol)

>  <smiles>  (41) 
Cc1cc(=O)[nH]c(SCC(=O)Nc2ccccc2C#N)n1

>  <score_type>  (41) 
oracle

>  <origin>  (41) 
adgpu

>  <m_score__min__energy>  (41) 
-8.4399999999999995

>  <m_primary>  (41) 
energy

$$$$
41:0
     RDKit          3D

 46 48  0  0  0  0  0  0  0  0999 V2000
   -1.1100   20.0310  -27.3530 C   0  0  0  0  0  0  0  0  0  0  0  0
   -0.5570   20.5990  -28.6560 C   0  0  0  0  0  0  0  0  0  0  0  0
   -0.8800   22.0690  -28.7790 C   0  0  0  0  0  0  0  0  0  0  0  0
    0.1410   22.9440  -28.6210 N   0  0  0  0  0  0  0  0  0  0  0  0
   -0.0540   24.2560  -28.6810 N   0  0  0  0  0  0  0  0  0  0  0  0
   -1.2870   24.7780  -28.8770 C   0  0  0  0  0  0  0  0  0  0  0  0
   -1.4080   26.0300  -28.9390 O   0  0  0  0  0  0  0  0  0  0  0  0
   -2.3750   23.9490  -29.0090 N   0  0  0  0  0  0  0  0  0  0  0  0
   -3.7150   24.5490  -29.1790 C   0  0  0  0  0  0  0  0  0  0  0  0
   -3.8180   25.1280  -30.4690 O   0  0  0  0  0  0  0  0  0  0  0  0
   -5.1360   25.5460  -30.7510 C   0  0  0  0  0  0  0  0  0  0  0  0
   -6.0460   24.3600  -30.9320 C   0  0  0  0  0  0  0  0  0  0  0  0
   -6.2260   23.8030  -32.2090 C   0  0  0  0  0  0  0  0  0  0  0  0
   -7.0570   22.6910  -32.3800 C   0  0  0  0  0  0  0  0  0  0  0  0
   -7.6990   22.1200  -31.2780 C   0  0  0  0  0  0  0  0  0  0  0  0
   -7.5210   22.6670  -30.0040 C   0  0  0  0  0  0  0  0  0  0  0  0
   -6.6950   23.7820  -29.8280 C   0  0  0  0  0  0  0  0  0  0  0  0
   -2.1860   22.5770  -28.9980 C   0  0  0  0  0  0  0  0  0  0  0  0
   -3.3270   21.6070  -29.3000 C   0  0  0  0  0  0  0  0  0  0  0  0
   -3.4020   21.2230  -30.7640 C   0  0  0  0  0  0  0  0  0  0  0  0
   -2.2630   21.3780  -31.5730 C   0  0  0  0  0  0  0  0  0  0  0  0
   -2.2910   21.0010  -32.9200 C   0  0  0  0  0  0  0  0  0  0  0  0
   -0.8630   21.2060  -33.9170 Cl  0  0  0  0  0  0  0  0  0  0  0  0
   -3.4530   20.4540  -33.4690 C   0  0  0  0  0  0  0  0  0  0  0  0
   -4.5870   20.2750  -32.6700 C   0  0  0  0  0  0  0  0  0  0  0  0
   -6.0410   19.5770  -33.3570 Cl  0  0  0  0  0  0  0  0  0  0  0  0
   -4.5610   20.6480  -31.3220 C   0  0  0  0  0  0  0  0  0  0  0  0
   -0.6249   20.5293  -26.5007 H   0  0  0  0  0  0  0  0  0  0  0  0
   -2.1955   20.2036  -27.3093 H   0  0  0  0  0  0  0  0  0  0  0  0
   -0.9084   18.9505  -27.3093 H   0  0  0  0  0  0  0  0  0  0  0  0
    0.5349   20.4669  -28.6725 H   0  0  0  0  0  0  0  0  0  0  0  0
   -1.0197   20.0643  -29.4986 H   0  0  0  0  0  0  0  0  0  0  0  0
   -4.4822   23.7689  -29.0658 H   0  0  0  0  0  0  0  0  0  0  0  0
   -3.8654   25.3276  -28.4167 H   0  0  0  0  0  0  0  0  0  0  0  0
   -5.5058   26.1603  -29.9168 H   0  0  0  0  0  0  0  0  0  0  0  0
   -5.1288   26.1303  -31.6830 H   0  0  0  0  0  0  0  0  0  0  0  0
   -5.7121   24.2425  -33.0766 H   0  0  0  0  0  0  0  0  0  0  0  0
   -7.2054   22.2654  -33.3834 H   0  0  0  0  0  0  0  0  0  0  0  0
   -8.3447   21.2398  -31.4131 H   0  0  0  0  0  0  0  0  0  0  0  0
   -8.0314   22.2198  -29.1383 H   0  0  0  0  0  0  0  0  0  0  0  0
   -6.5533   24.2071  -28.8234 H   0  0  0  0  0  0  0  0  0  0  0  0
   -3.1784   20.6940  -28.7047 H   0  0  0  0  0  0  0  0  0  0  0  0
   -4.2686   22.1143  -29.0429 H   0  0  0  0  0  0  0  0  0  0  0  0
   -1.3421   21.7992  -31.1435 H   0  0  0  0  0  0  0  0  0  0  0  0
   -3.4763   20.1640  -34.5298 H   0  0  0  0  0  0  0  0  0  0  0  0
   -5.4505   20.4915  -30.6940 H   0  0  0  0  0  0  0  0  0  0  0  0
  1  2  1  0
  2  3  1  0
  3  4  1  0
  4  5  2  0
  5  6  1  0
  6  7  2  0
  6  8  1  0
  8  9  1  0
  9 10  1  0
 10 11  1  0
 11 12  1  0
 12 13  2  0
 13 14  1  0
 14 15  2  0
 15 16  1  0
 16 17  2  0
  8 18  1  0
 18 19  1  0
 19 20  1  0
 20 21  2  0
 21 22  1  0
 22 23  1  0
 22 24  2  0
 24 25  1  0
 25 26  1  0
 25 27  2  0
 18  3  2  0
 27 20  1  0
 17 12  1  0
  1 28  1  0
  1 29  1  0
  1 30  1  0
  2 31  1  0
  2 32  1  0
  9 33  1  0
  9 34  1  0
 11 35  1  0
 11 36  1  0
 13 37  1  0
 14 38  1  0
 15 39  1  0
 16 40  1  0
 17 41  1  0
 19 42  1  0
 19 43  1  0
 21 44  1  0
 24 45  1  0
 27 46  1  0
M  END
>  <UniqueID>  (42) 
40

>  <SMILES>  (42) 
CCc1nnc(=O)n(COCc2ccccc2)c1Cc1cc(Cl)cc(Cl)c1

>  <Energy>  (42) 
58.692571907851566

>  <Genealogy>  (42) 
CCc1nnc(=O)n(COCc2ccccc2)c1Cc1cc(Cl)cc(Cl)c1 (3D coordinates assigned)
CCc1nnc(=O)n(COCc2ccccc2)c1Cc1cc(Cl)cc(Cl)c1 (optimized conformer: 58.692571907851566 kcal/mol)

>  <smiles>  (42) 
CCc1nnc(=O)n(COCc2ccccc2)c1Cc1cc(Cl)cc(Cl)c1

>  <score_type>  (42) 
oracle

>  <origin>  (42) 
adgpu

>  <m_score__min__energy>  (42) 
-9.3399999999999999

>  <m_primary>  (42) 
energy

$$$$
42:0
     RDKit          3D

 37 39  0  0  0  0  0  0  0  0999 V2000
   -4.5510   13.9820  -32.6240 N   0  0  0  0  0  0  0  0  0  0  0  0
   -4.9990   15.0410  -32.7520 C   0  0  0  0  0  0  0  0  0  0  0  0
   -5.5570   16.3580  -32.9110 C   0  0  0  0  0  0  0  0  0  0  0  0
   -5.5620   16.9780  -34.1640 C   0  0  0  0  0  0  0  0  0  0  0  0
   -6.1100   18.2530  -34.3060 C   0  0  0  0  0  0  0  0  0  0  0  0
   -6.6410   18.9090  -33.1800 C   0  0  0  0  0  0  0  0  0  0  0  0
   -7.2180   20.1820  -33.2680 O   0  0  0  0  0  0  0  0  0  0  0  0
   -6.7820   21.3240  -32.5800 C   0  0  0  0  0  0  0  0  0  0  0  0
   -5.4060   21.5600  -32.4720 C   0  0  0  0  0  0  0  0  0  0  0  0
   -4.9310   22.6910  -31.8020 C   0  0  0  0  0  0  0  0  0  0  0  0
   -5.8310   23.6050  -31.2390 C   0  0  0  0  0  0  0  0  0  0  0  0
   -5.2430   25.0230  -30.3760 S   0  0  0  0  0  0  0  0  0  0  0  0
   -5.7640   24.9840  -28.9670 O   0  0  0  0  0  0  0  0  0  0  0  0
   -5.7180   26.2860  -31.0380 O   0  0  0  0  0  0  0  0  0  0  0  0
   -3.5090   25.0180  -30.3420 N   0  0  0  0  0  0  0  0  0  0  0  0
   -2.7050   24.4500  -29.2990 C   0  0  0  0  0  0  0  0  0  0  0  0
   -3.1660   23.2980  -28.6480 C   0  0  0  0  0  0  0  0  0  0  0  0
   -2.4130   22.7140  -27.6250 C   0  0  0  0  0  0  0  0  0  0  0  0
   -1.1910   23.2750  -27.2470 C   0  0  0  0  0  0  0  0  0  0  0  0
   -0.7220   24.4230  -27.8900 C   0  0  0  0  0  0  0  0  0  0  0  0
   -1.4740   25.0130  -28.9100 C   0  0  0  0  0  0  0  0  0  0  0  0
   -7.2080   23.3880  -31.3670 C   0  0  0  0  0  0  0  0  0  0  0  0
   -7.6840   22.2580  -32.0380 C   0  0  0  0  0  0  0  0  0  0  0  0
   -6.6380   18.2730  -31.9770 N   0  0  0  0  0  0  0  0  0  0  0  0
   -6.1110   17.0300  -31.8170 C   0  0  0  0  0  0  0  0  0  0  0  0
   -5.1347   16.4615  -35.0362 H   0  0  0  0  0  0  0  0  0  0  0  0
   -6.1269   18.7421  -35.2911 H   0  0  0  0  0  0  0  0  0  0  0  0
   -4.6937   20.8501  -32.9177 H   0  0  0  0  0  0  0  0  0  0  0  0
   -3.8480   22.8638  -31.7166 H   0  0  0  0  0  0  0  0  0  0  0  0
   -4.1263   22.8504  -28.9437 H   0  0  0  0  0  0  0  0  0  0  0  0
   -2.7835   21.8114  -27.1170 H   0  0  0  0  0  0  0  0  0  0  0  0
   -0.5984   22.8132  -26.4436 H   0  0  0  0  0  0  0  0  0  0  0  0
    0.2411   24.8637  -27.5930 H   0  0  0  0  0  0  0  0  0  0  0  0
   -1.1032   25.9197  -29.4104 H   0  0  0  0  0  0  0  0  0  0  0  0
   -7.9184   24.1098  -30.9377 H   0  0  0  0  0  0  0  0  0  0  0  0
   -8.7673   22.0984  -32.1427 H   0  0  0  0  0  0  0  0  0  0  0  0
   -6.1204   16.5525  -30.8261 H   0  0  0  0  0  0  0  0  0  0  0  0
  1  2  3  0
  2  3  1  0
  3  4  2  0
  4  5  1  0
  5  6  2  0
  6  7  1  0
  7  8  1  0
  8  9  2  0
  9 10  1  0
 10 11  2  0
 11 12  1  0
 12 13  2  0
 12 14  2  0
 12 15  1  0
 15 16  1  0
 16 17  2  0
 17 18  1  0
 18 19  2  0
 19 20  1  0
 20 21  2  0
 11 22  1  0
 22 23  2  0
  6 24  1  0
 24 25  2  0
 25  3  1  0
 23  8  1  0
 21 16  1  0
  4 26  1  0
  5 27  1  0
  9 28  1  0
 10 29  1  0
 17 30  1  0
 18 31  1  0
 19 32  1  0
 20 33  1  0
 21 34  1  0
 22 35  1  0
 23 36  1  0
 25 37  1  0
M  CHG  1  15  -1
M  END
>  <UniqueID>  (43) 
41

>  <SMILES>  (43) 
N#Cc1ccc(Oc2ccc(S(=O)(=O)[N-]c3ccccc3)cc2)nc1

>  <Energy>  (43) 
49.44363614932919

>  <Genealogy>  (43) 
N#Cc1ccc(Oc2ccc(S(=O)(=O)[N-]c3ccccc3)cc2)nc1 (protonated)
N#Cc1ccc(Oc2ccc(S(=O)(=O)[N-]c3ccccc3)cc2)nc1 (3D coordinates assigned)
N#Cc1ccc(Oc2ccc(S(=O)(=O)[N-]c3ccccc3)cc2)nc1 (optimized conformer: 49.44363614932919 kcal/mol)

>  <smiles>  (43) 
N#Cc1ccc(Oc2ccc(S(=O)(=O)Nc3ccccc3)cc2)nc1

>  <score_type>  (43) 
oracle

>  <origin>  (43) 
adgpu

>  <m_score__min__energy>  (43) 
-9.8800000000000008

>  <m_primary>  (43) 
energy

$$$$
43:0
     RDKit          3D

 47 49  0  0  0  0  0  0  0  0999 V2000
   -4.6080   25.0310  -30.9460 O   0  0  0  0  0  0  0  0  0  0  0  0
   -5.1320   23.9050  -31.1640 C   0  0  0  0  0  0  0  0  0  0  0  0
   -6.1500   23.7680  -32.2560 C   0  0  0  0  0  0  0  0  0  0  0  0
   -6.9790   22.5330  -32.0400 C   0  0  0  0  0  0  0  0  0  0  0  0
   -8.1950   22.6080  -31.3380 C   0  0  0  0  0  0  0  0  0  0  0  0
   -8.9800   21.4640  -31.1660 C   0  0  0  0  0  0  0  0  0  0  0  0
   -8.5630   20.2410  -31.6990 C   0  0  0  0  0  0  0  0  0  0  0  0
   -7.3610   20.1610  -32.4080 C   0  0  0  0  0  0  0  0  0  0  0  0
   -6.5730   21.3020  -32.5830 C   0  0  0  0  0  0  0  0  0  0  0  0
   -4.8310   22.7820  -30.3210 N   0  0  0  0  0  0  0  0  0  0  0  0
   -3.7630   22.7610  -29.3600 C   0  0  0  0  0  0  0  0  0  0  0  0
   -3.4820   21.5720  -28.6700 C   0  0  0  0  0  0  0  0  0  0  0  0
   -2.4340   21.5220  -27.7480 C   0  0  0  0  0  0  0  0  0  0  0  0
   -1.6460   22.6520  -27.5170 C   0  0  0  0  0  0  0  0  0  0  0  0
   -1.8960   23.8390  -28.2180 C   0  0  0  0  0  0  0  0  0  0  0  0
   -0.8820   25.2590  -27.9560 S   0  0  0  0  0  0  0  0  0  0  0  0
   -1.2300   26.3150  -28.9680 O   0  0  0  0  0  0  0  0  0  0  0  0
    0.5580   24.8780  -28.1580 O   0  0  0  0  0  0  0  0  0  0  0  0
   -1.0860   25.9080  -26.3460 N   0  0  0  0  0  0  0  0  0  0  0  0
   -0.4120   27.2110  -26.2300 C   0  0  0  0  0  0  0  0  0  0  0  0
   -0.7990   27.8950  -24.9050 C   0  0  0  0  0  0  0  0  0  0  0  0
   -1.2420   26.8890  -23.8310 C   0  0  0  0  0  0  0  0  0  0  0  0
   -0.4470   25.5840  -23.9370 C   0  0  0  0  0  0  0  0  0  0  0  0
   -0.5690   24.9530  -25.3430 C   0  0  0  0  0  0  0  0  0  0  0  0
   -2.9520   23.8890  -29.1400 C   0  0  0  0  0  0  0  0  0  0  0  0
   -6.8060   24.6510  -32.2542 H   0  0  0  0  0  0  0  0  0  0  0  0
   -5.6312   23.6879  -33.2227 H   0  0  0  0  0  0  0  0  0  0  0  0
   -8.5298   23.5700  -30.9227 H   0  0  0  0  0  0  0  0  0  0  0  0
   -9.9273   21.5265  -30.6103 H   0  0  0  0  0  0  0  0  0  0  0  0
   -9.1808   19.3414  -31.5605 H   0  0  0  0  0  0  0  0  0  0  0  0
   -7.0348   19.1985  -32.8289 H   0  0  0  0  0  0  0  0  0  0  0  0
   -5.6314   21.2362  -33.1479 H   0  0  0  0  0  0  0  0  0  0  0  0
   -5.4830   21.9640  -30.3470 H   0  0  0  0  0  0  0  0  0  0  0  0
   -4.0902   20.6746  -28.8562 H   0  0  0  0  0  0  0  0  0  0  0  0
   -2.2285   20.5895  -27.2019 H   0  0  0  0  0  0  0  0  0  0  0  0
   -0.8276   22.6098  -26.7833 H   0  0  0  0  0  0  0  0  0  0  0  0
    0.6773   27.0601  -26.2562 H   0  0  0  0  0  0  0  0  0  0  0  0
   -0.7231   27.8515  -27.0684 H   0  0  0  0  0  0  0  0  0  0  0  0
    0.0712   28.4526  -24.5285 H   0  0  0  0  0  0  0  0  0  0  0  0
   -1.6494   28.5622  -25.1091 H   0  0  0  0  0  0  0  0  0  0  0  0
   -1.0783   27.3297  -22.8365 H   0  0  0  0  0  0  0  0  0  0  0  0
   -2.3077   26.6624  -23.9826 H   0  0  0  0  0  0  0  0  0  0  0  0
    0.6129   25.7945  -23.7315 H   0  0  0  0  0  0  0  0  0  0  0  0
   -0.8566   24.8724  -23.2050 H   0  0  0  0  0  0  0  0  0  0  0  0
    0.4253   24.6083  -25.6630 H   0  0  0  0  0  0  0  0  0  0  0  0
   -1.2823   24.1184  -25.2755 H   0  0  0  0  0  0  0  0  0  0  0  0
   -3.1475   24.8180  -29.6956 H   0  0  0  0  0  0  0  0  0  0  0  0
  1  2  2  0
  2  3  1  0
  3  4  1  0
  4  5  2  0
  5  6  1  0
  6  7  2  0
  7  8  1  0
  8  9  2  0
  2 10  1  0
 10 11  1  0
 11 12  2  0
 12 13  1  0
 13 14  2  0
 14 15  1  0
 15 16  1  0
 16 17  2  0
 16 18  2  0
 16 19  1  0
 19 20  1  0
 20 21  1  0
 21 22  1  0
 22 23  1  0
 23 24  1  0
 15 25  2  0
  9  4  1  0
 25 11  1  0
 24 19  1  0
  3 26  1  0
  3 27  1  0
  5 28  1  0
  6 29  1  0
  7 30  1  0
  8 31  1  0
  9 32  1  0
 10 33  1  0
 12 34  1  0
 13 35  1  0
 14 36  1  0
 20 37  1  0
 20 38  1  0
 21 39  1  0
 21 40  1  0
 22 41  1  0
 22 42  1  0
 23 43  1  0
 23 44  1  0
 24 45  1  0
 24 46  1  0
 25 47  1  0
M  END
>  <UniqueID>  (44) 
42

>  <SMILES>  (44) 
O=C(Cc1ccccc1)Nc1cccc(S(=O)(=O)N2CCCCC2)c1

>  <Energy>  (44) 
51.43968606419047

>  <Genealogy>  (44) 
O=C(Cc1ccccc1)Nc1cccc(S(=O)(=O)N2CCCCC2)c1 (3D coordinates assigned)
O=C(Cc1ccccc1)Nc1cccc(S(=O)(=O)N2CCCCC2)c1 (nonaromatic ring conformer: 51.43968606419047 kcal/mol)

>  <smiles>  (44) 
O=C(Cc1ccccc1)Nc1cccc(S(=O)(=O)N2CCCCC2)c1

>  <score_type>  (44) 
oracle

>  <origin>  (44) 
adgpu

>  <m_score__min__energy>  (44) 
-10.109999999999999

>  <m_primary>  (44) 
energy

$$$$
44:0
     RDKit          3D

 73 77  0  0  0  0  0  0  0  0999 V2000
   -5.5270   20.4430  -33.4460 C   0  0  0  0  0  0  0  0  0  0  0  0
   -6.4590   20.8780  -32.3970 N   0  0  0  0  0  0  0  0  0  0  0  0
   -6.5850   22.2890  -32.1260 C   0  0  0  0  0  0  0  0  0  0  0  0
   -7.4970   22.9520  -32.6950 O   0  0  0  0  0  0  0  0  0  0  0  0
   -5.6770   22.9830  -31.1830 C   0  0  0  0  0  0  0  0  0  0  0  0
   -5.5220   24.3790  -31.2280 C   0  0  0  0  0  0  0  0  0  0  0  0
   -4.6640   25.0250  -30.3340 C   0  0  0  0  0  0  0  0  0  0  0  0
   -3.9840   24.2920  -29.3500 C   0  0  0  0  0  0  0  0  0  0  0  0
   -3.0820   24.9270  -28.4330 N   0  0  0  0  0  0  0  0  0  0  0  0
   -1.6650   25.0700  -28.6030 C   0  0  0  0  0  0  0  0  0  0  0  0
   -1.2320   26.0110  -29.3180 O   0  0  0  0  0  0  0  0  0  0  0  0
   -0.6910   24.0510  -28.0760 C   0  0  0  0  0  0  0  0  0  0  0  0
   -0.6990   22.8270  -28.9470 C   0  0  0  0  0  0  0  0  0  0  0  0
   -1.1140   22.9110  -30.2850 C   0  0  0  0  0  0  0  0  0  0  0  0
   -1.1240   21.7720  -31.0950 C   0  0  0  0  0  0  0  0  0  0  0  0
   -0.7080   20.5310  -30.5810 C   0  0  0  0  0  0  0  0  0  0  0  0
   -0.7100   19.3430  -31.3930 N   0  0  0  0  0  0  0  0  0  0  0  0
   -1.6170   19.1150  -32.4850 C   0  0  0  0  0  0  0  0  0  0  0  0
   -2.3400   20.0510  -32.9210 O   0  0  0  0  0  0  0  0  0  0  0  0
   -1.7110   17.7460  -33.1090 C   0  0  2  0  0  0  0  0  0  0  0  0
   -0.3120   17.1590  -33.3930 C   0  0  0  0  0  0  0  0  0  0  0  0
   -0.4180   15.7850  -34.0730 C   0  0  0  0  0  0  0  0  0  0  0  0
   -1.2720   15.8700  -35.3430 C   0  0  0  0  0  0  0  0  0  0  0  0
   -2.5670   16.4800  -35.0240 N   0  0  0  0  0  0  0  0  0  0  0  0
   -3.7410   15.6610  -34.8750 C   0  0  0  0  0  0  0  0  0  0  0  0
   -3.9000   14.6720  -35.6400 O   0  0  0  0  0  0  0  0  0  0  0  0
   -4.7800   15.9150  -33.8040 C   0  0  0  0  0  0  0  0  0  0  0  0
   -5.6190   17.1850  -33.9500 C   0  0  0  0  0  0  0  0  0  0  0  0
   -6.8740   16.3340  -34.0890 C   0  0  0  0  0  0  0  0  0  0  0  0
   -6.0390   15.0660  -33.9560 C   0  0  0  0  0  0  0  0  0  0  0  0
   -2.5370   17.8080  -34.4030 C   0  0  0  0  0  0  0  0  0  0  0  0
   -0.3370   20.4420  -29.2310 C   0  0  0  0  0  0  0  0  0  0  0  0
   -0.3310   21.5800  -28.4200 C   0  0  0  0  0  0  0  0  0  0  0  0
   -4.1260   22.9010  -29.3090 C   0  0  0  0  0  0  0  0  0  0  0  0
   -4.9750   22.2510  -30.2100 C   0  0  0  0  0  0  0  0  0  0  0  0
   -7.4690   19.9710  -31.8170 C   0  0  0  0  0  0  0  0  0  0  0  0
   -8.8160   20.5620  -31.4020 C   0  0  0  0  0  0  0  0  0  0  0  0
   -8.6910   19.7810  -32.7010 C   0  0  0  0  0  0  0  0  0  0  0  0
   -4.6234   20.0212  -32.9817 H   0  0  0  0  0  0  0  0  0  0  0  0
   -6.0098   19.6772  -34.0709 H   0  0  0  0  0  0  0  0  0  0  0  0
   -5.2500   21.3049  -34.0709 H   0  0  0  0  0  0  0  0  0  0  0  0
   -6.0797   24.9670  -31.9718 H   0  0  0  0  0  0  0  0  0  0  0  0
   -4.5211   26.1135  -30.4022 H   0  0  0  0  0  0  0  0  0  0  0  0
    0.3199   24.4847  -28.0680 H   0  0  0  0  0  0  0  0  0  0  0  0
   -0.9858   23.7670  -27.0550 H   0  0  0  0  0  0  0  0  0  0  0  0
   -1.4333   23.8789  -30.6987 H   0  0  0  0  0  0  0  0  0  0  0  0
   -1.4591   21.8468  -32.1401 H   0  0  0  0  0  0  0  0  0  0  0  0
    0.0540   18.6480  -31.2400 H   0  0  0  0  0  0  0  0  0  0  0  0
   -2.2155   17.0811  -32.3925 H   0  0  0  0  0  0  0  0  0  0  0  0
    0.2387   17.8453  -34.0531 H   0  0  0  0  0  0  0  0  0  0  0  0
    0.2170   17.0363  -32.4364 H   0  0  0  0  0  0  0  0  0  0  0  0
    0.5905   15.4358  -34.3394 H   0  0  0  0  0  0  0  0  0  0  0  0
   -0.8948   15.0819  -33.3742 H   0  0  0  0  0  0  0  0  0  0  0  0
   -0.7526   16.4844  -36.0932 H   0  0  0  0  0  0  0  0  0  0  0  0
   -1.4331   14.8584  -35.7438 H   0  0  0  0  0  0  0  0  0  0  0  0
   -4.1166   15.8123  -32.9326 H   0  0  0  0  0  0  0  0  0  0  0  0
   -5.6115   17.8336  -33.0616 H   0  0  0  0  0  0  0  0  0  0  0  0
   -5.3666   17.9364  -34.7127 H   0  0  0  0  0  0  0  0  0  0  0  0
   -7.6039   16.4767  -33.2785 H   0  0  0  0  0  0  0  0  0  0  0  0
   -7.5422   16.4692  -34.9523 H   0  0  0  0  0  0  0  0  0  0  0  0
   -6.2813   14.4589  -33.0713 H   0  0  0  0  0  0  0  0  0  0  0  0
   -6.0924   14.2799  -34.7235 H   0  0  0  0  0  0  0  0  0  0  0  0
   -2.0787   18.5278  -35.0972 H   0  0  0  0  0  0  0  0  0  0  0  0
   -3.5631   18.1285  -34.1697 H   0  0  0  0  0  0  0  0  0  0  0  0
   -0.0485   19.4687  -28.8075 H   0  0  0  0  0  0  0  0  0  0  0  0
   -0.0363   21.4976  -27.3634 H   0  0  0  0  0  0  0  0  0  0  0  0
   -3.5669   22.3156  -28.5642 H   0  0  0  0  0  0  0  0  0  0  0  0
   -5.0944   21.1588  -30.1569 H   0  0  0  0  0  0  0  0  0  0  0  0
   -6.7371   19.3305  -31.3031 H   0  0  0  0  0  0  0  0  0  0  0  0
   -9.3673   20.1327  -30.5524 H   0  0  0  0  0  0  0  0  0  0  0  0
   -9.1753   21.5648  -31.1275 H   0  0  0  0  0  0  0  0  0  0  0  0
   -9.1544   18.7874  -32.7910 H   0  0  0  0  0  0  0  0  0  0  0  0
   -8.9251   19.9873  -33.7558 H   0  0  0  0  0  0  0  0  0  0  0  0
  1  2  1  0
  2  3  1  0
  3  4  2  0
  3  5  1  0
  5  6  2  0
  6  7  1  0
  7  8  2  0
  8  9  1  0
  9 10  1  0
 10 11  2  0
 10 12  1  0
 12 13  1  0
 13 14  2  0
 14 15  1  0
 15 16  2  0
 16 17  1  0
 17 18  1  0
 18 19  2  0
 18 20  1  0
 20 21  1  0
 21 22  1  0
 22 23  1  0
 23 24  1  0
 24 25  1  0
 25 26  2  0
 25 27  1  0
 27 28  1  0
 28 29  1  0
 29 30  1  0
 24 31  1  0
 16 32  1  0
 32 33  2  0
  8 34  1  0
 34 35  2  0
  2 36  1  0
 36 37  1  0
 37 38  1  0
 35  5  1  0
 38 36  1  0
 33 13  1  0
 31 20  1  0
 30 27  1  0
  1 39  1  0
  1 40  1  0
  1 41  1  0
  6 42  1  0
  7 43  1  0
 12 44  1  0
 12 45  1  0
 14 46  1  0
 15 47  1  0
 17 48  1  0
 20 49  1  1
 21 50  1  0
 21 51  1  0
 22 52  1  0
 22 53  1  0
 23 54  1  0
 23 55  1  0
 27 56  1  0
 28 57  1  0
 28 58  1  0
 29 59  1  0
 29 60  1  0
 30 61  1  0
 30 62  1  0
 31 63  1  0
 31 64  1  0
 32 65  1  0
 33 66  1  0
 34 67  1  0
 35 68  1  0
 36 69  1  0
 37 70  1  0
 37 71  1  0
 38 72  1  0
 38 73  1  0
M  CHG  1   9  -1
M  END
>  <UniqueID>  (45) 
43

>  <SMILES>  (45) 
CN(C(=O)c1ccc([N-]C(=O)Cc2ccc(NC(=O)[C@@H]3CCCN(C(=O)C4CCC4)C3)cc2)cc1)C1CC1

>  <Energy>  (45) 
416.6486693613151

>  <Genealogy>  (45) 
CN(C(=O)c1ccc([N-]C(=O)Cc2ccc(NC(=O)C3CCCN(C(=O)C4CCC4)C3)cc2)cc1)C1CC1 (protonated)
CN(C(=O)c1ccc([N-]C(=O)Cc2ccc(NC(=O)[C@@H]3CCCN(C(=O)C4CCC4)C3)cc2)cc1)C1CC1 (chirality)
CN(C(=O)c1ccc([N-]C(=O)Cc2ccc(NC(=O)[C@@H]3CCCN(C(=O)C4CCC4)C3)cc2)cc1)C1CC1 (3D coordinates assigned)
CN(C(=O)c1ccc([N-]C(=O)Cc2ccc(NC(=O)[C@@H]3CCCN(C(=O)C4CCC4)C3)cc2)cc1)C1CC1 (nonaromatic ring conformer: 416.6486693613151 kcal/mol)

>  <smiles>  (45) 
CN(C(=O)c1ccc(NC(=O)Cc2ccc(NC(=O)C3CCCN(C(=O)C4CCC4)C3)cc2)cc1)C1CC1

>  <score_type>  (45) 
oracle

>  <origin>  (45) 
adgpu

>  <m_score__min__energy>  (45) 
-11.42

>  <m_primary>  (45) 
energy

$$$$
45:0
     RDKit          3D

 27 28  0  0  0  0  0  0  0  0999 V2000
   -2.5070   24.4500  -29.2550 N   0  0  0  0  0  0  0  0  0  0  0  0
   -5.8370   24.5470  -30.5150 C   0  0  0  0  0  0  0  0  0  0  0  0
   -3.5140   23.2900  -31.0350 C   0  0  0  0  0  0  0  0  0  0  0  0
   -4.6580   23.0470  -31.7930 C   0  0  0  0  0  0  0  0  0  0  0  0
   -4.5510   22.1430  -32.8130 O   0  0  0  0  0  0  0  0  0  0  0  0
   -5.8290   23.6790  -31.5340 N   0  0  0  0  0  0  0  0  0  0  0  0
   -7.0110   23.4440  -32.2970 C   0  0  0  0  0  0  0  0  0  0  0  0
   -7.5760   22.0940  -32.0500 C   0  0  0  0  0  0  0  0  0  0  0  0
   -7.1310   20.9640  -32.7360 C   0  0  0  0  0  0  0  0  0  0  0  0
   -7.6490   19.7100  -32.5130 C   0  0  0  0  0  0  0  0  0  0  0  0
   -8.6460   19.5140  -31.5850 C   0  0  0  0  0  0  0  0  0  0  0  0
   -9.1080   20.6090  -30.8880 C   0  0  0  0  0  0  0  0  0  0  0  0
   -8.5810   21.8590  -31.1210 C   0  0  0  0  0  0  0  0  0  0  0  0
   -3.5540   24.1920  -29.9920 C   0  0  0  0  0  0  0  0  0  0  0  0
   -6.8650   25.2050  -30.1670 O   0  0  0  0  0  0  0  0  0  0  0  0
   -4.7270   24.8000  -29.7600 N   0  0  0  0  0  0  0  0  0  0  0  0
   -1.6290   23.9190  -29.5170 H   0  0  0  0  0  0  0  0  0  0  0  0
   -2.5778   22.7618  -31.2687 H   0  0  0  0  0  0  0  0  0  0  0  0
   -4.6470   22.3140  -33.7890 H   0  0  0  0  0  0  0  0  0  0  0  0
   -7.7640   24.1986  -32.0259 H   0  0  0  0  0  0  0  0  0  0  0  0
   -6.7451   23.5101  -33.3623 H   0  0  0  0  0  0  0  0  0  0  0  0
   -6.3340   21.0807  -33.4851 H   0  0  0  0  0  0  0  0  0  0  0  0
   -7.2617   18.8529  -33.0834 H   0  0  0  0  0  0  0  0  0  0  0  0
   -9.0622   18.5118  -31.4048 H   0  0  0  0  0  0  0  0  0  0  0  0
   -9.9042   20.4833  -30.1395 H   0  0  0  0  0  0  0  0  0  0  0  0
   -8.9736   22.7102  -30.5454 H   0  0  0  0  0  0  0  0  0  0  0  0
   -4.7460   25.4820  -28.9660 H   0  0  0  0  0  0  0  0  0  0  0  0
  1  2  2  3
  2  3  1  0
  3  4  2  0
  4  5  1  0
  4  6  1  0
  6  7  1  0
  7  8  1  0
  8  9  2  0
  9 10  1  0
 10 11  2  0
 11 12  1  0
 12 13  2  0
  6 14  1  0
 14 15  2  0
 14 16  1  0
 16  2  1  0
 13  8  1  0
  1 17  1  0
  3 18  1  0
  5 19  1  0
  7 20  1  0
  7 21  1  0
  9 22  1  0
 10 23  1  0
 11 24  1  0
 12 25  1  0
 13 26  1  0
 16 27  1  0
M  END
>  <smiles>  (46) 
N=c1cc(O)n(Cc2ccccc2)c(=O)[nH]1

>  <score_type>  (46) 
oracle

>  <origin>  (46) 
adgpu

>  <m_score__min__energy>  (46) 
-6.0700000000000003

>  <m_primary>  (46) 
energy

$$$$
46:0
     RDKit          3D

 36 37  0  0  0  0  0  0  0  0999 V2000
   -9.1900   22.5680  -31.9290 C   0  0  0  0  0  0  0  0  0  0  0  0
   -7.8840   22.1590  -32.3190 O   0  0  0  0  0  0  0  0  0  0  0  0
   -7.4690   20.8240  -32.4450 C   0  0  0  0  0  0  0  0  0  0  0  0
   -8.3950   19.7670  -32.5360 C   0  0  0  0  0  0  0  0  0  0  0  0
   -7.9570   18.4500  -32.6830 C   0  0  0  0  0  0  0  0  0  0  0  0
   -6.5890   18.1640  -32.7570 C   0  0  0  0  0  0  0  0  0  0  0  0
   -6.1190   16.7440  -32.8840 C   0  0  0  0  0  0  0  0  0  0  0  0
   -5.6600   19.2080  -32.6460 C   0  0  0  0  0  0  0  0  0  0  0  0
   -6.0890   20.5340  -32.4890 C   0  0  0  0  0  0  0  0  0  0  0  0
   -4.8750   21.8180  -32.3840 S   0  0  0  0  0  0  0  0  0  0  0  0
   -3.9090   21.6740  -33.5270 O   0  0  0  0  0  0  0  0  0  0  0  0
   -4.0970   21.7050  -31.1020 O   0  0  0  0  0  0  0  0  0  0  0  0
   -5.6320   23.3790  -32.4830 N   0  0  0  0  0  0  0  0  0  0  0  0
   -6.0950   23.7950  -31.1590 C   0  0  0  0  0  0  0  0  0  0  0  0
   -4.9210   24.1780  -30.3150 C   0  0  0  0  0  0  0  0  0  0  0  0
   -4.7370   23.8480  -28.9880 C   0  0  0  0  0  0  0  0  0  0  0  0
   -3.5620   24.4890  -28.6640 C   0  0  0  0  0  0  0  0  0  0  0  0
   -2.8970   24.4890  -27.3290 C   0  0  0  0  0  0  0  0  0  0  0  0
   -3.1260   25.1430  -29.7150 O   0  0  0  0  0  0  0  0  0  0  0  0
   -3.9240   24.9820  -30.7300 N   0  0  0  0  0  0  0  0  0  0  0  0
   -9.2553   22.5884  -30.8311 H   0  0  0  0  0  0  0  0  0  0  0  0
   -9.3937   23.5730  -32.3272 H   0  0  0  0  0  0  0  0  0  0  0  0
   -9.9305   21.8588  -32.3272 H   0  0  0  0  0  0  0  0  0  0  0  0
   -9.4730   19.9812  -32.4908 H   0  0  0  0  0  0  0  0  0  0  0  0
   -8.6908   17.6326  -32.7410 H   0  0  0  0  0  0  0  0  0  0  0  0
   -5.9766   16.3139  -31.8816 H   0  0  0  0  0  0  0  0  0  0  0  0
   -6.8706   16.1566  -33.4317 H   0  0  0  0  0  0  0  0  0  0  0  0
   -5.1653   16.7210  -33.4317 H   0  0  0  0  0  0  0  0  0  0  0  0
   -4.5835   18.9849  -32.6824 H   0  0  0  0  0  0  0  0  0  0  0  0
   -6.4670   23.2700  -33.1030 H   0  0  0  0  0  0  0  0  0  0  0  0
   -6.7695   24.6579  -31.2613 H   0  0  0  0  0  0  0  0  0  0  0  0
   -6.6325   22.9625  -30.6814 H   0  0  0  0  0  0  0  0  0  0  0  0
   -5.3746   23.2239  -28.3446 H   0  0  0  0  0  0  0  0  0  0  0  0
   -2.7335   23.4519  -27.0008 H   0  0  0  0  0  0  0  0  0  0  0  0
   -1.9296   25.0075  -27.4013 H   0  0  0  0  0  0  0  0  0  0  0  0
   -3.5374   25.0075  -26.6003 H   0  0  0  0  0  0  0  0  0  0  0  0
  1  2  1  0
  2  3  1  0
  3  4  2  0
  4  5  1  0
  5  6  2  0
  6  7  1  0
  6  8  1  0
  8  9  2  0
  9 10  1  0
 10 11  2  0
 10 12  2  0
 10 13  1  0
 13 14  1  0
 14 15  1  0
 15 16  1  0
 16 17  2  0
 17 18  1  0
 17 19  1  0
 19 20  1  0
  9  3  1  0
 20 15  2  0
  1 21  1  0
  1 22  1  0
  1 23  1  0
  4 24  1  0
  5 25  1  0
  7 26  1  0
  7 27  1  0
  7 28  1  0
  8 29  1  0
 13 30  1  0
 14 31  1  0
 14 32  1  0
 16 33  1  0
 18 34  1  0
 18 35  1  0
 18 36  1  0
M  END
>  <UniqueID>  (47) 
44

>  <SMILES>  (47) 
COc1ccc(C)cc1S(=O)(=O)NCc1cc(C)on1

>  <Energy>  (47) 
60.37759545160564

>  <Genealogy>  (47) 
COc1ccc(C)cc1S(=O)(=O)NCc1cc(C)on1 (3D coordinates assigned)
COc1ccc(C)cc1S(=O)(=O)NCc1cc(C)on1 (optimized conformer: 60.37759545160564 kcal/mol)

>  <smiles>  (47) 
COc1ccc(C)cc1S(=O)(=O)NCc1cc(C)on1

>  <score_type>  (47) 
oracle

>  <origin>  (47) 
adgpu

>  <m_score__min__energy>  (47) 
-8.6899999999999995

>  <m_primary>  (47) 
energy

$$$$
47:0
     RDKit          3D

 56 59  0  0  0  0  0  0  0  0999 V2000
   -4.6130   15.0880  -31.9820 C   0  0  0  0  0  0  0  0  0  0  0  0
   -4.8030   15.6030  -33.4180 C   0  0  0  0  0  0  0  0  0  0  0  0
   -5.1080   17.0550  -33.5410 N   0  0  2  0  0  0  0  0  0  0  0  0
   -6.4920   17.3670  -33.9910 C   0  0  0  0  0  0  0  0  0  0  0  0
   -7.2620   18.3330  -33.1140 C   0  0  0  0  0  0  0  0  0  0  0  0
   -7.9890   17.8660  -32.0050 C   0  0  0  0  0  0  0  0  0  0  0  0
   -8.7200   18.7550  -31.2120 C   0  0  0  0  0  0  0  0  0  0  0  0
   -8.7520   20.1140  -31.5310 C   0  0  0  0  0  0  0  0  0  0  0  0
   -8.0610   20.5850  -32.6500 C   0  0  0  0  0  0  0  0  0  0  0  0
   -7.3260   19.6990  -33.4440 C   0  0  0  0  0  0  0  0  0  0  0  0
   -4.0920   17.8100  -34.2590 C   0  0  0  0  0  0  0  0  0  0  0  0
   -3.6310   17.3680  -35.3460 O   0  0  0  0  0  0  0  0  0  0  0  0
   -3.5720   19.1060  -33.7480 C   0  0  0  0  0  0  0  0  0  0  0  0
   -2.2110   19.4460  -33.8570 C   0  0  0  0  0  0  0  0  0  0  0  0
   -1.7450   20.6630  -33.3570 C   0  0  0  0  0  0  0  0  0  0  0  0
   -2.6250   21.5530  -32.7400 C   0  0  0  0  0  0  0  0  0  0  0  0
   -3.9880   21.2370  -32.6290 C   0  0  0  0  0  0  0  0  0  0  0  0
   -4.9250   22.1880  -31.9280 C   0  0  0  0  0  0  0  0  0  0  0  0
   -4.1690   23.0460  -30.9450 C   0  0  0  0  0  0  0  0  0  0  0  0
   -4.1950   24.3930  -31.1270 N   0  0  0  0  0  0  0  0  0  0  0  0
   -3.5030   25.2270  -30.3520 N   0  0  0  0  0  0  0  0  0  0  0  0
   -2.7160   24.7730  -29.3450 C   0  0  0  0  0  0  0  0  0  0  0  0
   -2.0840   25.6000  -28.6350 O   0  0  0  0  0  0  0  0  0  0  0  0
   -2.6150   23.3940  -29.1120 C   0  0  0  0  0  0  0  0  0  0  0  0
   -3.3750   22.5110  -29.9030 C   0  0  0  0  0  0  0  0  0  0  0  0
   -3.3110   21.0940  -29.6460 N   0  0  0  0  0  0  0  0  0  0  0  0
   -2.5050   20.5350  -28.5620 C   0  0  0  0  0  0  0  0  0  0  0  0
   -1.3040   21.4290  -28.2580 C   0  0  0  0  0  0  0  0  0  0  0  0
   -1.7650   22.8610  -27.9810 C   0  0  0  0  0  0  0  0  0  0  0  0
   -4.4560   20.0200  -33.1500 C   0  0  0  0  0  0  0  0  0  0  0  0
   -4.9030   15.8740  -31.2692 H   0  0  0  0  0  0  0  0  0  0  0  0
   -5.2427   14.1999  -31.8247 H   0  0  0  0  0  0  0  0  0  0  0  0
   -3.5574   14.8216  -31.8247 H   0  0  0  0  0  0  0  0  0  0  0  0
   -3.8763   15.4025  -33.9757 H   0  0  0  0  0  0  0  0  0  0  0  0
   -5.6818   15.0742  -33.8156 H   0  0  0  0  0  0  0  0  0  0  0  0
   -5.1060   17.4140  -32.5580 H   0  0  0  0  0  0  0  0  0  0  0  0
   -6.4303   17.8010  -34.9999 H   0  0  0  0  0  0  0  0  0  0  0  0
   -7.0440   16.4164  -33.9494 H   0  0  0  0  0  0  0  0  0  0  0  0
   -7.9825   16.7937  -31.7597 H   0  0  0  0  0  0  0  0  0  0  0  0
   -9.2709   18.3835  -30.3353 H   0  0  0  0  0  0  0  0  0  0  0  0
   -9.3212   20.8136  -30.9013 H   0  0  0  0  0  0  0  0  0  0  0  0
   -8.0951   21.6540  -32.9069 H   0  0  0  0  0  0  0  0  0  0  0  0
   -6.7947   20.0724  -34.3319 H   0  0  0  0  0  0  0  0  0  0  0  0
   -1.5101   18.7486  -34.3391 H   0  0  0  0  0  0  0  0  0  0  0  0
   -0.6798   20.9215  -33.4497 H   0  0  0  0  0  0  0  0  0  0  0  0
   -2.2491   22.5059  -32.3391 H   0  0  0  0  0  0  0  0  0  0  0  0
   -5.4100   22.8343  -32.6744 H   0  0  0  0  0  0  0  0  0  0  0  0
   -5.6815   21.6046  -31.3826 H   0  0  0  0  0  0  0  0  0  0  0  0
   -3.9930   20.4440  -30.0880 H   0  0  0  0  0  0  0  0  0  0  0  0
   -3.1269   20.4481  -27.6589 H   0  0  0  0  0  0  0  0  0  0  0  0
   -2.1370   19.5459  -28.8721 H   0  0  0  0  0  0  0  0  0  0  0  0
   -0.7766   21.0402  -27.3744 H   0  0  0  0  0  0  0  0  0  0  0  0
   -0.6306   21.4317  -29.1278 H   0  0  0  0  0  0  0  0  0  0  0  0
   -2.3550   22.8741  -27.0527 H   0  0  0  0  0  0  0  0  0  0  0  0
   -0.8745   23.4997  -27.8858 H   0  0  0  0  0  0  0  0  0  0  0  0
   -5.5276   19.7792  -33.0893 H   0  0  0  0  0  0  0  0  0  0  0  0
  1  2  1  0
  2  3  1  0
  3  4  1  0
  4  5  1  0
  5  6  2  0
  6  7  1  0
  7  8  2  0
  8  9  1  0
  9 10  2  0
  3 11  1  0
 11 12  2  0
 11 13  1  0
 13 14  2  0
 14 15  1  0
 15 16  2  0
 16 17  1  0
 17 18  1  0
 18 19  1  0
 19 20  2  0
 20 21  1  0
 21 22  1  0
 22 23  2  0
 22 24  1  0
 24 25  2  0
 25 26  1  0
 26 27  1  0
 27 28  1  0
 28 29  1  0
 17 30  2  0
 10  5  1  0
 30 13  1  0
 25 19  1  0
 29 24  1  0
  1 31  1  0
  1 32  1  0
  1 33  1  0
  2 34  1  0
  2 35  1  0
  3 36  1  1
  4 37  1  0
  4 38  1  0
  6 39  1  0
  7 40  1  0
  8 41  1  0
  9 42  1  0
 10 43  1  0
 14 44  1  0
 15 45  1  0
 16 46  1  0
 18 47  1  0
 18 48  1  0
 26 49  1  0
 27 50  1  0
 27 51  1  0
 28 52  1  0
 28 53  1  0
 29 54  1  0
 29 55  1  0
 30 56  1  0
M  CHG  2   3   1  21  -1
M  END
>  <UniqueID>  (48) 
45

>  <SMILES>  (48) 
CC[N@H+](Cc1ccccc1)C(=O)c1cccc(Cc2n[n-]c(=O)c3c2NCCC3)c1

>  <Energy>  (48) 
74.80915367720043

>  <Genealogy>  (48) 
CC[NH+](Cc1ccccc1)C(=O)c1cccc(Cc2n[n-]c(=O)c3c2NCCC3)c1 (protonated)
CC[N@H+](Cc1ccccc1)C(=O)c1cccc(Cc2n[n-]c(=O)c3c2NCCC3)c1 (chirality)
CC[N@H+](Cc1ccccc1)C(=O)c1cccc(Cc2n[n-]c(=O)c3c2NCCC3)c1 (3D coordinates assigned)
CC[N@H+](Cc1ccccc1)C(=O)c1cccc(Cc2n[n-]c(=O)c3c2NCCC3)c1 (nonaromatic ring conformer: 74.80915367720043 kcal/mol)

>  <smiles>  (48) 
CCN(Cc1ccccc1)C(=O)c1cccc(Cc2n[nH]c(=O)c3c2NCCC3)c1

>  <score_type>  (48) 
oracle

>  <origin>  (48) 
adgpu

>  <m_score__min__energy>  (48) 
-11.289999999999999

>  <m_primary>  (48) 
energy

$$$$
48:0
     RDKit          3D

 47 49  0  0  0  0  0  0  0  0999 V2000
   -0.8840   21.1190  -32.3160 C   0  0  0  0  0  0  0  0  0  0  0  0
   -1.6000   20.1770  -33.1090 O   0  0  0  0  0  0  0  0  0  0  0  0
   -2.9610   19.8780  -32.9470 C   0  0  0  0  0  0  0  0  0  0  0  0
   -3.5640   20.1700  -31.7170 C   0  0  0  0  0  0  0  0  0  0  0  0
   -4.9140   19.8840  -31.5020 C   0  0  0  0  0  0  0  0  0  0  0  0
   -5.6910   19.3000  -32.5190 C   0  0  0  0  0  0  0  0  0  0  0  0
   -7.0850   19.0040  -32.2980 N   0  0  0  0  0  0  0  0  0  0  0  0
   -7.5680   17.6250  -32.3490 C   0  0  0  0  0  0  0  0  0  0  0  0
   -8.2120   20.2780  -31.9190 S   0  0  0  0  0  0  0  0  0  0  0  0
   -9.1390   20.4730  -33.0870 O   0  0  0  0  0  0  0  0  0  0  0  0
   -9.0180   19.9100  -30.7050 O   0  0  0  0  0  0  0  0  0  0  0  0
   -7.3370   21.7670  -31.5700 C   0  0  0  0  0  0  0  0  0  0  0  0
   -6.5720   22.3970  -32.5600 C   0  0  0  0  0  0  0  0  0  0  0  0
   -5.8560   23.5610  -32.2640 C   0  0  0  0  0  0  0  0  0  0  0  0
   -5.8960   24.1150  -30.9710 C   0  0  0  0  0  0  0  0  0  0  0  0
   -5.1280   25.3410  -30.6540 C   0  0  0  0  0  0  0  0  0  0  0  0
   -5.7340   26.4310  -30.4640 O   0  0  0  0  0  0  0  0  0  0  0  0
   -3.7020   25.2790  -30.5140 N   0  0  0  0  0  0  0  0  0  0  0  0
   -2.9630   24.3410  -29.7180 C   0  0  0  0  0  0  0  0  0  0  0  0
   -3.4470   23.0460  -29.4590 C   0  0  0  0  0  0  0  0  0  0  0  0
   -2.7140   22.1670  -28.6550 C   0  0  0  0  0  0  0  0  0  0  0  0
   -1.5030   22.5750  -28.0910 C   0  0  0  0  0  0  0  0  0  0  0  0
   -0.7740   21.6980  -27.2990 O   0  0  0  0  0  0  0  0  0  0  0  0
   -1.0300   23.8700  -28.3210 C   0  0  0  0  0  0  0  0  0  0  0  0
   -1.7580   24.7530  -29.1250 C   0  0  0  0  0  0  0  0  0  0  0  0
   -1.2760   26.0390  -29.3410 O   0  0  0  0  0  0  0  0  0  0  0  0
   -6.6710   23.4790  -29.9840 C   0  0  0  0  0  0  0  0  0  0  0  0
   -7.3840   22.3150  -30.2840 C   0  0  0  0  0  0  0  0  0  0  0  0
   -5.0850   19.0130  -33.7530 C   0  0  0  0  0  0  0  0  0  0  0  0
   -3.7340   19.3000  -33.9690 C   0  0  0  0  0  0  0  0  0  0  0  0
   -1.0491   20.9018  -31.2504 H   0  0  0  0  0  0  0  0  0  0  0  0
    0.1900   21.0478  -32.5426 H   0  0  0  0  0  0  0  0  0  0  0  0
   -1.2400   22.1348  -32.5426 H   0  0  0  0  0  0  0  0  0  0  0  0
   -2.9691   20.6286  -30.9134 H   0  0  0  0  0  0  0  0  0  0  0  0
   -5.3732   20.1172  -30.5300 H   0  0  0  0  0  0  0  0  0  0  0  0
   -7.7011   17.2450  -31.3253 H   0  0  0  0  0  0  0  0  0  0  0  0
   -8.5308   17.5931  -32.8800 H   0  0  0  0  0  0  0  0  0  0  0  0
   -6.8355   16.9993  -32.8800 H   0  0  0  0  0  0  0  0  0  0  0  0
   -6.5344   21.9741  -33.5748 H   0  0  0  0  0  0  0  0  0  0  0  0
   -5.2569   24.0474  -33.0479 H   0  0  0  0  0  0  0  0  0  0  0  0
   -4.4059   22.7232  -29.8905 H   0  0  0  0  0  0  0  0  0  0  0  0
   -3.0923   21.1515  -28.4663 H   0  0  0  0  0  0  0  0  0  0  0  0
   -0.0820   24.1958  -27.8681 H   0  0  0  0  0  0  0  0  0  0  0  0
   -6.7161   23.9008  -28.9691 H   0  0  0  0  0  0  0  0  0  0  0  0
   -7.9861   21.8266  -29.5036 H   0  0  0  0  0  0  0  0  0  0  0  0
   -5.6799   18.5574  -34.5583 H   0  0  0  0  0  0  0  0  0  0  0  0
   -3.2742   19.0727  -34.9421 H   0  0  0  0  0  0  0  0  0  0  0  0
  1  2  1  0
  2  3  1  0
  3  4  2  0
  4  5  1  0
  5  6  2  0
  6  7  1  0
  7  8  1  0
  7  9  1  0
  9 10  2  0
  9 11  2  0
  9 12  1  0
 12 13  2  0
 13 14  1  0
 14 15  2  0
 15 16  1  0
 16 17  2  0
 16 18  1  0
 18 19  1  0
 19 20  2  0
 20 21  1  0
 21 22  2  0
 22 23  1  0
 22 24  1  0
 24 25  2  0
 25 26  1  0
 15 27  1  0
 27 28  2  0
  6 29  1  0
 29 30  2  0
 30  3  1  0
 28 12  1  0
 25 19  1  0
  1 31  1  0
  1 32  1  0
  1 33  1  0
  4 34  1  0
  5 35  1  0
  8 36  1  0
  8 37  1  0
  8 38  1  0
 13 39  1  0
 14 40  1  0
 20 41  1  0
 21 42  1  0
 24 43  1  0
 27 44  1  0
 28 45  1  0
 29 46  1  0
 30 47  1  0
M  CHG  3  18  -1  23  -1  26  -1
M  END
>  <UniqueID>  (49) 
46

>  <SMILES>  (49) 
COc1ccc(N(C)S(=O)(=O)c2ccc(C(=O)[N-]c3ccc([O-])cc3[O-])cc2)cc1

>  <Energy>  (49) 
57.53034500523617

>  <Genealogy>  (49) 
COc1ccc(N(C)S(=O)(=O)c2ccc(C(=O)[N-]c3ccc([O-])cc3[O-])cc2)cc1 (protonated)
COc1ccc(N(C)S(=O)(=O)c2ccc(C(=O)[N-]c3ccc([O-])cc3[O-])cc2)cc1 (3D coordinates assigned)
COc1ccc(N(C)S(=O)(=O)c2ccc(C(=O)[N-]c3ccc([O-])cc3[O-])cc2)cc1 (optimized conformer: 57.53034500523617 kcal/mol)

>  <smiles>  (49) 
COc1ccc(N(C)S(=O)(=O)c2ccc(C(=O)Nc3ccc(O)cc3O)cc2)cc1

>  <score_type>  (49) 
oracle

>  <origin>  (49) 
adgpu

>  <m_score__min__energy>  (49) 
-14.140000000000001

>  <m_primary>  (49) 
energy

$$$$
49:0
     RDKit          3D

 50 53  0  0  0  0  0  0  0  0999 V2000
   -2.0020   21.1110  -33.4700 C   0  0  0  0  0  0  0  0  0  0  0  0
   -2.7000   20.3420  -32.6310 C   0  0  0  0  0  0  0  0  0  0  0  0
   -4.1540   20.0470  -32.8790 C   0  0  0  0  0  0  0  0  0  0  0  0
   -5.0210   21.1290  -32.2870 C   0  0  0  0  0  0  0  0  0  0  0  0
   -4.4450   22.1120  -31.4630 C   0  0  0  0  0  0  0  0  0  0  0  0
   -5.2140   23.1840  -30.9870 C   0  0  0  0  0  0  0  0  0  0  0  0
   -4.5790   24.2560  -30.1900 C   0  0  0  0  0  0  0  0  0  0  0  0
   -5.2530   24.8590  -29.3130 O   0  0  0  0  0  0  0  0  0  0  0  0
   -3.2150   24.6450  -30.4070 N   0  0  0  0  0  0  0  0  0  0  0  0
   -2.0820   24.1590  -29.6680 C   0  0  0  0  0  0  0  0  0  0  0  0
   -1.7780   22.7880  -29.6190 C   0  0  0  0  0  0  0  0  0  0  0  0
   -0.6500   22.3250  -28.9230 C   0  0  0  0  0  0  0  0  0  0  0  0
   -0.3080   20.8850  -28.9330 C   0  0  0  0  0  0  0  0  0  0  0  0
   -0.2430   20.1440  -30.0720 N   0  0  0  0  0  0  0  0  0  0  0  0
    0.0700   18.9240  -29.6120 C   0  0  0  0  0  0  0  0  0  0  0  0
    0.2590   17.7610  -30.3490 C   0  0  0  0  0  0  0  0  0  0  0  0
    0.5800   16.5730  -29.6510 C   0  0  0  0  0  0  0  0  0  0  0  0
    0.7880   15.3000  -30.4270 C   0  0  0  0  0  0  0  0  0  0  0  0
    0.7020   16.5980  -28.2250 C   0  0  0  0  0  0  0  0  0  0  0  0
    1.0390   15.3530  -27.4500 C   0  0  0  0  0  0  0  0  0  0  0  0
    0.5000   17.8110  -27.5250 C   0  0  0  0  0  0  0  0  0  0  0  0
    0.1850   18.9470  -28.2610 C   0  0  0  0  0  0  0  0  0  0  0  0
   -0.0510   20.1820  -27.7970 N   0  0  0  0  0  0  0  0  0  0  0  0
    0.1510   23.2490  -28.2310 C   0  0  0  0  0  0  0  0  0  0  0  0
   -0.1730   24.6090  -28.2400 C   0  0  0  0  0  0  0  0  0  0  0  0
   -1.2860   25.0640  -28.9540 C   0  0  0  0  0  0  0  0  0  0  0  0
   -1.5890   26.4210  -28.9610 O   0  0  0  0  0  0  0  0  0  0  0  0
   -6.5750   23.2560  -31.3170 C   0  0  0  0  0  0  0  0  0  0  0  0
   -7.1560   22.2800  -32.1280 C   0  0  0  0  0  0  0  0  0  0  0  0
   -6.3840   21.2250  -32.6250 C   0  0  0  0  0  0  0  0  0  0  0  0
   -6.9770   20.2830  -33.4580 O   0  0  0  0  0  0  0  0  0  0  0  0
   -0.9394   21.3163  -33.2730 H   0  0  0  0  0  0  0  0  0  0  0  0
   -2.4895   21.5393  -34.3582 H   0  0  0  0  0  0  0  0  0  0  0  0
   -2.2045   19.9179  -31.7453 H   0  0  0  0  0  0  0  0  0  0  0  0
   -4.3325   19.9928  -33.9631 H   0  0  0  0  0  0  0  0  0  0  0  0
   -4.4083   19.0879  -32.4042 H   0  0  0  0  0  0  0  0  0  0  0  0
   -3.3821   22.0396  -31.1893 H   0  0  0  0  0  0  0  0  0  0  0  0
   -2.4323   22.0682  -30.1326 H   0  0  0  0  0  0  0  0  0  0  0  0
    0.1617   17.7641  -31.4447 H   0  0  0  0  0  0  0  0  0  0  0  0
    0.9249   14.4623  -29.7273 H   0  0  0  0  0  0  0  0  0  0  0  0
   -0.0908   15.1089  -31.0604 H   0  0  0  0  0  0  0  0  0  0  0  0
    1.6820   15.3986  -31.0604 H   0  0  0  0  0  0  0  0  0  0  0  0
    0.9816   15.5652  -26.3722 H   0  0  0  0  0  0  0  0  0  0  0  0
    0.3240   14.5572  -27.7056 H   0  0  0  0  0  0  0  0  0  0  0  0
    2.0578   15.0265  -27.7056 H   0  0  0  0  0  0  0  0  0  0  0  0
    0.5897   17.8536  -26.4295 H   0  0  0  0  0  0  0  0  0  0  0  0
    1.0369   22.9008  -27.6797 H   0  0  0  0  0  0  0  0  0  0  0  0
    0.4502   25.3242  -27.6831 H   0  0  0  0  0  0  0  0  0  0  0  0
   -7.1877   24.0858  -30.9348 H   0  0  0  0  0  0  0  0  0  0  0  0
   -8.2256   22.3408  -32.3774 H   0  0  0  0  0  0  0  0  0  0  0  0
  1  2  2  0
  2  3  1  0
  3  4  1  0
  4  5  2  0
  5  6  1  0
  6  7  1  0
  7  8  2  0
  7  9  1  0
  9 10  1  0
 10 11  2  0
 11 12  1  0
 12 13  1  0
 13 14  2  0
 14 15  1  0
 15 16  2  0
 16 17  1  0
 17 18  1  0
 17 19  2  0
 19 20  1  0
 19 21  1  0
 21 22  2  0
 22 23  1  0
 12 24  2  0
 24 25  1  0
 25 26  2  0
 26 27  1  0
  6 28  2  0
 28 29  1  0
 29 30  2  0
 30 31  1  0
 30  4  1  0
 26 10  1  0
 23 13  1  0
 22 15  1  0
  1 32  1  0
  1 33  1  0
  2 34  1  0
  3 35  1  0
  3 36  1  0
  5 37  1  0
 11 38  1  0
 16 39  1  0
 18 40  1  0
 18 41  1  0
 18 42  1  0
 20 43  1  0
 20 44  1  0
 20 45  1  0
 21 46  1  0
 24 47  1  0
 25 48  1  0
 28 49  1  0
 29 50  1  0
M  CHG  4   9  -1  23  -1  27  -1  31  -1
M  END
>  <UniqueID>  (50) 
47

>  <SMILES>  (50) 
C=CCc1cc(C(=O)[N-]c2cc(-c3nc4cc(C)c(C)cc4[n-]3)ccc2[O-])ccc1[O-]

>  <Energy>  (50) 
92.70819394019436

>  <Genealogy>  (50) 
C=CCc1cc(C(=O)[N-]c2cc(-c3nc4cc(C)c(C)cc4[n-]3)ccc2[O-])ccc1[O-] (protonated)
C=CCc1cc(C(=O)[N-]c2cc(-c3nc4cc(C)c(C)cc4[n-]3)ccc2[O-])ccc1[O-] (3D coordinates assigned)
C=CCc1cc(C(=O)[N-]c2cc(-c3nc4cc(C)c(C)cc4[n-]3)ccc2[O-])ccc1[O-] (optimized conformer: 92.70819394019436 kcal/mol)

>  <smiles>  (50) 
C=CCc1cc(C(=O)Nc2cc(-c3nc4cc(C)c(C)cc4[nH]3)ccc2O)ccc1O

>  <score_type>  (50) 
oracle

>  <origin>  (50) 
adgpu

>  <m_score__min__energy>  (50) 
-12.94

>  <m_primary>  (50) 
energy

$$$$
