0:0
     RDKit          3D

 50 53  0  0  0  0  0  0  0  0999 V2000
    0.2231   24.1581  -36.8068 H   0  0  0  0  0  0  0  0  0  0  0  0
    0.6900   23.3310  -36.2520 C   0  0  0  0  0  0  0  0  0  0  0  0
    2.0080   23.0540  -36.4310 N   0  0  0  0  0  0  0  0  0  0  0  0
    2.6180   22.0380  -35.7660 C   0  0  0  0  0  0  0  0  0  0  0  0
    3.6864   21.8364  -35.9330 H   0  0  0  0  0  0  0  0  0  0  0  0
    1.8920   21.2490  -34.8710 C   0  0  0  0  0  0  0  0  0  0  0  0
    2.3846   20.4237  -34.3359 H   0  0  0  0  0  0  0  0  0  0  0  0
    0.5300   21.5150  -34.6580 C   0  0  0  0  0  0  0  0  0  0  0  0
   -0.2410   20.7050  -33.7510 N   0  0  0  0  0  0  0  0  0  0  0  0
   -1.0390   19.5850  -34.2770 C   0  0  0  0  0  0  0  0  0  0  0  0
   -0.3597   18.7840  -34.6040 H   0  0  0  0  0  0  0  0  0  0  0  0
   -1.6409   19.9546  -35.1202 H   0  0  0  0  0  0  0  0  0  0  0  0
   -1.9910   19.0280  -33.2120 C   0  0  0  0  0  0  0  0  0  0  0  0
   -1.4262   18.3953  -32.5115 H   0  0  0  0  0  0  0  0  0  0  0  0
   -2.7744   18.4298  -33.7003 H   0  0  0  0  0  0  0  0  0  0  0  0
   -2.6130   20.1370  -32.4760 N   0  0  0  0  0  0  0  0  0  0  0  0
   -4.0450   20.2680  -32.4100 C   0  0  0  0  0  0  0  0  0  0  0  0
   -4.6300   21.5340  -32.2780 C   0  0  0  0  0  0  0  0  0  0  0  0
   -3.9923   22.4297  -32.2460 H   0  0  0  0  0  0  0  0  0  0  0  0
   -6.0290   21.6680  -32.1860 C   0  0  0  0  0  0  0  0  0  0  0  0
   -6.6050   22.8350  -32.0610 N   0  0  0  0  0  0  0  0  0  0  0  0
   -5.9630   24.1480  -31.9720 C   0  0  0  0  0  0  0  0  0  0  0  0
   -6.7153   24.9307  -32.1491 H   0  0  0  0  0  0  0  0  0  0  0  0
   -5.1677   24.2053  -32.7297 H   0  0  0  0  0  0  0  0  0  0  0  0
   -5.3390   24.3530  -30.5840 C   0  0  0  0  0  0  0  0  0  0  0  0
   -4.9551   23.3895  -30.2176 H   0  0  0  0  0  0  0  0  0  0  0  0
   -6.1140   24.7445  -29.9087 H   0  0  0  0  0  0  0  0  0  0  0  0
   -4.2400   25.3160  -30.6340 N   0  0  0  0  0  0  0  0  0  0  0  0
   -4.1930   25.7220  -31.5970 H   0  0  0  0  0  0  0  0  0  0  0  0
   -4.4440   26.0970  -29.9690 H   0  0  0  0  0  0  0  0  0  0  0  0
   -6.8250   20.5020  -32.2340 C   0  0  0  0  0  0  0  0  0  0  0  0
   -8.2330   20.5570  -32.1530 C   0  0  0  0  0  0  0  0  0  0  0  0
   -8.7365   21.5298  -32.0521 H   0  0  0  0  0  0  0  0  0  0  0  0
   -8.9920   19.3850  -32.2000 C   0  0  0  0  0  0  0  0  0  0  0  0
  -10.0889   19.4389  -32.1375 H   0  0  0  0  0  0  0  0  0  0  0  0
   -8.3620   18.1460  -32.3260 C   0  0  0  0  0  0  0  0  0  0  0  0
   -8.9638   17.2259  -32.3623 H   0  0  0  0  0  0  0  0  0  0  0  0
   -6.9710   18.0710  -32.4060 C   0  0  0  0  0  0  0  0  0  0  0  0
   -6.4810   17.0911  -32.5049 H   0  0  0  0  0  0  0  0  0  0  0  0
   -6.1930   19.2390  -32.3610 C   0  0  0  0  0  0  0  0  0  0  0  0
   -4.8350   19.1580  -32.4410 N   0  0  0  0  0  0  0  0  0  0  0  0
   -4.3840   18.2210  -32.5460 H   0  0  0  0  0  0  0  0  0  0  0  0
   -1.7660   21.1860  -31.8850 C   0  0  0  0  0  0  0  0  0  0  0  0
   -1.8244   21.1185  -30.7886 H   0  0  0  0  0  0  0  0  0  0  0  0
   -2.1293   22.1637  -32.2344 H   0  0  0  0  0  0  0  0  0  0  0  0
   -0.3030   21.0300  -32.3180 C   0  0  0  0  0  0  0  0  0  0  0  0
    0.1651   20.2203  -31.7390 H   0  0  0  0  0  0  0  0  0  0  0  0
    0.2330   21.9730  -32.1353 H   0  0  0  0  0  0  0  0  0  0  0  0
   -0.0740   22.5680  -35.3650 C   0  0  0  0  0  0  0  0  0  0  0  0
   -1.1416   22.7905  -35.2213 H   0  0  0  0  0  0  0  0  0  0  0  0
  1  2  1  0
  2  3  2  0
  3  4  1  0
  4  5  1  0
  4  6  2  0
  6  7  1  0
  6  8  1  0
  8  9  1  0
  9 10  1  0
 10 11  1  0
 10 12  1  0
 10 13  1  0
 13 14  1  0
 13 15  1  0
 13 16  1  0
 16 17  1  0
 17 18  2  0
 18 19  1  0
 18 20  1  0
 20 21  2  0
 21 22  1  0
 22 23  1  0
 22 24  1  0
 22 25  1  0
 25 26  1  0
 25 27  1  0
 25 28  1  0
 28 29  1  0
 28 30  1  0
 20 31  1  0
 31 32  2  0
 32 33  1  0
 32 34  1  0
 34 35  1  0
 34 36  2  0
 36 37  1  0
 36 38  1  0
 38 39  1  0
 38 40  2  0
 40 41  1  0
 41 42  1  0
 16 43  1  0
 43 44  1  0
 43 45  1  0
 43 46  1  0
 46 47  1  0
 46 48  1  0
  8 49  2  0
 49 50  1  0
 49  2  1  0
 46  9  1  0
 41 17  1  0
 40 31  1  0
M  END
>  <UniqueID>  (1) 
1

>  <SMILES>  (1) 
NCC/N=c1\cc(N2CCN(c3ccncc3)CC2)[nH]c2ccccc12

>  <Energy>  (1) 
67.01127861665971

>  <Genealogy>  (1) 
NCC/N=c1\cc(N2CCN(c3ccncc3)CC2)[nH]c2ccccc12 (cis-trans isomerization)
NCC/N=c1\cc(N2CCN(c3ccncc3)CC2)[nH]c2ccccc12 (3D coordinates assigned)
NCC/N=c1\cc(N2CCN(c3ccncc3)CC2)[nH]c2ccccc12 (nonaromatic ring conformer: 67.01127861665971 kcal/mol)

>  <smiles>  (1) 
NCCN=c1cc(N2CCN(c3ccncc3)CC2)[nH]c2ccccc12

>  <score_type>  (1) 
oracle

>  <origin>  (1) 
adgpu

>  <m_score__min__energy>  (1) 
-8.6600000000000001

>  <m_primary>  (1) 
energy

$$$$
1:0
     RDKit          3D

 35 37  0  0  0  0  0  0  0  0999 V2000
   -0.0458   27.7501  -25.5923 H   0  0  0  0  0  0  0  0  0  0  0  0
   -0.6770   26.9820  -26.0630 C   0  0  0  0  0  0  0  0  0  0  0  0
   -1.6310   26.3000  -25.3040 C   0  0  0  0  0  0  0  0  0  0  0  0
   -1.7438   26.5257  -24.2333 H   0  0  0  0  0  0  0  0  0  0  0  0
   -2.4430   25.3310  -25.9020 C   0  0  0  0  0  0  0  0  0  0  0  0
   -3.1823   24.7858  -25.2969 H   0  0  0  0  0  0  0  0  0  0  0  0
   -2.3170   25.0510  -27.2770 C   0  0  0  0  0  0  0  0  0  0  0  0
   -3.1070   24.0390  -27.9250 N   0  0  0  0  0  0  0  0  0  0  0  0
   -3.7950   24.1760  -29.0200 C   0  0  0  0  0  0  0  0  0  0  0  0
   -3.8020   25.2900  -29.7860 N   0  0  0  0  0  0  0  0  0  0  0  0
   -4.5530   25.1640  -30.8780 N   0  0  0  0  0  0  0  0  0  0  0  0
   -5.1350   23.9490  -30.9820 C   0  0  0  0  0  0  0  0  0  0  0  0
   -6.1990   23.4760  -32.3400 S   0  0  0  0  0  0  0  0  0  0  0  0
   -5.6440   21.7410  -32.3210 C   0  0  0  0  0  0  0  0  0  0  0  0
   -5.0655   21.5518  -31.4047 H   0  0  0  0  0  0  0  0  0  0  0  0
   -5.0127   21.5499  -33.2013 H   0  0  0  0  0  0  0  0  0  0  0  0
   -6.8420   20.8260  -32.3560 C   0  0  0  0  0  0  0  0  0  0  0  0
   -8.0930   21.3400  -31.9680 C   0  0  0  0  0  0  0  0  0  0  0  0
   -8.1792   22.3938  -31.6644 H   0  0  0  0  0  0  0  0  0  0  0  0
   -9.2260   20.5240  -31.9650 C   0  0  0  0  0  0  0  0  0  0  0  0
  -10.1997   20.9381  -31.6644 H   0  0  0  0  0  0  0  0  0  0  0  0
   -9.1260   19.1860  -32.3420 C   0  0  0  0  0  0  0  0  0  0  0  0
  -10.0223   18.5483  -32.3472 H   0  0  0  0  0  0  0  0  0  0  0  0
   -7.8900   18.6540  -32.7130 C   0  0  0  0  0  0  0  0  0  0  0  0
   -7.8182   17.5968  -33.0081 H   0  0  0  0  0  0  0  0  0  0  0  0
   -6.7360   19.4570  -32.7130 C   0  0  0  0  0  0  0  0  0  0  0  0
   -5.4210   18.8480  -33.1240 C   0  0  0  0  0  0  0  0  0  0  0  0
   -4.8441   18.5808  -32.2263 H   0  0  0  0  0  0  0  0  0  0  0  0
   -5.6067   17.9442  -33.7229 H   0  0  0  0  0  0  0  0  0  0  0  0
   -4.8519   19.5742  -33.7229 H   0  0  0  0  0  0  0  0  0  0  0  0
   -4.7270   22.9470  -29.6910 S   0  0  0  0  0  0  0  0  0  0  0  0
   -1.3340   25.7190  -28.0240 C   0  0  0  0  0  0  0  0  0  0  0  0
   -1.1710   25.4400  -29.3410 F   0  0  0  0  0  0  0  0  0  0  0  0
   -0.5250   26.6880  -27.4200 C   0  0  0  0  0  0  0  0  0  0  0  0
    0.2323   27.2193  -28.0152 H   0  0  0  0  0  0  0  0  0  0  0  0
  1  2  1  0
  2  3  2  0
  3  4  1  0
  3  5  1  0
  5  6  1  0
  5  7  2  0
  7  8  1  0
  8  9  2  0
  9 10  1  0
 10 11  1  0
 11 12  2  0
 12 13  1  0
 13 14  1  0
 14 15  1  0
 14 16  1  0
 14 17  1  0
 17 18  2  0
 18 19  1  0
 18 20  1  0
 20 21  1  0
 20 22  2  0
 22 23  1  0
 22 24  1  0
 24 25  1  0
 24 26  2  0
 26 27  1  0
 27 28  1  0
 27 29  1  0
 27 30  1  0
 12 31  1  0
  7 32  1  0
 32 33  1  0
 32 34  2  0
 34 35  1  0
 34  2  1  0
 31  9  1  0
 26 17  1  0
M  CHG  1  10  -1
M  END
>  <UniqueID>  (2) 
2

>  <SMILES>  (2) 
Cc1ccccc1CSc1n[n-]/c(=N\c2ccccc2F)s1

>  <Energy>  (2) 
74.62326267578469

>  <Genealogy>  (2) 
Cc1ccccc1CSc1n[n-]c(=Nc2ccccc2F)s1 (protonated)
Cc1ccccc1CSc1n[n-]/c(=N\c2ccccc2F)s1 (cis-trans isomerization)
Cc1ccccc1CSc1n[n-]/c(=N\c2ccccc2F)s1 (3D coordinates assigned)
Cc1ccccc1CSc1n[n-]/c(=N\c2ccccc2F)s1 (optimized conformer: 74.62326267578469 kcal/mol)

>  <smiles>  (2) 
Cc1ccccc1CSc1n[nH]c(=Nc2ccccc2F)s1

>  <score_type>  (2) 
oracle

>  <origin>  (2) 
adgpu

>  <m_score__min__energy>  (2) 
-10.130000000000001

>  <m_primary>  (2) 
energy

$$$$
2:0
     RDKit          3D

 47 49  0  0  0  0  0  0  0  0999 V2000
   -2.8288   23.0172  -32.5793 H   0  0  0  0  0  0  0  0  0  0  0  0
   -3.7150   22.6730  -32.0260 C   0  0  0  0  0  0  0  0  0  0  0  0
   -4.7470   22.2730  -32.7130 N   0  0  0  0  0  0  0  0  0  0  0  0
   -6.0500   21.9440  -32.2030 C   0  0  0  0  0  0  0  0  0  0  0  0
   -6.8460   22.9260  -31.5850 C   0  0  0  0  0  0  0  0  0  0  0  0
   -6.4725   23.9569  -31.4976 H   0  0  0  0  0  0  0  0  0  0  0  0
   -8.1070   22.6000  -31.0820 C   0  0  0  0  0  0  0  0  0  0  0  0
   -8.7183   23.3704  -30.5892 H   0  0  0  0  0  0  0  0  0  0  0  0
   -8.5920   21.2980  -31.2040 C   0  0  0  0  0  0  0  0  0  0  0  0
   -9.5824   21.0409  -30.8003 H   0  0  0  0  0  0  0  0  0  0  0  0
   -7.8220   20.3200  -31.8380 C   0  0  0  0  0  0  0  0  0  0  0  0
   -8.2103   19.2951  -31.9316 H   0  0  0  0  0  0  0  0  0  0  0  0
   -6.5550   20.6360  -32.3570 C   0  0  0  0  0  0  0  0  0  0  0  0
   -5.7750   19.6150  -33.0040 N   0  0  0  0  0  0  0  0  0  0  0  0
   -4.5420   19.1230  -32.3680 C   0  0  0  0  0  0  0  0  0  0  0  0
   -4.0723   19.9452  -31.8082 H   0  0  0  0  0  0  0  0  0  0  0  0
   -4.8010   18.2965  -31.6898 H   0  0  0  0  0  0  0  0  0  0  0  0
   -3.5560   18.6040  -33.4200 C   0  0  0  0  0  0  0  0  0  0  0  0
   -3.2342   19.4454  -34.0512 H   0  0  0  0  0  0  0  0  0  0  0  0
   -2.7020   18.1534  -32.8931 H   0  0  0  0  0  0  0  0  0  0  0  0
   -4.1870   17.5230  -34.3160 C   0  0  0  0  0  0  0  0  0  0  0  0
   -3.6551   17.5171  -35.2788 H   0  0  0  0  0  0  0  0  0  0  0  0
   -4.0955   16.5681  -33.7777 H   0  0  0  0  0  0  0  0  0  0  0  0
   -5.6890   17.7400  -34.5920 C   0  0  0  0  0  0  0  0  0  0  0  0
   -5.8982   17.4679  -35.6371 H   0  0  0  0  0  0  0  0  0  0  0  0
   -6.2519   17.1091  -33.8884 H   0  0  0  0  0  0  0  0  0  0  0  0
   -6.1250   19.1900  -34.3660 C   0  0  0  0  0  0  0  0  0  0  0  0
   -5.6160   19.8406  -35.0924 H   0  0  0  0  0  0  0  0  0  0  0  0
   -7.2146   19.2634  -34.4977 H   0  0  0  0  0  0  0  0  0  0  0  0
   -3.6610   22.6930  -30.5460 C   0  0  0  0  0  0  0  0  0  0  0  0
   -3.4180   21.5100  -29.8250 C   0  0  0  0  0  0  0  0  0  0  0  0
   -3.2863   20.5594  -30.3626 H   0  0  0  0  0  0  0  0  0  0  0  0
   -3.3430   21.5350  -28.4310 C   0  0  0  0  0  0  0  0  0  0  0  0
   -3.1685   20.6030  -27.8734 H   0  0  0  0  0  0  0  0  0  0  0  0
   -3.4890   22.7400  -27.7450 C   0  0  0  0  0  0  0  0  0  0  0  0
   -3.4356   22.7561  -26.6464 H   0  0  0  0  0  0  0  0  0  0  0  0
   -3.7030   23.9270  -28.4500 C   0  0  0  0  0  0  0  0  0  0  0  0
   -3.8073   24.8762  -27.9040 H   0  0  0  0  0  0  0  0  0  0  0  0
   -3.7860   23.9150  -29.8580 C   0  0  0  0  0  0  0  0  0  0  0  0
   -4.0010   25.0910  -30.5960 O   0  0  0  0  0  0  0  0  0  0  0  0
   -5.2770   25.6780  -30.8320 C   0  0  0  0  0  0  0  0  0  0  0  0
   -5.7674   25.1641  -31.6719 H   0  0  0  0  0  0  0  0  0  0  0  0
   -5.1511   26.7430  -31.0770 H   0  0  0  0  0  0  0  0  0  0  0  0
   -6.1350   25.5430  -29.5850 C   0  0  0  0  0  0  0  0  0  0  0  0
   -5.5013   25.6427  -28.6914 H   0  0  0  0  0  0  0  0  0  0  0  0
   -6.9020   26.3315  -29.5805 H   0  0  0  0  0  0  0  0  0  0  0  0
   -6.6228   24.5571  -29.5805 H   0  0  0  0  0  0  0  0  0  0  0  0
  1  2  1  0
  2  3  2  0
  3  4  1  0
  4  5  2  0
  5  6  1  0
  5  7  1  0
  7  8  1  0
  7  9  2  0
  9 10  1  0
  9 11  1  0
 11 12  1  0
 11 13  2  0
 13 14  1  0
 14 15  1  0
 15 16  1  0
 15 17  1  0
 15 18  1  0
 18 19  1  0
 18 20  1  0
 18 21  1  0
 21 22  1  0
 21 23  1  0
 21 24  1  0
 24 25  1  0
 24 26  1  0
 24 27  1  0
 27 28  1  0
 27 29  1  0
  2 30  1  0
 30 31  2  0
 31 32  1  0
 31 33  1  0
 33 34  1  0
 33 35  2  0
 35 36  1  0
 35 37  1  0
 37 38  1  0
 37 39  2  0
 39 40  1  0
 40 41  1  0
 41 42  1  0
 41 43  1  0
 41 44  1  0
 44 45  1  0
 44 46  1  0
 44 47  1  0
 13  4  1  0
 27 14  1  0
 39 30  1  0
M  END
>  <UniqueID>  (3) 
3

>  <SMILES>  (3) 
CCOc1ccccc1/C=N\c1ccccc1N1CCCCC1

>  <Energy>  (3) 
61.580836832649844

>  <Genealogy>  (3) 
CCOc1ccccc1/C=N\c1ccccc1N1CCCCC1 (cis-trans isomerization)
CCOc1ccccc1/C=N\c1ccccc1N1CCCCC1 (3D coordinates assigned)
CCOc1ccccc1/C=N\c1ccccc1N1CCCCC1 (nonaromatic ring conformer: 61.580836832649844 kcal/mol)

>  <smiles>  (3) 
CCOc1ccccc1C=Nc1ccccc1N1CCCCC1

>  <score_type>  (3) 
oracle

>  <origin>  (3) 
adgpu

>  <m_score__min__energy>  (3) 
-8.4900000000000002

>  <m_primary>  (3) 
energy

$$$$
3:0
     RDKit          3D

 30 31  0  0  0  0  0  0  0  0999 V2000
   -6.7250   17.8500  -31.7640 C   0  0  0  0  0  0  0  0  0  0  0  0
   -7.7610   18.4570  -32.7010 C   0  0  0  0  0  0  0  0  0  0  0  0
   -8.1180   19.8440  -32.2650 C   0  0  0  0  0  0  0  0  0  0  0  0
   -9.4050   20.2730  -32.3460 N   0  0  0  0  0  0  0  0  0  0  0  0
   -9.7410   21.5360  -31.9820 C   0  0  0  0  0  0  0  0  0  0  0  0
   -8.7600   22.4170  -31.5280 C   0  0  0  0  0  0  0  0  0  0  0  0
   -7.4300   21.9730  -31.4670 C   0  0  0  0  0  0  0  0  0  0  0  0
   -6.3300   22.8540  -30.9970 C   0  0  0  0  0  0  0  0  0  0  0  0
   -6.5790   24.1610  -30.5380 C   0  0  0  0  0  0  0  0  0  0  0  0
   -5.5290   24.9770  -30.1070 C   0  0  0  0  0  0  0  0  0  0  0  0
   -4.2040   24.5040  -30.1320 C   0  0  0  0  0  0  0  0  0  0  0  0
   -3.1170   25.2830  -29.7080 O   0  0  0  0  0  0  0  0  0  0  0  0
   -2.2340   24.9230  -28.6510 C   0  0  0  0  0  0  0  0  0  0  0  0
   -3.9520   23.2090  -30.5970 C   0  0  0  0  0  0  0  0  0  0  0  0
   -5.0010   22.3920  -31.0290 C   0  0  0  0  0  0  0  0  0  0  0  0
   -7.1470   20.6930  -31.8370 N   0  0  0  0  0  0  0  0  0  0  0  0
   -7.0261   18.0264  -30.7208 H   0  0  0  0  0  0  0  0  0  0  0  0
   -6.6544   16.7677  -31.9472 H   0  0  0  0  0  0  0  0  0  0  0  0
   -5.7463   18.3175  -31.9472 H   0  0  0  0  0  0  0  0  0  0  0  0
   -7.3491   18.4933  -33.7203 H   0  0  0  0  0  0  0  0  0  0  0  0
   -8.6674   17.8341  -32.6785 H   0  0  0  0  0  0  0  0  0  0  0  0
  -10.7886   21.8655  -32.0451 H   0  0  0  0  0  0  0  0  0  0  0  0
   -9.0236   23.4406  -31.2234 H   0  0  0  0  0  0  0  0  0  0  0  0
   -7.6099   24.5441  -30.5182 H   0  0  0  0  0  0  0  0  0  0  0  0
   -5.7397   25.9946  -29.7463 H   0  0  0  0  0  0  0  0  0  0  0  0
   -2.7196   25.1210  -27.6841 H   0  0  0  0  0  0  0  0  0  0  0  0
   -1.9891   23.8532  -28.7261 H   0  0  0  0  0  0  0  0  0  0  0  0
   -1.3110   25.5166  -28.7261 H   0  0  0  0  0  0  0  0  0  0  0  0
   -2.9196   22.8302  -30.6230 H   0  0  0  0  0  0  0  0  0  0  0  0
   -4.7855   21.3782  -31.3975 H   0  0  0  0  0  0  0  0  0  0  0  0
  1  2  1  0
  2  3  1  0
  3  4  2  0
  4  5  1  0
  5  6  2  0
  6  7  1  0
  7  8  1  0
  8  9  2  0
  9 10  1  0
 10 11  2  0
 11 12  1  0
 12 13  1  0
 11 14  1  0
 14 15  2  0
  7 16  2  0
 16  3  1  0
 15  8  1  0
  1 17  1  0
  1 18  1  0
  1 19  1  0
  2 20  1  0
  2 21  1  0
  5 22  1  0
  6 23  1  0
  9 24  1  0
 10 25  1  0
 13 26  1  0
 13 27  1  0
 13 28  1  0
 14 29  1  0
 15 30  1  0
M  END
>  <UniqueID>  (4) 
4

>  <SMILES>  (4) 
CCc1nccc(-c2ccc(OC)cc2)n1

>  <Energy>  (4) 
30.490815299462895

>  <Genealogy>  (4) 
CCc1nccc(-c2ccc(OC)cc2)n1 (3D coordinates assigned)
CCc1nccc(-c2ccc(OC)cc2)n1 (optimized conformer: 30.490815299462895 kcal/mol)

>  <smiles>  (4) 
CCc1nccc(-c2ccc(OC)cc2)n1

>  <score_type>  (4) 
oracle

>  <origin>  (4) 
adgpu

>  <m_score__min__energy>  (4) 
-7.0300000000000002

>  <m_primary>  (4) 
energy

$$$$
4:0
     RDKit          3D

 28 29  0  0  0  0  0  0  0  0999 V2000
   -6.2010   18.9010  -31.1930 O   0  0  0  0  0  0  0  0  0  0  0  0
   -6.4800   19.6450  -32.1720 C   0  0  0  0  0  0  0  0  0  0  0  0
   -6.5910   19.0870  -33.4910 N   0  0  0  0  0  0  0  0  0  0  0  0
   -6.0030   17.8340  -33.8810 C   0  0  0  0  0  0  0  0  0  0  0  0
   -6.6990   16.6200  -33.7180 C   0  0  0  0  0  0  0  0  0  0  0  0
   -6.1000   15.4100  -34.0800 C   0  0  0  0  0  0  0  0  0  0  0  0
   -4.8020   15.3950  -34.5950 C   0  0  0  0  0  0  0  0  0  0  0  0
   -4.2230   14.2190  -34.9430 F   0  0  0  0  0  0  0  0  0  0  0  0
   -4.0960   16.5910  -34.7420 C   0  0  0  0  0  0  0  0  0  0  0  0
   -4.6890   17.8060  -34.3810 C   0  0  0  0  0  0  0  0  0  0  0  0
   -3.9870   18.9570  -34.5330 F   0  0  0  0  0  0  0  0  0  0  0  0
   -6.7830   21.0750  -31.9320 C   0  0  0  0  0  0  0  0  0  0  0  0
   -5.7200   21.9630  -31.6930 C   0  0  0  0  0  0  0  0  0  0  0  0
   -5.9590   23.3270  -31.4420 C   0  0  0  0  0  0  0  0  0  0  0  0
   -4.8660   24.2300  -31.1860 N   0  0  0  0  0  0  0  0  0  0  0  0
   -5.0410   25.4650  -31.2070 O   0  0  0  0  0  0  0  0  0  0  0  0
   -3.6080   23.7430  -30.9130 O   0  0  0  0  0  0  0  0  0  0  0  0
   -7.2810   23.7970  -31.4430 C   0  0  0  0  0  0  0  0  0  0  0  0
   -8.3410   22.9270  -31.6980 C   0  0  0  0  0  0  0  0  0  0  0  0
   -8.1050   21.5710  -31.9470 C   0  0  0  0  0  0  0  0  0  0  0  0
   -9.4860   20.5570  -32.3580 Cl  0  0  0  0  0  0  0  0  0  0  0  0
   -7.2030   19.5830  -34.1780 H   0  0  0  0  0  0  0  0  0  0  0  0
   -7.7181   16.6243  -33.3041 H   0  0  0  0  0  0  0  0  0  0  0  0
   -6.6527   14.4667  -33.9588 H   0  0  0  0  0  0  0  0  0  0  0  0
   -3.0716   16.5779  -35.1424 H   0  0  0  0  0  0  0  0  0  0  0  0
   -4.6865   21.5864  -31.7023 H   0  0  0  0  0  0  0  0  0  0  0  0
   -7.4830   24.8593  -31.2412 H   0  0  0  0  0  0  0  0  0  0  0  0
   -9.3719   23.3108  -31.7033 H   0  0  0  0  0  0  0  0  0  0  0  0
  1  2  2  0
  2  3  1  0
  3  4  1  0
  4  5  2  0
  5  6  1  0
  6  7  2  0
  7  8  1  0
  7  9  1  0
  9 10  2  0
 10 11  1  0
  2 12  1  0
 12 13  2  0
 13 14  1  0
 14 15  1  0
 15 16  2  0
 15 17  1  0
 14 18  2  0
 18 19  1  0
 19 20  2  0
 20 21  1  0
 10  4  1  0
 20 12  1  0
  3 22  1  0
  5 23  1  0
  6 24  1  0
  9 25  1  0
 13 26  1  0
 18 27  1  0
 19 28  1  0
M  CHG  2  15   1  17  -1
M  END
>  <UniqueID>  (5) 
5

>  <SMILES>  (5) 
O=C(Nc1ccc(F)cc1F)c1cc([N+](=O)[O-])ccc1Cl

>  <Energy>  (5) 
39.40195371382567

>  <Genealogy>  (5) 
O=C(Nc1ccc(F)cc1F)c1cc([N+](=O)[O-])ccc1Cl (3D coordinates assigned)
O=C(Nc1ccc(F)cc1F)c1cc([N+](=O)[O-])ccc1Cl (optimized conformer: 39.40195371382567 kcal/mol)

>  <smiles>  (5) 
O=C(Nc1ccc(F)cc1F)c1cc([N+](=O)[O-])ccc1Cl

>  <score_type>  (5) 
oracle

>  <origin>  (5) 
adgpu

>  <m_score__min__energy>  (5) 
-8

>  <m_primary>  (5) 
energy

$$$$
5:0
     RDKit          3D

 50 53  0  0  0  0  0  0  0  0999 V2000
   -9.7094   20.4314  -32.4079 H   0  0  0  0  0  0  0  0  0  0  0  0
   -8.6200   20.2860  -32.4540 C   0  0  0  0  0  0  0  0  0  0  0  0
   -8.1090   19.1740  -33.0430 N   0  0  0  0  0  0  0  0  0  0  0  0
   -6.7680   18.9390  -33.1300 C   0  0  0  0  0  0  0  0  0  0  0  0
   -6.2910   17.7280  -33.7730 N   0  0  0  0  0  0  0  0  0  0  0  0
   -6.8420   16.4140  -33.4020 C   0  0  0  0  0  0  0  0  0  0  0  0
   -6.6508   16.2345  -32.3337 H   0  0  0  0  0  0  0  0  0  0  0  0
   -7.9222   16.4205  -33.6097 H   0  0  0  0  0  0  0  0  0  0  0  0
   -6.2010   15.2880  -34.2190 C   0  0  0  0  0  0  0  0  0  0  0  0
   -6.4445   14.3191  -33.7586 H   0  0  0  0  0  0  0  0  0  0  0  0
   -6.5907   15.3194  -35.2472 H   0  0  0  0  0  0  0  0  0  0  0  0
   -4.7440   15.4600  -34.2490 N   0  0  0  0  0  0  0  0  0  0  0  0
   -4.3800   15.4630  -33.2660 H   0  0  0  0  0  0  0  0  0  0  0  0
   -4.3190   14.6410  -34.7420 H   0  0  0  0  0  0  0  0  0  0  0  0
   -4.3250   16.7040  -34.9310 C   0  0  0  0  0  0  0  0  0  0  0  0
   -3.4339   17.0951  -34.4182 H   0  0  0  0  0  0  0  0  0  0  0  0
   -4.1309   16.4388  -35.9808 H   0  0  0  0  0  0  0  0  0  0  0  0
   -5.4010   17.8120  -34.9450 C   0  0  0  0  0  0  0  0  0  0  0  0
   -4.9021   18.7924  -34.9433 H   0  0  0  0  0  0  0  0  0  0  0  0
   -6.0140   17.6809  -35.8489 H   0  0  0  0  0  0  0  0  0  0  0  0
   -5.8800   19.8890  -32.5850 C   0  0  0  0  0  0  0  0  0  0  0  0
   -4.7944   19.7210  -32.6421 H   0  0  0  0  0  0  0  0  0  0  0  0
   -6.3780   21.0500  -31.9690 C   0  0  0  0  0  0  0  0  0  0  0  0
   -5.4530   22.0580  -31.3870 C   0  0  0  0  0  0  0  0  0  0  0  0
   -4.1080   21.7330  -31.1470 C   0  0  0  0  0  0  0  0  0  0  0  0
   -3.7379   20.7260  -31.3897 H   0  0  0  0  0  0  0  0  0  0  0  0
   -3.2380   22.6780  -30.6030 C   0  0  0  0  0  0  0  0  0  0  0  0
   -2.1837   22.4144  -30.4329 H   0  0  0  0  0  0  0  0  0  0  0  0
   -3.6950   23.9580  -30.2720 C   0  0  0  0  0  0  0  0  0  0  0  0
   -2.7570   24.9040  -29.7320 N   0  0  0  0  0  0  0  0  0  0  0  0
   -2.0750   24.7480  -28.6350 C   0  0  0  0  0  0  0  0  0  0  0  0
   -2.1440   23.5880  -27.9220 N   0  0  0  0  0  0  0  0  0  0  0  0
   -1.4250   23.3990  -26.7830 C   0  0  0  0  0  0  0  0  0  0  0  0
   -1.5086   22.4515  -26.2304 H   0  0  0  0  0  0  0  0  0  0  0  0
   -0.5800   24.4090  -26.3150 C   0  0  0  0  0  0  0  0  0  0  0  0
    0.3500   24.1780  -24.8460 Cl  0  0  0  0  0  0  0  0  0  0  0  0
   -0.4840   25.6030  -27.0310 C   0  0  0  0  0  0  0  0  0  0  0  0
    0.1778   26.4068  -26.6762 H   0  0  0  0  0  0  0  0  0  0  0  0
   -1.2300   25.7750  -28.1990 C   0  0  0  0  0  0  0  0  0  0  0  0
   -1.1540   26.7108  -28.7721 H   0  0  0  0  0  0  0  0  0  0  0  0
   -5.0310   24.3170  -30.5400 C   0  0  0  0  0  0  0  0  0  0  0  0
   -5.4480   25.6320  -30.2780 O   0  0  0  0  0  0  0  0  0  0  0  0
   -6.4660   25.9900  -29.3510 C   0  0  0  0  0  0  0  0  0  0  0  0
   -6.0909   25.8581  -28.3254 H   0  0  0  0  0  0  0  0  0  0  0  0
   -6.7492   27.0416  -29.5054 H   0  0  0  0  0  0  0  0  0  0  0  0
   -7.3451   25.3471  -29.5054 H   0  0  0  0  0  0  0  0  0  0  0  0
   -5.9070   23.3540  -31.0820 C   0  0  0  0  0  0  0  0  0  0  0  0
   -6.9581   23.6195  -31.2685 H   0  0  0  0  0  0  0  0  0  0  0  0
   -7.7670   21.2430  -31.9080 C   0  0  0  0  0  0  0  0  0  0  0  0
   -8.1798   22.1446  -31.4319 H   0  0  0  0  0  0  0  0  0  0  0  0
  1  2  1  0
  2  3  2  0
  3  4  1  0
  4  5  1  0
  5  6  1  0
  6  7  1  0
  6  8  1  0
  6  9  1  0
  9 10  1  0
  9 11  1  0
  9 12  1  0
 12 13  1  0
 12 14  1  0
 12 15  1  0
 15 16  1  0
 15 17  1  0
 15 18  1  0
 18 19  1  0
 18 20  1  0
  4 21  2  0
 21 22  1  0
 21 23  1  0
 23 24  1  0
 24 25  2  0
 25 26  1  0
 25 27  1  0
 27 28  1  0
 27 29  2  0
 29 30  1  0
 30 31  2  0
 31 32  1  0
 32 33  1  0
 33 34  1  0
 33 35  2  0
 35 36  1  0
 35 37  1  0
 37 38  1  0
 37 39  2  0
 39 40  1  0
 29 41  1  0
 41 42  1  0
 42 43  1  0
 43 44  1  0
 43 45  1  0
 43 46  1  0
 41 47  2  0
 47 48  1  0
 23 49  2  0
 49 50  1  0
 49  2  1  0
 18  5  1  0
 47 24  1  0
 39 31  1  0
M  CHG  2  12   1  32  -1
M  END
>  <UniqueID>  (6) 
6

>  <SMILES>  (6) 
COc1cc(-c2ccnc(N3CC[NH2+]CC3)c2)ccc1/N=c1/ccc(Cl)c[n-]1

>  <Energy>  (6) 
73.64731504232233

>  <Genealogy>  (6) 
COc1cc(-c2ccnc(N3CC[NH2+]CC3)c2)ccc1N=c1ccc(Cl)c[n-]1 (protonated)
COc1cc(-c2ccnc(N3CC[NH2+]CC3)c2)ccc1/N=c1/ccc(Cl)c[n-]1 (cis-trans isomerization)
COc1cc(-c2ccnc(N3CC[NH2+]CC3)c2)ccc1/N=c1/ccc(Cl)c[n-]1 (3D coordinates assigned)
COc1cc(-c2ccnc(N3CC[NH2+]CC3)c2)ccc1/N=c1/ccc(Cl)c[n-]1 (nonaromatic ring conformer: 73.64731504232233 kcal/mol)

>  <smiles>  (6) 
COc1cc(-c2ccnc(N3CCNCC3)c2)ccc1N=c1ccc(Cl)c[nH]1

>  <score_type>  (6) 
oracle

>  <origin>  (6) 
adgpu

>  <m_score__min__energy>  (6) 
-9.6300000000000008

>  <m_primary>  (6) 
energy

$$$$
6:0
     RDKit          3D

 39 42  0  0  0  0  0  0  0  0999 V2000
   -0.5610   22.5550  -25.9220 Cl  0  0  0  0  0  0  0  0  0  0  0  0
   -1.8790   22.6460  -27.0760 C   0  0  0  0  0  0  0  0  0  0  0  0
   -2.4360   21.4730  -27.5950 C   0  0  0  0  0  0  0  0  0  0  0  0
   -3.4860   21.5430  -28.5160 C   0  0  0  0  0  0  0  0  0  0  0  0
   -3.9850   22.7910  -28.9300 C   0  0  0  0  0  0  0  0  0  0  0  0
   -5.0940   22.8630  -29.9110 C   0  0  0  0  0  0  0  0  0  0  0  0
   -6.1610   23.5600  -29.7220 N   0  0  0  0  0  0  0  0  0  0  0  0
   -7.0330   23.3250  -30.7550 O   0  0  0  0  0  0  0  0  0  0  0  0
   -6.4800   22.4030  -31.6860 C   0  0  2  0  0  0  0  0  0  0  0  0
   -7.3390   21.1680  -31.7740 C   0  0  0  0  0  0  0  0  0  0  0  0
   -6.7730   19.8940  -31.6220 C   0  0  0  0  0  0  0  0  0  0  0  0
   -7.5820   18.7580  -31.6920 C   0  0  0  0  0  0  0  0  0  0  0  0
   -8.9520   18.9050  -31.9150 C   0  0  0  0  0  0  0  0  0  0  0  0
   -9.4890   20.1460  -32.0610 N   0  0  0  0  0  0  0  0  0  0  0  0
   -8.7230   21.2670  -31.9970 C   0  0  0  0  0  0  0  0  0  0  0  0
   -5.1650   22.0920  -31.1160 N   0  0  0  0  0  0  0  0  0  0  0  0
   -4.0470   21.6510  -31.9050 C   0  0  0  0  0  0  0  0  0  0  0  0
   -2.7390   21.9810  -31.5150 C   0  0  0  0  0  0  0  0  0  0  0  0
   -1.6460   21.5540  -32.2750 C   0  0  0  0  0  0  0  0  0  0  0  0
   -1.8490   20.7880  -33.4260 C   0  0  0  0  0  0  0  0  0  0  0  0
   -0.4770   20.2540  -34.3790 Cl  0  0  0  0  0  0  0  0  0  0  0  0
   -3.1470   20.4480  -33.8180 C   0  0  0  0  0  0  0  0  0  0  0  0
   -4.2430   20.8730  -33.0590 C   0  0  0  0  0  0  0  0  0  0  0  0
   -3.4230   23.9640  -28.3980 C   0  0  0  0  0  0  0  0  0  0  0  0
   -2.3740   23.8900  -27.4770 C   0  0  0  0  0  0  0  0  0  0  0  0
   -2.0476   20.4938  -27.2783 H   0  0  0  0  0  0  0  0  0  0  0  0
   -3.9237   20.6176  -28.9185 H   0  0  0  0  0  0  0  0  0  0  0  0
   -6.3730   24.1620  -28.8970 H   0  0  0  0  0  0  0  0  0  0  0  0
   -6.4154   22.8013  -32.7093 H   0  0  0  0  0  0  0  0  0  0  0  0
   -5.6919   19.7896  -31.4477 H   0  0  0  0  0  0  0  0  0  0  0  0
   -7.1436   17.7563  -31.5725 H   0  0  0  0  0  0  0  0  0  0  0  0
   -9.5979   18.0164  -31.9727 H   0  0  0  0  0  0  0  0  0  0  0  0
   -9.1884   22.2560  -32.1203 H   0  0  0  0  0  0  0  0  0  0  0  0
   -2.5735   22.5787  -30.6065 H   0  0  0  0  0  0  0  0  0  0  0  0
   -0.6246   21.8214  -31.9664 H   0  0  0  0  0  0  0  0  0  0  0  0
   -3.3070   19.8456  -34.7243 H   0  0  0  0  0  0  0  0  0  0  0  0
   -5.2624   20.5970  -33.3668 H   0  0  0  0  0  0  0  0  0  0  0  0
   -3.8106   24.9457  -28.7080 H   0  0  0  0  0  0  0  0  0  0  0  0
   -1.9373   24.8126  -27.0671 H   0  0  0  0  0  0  0  0  0  0  0  0
  1  2  1  0
  2  3  2  0
  3  4  1  0
  4  5  2  0
  5  6  1  0
  6  7  2  0
  7  8  1  0
  8  9  1  0
  9 10  1  0
 10 11  2  0
 11 12  1  0
 12 13  2  0
 13 14  1  0
 14 15  2  0
  9 16  1  0
 16 17  1  0
 17 18  2  0
 18 19  1  0
 19 20  2  0
 20 21  1  0
 20 22  1  0
 22 23  2  0
  5 24  1  0
 24 25  2  0
 25  2  1  0
 16  6  1  0
 23 17  1  0
 15 10  1  0
  3 26  1  0
  4 27  1  0
  7 28  1  0
  9 29  1  6
 11 30  1  0
 12 31  1  0
 13 32  1  0
 15 33  1  0
 18 34  1  0
 19 35  1  0
 22 36  1  0
 23 37  1  0
 24 38  1  0
 25 39  1  0
M  CHG  1   7   1
M  END
>  <UniqueID>  (7) 
7

>  <SMILES>  (7) 
Clc1ccc(C2=[NH+]O[C@H](c3cccnc3)N2c2ccc(Cl)cc2)cc1

>  <Energy>  (7) 
73.32005742940964

>  <Genealogy>  (7) 
Clc1ccc(C2=[NH+]OC(c3cccnc3)N2c2ccc(Cl)cc2)cc1 (protonated)
Clc1ccc(C2=[NH+]O[C@H](c3cccnc3)N2c2ccc(Cl)cc2)cc1 (chirality)
Clc1ccc(C2=[NH+]O[C@H](c3cccnc3)N2c2ccc(Cl)cc2)cc1 (3D coordinates assigned)
Clc1ccc(C2=[NH+]O[C@H](c3cccnc3)N2c2ccc(Cl)cc2)cc1 (nonaromatic ring conformer: 73.32005742940964 kcal/mol)

>  <smiles>  (7) 
Clc1ccc(C2=NOC(c3cccnc3)N2c2ccc(Cl)cc2)cc1

>  <score_type>  (7) 
oracle

>  <origin>  (7) 
adgpu

>  <m_score__min__energy>  (7) 
-7.7800000000000002

>  <m_primary>  (7) 
energy

$$$$
7:0
     RDKit          3D

 27 28  0  0  0  0  0  0  0  0999 V2000
   -5.7390   25.7030  -30.4680 C   0  0  0  0  0  0  0  0  0  0  0  0
   -5.9400   24.3190  -30.9950 C   0  0  0  0  0  0  0  0  0  0  0  0
   -4.8700   23.5930  -31.4070 N   0  0  0  0  0  0  0  0  0  0  0  0
   -5.0140   22.3360  -31.8930 C   0  0  0  0  0  0  0  0  0  0  0  0
   -3.9910   21.6920  -32.2490 O   0  0  0  0  0  0  0  0  0  0  0  0
   -6.2920   21.7580  -31.9830 C   0  0  0  0  0  0  0  0  0  0  0  0
   -6.4540   20.3770  -32.4970 C   0  0  0  0  0  0  0  0  0  0  0  0
   -7.0840   19.3960  -31.7140 C   0  0  0  0  0  0  0  0  0  0  0  0
   -7.2320   18.0940  -32.2020 C   0  0  0  0  0  0  0  0  0  0  0  0
   -6.7460   17.7630  -33.4700 C   0  0  0  0  0  0  0  0  0  0  0  0
   -6.1110   18.7320  -34.2510 C   0  0  0  0  0  0  0  0  0  0  0  0
   -5.9620   20.0350  -33.7670 C   0  0  0  0  0  0  0  0  0  0  0  0
   -7.4000   22.5360  -31.5750 C   0  0  0  0  0  0  0  0  0  0  0  0
   -8.8070   22.0050  -31.6590 C   0  0  0  0  0  0  0  0  0  0  0  0
   -7.1920   23.7900  -31.0780 N   0  0  0  0  0  0  0  0  0  0  0  0
   -5.7422   25.6806  -29.3682 H   0  0  0  0  0  0  0  0  0  0  0  0
   -4.7746   26.0944  -30.8239 H   0  0  0  0  0  0  0  0  0  0  0  0
   -6.5522   26.3526  -30.8239 H   0  0  0  0  0  0  0  0  0  0  0  0
   -7.4623   19.6527  -30.7135 H   0  0  0  0  0  0  0  0  0  0  0  0
   -7.7311   17.3300  -31.5878 H   0  0  0  0  0  0  0  0  0  0  0  0
   -6.8636   16.7387  -33.8534 H   0  0  0  0  0  0  0  0  0  0  0  0
   -5.7278   18.4692  -35.2481 H   0  0  0  0  0  0  0  0  0  0  0  0
   -5.4580   20.7945  -34.3827 H   0  0  0  0  0  0  0  0  0  0  0  0
   -9.2036   21.8553  -30.6440 H   0  0  0  0  0  0  0  0  0  0  0  0
   -9.4396   22.7262  -32.1972 H   0  0  0  0  0  0  0  0  0  0  0  0
   -8.8053   21.0456  -32.1972 H   0  0  0  0  0  0  0  0  0  0  0  0
   -8.0060   24.3640  -30.7600 H   0  0  0  0  0  0  0  0  0  0  0  0
  1  2  1  0
  2  3  2  0
  3  4  1  0
  4  5  2  0
  4  6  1  0
  6  7  1  0
  7  8  2  0
  8  9  1  0
  9 10  2  0
 10 11  1  0
 11 12  2  0
  6 13  2  0
 13 14  1  0
 13 15  1  0
 15  2  1  0
 12  7  1  0
  1 16  1  0
  1 17  1  0
  1 18  1  0
  8 19  1  0
  9 20  1  0
 10 21  1  0
 11 22  1  0
 12 23  1  0
 14 24  1  0
 14 25  1  0
 14 26  1  0
 15 27  1  0
M  END
>  <UniqueID>  (8) 
8

>  <SMILES>  (8) 
Cc1nc(=O)c(-c2ccccc2)c(C)[nH]1

>  <Energy>  (8) 
34.817160107742446

>  <Genealogy>  (8) 
Cc1nc(=O)c(-c2ccccc2)c(C)[nH]1 (3D coordinates assigned)
Cc1nc(=O)c(-c2ccccc2)c(C)[nH]1 (optimized conformer: 34.817160107742446 kcal/mol)

>  <smiles>  (8) 
Cc1nc(=O)c(-c2ccccc2)c(C)[nH]1

>  <score_type>  (8) 
oracle

>  <origin>  (8) 
adgpu

>  <m_score__min__energy>  (8) 
-6.4699999999999998

>  <m_primary>  (8) 
energy

$$$$
8:0
     RDKit          3D

 32 34  0  0  0  0  0  0  0  0999 V2000
   -9.1070   21.5650  -30.5860 C   0  0  0  0  0  0  0  0  0  0  0  0
   -7.9710   22.4640  -30.9400 C   0  0  0  0  0  0  0  0  0  0  0  0
   -6.8710   22.7360  -30.1370 C   0  0  0  0  0  0  0  0  0  0  0  0
   -5.9970   23.6850  -30.6950 C   0  0  0  0  0  0  0  0  0  0  0  0
   -4.7620   24.1330  -30.0140 C   0  0  0  0  0  0  0  0  0  0  0  0
   -3.9020   24.7860  -30.6660 O   0  0  0  0  0  0  0  0  0  0  0  0
   -4.5460   23.8650  -28.6180 N   0  0  0  0  0  0  0  0  0  0  0  0
   -3.2700   24.0360  -27.9790 C   0  0  0  0  0  0  0  0  0  0  0  0
   -3.1480   24.9200  -26.8910 C   0  0  0  0  0  0  0  0  0  0  0  0
   -1.9020   25.1670  -26.3110 C   0  0  0  0  0  0  0  0  0  0  0  0
   -1.7670   26.2740  -24.9570 Cl  0  0  0  0  0  0  0  0  0  0  0  0
   -0.7610   24.5430  -26.8180 C   0  0  0  0  0  0  0  0  0  0  0  0
   -0.8640   23.6690  -27.9020 C   0  0  0  0  0  0  0  0  0  0  0  0
   -2.1130   23.4020  -28.4910 C   0  0  0  0  0  0  0  0  0  0  0  0
   -2.2000   22.4520  -29.5720 N   0  0  0  0  0  0  0  0  0  0  0  0
   -2.7420   21.2220  -29.5300 C   0  0  0  0  0  0  0  0  0  0  0  0
   -2.6870   20.6220  -30.7350 N   0  0  0  0  0  0  0  0  0  0  0  0
   -2.0910   21.5620  -31.5010 C   0  0  0  0  0  0  0  0  0  0  0  0
   -1.7950   22.6780  -30.8080 N   0  0  0  0  0  0  0  0  0  0  0  0
   -6.4310   24.1720  -31.9280 C   0  0  0  0  0  0  0  0  0  0  0  0
   -7.8870   23.4240  -32.3140 S   0  0  0  0  0  0  0  0  0  0  0  0
   -9.1933   21.4967  -29.4915 H   0  0  0  0  0  0  0  0  0  0  0  0
  -10.0402   21.9719  -31.0027 H   0  0  0  0  0  0  0  0  0  0  0  0
   -8.9255   20.5633  -31.0027 H   0  0  0  0  0  0  0  0  0  0  0  0
   -6.7007   22.2566  -29.1617 H   0  0  0  0  0  0  0  0  0  0  0  0
   -5.3590   23.5960  -28.0220 H   0  0  0  0  0  0  0  0  0  0  0  0
   -4.0428   25.4213  -26.4935 H   0  0  0  0  0  0  0  0  0  0  0  0
    0.2208   24.7401  -26.3629 H   0  0  0  0  0  0  0  0  0  0  0  0
    0.0403   23.1847  -28.2991 H   0  0  0  0  0  0  0  0  0  0  0  0
   -3.1746   20.7647  -28.6279 H   0  0  0  0  0  0  0  0  0  0  0  0
   -1.8721   21.4304  -32.5709 H   0  0  0  0  0  0  0  0  0  0  0  0
   -5.9090   24.9192  -32.5439 H   0  0  0  0  0  0  0  0  0  0  0  0
  1  2  1  0
  2  3  2  0
  3  4  1  0
  4  5  1  0
  5  6  2  0
  5  7  1  0
  7  8  1  0
  8  9  2  0
  9 10  1  0
 10 11  1  0
 10 12  2  0
 12 13  1  0
 13 14  2  0
 14 15  1  0
 15 16  1  0
 16 17  2  0
 17 18  1  0
 18 19  2  0
  4 20  2  0
 20 21  1  0
 21  2  1  0
 14  8  1  0
 19 15  1  0
  1 22  1  0
  1 23  1  0
  1 24  1  0
  3 25  1  0
  7 26  1  0
  9 27  1  0
 12 28  1  0
 13 29  1  0
 16 30  1  0
 18 31  1  0
 20 32  1  0
M  END
>  <UniqueID>  (9) 
9

>  <SMILES>  (9) 
Cc1cc(C(=O)Nc2cc(Cl)ccc2-n2cncn2)cs1

>  <Energy>  (9) 
100.53346448116663

>  <Genealogy>  (9) 
Cc1cc(C(=O)Nc2cc(Cl)ccc2-n2cncn2)cs1 (3D coordinates assigned)
Cc1cc(C(=O)Nc2cc(Cl)ccc2-n2cncn2)cs1 (optimized conformer: 100.53346448116663 kcal/mol)

>  <smiles>  (9) 
Cc1cc(C(=O)Nc2cc(Cl)ccc2-n2cncn2)cs1

>  <score_type>  (9) 
oracle

>  <origin>  (9) 
adgpu

>  <m_score__min__energy>  (9) 
-7.7000000000000002

>  <m_primary>  (9) 
energy

$$$$
9:0
     RDKit          3D

 45 48  0  0  0  0  0  0  0  0999 V2000
   -8.5784   21.4443  -31.5524 H   0  0  0  0  0  0  0  0  0  0  0  0
   -7.8910   22.2040  -31.1520 C   0  0  0  0  0  0  0  0  0  0  0  0
   -7.3100   23.1450  -31.8590 O   0  0  0  0  0  0  0  0  0  0  0  0
   -6.5670   23.8720  -31.0560 C   0  0  0  0  0  0  0  0  0  0  0  0
   -5.7270   25.0320  -31.4960 C   0  0  0  0  0  0  0  0  0  0  0  0
   -6.3728   25.9117  -31.6339 H   0  0  0  0  0  0  0  0  0  0  0  0
   -5.2303   24.7659  -32.4407 H   0  0  0  0  0  0  0  0  0  0  0  0
   -4.7000   25.3440  -30.5020 N   0  0  0  0  0  0  0  0  0  0  0  0
   -3.7050   24.5650  -30.1930 C   0  0  0  0  0  0  0  0  0  0  0  0
   -2.8110   24.9690  -29.2580 N   0  0  0  0  0  0  0  0  0  0  0  0
   -1.7590   24.1740  -28.9200 C   0  0  0  0  0  0  0  0  0  0  0  0
   -0.8750   24.5560  -28.0460 N   0  0  0  0  0  0  0  0  0  0  0  0
   -0.9010   25.7600  -27.2590 C   0  0  0  0  0  0  0  0  0  0  0  0
   -1.2580   25.7550  -25.8980 C   0  0  0  0  0  0  0  0  0  0  0  0
   -1.5539   24.8133  -25.4126 H   0  0  0  0  0  0  0  0  0  0  0  0
   -1.2380   26.9430  -25.1600 C   0  0  0  0  0  0  0  0  0  0  0  0
   -1.5423   26.9358  -24.1029 H   0  0  0  0  0  0  0  0  0  0  0  0
   -0.8320   28.1430  -25.7610 C   0  0  0  0  0  0  0  0  0  0  0  0
   -0.8480   29.4240  -24.9790 C   0  0  0  0  0  0  0  0  0  0  0  0
   -0.8452   29.1966  -23.9028 H   0  0  0  0  0  0  0  0  0  0  0  0
    0.0428   30.0183  -25.2306 H   0  0  0  0  0  0  0  0  0  0  0  0
   -1.7534   29.9959  -25.2306 H   0  0  0  0  0  0  0  0  0  0  0  0
   -0.4630   28.1460  -27.1140 C   0  0  0  0  0  0  0  0  0  0  0  0
   -0.1569   29.0858  -27.5968 H   0  0  0  0  0  0  0  0  0  0  0  0
   -0.4830   26.9580  -27.8510 C   0  0  0  0  0  0  0  0  0  0  0  0
   -0.1677   26.9646  -28.9048 H   0  0  0  0  0  0  0  0  0  0  0  0
   -1.6020   22.9770  -29.5390 N   0  0  0  0  0  0  0  0  0  0  0  0
   -2.4990   22.5550  -30.4670 C   0  0  0  0  0  0  0  0  0  0  0  0
   -2.3160   21.4090  -31.0530 N   0  0  0  0  0  0  0  0  0  0  0  0
   -3.1930   20.7890  -32.0070 C   0  0  0  0  0  0  0  0  0  0  0  0
   -4.5820   21.0110  -31.9890 C   0  0  0  0  0  0  0  0  0  0  0  0
   -5.0178   21.6974  -31.2481 H   0  0  0  0  0  0  0  0  0  0  0  0
   -5.4110   20.3620  -32.9100 C   0  0  0  0  0  0  0  0  0  0  0  0
   -6.4948   20.5498  -32.9009 H   0  0  0  0  0  0  0  0  0  0  0  0
   -4.8640   19.4750  -33.8420 C   0  0  0  0  0  0  0  0  0  0  0  0
   -5.6690   18.8460  -34.7330 F   0  0  0  0  0  0  0  0  0  0  0  0
   -3.4890   19.2260  -33.8440 C   0  0  0  0  0  0  0  0  0  0  0  0
   -3.0596   18.5209  -34.5710 H   0  0  0  0  0  0  0  0  0  0  0  0
   -2.6580   19.8720  -32.9230 C   0  0  0  0  0  0  0  0  0  0  0  0
   -1.5787   19.6595  -32.9172 H   0  0  0  0  0  0  0  0  0  0  0  0
   -3.5460   23.3570  -30.7980 N   0  0  0  0  0  0  0  0  0  0  0  0
   -6.6490   23.3870  -29.7680 C   0  0  0  0  0  0  0  0  0  0  0  0
   -6.1355   23.7766  -28.8766 H   0  0  0  0  0  0  0  0  0  0  0  0
   -7.5090   22.3120  -29.8310 C   0  0  0  0  0  0  0  0  0  0  0  0
   -7.8267   21.6698  -28.9964 H   0  0  0  0  0  0  0  0  0  0  0  0
  1  2  1  0
  2  3  1  0
  3  4  1  0
  4  5  1  0
  5  6  1  0
  5  7  1  0
  5  8  1  0
  8  9  2  0
  9 10  1  0
 10 11  1  0
 11 12  2  3
 12 13  1  0
 13 14  2  0
 14 15  1  0
 14 16  1  0
 16 17  1  0
 16 18  2  0
 18 19  1  0
 19 20  1  0
 19 21  1  0
 19 22  1  0
 18 23  1  0
 23 24  1  0
 23 25  2  0
 25 26  1  0
 11 27  1  0
 27 28  1  0
 28 29  2  0
 29 30  1  0
 30 31  2  0
 31 32  1  0
 31 33  1  0
 33 34  1  0
 33 35  2  0
 35 36  1  0
 35 37  1  0
 37 38  1  0
 37 39  2  0
 39 40  1  0
 28 41  1  0
  4 42  2  0
 42 43  1  0
 42 44  1  0
 44 45  1  0
 44  2  2  0
 41  9  1  0
 25 13  1  0
 39 30  1  0
M  CHG  3  10  -1  27  -1  41  -1
M  END
>  <UniqueID>  (10) 
10

>  <SMILES>  (10) 
Cc1ccc(N=c2[n-]/c(=N/Cc3ccco3)[n-]/c(=N\c3ccc(F)cc3)[n-]2)cc1

>  <Energy>  (10) 
84.40054732201867

>  <Genealogy>  (10) 
Cc1ccc(N=c2[n-]c(=NCc3ccco3)[n-]c(=Nc3ccc(F)cc3)[n-]2)cc1 (protonated)
Cc1ccc(N=c2[n-]/c(=N/Cc3ccco3)[n-]/c(=N\c3ccc(F)cc3)[n-]2)cc1 (cis-trans isomerization)
Cc1ccc(N=c2[n-]/c(=N/Cc3ccco3)[n-]/c(=N\c3ccc(F)cc3)[n-]2)cc1 (3D coordinates assigned)
Cc1ccc(N=c2[n-]/c(=N/Cc3ccco3)[n-]/c(=N\c3ccc(F)cc3)[n-]2)cc1 (optimized conformer: 84.40054732201867 kcal/mol)

>  <smiles>  (10) 
Cc1ccc(N=c2[nH]c(=NCc3ccco3)[nH]c(=Nc3ccc(F)cc3)[nH]2)cc1

>  <score_type>  (10) 
oracle

>  <origin>  (10) 
adgpu

>  <m_score__min__energy>  (10) 
-10.99

>  <m_primary>  (10) 
energy

$$$$
10:0
     RDKit          3D

 55 58  0  0  0  0  0  0  0  0999 V2000
   -3.6430   18.8020  -33.6600 C   0  0  0  0  0  0  0  0  0  0  0  0
   -2.4870   17.8820  -34.0140 C   0  0  0  0  0  0  0  0  0  0  0  0
   -1.4250   18.6490  -34.5740 O   0  0  0  0  0  0  0  0  0  0  0  0
   -0.4080   18.1270  -35.3910 C   0  0  0  0  0  0  0  0  0  0  0  0
   -0.3490   16.7620  -35.7240 C   0  0  0  0  0  0  0  0  0  0  0  0
    0.6610   16.2900  -36.4990 N   0  0  0  0  0  0  0  0  0  0  0  0
    1.6370   17.1010  -36.9780 C   0  0  0  0  0  0  0  0  0  0  0  0
    1.6260   18.4660  -36.6820 C   0  0  0  0  0  0  0  0  0  0  0  0
    2.8830   19.4880  -37.3710 Cl  0  0  0  0  0  0  0  0  0  0  0  0
    0.5890   18.9910  -35.8850 C   0  0  0  0  0  0  0  0  0  0  0  0
    0.5460   20.4350  -35.5600 C   0  0  0  0  0  0  0  0  0  0  0  0
    0.5220   21.4540  -36.4920 C   0  0  0  0  0  0  0  0  0  0  0  0
    0.6320   22.6080  -35.7390 C   0  0  0  0  0  0  0  0  0  0  0  0
    0.6780   23.9800  -36.2650 C   0  0  0  0  0  0  0  0  0  0  0  0
    1.7490   24.4130  -36.7720 O   0  0  0  0  0  0  0  0  0  0  0  0
   -0.4980   24.8060  -36.2360 N   0  0  0  0  0  0  0  0  0  0  0  0
   -0.4940   26.2210  -36.4910 C   0  0  0  0  0  0  0  0  0  0  0  0
    0.1250   27.0830  -35.5720 C   0  0  0  0  0  0  0  0  0  0  0  0
    0.1620   28.4600  -35.8060 C   0  0  0  0  0  0  0  0  0  0  0  0
   -0.3980   28.9960  -36.9770 C   0  0  0  0  0  0  0  0  0  0  0  0
   -0.3840   30.4820  -37.2140 C   0  0  0  0  0  0  0  0  0  0  0  0
   -0.8280   30.8050  -38.6370 C   0  0  0  0  0  0  0  0  0  0  0  0
   -1.0080   28.1360  -37.9030 C   0  0  0  0  0  0  0  0  0  0  0  0
   -1.0470   26.7570  -37.6680 C   0  0  0  0  0  0  0  0  0  0  0  0
    0.7190   22.2970  -34.4310 N   0  0  0  0  0  0  0  0  0  0  0  0
    0.6620   20.9780  -34.3230 N   0  0  0  0  0  0  0  0  0  0  0  0
    0.7150   20.2970  -33.0580 C   0  0  0  0  0  0  0  0  0  0  0  0
    1.8640   19.5900  -32.6590 C   0  0  0  0  0  0  0  0  0  0  0  0
    1.9020   18.9480  -31.4180 C   0  0  0  0  0  0  0  0  0  0  0  0
    0.7920   18.9920  -30.5700 C   0  0  0  0  0  0  0  0  0  0  0  0
    0.8450   18.1890  -29.0110 Cl  0  0  0  0  0  0  0  0  0  0  0  0
   -0.3630   19.6710  -30.9690 C   0  0  0  0  0  0  0  0  0  0  0  0
   -0.4050   20.3140  -32.2090 C   0  0  0  0  0  0  0  0  0  0  0  0
   -3.7329   18.8736  -32.5660 H   0  0  0  0  0  0  0  0  0  0  0  0
   -3.4573   19.8020  -34.0788 H   0  0  0  0  0  0  0  0  0  0  0  0
   -4.5758   18.3965  -34.0788 H   0  0  0  0  0  0  0  0  0  0  0  0
   -2.1323   17.3725  -33.1059 H   0  0  0  0  0  0  0  0  0  0  0  0
   -2.8246   17.1334  -34.7458 H   0  0  0  0  0  0  0  0  0  0  0  0
   -1.1241   16.0741  -35.3552 H   0  0  0  0  0  0  0  0  0  0  0  0
    2.4403   16.6821  -37.6020 H   0  0  0  0  0  0  0  0  0  0  0  0
    0.4351   21.3670  -37.5851 H   0  0  0  0  0  0  0  0  0  0  0  0
   -1.4230   24.3370  -36.1090 H   0  0  0  0  0  0  0  0  0  0  0  0
    0.5842   26.6714  -34.6611 H   0  0  0  0  0  0  0  0  0  0  0  0
    0.6322   29.1277  -35.0691 H   0  0  0  0  0  0  0  0  0  0  0  0
   -1.0687   30.9675  -36.5031 H   0  0  0  0  0  0  0  0  0  0  0  0
    0.6414   30.8534  -37.0705 H   0  0  0  0  0  0  0  0  0  0  0  0
   -1.7172   31.4518  -38.6058 H   0  0  0  0  0  0  0  0  0  0  0  0
   -0.0152   31.3243  -39.1658 H   0  0  0  0  0  0  0  0  0  0  0  0
   -1.0719   29.8718  -39.1658 H   0  0  0  0  0  0  0  0  0  0  0  0
   -1.4579   28.5480  -38.8184 H   0  0  0  0  0  0  0  0  0  0  0  0
   -1.5125   26.0888  -38.4075 H   0  0  0  0  0  0  0  0  0  0  0  0
    2.7367   19.5422  -33.3269 H   0  0  0  0  0  0  0  0  0  0  0  0
    2.8080   18.4067  -31.1080 H   0  0  0  0  0  0  0  0  0  0  0  0
   -1.2402   19.6992  -30.3058 H   0  0  0  0  0  0  0  0  0  0  0  0
   -1.3206   20.8368  -32.5227 H   0  0  0  0  0  0  0  0  0  0  0  0
  1  2  1  0
  2  3  1  0
  3  4  1  0
  4  5  2  0
  5  6  1  0
  6  7  2  0
  7  8  1  0
  8  9  1  0
  8 10  2  0
 10 11  1  0
 11 12  2  0
 12 13  1  0
 13 14  1  0
 14 15  2  0
 14 16  1  0
 16 17  1  0
 17 18  2  0
 18 19  1  0
 19 20  2  0
 20 21  1  0
 21 22  1  0
 20 23  1  0
 23 24  2  0
 13 25  2  0
 25 26  1  0
 26 27  1  0
 27 28  2  0
 28 29  1  0
 29 30  2  0
 30 31  1  0
 30 32  1  0
 32 33  2  0
 10  4  1  0
 26 11  1  0
 33 27  1  0
 24 17  1  0
  1 34  1  0
  1 35  1  0
  1 36  1  0
  2 37  1  0
  2 38  1  0
  5 39  1  0
  7 40  1  0
 12 41  1  0
 16 42  1  0
 18 43  1  0
 19 44  1  0
 21 45  1  0
 21 46  1  0
 22 47  1  0
 22 48  1  0
 22 49  1  0
 23 50  1  0
 24 51  1  0
 28 52  1  0
 29 53  1  0
 32 54  1  0
 33 55  1  0
M  END
>  <UniqueID>  (11) 
11

>  <SMILES>  (11) 
CCOc1cncc(Cl)c1-c1cc(C(=O)Nc2ccc(CC)cc2)nn1-c1ccc(Cl)cc1

>  <Energy>  (11) 
95.42008216494963

>  <Genealogy>  (11) 
CCOc1cncc(Cl)c1-c1cc(C(=O)Nc2ccc(CC)cc2)nn1-c1ccc(Cl)cc1 (3D coordinates assigned)
CCOc1cncc(Cl)c1-c1cc(C(=O)Nc2ccc(CC)cc2)nn1-c1ccc(Cl)cc1 (optimized conformer: 95.42008216494963 kcal/mol)

>  <smiles>  (11) 
CCOc1cncc(Cl)c1-c1cc(C(=O)Nc2ccc(CC)cc2)nn1-c1ccc(Cl)cc1

>  <score_type>  (11) 
oracle

>  <origin>  (11) 
adgpu

>  <m_score__min__energy>  (11) 
-9.8300000000000001

>  <m_primary>  (11) 
energy

$$$$
11:0
     RDKit          3D

 18 18  0  0  0  0  0  0  0  0999 V2000
   -2.4340   24.5290  -28.5850 C   0  0  0  0  0  0  0  0  0  0  0  0
   -3.1150   25.0590  -29.7180 O   0  0  0  0  0  0  0  0  0  0  0  0
   -4.2790   24.5040  -30.2740 C   0  0  0  0  0  0  0  0  0  0  0  0
   -5.5140   25.0350  -29.8890 C   0  0  0  0  0  0  0  0  0  0  0  0
   -6.7010   24.5200  -30.4140 C   0  0  0  0  0  0  0  0  0  0  0  0
   -6.6710   23.4640  -31.3310 C   0  0  0  0  0  0  0  0  0  0  0  0
   -8.1980   22.8550  -31.9560 Cl  0  0  0  0  0  0  0  0  0  0  0  0
   -5.4330   22.9170  -31.7280 C   0  0  0  0  0  0  0  0  0  0  0  0
   -5.3650   21.8360  -32.6660 N   0  0  0  0  0  0  0  0  0  0  0  0
   -4.2440   23.4420  -31.1960 C   0  0  0  0  0  0  0  0  0  0  0  0
   -2.9098   24.8993  -27.6649 H   0  0  0  0  0  0  0  0  0  0  0  0
   -2.4848   23.4304  -28.6075 H   0  0  0  0  0  0  0  0  0  0  0  0
   -1.3815   24.8480  -28.6075 H   0  0  0  0  0  0  0  0  0  0  0  0
   -5.5507   25.8644  -29.1674 H   0  0  0  0  0  0  0  0  0  0  0  0
   -7.6661   24.9475  -30.1044 H   0  0  0  0  0  0  0  0  0  0  0  0
   -5.6730   20.8690  -32.4200 H   0  0  0  0  0  0  0  0  0  0  0  0
   -4.9990   21.9930  -33.6320 H   0  0  0  0  0  0  0  0  0  0  0  0
   -3.2762   23.0188  -31.5031 H   0  0  0  0  0  0  0  0  0  0  0  0
  1  2  1  0
  2  3  1  0
  3  4  2  0
  4  5  1  0
  5  6  2  0
  6  7  1  0
  6  8  1  0
  8  9  1  0
  8 10  2  0
 10  3  1  0
  1 11  1  0
  1 12  1  0
  1 13  1  0
  4 14  1  0
  5 15  1  0
  9 16  1  0
  9 17  1  0
 10 18  1  0
M  END
>  <UniqueID>  (12) 
12

>  <SMILES>  (12) 
COc1ccc(Cl)c(N)c1

>  <Energy>  (12) 
16.195654634371433

>  <Genealogy>  (12) 
COc1ccc(Cl)c(N)c1 (3D coordinates assigned)
COc1ccc(Cl)c(N)c1 (optimized conformer: 16.195654634371433 kcal/mol)

>  <smiles>  (12) 
COc1ccc(Cl)c(N)c1

>  <score_type>  (12) 
oracle

>  <origin>  (12) 
adgpu

>  <m_score__min__energy>  (12) 
-4.6900000000000004

>  <m_primary>  (12) 
energy

$$$$
12:0
     RDKit          3D

 27 29  0  0  0  0  0  0  0  0999 V2000
   -4.2390   24.9170  -26.4970 Cl  0  0  0  0  0  0  0  0  0  0  0  0
   -2.6500   24.6490  -27.2080 C   0  0  0  0  0  0  0  0  0  0  0  0
   -1.5490   24.7160  -26.3430 C   0  0  0  0  0  0  0  0  0  0  0  0
   -0.2550   24.5150  -26.8250 C   0  0  0  0  0  0  0  0  0  0  0  0
   -0.0480   24.2460  -28.1760 C   0  0  0  0  0  0  0  0  0  0  0  0
   -1.1340   24.1750  -29.0500 C   0  0  0  0  0  0  0  0  0  0  0  0
   -2.4490   24.3740  -28.5860 C   0  0  0  0  0  0  0  0  0  0  0  0
   -3.5590   24.2860  -29.5690 C   0  0  0  0  0  0  0  0  0  0  0  0
   -4.4160   23.2520  -29.6860 N   0  0  0  0  0  0  0  0  0  0  0  0
   -5.2070   23.6590  -30.7010 C   0  0  0  0  0  0  0  0  0  0  0  0
   -6.3360   22.8670  -31.2330 C   0  0  0  0  0  0  0  0  0  0  0  0
   -7.6160   23.4400  -31.3520 C   0  0  0  0  0  0  0  0  0  0  0  0
   -8.6830   22.6890  -31.8540 C   0  0  0  0  0  0  0  0  0  0  0  0
   -8.4840   21.3620  -32.2420 C   0  0  0  0  0  0  0  0  0  0  0  0
   -7.2170   20.7830  -32.1290 C   0  0  0  0  0  0  0  0  0  0  0  0
   -6.1470   21.5300  -31.6270 C   0  0  0  0  0  0  0  0  0  0  0  0
   -4.8490   24.8700  -31.1710 N   0  0  0  0  0  0  0  0  0  0  0  0
   -3.8310   25.2220  -30.4490 O   0  0  0  0  0  0  0  0  0  0  0  0
   -1.7064   24.9288  -25.2753 H   0  0  0  0  0  0  0  0  0  0  0  0
    0.6021   24.5690  -26.1377 H   0  0  0  0  0  0  0  0  0  0  0  0
    0.9728   24.0893  -28.5546 H   0  0  0  0  0  0  0  0  0  0  0  0
   -0.9607   23.9609  -30.1149 H   0  0  0  0  0  0  0  0  0  0  0  0
   -7.7778   24.4848  -31.0483 H   0  0  0  0  0  0  0  0  0  0  0  0
   -9.6806   23.1437  -31.9436 H   0  0  0  0  0  0  0  0  0  0  0  0
   -9.3247   20.7725  -32.6366 H   0  0  0  0  0  0  0  0  0  0  0  0
   -7.0614   19.7381  -32.4355 H   0  0  0  0  0  0  0  0  0  0  0  0
   -5.1518   21.0696  -31.5397 H   0  0  0  0  0  0  0  0  0  0  0  0
  1  2  1  0
  2  3  2  0
  3  4  1  0
  4  5  2  0
  5  6  1  0
  6  7  2  0
  7  8  1  0
  8  9  2  0
  9 10  1  0
 10 11  1  0
 11 12  2  0
 12 13  1  0
 13 14  2  0
 14 15  1  0
 15 16  2  0
 10 17  2  0
 17 18  1  0
  7  2  1  0
 18  8  1  0
 16 11  1  0
  3 19  1  0
  4 20  1  0
  5 21  1  0
  6 22  1  0
 12 23  1  0
 13 24  1  0
 14 25  1  0
 15 26  1  0
 16 27  1  0
M  END
>  <UniqueID>  (13) 
13

>  <SMILES>  (13) 
Clc1ccccc1-c1nc(-c2ccccc2)no1

>  <Energy>  (13) 
66.9212634064275

>  <Genealogy>  (13) 
Clc1ccccc1-c1nc(-c2ccccc2)no1 (3D coordinates assigned)
Clc1ccccc1-c1nc(-c2ccccc2)no1 (optimized conformer: 66.9212634064275 kcal/mol)

>  <smiles>  (13) 
Clc1ccccc1-c1nc(-c2ccccc2)no1

>  <score_type>  (13) 
oracle

>  <origin>  (13) 
adgpu

>  <m_score__min__energy>  (13) 
-8.0399999999999991

>  <m_primary>  (13) 
energy

$$$$
13:0
     RDKit          3D

 49 52  0  0  1  0  0  0  0  0999 V2000
   -6.1430   26.0260  -29.7320 C   0  0  0  0  0  0  0  0  0  0  0  0
   -5.7870   24.7370  -30.4010 C   0  0  0  0  0  0  0  0  0  0  0  0
   -6.2270   24.4740  -31.6970 C   0  0  0  0  0  0  0  0  0  0  0  0
   -5.8970   23.2850  -32.3110 C   0  0  0  0  0  0  0  0  0  0  0  0
   -5.1100   22.3340  -31.6210 C   0  0  0  0  0  0  0  0  0  0  0  0
   -4.6790   21.2130  -32.2300 N   0  0  0  0  0  0  0  0  0  0  0  0
   -5.2470   20.1620  -32.5180 C   0  0  0  0  0  0  0  0  0  0  0  0
   -4.5140   19.1990  -33.1470 N   0  0  0  0  0  0  0  0  0  0  0  0
   -4.9930   18.0090  -33.5210 C   0  0  0  0  0  0  0  0  0  0  0  0
   -4.0990   17.0590  -34.1910 C   0  0  0  0  0  0  0  0  0  0  0  0
   -2.8960   17.4230  -34.7240 C   0  0  0  0  0  0  0  0  0  0  0  0
   -2.0840   16.4810  -35.3500 C   0  0  0  0  0  0  0  0  0  0  0  0
   -2.4570   15.1520  -35.4580 C   0  0  0  0  0  0  0  0  0  0  0  0
   -3.6760   14.7820  -34.9190 C   0  0  0  0  0  0  0  0  0  0  0  0
   -4.0650   13.4800  -35.0120 F   0  0  0  0  0  0  0  0  0  0  0  0
   -4.4670   15.7310  -34.3020 C   0  0  0  0  0  0  0  0  0  0  0  0
   -5.6740   15.3360  -33.7750 F   0  0  0  0  0  0  0  0  0  0  0  0
   -6.2740   17.7470  -33.2610 N   0  0  0  0  0  0  0  0  0  0  0  0
   -7.0340   18.6690  -32.6420 C   0  0  0  0  0  0  0  0  0  0  0  0
   -8.3380   18.3440  -32.4020 C   0  0  0  0  0  0  0  0  0  0  0  0
   -9.1200   19.2790  -31.7720 C   0  0  0  0  0  0  0  0  0  0  0  0
   -8.7040   20.5080  -31.3620 C   0  0  0  0  0  0  0  0  0  0  0  0
   -7.3550   20.8210  -31.6200 C   0  0  0  0  0  0  0  0  0  0  0  0
   -6.5520   19.9120  -32.2460 C   0  0  0  0  0  0  0  0  0  0  0  0
   -4.6770   22.6270  -30.3070 C   0  0  0  0  0  0  0  0  0  0  0  0
   -5.0110   23.8160  -29.7000 C   0  0  0  0  0  0  0  0  0  0  0  0
   -4.5770   24.1140  -28.3790 N   0  0  0  0  0  0  0  0  0  0  0  0
   -2.8700   24.3190  -28.0860 S   0  0  0  0  0  0  0  0  0  0  0  0
   -2.7150   24.9640  -26.4510 C   0  0  0  0  0  0  0  0  0  0  0  0
   -2.1620   23.0160  -28.2230 O   0  0  0  0  0  0  0  0  0  0  0  0
   -2.3140   25.2770  -29.0790 O   0  0  0  0  0  0  0  0  0  0  0  0
   -6.1068   25.8948  -28.6405 H   0  0  0  0  0  0  0  0  0  0  0  0
   -5.4263   26.8048  -30.0317 H   0  0  0  0  0  0  0  0  0  0  0  0
   -7.1578   26.3266  -30.0317 H   0  0  0  0  0  0  0  0  0  0  0  0
   -6.8385   25.2165  -32.2306 H   0  0  0  0  0  0  0  0  0  0  0  0
   -6.2444   23.0766  -33.3337 H   0  0  0  0  0  0  0  0  0  0  0  0
   -2.5652   18.4700  -34.6583 H   0  0  0  0  0  0  0  0  0  0  0  0
   -1.1194   16.8015  -35.7704 H   0  0  0  0  0  0  0  0  0  0  0  0
   -1.8071   14.4166  -35.9547 H   0  0  0  0  0  0  0  0  0  0  0  0
   -6.6750   16.8460  -33.5330 H   0  0  0  0  0  0  0  0  0  0  0  0
   -8.7469   17.3681  -32.7027 H   0  0  0  0  0  0  0  0  0  0  0  0
  -10.1704   19.0130  -31.5827 H   0  0  0  0  0  0  0  0  0  0  0  0
   -9.3806   21.2147  -30.8592 H   0  0  0  0  0  0  0  0  0  0  0  0
   -6.9490   21.7974  -31.3171 H   0  0  0  0  0  0  0  0  0  0  0  0
   -4.0642   21.8937  -29.7622 H   0  0  0  0  0  0  0  0  0  0  0  0
   -5.2750   24.2030  -27.6150 H   0  0  0  0  0  0  0  0  0  0  0  0
   -2.9073   24.1636  -25.7213 H   0  0  0  0  0  0  0  0  0  0  0  0
   -1.6972   25.3554  -26.3062 H   0  0  0  0  0  0  0  0  0  0  0  0
   -3.4438   25.7751  -26.3062 H   0  0  0  0  0  0  0  0  0  0  0  0
  1  2  1  0
  2  3  2  0
  3  4  1  0
  4  5  2  0
  5  6  1  0
  6  7  2  0
  7  8  1  0
  8  9  2  0
  9 10  1  0
 10 11  2  0
 11 12  1  0
 12 13  2  0
 13 14  1  0
 14 15  1  0
 14 16  2  0
 16 17  1  0
  9 18  1  0
 18 19  1  0
 19 20  2  0
 20 21  1  0
 21 22  2  0
 22 23  1  0
 23 24  2  0
  5 25  1  0
 25 26  2  0
 26 27  1  0
 27 28  1  0
 28 29  1  0
 28 30  2  0
 28 31  2  0
 26  2  1  0
 24  7  1  0
 16 10  1  0
 24 19  1  0
  1 32  1  0
  1 33  1  0
  1 34  1  0
  3 35  1  0
  4 36  1  0
 11 37  1  0
 12 38  1  0
 13 39  1  0
 18 40  1  0
 20 41  1  0
 21 42  1  0
 22 43  1  0
 23 44  1  0
 25 45  1  0
 27 46  1  0
 29 47  1  0
 29 48  1  0
 29 49  1  0
M  END
>  <smiles>  (14) 
Cc1ccc(N=c2nc(-c3cccc(F)c3F)[nH]c3ccccc23)cc1NS(C)(=O)=O

>  <score_type>  (14) 
oracle

>  <origin>  (14) 
adgpu

>  <m_score__min__energy>  (14) 
-9.75

>  <m_primary>  (14) 
energy

$$$$
14:0
     RDKit          3D

 35 37  0  0  0  0  0  0  0  0999 V2000
   -3.7870   25.6120  -29.8980 H   0  0  0  0  0  0  0  0  0  0  0  0
   -3.1280   24.8070  -29.9960 N   0  0  0  0  0  0  0  0  0  0  0  0
   -2.0540   24.7150  -29.2810 C   0  0  0  0  0  0  0  0  0  0  0  0
   -1.7560   25.7010  -28.3900 N   0  0  0  0  0  0  0  0  0  0  0  0
   -0.6120   25.6790  -27.6590 C   0  0  0  0  0  0  0  0  0  0  0  0
   -0.3988   26.4811  -26.9371 H   0  0  0  0  0  0  0  0  0  0  0  0
    0.2890   24.6310  -27.8320 C   0  0  0  0  0  0  0  0  0  0  0  0
    1.2277   24.6063  -27.2591 H   0  0  0  0  0  0  0  0  0  0  0  0
   -0.0010   23.6410  -28.7130 N   0  0  0  0  0  0  0  0  0  0  0  0
   -1.1560   23.6340  -29.4350 C   0  0  0  0  0  0  0  0  0  0  0  0
   -1.3730   22.5200  -30.3880 C   0  0  0  0  0  0  0  0  0  0  0  0
   -2.6070   22.3650  -30.9350 N   0  0  0  0  0  0  0  0  0  0  0  0
   -2.8830   21.3680  -31.8200 C   0  0  0  0  0  0  0  0  0  0  0  0
   -4.0690   21.2390  -32.3410 N   0  0  0  0  0  0  0  0  0  0  0  0
   -5.2350   22.0200  -32.0280 C   0  0  0  0  0  0  0  0  0  0  0  0
   -6.4680   21.6360  -32.5700 C   0  0  0  0  0  0  0  0  0  0  0  0
   -6.5283   20.7483  -33.2167 H   0  0  0  0  0  0  0  0  0  0  0  0
   -7.6220   22.3740  -32.2940 C   0  0  0  0  0  0  0  0  0  0  0  0
   -8.5841   22.0716  -32.7331 H   0  0  0  0  0  0  0  0  0  0  0  0
   -7.5580   23.4950  -31.4620 C   0  0  0  0  0  0  0  0  0  0  0  0
   -8.4658   24.0826  -31.2607 H   0  0  0  0  0  0  0  0  0  0  0  0
   -6.3380   23.8710  -30.8840 C   0  0  0  0  0  0  0  0  0  0  0  0
   -6.2300   25.2820  -29.8350 S   0  0  0  0  0  0  0  0  0  0  0  0
   -5.6530   26.4480  -30.5870 O   0  0  0  0  0  0  0  0  0  0  0  0
   -7.6050   25.6480  -29.3500 O   0  0  0  0  0  0  0  0  0  0  0  0
   -5.2130   24.9260  -28.4830 N   0  0  0  0  0  0  0  0  0  0  0  0
   -4.7410   24.0150  -28.6820 H   0  0  0  0  0  0  0  0  0  0  0  0
   -4.4640   25.6540  -28.4630 H   0  0  0  0  0  0  0  0  0  0  0  0
   -5.1850   23.1220  -31.1520 C   0  0  0  0  0  0  0  0  0  0  0  0
   -4.2328   23.3966  -30.6745 H   0  0  0  0  0  0  0  0  0  0  0  0
   -1.8930   20.5200  -32.1990 N   0  0  0  0  0  0  0  0  0  0  0  0
   -0.6350   20.6460  -31.7030 C   0  0  0  0  0  0  0  0  0  0  0  0
    0.1542   19.9505  -32.0247 H   0  0  0  0  0  0  0  0  0  0  0  0
   -0.3420   21.6550  -30.7870 C   0  0  0  0  0  0  0  0  0  0  0  0
    0.6755   21.7709  -30.3854 H   0  0  0  0  0  0  0  0  0  0  0  0
  1  2  1  0
  2  3  2  0
  3  4  1  0
  4  5  1  0
  5  6  1  0
  5  7  2  0
  7  8  1  0
  7  9  1  0
  9 10  2  0
 10 11  1  0
 11 12  2  0
 12 13  1  0
 13 14  2  0
 14 15  1  0
 15 16  2  0
 16 17  1  0
 16 18  1  0
 18 19  1  0
 18 20  2  0
 20 21  1  0
 20 22  1  0
 22 23  1  0
 23 24  2  0
 23 25  2  0
 23 26  1  0
 26 27  1  0
 26 28  1  0
 22 29  2  0
 29 30  1  0
 13 31  1  0
 31 32  1  0
 32 33  1  0
 32 34  2  0
 34 35  1  0
 10  3  1  0
 34 11  1  0
 29 15  1  0
M  CHG  2   4  -1  31  -1
M  END
>  <UniqueID>  (15) 
14

>  <SMILES>  (15) 
[H]/N=c1\[n-]ccnc1-c1cc[n-]/c(=N/c2cccc(S(N)(=O)=O)c2)n1

>  <Energy>  (15) 
50.25173542093233

>  <Genealogy>  (15) 
N=c1[n-]ccnc1-c1cc[n-]c(=Nc2cccc(S(N)(=O)=O)c2)n1 (protonated)
[H]/N=c1\[n-]ccnc1-c1cc[n-]/c(=N/c2cccc(S(N)(=O)=O)c2)n1 (cis-trans isomerization)
[H]/N=c1\[n-]ccnc1-c1cc[n-]/c(=N/c2cccc(S(N)(=O)=O)c2)n1 (3D coordinates assigned)
[H]/N=c1\[n-]ccnc1-c1cc[n-]/c(=N/c2cccc(S(N)(=O)=O)c2)n1 (optimized conformer: 50.25173542093233 kcal/mol)

>  <smiles>  (15) 
N=c1[nH]ccnc1-c1cc[nH]c(=Nc2cccc(S(N)(=O)=O)c2)n1

>  <score_type>  (15) 
oracle

>  <origin>  (15) 
adgpu

>  <m_score__min__energy>  (15) 
-10.16

>  <m_primary>  (15) 
energy

$$$$
15:0
     RDKit          3D

 28 29  0  0  0  0  0  0  0  0999 V2000
   -1.8830   20.7580  -33.7130 S   0  0  0  0  0  0  0  0  0  0  0  0
   -3.3990   20.4210  -33.2030 C   0  0  0  0  0  0  0  0  0  0  0  0
   -4.4370   21.3940  -33.4090 N   0  0  0  0  0  0  0  0  0  0  0  0
   -5.5430   21.5870  -32.5130 C   0  0  0  0  0  0  0  0  0  0  0  0
   -5.3460   22.2800  -31.3100 C   0  0  0  0  0  0  0  0  0  0  0  0
   -6.4150   22.4960  -30.4370 C   0  0  0  0  0  0  0  0  0  0  0  0
   -7.6880   22.0130  -30.7540 C   0  0  0  0  0  0  0  0  0  0  0  0
   -7.8900   21.3000  -31.9400 C   0  0  0  0  0  0  0  0  0  0  0  0
   -9.4860   20.6920  -32.3370 Cl  0  0  0  0  0  0  0  0  0  0  0  0
   -6.8200   21.0770  -32.8130 C   0  0  0  0  0  0  0  0  0  0  0  0
   -3.6750   19.1290  -32.6350 N   0  0  0  0  0  0  0  0  0  0  0  0
   -4.9870   18.5540  -32.5490 C   0  0  0  0  0  0  0  0  0  0  0  0
   -5.7130   18.6990  -31.3560 C   0  0  0  0  0  0  0  0  0  0  0  0
   -7.0140   18.2020  -31.2540 C   0  0  0  0  0  0  0  0  0  0  0  0
   -7.5930   17.5330  -32.3330 C   0  0  0  0  0  0  0  0  0  0  0  0
   -6.8670   17.3450  -33.5110 C   0  0  0  0  0  0  0  0  0  0  0  0
   -5.5620   17.8420  -33.6260 C   0  0  0  0  0  0  0  0  0  0  0  0
   -4.5870   17.4450  -35.2280 Br  0  0  0  0  0  0  0  0  0  0  0  0
   -4.3750   22.0070  -34.2530 H   0  0  0  0  0  0  0  0  0  0  0  0
   -4.3447   22.6554  -31.0524 H   0  0  0  0  0  0  0  0  0  0  0  0
   -6.2548   23.0471  -29.4986 H   0  0  0  0  0  0  0  0  0  0  0  0
   -8.5308   22.1938  -30.0706 H   0  0  0  0  0  0  0  0  0  0  0  0
   -6.9772   20.5012  -33.7370 H   0  0  0  0  0  0  0  0  0  0  0  0
   -2.8880   18.6190  -32.1700 H   0  0  0  0  0  0  0  0  0  0  0  0
   -5.2537   19.2077  -30.4956 H   0  0  0  0  0  0  0  0  0  0  0  0
   -7.5828   18.3380  -30.3224 H   0  0  0  0  0  0  0  0  0  0  0  0
   -8.6225   17.1533  -32.2556 H   0  0  0  0  0  0  0  0  0  0  0  0
   -7.3222   16.8036  -34.3534 H   0  0  0  0  0  0  0  0  0  0  0  0
  1  2  2  0
  2  3  1  0
  3  4  1  0
  4  5  2  0
  5  6  1  0
  6  7  2  0
  7  8  1  0
  8  9  1  0
  8 10  2  0
  2 11  1  0
 11 12  1  0
 12 13  2  0
 13 14  1  0
 14 15  2  0
 15 16  1  0
 16 17  2  0
 17 18  1  0
 10  4  1  0
 17 12  1  0
  3 19  1  0
  5 20  1  0
  6 21  1  0
  7 22  1  0
 10 23  1  0
 11 24  1  0
 13 25  1  0
 14 26  1  0
 15 27  1  0
 16 28  1  0
M  END
>  <UniqueID>  (16) 
15

>  <SMILES>  (16) 
S=C(Nc1cccc(Cl)c1)Nc1ccccc1Br

>  <Energy>  (16) 
37.057426898979735

>  <Genealogy>  (16) 
S=C(Nc1cccc(Cl)c1)Nc1ccccc1Br (3D coordinates assigned)
S=C(Nc1cccc(Cl)c1)Nc1ccccc1Br (optimized conformer: 37.057426898979735 kcal/mol)

>  <smiles>  (16) 
S=C(Nc1cccc(Cl)c1)Nc1ccccc1Br

>  <score_type>  (16) 
oracle

>  <origin>  (16) 
adgpu

>  <m_score__min__energy>  (16) 
-7.0499999999999998

>  <m_primary>  (16) 
energy

$$$$
16:0
     RDKit          3D

 33 35  0  0  1  0  0  0  0  0999 V2000
   -3.8200   23.5970  -27.9230 C   0  0  0  0  0  0  0  0  0  0  0  0
   -4.3370   23.9690  -29.2440 C   0  0  0  0  0  0  0  0  0  0  0  0
   -5.3450   23.3610  -29.9650 C   0  0  0  0  0  0  0  0  0  0  0  0
   -5.4370   24.1000  -31.1350 C   0  0  0  0  0  0  0  0  0  0  0  0
   -6.2550   23.8680  -32.0820 N   0  0  0  0  0  0  0  0  0  0  0  0
   -7.2060   22.8080  -32.0840 C   0  0  0  0  0  0  0  0  0  0  0  0
   -8.5110   22.9770  -31.6620 C   0  0  0  0  0  0  0  0  0  0  0  0
   -9.3770   21.8920  -31.6960 C   0  0  0  0  0  0  0  0  0  0  0  0
   -8.8920   20.6720  -32.1560 C   0  0  0  0  0  0  0  0  0  0  0  0
   -7.6040   20.5270  -32.5660 C   0  0  0  0  0  0  0  0  0  0  0  0
   -7.0680   19.2590  -33.0540 C   0  0  0  0  0  0  0  0  0  0  0  0
   -6.1390   19.2940  -34.0890 C   0  0  0  0  0  0  0  0  0  0  0  0
   -5.6060   18.1070  -34.5790 C   0  0  0  0  0  0  0  0  0  0  0  0
   -5.9730   16.8810  -34.0660 C   0  0  0  0  0  0  0  0  0  0  0  0
   -5.4350   15.7350  -34.5630 F   0  0  0  0  0  0  0  0  0  0  0  0
   -6.8930   16.8460  -33.0390 C   0  0  0  0  0  0  0  0  0  0  0  0
   -7.4110   18.0360  -32.5660 C   0  0  0  0  0  0  0  0  0  0  0  0
   -6.7850   21.5870  -32.5260 N   0  0  0  0  0  0  0  0  0  0  0  0
   -4.5370   25.0910  -31.1160 N   0  0  0  0  0  0  0  0  0  0  0  0
   -3.8820   25.0010  -29.9720 N   0  0  0  0  0  0  0  0  0  0  0  0
   -4.4490   24.0496  -27.1423 H   0  0  0  0  0  0  0  0  0  0  0  0
   -3.8362   22.5021  -27.8179 H   0  0  0  0  0  0  0  0  0  0  0  0
   -2.7870   23.9602  -27.8179 H   0  0  0  0  0  0  0  0  0  0  0  0
   -5.9430   22.4843  -29.6756 H   0  0  0  0  0  0  0  0  0  0  0  0
   -8.8589   23.9573  -31.3042 H   0  0  0  0  0  0  0  0  0  0  0  0
  -10.4216   21.9948  -31.3670 H   0  0  0  0  0  0  0  0  0  0  0  0
   -9.5668   19.8039  -32.1888 H   0  0  0  0  0  0  0  0  0  0  0  0
   -5.8272   20.2576  -34.5183 H   0  0  0  0  0  0  0  0  0  0  0  0
   -4.8722   18.1471  -35.3975 H   0  0  0  0  0  0  0  0  0  0  0  0
   -7.2090   15.8864  -32.6038 H   0  0  0  0  0  0  0  0  0  0  0  0
   -8.1438   17.9924  -31.7468 H   0  0  0  0  0  0  0  0  0  0  0  0
   -4.3980   25.8030  -31.8890 H   0  0  0  0  0  0  0  0  0  0  0  0
   -3.1200   25.6680  -29.7160 H   0  0  0  0  0  0  0  0  0  0  0  0
  1  2  1  0
  2  3  2  0
  3  4  1  0
  4  5  2  0
  5  6  1  0
  6  7  2  0
  7  8  1  0
  8  9  2  0
  9 10  1  0
 10 11  1  0
 11 12  2  0
 12 13  1  0
 13 14  2  0
 14 15  1  0
 14 16  1  0
 16 17  2  0
 10 18  2  0
  4 19  1  0
 19 20  1  0
 20  2  1  0
 18  6  1  0
 17 11  1  0
  1 21  1  0
  1 22  1  0
  1 23  1  0
  3 24  1  0
  7 25  1  0
  8 26  1  0
  9 27  1  0
 12 28  1  0
 13 29  1  0
 16 30  1  0
 17 31  1  0
 19 32  1  0
 20 33  1  0
M  END
>  <smiles>  (17) 
Cc1cc(=Nc2cccc(-c3ccc(F)cc3)n2)[nH][nH]1

>  <score_type>  (17) 
oracle

>  <origin>  (17) 
adgpu

>  <m_score__min__energy>  (17) 
-9.0899999999999999

>  <m_primary>  (17) 
energy

$$$$
17:0
     RDKit          3D

 55 59  0  0  0  0  0  0  0  0999 V2000
    1.0520   17.8810  -27.8570 C   0  0  0  0  0  0  0  0  0  0  0  0
    0.7070   19.1970  -27.4360 O   0  0  0  0  0  0  0  0  0  0  0  0
   -0.3380   19.9540  -27.9850 C   0  0  0  0  0  0  0  0  0  0  0  0
   -1.6050   20.0430  -27.3780 C   0  0  0  0  0  0  0  0  0  0  0  0
   -2.6150   20.8140  -27.9620 C   0  0  0  0  0  0  0  0  0  0  0  0
   -2.3690   21.5230  -29.1510 C   0  0  0  0  0  0  0  0  0  0  0  0
   -3.4280   22.3390  -29.7850 C   0  0  0  0  0  0  0  0  0  0  0  0
   -4.1530   21.7630  -30.7950 N   0  0  0  0  0  0  0  0  0  0  0  0
   -5.1480   22.4630  -31.3840 C   0  0  0  0  0  0  0  0  0  0  0  0
   -5.4630   23.7300  -31.0260 C   0  0  0  0  0  0  0  0  0  0  0  0
   -6.4830   24.1060  -31.8780 C   0  0  0  0  0  0  0  0  0  0  0  0
   -6.7450   23.0690  -32.7150 N   0  0  0  0  0  0  0  0  0  0  0  0
   -5.9290   22.0670  -32.4010 N   0  0  0  0  0  0  0  0  0  0  0  0
   -5.8680   20.7950  -33.1160 C   0  0  0  0  0  0  0  0  0  0  0  0
   -6.9960   19.9020  -32.6770 C   0  0  0  0  0  0  0  0  0  0  0  0
   -6.7630   18.5360  -32.4450 C   0  0  0  0  0  0  0  0  0  0  0  0
   -7.7980   17.7130  -31.9900 C   0  0  0  0  0  0  0  0  0  0  0  0
   -9.0680   18.2480  -31.7550 C   0  0  0  0  0  0  0  0  0  0  0  0
   -9.3040   19.6090  -31.9720 C   0  0  0  0  0  0  0  0  0  0  0  0
   -8.2720   20.4350  -32.4290 C   0  0  0  0  0  0  0  0  0  0  0  0
   -4.7640   24.3900  -30.0240 C   0  0  0  0  0  0  0  0  0  0  0  0
   -5.0470   25.5830  -29.7250 O   0  0  0  0  0  0  0  0  0  0  0  0
   -3.7120   23.6890  -29.3790 C   0  0  0  0  0  0  0  0  0  0  0  0
   -2.8860   24.3830  -28.3630 C   0  0  0  0  0  0  0  0  0  0  0  0
   -3.3590   24.5380  -27.0490 C   0  0  0  0  0  0  0  0  0  0  0  0
   -2.5890   25.2090  -26.0960 C   0  0  0  0  0  0  0  0  0  0  0  0
   -1.3270   25.7310  -26.4410 C   0  0  0  0  0  0  0  0  0  0  0  0
   -0.5190   26.4140  -25.5210 O   0  0  0  0  0  0  0  0  0  0  0  0
   -0.8280   26.5720  -24.1400 C   0  0  0  0  0  0  0  0  0  0  0  0
   -0.8550   25.5660  -27.7480 C   0  0  0  0  0  0  0  0  0  0  0  0
   -1.6260   24.8970  -28.7030 C   0  0  0  0  0  0  0  0  0  0  0  0
   -1.1120   21.4150  -29.7650 C   0  0  0  0  0  0  0  0  0  0  0  0
   -0.1050   20.6420  -29.1820 C   0  0  0  0  0  0  0  0  0  0  0  0
    1.2186   17.2456  -26.9747 H   0  0  0  0  0  0  0  0  0  0  0  0
    0.2332   17.4627  -28.4608 H   0  0  0  0  0  0  0  0  0  0  0  0
    1.9707   17.9182  -28.4608 H   0  0  0  0  0  0  0  0  0  0  0  0
   -1.8015   19.5035  -26.4398 H   0  0  0  0  0  0  0  0  0  0  0  0
   -3.6067   20.8660  -27.4889 H   0  0  0  0  0  0  0  0  0  0  0  0
   -6.9956   25.0792  -31.8785 H   0  0  0  0  0  0  0  0  0  0  0  0
   -5.9504   20.9808  -34.1971 H   0  0  0  0  0  0  0  0  0  0  0  0
   -4.9102   20.3019  -32.8934 H   0  0  0  0  0  0  0  0  0  0  0  0
   -5.7633   18.1126  -32.6218 H   0  0  0  0  0  0  0  0  0  0  0  0
   -7.6125   16.6427  -31.8167 H   0  0  0  0  0  0  0  0  0  0  0  0
   -9.8814   17.5984  -31.3995 H   0  0  0  0  0  0  0  0  0  0  0  0
  -10.3023   20.0305  -31.7831 H   0  0  0  0  0  0  0  0  0  0  0  0
   -8.4601   21.5060  -32.5949 H   0  0  0  0  0  0  0  0  0  0  0  0
   -4.3410   24.1287  -26.7693 H   0  0  0  0  0  0  0  0  0  0  0  0
   -2.9700   25.3303  -25.0712 H   0  0  0  0  0  0  0  0  0  0  0  0
   -0.0120   26.1548  -23.5316 H   0  0  0  0  0  0  0  0  0  0  0  0
   -0.9464   27.6413  -23.9108 H   0  0  0  0  0  0  0  0  0  0  0  0
   -1.7642   26.0420  -23.9108 H   0  0  0  0  0  0  0  0  0  0  0  0
    0.1311   25.9662  -28.0263 H   0  0  0  0  0  0  0  0  0  0  0  0
   -1.2426   24.7730  -29.7265 H   0  0  0  0  0  0  0  0  0  0  0  0
   -0.9184   21.9421  -30.7109 H   0  0  0  0  0  0  0  0  0  0  0  0
    0.8796   20.5732  -29.6676 H   0  0  0  0  0  0  0  0  0  0  0  0
  1  2  1  0
  2  3  1  0
  3  4  2  0
  4  5  1  0
  5  6  2  0
  6  7  1  0
  7  8  1  0
  8  9  1  0
  9 10  2  0
 10 11  1  0
 11 12  2  0
 12 13  1  0
 13 14  1  0
 14 15  1  0
 15 16  2  0
 16 17  1  0
 17 18  2  0
 18 19  1  0
 19 20  2  0
 10 21  1  0
 21 22  2  0
 21 23  1  0
 23 24  1  0
 24 25  2  0
 25 26  1  0
 26 27  2  0
 27 28  1  0
 28 29  1  0
 27 30  1  0
 30 31  2  0
  6 32  1  0
 32 33  2  0
 33  3  1  0
 23  7  2  0
 31 24  1  0
 13  9  1  0
 20 15  1  0
  1 34  1  0
  1 35  1  0
  1 36  1  0
  4 37  1  0
  5 38  1  0
 11 39  1  0
 14 40  1  0
 14 41  1  0
 16 42  1  0
 17 43  1  0
 18 44  1  0
 19 45  1  0
 20 46  1  0
 25 47  1  0
 26 48  1  0
 29 49  1  0
 29 50  1  0
 29 51  1  0
 30 52  1  0
 31 53  1  0
 32 54  1  0
 33 55  1  0
M  CHG  1   8  -1
M  END
>  <UniqueID>  (18) 
16

>  <SMILES>  (18) 
COc1ccc(-c2[n-]c3c(cnn3Cc3ccccc3)c(=O)c2-c2ccc(OC)cc2)cc1

>  <Energy>  (18) 
111.97399984508145

>  <Genealogy>  (18) 
COc1ccc(-c2[n-]c3c(cnn3Cc3ccccc3)c(=O)c2-c2ccc(OC)cc2)cc1 (protonated)
COc1ccc(-c2[n-]c3c(cnn3Cc3ccccc3)c(=O)c2-c2ccc(OC)cc2)cc1 (3D coordinates assigned)
COc1ccc(-c2[n-]c3c(cnn3Cc3ccccc3)c(=O)c2-c2ccc(OC)cc2)cc1 (optimized conformer: 111.97399984508145 kcal/mol)

>  <smiles>  (18) 
COc1ccc(-c2[nH]c3c(cnn3Cc3ccccc3)c(=O)c2-c2ccc(OC)cc2)cc1

>  <score_type>  (18) 
oracle

>  <origin>  (18) 
adgpu

>  <m_score__min__energy>  (18) 
-9.3200000000000003

>  <m_primary>  (18) 
energy

$$$$
18:0
     RDKit          3D

 26 27  0  0  0  0  0  0  0  0999 V2000
   -3.7300   19.1850  -32.4540 N   0  0  0  0  0  0  0  0  0  0  0  0
   -3.7220   20.0440  -31.6770 C   0  0  0  0  0  0  0  0  0  0  0  0
   -3.7130   21.1120  -30.7070 C   0  0  0  0  0  0  0  0  0  0  0  0
   -3.1450   20.8700  -29.4520 C   0  0  0  0  0  0  0  0  0  0  0  0
   -3.1240   21.8720  -28.4850 C   0  0  0  0  0  0  0  0  0  0  0  0
   -3.6880   23.1170  -28.7550 C   0  0  0  0  0  0  0  0  0  0  0  0
   -4.2820   23.3820  -30.0010 C   0  0  0  0  0  0  0  0  0  0  0  0
   -4.8890   24.6670  -30.2220 N   0  0  0  0  0  0  0  0  0  0  0  0
   -4.2750   25.5620  -30.8390 O   0  0  0  0  0  0  0  0  0  0  0  0
   -6.2190   24.8590  -29.9270 O   0  0  0  0  0  0  0  0  0  0  0  0
   -4.2670   22.3770  -31.0030 C   0  0  0  0  0  0  0  0  0  0  0  0
   -4.8980   22.7130  -32.6650 S   0  0  0  0  0  0  0  0  0  0  0  0
   -6.5460   22.1110  -32.2810 C   0  0  0  0  0  0  0  0  0  0  0  0
   -7.5670   23.0150  -31.9580 C   0  0  0  0  0  0  0  0  0  0  0  0
   -8.8510   22.5460  -31.6640 C   0  0  0  0  0  0  0  0  0  0  0  0
   -9.1170   21.1740  -31.6830 C   0  0  0  0  0  0  0  0  0  0  0  0
   -8.0960   20.2670  -31.9920 C   0  0  0  0  0  0  0  0  0  0  0  0
   -8.4280   18.5450  -32.0080 Cl  0  0  0  0  0  0  0  0  0  0  0  0
   -6.8110   20.7350  -32.2860 C   0  0  0  0  0  0  0  0  0  0  0  0
   -2.7128   19.8836  -29.2277 H   0  0  0  0  0  0  0  0  0  0  0  0
   -2.6611   21.6800  -27.5058 H   0  0  0  0  0  0  0  0  0  0  0  0
   -3.6682   23.9016  -27.9842 H   0  0  0  0  0  0  0  0  0  0  0  0
   -7.3580   24.0947  -31.9357 H   0  0  0  0  0  0  0  0  0  0  0  0
   -9.6527   23.2577  -31.4175 H   0  0  0  0  0  0  0  0  0  0  0  0
  -10.1285   20.8067  -31.4552 H   0  0  0  0  0  0  0  0  0  0  0  0
   -6.0073   20.0218  -32.5215 H   0  0  0  0  0  0  0  0  0  0  0  0
  1  2  3  0
  2  3  1  0
  3  4  2  0
  4  5  1  0
  5  6  2  0
  6  7  1  0
  7  8  1  0
  8  9  2  0
  8 10  1  0
  7 11  2  0
 11 12  1  0
 12 13  1  0
 13 14  2  0
 14 15  1  0
 15 16  2  0
 16 17  1  0
 17 18  1  0
 17 19  2  0
 11  3  1  0
 19 13  1  0
  4 20  1  0
  5 21  1  0
  6 22  1  0
 14 23  1  0
 15 24  1  0
 16 25  1  0
 19 26  1  0
M  CHG  2   8   1  10  -1
M  END
>  <UniqueID>  (19) 
17

>  <SMILES>  (19) 
N#Cc1cccc([N+](=O)[O-])c1Sc1cccc(Cl)c1

>  <Energy>  (19) 
27.722051870970244

>  <Genealogy>  (19) 
N#Cc1cccc([N+](=O)[O-])c1Sc1cccc(Cl)c1 (3D coordinates assigned)
N#Cc1cccc([N+](=O)[O-])c1Sc1cccc(Cl)c1 (optimized conformer: 27.722051870970244 kcal/mol)

>  <smiles>  (19) 
N#Cc1cccc([N+](=O)[O-])c1Sc1cccc(Cl)c1

>  <score_type>  (19) 
oracle

>  <origin>  (19) 
adgpu

>  <m_score__min__energy>  (19) 
-7.7199999999999998

>  <m_primary>  (19) 
energy

$$$$
19:0
     RDKit          3D

 40 43  0  0  0  0  0  0  0  0999 V2000
   -4.8484   25.5514  -29.1738 H   0  0  0  0  0  0  0  0  0  0  0  0
   -4.5950   24.5300  -29.4940 C   0  0  0  0  0  0  0  0  0  0  0  0
   -4.6160   24.2070  -30.8150 N   0  0  0  0  0  0  0  0  0  0  0  0
   -4.3210   22.9520  -31.2550 C   0  0  0  0  0  0  0  0  0  0  0  0
   -4.3380   22.6630  -32.7320 C   0  0  0  0  0  0  0  0  0  0  0  0
   -3.3545   22.9160  -33.1547 H   0  0  0  0  0  0  0  0  0  0  0  0
   -5.1347   23.2692  -33.1878 H   0  0  0  0  0  0  0  0  0  0  0  0
   -4.6250   21.2540  -33.0120 N   0  0  0  0  0  0  0  0  0  0  0  0
   -5.6680   20.4780  -32.8410 C   0  0  0  0  0  0  0  0  0  0  0  0
   -6.9480   20.8980  -32.3440 C   0  0  0  0  0  0  0  0  0  0  0  0
   -7.3960   22.2350  -32.2620 C   0  0  0  0  0  0  0  0  0  0  0  0
   -6.7544   23.0461  -32.6369 H   0  0  0  0  0  0  0  0  0  0  0  0
   -8.6410   22.5410  -31.7120 C   0  0  0  0  0  0  0  0  0  0  0  0
   -8.9623   23.5889  -31.6188 H   0  0  0  0  0  0  0  0  0  0  0  0
   -9.4720   21.5150  -31.2830 C   0  0  0  0  0  0  0  0  0  0  0  0
  -10.4414   21.7483  -30.8184 H   0  0  0  0  0  0  0  0  0  0  0  0
   -9.0860   20.2260  -31.4380 N   0  0  0  0  0  0  0  0  0  0  0  0
   -7.8770   19.8920  -31.9660 C   0  0  0  0  0  0  0  0  0  0  0  0
   -7.5820   18.5470  -32.1620 C   0  0  0  0  0  0  0  0  0  0  0  0
   -8.2985   17.7739  -31.8475 H   0  0  0  0  0  0  0  0  0  0  0  0
   -6.3760   18.1810  -32.7580 C   0  0  0  0  0  0  0  0  0  0  0  0
   -6.0710   16.7520  -33.0210 C   0  0  0  0  0  0  0  0  0  0  0  0
   -6.8030   16.0240  -33.9800 C   0  0  0  0  0  0  0  0  0  0  0  0
   -7.6087   16.5176  -34.5432 H   0  0  0  0  0  0  0  0  0  0  0  0
   -6.5110   14.6770  -34.2200 C   0  0  0  0  0  0  0  0  0  0  0  0
   -7.0866   14.1156  -34.9707 H   0  0  0  0  0  0  0  0  0  0  0  0
   -5.4900   14.0440  -33.5080 C   0  0  0  0  0  0  0  0  0  0  0  0
   -5.2622   12.9847  -33.6977 H   0  0  0  0  0  0  0  0  0  0  0  0
   -4.7580   14.7560  -32.5550 C   0  0  0  0  0  0  0  0  0  0  0  0
   -3.9530   14.2565  -31.9959 H   0  0  0  0  0  0  0  0  0  0  0  0
   -5.0460   16.1020  -32.3100 C   0  0  0  0  0  0  0  0  0  0  0  0
   -4.4673   16.6563  -31.5564 H   0  0  0  0  0  0  0  0  0  0  0  0
   -5.4680   19.1470  -33.0800 N   0  0  0  0  0  0  0  0  0  0  0  0
   -4.5400   18.8490  -33.4620 H   0  0  0  0  0  0  0  0  0  0  0  0
   -3.9480   21.9650  -30.3280 C   0  0  0  0  0  0  0  0  0  0  0  0
   -3.6773   20.9554  -30.6708 H   0  0  0  0  0  0  0  0  0  0  0  0
   -3.9240   22.2770  -28.9680 C   0  0  0  0  0  0  0  0  0  0  0  0
   -3.6471   21.5085  -28.2313 H   0  0  0  0  0  0  0  0  0  0  0  0
   -4.2520   23.5660  -28.5440 C   0  0  0  0  0  0  0  0  0  0  0  0
   -4.2404   23.8193  -27.4736 H   0  0  0  0  0  0  0  0  0  0  0  0
  1  2  1  0
  2  3  2  0
  3  4  1  0
  4  5  1  0
  5  6  1  0
  5  7  1  0
  5  8  1  0
  8  9  2  0
  9 10  1  0
 10 11  2  0
 11 12  1  0
 11 13  1  0
 13 14  1  0
 13 15  2  0
 15 16  1  0
 15 17  1  0
 17 18  2  0
 18 19  1  0
 19 20  1  0
 19 21  2  0
 21 22  1  0
 22 23  2  0
 23 24  1  0
 23 25  1  0
 25 26  1  0
 25 27  2  0
 27 28  1  0
 27 29  1  0
 29 30  1  0
 29 31  2  0
 31 32  1  0
 21 33  1  0
 33 34  1  0
  4 35  2  0
 35 36  1  0
 35 37  1  0
 37 38  1  0
 37 39  2  0
 39 40  1  0
 39  2  1  0
 33  9  1  0
 18 10  1  0
 31 22  1  0
M  END
>  <UniqueID>  (20) 
18

>  <SMILES>  (20) 
c1ccc(-c2cc3ncccc3/c(=N\Cc3ccccn3)[nH]2)cc1

>  <Energy>  (20) 
70.82287861362482

>  <Genealogy>  (20) 
c1ccc(-c2cc3ncccc3/c(=N\Cc3ccccn3)[nH]2)cc1 (cis-trans isomerization)
c1ccc(-c2cc3ncccc3/c(=N\Cc3ccccn3)[nH]2)cc1 (3D coordinates assigned)
c1ccc(-c2cc3ncccc3/c(=N\Cc3ccccn3)[nH]2)cc1 (optimized conformer: 70.82287861362482 kcal/mol)

>  <smiles>  (20) 
c1ccc(-c2cc3ncccc3c(=NCc3ccccn3)[nH]2)cc1

>  <score_type>  (20) 
oracle

>  <origin>  (20) 
adgpu

>  <m_score__min__energy>  (20) 
-8.1999999999999993

>  <m_primary>  (20) 
energy

$$$$
20:0
     RDKit          3D

 40 42  0  0  0  0  0  0  0  0999 V2000
   -3.2270   20.2870  -33.4760 C   0  0  0  0  0  0  0  0  0  0  0  0
   -3.5590   21.4490  -32.7240 O   0  0  0  0  0  0  0  0  0  0  0  0
   -2.7960   21.9560  -31.6590 C   0  0  0  0  0  0  0  0  0  0  0  0
   -1.4740   21.5300  -31.4290 C   0  0  0  0  0  0  0  0  0  0  0  0
   -0.7280   22.0650  -30.3780 C   0  0  0  0  0  0  0  0  0  0  0  0
   -1.2800   23.0430  -29.5370 C   0  0  0  0  0  0  0  0  0  0  0  0
   -0.4640   23.6070  -28.4370 C   0  0  0  0  0  0  0  0  0  0  0  0
   -0.5060   23.2680  -27.0960 C   0  0  0  0  0  0  0  0  0  0  0  0
    0.4510   24.0810  -26.5280 C   0  0  0  0  0  0  0  0  0  0  0  0
    0.7700   24.1770  -25.0740 C   0  0  0  0  0  0  0  0  0  0  0  0
    1.0060   24.8650  -27.4710 N   0  0  0  0  0  0  0  0  0  0  0  0
    0.4400   24.5490  -28.6000 O   0  0  0  0  0  0  0  0  0  0  0  0
   -2.6000   23.4650  -29.7600 C   0  0  0  0  0  0  0  0  0  0  0  0
   -3.3660   22.9170  -30.8010 C   0  0  0  0  0  0  0  0  0  0  0  0
   -5.0200   23.4920  -31.0410 S   0  0  0  0  0  0  0  0  0  0  0  0
   -5.0430   24.9820  -31.2400 O   0  0  0  0  0  0  0  0  0  0  0  0
   -5.8250   23.1310  -29.8240 O   0  0  0  0  0  0  0  0  0  0  0  0
   -5.6980   22.7390  -32.4510 N   0  0  0  0  0  0  0  0  0  0  0  0
   -6.7730   21.7900  -32.3820 C   0  0  0  0  0  0  0  0  0  0  0  0
   -6.5400   20.4630  -32.7760 C   0  0  0  0  0  0  0  0  0  0  0  0
   -7.5680   19.5190  -32.7240 C   0  0  0  0  0  0  0  0  0  0  0  0
   -8.8430   19.8930  -32.2930 C   0  0  0  0  0  0  0  0  0  0  0  0
   -9.8410   18.9760  -32.2450 F   0  0  0  0  0  0  0  0  0  0  0  0
   -9.0920   21.2170  -31.9210 C   0  0  0  0  0  0  0  0  0  0  0  0
   -8.0660   22.1680  -31.9680 C   0  0  0  0  0  0  0  0  0  0  0  0
   -8.3510   23.4560  -31.6570 F   0  0  0  0  0  0  0  0  0  0  0  0
   -2.9909   19.4608  -32.7892 H   0  0  0  0  0  0  0  0  0  0  0  0
   -4.0803   20.0043  -34.1100 H   0  0  0  0  0  0  0  0  0  0  0  0
   -2.3531   20.4978  -34.1100 H   0  0  0  0  0  0  0  0  0  0  0  0
   -1.0251   20.7685  -32.0837 H   0  0  0  0  0  0  0  0  0  0  0  0
    0.3015   21.7170  -30.2075 H   0  0  0  0  0  0  0  0  0  0  0  0
   -1.1500   22.5261  -26.6011 H   0  0  0  0  0  0  0  0  0  0  0  0
   -0.1196   23.9093  -24.4850 H   0  0  0  0  0  0  0  0  0  0  0  0
    1.5912   23.4862  -24.8324 H   0  0  0  0  0  0  0  0  0  0  0  0
    1.0736   25.2063  -24.8324 H   0  0  0  0  0  0  0  0  0  0  0  0
   -3.0403   24.2356  -29.1102 H   0  0  0  0  0  0  0  0  0  0  0  0
   -5.1610   22.8220  -33.3420 H   0  0  0  0  0  0  0  0  0  0  0  0
   -5.5414   20.1647  -33.1279 H   0  0  0  0  0  0  0  0  0  0  0  0
   -7.3732   18.4785  -33.0231 H   0  0  0  0  0  0  0  0  0  0  0  0
  -10.0984   21.5129  -31.5899 H   0  0  0  0  0  0  0  0  0  0  0  0
  1  2  1  0
  2  3  1  0
  3  4  2  0
  4  5  1  0
  5  6  2  0
  6  7  1  0
  7  8  2  0
  8  9  1  0
  9 10  1  0
  9 11  2  0
 11 12  1  0
  6 13  1  0
 13 14  2  0
 14 15  1  0
 15 16  2  0
 15 17  2  0
 15 18  1  0
 18 19  1  0
 19 20  2  0
 20 21  1  0
 21 22  2  0
 22 23  1  0
 22 24  1  0
 24 25  2  0
 25 26  1  0
 14  3  1  0
 25 19  1  0
 12  7  1  0
  1 27  1  0
  1 28  1  0
  1 29  1  0
  4 30  1  0
  5 31  1  0
  8 32  1  0
 10 33  1  0
 10 34  1  0
 10 35  1  0
 13 36  1  0
 18 37  1  0
 20 38  1  0
 21 39  1  0
 24 40  1  0
M  END
>  <UniqueID>  (21) 
19

>  <SMILES>  (21) 
COc1ccc(-c2cc(C)no2)cc1S(=O)(=O)Nc1ccc(F)cc1F

>  <Energy>  (21) 
78.73543778328205

>  <Genealogy>  (21) 
COc1ccc(-c2cc(C)no2)cc1S(=O)(=O)Nc1ccc(F)cc1F (3D coordinates assigned)
COc1ccc(-c2cc(C)no2)cc1S(=O)(=O)Nc1ccc(F)cc1F (optimized conformer: 78.73543778328205 kcal/mol)

>  <smiles>  (21) 
COc1ccc(-c2cc(C)no2)cc1S(=O)(=O)Nc1ccc(F)cc1F

>  <score_type>  (21) 
oracle

>  <origin>  (21) 
adgpu

>  <m_score__min__energy>  (21) 
-9.0099999999999998

>  <m_primary>  (21) 
energy

$$$$
21:0
     RDKit          3D

 39 41  0  0  0  0  0  0  0  0999 V2000
   -0.6240   26.3230  -27.8300 C   0  0  0  0  0  0  0  0  0  0  0  0
   -1.7670   25.4000  -28.0920 C   0  0  0  0  0  0  0  0  0  0  0  0
   -2.3090   24.5160  -27.1830 C   0  0  0  0  0  0  0  0  0  0  0  0
   -3.3180   23.8610  -27.8570 C   0  0  0  0  0  0  0  0  0  0  0  0
   -3.3260   24.3900  -29.1390 C   0  0  0  0  0  0  0  0  0  0  0  0
   -4.1930   24.0100  -30.2720 C   0  0  0  0  0  0  0  0  0  0  0  0
   -3.7670   23.1890  -31.2530 N   0  0  0  0  0  0  0  0  0  0  0  0
   -4.7760   23.0230  -32.0960 N   0  0  0  0  0  0  0  0  0  0  0  0
   -5.8030   23.7490  -31.6200 C   0  0  0  0  0  0  0  0  0  0  0  0
   -7.4200   23.8000  -32.4040 S   0  0  0  0  0  0  0  0  0  0  0  0
   -8.1910   22.5950  -31.2670 C   0  0  0  0  0  0  0  0  0  0  0  0
   -8.0950   21.2030  -31.8130 C   0  0  0  0  0  0  0  0  0  0  0  0
   -8.9780   20.3590  -31.5000 O   0  0  0  0  0  0  0  0  0  0  0  0
   -6.9600   20.8220  -32.6090 N   0  0  0  0  0  0  0  0  0  0  0  0
   -6.6900   19.4790  -33.0460 C   0  0  0  0  0  0  0  0  0  0  0  0
   -5.9890   19.2770  -34.2450 C   0  0  0  0  0  0  0  0  0  0  0  0
   -5.7040   17.9840  -34.6900 C   0  0  0  0  0  0  0  0  0  0  0  0
   -6.1370   16.8780  -33.9530 C   0  0  0  0  0  0  0  0  0  0  0  0
   -5.8640   15.6230  -34.3860 F   0  0  0  0  0  0  0  0  0  0  0  0
   -6.8650   17.0680  -32.7740 C   0  0  0  0  0  0  0  0  0  0  0  0
   -7.1470   18.3620  -32.3240 C   0  0  0  0  0  0  0  0  0  0  0  0
   -5.4720   24.3980  -30.4830 N   0  0  0  0  0  0  0  0  0  0  0  0
   -6.3040   25.3140  -29.7050 C   0  0  0  0  0  0  0  0  0  0  0  0
   -2.3840   25.3000  -29.2450 O   0  0  0  0  0  0  0  0  0  0  0  0
   -0.4848   26.4354  -26.7446 H   0  0  0  0  0  0  0  0  0  0  0  0
    0.2919   25.9082  -28.2761 H   0  0  0  0  0  0  0  0  0  0  0  0
   -0.8366   27.3057  -28.2761 H   0  0  0  0  0  0  0  0  0  0  0  0
   -2.0007   24.3648  -26.1380 H   0  0  0  0  0  0  0  0  0  0  0  0
   -3.9811   23.0787  -27.4591 H   0  0  0  0  0  0  0  0  0  0  0  0
   -7.6761   22.6366  -30.2958 H   0  0  0  0  0  0  0  0  0  0  0  0
   -9.2540   22.8532  -31.1514 H   0  0  0  0  0  0  0  0  0  0  0  0
   -6.1960   21.5270  -32.7270 H   0  0  0  0  0  0  0  0  0  0  0  0
   -5.6616   20.1433  -34.8386 H   0  0  0  0  0  0  0  0  0  0  0  0
   -5.1381   17.8359  -35.6216 H   0  0  0  0  0  0  0  0  0  0  0  0
   -7.2164   16.1982  -32.1996 H   0  0  0  0  0  0  0  0  0  0  0  0
   -7.7286   18.5065  -31.4016 H   0  0  0  0  0  0  0  0  0  0  0  0
   -6.1416   25.1352  -28.6319 H   0  0  0  0  0  0  0  0  0  0  0  0
   -6.0334   26.3520  -29.9488 H   0  0  0  0  0  0  0  0  0  0  0  0
   -7.3631   25.1442  -29.9488 H   0  0  0  0  0  0  0  0  0  0  0  0
  1  2  1  0
  2  3  2  0
  3  4  1  0
  4  5  2  0
  5  6  1  0
  6  7  2  0
  7  8  1  0
  8  9  2  0
  9 10  1  0
 10 11  1  0
 11 12  1  0
 12 13  2  0
 12 14  1  0
 14 15  1  0
 15 16  2  0
 16 17  1  0
 17 18  2  0
 18 19  1  0
 18 20  1  0
 20 21  2  0
  9 22  1  0
 22 23  1  0
  5 24  1  0
 24  2  1  0
 22  6  1  0
 21 15  1  0
  1 25  1  0
  1 26  1  0
  1 27  1  0
  3 28  1  0
  4 29  1  0
 11 30  1  0
 11 31  1  0
 14 32  1  0
 16 33  1  0
 17 34  1  0
 20 35  1  0
 21 36  1  0
 23 37  1  0
 23 38  1  0
 23 39  1  0
M  END
>  <UniqueID>  (22) 
20

>  <SMILES>  (22) 
Cc1ccc(-c2nnc(SCC(=O)Nc3ccc(F)cc3)n2C)o1

>  <Energy>  (22) 
97.59106229780505

>  <Genealogy>  (22) 
Cc1ccc(-c2nnc(SCC(=O)Nc3ccc(F)cc3)n2C)o1 (3D coordinates assigned)
Cc1ccc(-c2nnc(SCC(=O)Nc3ccc(F)cc3)n2C)o1 (optimized conformer: 97.59106229780505 kcal/mol)

>  <smiles>  (22) 
Cc1ccc(-c2nnc(SCC(=O)Nc3ccc(F)cc3)n2C)o1

>  <score_type>  (22) 
oracle

>  <origin>  (22) 
adgpu

>  <m_score__min__energy>  (22) 
-8.8300000000000001

>  <m_primary>  (22) 
energy

$$$$
22:0
     RDKit          3D

 36 38  0  0  0  0  0  0  0  0999 V2000
   -3.2800   24.1820  -28.1050 O   0  0  0  0  0  0  0  0  0  0  0  0
   -2.8370   24.8890  -29.0500 C   0  0  0  0  0  0  0  0  0  0  0  0
   -3.4830   24.8170  -30.3260 N   0  0  0  0  0  0  0  0  0  0  0  0
   -4.4680   23.8510  -30.7190 C   0  0  0  0  0  0  0  0  0  0  0  0
   -5.8060   24.0740  -30.3780 C   0  0  0  0  0  0  0  0  0  0  0  0
   -6.7970   23.1660  -30.7630 C   0  0  0  0  0  0  0  0  0  0  0  0
   -6.4640   22.0240  -31.5150 C   0  0  0  0  0  0  0  0  0  0  0  0
   -7.5150   21.0560  -31.9250 C   0  0  0  0  0  0  0  0  0  0  0  0
   -7.1760   19.7420  -32.2890 C   0  0  0  0  0  0  0  0  0  0  0  0
   -8.1790   18.8480  -32.6710 C   0  0  0  0  0  0  0  0  0  0  0  0
   -9.4780   19.2480  -32.6930 N   0  0  0  0  0  0  0  0  0  0  0  0
   -9.8380   20.5120  -32.3480 C   0  0  0  0  0  0  0  0  0  0  0  0
   -8.8670   21.4380  -31.9580 C   0  0  0  0  0  0  0  0  0  0  0  0
   -5.1210   21.8170  -31.8790 C   0  0  0  0  0  0  0  0  0  0  0  0
   -4.1330   22.7270  -31.4920 C   0  0  0  0  0  0  0  0  0  0  0  0
   -1.6450   25.6690  -28.8730 N   0  0  0  0  0  0  0  0  0  0  0  0
   -1.1360   26.0800  -27.5920 C   0  0  0  0  0  0  0  0  0  0  0  0
   -0.5120   27.3320  -27.4680 C   0  0  0  0  0  0  0  0  0  0  0  0
   -0.0300   27.7640  -26.2280 C   0  0  0  0  0  0  0  0  0  0  0  0
   -0.1790   26.9550  -25.0980 C   0  0  0  0  0  0  0  0  0  0  0  0
    0.4230   27.5000  -23.5430 Cl  0  0  0  0  0  0  0  0  0  0  0  0
   -0.8190   25.7160  -25.2060 C   0  0  0  0  0  0  0  0  0  0  0  0
   -1.3010   25.2810  -26.4450 C   0  0  0  0  0  0  0  0  0  0  0  0
   -6.0806   24.9704  -29.8026 H   0  0  0  0  0  0  0  0  0  0  0  0
   -7.8437   23.3454  -30.4763 H   0  0  0  0  0  0  0  0  0  0  0  0
   -6.1248   19.4185  -32.2732 H   0  0  0  0  0  0  0  0  0  0  0  0
   -7.9171   17.8180  -32.9547 H   0  0  0  0  0  0  0  0  0  0  0  0
  -10.8973   20.8072  -32.3758 H   0  0  0  0  0  0  0  0  0  0  0  0
   -9.1594   22.4609  -31.6782 H   0  0  0  0  0  0  0  0  0  0  0  0
   -4.8463   20.9325  -32.4725 H   0  0  0  0  0  0  0  0  0  0  0  0
   -3.0883   22.5621  -31.7942 H   0  0  0  0  0  0  0  0  0  0  0  0
   -1.0680   25.8740  -29.7200 H   0  0  0  0  0  0  0  0  0  0  0  0
   -0.4015   27.9773  -28.3520 H   0  0  0  0  0  0  0  0  0  0  0  0
    0.4669   28.7416  -26.1421 H   0  0  0  0  0  0  0  0  0  0  0  0
   -0.9435   25.0827  -24.3152 H   0  0  0  0  0  0  0  0  0  0  0  0
   -1.8115   24.3098  -26.5233 H   0  0  0  0  0  0  0  0  0  0  0  0
  1  2  2  0
  2  3  1  0
  3  4  1  0
  4  5  2  0
  5  6  1  0
  6  7  2  0
  7  8  1  0
  8  9  2  0
  9 10  1  0
 10 11  2  0
 11 12  1  0
 12 13  2  0
  7 14  1  0
 14 15  2  0
  2 16  1  0
 16 17  1  0
 17 18  2  0
 18 19  1  0
 19 20  2  0
 20 21  1  0
 20 22  1  0
 22 23  2  0
 15  4  1  0
 23 17  1  0
 13  8  1  0
  5 24  1  0
  6 25  1  0
  9 26  1  0
 10 27  1  0
 12 28  1  0
 13 29  1  0
 14 30  1  0
 15 31  1  0
 16 32  1  0
 18 33  1  0
 19 34  1  0
 22 35  1  0
 23 36  1  0
M  CHG  1   3  -1
M  END
>  <UniqueID>  (23) 
21

>  <SMILES>  (23) 
O=C([N-]c1ccc(-c2ccncc2)cc1)Nc1ccc(Cl)cc1

>  <Energy>  (23) 
51.819406857803045

>  <Genealogy>  (23) 
O=C([N-]c1ccc(-c2ccncc2)cc1)Nc1ccc(Cl)cc1 (protonated)
O=C([N-]c1ccc(-c2ccncc2)cc1)Nc1ccc(Cl)cc1 (3D coordinates assigned)
O=C([N-]c1ccc(-c2ccncc2)cc1)Nc1ccc(Cl)cc1 (optimized conformer: 51.819406857803045 kcal/mol)

>  <smiles>  (23) 
O=C(Nc1ccc(Cl)cc1)Nc1ccc(-c2ccncc2)cc1

>  <score_type>  (23) 
oracle

>  <origin>  (23) 
adgpu

>  <m_score__min__energy>  (23) 
-10.300000000000001

>  <m_primary>  (23) 
energy

$$$$
23:0
     RDKit          3D

 35 37  0  0  0  0  0  0  0  0999 V2000
    1.0370   27.2420  -23.7620 C   0  0  0  0  0  0  0  0  0  0  0  0
    0.2190   26.8490  -24.9570 C   0  0  0  0  0  0  0  0  0  0  0  0
   -0.9130   26.0350  -24.8030 C   0  0  0  0  0  0  0  0  0  0  0  0
   -1.6540   25.6370  -25.9190 C   0  0  0  0  0  0  0  0  0  0  0  0
   -1.2590   26.0280  -27.2120 C   0  0  0  0  0  0  0  0  0  0  0  0
   -2.0170   25.6520  -28.3740 N   0  0  0  0  0  0  0  0  0  0  0  0
   -2.1520   24.2990  -28.8400 C   0  0  0  0  0  0  0  0  0  0  0  0
   -1.3510   23.4100  -28.4460 O   0  0  0  0  0  0  0  0  0  0  0  0
   -3.1930   23.9390  -29.8170 C   0  0  0  0  0  0  0  0  0  0  0  0
   -3.6310   22.6660  -30.1260 C   0  0  0  0  0  0  0  0  0  0  0  0
   -4.5870   22.8700  -31.1020 C   0  0  0  0  0  0  0  0  0  0  0  0
   -5.3380   21.8300  -31.8400 C   0  0  0  0  0  0  0  0  0  0  0  0
   -6.7140   21.6900  -31.5870 C   0  0  0  0  0  0  0  0  0  0  0  0
   -7.4700   20.7350  -32.2740 C   0  0  0  0  0  0  0  0  0  0  0  0
   -9.1900   20.5850  -31.9570 Cl  0  0  0  0  0  0  0  0  0  0  0  0
   -6.8600   19.9030  -33.2130 C   0  0  0  0  0  0  0  0  0  0  0  0
   -5.4900   20.0150  -33.4590 C   0  0  0  0  0  0  0  0  0  0  0  0
   -4.7210   20.9680  -32.7770 C   0  0  0  0  0  0  0  0  0  0  0  0
   -2.9840   20.9720  -33.0690 Cl  0  0  0  0  0  0  0  0  0  0  0  0
   -4.6850   24.1880  -31.3670 N   0  0  0  0  0  0  0  0  0  0  0  0
   -3.8410   24.8380  -30.5810 N   0  0  0  0  0  0  0  0  0  0  0  0
   -0.1290   26.8460  -27.3610 C   0  0  0  0  0  0  0  0  0  0  0  0
    0.6120   27.2430  -26.2440 C   0  0  0  0  0  0  0  0  0  0  0  0
    0.4924   26.9804  -22.8428 H   0  0  0  0  0  0  0  0  0  0  0  0
    1.9981   26.7073  -23.7836 H   0  0  0  0  0  0  0  0  0  0  0  0
    1.2202   28.3264  -23.7836 H   0  0  0  0  0  0  0  0  0  0  0  0
   -1.2191   25.7082  -23.7983 H   0  0  0  0  0  0  0  0  0  0  0  0
   -2.5512   25.0145  -25.7861 H   0  0  0  0  0  0  0  0  0  0  0  0
   -2.4080   26.4190  -28.9670 H   0  0  0  0  0  0  0  0  0  0  0  0
   -3.2961   21.7111  -29.6948 H   0  0  0  0  0  0  0  0  0  0  0  0
   -7.2000   22.3373  -30.8422 H   0  0  0  0  0  0  0  0  0  0  0  0
   -7.4580   19.1589  -33.7595 H   0  0  0  0  0  0  0  0  0  0  0  0
   -5.0109   19.3506  -34.1932 H   0  0  0  0  0  0  0  0  0  0  0  0
    0.1763   27.1775  -28.3644 H   0  0  0  0  0  0  0  0  0  0  0  0
    1.5079   27.8676  -26.3754 H   0  0  0  0  0  0  0  0  0  0  0  0
  1  2  1  0
  2  3  2  0
  3  4  1  0
  4  5  2  0
  5  6  1  0
  6  7  1  0
  7  8  2  0
  7  9  1  0
  9 10  1  0
 10 11  2  0
 11 12  1  0
 12 13  2  0
 13 14  1  0
 14 15  1  0
 14 16  2  0
 16 17  1  0
 17 18  2  0
 18 19  1  0
 11 20  1  0
 20 21  1  0
  5 22  1  0
 22 23  2  0
 23  2  1  0
 21  9  2  0
 18 12  1  0
  1 24  1  0
  1 25  1  0
  1 26  1  0
  3 27  1  0
  4 28  1  0
  6 29  1  0
 10 30  1  0
 13 31  1  0
 16 32  1  0
 17 33  1  0
 22 34  1  0
 23 35  1  0
M  CHG  1  20  -1
M  END
>  <UniqueID>  (24) 
22

>  <SMILES>  (24) 
Cc1ccc(NC(=O)c2cc(-c3cc(Cl)ccc3Cl)[n-]n2)cc1

>  <Energy>  (24) 
75.03853562886977

>  <Genealogy>  (24) 
Cc1ccc(NC(=O)c2cc(-c3cc(Cl)ccc3Cl)[n-]n2)cc1 (protonated)
Cc1ccc(NC(=O)c2cc(-c3cc(Cl)ccc3Cl)[n-]n2)cc1 (3D coordinates assigned)
Cc1ccc(NC(=O)c2cc(-c3cc(Cl)ccc3Cl)[n-]n2)cc1 (optimized conformer: 75.03853562886977 kcal/mol)

>  <smiles>  (24) 
Cc1ccc(NC(=O)c2cc(-c3cc(Cl)ccc3Cl)[nH]n2)cc1

>  <score_type>  (24) 
oracle

>  <origin>  (24) 
adgpu

>  <m_score__min__energy>  (24) 
-10.26

>  <m_primary>  (24) 
energy

$$$$
24:0
     RDKit          3D

 25 26  0  0  0  0  0  0  0  0999 V2000
   -5.1920   20.6780  -33.2730 C   0  0  0  0  0  0  0  0  0  0  0  0
   -6.5510   20.8330  -32.6410 C   0  0  0  0  0  0  0  0  0  0  0  0
   -7.6090   20.0250  -33.0960 C   0  0  0  0  0  0  0  0  0  0  0  0
   -8.8790   20.1330  -32.5250 C   0  0  0  0  0  0  0  0  0  0  0  0
   -9.8880   19.3420  -32.9660 F   0  0  0  0  0  0  0  0  0  0  0  0
   -9.1100   21.0490  -31.5000 C   0  0  0  0  0  0  0  0  0  0  0  0
   -8.0760   21.8710  -31.0500 C   0  0  0  0  0  0  0  0  0  0  0  0
   -6.7940   21.7830  -31.6190 C   0  0  0  0  0  0  0  0  0  0  0  0
   -5.7350   22.6960  -31.1300 C   0  0  0  0  0  0  0  0  0  0  0  0
   -5.9310   24.0860  -31.1670 C   0  0  0  0  0  0  0  0  0  0  0  0
   -4.9370   24.9500  -30.6970 C   0  0  0  0  0  0  0  0  0  0  0  0
   -3.7450   24.4330  -30.1810 C   0  0  0  0  0  0  0  0  0  0  0  0
   -2.7580   25.2920  -29.7150 O   0  0  0  0  0  0  0  0  0  0  0  0
   -3.5460   23.0490  -30.1330 C   0  0  0  0  0  0  0  0  0  0  0  0
   -4.5380   22.1810  -30.6020 C   0  0  0  0  0  0  0  0  0  0  0  0
   -4.3230   20.8410  -30.5580 F   0  0  0  0  0  0  0  0  0  0  0  0
   -4.4291   20.5910  -32.4853 H   0  0  0  0  0  0  0  0  0  0  0  0
   -5.1792   19.7726  -33.8975 H   0  0  0  0  0  0  0  0  0  0  0  0
   -4.9756   21.5573  -33.8975 H   0  0  0  0  0  0  0  0  0  0  0  0
   -7.4347   19.3030  -33.9073 H   0  0  0  0  0  0  0  0  0  0  0  0
  -10.1088   21.1240  -31.0452 H   0  0  0  0  0  0  0  0  0  0  0  0
   -8.2660   22.5940  -30.2430 H   0  0  0  0  0  0  0  0  0  0  0  0
   -6.8698   24.4966  -31.5671 H   0  0  0  0  0  0  0  0  0  0  0  0
   -5.0933   26.0382  -30.7334 H   0  0  0  0  0  0  0  0  0  0  0  0
   -2.6083   22.6427  -29.7260 H   0  0  0  0  0  0  0  0  0  0  0  0
  1  2  1  0
  2  3  2  0
  3  4  1  0
  4  5  1  0
  4  6  2  0
  6  7  1  0
  7  8  2  0
  8  9  1  0
  9 10  2  0
 10 11  1  0
 11 12  2  0
 12 13  1  0
 12 14  1  0
 14 15  2  0
 15 16  1  0
  8  2  1  0
 15  9  1  0
  1 17  1  0
  1 18  1  0
  1 19  1  0
  3 20  1  0
  6 21  1  0
  7 22  1  0
 10 23  1  0
 11 24  1  0
 14 25  1  0
M  CHG  1  13  -1
M  END
>  <UniqueID>  (25) 
23

>  <SMILES>  (25) 
Cc1cc(F)ccc1-c1ccc([O-])cc1F

>  <Energy>  (25) 
33.58058003865949

>  <Genealogy>  (25) 
Cc1cc(F)ccc1-c1ccc([O-])cc1F (protonated)
Cc1cc(F)ccc1-c1ccc([O-])cc1F (3D coordinates assigned)
Cc1cc(F)ccc1-c1ccc([O-])cc1F (optimized conformer: 33.58058003865949 kcal/mol)

>  <smiles>  (25) 
Cc1cc(F)ccc1-c1ccc(O)cc1F

>  <score_type>  (25) 
oracle

>  <origin>  (25) 
adgpu

>  <m_score__min__energy>  (25) 
-9.6699999999999999

>  <m_primary>  (25) 
energy

$$$$
25:0
     RDKit          3D

 35 38  0  0  0  0  0  0  0  0999 V2000
   -1.3488   26.3885  -25.4850 H   0  0  0  0  0  0  0  0  0  0  0  0
   -1.9840   25.7720  -26.1380 C   0  0  0  0  0  0  0  0  0  0  0  0
   -3.2010   25.2980  -25.7970 N   0  0  0  0  0  0  0  0  0  0  0  0
   -3.7710   24.5650  -26.7910 C   0  0  0  0  0  0  0  0  0  0  0  0
   -4.7634   24.1019  -26.6878 H   0  0  0  0  0  0  0  0  0  0  0  0
   -3.0040   24.4430  -27.9530 C   0  0  0  0  0  0  0  0  0  0  0  0
   -3.3630   23.7100  -29.1960 C   0  0  0  0  0  0  0  0  0  0  0  0
   -4.6830   23.7240  -29.6660 C   0  0  0  0  0  0  0  0  0  0  0  0
   -5.4484   24.2898  -29.1146 H   0  0  0  0  0  0  0  0  0  0  0  0
   -5.0410   23.0310  -30.8230 C   0  0  0  0  0  0  0  0  0  0  0  0
   -6.0764   23.0889  -31.1899 H   0  0  0  0  0  0  0  0  0  0  0  0
   -4.0950   22.2560  -31.5310 C   0  0  0  0  0  0  0  0  0  0  0  0
   -4.4030   21.4780  -32.6940 C   0  0  0  0  0  0  0  0  0  0  0  0
   -5.6050   21.1450  -33.0920 N   0  0  0  0  0  0  0  0  0  0  0  0
   -6.8670   21.2600  -32.4230 C   0  0  0  0  0  0  0  0  0  0  0  0
   -7.4850   22.5160  -32.3530 C   0  0  0  0  0  0  0  0  0  0  0  0
   -6.9895   23.3947  -32.7917 H   0  0  0  0  0  0  0  0  0  0  0  0
   -8.7270   22.6580  -31.7290 C   0  0  0  0  0  0  0  0  0  0  0  0
   -9.1974   23.6500  -31.6605 H   0  0  0  0  0  0  0  0  0  0  0  0
   -9.3720   21.5410  -31.1920 C   0  0  0  0  0  0  0  0  0  0  0  0
  -10.3441   21.6560  -30.6902 H   0  0  0  0  0  0  0  0  0  0  0  0
   -8.7830   20.2780  -31.2920 C   0  0  0  0  0  0  0  0  0  0  0  0
   -9.2986   19.3987  -30.8785 H   0  0  0  0  0  0  0  0  0  0  0  0
   -7.5380   20.1270  -31.9170 C   0  0  0  0  0  0  0  0  0  0  0  0
   -6.8700   18.5080  -32.0860 Cl  0  0  0  0  0  0  0  0  0  0  0  0
   -3.3430   20.9770  -33.4590 C   0  0  0  0  0  0  0  0  0  0  0  0
   -3.5504   20.4776  -34.4169 H   0  0  0  0  0  0  0  0  0  0  0  0
   -2.0310   21.1050  -33.0190 C   0  0  0  0  0  0  0  0  0  0  0  0
   -1.2091   20.6937  -33.6234 H   0  0  0  0  0  0  0  0  0  0  0  0
   -1.7580   21.7340  -31.8490 N   0  0  0  0  0  0  0  0  0  0  0  0
   -0.7600   21.7890  -31.5440 H   0  0  0  0  0  0  0  0  0  0  0  0
   -2.7400   22.3210  -31.1070 C   0  0  0  0  0  0  0  0  0  0  0  0
   -2.3940   23.0160  -29.9370 C   0  0  0  0  0  0  0  0  0  0  0  0
   -1.3481   23.0165  -29.5962 H   0  0  0  0  0  0  0  0  0  0  0  0
   -1.5710   25.2940  -27.6920 S   0  0  0  0  0  0  0  0  0  0  0  0
  1  2  1  0
  2  3  2  0
  3  4  1  0
  4  5  1  0
  4  6  2  0
  6  7  1  0
  7  8  2  0
  8  9  1  0
  8 10  1  0
 10 11  1  0
 10 12  2  0
 12 13  1  0
 13 14  2  0
 14 15  1  0
 15 16  2  0
 16 17  1  0
 16 18  1  0
 18 19  1  0
 18 20  2  0
 20 21  1  0
 20 22  1  0
 22 23  1  0
 22 24  2  0
 24 25  1  0
 13 26  1  0
 26 27  1  0
 26 28  2  0
 28 29  1  0
 28 30  1  0
 30 31  1  0
 30 32  1  0
 32 33  2  0
 33 34  1  0
  6 35  1  0
 35  2  1  0
 33  7  1  0
 32 12  1  0
 24 15  1  0
M  END
>  <UniqueID>  (26) 
24

>  <SMILES>  (26) 
Clc1ccccc1/N=c1/cc[nH]c2cc(-c3cncs3)ccc12

>  <Energy>  (26) 
96.54227663731365

>  <Genealogy>  (26) 
Clc1ccccc1/N=c1/cc[nH]c2cc(-c3cncs3)ccc12 (cis-trans isomerization)
Clc1ccccc1/N=c1/cc[nH]c2cc(-c3cncs3)ccc12 (3D coordinates assigned)
Clc1ccccc1/N=c1/cc[nH]c2cc(-c3cncs3)ccc12 (optimized conformer: 96.54227663731365 kcal/mol)

>  <smiles>  (26) 
Clc1ccccc1N=c1cc[nH]c2cc(-c3cncs3)ccc12

>  <score_type>  (26) 
oracle

>  <origin>  (26) 
adgpu

>  <m_score__min__energy>  (26) 
-8.3499999999999996

>  <m_primary>  (26) 
energy

$$$$
26:0
     RDKit          3D

 22 23  0  0  0  0  0  0  0  0999 V2000
   -5.1190   19.1970  -32.6280 F   0  0  0  0  0  0  0  0  0  0  0  0
   -5.3310   20.5320  -32.3420 C   0  0  0  0  0  0  0  0  0  0  0  0
   -4.6710   20.8410  -31.1650 F   0  0  0  0  0  0  0  0  0  0  0  0
   -4.7790   21.3090  -33.3460 F   0  0  0  0  0  0  0  0  0  0  0  0
   -6.8190   20.7940  -32.2160 C   0  0  0  0  0  0  0  0  0  0  0  0
   -7.7290   19.8370  -32.7100 C   0  0  0  0  0  0  0  0  0  0  0  0
   -9.1060   20.0290  -32.5810 C   0  0  0  0  0  0  0  0  0  0  0  0
   -9.5980   21.1790  -31.9680 C   0  0  0  0  0  0  0  0  0  0  0  0
   -8.7160   22.1530  -31.5010 C   0  0  0  0  0  0  0  0  0  0  0  0
   -7.3280   21.9870  -31.6390 C   0  0  0  0  0  0  0  0  0  0  0  0
   -6.4630   23.0410  -31.1880 N   0  0  0  0  0  0  0  0  0  0  0  0
   -6.4190   23.5710  -29.9550 C   0  0  0  0  0  0  0  0  0  0  0  0
   -5.5200   24.6130  -29.9750 C   0  0  0  0  0  0  0  0  0  0  0  0
   -5.0160   24.7530  -31.2190 N   0  0  0  0  0  0  0  0  0  0  0  0
   -5.6190   23.7800  -31.9340 C   0  0  0  0  0  0  0  0  0  0  0  0
   -7.3500   18.9293  -33.2024 H   0  0  0  0  0  0  0  0  0  0  0  0
   -9.8040   19.2702  -32.9644 H   0  0  0  0  0  0  0  0  0  0  0  0
  -10.6829   21.3189  -31.8522 H   0  0  0  0  0  0  0  0  0  0  0  0
   -9.1110   23.0600  -31.0200 H   0  0  0  0  0  0  0  0  0  0  0  0
   -6.9986   23.2324  -29.0836 H   0  0  0  0  0  0  0  0  0  0  0  0
   -5.2530   25.2366  -29.1090 H   0  0  0  0  0  0  0  0  0  0  0  0
   -5.4412   23.6094  -33.0061 H   0  0  0  0  0  0  0  0  0  0  0  0
  1  2  1  0
  2  3  1  0
  2  4  1  0
  2  5  1  0
  5  6  2  0
  6  7  1  0
  7  8  2  0
  8  9  1  0
  9 10  2  0
 10 11  1  0
 11 12  1  0
 12 13  2  0
 13 14  1  0
 14 15  2  0
 10  5  1  0
 15 11  1  0
  6 16  1  0
  7 17  1  0
  8 18  1  0
  9 19  1  0
 12 20  1  0
 13 21  1  0
 15 22  1  0
M  END
>  <UniqueID>  (27) 
25

>  <SMILES>  (27) 
FC(F)(F)c1ccccc1-n1ccnc1

>  <Energy>  (27) 
60.48329953026225

>  <Genealogy>  (27) 
FC(F)(F)c1ccccc1-n1ccnc1 (3D coordinates assigned)
FC(F)(F)c1ccccc1-n1ccnc1 (optimized conformer: 60.48329953026225 kcal/mol)

>  <smiles>  (27) 
FC(F)(F)c1ccccc1-n1ccnc1

>  <score_type>  (27) 
oracle

>  <origin>  (27) 
adgpu

>  <m_score__min__energy>  (27) 
-5.4199999999999999

>  <m_primary>  (27) 
energy

$$$$
27:0
     RDKit          3D

 49 51  0  0  0  0  0  0  0  0999 V2000
   -3.8650   25.2980  -30.5370 O   0  0  0  0  0  0  0  0  0  0  0  0
   -4.3500   24.1370  -30.6090 C   0  0  0  0  0  0  0  0  0  0  0  0
   -5.2930   23.8490  -31.6480 N   0  0  0  0  0  0  0  0  0  0  0  0
   -6.7460   23.8510  -31.4950 C   0  0  0  0  0  0  0  0  0  0  0  0
   -7.3210   22.4950  -31.8110 C   0  0  0  0  0  0  0  0  0  0  0  0
   -8.5700   22.1170  -31.2890 C   0  0  0  0  0  0  0  0  0  0  0  0
   -9.1100   20.8630  -31.5920 C   0  0  0  0  0  0  0  0  0  0  0  0
   -8.4140   19.9830  -32.4240 C   0  0  0  0  0  0  0  0  0  0  0  0
   -7.1780   20.3560  -32.9580 C   0  0  0  0  0  0  0  0  0  0  0  0
   -6.6340   21.6090  -32.6590 C   0  0  0  0  0  0  0  0  0  0  0  0
   -3.9450   23.1310  -29.6680 N   0  0  0  0  0  0  0  0  0  0  0  0
   -2.9680   23.3900  -28.6130 C   0  0  0  0  0  0  0  0  0  0  0  0
   -1.5410   22.9990  -29.0400 C   0  0  0  0  0  0  0  0  0  0  0  0
   -1.3500   21.5490  -29.5810 C   0  0  0  0  0  0  0  0  0  0  0  0
   -1.5970   20.5310  -28.4690 C   0  0  0  0  0  0  0  0  0  0  0  0
   -0.6390   19.5520  -28.1300 C   0  0  0  0  0  0  0  0  0  0  0  0
   -0.9090   18.6070  -27.1380 C   0  0  0  0  0  0  0  0  0  0  0  0
   -2.1380   18.6150  -26.4770 C   0  0  0  0  0  0  0  0  0  0  0  0
   -3.1020   19.5680  -26.8110 C   0  0  0  0  0  0  0  0  0  0  0  0
   -2.8380   20.5170  -27.8030 C   0  0  0  0  0  0  0  0  0  0  0  0
   -2.0540   21.2500  -30.9150 C   0  0  0  0  0  0  0  0  0  0  0  0
   -1.4140   21.5610  -32.1350 C   0  0  0  0  0  0  0  0  0  0  0  0
   -2.0050   21.2440  -33.3610 C   0  0  0  0  0  0  0  0  0  0  0  0
   -3.2240   20.5690  -33.3960 C   0  0  0  0  0  0  0  0  0  0  0  0
   -3.8400   20.1860  -32.2060 C   0  0  0  0  0  0  0  0  0  0  0  0
   -3.2510   20.4980  -30.9770 C   0  0  0  0  0  0  0  0  0  0  0  0
   -6.9987   24.1167  -30.4579 H   0  0  0  0  0  0  0  0  0  0  0  0
   -7.1723   24.5854  -32.1942 H   0  0  0  0  0  0  0  0  0  0  0  0
   -9.1249   22.8101  -30.6397 H   0  0  0  0  0  0  0  0  0  0  0  0
  -10.0844   20.5692  -31.1745 H   0  0  0  0  0  0  0  0  0  0  0  0
   -8.8391   18.9960  -32.6588 H   0  0  0  0  0  0  0  0  0  0  0  0
   -6.6319   19.6628  -33.6147 H   0  0  0  0  0  0  0  0  0  0  0  0
   -5.6649   21.9024  -33.0889 H   0  0  0  0  0  0  0  0  0  0  0  0
   -4.3900   22.1890  -29.6910 H   0  0  0  0  0  0  0  0  0  0  0  0
   -2.9845   24.4625  -28.3691 H   0  0  0  0  0  0  0  0  0  0  0  0
   -3.2408   22.7793  -27.7397 H   0  0  0  0  0  0  0  0  0  0  0  0
   -1.2262   23.6952  -29.8313 H   0  0  0  0  0  0  0  0  0  0  0  0
   -0.9379   23.0491  -28.1214 H   0  0  0  0  0  0  0  0  0  0  0  0
   -0.2948   21.4508  -29.8758 H   0  0  0  0  0  0  0  0  0  0  0  0
    0.3292   19.5331  -28.6518 H   0  0  0  0  0  0  0  0  0  0  0  0
   -0.1507   17.8541  -26.8769 H   0  0  0  0  0  0  0  0  0  0  0  0
   -2.3469   17.8714  -25.6938 H   0  0  0  0  0  0  0  0  0  0  0  0
   -4.0720   19.5722  -26.2922 H   0  0  0  0  0  0  0  0  0  0  0  0
   -3.6062   21.2592  -28.0657 H   0  0  0  0  0  0  0  0  0  0  0  0
   -0.4343   22.0609  -32.1199 H   0  0  0  0  0  0  0  0  0  0  0  0
   -1.5073   21.5277  -34.3001 H   0  0  0  0  0  0  0  0  0  0  0  0
   -3.6990   20.3390  -34.3612 H   0  0  0  0  0  0  0  0  0  0  0  0
   -4.7925   19.6365  -32.2338 H   0  0  0  0  0  0  0  0  0  0  0  0
   -3.7246   20.1542  -30.0456 H   0  0  0  0  0  0  0  0  0  0  0  0
  1  2  2  0
  2  3  1  0
  3  4  1  0
  4  5  1  0
  5  6  2  0
  6  7  1  0
  7  8  2  0
  8  9  1  0
  9 10  2  0
  2 11  1  0
 11 12  1  0
 12 13  1  0
 13 14  1  0
 14 15  1  0
 15 16  2  0
 16 17  1  0
 17 18  2  0
 18 19  1  0
 19 20  2  0
 14 21  1  0
 21 22  2  0
 22 23  1  0
 23 24  2  0
 24 25  1  0
 25 26  2  0
 10  5  1  0
 20 15  1  0
 26 21  1  0
  4 27  1  0
  4 28  1  0
  6 29  1  0
  7 30  1  0
  8 31  1  0
  9 32  1  0
 10 33  1  0
 11 34  1  0
 12 35  1  0
 12 36  1  0
 13 37  1  0
 13 38  1  0
 14 39  1  0
 16 40  1  0
 17 41  1  0
 18 42  1  0
 19 43  1  0
 20 44  1  0
 22 45  1  0
 23 46  1  0
 24 47  1  0
 25 48  1  0
 26 49  1  0
M  CHG  1   3  -1
M  END
>  <UniqueID>  (28) 
26

>  <SMILES>  (28) 
O=C([N-]Cc1ccccc1)NCCC(c1ccccc1)c1ccccc1

>  <Energy>  (28) 
52.0458752214995

>  <Genealogy>  (28) 
O=C([N-]Cc1ccccc1)NCCC(c1ccccc1)c1ccccc1 (protonated)
O=C([N-]Cc1ccccc1)NCCC(c1ccccc1)c1ccccc1 (3D coordinates assigned)
O=C([N-]Cc1ccccc1)NCCC(c1ccccc1)c1ccccc1 (optimized conformer: 52.0458752214995 kcal/mol)

>  <smiles>  (28) 
O=C(NCCC(c1ccccc1)c1ccccc1)NCc1ccccc1

>  <score_type>  (28) 
oracle

>  <origin>  (28) 
adgpu

>  <m_score__min__energy>  (28) 
-10.65

>  <m_primary>  (28) 
energy

$$$$
28:0
     RDKit          3D

 52 56  0  0  0  0  0  0  0  0999 V2000
   -1.2410   26.4300  -28.9470 O   0  0  0  0  0  0  0  0  0  0  0  0
   -0.9540   25.2430  -28.6350 C   0  0  0  0  0  0  0  0  0  0  0  0
   -1.9640   24.2380  -28.7090 N   0  0  0  0  0  0  0  0  0  0  0  0
   -2.1470   23.4080  -29.8910 C   0  0  0  0  0  0  0  0  0  0  0  0
   -3.5220   23.6080  -30.4350 C   0  0  0  0  0  0  0  0  0  0  0  0
   -3.9970   24.8000  -30.8430 N   0  0  0  0  0  0  0  0  0  0  0  0
   -5.2140   24.5590  -31.2210 O   0  0  0  0  0  0  0  0  0  0  0  0
   -5.4860   23.2870  -31.0530 C   0  0  0  0  0  0  0  0  0  0  0  0
   -6.7810   22.6750  -31.3830 C   0  0  0  0  0  0  0  0  0  0  0  0
   -7.8970   23.4540  -31.6960 C   0  0  0  0  0  0  0  0  0  0  0  0
   -9.1010   22.8240  -31.9940 C   0  0  0  0  0  0  0  0  0  0  0  0
   -9.1700   21.4310  -31.9720 C   0  0  0  0  0  0  0  0  0  0  0  0
  -10.2640   20.8600  -32.2330 O   0  0  0  0  0  0  0  0  0  0  0  0
   -8.0500   20.7020  -31.6660 N   0  0  0  0  0  0  0  0  0  0  0  0
   -8.0860   19.2380  -31.5910 C   0  0  0  0  0  0  0  0  0  0  0  0
   -7.1020   18.6470  -32.5650 C   0  0  0  0  0  0  0  0  0  0  0  0
   -6.6460   19.4040  -33.6740 C   0  0  0  0  0  0  0  0  0  0  0  0
   -5.7530   18.8420  -34.6040 C   0  0  0  0  0  0  0  0  0  0  0  0
   -5.3440   17.5270  -34.4000 C   0  0  0  0  0  0  0  0  0  0  0  0
   -5.7820   16.7950  -33.3450 C   0  0  0  0  0  0  0  0  0  0  0  0
   -6.6650   17.3120  -32.4020 C   0  0  0  0  0  0  0  0  0  0  0  0
   -5.2210   15.5320  -33.3960 O   0  0  0  0  0  0  0  0  0  0  0  0
   -4.3760   15.4710  -34.5550 C   0  0  0  0  0  0  0  0  0  0  0  0
   -4.4850   16.7640  -35.1670 O   0  0  0  0  0  0  0  0  0  0  0  0
   -6.9010   21.3210  -31.3760 N   0  0  0  0  0  0  0  0  0  0  0  0
   -4.4320   22.6180  -30.5420 N   0  0  0  0  0  0  0  0  0  0  0  0
    0.3400   24.9060  -28.2170 O   0  0  0  0  0  0  0  0  0  0  0  0
    0.6630   24.5560  -26.8730 C   0  0  0  0  0  0  0  0  0  0  0  0
    0.1590   25.6050  -25.9190 C   0  0  0  0  0  0  0  0  0  0  0  0
   -0.3910   25.2230  -24.6840 C   0  0  0  0  0  0  0  0  0  0  0  0
   -0.8440   26.1950  -23.7840 C   0  0  0  0  0  0  0  0  0  0  0  0
   -0.7500   27.5500  -24.1110 C   0  0  0  0  0  0  0  0  0  0  0  0
   -0.2040   27.9370  -25.3390 C   0  0  0  0  0  0  0  0  0  0  0  0
    0.2500   26.9700  -26.2400 C   0  0  0  0  0  0  0  0  0  0  0  0
   -1.4067   23.6897  -30.6543 H   0  0  0  0  0  0  0  0  0  0  0  0
   -2.0118   22.3507  -29.6195 H   0  0  0  0  0  0  0  0  0  0  0  0
   -7.8250   24.5516  -31.7068 H   0  0  0  0  0  0  0  0  0  0  0  0
   -9.9912   23.4194  -32.2449 H   0  0  0  0  0  0  0  0  0  0  0  0
   -7.8249   18.9192  -30.5711 H   0  0  0  0  0  0  0  0  0  0  0  0
   -9.0979   18.8888  -31.8441 H   0  0  0  0  0  0  0  0  0  0  0  0
   -6.9935   20.4390  -33.8080 H   0  0  0  0  0  0  0  0  0  0  0  0
   -5.3895   19.4227  -35.4646 H   0  0  0  0  0  0  0  0  0  0  0  0
   -7.0124   16.7011  -31.5558 H   0  0  0  0  0  0  0  0  0  0  0  0
   -3.3349   15.2686  -34.2633 H   0  0  0  0  0  0  0  0  0  0  0  0
   -4.6753   14.6645  -35.2406 H   0  0  0  0  0  0  0  0  0  0  0  0
    0.1965   23.5903  -26.6284 H   0  0  0  0  0  0  0  0  0  0  0  0
    1.7565   24.4843  -26.7773 H   0  0  0  0  0  0  0  0  0  0  0  0
   -0.4659   24.1570  -24.4234 H   0  0  0  0  0  0  0  0  0  0  0  0
   -1.2744   25.8915  -22.8183 H   0  0  0  0  0  0  0  0  0  0  0  0
   -1.1055   28.3126  -23.4025 H   0  0  0  0  0  0  0  0  0  0  0  0
   -0.1318   29.0041  -25.5961 H   0  0  0  0  0  0  0  0  0  0  0  0
    0.6802   27.2786  -27.2042 H   0  0  0  0  0  0  0  0  0  0  0  0
  1  2  2  0
  2  3  1  0
  3  4  1  0
  4  5  1  0
  5  6  2  0
  6  7  1  0
  7  8  1  0
  8  9  1  0
  9 10  1  0
 10 11  2  0
 11 12  1  0
 12 13  2  0
 12 14  1  0
 14 15  1  0
 15 16  1  0
 16 17  2  0
 17 18  1  0
 18 19  2  0
 19 20  1  0
 20 21  2  0
 20 22  1  0
 22 23  1  0
 23 24  1  0
 14 25  1  0
  8 26  2  0
  2 27  1  0
 27 28  1  0
 28 29  1  0
 29 30  2  0
 30 31  1  0
 31 32  2  0
 32 33  1  0
 33 34  2  0
 26  5  1  0
 34 29  1  0
 25  9  2  0
 21 16  1  0
 24 19  1  0
  4 35  1  0
  4 36  1  0
 10 37  1  0
 11 38  1  0
 15 39  1  0
 15 40  1  0
 17 41  1  0
 18 42  1  0
 21 43  1  0
 23 44  1  0
 23 45  1  0
 28 46  1  0
 28 47  1  0
 30 48  1  0
 31 49  1  0
 32 50  1  0
 33 51  1  0
 34 52  1  0
M  CHG  1   3  -1
M  END
>  <UniqueID>  (29) 
27

>  <SMILES>  (29) 
O=C([N-]Cc1noc(-c2ccc(=O)n(Cc3ccc4c(c3)OCO4)n2)n1)OCc1ccccc1

>  <Energy>  (29) 
113.18630538168277

>  <Genealogy>  (29) 
O=C([N-]Cc1noc(-c2ccc(=O)n(Cc3ccc4c(c3)OCO4)n2)n1)OCc1ccccc1 (protonated)
O=C([N-]Cc1noc(-c2ccc(=O)n(Cc3ccc4c(c3)OCO4)n2)n1)OCc1ccccc1 (3D coordinates assigned)
O=C([N-]Cc1noc(-c2ccc(=O)n(Cc3ccc4c(c3)OCO4)n2)n1)OCc1ccccc1 (nonaromatic ring conformer: 113.18630538168277 kcal/mol)

>  <smiles>  (29) 
O=C(NCc1noc(-c2ccc(=O)n(Cc3ccc4c(c3)OCO4)n2)n1)OCc1ccccc1

>  <score_type>  (29) 
oracle

>  <origin>  (29) 
adgpu

>  <m_score__min__energy>  (29) 
-12

>  <m_primary>  (29) 
energy

$$$$
29:0
     RDKit          3D

 33 35  0  0  0  0  0  0  0  0999 V2000
   -6.8490   24.7320  -30.0950 C   0  0  0  0  0  0  0  0  0  0  0  0
   -5.0300   24.7610  -30.1350 S   0  0  0  0  0  0  0  0  0  0  0  0
   -4.9160   23.2740  -31.1220 C   0  0  0  0  0  0  0  0  0  0  0  0
   -3.7930   23.0210  -31.8400 N   0  0  0  0  0  0  0  0  0  0  0  0
   -3.6840   21.8980  -32.5910 C   0  0  0  0  0  0  0  0  0  0  0  0
   -4.7320   20.9670  -32.6330 C   0  0  0  0  0  0  0  0  0  0  0  0
   -4.5470   19.7020  -33.3840 C   0  0  0  0  0  0  0  0  0  0  0  0
   -5.5470   19.2430  -34.2550 C   0  0  0  0  0  0  0  0  0  0  0  0
   -5.3560   18.0500  -34.9560 C   0  0  0  0  0  0  0  0  0  0  0  0
   -4.2050   17.3440  -34.8010 N   0  0  0  0  0  0  0  0  0  0  0  0
   -3.2140   17.7700  -33.9740 C   0  0  0  0  0  0  0  0  0  0  0  0
   -3.3640   18.9570  -33.2540 C   0  0  0  0  0  0  0  0  0  0  0  0
   -5.9050   21.2620  -31.8970 C   0  0  0  0  0  0  0  0  0  0  0  0
   -7.1070   20.3980  -31.9230 C   0  0  0  0  0  0  0  0  0  0  0  0
   -8.3420   20.9310  -32.3280 C   0  0  0  0  0  0  0  0  0  0  0  0
   -9.4810   20.1220  -32.3690 C   0  0  0  0  0  0  0  0  0  0  0  0
   -9.3950   18.7730  -32.0180 C   0  0  0  0  0  0  0  0  0  0  0  0
   -8.1670   18.2280  -31.6340 C   0  0  0  0  0  0  0  0  0  0  0  0
   -7.0250   19.0330  -31.5940 C   0  0  0  0  0  0  0  0  0  0  0  0
   -5.9530   22.4010  -31.1550 N   0  0  0  0  0  0  0  0  0  0  0  0
   -7.1927   24.7265  -29.0501 H   0  0  0  0  0  0  0  0  0  0  0  0
   -7.2412   25.6240  -30.6054 H   0  0  0  0  0  0  0  0  0  0  0  0
   -7.2126   23.8279  -30.6054 H   0  0  0  0  0  0  0  0  0  0  0  0
   -2.7675   21.7156  -33.1714 H   0  0  0  0  0  0  0  0  0  0  0  0
   -6.4752   19.8189  -34.3848 H   0  0  0  0  0  0  0  0  0  0  0  0
   -6.1389   17.6811  -35.6350 H   0  0  0  0  0  0  0  0  0  0  0  0
   -2.2922   17.1786  -33.8717 H   0  0  0  0  0  0  0  0  0  0  0  0
   -2.5603   19.3062  -32.5891 H   0  0  0  0  0  0  0  0  0  0  0  0
   -8.4130   21.9907  -32.6144 H   0  0  0  0  0  0  0  0  0  0  0  0
  -10.4467   20.5485  -32.6782 H   0  0  0  0  0  0  0  0  0  0  0  0
  -10.2939   18.1395  -32.0438 H   0  0  0  0  0  0  0  0  0  0  0  0
   -8.0989   17.1641  -31.3628 H   0  0  0  0  0  0  0  0  0  0  0  0
   -6.0577   18.5969  -31.3039 H   0  0  0  0  0  0  0  0  0  0  0  0
  1  2  1  0
  2  3  1  0
  3  4  2  0
  4  5  1  0
  5  6  2  0
  6  7  1  0
  7  8  2  0
  8  9  1  0
  9 10  2  0
 10 11  1  0
 11 12  2  0
  6 13  1  0
 13 14  1  0
 14 15  2  0
 15 16  1  0
 16 17  2  0
 17 18  1  0
 18 19  2  0
 13 20  2  0
 20  3  1  0
 12  7  1  0
 19 14  1  0
  1 21  1  0
  1 22  1  0
  1 23  1  0
  5 24  1  0
  8 25  1  0
  9 26  1  0
 11 27  1  0
 12 28  1  0
 15 29  1  0
 16 30  1  0
 17 31  1  0
 18 32  1  0
 19 33  1  0
M  END
>  <UniqueID>  (30) 
28

>  <SMILES>  (30) 
CSc1ncc(-c2ccncc2)c(-c2ccccc2)n1

>  <Energy>  (30) 
45.42202170318614

>  <Genealogy>  (30) 
CSc1ncc(-c2ccncc2)c(-c2ccccc2)n1 (3D coordinates assigned)
CSc1ncc(-c2ccncc2)c(-c2ccccc2)n1 (optimized conformer: 45.42202170318614 kcal/mol)

>  <smiles>  (30) 
CSc1ncc(-c2ccncc2)c(-c2ccccc2)n1

>  <score_type>  (30) 
oracle

>  <origin>  (30) 
adgpu

>  <m_score__min__energy>  (30) 
-7.5999999999999996

>  <m_primary>  (30) 
energy

$$$$
30:0
     RDKit          3D

 37 40  0  0  0  0  0  0  0  0999 V2000
   -0.1260   25.3110  -26.3380 O   0  0  0  0  0  0  0  0  0  0  0  0
   -0.6780   24.6470  -27.4270 C   0  0  0  0  0  0  0  0  0  0  0  0
   -0.3080   23.3290  -27.7040 C   0  0  0  0  0  0  0  0  0  0  0  0
   -0.8590   22.6600  -28.7990 C   0  0  0  0  0  0  0  0  0  0  0  0
   -1.7810   23.3080  -29.6410 C   0  0  0  0  0  0  0  0  0  0  0  0
   -2.3430   22.5710  -30.7970 C   0  0  0  0  0  0  0  0  0  0  0  0
   -3.7190   22.3140  -30.9030 C   0  0  0  0  0  0  0  0  0  0  0  0
   -4.2210   21.6290  -32.0220 C   0  0  0  0  0  0  0  0  0  0  0  0
   -5.6730   21.3440  -32.1430 C   0  0  0  0  0  0  0  0  0  0  0  0
   -6.1290   20.0860  -32.5740 C   0  0  0  0  0  0  0  0  0  0  0  0
   -7.4970   19.8340  -32.6850 C   0  0  0  0  0  0  0  0  0  0  0  0
   -8.4060   20.8420  -32.3620 C   0  0  0  0  0  0  0  0  0  0  0  0
   -7.9570   22.0540  -31.9450 N   0  0  0  0  0  0  0  0  0  0  0  0
   -6.6290   22.3270  -31.8310 C   0  0  0  0  0  0  0  0  0  0  0  0
   -3.3250   21.2230  -33.0250 C   0  0  0  0  0  0  0  0  0  0  0  0
   -1.9600   21.5120  -32.8990 C   0  0  0  0  0  0  0  0  0  0  0  0
   -1.0050   21.1030  -33.9440 C   0  0  0  0  0  0  0  0  0  0  0  0
   -0.8570   19.8250  -34.4500 C   0  0  0  0  0  0  0  0  0  0  0  0
    0.1410   19.9140  -35.3950 C   0  0  0  0  0  0  0  0  0  0  0  0
    0.5410   21.2340  -35.4090 C   0  0  0  0  0  0  0  0  0  0  0  0
   -0.1600   21.9180  -34.5340 O   0  0  0  0  0  0  0  0  0  0  0  0
   -1.5130   22.1760  -31.8000 N   0  0  0  0  0  0  0  0  0  0  0  0
   -2.1690   24.6330  -29.3410 C   0  0  0  0  0  0  0  0  0  0  0  0
   -3.1270   25.2900  -30.1050 O   0  0  0  0  0  0  0  0  0  0  0  0
   -1.6070   25.2960  -28.2440 C   0  0  0  0  0  0  0  0  0  0  0  0
    0.4196   22.8164  -27.0577 H   0  0  0  0  0  0  0  0  0  0  0  0
   -0.5700   21.6188  -29.0046 H   0  0  0  0  0  0  0  0  0  0  0  0
   -4.4039   22.6489  -30.1101 H   0  0  0  0  0  0  0  0  0  0  0  0
   -5.4045   19.2971  -32.8247 H   0  0  0  0  0  0  0  0  0  0  0  0
   -7.8551   18.8506  -33.0237 H   0  0  0  0  0  0  0  0  0  0  0  0
   -9.4868   20.6550  -32.4451 H   0  0  0  0  0  0  0  0  0  0  0  0
   -6.3016   23.3213  -31.4932 H   0  0  0  0  0  0  0  0  0  0  0  0
   -3.6943   20.6795  -33.9072 H   0  0  0  0  0  0  0  0  0  0  0  0
   -1.4188   18.9252  -34.1588 H   0  0  0  0  0  0  0  0  0  0  0  0
    0.5391   19.0966  -36.0142 H   0  0  0  0  0  0  0  0  0  0  0  0
    1.3278   21.6506  -36.0551 H   0  0  0  0  0  0  0  0  0  0  0  0
   -1.8983   26.3336  -28.0239 H   0  0  0  0  0  0  0  0  0  0  0  0
  1  2  1  0
  2  3  2  0
  3  4  1  0
  4  5  2  0
  5  6  1  0
  6  7  2  0
  7  8  1  0
  8  9  1  0
  9 10  2  0
 10 11  1  0
 11 12  2  0
 12 13  1  0
 13 14  2  0
  8 15  2  0
 15 16  1  0
 16 17  1  0
 17 18  2  0
 18 19  1  0
 19 20  2  0
 20 21  1  0
 16 22  2  0
  5 23  1  0
 23 24  1  0
 23 25  2  0
 25  2  1  0
 22  6  1  0
 14  9  1  0
 21 17  1  0
  3 26  1  0
  4 27  1  0
  7 28  1  0
 10 29  1  0
 11 30  1  0
 12 31  1  0
 14 32  1  0
 15 33  1  0
 18 34  1  0
 19 35  1  0
 20 36  1  0
 25 37  1  0
M  CHG  2   1  -1  24  -1
M  END
>  <UniqueID>  (31) 
29

>  <SMILES>  (31) 
[O-]c1ccc(-c2cc(-c3cccnc3)cc(-c3ccco3)n2)c([O-])c1

>  <Energy>  (31) 
79.9728256580218

>  <Genealogy>  (31) 
[O-]c1ccc(-c2cc(-c3cccnc3)cc(-c3ccco3)n2)c([O-])c1 (protonated)
[O-]c1ccc(-c2cc(-c3cccnc3)cc(-c3ccco3)n2)c([O-])c1 (3D coordinates assigned)
[O-]c1ccc(-c2cc(-c3cccnc3)cc(-c3ccco3)n2)c([O-])c1 (optimized conformer: 79.9728256580218 kcal/mol)

>  <smiles>  (31) 
Oc1ccc(-c2cc(-c3cccnc3)cc(-c3ccco3)n2)c(O)c1

>  <score_type>  (31) 
oracle

>  <origin>  (31) 
adgpu

>  <m_score__min__energy>  (31) 
-10.699999999999999

>  <m_primary>  (31) 
energy

$$$$
31:0
     RDKit          3D

 35 38  0  0  0  0  0  0  0  0999 V2000
   -3.0090   24.1870  -27.0280 O   0  0  0  0  0  0  0  0  0  0  0  0
   -2.3110   24.9560  -27.7430 C   0  0  0  0  0  0  0  0  0  0  0  0
   -2.3550   24.8590  -29.1750 N   0  0  0  0  0  0  0  0  0  0  0  0
   -2.9490   23.7620  -29.8900 C   0  0  0  0  0  0  0  0  0  0  0  0
   -4.1680   23.9060  -30.5740 C   0  0  0  0  0  0  0  0  0  0  0  0
   -4.7370   22.8180  -31.2430 C   0  0  0  0  0  0  0  0  0  0  0  0
   -4.1060   21.5620  -31.2310 C   0  0  0  0  0  0  0  0  0  0  0  0
   -4.7080   20.4120  -31.9390 C   0  0  0  0  0  0  0  0  0  0  0  0
   -4.3470   20.0470  -33.1990 N   0  0  0  0  0  0  0  0  0  0  0  0
   -5.1260   18.9830  -33.4350 C   0  0  0  0  0  0  0  0  0  0  0  0
   -5.1790   18.2010  -34.5850 C   0  0  0  0  0  0  0  0  0  0  0  0
   -6.0860   17.1230  -34.6020 C   0  0  0  0  0  0  0  0  0  0  0  0
   -6.9050   16.8620  -33.4790 C   0  0  0  0  0  0  0  0  0  0  0  0
   -6.8230   17.6750  -32.3330 C   0  0  0  0  0  0  0  0  0  0  0  0
   -5.9150   18.7310  -32.3550 C   0  0  0  0  0  0  0  0  0  0  0  0
   -5.6710   19.6250  -31.3850 N   0  0  0  0  0  0  0  0  0  0  0  0
   -2.8980   21.4160  -30.5270 C   0  0  0  0  0  0  0  0  0  0  0  0
   -2.3310   22.5030  -29.8580 C   0  0  0  0  0  0  0  0  0  0  0  0
   -1.4790   25.9840  -27.1000 C   0  0  0  0  0  0  0  0  0  0  0  0
   -1.3640   26.2010  -25.7400 C   0  0  0  0  0  0  0  0  0  0  0  0
   -0.4840   27.2540  -25.6060 C   0  0  0  0  0  0  0  0  0  0  0  0
   -0.1160   27.6120  -26.8880 C   0  0  0  0  0  0  0  0  0  0  0  0
   -0.7260   26.8370  -27.7550 O   0  0  0  0  0  0  0  0  0  0  0  0
   -2.0130   25.6750  -29.7320 H   0  0  0  0  0  0  0  0  0  0  0  0
   -4.6778   24.8807  -30.5832 H   0  0  0  0  0  0  0  0  0  0  0  0
   -5.6866   22.9461  -31.7833 H   0  0  0  0  0  0  0  0  0  0  0  0
   -4.5353   18.4170  -35.4504 H   0  0  0  0  0  0  0  0  0  0  0  0
   -6.1574   16.4815  -35.4927 H   0  0  0  0  0  0  0  0  0  0  0  0
   -7.6105   16.0183  -33.5013 H   0  0  0  0  0  0  0  0  0  0  0  0
   -7.4531   17.4834  -31.4520 H   0  0  0  0  0  0  0  0  0  0  0  0
   -2.3953   20.4379  -30.5028 H   0  0  0  0  0  0  0  0  0  0  0  0
   -1.3916   22.3708  -29.3011 H   0  0  0  0  0  0  0  0  0  0  0  0
   -1.8688   25.6492  -24.9333 H   0  0  0  0  0  0  0  0  0  0  0  0
   -0.1437   27.7157  -24.6674 H   0  0  0  0  0  0  0  0  0  0  0  0
    0.5818   28.4229  -27.1439 H   0  0  0  0  0  0  0  0  0  0  0  0
  1  2  2  0
  2  3  1  0
  3  4  1  0
  4  5  2  0
  5  6  1  0
  6  7  2  0
  7  8  1  0
  8  9  2  0
  9 10  1  0
 10 11  2  0
 11 12  1  0
 12 13  2  0
 13 14  1  0
 14 15  2  0
 15 16  1  0
  7 17  1  0
 17 18  2  0
  2 19  1  0
 19 20  2  0
 20 21  1  0
 21 22  2  0
 22 23  1  0
 18  4  1  0
 23 19  1  0
 16  8  1  0
 15 10  1  0
  3 24  1  0
  5 25  1  0
  6 26  1  0
 11 27  1  0
 12 28  1  0
 13 29  1  0
 14 30  1  0
 17 31  1  0
 18 32  1  0
 20 33  1  0
 21 34  1  0
 22 35  1  0
M  CHG  1  16  -1
M  END
>  <UniqueID>  (32) 
30

>  <SMILES>  (32) 
O=C(Nc1ccc(-c2nc3ccccc3[n-]2)cc1)c1ccco1

>  <Energy>  (32) 
103.67682657884484

>  <Genealogy>  (32) 
O=C(Nc1ccc(-c2nc3ccccc3[n-]2)cc1)c1ccco1 (protonated)
O=C(Nc1ccc(-c2nc3ccccc3[n-]2)cc1)c1ccco1 (3D coordinates assigned)
O=C(Nc1ccc(-c2nc3ccccc3[n-]2)cc1)c1ccco1 (optimized conformer: 103.67682657884484 kcal/mol)

>  <smiles>  (32) 
O=C(Nc1ccc(-c2nc3ccccc3[nH]2)cc1)c1ccco1

>  <score_type>  (32) 
oracle

>  <origin>  (32) 
adgpu

>  <m_score__min__energy>  (32) 
-7.6100000000000003

>  <m_primary>  (32) 
energy

$$$$
32:0
     RDKit          3D

 42 44  0  0  0  0  0  0  0  0999 V2000
   -3.9190   23.4910  -27.2090 C   0  0  0  0  0  0  0  0  0  0  0  0
   -2.6270   22.8740  -27.6760 C   0  0  0  0  0  0  0  0  0  0  0  0
   -2.2400   21.6290  -27.1500 C   0  0  0  0  0  0  0  0  0  0  0  0
   -1.0380   21.0340  -27.5400 C   0  0  0  0  0  0  0  0  0  0  0  0
   -0.2120   21.6710  -28.4650 C   0  0  0  0  0  0  0  0  0  0  0  0
   -0.5870   22.9010  -29.0090 C   0  0  0  0  0  0  0  0  0  0  0  0
   -1.7940   23.5150  -28.6300 C   0  0  0  0  0  0  0  0  0  0  0  0
   -2.1610   24.8110  -29.2510 C   0  0  0  0  0  0  0  0  0  0  0  0
   -1.5220   25.8520  -28.9430 O   0  0  0  0  0  0  0  0  0  0  0  0
   -3.2870   24.9330  -30.1310 N   0  0  0  0  0  0  0  0  0  0  0  0
   -4.1740   23.8750  -30.5250 C   0  0  0  0  0  0  0  0  0  0  0  0
   -5.5430   24.0070  -30.2850 C   0  0  0  0  0  0  0  0  0  0  0  0
   -6.4250   22.9980  -30.6720 C   0  0  0  0  0  0  0  0  0  0  0  0
   -5.9300   21.8510  -31.3180 C   0  0  0  0  0  0  0  0  0  0  0  0
   -6.8090   20.7820  -31.7320 N   0  0  0  0  0  0  0  0  0  0  0  0
   -6.2810   19.4260  -31.9630 C   0  0  0  0  0  0  0  0  0  0  0  0
   -7.2110   18.6100  -32.8670 C   0  0  0  0  0  0  0  0  0  0  0  0
   -8.6490   18.5660  -32.3230 C   0  0  0  0  0  0  0  0  0  0  0  0
   -9.1000   19.8820  -31.6550 C   0  0  0  0  0  0  0  0  0  0  0  0
   -8.2190   21.0750  -32.0360 C   0  0  0  0  0  0  0  0  0  0  0  0
   -4.5930   21.7620  -31.5680 N   0  0  0  0  0  0  0  0  0  0  0  0
   -3.7160   22.7320  -31.1990 C   0  0  0  0  0  0  0  0  0  0  0  0
   -3.9434   23.5026  -26.1093 H   0  0  0  0  0  0  0  0  0  0  0  0
   -3.9916   24.5210  -27.5883 H   0  0  0  0  0  0  0  0  0  0  0  0
   -4.7657   22.9000  -27.5883 H   0  0  0  0  0  0  0  0  0  0  0  0
   -2.8901   21.1185  -26.4242 H   0  0  0  0  0  0  0  0  0  0  0  0
   -0.7430   20.0623  -27.1171 H   0  0  0  0  0  0  0  0  0  0  0  0
    0.7370   21.2037  -28.7668 H   0  0  0  0  0  0  0  0  0  0  0  0
    0.0684   23.3948  -29.7415 H   0  0  0  0  0  0  0  0  0  0  0  0
   -5.9276   24.9102  -29.7888 H   0  0  0  0  0  0  0  0  0  0  0  0
   -7.5021   23.0989  -30.4729 H   0  0  0  0  0  0  0  0  0  0  0  0
   -5.2937   19.5032  -32.4418 H   0  0  0  0  0  0  0  0  0  0  0  0
   -6.2053   18.9141  -30.9923 H   0  0  0  0  0  0  0  0  0  0  0  0
   -7.2236   19.0660  -33.8679 H   0  0  0  0  0  0  0  0  0  0  0  0
   -6.8299   17.5788  -32.9048 H   0  0  0  0  0  0  0  0  0  0  0  0
   -9.3302   18.3498  -33.1592 H   0  0  0  0  0  0  0  0  0  0  0  0
   -8.6757   17.7863  -31.5476 H   0  0  0  0  0  0  0  0  0  0  0  0
  -10.1338   20.0962  -31.9637 H   0  0  0  0  0  0  0  0  0  0  0  0
   -9.0183   19.7451  -30.5666 H   0  0  0  0  0  0  0  0  0  0  0  0
   -8.3247   21.2759  -33.1123 H   0  0  0  0  0  0  0  0  0  0  0  0
   -8.5360   21.9551  -31.4573 H   0  0  0  0  0  0  0  0  0  0  0  0
   -2.6459   22.6215  -31.4287 H   0  0  0  0  0  0  0  0  0  0  0  0
  1  2  1  0
  2  3  2  0
  3  4  1  0
  4  5  2  0
  5  6  1  0
  6  7  2  0
  7  8  1  0
  8  9  2  0
  8 10  1  0
 10 11  1  0
 11 12  2  0
 12 13  1  0
 13 14  2  0
 14 15  1  0
 15 16  1  0
 16 17  1  0
 17 18  1  0
 18 19  1  0
 19 20  1  0
 14 21  1  0
 21 22  2  0
  7  2  1  0
 22 11  1  0
 20 15  1  0
  1 23  1  0
  1 24  1  0
  1 25  1  0
  3 26  1  0
  4 27  1  0
  5 28  1  0
  6 29  1  0
 12 30  1  0
 13 31  1  0
 16 32  1  0
 16 33  1  0
 17 34  1  0
 17 35  1  0
 18 36  1  0
 18 37  1  0
 19 38  1  0
 19 39  1  0
 20 40  1  0
 20 41  1  0
 22 42  1  0
M  CHG  1  10  -1
M  END
>  <UniqueID>  (33) 
31

>  <SMILES>  (33) 
Cc1ccccc1C(=O)[N-]c1ccc(N2CCCCC2)nc1

>  <Energy>  (33) 
55.428190003952864

>  <Genealogy>  (33) 
Cc1ccccc1C(=O)[N-]c1ccc(N2CCCCC2)nc1 (protonated)
Cc1ccccc1C(=O)[N-]c1ccc(N2CCCCC2)nc1 (3D coordinates assigned)
Cc1ccccc1C(=O)[N-]c1ccc(N2CCCCC2)nc1 (nonaromatic ring conformer: 55.428190003952864 kcal/mol)

>  <smiles>  (33) 
Cc1ccccc1C(=O)Nc1ccc(N2CCCCC2)nc1

>  <score_type>  (33) 
oracle

>  <origin>  (33) 
adgpu

>  <m_score__min__energy>  (33) 
-9.8000000000000007

>  <m_primary>  (33) 
energy

$$$$
33:0
     RDKit          3D

 34 35  0  0  0  0  0  0  0  0999 V2000
   -7.1940   17.5190  -33.4690 O   0  0  0  0  0  0  0  0  0  0  0  0
   -7.3620   18.4470  -32.6320 C   0  0  0  0  0  0  0  0  0  0  0  0
   -8.7230   18.7000  -32.0650 C   0  0  0  0  0  0  0  0  0  0  0  0
   -8.6600   19.7860  -31.1440 O   0  0  0  0  0  0  0  0  0  0  0  0
   -8.9050   21.1150  -31.5130 C   0  0  0  0  0  0  0  0  0  0  0  0
   -9.9970   21.4250  -32.0650 O   0  0  0  0  0  0  0  0  0  0  0  0
   -7.8700   22.1470  -31.2830 C   0  0  0  0  0  0  0  0  0  0  0  0
   -7.2460   22.7770  -32.3710 C   0  0  0  0  0  0  0  0  0  0  0  0
   -6.3000   23.7840  -32.1600 C   0  0  0  0  0  0  0  0  0  0  0  0
   -5.9590   24.1820  -30.8550 C   0  0  0  0  0  0  0  0  0  0  0  0
   -4.9900   25.2240  -30.6340 N   0  0  0  0  0  0  0  0  0  0  0  0
   -5.3520   26.4090  -30.4810 O   0  0  0  0  0  0  0  0  0  0  0  0
   -3.6470   24.9290  -30.5840 O   0  0  0  0  0  0  0  0  0  0  0  0
   -6.5830   23.5490  -29.7680 C   0  0  0  0  0  0  0  0  0  0  0  0
   -7.5280   22.5420  -29.9790 C   0  0  0  0  0  0  0  0  0  0  0  0
   -6.2710   19.3030  -32.2710 N   0  0  0  0  0  0  0  0  0  0  0  0
   -5.1780   19.5810  -33.1950 C   0  0  0  0  0  0  0  0  0  0  0  0
   -4.2590   20.5940  -32.5890 C   0  0  0  0  0  0  0  0  0  0  0  0
   -3.0610   21.0190  -33.1280 C   0  0  0  0  0  0  0  0  0  0  0  0
   -2.5380   21.9060  -32.2130 C   0  0  0  0  0  0  0  0  0  0  0  0
   -3.4440   21.9630  -31.1720 C   0  0  0  0  0  0  0  0  0  0  0  0
   -4.4580   21.1670  -31.4250 O   0  0  0  0  0  0  0  0  0  0  0  0
   -9.4188   18.9499  -32.8795 H   0  0  0  0  0  0  0  0  0  0  0  0
   -9.0766   17.7979  -31.5443 H   0  0  0  0  0  0  0  0  0  0  0  0
   -7.5034   22.4760  -33.3972 H   0  0  0  0  0  0  0  0  0  0  0  0
   -5.8183   24.2692  -33.0217 H   0  0  0  0  0  0  0  0  0  0  0  0
   -6.3255   23.8486  -28.7414 H   0  0  0  0  0  0  0  0  0  0  0  0
   -8.0079   22.0547  -29.1175 H   0  0  0  0  0  0  0  0  0  0  0  0
   -6.3870   19.9390  -31.4480 H   0  0  0  0  0  0  0  0  0  0  0  0
   -4.6213   18.6535  -33.3942 H   0  0  0  0  0  0  0  0  0  0  0  0
   -5.5858   19.9733  -34.1383 H   0  0  0  0  0  0  0  0  0  0  0  0
   -2.6172   20.7134  -34.0870 H   0  0  0  0  0  0  0  0  0  0  0  0
   -1.5899   22.4577  -32.2949 H   0  0  0  0  0  0  0  0  0  0  0  0
   -3.3333   22.5808  -30.2687 H   0  0  0  0  0  0  0  0  0  0  0  0
  1  2  2  0
  2  3  1  0
  3  4  1  0
  4  5  1  0
  5  6  2  0
  5  7  1  0
  7  8  2  0
  8  9  1  0
  9 10  2  0
 10 11  1  0
 11 12  2  0
 11 13  1  0
 10 14  1  0
 14 15  2  0
  2 16  1  0
 16 17  1  0
 17 18  1  0
 18 19  2  0
 19 20  1  0
 20 21  2  0
 21 22  1  0
 15  7  1  0
 22 18  1  0
  3 23  1  0
  3 24  1  0
  8 25  1  0
  9 26  1  0
 14 27  1  0
 15 28  1  0
 16 29  1  0
 17 30  1  0
 17 31  1  0
 19 32  1  0
 20 33  1  0
 21 34  1  0
M  CHG  2  11   1  13  -1
M  END
>  <UniqueID>  (34) 
32

>  <SMILES>  (34) 
O=C(COC(=O)c1ccc([N+](=O)[O-])cc1)NCc1ccco1

>  <Energy>  (34) 
53.79538301023444

>  <Genealogy>  (34) 
O=C(COC(=O)c1ccc([N+](=O)[O-])cc1)NCc1ccco1 (3D coordinates assigned)
O=C(COC(=O)c1ccc([N+](=O)[O-])cc1)NCc1ccco1 (optimized conformer: 53.79538301023444 kcal/mol)

>  <smiles>  (34) 
O=C(COC(=O)c1ccc([N+](=O)[O-])cc1)NCc1ccco1

>  <score_type>  (34) 
oracle

>  <origin>  (34) 
adgpu

>  <m_score__min__energy>  (34) 
-7.6100000000000003

>  <m_primary>  (34) 
energy

$$$$
34:0
     RDKit          3D

 36 38  0  0  0  0  0  0  0  0999 V2000
   -1.6910   20.1270  -27.0780 Cl  0  0  0  0  0  0  0  0  0  0  0  0
   -1.5640   21.6660  -27.9100 C   0  0  0  0  0  0  0  0  0  0  0  0
   -0.3310   22.3200  -27.9850 C   0  0  0  0  0  0  0  0  0  0  0  0
   -0.2300   23.5470  -28.6440 C   0  0  0  0  0  0  0  0  0  0  0  0
   -1.3590   24.1240  -29.2300 C   0  0  0  0  0  0  0  0  0  0  0  0
   -2.6050   23.4750  -29.1600 C   0  0  0  0  0  0  0  0  0  0  0  0
   -3.8070   24.0910  -29.7550 C   0  0  0  0  0  0  0  0  0  0  0  0
   -5.0400   23.5420  -29.6870 N   0  0  0  0  0  0  0  0  0  0  0  0
   -5.7990   24.4070  -30.3840 C   0  0  0  0  0  0  0  0  0  0  0  0
   -7.2430   24.1850  -30.7040 C   0  0  0  0  0  0  0  0  0  0  0  0
   -7.5520   22.7450  -30.6780 N   0  0  0  0  0  0  0  0  0  0  0  0
   -8.0070   22.2350  -31.9820 C   0  0  0  0  0  0  0  0  0  0  0  0
   -7.8250   20.7380  -32.0910 C   0  0  0  0  0  0  0  0  0  0  0  0
   -8.9280   19.8900  -31.8820 C   0  0  0  0  0  0  0  0  0  0  0  0
   -8.7730   18.5020  -31.9260 C   0  0  0  0  0  0  0  0  0  0  0  0
   -7.5190   17.9450  -32.1820 C   0  0  0  0  0  0  0  0  0  0  0  0
   -6.4190   18.7750  -32.4060 C   0  0  0  0  0  0  0  0  0  0  0  0
   -6.5630   20.1670  -32.3680 C   0  0  0  0  0  0  0  0  0  0  0  0
   -5.1410   21.1630  -32.6580 Cl  0  0  0  0  0  0  0  0  0  0  0  0
   -5.0160   25.4410  -30.8460 C   0  0  0  0  0  0  0  0  0  0  0  0
   -3.7930   25.2160  -30.4360 O   0  0  0  0  0  0  0  0  0  0  0  0
   -2.6980   22.2420  -28.4940 C   0  0  0  0  0  0  0  0  0  0  0  0
    0.5600   21.8680  -27.5248 H   0  0  0  0  0  0  0  0  0  0  0  0
    0.7411   24.0604  -28.7018 H   0  0  0  0  0  0  0  0  0  0  0  0
   -1.2734   25.0903  -29.7486 H   0  0  0  0  0  0  0  0  0  0  0  0
   -7.8645   24.7039  -29.9594 H   0  0  0  0  0  0  0  0  0  0  0  0
   -7.4539   24.5802  -31.7087 H   0  0  0  0  0  0  0  0  0  0  0  0
   -6.6690   22.2360  -30.4420 H   0  0  0  0  0  0  0  0  0  0  0  0
   -9.0734   22.4745  -32.1061 H   0  0  0  0  0  0  0  0  0  0  0  0
   -7.4020   22.7122  -32.7670 H   0  0  0  0  0  0  0  0  0  0  0  0
   -9.9194   20.3227  -31.6825 H   0  0  0  0  0  0  0  0  0  0  0  0
   -9.6408   17.8471  -31.7586 H   0  0  0  0  0  0  0  0  0  0  0  0
   -7.3975   16.8520  -32.2073 H   0  0  0  0  0  0  0  0  0  0  0  0
   -5.4335   18.3327  -32.6135 H   0  0  0  0  0  0  0  0  0  0  0  0
   -5.3549   26.2971  -31.4478 H   0  0  0  0  0  0  0  0  0  0  0  0
   -3.6675   21.7261  -28.4310 H   0  0  0  0  0  0  0  0  0  0  0  0
  1  2  1  0
  2  3  2  0
  3  4  1  0
  4  5  2  0
  5  6  1  0
  6  7  1  0
  7  8  2  0
  8  9  1  0
  9 10  1  0
 10 11  1  0
 11 12  1  0
 12 13  1  0
 13 14  2  0
 14 15  1  0
 15 16  2  0
 16 17  1  0
 17 18  2  0
 18 19  1  0
  9 20  2  0
 20 21  1  0
  6 22  2  0
 22  2  1  0
 21  7  1  0
 18 13  1  0
  3 23  1  0
  4 24  1  0
  5 25  1  0
 10 26  1  0
 10 27  1  0
 11 28  1  0
 12 29  1  0
 12 30  1  0
 14 31  1  0
 15 32  1  0
 16 33  1  0
 17 34  1  0
 20 35  1  0
 22 36  1  0
M  END
>  <UniqueID>  (35) 
33

>  <SMILES>  (35) 
Clc1cccc(-c2nc(CNCc3ccccc3Cl)co2)c1

>  <Energy>  (35) 
64.59228203566516

>  <Genealogy>  (35) 
Clc1cccc(-c2nc(CNCc3ccccc3Cl)co2)c1 (3D coordinates assigned)
Clc1cccc(-c2nc(CNCc3ccccc3Cl)co2)c1 (optimized conformer: 64.59228203566516 kcal/mol)

>  <smiles>  (35) 
Clc1cccc(-c2nc(CNCc3ccccc3Cl)co2)c1

>  <score_type>  (35) 
oracle

>  <origin>  (35) 
adgpu

>  <m_score__min__energy>  (35) 
-8.5199999999999996

>  <m_primary>  (35) 
energy

$$$$
35:0
     RDKit          3D

 41 44  0  0  0  0  0  0  0  0999 V2000
   -0.9760   21.4840  -35.3430 H   0  0  0  0  0  0  0  0  0  0  0  0
   -0.3340   21.0770  -34.6710 O   0  0  0  0  0  0  0  0  0  0  0  0
   -0.7020   20.8150  -33.3510 C   0  0  0  0  0  0  0  0  0  0  0  0
    0.2940   20.4880  -32.4300 C   0  0  0  0  0  0  0  0  0  0  0  0
    1.3440   20.4428  -32.7549 H   0  0  0  0  0  0  0  0  0  0  0  0
   -0.0310   20.2180  -31.1010 C   0  0  0  0  0  0  0  0  0  0  0  0
    0.7651   19.9526  -30.3898 H   0  0  0  0  0  0  0  0  0  0  0  0
   -1.3630   20.2810  -30.6600 C   0  0  0  0  0  0  0  0  0  0  0  0
   -1.6700   19.9520  -29.2470 C   0  0  0  0  0  0  0  0  0  0  0  0
   -1.8681   18.9005  -28.9917 H   0  0  0  0  0  0  0  0  0  0  0  0
   -1.7190   20.8360  -28.2890 N   0  0  0  0  0  0  0  0  0  0  0  0
   -1.6650   22.2650  -28.4260 C   0  0  0  0  0  0  0  0  0  0  0  0
   -2.8160   22.9510  -28.8340 C   0  0  0  0  0  0  0  0  0  0  0  0
   -3.7467   22.3950  -29.0202 H   0  0  0  0  0  0  0  0  0  0  0  0
   -2.7890   24.3380  -29.0060 C   0  0  0  0  0  0  0  0  0  0  0  0
   -3.7019   24.8720  -29.3085 H   0  0  0  0  0  0  0  0  0  0  0  0
   -1.6030   25.0470  -28.7940 C   0  0  0  0  0  0  0  0  0  0  0  0
   -1.5770   26.4260  -28.9630 O   0  0  0  0  0  0  0  0  0  0  0  0
   -0.4400   24.3670  -28.4180 C   0  0  0  0  0  0  0  0  0  0  0  0
    0.4947   24.9240  -28.2567 H   0  0  0  0  0  0  0  0  0  0  0  0
   -0.4650   22.9790  -28.2470 C   0  0  0  0  0  0  0  0  0  0  0  0
    0.4557   22.4437  -27.9718 H   0  0  0  0  0  0  0  0  0  0  0  0
   -2.3850   20.6030  -31.5880 C   0  0  0  0  0  0  0  0  0  0  0  0
   -3.7410   20.6890  -31.2130 C   0  0  0  0  0  0  0  0  0  0  0  0
   -4.0323   20.4918  -30.1708 H   0  0  0  0  0  0  0  0  0  0  0  0
   -4.7220   21.0240  -32.1580 C   0  0  0  0  0  0  0  0  0  0  0  0
   -6.1510   21.1120  -31.7700 C   0  0  0  0  0  0  0  0  0  0  0  0
   -6.6440   22.2820  -31.1640 C   0  0  0  0  0  0  0  0  0  0  0  0
   -5.9655   23.1270  -30.9754 H   0  0  0  0  0  0  0  0  0  0  0  0
   -7.9900   22.3780  -30.8000 C   0  0  0  0  0  0  0  0  0  0  0  0
   -8.3673   23.2984  -30.3304 H   0  0  0  0  0  0  0  0  0  0  0  0
   -8.8560   21.3090  -31.0310 C   0  0  0  0  0  0  0  0  0  0  0  0
   -9.9154   21.3879  -30.7455 H   0  0  0  0  0  0  0  0  0  0  0  0
   -8.3780   20.1380  -31.6250 C   0  0  0  0  0  0  0  0  0  0  0  0
   -9.0620   19.2953  -31.8037 H   0  0  0  0  0  0  0  0  0  0  0  0
   -7.0330   20.0340  -31.9930 C   0  0  0  0  0  0  0  0  0  0  0  0
   -6.5880   18.8700  -32.5330 F   0  0  0  0  0  0  0  0  0  0  0  0
   -4.3280   21.2610  -33.4810 C   0  0  0  0  0  0  0  0  0  0  0  0
   -5.0837   21.5101  -34.2405 H   0  0  0  0  0  0  0  0  0  0  0  0
   -3.0190   21.1850  -33.8310 N   0  0  0  0  0  0  0  0  0  0  0  0
   -2.0450   20.8710  -32.9370 C   0  0  0  0  0  0  0  0  0  0  0  0
  1  2  1  0
  2  3  1  0
  3  4  2  0
  4  5  1  0
  4  6  1  0
  6  7  1  0
  6  8  2  0
  8  9  1  0
  9 10  1  0
  9 11  2  0
 11 12  1  0
 12 13  2  0
 13 14  1  0
 13 15  1  0
 15 16  1  0
 15 17  2  0
 17 18  1  0
 17 19  1  0
 19 20  1  0
 19 21  2  0
 21 22  1  0
  8 23  1  0
 23 24  2  0
 24 25  1  0
 24 26  1  0
 26 27  1  0
 27 28  2  0
 28 29  1  0
 28 30  1  0
 30 31  1  0
 30 32  2  0
 32 33  1  0
 32 34  1  0
 34 35  1  0
 34 36  2  0
 36 37  1  0
 26 38  2  0
 38 39  1  0
 38 40  1  0
 40 41  2  0
 41  3  1  0
 21 12  1  0
 41 23  1  0
 36 27  1  0
M  CHG  1  18  -1
M  END
>  <UniqueID>  (36) 
34

>  <SMILES>  (36) 
[O-]c1ccc(/N=C\c2ccc(O)c3ncc(-c4ccccc4F)cc23)cc1

>  <Energy>  (36) 
69.33963357313843

>  <Genealogy>  (36) 
[O-]c1ccc(N=Cc2ccc(O)c3ncc(-c4ccccc4F)cc23)cc1 (protonated)
[O-]c1ccc(/N=C\c2ccc(O)c3ncc(-c4ccccc4F)cc23)cc1 (cis-trans isomerization)
[O-]c1ccc(/N=C\c2ccc(O)c3ncc(-c4ccccc4F)cc23)cc1 (3D coordinates assigned)
[O-]c1ccc(/N=C\c2ccc(O)c3ncc(-c4ccccc4F)cc23)cc1 (optimized conformer: 69.33963357313843 kcal/mol)

>  <smiles>  (36) 
Oc1ccc(N=Cc2ccc(O)c3ncc(-c4ccccc4F)cc23)cc1

>  <score_type>  (36) 
oracle

>  <origin>  (36) 
adgpu

>  <m_score__min__energy>  (36) 
-10.59

>  <m_primary>  (36) 
energy

$$$$
36:0
     RDKit          3D

 44 47  0  0  0  0  0  0  0  0999 V2000
   -6.2390   22.2880  -30.2140 C   0  0  0  0  0  0  0  0  0  0  0  0
   -5.1920   21.6720  -31.1190 C   0  0  0  0  0  0  0  0  0  0  0  0
   -5.5240   20.5950  -31.9790 C   0  0  0  0  0  0  0  0  0  0  0  0
   -6.9060   20.0890  -32.1330 C   0  0  0  0  0  0  0  0  0  0  0  0
   -7.1900   18.7180  -32.0050 C   0  0  0  0  0  0  0  0  0  0  0  0
   -8.5030   18.2570  -32.1230 C   0  0  0  0  0  0  0  0  0  0  0  0
   -9.5450   19.1590  -32.3570 C   0  0  0  0  0  0  0  0  0  0  0  0
   -9.2740   20.5260  -32.4640 C   0  0  0  0  0  0  0  0  0  0  0  0
   -7.9610   20.9920  -32.3460 C   0  0  0  0  0  0  0  0  0  0  0  0
   -4.5490   19.9830  -32.6990 N   0  0  0  0  0  0  0  0  0  0  0  0
   -3.2570   20.3850  -32.6770 C   0  0  0  0  0  0  0  0  0  0  0  0
   -2.3130   19.7080  -33.4590 C   0  0  0  0  0  0  0  0  0  0  0  0
   -0.9850   20.1340  -33.4830 C   0  0  0  0  0  0  0  0  0  0  0  0
   -0.5930   21.2440  -32.7330 C   0  0  0  0  0  0  0  0  0  0  0  0
   -1.5260   21.9270  -31.9470 C   0  0  0  0  0  0  0  0  0  0  0  0
   -2.8720   21.4980  -31.8930 C   0  0  0  0  0  0  0  0  0  0  0  0
   -3.8530   22.1480  -31.1040 C   0  0  0  0  0  0  0  0  0  0  0  0
   -3.4950   23.3130  -30.2610 C   0  0  0  0  0  0  0  0  0  0  0  0
   -3.5100   24.4710  -30.7600 O   0  0  0  0  0  0  0  0  0  0  0  0
   -3.1580   23.1200  -28.8790 N   0  0  0  0  0  0  0  0  0  0  0  0
   -2.6340   24.1580  -28.0370 C   0  0  0  0  0  0  0  0  0  0  0  0
   -3.2820   24.4520  -26.8280 C   0  0  0  0  0  0  0  0  0  0  0  0
   -2.7840   25.4470  -25.9810 C   0  0  0  0  0  0  0  0  0  0  0  0
   -1.6250   26.1460  -26.3280 C   0  0  0  0  0  0  0  0  0  0  0  0
   -0.9570   25.8430  -27.5170 C   0  0  0  0  0  0  0  0  0  0  0  0
   -1.4510   24.8480  -28.3690 C   0  0  0  0  0  0  0  0  0  0  0  0
   -0.7470   24.5290  -29.4840 F   0  0  0  0  0  0  0  0  0  0  0  0
   -5.9584   22.1229  -29.1633 H   0  0  0  0  0  0  0  0  0  0  0  0
   -6.3040   23.3683  -30.4108 H   0  0  0  0  0  0  0  0  0  0  0  0
   -7.2149   21.8201  -30.4108 H   0  0  0  0  0  0  0  0  0  0  0  0
   -6.3747   18.0055  -31.8111 H   0  0  0  0  0  0  0  0  0  0  0  0
   -8.7176   17.1820  -32.0316 H   0  0  0  0  0  0  0  0  0  0  0  0
  -10.5776   18.7932  -32.4569 H   0  0  0  0  0  0  0  0  0  0  0  0
  -10.0950   21.2363  -32.6413 H   0  0  0  0  0  0  0  0  0  0  0  0
   -7.7533   22.0697  -32.4202 H   0  0  0  0  0  0  0  0  0  0  0  0
   -2.6199   18.8370  -34.0566 H   0  0  0  0  0  0  0  0  0  0  0  0
   -0.2459   19.5946  -34.0936 H   0  0  0  0  0  0  0  0  0  0  0  0
    0.4533   21.5825  -32.7604 H   0  0  0  0  0  0  0  0  0  0  0  0
   -1.2100   22.8057  -31.3656 H   0  0  0  0  0  0  0  0  0  0  0  0
   -3.4370   22.2180  -28.4320 H   0  0  0  0  0  0  0  0  0  0  0  0
   -4.1879   23.8961  -26.5444 H   0  0  0  0  0  0  0  0  0  0  0  0
   -3.3052   25.6796  -25.0407 H   0  0  0  0  0  0  0  0  0  0  0  0
   -1.2387   26.9345  -25.6653 H   0  0  0  0  0  0  0  0  0  0  0  0
   -0.0398   26.3881  -27.7847 H   0  0  0  0  0  0  0  0  0  0  0  0
  1  2  1  0
  2  3  2  0
  3  4  1  0
  4  5  2  0
  5  6  1  0
  6  7  2  0
  7  8  1  0
  8  9  2  0
  3 10  1  0
 10 11  2  0
 11 12  1  0
 12 13  2  0
 13 14  1  0
 14 15  2  0
 15 16  1  0
 16 17  2  0
 17 18  1  0
 18 19  2  0
 18 20  1  0
 20 21  1  0
 21 22  2  0
 22 23  1  0
 23 24  2  0
 24 25  1  0
 25 26  2  0
 26 27  1  0
 17  2  1  0
 26 21  1  0
  9  4  1  0
 16 11  1  0
  1 28  1  0
  1 29  1  0
  1 30  1  0
  5 31  1  0
  6 32  1  0
  7 33  1  0
  8 34  1  0
  9 35  1  0
 12 36  1  0
 13 37  1  0
 14 38  1  0
 15 39  1  0
 20 40  1  0
 22 41  1  0
 23 42  1  0
 24 43  1  0
 25 44  1  0
M  END
>  <UniqueID>  (37) 
35

>  <SMILES>  (37) 
Cc1c(-c2ccccc2)nc2ccccc2c1C(=O)Nc1ccccc1F

>  <Energy>  (37) 
73.41814887678166

>  <Genealogy>  (37) 
Cc1c(-c2ccccc2)nc2ccccc2c1C(=O)Nc1ccccc1F (3D coordinates assigned)
Cc1c(-c2ccccc2)nc2ccccc2c1C(=O)Nc1ccccc1F (optimized conformer: 73.41814887678166 kcal/mol)

>  <smiles>  (37) 
Cc1c(-c2ccccc2)nc2ccccc2c1C(=O)Nc1ccccc1F

>  <score_type>  (37) 
oracle

>  <origin>  (37) 
adgpu

>  <m_score__min__energy>  (37) 
-9.4499999999999993

>  <m_primary>  (37) 
energy

$$$$
37:0
     RDKit          3D

 40 42  0  0  0  0  0  0  0  0999 V2000
    0.4830   24.5560  -27.6150 C   0  0  0  0  0  0  0  0  0  0  0  0
   -0.9330   24.1990  -27.9570 C   0  0  0  0  0  0  0  0  0  0  0  0
   -1.6080   23.2050  -27.2320 C   0  0  0  0  0  0  0  0  0  0  0  0
   -2.9340   22.8900  -27.5390 C   0  0  0  0  0  0  0  0  0  0  0  0
   -3.6030   23.5820  -28.5510 C   0  0  0  0  0  0  0  0  0  0  0  0
   -2.9580   24.6070  -29.2540 C   0  0  0  0  0  0  0  0  0  0  0  0
   -3.6740   25.2980  -30.2870 N   0  0  0  0  0  0  0  0  0  0  0  0
   -5.0880   25.2460  -30.5180 C   0  0  0  0  0  0  0  0  0  0  0  0
   -5.7730   26.2820  -30.3100 O   0  0  0  0  0  0  0  0  0  0  0  0
   -5.7460   24.0360  -31.0690 C   0  0  0  0  0  0  0  0  0  0  0  0
   -7.1490   23.9430  -31.0360 C   0  0  0  0  0  0  0  0  0  0  0  0
   -7.7970   22.8070  -31.5240 C   0  0  0  0  0  0  0  0  0  0  0  0
   -7.0550   21.7510  -32.0510 C   0  0  0  0  0  0  0  0  0  0  0  0
   -5.6620   21.8270  -32.0900 C   0  0  0  0  0  0  0  0  0  0  0  0
   -4.9920   22.9580  -31.5920 C   0  0  0  0  0  0  0  0  0  0  0  0
   -3.5620   23.0540  -31.7120 N   0  0  0  0  0  0  0  0  0  0  0  0
   -2.7000   21.9320  -31.9680 C   0  0  0  0  0  0  0  0  0  0  0  0
   -1.7700   21.4870  -31.0090 C   0  0  0  0  0  0  0  0  0  0  0  0
   -0.9270   20.4070  -31.2920 C   0  0  0  0  0  0  0  0  0  0  0  0
   -0.9940   19.7720  -32.5350 C   0  0  0  0  0  0  0  0  0  0  0  0
   -1.9000   20.2190  -33.4990 C   0  0  0  0  0  0  0  0  0  0  0  0
   -2.7450   21.2990  -33.2200 C   0  0  0  0  0  0  0  0  0  0  0  0
   -1.6130   24.9020  -28.9640 C   0  0  0  0  0  0  0  0  0  0  0  0
    0.5999   24.5855  -26.5216 H   0  0  0  0  0  0  0  0  0  0  0  0
    1.1634   23.8013  -28.0363 H   0  0  0  0  0  0  0  0  0  0  0  0
    0.7243   25.5431  -28.0363 H   0  0  0  0  0  0  0  0  0  0  0  0
   -1.0916   22.6724  -26.4198 H   0  0  0  0  0  0  0  0  0  0  0  0
   -3.4523   22.0952  -26.9825 H   0  0  0  0  0  0  0  0  0  0  0  0
   -4.6427   23.3203  -28.7973 H   0  0  0  0  0  0  0  0  0  0  0  0
   -7.7408   24.7727  -30.6220 H   0  0  0  0  0  0  0  0  0  0  0  0
   -8.8948   22.7450  -31.4927 H   0  0  0  0  0  0  0  0  0  0  0  0
   -7.5677   20.8573  -32.4363 H   0  0  0  0  0  0  0  0  0  0  0  0
   -5.0827   20.9938  -32.5145 H   0  0  0  0  0  0  0  0  0  0  0  0
   -3.1280   24.0020  -31.6410 H   0  0  0  0  0  0  0  0  0  0  0  0
   -1.7060   21.9907  -30.0332 H   0  0  0  0  0  0  0  0  0  0  0  0
   -0.2101   20.0570  -30.5347 H   0  0  0  0  0  0  0  0  0  0  0  0
   -0.3332   18.9203  -32.7540 H   0  0  0  0  0  0  0  0  0  0  0  0
   -1.9495   19.7216  -34.4789 H   0  0  0  0  0  0  0  0  0  0  0  0
   -3.4491   21.6542  -33.9869 H   0  0  0  0  0  0  0  0  0  0  0  0
   -1.0914   25.6881  -29.5297 H   0  0  0  0  0  0  0  0  0  0  0  0
  1  2  1  0
  2  3  2  0
  3  4  1  0
  4  5  2  0
  5  6  1  0
  6  7  1  0
  7  8  1  0
  8  9  2  0
  8 10  1  0
 10 11  2  0
 11 12  1  0
 12 13  2  0
 13 14  1  0
 14 15  2  0
 15 16  1  0
 16 17  1  0
 17 18  2  0
 18 19  1  0
 19 20  2  0
 20 21  1  0
 21 22  2  0
  6 23  2  0
 23  2  1  0
 15 10  1  0
 22 17  1  0
  1 24  1  0
  1 25  1  0
  1 26  1  0
  3 27  1  0
  4 28  1  0
  5 29  1  0
 11 30  1  0
 12 31  1  0
 13 32  1  0
 14 33  1  0
 16 34  1  0
 18 35  1  0
 19 36  1  0
 20 37  1  0
 21 38  1  0
 22 39  1  0
 23 40  1  0
M  CHG  1   7  -1
M  END
>  <UniqueID>  (38) 
36

>  <SMILES>  (38) 
Cc1cccc([N-]C(=O)c2ccccc2Nc2ccccc2)c1

>  <Energy>  (38) 
55.63988229719075

>  <Genealogy>  (38) 
Cc1cccc([N-]C(=O)c2ccccc2Nc2ccccc2)c1 (protonated)
Cc1cccc([N-]C(=O)c2ccccc2Nc2ccccc2)c1 (3D coordinates assigned)
Cc1cccc([N-]C(=O)c2ccccc2Nc2ccccc2)c1 (optimized conformer: 55.63988229719075 kcal/mol)

>  <smiles>  (38) 
Cc1cccc(NC(=O)c2ccccc2Nc2ccccc2)c1

>  <score_type>  (38) 
oracle

>  <origin>  (38) 
adgpu

>  <m_score__min__energy>  (38) 
-9.6400000000000006

>  <m_primary>  (38) 
energy

$$$$
38:0
     RDKit          3D

 33 35  0  0  0  0  0  0  0  0999 V2000
   -7.0160   23.2970  -32.6620 O   0  0  0  0  0  0  0  0  0  0  0  0
   -6.3250   22.6130  -31.8600 C   0  0  0  0  0  0  0  0  0  0  0  0
   -6.6270   21.2220  -31.6650 N   0  0  0  0  0  0  0  0  0  0  0  0
   -7.6440   20.5250  -32.4480 C   0  0  0  0  0  0  0  0  0  0  0  0
   -7.0700   19.2750  -33.0560 C   0  0  0  0  0  0  0  0  0  0  0  0
   -7.4360   18.0090  -32.5700 C   0  0  0  0  0  0  0  0  0  0  0  0
   -6.8800   16.8530  -33.1280 C   0  0  0  0  0  0  0  0  0  0  0  0
   -5.9560   16.9530  -34.1720 C   0  0  0  0  0  0  0  0  0  0  0  0
   -5.5840   18.2100  -34.6590 C   0  0  0  0  0  0  0  0  0  0  0  0
   -6.1370   19.3670  -34.1020 C   0  0  0  0  0  0  0  0  0  0  0  0
   -5.2330   23.2700  -31.1020 C   0  0  0  0  0  0  0  0  0  0  0  0
   -5.1270   24.6690  -31.1290 C   0  0  0  0  0  0  0  0  0  0  0  0
   -4.1440   25.3030  -30.4380 N   0  0  0  0  0  0  0  0  0  0  0  0
   -3.2270   24.6190  -29.7090 C   0  0  0  0  0  0  0  0  0  0  0  0
   -2.2620   25.2980  -29.0330 N   0  0  0  0  0  0  0  0  0  0  0  0
   -1.3180   24.6540  -28.2950 C   0  0  0  0  0  0  0  0  0  0  0  0
   -0.1000   25.5820  -27.4440 Cl  0  0  0  0  0  0  0  0  0  0  0  0
   -1.3210   23.2590  -28.2170 C   0  0  0  0  0  0  0  0  0  0  0  0
   -2.2980   22.5340  -28.9020 C   0  0  0  0  0  0  0  0  0  0  0  0
   -3.2710   23.2100  -29.6590 C   0  0  0  0  0  0  0  0  0  0  0  0
   -4.2780   22.5320  -30.3720 C   0  0  0  0  0  0  0  0  0  0  0  0
   -4.3070   21.2700  -30.3760 O   0  0  0  0  0  0  0  0  0  0  0  0
   -6.1610   20.6960  -30.8920 H   0  0  0  0  0  0  0  0  0  0  0  0
   -8.4854   20.2561  -31.7924 H   0  0  0  0  0  0  0  0  0  0  0  0
   -7.9909   21.1879  -33.2543 H   0  0  0  0  0  0  0  0  0  0  0  0
   -8.1622   17.9263  -31.7479 H   0  0  0  0  0  0  0  0  0  0  0  0
   -7.1704   15.8637  -32.7446 H   0  0  0  0  0  0  0  0  0  0  0  0
   -5.5213   16.0427  -34.6107 H   0  0  0  0  0  0  0  0  0  0  0  0
   -4.8564   18.2884  -35.4802 H   0  0  0  0  0  0  0  0  0  0  0  0
   -5.8399   20.3545  -34.4849 H   0  0  0  0  0  0  0  0  0  0  0  0
   -5.8471   25.2583  -31.7156 H   0  0  0  0  0  0  0  0  0  0  0  0
   -0.5593   22.7358  -27.6203 H   0  0  0  0  0  0  0  0  0  0  0  0
   -2.3065   21.4353  -28.8495 H   0  0  0  0  0  0  0  0  0  0  0  0
  1  2  2  0
  2  3  1  0
  3  4  1  0
  4  5  1  0
  5  6  2  0
  6  7  1  0
  7  8  2  0
  8  9  1  0
  9 10  2  0
  2 11  1  0
 11 12  2  0
 12 13  1  0
 13 14  1  0
 14 15  2  0
 15 16  1  0
 16 17  1  0
 16 18  2  0
 18 19  1  0
 19 20  2  0
 20 21  1  0
 21 22  2  0
 10  5  1  0
 21 11  1  0
 20 14  1  0
  3 23  1  0
  4 24  1  0
  4 25  1  0
  6 26  1  0
  7 27  1  0
  8 28  1  0
  9 29  1  0
 10 30  1  0
 12 31  1  0
 18 32  1  0
 19 33  1  0
M  CHG  1  13  -1
M  END
>  <UniqueID>  (39) 
37

>  <SMILES>  (39) 
O=C(NCc1ccccc1)c1c[n-]c2nc(Cl)ccc2c1=O

>  <Energy>  (39) 
43.375312358666264

>  <Genealogy>  (39) 
O=C(NCc1ccccc1)c1c[n-]c2nc(Cl)ccc2c1=O (protonated)
O=C(NCc1ccccc1)c1c[n-]c2nc(Cl)ccc2c1=O (3D coordinates assigned)
O=C(NCc1ccccc1)c1c[n-]c2nc(Cl)ccc2c1=O (optimized conformer: 43.375312358666264 kcal/mol)

>  <smiles>  (39) 
O=C(NCc1ccccc1)c1c[nH]c2nc(Cl)ccc2c1=O

>  <score_type>  (39) 
oracle

>  <origin>  (39) 
adgpu

>  <m_score__min__energy>  (39) 
-9.7400000000000002

>  <m_primary>  (39) 
energy

$$$$
39:0
     RDKit          3D

 49 52  0  0  0  0  0  0  0  0999 V2000
   -6.1670   17.4930  -31.2080 C   0  0  0  0  0  0  0  0  0  0  0  0
   -6.8610   17.7950  -32.5310 C   0  0  0  0  0  0  0  0  0  0  0  0
   -6.2950   19.0030  -33.1380 N   0  0  0  0  0  0  0  0  0  0  0  0
   -5.5710   18.9260  -34.4140 C   0  0  0  0  0  0  0  0  0  0  0  0
   -4.1280   18.3810  -34.2160 C   0  0  0  0  0  0  0  0  0  0  0  0
   -3.2780   19.1630  -33.2820 N   0  0  0  0  0  0  0  0  0  0  0  0
   -2.8040   20.4350  -33.8590 C   0  0  0  0  0  0  0  0  0  0  0  0
   -2.0720   21.2740  -32.7830 C   0  0  0  0  0  0  0  0  0  0  0  0
   -1.7000   20.5110  -31.6450 O   0  0  0  0  0  0  0  0  0  0  0  0
   -1.1060   19.2920  -32.0490 C   0  0  0  0  0  0  0  0  0  0  0  0
   -2.1590   18.3750  -32.7090 C   0  0  0  0  0  0  0  0  0  0  0  0
   -6.4530   20.2620  -32.4680 C   0  0  0  0  0  0  0  0  0  0  0  0
   -5.3550   20.9700  -32.0750 N   0  0  0  0  0  0  0  0  0  0  0  0
   -5.4680   22.1780  -31.4480 C   0  0  0  0  0  0  0  0  0  0  0  0
   -4.3200   22.9010  -31.0990 C   0  0  0  0  0  0  0  0  0  0  0  0
   -4.4430   24.1460  -30.4750 C   0  0  0  0  0  0  0  0  0  0  0  0
   -5.7110   24.6730  -30.1940 C   0  0  0  0  0  0  0  0  0  0  0  0
   -6.8660   23.9600  -30.5390 C   0  0  0  0  0  0  0  0  0  0  0  0
   -6.7530   22.7120  -31.1760 C   0  0  0  0  0  0  0  0  0  0  0  0
   -7.8370   21.9850  -31.5760 N   0  0  0  0  0  0  0  0  0  0  0  0
   -9.1570   22.2270  -31.4320 C   0  0  0  0  0  0  0  0  0  0  0  0
   -9.8770   21.1750  -31.9770 C   0  0  0  0  0  0  0  0  0  0  0  0
   -8.9590   20.2620  -32.4720 C   0  0  0  0  0  0  0  0  0  0  0  0
   -7.7160   20.8010  -32.2030 C   0  0  0  0  0  0  0  0  0  0  0  0
   -6.8255   17.7795  -30.3748 H   0  0  0  0  0  0  0  0  0  0  0  0
   -5.9457   16.4172  -31.1472 H   0  0  0  0  0  0  0  0  0  0  0  0
   -5.2290   18.0643  -31.1472 H   0  0  0  0  0  0  0  0  0  0  0  0
   -6.7221   16.9455  -33.2159 H   0  0  0  0  0  0  0  0  0  0  0  0
   -7.9328   17.9569  -32.3441 H   0  0  0  0  0  0  0  0  0  0  0  0
   -6.1163   18.2559  -35.0949 H   0  0  0  0  0  0  0  0  0  0  0  0
   -5.5032   19.9399  -34.8352 H   0  0  0  0  0  0  0  0  0  0  0  0
   -4.2025   17.3540  -33.8292 H   0  0  0  0  0  0  0  0  0  0  0  0
   -3.6399   18.4464  -35.1996 H   0  0  0  0  0  0  0  0  0  0  0  0
   -3.9090   19.4140  -32.4840 H   0  0  0  0  0  0  0  0  0  0  0  0
   -2.1112   20.2222  -34.6864 H   0  0  0  0  0  0  0  0  0  0  0  0
   -3.6694   21.0044  -34.2289 H   0  0  0  0  0  0  0  0  0  0  0  0
   -1.1631   21.7024  -33.2306 H   0  0  0  0  0  0  0  0  0  0  0  0
   -2.7686   22.0546  -32.4433 H   0  0  0  0  0  0  0  0  0  0  0  0
   -0.3034   19.5014  -32.7715 H   0  0  0  0  0  0  0  0  0  0  0  0
   -0.6939   18.7845  -31.1643 H   0  0  0  0  0  0  0  0  0  0  0  0
   -1.6783   17.7985  -33.5131 H   0  0  0  0  0  0  0  0  0  0  0  0
   -2.5663   17.7039  -31.9384 H   0  0  0  0  0  0  0  0  0  0  0  0
   -3.3231   22.4897  -31.3156 H   0  0  0  0  0  0  0  0  0  0  0  0
   -3.5411   24.7142  -30.2035 H   0  0  0  0  0  0  0  0  0  0  0  0
   -5.7994   25.6518  -29.6999 H   0  0  0  0  0  0  0  0  0  0  0  0
   -7.8589   24.3755  -30.3121 H   0  0  0  0  0  0  0  0  0  0  0  0
   -9.5928   23.1184  -30.9571 H   0  0  0  0  0  0  0  0  0  0  0  0
  -10.9726   21.0822  -32.0104 H   0  0  0  0  0  0  0  0  0  0  0  0
   -9.1752   19.3075  -32.9742 H   0  0  0  0  0  0  0  0  0  0  0  0
  1  2  1  0
  2  3  1  0
  3  4  1  0
  4  5  1  0
  5  6  1  0
  6  7  1  0
  7  8  1  0
  8  9  1  0
  9 10  1  0
 10 11  1  0
  3 12  1  0
 12 13  2  0
 13 14  1  0
 14 15  2  0
 15 16  1  0
 16 17  2  0
 17 18  1  0
 18 19  2  0
 19 20  1  0
 20 21  1  0
 21 22  2  0
 22 23  1  0
 23 24  2  0
 11  6  1  0
 24 12  1  0
 19 14  1  0
 24 20  1  0
  1 25  1  0
  1 26  1  0
  1 27  1  0
  2 28  1  0
  2 29  1  0
  4 30  1  0
  4 31  1  0
  5 32  1  0
  5 33  1  0
  6 34  1  0
  7 35  1  0
  7 36  1  0
  8 37  1  0
  8 38  1  0
 10 39  1  0
 10 40  1  0
 11 41  1  0
 11 42  1  0
 15 43  1  0
 16 44  1  0
 17 45  1  0
 18 46  1  0
 21 47  1  0
 22 48  1  0
 23 49  1  0
M  CHG  1   6   1
M  END
>  <UniqueID>  (40) 
38

>  <SMILES>  (40) 
CCN(CC[NH+]1CCOCC1)c1nc2ccccc2n2cccc12

>  <Energy>  (40) 
102.10753162387938

>  <Genealogy>  (40) 
CCN(CC[NH+]1CCOCC1)c1nc2ccccc2n2cccc12 (protonated)
CCN(CC[NH+]1CCOCC1)c1nc2ccccc2n2cccc12 (3D coordinates assigned)
CCN(CC[NH+]1CCOCC1)c1nc2ccccc2n2cccc12 (nonaromatic ring conformer: 102.10753162387938 kcal/mol)

>  <smiles>  (40) 
CCN(CCN1CCOCC1)c1nc2ccccc2n2cccc12

>  <score_type>  (40) 
oracle

>  <origin>  (40) 
adgpu

>  <m_score__min__energy>  (40) 
-7.4900000000000002

>  <m_primary>  (40) 
energy

$$$$
40:0
     RDKit          3D

 36 38  0  0  0  0  0  0  0  0999 V2000
   -2.4910   22.6390  -30.5610 C   0  0  0  0  0  0  0  0  0  0  0  0
   -3.8410   23.2870  -30.6610 C   0  0  0  0  0  0  0  0  0  0  0  0
   -4.1320   24.4330  -29.9070 C   0  0  0  0  0  0  0  0  0  0  0  0
   -5.3760   25.0550  -30.0270 C   0  0  0  0  0  0  0  0  0  0  0  0
   -6.3340   24.5460  -30.9080 C   0  0  0  0  0  0  0  0  0  0  0  0
   -6.0570   23.4080  -31.6830 C   0  0  0  0  0  0  0  0  0  0  0  0
   -7.0670   22.9090  -32.5810 N   0  0  0  0  0  0  0  0  0  0  0  0
   -7.9340   21.7670  -32.2910 C   0  0  0  0  0  0  0  0  0  0  0  0
   -7.2930   20.4850  -32.7470 C   0  0  0  0  0  0  0  0  0  0  0  0
   -6.1630   20.4660  -33.5020 N   0  0  0  0  0  0  0  0  0  0  0  0
   -5.9440   19.1520  -33.6890 C   0  0  0  0  0  0  0  0  0  0  0  0
   -4.9190   18.5610  -34.4230 C   0  0  0  0  0  0  0  0  0  0  0  0
   -4.8970   17.1570  -34.5070 C   0  0  0  0  0  0  0  0  0  0  0  0
   -5.8930   16.3880  -33.8640 C   0  0  0  0  0  0  0  0  0  0  0  0
   -6.9170   17.0150  -33.1300 C   0  0  0  0  0  0  0  0  0  0  0  0
   -6.9040   18.4110  -33.0620 C   0  0  0  0  0  0  0  0  0  0  0  0
   -7.7550   19.2420  -32.4380 N   0  0  0  0  0  0  0  0  0  0  0  0
   -8.9660   18.8950  -31.6940 C   0  0  0  0  0  0  0  0  0  0  0  0
   -4.7970   22.7890  -31.5600 C   0  0  0  0  0  0  0  0  0  0  0  0
   -2.2235   22.5106  -29.5018 H   0  0  0  0  0  0  0  0  0  0  0  0
   -2.5187   21.6560  -31.0540 H   0  0  0  0  0  0  0  0  0  0  0  0
   -1.7414   23.2754  -31.0540 H   0  0  0  0  0  0  0  0  0  0  0  0
   -3.3779   24.8430  -29.2191 H   0  0  0  0  0  0  0  0  0  0  0  0
   -5.6028   25.9482  -29.4264 H   0  0  0  0  0  0  0  0  0  0  0  0
   -7.3127   25.0406  -30.9951 H   0  0  0  0  0  0  0  0  0  0  0  0
   -7.2030   23.3900  -33.5000 H   0  0  0  0  0  0  0  0  0  0  0  0
   -8.1133   21.7156  -31.2069 H   0  0  0  0  0  0  0  0  0  0  0  0
   -8.8846   21.8985  -32.8287 H   0  0  0  0  0  0  0  0  0  0  0  0
   -4.1516   19.1719  -34.9209 H   0  0  0  0  0  0  0  0  0  0  0  0
   -4.1005   16.6552  -35.0761 H   0  0  0  0  0  0  0  0  0  0  0  0
   -5.8677   15.2908  -33.9378 H   0  0  0  0  0  0  0  0  0  0  0  0
   -7.6996   16.4275  -32.6278 H   0  0  0  0  0  0  0  0  0  0  0  0
   -8.7625   18.9533  -30.6146 H   0  0  0  0  0  0  0  0  0  0  0  0
   -9.7704   19.5988  -31.9540 H   0  0  0  0  0  0  0  0  0  0  0  0
   -9.2756   17.8720  -31.9540 H   0  0  0  0  0  0  0  0  0  0  0  0
   -4.5605   21.9075  -32.1741 H   0  0  0  0  0  0  0  0  0  0  0  0
  1  2  1  0
  2  3  2  0
  3  4  1  0
  4  5  2  0
  5  6  1  0
  6  7  1  0
  7  8  1  0
  8  9  1  0
  9 10  2  0
 10 11  1  0
 11 12  2  0
 12 13  1  0
 13 14  2  0
 14 15  1  0
 15 16  2  0
 16 17  1  0
 17 18  1  0
  6 19  2  0
 19  2  1  0
 17  9  1  0
 16 11  1  0
  1 20  1  0
  1 21  1  0
  1 22  1  0
  3 23  1  0
  4 24  1  0
  5 25  1  0
  7 26  1  0
  8 27  1  0
  8 28  1  0
 12 29  1  0
 13 30  1  0
 14 31  1  0
 15 32  1  0
 18 33  1  0
 18 34  1  0
 18 35  1  0
 19 36  1  0
M  END
>  <UniqueID>  (41) 
39

>  <SMILES>  (41) 
Cc1cccc(NCc2nc3ccccc3n2C)c1

>  <Energy>  (41) 
73.3701245058677

>  <Genealogy>  (41) 
Cc1cccc(NCc2nc3ccccc3n2C)c1 (3D coordinates assigned)
Cc1cccc(NCc2nc3ccccc3n2C)c1 (optimized conformer: 73.3701245058677 kcal/mol)

>  <smiles>  (41) 
Cc1cccc(NCc2nc3ccccc3n2C)c1

>  <score_type>  (41) 
oracle

>  <origin>  (41) 
adgpu

>  <m_score__min__energy>  (41) 
-7.3600000000000003

>  <m_primary>  (41) 
energy

$$$$
41:0
     RDKit          3D

 43 45  0  0  0  0  0  0  0  0999 V2000
   -3.9609   25.2466  -28.9649 H   0  0  0  0  0  0  0  0  0  0  0  0
   -4.1080   24.4740  -29.7340 C   0  0  0  0  0  0  0  0  0  0  0  0
   -3.0350   23.6680  -30.1170 C   0  0  0  0  0  0  0  0  0  0  0  0
   -1.8400   23.8210  -29.4910 F   0  0  0  0  0  0  0  0  0  0  0  0
   -3.2080   22.6860  -31.1060 C   0  0  0  0  0  0  0  0  0  0  0  0
   -2.0840   21.7960  -31.4820 C   0  0  0  0  0  0  0  0  0  0  0  0
   -1.2970   21.1940  -30.4890 C   0  0  0  0  0  0  0  0  0  0  0  0
   -1.5111   21.3796  -29.4261 H   0  0  0  0  0  0  0  0  0  0  0  0
   -0.2380   20.3560  -30.8570 C   0  0  0  0  0  0  0  0  0  0  0  0
    0.6180   19.7160  -29.8110 C   0  0  0  0  0  0  0  0  0  0  0  0
    0.2469   19.9934  -28.8133 H   0  0  0  0  0  0  0  0  0  0  0  0
    0.5805   18.6226  -29.9251 H   0  0  0  0  0  0  0  0  0  0  0  0
    1.6562   20.0612  -29.9251 H   0  0  0  0  0  0  0  0  0  0  0  0
    0.0240   20.1370  -32.1740 N   0  0  0  0  0  0  0  0  0  0  0  0
   -0.7180   20.7090  -33.1620 C   0  0  0  0  0  0  0  0  0  0  0  0
   -0.3950   20.4270  -34.5940 C   0  0  0  0  0  0  0  0  0  0  0  0
    0.4326   19.7044  -34.6478 H   0  0  0  0  0  0  0  0  0  0  0  0
   -1.2807   20.0080  -35.0940 H   0  0  0  0  0  0  0  0  0  0  0  0
   -0.0993   21.3611  -35.0940 H   0  0  0  0  0  0  0  0  0  0  0  0
   -1.7900   21.5480  -32.8310 C   0  0  0  0  0  0  0  0  0  0  0  0
   -2.3972   22.0093  -33.6238 H   0  0  0  0  0  0  0  0  0  0  0  0
   -4.4660   22.5350  -31.7170 C   0  0  0  0  0  0  0  0  0  0  0  0
   -4.6140   21.6370  -32.7260 F   0  0  0  0  0  0  0  0  0  0  0  0
   -5.5600   23.3290  -31.3170 C   0  0  0  0  0  0  0  0  0  0  0  0
   -6.8960   23.1040  -31.9280 C   0  0  0  0  0  0  0  0  0  0  0  0
   -7.2370   23.7810  -32.9340 O   0  0  0  0  0  0  0  0  0  0  0  0
   -7.7710   22.0510  -31.4850 N   0  0  0  0  0  0  0  0  0  0  0  0
   -7.7920   20.7980  -31.8550 C   0  0  0  0  0  0  0  0  0  0  0  0
   -6.8030   20.2370  -32.6920 C   0  0  0  0  0  0  0  0  0  0  0  0
   -5.9608   20.8539  -33.0385 H   0  0  0  0  0  0  0  0  0  0  0  0
   -6.8950   18.8910  -33.0820 C   0  0  0  0  0  0  0  0  0  0  0  0
   -5.8860   18.3130  -34.0430 C   0  0  0  0  0  0  0  0  0  0  0  0
   -4.5930   18.5830  -33.6280 F   0  0  0  0  0  0  0  0  0  0  0  0
   -6.0570   18.8550  -35.3050 F   0  0  0  0  0  0  0  0  0  0  0  0
   -6.0580   16.9440  -34.1130 F   0  0  0  0  0  0  0  0  0  0  0  0
   -7.9820   18.1290  -32.6360 C   0  0  0  0  0  0  0  0  0  0  0  0
   -8.0962   17.0847  -32.9621 H   0  0  0  0  0  0  0  0  0  0  0  0
   -8.9180   18.7010  -31.7770 C   0  0  0  0  0  0  0  0  0  0  0  0
   -9.7566   18.0963  -31.4014 H   0  0  0  0  0  0  0  0  0  0  0  0
   -8.8010   20.0030  -31.4000 N   0  0  0  0  0  0  0  0  0  0  0  0
   -9.5280   20.4020  -30.7630 H   0  0  0  0  0  0  0  0  0  0  0  0
   -5.3670   24.3100  -30.3170 C   0  0  0  0  0  0  0  0  0  0  0  0
   -6.6880   25.3050  -29.7110 Cl  0  0  0  0  0  0  0  0  0  0  0  0
  1  2  1  0
  2  3  2  0
  3  4  1  0
  3  5  1  0
  5  6  1  0
  6  7  2  0
  7  8  1  0
  7  9  1  0
  9 10  1  0
 10 11  1  0
 10 12  1  0
 10 13  1  0
  9 14  2  0
 14 15  1  0
 15 16  1  0
 16 17  1  0
 16 18  1  0
 16 19  1  0
 15 20  2  0
 20 21  1  0
  5 22  2  0
 22 23  1  0
 22 24  1  0
 24 25  1  0
 25 26  2  0
 25 27  1  0
 27 28  2  0
 28 29  1  0
 29 30  1  0
 29 31  2  0
 31 32  1  0
 32 33  1  0
 32 34  1  0
 32 35  1  0
 31 36  1  0
 36 37  1  0
 36 38  2  0
 38 39  1  0
 38 40  1  0
 40 41  1  0
 24 42  2  0
 42 43  1  0
 42  2  1  0
 20  6  1  0
 40 28  1  0
M  END
>  <UniqueID>  (42) 
40

>  <SMILES>  (42) 
Cc1cc(-c2c(F)cc(Cl)c(C(=O)/N=c3\cc(C(F)(F)F)cc[nH]3)c2F)cc(C)n1

>  <Energy>  (42) 
64.44670870718173

>  <Genealogy>  (42) 
Cc1cc(-c2c(F)cc(Cl)c(C(=O)/N=c3\cc(C(F)(F)F)cc[nH]3)c2F)cc(C)n1 (cis-trans isomerization)
Cc1cc(-c2c(F)cc(Cl)c(C(=O)/N=c3\cc(C(F)(F)F)cc[nH]3)c2F)cc(C)n1 (3D coordinates assigned)
Cc1cc(-c2c(F)cc(Cl)c(C(=O)/N=c3\cc(C(F)(F)F)cc[nH]3)c2F)cc(C)n1 (optimized conformer: 64.44670870718173 kcal/mol)

>  <smiles>  (42) 
Cc1cc(-c2c(F)cc(Cl)c(C(=O)N=c3cc(C(F)(F)F)cc[nH]3)c2F)cc(C)n1

>  <score_type>  (42) 
oracle

>  <origin>  (42) 
adgpu

>  <m_score__min__energy>  (42) 
-8.3100000000000005

>  <m_primary>  (42) 
energy

$$$$
42:0
     RDKit          3D

 32 33  0  0  0  0  0  0  0  0999 V2000
   -2.5310   20.6180  -27.5040 C   0  0  0  0  0  0  0  0  0  0  0  0
   -1.6100   21.6460  -28.1550 C   0  0  0  0  0  0  0  0  0  0  0  0
   -2.4140   22.6990  -28.8840 C   0  0  0  0  0  0  0  0  0  0  0  0
   -3.6090   22.3210  -29.5150 C   0  0  0  0  0  0  0  0  0  0  0  0
   -4.3690   23.2530  -30.2430 C   0  0  0  0  0  0  0  0  0  0  0  0
   -5.5910   22.8760  -30.9120 N   0  0  0  0  0  0  0  0  0  0  0  0
   -5.8440   21.5530  -31.4830 C   0  0  0  0  0  0  0  0  0  0  0  0
   -7.3050   21.3720  -31.7510 C   0  0  0  0  0  0  0  0  0  0  0  0
   -7.9090   20.2130  -32.1960 C   0  0  0  0  0  0  0  0  0  0  0  0
   -9.2500   20.5130  -32.3040 C   0  0  0  0  0  0  0  0  0  0  0  0
   -9.3810   21.8320  -31.9160 C   0  0  0  0  0  0  0  0  0  0  0  0
   -8.2040   22.3150  -31.5910 O   0  0  0  0  0  0  0  0  0  0  0  0
   -3.9040   24.5790  -30.3100 C   0  0  0  0  0  0  0  0  0  0  0  0
   -4.5530   25.4540  -30.9420 O   0  0  0  0  0  0  0  0  0  0  0  0
   -2.7420   24.9270  -29.7000 N   0  0  0  0  0  0  0  0  0  0  0  0
   -1.9820   24.0390  -29.0070 C   0  0  0  0  0  0  0  0  0  0  0  0
   -0.7130   24.5300  -28.3720 C   0  0  0  0  0  0  0  0  0  0  0  0
   -2.4571   20.7005  -26.4096 H   0  0  0  0  0  0  0  0  0  0  0  0
   -3.5688   20.8056  -27.8166 H   0  0  0  0  0  0  0  0  0  0  0  0
   -2.2310   19.6069  -27.8166 H   0  0  0  0  0  0  0  0  0  0  0  0
   -1.0024   22.1305  -27.3765 H   0  0  0  0  0  0  0  0  0  0  0  0
   -0.9623   21.1312  -28.8799 H   0  0  0  0  0  0  0  0  0  0  0  0
   -3.9562   21.2800  -29.4389 H   0  0  0  0  0  0  0  0  0  0  0  0
   -6.3410   23.5930  -31.0400 H   0  0  0  0  0  0  0  0  0  0  0  0
   -5.2872   21.4527  -32.4263 H   0  0  0  0  0  0  0  0  0  0  0  0
   -5.5146   20.7859  -30.7667 H   0  0  0  0  0  0  0  0  0  0  0  0
   -7.4222   19.2518  -32.4178 H   0  0  0  0  0  0  0  0  0  0  0  0
  -10.0538   19.8379  -32.6329 H   0  0  0  0  0  0  0  0  0  0  0  0
  -10.3270   22.3924  -31.8841 H   0  0  0  0  0  0  0  0  0  0  0  0
   -0.8122   24.4916  -27.2771 H   0  0  0  0  0  0  0  0  0  0  0  0
    0.1255   23.8914  -28.6868 H   0  0  0  0  0  0  0  0  0  0  0  0
   -0.5227   25.5667  -28.6868 H   0  0  0  0  0  0  0  0  0  0  0  0
  1  2  1  0
  2  3  1  0
  3  4  1  0
  4  5  2  0
  5  6  1  0
  6  7  1  0
  7  8  1  0
  8  9  2  0
  9 10  1  0
 10 11  2  0
 11 12  1  0
  5 13  1  0
 13 14  2  0
 13 15  1  0
 15 16  1  0
 16 17  1  0
 16  3  2  0
 12  8  1  0
  1 18  1  0
  1 19  1  0
  1 20  1  0
  2 21  1  0
  2 22  1  0
  4 23  1  0
  6 24  1  0
  7 25  1  0
  7 26  1  0
  9 27  1  0
 10 28  1  0
 11 29  1  0
 17 30  1  0
 17 31  1  0
 17 32  1  0
M  CHG  1  15  -1
M  END
>  <UniqueID>  (43) 
41

>  <SMILES>  (43) 
CCc1cc(NCc2ccco2)c(=O)[n-]c1C

>  <Energy>  (43) 
54.6425958063994

>  <Genealogy>  (43) 
CCc1cc(NCc2ccco2)c(=O)[n-]c1C (protonated)
CCc1cc(NCc2ccco2)c(=O)[n-]c1C (3D coordinates assigned)
CCc1cc(NCc2ccco2)c(=O)[n-]c1C (optimized conformer: 54.6425958063994 kcal/mol)

>  <smiles>  (43) 
CCc1cc(NCc2ccco2)c(=O)[nH]c1C

>  <score_type>  (43) 
oracle

>  <origin>  (43) 
adgpu

>  <m_score__min__energy>  (43) 
-7.8700000000000001

>  <m_primary>  (43) 
energy

$$$$
43:0
     RDKit          3D

 31 32  0  0  0  0  0  0  0  0999 V2000
   -5.3620   25.6750  -30.4820 C   0  0  0  0  0  0  0  0  0  0  0  0
   -6.5960   25.0820  -29.8020 C   0  0  0  0  0  0  0  0  0  0  0  0
   -6.7590   23.5830  -30.0960 C   0  0  0  0  0  0  0  0  0  0  0  0
   -5.4800   22.9020  -30.5170 C   0  0  0  0  0  0  0  0  0  0  0  0
   -4.3820   22.8350  -29.7310 N   0  0  0  0  0  0  0  0  0  0  0  0
   -3.5140   22.0730  -30.4260 C   0  0  0  0  0  0  0  0  0  0  0  0
   -4.0970   21.6740  -31.6060 C   0  0  0  0  0  0  0  0  0  0  0  0
   -5.3320   22.2040  -31.6690 N   0  0  0  0  0  0  0  0  0  0  0  0
   -6.3250   21.9250  -32.7130 C   0  0  0  0  0  0  0  0  0  0  0  0
   -7.0440   20.6100  -32.4690 C   0  0  0  0  0  0  0  0  0  0  0  0
   -6.4370   19.3690  -32.7940 C   0  0  0  0  0  0  0  0  0  0  0  0
   -4.8280   19.2530  -33.5040 Cl  0  0  0  0  0  0  0  0  0  0  0  0
   -7.1140   18.1700  -32.5460 C   0  0  0  0  0  0  0  0  0  0  0  0
   -8.3940   18.1820  -31.9970 C   0  0  0  0  0  0  0  0  0  0  0  0
   -9.0150   19.3920  -31.6990 C   0  0  0  0  0  0  0  0  0  0  0  0
   -8.3570   20.6030  -31.9370 C   0  0  0  0  0  0  0  0  0  0  0  0
   -9.2350   22.0880  -31.5830 Cl  0  0  0  0  0  0  0  0  0  0  0  0
   -4.6502   26.0171  -29.7163 H   0  0  0  0  0  0  0  0  0  0  0  0
   -4.8849   24.9078  -31.1095 H   0  0  0  0  0  0  0  0  0  0  0  0
   -5.6629   26.5269  -31.1095 H   0  0  0  0  0  0  0  0  0  0  0  0
   -6.5022   25.2213  -28.7149 H   0  0  0  0  0  0  0  0  0  0  0  0
   -7.4811   25.6012  -30.1983 H   0  0  0  0  0  0  0  0  0  0  0  0
   -7.1312   23.0897  -29.1860 H   0  0  0  0  0  0  0  0  0  0  0  0
   -7.4603   23.4964  -30.9390 H   0  0  0  0  0  0  0  0  0  0  0  0
   -2.4967   21.8109  -30.0998 H   0  0  0  0  0  0  0  0  0  0  0  0
   -3.6327   21.0311  -32.3683 H   0  0  0  0  0  0  0  0  0  0  0  0
   -7.0653   22.7385  -32.7271 H   0  0  0  0  0  0  0  0  0  0  0  0
   -5.7984   21.8537  -33.6761 H   0  0  0  0  0  0  0  0  0  0  0  0
   -6.6319   17.2109  -32.7863 H   0  0  0  0  0  0  0  0  0  0  0  0
   -8.9152   17.2339  -31.7985 H   0  0  0  0  0  0  0  0  0  0  0  0
  -10.0295   19.3955  -31.2737 H   0  0  0  0  0  0  0  0  0  0  0  0
  1  2  1  0
  2  3  1  0
  3  4  1  0
  4  5  2  0
  5  6  1  0
  6  7  2  0
  7  8  1  0
  8  9  1  0
  9 10  1  0
 10 11  2  0
 11 12  1  0
 11 13  1  0
 13 14  2  0
 14 15  1  0
 15 16  2  0
 16 17  1  0
  8  4  1  0
 16 10  1  0
  1 18  1  0
  1 19  1  0
  1 20  1  0
  2 21  1  0
  2 22  1  0
  3 23  1  0
  3 24  1  0
  6 25  1  0
  7 26  1  0
  9 27  1  0
  9 28  1  0
 13 29  1  0
 14 30  1  0
 15 31  1  0
M  END
>  <UniqueID>  (44) 
42

>  <SMILES>  (44) 
CCCc1nccn1Cc1c(Cl)cccc1Cl

>  <Energy>  (44) 
59.435343645141785

>  <Genealogy>  (44) 
CCCc1nccn1Cc1c(Cl)cccc1Cl (3D coordinates assigned)
CCCc1nccn1Cc1c(Cl)cccc1Cl (optimized conformer: 59.435343645141785 kcal/mol)

>  <smiles>  (44) 
CCCc1nccn1Cc1c(Cl)cccc1Cl

>  <score_type>  (44) 
oracle

>  <origin>  (44) 
adgpu

>  <m_score__min__energy>  (44) 
-6.6600000000000001

>  <m_primary>  (44) 
energy

$$$$
44:0
     RDKit          3D

 51 53  0  0  0  0  0  0  0  0999 V2000
   -1.1180   26.0600  -27.6130 C   0  0  0  0  0  0  0  0  0  0  0  0
   -1.6830   25.7260  -28.8770 O   0  0  0  0  0  0  0  0  0  0  0  0
   -1.9090   24.4150  -29.3260 C   0  0  0  0  0  0  0  0  0  0  0  0
   -1.0460   23.3530  -28.9950 C   0  0  0  0  0  0  0  0  0  0  0  0
   -1.3030   22.0630  -29.4590 C   0  0  0  0  0  0  0  0  0  0  0  0
   -2.4240   21.8090  -30.2620 C   0  0  0  0  0  0  0  0  0  0  0  0
   -2.7170   20.4060  -30.7460 C   0  0  0  0  0  0  0  0  0  0  0  0
   -2.1280   20.1380  -32.0860 N   0  0  0  0  0  0  0  0  0  0  0  0
   -2.5280   18.8020  -32.6030 C   0  0  0  0  0  0  0  0  0  0  0  0
   -3.7960   18.8380  -33.4830 C   0  0  0  0  0  0  0  0  0  0  0  0
   -4.6280   20.0020  -33.1340 N   0  0  0  0  0  0  0  0  0  0  0  0
   -5.9400   19.9530  -33.8080 C   0  0  0  0  0  0  0  0  0  0  0  0
   -7.0140   20.4770  -32.8920 C   0  0  0  0  0  0  0  0  0  0  0  0
   -6.9020   21.7650  -32.3420 C   0  0  0  0  0  0  0  0  0  0  0  0
   -7.8870   22.2500  -31.4770 C   0  0  0  0  0  0  0  0  0  0  0  0
   -8.9900   21.4540  -31.1550 C   0  0  0  0  0  0  0  0  0  0  0  0
   -9.1070   20.1700  -31.6950 C   0  0  0  0  0  0  0  0  0  0  0  0
   -8.1240   19.6800  -32.5590 C   0  0  0  0  0  0  0  0  0  0  0  0
   -3.9200   21.2570  -33.4610 C   0  0  0  0  0  0  0  0  0  0  0  0
   -2.4240   21.1990  -33.0770 C   0  0  0  0  0  0  0  0  0  0  0  0
   -3.2860   22.8640  -30.5930 C   0  0  0  0  0  0  0  0  0  0  0  0
   -3.0340   24.1700  -30.1290 C   0  0  0  0  0  0  0  0  0  0  0  0
   -3.8770   25.2480  -30.4430 O   0  0  0  0  0  0  0  0  0  0  0  0
   -5.2970   25.2170  -30.3430 C   0  0  0  0  0  0  0  0  0  0  0  0
   -1.7649   25.6776  -26.8097 H   0  0  0  0  0  0  0  0  0  0  0  0
   -0.1193   25.6070  -27.5265 H   0  0  0  0  0  0  0  0  0  0  0  0
   -1.0334   27.1533  -27.5265 H   0  0  0  0  0  0  0  0  0  0  0  0
   -0.1633   23.5418  -28.3664 H   0  0  0  0  0  0  0  0  0  0  0  0
   -0.6226   21.2405  -29.1935 H   0  0  0  0  0  0  0  0  0  0  0  0
   -2.2983   19.6882  -30.0253 H   0  0  0  0  0  0  0  0  0  0  0  0
   -3.8086   20.2994  -30.8300 H   0  0  0  0  0  0  0  0  0  0  0  0
   -1.0870   20.1130  -31.9650 H   0  0  0  0  0  0  0  0  0  0  0  0
   -1.6991   18.3980  -33.2027 H   0  0  0  0  0  0  0  0  0  0  0  0
   -2.7567   18.1721  -31.7307 H   0  0  0  0  0  0  0  0  0  0  0  0
   -3.5017   18.9064  -34.5407 H   0  0  0  0  0  0  0  0  0  0  0  0
   -4.3763   17.9194  -33.3118 H   0  0  0  0  0  0  0  0  0  0  0  0
   -5.9047   20.5707  -34.7175 H   0  0  0  0  0  0  0  0  0  0  0  0
   -6.1699   18.9101  -34.0715 H   0  0  0  0  0  0  0  0  0  0  0  0
   -6.0355   22.3944  -32.5932 H   0  0  0  0  0  0  0  0  0  0  0  0
   -7.7941   23.2591  -31.0492 H   0  0  0  0  0  0  0  0  0  0  0  0
   -9.7660   21.8381  -30.4766 H   0  0  0  0  0  0  0  0  0  0  0  0
   -9.9746   19.5440  -31.4393 H   0  0  0  0  0  0  0  0  0  0  0  0
   -8.2186   18.6681  -32.9798 H   0  0  0  0  0  0  0  0  0  0  0  0
   -4.0015   21.4384  -34.5429 H   0  0  0  0  0  0  0  0  0  0  0  0
   -4.3862   22.0687  -32.8833 H   0  0  0  0  0  0  0  0  0  0  0  0
   -1.8348   21.0059  -33.9856 H   0  0  0  0  0  0  0  0  0  0  0  0
   -2.1613   22.1639  -32.6187 H   0  0  0  0  0  0  0  0  0  0  0  0
   -4.1678   22.6700  -31.2213 H   0  0  0  0  0  0  0  0  0  0  0  0
   -5.5899   25.2106  -29.2827 H   0  0  0  0  0  0  0  0  0  0  0  0
   -5.7187   26.1062  -30.8345 H   0  0  0  0  0  0  0  0  0  0  0  0
   -5.6795   24.3103  -30.8345 H   0  0  0  0  0  0  0  0  0  0  0  0
  1  2  1  0
  2  3  1  0
  3  4  2  0
  4  5  1  0
  5  6  2  0
  6  7  1  0
  7  8  1  0
  8  9  1  0
  9 10  1  0
 10 11  1  0
 11 12  1  0
 12 13  1  0
 13 14  2  0
 14 15  1  0
 15 16  2  0
 16 17  1  0
 17 18  2  0
 11 19  1  0
 19 20  1  0
  6 21  1  0
 21 22  2  0
 22 23  1  0
 23 24  1  0
 22  3  1  0
 20  8  1  0
 18 13  1  0
  1 25  1  0
  1 26  1  0
  1 27  1  0
  4 28  1  0
  5 29  1  0
  7 30  1  0
  7 31  1  0
  8 32  1  0
  9 33  1  0
  9 34  1  0
 10 35  1  0
 10 36  1  0
 12 37  1  0
 12 38  1  0
 14 39  1  0
 15 40  1  0
 16 41  1  0
 17 42  1  0
 18 43  1  0
 19 44  1  0
 19 45  1  0
 20 46  1  0
 20 47  1  0
 21 48  1  0
 24 49  1  0
 24 50  1  0
 24 51  1  0
M  CHG  1   8   1
M  END
>  <UniqueID>  (45) 
43

>  <SMILES>  (45) 
COc1ccc(C[NH+]2CCN(Cc3ccccc3)CC2)cc1OC

>  <Energy>  (45) 
62.54218622568537

>  <Genealogy>  (45) 
COc1ccc(C[NH+]2CCN(Cc3ccccc3)CC2)cc1OC (protonated)
COc1ccc(C[NH+]2CCN(Cc3ccccc3)CC2)cc1OC (3D coordinates assigned)
COc1ccc(C[NH+]2CCN(Cc3ccccc3)CC2)cc1OC (nonaromatic ring conformer: 62.54218622568537 kcal/mol)

>  <smiles>  (45) 
COc1ccc(CN2CCN(Cc3ccccc3)CC2)cc1OC

>  <score_type>  (45) 
oracle

>  <origin>  (45) 
adgpu

>  <m_score__min__energy>  (45) 
-8.3100000000000005

>  <m_primary>  (45) 
energy

$$$$
45:0
     RDKit          3D

 37 39  0  0  0  0  0  0  0  0999 V2000
   -2.4659   23.2669  -26.4225 H   0  0  0  0  0  0  0  0  0  0  0  0
   -2.6700   23.6480  -27.4340 C   0  0  0  0  0  0  0  0  0  0  0  0
   -3.9180   23.1460  -28.4460 S   0  0  0  0  0  0  0  0  0  0  0  0
   -3.4970   24.2190  -29.6780 C   0  0  0  0  0  0  0  0  0  0  0  0
   -4.0760   24.3290  -30.8380 N   0  0  0  0  0  0  0  0  0  0  0  0
   -5.2590   23.6370  -31.2690 C   0  0  0  0  0  0  0  0  0  0  0  0
   -6.5120   24.1560  -30.9190 C   0  0  0  0  0  0  0  0  0  0  0  0
   -6.5751   25.0922  -30.3450 H   0  0  0  0  0  0  0  0  0  0  0  0
   -7.6830   23.4910  -31.2950 C   0  0  0  0  0  0  0  0  0  0  0  0
   -8.6638   23.9129  -31.0305 H   0  0  0  0  0  0  0  0  0  0  0  0
   -7.6080   22.2900  -32.0070 C   0  0  0  0  0  0  0  0  0  0  0  0
   -8.5297   21.7721  -32.3108 H   0  0  0  0  0  0  0  0  0  0  0  0
   -6.3600   21.7470  -32.3330 C   0  0  0  0  0  0  0  0  0  0  0  0
   -6.2640   20.1910  -33.2210 S   0  0  0  0  0  0  0  0  0  0  0  0
   -7.9340   19.6660  -32.7230 C   0  0  0  0  0  0  0  0  0  0  0  0
   -7.9997   19.6453  -31.6252 H   0  0  0  0  0  0  0  0  0  0  0  0
   -8.6752   20.3745  -33.1214 H   0  0  0  0  0  0  0  0  0  0  0  0
   -8.1364   18.6609  -33.1214 H   0  0  0  0  0  0  0  0  0  0  0  0
   -5.1890   22.4090  -31.9510 C   0  0  0  0  0  0  0  0  0  0  0  0
   -4.2090   21.9675  -32.1849 H   0  0  0  0  0  0  0  0  0  0  0  0
   -2.4090   24.9430  -29.3420 N   0  0  0  0  0  0  0  0  0  0  0  0
   -1.9940   25.6760  -29.9600 H   0  0  0  0  0  0  0  0  0  0  0  0
   -1.9400   24.6310  -28.1010 C   0  0  0  0  0  0  0  0  0  0  0  0
   -0.7690   25.3080  -27.4990 C   0  0  0  0  0  0  0  0  0  0  0  0
   -0.8780   26.6680  -27.1600 C   0  0  0  0  0  0  0  0  0  0  0  0
   -1.8301   27.1948  -27.3214 H   0  0  0  0  0  0  0  0  0  0  0  0
    0.2090   27.3560  -26.6210 C   0  0  0  0  0  0  0  0  0  0  0  0
    0.1106   28.4205  -26.3617 H   0  0  0  0  0  0  0  0  0  0  0  0
    1.4200   26.6980  -26.4100 C   0  0  0  0  0  0  0  0  0  0  0  0
    2.2788   27.2463  -25.9955 H   0  0  0  0  0  0  0  0  0  0  0  0
    1.5430   25.3420  -26.7250 C   0  0  0  0  0  0  0  0  0  0  0  0
    2.5018   24.8288  -26.5600 H   0  0  0  0  0  0  0  0  0  0  0  0
    0.4520   24.6280  -27.2510 C   0  0  0  0  0  0  0  0  0  0  0  0
    0.6260   23.1590  -27.5370 C   0  0  0  0  0  0  0  0  0  0  0  0
    0.6915   22.6060  -26.5884 H   0  0  0  0  0  0  0  0  0  0  0  0
   -0.2351   22.7936  -28.1157 H   0  0  0  0  0  0  0  0  0  0  0  0
    1.5487   23.0049  -28.1157 H   0  0  0  0  0  0  0  0  0  0  0  0
  1  2  1  0
  2  3  1  0
  3  4  1  0
  4  5  2  0
  5  6  1  0
  6  7  2  0
  7  8  1  0
  7  9  1  0
  9 10  1  0
  9 11  2  0
 11 12  1  0
 11 13  1  0
 13 14  1  0
 14 15  1  0
 15 16  1  0
 15 17  1  0
 15 18  1  0
 13 19  2  0
 19 20  1  0
  4 21  1  0
 21 22  1  0
 21 23  1  0
 23 24  1  0
 24 25  2  0
 25 26  1  0
 25 27  1  0
 27 28  1  0
 27 29  2  0
 29 30  1  0
 29 31  1  0
 31 32  1  0
 31 33  2  0
 33 34  1  0
 34 35  1  0
 34 36  1  0
 34 37  1  0
 23  2  2  0
 33 24  1  0
 19  6  1  0
M  END
>  <UniqueID>  (46) 
44

>  <SMILES>  (46) 
CSc1cccc(/N=c2/[nH]c(-c3ccccc3C)cs2)c1

>  <Energy>  (46) 
77.97820833467352

>  <Genealogy>  (46) 
CSc1cccc(/N=c2/[nH]c(-c3ccccc3C)cs2)c1 (cis-trans isomerization)
CSc1cccc(/N=c2/[nH]c(-c3ccccc3C)cs2)c1 (3D coordinates assigned)
CSc1cccc(/N=c2/[nH]c(-c3ccccc3C)cs2)c1 (optimized conformer: 77.97820833467352 kcal/mol)

>  <smiles>  (46) 
CSc1cccc(N=c2[nH]c(-c3ccccc3C)cs2)c1

>  <score_type>  (46) 
oracle

>  <origin>  (46) 
adgpu

>  <m_score__min__energy>  (46) 
-8.4399999999999995

>  <m_primary>  (46) 
energy

$$$$
46:0
     RDKit          3D

 22 23  0  0  0  0  0  0  0  0999 V2000
   -7.3259   20.6349  -31.4318 H   0  0  0  0  0  0  0  0  0  0  0  0
   -6.4480   20.4560  -32.0700 C   0  0  0  0  0  0  0  0  0  0  0  0
   -5.4700   21.3120  -32.0810 N   0  0  0  0  0  0  0  0  0  0  0  0
   -5.3860   22.5250  -31.3130 C   0  0  0  0  0  0  0  0  0  0  0  0
   -6.4920   23.3860  -31.3150 C   0  0  0  0  0  0  0  0  0  0  0  0
   -7.3907   23.1176  -31.8897 H   0  0  0  0  0  0  0  0  0  0  0  0
   -6.4630   24.5830  -30.5930 C   0  0  0  0  0  0  0  0  0  0  0  0
   -7.3397   25.2474  -30.5959 H   0  0  0  0  0  0  0  0  0  0  0  0
   -5.3240   24.9360  -29.8690 C   0  0  0  0  0  0  0  0  0  0  0  0
   -5.3050   25.8759  -29.2979 H   0  0  0  0  0  0  0  0  0  0  0  0
   -4.2070   24.0960  -29.8690 C   0  0  0  0  0  0  0  0  0  0  0  0
   -2.7690   24.5510  -28.9720 Cl  0  0  0  0  0  0  0  0  0  0  0  0
   -4.2310   22.8960  -30.5900 C   0  0  0  0  0  0  0  0  0  0  0  0
   -3.3477   22.2404  -30.5933 H   0  0  0  0  0  0  0  0  0  0  0  0
   -6.3850   19.2520  -32.9060 C   0  0  0  0  0  0  0  0  0  0  0  0
   -6.9720   17.7420  -32.4500 S   0  0  0  0  0  0  0  0  0  0  0  0
   -6.5390   16.9620  -33.8750 C   0  0  0  0  0  0  0  0  0  0  0  0
   -6.8170   15.2680  -34.2190 Cl  0  0  0  0  0  0  0  0  0  0  0  0
   -5.9290   17.8720  -34.7270 C   0  0  0  0  0  0  0  0  0  0  0  0
   -5.5530   17.6086  -35.7266 H   0  0  0  0  0  0  0  0  0  0  0  0
   -5.8410   19.1600  -34.1840 C   0  0  0  0  0  0  0  0  0  0  0  0
   -5.3884   20.0116  -34.7132 H   0  0  0  0  0  0  0  0  0  0  0  0
  1  2  1  0
  2  3  2  0
  3  4  1  0
  4  5  2  0
  5  6  1  0
  5  7  1  0
  7  8  1  0
  7  9  2  0
  9 10  1  0
  9 11  1  0
 11 12  1  0
 11 13  2  0
 13 14  1  0
  2 15  1  0
 15 16  1  0
 16 17  1  0
 17 18  1  0
 17 19  2  0
 19 20  1  0
 19 21  1  0
 21 22  1  0
 13  4  1  0
 21 15  2  0
M  END
>  <UniqueID>  (47) 
45

>  <SMILES>  (47) 
Clc1cccc(/N=C/c2ccc(Cl)s2)c1

>  <Energy>  (47) 
50.532818391485165

>  <Genealogy>  (47) 
Clc1cccc(/N=C/c2ccc(Cl)s2)c1 (cis-trans isomerization)
Clc1cccc(/N=C/c2ccc(Cl)s2)c1 (3D coordinates assigned)
Clc1cccc(/N=C/c2ccc(Cl)s2)c1 (optimized conformer: 50.532818391485165 kcal/mol)

>  <smiles>  (47) 
Clc1cccc(N=Cc2ccc(Cl)s2)c1

>  <score_type>  (47) 
oracle

>  <origin>  (47) 
adgpu

>  <m_score__min__energy>  (47) 
-6.2800000000000002

>  <m_primary>  (47) 
energy

$$$$
47:0
     RDKit          3D

 53 56  0  0  0  0  0  0  0  0999 V2000
    2.1400   28.2920  -22.6660 C   0  0  0  0  0  0  0  0  0  0  0  0
    0.7830   28.3080  -23.2410 N   0  0  0  0  0  0  0  0  0  0  0  0
    0.8530   28.6130  -24.6930 C   0  0  0  0  0  0  0  0  0  0  0  0
   -0.4110   28.1730  -25.4380 C   0  0  0  0  0  0  0  0  0  0  0  0
   -0.6300   26.7310  -25.2530 N   0  0  0  0  0  0  0  0  0  0  0  0
   -1.3830   25.9750  -26.2280 C   0  0  0  0  0  0  0  0  0  0  0  0
   -2.6900   25.5420  -25.9460 C   0  0  0  0  0  0  0  0  0  0  0  0
   -3.4120   24.8050  -26.8890 C   0  0  0  0  0  0  0  0  0  0  0  0
   -2.8400   24.4710  -28.1210 C   0  0  0  0  0  0  0  0  0  0  0  0
   -3.6220   23.7090  -29.0540 N   0  0  0  0  0  0  0  0  0  0  0  0
   -4.2190   24.1690  -30.2760 C   0  0  0  0  0  0  0  0  0  0  0  0
   -3.8690   25.2950  -30.7210 O   0  0  0  0  0  0  0  0  0  0  0  0
   -5.2990   23.4150  -30.9680 C   0  0  0  0  0  0  0  0  0  0  0  0
   -6.6250   23.8740  -30.8590 C   0  0  0  0  0  0  0  0  0  0  0  0
   -7.6640   23.2240  -31.5260 C   0  0  0  0  0  0  0  0  0  0  0  0
   -7.3950   22.1170  -32.3290 C   0  0  0  0  0  0  0  0  0  0  0  0
   -6.0870   21.6580  -32.4700 C   0  0  0  0  0  0  0  0  0  0  0  0
   -5.0260   22.2900  -31.7970 C   0  0  0  0  0  0  0  0  0  0  0  0
   -3.6590   21.7440  -31.9800 C   0  0  0  0  0  0  0  0  0  0  0  0
   -2.8690   21.3930  -30.8720 C   0  0  0  0  0  0  0  0  0  0  0  0
   -1.5870   20.8670  -31.0600 C   0  0  0  0  0  0  0  0  0  0  0  0
   -1.0870   20.6790  -32.3510 C   0  0  0  0  0  0  0  0  0  0  0  0
   -1.8710   21.0140  -33.4580 C   0  0  0  0  0  0  0  0  0  0  0  0
   -3.1520   21.5420  -33.2760 C   0  0  0  0  0  0  0  0  0  0  0  0
   -1.5440   24.9280  -28.4230 C   0  0  0  0  0  0  0  0  0  0  0  0
   -0.9900   24.7080  -29.6390 F   0  0  0  0  0  0  0  0  0  0  0  0
   -0.8220   25.6640  -27.4790 C   0  0  0  0  0  0  0  0  0  0  0  0
   -0.0300   26.0690  -24.0880 C   0  0  0  0  0  0  0  0  0  0  0  0
    0.0510   27.0520  -22.9110 C   0  0  0  0  0  0  0  0  0  0  0  0
    2.0730   28.2928  -21.5680 H   0  0  0  0  0  0  0  0  0  0  0  0
    2.6693   27.3876  -23.0004 H   0  0  0  0  0  0  0  0  0  0  0  0
    2.6905   29.1837  -23.0004 H   0  0  0  0  0  0  0  0  0  0  0  0
    0.2720   29.1000  -22.7810 H   0  0  0  0  0  0  0  0  0  0  0  0
    0.9803   29.6980  -24.8214 H   0  0  0  0  0  0  0  0  0  0  0  0
    1.7040   28.0576  -25.1142 H   0  0  0  0  0  0  0  0  0  0  0  0
   -1.2765   28.7260  -25.0442 H   0  0  0  0  0  0  0  0  0  0  0  0
   -0.2887   28.3840  -26.5106 H   0  0  0  0  0  0  0  0  0  0  0  0
   -3.1482   25.7849  -24.9759 H   0  0  0  0  0  0  0  0  0  0  0  0
   -4.4392   24.4848  -26.6602 H   0  0  0  0  0  0  0  0  0  0  0  0
   -6.8451   24.7564  -30.2401 H   0  0  0  0  0  0  0  0  0  0  0  0
   -8.6971   23.5859  -31.4179 H   0  0  0  0  0  0  0  0  0  0  0  0
   -8.2162   21.6051  -32.8520 H   0  0  0  0  0  0  0  0  0  0  0  0
   -5.8818   20.7911  -33.1153 H   0  0  0  0  0  0  0  0  0  0  0  0
   -3.2604   21.5325  -29.8535 H   0  0  0  0  0  0  0  0  0  0  0  0
   -0.9704   20.6005  -30.1889 H   0  0  0  0  0  0  0  0  0  0  0  0
   -0.0771   20.2677  -32.4958 H   0  0  0  0  0  0  0  0  0  0  0  0
   -1.4792   20.8619  -34.4745 H   0  0  0  0  0  0  0  0  0  0  0  0
   -3.7667   21.8008  -34.1507 H   0  0  0  0  0  0  0  0  0  0  0  0
    0.1966   26.0037  -27.7177 H   0  0  0  0  0  0  0  0  0  0  0  0
   -0.6486   25.2061  -23.8004 H   0  0  0  0  0  0  0  0  0  0  0  0
    0.9841   25.7304  -24.3469 H   0  0  0  0  0  0  0  0  0  0  0  0
   -0.9722   27.3145  -22.6043 H   0  0  0  0  0  0  0  0  0  0  0  0
    0.6093   26.5514  -22.1062 H   0  0  0  0  0  0  0  0  0  0  0  0
  1  2  1  0
  2  3  1  0
  3  4  1  0
  4  5  1  0
  5  6  1  0
  6  7  2  0
  7  8  1  0
  8  9  2  0
  9 10  1  0
 10 11  1  0
 11 12  2  0
 11 13  1  0
 13 14  2  0
 14 15  1  0
 15 16  2  0
 16 17  1  0
 17 18  2  0
 18 19  1  0
 19 20  2  0
 20 21  1  0
 21 22  2  0
 22 23  1  0
 23 24  2  0
  9 25  1  0
 25 26  1  0
 25 27  2  0
  5 28  1  0
 28 29  1  0
 29  2  1  0
 27  6  1  0
 18 13  1  0
 24 19  1  0
  1 30  1  0
  1 31  1  0
  1 32  1  0
  2 33  1  0
  3 34  1  0
  3 35  1  0
  4 36  1  0
  4 37  1  0
  7 38  1  0
  8 39  1  0
 14 40  1  0
 15 41  1  0
 16 42  1  0
 17 43  1  0
 20 44  1  0
 21 45  1  0
 22 46  1  0
 23 47  1  0
 24 48  1  0
 27 49  1  0
 28 50  1  0
 28 51  1  0
 29 52  1  0
 29 53  1  0
M  CHG  2   2   1  10  -1
M  END
>  <UniqueID>  (48) 
46

>  <SMILES>  (48) 
C[NH+]1CCN(c2ccc([N-]C(=O)c3ccccc3-c3ccccc3)c(F)c2)CC1

>  <Energy>  (48) 
83.34496723681924

>  <Genealogy>  (48) 
C[NH+]1CCN(c2ccc([N-]C(=O)c3ccccc3-c3ccccc3)c(F)c2)CC1 (protonated)
C[NH+]1CCN(c2ccc([N-]C(=O)c3ccccc3-c3ccccc3)c(F)c2)CC1 (3D coordinates assigned)
C[NH+]1CCN(c2ccc([N-]C(=O)c3ccccc3-c3ccccc3)c(F)c2)CC1 (nonaromatic ring conformer: 83.34496723681924 kcal/mol)

>  <smiles>  (48) 
CN1CCN(c2ccc(NC(=O)c3ccccc3-c3ccccc3)c(F)c2)CC1

>  <score_type>  (48) 
oracle

>  <origin>  (48) 
adgpu

>  <m_score__min__energy>  (48) 
-11.02

>  <m_primary>  (48) 
energy

$$$$
48:0
     RDKit          3D

 40 42  0  0  0  0  0  0  0  0999 V2000
   -1.1110   26.4590  -26.7060 C   0  0  0  0  0  0  0  0  0  0  0  0
   -0.8530   25.7630  -28.0000 C   0  0  0  0  0  0  0  0  0  0  0  0
    0.2530   25.1900  -28.1860 O   0  0  0  0  0  0  0  0  0  0  0  0
   -1.9060   25.6630  -28.9670 N   0  0  0  0  0  0  0  0  0  0  0  0
   -2.7250   24.5120  -29.2220 C   0  0  0  0  0  0  0  0  0  0  0  0
   -4.0580   24.5300  -28.7940 C   0  0  0  0  0  0  0  0  0  0  0  0
   -4.8970   23.4410  -29.0480 C   0  0  0  0  0  0  0  0  0  0  0  0
   -4.4110   22.3270  -29.7350 C   0  0  0  0  0  0  0  0  0  0  0  0
   -3.0800   22.2900  -30.1610 C   0  0  0  0  0  0  0  0  0  0  0  0
   -2.6040   21.1410  -30.8700 N   0  0  0  0  0  0  0  0  0  0  0  0
   -2.1780   21.1270  -32.2390 C   0  0  0  0  0  0  0  0  0  0  0  0
   -0.9920   20.7920  -32.5010 O   0  0  0  0  0  0  0  0  0  0  0  0
   -3.0830   21.5540  -33.3680 C   0  0  0  0  0  0  0  0  0  0  0  0
   -4.4780   21.1400  -33.1290 N   0  0  0  0  0  0  0  0  0  0  0  0
   -4.8410   19.8440  -33.3800 C   0  0  0  0  0  0  0  0  0  0  0  0
   -6.1370   19.3980  -33.1290 C   0  0  0  0  0  0  0  0  0  0  0  0
   -7.0900   20.2890  -32.6330 C   0  0  0  0  0  0  0  0  0  0  0  0
   -8.3990   19.8570  -32.3660 C   0  0  0  0  0  0  0  0  0  0  0  0
   -9.3470   20.7580  -31.8770 C   0  0  0  0  0  0  0  0  0  0  0  0
   -8.9990   22.0910  -31.6520 C   0  0  0  0  0  0  0  0  0  0  0  0
   -7.6990   22.5320  -31.9130 C   0  0  0  0  0  0  0  0  0  0  0  0
   -6.7300   21.6360  -32.4040 C   0  0  0  0  0  0  0  0  0  0  0  0
   -5.4070   22.0460  -32.6710 C   0  0  0  0  0  0  0  0  0  0  0  0
   -5.0760   23.2520  -32.4860 O   0  0  0  0  0  0  0  0  0  0  0  0
   -2.2470   23.3970  -29.9350 C   0  0  0  0  0  0  0  0  0  0  0  0
   -0.8617   25.7866  -25.8719 H   0  0  0  0  0  0  0  0  0  0  0  0
   -0.4886   27.3640  -26.6460 H   0  0  0  0  0  0  0  0  0  0  0  0
   -2.1729   26.7396  -26.6460 H   0  0  0  0  0  0  0  0  0  0  0  0
   -4.4474   25.4061  -28.2547 H   0  0  0  0  0  0  0  0  0  0  0  0
   -5.9422   23.4619  -28.7059 H   0  0  0  0  0  0  0  0  0  0  0  0
   -5.0770   21.4763  -29.9416 H   0  0  0  0  0  0  0  0  0  0  0  0
   -3.0462   22.6495  -33.4607 H   0  0  0  0  0  0  0  0  0  0  0  0
   -2.7332   21.0707  -34.2921 H   0  0  0  0  0  0  0  0  0  0  0  0
   -4.0971   19.1431  -33.7866 H   0  0  0  0  0  0  0  0  0  0  0  0
   -6.4076   18.3492  -33.3208 H   0  0  0  0  0  0  0  0  0  0  0  0
   -8.6780   18.8077  -32.5422 H   0  0  0  0  0  0  0  0  0  0  0  0
  -10.3715   20.4162  -31.6684 H   0  0  0  0  0  0  0  0  0  0  0  0
   -9.7505   22.7965  -31.2680 H   0  0  0  0  0  0  0  0  0  0  0  0
   -7.4314   23.5838  -31.7341 H   0  0  0  0  0  0  0  0  0  0  0  0
   -1.2155   23.3928  -30.3171 H   0  0  0  0  0  0  0  0  0  0  0  0
  1  2  1  0
  2  3  2  0
  2  4  1  0
  4  5  1  0
  5  6  2  0
  6  7  1  0
  7  8  2  0
  8  9  1  0
  9 10  1  0
 10 11  1  0
 11 12  2  0
 11 13  1  0
 13 14  1  0
 14 15  1  0
 15 16  2  0
 16 17  1  0
 17 18  2  0
 18 19  1  0
 19 20  2  0
 20 21  1  0
 21 22  2  0
 22 23  1  0
 23 24  2  0
  9 25  2  0
 25  5  1  0
 23 14  1  0
 22 17  1  0
  1 26  1  0
  1 27  1  0
  1 28  1  0
  6 29  1  0
  7 30  1  0
  8 31  1  0
 13 32  1  0
 13 33  1  0
 15 34  1  0
 16 35  1  0
 18 36  1  0
 19 37  1  0
 20 38  1  0
 21 39  1  0
 25 40  1  0
M  CHG  2   4  -1  10  -1
M  END
>  <UniqueID>  (49) 
47

>  <SMILES>  (49) 
CC(=O)[N-]c1cccc([N-]C(=O)Cn2ccc3ccccc3c2=O)c1

>  <Energy>  (49) 
53.463822239642774

>  <Genealogy>  (49) 
CC(=O)[N-]c1cccc([N-]C(=O)Cn2ccc3ccccc3c2=O)c1 (protonated)
CC(=O)[N-]c1cccc([N-]C(=O)Cn2ccc3ccccc3c2=O)c1 (3D coordinates assigned)
CC(=O)[N-]c1cccc([N-]C(=O)Cn2ccc3ccccc3c2=O)c1 (optimized conformer: 53.463822239642774 kcal/mol)

>  <smiles>  (49) 
CC(=O)Nc1cccc(NC(=O)Cn2ccc3ccccc3c2=O)c1

>  <score_type>  (49) 
oracle

>  <origin>  (49) 
adgpu

>  <m_score__min__energy>  (49) 
-10.539999999999999

>  <m_primary>  (49) 
energy

$$$$
49:0
     RDKit          3D

 28 29  0  0  0  0  0  0  0  0999 V2000
   -3.8550   25.3010  -30.0860 N   0  0  0  0  0  0  0  0  0  0  0  0
   -4.9080   24.4930  -30.6170 C   0  0  0  0  0  0  0  0  0  0  0  0
   -4.6110   23.3780  -31.4110 C   0  0  0  0  0  0  0  0  0  0  0  0
   -5.6400   22.5880  -31.9310 C   0  0  0  0  0  0  0  0  0  0  0  0
   -6.9850   22.9040  -31.6590 C   0  0  0  0  0  0  0  0  0  0  0  0
   -8.0580   22.1430  -32.1510 O   0  0  0  0  0  0  0  0  0  0  0  0
   -8.4400   20.8510  -31.6760 C   0  0  0  0  0  0  0  0  0  0  0  0
   -7.6840   19.7690  -32.4000 C   0  0  0  0  0  0  0  0  0  0  0  0
   -7.8690   18.4220  -32.0440 C   0  0  0  0  0  0  0  0  0  0  0  0
   -7.1770   17.4130  -32.7220 C   0  0  0  0  0  0  0  0  0  0  0  0
   -6.3050   17.7400  -33.7650 C   0  0  0  0  0  0  0  0  0  0  0  0
   -6.1270   19.0770  -34.1340 C   0  0  0  0  0  0  0  0  0  0  0  0
   -6.8170   20.0890  -33.4590 C   0  0  0  0  0  0  0  0  0  0  0  0
   -7.2760   24.0220  -30.8680 C   0  0  0  0  0  0  0  0  0  0  0  0
   -6.2470   24.8130  -30.3490 C   0  0  0  0  0  0  0  0  0  0  0  0
   -3.1040   25.6770  -30.7080 H   0  0  0  0  0  0  0  0  0  0  0  0
   -3.8180   25.5290  -29.0680 H   0  0  0  0  0  0  0  0  0  0  0  0
   -3.5629   23.1229  -31.6263 H   0  0  0  0  0  0  0  0  0  0  0  0
   -5.3981   21.7154  -32.5556 H   0  0  0  0  0  0  0  0  0  0  0  0
   -8.2229   20.7840  -30.5997 H   0  0  0  0  0  0  0  0  0  0  0  0
   -9.5157   20.7122  -31.8596 H   0  0  0  0  0  0  0  0  0  0  0  0
   -8.5603   18.1603  -31.2294 H   0  0  0  0  0  0  0  0  0  0  0  0
   -7.3190   16.3608  -32.4343 H   0  0  0  0  0  0  0  0  0  0  0  0
   -5.7591   16.9457  -34.2951 H   0  0  0  0  0  0  0  0  0  0  0  0
   -5.4431   19.3332  -34.9566 H   0  0  0  0  0  0  0  0  0  0  0  0
   -6.6807   21.1388  -33.7578 H   0  0  0  0  0  0  0  0  0  0  0  0
   -8.3235   24.2801  -30.6531 H   0  0  0  0  0  0  0  0  0  0  0  0
   -6.4881   25.6888  -29.7287 H   0  0  0  0  0  0  0  0  0  0  0  0
  1  2  1  0
  2  3  2  0
  3  4  1  0
  4  5  2  0
  5  6  1  0
  6  7  1  0
  7  8  1  0
  8  9  2  0
  9 10  1  0
 10 11  2  0
 11 12  1  0
 12 13  2  0
  5 14  1  0
 14 15  2  0
 15  2  1  0
 13  8  1  0
  1 16  1  0
  1 17  1  0
  3 18  1  0
  4 19  1  0
  7 20  1  0
  7 21  1  0
  9 22  1  0
 10 23  1  0
 11 24  1  0
 12 25  1  0
 13 26  1  0
 14 27  1  0
 15 28  1  0
M  END
>  <UniqueID>  (50) 
48

>  <SMILES>  (50) 
Nc1ccc(OCc2ccccc2)cc1

>  <Energy>  (50) 
27.356145926566867

>  <Genealogy>  (50) 
Nc1ccc(OCc2ccccc2)cc1 (3D coordinates assigned)
Nc1ccc(OCc2ccccc2)cc1 (optimized conformer: 27.356145926566867 kcal/mol)

>  <smiles>  (50) 
Nc1ccc(OCc2ccccc2)cc1

>  <score_type>  (50) 
oracle

>  <origin>  (50) 
adgpu

>  <m_score__min__energy>  (50) 
-7.0700000000000003

>  <m_primary>  (50) 
energy

$$$$
