0:0
     RDKit          3D

 43 47  0  0  0  0  0  0  0  0999 V2000
   -2.4680   26.3090  -28.8830 H   0  0  0  0  0  0  0  0  0  0  0  0
   -2.3590   25.2930  -29.1010 N   0  0  0  0  0  0  0  0  0  0  0  0
   -3.2150   24.6660  -29.8400 C   0  0  0  0  0  0  0  0  0  0  0  0
   -4.2800   25.3330  -30.3740 N   0  0  0  0  0  0  0  0  0  0  0  0
   -5.1770   24.7160  -31.1970 C   0  0  0  0  0  0  0  0  0  0  0  0
   -6.0379   25.2738  -31.5942 H   0  0  0  0  0  0  0  0  0  0  0  0
   -4.9950   23.3680  -31.5330 C   0  0  0  0  0  0  0  0  0  0  0  0
   -5.7025   22.8482  -32.1958 H   0  0  0  0  0  0  0  0  0  0  0  0
   -3.9160   22.7220  -31.0140 N   0  0  0  0  0  0  0  0  0  0  0  0
   -3.4820   21.4520  -31.1660 C   0  0  0  0  0  0  0  0  0  0  0  0
   -4.0910   20.4350  -32.0480 C   0  0  0  0  0  0  0  0  0  0  0  0
   -5.4360   20.0560  -31.8960 C   0  0  0  0  0  0  0  0  0  0  0  0
   -6.0446   20.5044  -31.0969 H   0  0  0  0  0  0  0  0  0  0  0  0
   -6.0030   19.1120  -32.7560 C   0  0  0  0  0  0  0  0  0  0  0  0
   -7.0503   18.8064  -32.6155 H   0  0  0  0  0  0  0  0  0  0  0  0
   -5.2510   18.5520  -33.7940 C   0  0  0  0  0  0  0  0  0  0  0  0
   -5.8540   17.5960  -34.6240 O   0  0  0  0  0  0  0  0  0  0  0  0
   -5.6960   16.2080  -34.5050 C   0  0  0  0  0  0  0  0  0  0  0  0
   -6.8310   15.4200  -34.2740 C   0  0  0  0  0  0  0  0  0  0  0  0
   -7.8185   15.8964  -34.1850 H   0  0  0  0  0  0  0  0  0  0  0  0
   -6.7160   14.0320  -34.1560 C   0  0  0  0  0  0  0  0  0  0  0  0
   -7.6100   13.4206  -33.9639 H   0  0  0  0  0  0  0  0  0  0  0  0
   -5.4660   13.4210  -34.2820 C   0  0  0  0  0  0  0  0  0  0  0  0
   -5.3753   12.3294  -34.1811 H   0  0  0  0  0  0  0  0  0  0  0  0
   -4.3310   14.1950  -34.5360 C   0  0  0  0  0  0  0  0  0  0  0  0
   -3.3490   13.7109  -34.6426 H   0  0  0  0  0  0  0  0  0  0  0  0
   -4.4410   15.5850  -34.6550 C   0  0  0  0  0  0  0  0  0  0  0  0
   -3.3370   16.3120  -34.9600 F   0  0  0  0  0  0  0  0  0  0  0  0
   -3.9060   18.9320  -33.9490 C   0  0  0  0  0  0  0  0  0  0  0  0
   -3.2989   18.4825  -34.7486 H   0  0  0  0  0  0  0  0  0  0  0  0
   -3.3370   19.8780  -33.0920 C   0  0  0  0  0  0  0  0  0  0  0  0
   -2.2915   20.1878  -33.2368 H   0  0  0  0  0  0  0  0  0  0  0  0
   -2.3900   21.1960  -30.4090 N   0  0  0  0  0  0  0  0  0  0  0  0
   -2.1270   22.3560  -29.7660 C   0  0  0  0  0  0  0  0  0  0  0  0
   -1.0340   22.4830  -28.7890 C   0  0  0  0  0  0  0  0  0  0  0  0
   -0.0530   23.4540  -28.7820 C   0  0  0  0  0  0  0  0  0  0  0  0
   -0.0087   24.3195  -29.4594 H   0  0  0  0  0  0  0  0  0  0  0  0
    0.8420   23.1740  -27.8140 N   0  0  0  0  0  0  0  0  0  0  0  0
    0.4610   22.0510  -27.2250 N   0  0  0  0  0  0  0  0  0  0  0  0
    0.9860   21.5880  -26.4510 H   0  0  0  0  0  0  0  0  0  0  0  0
   -0.6650   21.5940  -27.8000 C   0  0  0  0  0  0  0  0  0  0  0  0
   -1.1995   20.6715  -27.5292 H   0  0  0  0  0  0  0  0  0  0  0  0
   -3.0660   23.3060  -30.1520 C   0  0  0  0  0  0  0  0  0  0  0  0
  1  2  1  0
  2  3  2  0
  3  4  1  0
  4  5  1  0
  5  6  1  0
  5  7  2  0
  7  8  1  0
  7  9  1  0
  9 10  1  0
 10 11  1  0
 11 12  2  0
 12 13  1  0
 12 14  1  0
 14 15  1  0
 14 16  2  0
 16 17  1  0
 17 18  1  0
 18 19  2  0
 19 20  1  0
 19 21  1  0
 21 22  1  0
 21 23  2  0
 23 24  1  0
 23 25  1  0
 25 26  1  0
 25 27  2  0
 27 28  1  0
 16 29  1  0
 29 30  1  0
 29 31  2  0
 31 32  1  0
 10 33  2  0
 33 34  1  0
 34 35  1  0
 35 36  1  0
 36 37  1  0
 36 38  2  0
 38 39  1  0
 39 40  1  0
 39 41  1  0
 41 42  1  0
 34 43  2  0
 43  3  1  0
 43  9  1  0
 31 11  1  0
 41 35  2  0
 27 18  1  0
M  CHG  1   4  -1
M  END
>  <UniqueID>  (1) 
1

>  <SMILES>  (1) 
[H]/N=c1\[n-]ccn2c(-c3ccc(Oc4ccccc4F)cc3)nc(-c3cn[nH]c3)c12

>  <Energy>  (1) 
135.8623064236234

>  <Genealogy>  (1) 
N=c1[n-]ccn2c(-c3ccc(Oc4ccccc4F)cc3)nc(-c3cn[nH]c3)c12 (protonated)
[H]/N=c1\[n-]ccn2c(-c3ccc(Oc4ccccc4F)cc3)nc(-c3cn[nH]c3)c12 (cis-trans isomerization)
[H]/N=c1\[n-]ccn2c(-c3ccc(Oc4ccccc4F)cc3)nc(-c3cn[nH]c3)c12 (3D coordinates assigned)
[H]/N=c1\[n-]ccn2c(-c3ccc(Oc4ccccc4F)cc3)nc(-c3cn[nH]c3)c12 (optimized conformer: 135.8623064236234 kcal/mol)

>  <smiles>  (1) 
N=c1[nH]ccn2c(-c3ccc(Oc4ccccc4F)cc3)nc(-c3cn[nH]c3)c12

>  <score_type>  (1) 
oracle

>  <origin>  (1) 
adgpu

>  <m_score__min__energy>  (1) 
-9.1999999999999993

>  <m_primary>  (1) 
energy

$$$$
1:0
     RDKit          3D

 53 56  0  0  1  0  0  0  0  0999 V2000
   -6.9110   17.6610  -31.6130 C   0  0  0  0  0  0  0  0  0  0  0  0
   -6.8120   18.7750  -32.5520 N   0  0  0  0  0  0  0  0  0  0  0  0
   -6.2880   18.5170  -33.8610 C   0  0  0  0  0  0  0  0  0  0  0  0
   -4.8060   18.5540  -33.9330 C   0  0  0  0  0  0  0  0  0  0  0  0
   -4.1470   19.6650  -33.4580 C   0  0  0  0  0  0  0  0  0  0  0  0
   -2.7530   19.7770  -33.4950 C   0  0  0  0  0  0  0  0  0  0  0  0
   -2.0140   18.7480  -34.0210 C   0  0  0  0  0  0  0  0  0  0  0  0
   -2.6490   17.6300  -34.5020 C   0  0  0  0  0  0  0  0  0  0  0  0
   -4.0400   17.5370  -34.4560 C   0  0  0  0  0  0  0  0  0  0  0  0
   -7.2460   20.0370  -32.0820 C   0  0  0  0  0  0  0  0  0  0  0  0
   -8.5990   20.2980  -32.0220 C   0  0  0  0  0  0  0  0  0  0  0  0
   -9.0960   21.5250  -31.5690 C   0  0  0  0  0  0  0  0  0  0  0  0
   -8.1900   22.4870  -31.1750 C   0  0  0  0  0  0  0  0  0  0  0  0
   -6.8370   22.2710  -31.2190 C   0  0  0  0  0  0  0  0  0  0  0  0
   -5.8640   23.2780  -30.8070 C   0  0  0  0  0  0  0  0  0  0  0  0
   -4.6040   22.9800  -30.3890 C   0  0  0  0  0  0  0  0  0  0  0  0
   -3.7240   23.9780  -30.0110 C   0  0  0  0  0  0  0  0  0  0  0  0
   -2.5260   23.7260  -29.6110 N   0  0  0  0  0  0  0  0  0  0  0  0
   -2.0290   22.3960  -29.5310 C   0  0  0  0  0  0  0  0  0  0  0  0
   -2.3780   21.6680  -28.3930 C   0  0  0  0  0  0  0  0  0  0  0  0
   -1.9360   20.3600  -28.2320 C   0  0  0  0  0  0  0  0  0  0  0  0
   -1.1440   19.7820  -29.2120 C   0  0  0  0  0  0  0  0  0  0  0  0
   -0.8080   20.5280  -30.3400 C   0  0  0  0  0  0  0  0  0  0  0  0
    0.0460   19.8330  -31.3460 C   0  0  0  0  0  0  0  0  0  0  0  0
   -0.4180   18.5760  -31.6330 F   0  0  0  0  0  0  0  0  0  0  0  0
    1.3580   19.7290  -30.8980 F   0  0  0  0  0  0  0  0  0  0  0  0
    0.0310   20.6230  -32.4910 F   0  0  0  0  0  0  0  0  0  0  0  0
   -1.2420   21.8230  -30.5080 C   0  0  0  0  0  0  0  0  0  0  0  0
   -4.1040   25.2740  -30.0520 N   0  0  0  0  0  0  0  0  0  0  0  0
   -5.3470   25.5690  -30.4650 C   0  0  0  0  0  0  0  0  0  0  0  0
   -6.2060   24.5970  -30.8340 N   0  0  0  0  0  0  0  0  0  0  0  0
   -6.4000   21.0450  -31.6740 C   0  0  0  0  0  0  0  0  0  0  0  0
   -6.8768   18.0455  -30.5830 H   0  0  0  0  0  0  0  0  0  0  0  0
   -7.8600   17.1287  -31.7744 H   0  0  0  0  0  0  0  0  0  0  0  0
   -6.0708   16.9697  -31.7744 H   0  0  0  0  0  0  0  0  0  0  0  0
   -6.6255   17.5195  -34.1789 H   0  0  0  0  0  0  0  0  0  0  0  0
   -6.6599   19.3174  -34.5175 H   0  0  0  0  0  0  0  0  0  0  0  0
   -4.7359   20.4923  -33.0353 H   0  0  0  0  0  0  0  0  0  0  0  0
   -2.2560   20.6785  -33.1073 H   0  0  0  0  0  0  0  0  0  0  0  0
   -0.9169   18.8184  -34.0572 H   0  0  0  0  0  0  0  0  0  0  0  0
   -2.0585   16.8042  -34.9254 H   0  0  0  0  0  0  0  0  0  0  0  0
   -4.5339   16.6343  -34.8448 H   0  0  0  0  0  0  0  0  0  0  0  0
   -9.3078   19.5190  -32.3395 H   0  0  0  0  0  0  0  0  0  0  0  0
  -10.1784   21.7167  -31.5283 H   0  0  0  0  0  0  0  0  0  0  0  0
   -8.5641   23.4566  -30.8146 H   0  0  0  0  0  0  0  0  0  0  0  0
   -4.2802   21.9294  -30.3511 H   0  0  0  0  0  0  0  0  0  0  0  0
   -3.0066   22.1319  -27.6187 H   0  0  0  0  0  0  0  0  0  0  0  0
   -2.2125   19.7880  -27.3340 H   0  0  0  0  0  0  0  0  0  0  0  0
   -0.7855   18.7480  -29.1007 H   0  0  0  0  0  0  0  0  0  0  0  0
   -0.9655   22.3924  -31.4076 H   0  0  0  0  0  0  0  0  0  0  0  0
   -3.4840   26.0520  -29.7800 H   0  0  0  0  0  0  0  0  0  0  0  0
   -5.6698   26.6199  -30.5030 H   0  0  0  0  0  0  0  0  0  0  0  0
   -5.3161   20.8616  -31.7134 H   0  0  0  0  0  0  0  0  0  0  0  0
  1  2  1  0
  2  3  1  0
  3  4  1  0
  4  5  2  0
  5  6  1  0
  6  7  2  0
  7  8  1  0
  8  9  2  0
  2 10  1  0
 10 11  2  0
 11 12  1  0
 12 13  2  0
 13 14  1  0
 14 15  1  0
 15 16  2  0
 16 17  1  0
 17 18  2  0
 18 19  1  0
 19 20  2  0
 20 21  1  0
 21 22  2  0
 22 23  1  0
 23 24  1  0
 24 25  1  0
 24 26  1  0
 24 27  1  0
 23 28  2  0
 17 29  1  0
 29 30  1  0
 30 31  2  0
 14 32  2  0
  9  4  1  0
 32 10  1  0
 31 15  1  0
 28 19  1  0
  1 33  1  0
  1 34  1  0
  1 35  1  0
  3 36  1  0
  3 37  1  0
  5 38  1  0
  6 39  1  0
  7 40  1  0
  8 41  1  0
  9 42  1  0
 11 43  1  0
 12 44  1  0
 13 45  1  0
 16 46  1  0
 20 47  1  0
 21 48  1  0
 22 49  1  0
 28 50  1  0
 29 51  1  0
 30 52  1  0
 32 53  1  0
M  END
>  <smiles>  (2) 
CN(Cc1ccccc1)c1cccc(-c2cc(=Nc3cccc(C(F)(F)F)c3)[nH]cn2)c1

>  <score_type>  (2) 
oracle

>  <origin>  (2) 
adgpu

>  <m_score__min__energy>  (2) 
-9.9800000000000004

>  <m_primary>  (2) 
energy

$$$$
2:0
     RDKit          3D

 42 44  0  0  0  0  0  0  0  0999 V2000
    0.1740   26.0820  -27.0170 C   0  0  0  0  0  0  0  0  0  0  0  0
   -0.8040   25.2970  -27.8250 C   0  0  0  0  0  0  0  0  0  0  0  0
   -2.1320   25.1030  -27.5160 C   0  0  0  0  0  0  0  0  0  0  0  0
   -2.6460   24.2860  -28.4490 N   0  0  0  0  0  0  0  0  0  0  0  0
   -4.0010   23.7440  -28.4870 C   0  0  0  0  0  0  0  0  0  0  0  0
   -4.8630   24.5480  -29.4720 C   0  0  0  0  0  0  0  0  0  0  0  0
   -4.5550   24.2340  -30.8770 N   0  0  0  0  0  0  0  0  0  0  0  0
   -5.7430   24.3040  -31.7460 C   0  0  0  0  0  0  0  0  0  0  0  0
   -6.5130   22.9950  -31.7310 C   0  0  0  0  0  0  0  0  0  0  0  0
   -7.8970   22.9970  -31.4740 C   0  0  0  0  0  0  0  0  0  0  0  0
   -8.6290   21.8110  -31.5140 C   0  0  0  0  0  0  0  0  0  0  0  0
   -7.9770   20.6120  -31.8020 C   0  0  0  0  0  0  0  0  0  0  0  0
   -8.7360   19.3250  -31.8400 C   0  0  0  0  0  0  0  0  0  0  0  0
   -6.6310   20.6080  -31.9870 N   0  0  0  0  0  0  0  0  0  0  0  0
   -5.8780   21.7410  -31.9390 C   0  0  0  0  0  0  0  0  0  0  0  0
   -4.4150   21.5930  -32.0930 C   0  0  0  0  0  0  0  0  0  0  0  0
   -3.7880   21.5430  -33.3490 C   0  0  0  0  0  0  0  0  0  0  0  0
   -2.4180   21.3390  -33.2800 C   0  0  0  0  0  0  0  0  0  0  0  0
   -1.9930   21.1920  -31.6610 S   0  0  0  0  0  0  0  0  0  0  0  0
   -3.5370   21.3920  -31.0300 C   0  0  0  0  0  0  0  0  0  0  0  0
   -1.6280   23.9800  -29.2780 C   0  0  0  0  0  0  0  0  0  0  0  0
   -0.4740   24.5830  -28.9220 N   0  0  0  0  0  0  0  0  0  0  0  0
   -0.0237   25.9233  -25.9466 H   0  0  0  0  0  0  0  0  0  0  0  0
    1.1956   25.7503  -27.2543 H   0  0  0  0  0  0  0  0  0  0  0  0
    0.0712   27.1512  -27.2543 H   0  0  0  0  0  0  0  0  0  0  0  0
   -2.6721   25.5375  -26.6619 H   0  0  0  0  0  0  0  0  0  0  0  0
   -3.9637   22.6931  -28.8099 H   0  0  0  0  0  0  0  0  0  0  0  0
   -4.4442   23.8111  -27.4825 H   0  0  0  0  0  0  0  0  0  0  0  0
   -5.9220   24.3181  -29.2831 H   0  0  0  0  0  0  0  0  0  0  0  0
   -4.6461   25.6145  -29.3126 H   0  0  0  0  0  0  0  0  0  0  0  0
   -3.8410   24.9190  -31.2180 H   0  0  0  0  0  0  0  0  0  0  0  0
   -6.4005   25.1110  -31.3904 H   0  0  0  0  0  0  0  0  0  0  0  0
   -5.4099   24.5001  -32.7758 H   0  0  0  0  0  0  0  0  0  0  0  0
   -8.4060   23.9435  -31.2393 H   0  0  0  0  0  0  0  0  0  0  0  0
   -9.7117   21.8208  -31.3200 H   0  0  0  0  0  0  0  0  0  0  0  0
   -8.9356   18.9866  -30.8126 H   0  0  0  0  0  0  0  0  0  0  0  0
   -9.6891   19.4769  -32.3677 H   0  0  0  0  0  0  0  0  0  0  0  0
   -8.1419   18.5644  -32.3677 H   0  0  0  0  0  0  0  0  0  0  0  0
   -4.3325   21.6551  -34.2982 H   0  0  0  0  0  0  0  0  0  0  0  0
   -1.7295   21.2832  -34.1361 H   0  0  0  0  0  0  0  0  0  0  0  0
   -3.8075   21.3684  -29.9640 H   0  0  0  0  0  0  0  0  0  0  0  0
   -1.7267   23.3134  -30.1474 H   0  0  0  0  0  0  0  0  0  0  0  0
  1  2  1  0
  2  3  2  0
  3  4  1  0
  4  5  1  0
  5  6  1  0
  6  7  1  0
  7  8  1  0
  8  9  1  0
  9 10  2  0
 10 11  1  0
 11 12  2  0
 12 13  1  0
 12 14  1  0
 14 15  2  0
 15 16  1  0
 16 17  1  0
 17 18  2  0
 18 19  1  0
 19 20  1  0
  4 21  1  0
 21 22  2  0
 22  2  1  0
 15  9  1  0
 20 16  2  0
  1 23  1  0
  1 24  1  0
  1 25  1  0
  3 26  1  0
  5 27  1  0
  5 28  1  0
  6 29  1  0
  6 30  1  0
  7 31  1  0
  8 32  1  0
  8 33  1  0
 10 34  1  0
 11 35  1  0
 13 36  1  0
 13 37  1  0
 13 38  1  0
 17 39  1  0
 18 40  1  0
 20 41  1  0
 21 42  1  0
M  END
>  <UniqueID>  (3) 
2

>  <SMILES>  (3) 
Cc1cn(CCNCc2ccc(C)nc2-c2ccsc2)cn1

>  <Energy>  (3) 
102.5336416113394

>  <Genealogy>  (3) 
Cc1cn(CCNCc2ccc(C)nc2-c2ccsc2)cn1 (3D coordinates assigned)
Cc1cn(CCNCc2ccc(C)nc2-c2ccsc2)cn1 (optimized conformer: 102.5336416113394 kcal/mol)

>  <smiles>  (3) 
Cc1cn(CCNCc2ccc(C)nc2-c2ccsc2)cn1

>  <score_type>  (3) 
oracle

>  <origin>  (3) 
adgpu

>  <m_score__min__energy>  (3) 
-8.0399999999999991

>  <m_primary>  (3) 
energy

$$$$
3:0
     RDKit          3D

 38 39  0  0  0  0  0  0  0  0999 V2000
   -1.1790   24.6500  -29.0040 C   0  0  0  0  0  0  0  0  0  0  0  0
   -2.4450   25.2950  -29.3260 N   0  0  0  0  0  0  0  0  0  0  0  0
   -3.4730   24.7170  -30.1410 C   0  0  0  0  0  0  0  0  0  0  0  0
   -4.2980   25.4810  -30.7080 O   0  0  0  0  0  0  0  0  0  0  0  0
   -3.5720   23.2600  -30.3650 C   0  0  0  0  0  0  0  0  0  0  0  0
   -4.2930   22.7750  -31.4650 C   0  0  0  0  0  0  0  0  0  0  0  0
   -4.4030   21.3950  -31.6910 C   0  0  0  0  0  0  0  0  0  0  0  0
   -5.1400   20.8890  -32.9010 C   0  0  0  0  0  0  0  0  0  0  0  0
   -6.5270   20.5800  -32.5560 N   0  0  0  0  0  0  0  0  0  0  0  0
   -6.9640   19.3470  -32.3540 N   0  0  0  0  0  0  0  0  0  0  0  0
   -8.2580   19.4330  -31.9860 C   0  0  0  0  0  0  0  0  0  0  0  0
   -9.0890   18.2600  -31.5890 C   0  0  0  0  0  0  0  0  0  0  0  0
   -8.6470   20.7580  -31.9190 C   0  0  0  0  0  0  0  0  0  0  0  0
   -7.5220   21.4590  -32.3020 C   0  0  0  0  0  0  0  0  0  0  0  0
   -7.3920   22.9510  -32.3100 C   0  0  0  0  0  0  0  0  0  0  0  0
   -3.7940   20.4990  -30.8000 C   0  0  0  0  0  0  0  0  0  0  0  0
   -3.0910   20.9680  -29.6840 C   0  0  0  0  0  0  0  0  0  0  0  0
   -2.5120   20.0260  -28.8200 O   0  0  0  0  0  0  0  0  0  0  0  0
   -2.6730   20.0270  -27.4050 C   0  0  0  0  0  0  0  0  0  0  0  0
   -2.9900   22.3550  -29.4660 C   0  0  0  0  0  0  0  0  0  0  0  0
   -1.0646   24.5917  -27.9115 H   0  0  0  0  0  0  0  0  0  0  0  0
   -1.1660   23.6354  -29.4287 H   0  0  0  0  0  0  0  0  0  0  0  0
   -0.3505   25.2359  -29.4287 H   0  0  0  0  0  0  0  0  0  0  0  0
   -4.7760   23.4817  -32.1559 H   0  0  0  0  0  0  0  0  0  0  0  0
   -5.1240   21.6605  -33.6849 H   0  0  0  0  0  0  0  0  0  0  0  0
   -4.6484   19.9742  -33.2636 H   0  0  0  0  0  0  0  0  0  0  0  0
   -9.1337   18.1969  -30.4917 H   0  0  0  0  0  0  0  0  0  0  0  0
  -10.1060   18.3782  -31.9912 H   0  0  0  0  0  0  0  0  0  0  0  0
   -8.6402   17.3398  -31.9912 H   0  0  0  0  0  0  0  0  0  0  0  0
   -9.6281   21.1609  -31.6273 H   0  0  0  0  0  0  0  0  0  0  0  0
   -7.3597   23.3218  -31.2749 H   0  0  0  0  0  0  0  0  0  0  0  0
   -6.4657   23.2356  -32.8305 H   0  0  0  0  0  0  0  0  0  0  0  0
   -8.2552   23.3915  -32.8305 H   0  0  0  0  0  0  0  0  0  0  0  0
   -3.8696   19.4165  -30.9801 H   0  0  0  0  0  0  0  0  0  0  0  0
   -1.6840   20.0208  -26.9234 H   0  0  0  0  0  0  0  0  0  0  0  0
   -3.2241   20.9286  -27.0993 H   0  0  0  0  0  0  0  0  0  0  0  0
   -3.2352   19.1323  -27.0993 H   0  0  0  0  0  0  0  0  0  0  0  0
   -2.4507   22.7315  -28.5843 H   0  0  0  0  0  0  0  0  0  0  0  0
  1  2  1  0
  2  3  1  0
  3  4  2  0
  3  5  1  0
  5  6  2  0
  6  7  1  0
  7  8  1  0
  8  9  1  0
  9 10  1  0
 10 11  2  0
 11 12  1  0
 11 13  1  0
 13 14  2  0
 14 15  1  0
  7 16  2  0
 16 17  1  0
 17 18  1  0
 18 19  1  0
 17 20  2  0
 20  5  1  0
 14  9  1  0
  1 21  1  0
  1 22  1  0
  1 23  1  0
  6 24  1  0
  8 25  1  0
  8 26  1  0
 12 27  1  0
 12 28  1  0
 12 29  1  0
 13 30  1  0
 15 31  1  0
 15 32  1  0
 15 33  1  0
 16 34  1  0
 19 35  1  0
 19 36  1  0
 19 37  1  0
 20 38  1  0
M  CHG  1   2  -1
M  END
>  <UniqueID>  (4) 
3

>  <SMILES>  (4) 
C[N-]C(=O)c1cc(Cn2nc(C)cc2C)cc(OC)c1

>  <Energy>  (4) 
65.88470765371478

>  <Genealogy>  (4) 
C[N-]C(=O)c1cc(Cn2nc(C)cc2C)cc(OC)c1 (protonated)
C[N-]C(=O)c1cc(Cn2nc(C)cc2C)cc(OC)c1 (3D coordinates assigned)
C[N-]C(=O)c1cc(Cn2nc(C)cc2C)cc(OC)c1 (optimized conformer: 65.88470765371478 kcal/mol)

>  <smiles>  (4) 
CNC(=O)c1cc(Cn2nc(C)cc2C)cc(OC)c1

>  <score_type>  (4) 
oracle

>  <origin>  (4) 
adgpu

>  <m_score__min__energy>  (4) 
-8.5899999999999999

>  <m_primary>  (4) 
energy

$$$$
4:0
     RDKit          3D

 40 41  0  0  0  0  0  0  0  0999 V2000
   -3.3340   23.7110  -27.5220 C   0  0  0  0  0  0  0  0  0  0  0  0
   -3.8270   24.1610  -28.8550 C   0  0  0  0  0  0  0  0  0  0  0  0
   -5.0210   23.7950  -29.4400 C   0  0  0  0  0  0  0  0  0  0  0  0
   -4.9760   24.4020  -30.6750 C   0  0  0  0  0  0  0  0  0  0  0  0
   -6.0580   24.3550  -31.7160 C   0  0  0  0  0  0  0  0  0  0  0  0
   -6.3660   22.9610  -32.1250 N   0  0  1  0  0  0  0  0  0  0  0  0
   -5.1320   22.1530  -32.1670 C   0  0  0  0  0  0  0  0  0  0  0  0
   -7.3370   22.3390  -31.1950 C   0  0  0  0  0  0  0  0  0  0  0  0
   -7.8170   21.0110  -31.7110 C   0  0  0  0  0  0  0  0  0  0  0  0
   -9.1370   20.6540  -31.9110 C   0  0  0  0  0  0  0  0  0  0  0  0
   -9.1090   19.3440  -32.3400 C   0  0  0  0  0  0  0  0  0  0  0  0
   -7.7740   18.9880  -32.3670 C   0  0  0  0  0  0  0  0  0  0  0  0
   -7.2350   17.6440  -32.7410 C   0  0  0  0  0  0  0  0  0  0  0  0
   -5.7720   17.6630  -32.7600 N   0  0  0  0  0  0  0  0  0  0  0  0
   -5.1790   18.4760  -34.1790 S   0  0  0  0  0  0  0  0  0  0  0  0
   -3.6060   19.2130  -33.8030 C   0  0  0  0  0  0  0  0  0  0  0  0
   -6.1350   19.5570  -34.6010 O   0  0  0  0  0  0  0  0  0  0  0  0
   -5.0060   17.4910  -35.3020 O   0  0  0  0  0  0  0  0  0  0  0  0
   -7.0280   20.0000  -31.9910 O   0  0  0  0  0  0  0  0  0  0  0  0
   -3.8210   25.0820  -30.8140 N   0  0  0  0  0  0  0  0  0  0  0  0
   -3.1140   24.9250  -29.7040 N   0  0  0  0  0  0  0  0  0  0  0  0
   -3.8977   24.2255  -26.7298 H   0  0  0  0  0  0  0  0  0  0  0  0
   -3.4758   22.6244  -27.4263 H   0  0  0  0  0  0  0  0  0  0  0  0
   -2.2648   23.9511  -27.4263 H   0  0  0  0  0  0  0  0  0  0  0  0
   -5.8201   23.1668  -29.0195 H   0  0  0  0  0  0  0  0  0  0  0  0
   -6.9685   24.8154  -31.3049 H   0  0  0  0  0  0  0  0  0  0  0  0
   -5.7053   24.9026  -32.6024 H   0  0  0  0  0  0  0  0  0  0  0  0
   -6.7770   22.9610  -33.0900 H   0  0  0  0  0  0  0  0  0  0  0  0
   -4.8007   21.9361  -31.1408 H   0  0  0  0  0  0  0  0  0  0  0  0
   -5.3297   21.2089  -32.6958 H   0  0  0  0  0  0  0  0  0  0  0  0
   -4.3457   22.7117  -32.6958 H   0  0  0  0  0  0  0  0  0  0  0  0
   -6.8525   22.1898  -30.2188 H   0  0  0  0  0  0  0  0  0  0  0  0
   -8.2048   23.0085  -31.1017 H   0  0  0  0  0  0  0  0  0  0  0  0
  -10.0257   21.2843  -31.7594 H   0  0  0  0  0  0  0  0  0  0  0  0
   -9.9702   18.7133  -32.6056 H   0  0  0  0  0  0  0  0  0  0  0  0
   -7.5774   16.9000  -32.0066 H   0  0  0  0  0  0  0  0  0  0  0  0
   -7.5994   17.3827  -33.7455 H   0  0  0  0  0  0  0  0  0  0  0  0
   -3.4802   19.2720  -32.7118 H   0  0  0  0  0  0  0  0  0  0  0  0
   -2.8011   18.5983  -34.2322 H   0  0  0  0  0  0  0  0  0  0  0  0
   -3.5632   20.2249  -34.2322 H   0  0  0  0  0  0  0  0  0  0  0  0
  1  2  1  0
  2  3  1  0
  3  4  2  0
  4  5  1  0
  5  6  1  0
  6  7  1  0
  6  8  1  0
  8  9  1  0
  9 10  2  0
 10 11  1  0
 11 12  2  0
 12 13  1  0
 13 14  1  0
 14 15  1  0
 15 16  1  0
 15 17  2  0
 15 18  2  0
 12 19  1  0
  4 20  1  0
 20 21  1  0
 21  2  2  0
 19  9  1  0
  1 22  1  0
  1 23  1  0
  1 24  1  0
  3 25  1  0
  5 26  1  0
  5 27  1  0
  6 28  1  6
  7 29  1  0
  7 30  1  0
  7 31  1  0
  8 32  1  0
  8 33  1  0
 10 34  1  0
 11 35  1  0
 13 36  1  0
 13 37  1  0
 16 38  1  0
 16 39  1  0
 16 40  1  0
M  CHG  3   6   1  14  -1  20  -1
M  END
>  <UniqueID>  (5) 
4

>  <SMILES>  (5) 
Cc1cc(C[N@@H+](C)Cc2ccc(C[N-]S(C)(=O)=O)o2)[n-]n1

>  <Energy>  (5) 
86.3254183646465

>  <Genealogy>  (5) 
Cc1cc(C[NH+](C)Cc2ccc(C[N-]S(C)(=O)=O)o2)[n-]n1 (protonated)
Cc1cc(C[N@@H+](C)Cc2ccc(C[N-]S(C)(=O)=O)o2)[n-]n1 (chirality)
Cc1cc(C[N@@H+](C)Cc2ccc(C[N-]S(C)(=O)=O)o2)[n-]n1 (3D coordinates assigned)
Cc1cc(C[N@@H+](C)Cc2ccc(C[N-]S(C)(=O)=O)o2)[n-]n1 (optimized conformer: 86.3254183646465 kcal/mol)

>  <smiles>  (5) 
Cc1cc(CN(C)Cc2ccc(CNS(C)(=O)=O)o2)[nH]n1

>  <score_type>  (5) 
oracle

>  <origin>  (5) 
adgpu

>  <m_score__min__energy>  (5) 
-8.6899999999999995

>  <m_primary>  (5) 
energy

$$$$
5:0
     RDKit          3D

 37 39  0  0  0  0  0  0  0  0999 V2000
   -5.4110   25.5690  -31.1940 O   0  0  0  0  0  0  0  0  0  0  0  0
   -4.6920   24.6150  -30.7940 C   0  0  0  0  0  0  0  0  0  0  0  0
   -3.4900   24.8860  -30.2210 N   0  0  0  0  0  0  0  0  0  0  0  0
   -2.6820   23.8860  -29.7840 C   0  0  0  0  0  0  0  0  0  0  0  0
   -1.1370   24.2720  -28.9660 S   0  0  0  0  0  0  0  0  0  0  0  0
   -1.6050   23.4830  -27.3830 C   0  0  0  0  0  0  0  0  0  0  0  0
   -1.3350   22.0030  -27.4090 C   0  0  0  0  0  0  0  0  0  0  0  0
   -0.0700   21.5220  -27.7840 C   0  0  0  0  0  0  0  0  0  0  0  0
    0.1700   20.1450  -27.8470 C   0  0  0  0  0  0  0  0  0  0  0  0
   -0.8520   19.2410  -27.5400 C   0  0  0  0  0  0  0  0  0  0  0  0
   -2.1140   19.7120  -27.1690 C   0  0  0  0  0  0  0  0  0  0  0  0
   -3.1050   18.8330  -26.8770 F   0  0  0  0  0  0  0  0  0  0  0  0
   -2.3570   21.0870  -27.1030 C   0  0  0  0  0  0  0  0  0  0  0  0
   -3.0610   22.5910  -29.9320 N   0  0  0  0  0  0  0  0  0  0  0  0
   -4.2530   22.2730  -30.4970 C   0  0  0  0  0  0  0  0  0  0  0  0
   -5.1170   23.2830  -30.9300 C   0  0  0  0  0  0  0  0  0  0  0  0
   -6.6860   22.8550  -31.6200 S   0  0  0  0  0  0  0  0  0  0  0  0
   -7.7710   22.9400  -30.5820 O   0  0  0  0  0  0  0  0  0  0  0  0
   -7.0020   23.8060  -32.7380 O   0  0  0  0  0  0  0  0  0  0  0  0
   -6.6250   21.1970  -32.2130 C   0  0  0  0  0  0  0  0  0  0  0  0
   -7.6290   20.2920  -31.8430 C   0  0  0  0  0  0  0  0  0  0  0  0
   -7.5830   18.9680  -32.2920 C   0  0  0  0  0  0  0  0  0  0  0  0
   -6.5320   18.5420  -33.1110 C   0  0  0  0  0  0  0  0  0  0  0  0
   -6.4700   16.7330  -33.7180 Br  0  0  0  0  0  0  0  0  0  0  0  0
   -5.5290   19.4420  -33.4830 C   0  0  0  0  0  0  0  0  0  0  0  0
   -5.5730   20.7660  -33.0360 C   0  0  0  0  0  0  0  0  0  0  0  0
   -1.0223   23.9393  -26.5692 H   0  0  0  0  0  0  0  0  0  0  0  0
   -2.6825   23.6366  -27.2237 H   0  0  0  0  0  0  0  0  0  0  0  0
    0.7351   22.2304  -28.0291 H   0  0  0  0  0  0  0  0  0  0  0  0
    1.1634   19.7731  -28.1383 H   0  0  0  0  0  0  0  0  0  0  0  0
   -0.6622   18.1587  -27.5906 H   0  0  0  0  0  0  0  0  0  0  0  0
   -3.3519   21.4540  -26.8105 H   0  0  0  0  0  0  0  0  0  0  0  0
   -4.5402   21.2177  -30.6146 H   0  0  0  0  0  0  0  0  0  0  0  0
   -8.4557   20.6238  -31.1976 H   0  0  0  0  0  0  0  0  0  0  0  0
   -8.3740   18.2612  -32.0008 H   0  0  0  0  0  0  0  0  0  0  0  0
   -4.7035   19.1078  -34.1287 H   0  0  0  0  0  0  0  0  0  0  0  0
   -4.7816   21.4712  -33.3299 H   0  0  0  0  0  0  0  0  0  0  0  0
  1  2  2  0
  2  3  1  0
  3  4  2  0
  4  5  1  0
  5  6  1  0
  6  7  1  0
  7  8  2  0
  8  9  1  0
  9 10  2  0
 10 11  1  0
 11 12  1  0
 11 13  2  0
  4 14  1  0
 14 15  1  0
 15 16  2  0
 16 17  1  0
 17 18  2  0
 17 19  2  0
 17 20  1  0
 20 21  2  0
 21 22  1  0
 22 23  2  0
 23 24  1  0
 23 25  1  0
 25 26  2  0
 16  2  1  0
 26 20  1  0
 13  7  1  0
  6 27  1  0
  6 28  1  0
  8 29  1  0
  9 30  1  0
 10 31  1  0
 13 32  1  0
 15 33  1  0
 21 34  1  0
 22 35  1  0
 25 36  1  0
 26 37  1  0
M  CHG  1  14  -1
M  END
>  <UniqueID>  (6) 
5

>  <SMILES>  (6) 
O=c1nc(SCc2cccc(F)c2)[n-]cc1S(=O)(=O)c1ccc(Br)cc1

>  <Energy>  (6) 
38.4409608101415

>  <Genealogy>  (6) 
O=c1nc(SCc2cccc(F)c2)[n-]cc1S(=O)(=O)c1ccc(Br)cc1 (protonated)
O=c1nc(SCc2cccc(F)c2)[n-]cc1S(=O)(=O)c1ccc(Br)cc1 (3D coordinates assigned)
O=c1nc(SCc2cccc(F)c2)[n-]cc1S(=O)(=O)c1ccc(Br)cc1 (optimized conformer: 38.4409608101415 kcal/mol)

>  <smiles>  (6) 
O=c1nc(SCc2cccc(F)c2)[nH]cc1S(=O)(=O)c1ccc(Br)cc1

>  <score_type>  (6) 
oracle

>  <origin>  (6) 
adgpu

>  <m_score__min__energy>  (6) 
-10.380000000000001

>  <m_primary>  (6) 
energy

$$$$
6:0
     RDKit          3D

 39 42  0  0  0  0  0  0  0  0999 V2000
   -2.3030   26.2200  -25.1420 O   0  0  0  0  0  0  0  0  0  0  0  0
   -2.6320   25.4640  -26.2660 C   0  0  0  0  0  0  0  0  0  0  0  0
   -3.9160   24.9260  -26.4140 C   0  0  0  0  0  0  0  0  0  0  0  0
   -4.2350   24.1660  -27.5450 C   0  0  0  0  0  0  0  0  0  0  0  0
   -3.2680   23.9300  -28.5430 C   0  0  0  0  0  0  0  0  0  0  0  0
   -3.5860   23.1360  -29.7570 C   0  0  0  0  0  0  0  0  0  0  0  0
   -2.5780   22.6020  -30.5770 C   0  0  0  0  0  0  0  0  0  0  0  0
   -2.9190   21.8620  -31.7210 C   0  0  0  0  0  0  0  0  0  0  0  0
   -1.8560   21.3040  -32.5970 C   0  0  0  0  0  0  0  0  0  0  0  0
   -2.0220   20.7660  -33.8750 C   0  0  0  0  0  0  0  0  0  0  0  0
   -0.8290   20.3140  -34.4520 C   0  0  0  0  0  0  0  0  0  0  0  0
    0.2860   20.4880  -33.6440 C   0  0  0  0  0  0  0  0  0  0  0  0
   -0.2170   21.2020  -32.2110 S   0  0  0  0  0  0  0  0  0  0  0  0
   -4.2790   21.6780  -32.0250 C   0  0  0  0  0  0  0  0  0  0  0  0
   -5.2670   22.2210  -31.1880 C   0  0  0  0  0  0  0  0  0  0  0  0
   -6.7140   22.0600  -31.4810 C   0  0  0  0  0  0  0  0  0  0  0  0
   -7.5160   23.1970  -31.6990 C   0  0  0  0  0  0  0  0  0  0  0  0
   -8.8800   23.0630  -31.9670 C   0  0  0  0  0  0  0  0  0  0  0  0
   -9.4660   21.7960  -32.0140 C   0  0  0  0  0  0  0  0  0  0  0  0
   -8.6860   20.6600  -31.7860 C   0  0  0  0  0  0  0  0  0  0  0  0
   -7.3190   20.7870  -31.5180 C   0  0  0  0  0  0  0  0  0  0  0  0
   -4.8880   22.9340  -30.0940 N   0  0  0  0  0  0  0  0  0  0  0  0
   -1.9850   24.4870  -28.3880 C   0  0  0  0  0  0  0  0  0  0  0  0
   -1.6700   25.2440  -27.2550 C   0  0  0  0  0  0  0  0  0  0  0  0
   -2.9920   26.7960  -24.6720 H   0  0  0  0  0  0  0  0  0  0  0  0
   -4.6765   25.1012  -25.6388 H   0  0  0  0  0  0  0  0  0  0  0  0
   -5.2472   23.7500  -27.6559 H   0  0  0  0  0  0  0  0  0  0  0  0
   -1.5201   22.7637  -30.3227 H   0  0  0  0  0  0  0  0  0  0  0  0
   -2.9971   20.7033  -34.3802 H   0  0  0  0  0  0  0  0  0  0  0  0
   -0.7799   19.8624  -35.4538 H   0  0  0  0  0  0  0  0  0  0  0  0
    1.3186   20.2071  -33.8984 H   0  0  0  0  0  0  0  0  0  0  0  0
   -4.5696   21.1079  -32.9197 H   0  0  0  0  0  0  0  0  0  0  0  0
   -7.0642   24.1991  -31.6578 H   0  0  0  0  0  0  0  0  0  0  0  0
   -9.4949   23.9582  -32.1417 H   0  0  0  0  0  0  0  0  0  0  0  0
  -10.5396   21.6930  -32.2301 H   0  0  0  0  0  0  0  0  0  0  0  0
   -9.1482   19.6623  -31.8173 H   0  0  0  0  0  0  0  0  0  0  0  0
   -6.7122   19.8880  -31.3349 H   0  0  0  0  0  0  0  0  0  0  0  0
   -1.2231   24.3256  -29.1649 H   0  0  0  0  0  0  0  0  0  0  0  0
   -0.6612   25.6677  -27.1421 H   0  0  0  0  0  0  0  0  0  0  0  0
  1  2  1  0
  2  3  2  0
  3  4  1  0
  4  5  2  0
  5  6  1  0
  6  7  2  0
  7  8  1  0
  8  9  1  0
  9 10  2  0
 10 11  1  0
 11 12  2  0
 12 13  1  0
  8 14  2  0
 14 15  1  0
 15 16  1  0
 16 17  2  0
 17 18  1  0
 18 19  2  0
 19 20  1  0
 20 21  2  0
 15 22  2  0
  5 23  1  0
 23 24  2  0
 24  2  1  0
 22  6  1  0
 13  9  1  0
 21 16  1  0
  1 25  1  0
  3 26  1  0
  4 27  1  0
  7 28  1  0
 10 29  1  0
 11 30  1  0
 12 31  1  0
 14 32  1  0
 17 33  1  0
 18 34  1  0
 19 35  1  0
 20 36  1  0
 21 37  1  0
 23 38  1  0
 24 39  1  0
M  END
>  <UniqueID>  (7) 
6

>  <SMILES>  (7) 
Oc1ccc(-c2cc(-c3cccs3)cc(-c3ccccc3)n2)cc1

>  <Energy>  (7) 
80.02974993900591

>  <Genealogy>  (7) 
Oc1ccc(-c2cc(-c3cccs3)cc(-c3ccccc3)n2)cc1 (3D coordinates assigned)
Oc1ccc(-c2cc(-c3cccs3)cc(-c3ccccc3)n2)cc1 (optimized conformer: 80.02974993900591 kcal/mol)

>  <smiles>  (7) 
Oc1ccc(-c2cc(-c3cccs3)cc(-c3ccccc3)n2)cc1

>  <score_type>  (7) 
oracle

>  <origin>  (7) 
adgpu

>  <m_score__min__energy>  (7) 
-7.8300000000000001

>  <m_primary>  (7) 
energy

$$$$
7:0
     RDKit          3D

 44 47  0  0  0  0  0  0  0  0999 V2000
   -5.3170   12.7830  -34.3400 C   0  0  0  0  0  0  0  0  0  0  0  0
   -5.5460   14.1680  -33.8120 C   0  0  0  0  0  0  0  0  0  0  0  0
   -6.6320   14.9280  -34.2710 C   0  0  0  0  0  0  0  0  0  0  0  0
   -6.8690   16.2040  -33.7510 C   0  0  0  0  0  0  0  0  0  0  0  0
   -6.0270   16.7420  -32.7620 C   0  0  0  0  0  0  0  0  0  0  0  0
   -6.2990   18.0970  -32.2230 C   0  0  0  0  0  0  0  0  0  0  0  0
   -5.7350   18.4490  -31.1510 O   0  0  0  0  0  0  0  0  0  0  0  0
   -7.1820   19.0080  -32.9040 N   0  0  0  0  0  0  0  0  0  0  0  0
   -7.5560   20.2970  -32.3870 C   0  0  0  0  0  0  0  0  0  0  0  0
   -8.8950   20.7240  -32.3880 C   0  0  0  0  0  0  0  0  0  0  0  0
   -9.2290   21.9920  -31.9040 C   0  0  0  0  0  0  0  0  0  0  0  0
   -8.2330   22.8490  -31.4300 C   0  0  0  0  0  0  0  0  0  0  0  0
   -6.8890   22.4480  -31.4450 C   0  0  0  0  0  0  0  0  0  0  0  0
   -5.8380   23.3620  -30.9540 C   0  0  0  0  0  0  0  0  0  0  0  0
   -5.4720   24.5050  -31.5670 N   0  0  0  0  0  0  0  0  0  0  0  0
   -4.5110   25.0340  -30.8260 N   0  0  0  0  0  0  0  0  0  0  0  0
   -4.3260   24.1950  -29.7880 C   0  0  0  0  0  0  0  0  0  0  0  0
   -3.3390   24.4030  -28.7100 C   0  0  0  0  0  0  0  0  0  0  0  0
   -3.7530   24.5170  -27.3720 C   0  0  0  0  0  0  0  0  0  0  0  0
   -2.8110   24.7150  -26.3570 C   0  0  0  0  0  0  0  0  0  0  0  0
   -1.4510   24.7990  -26.6690 C   0  0  0  0  0  0  0  0  0  0  0  0
   -1.0320   24.6860  -27.9970 C   0  0  0  0  0  0  0  0  0  0  0  0
   -1.9690   24.4890  -29.0150 C   0  0  0  0  0  0  0  0  0  0  0  0
   -5.1380   23.1670  -29.8610 O   0  0  0  0  0  0  0  0  0  0  0  0
   -6.5580   21.1720  -31.9330 C   0  0  0  0  0  0  0  0  0  0  0  0
   -4.9580   15.9620  -32.2830 C   0  0  0  0  0  0  0  0  0  0  0  0
   -4.7230   14.6850  -32.8030 C   0  0  0  0  0  0  0  0  0  0  0  0
   -5.2015   12.0842  -33.4984 H   0  0  0  0  0  0  0  0  0  0  0  0
   -6.1769   12.4780  -34.9544 H   0  0  0  0  0  0  0  0  0  0  0  0
   -4.4047   12.7710  -34.9544 H   0  0  0  0  0  0  0  0  0  0  0  0
   -7.2998   14.5184  -35.0432 H   0  0  0  0  0  0  0  0  0  0  0  0
   -7.7223   16.7925  -34.1192 H   0  0  0  0  0  0  0  0  0  0  0  0
   -7.5410   18.7590  -33.8520 H   0  0  0  0  0  0  0  0  0  0  0  0
   -9.6825   20.0583  -32.7709 H   0  0  0  0  0  0  0  0  0  0  0  0
  -10.2801   22.3162  -31.8963 H   0  0  0  0  0  0  0  0  0  0  0  0
   -8.5038   23.8426  -31.0433 H   0  0  0  0  0  0  0  0  0  0  0  0
   -4.8221   24.4503  -27.1218 H   0  0  0  0  0  0  0  0  0  0  0  0
   -3.1410   24.8048  -25.3115 H   0  0  0  0  0  0  0  0  0  0  0  0
   -0.7114   24.9539  -25.8697 H   0  0  0  0  0  0  0  0  0  0  0  0
    0.0383   24.7523  -28.2420 H   0  0  0  0  0  0  0  0  0  0  0  0
   -1.6335   24.4009  -30.0589 H   0  0  0  0  0  0  0  0  0  0  0  0
   -5.5047   20.8561  -31.9592 H   0  0  0  0  0  0  0  0  0  0  0  0
   -4.3026   16.3595  -31.4940 H   0  0  0  0  0  0  0  0  0  0  0  0
   -3.8870   14.0830  -32.4174 H   0  0  0  0  0  0  0  0  0  0  0  0
  1  2  1  0
  2  3  2  0
  3  4  1  0
  4  5  2  0
  5  6  1  0
  6  7  2  0
  6  8  1  0
  8  9  1  0
  9 10  2  0
 10 11  1  0
 11 12  2  0
 12 13  1  0
 13 14  1  0
 14 15  2  0
 15 16  1  0
 16 17  2  0
 17 18  1  0
 18 19  2  0
 19 20  1  0
 20 21  2  0
 21 22  1  0
 22 23  2  0
 17 24  1  0
 13 25  2  0
  5 26  1  0
 26 27  2  0
 27  2  1  0
 25  9  1  0
 24 14  1  0
 23 18  1  0
  1 28  1  0
  1 29  1  0
  1 30  1  0
  3 31  1  0
  4 32  1  0
  8 33  1  0
 10 34  1  0
 11 35  1  0
 12 36  1  0
 19 37  1  0
 20 38  1  0
 21 39  1  0
 22 40  1  0
 23 41  1  0
 25 42  1  0
 26 43  1  0
 27 44  1  0
M  END
>  <UniqueID>  (8) 
7

>  <SMILES>  (8) 
Cc1ccc(C(=O)Nc2cccc(-c3nnc(-c4ccccc4)o3)c2)cc1

>  <Energy>  (8) 
89.82315786498762

>  <Genealogy>  (8) 
Cc1ccc(C(=O)Nc2cccc(-c3nnc(-c4ccccc4)o3)c2)cc1 (3D coordinates assigned)
Cc1ccc(C(=O)Nc2cccc(-c3nnc(-c4ccccc4)o3)c2)cc1 (optimized conformer: 89.82315786498762 kcal/mol)

>  <smiles>  (8) 
Cc1ccc(C(=O)Nc2cccc(-c3nnc(-c4ccccc4)o3)c2)cc1

>  <score_type>  (8) 
oracle

>  <origin>  (8) 
adgpu

>  <m_score__min__energy>  (8) 
-9.5999999999999996

>  <m_primary>  (8) 
energy

$$$$
8:0
     RDKit          3D

 47 51  0  0  0  0  0  0  0  0999 V2000
    0.3190   23.0280  -28.5780 O   0  0  0  0  0  0  0  0  0  0  0  0
   -1.1310   22.7580  -28.2810 S   0  0  0  0  0  0  0  0  0  0  0  0
   -1.5920   23.6720  -27.1800 O   0  0  0  0  0  0  0  0  0  0  0  0
   -1.3350   21.0870  -27.7480 C   0  0  0  0  0  0  0  0  0  0  0  0
   -2.5360   20.6920  -27.1400 C   0  0  0  0  0  0  0  0  0  0  0  0
   -2.7070   19.3720  -26.7120 C   0  0  0  0  0  0  0  0  0  0  0  0
   -1.6770   18.4420  -26.8820 C   0  0  0  0  0  0  0  0  0  0  0  0
   -0.4740   18.8320  -27.4750 C   0  0  0  0  0  0  0  0  0  0  0  0
   -0.2970   20.1520  -27.9060 C   0  0  0  0  0  0  0  0  0  0  0  0
    0.8840   20.5130  -28.4670 F   0  0  0  0  0  0  0  0  0  0  0  0
   -2.0730   23.0430  -29.7250 N   0  0  0  0  0  0  0  0  0  0  0  0
   -3.5020   23.2730  -29.3920 C   0  0  0  0  0  0  0  0  0  0  0  0
   -4.4140   22.0940  -29.7570 C   0  0  0  0  0  0  0  0  0  0  0  0
   -4.2280   21.7210  -31.1640 N   0  0  0  0  0  0  0  0  0  0  0  0
   -5.1640   20.8020  -31.7530 C   0  0  0  0  0  0  0  0  0  0  0  0
   -4.7150   19.5390  -32.1870 C   0  0  0  0  0  0  0  0  0  0  0  0
   -5.6110   18.5890  -32.5830 N   0  0  0  0  0  0  0  0  0  0  0  0
   -6.9270   18.8140  -32.5620 N   0  0  0  0  0  0  0  0  0  0  0  0
   -7.3950   20.0140  -32.1540 C   0  0  0  0  0  0  0  0  0  0  0  0
   -9.0020   20.4640  -32.0200 S   0  0  0  0  0  0  0  0  0  0  0  0
   -8.6580   22.0230  -31.4710 C   0  0  0  0  0  0  0  0  0  0  0  0
   -7.2740   22.2050  -31.4100 C   0  0  0  0  0  0  0  0  0  0  0  0
   -6.6950   23.5280  -31.1300 C   0  0  0  0  0  0  0  0  0  0  0  0
   -6.8890   24.2840  -29.9960 C   0  0  0  0  0  0  0  0  0  0  0  0
   -6.0470   25.3690  -30.1270 C   0  0  0  0  0  0  0  0  0  0  0  0
   -5.3690   25.2740  -31.2490 O   0  0  0  0  0  0  0  0  0  0  0  0
   -5.7240   24.1720  -31.8690 C   0  0  0  0  0  0  0  0  0  0  0  0
   -6.5530   21.0430  -31.7700 C   0  0  0  0  0  0  0  0  0  0  0  0
   -2.9100   21.9240  -31.7830 C   0  0  0  0  0  0  0  0  0  0  0  0
   -1.8270   21.9620  -30.7030 C   0  0  0  0  0  0  0  0  0  0  0  0
   -3.3458   21.4231  -26.9995 H   0  0  0  0  0  0  0  0  0  0  0  0
   -3.6526   19.0650  -26.2412 H   0  0  0  0  0  0  0  0  0  0  0  0
   -1.8141   17.4027  -26.5486 H   0  0  0  0  0  0  0  0  0  0  0  0
    0.3367   18.0997  -27.6037 H   0  0  0  0  0  0  0  0  0  0  0  0
   -3.5825   23.4532  -28.3099 H   0  0  0  0  0  0  0  0  0  0  0  0
   -3.8371   24.1365  -29.9853 H   0  0  0  0  0  0  0  0  0  0  0  0
   -4.1672   21.2333  -29.1180 H   0  0  0  0  0  0  0  0  0  0  0  0
   -5.4616   22.3914  -29.6018 H   0  0  0  0  0  0  0  0  0  0  0  0
   -3.6376   19.3178  -32.2067 H   0  0  0  0  0  0  0  0  0  0  0  0
   -9.4092   22.7803  -31.2022 H   0  0  0  0  0  0  0  0  0  0  0  0
   -7.5718   24.0683  -29.1610 H   0  0  0  0  0  0  0  0  0  0  0  0
   -5.9566   26.1906  -29.4012 H   0  0  0  0  0  0  0  0  0  0  0  0
   -5.3124   23.8184  -32.8259 H   0  0  0  0  0  0  0  0  0  0  0  0
   -2.7026   21.0973  -32.4784 H   0  0  0  0  0  0  0  0  0  0  0  0
   -2.9100   22.8788  -32.3293 H   0  0  0  0  0  0  0  0  0  0  0  0
   -1.8160   20.9975  -30.1741 H   0  0  0  0  0  0  0  0  0  0  0  0
   -0.8600   22.1527  -31.1913 H   0  0  0  0  0  0  0  0  0  0  0  0
  1  2  2  0
  2  3  2  0
  2  4  1  0
  4  5  2  0
  5  6  1  0
  6  7  2  0
  7  8  1  0
  8  9  2  0
  9 10  1  0
  2 11  1  0
 11 12  1  0
 12 13  1  0
 13 14  1  0
 14 15  1  0
 15 16  2  0
 16 17  1  0
 17 18  2  0
 18 19  1  0
 19 20  1  0
 20 21  1  0
 21 22  2  0
 22 23  1  0
 23 24  1  0
 24 25  2  0
 25 26  1  0
 26 27  1  0
 22 28  1  0
 14 29  1  0
 29 30  1  0
  9  4  1  0
 30 11  1  0
 28 15  1  0
 28 19  2  0
 27 23  2  0
  5 31  1  0
  6 32  1  0
  7 33  1  0
  8 34  1  0
 12 35  1  0
 12 36  1  0
 13 37  1  0
 13 38  1  0
 16 39  1  0
 21 40  1  0
 24 41  1  0
 25 42  1  0
 27 43  1  0
 29 44  1  0
 29 45  1  0
 30 46  1  0
 30 47  1  0
M  END
>  <UniqueID>  (9) 
8

>  <SMILES>  (9) 
O=S(=O)(c1ccccc1F)N1CCN(c2cnnc3scc(-c4ccoc4)c23)CC1

>  <Energy>  (9) 
130.7596361426924

>  <Genealogy>  (9) 
O=S(=O)(c1ccccc1F)N1CCN(c2cnnc3scc(-c4ccoc4)c23)CC1 (3D coordinates assigned)
O=S(=O)(c1ccccc1F)N1CCN(c2cnnc3scc(-c4ccoc4)c23)CC1 (nonaromatic ring conformer: 130.7596361426924 kcal/mol)

>  <smiles>  (9) 
O=S(=O)(c1ccccc1F)N1CCN(c2cnnc3scc(-c4ccoc4)c23)CC1

>  <score_type>  (9) 
oracle

>  <origin>  (9) 
adgpu

>  <m_score__min__energy>  (9) 
-9.5899999999999999

>  <m_primary>  (9) 
energy

$$$$
9:0
     RDKit          3D

 20 21  0  0  0  0  0  0  0  0999 V2000
   -3.4670   25.2990  -30.4630 O   0  0  0  0  0  0  0  0  0  0  0  0
   -4.4550   24.3830  -30.8020 C   0  0  0  0  0  0  0  0  0  0  0  0
   -4.1020   23.1050  -31.2360 C   0  0  0  0  0  0  0  0  0  0  0  0
   -5.0920   22.1800  -31.5780 C   0  0  0  0  0  0  0  0  0  0  0  0
   -6.4610   22.5160  -31.4920 C   0  0  0  0  0  0  0  0  0  0  0  0
   -7.4930   21.4970  -31.8660 C   0  0  0  0  0  0  0  0  0  0  0  0
   -7.1650   20.2160  -32.3540 C   0  0  0  0  0  0  0  0  0  0  0  0
   -8.1950   19.3320  -32.6760 C   0  0  0  0  0  0  0  0  0  0  0  0
   -9.4890   19.7060  -32.5190 N   0  0  0  0  0  0  0  0  0  0  0  0
   -9.8000   20.9400  -32.0490 C   0  0  0  0  0  0  0  0  0  0  0  0
   -8.8120   21.8140  -31.7290 N   0  0  0  0  0  0  0  0  0  0  0  0
   -6.7990   23.8150  -31.0490 C   0  0  0  0  0  0  0  0  0  0  0  0
   -5.8030   24.7370  -30.7090 C   0  0  0  0  0  0  0  0  0  0  0  0
   -6.1510   25.9790  -30.2860 F   0  0  0  0  0  0  0  0  0  0  0  0
   -3.0409   22.8245  -31.3092 H   0  0  0  0  0  0  0  0  0  0  0  0
   -4.8008   21.1756  -31.9191 H   0  0  0  0  0  0  0  0  0  0  0  0
   -6.1135   19.9181  -32.4790 H   0  0  0  0  0  0  0  0  0  0  0  0
   -7.9568   18.3285  -33.0584 H   0  0  0  0  0  0  0  0  0  0  0  0
  -10.8534   21.2324  -31.9272 H   0  0  0  0  0  0  0  0  0  0  0  0
   -7.8573   24.1044  -30.9706 H   0  0  0  0  0  0  0  0  0  0  0  0
  1  2  1  0
  2  3  2  0
  3  4  1  0
  4  5  2  0
  5  6  1  0
  6  7  2  0
  7  8  1  0
  8  9  2  0
  9 10  1  0
 10 11  2  0
  5 12  1  0
 12 13  2  0
 13 14  1  0
 13  2  1  0
 11  6  1  0
  3 15  1  0
  4 16  1  0
  7 17  1  0
  8 18  1  0
 10 19  1  0
 12 20  1  0
M  CHG  1   1  -1
M  END
>  <UniqueID>  (10) 
9

>  <SMILES>  (10) 
[O-]c1ccc(-c2ccncn2)cc1F

>  <Energy>  (10) 
27.183032087109627

>  <Genealogy>  (10) 
[O-]c1ccc(-c2ccncn2)cc1F (protonated)
[O-]c1ccc(-c2ccncn2)cc1F (3D coordinates assigned)
[O-]c1ccc(-c2ccncn2)cc1F (optimized conformer: 27.183032087109627 kcal/mol)

>  <smiles>  (10) 
Oc1ccc(-c2ccncn2)cc1F

>  <score_type>  (10) 
oracle

>  <origin>  (10) 
adgpu

>  <m_score__min__energy>  (10) 
-9.0099999999999998

>  <m_primary>  (10) 
energy

$$$$
10:0
     RDKit          3D

 41 43  0  0  0  0  0  0  0  0999 V2000
   -3.8710   22.3610  -28.3720 C   0  0  0  0  0  0  0  0  0  0  0  0
   -2.8890   23.4100  -27.9600 C   0  0  0  0  0  0  0  0  0  0  0  0
   -2.1100   23.3270  -26.8630 N   0  0  0  0  0  0  0  0  0  0  0  0
   -1.3060   24.3810  -26.8570 N   0  0  0  0  0  0  0  0  0  0  0  0
   -0.3480   24.6470  -25.7880 C   0  0  0  0  0  0  0  0  0  0  0  0
   -1.5500   25.1550  -27.9390 C   0  0  0  0  0  0  0  0  0  0  0  0
   -0.8930   26.4730  -28.2210 C   0  0  0  0  0  0  0  0  0  0  0  0
   -2.5440   24.5350  -28.6810 C   0  0  0  0  0  0  0  0  0  0  0  0
   -3.1190   24.9280  -29.9340 N   0  0  0  0  0  0  0  0  0  0  0  0
   -4.8140   24.8620  -30.2920 S   0  0  0  0  0  0  0  0  0  0  0  0
   -5.5880   24.9820  -29.0100 O   0  0  0  0  0  0  0  0  0  0  0  0
   -5.1850   26.0040  -31.1960 O   0  0  0  0  0  0  0  0  0  0  0  0
   -5.2080   23.3120  -31.0320 C   0  0  0  0  0  0  0  0  0  0  0  0
   -4.2510   22.6140  -31.7830 C   0  0  0  0  0  0  0  0  0  0  0  0
   -4.5670   21.3740  -32.3470 C   0  0  0  0  0  0  0  0  0  0  0  0
   -5.8500   20.8190  -32.1820 C   0  0  0  0  0  0  0  0  0  0  0  0
   -6.1860   19.4960  -32.7720 C   0  0  0  0  0  0  0  0  0  0  0  0
   -5.5630   19.0510  -33.9520 C   0  0  0  0  0  0  0  0  0  0  0  0
   -5.8900   17.8060  -34.4920 C   0  0  0  0  0  0  0  0  0  0  0  0
   -6.8390   17.0090  -33.8480 C   0  0  0  0  0  0  0  0  0  0  0  0
   -7.4360   17.4460  -32.7090 N   0  0  0  0  0  0  0  0  0  0  0  0
   -7.1360   18.6550  -32.1630 C   0  0  0  0  0  0  0  0  0  0  0  0
   -6.8100   21.5380  -31.4430 C   0  0  0  0  0  0  0  0  0  0  0  0
   -6.4890   22.7730  -30.8750 C   0  0  0  0  0  0  0  0  0  0  0  0
   -4.3072   21.8950  -27.4761 H   0  0  0  0  0  0  0  0  0  0  0  0
   -4.6699   22.8218  -28.9715 H   0  0  0  0  0  0  0  0  0  0  0  0
   -3.3585   21.5942  -28.9715 H   0  0  0  0  0  0  0  0  0  0  0  0
   -0.8391   24.5106  -24.8132 H   0  0  0  0  0  0  0  0  0  0  0  0
    0.4988   23.9500  -25.8727 H   0  0  0  0  0  0  0  0  0  0  0  0
    0.0182   25.6808  -25.8727 H   0  0  0  0  0  0  0  0  0  0  0  0
   -0.6453   26.9699  -27.2714 H   0  0  0  0  0  0  0  0  0  0  0  0
    0.0280   26.3073  -28.7993 H   0  0  0  0  0  0  0  0  0  0  0  0
   -1.5797   27.1087  -28.7993 H   0  0  0  0  0  0  0  0  0  0  0  0
   -3.2488   23.0433  -31.9288 H   0  0  0  0  0  0  0  0  0  0  0  0
   -3.8066   20.8278  -32.9244 H   0  0  0  0  0  0  0  0  0  0  0  0
   -4.8159   19.6859  -34.4507 H   0  0  0  0  0  0  0  0  0  0  0  0
   -5.4052   17.4562  -35.4154 H   0  0  0  0  0  0  0  0  0  0  0  0
   -7.1034   16.0256  -34.2640 H   0  0  0  0  0  0  0  0  0  0  0  0
   -7.6391   18.9775  -31.2395 H   0  0  0  0  0  0  0  0  0  0  0  0
   -7.8205   21.1235  -31.3123 H   0  0  0  0  0  0  0  0  0  0  0  0
   -7.2480   23.3248  -30.3010 H   0  0  0  0  0  0  0  0  0  0  0  0
  1  2  1  0
  2  3  2  0
  3  4  1  0
  4  5  1  0
  4  6  1  0
  6  7  1  0
  6  8  2  0
  8  9  1  0
  9 10  1  0
 10 11  2  0
 10 12  2  0
 10 13  1  0
 13 14  2  0
 14 15  1  0
 15 16  2  0
 16 17  1  0
 17 18  2  0
 18 19  1  0
 19 20  2  0
 20 21  1  0
 21 22  2  0
 16 23  1  0
 23 24  2  0
  8  2  1  0
 24 13  1  0
 22 17  1  0
  1 25  1  0
  1 26  1  0
  1 27  1  0
  5 28  1  0
  5 29  1  0
  5 30  1  0
  7 31  1  0
  7 32  1  0
  7 33  1  0
 14 34  1  0
 15 35  1  0
 18 36  1  0
 19 37  1  0
 20 38  1  0
 22 39  1  0
 23 40  1  0
 24 41  1  0
M  CHG  1   9  -1
M  END
>  <UniqueID>  (11) 
10

>  <SMILES>  (11) 
Cc1nn(C)c(C)c1[N-]S(=O)(=O)c1ccc(-c2cccnc2)cc1

>  <Energy>  (11) 
84.14846437941534

>  <Genealogy>  (11) 
Cc1nn(C)c(C)c1[N-]S(=O)(=O)c1ccc(-c2cccnc2)cc1 (protonated)
Cc1nn(C)c(C)c1[N-]S(=O)(=O)c1ccc(-c2cccnc2)cc1 (3D coordinates assigned)
Cc1nn(C)c(C)c1[N-]S(=O)(=O)c1ccc(-c2cccnc2)cc1 (optimized conformer: 84.14846437941534 kcal/mol)

>  <smiles>  (11) 
Cc1nn(C)c(C)c1NS(=O)(=O)c1ccc(-c2cccnc2)cc1

>  <score_type>  (11) 
oracle

>  <origin>  (11) 
adgpu

>  <m_score__min__energy>  (11) 
-9.5999999999999996

>  <m_primary>  (11) 
energy

$$$$
11:0
     RDKit          3D

 36 38  0  0  0  0  0  0  0  0999 V2000
   -4.5890   24.8120  -31.2160 N   0  0  0  0  0  0  0  0  0  0  0  0
   -4.0190   24.2350  -30.2170 C   0  0  0  0  0  0  0  0  0  0  0  0
   -2.9200   24.8270  -29.7160 N   0  0  0  0  0  0  0  0  0  0  0  0
   -2.2660   24.2880  -28.6740 C   0  0  0  0  0  0  0  0  0  0  0  0
   -1.1230   24.9520  -28.1950 N   0  0  0  0  0  0  0  0  0  0  0  0
   -0.7220   25.0100  -26.9810 C   0  0  0  0  0  0  0  0  0  0  0  0
    0.4400   25.7230  -26.7170 C   0  0  0  0  0  0  0  0  0  0  0  0
    0.9390   25.8340  -25.4400 C   0  0  0  0  0  0  0  0  0  0  0  0
    0.2790   25.2300  -24.4150 N   0  0  0  0  0  0  0  0  0  0  0  0
   -0.8610   24.5290  -24.6520 C   0  0  0  0  0  0  0  0  0  0  0  0
   -1.3820   24.4020  -25.9270 C   0  0  0  0  0  0  0  0  0  0  0  0
   -2.7280   23.1480  -28.1370 N   0  0  0  0  0  0  0  0  0  0  0  0
   -3.8350   22.5220  -28.6160 C   0  0  0  0  0  0  0  0  0  0  0  0
   -4.5170   23.0690  -29.6920 C   0  0  0  0  0  0  0  0  0  0  0  0
   -5.7070   22.4610  -30.2600 C   0  0  0  0  0  0  0  0  0  0  0  0
   -6.9950   22.8140  -29.8640 C   0  0  0  0  0  0  0  0  0  0  0  0
   -8.1010   22.1920  -30.4490 C   0  0  0  0  0  0  0  0  0  0  0  0
   -7.9080   21.2160  -31.4280 C   0  0  0  0  0  0  0  0  0  0  0  0
   -6.6230   20.8530  -31.8340 C   0  0  0  0  0  0  0  0  0  0  0  0
   -6.4030   19.8160  -32.8760 C   0  0  0  0  0  0  0  0  0  0  0  0
   -5.1800   20.0370  -33.4710 F   0  0  0  0  0  0  0  0  0  0  0  0
   -7.3940   19.9830  -33.8310 F   0  0  0  0  0  0  0  0  0  0  0  0
   -6.4610   18.5540  -32.3030 F   0  0  0  0  0  0  0  0  0  0  0  0
   -5.5410   21.4940  -31.2300 C   0  0  0  0  0  0  0  0  0  0  0  0
   -4.2240   25.6880  -31.6190 H   0  0  0  0  0  0  0  0  0  0  0  0
    0.9730   26.2096  -27.5471 H   0  0  0  0  0  0  0  0  0  0  0  0
    1.8603   26.4041  -25.2498 H   0  0  0  0  0  0  0  0  0  0  0  0
    0.6580   25.3120  -23.4300 H   0  0  0  0  0  0  0  0  0  0  0  0
   -1.3820   24.0510  -23.8093 H   0  0  0  0  0  0  0  0  0  0  0  0
   -2.3043   23.8281  -26.1003 H   0  0  0  0  0  0  0  0  0  0  0  0
   -2.2470   22.7050  -27.3310 H   0  0  0  0  0  0  0  0  0  0  0  0
   -4.1873   21.5882  -28.1534 H   0  0  0  0  0  0  0  0  0  0  0  0
   -7.1414   23.5825  -29.0907 H   0  0  0  0  0  0  0  0  0  0  0  0
   -9.1192   22.4702  -30.1394 H   0  0  0  0  0  0  0  0  0  0  0  0
   -8.7803   20.7264  -31.8856 H   0  0  0  0  0  0  0  0  0  0  0  0
   -4.5212   21.2192  -31.5375 H   0  0  0  0  0  0  0  0  0  0  0  0
  1  2  2  3
  2  3  1  0
  3  4  2  0
  4  5  1  0
  5  6  2  3
  6  7  1  0
  7  8  2  0
  8  9  1  0
  9 10  1  0
 10 11  2  0
  4 12  1  0
 12 13  1  0
 13 14  2  0
 14 15  1  0
 15 16  2  0
 16 17  1  0
 17 18  2  0
 18 19  1  0
 19 20  1  0
 20 21  1  0
 20 22  1  0
 20 23  1  0
 19 24  2  0
 14  2  1  0
 24 15  1  0
 11  6  1  0
  1 25  1  0
  7 26  1  0
  8 27  1  0
  9 28  1  0
 10 29  1  0
 11 30  1  0
 12 31  1  0
 13 32  1  0
 16 33  1  0
 17 34  1  0
 18 35  1  0
 24 36  1  0
M  END
>  <smiles>  (12) 
N=c1nc(N=c2cc[nH]cc2)[nH]cc1-c1cccc(C(F)(F)F)c1

>  <score_type>  (12) 
oracle

>  <origin>  (12) 
adgpu

>  <m_score__min__energy>  (12) 
-7.9800000000000004

>  <m_primary>  (12) 
energy

$$$$
12:0
     RDKit          3D

 28 28  0  0  0  0  0  0  0  0999 V2000
   -2.9160   21.4300  -30.5060 C   0  0  0  0  0  0  0  0  0  0  0  0
   -4.1460   20.6210  -30.9170 C   0  0  0  0  0  0  0  0  0  0  0  0
   -5.0820   21.4600  -31.7000 N   0  0  0  0  0  0  0  0  0  0  0  0
   -5.3700   20.8220  -33.0060 C   0  0  0  0  0  0  0  0  0  0  0  0
   -6.7200   20.1060  -33.0110 C   0  0  0  0  0  0  0  0  0  0  0  0
   -4.5450   22.8360  -31.8650 C   0  0  0  0  0  0  0  0  0  0  0  0
   -5.2990   23.7800  -31.0400 N   0  0  0  0  0  0  0  0  0  0  0  0
   -4.8310   24.8990  -30.4510 C   0  0  0  0  0  0  0  0  0  0  0  0
   -3.5000   25.3000  -30.4820 O   0  0  0  0  0  0  0  0  0  0  0  0
   -5.8460   25.5940  -29.8270 C   0  0  0  0  0  0  0  0  0  0  0  0
   -7.0040   24.8750  -30.0620 C   0  0  0  0  0  0  0  0  0  0  0  0
   -6.6290   23.7790  -30.8180 C   0  0  0  0  0  0  0  0  0  0  0  0
   -7.4960   22.8010  -31.2980 O   0  0  0  0  0  0  0  0  0  0  0  0
   -2.8539   21.4708  -29.4085 H   0  0  0  0  0  0  0  0  0  0  0  0
   -2.0109   20.9503  -30.9069 H   0  0  0  0  0  0  0  0  0  0  0  0
   -2.9980   22.4511  -30.9069 H   0  0  0  0  0  0  0  0  0  0  0  0
   -3.8277   19.7651  -31.5303 H   0  0  0  0  0  0  0  0  0  0  0  0
   -4.6587   20.2684  -30.0099 H   0  0  0  0  0  0  0  0  0  0  0  0
   -5.3771   21.5978  -33.7858 H   0  0  0  0  0  0  0  0  0  0  0  0
   -4.5882   20.0719  -33.1962 H   0  0  0  0  0  0  0  0  0  0  0  0
   -7.0469   19.9326  -31.9751 H   0  0  0  0  0  0  0  0  0  0  0  0
   -7.4633   20.7284  -33.5307 H   0  0  0  0  0  0  0  0  0  0  0  0
   -6.6216   19.1415  -33.5307 H   0  0  0  0  0  0  0  0  0  0  0  0
   -3.4883   22.8517  -31.5599 H   0  0  0  0  0  0  0  0  0  0  0  0
   -4.6381   23.1312  -32.9206 H   0  0  0  0  0  0  0  0  0  0  0  0
   -5.7533   26.5306  -29.2576 H   0  0  0  0  0  0  0  0  0  0  0  0
   -8.0184   25.1244  -29.7173 H   0  0  0  0  0  0  0  0  0  0  0  0
   -7.1860   21.8430  -31.4100 H   0  0  0  0  0  0  0  0  0  0  0  0
  1  2  1  0
  2  3  1  0
  3  4  1  0
  4  5  1  0
  3  6  1  0
  6  7  1  0
  7  8  1  0
  8  9  1  0
  8 10  2  0
 10 11  1  0
 11 12  2  0
 12 13  1  0
 12  7  1  0
  1 14  1  0
  1 15  1  0
  1 16  1  0
  2 17  1  0
  2 18  1  0
  4 19  1  0
  4 20  1  0
  5 21  1  0
  5 22  1  0
  5 23  1  0
  6 24  1  0
  6 25  1  0
 10 26  1  0
 11 27  1  0
 13 28  1  0
M  CHG  1   9  -1
M  END
>  <UniqueID>  (13) 
11

>  <SMILES>  (13) 
CCN(CC)Cn1c([O-])ccc1O

>  <Energy>  (13) 
51.953594890937815

>  <Genealogy>  (13) 
CCN(CC)Cn1c([O-])ccc1O (protonated)
CCN(CC)Cn1c([O-])ccc1O (3D coordinates assigned)
CCN(CC)Cn1c([O-])ccc1O (optimized conformer: 51.953594890937815 kcal/mol)

>  <smiles>  (13) 
CCN(CC)Cn1c(O)ccc1O

>  <score_type>  (13) 
oracle

>  <origin>  (13) 
adgpu

>  <m_score__min__energy>  (13) 
-6.71

>  <m_primary>  (13) 
energy

$$$$
13:0
     RDKit          3D

 30 31  0  0  0  0  0  0  0  0999 V2000
   -1.5140   25.7160  -28.9910 N   0  0  0  0  0  0  0  0  0  0  0  0
   -2.4930   24.4640  -28.3130 S   0  0  0  0  0  0  0  0  0  0  0  0
   -3.1560   24.9670  -27.0610 O   0  0  0  0  0  0  0  0  0  0  0  0
   -1.6280   23.2880  -27.9600 O   0  0  0  0  0  0  0  0  0  0  0  0
   -3.7170   23.9790  -29.4810 C   0  0  0  0  0  0  0  0  0  0  0  0
   -4.5530   24.9380  -30.0660 C   0  0  0  0  0  0  0  0  0  0  0  0
   -5.5190   24.5550  -31.0010 C   0  0  0  0  0  0  0  0  0  0  0  0
   -5.6660   23.2080  -31.3550 C   0  0  0  0  0  0  0  0  0  0  0  0
   -6.6630   22.8520  -32.3240 N   0  0  0  0  0  0  0  0  0  0  0  0
   -7.5760   21.7480  -32.2360 C   0  0  0  0  0  0  0  0  0  0  0  0
   -8.7330   21.9560  -31.7830 O   0  0  0  0  0  0  0  0  0  0  0  0
   -7.1890   20.3720  -32.6260 C   0  0  0  0  0  0  0  0  0  0  0  0
   -8.0530   19.3050  -32.3260 C   0  0  0  0  0  0  0  0  0  0  0  0
   -7.7240   17.9990  -32.6980 C   0  0  0  0  0  0  0  0  0  0  0  0
   -6.5240   17.7440  -33.3660 C   0  0  0  0  0  0  0  0  0  0  0  0
   -5.6470   18.7910  -33.6510 C   0  0  0  0  0  0  0  0  0  0  0  0
   -5.9650   20.1050  -33.2760 C   0  0  0  0  0  0  0  0  0  0  0  0
   -5.0590   21.1350  -33.5290 O   0  0  0  0  0  0  0  0  0  0  0  0
   -4.8050   22.2500  -30.7910 C   0  0  0  0  0  0  0  0  0  0  0  0
   -3.8400   22.6340  -29.8570 C   0  0  0  0  0  0  0  0  0  0  0  0
   -1.6170   25.6560  -30.0280 H   0  0  0  0  0  0  0  0  0  0  0  0
   -4.4491   25.9974  -29.7886 H   0  0  0  0  0  0  0  0  0  0  0  0
   -6.1670   25.3155  -31.4611 H   0  0  0  0  0  0  0  0  0  0  0  0
   -8.9959   19.4996  -31.7940 H   0  0  0  0  0  0  0  0  0  0  0  0
   -8.4101   17.1714  -32.4648 H   0  0  0  0  0  0  0  0  0  0  0  0
   -6.2703   16.7170  -33.6675 H   0  0  0  0  0  0  0  0  0  0  0  0
   -4.7008   18.5850  -34.1727 H   0  0  0  0  0  0  0  0  0  0  0  0
   -5.3350   22.1080  -33.4840 H   0  0  0  0  0  0  0  0  0  0  0  0
   -4.8917   21.1940  -31.0865 H   0  0  0  0  0  0  0  0  0  0  0  0
   -3.1741   21.8783  -29.4148 H   0  0  0  0  0  0  0  0  0  0  0  0
  1  2  1  0
  2  3  2  0
  2  4  2  0
  2  5  1  0
  5  6  2  0
  6  7  1  0
  7  8  2  0
  8  9  1  0
  9 10  1  0
 10 11  2  0
 10 12  1  0
 12 13  2  0
 13 14  1  0
 14 15  2  0
 15 16  1  0
 16 17  2  0
 17 18  1  0
  8 19  1  0
 19 20  2  0
 20  5  1  0
 17 12  1  0
  1 21  1  0
  6 22  1  0
  7 23  1  0
 13 24  1  0
 14 25  1  0
 15 26  1  0
 16 27  1  0
 18 28  1  0
 19 29  1  0
 20 30  1  0
M  CHG  2   1  -1   9  -1
M  END
>  <UniqueID>  (14) 
12

>  <SMILES>  (14) 
[NH-]S(=O)(=O)c1ccc([N-]C(=O)c2ccccc2O)cc1

>  <Energy>  (14) 
38.381608098151055

>  <Genealogy>  (14) 
[NH-]S(=O)(=O)c1ccc([N-]C(=O)c2ccccc2O)cc1 (protonated)
[NH-]S(=O)(=O)c1ccc([N-]C(=O)c2ccccc2O)cc1 (3D coordinates assigned)
[NH-]S(=O)(=O)c1ccc([N-]C(=O)c2ccccc2O)cc1 (optimized conformer: 38.381608098151055 kcal/mol)

>  <smiles>  (14) 
NS(=O)(=O)c1ccc(NC(=O)c2ccccc2O)cc1

>  <score_type>  (14) 
oracle

>  <origin>  (14) 
adgpu

>  <m_score__min__energy>  (14) 
-9.8800000000000008

>  <m_primary>  (14) 
energy

$$$$
14:0
     RDKit          3D

 44 46  0  0  1  0  0  0  0  0999 V2000
   -5.4050   26.0770  -30.4720 C   0  0  0  0  0  0  0  0  0  0  0  0
   -4.0570   25.6460  -30.4840 O   0  0  0  0  0  0  0  0  0  0  0  0
   -3.6750   24.4250  -29.9460 C   0  0  0  0  0  0  0  0  0  0  0  0
   -2.8940   24.4250  -28.8100 C   0  0  0  0  0  0  0  0  0  0  0  0
   -2.4900   23.2720  -28.2410 N   0  0  0  0  0  0  0  0  0  0  0  0
   -2.8740   22.1190  -28.8150 C   0  0  0  0  0  0  0  0  0  0  0  0
   -2.4340   20.8690  -28.1920 C   0  0  0  0  0  0  0  0  0  0  0  0
   -2.9810   20.1850  -27.1430 C   0  0  0  0  0  0  0  0  0  0  0  0
   -2.4000   19.0550  -26.7450 C   0  0  0  0  0  0  0  0  0  0  0  0
   -2.9010   18.1990  -25.5980 C   0  0  0  0  0  0  0  0  0  0  0  0
   -1.2600   18.6510  -27.4380 C   0  0  0  0  0  0  0  0  0  0  0  0
   -1.0370   19.9380  -28.6880 S   0  0  0  0  0  0  0  0  0  0  0  0
   -3.6360   22.0620  -29.9230 N   0  0  0  0  0  0  0  0  0  0  0  0
   -4.0410   23.2140  -30.4950 C   0  0  0  0  0  0  0  0  0  0  0  0
   -4.7630   23.2020  -31.5440 N   0  0  0  0  0  0  0  0  0  0  0  0
   -5.1840   21.9980  -32.1760 C   0  0  0  0  0  0  0  0  0  0  0  0
   -4.2010   21.1890  -32.7160 C   0  0  0  0  0  0  0  0  0  0  0  0
   -4.5560   19.9970  -33.3480 C   0  0  0  0  0  0  0  0  0  0  0  0
   -5.8900   19.6050  -33.4440 C   0  0  0  0  0  0  0  0  0  0  0  0
   -6.1790   18.3760  -34.1010 N   0  0  0  0  0  0  0  0  0  0  0  0
   -6.0400   16.9080  -33.1960 S   0  0  0  0  0  0  0  0  0  0  0  0
   -4.3050   16.4520  -33.1950 C   0  0  0  0  0  0  0  0  0  0  0  0
   -6.8630   15.8310  -33.8340 O   0  0  0  0  0  0  0  0  0  0  0  0
   -6.4720   17.0740  -31.7870 O   0  0  0  0  0  0  0  0  0  0  0  0
   -6.8190   20.4330  -32.8980 C   0  0  0  0  0  0  0  0  0  0  0  0
   -6.5120   21.6260  -32.2610 C   0  0  0  0  0  0  0  0  0  0  0  0
   -5.7459   26.1860  -29.4318 H   0  0  0  0  0  0  0  0  0  0  0  0
   -5.4849   27.0455  -30.9874 H   0  0  0  0  0  0  0  0  0  0  0  0
   -6.0320   25.3345  -30.9874 H   0  0  0  0  0  0  0  0  0  0  0  0
   -2.5952   25.3832  -28.3599 H   0  0  0  0  0  0  0  0  0  0  0  0
   -1.9010   23.3200  -27.3830 H   0  0  0  0  0  0  0  0  0  0  0  0
   -3.8831   20.5604  -26.6376 H   0  0  0  0  0  0  0  0  0  0  0  0
   -2.6259   18.6691  -24.6423 H   0  0  0  0  0  0  0  0  0  0  0  0
   -3.9954   18.1072  -25.6598 H   0  0  0  0  0  0  0  0  0  0  0  0
   -2.4451   17.1998  -25.6598 H   0  0  0  0  0  0  0  0  0  0  0  0
   -0.6411   17.7583  -27.2649 H   0  0  0  0  0  0  0  0  0  0  0  0
   -3.1435   21.4841  -32.6475 H   0  0  0  0  0  0  0  0  0  0  0  0
   -3.7711   19.3568  -33.7771 H   0  0  0  0  0  0  0  0  0  0  0  0
   -6.4720   18.3540  -35.1150 H   0  0  0  0  0  0  0  0  0  0  0  0
   -3.9509   16.3589  -32.1577 H   0  0  0  0  0  0  0  0  0  0  0  0
   -4.1784   15.4901  -33.7133 H   0  0  0  0  0  0  0  0  0  0  0  0
   -3.7218   17.2274  -33.7133 H   0  0  0  0  0  0  0  0  0  0  0  0
   -7.8770   20.1396  -32.9653 H   0  0  0  0  0  0  0  0  0  0  0  0
   -7.3043   22.2590  -31.8349 H   0  0  0  0  0  0  0  0  0  0  0  0
  1  2  1  0
  2  3  1  0
  3  4  2  0
  4  5  1  0
  5  6  1  0
  6  7  1  0
  7  8  2  0
  8  9  1  0
  9 10  1  0
  9 11  2  0
 11 12  1  0
  6 13  2  0
 13 14  1  0
 14 15  2  0
 15 16  1  0
 16 17  2  0
 17 18  1  0
 18 19  2  0
 19 20  1  0
 20 21  1  0
 21 22  1  0
 21 23  2  0
 21 24  2  0
 19 25  1  0
 25 26  2  0
 14  3  1  0
 26 16  1  0
 12  7  1  0
  1 27  1  0
  1 28  1  0
  1 29  1  0
  4 30  1  0
  5 31  1  0
  8 32  1  0
 10 33  1  0
 10 34  1  0
 10 35  1  0
 11 36  1  0
 17 37  1  0
 18 38  1  0
 20 39  1  0
 22 40  1  0
 22 41  1  0
 22 42  1  0
 25 43  1  0
 26 44  1  0
M  END
>  <smiles>  (15) 
COc1c[nH]c(-c2cc(C)cs2)nc1=Nc1ccc(NS(C)(=O)=O)cc1

>  <score_type>  (15) 
oracle

>  <origin>  (15) 
adgpu

>  <m_score__min__energy>  (15) 
-8.9299999999999997

>  <m_primary>  (15) 
energy

$$$$
15:0
     RDKit          3D

 37 39  0  0  0  0  0  0  0  0999 V2000
   -5.4220   19.0020  -34.0480 H   0  0  0  0  0  0  0  0  0  0  0  0
   -6.3770   19.3020  -33.7460 N   0  0  0  0  0  0  0  0  0  0  0  0
   -6.5580   20.3730  -33.0450 C   0  0  0  0  0  0  0  0  0  0  0  0
   -5.4970   21.1420  -32.6810 N   0  0  0  0  0  0  0  0  0  0  0  0
   -5.6710   22.2710  -31.9450 C   0  0  0  0  0  0  0  0  0  0  0  0
   -4.5690   23.0520  -31.5770 C   0  0  0  0  0  0  0  0  0  0  0  0
   -3.5585   22.7566  -31.8956 H   0  0  0  0  0  0  0  0  0  0  0  0
   -4.7460   24.2080  -30.8050 C   0  0  0  0  0  0  0  0  0  0  0  0
   -3.5920   24.9920  -30.4710 N   0  0  0  0  0  0  0  0  0  0  0  0
   -2.7370   24.8060  -29.3350 C   0  0  0  0  0  0  0  0  0  0  0  0
   -1.6350   25.4120  -29.2500 O   0  0  0  0  0  0  0  0  0  0  0  0
   -3.1640   23.8850  -28.2370 C   0  0  0  0  0  0  0  0  0  0  0  0
   -2.8694   24.3121  -27.2670 H   0  0  0  0  0  0  0  0  0  0  0  0
   -4.2565   23.7612  -28.2714 H   0  0  0  0  0  0  0  0  0  0  0  0
   -2.5070   22.5440  -28.4120 C   0  0  0  0  0  0  0  0  0  0  0  0
   -3.0320   21.4100  -27.7740 C   0  0  0  0  0  0  0  0  0  0  0  0
   -3.9449   21.4976  -27.1667 H   0  0  0  0  0  0  0  0  0  0  0  0
   -2.4010   20.1690  -27.9060 C   0  0  0  0  0  0  0  0  0  0  0  0
   -2.8246   19.2833  -27.4098 H   0  0  0  0  0  0  0  0  0  0  0  0
   -1.2250   20.0490  -28.6720 C   0  0  0  0  0  0  0  0  0  0  0  0
   -0.5550   18.8270  -28.8350 O   0  0  0  0  0  0  0  0  0  0  0  0
    0.1890   18.1750  -27.8100 C   0  0  0  0  0  0  0  0  0  0  0  0
   -0.1807   18.4990  -26.8260 H   0  0  0  0  0  0  0  0  0  0  0  0
    0.0692   17.0858  -27.9063 H   0  0  0  0  0  0  0  0  0  0  0  0
    1.2531   18.4367  -27.9063 H   0  0  0  0  0  0  0  0  0  0  0  0
   -0.6980   21.1850  -29.2950 C   0  0  0  0  0  0  0  0  0  0  0  0
    0.2210   21.1013  -29.8936 H   0  0  0  0  0  0  0  0  0  0  0  0
   -1.3280   22.4250  -29.1640 C   0  0  0  0  0  0  0  0  0  0  0  0
   -0.8981   23.3120  -29.6524 H   0  0  0  0  0  0  0  0  0  0  0  0
   -6.0460   24.6000  -30.4350 C   0  0  0  0  0  0  0  0  0  0  0  0
   -6.1943   25.5233  -29.8558 H   0  0  0  0  0  0  0  0  0  0  0  0
   -7.1510   23.8230  -30.7990 C   0  0  0  0  0  0  0  0  0  0  0  0
   -8.1631   24.1286  -30.4952 H   0  0  0  0  0  0  0  0  0  0  0  0
   -6.9670   22.6550  -31.5510 C   0  0  0  0  0  0  0  0  0  0  0  0
   -8.0420   21.8500  -31.9380 C   0  0  0  0  0  0  0  0  0  0  0  0
   -9.0674   22.1223  -31.6476 H   0  0  0  0  0  0  0  0  0  0  0  0
   -7.8170   20.7300  -32.6740 N   0  0  0  0  0  0  0  0  0  0  0  0
  1  2  1  0
  2  3  2  0
  3  4  1  0
  4  5  2  0
  5  6  1  0
  6  7  1  0
  6  8  2  0
  8  9  1  0
  9 10  1  0
 10 11  2  0
 10 12  1  0
 12 13  1  0
 12 14  1  0
 12 15  1  0
 15 16  2  0
 16 17  1  0
 16 18  1  0
 18 19  1  0
 18 20  2  0
 20 21  1  0
 21 22  1  0
 22 23  1  0
 22 24  1  0
 22 25  1  0
 20 26  1  0
 26 27  1  0
 26 28  2  0
 28 29  1  0
  8 30  1  0
 30 31  1  0
 30 32  2  0
 32 33  1  0
 32 34  1  0
 34 35  2  0
 35 36  1  0
 35 37  1  0
 37  3  1  0
 34  5  1  0
 28 15  1  0
M  CHG  2   9  -1  37  -1
M  END
>  <UniqueID>  (16) 
13

>  <SMILES>  (16) 
[H]/N=c1\nc2cc([N-]C(=O)Cc3ccc(OC)cc3)ccc2c[n-]1

>  <Energy>  (16) 
43.5753338198482

>  <Genealogy>  (16) 
COc1ccc(CC(=O)[N-]c2ccc3c[n-]c(=N)nc3c2)cc1 (protonated)
[H]/N=c1\nc2cc([N-]C(=O)Cc3ccc(OC)cc3)ccc2c[n-]1 (cis-trans isomerization)
[H]/N=c1\nc2cc([N-]C(=O)Cc3ccc(OC)cc3)ccc2c[n-]1 (3D coordinates assigned)
[H]/N=c1\nc2cc([N-]C(=O)Cc3ccc(OC)cc3)ccc2c[n-]1 (optimized conformer: 43.5753338198482 kcal/mol)

>  <smiles>  (16) 
COc1ccc(CC(=O)Nc2ccc3c[nH]c(=N)nc3c2)cc1

>  <score_type>  (16) 
oracle

>  <origin>  (16) 
adgpu

>  <m_score__min__energy>  (16) 
-9.5700000000000003

>  <m_primary>  (16) 
energy

$$$$
16:0
     RDKit          3D

 38 40  0  0  0  0  0  0  0  0999 V2000
   -4.3680   23.0780  -28.1540 C   0  0  0  0  0  0  0  0  0  0  0  0
   -4.3190   24.0310  -29.3020 C   0  0  0  0  0  0  0  0  0  0  0  0
   -3.1890   24.4950  -29.8610 N   0  0  0  0  0  0  0  0  0  0  0  0
   -3.5750   25.2970  -30.8150 O   0  0  0  0  0  0  0  0  0  0  0  0
   -4.8700   25.3960  -30.9280 N   0  0  0  0  0  0  0  0  0  0  0  0
   -5.3790   24.5950  -29.9760 C   0  0  0  0  0  0  0  0  0  0  0  0
   -6.8420   24.4010  -29.7250 C   0  0  0  0  0  0  0  0  0  0  0  0
   -7.2610   23.0750  -30.1740 N   0  0  0  0  0  0  0  0  0  0  0  0
   -7.0540   22.6230  -31.5230 C   0  0  0  0  0  0  0  0  0  0  0  0
   -6.5970   23.4240  -32.3840 O   0  0  0  0  0  0  0  0  0  0  0  0
   -7.3880   21.2360  -31.9270 C   0  0  0  0  0  0  0  0  0  0  0  0
   -8.3940   20.5080  -31.2670 C   0  0  0  0  0  0  0  0  0  0  0  0
   -8.6850   19.1960  -31.6500 C   0  0  0  0  0  0  0  0  0  0  0  0
   -7.9790   18.5960  -32.6940 C   0  0  0  0  0  0  0  0  0  0  0  0
   -6.9780   19.3090  -33.3740 C   0  0  0  0  0  0  0  0  0  0  0  0
   -6.2150   18.7010  -34.4300 N   0  0  0  0  0  0  0  0  0  0  0  0
   -4.8750   18.2010  -34.2810 C   0  0  0  0  0  0  0  0  0  0  0  0
   -3.8600   19.0580  -33.8330 C   0  0  0  0  0  0  0  0  0  0  0  0
   -2.5510   18.5890  -33.7120 C   0  0  0  0  0  0  0  0  0  0  0  0
   -2.2630   17.2670  -34.0570 C   0  0  0  0  0  0  0  0  0  0  0  0
   -3.2510   16.4530  -34.5150 N   0  0  0  0  0  0  0  0  0  0  0  0
   -4.5340   16.8850  -34.6380 C   0  0  0  0  0  0  0  0  0  0  0  0
   -6.6730   20.6180  -32.9690 C   0  0  0  0  0  0  0  0  0  0  0  0
   -4.3391   23.6404  -27.2091 H   0  0  0  0  0  0  0  0  0  0  0  0
   -5.2975   22.4918  -28.2035 H   0  0  0  0  0  0  0  0  0  0  0  0
   -3.5036   22.3996  -28.2035 H   0  0  0  0  0  0  0  0  0  0  0  0
   -7.0418   24.4995  -28.6478 H   0  0  0  0  0  0  0  0  0  0  0  0
   -7.4055   25.1630  -30.2834 H   0  0  0  0  0  0  0  0  0  0  0  0
   -7.7700   22.4700  -29.4920 H   0  0  0  0  0  0  0  0  0  0  0  0
   -8.9554   20.9743  -30.4440 H   0  0  0  0  0  0  0  0  0  0  0  0
   -9.4730   18.6342  -31.1271 H   0  0  0  0  0  0  0  0  0  0  0  0
   -8.2076   17.5602  -32.9855 H   0  0  0  0  0  0  0  0  0  0  0  0
   -6.6660   18.6110  -35.3690 H   0  0  0  0  0  0  0  0  0  0  0  0
   -4.0955   20.1014  -33.5765 H   0  0  0  0  0  0  0  0  0  0  0  0
   -1.7540   19.2543  -33.3484 H   0  0  0  0  0  0  0  0  0  0  0  0
   -1.2366   16.8840  -33.9582 H   0  0  0  0  0  0  0  0  0  0  0  0
   -5.3081   16.2022  -35.0183 H   0  0  0  0  0  0  0  0  0  0  0  0
   -5.8644   21.1677  -33.4730 H   0  0  0  0  0  0  0  0  0  0  0  0
  1  2  1  0
  2  3  2  0
  3  4  1  0
  4  5  1  0
  5  6  2  0
  6  7  1  0
  7  8  1  0
  8  9  1  0
  9 10  2  0
  9 11  1  0
 11 12  2  0
 12 13  1  0
 13 14  2  0
 14 15  1  0
 15 16  1  0
 16 17  1  0
 17 18  2  0
 18 19  1  0
 19 20  2  0
 20 21  1  0
 21 22  2  0
 15 23  2  0
  6  2  1  0
 23 11  1  0
 22 17  1  0
  1 24  1  0
  1 25  1  0
  1 26  1  0
  7 27  1  0
  7 28  1  0
  8 29  1  0
 12 30  1  0
 13 31  1  0
 14 32  1  0
 16 33  1  0
 18 34  1  0
 19 35  1  0
 20 36  1  0
 22 37  1  0
 23 38  1  0
M  END
>  <UniqueID>  (17) 
14

>  <SMILES>  (17) 
Cc1nonc1CNC(=O)c1cccc(Nc2cccnc2)c1

>  <Energy>  (17) 
79.82604444374635

>  <Genealogy>  (17) 
Cc1nonc1CNC(=O)c1cccc(Nc2cccnc2)c1 (3D coordinates assigned)
Cc1nonc1CNC(=O)c1cccc(Nc2cccnc2)c1 (optimized conformer: 79.82604444374635 kcal/mol)

>  <smiles>  (17) 
Cc1nonc1CNC(=O)c1cccc(Nc2cccnc2)c1

>  <score_type>  (17) 
oracle

>  <origin>  (17) 
adgpu

>  <m_score__min__energy>  (17) 
-9.4299999999999997

>  <m_primary>  (17) 
energy

$$$$
17:0
     RDKit          3D

 50 52  0  0  0  0  0  0  0  0999 V2000
   -0.1390   15.9110  -31.8230 C   0  0  0  0  0  0  0  0  0  0  0  0
   -0.0230   16.7740  -32.9440 O   0  0  0  0  0  0  0  0  0  0  0  0
   -0.7770   17.9500  -33.1330 C   0  0  0  0  0  0  0  0  0  0  0  0
   -0.4640   19.1560  -32.4690 C   0  0  0  0  0  0  0  0  0  0  0  0
   -1.2420   20.3030  -32.6710 C   0  0  0  0  0  0  0  0  0  0  0  0
   -2.3270   20.2640  -33.5470 C   0  0  0  0  0  0  0  0  0  0  0  0
   -2.6460   19.0750  -34.2120 C   0  0  0  0  0  0  0  0  0  0  0  0
   -1.8850   17.9070  -33.9970 C   0  0  0  0  0  0  0  0  0  0  0  0
   -2.2390   16.6530  -34.6150 N   0  0  0  0  0  0  0  0  0  0  0  0
   -3.4020   15.5480  -33.9630 S   0  0  0  0  0  0  0  0  0  0  0  0
   -3.7600   14.5310  -35.0110 O   0  0  0  0  0  0  0  0  0  0  0  0
   -2.8130   14.8450  -32.7730 O   0  0  0  0  0  0  0  0  0  0  0  0
   -4.8240   16.4480  -33.4390 C   0  0  0  0  0  0  0  0  0  0  0  0
   -6.1060   16.0630  -33.8510 C   0  0  0  0  0  0  0  0  0  0  0  0
   -7.2160   16.8330  -33.4950 C   0  0  0  0  0  0  0  0  0  0  0  0
   -7.0520   17.9870  -32.7240 C   0  0  0  0  0  0  0  0  0  0  0  0
   -5.7730   18.3700  -32.2810 C   0  0  0  0  0  0  0  0  0  0  0  0
   -5.5710   19.5660  -31.5080 N   0  0  0  0  0  0  0  0  0  0  0  0
   -5.7810   20.8950  -32.0170 C   0  0  0  0  0  0  0  0  0  0  0  0
   -6.6250   21.0810  -32.9380 O   0  0  0  0  0  0  0  0  0  0  0  0
   -5.0470   22.0590  -31.4520 C   0  0  0  0  0  0  0  0  0  0  0  0
   -3.6990   21.9300  -31.0810 C   0  0  0  0  0  0  0  0  0  0  0  0
   -3.0080   23.0030  -30.4990 C   0  0  0  0  0  0  0  0  0  0  0  0
   -1.5780   22.8330  -30.0680 C   0  0  0  0  0  0  0  0  0  0  0  0
   -3.6640   24.2290  -30.2990 C   0  0  0  0  0  0  0  0  0  0  0  0
   -2.9890   25.2920  -29.7030 O   0  0  0  0  0  0  0  0  0  0  0  0
   -5.0030   24.3830  -30.6970 C   0  0  0  0  0  0  0  0  0  0  0  0
   -5.7220   25.6810  -30.4620 C   0  0  0  0  0  0  0  0  0  0  0  0
   -5.6920   23.2920  -31.2480 C   0  0  0  0  0  0  0  0  0  0  0  0
   -4.6620   17.5990  -32.6560 C   0  0  0  0  0  0  0  0  0  0  0  0
   -0.0599   16.4998  -30.8972 H   0  0  0  0  0  0  0  0  0  0  0  0
   -1.1137   15.4019  -31.8515 H   0  0  0  0  0  0  0  0  0  0  0  0
    0.6666   15.1626  -31.8515 H   0  0  0  0  0  0  0  0  0  0  0  0
    0.3983   19.1951  -31.7872 H   0  0  0  0  0  0  0  0  0  0  0  0
   -0.9976   21.2343  -32.1391 H   0  0  0  0  0  0  0  0  0  0  0  0
   -2.9315   21.1676  -33.7148 H   0  0  0  0  0  0  0  0  0  0  0  0
   -3.4973   19.0509  -34.9082 H   0  0  0  0  0  0  0  0  0  0  0  0
   -6.2390   15.1536  -34.4554 H   0  0  0  0  0  0  0  0  0  0  0  0
   -8.2216   16.5302  -33.8224 H   0  0  0  0  0  0  0  0  0  0  0  0
   -7.9277   18.5991  -32.4622 H   0  0  0  0  0  0  0  0  0  0  0  0
   -5.3800   19.4590  -30.4850 H   0  0  0  0  0  0  0  0  0  0  0  0
   -3.1784   20.9757  -31.2488 H   0  0  0  0  0  0  0  0  0  0  0  0
   -1.5245   22.8266  -28.9693 H   0  0  0  0  0  0  0  0  0  0  0  0
   -1.1876   21.8821  -30.4596 H   0  0  0  0  0  0  0  0  0  0  0  0
   -0.9755   23.6658  -30.4596 H   0  0  0  0  0  0  0  0  0  0  0  0
   -5.8189   25.8559  -29.3803 H   0  0  0  0  0  0  0  0  0  0  0  0
   -5.1511   26.5040  -30.9168 H   0  0  0  0  0  0  0  0  0  0  0  0
   -6.7224   25.6336  -30.9168 H   0  0  0  0  0  0  0  0  0  0  0  0
   -6.7510   23.4025  -31.5242 H   0  0  0  0  0  0  0  0  0  0  0  0
   -3.6549   17.9008  -32.3324 H   0  0  0  0  0  0  0  0  0  0  0  0
  1  2  1  0
  2  3  1  0
  3  4  2  0
  4  5  1  0
  5  6  2  0
  6  7  1  0
  7  8  2  0
  8  9  1  0
  9 10  1  0
 10 11  2  0
 10 12  2  0
 10 13  1  0
 13 14  2  0
 14 15  1  0
 15 16  2  0
 16 17  1  0
 17 18  1  0
 18 19  1  0
 19 20  2  0
 19 21  1  0
 21 22  2  0
 22 23  1  0
 23 24  1  0
 23 25  2  0
 25 26  1  0
 25 27  1  0
 27 28  1  0
 27 29  2  0
 17 30  2  0
  8  3  1  0
 30 13  1  0
 29 21  1  0
  1 31  1  0
  1 32  1  0
  1 33  1  0
  4 34  1  0
  5 35  1  0
  6 36  1  0
  7 37  1  0
 14 38  1  0
 15 39  1  0
 16 40  1  0
 18 41  1  0
 22 42  1  0
 24 43  1  0
 24 44  1  0
 24 45  1  0
 28 46  1  0
 28 47  1  0
 28 48  1  0
 29 49  1  0
 30 50  1  0
M  CHG  2   9  -1  26  -1
M  END
>  <UniqueID>  (18) 
15

>  <SMILES>  (18) 
COc1ccccc1[N-]S(=O)(=O)c1cccc(NC(=O)c2cc(C)c([O-])c(C)c2)c1

>  <Energy>  (18) 
61.408219300247936

>  <Genealogy>  (18) 
COc1ccccc1[N-]S(=O)(=O)c1cccc(NC(=O)c2cc(C)c([O-])c(C)c2)c1 (protonated)
COc1ccccc1[N-]S(=O)(=O)c1cccc(NC(=O)c2cc(C)c([O-])c(C)c2)c1 (3D coordinates assigned)
COc1ccccc1[N-]S(=O)(=O)c1cccc(NC(=O)c2cc(C)c([O-])c(C)c2)c1 (optimized conformer: 61.408219300247936 kcal/mol)

>  <smiles>  (18) 
COc1ccccc1NS(=O)(=O)c1cccc(NC(=O)c2cc(C)c(O)c(C)c2)c1

>  <score_type>  (18) 
oracle

>  <origin>  (18) 
adgpu

>  <m_score__min__energy>  (18) 
-11.25

>  <m_primary>  (18) 
energy

$$$$
18:0
     RDKit          3D

 48 50  0  0  1  0  0  0  0  0999 V2000
   -6.3290   22.9850  -29.6990 C   0  0  0  0  0  0  0  0  0  0  0  0
   -5.0850   23.3880  -28.9530 C   0  0  0  0  0  0  0  0  0  0  0  0
   -3.9200   24.0340  -30.1280 S   0  0  1  0  0  0  0  0  0  0  0  0
   -4.6060   25.1060  -31.0340 N   0  0  0  0  0  0  0  0  0  0  0  0
   -2.7590   24.7270  -29.4730 O   0  0  0  0  0  0  0  0  0  0  0  0
   -3.3600   22.7450  -31.1880 C   0  0  0  0  0  0  0  0  0  0  0  0
   -4.0830   22.4600  -32.3540 C   0  0  0  0  0  0  0  0  0  0  0  0
   -3.6320   21.4480  -33.1750 C   0  0  0  0  0  0  0  0  0  0  0  0
   -2.4910   20.7410  -32.8430 C   0  0  0  0  0  0  0  0  0  0  0  0
   -1.9600   19.7020  -33.6420 N   0  0  0  0  0  0  0  0  0  0  0  0
   -2.6690   18.6600  -33.8830 C   0  0  0  0  0  0  0  0  0  0  0  0
   -3.9530   18.4710  -33.4050 C   0  0  0  0  0  0  0  0  0  0  0  0
   -4.6290   17.2920  -33.7440 C   0  0  0  0  0  0  0  0  0  0  0  0
   -5.9600   17.0700  -33.2930 N   0  0  0  0  0  0  0  0  0  0  0  0
   -6.8450   18.0800  -32.8610 C   0  0  0  0  0  0  0  0  0  0  0  0
   -7.8580   17.8570  -31.9380 C   0  0  0  0  0  0  0  0  0  0  0  0
   -8.7090   18.8870  -31.5770 C   0  0  0  0  0  0  0  0  0  0  0  0
   -8.6150   20.1600  -32.0890 C   0  0  0  0  0  0  0  0  0  0  0  0
   -9.4310   21.2100  -31.7630 O   0  0  0  0  0  0  0  0  0  0  0  0
   -9.1160   22.5630  -31.8590 C   0  0  0  0  0  0  0  0  0  0  0  0
   -7.6050   20.3840  -33.0070 C   0  0  0  0  0  0  0  0  0  0  0  0
   -6.7470   19.3560  -33.3750 C   0  0  0  0  0  0  0  0  0  0  0  0
   -3.9980   16.3920  -34.5240 N   0  0  0  0  0  0  0  0  0  0  0  0
   -2.7370   16.5920  -34.9860 C   0  0  0  0  0  0  0  0  0  0  0  0
   -2.0890   17.7170  -34.6620 N   0  0  0  0  0  0  0  0  0  0  0  0
   -1.7730   21.0330  -31.6740 C   0  0  0  0  0  0  0  0  0  0  0  0
   -2.2220   22.0430  -30.8520 C   0  0  0  0  0  0  0  0  0  0  0  0
   -7.1209   22.7285  -28.9799 H   0  0  0  0  0  0  0  0  0  0  0  0
   -6.6643   23.8205  -30.3311 H   0  0  0  0  0  0  0  0  0  0  0  0
   -6.1107   22.1116  -30.3311 H   0  0  0  0  0  0  0  0  0  0  0  0
   -5.3304   24.1599  -28.2087 H   0  0  0  0  0  0  0  0  0  0  0  0
   -4.6567   22.5200  -28.4303 H   0  0  0  0  0  0  0  0  0  0  0  0
   -3.9430   25.6690  -31.6000 H   0  0  0  0  0  0  0  0  0  0  0  0
   -4.9888   23.0300  -32.6084 H   0  0  0  0  0  0  0  0  0  0  0  0
   -4.1811   21.2026  -34.0960 H   0  0  0  0  0  0  0  0  0  0  0  0
   -4.4335   19.2311  -32.7715 H   0  0  0  0  0  0  0  0  0  0  0  0
   -6.3170   16.0760  -33.2810 H   0  0  0  0  0  0  0  0  0  0  0  0
   -7.9845   16.8592  -31.4926 H   0  0  0  0  0  0  0  0  0  0  0  0
   -9.5010   18.6768  -30.8431 H   0  0  0  0  0  0  0  0  0  0  0  0
   -9.0168   22.9889  -30.8497 H   0  0  0  0  0  0  0  0  0  0  0  0
   -8.1664   22.6808  -32.4016 H   0  0  0  0  0  0  0  0  0  0  0  0
   -9.9159   23.0881  -32.4016 H   0  0  0  0  0  0  0  0  0  0  0  0
   -7.4805   21.3837  -33.4488 H   0  0  0  0  0  0  0  0  0  0  0  0
   -5.9550   19.5686  -34.1081 H   0  0  0  0  0  0  0  0  0  0  0  0
   -4.4380   15.4930  -34.8350 H   0  0  0  0  0  0  0  0  0  0  0  0
   -2.2523   15.8358  -35.6211 H   0  0  0  0  0  0  0  0  0  0  0  0
   -0.8665   20.4649  -31.4179 H   0  0  0  0  0  0  0  0  0  0  0  0
   -1.6742   22.2887  -29.9303 H   0  0  0  0  0  0  0  0  0  0  0  0
  1  2  1  0
  3  2  1  1
  3  4  2  0
  3  5  2  0
  3  6  1  0
  6  7  2  0
  7  8  1  0
  8  9  2  0
  9 10  1  0
 10 11  2  0
 11 12  1  0
 12 13  2  0
 13 14  1  0
 14 15  1  0
 15 16  2  0
 16 17  1  0
 17 18  2  0
 18 19  1  0
 19 20  1  0
 18 21  1  0
 21 22  2  0
 13 23  1  0
 23 24  1  0
 24 25  2  0
  9 26  1  0
 26 27  2  0
 27  6  1  0
 25 11  1  0
 22 15  1  0
  1 28  1  0
  1 29  1  0
  1 30  1  0
  2 31  1  0
  2 32  1  0
  4 33  1  0
  7 34  1  0
  8 35  1  0
 12 36  1  0
 14 37  1  0
 16 38  1  0
 17 39  1  0
 20 40  1  0
 20 41  1  0
 20 42  1  0
 21 43  1  0
 22 44  1  0
 23 45  1  0
 24 46  1  0
 26 47  1  0
 27 48  1  0
M  END
>  <smiles>  (19) 
CCS(=N)(=O)c1ccc(N=c2cc(Nc3ccc(OC)cc3)[nH]cn2)cc1

>  <score_type>  (19) 
oracle

>  <origin>  (19) 
adgpu

>  <m_score__min__energy>  (19) 
-9.1500000000000004

>  <m_primary>  (19) 
energy

$$$$
19:0
     RDKit          3D

 40 42  0  0  0  0  0  0  0  0999 V2000
   -8.7080   18.9090  -31.6840 C   0  0  0  0  0  0  0  0  0  0  0  0
   -8.7490   20.0490  -32.6960 C   0  0  0  0  0  0  0  0  0  0  0  0
   -8.6180   21.3110  -32.0420 O   0  0  0  0  0  0  0  0  0  0  0  0
   -7.4320   21.8270  -31.4940 C   0  0  0  0  0  0  0  0  0  0  0  0
   -6.1550   21.4840  -31.9790 C   0  0  0  0  0  0  0  0  0  0  0  0
   -5.0080   22.0150  -31.3820 C   0  0  0  0  0  0  0  0  0  0  0  0
   -5.1180   22.8900  -30.2930 C   0  0  0  0  0  0  0  0  0  0  0  0
   -3.9110   23.4140  -29.6270 C   0  0  0  0  0  0  0  0  0  0  0  0
   -3.3800   24.6780  -29.8170 C   0  0  0  0  0  0  0  0  0  0  0  0
   -3.8440   25.6470  -30.6980 O   0  0  0  0  0  0  0  0  0  0  0  0
   -2.3050   24.7970  -28.9680 C   0  0  0  0  0  0  0  0  0  0  0  0
   -1.4700   25.9000  -28.8200 O   0  0  0  0  0  0  0  0  0  0  0  0
   -2.2210   23.6090  -28.2780 C   0  0  0  0  0  0  0  0  0  0  0  0
   -1.2810   23.3230  -27.2950 O   0  0  0  0  0  0  0  0  0  0  0  0
   -3.1950   22.7590  -28.6740 N   0  0  0  0  0  0  0  0  0  0  0  0
   -3.4850   21.4480  -28.0820 C   0  0  0  0  0  0  0  0  0  0  0  0
   -2.2640   20.5680  -28.1190 C   0  0  0  0  0  0  0  0  0  0  0  0
   -2.0640   19.5920  -27.1320 C   0  0  0  0  0  0  0  0  0  0  0  0
   -0.9440   18.7600  -27.1880 C   0  0  0  0  0  0  0  0  0  0  0  0
   -0.0290   18.9140  -28.2310 C   0  0  0  0  0  0  0  0  0  0  0  0
   -0.2320   19.8690  -29.1780 N   0  0  0  0  0  0  0  0  0  0  0  0
   -1.3130   20.6910  -29.1450 C   0  0  0  0  0  0  0  0  0  0  0  0
   -6.3890   23.2550  -29.8280 C   0  0  0  0  0  0  0  0  0  0  0  0
   -7.5360   22.7230  -30.4240 C   0  0  0  0  0  0  0  0  0  0  0  0
   -8.7229   19.3227  -30.6649 H   0  0  0  0  0  0  0  0  0  0  0  0
   -9.5833   18.2587  -31.8286 H   0  0  0  0  0  0  0  0  0  0  0  0
   -7.7882   18.3233  -31.8286 H   0  0  0  0  0  0  0  0  0  0  0  0
   -7.9228   19.9260  -33.4117 H   0  0  0  0  0  0  0  0  0  0  0  0
   -9.7159   20.0215  -33.2198 H   0  0  0  0  0  0  0  0  0  0  0  0
   -6.0598   20.7952  -32.8314 H   0  0  0  0  0  0  0  0  0  0  0  0
   -4.0144   21.7447  -31.7689 H   0  0  0  0  0  0  0  0  0  0  0  0
   -1.6090   26.7350  -29.3760 H   0  0  0  0  0  0  0  0  0  0  0  0
   -3.8004   21.5850  -27.0371 H   0  0  0  0  0  0  0  0  0  0  0  0
   -4.2866   20.9668  -28.6615 H   0  0  0  0  0  0  0  0  0  0  0  0
   -2.7900   19.4818  -26.3130 H   0  0  0  0  0  0  0  0  0  0  0  0
   -0.7843   17.9909  -26.4179 H   0  0  0  0  0  0  0  0  0  0  0  0
    0.8560   18.2631  -28.2870 H   0  0  0  0  0  0  0  0  0  0  0  0
   -1.4439   21.4557  -29.9248 H   0  0  0  0  0  0  0  0  0  0  0  0
   -6.4841   23.9626  -28.9911 H   0  0  0  0  0  0  0  0  0  0  0  0
   -8.5290   23.0111  -30.0487 H   0  0  0  0  0  0  0  0  0  0  0  0
  1  2  1  0
  2  3  1  0
  3  4  1  0
  4  5  2  0
  5  6  1  0
  6  7  2  0
  7  8  1  0
  8  9  2  0
  9 10  1  0
  9 11  1  0
 11 12  1  0
 11 13  2  0
 13 14  1  0
 13 15  1  0
 15 16  1  0
 16 17  1  0
 17 18  2  0
 18 19  1  0
 19 20  2  0
 20 21  1  0
 21 22  2  0
  7 23  1  0
 23 24  2  0
 24  4  1  0
 15  8  1  0
 22 17  1  0
  1 25  1  0
  1 26  1  0
  1 27  1  0
  2 28  1  0
  2 29  1  0
  5 30  1  0
  6 31  1  0
 12 32  1  0
 16 33  1  0
 16 34  1  0
 18 35  1  0
 19 36  1  0
 20 37  1  0
 22 38  1  0
 23 39  1  0
 24 40  1  0
M  CHG  2  10  -1  14  -1
M  END
>  <UniqueID>  (20) 
16

>  <SMILES>  (20) 
CCOc1ccc(-c2c([O-])c(O)c([O-])n2Cc2cccnc2)cc1

>  <Energy>  (20) 
74.87869745633913

>  <Genealogy>  (20) 
CCOc1ccc(-c2c([O-])c(O)c([O-])n2Cc2cccnc2)cc1 (protonated)
CCOc1ccc(-c2c([O-])c(O)c([O-])n2Cc2cccnc2)cc1 (3D coordinates assigned)
CCOc1ccc(-c2c([O-])c(O)c([O-])n2Cc2cccnc2)cc1 (optimized conformer: 74.87869745633913 kcal/mol)

>  <smiles>  (20) 
CCOc1ccc(-c2c(O)c(O)c(O)n2Cc2cccnc2)cc1

>  <score_type>  (20) 
oracle

>  <origin>  (20) 
adgpu

>  <m_score__min__energy>  (20) 
-11

>  <m_primary>  (20) 
energy

$$$$
20:0
     RDKit          3D

 39 40  0  0  0  0  0  0  0  0999 V2000
   -0.8800   26.3930  -28.0480 C   0  0  0  0  0  0  0  0  0  0  0  0
   -1.2240   25.7750  -29.3230 N   0  0  0  0  0  0  0  0  0  0  0  0
   -1.4300   24.0630  -29.1080 S   0  0  0  0  0  0  0  0  0  0  0  0
   -0.5070   23.3210  -30.0340 O   0  0  0  0  0  0  0  0  0  0  0  0
   -1.0780   23.6990  -27.6930 O   0  0  0  0  0  0  0  0  0  0  0  0
   -3.1030   23.6050  -29.4190 C   0  0  0  0  0  0  0  0  0  0  0  0
   -4.1250   24.5470  -29.2530 C   0  0  0  0  0  0  0  0  0  0  0  0
   -5.4530   24.1980  -29.5140 C   0  0  0  0  0  0  0  0  0  0  0  0
   -5.7740   22.9050  -29.9610 C   0  0  0  0  0  0  0  0  0  0  0  0
   -7.1770   22.5260  -30.2320 C   0  0  0  0  0  0  0  0  0  0  0  0
   -8.0200   22.5950  -29.2960 O   0  0  0  0  0  0  0  0  0  0  0  0
   -7.5980   22.0700  -31.5340 N   0  0  0  0  0  0  0  0  0  0  0  0
   -8.9780   22.3430  -31.9690 C   0  0  0  0  0  0  0  0  0  0  0  0
   -9.8500   21.0680  -32.0060 C   0  0  0  0  0  0  0  0  0  0  0  0
   -9.2210   19.8720  -32.7430 C   0  0  0  0  0  0  0  0  0  0  0  0
   -8.1930   19.0870  -31.9110 C   0  0  0  0  0  0  0  0  0  0  0  0
   -6.7810   19.7010  -31.8490 C   0  0  0  0  0  0  0  0  0  0  0  0
   -6.7130   21.1700  -32.3020 C   0  0  0  0  0  0  0  0  0  0  0  0
   -4.7460   21.9600  -30.1130 C   0  0  0  0  0  0  0  0  0  0  0  0
   -3.4190   22.3090  -29.8510 C   0  0  0  0  0  0  0  0  0  0  0  0
   -1.2346   25.7560  -27.2243 H   0  0  0  0  0  0  0  0  0  0  0  0
    0.2118   26.5078  -27.9789 H   0  0  0  0  0  0  0  0  0  0  0  0
   -1.3577   27.3814  -27.9789 H   0  0  0  0  0  0  0  0  0  0  0  0
   -3.8821   25.5655  -28.9159 H   0  0  0  0  0  0  0  0  0  0  0  0
   -6.2519   24.9401  -29.3686 H   0  0  0  0  0  0  0  0  0  0  0  0
   -9.4325   23.0610  -31.2705 H   0  0  0  0  0  0  0  0  0  0  0  0
   -8.9325   22.7466  -32.9913 H   0  0  0  0  0  0  0  0  0  0  0  0
  -10.0518   20.7621  -30.9688 H   0  0  0  0  0  0  0  0  0  0  0  0
  -10.7583   21.3324  -32.5674 H   0  0  0  0  0  0  0  0  0  0  0  0
  -10.0278   19.1830  -33.0334 H   0  0  0  0  0  0  0  0  0  0  0  0
   -8.6792   20.2835  -33.6074 H   0  0  0  0  0  0  0  0  0  0  0  0
   -8.5755   19.0126  -30.8823 H   0  0  0  0  0  0  0  0  0  0  0  0
   -8.0776   18.1150  -32.4129 H   0  0  0  0  0  0  0  0  0  0  0  0
   -6.4248   19.6433  -30.8099 H   0  0  0  0  0  0  0  0  0  0  0  0
   -6.1544   19.1253  -32.5461 H   0  0  0  0  0  0  0  0  0  0  0  0
   -5.6768   21.5211  -32.1875 H   0  0  0  0  0  0  0  0  0  0  0  0
   -7.0532   21.2000  -33.3476 H   0  0  0  0  0  0  0  0  0  0  0  0
   -4.9875   20.9381  -30.4406 H   0  0  0  0  0  0  0  0  0  0  0  0
   -2.6197   21.5650  -29.9840 H   0  0  0  0  0  0  0  0  0  0  0  0
  1  2  1  0
  2  3  1  0
  3  4  2  0
  3  5  2  0
  3  6  1  0
  6  7  2  0
  7  8  1  0
  8  9  2  0
  9 10  1  0
 10 11  2  0
 10 12  1  0
 12 13  1  0
 13 14  1  0
 14 15  1  0
 15 16  1  0
 16 17  1  0
 17 18  1  0
  9 19  1  0
 19 20  2  0
 20  6  1  0
 18 12  1  0
  1 21  1  0
  1 22  1  0
  1 23  1  0
  7 24  1  0
  8 25  1  0
 13 26  1  0
 13 27  1  0
 14 28  1  0
 14 29  1  0
 15 30  1  0
 15 31  1  0
 16 32  1  0
 16 33  1  0
 17 34  1  0
 17 35  1  0
 18 36  1  0
 18 37  1  0
 19 38  1  0
 20 39  1  0
M  CHG  1   2  -1
M  END
>  <UniqueID>  (21) 
17

>  <SMILES>  (21) 
C[N-]S(=O)(=O)c1ccc(C(=O)N2CCCCCC2)cc1

>  <Energy>  (21) 
45.453118565288264

>  <Genealogy>  (21) 
C[N-]S(=O)(=O)c1ccc(C(=O)N2CCCCCC2)cc1 (protonated)
C[N-]S(=O)(=O)c1ccc(C(=O)N2CCCCCC2)cc1 (3D coordinates assigned)
C[N-]S(=O)(=O)c1ccc(C(=O)N2CCCCCC2)cc1 (nonaromatic ring conformer: 45.453118565288264 kcal/mol)

>  <smiles>  (21) 
CNS(=O)(=O)c1ccc(C(=O)N2CCCCCC2)cc1

>  <score_type>  (21) 
oracle

>  <origin>  (21) 
adgpu

>  <m_score__min__energy>  (21) 
-6.6799999999999997

>  <m_primary>  (21) 
energy

$$$$
21:0
     RDKit          3D

 19 20  0  0  0  0  0  0  0  0999 V2000
   -9.9230   21.1910  -31.8440 O   0  0  0  0  0  0  0  0  0  0  0  0
   -8.6840   21.4070  -31.9110 C   0  0  0  0  0  0  0  0  0  0  0  0
   -7.9120   20.4740  -32.5770 C   0  0  0  0  0  0  0  0  0  0  0  0
   -6.5460   20.4760  -32.7900 C   0  0  0  0  0  0  0  0  0  0  0  0
   -5.5740   21.3980  -32.4040 C   0  0  0  0  0  0  0  0  0  0  0  0
   -4.4010   21.0960  -32.7640 O   0  0  0  0  0  0  0  0  0  0  0  0
   -5.7600   22.6020  -31.6740 C   0  0  0  0  0  0  0  0  0  0  0  0
   -4.5950   23.3760  -31.4060 C   0  0  0  0  0  0  0  0  0  0  0  0
   -4.6490   24.5760  -30.6990 C   0  0  0  0  0  0  0  0  0  0  0  0
   -3.4860   25.2980  -30.4610 O   0  0  0  0  0  0  0  0  0  0  0  0
   -5.8640   25.0490  -30.2330 C   0  0  0  0  0  0  0  0  0  0  0  0
   -7.0240   24.3220  -30.4740 C   0  0  0  0  0  0  0  0  0  0  0  0
   -7.0030   23.1090  -31.1840 C   0  0  0  0  0  0  0  0  0  0  0  0
   -8.2200   22.5310  -31.3300 N   0  0  0  0  0  0  0  0  0  0  0  0
   -8.4576   19.6145  -32.9935 H   0  0  0  0  0  0  0  0  0  0  0  0
   -6.1651   19.6120  -33.3543 H   0  0  0  0  0  0  0  0  0  0  0  0
   -3.6212   23.0152  -31.7686 H   0  0  0  0  0  0  0  0  0  0  0  0
   -5.9111   25.9956  -29.6747 H   0  0  0  0  0  0  0  0  0  0  0  0
   -7.9841   24.7062  -30.0991 H   0  0  0  0  0  0  0  0  0  0  0  0
  1  2  2  0
  2  3  1  0
  3  4  2  0
  4  5  1  0
  5  6  2  0
  5  7  1  0
  7  8  2  0
  8  9  1  0
  9 10  1  0
  9 11  2  0
 11 12  1  0
 12 13  2  0
 13 14  1  0
 14  2  1  0
 13  7  1  0
  3 15  1  0
  4 16  1  0
  8 17  1  0
 11 18  1  0
 12 19  1  0
M  CHG  2  10  -1  14  -1
M  END
>  <UniqueID>  (22) 
18

>  <SMILES>  (22) 
O=c1ccc(=O)c2cc([O-])ccc2[n-]1

>  <Energy>  (22) 
48.893352358845355

>  <Genealogy>  (22) 
O=c1ccc(=O)c2cc([O-])ccc2[n-]1 (protonated)
O=c1ccc(=O)c2cc([O-])ccc2[n-]1 (3D coordinates assigned)
O=c1ccc(=O)c2cc([O-])ccc2[n-]1 (optimized conformer: 48.893352358845355 kcal/mol)

>  <smiles>  (22) 
O=c1ccc(=O)c2cc(O)ccc2[nH]1

>  <score_type>  (22) 
oracle

>  <origin>  (22) 
adgpu

>  <m_score__min__energy>  (22) 
-9.1899999999999995

>  <m_primary>  (22) 
energy

$$$$
22:0
     RDKit          3D

 35 36  0  0  0  0  0  0  0  0999 V2000
   -0.0250   27.0840  -22.9670 C   0  0  0  0  0  0  0  0  0  0  0  0
   -0.3540   27.7590  -24.1770 O   0  0  0  0  0  0  0  0  0  0  0  0
   -0.7800   27.1210  -25.3530 C   0  0  0  0  0  0  0  0  0  0  0  0
   -1.5620   25.9510  -25.3280 C   0  0  0  0  0  0  0  0  0  0  0  0
   -1.9640   25.3440  -26.5200 C   0  0  0  0  0  0  0  0  0  0  0  0
   -1.5820   25.8850  -27.7590 C   0  0  0  0  0  0  0  0  0  0  0  0
   -2.0030   25.2930  -29.0000 N   0  0  0  0  0  0  0  0  0  0  0  0
   -3.2340   24.5800  -29.1790 C   0  0  0  0  0  0  0  0  0  0  0  0
   -3.9540   24.2880  -28.1850 O   0  0  0  0  0  0  0  0  0  0  0  0
   -3.6410   24.2130  -30.5020 N   0  0  0  0  0  0  0  0  0  0  0  0
   -4.7910   23.4320  -30.8600 C   0  0  0  0  0  0  0  0  0  0  0  0
   -6.0290   23.7620  -30.2940 C   0  0  0  0  0  0  0  0  0  0  0  0
   -7.1780   23.0400  -30.6310 C   0  0  0  0  0  0  0  0  0  0  0  0
   -7.1030   21.9840  -31.5480 C   0  0  0  0  0  0  0  0  0  0  0  0
   -8.5530   21.0860  -31.9840 S   0  0  0  0  0  0  0  0  0  0  0  0
   -8.2170   20.0710  -33.3410 N   0  0  0  0  0  0  0  0  0  0  0  0
   -9.6580   22.0440  -32.3340 O   0  0  0  0  0  0  0  0  0  0  0  0
   -8.9970   20.2410  -30.8250 O   0  0  0  0  0  0  0  0  0  0  0  0
   -5.8740   21.6710  -32.1430 C   0  0  0  0  0  0  0  0  0  0  0  0
   -4.7240   22.3930  -31.8050 C   0  0  0  0  0  0  0  0  0  0  0  0
   -0.8220   27.0630  -27.7830 C   0  0  0  0  0  0  0  0  0  0  0  0
   -0.4160   27.6730  -26.5910 C   0  0  0  0  0  0  0  0  0  0  0  0
    0.5500   29.1390  -26.6630 Cl  0  0  0  0  0  0  0  0  0  0  0  0
   -0.3264   27.7023  -22.1086 H   0  0  0  0  0  0  0  0  0  0  0  0
   -0.5546   26.1206  -22.9289 H   0  0  0  0  0  0  0  0  0  0  0  0
    1.0601   26.9077  -22.9289 H   0  0  0  0  0  0  0  0  0  0  0  0
   -1.8583   25.5120  -24.3639 H   0  0  0  0  0  0  0  0  0  0  0  0
   -2.5841   24.4360  -26.4884 H   0  0  0  0  0  0  0  0  0  0  0  0
   -1.3330   25.2990  -29.8020 H   0  0  0  0  0  0  0  0  0  0  0  0
   -6.0978   24.5952  -29.5792 H   0  0  0  0  0  0  0  0  0  0  0  0
   -8.1438   23.3022  -30.1745 H   0  0  0  0  0  0  0  0  0  0  0  0
   -9.1020   19.9920  -33.8900 H   0  0  0  0  0  0  0  0  0  0  0  0
   -5.8128   20.8551  -32.8782 H   0  0  0  0  0  0  0  0  0  0  0  0
   -3.7633   22.1466  -32.2807 H   0  0  0  0  0  0  0  0  0  0  0  0
   -0.5424   27.5117  -28.7476 H   0  0  0  0  0  0  0  0  0  0  0  0
  1  2  1  0
  2  3  1  0
  3  4  2  0
  4  5  1  0
  5  6  2  0
  6  7  1  0
  7  8  1  0
  8  9  2  0
  8 10  1  0
 10 11  1  0
 11 12  2  0
 12 13  1  0
 13 14  2  0
 14 15  1  0
 15 16  1  0
 15 17  2  0
 15 18  2  0
 14 19  1  0
 19 20  2  0
  6 21  1  0
 21 22  2  0
 22 23  1  0
 22  3  1  0
 20 11  1  0
  1 24  1  0
  1 25  1  0
  1 26  1  0
  4 27  1  0
  5 28  1  0
  7 29  1  0
 12 30  1  0
 13 31  1  0
 16 32  1  0
 19 33  1  0
 20 34  1  0
 21 35  1  0
M  CHG  2  10  -1  16  -1
M  END
>  <UniqueID>  (23) 
19

>  <SMILES>  (23) 
COc1ccc(NC(=O)[N-]c2ccc(S([NH-])(=O)=O)cc2)cc1Cl

>  <Energy>  (23) 
41.70810586047533

>  <Genealogy>  (23) 
COc1ccc(NC(=O)[N-]c2ccc(S([NH-])(=O)=O)cc2)cc1Cl (protonated)
COc1ccc(NC(=O)[N-]c2ccc(S([NH-])(=O)=O)cc2)cc1Cl (3D coordinates assigned)
COc1ccc(NC(=O)[N-]c2ccc(S([NH-])(=O)=O)cc2)cc1Cl (optimized conformer: 41.70810586047533 kcal/mol)

>  <smiles>  (23) 
COc1ccc(NC(=O)Nc2ccc(S(N)(=O)=O)cc2)cc1Cl

>  <score_type>  (23) 
oracle

>  <origin>  (23) 
adgpu

>  <m_score__min__energy>  (23) 
-9.9399999999999995

>  <m_primary>  (23) 
energy

$$$$
23:0
     RDKit          3D

 42 45  0  0  0  0  0  0  0  0999 V2000
   -4.9940   15.5900  -32.2930 C   0  0  0  0  0  0  0  0  0  0  0  0
   -5.3630   16.8260  -33.0570 C   0  0  0  0  0  0  0  0  0  0  0  0
   -4.9180   17.0100  -34.3730 C   0  0  0  0  0  0  0  0  0  0  0  0
   -5.2800   18.1220  -35.0670 N   0  0  0  0  0  0  0  0  0  0  0  0
   -6.0880   19.0720  -34.5280 C   0  0  0  0  0  0  0  0  0  0  0  0
   -6.5940   18.9140  -33.2310 C   0  0  0  0  0  0  0  0  0  0  0  0
   -7.4530   19.9600  -32.6360 C   0  0  0  0  0  0  0  0  0  0  0  0
   -8.8010   19.7930  -32.7170 N   0  0  0  0  0  0  0  0  0  0  0  0
   -9.6810   20.7090  -32.2400 C   0  0  0  0  0  0  0  0  0  0  0  0
   -9.2190   21.8800  -31.6420 C   0  0  0  0  0  0  0  0  0  0  0  0
   -7.8410   22.0910  -31.5170 C   0  0  0  0  0  0  0  0  0  0  0  0
   -7.3610   23.2540  -30.8940 C   0  0  0  0  0  0  0  0  0  0  0  0
   -5.9860   23.4530  -30.7320 C   0  0  0  0  0  0  0  0  0  0  0  0
   -5.3820   24.9020  -29.9330 S   0  0  0  0  0  0  0  0  0  0  0  0
   -4.4300   25.6030  -30.8600 O   0  0  0  0  0  0  0  0  0  0  0  0
   -6.5120   25.8360  -29.5980 O   0  0  0  0  0  0  0  0  0  0  0  0
   -4.5420   24.4770  -28.4730 N   0  0  0  0  0  0  0  0  0  0  0  0
   -3.2750   24.1950  -28.3620 C   0  0  0  0  0  0  0  0  0  0  0  0
   -2.3940   24.1960  -29.4630 C   0  0  0  0  0  0  0  0  0  0  0  0
   -1.0440   23.8910  -29.2650 C   0  0  0  0  0  0  0  0  0  0  0  0
   -0.5860   23.5960  -28.0210 N   0  0  0  0  0  0  0  0  0  0  0  0
   -1.4110   23.5850  -26.9420 C   0  0  0  0  0  0  0  0  0  0  0  0
   -2.7670   23.8850  -27.0940 C   0  0  0  0  0  0  0  0  0  0  0  0
   -5.0850   22.4860  -31.1930 C   0  0  0  0  0  0  0  0  0  0  0  0
   -5.5500   21.3270  -31.8170 C   0  0  0  0  0  0  0  0  0  0  0  0
   -6.9320   21.1200  -32.0060 C   0  0  0  0  0  0  0  0  0  0  0  0
   -6.2120   17.7850  -32.4900 C   0  0  0  0  0  0  0  0  0  0  0  0
   -5.0549   15.7941  -31.2138 H   0  0  0  0  0  0  0  0  0  0  0  0
   -5.6888   14.7776  -32.5523 H   0  0  0  0  0  0  0  0  0  0  0  0
   -3.9675   15.2914  -32.5523 H   0  0  0  0  0  0  0  0  0  0  0  0
   -4.2745   16.2533  -34.8456 H   0  0  0  0  0  0  0  0  0  0  0  0
   -6.3458   19.9680  -35.1117 H   0  0  0  0  0  0  0  0  0  0  0  0
  -10.7624   20.5268  -32.3256 H   0  0  0  0  0  0  0  0  0  0  0  0
   -9.9312   22.6320  -31.2714 H   0  0  0  0  0  0  0  0  0  0  0  0
   -8.0700   24.0128  -30.5313 H   0  0  0  0  0  0  0  0  0  0  0  0
   -2.7661   24.4350  -30.4702 H   0  0  0  0  0  0  0  0  0  0  0  0
   -0.3509   23.8900  -30.1192 H   0  0  0  0  0  0  0  0  0  0  0  0
   -1.0109   23.3396  -25.9472 H   0  0  0  0  0  0  0  0  0  0  0  0
   -3.4344   23.8778  -26.2196 H   0  0  0  0  0  0  0  0  0  0  0  0
   -4.0037   22.6403  -31.0628 H   0  0  0  0  0  0  0  0  0  0  0  0
   -4.8324   20.5690  -32.1641 H   0  0  0  0  0  0  0  0  0  0  0  0
   -6.5801   17.6530  -31.4619 H   0  0  0  0  0  0  0  0  0  0  0  0
  1  2  1  0
  2  3  2  0
  3  4  1  0
  4  5  2  0
  5  6  1  0
  6  7  1  0
  7  8  2  0
  8  9  1  0
  9 10  2  0
 10 11  1  0
 11 12  2  0
 12 13  1  0
 13 14  1  0
 14 15  2  0
 14 16  2  0
 14 17  1  0
 17 18  2  3
 18 19  1  0
 19 20  2  0
 20 21  1  0
 21 22  1  0
 22 23  2  0
 13 24  2  0
 24 25  1  0
 25 26  2  0
  6 27  2  0
 27  2  1  0
 26  7  1  0
 26 11  1  0
 23 18  1  0
  1 28  1  0
  1 29  1  0
  1 30  1  0
  3 31  1  0
  5 32  1  0
  9 33  1  0
 10 34  1  0
 12 35  1  0
 19 36  1  0
 20 37  1  0
 22 38  1  0
 23 39  1  0
 24 40  1  0
 25 41  1  0
 27 42  1  0
M  CHG  1  21  -1
M  END
>  <UniqueID>  (24) 
20

>  <SMILES>  (24) 
Cc1cncc(-c2nccc3cc(S(=O)(=O)N=c4cc[n-]cc4)ccc23)c1

>  <Energy>  (24) 
64.97306852289705

>  <Genealogy>  (24) 
Cc1cncc(-c2nccc3cc(S(=O)(=O)N=c4cc[n-]cc4)ccc23)c1 (protonated)
Cc1cncc(-c2nccc3cc(S(=O)(=O)N=c4cc[n-]cc4)ccc23)c1 (3D coordinates assigned)
Cc1cncc(-c2nccc3cc(S(=O)(=O)N=c4cc[n-]cc4)ccc23)c1 (optimized conformer: 64.97306852289705 kcal/mol)

>  <smiles>  (24) 
Cc1cncc(-c2nccc3cc(S(=O)(=O)N=c4cc[nH]cc4)ccc23)c1

>  <score_type>  (24) 
oracle

>  <origin>  (24) 
adgpu

>  <m_score__min__energy>  (24) 
-11.06

>  <m_primary>  (24) 
energy

$$$$
24:0
     RDKit          3D

 57 57  0  0  0  0  0  0  0  0999 V2000
   -1.2860   20.3880  -29.3590 H   0  0  0  0  0  0  0  0  0  0  0  0
   -1.6230   20.6710  -30.2710 O   0  0  0  0  0  0  0  0  0  0  0  0
   -2.6150   21.6420  -30.4180 C   0  0  0  0  0  0  0  0  0  0  0  0
   -3.8950   21.2620  -30.8340 C   0  0  0  0  0  0  0  0  0  0  0  0
   -4.1083   20.2042  -31.0474 H   0  0  0  0  0  0  0  0  0  0  0  0
   -4.9020   22.2140  -30.9800 C   0  0  0  0  0  0  0  0  0  0  0  0
   -5.9016   21.9036  -31.3184 H   0  0  0  0  0  0  0  0  0  0  0  0
   -4.6510   23.5640  -30.6990 C   0  0  0  0  0  0  0  0  0  0  0  0
   -5.7630   24.5690  -30.8770 C   0  0  0  0  0  0  0  0  0  0  0  0
   -5.7982   24.8715  -31.9340 H   0  0  0  0  0  0  0  0  0  0  0  0
   -5.5487   25.4223  -30.2168 H   0  0  0  0  0  0  0  0  0  0  0  0
   -7.1410   24.0070  -30.4790 C   0  0  0  0  0  0  0  0  0  0  0  0
   -7.7754   24.8434  -30.1504 H   0  0  0  0  0  0  0  0  0  0  0  0
   -6.9693   23.2711  -29.6796 H   0  0  0  0  0  0  0  0  0  0  0  0
   -7.8630   23.2690  -31.6230 C   0  0  0  0  0  0  0  0  0  0  0  0
   -7.1346   23.0581  -32.4199 H   0  0  0  0  0  0  0  0  0  0  0  0
   -8.6766   23.9201  -31.9752 H   0  0  0  0  0  0  0  0  0  0  0  0
   -8.4960   21.9400  -31.1710 C   0  0  0  0  0  0  0  0  0  0  0  0
   -9.5516   22.1201  -30.9193 H   0  0  0  0  0  0  0  0  0  0  0  0
   -7.9277   21.5788  -30.3012 H   0  0  0  0  0  0  0  0  0  0  0  0
   -8.4270   20.8540  -32.2560 C   0  0  0  0  0  0  0  0  0  0  0  0
   -7.4406   20.9033  -32.7404 H   0  0  0  0  0  0  0  0  0  0  0  0
   -9.2419   21.0462  -32.9695 H   0  0  0  0  0  0  0  0  0  0  0  0
   -8.6270   19.4450  -31.6970 C   0  0  0  0  0  0  0  0  0  0  0  0
   -8.6217   19.4825  -30.5977 H   0  0  0  0  0  0  0  0  0  0  0  0
   -9.5908   19.0456  -32.0456 H   0  0  0  0  0  0  0  0  0  0  0  0
   -7.8124   18.7932  -32.0456 H   0  0  0  0  0  0  0  0  0  0  0  0
   -3.3650   23.9550  -30.2730 C   0  0  0  0  0  0  0  0  0  0  0  0
   -3.1050   25.2920  -29.9830 O   0  0  0  0  0  0  0  0  0  0  0  0
   -2.3330   22.9990  -30.1520 C   0  0  0  0  0  0  0  0  0  0  0  0
   -0.9470   23.4300  -29.7200 C   0  0  0  0  0  0  0  0  0  0  0  0
   -0.2870   22.5500  -29.7203 H   0  0  0  0  0  0  0  0  0  0  0  0
   -0.5972   24.1955  -30.4282 H   0  0  0  0  0  0  0  0  0  0  0  0
   -0.9400   24.0420  -28.3380 C   0  0  0  0  0  0  0  0  0  0  0  0
   -0.6669   25.1041  -28.2521 H   0  0  0  0  0  0  0  0  0  0  0  0
   -1.2450   23.3790  -27.1990 C   0  0  0  0  0  0  0  0  0  0  0  0
   -1.5870   21.9090  -27.1970 C   0  0  0  0  0  0  0  0  0  0  0  0
   -1.6698   21.5532  -26.1594 H   0  0  0  0  0  0  0  0  0  0  0  0
   -2.5450   21.7547  -27.7151 H   0  0  0  0  0  0  0  0  0  0  0  0
   -0.7955   21.3477  -27.7151 H   0  0  0  0  0  0  0  0  0  0  0  0
   -1.3200   24.1400  -25.8920 C   0  0  0  0  0  0  0  0  0  0  0  0
   -1.6355   23.4502  -25.0953 H   0  0  0  0  0  0  0  0  0  0  0  0
   -0.3245   24.5574  -25.6803 H   0  0  0  0  0  0  0  0  0  0  0  0
   -2.3200   25.3020  -25.9690 C   0  0  0  0  0  0  0  0  0  0  0  0
   -2.4705   25.5728  -27.0245 H   0  0  0  0  0  0  0  0  0  0  0  0
   -3.2624   24.9730  -25.5067 H   0  0  0  0  0  0  0  0  0  0  0  0
   -1.8280   26.5170  -25.2180 C   0  0  0  0  0  0  0  0  0  0  0  0
   -2.1948   26.6678  -24.1920 H   0  0  0  0  0  0  0  0  0  0  0  0
   -0.9690   27.4310  -25.7190 C   0  0  0  0  0  0  0  0  0  0  0  0
   -0.3450   27.2820  -27.0860 C   0  0  0  0  0  0  0  0  0  0  0  0
    0.7197   27.0278  -26.9773 H   0  0  0  0  0  0  0  0  0  0  0  0
   -0.8587   26.4813  -27.6382 H   0  0  0  0  0  0  0  0  0  0  0  0
   -0.4415   28.2284  -27.6382 H   0  0  0  0  0  0  0  0  0  0  0  0
   -0.6140   28.6230  -24.8660 C   0  0  0  0  0  0  0  0  0  0  0  0
   -0.6951   28.3506  -23.8033 H   0  0  0  0  0  0  0  0  0  0  0  0
    0.4168   28.9375  -25.0862 H   0  0  0  0  0  0  0  0  0  0  0  0
   -1.3048   29.4502  -25.0862 H   0  0  0  0  0  0  0  0  0  0  0  0
  1  2  1  0
  2  3  1  0
  3  4  2  0
  4  5  1  0
  4  6  1  0
  6  7  1  0
  6  8  2  0
  8  9  1  0
  9 10  1  0
  9 11  1  0
  9 12  1  0
 12 13  1  0
 12 14  1  0
 12 15  1  0
 15 16  1  0
 15 17  1  0
 15 18  1  0
 18 19  1  0
 18 20  1  0
 18 21  1  0
 21 22  1  0
 21 23  1  0
 21 24  1  0
 24 25  1  0
 24 26  1  0
 24 27  1  0
  8 28  1  0
 28 29  1  0
 28 30  2  0
 30 31  1  0
 31 32  1  0
 31 33  1  0
 31 34  1  0
 34 35  1  0
 34 36  2  0
 36 37  1  0
 37 38  1  0
 37 39  1  0
 37 40  1  0
 36 41  1  0
 41 42  1  0
 41 43  1  0
 41 44  1  0
 44 45  1  0
 44 46  1  0
 44 47  1  0
 47 48  1  0
 47 49  2  3
 49 50  1  0
 50 51  1  0
 50 52  1  0
 50 53  1  0
 49 54  1  0
 54 55  1  0
 54 56  1  0
 54 57  1  0
 30  3  1  0
M  CHG  1  29  -1
M  END
>  <UniqueID>  (25) 
21

>  <SMILES>  (25) 
CCCCCCc1ccc(O)c(C/C=C(\C)CCC=C(C)C)c1[O-]

>  <Energy>  (25) 
34.69281828266973

>  <Genealogy>  (25) 
CCCCCCc1ccc(O)c(CC=C(C)CCC=C(C)C)c1[O-] (protonated)
CCCCCCc1ccc(O)c(C/C=C(\C)CCC=C(C)C)c1[O-] (cis-trans isomerization)
CCCCCCc1ccc(O)c(C/C=C(\C)CCC=C(C)C)c1[O-] (3D coordinates assigned)
CCCCCCc1ccc(O)c(C/C=C(\C)CCC=C(C)C)c1[O-] (optimized conformer: 34.69281828266973 kcal/mol)

>  <smiles>  (25) 
CCCCCCc1ccc(O)c(CC=C(C)CCC=C(C)C)c1O

>  <score_type>  (25) 
oracle

>  <origin>  (25) 
adgpu

>  <m_score__min__energy>  (25) 
-10.42

>  <m_primary>  (25) 
energy

$$$$
25:0
     RDKit          3D

 51 55  0  0  0  0  0  0  0  0999 V2000
   -1.6190   27.1680  -39.0170 C   0  0  0  0  0  0  0  0  0  0  0  0
   -0.8380   27.6260  -37.8210 C   0  0  0  0  0  0  0  0  0  0  0  0
   -0.8280   28.9840  -37.4280 C   0  0  0  0  0  0  0  0  0  0  0  0
   -0.1170   29.3930  -36.2770 C   0  0  0  0  0  0  0  0  0  0  0  0
    0.5820   28.4530  -35.4990 C   0  0  0  0  0  0  0  0  0  0  0  0
    0.5420   27.1210  -35.9070 C   0  0  0  0  0  0  0  0  0  0  0  0
    1.1090   26.0580  -35.3250 N   0  0  0  0  0  0  0  0  0  0  0  0
    0.7470   25.0150  -36.1170 C   0  0  0  0  0  0  0  0  0  0  0  0
    1.1370   23.6010  -35.8750 C   0  0  0  0  0  0  0  0  0  0  0  0
    2.4560   23.1600  -36.0790 C   0  0  0  0  0  0  0  0  0  0  0  0
    2.8000   21.8260  -35.8490 C   0  0  0  0  0  0  0  0  0  0  0  0
    1.8370   20.9150  -35.4150 C   0  0  0  0  0  0  0  0  0  0  0  0
    0.5110   21.3290  -35.2050 C   0  0  0  0  0  0  0  0  0  0  0  0
   -0.5140   20.3590  -34.7400 C   0  0  0  0  0  0  0  0  0  0  0  0
   -1.6320   20.7970  -34.0080 C   0  0  0  0  0  0  0  0  0  0  0  0
   -2.5950   19.8840  -33.5690 C   0  0  0  0  0  0  0  0  0  0  0  0
   -2.4490   18.5140  -33.8440 C   0  0  0  0  0  0  0  0  0  0  0  0
   -3.4270   17.5510  -33.4210 N   0  0  0  0  0  0  0  0  0  0  0  0
   -4.7540   17.4070  -33.9450 C   0  0  0  0  0  0  0  0  0  0  0  0
   -4.9410   16.6050  -34.8980 O   0  0  0  0  0  0  0  0  0  0  0  0
   -5.9120   18.1300  -33.3650 C   0  0  0  0  0  0  0  0  0  0  0  0
   -6.1160   19.4970  -33.6290 C   0  0  0  0  0  0  0  0  0  0  0  0
   -7.2090   20.1680  -33.0730 C   0  0  0  0  0  0  0  0  0  0  0  0
   -8.1020   19.4870  -32.2430 C   0  0  0  0  0  0  0  0  0  0  0  0
   -7.9000   18.1330  -31.9610 C   0  0  0  0  0  0  0  0  0  0  0  0
   -6.8080   17.4570  -32.5140 C   0  0  0  0  0  0  0  0  0  0  0  0
   -1.3520   18.0790  -34.5940 C   0  0  0  0  0  0  0  0  0  0  0  0
   -0.3870   18.9900  -35.0320 C   0  0  0  0  0  0  0  0  0  0  0  0
    0.1710   22.6740  -35.4390 C   0  0  0  0  0  0  0  0  0  0  0  0
   -0.0290   25.3890  -37.1710 N   0  0  0  0  0  0  0  0  0  0  0  0
   -0.1410   26.7210  -37.0160 C   0  0  0  0  0  0  0  0  0  0  0  0
   -2.5232   26.6378  -38.6834 H   0  0  0  0  0  0  0  0  0  0  0  0
   -1.9076   28.0399  -39.6223 H   0  0  0  0  0  0  0  0  0  0  0  0
   -0.9989   26.4904  -39.6223 H   0  0  0  0  0  0  0  0  0  0  0  0
   -1.3779   29.7282  -38.0227 H   0  0  0  0  0  0  0  0  0  0  0  0
   -0.1104   30.4543  -35.9877 H   0  0  0  0  0  0  0  0  0  0  0  0
    1.1399   28.7578  -34.6013 H   0  0  0  0  0  0  0  0  0  0  0  0
    1.6840   26.0590  -34.4550 H   0  0  0  0  0  0  0  0  0  0  0  0
    3.2225   23.8704  -36.4221 H   0  0  0  0  0  0  0  0  0  0  0  0
    3.8355   21.4921  -36.0109 H   0  0  0  0  0  0  0  0  0  0  0  0
    2.1174   19.8665  -35.2362 H   0  0  0  0  0  0  0  0  0  0  0  0
   -1.7496   21.8665  -33.7791 H   0  0  0  0  0  0  0  0  0  0  0  0
   -3.4706   20.2395  -33.0060 H   0  0  0  0  0  0  0  0  0  0  0  0
   -5.4118   20.0404  -34.2762 H   0  0  0  0  0  0  0  0  0  0  0  0
   -7.3660   21.2349  -33.2898 H   0  0  0  0  0  0  0  0  0  0  0  0
   -8.9643   20.0161  -31.8112 H   0  0  0  0  0  0  0  0  0  0  0  0
   -8.6010   17.5985  -31.3031 H   0  0  0  0  0  0  0  0  0  0  0  0
   -6.6486   16.3935  -32.2825 H   0  0  0  0  0  0  0  0  0  0  0  0
   -1.2478   17.0122  -34.8410 H   0  0  0  0  0  0  0  0  0  0  0  0
    0.4784   18.6330  -35.6096 H   0  0  0  0  0  0  0  0  0  0  0  0
   -0.8653   23.0065  -35.2789 H   0  0  0  0  0  0  0  0  0  0  0  0
  1  2  1  0
  2  3  2  0
  3  4  1  0
  4  5  2  0
  5  6  1  0
  6  7  1  0
  7  8  1  0
  8  9  1  0
  9 10  2  0
 10 11  1  0
 11 12  2  0
 12 13  1  0
 13 14  1  0
 14 15  2  0
 15 16  1  0
 16 17  2  0
 17 18  1  0
 18 19  1  0
 19 20  2  0
 19 21  1  0
 21 22  2  0
 22 23  1  0
 23 24  2  0
 24 25  1  0
 25 26  2  0
 17 27  1  0
 27 28  2  0
 13 29  2  0
  8 30  2  0
 30 31  1  0
 31  2  1  0
 31  6  2  0
 29  9  1  0
 28 14  1  0
 26 21  1  0
  1 32  1  0
  1 33  1  0
  1 34  1  0
  3 35  1  0
  4 36  1  0
  5 37  1  0
  7 38  1  0
 10 39  1  0
 11 40  1  0
 12 41  1  0
 15 42  1  0
 16 43  1  0
 22 44  1  0
 23 45  1  0
 24 46  1  0
 25 47  1  0
 26 48  1  0
 27 49  1  0
 28 50  1  0
 29 51  1  0
M  CHG  1  18  -1
M  END
>  <UniqueID>  (26) 
22

>  <SMILES>  (26) 
Cc1cccc2[nH]c(-c3cccc(-c4ccc([N-]C(=O)c5ccccc5)cc4)c3)nc12

>  <Energy>  (26) 
107.1822352388819

>  <Genealogy>  (26) 
Cc1cccc2[nH]c(-c3cccc(-c4ccc([N-]C(=O)c5ccccc5)cc4)c3)nc12 (protonated)
Cc1cccc2[nH]c(-c3cccc(-c4ccc([N-]C(=O)c5ccccc5)cc4)c3)nc12 (3D coordinates assigned)
Cc1cccc2[nH]c(-c3cccc(-c4ccc([N-]C(=O)c5ccccc5)cc4)c3)nc12 (optimized conformer: 107.1822352388819 kcal/mol)

>  <smiles>  (26) 
Cc1cccc2[nH]c(-c3cccc(-c4ccc(NC(=O)c5ccccc5)cc4)c3)nc12

>  <score_type>  (26) 
oracle

>  <origin>  (26) 
adgpu

>  <m_score__min__energy>  (26) 
-12.039999999999999

>  <m_primary>  (26) 
energy

$$$$
26:0
     RDKit          3D

 40 41  0  0  0  0  0  0  0  0999 V2000
   -9.4840   21.5120  -30.5810 C   0  0  0  0  0  0  0  0  0  0  0  0
   -8.1080   21.3120  -31.2380 C   0  0  2  0  0  0  0  0  0  0  0  0
   -7.7270   22.5560  -31.9140 N   0  0  0  0  0  0  0  0  0  0  0  0
   -6.5940   23.3340  -31.5200 C   0  0  0  0  0  0  0  0  0  0  0  0
   -5.2690   23.3730  -31.9140 C   0  0  0  0  0  0  0  0  0  0  0  0
   -4.5070   22.6650  -32.8980 N   0  0  0  0  0  0  0  0  0  0  0  0
   -3.5320   21.6630  -32.5750 C   0  0  0  0  0  0  0  0  0  0  0  0
   -3.6160   20.3980  -33.1770 C   0  0  0  0  0  0  0  0  0  0  0  0
   -2.6900   19.4000  -32.8580 C   0  0  0  0  0  0  0  0  0  0  0  0
   -1.6820   19.6530  -31.9230 C   0  0  0  0  0  0  0  0  0  0  0  0
   -1.6050   20.9010  -31.3000 C   0  0  0  0  0  0  0  0  0  0  0  0
   -2.5300   21.9010  -31.6170 C   0  0  0  0  0  0  0  0  0  0  0  0
   -5.0300   24.3910  -31.0070 C   0  0  0  0  0  0  0  0  0  0  0  0
   -4.0340   25.0900  -30.6890 O   0  0  0  0  0  0  0  0  0  0  0  0
   -6.3460   24.3350  -30.5970 C   0  0  0  0  0  0  0  0  0  0  0  0
   -7.0330   24.9540  -29.7430 O   0  0  0  0  0  0  0  0  0  0  0  0
   -8.0270   20.0840  -32.2170 C   0  0  0  0  0  0  0  0  0  0  0  0
   -9.4400   19.7730  -32.7630 C   0  0  0  0  0  0  0  0  0  0  0  0
   -7.4840   18.8170  -31.5190 C   0  0  0  0  0  0  0  0  0  0  0  0
   -7.1190   20.4140  -33.4230 C   0  0  0  0  0  0  0  0  0  0  0  0
   -9.3736   21.4960  -29.4867 H   0  0  0  0  0  0  0  0  0  0  0  0
   -9.9021   22.4804  -30.8932 H   0  0  0  0  0  0  0  0  0  0  0  0
  -10.1605   20.7027  -30.8932 H   0  0  0  0  0  0  0  0  0  0  0  0
   -7.3951   21.0705  -30.4359 H   0  0  0  0  0  0  0  0  0  0  0  0
   -8.2770   22.8800  -32.7410 H   0  0  0  0  0  0  0  0  0  0  0  0
   -4.6100   22.9630  -33.8940 H   0  0  0  0  0  0  0  0  0  0  0  0
   -4.4150   20.1904  -33.9040 H   0  0  0  0  0  0  0  0  0  0  0  0
   -2.7548   18.4149  -33.3432 H   0  0  0  0  0  0  0  0  0  0  0  0
   -0.9497   18.8696  -31.6779 H   0  0  0  0  0  0  0  0  0  0  0  0
   -0.8159   21.0974  -30.5592 H   0  0  0  0  0  0  0  0  0  0  0  0
   -2.4736   22.8781  -31.1148 H   0  0  0  0  0  0  0  0  0  0  0  0
  -10.1326   19.6206  -31.9222 H   0  0  0  0  0  0  0  0  0  0  0  0
   -9.7893   20.6158  -33.3776 H   0  0  0  0  0  0  0  0  0  0  0  0
   -9.4032   18.8615  -33.3776 H   0  0  0  0  0  0  0  0  0  0  0  0
   -7.5397   18.9470  -30.4281 H   0  0  0  0  0  0  0  0  0  0  0  0
   -8.0884   17.9472  -31.8160 H   0  0  0  0  0  0  0  0  0  0  0  0
   -6.4373   18.6548  -31.8160 H   0  0  0  0  0  0  0  0  0  0  0  0
   -6.1428   20.7688  -33.0608 H   0  0  0  0  0  0  0  0  0  0  0  0
   -6.9771   19.5099  -34.0334 H   0  0  0  0  0  0  0  0  0  0  0  0
   -7.5907   21.1982  -34.0334 H   0  0  0  0  0  0  0  0  0  0  0  0
  1  2  1  0
  2  3  1  0
  3  4  1  0
  4  5  2  0
  5  6  1  0
  6  7  1  0
  7  8  2  0
  8  9  1  0
  9 10  2  0
 10 11  1  0
 11 12  2  0
  5 13  1  0
 13 14  2  0
 13 15  1  0
 15 16  2  0
  2 17  1  0
 17 18  1  0
 17 19  1  0
 17 20  1  0
 15  4  1  0
 12  7  1  0
  1 21  1  0
  1 22  1  0
  1 23  1  0
  2 24  1  1
  3 25  1  0
  6 26  1  0
  8 27  1  0
  9 28  1  0
 10 29  1  0
 11 30  1  0
 12 31  1  0
 18 32  1  0
 18 33  1  0
 18 34  1  0
 19 35  1  0
 19 36  1  0
 19 37  1  0
 20 38  1  0
 20 39  1  0
 20 40  1  0
M  END
>  <UniqueID>  (27) 
23

>  <SMILES>  (27) 
C[C@H](Nc1c(Nc2ccccc2)c(=O)c1=O)C(C)(C)C

>  <Energy>  (27) 
27.823009977262977

>  <Genealogy>  (27) 
C[C@H](Nc1c(Nc2ccccc2)c(=O)c1=O)C(C)(C)C (chirality)
C[C@H](Nc1c(Nc2ccccc2)c(=O)c1=O)C(C)(C)C (3D coordinates assigned)
C[C@H](Nc1c(Nc2ccccc2)c(=O)c1=O)C(C)(C)C (optimized conformer: 27.823009977262977 kcal/mol)

>  <smiles>  (27) 
CC(Nc1c(Nc2ccccc2)c(=O)c1=O)C(C)(C)C

>  <score_type>  (27) 
oracle

>  <origin>  (27) 
adgpu

>  <m_score__min__energy>  (27) 
-7.7000000000000002

>  <m_primary>  (27) 
energy

$$$$
27:0
     RDKit          3D

 71 74  0  0  0  0  0  0  0  0999 V2000
   -0.2340   22.6620  -23.9060 C   0  0  0  0  0  0  0  0  0  0  0  0
   -0.8410   21.5890  -24.6200 O   0  0  0  0  0  0  0  0  0  0  0  0
   -1.2290   21.6490  -25.9680 C   0  0  0  0  0  0  0  0  0  0  0  0
   -0.9790   22.7830  -26.7660 C   0  0  0  0  0  0  0  0  0  0  0  0
   -1.3850   22.8080  -28.1030 C   0  0  0  0  0  0  0  0  0  0  0  0
   -2.0470   21.7080  -28.6570 C   0  0  0  0  0  0  0  0  0  0  0  0
   -2.4870   21.7320  -30.0700 C   0  0  0  0  0  0  0  0  0  0  0  0
   -3.6750   22.3790  -30.4680 C   0  0  0  0  0  0  0  0  0  0  0  0
   -4.4830   23.1420  -29.4310 C   0  0  0  0  0  0  0  0  0  0  0  0
   -4.1070   22.2650  -31.7740 N   0  0  0  0  0  0  0  0  0  0  0  0
   -5.3880   22.8820  -32.2110 C   0  0  0  0  0  0  0  0  0  0  0  0
   -6.5710   21.9770  -31.9360 C   0  0  0  0  0  0  0  0  0  0  0  0
   -6.7310   20.7720  -32.6510 C   0  0  0  0  0  0  0  0  0  0  0  0
   -5.8400   20.4050  -33.6020 F   0  0  0  0  0  0  0  0  0  0  0  0
   -7.8270   19.9420  -32.3980 C   0  0  0  0  0  0  0  0  0  0  0  0
   -8.7840   20.3110  -31.4520 C   0  0  0  0  0  0  0  0  0  0  0  0
   -8.6530   21.5160  -30.7600 C   0  0  0  0  0  0  0  0  0  0  0  0
   -7.5600   22.3540  -31.0050 C   0  0  0  0  0  0  0  0  0  0  0  0
   -7.4740   23.5290  -30.3330 F   0  0  0  0  0  0  0  0  0  0  0  0
   -3.3480   21.5690  -32.6900 C   0  0  0  0  0  0  0  0  0  0  0  0
   -3.7310   21.4940  -33.8930 O   0  0  0  0  0  0  0  0  0  0  0  0
   -2.1820   20.9460  -32.3160 N   0  0  0  0  0  0  0  0  0  0  0  0
   -1.4100   20.1410  -33.2910 C   0  0  0  0  0  0  0  0  0  0  0  0
   -1.0830   18.7340  -32.7510 C   0  0  0  0  0  0  0  0  0  0  0  0
   -1.6700   17.6420  -33.5830 N   0  0  2  0  0  0  0  0  0  0  0  0
   -0.6220   16.9810  -34.3860 C   0  0  0  0  0  0  0  0  0  0  0  0
   -2.7320   18.1480  -34.4850 C   0  0  0  0  0  0  0  0  0  0  0  0
   -4.1110   17.7380  -34.0130 C   0  0  0  0  0  0  0  0  0  0  0  0
   -4.3030   17.2980  -32.6920 C   0  0  0  0  0  0  0  0  0  0  0  0
   -5.5760   16.9220  -32.2510 C   0  0  0  0  0  0  0  0  0  0  0  0
   -6.6650   16.9790  -33.1250 C   0  0  0  0  0  0  0  0  0  0  0  0
   -6.4830   17.4130  -34.4410 C   0  0  0  0  0  0  0  0  0  0  0  0
   -5.2120   17.7930  -34.8870 C   0  0  0  0  0  0  0  0  0  0  0  0
   -1.7400   21.0400  -31.0260 C   0  0  0  0  0  0  0  0  0  0  0  0
   -0.6590   20.4840  -30.6810 O   0  0  0  0  0  0  0  0  0  0  0  0
   -2.2950   20.5760  -27.8700 C   0  0  0  0  0  0  0  0  0  0  0  0
   -1.8860   20.5390  -26.5230 C   0  0  0  0  0  0  0  0  0  0  0  0
   -2.1130   19.4200  -25.7060 O   0  0  0  0  0  0  0  0  0  0  0  0
   -3.2620   18.5820  -25.7880 C   0  0  0  0  0  0  0  0  0  0  0  0
   -0.3337   22.4858  -22.8248 H   0  0  0  0  0  0  0  0  0  0  0  0
    0.8319   22.7221  -24.1710 H   0  0  0  0  0  0  0  0  0  0  0  0
   -0.7315   23.6066  -24.1710 H   0  0  0  0  0  0  0  0  0  0  0  0
   -0.4618   23.6527  -26.3346 H   0  0  0  0  0  0  0  0  0  0  0  0
   -1.1833   23.6953  -28.7211 H   0  0  0  0  0  0  0  0  0  0  0  0
   -4.1635   22.8403  -28.4226 H   0  0  0  0  0  0  0  0  0  0  0  0
   -4.3185   24.2220  -29.5600 H   0  0  0  0  0  0  0  0  0  0  0  0
   -5.5518   22.9159  -29.5600 H   0  0  0  0  0  0  0  0  0  0  0  0
   -5.5303   23.8286  -31.6691 H   0  0  0  0  0  0  0  0  0  0  0  0
   -5.3328   23.0521  -33.2964 H   0  0  0  0  0  0  0  0  0  0  0  0
   -7.9354   18.9947  -32.9466 H   0  0  0  0  0  0  0  0  0  0  0  0
   -9.6418   19.6522  -31.2516 H   0  0  0  0  0  0  0  0  0  0  0  0
   -9.4120   21.8078  -30.0192 H   0  0  0  0  0  0  0  0  0  0  0  0
   -2.0007   20.0386  -34.2133 H   0  0  0  0  0  0  0  0  0  0  0  0
   -0.4592   20.6602  -33.4819 H   0  0  0  0  0  0  0  0  0  0  0  0
    0.0099   18.6110  -32.7306 H   0  0  0  0  0  0  0  0  0  0  0  0
   -1.5223   18.6557  -31.7456 H   0  0  0  0  0  0  0  0  0  0  0  0
   -2.0920   16.9040  -32.9730 H   0  0  0  0  0  0  0  0  0  0  0  0
    0.1153   16.5160  -33.7151 H   0  0  0  0  0  0  0  0  0  0  0  0
   -1.0794   16.2076  -35.0206 H   0  0  0  0  0  0  0  0  0  0  0  0
   -0.1211   17.7270  -35.0206 H   0  0  0  0  0  0  0  0  0  0  0  0
   -2.6784   19.2462  -34.5176 H   0  0  0  0  0  0  0  0  0  0  0  0
   -2.5688   17.7152  -35.4830 H   0  0  0  0  0  0  0  0  0  0  0  0
   -3.4480   17.2491  -32.0016 H   0  0  0  0  0  0  0  0  0  0  0  0
   -5.7201   16.5811  -31.2151 H   0  0  0  0  0  0  0  0  0  0  0  0
   -7.6655   16.6823  -32.7772 H   0  0  0  0  0  0  0  0  0  0  0  0
   -7.3410   17.4560  -35.1280 H   0  0  0  0  0  0  0  0  0  0  0  0
   -5.0736   18.1354  -35.9232 H   0  0  0  0  0  0  0  0  0  0  0  0
   -2.8130   19.7097  -28.3074 H   0  0  0  0  0  0  0  0  0  0  0  0
   -3.6060   18.3311  -24.7737 H   0  0  0  0  0  0  0  0  0  0  0  0
   -4.0629   19.1095  -26.3268 H   0  0  0  0  0  0  0  0  0  0  0  0
   -3.0044   17.6582  -26.3268 H   0  0  0  0  0  0  0  0  0  0  0  0
  1  2  1  0
  2  3  1  0
  3  4  2  0
  4  5  1  0
  5  6  2  0
  6  7  1  0
  7  8  2  0
  8  9  1  0
  8 10  1  0
 10 11  1  0
 11 12  1  0
 12 13  2  0
 13 14  1  0
 13 15  1  0
 15 16  2  0
 16 17  1  0
 17 18  2  0
 18 19  1  0
 10 20  1  0
 20 21  2  0
 20 22  1  0
 22 23  1  0
 23 24  1  0
 24 25  1  0
 25 26  1  0
 25 27  1  0
 27 28  1  0
 28 29  2  0
 29 30  1  0
 30 31  2  0
 31 32  1  0
 32 33  2  0
 22 34  1  0
 34 35  2  0
  6 36  1  0
 36 37  2  0
 37 38  1  0
 38 39  1  0
 37  3  1  0
 34  7  1  0
 18 12  1  0
 33 28  1  0
  1 40  1  0
  1 41  1  0
  1 42  1  0
  4 43  1  0
  5 44  1  0
  9 45  1  0
  9 46  1  0
  9 47  1  0
 11 48  1  0
 11 49  1  0
 15 50  1  0
 16 51  1  0
 17 52  1  0
 23 53  1  0
 23 54  1  0
 24 55  1  0
 24 56  1  0
 25 57  1  1
 26 58  1  0
 26 59  1  0
 26 60  1  0
 27 61  1  0
 27 62  1  0
 29 63  1  0
 30 64  1  0
 31 65  1  0
 32 66  1  0
 33 67  1  0
 36 68  1  0
 39 69  1  0
 39 70  1  0
 39 71  1  0
M  CHG  1  25   1
M  END
>  <UniqueID>  (28) 
24

>  <SMILES>  (28) 
COc1ccc(-c2c(C)n(Cc3c(F)cccc3F)c(=O)n(CC[N@H+](C)Cc3ccccc3)c2=O)cc1OC

>  <Energy>  (28) 
96.85500735920627

>  <Genealogy>  (28) 
COc1ccc(-c2c(C)n(Cc3c(F)cccc3F)c(=O)n(CC[NH+](C)Cc3ccccc3)c2=O)cc1OC (protonated)
COc1ccc(-c2c(C)n(Cc3c(F)cccc3F)c(=O)n(CC[N@H+](C)Cc3ccccc3)c2=O)cc1OC (chirality)
COc1ccc(-c2c(C)n(Cc3c(F)cccc3F)c(=O)n(CC[N@H+](C)Cc3ccccc3)c2=O)cc1OC (3D coordinates assigned)
COc1ccc(-c2c(C)n(Cc3c(F)cccc3F)c(=O)n(CC[N@H+](C)Cc3ccccc3)c2=O)cc1OC (optimized conformer: 96.85500735920627 kcal/mol)

>  <smiles>  (28) 
COc1ccc(-c2c(C)n(Cc3c(F)cccc3F)c(=O)n(CCN(C)Cc3ccccc3)c2=O)cc1OC

>  <score_type>  (28) 
oracle

>  <origin>  (28) 
adgpu

>  <m_score__min__energy>  (28) 
-8.7400000000000002

>  <m_primary>  (28) 
energy

$$$$
28:0
     RDKit          3D

 35 37  0  0  0  0  0  0  0  0999 V2000
   -2.4760   24.0540  -27.7820 C   0  0  0  0  0  0  0  0  0  0  0  0
   -2.2930   24.9520  -28.9670 C   0  0  0  0  0  0  0  0  0  0  0  0
   -1.3040   25.7290  -28.9950 O   0  0  0  0  0  0  0  0  0  0  0  0
   -3.1860   24.9260  -30.0890 N   0  0  0  0  0  0  0  0  0  0  0  0
   -3.9220   23.7920  -30.5710 C   0  0  0  0  0  0  0  0  0  0  0  0
   -3.3020   22.5290  -30.7510 C   0  0  0  0  0  0  0  0  0  0  0  0
   -4.0460   21.4220  -31.1960 C   0  0  0  0  0  0  0  0  0  0  0  0
   -5.4080   21.5970  -31.4360 C   0  0  0  0  0  0  0  0  0  0  0  0
   -6.0220   22.8210  -31.2350 C   0  0  0  0  0  0  0  0  0  0  0  0
   -5.3060   23.9310  -30.7930 C   0  0  0  0  0  0  0  0  0  0  0  0
   -7.4400   22.6810  -31.5500 C   0  0  0  0  0  0  0  0  0  0  0  0
   -8.3190   23.5810  -31.4870 O   0  0  0  0  0  0  0  0  0  0  0  0
   -7.6380   21.2920  -31.9530 C   0  0  0  0  0  0  0  0  0  0  0  0
   -8.7930   20.6330  -32.3660 C   0  0  0  0  0  0  0  0  0  0  0  0
   -8.6950   19.2740  -32.7080 C   0  0  0  0  0  0  0  0  0  0  0  0
   -7.4540   18.5900  -32.6210 C   0  0  0  0  0  0  0  0  0  0  0  0
   -7.3370   17.2050  -32.9910 N   0  0  0  0  0  0  0  0  0  0  0  0
   -6.4440   16.7140  -34.0020 C   0  0  0  0  0  0  0  0  0  0  0  0
   -6.2530   15.2420  -34.1750 C   0  0  0  0  0  0  0  0  0  0  0  0
   -5.8780   17.5070  -34.8020 O   0  0  0  0  0  0  0  0  0  0  0  0
   -6.2990   19.2930  -32.2200 C   0  0  0  0  0  0  0  0  0  0  0  0
   -6.4200   20.6400  -31.8850 C   0  0  0  0  0  0  0  0  0  0  0  0
   -2.3570   24.6381  -26.8575 H   0  0  0  0  0  0  0  0  0  0  0  0
   -3.4828   23.6116  -27.8092 H   0  0  0  0  0  0  0  0  0  0  0  0
   -1.7226   23.2529  -27.8092 H   0  0  0  0  0  0  0  0  0  0  0  0
   -2.2285   22.4144  -30.5404 H   0  0  0  0  0  0  0  0  0  0  0  0
   -3.5663   20.4443  -31.3506 H   0  0  0  0  0  0  0  0  0  0  0  0
   -5.8096   24.8937  -30.6213 H   0  0  0  0  0  0  0  0  0  0  0  0
   -9.7558   21.1620  -32.4229 H   0  0  0  0  0  0  0  0  0  0  0  0
   -9.5908   18.7332  -33.0474 H   0  0  0  0  0  0  0  0  0  0  0  0
   -8.0020   16.5240  -32.5600 H   0  0  0  0  0  0  0  0  0  0  0  0
   -6.1907   14.7618  -33.1873 H   0  0  0  0  0  0  0  0  0  0  0  0
   -7.1045   14.8248  -34.7325 H   0  0  0  0  0  0  0  0  0  0  0  0
   -5.3232   15.0559  -34.7325 H   0  0  0  0  0  0  0  0  0  0  0  0
   -5.3228   18.7883  -32.1727 H   0  0  0  0  0  0  0  0  0  0  0  0
  1  2  1  0
  2  3  2  0
  2  4  1  0
  4  5  1  0
  5  6  2  0
  6  7  1  0
  7  8  2  0
  8  9  1  0
  9 10  2  0
  9 11  1  0
 11 12  2  0
 11 13  1  0
 13 14  2  0
 14 15  1  0
 15 16  2  0
 16 17  1  0
 17 18  1  0
 18 19  1  0
 18 20  2  0
 16 21  1  0
 21 22  2  0
 10  5  1  0
 22 13  1  0
 22  8  1  0
  1 23  1  0
  1 24  1  0
  1 25  1  0
  6 26  1  0
  7 27  1  0
 10 28  1  0
 14 29  1  0
 15 30  1  0
 17 31  1  0
 19 32  1  0
 19 33  1  0
 19 34  1  0
 21 35  1  0
M  CHG  1   4  -1
M  END
>  <UniqueID>  (29) 
25

>  <SMILES>  (29) 
CC(=O)[N-]c1ccc2c(c1)C(=O)c1ccc(NC(C)=O)cc1-2

>  <Energy>  (29) 
75.75604807211963

>  <Genealogy>  (29) 
CC(=O)[N-]c1ccc2c(c1)C(=O)c1ccc(NC(C)=O)cc1-2 (protonated)
CC(=O)[N-]c1ccc2c(c1)C(=O)c1ccc(NC(C)=O)cc1-2 (3D coordinates assigned)
CC(=O)[N-]c1ccc2c(c1)C(=O)c1ccc(NC(C)=O)cc1-2 (nonaromatic ring conformer: 75.75604807211963 kcal/mol)

>  <smiles>  (29) 
CC(=O)Nc1ccc2c(c1)C(=O)c1ccc(NC(C)=O)cc1-2

>  <score_type>  (29) 
oracle

>  <origin>  (29) 
adgpu

>  <m_score__min__energy>  (29) 
-10.48

>  <m_primary>  (29) 
energy

$$$$
29:0
     RDKit          3D

 51 54  0  0  0  0  0  0  0  0999 V2000
   -6.7130   17.4010  -32.0950 C   0  0  0  0  0  0  0  0  0  0  0  0
   -7.2520   18.4400  -33.0690 C   0  0  0  0  0  0  0  0  0  0  0  0
   -7.0060   19.8360  -32.5760 C   0  0  0  0  0  0  0  0  0  0  0  0
   -7.9990   20.6360  -32.1200 N   0  0  0  0  0  0  0  0  0  0  0  0
   -7.3550   21.7600  -31.7400 C   0  0  0  0  0  0  0  0  0  0  0  0
   -7.9600   22.8920  -31.2050 C   0  0  0  0  0  0  0  0  0  0  0  0
   -7.1380   23.9820  -30.8830 C   0  0  0  0  0  0  0  0  0  0  0  0
   -5.7440   23.9300  -31.1200 C   0  0  0  0  0  0  0  0  0  0  0  0
   -4.8880   25.0940  -30.7910 C   0  0  0  0  0  0  0  0  0  0  0  0
   -5.3990   26.2440  -30.7540 O   0  0  0  0  0  0  0  0  0  0  0  0
   -3.4980   24.9510  -30.4600 N   0  0  0  0  0  0  0  0  0  0  0  0
   -2.9070   23.8570  -29.7400 C   0  0  0  0  0  0  0  0  0  0  0  0
   -1.9710   23.0090  -30.3580 C   0  0  0  0  0  0  0  0  0  0  0  0
   -1.4120   21.9420  -29.6520 C   0  0  0  0  0  0  0  0  0  0  0  0
   -1.7690   21.7190  -28.3200 C   0  0  0  0  0  0  0  0  0  0  0  0
   -2.6790   22.5700  -27.6880 C   0  0  0  0  0  0  0  0  0  0  0  0
   -3.2420   23.6520  -28.3860 C   0  0  0  0  0  0  0  0  0  0  0  0
   -4.2390   24.5470  -27.7010 C   0  0  0  0  0  0  0  0  0  0  0  0
   -5.1930   22.7450  -31.6500 C   0  0  0  0  0  0  0  0  0  0  0  0
   -6.0240   21.7060  -31.9260 N   0  0  0  0  0  0  0  0  0  0  0  0
   -5.7840   20.4900  -32.4480 C   0  0  0  0  0  0  0  0  0  0  0  0
   -4.4780   19.9400  -32.7120 N   0  0  0  0  0  0  0  0  0  0  0  0
   -4.2790   19.0850  -33.8840 C   0  0  0  0  0  0  0  0  0  0  0  0
   -3.3460   20.1570  -31.7960 C   0  0  0  0  0  0  0  0  0  0  0  0
   -2.0640   20.3870  -32.5350 C   0  0  0  0  0  0  0  0  0  0  0  0
   -1.9630   21.1850  -33.6210 N   0  0  0  0  0  0  0  0  0  0  0  0
   -0.6940   21.2210  -34.1070 C   0  0  0  0  0  0  0  0  0  0  0  0
    0.2270   20.4480  -33.4110 C   0  0  0  0  0  0  0  0  0  0  0  0
   -0.5830   19.6940  -32.1440 S   0  0  0  0  0  0  0  0  0  0  0  0
   -6.8887   17.7397  -31.0633 H   0  0  0  0  0  0  0  0  0  0  0  0
   -7.2277   16.4428  -32.2591 H   0  0  0  0  0  0  0  0  0  0  0  0
   -5.6332   17.2700  -32.2591 H   0  0  0  0  0  0  0  0  0  0  0  0
   -6.7535   18.3112  -34.0411 H   0  0  0  0  0  0  0  0  0  0  0  0
   -8.3381   18.2938  -33.1634 H   0  0  0  0  0  0  0  0  0  0  0  0
   -9.0468   22.9313  -31.0398 H   0  0  0  0  0  0  0  0  0  0  0  0
   -7.5817   24.8866  -30.4416 H   0  0  0  0  0  0  0  0  0  0  0  0
   -1.6777   23.1872  -31.4031 H   0  0  0  0  0  0  0  0  0  0  0  0
   -0.6892   21.2757  -30.1456 H   0  0  0  0  0  0  0  0  0  0  0  0
   -1.3333   20.8728  -27.7684 H   0  0  0  0  0  0  0  0  0  0  0  0
   -2.9563   22.3922  -26.6385 H   0  0  0  0  0  0  0  0  0  0  0  0
   -4.1306   24.4497  -26.6107 H   0  0  0  0  0  0  0  0  0  0  0  0
   -4.0576   25.5911  -27.9958 H   0  0  0  0  0  0  0  0  0  0  0  0
   -5.2576   24.2544  -27.9958 H   0  0  0  0  0  0  0  0  0  0  0  0
   -4.1120   22.6634  -31.8363 H   0  0  0  0  0  0  0  0  0  0  0  0
   -4.0410   18.0625  -33.5557 H   0  0  0  0  0  0  0  0  0  0  0  0
   -5.1980   19.0715  -34.4883 H   0  0  0  0  0  0  0  0  0  0  0  0
   -3.4485   19.4787  -34.4883 H   0  0  0  0  0  0  0  0  0  0  0  0
   -3.5585   21.0367  -31.1707 H   0  0  0  0  0  0  0  0  0  0  0  0
   -3.2271   19.2523  -31.1817 H   0  0  0  0  0  0  0  0  0  0  0  0
   -0.4164   21.8189  -34.9876 H   0  0  0  0  0  0  0  0  0  0  0  0
    1.2967   20.3469  -33.6467 H   0  0  0  0  0  0  0  0  0  0  0  0
  1  2  1  0
  2  3  1  0
  3  4  1  0
  4  5  2  0
  5  6  1  0
  6  7  2  0
  7  8  1  0
  8  9  1  0
  9 10  2  0
  9 11  1  0
 11 12  1  0
 12 13  2  0
 13 14  1  0
 14 15  2  0
 15 16  1  0
 16 17  2  0
 17 18  1  0
  8 19  2  0
 19 20  1  0
 20 21  1  0
 21 22  1  0
 22 23  1  0
 22 24  1  0
 24 25  1  0
 25 26  2  0
 26 27  1  0
 27 28  2  0
 28 29  1  0
 21  3  2  0
 29 25  1  0
 20  5  1  0
 17 12  1  0
  1 30  1  0
  1 31  1  0
  1 32  1  0
  2 33  1  0
  2 34  1  0
  6 35  1  0
  7 36  1  0
 13 37  1  0
 14 38  1  0
 15 39  1  0
 16 40  1  0
 18 41  1  0
 18 42  1  0
 18 43  1  0
 19 44  1  0
 23 45  1  0
 23 46  1  0
 23 47  1  0
 24 48  1  0
 24 49  1  0
 27 50  1  0
 28 51  1  0
M  CHG  1  11  -1
M  END
>  <UniqueID>  (30) 
26

>  <SMILES>  (30) 
CCc1nc2ccc(C(=O)[N-]c3ccccc3C)cn2c1N(C)Cc1nccs1

>  <Energy>  (30) 
124.54438152240051

>  <Genealogy>  (30) 
CCc1nc2ccc(C(=O)[N-]c3ccccc3C)cn2c1N(C)Cc1nccs1 (protonated)
CCc1nc2ccc(C(=O)[N-]c3ccccc3C)cn2c1N(C)Cc1nccs1 (3D coordinates assigned)
CCc1nc2ccc(C(=O)[N-]c3ccccc3C)cn2c1N(C)Cc1nccs1 (optimized conformer: 124.54438152240051 kcal/mol)

>  <smiles>  (30) 
CCc1nc2ccc(C(=O)Nc3ccccc3C)cn2c1N(C)Cc1nccs1

>  <score_type>  (30) 
oracle

>  <origin>  (30) 
adgpu

>  <m_score__min__energy>  (30) 
-10.119999999999999

>  <m_primary>  (30) 
energy

$$$$
30:0
     RDKit          3D

 76 79  0  0  0  0  0  0  0  0999 V2000
    0.6030   22.4090  -35.7240 C   0  0  0  0  0  0  0  0  0  0  0  0
    0.7430   21.1800  -34.8420 C   0  0  0  0  0  0  0  0  0  0  0  0
   -0.4390   20.3390  -34.9880 N   0  0  0  0  0  0  0  0  0  0  0  0
   -1.5840   20.4440  -34.1400 C   0  0  0  0  0  0  0  0  0  0  0  0
   -1.6900   21.4350  -33.3750 O   0  0  0  0  0  0  0  0  0  0  0  0
   -2.6220   19.4560  -34.1990 N   0  0  0  0  0  0  0  0  0  0  0  0
   -2.5810   18.1360  -33.5630 C   0  0  2  0  0  0  0  0  0  0  0  0
   -1.1300   17.6120  -33.4740 C   0  0  0  0  0  0  0  0  0  0  0  0
   -0.5490   17.8010  -32.0900 C   0  0  0  0  0  0  0  0  0  0  0  0
   -0.6280   19.0730  -31.4940 C   0  0  0  0  0  0  0  0  0  0  0  0
   -0.1200   19.2920  -30.2100 C   0  0  0  0  0  0  0  0  0  0  0  0
    0.4540   18.2410  -29.4950 C   0  0  0  0  0  0  0  0  0  0  0  0
    1.0490   18.5100  -27.8630 Cl  0  0  0  0  0  0  0  0  0  0  0  0
    0.5490   16.9750  -30.0790 C   0  0  0  0  0  0  0  0  0  0  0  0
    0.0600   16.7440  -31.3710 C   0  0  0  0  0  0  0  0  0  0  0  0
    0.2250   15.1220  -32.0300 Cl  0  0  0  0  0  0  0  0  0  0  0  0
   -3.5070   17.1750  -34.2800 C   0  0  0  0  0  0  0  0  0  0  0  0
   -3.2030   16.7370  -35.4220 O   0  0  0  0  0  0  0  0  0  0  0  0
   -4.7970   16.8580  -33.7320 N   0  0  0  0  0  0  0  0  0  0  0  0
   -5.9950   17.1240  -34.5430 C   0  0  0  0  0  0  0  0  0  0  0  0
   -7.2380   17.3050  -33.6600 C   0  0  0  0  0  0  0  0  0  0  0  0
   -6.8880   18.0720  -32.4530 N   0  0  0  0  0  0  0  0  0  0  0  0
   -7.4950   19.3580  -32.2430 C   0  0  0  0  0  0  0  0  0  0  0  0
   -8.7100   19.4300  -31.5400 C   0  0  0  0  0  0  0  0  0  0  0  0
   -9.2870   20.6650  -31.2430 C   0  0  0  0  0  0  0  0  0  0  0  0
   -8.6470   21.8410  -31.6300 C   0  0  0  0  0  0  0  0  0  0  0  0
   -7.4360   21.7860  -32.3240 C   0  0  0  0  0  0  0  0  0  0  0  0
   -6.8540   20.5500  -32.6580 C   0  0  0  0  0  0  0  0  0  0  0  0
   -5.5890   20.5330  -33.4860 C   0  0  0  0  0  0  0  0  0  0  0  0
   -4.5380   21.3730  -32.8870 N   0  0  0  0  0  0  0  0  0  0  0  0
   -4.2630   21.0600  -31.4750 C   0  0  0  0  0  0  0  0  0  0  0  0
   -3.6960   22.2570  -30.7570 C   0  0  0  0  0  0  0  0  0  0  0  0
   -4.4860   23.4000  -30.5540 C   0  0  0  0  0  0  0  0  0  0  0  0
   -3.9340   24.5420  -29.9630 C   0  0  0  0  0  0  0  0  0  0  0  0
   -2.5900   24.5480  -29.5430 C   0  0  0  0  0  0  0  0  0  0  0  0
   -1.9900   25.6750  -28.9570 O   0  0  0  0  0  0  0  0  0  0  0  0
   -1.3130   25.6670  -27.7070 C   0  0  0  0  0  0  0  0  0  0  0  0
   -1.8190   23.3910  -29.7050 C   0  0  0  0  0  0  0  0  0  0  0  0
   -2.3710   22.2490  -30.2910 C   0  0  0  0  0  0  0  0  0  0  0  0
   -5.7200   17.6840  -31.6440 C   0  0  0  0  0  0  0  0  0  0  0  0
   -4.9580   16.5420  -32.3110 C   0  0  0  0  0  0  0  0  0  0  0  0
    0.5011   23.3039  -35.0925 H   0  0  0  0  0  0  0  0  0  0  0  0
    1.4957   22.5082  -36.3591 H   0  0  0  0  0  0  0  0  0  0  0  0
   -0.2891   22.3049  -36.3591 H   0  0  0  0  0  0  0  0  0  0  0  0
    1.6360   20.6126  -35.1430 H   0  0  0  0  0  0  0  0  0  0  0  0
    0.8432   21.4921  -33.7920 H   0  0  0  0  0  0  0  0  0  0  0  0
   -2.9458   18.2247  -32.5291 H   0  0  0  0  0  0  0  0  0  0  0  0
   -1.1228   16.5399  -33.7200 H   0  0  0  0  0  0  0  0  0  0  0  0
   -0.5153   18.1844  -34.1843 H   0  0  0  0  0  0  0  0  0  0  0  0
   -1.0943   19.9038  -32.0439 H   0  0  0  0  0  0  0  0  0  0  0  0
   -0.1731   20.2955  -29.7626 H   0  0  0  0  0  0  0  0  0  0  0  0
    1.0130   16.1506  -29.5177 H   0  0  0  0  0  0  0  0  0  0  0  0
   -5.8348   18.0413  -35.1285 H   0  0  0  0  0  0  0  0  0  0  0  0
   -6.1631   16.2629  -35.2066 H   0  0  0  0  0  0  0  0  0  0  0  0
   -8.0110   17.8467  -34.2249 H   0  0  0  0  0  0  0  0  0  0  0  0
   -7.6184   16.3165  -33.3632 H   0  0  0  0  0  0  0  0  0  0  0  0
   -9.2106   18.5039  -31.2210 H   0  0  0  0  0  0  0  0  0  0  0  0
  -10.2451   20.7105  -30.7045 H   0  0  0  0  0  0  0  0  0  0  0  0
   -9.0968   22.8153  -31.3882 H   0  0  0  0  0  0  0  0  0  0  0  0
   -6.9318   22.7201  -32.6126 H   0  0  0  0  0  0  0  0  0  0  0  0
   -5.2222   19.4983  -33.5564 H   0  0  0  0  0  0  0  0  0  0  0  0
   -5.8245   20.9348  -34.4825 H   0  0  0  0  0  0  0  0  0  0  0  0
   -3.6550   21.1960  -33.4270 H   0  0  0  0  0  0  0  0  0  0  0  0
   -5.1999   20.7570  -30.9847 H   0  0  0  0  0  0  0  0  0  0  0  0
   -3.5254   20.2450  -31.4340 H   0  0  0  0  0  0  0  0  0  0  0  0
   -5.5424   23.3977  -30.8606 H   0  0  0  0  0  0  0  0  0  0  0  0
   -4.5537   25.4404  -29.8257 H   0  0  0  0  0  0  0  0  0  0  0  0
   -2.0502   25.6757  -26.8907 H   0  0  0  0  0  0  0  0  0  0  0  0
   -0.6931   24.7615  -27.6316 H   0  0  0  0  0  0  0  0  0  0  0  0
   -0.6718   26.5576  -27.6316 H   0  0  0  0  0  0  0  0  0  0  0  0
   -0.7717   23.3808  -29.3688 H   0  0  0  0  0  0  0  0  0  0  0  0
   -1.7635   21.3371  -30.3881 H   0  0  0  0  0  0  0  0  0  0  0  0
   -5.0510   18.5505  -31.5367 H   0  0  0  0  0  0  0  0  0  0  0  0
   -6.0693   17.3474  -30.6567 H   0  0  0  0  0  0  0  0  0  0  0  0
   -3.9695   16.4313  -31.8412 H   0  0  0  0  0  0  0  0  0  0  0  0
   -5.5138   15.5998  -32.1951 H   0  0  0  0  0  0  0  0  0  0  0  0
  1  2  1  0
  2  3  1  0
  3  4  1  0
  4  5  2  0
  4  6  1  0
  6  7  1  0
  7  8  1  0
  8  9  1  0
  9 10  2  0
 10 11  1  0
 11 12  2  0
 12 13  1  0
 12 14  1  0
 14 15  2  0
 15 16  1  0
  7 17  1  0
 17 18  2  0
 17 19  1  0
 19 20  1  0
 20 21  1  0
 21 22  1  0
 22 23  1  0
 23 24  2  0
 24 25  1  0
 25 26  2  0
 26 27  1  0
 27 28  2  0
 28 29  1  0
 29 30  1  0
 30 31  1  0
 31 32  1  0
 32 33  2  0
 33 34  1  0
 34 35  2  0
 35 36  1  0
 36 37  1  0
 35 38  1  0
 38 39  2  0
 22 40  1  0
 40 41  1  0
 15  9  1  0
 41 19  1  0
 28 23  1  0
 39 32  1  0
  1 42  1  0
  1 43  1  0
  1 44  1  0
  2 45  1  0
  2 46  1  0
  7 47  1  1
  8 48  1  0
  8 49  1  0
 10 50  1  0
 11 51  1  0
 14 52  1  0
 20 53  1  0
 20 54  1  0
 21 55  1  0
 21 56  1  0
 24 57  1  0
 25 58  1  0
 26 59  1  0
 27 60  1  0
 29 61  1  0
 29 62  1  0
 30 63  1  0
 31 64  1  0
 31 65  1  0
 33 66  1  0
 34 67  1  0
 37 68  1  0
 37 69  1  0
 37 70  1  0
 38 71  1  0
 39 72  1  0
 40 73  1  0
 40 74  1  0
 41 75  1  0
 41 76  1  0
M  CHG  2   3  -1   6  -1
M  END
>  <UniqueID>  (31) 
27

>  <SMILES>  (31) 
CC[N-]C(=O)[N-][C@H](Cc1ccc(Cl)cc1Cl)C(=O)N1CCN(c2ccccc2CNCc2ccc(OC)cc2)CC1

>  <Energy>  (31) 
75.90618754342015

>  <Genealogy>  (31) 
CC[N-]C(=O)[N-]C(Cc1ccc(Cl)cc1Cl)C(=O)N1CCN(c2ccccc2CNCc2ccc(OC)cc2)CC1 (protonated)
CC[N-]C(=O)[N-][C@H](Cc1ccc(Cl)cc1Cl)C(=O)N1CCN(c2ccccc2CNCc2ccc(OC)cc2)CC1 (chirality)
CC[N-]C(=O)[N-][C@H](Cc1ccc(Cl)cc1Cl)C(=O)N1CCN(c2ccccc2CNCc2ccc(OC)cc2)CC1 (3D coordinates assigned)
CC[N-]C(=O)[N-][C@H](Cc1ccc(Cl)cc1Cl)C(=O)N1CCN(c2ccccc2CNCc2ccc(OC)cc2)CC1 (nonaromatic ring conformer: 75.90618754342015 kcal/mol)

>  <smiles>  (31) 
CCNC(=O)NC(Cc1ccc(Cl)cc1Cl)C(=O)N1CCN(c2ccccc2CNCc2ccc(OC)cc2)CC1

>  <score_type>  (31) 
oracle

>  <origin>  (31) 
adgpu

>  <m_score__min__energy>  (31) 
-13.029999999999999

>  <m_primary>  (31) 
energy

$$$$
31:0
     RDKit          3D

 56 59  0  0  0  0  0  0  0  0999 V2000
   -1.0270   25.8860  -27.1590 C   0  0  0  0  0  0  0  0  0  0  0  0
   -1.4370   24.7940  -28.1040 C   0  0  0  0  0  0  0  0  0  0  0  0
   -0.4710   24.0640  -28.8120 C   0  0  0  0  0  0  0  0  0  0  0  0
   -0.8620   23.0800  -29.7210 C   0  0  0  0  0  0  0  0  0  0  0  0
   -2.2200   22.8330  -29.9630 C   0  0  0  0  0  0  0  0  0  0  0  0
   -2.5810   21.8180  -30.9110 N   0  0  0  0  0  0  0  0  0  0  0  0
   -1.9300   20.5410  -30.9680 C   0  0  0  0  0  0  0  0  0  0  0  0
   -1.0400   20.2370  -30.1290 O   0  0  0  0  0  0  0  0  0  0  0  0
   -2.3500   19.5300  -31.9910 C   0  0  0  0  0  0  0  0  0  0  0  0
   -2.9020   20.3290  -33.5380 S   0  0  0  0  0  0  0  0  0  0  0  0
   -4.6430   20.4240  -33.0790 C   0  0  0  0  0  0  0  0  0  0  0  0
   -5.1390   21.6400  -32.7190 N   0  0  0  0  0  0  0  0  0  0  0  0
   -6.4470   21.7830  -32.3920 C   0  0  0  0  0  0  0  0  0  0  0  0
   -7.2930   20.7120  -32.4210 C   0  0  0  0  0  0  0  0  0  0  0  0
   -6.7980   19.4580  -32.7820 C   0  0  0  0  0  0  0  0  0  0  0  0
   -7.5730   18.4640  -32.8030 O   0  0  0  0  0  0  0  0  0  0  0  0
   -5.4680   19.3220  -33.1050 N   0  0  0  0  0  0  0  0  0  0  0  0
   -4.9610   18.0340  -33.5000 C   0  0  0  0  0  0  0  0  0  0  0  0
   -4.4290   17.8510  -34.7820 C   0  0  0  0  0  0  0  0  0  0  0  0
   -3.9290   16.6080  -35.1660 C   0  0  0  0  0  0  0  0  0  0  0  0
   -3.9560   15.5190  -34.2770 C   0  0  0  0  0  0  0  0  0  0  0  0
   -3.4010   14.1920  -34.7190 C   0  0  0  0  0  0  0  0  0  0  0  0
   -4.4980   15.6950  -32.9800 C   0  0  0  0  0  0  0  0  0  0  0  0
   -4.5470   14.5570  -31.9930 C   0  0  0  0  0  0  0  0  0  0  0  0
   -5.0000   16.9530  -32.6070 C   0  0  0  0  0  0  0  0  0  0  0  0
   -8.9750   21.0620  -31.9700 S   0  0  0  0  0  0  0  0  0  0  0  0
   -8.5220   22.8110  -31.6190 C   0  0  2  0  0  0  0  0  0  0  0  0
   -9.4900   23.7400  -32.3510 C   0  0  0  0  0  0  0  0  0  0  0  0
   -7.0520   23.0820  -32.0160 C   0  0  0  0  0  0  0  0  0  0  0  0
   -3.1930   23.5490  -29.2360 C   0  0  0  0  0  0  0  0  0  0  0  0
   -5.0730   23.1720  -29.3910 Br  0  0  0  0  0  0  0  0  0  0  0  0
   -2.7950   24.5330  -28.3240 C   0  0  0  0  0  0  0  0  0  0  0  0
   -1.1563   25.5415  -26.1224 H   0  0  0  0  0  0  0  0  0  0  0  0
    0.0287   26.1426  -27.3311 H   0  0  0  0  0  0  0  0  0  0  0  0
   -1.6530   26.7740  -27.3311 H   0  0  0  0  0  0  0  0  0  0  0  0
    0.5978   24.2677  -28.6503 H   0  0  0  0  0  0  0  0  0  0  0  0
   -0.0979   22.4934  -30.2520 H   0  0  0  0  0  0  0  0  0  0  0  0
   -3.4820   21.9340  -31.4300 H   0  0  0  0  0  0  0  0  0  0  0  0
   -1.4972   18.8718  -32.2136 H   0  0  0  0  0  0  0  0  0  0  0  0
   -3.1932   18.9549  -31.5807 H   0  0  0  0  0  0  0  0  0  0  0  0
   -4.4055   18.6926  -35.4899 H   0  0  0  0  0  0  0  0  0  0  0  0
   -3.5092   16.4777  -36.1743 H   0  0  0  0  0  0  0  0  0  0  0  0
   -3.1482   13.5876  -33.8354 H   0  0  0  0  0  0  0  0  0  0  0  0
   -4.1531   13.6626  -35.3224 H   0  0  0  0  0  0  0  0  0  0  0  0
   -2.4959   14.3557  -35.3224 H   0  0  0  0  0  0  0  0  0  0  0  0
   -4.5297   14.9587  -30.9691 H   0  0  0  0  0  0  0  0  0  0  0  0
   -5.4708   13.9795  -32.1448 H   0  0  0  0  0  0  0  0  0  0  0  0
   -3.6762   13.9022  -32.1448 H   0  0  0  0  0  0  0  0  0  0  0  0
   -5.4284   17.0918  -31.6034 H   0  0  0  0  0  0  0  0  0  0  0  0
   -8.6047   23.0059  -30.5396 H   0  0  0  0  0  0  0  0  0  0  0  0
  -10.0806   24.3068  -31.6162 H   0  0  0  0  0  0  0  0  0  0  0  0
   -8.9211   24.4389  -32.9818 H   0  0  0  0  0  0  0  0  0  0  0  0
  -10.1649   23.1429  -32.9818 H   0  0  0  0  0  0  0  0  0  0  0  0
   -7.0149   23.7750  -32.8695 H   0  0  0  0  0  0  0  0  0  0  0  0
   -6.5021   23.5386  -31.1798 H   0  0  0  0  0  0  0  0  0  0  0  0
   -3.5561   25.1068  -27.7748 H   0  0  0  0  0  0  0  0  0  0  0  0
  1  2  1  0
  2  3  2  0
  3  4  1  0
  4  5  2  0
  5  6  1  0
  6  7  1  0
  7  8  2  0
  7  9  1  0
  9 10  1  0
 10 11  1  0
 11 12  2  0
 12 13  1  0
 13 14  2  0
 14 15  1  0
 15 16  2  0
 15 17  1  0
 17 18  1  0
 18 19  2  0
 19 20  1  0
 20 21  2  0
 21 22  1  0
 21 23  1  0
 23 24  1  0
 23 25  2  0
 14 26  1  0
 26 27  1  0
 27 28  1  0
 27 29  1  0
  5 30  1  0
 30 31  1  0
 30 32  2  0
 32  2  1  0
 17 11  1  0
 25 18  1  0
 29 13  1  0
  1 33  1  0
  1 34  1  0
  1 35  1  0
  3 36  1  0
  4 37  1  0
  6 38  1  0
  9 39  1  0
  9 40  1  0
 19 41  1  0
 20 42  1  0
 22 43  1  0
 22 44  1  0
 22 45  1  0
 24 46  1  0
 24 47  1  0
 24 48  1  0
 25 49  1  0
 27 50  1  1
 28 51  1  0
 28 52  1  0
 28 53  1  0
 29 54  1  0
 29 55  1  0
 32 56  1  0
M  END
>  <UniqueID>  (32) 
28

>  <SMILES>  (32) 
Cc1ccc(NC(=O)CSc2nc3c(c(=O)n2-c2ccc(C)c(C)c2)S[C@H](C)C3)c(Br)c1

>  <Energy>  (32) 
73.5240666065675

>  <Genealogy>  (32) 
Cc1ccc(NC(=O)CSc2nc3c(c(=O)n2-c2ccc(C)c(C)c2)S[C@H](C)C3)c(Br)c1 (chirality)
Cc1ccc(NC(=O)CSc2nc3c(c(=O)n2-c2ccc(C)c(C)c2)S[C@H](C)C3)c(Br)c1 (3D coordinates assigned)
Cc1ccc(NC(=O)CSc2nc3c(c(=O)n2-c2ccc(C)c(C)c2)S[C@H](C)C3)c(Br)c1 (nonaromatic ring conformer: 73.5240666065675 kcal/mol)

>  <smiles>  (32) 
Cc1ccc(NC(=O)CSc2nc3c(c(=O)n2-c2ccc(C)c(C)c2)SC(C)C3)c(Br)c1

>  <score_type>  (32) 
oracle

>  <origin>  (32) 
adgpu

>  <m_score__min__energy>  (32) 
-11.119999999999999

>  <m_primary>  (32) 
energy

$$$$
32:0
     RDKit          3D

 63 67  0  0  0  0  0  0  0  0999 V2000
   -5.2150   26.3370  -30.4460 O   0  0  0  0  0  0  0  0  0  0  0  0
   -4.7990   25.1520  -30.3450 C   0  0  0  0  0  0  0  0  0  0  0  0
   -3.4520   24.9340  -29.9040 N   0  0  0  0  0  0  0  0  0  0  0  0
   -2.7300   23.7000  -30.0200 C   0  0  0  0  0  0  0  0  0  0  0  0
   -2.8680   22.9610  -31.2010 C   0  0  0  0  0  0  0  0  0  0  0  0
   -2.2290   21.7210  -31.3490 C   0  0  0  0  0  0  0  0  0  0  0  0
   -2.4650   20.7700  -32.8170 S   0  0  0  0  0  0  0  0  0  0  0  0
   -1.1310   20.5490  -33.4780 O   0  0  0  0  0  0  0  0  0  0  0  0
   -3.3190   21.5610  -33.7670 O   0  0  0  0  0  0  0  0  0  0  0  0
   -3.2440   19.2280  -32.5170 N   0  0  0  0  0  0  0  0  0  0  0  0
   -4.6270   19.3490  -32.0170 C   0  0  0  0  0  0  0  0  0  0  0  0
   -5.6670   19.5860  -33.1280 C   0  0  0  0  0  0  0  0  0  0  0  0
   -5.3130   18.9050  -34.4580 C   0  0  0  0  0  0  0  0  0  0  0  0
   -4.3420   17.7480  -34.2540 C   0  0  0  0  0  0  0  0  0  0  0  0
   -3.0390   18.2410  -33.6050 C   0  0  0  0  0  0  0  0  0  0  0  0
   -1.3870   21.2570  -30.3330 C   0  0  0  0  0  0  0  0  0  0  0  0
   -1.2250   21.9970  -29.1610 C   0  0  0  0  0  0  0  0  0  0  0  0
   -1.8890   23.2210  -28.9900 C   0  0  0  0  0  0  0  0  0  0  0  0
   -1.6240   24.0040  -27.8120 N   0  0  0  0  0  0  0  0  0  0  0  0
   -2.7530   24.5970  -27.0820 C   0  0  0  0  0  0  0  0  0  0  0  0
   -2.2850   25.6940  -26.1180 C   0  0  0  0  0  0  0  0  0  0  0  0
   -1.3300   26.6650  -26.8290 C   0  0  0  0  0  0  0  0  0  0  0  0
   -0.1480   25.9590  -27.5320 C   0  0  0  0  0  0  0  0  0  0  0  0
   -0.2510   24.4270  -27.5070 C   0  0  0  0  0  0  0  0  0  0  0  0
   -5.6940   24.0330  -30.7210 C   0  0  0  0  0  0  0  0  0  0  0  0
   -6.5300   23.4460  -29.7580 C   0  0  0  0  0  0  0  0  0  0  0  0
   -7.3700   22.3830  -30.1010 C   0  0  0  0  0  0  0  0  0  0  0  0
   -7.4120   21.8990  -31.4190 C   0  0  0  0  0  0  0  0  0  0  0  0
   -8.2790   20.7980  -31.7570 N   0  0  0  0  0  0  0  0  0  0  0  0
   -9.3580   20.7840  -32.5610 C   0  0  0  0  0  0  0  0  0  0  0  0
   -9.8760   19.5420  -32.6090 N   0  0  0  0  0  0  0  0  0  0  0  0
   -9.0960   18.8080  -31.8270 N   0  0  0  0  0  0  0  0  0  0  0  0
   -8.1350   19.5600  -31.3150 N   0  0  0  0  0  0  0  0  0  0  0  0
   -6.6050   22.5160  -32.3910 C   0  0  0  0  0  0  0  0  0  0  0  0
   -5.7580   23.5730  -32.0470 C   0  0  0  0  0  0  0  0  0  0  0  0
   -3.4841   23.3570  -32.0217 H   0  0  0  0  0  0  0  0  0  0  0  0
   -4.8882   18.4201  -31.4889 H   0  0  0  0  0  0  0  0  0  0  0  0
   -4.6550   20.2284  -31.3567 H   0  0  0  0  0  0  0  0  0  0  0  0
   -6.6368   19.1962  -32.7852 H   0  0  0  0  0  0  0  0  0  0  0  0
   -5.6945   20.6691  -33.3179 H   0  0  0  0  0  0  0  0  0  0  0  0
   -6.2349   18.5205  -34.9188 H   0  0  0  0  0  0  0  0  0  0  0  0
   -4.8301   19.6493  -35.1082 H   0  0  0  0  0  0  0  0  0  0  0  0
   -4.8086   16.9957  -33.6010 H   0  0  0  0  0  0  0  0  0  0  0  0
   -4.1049   17.3081  -35.2339 H   0  0  0  0  0  0  0  0  0  0  0  0
   -2.5094   17.3716  -33.1883 H   0  0  0  0  0  0  0  0  0  0  0  0
   -2.4633   18.7496  -34.3924 H   0  0  0  0  0  0  0  0  0  0  0  0
   -0.8504   20.3050  -30.4583 H   0  0  0  0  0  0  0  0  0  0  0  0
   -0.5701   21.6168  -28.3632 H   0  0  0  0  0  0  0  0  0  0  0  0
   -3.4569   25.0337  -27.8058 H   0  0  0  0  0  0  0  0  0  0  0  0
   -3.2380   23.8043  -26.4935 H   0  0  0  0  0  0  0  0  0  0  0  0
   -3.1599   26.2507  -25.7512 H   0  0  0  0  0  0  0  0  0  0  0  0
   -1.7535   25.2249  -25.2769 H   0  0  0  0  0  0  0  0  0  0  0  0
   -1.9008   27.2250  -27.5844 H   0  0  0  0  0  0  0  0  0  0  0  0
   -0.9030   27.3234  -26.0581 H   0  0  0  0  0  0  0  0  0  0  0  0
   -0.1183   26.2895  -28.5808 H   0  0  0  0  0  0  0  0  0  0  0  0
    0.7659   26.2321  -26.9841 H   0  0  0  0  0  0  0  0  0  0  0  0
    0.4340   24.0049  -28.2571 H   0  0  0  0  0  0  0  0  0  0  0  0
    0.0204   24.0662  -26.5039 H   0  0  0  0  0  0  0  0  0  0  0  0
   -6.5239   23.8256  -28.7256 H   0  0  0  0  0  0  0  0  0  0  0  0
   -8.0048   21.9206  -29.3309 H   0  0  0  0  0  0  0  0  0  0  0  0
   -9.7572   21.6567  -33.0986 H   0  0  0  0  0  0  0  0  0  0  0  0
   -6.6407   22.1633  -33.4323 H   0  0  0  0  0  0  0  0  0  0  0  0
   -5.1367   24.0484  -32.8203 H   0  0  0  0  0  0  0  0  0  0  0  0
  1  2  2  0
  2  3  1  0
  3  4  1  0
  4  5  2  0
  5  6  1  0
  6  7  1  0
  7  8  2  0
  7  9  2  0
  7 10  1  0
 10 11  1  0
 11 12  1  0
 12 13  1  0
 13 14  1  0
 14 15  1  0
  6 16  2  0
 16 17  1  0
 17 18  2  0
 18 19  1  0
 19 20  1  0
 20 21  1  0
 21 22  1  0
 22 23  1  0
 23 24  1  0
  2 25  1  0
 25 26  2  0
 26 27  1  0
 27 28  2  0
 28 29  1  0
 29 30  1  0
 30 31  2  0
 31 32  1  0
 32 33  2  0
 28 34  1  0
 34 35  2  0
 18  4  1  0
 24 19  1  0
 35 25  1  0
 15 10  1  0
 33 29  1  0
  5 36  1  0
 11 37  1  0
 11 38  1  0
 12 39  1  0
 12 40  1  0
 13 41  1  0
 13 42  1  0
 14 43  1  0
 14 44  1  0
 15 45  1  0
 15 46  1  0
 16 47  1  0
 17 48  1  0
 20 49  1  0
 20 50  1  0
 21 51  1  0
 21 52  1  0
 22 53  1  0
 22 54  1  0
 23 55  1  0
 23 56  1  0
 24 57  1  0
 24 58  1  0
 26 59  1  0
 27 60  1  0
 30 61  1  0
 34 62  1  0
 35 63  1  0
M  CHG  1   3  -1
M  END
>  <UniqueID>  (33) 
29

>  <SMILES>  (33) 
O=C([N-]c1cc(S(=O)(=O)N2CCCCC2)ccc1N1CCCCC1)c1ccc(-n2cnnn2)cc1

>  <Energy>  (33) 
127.26246048580045

>  <Genealogy>  (33) 
O=C([N-]c1cc(S(=O)(=O)N2CCCCC2)ccc1N1CCCCC1)c1ccc(-n2cnnn2)cc1 (protonated)
O=C([N-]c1cc(S(=O)(=O)N2CCCCC2)ccc1N1CCCCC1)c1ccc(-n2cnnn2)cc1 (3D coordinates assigned)
O=C([N-]c1cc(S(=O)(=O)N2CCCCC2)ccc1N1CCCCC1)c1ccc(-n2cnnn2)cc1 (nonaromatic ring conformer: 127.26246048580045 kcal/mol)

>  <smiles>  (33) 
O=C(Nc1cc(S(=O)(=O)N2CCCCC2)ccc1N1CCCCC1)c1ccc(-n2cnnn2)cc1

>  <score_type>  (33) 
oracle

>  <origin>  (33) 
adgpu

>  <m_score__min__energy>  (33) 
-12.69

>  <m_primary>  (33) 
energy

$$$$
33:0
     RDKit          3D

 47 49  0  0  0  0  0  0  0  0999 V2000
   -0.2300   23.2780  -24.9780 C   0  0  0  0  0  0  0  0  0  0  0  0
   -0.8370   22.6330  -26.0930 O   0  0  0  0  0  0  0  0  0  0  0  0
   -1.4580   23.3070  -27.1550 C   0  0  0  0  0  0  0  0  0  0  0  0
   -0.7950   24.2910  -27.9130 C   0  0  0  0  0  0  0  0  0  0  0  0
   -1.4590   24.9410  -28.9580 C   0  0  0  0  0  0  0  0  0  0  0  0
   -2.7990   24.6290  -29.2500 C   0  0  0  0  0  0  0  0  0  0  0  0
   -3.5040   25.2720  -30.3230 N   0  0  0  0  0  0  0  0  0  0  0  0
   -4.8200   24.9280  -30.7770 C   0  0  0  0  0  0  0  0  0  0  0  0
   -5.7250   25.8030  -30.7430 O   0  0  0  0  0  0  0  0  0  0  0  0
   -5.1260   23.5840  -31.3110 C   0  0  0  0  0  0  0  0  0  0  0  0
   -4.0910   22.6870  -31.6200 C   0  0  0  0  0  0  0  0  0  0  0  0
   -4.3870   21.3980  -32.0690 C   0  0  0  0  0  0  0  0  0  0  0  0
   -5.7160   20.9900  -32.2000 C   0  0  0  0  0  0  0  0  0  0  0  0
   -6.7570   21.8780  -31.9020 C   0  0  0  0  0  0  0  0  0  0  0  0
   -8.4220   21.3030  -31.9300 S   0  0  0  0  0  0  0  0  0  0  0  0
   -8.8330   20.8140  -30.5690 O   0  0  0  0  0  0  0  0  0  0  0  0
   -9.3300   22.4320  -32.3330 O   0  0  0  0  0  0  0  0  0  0  0  0
   -8.5440   20.0160  -33.0900 N   0  0  0  0  0  0  0  0  0  0  0  0
   -8.4110   18.7160  -32.4240 C   0  0  0  0  0  0  0  0  0  0  0  0
   -7.0910   18.1040  -32.7940 C   0  0  0  0  0  0  0  0  0  0  0  0
   -6.4820   18.4400  -34.0150 C   0  0  0  0  0  0  0  0  0  0  0  0
   -5.2640   17.8590  -34.3770 C   0  0  0  0  0  0  0  0  0  0  0  0
   -4.6520   16.9300  -33.5300 C   0  0  0  0  0  0  0  0  0  0  0  0
   -5.2620   16.5780  -32.3220 C   0  0  0  0  0  0  0  0  0  0  0  0
   -6.4810   17.1580  -31.9560 C   0  0  0  0  0  0  0  0  0  0  0  0
   -6.4600   23.1800  -31.4750 C   0  0  0  0  0  0  0  0  0  0  0  0
   -3.4460   23.6330  -28.5130 C   0  0  0  0  0  0  0  0  0  0  0  0
   -2.7830   22.9820  -27.4670 C   0  0  0  0  0  0  0  0  0  0  0  0
   -0.6302   22.8527  -24.0458 H   0  0  0  0  0  0  0  0  0  0  0  0
    0.8586   23.1242  -25.0134 H   0  0  0  0  0  0  0  0  0  0  0  0
   -0.4495   24.3553  -25.0134 H   0  0  0  0  0  0  0  0  0  0  0  0
    0.2490   24.5494  -27.6823 H   0  0  0  0  0  0  0  0  0  0  0  0
   -0.9310   25.6997  -29.5543 H   0  0  0  0  0  0  0  0  0  0  0  0
   -3.0427   23.0007  -31.5080 H   0  0  0  0  0  0  0  0  0  0  0  0
   -3.5720   20.7032  -32.3198 H   0  0  0  0  0  0  0  0  0  0  0  0
   -5.9457   19.9688  -32.5380 H   0  0  0  0  0  0  0  0  0  0  0  0
   -9.4950   20.0710  -33.5210 H   0  0  0  0  0  0  0  0  0  0  0  0
   -8.4595   18.8545  -31.3338 H   0  0  0  0  0  0  0  0  0  0  0  0
   -9.2282   18.0523  -32.7429 H   0  0  0  0  0  0  0  0  0  0  0  0
   -6.9659   19.1630  -34.6882 H   0  0  0  0  0  0  0  0  0  0  0  0
   -4.7861   18.1327  -35.3292 H   0  0  0  0  0  0  0  0  0  0  0  0
   -3.6910   16.4762  -33.8138 H   0  0  0  0  0  0  0  0  0  0  0  0
   -4.7823   15.8436  -31.6583 H   0  0  0  0  0  0  0  0  0  0  0  0
   -6.9626   16.8720  -31.0093 H   0  0  0  0  0  0  0  0  0  0  0  0
   -7.2760   23.8879  -31.2676 H   0  0  0  0  0  0  0  0  0  0  0  0
   -4.4831   23.3593  -28.7570 H   0  0  0  0  0  0  0  0  0  0  0  0
   -3.3070   22.2091  -26.8856 H   0  0  0  0  0  0  0  0  0  0  0  0
  1  2  1  0
  2  3  1  0
  3  4  2  0
  4  5  1  0
  5  6  2  0
  6  7  1  0
  7  8  1  0
  8  9  2  0
  8 10  1  0
 10 11  2  0
 11 12  1  0
 12 13  2  0
 13 14  1  0
 14 15  1  0
 15 16  2  0
 15 17  2  0
 15 18  1  0
 18 19  1  0
 19 20  1  0
 20 21  2  0
 21 22  1  0
 22 23  2  0
 23 24  1  0
 24 25  2  0
 14 26  2  0
  6 27  1  0
 27 28  2  0
 28  3  1  0
 26 10  1  0
 25 20  1  0
  1 29  1  0
  1 30  1  0
  1 31  1  0
  4 32  1  0
  5 33  1  0
 11 34  1  0
 12 35  1  0
 13 36  1  0
 18 37  1  0
 19 38  1  0
 19 39  1  0
 21 40  1  0
 22 41  1  0
 23 42  1  0
 24 43  1  0
 25 44  1  0
 26 45  1  0
 27 46  1  0
 28 47  1  0
M  CHG  1   7  -1
M  END
>  <UniqueID>  (34) 
30

>  <SMILES>  (34) 
COc1ccc([N-]C(=O)c2cccc(S(=O)(=O)NCc3ccccc3)c2)cc1

>  <Energy>  (34) 
51.65622856281065

>  <Genealogy>  (34) 
COc1ccc([N-]C(=O)c2cccc(S(=O)(=O)NCc3ccccc3)c2)cc1 (protonated)
COc1ccc([N-]C(=O)c2cccc(S(=O)(=O)NCc3ccccc3)c2)cc1 (3D coordinates assigned)
COc1ccc([N-]C(=O)c2cccc(S(=O)(=O)NCc3ccccc3)c2)cc1 (optimized conformer: 51.65622856281065 kcal/mol)

>  <smiles>  (34) 
COc1ccc(NC(=O)c2cccc(S(=O)(=O)NCc3ccccc3)c2)cc1

>  <score_type>  (34) 
oracle

>  <origin>  (34) 
adgpu

>  <m_score__min__energy>  (34) 
-10.98

>  <m_primary>  (34) 
energy

$$$$
34:0
     RDKit          3D

 23 24  0  0  0  0  0  0  0  0999 V2000
    3.0890   24.0620  -28.1830 H   0  0  0  0  0  0  0  0  0  0  0  0
    2.7740   24.4650  -27.2720 N   0  0  0  0  0  0  0  0  0  0  0  0
    1.5780   24.9320  -27.1160 C   0  0  0  0  0  0  0  0  0  0  0  0
    0.6930   24.9060  -28.1480 N   0  0  0  0  0  0  0  0  0  0  0  0
   -0.5680   25.3990  -28.0080 C   0  0  0  0  0  0  0  0  0  0  0  0
   -1.4990   25.3430  -29.1010 N   0  0  0  0  0  0  0  0  0  0  0  0
   -1.5830   26.1800  -29.7220 H   0  0  0  0  0  0  0  0  0  0  0  0
   -2.4540   24.2840  -29.2660 C   0  0  0  0  0  0  0  0  0  0  0  0
   -2.2650   23.0770  -28.5760 C   0  0  0  0  0  0  0  0  0  0  0  0
   -1.3890   22.9523  -27.9225 H   0  0  0  0  0  0  0  0  0  0  0  0
   -3.1840   22.0310  -28.7140 C   0  0  0  0  0  0  0  0  0  0  0  0
   -2.9270   20.5190  -27.8630 Cl  0  0  0  0  0  0  0  0  0  0  0  0
   -4.3080   22.1920  -29.5300 C   0  0  0  0  0  0  0  0  0  0  0  0
   -5.0258   21.3666  -29.6459 H   0  0  0  0  0  0  0  0  0  0  0  0
   -4.5200   23.4000  -30.1980 C   0  0  0  0  0  0  0  0  0  0  0  0
   -5.4082   23.5259  -30.8347 H   0  0  0  0  0  0  0  0  0  0  0  0
   -3.6060   24.4510  -30.0600 C   0  0  0  0  0  0  0  0  0  0  0  0
   -3.8650   25.6630  -30.6920 O   0  0  0  0  0  0  0  0  0  0  0  0
   -0.9670   25.9260  -26.7750 C   0  0  0  0  0  0  0  0  0  0  0  0
   -1.9852   26.3176  -26.6340 H   0  0  0  0  0  0  0  0  0  0  0  0
   -0.0430   25.9440  -25.7260 C   0  0  0  0  0  0  0  0  0  0  0  0
   -0.4580   26.5560  -24.2680 S   0  0  0  0  0  0  0  0  0  0  0  0
    1.2070   25.4500  -25.9170 N   0  0  0  0  0  0  0  0  0  0  0  0
  1  2  1  0
  2  3  2  0
  3  4  1  0
  4  5  1  0
  5  6  1  0
  6  7  1  0
  6  8  1  0
  8  9  2  0
  9 10  1  0
  9 11  1  0
 11 12  1  0
 11 13  2  0
 13 14  1  0
 13 15  1  0
 15 16  1  0
 15 17  2  0
 17 18  1  0
  5 19  2  0
 19 20  1  0
 19 21  1  0
 21 22  2  0
 21 23  1  0
 23  3  1  0
 17  8  1  0
M  CHG  3   4  -1  18  -1  23  -1
M  END
>  <UniqueID>  (35) 
31

>  <SMILES>  (35) 
[H]/N=c1\[n-]c(Nc2cc(Cl)ccc2[O-])cc(=S)[n-]1

>  <Energy>  (35) 
29.64593761293694

>  <Genealogy>  (35) 
N=c1[n-]c(Nc2cc(Cl)ccc2[O-])cc(=S)[n-]1 (protonated)
[H]/N=c1\[n-]c(Nc2cc(Cl)ccc2[O-])cc(=S)[n-]1 (cis-trans isomerization)
[H]/N=c1\[n-]c(Nc2cc(Cl)ccc2[O-])cc(=S)[n-]1 (3D coordinates assigned)
[H]/N=c1\[n-]c(Nc2cc(Cl)ccc2[O-])cc(=S)[n-]1 (optimized conformer: 29.64593761293694 kcal/mol)

>  <smiles>  (35) 
N=c1[nH]c(Nc2cc(Cl)ccc2O)cc(=S)[nH]1

>  <score_type>  (35) 
oracle

>  <origin>  (35) 
adgpu

>  <m_score__min__energy>  (35) 
-11.52

>  <m_primary>  (35) 
energy

$$$$
35:0
     RDKit          3D

 33 35  0  0  0  0  0  0  0  0999 V2000
   -3.4040   22.8420  -31.7120 O   0  0  0  0  0  0  0  0  0  0  0  0
   -3.1880   22.7030  -30.4790 C   0  0  0  0  0  0  0  0  0  0  0  0
   -2.4340   21.6900  -30.0650 O   0  0  0  0  0  0  0  0  0  0  0  0
   -2.1670   21.4550  -28.7800 C   0  0  0  0  0  0  0  0  0  0  0  0
   -1.3060   20.2970  -28.4300 C   0  0  0  0  0  0  0  0  0  0  0  0
   -0.1240   20.0680  -29.1570 C   0  0  0  0  0  0  0  0  0  0  0  0
    0.6990   18.9790  -28.8500 C   0  0  0  0  0  0  0  0  0  0  0  0
    0.3470   18.1020  -27.8220 C   0  0  0  0  0  0  0  0  0  0  0  0
    1.3800   16.7360  -27.4410 Cl  0  0  0  0  0  0  0  0  0  0  0  0
   -0.8310   18.3110  -27.1000 C   0  0  0  0  0  0  0  0  0  0  0  0
   -1.6570   19.3980  -27.4020 C   0  0  0  0  0  0  0  0  0  0  0  0
   -2.6940   22.3120  -27.8000 C   0  0  0  0  0  0  0  0  0  0  0  0
   -3.4930   23.3870  -28.1900 C   0  0  0  0  0  0  0  0  0  0  0  0
   -4.1930   24.4480  -26.9210 S   0  0  0  0  0  0  0  0  0  0  0  0
   -3.7400   23.6030  -29.5540 C   0  0  0  0  0  0  0  0  0  0  0  0
   -4.7540   24.9840  -30.1230 S   0  0  0  0  0  0  0  0  0  0  0  0
   -6.1100   23.9250  -30.6390 C   0  0  0  0  0  0  0  0  0  0  0  0
   -6.7680   23.1160  -29.7030 C   0  0  0  0  0  0  0  0  0  0  0  0
   -7.8230   22.2920  -30.1070 C   0  0  0  0  0  0  0  0  0  0  0  0
   -8.2180   22.2660  -31.4490 C   0  0  0  0  0  0  0  0  0  0  0  0
   -9.5420   21.2330  -31.9550 Cl  0  0  0  0  0  0  0  0  0  0  0  0
   -7.5530   23.0620  -32.3880 C   0  0  0  0  0  0  0  0  0  0  0  0
   -6.4980   23.8860  -31.9840 C   0  0  0  0  0  0  0  0  0  0  0  0
    0.1556   20.7503  -29.9732 H   0  0  0  0  0  0  0  0  0  0  0  0
    1.6253   18.8133  -29.4197 H   0  0  0  0  0  0  0  0  0  0  0  0
   -1.1092   17.6185  -26.2919 H   0  0  0  0  0  0  0  0  0  0  0  0
   -2.5863   19.5528  -26.8342 H   0  0  0  0  0  0  0  0  0  0  0  0
   -2.4789   22.1373  -26.7355 H   0  0  0  0  0  0  0  0  0  0  0  0
   -4.6210   25.3930  -27.8720 H   0  0  0  0  0  0  0  0  0  0  0  0
   -6.4541   23.1292  -28.6488 H   0  0  0  0  0  0  0  0  0  0  0  0
   -8.3430   21.6635  -29.3690 H   0  0  0  0  0  0  0  0  0  0  0  0
   -7.8601   23.0396  -33.4440 H   0  0  0  0  0  0  0  0  0  0  0  0
   -5.9713   24.5054  -32.7249 H   0  0  0  0  0  0  0  0  0  0  0  0
  1  2  2  0
  2  3  1  0
  3  4  1  0
  4  5  1  0
  5  6  2  0
  6  7  1  0
  7  8  2  0
  8  9  1  0
  8 10  1  0
 10 11  2  0
  4 12  2  0
 12 13  1  0
 13 14  1  0
 13 15  2  0
 15 16  1  0
 16 17  1  0
 17 18  2  0
 18 19  1  0
 19 20  2  0
 20 21  1  0
 20 22  1  0
 22 23  2  0
 15  2  1  0
 23 17  1  0
 11  5  1  0
  6 24  1  0
  7 25  1  0
 10 26  1  0
 11 27  1  0
 12 28  1  0
 14 29  1  0
 18 30  1  0
 19 31  1  0
 22 32  1  0
 23 33  1  0
M  END
>  <UniqueID>  (36) 
32

>  <SMILES>  (36) 
O=c1oc(-c2ccc(Cl)cc2)cc(S)c1Sc1ccc(Cl)cc1

>  <Energy>  (36) 
37.05337241858416

>  <Genealogy>  (36) 
O=c1oc(-c2ccc(Cl)cc2)cc(S)c1Sc1ccc(Cl)cc1 (3D coordinates assigned)
O=c1oc(-c2ccc(Cl)cc2)cc(S)c1Sc1ccc(Cl)cc1 (optimized conformer: 37.05337241858416 kcal/mol)

>  <smiles>  (36) 
O=c1oc(-c2ccc(Cl)cc2)cc(S)c1Sc1ccc(Cl)cc1

>  <score_type>  (36) 
oracle

>  <origin>  (36) 
adgpu

>  <m_score__min__energy>  (36) 
-8.1600000000000001

>  <m_primary>  (36) 
energy

$$$$
36:0
     RDKit          3D

 41 43  0  0  0  0  0  0  0  0999 V2000
   -9.4680   20.1760  -32.6110 C   0  0  0  0  0  0  0  0  0  0  0  0
   -8.3070   21.0210  -32.1750 C   0  0  0  0  0  0  0  0  0  0  0  0
   -7.0250   20.7770  -32.6870 C   0  0  0  0  0  0  0  0  0  0  0  0
   -5.9350   21.5390  -32.2540 C   0  0  0  0  0  0  0  0  0  0  0  0
   -6.1090   22.5490  -31.2920 C   0  0  0  0  0  0  0  0  0  0  0  0
   -4.9580   23.3560  -30.8360 C   0  0  0  0  0  0  0  0  0  0  0  0
   -4.8360   24.6820  -31.0530 N   0  0  0  0  0  0  0  0  0  0  0  0
   -3.7030   25.0080  -30.5120 O   0  0  0  0  0  0  0  0  0  0  0  0
   -3.1460   23.9460  -29.9860 C   0  0  0  0  0  0  0  0  0  0  0  0
   -1.8270   23.9500  -29.2840 C   0  0  0  0  0  0  0  0  0  0  0  0
   -1.4030   25.3230  -29.0050 N   0  0  0  0  0  0  0  0  0  0  0  0
   -0.6730   25.7280  -27.8300 C   0  0  0  0  0  0  0  0  0  0  0  0
    0.4610   25.0300  -27.3820 C   0  0  0  0  0  0  0  0  0  0  0  0
    1.1500   25.4540  -26.2450 C   0  0  0  0  0  0  0  0  0  0  0  0
    0.7240   26.5830  -25.5270 C   0  0  0  0  0  0  0  0  0  0  0  0
    1.4880   27.0100  -24.3020 C   0  0  0  0  0  0  0  0  0  0  0  0
   -0.4270   27.2830  -25.9580 C   0  0  0  0  0  0  0  0  0  0  0  0
   -0.9230   28.4990  -25.2200 C   0  0  0  0  0  0  0  0  0  0  0  0
   -1.1080   26.8500  -27.1090 C   0  0  0  0  0  0  0  0  0  0  0  0
   -3.9050   22.8480  -30.1590 N   0  0  0  0  0  0  0  0  0  0  0  0
   -7.3930   22.7780  -30.7680 C   0  0  0  0  0  0  0  0  0  0  0  0
   -8.4820   22.0150  -31.2020 C   0  0  0  0  0  0  0  0  0  0  0  0
   -9.9953   19.7922  -31.7252 H   0  0  0  0  0  0  0  0  0  0  0  0
  -10.1584   20.7844  -33.2137 H   0  0  0  0  0  0  0  0  0  0  0  0
   -9.1013   19.3320  -33.2137 H   0  0  0  0  0  0  0  0  0  0  0  0
   -6.8756   19.9824  -33.4329 H   0  0  0  0  0  0  0  0  0  0  0  0
   -4.9347   21.3466  -32.6691 H   0  0  0  0  0  0  0  0  0  0  0  0
   -1.9189   23.3991  -28.3363 H   0  0  0  0  0  0  0  0  0  0  0  0
   -1.0773   23.4686  -29.9292 H   0  0  0  0  0  0  0  0  0  0  0  0
   -1.6320   26.0460  -29.7250 H   0  0  0  0  0  0  0  0  0  0  0  0
    0.8083   24.1427  -27.9316 H   0  0  0  0  0  0  0  0  0  0  0  0
    2.0368   24.8975  -25.9074 H   0  0  0  0  0  0  0  0  0  0  0  0
    0.9375   26.7023  -23.4008 H   0  0  0  0  0  0  0  0  0  0  0  0
    2.4806   26.5358  -24.3051 H   0  0  0  0  0  0  0  0  0  0  0  0
    1.6042   28.1038  -24.3051 H   0  0  0  0  0  0  0  0  0  0  0  0
   -0.8518   28.3245  -24.1363 H   0  0  0  0  0  0  0  0  0  0  0  0
   -0.3081   29.3694  -25.4924 H   0  0  0  0  0  0  0  0  0  0  0  0
   -1.9713   28.6910  -25.4924 H   0  0  0  0  0  0  0  0  0  0  0  0
   -1.9972   27.4004  -27.4502 H   0  0  0  0  0  0  0  0  0  0  0  0
   -7.5424   23.5625  -30.0115 H   0  0  0  0  0  0  0  0  0  0  0  0
   -9.4807   22.1958  -30.7778 H   0  0  0  0  0  0  0  0  0  0  0  0
  1  2  1  0
  2  3  2  0
  3  4  1  0
  4  5  2  0
  5  6  1  0
  6  7  2  0
  7  8  1  0
  8  9  1  0
  9 10  1  0
 10 11  1  0
 11 12  1  0
 12 13  2  0
 13 14  1  0
 14 15  2  0
 15 16  1  0
 15 17  1  0
 17 18  1  0
 17 19  2  0
  9 20  2  0
  5 21  1  0
 21 22  2  0
 22  2  1  0
 20  6  1  0
 19 12  1  0
  1 23  1  0
  1 24  1  0
  1 25  1  0
  3 26  1  0
  4 27  1  0
 10 28  1  0
 10 29  1  0
 11 30  1  0
 13 31  1  0
 14 32  1  0
 16 33  1  0
 16 34  1  0
 16 35  1  0
 18 36  1  0
 18 37  1  0
 18 38  1  0
 19 39  1  0
 21 40  1  0
 22 41  1  0
M  END
>  <UniqueID>  (37) 
33

>  <SMILES>  (37) 
Cc1ccc(-c2noc(CNc3ccc(C)c(C)c3)n2)cc1

>  <Energy>  (37) 
74.33701846806524

>  <Genealogy>  (37) 
Cc1ccc(-c2noc(CNc3ccc(C)c(C)c3)n2)cc1 (3D coordinates assigned)
Cc1ccc(-c2noc(CNc3ccc(C)c(C)c3)n2)cc1 (optimized conformer: 74.33701846806524 kcal/mol)

>  <smiles>  (37) 
Cc1ccc(-c2noc(CNc3ccc(C)c(C)c3)n2)cc1

>  <score_type>  (37) 
oracle

>  <origin>  (37) 
adgpu

>  <m_score__min__energy>  (37) 
-10

>  <m_primary>  (37) 
energy

$$$$
37:0
     RDKit          3D

 40 42  0  0  0  0  0  0  0  0999 V2000
   -9.2730   18.2230  -33.3750 H   0  0  0  0  0  0  0  0  0  0  0  0
   -9.5780   19.1760  -33.0820 N   0  0  0  0  0  0  0  0  0  0  0  0
   -8.7720   20.1110  -32.6730 C   0  0  0  0  0  0  0  0  0  0  0  0
   -7.3720   19.9100  -32.5950 C   0  0  0  0  0  0  0  0  0  0  0  0
   -6.7150   18.6640  -33.0480 C   0  0  0  0  0  0  0  0  0  0  0  0
   -6.0870   18.6060  -34.3030 C   0  0  0  0  0  0  0  0  0  0  0  0
   -6.0983   19.4866  -34.9621 H   0  0  0  0  0  0  0  0  0  0  0  0
   -5.4480   17.4350  -34.7180 C   0  0  0  0  0  0  0  0  0  0  0  0
   -4.9697   17.3931  -35.7077 H   0  0  0  0  0  0  0  0  0  0  0  0
   -5.4140   16.3130  -33.8780 C   0  0  0  0  0  0  0  0  0  0  0  0
   -4.6220   14.8330  -34.4080 S   0  0  0  0  0  0  0  0  0  0  0  0
   -5.6500   13.8570  -34.9090 O   0  0  0  0  0  0  0  0  0  0  0  0
   -3.6640   15.1390  -35.5240 O   0  0  0  0  0  0  0  0  0  0  0  0
   -3.7360   14.1170  -33.0430 C   0  0  0  0  0  0  0  0  0  0  0  0
   -4.1726   14.4698  -32.0970 H   0  0  0  0  0  0  0  0  0  0  0  0
   -3.8081   13.0205  -33.0937 H   0  0  0  0  0  0  0  0  0  0  0  0
   -2.6791   14.4177  -33.0937 H   0  0  0  0  0  0  0  0  0  0  0  0
   -6.0340   16.3700  -32.6230 C   0  0  0  0  0  0  0  0  0  0  0  0
   -6.0166   15.4902  -31.9629 H   0  0  0  0  0  0  0  0  0  0  0  0
   -6.6750   17.5410  -32.2060 C   0  0  0  0  0  0  0  0  0  0  0  0
   -7.1497   17.5824  -31.2146 H   0  0  0  0  0  0  0  0  0  0  0  0
   -6.5730   20.9410  -32.0810 C   0  0  0  0  0  0  0  0  0  0  0  0
   -5.4859   20.7956  -31.9969 H   0  0  0  0  0  0  0  0  0  0  0  0
   -7.1430   22.1550  -31.6730 C   0  0  0  0  0  0  0  0  0  0  0  0
   -6.2970   23.2510  -31.1350 C   0  0  0  0  0  0  0  0  0  0  0  0
   -4.9670   23.4110  -31.5620 C   0  0  0  0  0  0  0  0  0  0  0  0
   -4.5430   22.7171  -32.3028 H   0  0  0  0  0  0  0  0  0  0  0  0
   -4.2020   24.4190  -31.0640 N   0  0  0  0  0  0  0  0  0  0  0  0
   -4.6820   25.2960  -30.1450 C   0  0  0  0  0  0  0  0  0  0  0  0
   -4.0343   26.0984  -29.7622 H   0  0  0  0  0  0  0  0  0  0  0  0
   -5.9970   25.1820  -29.6840 C   0  0  0  0  0  0  0  0  0  0  0  0
   -6.5080   26.0990  -28.7150 N   0  0  0  0  0  0  0  0  0  0  0  0
   -7.4540   26.5270  -28.8300 H   0  0  0  0  0  0  0  0  0  0  0  0
   -5.9460   26.3570  -27.8740 H   0  0  0  0  0  0  0  0  0  0  0  0
   -6.8050   24.1540  -30.1850 C   0  0  0  0  0  0  0  0  0  0  0  0
   -7.8424   24.0525  -29.8334 H   0  0  0  0  0  0  0  0  0  0  0  0
   -8.5310   22.3120  -31.7910 C   0  0  0  0  0  0  0  0  0  0  0  0
   -9.0004   23.2586  -31.4851 H   0  0  0  0  0  0  0  0  0  0  0  0
   -9.3020   21.3050  -32.2800 N   0  0  0  0  0  0  0  0  0  0  0  0
  -10.3340   21.4570  -32.3440 H   0  0  0  0  0  0  0  0  0  0  0  0
  1  2  1  0
  2  3  2  0
  3  4  1  0
  4  5  1  0
  5  6  2  0
  6  7  1  0
  6  8  1  0
  8  9  1  0
  8 10  2  0
 10 11  1  0
 11 12  2  0
 11 13  2  0
 11 14  1  0
 14 15  1  0
 14 16  1  0
 14 17  1  0
 10 18  1  0
 18 19  1  0
 18 20  2  0
 20 21  1  0
  4 22  2  0
 22 23  1  0
 22 24  1  0
 24 25  1  0
 25 26  2  0
 26 27  1  0
 26 28  1  0
 28 29  2  0
 29 30  1  0
 29 31  1  0
 31 32  1  0
 32 33  1  0
 32 34  1  0
 31 35  2  0
 35 36  1  0
 24 37  2  0
 37 38  1  0
 37 39  1  0
 39 40  1  0
 39  3  1  0
 20  5  1  0
 35 25  1  0
M  END
>  <UniqueID>  (38) 
34

>  <SMILES>  (38) 
[H]/N=c1/[nH]cc(-c2cncc(N)c2)cc1-c1ccc(S(C)(=O)=O)cc1

>  <Energy>  (38) 
54.46009458693776

>  <Genealogy>  (38) 
[H]/N=c1/[nH]cc(-c2cncc(N)c2)cc1-c1ccc(S(C)(=O)=O)cc1 (cis-trans isomerization)
[H]/N=c1/[nH]cc(-c2cncc(N)c2)cc1-c1ccc(S(C)(=O)=O)cc1 (3D coordinates assigned)
[H]/N=c1/[nH]cc(-c2cncc(N)c2)cc1-c1ccc(S(C)(=O)=O)cc1 (optimized conformer: 54.46009458693776 kcal/mol)

>  <smiles>  (38) 
CS(=O)(=O)c1ccc(-c2cc(-c3cncc(N)c3)c[nH]c2=N)cc1

>  <score_type>  (38) 
oracle

>  <origin>  (38) 
adgpu

>  <m_score__min__energy>  (38) 
-8.8699999999999992

>  <m_primary>  (38) 
energy

$$$$
38:0
     RDKit          3D

 44 45  0  0  0  0  0  0  0  0999 V2000
   -1.5356   18.2067  -33.3313 H   0  0  0  0  0  0  0  0  0  0  0  0
   -2.4360   18.7730  -33.0510 C   0  0  0  0  0  0  0  0  0  0  0  0
   -2.2900   19.9610  -32.2470 C   0  0  0  0  0  0  0  0  0  0  0  0
   -2.1990   20.9570  -31.5740 C   0  0  0  0  0  0  0  0  0  0  0  0
   -2.0690   22.1620  -30.7980 C   0  0  0  0  0  0  0  0  0  0  0  0
   -0.9030   22.3980  -30.0680 C   0  0  0  0  0  0  0  0  0  0  0  0
   -0.1007   21.6455  -30.0666 H   0  0  0  0  0  0  0  0  0  0  0  0
   -0.7420   23.5890  -29.3330 C   0  0  0  0  0  0  0  0  0  0  0  0
    0.4320   23.8310  -28.6020 O   0  0  0  0  0  0  0  0  0  0  0  0
    0.7960   23.1640  -27.3970 C   0  0  0  0  0  0  0  0  0  0  0  0
    0.4695   23.7624  -26.5337 H   0  0  0  0  0  0  0  0  0  0  0  0
    0.3114   22.1771  -27.3634 H   0  0  0  0  0  0  0  0  0  0  0  0
    1.8882   23.0375  -27.3634 H   0  0  0  0  0  0  0  0  0  0  0  0
   -1.7860   24.5530  -29.3430 C   0  0  0  0  0  0  0  0  0  0  0  0
   -1.7260   25.7740  -28.6420 O   0  0  0  0  0  0  0  0  0  0  0  0
   -1.2830   25.9650  -27.3030 C   0  0  0  0  0  0  0  0  0  0  0  0
   -2.0648   25.6279  -26.6065 H   0  0  0  0  0  0  0  0  0  0  0  0
   -0.3653   25.3826  -27.1338 H   0  0  0  0  0  0  0  0  0  0  0  0
   -1.0765   27.0321  -27.1338 H   0  0  0  0  0  0  0  0  0  0  0  0
   -2.9550   24.3070  -30.0830 C   0  0  0  0  0  0  0  0  0  0  0  0
   -3.9650   25.2830  -30.0720 O   0  0  0  0  0  0  0  0  0  0  0  0
   -5.3560   25.0080  -29.9430 C   0  0  0  0  0  0  0  0  0  0  0  0
   -5.6220   24.9554  -28.8770 H   0  0  0  0  0  0  0  0  0  0  0  0
   -5.9345   25.8092  -30.4262 H   0  0  0  0  0  0  0  0  0  0  0  0
   -5.5861   24.0470  -30.4262 H   0  0  0  0  0  0  0  0  0  0  0  0
   -3.0900   23.1110  -30.8090 C   0  0  0  0  0  0  0  0  0  0  0  0
   -4.0058   22.9230  -31.3887 H   0  0  0  0  0  0  0  0  0  0  0  0
   -3.6290   18.3370  -33.4670 C   0  0  0  0  0  0  0  0  0  0  0  0
   -3.6766   17.4210  -34.0742 H   0  0  0  0  0  0  0  0  0  0  0  0
   -4.8570   19.0250  -33.1480 C   0  0  0  0  0  0  0  0  0  0  0  0
   -5.8740   19.6120  -32.8730 C   0  0  0  0  0  0  0  0  0  0  0  0
   -7.0860   20.3230  -32.5500 C   0  0  0  0  0  0  0  0  0  0  0  0
   -8.2920   19.6110  -32.4870 C   0  0  0  0  0  0  0  0  0  0  0  0
   -8.2979   18.5271  -32.6747 H   0  0  0  0  0  0  0  0  0  0  0  0
   -9.4870   20.2710  -32.1870 C   0  0  0  0  0  0  0  0  0  0  0  0
  -10.4299   19.7065  -32.1385 H   0  0  0  0  0  0  0  0  0  0  0  0
   -9.4840   21.6460  -31.9490 C   0  0  0  0  0  0  0  0  0  0  0  0
  -10.4254   22.1640  -31.7135 H   0  0  0  0  0  0  0  0  0  0  0  0
   -8.2890   22.3660  -32.0090 C   0  0  0  0  0  0  0  0  0  0  0  0
   -8.2944   23.4500  -31.8222 H   0  0  0  0  0  0  0  0  0  0  0  0
   -7.0810   21.7160  -32.3060 C   0  0  0  0  0  0  0  0  0  0  0  0
   -5.8670   22.4790  -32.3510 N   0  0  0  0  0  0  0  0  0  0  0  0
   -5.2680   22.6060  -31.5070 H   0  0  0  0  0  0  0  0  0  0  0  0
   -5.5670   22.9500  -33.2340 H   0  0  0  0  0  0  0  0  0  0  0  0
  1  2  1  0
  2  3  1  0
  3  4  3  0
  4  5  1  0
  5  6  2  0
  6  7  1  0
  6  8  1  0
  8  9  1  0
  9 10  1  0
 10 11  1  0
 10 12  1  0
 10 13  1  0
  8 14  2  0
 14 15  1  0
 15 16  1  0
 16 17  1  0
 16 18  1  0
 16 19  1  0
 14 20  1  0
 20 21  1  0
 21 22  1  0
 22 23  1  0
 22 24  1  0
 22 25  1  0
 20 26  2  0
 26 27  1  0
  2 28  2  0
 28 29  1  0
 28 30  1  0
 30 31  3  0
 31 32  1  0
 32 33  2  0
 33 34  1  0
 33 35  1  0
 35 36  1  0
 35 37  2  0
 37 38  1  0
 37 39  1  0
 39 40  1  0
 39 41  2  0
 41 42  1  0
 42 43  1  0
 42 44  1  0
 26  5  1  0
 41 32  1  0
M  END
>  <UniqueID>  (39) 
35

>  <SMILES>  (39) 
COc1cc(C#C/C=C\C#Cc2ccccc2N)cc(OC)c1OC

>  <Energy>  (39) 
36.472561784124096

>  <Genealogy>  (39) 
COc1cc(C#C/C=C\C#Cc2ccccc2N)cc(OC)c1OC (cis-trans isomerization)
COc1cc(C#C/C=C\C#Cc2ccccc2N)cc(OC)c1OC (3D coordinates assigned)
COc1cc(C#C/C=C\C#Cc2ccccc2N)cc(OC)c1OC (optimized conformer: 36.472561784124096 kcal/mol)

>  <smiles>  (39) 
COc1cc(C#CC=CC#Cc2ccccc2N)cc(OC)c1OC

>  <score_type>  (39) 
oracle

>  <origin>  (39) 
adgpu

>  <m_score__min__energy>  (39) 
-8.6099999999999994

>  <m_primary>  (39) 
energy

$$$$
39:0
     RDKit          3D

 48 50  0  0  0  0  0  0  0  0999 V2000
    0.5368   18.8894  -32.0257 H   0  0  0  0  0  0  0  0  0  0  0  0
    0.1740   19.2070  -31.0370 C   0  0  0  0  0  0  0  0  0  0  0  0
   -0.4300   20.4580  -30.8850 C   0  0  0  0  0  0  0  0  0  0  0  0
   -0.5566   21.1132  -31.7594 H   0  0  0  0  0  0  0  0  0  0  0  0
   -0.8750   20.8830  -29.6280 C   0  0  0  0  0  0  0  0  0  0  0  0
   -1.4990   22.1740  -29.5130 N   0  0  0  0  0  0  0  0  0  0  0  0
   -2.5150   22.6030  -30.2040 C   0  0  0  0  0  0  0  0  0  0  0  0
   -2.9620   23.8690  -30.0150 N   0  0  0  0  0  0  0  0  0  0  0  0
   -4.0360   24.3310  -30.7100 C   0  0  0  0  0  0  0  0  0  0  0  0
   -4.4920   25.6720  -30.5030 N   0  0  0  0  0  0  0  0  0  0  0  0
   -3.8610   26.4670  -30.7520 H   0  0  0  0  0  0  0  0  0  0  0  0
   -5.8120   25.9630  -29.9570 C   0  0  0  0  0  0  0  0  0  0  0  0
   -5.7647   25.9526  -28.8581 H   0  0  0  0  0  0  0  0  0  0  0  0
   -6.1403   26.9551  -30.3005 H   0  0  0  0  0  0  0  0  0  0  0  0
   -6.5270   25.2009  -30.3005 H   0  0  0  0  0  0  0  0  0  0  0  0
   -4.6690   23.5120  -31.5920 N   0  0  0  0  0  0  0  0  0  0  0  0
   -4.2350   22.2420  -31.7800 C   0  0  0  0  0  0  0  0  0  0  0  0
   -4.8500   21.4690  -32.6240 N   0  0  0  0  0  0  0  0  0  0  0  0
   -4.4490   20.1150  -32.8810 C   0  0  0  0  0  0  0  0  0  0  0  0
   -3.1900   19.8530  -33.4600 C   0  0  0  0  0  0  0  0  0  0  0  0
   -2.2600   20.9810  -33.8140 C   0  0  0  0  0  0  0  0  0  0  0  0
   -1.8780   21.4443  -32.8923 H   0  0  0  0  0  0  0  0  0  0  0  0
   -1.4179   20.5905  -34.4043 H   0  0  0  0  0  0  0  0  0  0  0  0
   -2.8039   21.7332  -34.4043 H   0  0  0  0  0  0  0  0  0  0  0  0
   -2.8310   18.5320  -33.7690 C   0  0  0  0  0  0  0  0  0  0  0  0
   -1.8602   18.3288  -34.2447 H   0  0  0  0  0  0  0  0  0  0  0  0
   -3.6960   17.4700  -33.4780 C   0  0  0  0  0  0  0  0  0  0  0  0
   -3.3060   16.0680  -33.8460 C   0  0  0  0  0  0  0  0  0  0  0  0
   -3.1426   15.4806  -32.9305 H   0  0  0  0  0  0  0  0  0  0  0  0
   -4.1101   15.6073  -34.4386 H   0  0  0  0  0  0  0  0  0  0  0  0
   -2.3795   16.0887  -34.4386 H   0  0  0  0  0  0  0  0  0  0  0  0
   -4.9430   17.7330  -32.8950 C   0  0  0  0  0  0  0  0  0  0  0  0
   -5.6310   16.9017  -32.6815 H   0  0  0  0  0  0  0  0  0  0  0  0
   -5.3220   19.0480  -32.5810 C   0  0  0  0  0  0  0  0  0  0  0  0
   -6.6730   19.3080  -31.9740 C   0  0  0  0  0  0  0  0  0  0  0  0
   -6.5913   19.2923  -30.8771 H   0  0  0  0  0  0  0  0  0  0  0  0
   -7.0382   20.2929  -32.3004 H   0  0  0  0  0  0  0  0  0  0  0  0
   -7.3777   18.5290  -32.3004 H   0  0  0  0  0  0  0  0  0  0  0  0
   -3.1620   21.7900  -31.0790 N   0  0  0  0  0  0  0  0  0  0  0  0
   -0.7590   20.0100  -28.5280 C   0  0  0  0  0  0  0  0  0  0  0  0
   -1.1394   20.3193  -27.5433 H   0  0  0  0  0  0  0  0  0  0  0  0
   -0.1620   18.7490  -28.6790 C   0  0  0  0  0  0  0  0  0  0  0  0
   -0.0080   17.8280  -27.5040 C   0  0  0  0  0  0  0  0  0  0  0  0
   -0.1043   18.4038  -26.5717 H   0  0  0  0  0  0  0  0  0  0  0  0
   -0.7893   17.0545  -27.5396 H   0  0  0  0  0  0  0  0  0  0  0  0
    0.9824   17.3507  -27.5396 H   0  0  0  0  0  0  0  0  0  0  0  0
    0.3180   18.3600  -29.9380 C   0  0  0  0  0  0  0  0  0  0  0  0
    0.8098   17.3836  -30.0593 H   0  0  0  0  0  0  0  0  0  0  0  0
  1  2  1  0
  2  3  2  0
  3  4  1  0
  3  5  1  0
  5  6  1  0
  6  7  2  0
  7  8  1  0
  8  9  1  0
  9 10  1  0
 10 11  1  0
 10 12  1  0
 12 13  1  0
 12 14  1  0
 12 15  1  0
  9 16  2  0
 16 17  1  0
 17 18  2  0
 18 19  1  0
 19 20  2  0
 20 21  1  0
 21 22  1  0
 21 23  1  0
 21 24  1  0
 20 25  1  0
 25 26  1  0
 25 27  2  0
 27 28  1  0
 28 29  1  0
 28 30  1  0
 28 31  1  0
 27 32  1  0
 32 33  1  0
 32 34  2  0
 34 35  1  0
 35 36  1  0
 35 37  1  0
 35 38  1  0
 17 39  1  0
  5 40  2  0
 40 41  1  0
 40 42  1  0
 42 43  1  0
 43 44  1  0
 43 45  1  0
 43 46  1  0
 42 47  2  0
 47 48  1  0
 47  2  1  0
 39  7  1  0
 34 19  1  0
M  CHG  2   8  -1  39  -1
M  END
>  <UniqueID>  (40) 
36

>  <SMILES>  (40) 
CNc1n/c(=N/c2c(C)cc(C)cc2C)[n-]/c(=N\c2cccc(C)c2)[n-]1

>  <Energy>  (40) 
56.89788699297011

>  <Genealogy>  (40) 
CNc1nc(=Nc2c(C)cc(C)cc2C)[n-]c(=Nc2cccc(C)c2)[n-]1 (protonated)
CNc1n/c(=N/c2c(C)cc(C)cc2C)[n-]/c(=N\c2cccc(C)c2)[n-]1 (cis-trans isomerization)
CNc1n/c(=N/c2c(C)cc(C)cc2C)[n-]/c(=N\c2cccc(C)c2)[n-]1 (3D coordinates assigned)
CNc1n/c(=N/c2c(C)cc(C)cc2C)[n-]/c(=N\c2cccc(C)c2)[n-]1 (optimized conformer: 56.89788699297011 kcal/mol)

>  <smiles>  (40) 
CNc1nc(=Nc2c(C)cc(C)cc2C)[nH]c(=Nc2cccc(C)c2)[nH]1

>  <score_type>  (40) 
oracle

>  <origin>  (40) 
adgpu

>  <m_score__min__energy>  (40) 
-9.5800000000000001

>  <m_primary>  (40) 
energy

$$$$
40:0
     RDKit          3D

 51 54  0  0  0  0  0  0  0  0999 V2000
   -1.2650   16.3070  -33.6600 C   0  0  0  0  0  0  0  0  0  0  0  0
   -2.7350   16.5060  -33.4900 C   0  0  0  0  0  0  0  0  0  0  0  0
   -3.6080   15.5250  -33.5240 O   0  0  0  0  0  0  0  0  0  0  0  0
   -4.8210   15.9640  -33.3480 N   0  0  0  0  0  0  0  0  0  0  0  0
   -4.7430   17.3010  -33.2030 C   0  0  0  0  0  0  0  0  0  0  0  0
   -5.9170   18.1450  -32.9200 C   0  0  0  0  0  0  0  0  0  0  0  0
   -6.2000   19.2450  -33.7460 C   0  0  0  0  0  0  0  0  0  0  0  0
   -7.3020   20.0610  -33.4770 C   0  0  0  0  0  0  0  0  0  0  0  0
   -8.1190   19.7940  -32.3740 C   0  0  0  0  0  0  0  0  0  0  0  0
   -7.8280   18.7150  -31.5340 C   0  0  0  0  0  0  0  0  0  0  0  0
   -6.7250   17.8960  -31.8000 C   0  0  0  0  0  0  0  0  0  0  0  0
   -3.4120   17.6940  -33.2650 C   0  0  0  0  0  0  0  0  0  0  0  0
   -2.8460   19.0370  -33.0280 C   0  0  0  0  0  0  0  0  0  0  0  0
   -3.4740   20.0560  -33.4210 O   0  0  0  0  0  0  0  0  0  0  0  0
   -1.6010   19.1940  -32.3300 N   0  0  0  0  0  0  0  0  0  0  0  0
   -0.9940   20.5030  -32.1010 C   0  0  0  0  0  0  0  0  0  0  0  0
   -1.5660   21.1350  -30.8600 C   0  0  0  0  0  0  0  0  0  0  0  0
   -1.7580   20.3750  -29.6970 C   0  0  0  0  0  0  0  0  0  0  0  0
   -2.2630   20.9740  -28.5410 C   0  0  0  0  0  0  0  0  0  0  0  0
   -2.5820   22.3340  -28.5370 C   0  0  0  0  0  0  0  0  0  0  0  0
   -2.4070   23.1080  -29.6960 C   0  0  0  0  0  0  0  0  0  0  0  0
   -2.7310   24.5540  -29.6970 C   0  0  0  0  0  0  0  0  0  0  0  0
   -2.0710   25.3370  -28.9620 O   0  0  0  0  0  0  0  0  0  0  0  0
   -3.8130   25.0900  -30.4710 N   0  0  0  0  0  0  0  0  0  0  0  0
   -4.9950   24.3820  -30.8700 C   0  0  0  0  0  0  0  0  0  0  0  0
   -4.9380   23.2880  -31.7530 C   0  0  0  0  0  0  0  0  0  0  0  0
   -6.1130   22.6330  -32.1360 C   0  0  0  0  0  0  0  0  0  0  0  0
   -7.3490   23.0720  -31.6550 C   0  0  0  0  0  0  0  0  0  0  0  0
   -7.4130   24.1720  -30.7960 C   0  0  0  0  0  0  0  0  0  0  0  0
   -6.2400   24.8290  -30.4110 C   0  0  0  0  0  0  0  0  0  0  0  0
   -1.8860   22.5020  -30.8530 C   0  0  0  0  0  0  0  0  0  0  0  0
   -0.7870   16.2423  -32.6714 H   0  0  0  0  0  0  0  0  0  0  0  0
   -1.0830   15.3760  -34.2169 H   0  0  0  0  0  0  0  0  0  0  0  0
   -0.8420   17.1561  -34.2169 H   0  0  0  0  0  0  0  0  0  0  0  0
   -5.5522   19.4649  -34.6074 H   0  0  0  0  0  0  0  0  0  0  0  0
   -7.5271   20.9143  -34.1336 H   0  0  0  0  0  0  0  0  0  0  0  0
   -8.9904   20.4327  -32.1673 H   0  0  0  0  0  0  0  0  0  0  0  0
   -8.4671   18.5095  -30.6626 H   0  0  0  0  0  0  0  0  0  0  0  0
   -6.4909   17.0556  -31.1300 H   0  0  0  0  0  0  0  0  0  0  0  0
   -1.1420   18.3610  -31.9020 H   0  0  0  0  0  0  0  0  0  0  0  0
    0.0926   20.3827  -31.9790 H   0  0  0  0  0  0  0  0  0  0  0  0
   -1.2071   21.1517  -32.9634 H   0  0  0  0  0  0  0  0  0  0  0  0
   -1.5099   19.3033  -29.6954 H   0  0  0  0  0  0  0  0  0  0  0  0
   -2.4100   20.3734  -27.6313 H   0  0  0  0  0  0  0  0  0  0  0  0
   -2.9725   22.8014  -27.6210 H   0  0  0  0  0  0  0  0  0  0  0  0
   -3.9675   22.9472  -32.1428 H   0  0  0  0  0  0  0  0  0  0  0  0
   -6.0638   21.7707  -32.8172 H   0  0  0  0  0  0  0  0  0  0  0  0
   -8.2714   22.5518  -31.9525 H   0  0  0  0  0  0  0  0  0  0  0  0
   -8.3867   24.5215  -30.4222 H   0  0  0  0  0  0  0  0  0  0  0  0
   -6.2958   25.7018  -29.7439 H   0  0  0  0  0  0  0  0  0  0  0  0
   -1.7279   23.1039  -31.7600 H   0  0  0  0  0  0  0  0  0  0  0  0
  1  2  1  0
  2  3  1  0
  3  4  1  0
  4  5  2  0
  5  6  1  0
  6  7  2  0
  7  8  1  0
  8  9  2  0
  9 10  1  0
 10 11  2  0
  5 12  1  0
 12 13  1  0
 13 14  2  0
 13 15  1  0
 15 16  1  0
 16 17  1  0
 17 18  2  0
 18 19  1  0
 19 20  2  0
 20 21  1  0
 21 22  1  0
 22 23  2  0
 22 24  1  0
 24 25  1  0
 25 26  2  0
 26 27  1  0
 27 28  2  0
 28 29  1  0
 29 30  2  0
 21 31  2  0
 12  2  2  0
 31 17  1  0
 11  6  1  0
 30 25  1  0
  1 32  1  0
  1 33  1  0
  1 34  1  0
  7 35  1  0
  8 36  1  0
  9 37  1  0
 10 38  1  0
 11 39  1  0
 15 40  1  0
 16 41  1  0
 16 42  1  0
 18 43  1  0
 19 44  1  0
 20 45  1  0
 26 46  1  0
 27 47  1  0
 28 48  1  0
 29 49  1  0
 30 50  1  0
 31 51  1  0
M  CHG  1  24  -1
M  END
>  <UniqueID>  (41) 
37

>  <SMILES>  (41) 
Cc1onc(-c2ccccc2)c1C(=O)NCc1cccc(C(=O)[N-]c2ccccc2)c1

>  <Energy>  (41) 
99.32462293548642

>  <Genealogy>  (41) 
Cc1onc(-c2ccccc2)c1C(=O)NCc1cccc(C(=O)[N-]c2ccccc2)c1 (protonated)
Cc1onc(-c2ccccc2)c1C(=O)NCc1cccc(C(=O)[N-]c2ccccc2)c1 (3D coordinates assigned)
Cc1onc(-c2ccccc2)c1C(=O)NCc1cccc(C(=O)[N-]c2ccccc2)c1 (optimized conformer: 99.32462293548642 kcal/mol)

>  <smiles>  (41) 
Cc1onc(-c2ccccc2)c1C(=O)NCc1cccc(C(=O)Nc2ccccc2)c1

>  <score_type>  (41) 
oracle

>  <origin>  (41) 
adgpu

>  <m_score__min__energy>  (41) 
-11.33

>  <m_primary>  (41) 
energy

$$$$
41:0
     RDKit          3D

 17 17  0  0  0  0  0  0  0  0999 V2000
   -4.8350   24.5250  -28.5100 N   0  0  0  0  0  0  0  0  0  0  0  0
   -5.1550   24.9500  -30.1540 S   0  0  0  0  0  0  0  0  0  0  0  0
   -6.0590   26.1500  -30.1950 O   0  0  0  0  0  0  0  0  0  0  0  0
   -3.8640   25.2980  -30.8410 O   0  0  0  0  0  0  0  0  0  0  0  0
   -5.9230   23.5960  -30.9770 C   0  0  0  0  0  0  0  0  0  0  0  0
   -5.1500   22.6800  -31.7030 C   0  0  0  0  0  0  0  0  0  0  0  0
   -5.7620   21.6130  -32.3680 C   0  0  0  0  0  0  0  0  0  0  0  0
   -7.1510   21.4590  -32.3130 C   0  0  0  0  0  0  0  0  0  0  0  0
   -7.7440   20.4250  -32.9580 F   0  0  0  0  0  0  0  0  0  0  0  0
   -7.9280   22.3740  -31.5960 C   0  0  0  0  0  0  0  0  0  0  0  0
   -7.3170   23.4430  -30.9310 C   0  0  0  0  0  0  0  0  0  0  0  0
   -4.6260   25.4140  -27.9990 H   0  0  0  0  0  0  0  0  0  0  0  0
   -5.7260   24.1530  -28.1120 H   0  0  0  0  0  0  0  0  0  0  0  0
   -4.0577   22.8008  -31.7499 H   0  0  0  0  0  0  0  0  0  0  0  0
   -5.1510   20.8948  -32.9344 H   0  0  0  0  0  0  0  0  0  0  0  0
   -9.0206   22.2534  -31.5546 H   0  0  0  0  0  0  0  0  0  0  0  0
   -7.9305   24.1644  -30.3714 H   0  0  0  0  0  0  0  0  0  0  0  0
  1  2  1  0
  2  3  2  0
  2  4  2  0
  2  5  1  0
  5  6  2  0
  6  7  1  0
  7  8  2  0
  8  9  1  0
  8 10  1  0
 10 11  2  0
 11  5  1  0
  1 12  1  0
  1 13  1  0
  6 14  1  0
  7 15  1  0
 10 16  1  0
 11 17  1  0
M  END
>  <UniqueID>  (42) 
38

>  <SMILES>  (42) 
NS(=O)(=O)c1ccc(F)cc1

>  <Energy>  (42) 
14.113968427539486

>  <Genealogy>  (42) 
NS(=O)(=O)c1ccc(F)cc1 (3D coordinates assigned)
NS(=O)(=O)c1ccc(F)cc1 (optimized conformer: 14.113968427539486 kcal/mol)

>  <smiles>  (42) 
NS(=O)(=O)c1ccc(F)cc1

>  <score_type>  (42) 
oracle

>  <origin>  (42) 
adgpu

>  <m_score__min__energy>  (42) 
-6.1100000000000003

>  <m_primary>  (42) 
energy

$$$$
42:0
     RDKit          3D

 55 59  0  0  0  0  0  0  0  0999 V2000
   -3.9320   19.7900  -31.3950 O   0  0  0  0  0  0  0  0  0  0  0  0
   -4.9750   20.4620  -31.6260 C   0  0  0  0  0  0  0  0  0  0  0  0
   -5.1710   21.7780  -30.9810 C   0  0  0  0  0  0  0  0  0  0  0  0
   -4.1580   22.3680  -30.2040 C   0  0  0  0  0  0  0  0  0  0  0  0
   -4.3570   23.6220  -29.6000 C   0  0  0  0  0  0  0  0  0  0  0  0
   -3.2830   24.2440  -28.7840 C   0  0  0  0  0  0  0  0  0  0  0  0
   -2.0130   24.4900  -29.3400 C   0  0  0  0  0  0  0  0  0  0  0  0
   -1.0040   25.0750  -28.5690 C   0  0  0  0  0  0  0  0  0  0  0  0
   -1.2480   25.4210  -27.2370 C   0  0  0  0  0  0  0  0  0  0  0  0
   -0.2410   26.0030  -26.4770 O   0  0  0  0  0  0  0  0  0  0  0  0
   -2.5050   25.1820  -26.6740 C   0  0  0  0  0  0  0  0  0  0  0  0
   -2.7460   25.5120  -25.3810 F   0  0  0  0  0  0  0  0  0  0  0  0
   -3.5180   24.5970  -27.4410 C   0  0  0  0  0  0  0  0  0  0  0  0
   -5.5870   24.2770  -29.7770 C   0  0  0  0  0  0  0  0  0  0  0  0
   -6.5970   23.6930  -30.5440 C   0  0  0  0  0  0  0  0  0  0  0  0
   -6.3930   22.4520  -31.1630 C   0  0  0  0  0  0  0  0  0  0  0  0
   -7.5170   21.7980  -31.9270 C   0  0  0  0  0  0  0  0  0  0  0  0
   -6.9840   20.9010  -33.0500 C   0  0  0  0  0  0  0  0  0  0  0  0
   -5.9770   19.9630  -32.5340 N   0  0  0  0  0  0  0  0  0  0  0  0
   -5.8970   18.6240  -33.0610 C   0  0  0  0  0  0  0  0  0  0  0  0
   -6.7990   17.6340  -32.6360 C   0  0  0  0  0  0  0  0  0  0  0  0
   -6.7140   16.3350  -33.1430 C   0  0  0  0  0  0  0  0  0  0  0  0
   -5.7220   15.9970  -34.0790 C   0  0  0  0  0  0  0  0  0  0  0  0
   -5.6390   14.6550  -34.6050 N   0  0  0  0  0  0  0  0  0  0  0  0
   -6.7780   13.7370  -34.4680 C   0  0  0  0  0  0  0  0  0  0  0  0
   -6.8840   12.7760  -35.6730 C   0  0  0  0  0  0  0  0  0  0  0  0
   -5.5880   12.4580  -36.3140 N   0  0  0  0  0  0  0  0  0  0  0  0
   -4.4380   12.6560  -35.4240 C   0  0  0  0  0  0  0  0  0  0  0  0
   -4.3340   14.1320  -35.0300 C   0  0  0  0  0  0  0  0  0  0  0  0
   -4.8170   16.9880  -34.4980 C   0  0  0  0  0  0  0  0  0  0  0  0
   -4.9030   18.2880  -33.9920 C   0  0  0  0  0  0  0  0  0  0  0  0
   -3.2008   21.8434  -30.0675 H   0  0  0  0  0  0  0  0  0  0  0  0
   -1.8134   24.2202  -30.3876 H   0  0  0  0  0  0  0  0  0  0  0  0
   -0.0150   25.2635  -29.0121 H   0  0  0  0  0  0  0  0  0  0  0  0
   -4.5049   24.4114  -26.9921 H   0  0  0  0  0  0  0  0  0  0  0  0
   -5.7557   25.2575  -29.3078 H   0  0  0  0  0  0  0  0  0  0  0  0
   -7.5602   24.2107  -30.6634 H   0  0  0  0  0  0  0  0  0  0  0  0
   -8.1128   21.1866  -31.2332 H   0  0  0  0  0  0  0  0  0  0  0  0
   -8.1334   22.5888  -32.3794 H   0  0  0  0  0  0  0  0  0  0  0  0
   -7.8190   20.3313  -33.4838 H   0  0  0  0  0  0  0  0  0  0  0  0
   -6.5152   21.5358  -33.8164 H   0  0  0  0  0  0  0  0  0  0  0  0
   -7.5770   17.8834  -31.8994 H   0  0  0  0  0  0  0  0  0  0  0  0
   -7.4297   15.5704  -32.8066 H   0  0  0  0  0  0  0  0  0  0  0  0
   -6.6505   13.1449  -33.5497 H   0  0  0  0  0  0  0  0  0  0  0  0
   -7.6991   14.3367  -34.4250 H   0  0  0  0  0  0  0  0  0  0  0  0
   -7.3362   11.8356  -35.3250 H   0  0  0  0  0  0  0  0  0  0  0  0
   -7.4937   13.2882  -36.4319 H   0  0  0  0  0  0  0  0  0  0  0  0
   -5.5990   11.4590  -36.6290 H   0  0  0  0  0  0  0  0  0  0  0  0
   -5.4660   13.0540  -37.1670 H   0  0  0  0  0  0  0  0  0  0  0  0
   -4.5676   12.0448  -34.5187 H   0  0  0  0  0  0  0  0  0  0  0  0
   -3.5184   12.3544  -35.9469 H   0  0  0  0  0  0  0  0  0  0  0  0
   -3.6181   14.2338  -34.2011 H   0  0  0  0  0  0  0  0  0  0  0  0
   -3.9937   14.7058  -35.9047 H   0  0  0  0  0  0  0  0  0  0  0  0
   -4.0349   16.7382  -35.2300 H   0  0  0  0  0  0  0  0  0  0  0  0
   -4.1864   19.0528  -34.3261 H   0  0  0  0  0  0  0  0  0  0  0  0
  1  2  2  0
  2  3  1  0
  3  4  2  0
  4  5  1  0
  5  6  1  0
  6  7  2  0
  7  8  1  0
  8  9  2  0
  9 10  1  0
  9 11  1  0
 11 12  1  0
 11 13  2  0
  5 14  2  0
 14 15  1  0
 15 16  2  0
 16 17  1  0
 17 18  1  0
 18 19  1  0
 19 20  1  0
 20 21  2  0
 21 22  1  0
 22 23  2  0
 23 24  1  0
 24 25  1  0
 25 26  1  0
 26 27  1  0
 27 28  1  0
 28 29  1  0
 23 30  1  0
 30 31  2  0
 19  2  1  0
 31 20  1  0
 16  3  1  0
 29 24  1  0
 13  6  1  0
  4 32  1  0
  7 33  1  0
  8 34  1  0
 13 35  1  0
 14 36  1  0
 15 37  1  0
 17 38  1  0
 17 39  1  0
 18 40  1  0
 18 41  1  0
 21 42  1  0
 22 43  1  0
 25 44  1  0
 25 45  1  0
 26 46  1  0
 26 47  1  0
 27 48  1  0
 27 49  1  0
 28 50  1  0
 28 51  1  0
 29 52  1  0
 29 53  1  0
 30 54  1  0
 31 55  1  0
M  CHG  2  10  -1  27   1
M  END
>  <UniqueID>  (43) 
39

>  <SMILES>  (43) 
O=C1c2cc(-c3ccc([O-])c(F)c3)ccc2CCN1c1ccc(N2CC[NH2+]CC2)cc1

>  <Energy>  (43) 
80.2064113317757

>  <Genealogy>  (43) 
O=C1c2cc(-c3ccc([O-])c(F)c3)ccc2CCN1c1ccc(N2CC[NH2+]CC2)cc1 (protonated)
O=C1c2cc(-c3ccc([O-])c(F)c3)ccc2CCN1c1ccc(N2CC[NH2+]CC2)cc1 (3D coordinates assigned)
O=C1c2cc(-c3ccc([O-])c(F)c3)ccc2CCN1c1ccc(N2CC[NH2+]CC2)cc1 (nonaromatic ring conformer: 80.2064113317757 kcal/mol)

>  <smiles>  (43) 
O=C1c2cc(-c3ccc(O)c(F)c3)ccc2CCN1c1ccc(N2CCNCC2)cc1

>  <score_type>  (43) 
oracle

>  <origin>  (43) 
adgpu

>  <m_score__min__energy>  (43) 
-11.050000000000001

>  <m_primary>  (43) 
energy

$$$$
43:0
     RDKit          3D

 58 61  0  0  0  0  0  0  0  0999 V2000
    0.6030   23.4820  -25.9090 C   0  0  0  0  0  0  0  0  0  0  0  0
   -0.3970   24.1360  -24.9550 C   0  0  0  0  0  0  0  0  0  0  0  0
   -0.5850   25.5790  -25.2440 N   0  0  0  0  0  0  0  0  0  0  0  0
    0.1870   26.0040  -26.4370 C   0  0  0  0  0  0  0  0  0  0  0  0
   -0.6300   26.0340  -27.7510 C   0  0  0  0  0  0  0  0  0  0  0  0
   -1.8290   25.1860  -27.6760 N   0  0  0  0  0  0  0  0  0  0  0  0
   -2.2640   24.4130  -28.8140 C   0  0  0  0  0  0  0  0  0  0  0  0
   -1.5160   23.3680  -29.2610 N   0  0  0  0  0  0  0  0  0  0  0  0
   -1.9260   22.6290  -30.3220 C   0  0  0  0  0  0  0  0  0  0  0  0
   -1.1240   21.5720  -30.7680 O   0  0  0  0  0  0  0  0  0  0  0  0
   -1.2090   20.9690  -32.0310 C   0  0  0  0  0  0  0  0  0  0  0  0
   -0.1690   21.1820  -32.9440 C   0  0  0  0  0  0  0  0  0  0  0  0
   -0.2050   20.5880  -34.2110 C   0  0  0  0  0  0  0  0  0  0  0  0
    1.1020   20.8670  -35.3460 Cl  0  0  0  0  0  0  0  0  0  0  0  0
   -1.2790   19.7680  -34.5690 C   0  0  0  0  0  0  0  0  0  0  0  0
   -2.3150   19.5320  -33.6570 C   0  0  0  0  0  0  0  0  0  0  0  0
   -3.4090   18.6680  -34.0180 C   0  0  0  0  0  0  0  0  0  0  0  0
   -4.2880   17.9730  -34.3080 N   0  0  0  0  0  0  0  0  0  0  0  0
   -2.2780   20.1240  -32.3880 C   0  0  0  0  0  0  0  0  0  0  0  0
   -3.0850   22.9500  -30.9580 N   0  0  0  0  0  0  0  0  0  0  0  0
   -3.8340   23.9960  -30.5290 C   0  0  0  0  0  0  0  0  0  0  0  0
   -5.0370   24.2910  -31.1800 O   0  0  0  0  0  0  0  0  0  0  0  0
   -6.0190   23.3450  -31.5070 C   0  0  0  0  0  0  0  0  0  0  0  0
   -7.3620   23.6730  -31.3000 C   0  0  0  0  0  0  0  0  0  0  0  0
   -8.3690   22.7590  -31.6150 C   0  0  0  0  0  0  0  0  0  0  0  0
   -8.0400   21.5000  -32.1240 C   0  0  0  0  0  0  0  0  0  0  0  0
   -6.6930   21.1370  -32.3110 C   0  0  0  0  0  0  0  0  0  0  0  0
   -6.3320   19.7940  -32.8360 C   0  0  0  0  0  0  0  0  0  0  0  0
   -5.5920   18.8820  -32.0140 N   0  0  0  0  0  0  0  0  0  0  0  0
   -6.6890   19.4300  -34.0320 N   0  0  0  0  0  0  0  0  0  0  0  0
   -5.6870   22.0680  -31.9970 C   0  0  0  0  0  0  0  0  0  0  0  0
   -3.4250   24.7170  -29.4520 N   0  0  0  0  0  0  0  0  0  0  0  0
   -2.7150   25.3040  -26.5100 C   0  0  0  0  0  0  0  0  0  0  0  0
   -2.0010   25.9950  -25.3410 C   0  0  0  0  0  0  0  0  0  0  0  0
    1.3844   22.9710  -25.3273 H   0  0  0  0  0  0  0  0  0  0  0  0
    0.0804   22.7506  -26.5430 H   0  0  0  0  0  0  0  0  0  0  0  0
    1.0636   24.2539  -26.5430 H   0  0  0  0  0  0  0  0  0  0  0  0
   -1.3665   23.6257  -25.0534 H   0  0  0  0  0  0  0  0  0  0  0  0
    0.0011   24.0450  -23.9336 H   0  0  0  0  0  0  0  0  0  0  0  0
    0.5773   27.0156  -26.2516 H   0  0  0  0  0  0  0  0  0  0  0  0
    0.9815   25.2566  -26.5789 H   0  0  0  0  0  0  0  0  0  0  0  0
   -0.9402   27.0700  -27.9523 H   0  0  0  0  0  0  0  0  0  0  0  0
    0.0100   25.6455  -28.5569 H   0  0  0  0  0  0  0  0  0  0  0  0
    0.6819   21.8203  -32.6638 H   0  0  0  0  0  0  0  0  0  0  0  0
   -1.3103   19.3079  -35.5677 H   0  0  0  0  0  0  0  0  0  0  0  0
   -3.0863   19.9284  -31.6680 H   0  0  0  0  0  0  0  0  0  0  0  0
   -7.6269   24.6573  -30.8864 H   0  0  0  0  0  0  0  0  0  0  0  0
   -9.4239   23.0305  -31.4622 H   0  0  0  0  0  0  0  0  0  0  0  0
   -8.8386   20.7882  -32.3801 H   0  0  0  0  0  0  0  0  0  0  0  0
   -5.3610   17.9230  -32.3550 H   0  0  0  0  0  0  0  0  0  0  0  0
   -5.2330   19.1680  -31.0780 H   0  0  0  0  0  0  0  0  0  0  0  0
   -7.2600   20.0490  -34.6500 H   0  0  0  0  0  0  0  0  0  0  0  0
   -6.4310   18.4870  -34.4020 H   0  0  0  0  0  0  0  0  0  0  0  0
   -4.6303   21.7956  -32.1357 H   0  0  0  0  0  0  0  0  0  0  0  0
   -3.6001   25.8942  -26.7897 H   0  0  0  0  0  0  0  0  0  0  0  0
   -3.0091   24.2931  -26.1912 H   0  0  0  0  0  0  0  0  0  0  0  0
   -2.0435   27.0840  -25.4905 H   0  0  0  0  0  0  0  0  0  0  0  0
   -2.5087   25.7057  -24.4090 H   0  0  0  0  0  0  0  0  0  0  0  0
  1  2  1  0
  2  3  1  0
  3  4  1  0
  4  5  1  0
  5  6  1  0
  6  7  1  0
  7  8  2  0
  8  9  1  0
  9 10  1  0
 10 11  1  0
 11 12  2  0
 12 13  1  0
 13 14  1  0
 13 15  2  0
 15 16  1  0
 16 17  1  0
 17 18  3  0
 16 19  2  0
  9 20  2  0
 20 21  1  0
 21 22  1  0
 22 23  1  0
 23 24  2  0
 24 25  1  0
 25 26  2  0
 26 27  1  0
 27 28  1  0
 28 29  1  0
 28 30  2  0
 27 31  2  0
 21 32  2  0
  6 33  1  0
 33 34  1  0
 34  3  1  0
 32  7  1  0
 19 11  1  0
 31 23  1  0
  1 35  1  0
  1 36  1  0
  1 37  1  0
  2 38  1  0
  2 39  1  0
  4 40  1  0
  4 41  1  0
  5 42  1  0
  5 43  1  0
 12 44  1  0
 15 45  1  0
 19 46  1  0
 24 47  1  0
 25 48  1  0
 26 49  1  0
 29 50  1  0
 29 51  1  0
 30 52  1  0
 30 53  1  0
 31 54  1  0
 33 55  1  0
 33 56  1  0
 34 57  1  0
 34 58  1  0
M  CHG  1  30   1
M  END
>  <UniqueID>  (44) 
40

>  <SMILES>  (44) 
CCN1CCN(c2nc(Oc3cc(Cl)cc(C#N)c3)nc(Oc3cccc(C(N)=[NH2+])c3)n2)CC1

>  <Energy>  (44) 
79.5396579079266

>  <Genealogy>  (44) 
CCN1CCN(c2nc(Oc3cc(Cl)cc(C#N)c3)nc(Oc3cccc(C(N)=[NH2+])c3)n2)CC1 (protonated)
CCN1CCN(c2nc(Oc3cc(Cl)cc(C#N)c3)nc(Oc3cccc(C(N)=[NH2+])c3)n2)CC1 (3D coordinates assigned)
CCN1CCN(c2nc(Oc3cc(Cl)cc(C#N)c3)nc(Oc3cccc(C(N)=[NH2+])c3)n2)CC1 (nonaromatic ring conformer: 79.5396579079266 kcal/mol)

>  <smiles>  (44) 
CCN1CCN(c2nc(Oc3cc(Cl)cc(C#N)c3)nc(Oc3cccc(C(=N)N)c3)n2)CC1

>  <score_type>  (44) 
oracle

>  <origin>  (44) 
adgpu

>  <m_score__min__energy>  (44) 
-10.49

>  <m_primary>  (44) 
energy

$$$$
44:0
     RDKit          3D

 35 37  0  0  0  0  0  0  0  0999 V2000
   -9.4668   20.8481  -33.2935 H   0  0  0  0  0  0  0  0  0  0  0  0
   -8.7460   20.0910  -32.9510 C   0  0  0  0  0  0  0  0  0  0  0  0
   -9.1290   19.1430  -32.0030 C   0  0  0  0  0  0  0  0  0  0  0  0
  -10.1489   19.1599  -31.5912 H   0  0  0  0  0  0  0  0  0  0  0  0
   -8.2210   18.1720  -31.5750 C   0  0  0  0  0  0  0  0  0  0  0  0
   -8.5370   17.4155  -30.8416 H   0  0  0  0  0  0  0  0  0  0  0  0
   -6.9050   18.1530  -32.0740 C   0  0  0  0  0  0  0  0  0  0  0  0
   -5.9820   17.0310  -31.6590 C   0  0  0  0  0  0  0  0  0  0  0  0
   -6.5028   16.3838  -30.9380 H   0  0  0  0  0  0  0  0  0  0  0  0
   -5.0812   17.4667  -31.2020 H   0  0  0  0  0  0  0  0  0  0  0  0
   -5.5630   16.1980  -32.8670 C   0  0  0  0  0  0  0  0  0  0  0  0
   -5.0934   15.2644  -32.5236 H   0  0  0  0  0  0  0  0  0  0  0  0
   -6.4491   15.9610  -33.4741 H   0  0  0  0  0  0  0  0  0  0  0  0
   -4.8444   16.7681  -33.4741 H   0  0  0  0  0  0  0  0  0  0  0  0
   -6.5140   19.1370  -33.0170 C   0  0  0  0  0  0  0  0  0  0  0  0
   -5.2020   19.1470  -33.5940 N   0  0  0  0  0  0  0  0  0  0  0  0
   -4.1590   19.8900  -33.3280 C   0  0  0  0  0  0  0  0  0  0  0  0
   -2.9570   19.4870  -33.9230 C   0  0  0  0  0  0  0  0  0  0  0  0
   -2.9645   18.6834  -34.6741 H   0  0  0  0  0  0  0  0  0  0  0  0
   -1.7550   20.0910  -33.5750 C   0  0  0  0  0  0  0  0  0  0  0  0
   -0.8185   19.7567  -34.0454 H   0  0  0  0  0  0  0  0  0  0  0  0
   -1.7300   21.0900  -32.6590 N   0  0  0  0  0  0  0  0  0  0  0  0
   -0.8020   21.5020  -32.4090 H   0  0  0  0  0  0  0  0  0  0  0  0
   -2.8730   21.5760  -32.0990 C   0  0  0  0  0  0  0  0  0  0  0  0
   -2.7920   22.6430  -31.1910 C   0  0  0  0  0  0  0  0  0  0  0  0
   -1.8066   23.0355  -30.8998 H   0  0  0  0  0  0  0  0  0  0  0  0
   -3.9460   23.2110  -30.6540 C   0  0  0  0  0  0  0  0  0  0  0  0
   -3.7920   24.5470  -29.5220 Cl  0  0  0  0  0  0  0  0  0  0  0  0
   -5.2020   22.7360  -31.0510 C   0  0  0  0  0  0  0  0  0  0  0  0
   -6.6810   23.4750  -30.4520 Cl  0  0  0  0  0  0  0  0  0  0  0  0
   -5.2950   21.6710  -31.9520 C   0  0  0  0  0  0  0  0  0  0  0  0
   -6.2874   21.3300  -32.2820 H   0  0  0  0  0  0  0  0  0  0  0  0
   -4.1400   21.0230  -32.4480 C   0  0  0  0  0  0  0  0  0  0  0  0
   -7.4480   20.0800  -33.4660 C   0  0  0  0  0  0  0  0  0  0  0  0
   -7.1569   20.8166  -34.2293 H   0  0  0  0  0  0  0  0  0  0  0  0
  1  2  1  0
  2  3  2  0
  3  4  1  0
  3  5  1  0
  5  6  1  0
  5  7  2  0
  7  8  1  0
  8  9  1  0
  8 10  1  0
  8 11  1  0
 11 12  1  0
 11 13  1  0
 11 14  1  0
  7 15  1  0
 15 16  1  0
 16 17  2  0
 17 18  1  0
 18 19  1  0
 18 20  2  0
 20 21  1  0
 20 22  1  0
 22 23  1  0
 22 24  1  0
 24 25  2  0
 25 26  1  0
 25 27  1  0
 27 28  1  0
 27 29  2  0
 29 30  1  0
 29 31  1  0
 31 32  1  0
 31 33  2  0
 15 34  2  0
 34 35  1  0
 34  2  1  0
 33 17  1  0
 33 24  1  0
M  END
>  <UniqueID>  (45) 
41

>  <SMILES>  (45) 
CCc1ccccc1/N=c1/cc[nH]c2cc(Cl)c(Cl)cc12

>  <Energy>  (45) 
59.9324848968574

>  <Genealogy>  (45) 
CCc1ccccc1/N=c1/cc[nH]c2cc(Cl)c(Cl)cc12 (cis-trans isomerization)
CCc1ccccc1/N=c1/cc[nH]c2cc(Cl)c(Cl)cc12 (3D coordinates assigned)
CCc1ccccc1/N=c1/cc[nH]c2cc(Cl)c(Cl)cc12 (optimized conformer: 59.9324848968574 kcal/mol)

>  <smiles>  (45) 
CCc1ccccc1N=c1cc[nH]c2cc(Cl)c(Cl)cc12

>  <score_type>  (45) 
oracle

>  <origin>  (45) 
adgpu

>  <m_score__min__energy>  (45) 
-7.9400000000000004

>  <m_primary>  (45) 
energy

$$$$
45:0
     RDKit          3D

 49 51  0  0  0  0  0  0  0  0999 V2000
   -8.8290   18.9500  -32.3420 C   0  0  0  0  0  0  0  0  0  0  0  0
   -8.5660   20.4010  -32.0600 C   0  0  0  0  0  0  0  0  0  0  0  0
   -9.5970   21.3430  -32.1910 C   0  0  0  0  0  0  0  0  0  0  0  0
   -9.3400   22.6990  -31.9760 C   0  0  0  0  0  0  0  0  0  0  0  0
   -8.0540   23.1250  -31.6300 C   0  0  0  0  0  0  0  0  0  0  0  0
   -7.0130   22.1910  -31.4890 C   0  0  0  0  0  0  0  0  0  0  0  0
   -5.6730   22.6030  -31.1700 N   0  0  0  0  0  0  0  0  0  0  0  0
   -5.2190   23.9680  -31.2050 C   0  0  0  0  0  0  0  0  0  0  0  0
   -5.9900   24.8890  -31.5850 O   0  0  0  0  0  0  0  0  0  0  0  0
   -3.8760   24.3050  -30.8390 N   0  0  0  0  0  0  0  0  0  0  0  0
   -3.0540   23.5880  -29.9060 C   0  0  0  0  0  0  0  0  0  0  0  0
   -3.2410   22.2180  -29.6800 C   0  0  0  0  0  0  0  0  0  0  0  0
   -2.4630   21.5500  -28.7360 C   0  0  0  0  0  0  0  0  0  0  0  0
   -1.4960   22.2360  -27.9940 C   0  0  0  0  0  0  0  0  0  0  0  0
   -0.6020   21.3040  -26.7980 Cl  0  0  0  0  0  0  0  0  0  0  0  0
   -1.3000   23.6230  -28.2020 C   0  0  0  0  0  0  0  0  0  0  0  0
   -0.1020   24.5670  -27.2860 S   0  0  0  0  0  0  0  0  0  0  0  0
    0.4620   23.7810  -26.1370 O   0  0  0  0  0  0  0  0  0  0  0  0
    1.0380   24.9190  -28.2010 O   0  0  0  0  0  0  0  0  0  0  0  0
   -0.8530   26.0820  -26.6760 C   0  0  0  0  0  0  0  0  0  0  0  0
    0.2270   27.1800  -26.5110 C   0  0  0  0  0  0  0  0  0  0  0  0
   -0.2080   28.2450  -25.5000 C   0  0  0  0  0  0  0  0  0  0  0  0
   -0.4160   27.6430  -24.0950 C   0  0  0  0  0  0  0  0  0  0  0  0
   -0.8560   26.1650  -24.1210 C   0  0  0  0  0  0  0  0  0  0  0  0
   -1.6660   25.8360  -25.3790 C   0  0  0  0  0  0  0  0  0  0  0  0
   -2.1070   24.2910  -29.1480 C   0  0  0  0  0  0  0  0  0  0  0  0
   -1.9730   25.6640  -29.3420 O   0  0  0  0  0  0  0  0  0  0  0  0
   -7.2720   20.8330  -31.7320 C   0  0  0  0  0  0  0  0  0  0  0  0
   -8.9280   18.4040  -31.3922 H   0  0  0  0  0  0  0  0  0  0  0  0
   -9.7596   18.8517  -32.9202 H   0  0  0  0  0  0  0  0  0  0  0  0
   -7.9921   18.5313  -32.9202 H   0  0  0  0  0  0  0  0  0  0  0  0
  -10.6103   21.0131  -32.4637 H   0  0  0  0  0  0  0  0  0  0  0  0
  -10.1518   23.4340  -32.0792 H   0  0  0  0  0  0  0  0  0  0  0  0
   -7.8562   24.1948  -31.4676 H   0  0  0  0  0  0  0  0  0  0  0  0
   -5.0170   21.8680  -30.8250 H   0  0  0  0  0  0  0  0  0  0  0  0
   -4.0044   21.6677  -30.2495 H   0  0  0  0  0  0  0  0  0  0  0  0
   -2.6110   20.4723  -28.5729 H   0  0  0  0  0  0  0  0  0  0  0  0
   -1.5799   26.4421  -27.4190 H   0  0  0  0  0  0  0  0  0  0  0  0
    1.1601   26.7143  -26.1610 H   0  0  0  0  0  0  0  0  0  0  0  0
    0.3757   27.6682  -27.4854 H   0  0  0  0  0  0  0  0  0  0  0  0
    0.5684   29.0222  -25.4440 H   0  0  0  0  0  0  0  0  0  0  0  0
   -1.1651   28.6693  -25.8376 H   0  0  0  0  0  0  0  0  0  0  0  0
    0.5316   27.7150  -23.5410 H   0  0  0  0  0  0  0  0  0  0  0  0
   -1.2236   28.2138  -23.6134 H   0  0  0  0  0  0  0  0  0  0  0  0
    0.0392   25.5263  -24.0965 H   0  0  0  0  0  0  0  0  0  0  0  0
   -1.4952   25.9825  -23.2446 H   0  0  0  0  0  0  0  0  0  0  0  0
   -1.9641   24.7778  -25.3424 H   0  0  0  0  0  0  0  0  0  0  0  0
   -2.5448   26.4973  -25.3991 H   0  0  0  0  0  0  0  0  0  0  0  0
   -6.4535   20.1012  -31.6647 H   0  0  0  0  0  0  0  0  0  0  0  0
  1  2  1  0
  2  3  2  0
  3  4  1  0
  4  5  2  0
  5  6  1  0
  6  7  1  0
  7  8  1  0
  8  9  2  0
  8 10  1  0
 10 11  1  0
 11 12  2  0
 12 13  1  0
 13 14  2  0
 14 15  1  0
 14 16  1  0
 16 17  1  0
 17 18  2  0
 17 19  2  0
 17 20  1  0
 20 21  1  0
 21 22  1  0
 22 23  1  0
 23 24  1  0
 24 25  1  0
 16 26  2  0
 26 27  1  0
  6 28  2  0
 28  2  1  0
 26 11  1  0
 25 20  1  0
  1 29  1  0
  1 30  1  0
  1 31  1  0
  3 32  1  0
  4 33  1  0
  5 34  1  0
  7 35  1  0
 12 36  1  0
 13 37  1  0
 20 38  1  0
 21 39  1  0
 21 40  1  0
 22 41  1  0
 22 42  1  0
 23 43  1  0
 23 44  1  0
 24 45  1  0
 24 46  1  0
 25 47  1  0
 25 48  1  0
 28 49  1  0
M  CHG  2  10  -1  27  -1
M  END
>  <UniqueID>  (46) 
42

>  <SMILES>  (46) 
Cc1cccc(NC(=O)[N-]c2ccc(Cl)c(S(=O)(=O)C3CCCCC3)c2[O-])c1

>  <Energy>  (46) 
61.368647287667386

>  <Genealogy>  (46) 
Cc1cccc(NC(=O)[N-]c2ccc(Cl)c(S(=O)(=O)C3CCCCC3)c2[O-])c1 (protonated)
Cc1cccc(NC(=O)[N-]c2ccc(Cl)c(S(=O)(=O)C3CCCCC3)c2[O-])c1 (3D coordinates assigned)
Cc1cccc(NC(=O)[N-]c2ccc(Cl)c(S(=O)(=O)C3CCCCC3)c2[O-])c1 (nonaromatic ring conformer: 61.368647287667386 kcal/mol)

>  <smiles>  (46) 
Cc1cccc(NC(=O)Nc2ccc(Cl)c(S(=O)(=O)C3CCCCC3)c2O)c1

>  <score_type>  (46) 
oracle

>  <origin>  (46) 
adgpu

>  <m_score__min__energy>  (46) 
-14.31

>  <m_primary>  (46) 
energy

$$$$
46:0
     RDKit          3D

 44 46  0  0  0  0  0  0  0  0999 V2000
   -7.6190   19.1950  -32.2310 C   0  0  0  0  0  0  0  0  0  0  0  0
   -7.2820   20.3620  -32.9710 O   0  0  0  0  0  0  0  0  0  0  0  0
   -6.6800   21.4620  -32.3580 C   0  0  0  0  0  0  0  0  0  0  0  0
   -7.4750   22.4310  -31.7280 C   0  0  0  0  0  0  0  0  0  0  0  0
   -9.2250   22.2660  -31.6960 Cl  0  0  0  0  0  0  0  0  0  0  0  0
   -6.8820   23.5550  -31.1440 C   0  0  0  0  0  0  0  0  0  0  0  0
   -5.4890   23.7270  -31.1840 C   0  0  0  0  0  0  0  0  0  0  0  0
   -4.8800   24.9640  -30.6390 C   0  0  0  0  0  0  0  0  0  0  0  0
   -5.5990   25.9840  -30.4710 O   0  0  0  0  0  0  0  0  0  0  0  0
   -3.4870   25.0380  -30.2940 N   0  0  0  0  0  0  0  0  0  0  0  0
   -2.7870   24.0750  -29.4930 C   0  0  0  0  0  0  0  0  0  0  0  0
   -1.7590   23.3360  -30.0920 C   0  0  0  0  0  0  0  0  0  0  0  0
   -0.9420   22.5070  -29.3210 C   0  0  0  0  0  0  0  0  0  0  0  0
   -1.1380   22.4100  -27.9400 C   0  0  0  0  0  0  0  0  0  0  0  0
   -0.2450   21.6100  -27.1490 N   0  0  0  0  0  0  0  0  0  0  0  0
    0.1020   20.2500  -27.4670 C   0  0  0  0  0  0  0  0  0  0  0  0
   -0.7780   19.2140  -27.1190 C   0  0  0  0  0  0  0  0  0  0  0  0
   -0.4710   17.8870  -27.4380 C   0  0  0  0  0  0  0  0  0  0  0  0
    0.7120   17.5870  -28.1180 C   0  0  0  0  0  0  0  0  0  0  0  0
    1.5850   18.6120  -28.4880 C   0  0  0  0  0  0  0  0  0  0  0  0
    1.2820   19.9400  -28.1710 C   0  0  0  0  0  0  0  0  0  0  0  0
   -2.2270   23.0710  -27.3510 C   0  0  0  0  0  0  0  0  0  0  0  0
   -3.0730   23.8870  -28.1190 C   0  0  0  0  0  0  0  0  0  0  0  0
   -4.2450   24.5430  -27.4430 C   0  0  0  0  0  0  0  0  0  0  0  0
   -4.6940   22.7230  -31.7620 C   0  0  0  0  0  0  0  0  0  0  0  0
   -5.2820   21.6030  -32.3560 C   0  0  0  0  0  0  0  0  0  0  0  0
   -4.2490   20.3750  -33.0730 Cl  0  0  0  0  0  0  0  0  0  0  0  0
   -7.5562   19.4125  -31.1546 H   0  0  0  0  0  0  0  0  0  0  0  0
   -8.6436   18.8841  -32.4831 H   0  0  0  0  0  0  0  0  0  0  0  0
   -6.9178   18.3858  -32.4831 H   0  0  0  0  0  0  0  0  0  0  0  0
   -7.5114   24.3097  -30.6498 H   0  0  0  0  0  0  0  0  0  0  0  0
   -1.5942   23.4093  -31.1771 H   0  0  0  0  0  0  0  0  0  0  0  0
   -0.1404   21.9275  -29.8022 H   0  0  0  0  0  0  0  0  0  0  0  0
    0.1400   22.0260  -26.2710 H   0  0  0  0  0  0  0  0  0  0  0  0
   -1.7151   19.4467  -26.5921 H   0  0  0  0  0  0  0  0  0  0  0  0
   -1.1614   17.0793  -27.1533 H   0  0  0  0  0  0  0  0  0  0  0  0
    0.9559   16.5425  -28.3621 H   0  0  0  0  0  0  0  0  0  0  0  0
    2.5125   18.3746  -29.0297 H   0  0  0  0  0  0  0  0  0  0  0  0
    1.9678   20.7455  -28.4726 H   0  0  0  0  0  0  0  0  0  0  0  0
   -2.4200   22.9483  -26.2750 H   0  0  0  0  0  0  0  0  0  0  0  0
   -4.1239   24.4752  -26.3518 H   0  0  0  0  0  0  0  0  0  0  0  0
   -4.2956   25.6006  -27.7413 H   0  0  0  0  0  0  0  0  0  0  0  0
   -5.1729   24.0331  -27.7413 H   0  0  0  0  0  0  0  0  0  0  0  0
   -3.5983   22.8195  -31.7468 H   0  0  0  0  0  0  0  0  0  0  0  0
  1  2  1  0
  2  3  1  0
  3  4  2  0
  4  5  1  0
  4  6  1  0
  6  7  2  0
  7  8  1  0
  8  9  2  0
  8 10  1  0
 10 11  1  0
 11 12  2  0
 12 13  1  0
 13 14  2  0
 14 15  1  0
 15 16  1  0
 16 17  2  0
 17 18  1  0
 18 19  2  0
 19 20  1  0
 20 21  2  0
 14 22  1  0
 22 23  2  0
 23 24  1  0
  7 25  1  0
 25 26  2  0
 26 27  1  0
 26  3  1  0
 23 11  1  0
 21 16  1  0
  1 28  1  0
  1 29  1  0
  1 30  1  0
  6 31  1  0
 12 32  1  0
 13 33  1  0
 15 34  1  0
 17 35  1  0
 18 36  1  0
 19 37  1  0
 20 38  1  0
 21 39  1  0
 22 40  1  0
 24 41  1  0
 24 42  1  0
 24 43  1  0
 25 44  1  0
M  CHG  1  10  -1
M  END
>  <UniqueID>  (47) 
43

>  <SMILES>  (47) 
COc1c(Cl)cc(C(=O)[N-]c2ccc(Nc3ccccc3)cc2C)cc1Cl

>  <Energy>  (47) 
66.76523808211748

>  <Genealogy>  (47) 
COc1c(Cl)cc(C(=O)[N-]c2ccc(Nc3ccccc3)cc2C)cc1Cl (protonated)
COc1c(Cl)cc(C(=O)[N-]c2ccc(Nc3ccccc3)cc2C)cc1Cl (3D coordinates assigned)
COc1c(Cl)cc(C(=O)[N-]c2ccc(Nc3ccccc3)cc2C)cc1Cl (optimized conformer: 66.76523808211748 kcal/mol)

>  <smiles>  (47) 
COc1c(Cl)cc(C(=O)Nc2ccc(Nc3ccccc3)cc2C)cc1Cl

>  <score_type>  (47) 
oracle

>  <origin>  (47) 
adgpu

>  <m_score__min__energy>  (47) 
-10.609999999999999

>  <m_primary>  (47) 
energy

$$$$
47:0
     RDKit          3D

 32 33  0  0  0  0  0  0  0  0999 V2000
   -3.5040   25.3010  -30.4920 O   0  0  0  0  0  0  0  0  0  0  0  0
   -3.3850   24.2570  -29.5820 C   0  0  0  0  0  0  0  0  0  0  0  0
   -3.0790   24.5400  -28.2460 C   0  0  0  0  0  0  0  0  0  0  0  0
   -3.0010   23.5060  -27.3080 C   0  0  0  0  0  0  0  0  0  0  0  0
   -3.2350   22.1860  -27.7030 C   0  0  0  0  0  0  0  0  0  0  0  0
   -3.5370   21.8970  -29.0360 C   0  0  0  0  0  0  0  0  0  0  0  0
   -3.5900   22.9240  -29.9890 C   0  0  0  0  0  0  0  0  0  0  0  0
   -3.9160   22.6040  -31.3490 N   0  0  0  0  0  0  0  0  0  0  0  0
   -3.0210   21.9370  -32.2590 C   0  0  0  0  0  0  0  0  0  0  0  0
   -1.6090   21.2780  -31.7210 S   0  0  0  0  0  0  0  0  0  0  0  0
   -3.4570   21.6640  -33.6050 N   0  0  0  0  0  0  0  0  0  0  0  0
   -3.7070   20.2290  -33.8170 C   0  0  0  0  0  0  0  0  0  0  0  0
   -5.0690   19.8110  -33.3150 C   0  0  0  0  0  0  0  0  0  0  0  0
   -5.3870   18.4490  -33.1730 C   0  0  0  0  0  0  0  0  0  0  0  0
   -6.6260   18.0660  -32.6520 C   0  0  0  0  0  0  0  0  0  0  0  0
   -7.5550   19.0370  -32.2660 C   0  0  0  0  0  0  0  0  0  0  0  0
   -9.1070   18.5530  -31.6060 Cl  0  0  0  0  0  0  0  0  0  0  0  0
   -7.2440   20.3940  -32.4020 C   0  0  0  0  0  0  0  0  0  0  0  0
   -6.0050   20.7810  -32.9210 C   0  0  0  0  0  0  0  0  0  0  0  0
   -2.8993   25.5791  -27.9329 H   0  0  0  0  0  0  0  0  0  0  0  0
   -2.7556   23.7314  -26.2597 H   0  0  0  0  0  0  0  0  0  0  0  0
   -3.1813   21.3736  -26.9634 H   0  0  0  0  0  0  0  0  0  0  0  0
   -3.7342   20.8583  -29.3395 H   0  0  0  0  0  0  0  0  0  0  0  0
   -4.9070   22.7410  -31.6480 H   0  0  0  0  0  0  0  0  0  0  0  0
   -2.7170   21.9800  -34.2740 H   0  0  0  0  0  0  0  0  0  0  0  0
   -4.3240   22.2140  -33.8140 H   0  0  0  0  0  0  0  0  0  0  0  0
   -3.6438   20.0129  -34.8937 H   0  0  0  0  0  0  0  0  0  0  0  0
   -2.9495   19.6654  -33.2526 H   0  0  0  0  0  0  0  0  0  0  0  0
   -4.6579   17.6819  -33.4731 H   0  0  0  0  0  0  0  0  0  0  0  0
   -6.8707   16.9989  -32.5454 H   0  0  0  0  0  0  0  0  0  0  0  0
   -7.9756   21.1579  -32.1000 H   0  0  0  0  0  0  0  0  0  0  0  0
   -5.7623   21.8492  -33.0211 H   0  0  0  0  0  0  0  0  0  0  0  0
  1  2  1  0
  2  3  2  0
  3  4  1  0
  4  5  2  0
  5  6  1  0
  6  7  2  0
  7  8  1  0
  8  9  1  0
  9 10  2  0
  9 11  1  0
 11 12  1  0
 12 13  1  0
 13 14  2  0
 14 15  1  0
 15 16  2  0
 16 17  1  0
 16 18  1  0
 18 19  2  0
  7  2  1  0
 19 13  1  0
  3 20  1  0
  4 21  1  0
  5 22  1  0
  6 23  1  0
  8 24  1  0
 11 25  1  0
 11 26  1  0
 12 27  1  0
 12 28  1  0
 14 29  1  0
 15 30  1  0
 18 31  1  0
 19 32  1  0
M  CHG  2   1  -1  11   1
M  END
>  <UniqueID>  (48) 
44

>  <SMILES>  (48) 
[O-]c1ccccc1NC(=S)[NH2+]Cc1ccc(Cl)cc1

>  <Energy>  (48) 
37.42115993925702

>  <Genealogy>  (48) 
[O-]c1ccccc1NC(=S)[NH2+]Cc1ccc(Cl)cc1 (protonated)
[O-]c1ccccc1NC(=S)[NH2+]Cc1ccc(Cl)cc1 (3D coordinates assigned)
[O-]c1ccccc1NC(=S)[NH2+]Cc1ccc(Cl)cc1 (optimized conformer: 37.42115993925702 kcal/mol)

>  <smiles>  (48) 
Oc1ccccc1NC(=S)NCc1ccc(Cl)cc1

>  <score_type>  (48) 
oracle

>  <origin>  (48) 
adgpu

>  <m_score__min__energy>  (48) 
-10.550000000000001

>  <m_primary>  (48) 
energy

$$$$
