0:0
     RDKit          3D

 53 56  0  0  0  0  0  0  0  0999 V2000
   -4.8870   25.6170  -31.2210 O   0  0  0  0  0  0  0  0  0  0  0  0
   -5.6530   24.9330  -30.1240 S   0  0  0  0  0  0  0  0  0  0  0  0
   -6.8610   25.7570  -29.7810 O   0  0  0  0  0  0  0  0  0  0  0  0
   -4.6350   24.7940  -28.7250 N   0  0  0  0  0  0  0  0  0  0  0  0
   -3.5590   23.8430  -28.6170 C   0  0  0  0  0  0  0  0  0  0  0  0
   -3.7940   22.5180  -28.2050 C   0  0  0  0  0  0  0  0  0  0  0  0
   -2.7360   21.6100  -28.0540 C   0  0  0  0  0  0  0  0  0  0  0  0
   -1.4210   22.0110  -28.3830 C   0  0  0  0  0  0  0  0  0  0  0  0
   -1.1900   23.3280  -28.8030 C   0  0  0  0  0  0  0  0  0  0  0  0
   -2.2440   24.2360  -28.9230 C   0  0  0  0  0  0  0  0  0  0  0  0
   -1.9740   25.5360  -29.3370 O   0  0  0  0  0  0  0  0  0  0  0  0
   -0.2390   21.0900  -28.1860 C   0  0  0  0  0  0  0  0  0  0  0  0
   -0.6460   19.6160  -28.0960 C   0  0  0  0  0  0  0  0  0  0  0  0
   -1.8160   19.4420  -27.1290 C   0  0  0  0  0  0  0  0  0  0  0  0
   -3.0490   20.1900  -27.6450 C   0  0  0  0  0  0  0  0  0  0  0  0
   -6.1880   23.3350  -30.6400 C   0  0  0  0  0  0  0  0  0  0  0  0
   -7.5550   23.0260  -30.6970 C   0  0  0  0  0  0  0  0  0  0  0  0
   -7.9710   21.7680  -31.1420 C   0  0  0  0  0  0  0  0  0  0  0  0
   -7.0280   20.8080  -31.5300 C   0  0  0  0  0  0  0  0  0  0  0  0
   -7.5710   19.2290  -32.0890 S   0  0  0  0  0  0  0  0  0  0  0  0
   -8.0310   18.4330  -30.8980 O   0  0  0  0  0  0  0  0  0  0  0  0
   -8.7220   19.3870  -33.0450 O   0  0  0  0  0  0  0  0  0  0  0  0
   -6.2540   18.4000  -32.8800 N   0  0  0  0  0  0  0  0  0  0  0  0
   -6.0950   18.9050  -34.2540 C   0  0  0  0  0  0  0  0  0  0  0  0
   -5.0730   18.0510  -35.0340 C   0  0  0  0  0  0  0  0  0  0  0  0
   -4.4310   17.1150  -34.1890 O   0  0  0  0  0  0  0  0  0  0  0  0
   -5.3890   16.2170  -33.6580 C   0  0  0  0  0  0  0  0  0  0  0  0
   -6.5140   16.9520  -32.8990 C   0  0  0  0  0  0  0  0  0  0  0  0
   -5.6610   21.1170  -31.4710 C   0  0  0  0  0  0  0  0  0  0  0  0
   -5.2440   22.3740  -31.0240 C   0  0  0  0  0  0  0  0  0  0  0  0
   -4.9120   25.3550  -27.8880 H   0  0  0  0  0  0  0  0  0  0  0  0
   -4.8233   22.1896  -27.9983 H   0  0  0  0  0  0  0  0  0  0  0  0
   -0.1656   23.6504  -29.0411 H   0  0  0  0  0  0  0  0  0  0  0  0
    0.4489   21.2138  -29.0354 H   0  0  0  0  0  0  0  0  0  0  0  0
    0.2382   21.3615  -27.2328 H   0  0  0  0  0  0  0  0  0  0  0  0
   -0.9450   19.2615  -29.0935 H   0  0  0  0  0  0  0  0  0  0  0  0
    0.2103   19.0324  -27.7270 H   0  0  0  0  0  0  0  0  0  0  0  0
   -2.0535   18.3720  -27.0358 H   0  0  0  0  0  0  0  0  0  0  0  0
   -1.5333   19.8525  -26.1484 H   0  0  0  0  0  0  0  0  0  0  0  0
   -3.4485   19.6518  -28.5172 H   0  0  0  0  0  0  0  0  0  0  0  0
   -3.7811   20.2324  -26.8251 H   0  0  0  0  0  0  0  0  0  0  0  0
   -8.3006   23.7747  -30.3911 H   0  0  0  0  0  0  0  0  0  0  0  0
   -9.0442   21.5309  -31.1877 H   0  0  0  0  0  0  0  0  0  0  0  0
   -7.0666   18.8647  -34.7683 H   0  0  0  0  0  0  0  0  0  0  0  0
   -5.7294   19.9415  -34.2098 H   0  0  0  0  0  0  0  0  0  0  0  0
   -5.5967   17.5094  -35.8355 H   0  0  0  0  0  0  0  0  0  0  0  0
   -4.3081   18.7221  -35.4518 H   0  0  0  0  0  0  0  0  0  0  0  0
   -5.8343   15.6436  -34.4844 H   0  0  0  0  0  0  0  0  0  0  0  0
   -4.8751   15.5552  -32.9452 H   0  0  0  0  0  0  0  0  0  0  0  0
   -7.4745   16.7621  -33.4004 H   0  0  0  0  0  0  0  0  0  0  0  0
   -6.5500   16.5808  -31.8642 H   0  0  0  0  0  0  0  0  0  0  0  0
   -4.9155   20.3684  -31.7772 H   0  0  0  0  0  0  0  0  0  0  0  0
   -4.1707   22.6094  -30.9736 H   0  0  0  0  0  0  0  0  0  0  0  0
  1  2  2  0
  2  3  2  0
  2  4  1  0
  4  5  1  0
  5  6  2  0
  6  7  1  0
  7  8  2  0
  8  9  1  0
  9 10  2  0
 10 11  1  0
  8 12  1  0
 12 13  1  0
 13 14  1  0
 14 15  1  0
  2 16  1  0
 16 17  2  0
 17 18  1  0
 18 19  2  0
 19 20  1  0
 20 21  2  0
 20 22  2  0
 20 23  1  0
 23 24  1  0
 24 25  1  0
 25 26  1  0
 26 27  1  0
 27 28  1  0
 19 29  1  0
 29 30  2  0
 10  5  1  0
 30 16  1  0
 15  7  1  0
 28 23  1  0
  4 31  1  0
  6 32  1  0
  9 33  1  0
 12 34  1  0
 12 35  1  0
 13 36  1  0
 13 37  1  0
 14 38  1  0
 14 39  1  0
 15 40  1  0
 15 41  1  0
 17 42  1  0
 18 43  1  0
 24 44  1  0
 24 45  1  0
 25 46  1  0
 25 47  1  0
 27 48  1  0
 27 49  1  0
 28 50  1  0
 28 51  1  0
 29 52  1  0
 30 53  1  0
M  CHG  1  11  -1
M  END
>  <UniqueID>  (1) 
1

>  <SMILES>  (1) 
O=S(=O)(Nc1cc2c(cc1[O-])CCCC2)c1ccc(S(=O)(=O)N2CCOCC2)cc1

>  <Energy>  (1) 
64.57132516470945

>  <Genealogy>  (1) 
O=S(=O)(Nc1cc2c(cc1[O-])CCCC2)c1ccc(S(=O)(=O)N2CCOCC2)cc1 (protonated)
O=S(=O)(Nc1cc2c(cc1[O-])CCCC2)c1ccc(S(=O)(=O)N2CCOCC2)cc1 (3D coordinates assigned)
O=S(=O)(Nc1cc2c(cc1[O-])CCCC2)c1ccc(S(=O)(=O)N2CCOCC2)cc1 (nonaromatic ring conformer: 64.57132516470945 kcal/mol)

>  <smiles>  (1) 
O=S(=O)(Nc1cc2c(cc1O)CCCC2)c1ccc(S(=O)(=O)N2CCOCC2)cc1

>  <score_type>  (1) 
oracle

>  <origin>  (1) 
adgpu

>  <m_score__min__energy>  (1) 
-15.16

>  <m_primary>  (1) 
energy

$$$$
1:0
     RDKit          3D

 57 59  0  0  0  0  0  0  0  0999 V2000
   -4.8730   24.1280  -28.6090 C   0  0  0  0  0  0  0  0  0  0  0  0
   -5.2950   23.4850  -29.9030 C   0  0  0  0  0  0  0  0  0  0  0  0
   -6.6160   23.0340  -30.0720 C   0  0  0  0  0  0  0  0  0  0  0  0
   -7.0280   22.4780  -31.2960 C   0  0  0  0  0  0  0  0  0  0  0  0
   -8.6940   21.9390  -31.5300 S   0  0  0  0  0  0  0  0  0  0  0  0
   -9.4900   23.0050  -32.2340 O   0  0  0  0  0  0  0  0  0  0  0  0
   -9.3050   21.7360  -30.1730 O   0  0  0  0  0  0  0  0  0  0  0  0
   -8.8080   20.4340  -32.4130 N   0  0  0  0  0  0  0  0  0  0  0  0
   -7.5920   19.5980  -32.4570 C   0  0  0  0  0  0  0  0  0  0  0  0
   -6.8270   19.7660  -33.7890 C   0  0  0  0  0  0  0  0  0  0  0  0
   -6.2040   18.4470  -34.2720 C   0  0  0  0  0  0  0  0  0  0  0  0
   -5.5570   17.7080  -33.1680 N   0  0  0  0  0  0  0  0  0  0  0  0
   -4.3300   18.3790  -32.6820 C   0  0  0  0  0  0  0  0  0  0  0  0
   -3.7040   19.2150  -33.8040 C   0  0  0  0  0  0  0  0  0  0  0  0
   -2.4800   19.9440  -33.3100 C   0  0  0  0  0  0  0  0  0  0  0  0
   -2.4750   20.5480  -32.0420 C   0  0  0  0  0  0  0  0  0  0  0  0
   -1.3230   21.1850  -31.5710 C   0  0  0  0  0  0  0  0  0  0  0  0
   -0.1650   21.2070  -32.3520 C   0  0  0  0  0  0  0  0  0  0  0  0
   -0.1390   20.5790  -33.6060 C   0  0  0  0  0  0  0  0  0  0  0  0
    1.0650   20.6270  -34.3940 N   0  0  0  0  0  0  0  0  0  0  0  0
    1.5140   21.7900  -35.1100 C   0  0  0  0  0  0  0  0  0  0  0  0
    0.7300   22.7560  -35.3210 O   0  0  0  0  0  0  0  0  0  0  0  0
    2.8880   21.8110  -35.7080 C   0  0  0  0  0  0  0  0  0  0  0  0
    3.7520   21.0660  -34.9250 F   0  0  0  0  0  0  0  0  0  0  0  0
    3.3630   23.1060  -35.7820 F   0  0  0  0  0  0  0  0  0  0  0  0
    2.8430   21.2700  -36.9760 F   0  0  0  0  0  0  0  0  0  0  0  0
   -1.3100   19.9620  -34.0880 C   0  0  0  0  0  0  0  0  0  0  0  0
   -6.4890   17.3400  -32.0660 C   0  0  0  0  0  0  0  0  0  0  0  0
   -7.8210   18.1210  -32.0770 C   0  0  0  0  0  0  0  0  0  0  0  0
   -6.1000   22.3340  -32.3390 C   0  0  0  0  0  0  0  0  0  0  0  0
   -4.7890   22.7920  -32.1800 C   0  0  0  0  0  0  0  0  0  0  0  0
   -4.3870   23.3770  -30.9730 C   0  0  0  0  0  0  0  0  0  0  0  0
   -3.1140   23.8350  -30.8440 F   0  0  0  0  0  0  0  0  0  0  0  0
   -5.2594   23.5393  -27.7639 H   0  0  0  0  0  0  0  0  0  0  0  0
   -3.7748   24.1645  -28.5587 H   0  0  0  0  0  0  0  0  0  0  0  0
   -5.2765   25.1501  -28.5587 H   0  0  0  0  0  0  0  0  0  0  0  0
   -7.3320   23.1167  -29.2410 H   0  0  0  0  0  0  0  0  0  0  0  0
   -6.9414   19.9835  -31.6582 H   0  0  0  0  0  0  0  0  0  0  0  0
   -7.5270   20.1287  -34.5561 H   0  0  0  0  0  0  0  0  0  0  0  0
   -6.0101   20.4831  -33.6206 H   0  0  0  0  0  0  0  0  0  0  0  0
   -6.9950   17.8177  -34.7060 H   0  0  0  0  0  0  0  0  0  0  0  0
   -5.4339   18.6868  -35.0199 H   0  0  0  0  0  0  0  0  0  0  0  0
   -4.5855   19.0367  -31.8381 H   0  0  0  0  0  0  0  0  0  0  0  0
   -3.6078   17.6153  -32.3577 H   0  0  0  0  0  0  0  0  0  0  0  0
   -3.4179   18.5502  -34.6323 H   0  0  0  0  0  0  0  0  0  0  0  0
   -4.4419   19.9561  -34.1450 H   0  0  0  0  0  0  0  0  0  0  0  0
   -3.3802   20.5198  -31.4176 H   0  0  0  0  0  0  0  0  0  0  0  0
   -1.3285   21.6698  -30.5836 H   0  0  0  0  0  0  0  0  0  0  0  0
    0.7338   21.7210  -31.9806 H   0  0  0  0  0  0  0  0  0  0  0  0
    1.6050   19.7420  -34.5200 H   0  0  0  0  0  0  0  0  0  0  0  0
   -1.3085   19.4903  -35.0817 H   0  0  0  0  0  0  0  0  0  0  0  0
   -6.7172   16.2673  -32.1509 H   0  0  0  0  0  0  0  0  0  0  0  0
   -5.9811   17.5941  -31.1240 H   0  0  0  0  0  0  0  0  0  0  0  0
   -8.5011   17.6622  -32.8098 H   0  0  0  0  0  0  0  0  0  0  0  0
   -8.2586   18.0822  -31.0685 H   0  0  0  0  0  0  0  0  0  0  0  0
   -6.4050   21.8598  -33.2835 H   0  0  0  0  0  0  0  0  0  0  0  0
   -4.0700   22.6924  -33.0066 H   0  0  0  0  0  0  0  0  0  0  0  0
  1  2  1  0
  2  3  2  0
  3  4  1  0
  4  5  1  0
  5  6  2  0
  5  7  2  0
  5  8  1  0
  8  9  1  0
  9 10  1  0
 10 11  1  0
 11 12  1  0
 12 13  1  0
 13 14  1  0
 14 15  1  0
 15 16  2  0
 16 17  1  0
 17 18  2  0
 18 19  1  0
 19 20  1  0
 20 21  1  0
 21 22  2  0
 21 23  1  0
 23 24  1  0
 23 25  1  0
 23 26  1  0
 19 27  2  0
 12 28  1  0
 28 29  1  0
  4 30  2  0
 30 31  1  0
 31 32  2  0
 32 33  1  0
 32  2  1  0
 29  9  1  0
 27 15  1  0
  1 34  1  0
  1 35  1  0
  1 36  1  0
  3 37  1  0
  9 38  1  0
 10 39  1  0
 10 40  1  0
 11 41  1  0
 11 42  1  0
 13 43  1  0
 13 44  1  0
 14 45  1  0
 14 46  1  0
 16 47  1  0
 17 48  1  0
 18 49  1  0
 20 50  1  0
 27 51  1  0
 28 52  1  0
 28 53  1  0
 29 54  1  0
 29 55  1  0
 30 56  1  0
 31 57  1  0
M  CHG  1   8  -1
M  END
>  <UniqueID>  (2) 
2

>  <SMILES>  (2) 
Cc1cc(S(=O)(=O)[N-]C2CCN(CCc3cccc(NC(=O)C(F)(F)F)c3)CC2)ccc1F

>  <Energy>  (2) 
71.20811037530353

>  <Genealogy>  (2) 
Cc1cc(S(=O)(=O)[N-]C2CCN(CCc3cccc(NC(=O)C(F)(F)F)c3)CC2)ccc1F (protonated)
Cc1cc(S(=O)(=O)[N-]C2CCN(CCc3cccc(NC(=O)C(F)(F)F)c3)CC2)ccc1F (3D coordinates assigned)
Cc1cc(S(=O)(=O)[N-]C2CCN(CCc3cccc(NC(=O)C(F)(F)F)c3)CC2)ccc1F (nonaromatic ring conformer: 71.20811037530353 kcal/mol)

>  <smiles>  (2) 
Cc1cc(S(=O)(=O)NC2CCN(CCc3cccc(NC(=O)C(F)(F)F)c3)CC2)ccc1F

>  <score_type>  (2) 
oracle

>  <origin>  (2) 
adgpu

>  <m_score__min__energy>  (2) 
-11.51

>  <m_primary>  (2) 
energy

$$$$
2:0
     RDKit          3D

 76 80  0  0  0  0  0  0  0  0999 V2000
   -9.0250   22.1630  -31.5300 C   0  0  0  0  0  0  0  0  0  0  0  0
   -7.5550   22.4560  -31.4520 C   0  0  0  0  0  0  0  0  0  0  0  0
   -6.6510   21.8070  -32.3030 C   0  0  0  0  0  0  0  0  0  0  0  0
   -5.2810   22.0910  -32.2400 C   0  0  0  0  0  0  0  0  0  0  0  0
   -4.3290   21.3460  -33.1330 C   0  0  0  0  0  0  0  0  0  0  0  0
   -4.7960   23.0170  -31.2920 C   0  0  0  0  0  0  0  0  0  0  0  0
   -3.4070   23.2190  -31.2050 O   0  0  0  0  0  0  0  0  0  0  0  0
   -2.4550   22.2080  -31.0040 C   0  0  0  0  0  0  0  0  0  0  0  0
   -1.5600   21.9310  -32.0450 C   0  0  0  0  0  0  0  0  0  0  0  0
   -0.5520   20.9630  -31.8900 C   0  0  0  0  0  0  0  0  0  0  0  0
    0.4160   20.7070  -32.9230 N   0  0  0  0  0  0  0  0  0  0  0  0
    0.1050   20.1650  -34.2140 C   0  0  0  0  0  0  0  0  0  0  0  0
   -1.0030   19.5920  -34.4170 O   0  0  0  0  0  0  0  0  0  0  0  0
    1.1050   20.2970  -35.3300 C   0  0  0  0  0  0  0  0  0  0  0  0
    1.4530   21.7340  -35.6210 C   0  0  0  0  0  0  0  0  0  0  0  0
    2.7920   22.1570  -35.5940 C   0  0  0  0  0  0  0  0  0  0  0  0
    3.1130   23.4980  -35.8260 C   0  0  0  0  0  0  0  0  0  0  0  0
    2.0980   24.4270  -36.0770 C   0  0  0  0  0  0  0  0  0  0  0  0
    0.7640   24.0170  -36.0940 C   0  0  0  0  0  0  0  0  0  0  0  0
    0.4390   22.6760  -35.8630 C   0  0  0  0  0  0  0  0  0  0  0  0
   -0.4410   20.2870  -30.6680 C   0  0  0  0  0  0  0  0  0  0  0  0
   -1.3500   20.5320  -29.6360 C   0  0  0  0  0  0  0  0  0  0  0  0
   -2.3770   21.4670  -29.8030 C   0  0  0  0  0  0  0  0  0  0  0  0
   -3.5900   21.6670  -28.4900 S   0  0  0  0  0  0  0  0  0  0  0  0
   -2.4990   22.6940  -27.4960 C   0  0  0  0  0  0  0  0  0  0  0  0
   -2.6130   24.0440  -27.5920 N   0  0  0  0  0  0  0  0  0  0  0  0
   -1.8360   24.8920  -26.8720 C   0  0  0  0  0  0  0  0  0  0  0  0
   -0.8720   24.3910  -25.9840 C   0  0  0  0  0  0  0  0  0  0  0  0
   -0.0400   25.2850  -25.2120 N   0  0  0  0  0  0  0  0  0  0  0  0
    1.3780   25.4650  -25.5450 C   0  0  0  0  0  0  0  0  0  0  0  0
    2.1730   25.8030  -24.2790 C   0  0  0  0  0  0  0  0  0  0  0  0
    1.6580   26.9910  -23.5680 N   0  0  0  0  0  0  0  0  0  0  0  0
    0.2390   27.3060  -23.8240 C   0  0  0  0  0  0  0  0  0  0  0  0
   -0.6070   26.0550  -24.0960 C   0  0  0  0  0  0  0  0  0  0  0  0
   -0.7300   22.9970  -25.8750 C   0  0  0  0  0  0  0  0  0  0  0  0
   -1.5350   22.1340  -26.6340 C   0  0  0  0  0  0  0  0  0  0  0  0
   -1.3450   20.6460  -26.5260 C   0  0  0  0  0  0  0  0  0  0  0  0
   -5.7170   23.7320  -30.4850 C   0  0  0  0  0  0  0  0  0  0  0  0
   -5.2760   24.8350  -29.5600 C   0  0  0  0  0  0  0  0  0  0  0  0
   -7.0850   23.4260  -30.5610 C   0  0  0  0  0  0  0  0  0  0  0  0
   -9.4370   22.0809  -30.5134 H   0  0  0  0  0  0  0  0  0  0  0  0
   -9.5332   22.9775  -32.0669 H   0  0  0  0  0  0  0  0  0  0  0  0
   -9.1821   21.2159  -32.0669 H   0  0  0  0  0  0  0  0  0  0  0  0
   -7.0209   21.0670  -33.0279 H   0  0  0  0  0  0  0  0  0  0  0  0
   -3.6115   20.7845  -32.5167 H   0  0  0  0  0  0  0  0  0  0  0  0
   -4.8929   20.6468  -33.7679 H   0  0  0  0  0  0  0  0  0  0  0  0
   -3.7859   22.0614  -33.7679 H   0  0  0  0  0  0  0  0  0  0  0  0
   -1.6467   22.4775  -32.9957 H   0  0  0  0  0  0  0  0  0  0  0  0
    1.4210   20.8990  -32.7090 H   0  0  0  0  0  0  0  0  0  0  0  0
    2.0231   19.7613  -35.0471 H   0  0  0  0  0  0  0  0  0  0  0  0
    0.6535   19.8703  -36.2378 H   0  0  0  0  0  0  0  0  0  0  0  0
    3.5918   21.4301  -35.3894 H   0  0  0  0  0  0  0  0  0  0  0  0
    4.1640   23.8224  -35.8111 H   0  0  0  0  0  0  0  0  0  0  0  0
    2.3513   25.4815  -36.2611 H   0  0  0  0  0  0  0  0  0  0  0  0
   -0.0331   24.7494  -36.2893 H   0  0  0  0  0  0  0  0  0  0  0  0
   -0.6140   22.3580  -35.8709 H   0  0  0  0  0  0  0  0  0  0  0  0
    0.3687   19.5572  -30.5199 H   0  0  0  0  0  0  0  0  0  0  0  0
   -1.2576   19.9860  -28.6856 H   0  0  0  0  0  0  0  0  0  0  0  0
   -1.9626   25.9788  -26.9852 H   0  0  0  0  0  0  0  0  0  0  0  0
    1.7701   24.5360  -25.9846 H   0  0  0  0  0  0  0  0  0  0  0  0
    1.4785   26.2894  -26.2663 H   0  0  0  0  0  0  0  0  0  0  0  0
    2.1279   24.9408  -23.5973 H   0  0  0  0  0  0  0  0  0  0  0  0
    3.2032   26.0299  -24.5909 H   0  0  0  0  0  0  0  0  0  0  0  0
    1.7830   26.8350  -22.5390 H   0  0  0  0  0  0  0  0  0  0  0  0
   -0.1708   27.8231  -22.9438 H   0  0  0  0  0  0  0  0  0  0  0  0
    0.1965   27.9372  -24.7239 H   0  0  0  0  0  0  0  0  0  0  0  0
   -0.6243   25.4261  -23.1937 H   0  0  0  0  0  0  0  0  0  0  0  0
   -1.6286   26.3659  -24.3600 H   0  0  0  0  0  0  0  0  0  0  0  0
    0.0198   22.5782  -25.1877 H   0  0  0  0  0  0  0  0  0  0  0  0
   -1.3081   20.3571  -25.4653 H   0  0  0  0  0  0  0  0  0  0  0  0
   -2.1849   20.1325  -27.0169 H   0  0  0  0  0  0  0  0  0  0  0  0
   -0.4030   20.3600  -27.0169 H   0  0  0  0  0  0  0  0  0  0  0  0
   -5.4051   24.5120  -28.5165 H   0  0  0  0  0  0  0  0  0  0  0  0
   -4.2164   25.0660  -29.7439 H   0  0  0  0  0  0  0  0  0  0  0  0
   -5.8843   25.7329  -29.7439 H   0  0  0  0  0  0  0  0  0  0  0  0
   -7.7966   23.9563  -29.9111 H   0  0  0  0  0  0  0  0  0  0  0  0
  1  2  1  0
  2  3  2  0
  3  4  1  0
  4  5  1  0
  4  6  2  0
  6  7  1  0
  7  8  1  0
  8  9  2  0
  9 10  1  0
 10 11  1  0
 11 12  1  0
 12 13  2  0
 12 14  1  0
 14 15  1  0
 15 16  2  0
 16 17  1  0
 17 18  2  0
 18 19  1  0
 19 20  2  0
 10 21  2  0
 21 22  1  0
 22 23  2  0
 23 24  1  0
 24 25  1  0
 25 26  2  0
 26 27  1  0
 27 28  2  0
 28 29  1  0
 29 30  1  0
 30 31  1  0
 31 32  1  0
 32 33  1  0
 33 34  1  0
 28 35  1  0
 35 36  2  0
 36 37  1  0
  6 38  1  0
 38 39  1  0
 38 40  2  0
 40  2  1  0
 23  8  1  0
 36 25  1  0
 20 15  1  0
 34 29  1  0
  1 41  1  0
  1 42  1  0
  1 43  1  0
  3 44  1  0
  5 45  1  0
  5 46  1  0
  5 47  1  0
  9 48  1  0
 11 49  1  0
 14 50  1  0
 14 51  1  0
 16 52  1  0
 17 53  1  0
 18 54  1  0
 19 55  1  0
 20 56  1  0
 21 57  1  0
 22 58  1  0
 27 59  1  0
 30 60  1  0
 30 61  1  0
 31 62  1  0
 31 63  1  0
 32 64  1  0
 33 65  1  0
 33 66  1  0
 34 67  1  0
 34 68  1  0
 35 69  1  0
 37 70  1  0
 37 71  1  0
 37 72  1  0
 39 73  1  0
 39 74  1  0
 39 75  1  0
 40 76  1  0
M  END
>  <UniqueID>  (3) 
3

>  <SMILES>  (3) 
Cc1cc(C)c(Oc2cc(NC(=O)Cc3ccccc3)ccc2Sc2ncc(N3CCNCC3)cc2C)c(C)c1

>  <Energy>  (3) 
97.88811079237244

>  <Genealogy>  (3) 
Cc1cc(C)c(Oc2cc(NC(=O)Cc3ccccc3)ccc2Sc2ncc(N3CCNCC3)cc2C)c(C)c1 (3D coordinates assigned)
Cc1cc(C)c(Oc2cc(NC(=O)Cc3ccccc3)ccc2Sc2ncc(N3CCNCC3)cc2C)c(C)c1 (nonaromatic ring conformer: 97.88811079237244 kcal/mol)

>  <smiles>  (3) 
Cc1cc(C)c(Oc2cc(NC(=O)Cc3ccccc3)ccc2Sc2ncc(N3CCNCC3)cc2C)c(C)c1

>  <score_type>  (3) 
oracle

>  <origin>  (3) 
adgpu

>  <m_score__min__energy>  (3) 
-11.01

>  <m_primary>  (3) 
energy

$$$$
3:0
     RDKit          3D

 30 31  0  0  0  0  0  0  0  0999 V2000
   -4.1570   21.6950  -32.9140 C   0  0  0  0  0  0  0  0  0  0  0  0
   -4.0140   22.4240  -31.6100 C   0  0  0  0  0  0  0  0  0  0  0  0
   -5.0120   23.1140  -30.9420 C   0  0  0  0  0  0  0  0  0  0  0  0
   -6.6870   23.3670  -31.4270 S   0  0  0  0  0  0  0  0  0  0  0  0
   -6.7120   24.1570  -32.7060 O   0  0  0  0  0  0  0  0  0  0  0  0
   -7.4340   24.1440  -30.3810 O   0  0  0  0  0  0  0  0  0  0  0  0
   -7.4610   21.8030  -31.6480 C   0  0  0  0  0  0  0  0  0  0  0  0
   -8.8450   21.7390  -31.8620 C   0  0  0  0  0  0  0  0  0  0  0  0
   -9.4750   20.5020  -32.0260 C   0  0  0  0  0  0  0  0  0  0  0  0
   -8.7260   19.3220  -31.9740 C   0  0  0  0  0  0  0  0  0  0  0  0
   -7.3460   19.3810  -31.7580 C   0  0  0  0  0  0  0  0  0  0  0  0
   -6.7140   20.6170  -31.5940 C   0  0  0  0  0  0  0  0  0  0  0  0
   -4.3870   23.6030  -29.8090 C   0  0  0  0  0  0  0  0  0  0  0  0
   -4.9860   24.4200  -28.8030 N   0  0  0  0  0  0  0  0  0  0  0  0
   -3.0980   23.2190  -29.7830 N   0  0  0  0  0  0  0  0  0  0  0  0
   -2.8810   22.4990  -30.8730 N   0  0  0  0  0  0  0  0  0  0  0  0
   -1.5850   21.9120  -31.1980 C   0  0  0  0  0  0  0  0  0  0  0  0
   -4.3654   20.6326  -32.7192 H   0  0  0  0  0  0  0  0  0  0  0  0
   -4.9866   22.1319  -33.4893 H   0  0  0  0  0  0  0  0  0  0  0  0
   -3.2239   21.7861  -33.4893 H   0  0  0  0  0  0  0  0  0  0  0  0
   -9.4371   22.6652  -31.9010 H   0  0  0  0  0  0  0  0  0  0  0  0
  -10.5608   20.4566  -32.1961 H   0  0  0  0  0  0  0  0  0  0  0  0
   -9.2221   18.3487  -32.1029 H   0  0  0  0  0  0  0  0  0  0  0  0
   -6.7565   18.4532  -31.7170 H   0  0  0  0  0  0  0  0  0  0  0  0
   -5.6283   20.6597  -31.4222 H   0  0  0  0  0  0  0  0  0  0  0  0
   -4.4100   25.0560  -28.2110 H   0  0  0  0  0  0  0  0  0  0  0  0
   -6.0160   24.3750  -28.6410 H   0  0  0  0  0  0  0  0  0  0  0  0
   -1.0490   21.6692  -30.2686 H   0  0  0  0  0  0  0  0  0  0  0  0
   -1.7351   20.9940  -31.7852 H   0  0  0  0  0  0  0  0  0  0  0  0
   -0.9940   22.6303  -31.7852 H   0  0  0  0  0  0  0  0  0  0  0  0
  1  2  1  0
  2  3  2  0
  3  4  1  0
  4  5  2  0
  4  6  2  0
  4  7  1  0
  7  8  2  0
  8  9  1  0
  9 10  2  0
 10 11  1  0
 11 12  2  0
  3 13  1  0
 13 14  1  0
 13 15  2  0
 15 16  1  0
 16 17  1  0
 16  2  1  0
 12  7  1  0
  1 18  1  0
  1 19  1  0
  1 20  1  0
  8 21  1  0
  9 22  1  0
 10 23  1  0
 11 24  1  0
 12 25  1  0
 14 26  1  0
 14 27  1  0
 17 28  1  0
 17 29  1  0
 17 30  1  0
M  END
>  <UniqueID>  (4) 
4

>  <SMILES>  (4) 
Cc1c(S(=O)(=O)c2ccccc2)c(N)nn1C

>  <Energy>  (4) 
61.279402262367775

>  <Genealogy>  (4) 
Cc1c(S(=O)(=O)c2ccccc2)c(N)nn1C (3D coordinates assigned)
Cc1c(S(=O)(=O)c2ccccc2)c(N)nn1C (optimized conformer: 61.279402262367775 kcal/mol)

>  <smiles>  (4) 
Cc1c(S(=O)(=O)c2ccccc2)c(N)nn1C

>  <score_type>  (4) 
oracle

>  <origin>  (4) 
adgpu

>  <m_score__min__energy>  (4) 
-6.6299999999999999

>  <m_primary>  (4) 
energy

$$$$
4:0
     RDKit          3D

 63 66  0  0  0  0  0  0  0  0999 V2000
   -6.0310   17.4670  -33.5650 C   0  0  0  0  0  0  0  0  0  0  0  0
   -5.7170   18.8190  -32.9810 C   0  0  0  0  0  0  0  0  0  0  0  0
   -6.7570   19.5260  -32.3490 C   0  0  0  0  0  0  0  0  0  0  0  0
   -6.5220   20.7680  -31.7590 C   0  0  0  0  0  0  0  0  0  0  0  0
   -5.2450   21.3330  -31.7910 C   0  0  0  0  0  0  0  0  0  0  0  0
   -5.0050   22.6430  -31.1500 C   0  0  0  0  0  0  0  0  0  0  0  0
   -4.0370   22.7260  -30.1990 N   0  0  0  0  0  0  0  0  0  0  0  0
   -3.7400   23.8970  -29.5750 C   0  0  0  0  0  0  0  0  0  0  0  0
   -2.6590   23.9530  -28.5590 C   0  0  0  0  0  0  0  0  0  0  0  0
   -1.7610   25.0360  -28.5290 C   0  0  0  0  0  0  0  0  0  0  0  0
   -0.7290   25.0750  -27.5890 C   0  0  0  0  0  0  0  0  0  0  0  0
   -0.5810   24.0440  -26.6470 C   0  0  0  0  0  0  0  0  0  0  0  0
    0.5740   24.0650  -25.6630 C   0  0  0  0  0  0  0  0  0  0  0  0
    0.4080   24.9850  -24.5100 N   0  0  0  0  0  0  0  0  0  0  0  0
    1.3220   26.1320  -24.4900 C   0  0  0  0  0  0  0  0  0  0  0  0
    0.6930   27.1640  -23.5610 C   0  0  0  0  0  0  0  0  0  0  0  0
   -0.7770   26.7720  -23.4560 C   0  0  0  0  0  0  0  0  0  0  0  0
   -0.9360   25.5550  -24.3580 C   0  0  0  0  0  0  0  0  0  0  0  0
   -1.4660   22.9560  -26.6850 C   0  0  0  0  0  0  0  0  0  0  0  0
   -2.5010   22.9150  -27.6240 C   0  0  0  0  0  0  0  0  0  0  0  0
   -4.4300   25.0210  -29.9070 N   0  0  0  0  0  0  0  0  0  0  0  0
   -5.4160   24.9950  -30.8390 C   0  0  0  0  0  0  0  0  0  0  0  0
   -5.7490   23.7970  -31.4820 C   0  0  0  0  0  0  0  0  0  0  0  0
   -6.8650   23.7850  -32.4930 C   0  0  0  0  0  0  0  0  0  0  0  0
   -4.1930   20.6230  -32.3830 C   0  0  0  0  0  0  0  0  0  0  0  0
   -4.4090   19.3730  -32.9870 C   0  0  0  0  0  0  0  0  0  0  0  0
   -2.9990   18.5640  -33.7110 S   0  0  0  0  0  0  0  0  0  0  0  0
   -2.4970   17.5320  -32.7400 O   0  0  0  0  0  0  0  0  0  0  0  0
   -3.3780   17.8400  -34.9720 O   0  0  0  0  0  0  0  0  0  0  0  0
   -1.7030   19.6870  -34.0560 N   0  0  0  0  0  0  0  0  0  0  0  0
   -0.6410   19.0190  -34.8190 C   0  0  0  0  0  0  0  0  0  0  0  0
   -1.1610   20.2330  -32.8070 C   0  0  0  0  0  0  0  0  0  0  0  0
   -6.1984   16.7460  -32.7513 H   0  0  0  0  0  0  0  0  0  0  0  0
   -6.9368   17.5369  -34.1852 H   0  0  0  0  0  0  0  0  0  0  0  0
   -5.1871   17.1305  -34.1852 H   0  0  0  0  0  0  0  0  0  0  0  0
   -7.7681   19.0937  -32.3199 H   0  0  0  0  0  0  0  0  0  0  0  0
   -7.3461   21.3048  -31.2663 H   0  0  0  0  0  0  0  0  0  0  0  0
   -1.8728   25.8580  -29.2514 H   0  0  0  0  0  0  0  0  0  0  0  0
   -0.0257   25.9208  -27.5864 H   0  0  0  0  0  0  0  0  0  0  0  0
    0.7034   23.0462  -25.2690 H   0  0  0  0  0  0  0  0  0  0  0  0
    1.4451   24.4343  -26.2241 H   0  0  0  0  0  0  0  0  0  0  0  0
    0.6010   24.4200  -23.6470 H   0  0  0  0  0  0  0  0  0  0  0  0
    2.3077   25.8270  -24.1088 H   0  0  0  0  0  0  0  0  0  0  0  0
    1.4717   26.5417  -25.4998 H   0  0  0  0  0  0  0  0  0  0  0  0
    1.1713   27.1327  -22.5709 H   0  0  0  0  0  0  0  0  0  0  0  0
    0.8169   28.1879  -23.9434 H   0  0  0  0  0  0  0  0  0  0  0  0
   -1.0343   26.5175  -22.4172 H   0  0  0  0  0  0  0  0  0  0  0  0
   -1.4424   27.5945  -23.7573 H   0  0  0  0  0  0  0  0  0  0  0  0
   -1.6120   24.8214  -23.8943 H   0  0  0  0  0  0  0  0  0  0  0  0
   -1.3696   25.8289  -25.3311 H   0  0  0  0  0  0  0  0  0  0  0  0
   -1.3446   22.1287  -25.9703 H   0  0  0  0  0  0  0  0  0  0  0  0
   -3.1975   22.0636  -27.6313 H   0  0  0  0  0  0  0  0  0  0  0  0
   -5.9561   25.9197  -31.0904 H   0  0  0  0  0  0  0  0  0  0  0  0
   -7.8330   23.7746  -31.9705 H   0  0  0  0  0  0  0  0  0  0  0  0
   -6.7983   24.6839  -33.1235 H   0  0  0  0  0  0  0  0  0  0  0  0
   -6.7790   22.8877  -33.1235 H   0  0  0  0  0  0  0  0  0  0  0  0
   -3.1799   21.0515  -32.3750 H   0  0  0  0  0  0  0  0  0  0  0  0
    0.0803   18.5653  -34.1234 H   0  0  0  0  0  0  0  0  0  0  0  0
   -1.0821   18.2354  -35.4526 H   0  0  0  0  0  0  0  0  0  0  0  0
   -0.1257   19.7559  -35.4526 H   0  0  0  0  0  0  0  0  0  0  0  0
   -1.6476   19.7428  -31.9509 H   0  0  0  0  0  0  0  0  0  0  0  0
   -0.0771   20.0501  -32.7668 H   0  0  0  0  0  0  0  0  0  0  0  0
   -1.3519   21.3156  -32.7668 H   0  0  0  0  0  0  0  0  0  0  0  0
  1  2  1  0
  2  3  2  0
  3  4  1  0
  4  5  2  0
  5  6  1  0
  6  7  2  0
  7  8  1  0
  8  9  1  0
  9 10  2  0
 10 11  1  0
 11 12  2  0
 12 13  1  0
 13 14  1  0
 14 15  1  0
 15 16  1  0
 16 17  1  0
 17 18  1  0
 12 19  1  0
 19 20  2  0
  8 21  2  0
 21 22  1  0
 22 23  2  0
 23 24  1  0
  5 25  1  0
 25 26  2  0
 26 27  1  0
 27 28  2  0
 27 29  2  0
 27 30  1  0
 30 31  1  0
 30 32  1  0
 26  2  1  0
 23  6  1  0
 20  9  1  0
 18 14  1  0
  1 33  1  0
  1 34  1  0
  1 35  1  0
  3 36  1  0
  4 37  1  0
 10 38  1  0
 11 39  1  0
 13 40  1  0
 13 41  1  0
 14 42  1  0
 15 43  1  0
 15 44  1  0
 16 45  1  0
 16 46  1  0
 17 47  1  0
 17 48  1  0
 18 49  1  0
 18 50  1  0
 19 51  1  0
 20 52  1  0
 22 53  1  0
 24 54  1  0
 24 55  1  0
 24 56  1  0
 25 57  1  0
 31 58  1  0
 31 59  1  0
 31 60  1  0
 32 61  1  0
 32 62  1  0
 32 63  1  0
M  CHG  1  14   1
M  END
>  <UniqueID>  (5) 
5

>  <SMILES>  (5) 
Cc1ccc(-c2nc(-c3ccc(C[NH+]4CCCC4)cc3)ncc2C)cc1S(=O)(=O)N(C)C

>  <Energy>  (5) 
81.41006485145127

>  <Genealogy>  (5) 
Cc1ccc(-c2nc(-c3ccc(C[NH+]4CCCC4)cc3)ncc2C)cc1S(=O)(=O)N(C)C (protonated)
Cc1ccc(-c2nc(-c3ccc(C[NH+]4CCCC4)cc3)ncc2C)cc1S(=O)(=O)N(C)C (3D coordinates assigned)
Cc1ccc(-c2nc(-c3ccc(C[NH+]4CCCC4)cc3)ncc2C)cc1S(=O)(=O)N(C)C (nonaromatic ring conformer: 81.41006485145127 kcal/mol)

>  <smiles>  (5) 
Cc1ccc(-c2nc(-c3ccc(CN4CCCC4)cc3)ncc2C)cc1S(=O)(=O)N(C)C

>  <score_type>  (5) 
oracle

>  <origin>  (5) 
adgpu

>  <m_score__min__energy>  (5) 
-10.66

>  <m_primary>  (5) 
energy

$$$$
5:0
     RDKit          3D

 37 39  0  0  0  0  0  0  0  0999 V2000
   -4.6930   23.4070  -33.4170 H   0  0  0  0  0  0  0  0  0  0  0  0
   -5.4300   23.1510  -32.7230 N   0  0  0  0  0  0  0  0  0  0  0  0
   -5.2510   23.3410  -31.4560 C   0  0  0  0  0  0  0  0  0  0  0  0
   -4.1300   23.8760  -30.9310 N   0  0  0  0  0  0  0  0  0  0  0  0
   -4.4140   23.8840  -29.6050 C   0  0  0  0  0  0  0  0  0  0  0  0
   -3.4770   24.3980  -28.5750 C   0  0  0  0  0  0  0  0  0  0  0  0
   -3.9120   24.5440  -27.2450 C   0  0  0  0  0  0  0  0  0  0  0  0
   -4.9449   24.2762  -26.9778 H   0  0  0  0  0  0  0  0  0  0  0  0
   -3.0450   25.0260  -26.2590 C   0  0  0  0  0  0  0  0  0  0  0  0
   -3.3991   25.1325  -25.2230 H   0  0  0  0  0  0  0  0  0  0  0  0
   -1.7230   25.3750  -26.5860 C   0  0  0  0  0  0  0  0  0  0  0  0
   -0.8160   25.8650  -25.6340 O   0  0  0  0  0  0  0  0  0  0  0  0
   -1.1900   26.5830  -24.4620 C   0  0  0  0  0  0  0  0  0  0  0  0
   -0.8921   26.0110  -23.5709 H   0  0  0  0  0  0  0  0  0  0  0  0
   -0.6868   27.5611  -24.4550 H   0  0  0  0  0  0  0  0  0  0  0  0
   -2.2799   26.7313  -24.4550 H   0  0  0  0  0  0  0  0  0  0  0  0
   -1.2890   25.2340  -27.9080 C   0  0  0  0  0  0  0  0  0  0  0  0
   -0.2566   25.5054  -28.1737 H   0  0  0  0  0  0  0  0  0  0  0  0
   -2.1530   24.7520  -28.8950 C   0  0  0  0  0  0  0  0  0  0  0  0
   -1.7954   24.6485  -29.9301 H   0  0  0  0  0  0  0  0  0  0  0  0
   -5.6440   23.3800  -29.3530 N   0  0  0  0  0  0  0  0  0  0  0  0
   -6.1310   23.2780  -28.4350 H   0  0  0  0  0  0  0  0  0  0  0  0
   -6.1600   23.0380  -30.5160 N   0  0  0  0  0  0  0  0  0  0  0  0
   -7.7440   22.3760  -30.7500 S   0  0  0  0  0  0  0  0  0  0  0  0
   -8.5390   23.2690  -31.6610 O   0  0  0  0  0  0  0  0  0  0  0  0
   -8.4550   22.2950  -29.4280 O   0  0  0  0  0  0  0  0  0  0  0  0
   -7.6020   20.7800  -31.4760 C   0  0  0  0  0  0  0  0  0  0  0  0
   -8.7340   19.9600  -31.5810 C   0  0  0  0  0  0  0  0  0  0  0  0
   -9.7030   20.3101  -31.1956 H   0  0  0  0  0  0  0  0  0  0  0  0
   -8.6340   18.6970  -32.1750 C   0  0  0  0  0  0  0  0  0  0  0  0
   -9.5231   18.0540  -32.2526 H   0  0  0  0  0  0  0  0  0  0  0  0
   -7.4040   18.2520  -32.6700 C   0  0  0  0  0  0  0  0  0  0  0  0
   -7.3090   17.0280  -33.2470 F   0  0  0  0  0  0  0  0  0  0  0  0
   -6.2750   19.0710  -32.5750 C   0  0  0  0  0  0  0  0  0  0  0  0
   -5.3085   18.7219  -32.9673 H   0  0  0  0  0  0  0  0  0  0  0  0
   -6.3730   20.3330  -31.9820 C   0  0  0  0  0  0  0  0  0  0  0  0
   -5.4839   20.9770  -31.9121 H   0  0  0  0  0  0  0  0  0  0  0  0
  1  2  1  0
  2  3  2  0
  3  4  1  0
  4  5  2  0
  5  6  1  0
  6  7  2  0
  7  8  1  0
  7  9  1  0
  9 10  1  0
  9 11  2  0
 11 12  1  0
 12 13  1  0
 13 14  1  0
 13 15  1  0
 13 16  1  0
 11 17  1  0
 17 18  1  0
 17 19  2  0
 19 20  1  0
  5 21  1  0
 21 22  1  0
 21 23  1  0
 23 24  1  0
 24 25  2  0
 24 26  2  0
 24 27  1  0
 27 28  2  0
 28 29  1  0
 28 30  1  0
 30 31  1  0
 30 32  2  0
 32 33  1  0
 32 34  1  0
 34 35  1  0
 34 36  2  0
 36 37  1  0
 23  3  1  0
 36 27  1  0
 19  6  1  0
M  END
>  <UniqueID>  (6) 
6

>  <SMILES>  (6) 
[H]/N=c1\nc(-c2ccc(OC)cc2)[nH]n1S(=O)(=O)c1ccc(F)cc1

>  <Energy>  (6) 
77.72156270199869

>  <Genealogy>  (6) 
[H]/N=c1\nc(-c2ccc(OC)cc2)[nH]n1S(=O)(=O)c1ccc(F)cc1 (cis-trans isomerization)
[H]/N=c1\nc(-c2ccc(OC)cc2)[nH]n1S(=O)(=O)c1ccc(F)cc1 (3D coordinates assigned)
[H]/N=c1\nc(-c2ccc(OC)cc2)[nH]n1S(=O)(=O)c1ccc(F)cc1 (optimized conformer: 77.72156270199869 kcal/mol)

>  <smiles>  (6) 
COc1ccc(-c2nc(=N)n(S(=O)(=O)c3ccc(F)cc3)[nH]2)cc1

>  <score_type>  (6) 
oracle

>  <origin>  (6) 
adgpu

>  <m_score__min__energy>  (6) 
-8.5199999999999996

>  <m_primary>  (6) 
energy

$$$$
6:0
     RDKit          3D

 34 35  0  0  0  0  0  0  0  0999 V2000
   -1.0990   22.6510  -29.7140 C   0  0  0  0  0  0  0  0  0  0  0  0
   -2.2660   22.2980  -30.5970 C   0  0  0  0  0  0  0  0  0  0  0  0
   -2.2090   21.1160  -31.3540 C   0  0  0  0  0  0  0  0  0  0  0  0
   -3.2710   20.7490  -32.1810 C   0  0  0  0  0  0  0  0  0  0  0  0
   -4.4130   21.5530  -32.2720 C   0  0  0  0  0  0  0  0  0  0  0  0
   -5.4870   21.1550  -33.1450 N   0  0  0  0  0  0  0  0  0  0  0  0
   -6.8340   20.9250  -32.7030 C   0  0  0  0  0  0  0  0  0  0  0  0
   -7.5080   21.9690  -32.0530 C   0  0  0  0  0  0  0  0  0  0  0  0
   -8.8390   21.8190  -31.6620 C   0  0  0  0  0  0  0  0  0  0  0  0
   -9.5090   20.6220  -31.9120 C   0  0  0  0  0  0  0  0  0  0  0  0
   -8.8450   19.5640  -32.5350 C   0  0  0  0  0  0  0  0  0  0  0  0
   -7.4970   19.6890  -32.9220 C   0  0  0  0  0  0  0  0  0  0  0  0
   -6.8060   18.5130  -33.5050 C   0  0  0  0  0  0  0  0  0  0  0  0
   -6.0300   18.6520  -34.6940 N   0  0  0  0  0  0  0  0  0  0  0  0
   -6.9150   17.3760  -32.9740 O   0  0  0  0  0  0  0  0  0  0  0  0
   -4.4900   22.7220  -31.4940 C   0  0  0  0  0  0  0  0  0  0  0  0
   -3.4290   23.1020  -30.6550 C   0  0  0  0  0  0  0  0  0  0  0  0
   -3.5800   24.5970  -29.7150 S   0  0  0  0  0  0  0  0  0  0  0  0
   -2.0100   25.1500  -29.2510 N   0  0  0  0  0  0  0  0  0  0  0  0
   -4.4130   24.3510  -28.4900 O   0  0  0  0  0  0  0  0  0  0  0  0
   -4.2470   25.6650  -30.5370 O   0  0  0  0  0  0  0  0  0  0  0  0
   -1.3970   22.5609  -28.6590 H   0  0  0  0  0  0  0  0  0  0  0  0
   -0.2636   21.9654  -29.9189 H   0  0  0  0  0  0  0  0  0  0  0  0
   -0.7837   23.6847  -29.9189 H   0  0  0  0  0  0  0  0  0  0  0  0
   -1.3182   20.4734  -31.2941 H   0  0  0  0  0  0  0  0  0  0  0  0
   -3.2103   19.8198  -32.7665 H   0  0  0  0  0  0  0  0  0  0  0  0
   -5.2530   20.8880  -34.1290 H   0  0  0  0  0  0  0  0  0  0  0  0
   -6.9830   22.9140  -31.8497 H   0  0  0  0  0  0  0  0  0  0  0  0
   -9.3599   22.6454  -31.1563 H   0  0  0  0  0  0  0  0  0  0  0  0
  -10.5631   20.5112  -31.6176 H   0  0  0  0  0  0  0  0  0  0  0  0
   -9.3807   18.6224  -32.7257 H   0  0  0  0  0  0  0  0  0  0  0  0
   -6.4820   18.8790  -35.6070 H   0  0  0  0  0  0  0  0  0  0  0  0
   -5.3935   23.3476  -31.5430 H   0  0  0  0  0  0  0  0  0  0  0  0
   -1.6150   25.6660  -30.0690 H   0  0  0  0  0  0  0  0  0  0  0  0
  1  2  1  0
  2  3  2  0
  3  4  1  0
  4  5  2  0
  5  6  1  0
  6  7  1  0
  7  8  2  0
  8  9  1  0
  9 10  2  0
 10 11  1  0
 11 12  2  0
 12 13  1  0
 13 14  1  0
 13 15  2  0
  5 16  1  0
 16 17  2  0
 17 18  1  0
 18 19  1  0
 18 20  2  0
 18 21  2  0
 17  2  1  0
 12  7  1  0
  1 22  1  0
  1 23  1  0
  1 24  1  0
  3 25  1  0
  4 26  1  0
  6 27  1  0
  8 28  1  0
  9 29  1  0
 10 30  1  0
 11 31  1  0
 14 32  1  0
 16 33  1  0
 19 34  1  0
M  CHG  2  14  -1  19  -1
M  END
>  <UniqueID>  (7) 
7

>  <SMILES>  (7) 
Cc1ccc(Nc2ccccc2C([NH-])=O)cc1S([NH-])(=O)=O

>  <Energy>  (7) 
45.08778140955376

>  <Genealogy>  (7) 
Cc1ccc(Nc2ccccc2C([NH-])=O)cc1S([NH-])(=O)=O (protonated)
Cc1ccc(Nc2ccccc2C([NH-])=O)cc1S([NH-])(=O)=O (3D coordinates assigned)
Cc1ccc(Nc2ccccc2C([NH-])=O)cc1S([NH-])(=O)=O (optimized conformer: 45.08778140955376 kcal/mol)

>  <smiles>  (7) 
Cc1ccc(Nc2ccccc2C(N)=O)cc1S(N)(=O)=O

>  <score_type>  (7) 
oracle

>  <origin>  (7) 
adgpu

>  <m_score__min__energy>  (7) 
-12.18

>  <m_primary>  (7) 
energy

$$$$
7:0
     RDKit          3D

 45 47  0  0  0  0  0  0  0  0999 V2000
   -2.7100   19.6540  -27.3170 C   0  0  0  0  0  0  0  0  0  0  0  0
   -2.1960   20.6640  -28.3010 C   0  0  0  0  0  0  0  0  0  0  0  0
   -1.3520   20.2580  -29.3450 C   0  0  0  0  0  0  0  0  0  0  0  0
   -0.8430   21.1990  -30.2450 C   0  0  0  0  0  0  0  0  0  0  0  0
   -1.1600   22.5520  -30.1000 C   0  0  0  0  0  0  0  0  0  0  0  0
   -1.9900   22.9710  -29.0520 C   0  0  0  0  0  0  0  0  0  0  0  0
   -2.3630   24.6800  -28.8370 S   0  0  0  0  0  0  0  0  0  0  0  0
   -2.9630   24.9280  -27.4810 O   0  0  0  0  0  0  0  0  0  0  0  0
   -1.0950   25.4750  -28.9710 O   0  0  0  0  0  0  0  0  0  0  0  0
   -3.4850   25.1860  -30.0580 N   0  0  0  0  0  0  0  0  0  0  0  0
   -4.5240   24.3530  -30.5870 C   0  0  0  0  0  0  0  0  0  0  0  0
   -5.8840   24.6820  -30.4460 C   0  0  0  0  0  0  0  0  0  0  0  0
   -6.8690   23.8210  -30.9340 C   0  0  0  0  0  0  0  0  0  0  0  0
   -6.5080   22.6190  -31.5470 C   0  0  0  0  0  0  0  0  0  0  0  0
   -5.1560   22.2750  -31.6820 C   0  0  0  0  0  0  0  0  0  0  0  0
   -4.6990   20.7100  -32.3600 S   0  0  0  0  0  0  0  0  0  0  0  0
   -3.7660   20.9240  -33.5200 O   0  0  0  0  0  0  0  0  0  0  0  0
   -3.9700   19.9100  -31.3170 O   0  0  0  0  0  0  0  0  0  0  0  0
   -6.1030   19.8190  -32.9040 N   0  0  0  0  0  0  0  0  0  0  0  0
   -5.6940   18.6740  -33.7420 C   0  0  0  0  0  0  0  0  0  0  0  0
   -6.8130   17.6210  -33.8090 C   0  0  0  0  0  0  0  0  0  0  0  0
   -7.1960   17.0920  -32.5440 O   0  0  0  0  0  0  0  0  0  0  0  0
   -6.8550   17.9260  -31.4470 C   0  0  0  0  0  0  0  0  0  0  0  0
   -6.9720   19.4260  -31.7730 C   0  0  0  0  0  0  0  0  0  0  0  0
   -4.1690   23.1610  -31.2280 C   0  0  0  0  0  0  0  0  0  0  0  0
   -2.5110   22.0250  -28.1560 C   0  0  0  0  0  0  0  0  0  0  0  0
   -2.5272   20.0132  -26.2935 H   0  0  0  0  0  0  0  0  0  0  0  0
   -3.7902   19.5116  -27.4681 H   0  0  0  0  0  0  0  0  0  0  0  0
   -2.1893   18.6969  -27.4681 H   0  0  0  0  0  0  0  0  0  0  0  0
   -1.0896   19.1955  -29.4561 H   0  0  0  0  0  0  0  0  0  0  0  0
   -0.1914   20.8734  -31.0692 H   0  0  0  0  0  0  0  0  0  0  0  0
   -0.7572   23.2895  -30.8099 H   0  0  0  0  0  0  0  0  0  0  0  0
   -6.1726   25.6203  -29.9498 H   0  0  0  0  0  0  0  0  0  0  0  0
   -7.9311   24.0898  -30.8355 H   0  0  0  0  0  0  0  0  0  0  0  0
   -7.2870   21.9404  -31.9249 H   0  0  0  0  0  0  0  0  0  0  0  0
   -5.4734   19.0314  -34.7587 H   0  0  0  0  0  0  0  0  0  0  0  0
   -4.8004   18.2120  -33.2971 H   0  0  0  0  0  0  0  0  0  0  0  0
   -7.6968   18.0864  -34.2697 H   0  0  0  0  0  0  0  0  0  0  0  0
   -6.4183   16.7788  -34.3963 H   0  0  0  0  0  0  0  0  0  0  0  0
   -7.5291   17.6958  -30.6088 H   0  0  0  0  0  0  0  0  0  0  0  0
   -5.8033   17.7250  -31.1951 H   0  0  0  0  0  0  0  0  0  0  0  0
   -8.0166   19.6520  -32.0331 H   0  0  0  0  0  0  0  0  0  0  0  0
   -6.6503   19.9916  -30.8861 H   0  0  0  0  0  0  0  0  0  0  0  0
   -3.1068   22.9171  -31.3769 H   0  0  0  0  0  0  0  0  0  0  0  0
   -3.1688   22.3507  -27.3367 H   0  0  0  0  0  0  0  0  0  0  0  0
  1  2  1  0
  2  3  2  0
  3  4  1  0
  4  5  2  0
  5  6  1  0
  6  7  1  0
  7  8  2  0
  7  9  2  0
  7 10  1  0
 10 11  1  0
 11 12  2  0
 12 13  1  0
 13 14  2  0
 14 15  1  0
 15 16  1  0
 16 17  2  0
 16 18  2  0
 16 19  1  0
 19 20  1  0
 20 21  1  0
 21 22  1  0
 22 23  1  0
 23 24  1  0
 15 25  2  0
  6 26  2  0
 26  2  1  0
 25 11  1  0
 24 19  1  0
  1 27  1  0
  1 28  1  0
  1 29  1  0
  3 30  1  0
  4 31  1  0
  5 32  1  0
 12 33  1  0
 13 34  1  0
 14 35  1  0
 20 36  1  0
 20 37  1  0
 21 38  1  0
 21 39  1  0
 23 40  1  0
 23 41  1  0
 24 42  1  0
 24 43  1  0
 25 44  1  0
 26 45  1  0
M  CHG  1  10  -1
M  END
>  <UniqueID>  (8) 
8

>  <SMILES>  (8) 
Cc1cccc(S(=O)(=O)[N-]c2cccc(S(=O)(=O)N3CCOCC3)c2)c1

>  <Energy>  (8) 
58.910010124117164

>  <Genealogy>  (8) 
Cc1cccc(S(=O)(=O)[N-]c2cccc(S(=O)(=O)N3CCOCC3)c2)c1 (protonated)
Cc1cccc(S(=O)(=O)[N-]c2cccc(S(=O)(=O)N3CCOCC3)c2)c1 (3D coordinates assigned)
Cc1cccc(S(=O)(=O)[N-]c2cccc(S(=O)(=O)N3CCOCC3)c2)c1 (nonaromatic ring conformer: 58.910010124117164 kcal/mol)

>  <smiles>  (8) 
Cc1cccc(S(=O)(=O)Nc2cccc(S(=O)(=O)N3CCOCC3)c2)c1

>  <score_type>  (8) 
oracle

>  <origin>  (8) 
adgpu

>  <m_score__min__energy>  (8) 
-10.44

>  <m_primary>  (8) 
energy

$$$$
8:0
     RDKit          3D

 29 31  0  0  0  0  0  0  0  0999 V2000
   -1.1710   22.1650  -25.6280 O   0  0  0  0  0  0  0  0  0  0  0  0
   -1.2310   21.8340  -26.8440 C   0  0  0  0  0  0  0  0  0  0  0  0
   -1.8650   22.7580  -27.8170 C   0  0  0  0  0  0  0  0  0  0  0  0
   -3.0690   22.4160  -28.4640 C   0  0  0  0  0  0  0  0  0  0  0  0
   -3.6510   23.2920  -29.3850 C   0  0  0  0  0  0  0  0  0  0  0  0
   -3.0400   24.5130  -29.6790 C   0  0  0  0  0  0  0  0  0  0  0  0
   -3.6250   25.3770  -30.5950 O   0  0  0  0  0  0  0  0  0  0  0  0
   -1.8380   24.8590  -29.0520 C   0  0  0  0  0  0  0  0  0  0  0  0
   -1.2230   26.0720  -29.3410 O   0  0  0  0  0  0  0  0  0  0  0  0
   -1.2520   23.9850  -28.1290 C   0  0  0  0  0  0  0  0  0  0  0  0
   -0.6900   20.5140  -27.2530 C   0  0  0  0  0  0  0  0  0  0  0  0
    0.5700   20.4510  -27.8660 C   0  0  0  0  0  0  0  0  0  0  0  0
    1.0840   19.2210  -28.2800 C   0  0  0  0  0  0  0  0  0  0  0  0
    2.3410   19.1190  -28.8950 C   0  0  0  0  0  0  0  0  0  0  0  0
    2.8200   17.8680  -29.2990 C   0  0  0  0  0  0  0  0  0  0  0  0
    4.0660   17.7660  -29.9070 O   0  0  0  0  0  0  0  0  0  0  0  0
    2.0480   16.7200  -29.0900 C   0  0  0  0  0  0  0  0  0  0  0  0
    0.7940   16.8160  -28.4790 C   0  0  0  0  0  0  0  0  0  0  0  0
    0.3070   18.0630  -28.0710 C   0  0  0  0  0  0  0  0  0  0  0  0
   -0.8840   18.1520  -27.4900 O   0  0  0  0  0  0  0  0  0  0  0  0
   -1.4060   19.3050  -27.0790 C   0  0  0  0  0  0  0  0  0  0  0  0
   -2.8740   19.2650  -26.3490 S   0  0  0  0  0  0  0  0  0  0  0  0
   -3.5540   21.4538  -28.2431 H   0  0  0  0  0  0  0  0  0  0  0  0
   -4.5943   23.0184  -29.8803 H   0  0  0  0  0  0  0  0  0  0  0  0
   -0.3040   24.2600  -27.6435 H   0  0  0  0  0  0  0  0  0  0  0  0
    1.1531   21.3709  -28.0205 H   0  0  0  0  0  0  0  0  0  0  0  0
    2.9488   20.0210  -29.0592 H   0  0  0  0  0  0  0  0  0  0  0  0
    2.4290   15.7382  -29.4076 H   0  0  0  0  0  0  0  0  0  0  0  0
    0.1898   15.9108  -28.3189 H   0  0  0  0  0  0  0  0  0  0  0  0
  1  2  2  0
  2  3  1  0
  3  4  2  0
  4  5  1  0
  5  6  2  0
  6  7  1  0
  6  8  1  0
  8  9  1  0
  8 10  2  0
  2 11  1  0
 11 12  2  0
 12 13  1  0
 13 14  2  0
 14 15  1  0
 15 16  1  0
 15 17  2  0
 17 18  1  0
 18 19  2  0
 19 20  1  0
 20 21  1  0
 21 22  2  0
 10  3  1  0
 21 11  1  0
 19 13  1  0
  4 23  1  0
  5 24  1  0
 10 25  1  0
 12 26  1  0
 14 27  1  0
 17 28  1  0
 18 29  1  0
M  CHG  3   7  -1   9  -1  16  -1
M  END
>  <UniqueID>  (9) 
9

>  <SMILES>  (9) 
O=C(c1ccc([O-])c([O-])c1)c1cc2cc([O-])ccc2oc1=S

>  <Energy>  (9) 
45.64367394152629

>  <Genealogy>  (9) 
O=C(c1ccc([O-])c([O-])c1)c1cc2cc([O-])ccc2oc1=S (protonated)
O=C(c1ccc([O-])c([O-])c1)c1cc2cc([O-])ccc2oc1=S (3D coordinates assigned)
O=C(c1ccc([O-])c([O-])c1)c1cc2cc([O-])ccc2oc1=S (optimized conformer: 45.64367394152629 kcal/mol)

>  <smiles>  (9) 
O=C(c1ccc(O)c(O)c1)c1cc2cc(O)ccc2oc1=S

>  <score_type>  (9) 
oracle

>  <origin>  (9) 
adgpu

>  <m_score__min__energy>  (9) 
-12.92

>  <m_primary>  (9) 
energy

$$$$
9:0
     RDKit          3D

 61 64  0  0  0  0  0  0  0  0999 V2000
   -2.7257   12.3721  -36.9145 H   0  0  0  0  0  0  0  0  0  0  0  0
   -3.0320   13.2620  -36.3450 C   0  0  0  0  0  0  0  0  0  0  0  0
   -3.7360   13.1210  -35.1910 N   0  0  0  0  0  0  0  0  0  0  0  0
   -4.1460   14.1900  -34.4530 C   0  0  0  0  0  0  0  0  0  0  0  0
   -4.8880   13.9260  -33.1750 C   0  0  0  0  0  0  0  0  0  0  0  0
   -4.2374   14.1575  -32.3188 H   0  0  0  0  0  0  0  0  0  0  0  0
   -5.7862   14.5597  -33.1349 H   0  0  0  0  0  0  0  0  0  0  0  0
   -5.1841   12.8674  -33.1349 H   0  0  0  0  0  0  0  0  0  0  0  0
   -3.8580   15.5010  -34.9070 C   0  0  0  0  0  0  0  0  0  0  0  0
   -4.2870   16.7130  -34.1780 C   0  0  0  0  0  0  0  0  0  0  0  0
   -3.3530   17.6130  -33.7690 N   0  0  0  0  0  0  0  0  0  0  0  0
   -3.7020   18.7500  -33.1090 C   0  0  0  0  0  0  0  0  0  0  0  0
   -2.7710   19.5850  -32.7500 N   0  0  0  0  0  0  0  0  0  0  0  0
   -2.9490   20.8020  -32.0050 C   0  0  0  0  0  0  0  0  0  0  0  0
   -4.1750   21.4710  -32.0940 C   0  0  0  0  0  0  0  0  0  0  0  0
   -4.9827   21.0505  -32.7111 H   0  0  0  0  0  0  0  0  0  0  0  0
   -4.3810   22.6690  -31.4050 C   0  0  0  0  0  0  0  0  0  0  0  0
   -5.3520   23.1808  -31.4766 H   0  0  0  0  0  0  0  0  0  0  0  0
   -3.3550   23.2240  -30.6210 C   0  0  0  0  0  0  0  0  0  0  0  0
   -3.5690   24.4840  -29.8710 C   0  0  0  0  0  0  0  0  0  0  0  0
   -3.8600   25.5350  -30.5000 O   0  0  0  0  0  0  0  0  0  0  0  0
   -3.5000   24.5370  -28.4390 N   0  0  0  0  0  0  0  0  0  0  0  0
   -2.4380   24.0230  -27.6180 C   0  0  0  0  0  0  0  0  0  0  0  0
   -1.4650   24.8810  -27.0740 C   0  0  0  0  0  0  0  0  0  0  0  0
   -1.5208   25.9617  -27.2713 H   0  0  0  0  0  0  0  0  0  0  0  0
   -0.4250   24.3730  -26.2830 C   0  0  0  0  0  0  0  0  0  0  0  0
    0.6200   25.3070  -25.7140 C   0  0  0  0  0  0  0  0  0  0  0  0
    1.6098   24.8385  -25.8179 H   0  0  0  0  0  0  0  0  0  0  0  0
    0.5688   26.2546  -26.2703 H   0  0  0  0  0  0  0  0  0  0  0  0
    0.3780   25.6020  -24.2830 N   0  0  0  0  0  0  0  0  0  0  0  0
    0.4070   24.7120  -23.7310 H   0  0  0  0  0  0  0  0  0  0  0  0
   -0.9610   26.1910  -24.1110 C   0  0  0  0  0  0  0  0  0  0  0  0
   -1.1835   26.2889  -23.0382 H   0  0  0  0  0  0  0  0  0  0  0  0
   -0.9881   27.1841  -24.5832 H   0  0  0  0  0  0  0  0  0  0  0  0
   -1.7114   25.5399  -24.5832 H   0  0  0  0  0  0  0  0  0  0  0  0
    1.3970   26.5220  -23.7440 C   0  0  0  0  0  0  0  0  0  0  0  0
    1.3690   26.4967  -22.6446 H   0  0  0  0  0  0  0  0  0  0  0  0
    2.3929   26.2111  -24.0927 H   0  0  0  0  0  0  0  0  0  0  0  0
    1.1891   27.5444  -24.0927 H   0  0  0  0  0  0  0  0  0  0  0  0
   -0.3760   23.0000  -26.0080 C   0  0  0  0  0  0  0  0  0  0  0  0
    0.4364   22.5940  -25.3874 H   0  0  0  0  0  0  0  0  0  0  0  0
   -1.3550   22.1450  -26.5190 C   0  0  0  0  0  0  0  0  0  0  0  0
   -1.3114   21.0693  -26.2934 H   0  0  0  0  0  0  0  0  0  0  0  0
   -2.3940   22.6470  -27.3180 C   0  0  0  0  0  0  0  0  0  0  0  0
   -3.4320   21.7120  -27.8740 C   0  0  0  0  0  0  0  0  0  0  0  0
   -3.9701   21.2273  -27.0460 H   0  0  0  0  0  0  0  0  0  0  0  0
   -4.1438   22.2797  -28.4914 H   0  0  0  0  0  0  0  0  0  0  0  0
   -2.9415   20.9450  -28.4914 H   0  0  0  0  0  0  0  0  0  0  0  0
   -2.1080   22.5790  -30.5740 C   0  0  0  0  0  0  0  0  0  0  0  0
   -1.2861   23.0204  -29.9912 H   0  0  0  0  0  0  0  0  0  0  0  0
   -1.9050   21.3800  -31.2630 C   0  0  0  0  0  0  0  0  0  0  0  0
   -0.9228   20.8862  -31.2242 H   0  0  0  0  0  0  0  0  0  0  0  0
   -5.0180   19.0140  -32.8760 N   0  0  0  0  0  0  0  0  0  0  0  0
   -5.9880   18.1540  -33.2800 C   0  0  0  0  0  0  0  0  0  0  0  0
   -7.0451   18.3834  -33.0804 H   0  0  0  0  0  0  0  0  0  0  0  0
   -5.6430   16.9800  -33.9480 C   0  0  0  0  0  0  0  0  0  0  0  0
   -6.4190   16.2781  -34.2873 H   0  0  0  0  0  0  0  0  0  0  0  0
   -3.1080   15.6530  -36.0830 C   0  0  0  0  0  0  0  0  0  0  0  0
   -2.8420   16.6604  -36.4358 H   0  0  0  0  0  0  0  0  0  0  0  0
   -2.6980   14.5340  -36.8070 C   0  0  0  0  0  0  0  0  0  0  0  0
   -2.1169   14.6538  -37.7333 H   0  0  0  0  0  0  0  0  0  0  0  0
  1  2  1  0
  2  3  2  0
  3  4  1  0
  4  5  1  0
  5  6  1  0
  5  7  1  0
  5  8  1  0
  4  9  2  0
  9 10  1  0
 10 11  2  0
 11 12  1  0
 12 13  2  0
 13 14  1  0
 14 15  2  0
 15 16  1  0
 15 17  1  0
 17 18  1  0
 17 19  2  0
 19 20  1  0
 20 21  2  0
 20 22  1  0
 22 23  1  0
 23 24  2  0
 24 25  1  0
 24 26  1  0
 26 27  1  0
 27 28  1  0
 27 29  1  0
 27 30  1  0
 30 31  1  0
 30 32  1  0
 32 33  1  0
 32 34  1  0
 32 35  1  0
 30 36  1  0
 36 37  1  0
 36 38  1  0
 36 39  1  0
 26 40  2  0
 40 41  1  0
 40 42  1  0
 42 43  1  0
 42 44  2  0
 44 45  1  0
 45 46  1  0
 45 47  1  0
 45 48  1  0
 19 49  1  0
 49 50  1  0
 49 51  2  0
 51 52  1  0
 12 53  1  0
 53 54  1  0
 54 55  1  0
 54 56  2  0
 56 57  1  0
  9 58  1  0
 58 59  1  0
 58 60  2  0
 60 61  1  0
 60  2  1  0
 56 10  1  0
 51 14  1  0
 44 23  1  0
M  CHG  3  22  -1  30   1  53  -1
M  END
>  <UniqueID>  (10) 
10

>  <SMILES>  (10) 
Cc1ccc(C[NH+](C)C)cc1[N-]C(=O)c1ccc(/N=c2/nc(-c3cccnc3C)cc[n-]2)cc1

>  <Energy>  (10) 
85.78586476165287

>  <Genealogy>  (10) 
Cc1ccc(C[NH+](C)C)cc1[N-]C(=O)c1ccc(N=c2nc(-c3cccnc3C)cc[n-]2)cc1 (protonated)
Cc1ccc(C[NH+](C)C)cc1[N-]C(=O)c1ccc(/N=c2/nc(-c3cccnc3C)cc[n-]2)cc1 (cis-trans isomerization)
Cc1ccc(C[NH+](C)C)cc1[N-]C(=O)c1ccc(/N=c2/nc(-c3cccnc3C)cc[n-]2)cc1 (3D coordinates assigned)
Cc1ccc(C[NH+](C)C)cc1[N-]C(=O)c1ccc(/N=c2/nc(-c3cccnc3C)cc[n-]2)cc1 (optimized conformer: 85.78586476165287 kcal/mol)

>  <smiles>  (10) 
Cc1ccc(CN(C)C)cc1NC(=O)c1ccc(N=c2nc(-c3cccnc3C)cc[nH]2)cc1

>  <score_type>  (10) 
oracle

>  <origin>  (10) 
adgpu

>  <m_score__min__energy>  (10) 
-10.59

>  <m_primary>  (10) 
energy

$$$$
10:0
     RDKit          3D

 56 58  0  0  0  0  0  0  0  0999 V2000
   -0.4500   22.6480  -25.4490 C   0  0  0  0  0  0  0  0  0  0  0  0
   -0.2580   24.1650  -25.5180 C   0  0  0  0  0  0  0  0  0  0  0  0
   -1.2790   24.8670  -26.3200 N   0  0  0  0  0  0  0  0  0  0  0  0
   -1.9310   26.0490  -25.7230 C   0  0  0  0  0  0  0  0  0  0  0  0
   -1.1770   26.6540  -24.5340 C   0  0  0  0  0  0  0  0  0  0  0  0
   -1.0080   24.8810  -28.0500 S   0  0  0  0  0  0  0  0  0  0  0  0
    0.4150   24.4960  -28.3480 O   0  0  0  0  0  0  0  0  0  0  0  0
   -1.2180   26.2800  -28.5560 O   0  0  0  0  0  0  0  0  0  0  0  0
   -2.1070   23.8050  -28.9170 C   0  0  0  0  0  0  0  0  0  0  0  0
   -1.5910   22.8000  -29.7460 C   0  0  0  0  0  0  0  0  0  0  0  0
   -2.4520   21.9460  -30.4400 C   0  0  0  0  0  0  0  0  0  0  0  0
   -3.8410   22.0670  -30.2940 C   0  0  0  0  0  0  0  0  0  0  0  0
   -4.7100   21.1920  -31.0370 N   0  0  0  0  0  0  0  0  0  0  0  0
   -4.4770   20.8010  -32.4020 C   0  0  0  0  0  0  0  0  0  0  0  0
   -3.9340   21.9250  -33.4770 S   0  0  0  0  0  0  0  0  0  0  0  0
   -4.9070   19.5020  -32.8710 N   0  0  0  0  0  0  0  0  0  0  0  0
   -4.3140   18.9070  -34.0820 C   0  0  0  0  0  0  0  0  0  0  0  0
   -4.1200   17.3930  -33.9110 C   0  0  0  0  0  0  0  0  0  0  0  0
   -5.2850   16.7540  -33.2830 N   0  0  0  0  0  0  0  0  0  0  0  0
   -5.2740   15.3280  -33.0820 C   0  0  0  0  0  0  0  0  0  0  0  0
   -4.6150   14.7540  -31.9800 C   0  0  0  0  0  0  0  0  0  0  0  0
   -4.6130   13.3660  -31.8280 C   0  0  0  0  0  0  0  0  0  0  0  0
   -5.2510   12.5610  -32.7730 C   0  0  0  0  0  0  0  0  0  0  0  0
   -5.8790   13.1610  -33.8650 C   0  0  0  0  0  0  0  0  0  0  0  0
   -5.8730   14.5140  -33.9950 N   0  0  0  0  0  0  0  0  0  0  0  0
   -6.4610   17.5660  -32.9500 C   0  0  0  0  0  0  0  0  0  0  0  0
   -6.0180   18.8160  -32.1890 C   0  0  0  0  0  0  0  0  0  0  0  0
   -4.3570   23.0780  -29.4650 C   0  0  0  0  0  0  0  0  0  0  0  0
   -3.4950   23.9320  -28.7720 C   0  0  0  0  0  0  0  0  0  0  0  0
   -0.4901   22.3310  -24.3964 H   0  0  0  0  0  0  0  0  0  0  0  0
   -1.3900   22.3742  -25.9505 H   0  0  0  0  0  0  0  0  0  0  0  0
    0.3921   22.1486  -25.9505 H   0  0  0  0  0  0  0  0  0  0  0  0
   -0.2896   24.5639  -24.4934 H   0  0  0  0  0  0  0  0  0  0  0  0
    0.7087   24.3396  -26.0130 H   0  0  0  0  0  0  0  0  0  0  0  0
   -2.0229   26.8211  -26.5011 H   0  0  0  0  0  0  0  0  0  0  0  0
   -2.9043   25.7103  -25.3384 H   0  0  0  0  0  0  0  0  0  0  0  0
   -1.6242   26.2952  -23.5953 H   0  0  0  0  0  0  0  0  0  0  0  0
   -0.1207   26.3500  -24.5766 H   0  0  0  0  0  0  0  0  0  0  0  0
   -1.2449   27.7511  -24.5766 H   0  0  0  0  0  0  0  0  0  0  0  0
   -0.5023   22.6828  -29.8510 H   0  0  0  0  0  0  0  0  0  0  0  0
   -2.0374   21.1740  -31.1050 H   0  0  0  0  0  0  0  0  0  0  0  0
   -5.5740   20.8540  -30.5590 H   0  0  0  0  0  0  0  0  0  0  0  0
   -4.9814   19.0901  -34.9370 H   0  0  0  0  0  0  0  0  0  0  0  0
   -3.3312   19.3696  -34.2554 H   0  0  0  0  0  0  0  0  0  0  0  0
   -3.9589   16.9419  -34.9012 H   0  0  0  0  0  0  0  0  0  0  0  0
   -3.2518   17.2347  -33.2544 H   0  0  0  0  0  0  0  0  0  0  0  0
   -4.1054   15.3932  -31.2440 H   0  0  0  0  0  0  0  0  0  0  0  0
   -4.1091   12.9074  -30.9644 H   0  0  0  0  0  0  0  0  0  0  0  0
   -5.2586   11.4670  -32.6583 H   0  0  0  0  0  0  0  0  0  0  0  0
   -6.3794   12.5385  -34.6214 H   0  0  0  0  0  0  0  0  0  0  0  0
   -6.9754   17.8633  -33.8757 H   0  0  0  0  0  0  0  0  0  0  0  0
   -7.1468   16.9782  -32.3222 H   0  0  0  0  0  0  0  0  0  0  0  0
   -6.8702   19.5072  -32.1114 H   0  0  0  0  0  0  0  0  0  0  0  0
   -5.6706   18.5064  -31.1923 H   0  0  0  0  0  0  0  0  0  0  0  0
   -5.4455   23.1976  -29.3612 H   0  0  0  0  0  0  0  0  0  0  0  0
   -3.9078   24.7073  -28.1098 H   0  0  0  0  0  0  0  0  0  0  0  0
  1  2  1  0
  2  3  1  0
  3  4  1  0
  4  5  1  0
  3  6  1  0
  6  7  2  0
  6  8  2  0
  6  9  1  0
  9 10  2  0
 10 11  1  0
 11 12  2  0
 12 13  1  0
 13 14  1  0
 14 15  2  0
 14 16  1  0
 16 17  1  0
 17 18  1  0
 18 19  1  0
 19 20  1  0
 20 21  2  0
 21 22  1  0
 22 23  2  0
 23 24  1  0
 24 25  2  0
 19 26  1  0
 26 27  1  0
 12 28  1  0
 28 29  2  0
 29  9  1  0
 27 16  1  0
 25 20  1  0
  1 30  1  0
  1 31  1  0
  1 32  1  0
  2 33  1  0
  2 34  1  0
  4 35  1  0
  4 36  1  0
  5 37  1  0
  5 38  1  0
  5 39  1  0
 10 40  1  0
 11 41  1  0
 13 42  1  0
 17 43  1  0
 17 44  1  0
 18 45  1  0
 18 46  1  0
 21 47  1  0
 22 48  1  0
 23 49  1  0
 24 50  1  0
 26 51  1  0
 26 52  1  0
 27 53  1  0
 27 54  1  0
 28 55  1  0
 29 56  1  0
M  END
>  <UniqueID>  (11) 
11

>  <SMILES>  (11) 
CCN(CC)S(=O)(=O)c1ccc(NC(=S)N2CCN(c3ccccn3)CC2)cc1

>  <Energy>  (11) 
75.56305800768641

>  <Genealogy>  (11) 
CCN(CC)S(=O)(=O)c1ccc(NC(=S)N2CCN(c3ccccn3)CC2)cc1 (3D coordinates assigned)
CCN(CC)S(=O)(=O)c1ccc(NC(=S)N2CCN(c3ccccn3)CC2)cc1 (nonaromatic ring conformer: 75.56305800768641 kcal/mol)

>  <smiles>  (11) 
CCN(CC)S(=O)(=O)c1ccc(NC(=S)N2CCN(c3ccccn3)CC2)cc1

>  <score_type>  (11) 
oracle

>  <origin>  (11) 
adgpu

>  <m_score__min__energy>  (11) 
-8.0500000000000007

>  <m_primary>  (11) 
energy

$$$$
11:0
     RDKit          3D

 59 63  0  0  0  0  0  0  0  0999 V2000
   -3.2892   14.7686  -34.3943 H   0  0  0  0  0  0  0  0  0  0  0  0
   -4.3110   14.8490  -33.9950 C   0  0  0  0  0  0  0  0  0  0  0  0
   -5.0560   15.8990  -34.3640 C   0  0  0  0  0  0  0  0  0  0  0  0
   -4.6004   16.6619  -35.0124 H   0  0  0  0  0  0  0  0  0  0  0  0
   -6.4880   16.0860  -33.9340 C   0  0  0  0  0  0  0  0  0  0  0  0
   -6.6075   15.7179  -32.9043 H   0  0  0  0  0  0  0  0  0  0  0  0
   -7.1404   15.5223  -34.6171 H   0  0  0  0  0  0  0  0  0  0  0  0
   -6.8630   17.5130  -33.9860 N   0  0  0  0  0  0  0  0  0  0  0  0
   -7.1980   18.0120  -32.6300 C   0  0  0  0  0  0  0  0  0  0  0  0
   -6.5124   17.5503  -31.9042 H   0  0  0  0  0  0  0  0  0  0  0  0
   -8.2445   17.7437  -32.4228 H   0  0  0  0  0  0  0  0  0  0  0  0
   -7.0760   19.5350  -32.5220 C   0  0  0  0  0  0  0  0  0  0  0  0
   -7.3109   19.8484  -31.4941 H   0  0  0  0  0  0  0  0  0  0  0  0
   -7.7803   20.0069  -33.2229 H   0  0  0  0  0  0  0  0  0  0  0  0
   -5.7080   19.9480  -32.8570 N   0  0  0  0  0  0  0  0  0  0  0  0
   -5.1120   21.1040  -32.2300 C   0  0  0  0  0  0  0  0  0  0  0  0
   -5.9270   22.0870  -31.6410 C   0  0  0  0  0  0  0  0  0  0  0  0
   -7.0206   21.9697  -31.6569 H   0  0  0  0  0  0  0  0  0  0  0  0
   -5.3600   23.2110  -31.0360 C   0  0  0  0  0  0  0  0  0  0  0  0
   -6.0109   23.9793  -30.5932 H   0  0  0  0  0  0  0  0  0  0  0  0
   -3.9720   23.3670  -30.9890 C   0  0  0  0  0  0  0  0  0  0  0  0
   -3.4260   24.5370  -30.3620 N   0  0  0  0  0  0  0  0  0  0  0  0
   -2.4030   24.5600  -29.3560 C   0  0  0  0  0  0  0  0  0  0  0  0
   -1.9750   25.6780  -28.9600 O   0  0  0  0  0  0  0  0  0  0  0  0
   -1.8780   23.3210  -28.7340 C   0  0  0  0  0  0  0  0  0  0  0  0
   -2.4190   22.8610  -27.5040 C   0  0  0  0  0  0  0  0  0  0  0  0
   -3.2264   23.4280  -27.0176 H   0  0  0  0  0  0  0  0  0  0  0  0
   -1.9310   21.6860  -26.9020 C   0  0  0  0  0  0  0  0  0  0  0  0
   -2.3401   21.3260  -25.9465 H   0  0  0  0  0  0  0  0  0  0  0  0
   -0.9160   20.9950  -27.5530 C   0  0  0  0  0  0  0  0  0  0  0  0
   -0.4030   21.4190  -28.7350 C   0  0  0  0  0  0  0  0  0  0  0  0
   -0.8580   22.5710  -29.3670 C   0  0  0  0  0  0  0  0  0  0  0  0
   -0.4371   22.8905  -30.3318 H   0  0  0  0  0  0  0  0  0  0  0  0
    0.5810   20.5420  -29.1480 O   0  0  0  0  0  0  0  0  0  0  0  0
    0.6950   19.5050  -28.1640 C   0  0  0  0  0  0  0  0  0  0  0  0
    0.4781   18.5233  -28.6103 H   0  0  0  0  0  0  0  0  0  0  0  0
    1.7101   19.4436  -27.7448 H   0  0  0  0  0  0  0  0  0  0  0  0
   -0.2810   19.8310  -27.1650 O   0  0  0  0  0  0  0  0  0  0  0  0
   -3.1510   22.4000  -31.5930 C   0  0  0  0  0  0  0  0  0  0  0  0
   -2.0588   22.5303  -31.5876 H   0  0  0  0  0  0  0  0  0  0  0  0
   -3.7130   21.2730  -32.2010 C   0  0  0  0  0  0  0  0  0  0  0  0
   -2.8880   20.3380  -32.7320 F   0  0  0  0  0  0  0  0  0  0  0  0
   -4.9190   19.1090  -33.7660 C   0  0  0  0  0  0  0  0  0  0  0  0
   -4.3187   18.4000  -33.1769 H   0  0  0  0  0  0  0  0  0  0  0  0
   -4.2588   19.7525  -34.3660 H   0  0  0  0  0  0  0  0  0  0  0  0
   -5.8470   18.3280  -34.7070 C   0  0  0  0  0  0  0  0  0  0  0  0
   -5.2333   17.6554  -35.3242 H   0  0  0  0  0  0  0  0  0  0  0  0
   -6.3914   19.0654  -35.3152 H   0  0  0  0  0  0  0  0  0  0  0  0
   -4.7890   13.7960  -33.0820 C   0  0  0  0  0  0  0  0  0  0  0  0
   -4.4830   13.8790  -31.7160 C   0  0  0  0  0  0  0  0  0  0  0  0
   -3.8855   14.7217  -31.3381 H   0  0  0  0  0  0  0  0  0  0  0  0
   -4.9350   12.8940  -30.8330 C   0  0  0  0  0  0  0  0  0  0  0  0
   -4.6836   12.9578  -29.7640 H   0  0  0  0  0  0  0  0  0  0  0  0
   -5.7060   11.8280  -31.3060 C   0  0  0  0  0  0  0  0  0  0  0  0
   -6.0553   11.0507  -30.6105 H   0  0  0  0  0  0  0  0  0  0  0  0
   -6.0330   11.7500  -32.6630 C   0  0  0  0  0  0  0  0  0  0  0  0
   -6.6436   10.9131  -33.0327 H   0  0  0  0  0  0  0  0  0  0  0  0
   -5.5860   12.7330  -33.5520 C   0  0  0  0  0  0  0  0  0  0  0  0
   -5.9500   12.6580  -34.8930 O   0  0  0  0  0  0  0  0  0  0  0  0
  1  2  1  0
  2  3  2  0
  3  4  1  0
  3  5  1  0
  5  6  1  0
  5  7  1  0
  5  8  1  0
  8  9  1  0
  9 10  1  0
  9 11  1  0
  9 12  1  0
 12 13  1  0
 12 14  1  0
 12 15  1  0
 15 16  1  0
 16 17  2  0
 17 18  1  0
 17 19  1  0
 19 20  1  0
 19 21  2  0
 21 22  1  0
 22 23  1  0
 23 24  2  0
 23 25  1  0
 25 26  2  0
 26 27  1  0
 26 28  1  0
 28 29  1  0
 28 30  2  0
 30 31  1  0
 31 32  2  0
 32 33  1  0
 31 34  1  0
 34 35  1  0
 35 36  1  0
 35 37  1  0
 35 38  1  0
 21 39  1  0
 39 40  1  0
 39 41  2  0
 41 42  1  0
 15 43  1  0
 43 44  1  0
 43 45  1  0
 43 46  1  0
 46 47  1  0
 46 48  1  0
  2 49  1  0
 49 50  2  0
 50 51  1  0
 50 52  1  0
 52 53  1  0
 52 54  2  0
 54 55  1  0
 54 56  1  0
 56 57  1  0
 56 58  2  0
 58 59  1  0
 46  8  1  0
 58 49  1  0
 41 16  1  0
 32 25  1  0
 38 30  1  0
M  CHG  2  22  -1  59  -1
M  END
>  <UniqueID>  (12) 
12

>  <SMILES>  (12) 
O=C([N-]c1ccc(N2CCN(C/C=C\c3ccccc3[O-])CC2)c(F)c1)c1ccc2c(c1)OCO2

>  <Energy>  (12) 
116.62435006837615

>  <Genealogy>  (12) 
O=C([N-]c1ccc(N2CCN(CC=Cc3ccccc3[O-])CC2)c(F)c1)c1ccc2c(c1)OCO2 (protonated)
O=C([N-]c1ccc(N2CCN(C/C=C\c3ccccc3[O-])CC2)c(F)c1)c1ccc2c(c1)OCO2 (cis-trans isomerization)
O=C([N-]c1ccc(N2CCN(C/C=C\c3ccccc3[O-])CC2)c(F)c1)c1ccc2c(c1)OCO2 (3D coordinates assigned)
O=C([N-]c1ccc(N2CCN(C/C=C\c3ccccc3[O-])CC2)c(F)c1)c1ccc2c(c1)OCO2 (nonaromatic ring conformer: 116.62435006837615 kcal/mol)

>  <smiles>  (12) 
O=C(Nc1ccc(N2CCN(CC=Cc3ccccc3O)CC2)c(F)c1)c1ccc2c(c1)OCO2

>  <score_type>  (12) 
oracle

>  <origin>  (12) 
adgpu

>  <m_score__min__energy>  (12) 
-11.34

>  <m_primary>  (12) 
energy

$$$$
12:0
     RDKit          3D

 37 39  0  0  0  0  0  0  0  0999 V2000
   -1.9410   20.3640  -26.8650 C   0  0  0  0  0  0  0  0  0  0  0  0
   -2.0260   21.0180  -28.2130 C   0  0  0  0  0  0  0  0  0  0  0  0
   -1.6740   20.3070  -29.3680 C   0  0  0  0  0  0  0  0  0  0  0  0
   -1.7130   20.9310  -30.6170 C   0  0  0  0  0  0  0  0  0  0  0  0
   -2.0770   22.2760  -30.7190 C   0  0  0  0  0  0  0  0  0  0  0  0
   -2.3980   23.0140  -29.5680 C   0  0  0  0  0  0  0  0  0  0  0  0
   -2.7420   24.4530  -29.6800 C   0  0  0  0  0  0  0  0  0  0  0  0
   -2.0190   25.3080  -29.1050 O   0  0  0  0  0  0  0  0  0  0  0  0
   -3.8580   24.9110  -30.4600 N   0  0  0  0  0  0  0  0  0  0  0  0
   -5.0890   24.2010  -30.6540 C   0  0  0  0  0  0  0  0  0  0  0  0
   -5.7320   24.2780  -31.8950 C   0  0  0  0  0  0  0  0  0  0  0  0
   -6.8920   23.5360  -32.1350 C   0  0  0  0  0  0  0  0  0  0  0  0
   -7.4230   22.7200  -31.1280 C   0  0  0  0  0  0  0  0  0  0  0  0
   -8.8540   21.6950  -31.4600 S   0  0  0  0  0  0  0  0  0  0  0  0
   -7.8730   20.4650  -32.3250 C   0  0  0  0  0  0  0  0  0  0  0  0
   -6.7940   20.7530  -33.0730 N   0  0  0  0  0  0  0  0  0  0  0  0
   -6.3460   19.5770  -33.4940 N   0  0  0  0  0  0  0  0  0  0  0  0
   -7.1130   18.6030  -33.0260 N   0  0  0  0  0  0  0  0  0  0  0  0
   -8.0810   19.1380  -32.3050 N   0  0  0  0  0  0  0  0  0  0  0  0
   -9.0680   18.3800  -31.5480 C   0  0  0  0  0  0  0  0  0  0  0  0
   -6.8200   22.6900  -29.8660 C   0  0  0  0  0  0  0  0  0  0  0  0
   -5.6610   23.4310  -29.6260 C   0  0  0  0  0  0  0  0  0  0  0  0
   -2.3880   22.3690  -28.3170 C   0  0  0  0  0  0  0  0  0  0  0  0
   -2.0403   21.1280  -26.0799 H   0  0  0  0  0  0  0  0  0  0  0  0
   -2.7509   19.6265  -26.7635 H   0  0  0  0  0  0  0  0  0  0  0  0
   -0.9695   19.8581  -26.7635 H   0  0  0  0  0  0  0  0  0  0  0  0
   -1.3659   19.2539  -29.2908 H   0  0  0  0  0  0  0  0  0  0  0  0
   -1.4564   20.3619  -31.5227 H   0  0  0  0  0  0  0  0  0  0  0  0
   -2.1124   22.7597  -31.7063 H   0  0  0  0  0  0  0  0  0  0  0  0
   -5.3227   24.9252  -32.6847 H   0  0  0  0  0  0  0  0  0  0  0  0
   -7.3881   23.5929  -33.1151 H   0  0  0  0  0  0  0  0  0  0  0  0
   -8.8890   18.5175  -30.4714 H   0  0  0  0  0  0  0  0  0  0  0  0
  -10.0772   18.7374  -31.8005 H   0  0  0  0  0  0  0  0  0  0  0  0
   -8.9831   17.3127  -31.8005 H   0  0  0  0  0  0  0  0  0  0  0  0
   -7.2595   22.0818  -29.0616 H   0  0  0  0  0  0  0  0  0  0  0  0
   -5.1943   23.4122  -28.6301 H   0  0  0  0  0  0  0  0  0  0  0  0
   -2.6667   22.9297  -27.4126 H   0  0  0  0  0  0  0  0  0  0  0  0
  1  2  1  0
  2  3  2  0
  3  4  1  0
  4  5  2  0
  5  6  1  0
  6  7  1  0
  7  8  2  0
  7  9  1  0
  9 10  1  0
 10 11  2  0
 11 12  1  0
 12 13  2  0
 13 14  1  0
 14 15  1  0
 15 16  2  0
 16 17  1  0
 17 18  2  0
 18 19  1  0
 19 20  1  0
 13 21  1  0
 21 22  2  0
  6 23  2  0
 23  2  1  0
 22 10  1  0
 19 15  1  0
  1 24  1  0
  1 25  1  0
  1 26  1  0
  3 27  1  0
  4 28  1  0
  5 29  1  0
 11 30  1  0
 12 31  1  0
 20 32  1  0
 20 33  1  0
 20 34  1  0
 21 35  1  0
 22 36  1  0
 23 37  1  0
M  CHG  1   9  -1
M  END
>  <UniqueID>  (13) 
13

>  <SMILES>  (13) 
Cc1cccc(C(=O)[N-]c2ccc(Sc3nnnn3C)cc2)c1

>  <Energy>  (13) 
79.32259069004425

>  <Genealogy>  (13) 
Cc1cccc(C(=O)[N-]c2ccc(Sc3nnnn3C)cc2)c1 (protonated)
Cc1cccc(C(=O)[N-]c2ccc(Sc3nnnn3C)cc2)c1 (3D coordinates assigned)
Cc1cccc(C(=O)[N-]c2ccc(Sc3nnnn3C)cc2)c1 (optimized conformer: 79.32259069004425 kcal/mol)

>  <smiles>  (13) 
Cc1cccc(C(=O)Nc2ccc(Sc3nnnn3C)cc2)c1

>  <score_type>  (13) 
oracle

>  <origin>  (13) 
adgpu

>  <m_score__min__energy>  (13) 
-10.33

>  <m_primary>  (13) 
energy

$$$$
13:0
     RDKit          3D

 62 65  0  0  0  0  0  0  0  0999 V2000
   -8.1850   22.8920  -31.6540 C   0  0  0  0  0  0  0  0  0  0  0  0
   -7.2430   23.8860  -31.2670 O   0  0  0  0  0  0  0  0  0  0  0  0
   -5.8680   23.6560  -31.1030 C   0  0  0  0  0  0  0  0  0  0  0  0
   -5.2150   22.5580  -31.6950 C   0  0  0  0  0  0  0  0  0  0  0  0
   -3.8330   22.3570  -31.5140 C   0  0  0  0  0  0  0  0  0  0  0  0
   -3.1530   21.1980  -32.1440 C   0  0  0  0  0  0  0  0  0  0  0  0
   -3.2360   20.9980  -33.5340 C   0  0  0  0  0  0  0  0  0  0  0  0
   -2.6030   19.9040  -34.1320 C   0  0  0  0  0  0  0  0  0  0  0  0
   -1.8890   18.9870  -33.3500 C   0  0  0  0  0  0  0  0  0  0  0  0
   -1.1990   17.8100  -33.9850 C   0  0  0  0  0  0  0  0  0  0  0  0
   -2.1800   17.0170  -34.7390 N   0  0  0  0  0  0  0  0  0  0  0  0
   -3.3970   16.7420  -33.9590 C   0  0  0  0  0  0  0  0  0  0  0  0
   -4.6770   17.1760  -34.6930 C   0  0  0  0  0  0  0  0  0  0  0  0
   -5.5500   17.9930  -33.7790 C   0  0  0  0  0  0  0  0  0  0  0  0
   -5.7980   17.5660  -32.4650 C   0  0  0  0  0  0  0  0  0  0  0  0
   -6.5740   18.3500  -31.6020 C   0  0  0  0  0  0  0  0  0  0  0  0
   -7.0970   19.5680  -32.0430 C   0  0  0  0  0  0  0  0  0  0  0  0
   -6.8470   20.0020  -33.3470 C   0  0  0  0  0  0  0  0  0  0  0  0
   -6.0700   19.2230  -34.2110 C   0  0  0  0  0  0  0  0  0  0  0  0
   -1.7920   19.1930  -31.9660 C   0  0  0  0  0  0  0  0  0  0  0  0
   -2.4200   20.2880  -31.3670 C   0  0  0  0  0  0  0  0  0  0  0  0
   -3.1080   23.2680  -30.7300 C   0  0  0  0  0  0  0  0  0  0  0  0
   -3.7480   24.3660  -30.1380 C   0  0  0  0  0  0  0  0  0  0  0  0
   -2.9960   25.2870  -29.3470 N   0  0  0  0  0  0  0  0  0  0  0  0
   -1.7430   24.7420  -28.2860 S   0  0  0  0  0  0  0  0  0  0  0  0
   -0.4100   24.9670  -28.9420 O   0  0  0  0  0  0  0  0  0  0  0  0
   -1.7770   25.5170  -26.9970 O   0  0  0  0  0  0  0  0  0  0  0  0
   -1.9750   23.0250  -27.9730 C   0  0  0  0  0  0  0  0  0  0  0  0
   -0.9020   22.1310  -28.0900 C   0  0  0  0  0  0  0  0  0  0  0  0
   -1.1050   20.7590  -27.8910 C   0  0  0  0  0  0  0  0  0  0  0  0
   -2.3810   20.2740  -27.5860 C   0  0  0  0  0  0  0  0  0  0  0  0
   -2.5790   18.9470  -27.4130 F   0  0  0  0  0  0  0  0  0  0  0  0
   -3.4560   21.1620  -27.4760 C   0  0  0  0  0  0  0  0  0  0  0  0
   -3.2550   22.5320  -27.6660 C   0  0  0  0  0  0  0  0  0  0  0  0
   -5.1300   24.5590  -30.3240 C   0  0  0  0  0  0  0  0  0  0  0  0
   -5.7870   25.6570  -29.7580 O   0  0  0  0  0  0  0  0  0  0  0  0
   -8.6217   22.4312  -30.7557 H   0  0  0  0  0  0  0  0  0  0  0  0
   -8.9826   23.3560  -32.2527 H   0  0  0  0  0  0  0  0  0  0  0  0
   -7.6788   22.1204  -32.2527 H   0  0  0  0  0  0  0  0  0  0  0  0
   -5.7916   21.8483  -32.3065 H   0  0  0  0  0  0  0  0  0  0  0  0
   -3.8029   21.7073  -34.1549 H   0  0  0  0  0  0  0  0  0  0  0  0
   -2.6660   19.7629  -35.2211 H   0  0  0  0  0  0  0  0  0  0  0  0
   -0.4148   18.1690  -34.6677 H   0  0  0  0  0  0  0  0  0  0  0  0
   -0.7448   17.1845  -33.2024 H   0  0  0  0  0  0  0  0  0  0  0  0
   -2.4330   17.5290  -35.6190 H   0  0  0  0  0  0  0  0  0  0  0  0
   -3.4528   15.6613  -33.7614 H   0  0  0  0  0  0  0  0  0  0  0  0
   -3.3340   17.3208  -33.0257 H   0  0  0  0  0  0  0  0  0  0  0  0
   -4.4050   17.7801  -35.5711 H   0  0  0  0  0  0  0  0  0  0  0  0
   -5.2299   16.2794  -35.0099 H   0  0  0  0  0  0  0  0  0  0  0  0
   -5.3810   16.6114  -32.1115 H   0  0  0  0  0  0  0  0  0  0  0  0
   -6.7718   18.0063  -30.5760 H   0  0  0  0  0  0  0  0  0  0  0  0
   -7.7048   20.1844  -31.3644 H   0  0  0  0  0  0  0  0  0  0  0  0
   -7.2623   20.9591  -33.6955 H   0  0  0  0  0  0  0  0  0  0  0  0
   -5.8658   19.5758  -35.2327 H   0  0  0  0  0  0  0  0  0  0  0  0
   -1.2175   18.4875  -31.3478 H   0  0  0  0  0  0  0  0  0  0  0  0
   -2.3394   20.4376  -30.2802 H   0  0  0  0  0  0  0  0  0  0  0  0
   -2.0286   23.1192  -30.5788 H   0  0  0  0  0  0  0  0  0  0  0  0
    0.1014   22.5071  -28.3385 H   0  0  0  0  0  0  0  0  0  0  0  0
   -0.2586   20.0614  -27.9749 H   0  0  0  0  0  0  0  0  0  0  0  0
   -4.4608   20.7817  -27.2397 H   0  0  0  0  0  0  0  0  0  0  0  0
   -4.1023   23.2275  -27.5749 H   0  0  0  0  0  0  0  0  0  0  0  0
   -5.4090   26.1660  -28.9680 H   0  0  0  0  0  0  0  0  0  0  0  0
  1  2  1  0
  2  3  1  0
  3  4  2  0
  4  5  1  0
  5  6  1  0
  6  7  2  0
  7  8  1  0
  8  9  2  0
  9 10  1  0
 10 11  1  0
 11 12  1  0
 12 13  1  0
 13 14  1  0
 14 15  2  0
 15 16  1  0
 16 17  2  0
 17 18  1  0
 18 19  2  0
  9 20  1  0
 20 21  2  0
  5 22  2  0
 22 23  1  0
 23 24  1  0
 24 25  1  0
 25 26  2  0
 25 27  2  0
 25 28  1  0
 28 29  2  0
 29 30  1  0
 30 31  2  0
 31 32  1  0
 31 33  1  0
 33 34  2  0
 23 35  2  0
 35 36  1  0
 35  3  1  0
 21  6  1  0
 34 28  1  0
 19 14  1  0
  1 37  1  0
  1 38  1  0
  1 39  1  0
  4 40  1  0
  7 41  1  0
  8 42  1  0
 10 43  1  0
 10 44  1  0
 11 45  1  0
 12 46  1  0
 12 47  1  0
 13 48  1  0
 13 49  1  0
 15 50  1  0
 16 51  1  0
 17 52  1  0
 18 53  1  0
 19 54  1  0
 20 55  1  0
 21 56  1  0
 22 57  1  0
 29 58  1  0
 30 59  1  0
 33 60  1  0
 34 61  1  0
 36 62  1  0
M  CHG  1  24  -1
M  END
>  <UniqueID>  (14) 
14

>  <SMILES>  (14) 
COc1cc(-c2ccc(CNCCc3ccccc3)cc2)cc([N-]S(=O)(=O)c2ccc(F)cc2)c1O

>  <Energy>  (14) 
77.41879924809305

>  <Genealogy>  (14) 
COc1cc(-c2ccc(CNCCc3ccccc3)cc2)cc([N-]S(=O)(=O)c2ccc(F)cc2)c1O (protonated)
COc1cc(-c2ccc(CNCCc3ccccc3)cc2)cc([N-]S(=O)(=O)c2ccc(F)cc2)c1O (3D coordinates assigned)
COc1cc(-c2ccc(CNCCc3ccccc3)cc2)cc([N-]S(=O)(=O)c2ccc(F)cc2)c1O (optimized conformer: 77.41879924809305 kcal/mol)

>  <smiles>  (14) 
COc1cc(-c2ccc(CNCCc3ccccc3)cc2)cc(NS(=O)(=O)c2ccc(F)cc2)c1O

>  <score_type>  (14) 
oracle

>  <origin>  (14) 
adgpu

>  <m_score__min__energy>  (14) 
-10.800000000000001

>  <m_primary>  (14) 
energy

$$$$
14:0
     RDKit          3D

 41 43  0  0  0  0  0  0  0  0999 V2000
   -6.4570   25.4160  -29.7550 C   0  0  0  0  0  0  0  0  0  0  0  0
   -6.2150   24.2110  -30.6220 C   0  0  0  0  0  0  0  0  0  0  0  0
   -7.2970   23.4160  -31.0360 C   0  0  0  0  0  0  0  0  0  0  0  0
   -7.0860   22.2970  -31.8420 C   0  0  0  0  0  0  0  0  0  0  0  0
   -5.7900   21.9520  -32.2390 C   0  0  0  0  0  0  0  0  0  0  0  0
   -5.5720   20.7860  -33.0540 C   0  0  0  0  0  0  0  0  0  0  0  0
   -5.3960   19.8490  -33.7110 N   0  0  0  0  0  0  0  0  0  0  0  0
   -4.7050   22.7370  -31.8340 C   0  0  0  0  0  0  0  0  0  0  0  0
   -4.9100   23.8840  -31.0440 C   0  0  0  0  0  0  0  0  0  0  0  0
   -3.8020   24.6870  -30.6070 N   0  0  0  0  0  0  0  0  0  0  0  0
   -3.2450   24.7020  -29.2880 C   0  0  0  0  0  0  0  0  0  0  0  0
   -3.9380   24.2660  -28.3300 O   0  0  0  0  0  0  0  0  0  0  0  0
   -1.9600   25.2940  -29.0390 N   0  0  0  0  0  0  0  0  0  0  0  0
   -1.1900   25.0620  -27.8460 C   0  0  0  0  0  0  0  0  0  0  0  0
   -1.4410   25.7970  -26.6720 C   0  0  0  0  0  0  0  0  0  0  0  0
   -0.7080   25.5470  -25.5090 C   0  0  0  0  0  0  0  0  0  0  0  0
    0.2670   24.5510  -25.4980 C   0  0  0  0  0  0  0  0  0  0  0  0
    0.5150   23.8010  -26.6500 C   0  0  0  0  0  0  0  0  0  0  0  0
   -0.2010   24.0570  -27.8340 C   0  0  0  0  0  0  0  0  0  0  0  0
    0.0210   23.3030  -28.9970 O   0  0  0  0  0  0  0  0  0  0  0  0
   -0.8650   22.3590  -29.5360 C   0  0  0  0  0  0  0  0  0  0  0  0
   -1.8170   21.7670  -28.7000 C   0  0  0  0  0  0  0  0  0  0  0  0
   -2.7200   20.8370  -29.2160 C   0  0  0  0  0  0  0  0  0  0  0  0
   -2.6720   20.5160  -30.5740 C   0  0  0  0  0  0  0  0  0  0  0  0
   -1.7570   21.1150  -31.3830 N   0  0  0  0  0  0  0  0  0  0  0  0
   -0.8630   22.0220  -30.9010 C   0  0  0  0  0  0  0  0  0  0  0  0
   -6.3983   25.1236  -28.6962 H   0  0  0  0  0  0  0  0  0  0  0  0
   -5.6943   26.1797  -29.9674 H   0  0  0  0  0  0  0  0  0  0  0  0
   -7.4554   25.8260  -29.9674 H   0  0  0  0  0  0  0  0  0  0  0  0
   -8.3182   23.6779  -30.7222 H   0  0  0  0  0  0  0  0  0  0  0  0
   -7.9406   21.6848  -32.1659 H   0  0  0  0  0  0  0  0  0  0  0  0
   -3.6849   22.4560  -32.1349 H   0  0  0  0  0  0  0  0  0  0  0  0
   -1.6060   25.9900  -29.7330 H   0  0  0  0  0  0  0  0  0  0  0  0
   -2.2198   26.5738  -26.6702 H   0  0  0  0  0  0  0  0  0  0  0  0
   -0.9007   26.1370  -24.6009 H   0  0  0  0  0  0  0  0  0  0  0  0
    0.8419   24.3553  -24.5809 H   0  0  0  0  0  0  0  0  0  0  0  0
    1.2745   23.0055  -26.6315 H   0  0  0  0  0  0  0  0  0  0  0  0
   -1.8539   22.0350  -27.6338 H   0  0  0  0  0  0  0  0  0  0  0  0
   -3.4629   20.3611  -28.5590 H   0  0  0  0  0  0  0  0  0  0  0  0
   -3.3743   19.7785  -30.9898 H   0  0  0  0  0  0  0  0  0  0  0  0
   -0.1375   22.4921  -31.5812 H   0  0  0  0  0  0  0  0  0  0  0  0
  1  2  1  0
  2  3  2  0
  3  4  1  0
  4  5  2  0
  5  6  1  0
  6  7  3  0
  5  8  1  0
  8  9  2  0
  9 10  1  0
 10 11  1  0
 11 12  2  0
 11 13  1  0
 13 14  1  0
 14 15  2  0
 15 16  1  0
 16 17  2  0
 17 18  1  0
 18 19  2  0
 19 20  1  0
 20 21  1  0
 21 22  2  0
 22 23  1  0
 23 24  2  0
 24 25  1  0
 25 26  2  0
  9  2  1  0
 19 14  1  0
 26 21  1  0
  1 27  1  0
  1 28  1  0
  1 29  1  0
  3 30  1  0
  4 31  1  0
  8 32  1  0
 13 33  1  0
 15 34  1  0
 16 35  1  0
 17 36  1  0
 18 37  1  0
 22 38  1  0
 23 39  1  0
 24 40  1  0
 26 41  1  0
M  CHG  1  10  -1
M  END
>  <UniqueID>  (15) 
15

>  <SMILES>  (15) 
Cc1ccc(C#N)cc1[N-]C(=O)Nc1ccccc1Oc1cccnc1

>  <Energy>  (15) 
57.61068798913047

>  <Genealogy>  (15) 
Cc1ccc(C#N)cc1[N-]C(=O)Nc1ccccc1Oc1cccnc1 (protonated)
Cc1ccc(C#N)cc1[N-]C(=O)Nc1ccccc1Oc1cccnc1 (3D coordinates assigned)
Cc1ccc(C#N)cc1[N-]C(=O)Nc1ccccc1Oc1cccnc1 (optimized conformer: 57.61068798913047 kcal/mol)

>  <smiles>  (15) 
Cc1ccc(C#N)cc1NC(=O)Nc1ccccc1Oc1cccnc1

>  <score_type>  (15) 
oracle

>  <origin>  (15) 
adgpu

>  <m_score__min__energy>  (15) 
-10

>  <m_primary>  (15) 
energy

$$$$
15:0
     RDKit          3D

 51 53  0  0  0  0  0  0  0  0999 V2000
   -4.2437   15.2557  -33.2477 H   0  0  0  0  0  0  0  0  0  0  0  0
   -4.0400   16.2840  -33.5810 C   0  0  0  0  0  0  0  0  0  0  0  0
   -5.0010   16.8820  -34.5400 C   0  0  0  0  0  0  0  0  0  0  0  0
   -4.6680   17.1160  -35.7300 O   0  0  0  0  0  0  0  0  0  0  0  0
   -6.3260   17.2350  -34.1260 N   0  0  0  0  0  0  0  0  0  0  0  0
   -6.7030   18.4220  -33.4150 C   0  0  0  0  0  0  0  0  0  0  0  0
   -6.1820   19.6550  -33.8250 C   0  0  0  0  0  0  0  0  0  0  0  0
   -5.4738   19.6968  -34.6657 H   0  0  0  0  0  0  0  0  0  0  0  0
   -6.5560   20.8330  -33.1730 C   0  0  0  0  0  0  0  0  0  0  0  0
   -6.1281   21.7949  -33.4916 H   0  0  0  0  0  0  0  0  0  0  0  0
   -7.4730   20.7940  -32.1160 C   0  0  0  0  0  0  0  0  0  0  0  0
   -7.9400   22.2870  -31.3100 S   0  0  0  0  0  0  0  0  0  0  0  0
   -8.7370   23.1610  -32.2380 O   0  0  0  0  0  0  0  0  0  0  0  0
   -8.7910   21.9610  -30.1150 O   0  0  0  0  0  0  0  0  0  0  0  0
   -6.4910   23.1580  -30.8160 C   0  0  0  0  0  0  0  0  0  0  0  0
   -6.5520   24.5380  -30.5870 C   0  0  0  0  0  0  0  0  0  0  0  0
   -7.5091   25.0700  -30.6918 H   0  0  0  0  0  0  0  0  0  0  0  0
   -5.4010   25.2400  -30.2260 C   0  0  0  0  0  0  0  0  0  0  0  0
   -5.4539   26.3244  -30.0493 H   0  0  0  0  0  0  0  0  0  0  0  0
   -4.1810   24.5710  -30.0880 C   0  0  0  0  0  0  0  0  0  0  0  0
   -3.0500   25.2930  -29.7200 O   0  0  0  0  0  0  0  0  0  0  0  0
   -4.1080   23.1830  -30.3080 C   0  0  0  0  0  0  0  0  0  0  0  0
   -2.8210   22.4640  -30.1910 C   0  0  0  0  0  0  0  0  0  0  0  0
   -1.9240   22.6810  -31.0500 O   0  0  0  0  0  0  0  0  0  0  0  0
   -2.5700   21.5320  -29.1170 N   0  0  0  0  0  0  0  0  0  0  0  0
   -1.5260   20.5200  -29.2850 C   0  0  0  0  0  0  0  0  0  0  0  0
   -1.1790   20.1836  -28.2968 H   0  0  0  0  0  0  0  0  0  0  0  0
   -1.9323   19.6630  -29.8422 H   0  0  0  0  0  0  0  0  0  0  0  0
   -0.6821   20.9528  -29.8422 H   0  0  0  0  0  0  0  0  0  0  0  0
   -3.2560   21.6780  -27.8290 C   0  0  0  0  0  0  0  0  0  0  0  0
   -2.5367   21.5249  -27.0110 H   0  0  0  0  0  0  0  0  0  0  0  0
   -3.6860   22.6878  -27.7550 H   0  0  0  0  0  0  0  0  0  0  0  0
   -4.0599   20.9308  -27.7550 H   0  0  0  0  0  0  0  0  0  0  0  0
   -5.2670   22.4870  -30.6890 C   0  0  0  0  0  0  0  0  0  0  0  0
   -5.2136   21.4067  -30.8893 H   0  0  0  0  0  0  0  0  0  0  0  0
   -8.0200   19.5660  -31.7210 C   0  0  0  0  0  0  0  0  0  0  0  0
   -8.7472   19.5300  -30.8964 H   0  0  0  0  0  0  0  0  0  0  0  0
   -7.6450   18.3860  -32.3710 C   0  0  0  0  0  0  0  0  0  0  0  0
   -8.0880   17.4268  -32.0650 H   0  0  0  0  0  0  0  0  0  0  0  0
   -2.9440   16.8800  -33.0810 C   0  0  0  0  0  0  0  0  0  0  0  0
   -2.2683   16.2613  -32.4722 H   0  0  0  0  0  0  0  0  0  0  0  0
   -2.5700   18.2930  -33.2790 C   0  0  0  0  0  0  0  0  0  0  0  0
   -1.5380   18.6580  -34.1570 C   0  0  0  0  0  0  0  0  0  0  0  0
   -0.9571   17.8803  -34.6744 H   0  0  0  0  0  0  0  0  0  0  0  0
   -1.2540   19.9720  -34.3700 N   0  0  0  0  0  0  0  0  0  0  0  0
   -1.9600   20.9620  -33.7620 C   0  0  0  0  0  0  0  0  0  0  0  0
   -1.6993   22.0147  -33.9458 H   0  0  0  0  0  0  0  0  0  0  0  0
   -3.0150   20.6450  -32.9050 C   0  0  0  0  0  0  0  0  0  0  0  0
   -3.5946   21.4432  -32.4182 H   0  0  0  0  0  0  0  0  0  0  0  0
   -3.3270   19.3040  -32.6720 C   0  0  0  0  0  0  0  0  0  0  0  0
   -4.1669   19.0413  -32.0121 H   0  0  0  0  0  0  0  0  0  0  0  0
  1  2  1  0
  2  3  1  0
  3  4  2  0
  3  5  1  0
  5  6  1  0
  6  7  2  0
  7  8  1  0
  7  9  1  0
  9 10  1  0
  9 11  2  0
 11 12  1  0
 12 13  2  0
 12 14  2  0
 12 15  1  0
 15 16  2  0
 16 17  1  0
 16 18  1  0
 18 19  1  0
 18 20  2  0
 20 21  1  0
 20 22  1  0
 22 23  1  0
 23 24  2  0
 23 25  1  0
 25 26  1  0
 26 27  1  0
 26 28  1  0
 26 29  1  0
 25 30  1  0
 30 31  1  0
 30 32  1  0
 30 33  1  0
 22 34  2  0
 34 35  1  0
 11 36  1  0
 36 37  1  0
 36 38  2  0
 38 39  1  0
  2 40  2  0
 40 41  1  0
 40 42  1  0
 42 43  2  0
 43 44  1  0
 43 45  1  0
 45 46  2  0
 46 47  1  0
 46 48  1  0
 48 49  1  0
 48 50  2  0
 50 51  1  0
 38  6  1  0
 50 42  1  0
 34 15  1  0
M  CHG  2   5  -1  21  -1
M  END
>  <UniqueID>  (16) 
16

>  <SMILES>  (16) 
CN(C)C(=O)c1cc(S(=O)(=O)c2ccc([N-]C(=O)/C=C\c3cccnc3)cc2)ccc1[O-]

>  <Energy>  (16) 
73.84214389991195

>  <Genealogy>  (16) 
CN(C)C(=O)c1cc(S(=O)(=O)c2ccc([N-]C(=O)C=Cc3cccnc3)cc2)ccc1[O-] (protonated)
CN(C)C(=O)c1cc(S(=O)(=O)c2ccc([N-]C(=O)/C=C\c3cccnc3)cc2)ccc1[O-] (cis-trans isomerization)
CN(C)C(=O)c1cc(S(=O)(=O)c2ccc([N-]C(=O)/C=C\c3cccnc3)cc2)ccc1[O-] (3D coordinates assigned)
CN(C)C(=O)c1cc(S(=O)(=O)c2ccc([N-]C(=O)/C=C\c3cccnc3)cc2)ccc1[O-] (optimized conformer: 73.84214389991195 kcal/mol)

>  <smiles>  (16) 
CN(C)C(=O)c1cc(S(=O)(=O)c2ccc(NC(=O)C=Cc3cccnc3)cc2)ccc1O

>  <score_type>  (16) 
oracle

>  <origin>  (16) 
adgpu

>  <m_score__min__energy>  (16) 
-12.82

>  <m_primary>  (16) 
energy

$$$$
16:0
     RDKit          3D

 13 12  0  0  0  0  0  0  0  0999 V2000
   -6.1040   25.6710  -29.7150 C   0  0  0  0  0  0  0  0  0  0  0  0
   -5.3690   24.9740  -30.8500 C   0  0  0  0  0  0  0  0  0  0  0  0
   -3.9350   25.1910  -30.7160 N   0  0  0  0  0  0  0  0  0  0  0  0
   -3.1490   24.5600  -29.7020 C   0  0  0  0  0  0  0  0  0  0  0  0
   -1.9180   25.1490  -29.2930 N   0  0  0  0  0  0  0  0  0  0  0  0
   -3.5370   23.4870  -29.1690 O   0  0  0  0  0  0  0  0  0  0  0  0
   -5.7197   25.3066  -28.7509 H   0  0  0  0  0  0  0  0  0  0  0  0
   -5.9439   26.7569  -29.7867 H   0  0  0  0  0  0  0  0  0  0  0  0
   -7.1799   25.4535  -29.7867 H   0  0  0  0  0  0  0  0  0  0  0  0
   -5.5800   23.8951  -30.8135 H   0  0  0  0  0  0  0  0  0  0  0  0
   -5.7104   25.3862  -31.8110 H   0  0  0  0  0  0  0  0  0  0  0  0
   -1.3350   24.6980  -28.5530 H   0  0  0  0  0  0  0  0  0  0  0  0
   -1.5890   26.0390  -29.7300 H   0  0  0  0  0  0  0  0  0  0  0  0
  1  2  1  0
  2  3  1  0
  3  4  1  0
  4  5  1  0
  4  6  2  0
  1  7  1  0
  1  8  1  0
  1  9  1  0
  2 10  1  0
  2 11  1  0
  5 12  1  0
  5 13  1  0
M  CHG  1   3  -1
M  END
>  <UniqueID>  (17) 
17

>  <SMILES>  (17) 
CC[N-]C(N)=O

>  <Energy>  (17) 
1.6517191103532516

>  <Genealogy>  (17) 
CC[N-]C(N)=O (protonated)
CC[N-]C(N)=O (3D coordinates assigned)
CC[N-]C(N)=O (optimized conformer: 1.6517191103532516 kcal/mol)

>  <smiles>  (17) 
CCNC(N)=O

>  <score_type>  (17) 
oracle

>  <origin>  (17) 
adgpu

>  <m_score__min__energy>  (17) 
-5.1299999999999999

>  <m_primary>  (17) 
energy

$$$$
17:0
     RDKit          3D

 61 64  0  0  0  0  0  0  0  0999 V2000
   -8.8980   18.8620  -30.9850 O   0  0  0  0  0  0  0  0  0  0  0  0
   -8.2940   19.5910  -32.1520 S   0  0  0  0  0  0  0  0  0  0  0  0
   -9.4160   20.1110  -33.0060 O   0  0  0  0  0  0  0  0  0  0  0  0
   -7.3480   20.9560  -31.5500 C   0  0  0  0  0  0  0  0  0  0  0  0
   -7.9920   22.0980  -31.0510 C   0  0  0  0  0  0  0  0  0  0  0  0
   -7.2450   23.1660  -30.5490 C   0  0  0  0  0  0  0  0  0  0  0  0
   -5.8450   23.1100  -30.5520 C   0  0  0  0  0  0  0  0  0  0  0  0
   -4.9200   24.4310  -29.8490 S   0  0  0  0  0  0  0  0  0  0  0  0
   -5.8610   25.2970  -29.0570 O   0  0  0  0  0  0  0  0  0  0  0  0
   -4.3200   25.2710  -30.9380 O   0  0  0  0  0  0  0  0  0  0  0  0
   -3.6880   23.7440  -28.8110 N   0  0  0  0  0  0  0  0  0  0  0  0
   -2.3750   23.5580  -29.4760 C   0  0  0  0  0  0  0  0  0  0  0  0
   -2.0360   22.1210  -29.9550 C   0  0  0  0  0  0  0  0  0  0  0  0
   -1.9390   21.1150  -28.8400 C   0  0  0  0  0  0  0  0  0  0  0  0
   -3.0900   20.7230  -28.1320 C   0  0  0  0  0  0  0  0  0  0  0  0
   -2.9940   19.7920  -27.0940 C   0  0  0  0  0  0  0  0  0  0  0  0
   -1.7560   19.2320  -26.7670 C   0  0  0  0  0  0  0  0  0  0  0  0
   -0.6100   19.6010  -27.4800 C   0  0  0  0  0  0  0  0  0  0  0  0
   -0.6990   20.5370  -28.5140 C   0  0  0  0  0  0  0  0  0  0  0  0
   -3.6550   24.3240  -27.4570 C   0  0  0  0  0  0  0  0  0  0  0  0
   -2.2350   24.4650  -26.9710 C   0  0  0  0  0  0  0  0  0  0  0  0
   -1.5810   23.3810  -26.3630 C   0  0  0  0  0  0  0  0  0  0  0  0
   -0.2650   23.5180  -25.9060 C   0  0  0  0  0  0  0  0  0  0  0  0
    0.4010   24.7380  -26.0450 C   0  0  0  0  0  0  0  0  0  0  0  0
   -0.2530   25.8290  -26.6240 C   0  0  0  0  0  0  0  0  0  0  0  0
   -1.5700   25.7010  -27.0750 C   0  0  0  0  0  0  0  0  0  0  0  0
   -5.1970   21.9770  -31.0660 C   0  0  0  0  0  0  0  0  0  0  0  0
   -5.9460   20.9080  -31.5670 C   0  0  0  0  0  0  0  0  0  0  0  0
   -7.3400   18.4690  -33.0900 N   0  0  0  0  0  0  0  0  0  0  0  0
   -6.4350   19.1520  -34.0110 C   0  0  0  0  0  0  0  0  0  0  0  0
   -5.2980   18.1840  -34.2860 C   0  0  0  0  0  0  0  0  0  0  0  0
   -5.2980   17.2240  -33.1060 C   0  0  0  0  0  0  0  0  0  0  0  0
   -6.4840   17.6340  -32.2480 C   0  0  0  0  0  0  0  0  0  0  0  0
   -9.0906   22.1526  -31.0551 H   0  0  0  0  0  0  0  0  0  0  0  0
   -7.7574   24.0539  -30.1500 H   0  0  0  0  0  0  0  0  0  0  0  0
   -2.3501   24.2177  -30.3559 H   0  0  0  0  0  0  0  0  0  0  0  0
   -1.6245   23.7919  -28.7066 H   0  0  0  0  0  0  0  0  0  0  0  0
   -2.8226   21.7929  -30.6504 H   0  0  0  0  0  0  0  0  0  0  0  0
   -1.0453   22.1678  -30.4307 H   0  0  0  0  0  0  0  0  0  0  0  0
   -4.0684   21.1506  -28.3963 H   0  0  0  0  0  0  0  0  0  0  0  0
   -3.8942   19.4996  -26.5336 H   0  0  0  0  0  0  0  0  0  0  0  0
   -1.6825   18.5007  -25.9486 H   0  0  0  0  0  0  0  0  0  0  0  0
    0.3624   19.1537  -27.2263 H   0  0  0  0  0  0  0  0  0  0  0  0
    0.2034   20.8225  -29.0745 H   0  0  0  0  0  0  0  0  0  0  0  0
   -4.1295   25.3162  -27.4777 H   0  0  0  0  0  0  0  0  0  0  0  0
   -4.1976   23.6550  -26.7729 H   0  0  0  0  0  0  0  0  0  0  0  0
   -2.1048   22.4209  -26.2455 H   0  0  0  0  0  0  0  0  0  0  0  0
    0.2453   22.6639  -25.4368 H   0  0  0  0  0  0  0  0  0  0  0  0
    1.4401   24.8400  -25.6988 H   0  0  0  0  0  0  0  0  0  0  0  0
    0.2701   26.7913  -26.7251 H   0  0  0  0  0  0  0  0  0  0  0  0
   -2.0874   26.5678  -27.5119 H   0  0  0  0  0  0  0  0  0  0  0  0
   -4.0981   21.9295  -31.0749 H   0  0  0  0  0  0  0  0  0  0  0  0
   -5.4335   20.0250  -31.9765 H   0  0  0  0  0  0  0  0  0  0  0  0
   -6.9587   19.4001  -34.9460 H   0  0  0  0  0  0  0  0  0  0  0  0
   -6.0634   20.0942  -33.5819 H   0  0  0  0  0  0  0  0  0  0  0  0
   -5.4732   17.6401  -35.2259 H   0  0  0  0  0  0  0  0  0  0  0  0
   -4.3338   18.7022  -34.3947 H   0  0  0  0  0  0  0  0  0  0  0  0
   -5.4156   16.1872  -33.4541 H   0  0  0  0  0  0  0  0  0  0  0  0
   -4.3534   17.2685  -32.5441 H   0  0  0  0  0  0  0  0  0  0  0  0
   -7.0351   16.7434  -31.9117 H   0  0  0  0  0  0  0  0  0  0  0  0
   -6.1552   18.1802  -31.3516 H   0  0  0  0  0  0  0  0  0  0  0  0
  1  2  2  0
  2  3  2  0
  2  4  1  0
  4  5  2  0
  5  6  1  0
  6  7  2  0
  7  8  1  0
  8  9  2  0
  8 10  2  0
  8 11  1  0
 11 12  1  0
 12 13  1  0
 13 14  1  0
 14 15  2  0
 15 16  1  0
 16 17  2  0
 17 18  1  0
 18 19  2  0
 11 20  1  0
 20 21  1  0
 21 22  2  0
 22 23  1  0
 23 24  2  0
 24 25  1  0
 25 26  2  0
  7 27  1  0
 27 28  2  0
  2 29  1  0
 29 30  1  0
 30 31  1  0
 31 32  1  0
 32 33  1  0
 28  4  1  0
 33 29  1  0
 19 14  1  0
 26 21  1  0
  5 34  1  0
  6 35  1  0
 12 36  1  0
 12 37  1  0
 13 38  1  0
 13 39  1  0
 15 40  1  0
 16 41  1  0
 17 42  1  0
 18 43  1  0
 19 44  1  0
 20 45  1  0
 20 46  1  0
 22 47  1  0
 23 48  1  0
 24 49  1  0
 25 50  1  0
 26 51  1  0
 27 52  1  0
 28 53  1  0
 30 54  1  0
 30 55  1  0
 31 56  1  0
 31 57  1  0
 32 58  1  0
 32 59  1  0
 33 60  1  0
 33 61  1  0
M  END
>  <UniqueID>  (18) 
18

>  <SMILES>  (18) 
O=S(=O)(c1ccc(S(=O)(=O)N(CCc2ccccc2)Cc2ccccc2)cc1)N1CCCC1

>  <Energy>  (18) 
70.6382767170867

>  <Genealogy>  (18) 
O=S(=O)(c1ccc(S(=O)(=O)N(CCc2ccccc2)Cc2ccccc2)cc1)N1CCCC1 (3D coordinates assigned)
O=S(=O)(c1ccc(S(=O)(=O)N(CCc2ccccc2)Cc2ccccc2)cc1)N1CCCC1 (nonaromatic ring conformer: 70.6382767170867 kcal/mol)

>  <smiles>  (18) 
O=S(=O)(c1ccc(S(=O)(=O)N(CCc2ccccc2)Cc2ccccc2)cc1)N1CCCC1

>  <score_type>  (18) 
oracle

>  <origin>  (18) 
adgpu

>  <m_score__min__energy>  (18) 
-11.32

>  <m_primary>  (18) 
energy

$$$$
18:0
     RDKit          3D

 59 63  0  0  1  0  0  0  0  0999 V2000
    0.4650   22.8250  -28.0160 N   0  0  0  0  0  0  0  0  0  0  0  0
   -0.6800   24.0660  -27.7760 S   0  0  0  0  0  0  0  0  0  0  0  0
   -0.8490   24.4370  -26.3470 O   0  0  0  0  0  0  0  0  0  0  0  0
   -0.1650   25.2830  -28.5320 O   0  0  0  0  0  0  0  0  0  0  0  0
   -2.2360   23.6290  -28.4670 C   0  0  0  0  0  0  0  0  0  0  0  0
   -3.0360   22.6410  -27.8860 C   0  0  0  0  0  0  0  0  0  0  0  0
   -4.2530   22.3210  -28.4530 C   0  0  0  0  0  0  0  0  0  0  0  0
   -4.7270   22.9500  -29.6010 C   0  0  0  0  0  0  0  0  0  0  0  0
   -5.9700   22.5530  -30.0940 N   0  0  0  0  0  0  0  0  0  0  0  0
   -6.0840   21.6930  -31.0260 C   0  0  0  0  0  0  0  0  0  0  0  0
   -5.0280   21.1040  -31.6050 N   0  0  0  0  0  0  0  0  0  0  0  0
   -5.1280   20.1950  -32.5890 C   0  0  0  0  0  0  0  0  0  0  0  0
   -3.9210   19.6070  -33.1590 C   0  0  0  0  0  0  0  0  0  0  0  0
   -3.9210   18.3760  -33.7800 C   0  0  0  0  0  0  0  0  0  0  0  0
   -2.7610   17.8180  -34.3230 C   0  0  0  0  0  0  0  0  0  0  0  0
   -1.5690   18.5120  -34.2430 C   0  0  0  0  0  0  0  0  0  0  0  0
   -1.5480   19.7620  -33.6180 C   0  0  0  0  0  0  0  0  0  0  0  0
   -0.0440   20.6120  -33.5300 S   0  0  0  0  0  0  0  0  0  0  0  0
    1.0540   19.8770  -34.2520 O   0  0  0  0  0  0  0  0  0  0  0  0
   -0.1990   21.9270  -34.2440 O   0  0  0  0  0  0  0  0  0  0  0  0
    0.4290   20.9450  -31.8870 N   0  0  0  0  0  0  0  0  0  0  0  0
    0.5170   19.6830  -31.1970 C   0  0  0  0  0  0  0  0  0  0  0  0
    0.3740   19.7740  -29.7090 C   0  0  0  0  0  0  0  0  0  0  0  0
   -0.4600   20.7710  -29.2620 O   0  0  0  0  0  0  0  0  0  0  0  0
   -1.3910   21.0010  -30.2820 C   0  0  0  0  0  0  0  0  0  0  0  0
   -0.6270   21.7860  -31.3470 C   0  0  0  0  0  0  0  0  0  0  0  0
   -2.7340   20.2810  -33.0880 C   0  0  0  0  0  0  0  0  0  0  0  0
   -6.3690   19.8780  -32.9960 N   0  0  0  0  0  0  0  0  0  0  0  0
   -7.4820   20.4330  -32.4570 C   0  0  0  0  0  0  0  0  0  0  0  0
   -8.7240   20.0720  -32.9110 C   0  0  0  0  0  0  0  0  0  0  0  0
   -9.8410   20.6530  -32.3430 C   0  0  0  0  0  0  0  0  0  0  0  0
   -9.7470   21.5900  -31.3300 C   0  0  0  0  0  0  0  0  0  0  0  0
   -8.4820   21.9420  -30.8850 C   0  0  0  0  0  0  0  0  0  0  0  0
   -7.3610   21.3660  -31.4450 C   0  0  0  0  0  0  0  0  0  0  0  0
   -3.9290   23.9330  -30.1800 C   0  0  0  0  0  0  0  0  0  0  0  0
   -2.7170   24.2450  -29.6050 C   0  0  0  0  0  0  0  0  0  0  0  0
    0.6420   22.6330  -29.0290 H   0  0  0  0  0  0  0  0  0  0  0  0
    0.2520   21.9320  -27.5540 H   0  0  0  0  0  0  0  0  0  0  0  0
   -2.6964   22.1197  -26.9789 H   0  0  0  0  0  0  0  0  0  0  0  0
   -4.8699   21.5419  -27.9814 H   0  0  0  0  0  0  0  0  0  0  0  0
   -4.8647   17.8152  -33.8502 H   0  0  0  0  0  0  0  0  0  0  0  0
   -2.7964   16.8328  -34.8109 H   0  0  0  0  0  0  0  0  0  0  0  0
   -0.6474   18.0858  -34.6662 H   0  0  0  0  0  0  0  0  0  0  0  0
   -0.2794   19.0272  -31.5786 H   0  0  0  0  0  0  0  0  0  0  0  0
    1.5272   19.2925  -31.3895 H   0  0  0  0  0  0  0  0  0  0  0  0
   -0.0187   18.8130  -29.3453 H   0  0  0  0  0  0  0  0  0  0  0  0
    1.3743   20.0149  -29.3199 H   0  0  0  0  0  0  0  0  0  0  0  0
   -1.7574   20.0486  -30.6926 H   0  0  0  0  0  0  0  0  0  0  0  0
   -2.2734   21.5486  -29.9194 H   0  0  0  0  0  0  0  0  0  0  0  0
   -1.3148   22.0785  -32.1541 H   0  0  0  0  0  0  0  0  0  0  0  0
   -0.1899   22.6911  -30.9001 H   0  0  0  0  0  0  0  0  0  0  0  0
   -2.7105   21.2652  -32.5973 H   0  0  0  0  0  0  0  0  0  0  0  0
   -6.5160   19.1910  -33.7450 H   0  0  0  0  0  0  0  0  0  0  0  0
   -8.8296   19.3301  -33.7163 H   0  0  0  0  0  0  0  0  0  0  0  0
  -10.8369   20.3612  -32.7079 H   0  0  0  0  0  0  0  0  0  0  0  0
  -10.6485   22.0422  -30.8908 H   0  0  0  0  0  0  0  0  0  0  0  0
   -8.3719   22.6846  -30.0810 H   0  0  0  0  0  0  0  0  0  0  0  0
   -4.2634   24.4556  -31.0883 H   0  0  0  0  0  0  0  0  0  0  0  0
   -2.1009   25.0248  -30.0765 H   0  0  0  0  0  0  0  0  0  0  0  0
  1  2  1  0
  2  3  2  0
  2  4  2  0
  2  5  1  0
  5  6  2  0
  6  7  1  0
  7  8  2  0
  8  9  1  0
  9 10  2  0
 10 11  1  0
 11 12  2  0
 12 13  1  0
 13 14  2  0
 14 15  1  0
 15 16  2  0
 16 17  1  0
 17 18  1  0
 18 19  2  0
 18 20  2  0
 18 21  1  0
 21 22  1  0
 22 23  1  0
 23 24  1  0
 24 25  1  0
 25 26  1  0
 17 27  2  0
 12 28  1  0
 28 29  1  0
 29 30  2  0
 30 31  1  0
 31 32  2  0
 32 33  1  0
 33 34  2  0
  8 35  1  0
 35 36  2  0
 36  5  1  0
 34 10  1  0
 27 13  1  0
 34 29  1  0
 26 21  1  0
  1 37  1  0
  1 38  1  0
  6 39  1  0
  7 40  1  0
 14 41  1  0
 15 42  1  0
 16 43  1  0
 22 44  1  0
 22 45  1  0
 23 46  1  0
 23 47  1  0
 25 48  1  0
 25 49  1  0
 26 50  1  0
 26 51  1  0
 27 52  1  0
 28 53  1  0
 30 54  1  0
 31 55  1  0
 32 56  1  0
 33 57  1  0
 35 58  1  0
 36 59  1  0
M  END
>  <smiles>  (19) 
NS(=O)(=O)c1ccc(N=c2nc(-c3cccc(S(=O)(=O)N4CCOCC4)c3)[nH]c3ccccc23)cc1

>  <score_type>  (19) 
oracle

>  <origin>  (19) 
adgpu

>  <m_score__min__energy>  (19) 
-11.119999999999999

>  <m_primary>  (19) 
energy

$$$$
19:0
     RDKit          3D

 61 64  0  0  0  0  0  0  0  0999 V2000
   -2.3550   22.8960  -27.1000 C   0  0  0  0  0  0  0  0  0  0  0  0
   -1.9910   22.3640  -28.4640 C   0  0  0  0  0  0  0  0  0  0  0  0
   -1.4580   21.0670  -28.5440 C   0  0  0  0  0  0  0  0  0  0  0  0
   -1.1580   20.4940  -29.7790 C   0  0  0  0  0  0  0  0  0  0  0  0
   -1.3820   21.2090  -30.9600 C   0  0  0  0  0  0  0  0  0  0  0  0
   -1.0370   20.4850  -32.5310 S   0  0  0  0  0  0  0  0  0  0  0  0
    0.3370   19.8730  -32.5270 O   0  0  0  0  0  0  0  0  0  0  0  0
   -1.0830   21.5640  -33.5770 O   0  0  0  0  0  0  0  0  0  0  0  0
   -2.2260   19.2590  -32.8970 N   0  0  0  0  0  0  0  0  0  0  0  0
   -1.6540   18.2470  -33.8050 C   0  0  0  0  0  0  0  0  0  0  0  0
   -2.7400   17.2790  -34.3240 C   0  0  0  0  0  0  0  0  0  0  0  0
   -3.9780   17.4890  -33.6720 O   0  0  0  0  0  0  0  0  0  0  0  0
   -4.4390   18.8000  -33.9410 C   0  0  0  0  0  0  0  0  0  0  0  0
   -3.4250   19.8760  -33.4910 C   0  0  0  0  0  0  0  0  0  0  0  0
   -1.8820   22.5140  -30.8950 C   0  0  0  0  0  0  0  0  0  0  0  0
   -2.1690   23.1150  -29.6560 C   0  0  0  0  0  0  0  0  0  0  0  0
   -2.6560   24.5140  -29.6590 C   0  0  0  0  0  0  0  0  0  0  0  0
   -2.0940   25.3560  -28.9070 O   0  0  0  0  0  0  0  0  0  0  0  0
   -3.7210   24.9590  -30.5090 N   0  0  0  0  0  0  0  0  0  0  0  0
   -4.9450   24.2620  -30.7820 C   0  0  0  0  0  0  0  0  0  0  0  0
   -6.0800   24.4060  -29.9670 C   0  0  0  0  0  0  0  0  0  0  0  0
   -7.2380   23.6740  -30.2350 C   0  0  0  0  0  0  0  0  0  0  0  0
   -7.2870   22.8120  -31.3390 C   0  0  0  0  0  0  0  0  0  0  0  0
   -8.7460   21.8830  -31.6790 S   0  0  0  0  0  0  0  0  0  0  0  0
   -9.7740   22.7900  -32.3000 O   0  0  0  0  0  0  0  0  0  0  0  0
   -9.3120   21.3810  -30.3790 O   0  0  0  0  0  0  0  0  0  0  0  0
   -8.4550   20.5150  -32.7340 N   0  0  0  0  0  0  0  0  0  0  0  0
   -7.0710   20.0070  -32.6820 C   0  0  0  0  0  0  0  0  0  0  0  0
   -6.8840   18.8830  -31.6530 C   0  0  0  0  0  0  0  0  0  0  0  0
   -7.8440   17.8650  -31.8370 O   0  0  0  0  0  0  0  0  0  0  0  0
   -9.1270   18.3910  -31.5890 C   0  0  0  0  0  0  0  0  0  0  0  0
   -9.4830   19.4660  -32.6250 C   0  0  0  0  0  0  0  0  0  0  0  0
   -6.1790   22.7220  -32.1930 C   0  0  0  0  0  0  0  0  0  0  0  0
   -5.0130   23.4350  -31.9100 C   0  0  0  0  0  0  0  0  0  0  0  0
   -1.9140   22.2514  -26.3254 H   0  0  0  0  0  0  0  0  0  0  0  0
   -1.9670   23.9194  -26.9900 H   0  0  0  0  0  0  0  0  0  0  0  0
   -3.4495   22.9051  -26.9900 H   0  0  0  0  0  0  0  0  0  0  0  0
   -1.2751   20.4966  -27.6214 H   0  0  0  0  0  0  0  0  0  0  0  0
   -0.7437   19.4760  -29.8248 H   0  0  0  0  0  0  0  0  0  0  0  0
   -2.4920   18.7980  -31.9950 H   0  0  0  0  0  0  0  0  0  0  0  0
   -1.1894   18.7566  -34.6620 H   0  0  0  0  0  0  0  0  0  0  0  0
   -0.9072   17.6631  -33.2470 H   0  0  0  0  0  0  0  0  0  0  0  0
   -2.8737   17.4382  -35.4042 H   0  0  0  0  0  0  0  0  0  0  0  0
   -2.4117   16.2498  -34.1168 H   0  0  0  0  0  0  0  0  0  0  0  0
   -4.6075   18.9018  -35.0233 H   0  0  0  0  0  0  0  0  0  0  0  0
   -5.3702   18.9544  -33.3762 H   0  0  0  0  0  0  0  0  0  0  0  0
   -3.1259   20.4752  -34.3636 H   0  0  0  0  0  0  0  0  0  0  0  0
   -3.9037   20.5116  -32.7315 H   0  0  0  0  0  0  0  0  0  0  0  0
   -2.0528   23.0771  -31.8244 H   0  0  0  0  0  0  0  0  0  0  0  0
   -6.0562   25.0992  -29.1132 H   0  0  0  0  0  0  0  0  0  0  0  0
   -8.1145   23.7740  -29.5779 H   0  0  0  0  0  0  0  0  0  0  0  0
   -6.8015   19.6208  -33.6761 H   0  0  0  0  0  0  0  0  0  0  0  0
   -6.4243   20.8432  -32.3778 H   0  0  0  0  0  0  0  0  0  0  0  0
   -5.8777   18.4537  -31.7678 H   0  0  0  0  0  0  0  0  0  0  0  0
   -7.0096   19.3056  -30.6452 H   0  0  0  0  0  0  0  0  0  0  0  0
   -9.8668   17.5787  -31.6430 H   0  0  0  0  0  0  0  0  0  0  0  0
   -9.1341   18.8483  -30.5886 H   0  0  0  0  0  0  0  0  0  0  0  0
   -9.5986   18.9836  -33.6068 H   0  0  0  0  0  0  0  0  0  0  0  0
  -10.4152   19.9482  -32.2955 H   0  0  0  0  0  0  0  0  0  0  0  0
   -6.2287   22.0869  -33.0898 H   0  0  0  0  0  0  0  0  0  0  0  0
   -4.1426   23.3468  -32.5768 H   0  0  0  0  0  0  0  0  0  0  0  0
  1  2  1  0
  2  3  2  0
  3  4  1  0
  4  5  2  0
  5  6  1  0
  6  7  2  0
  6  8  2  0
  6  9  1  0
  9 10  1  0
 10 11  1  0
 11 12  1  0
 12 13  1  0
 13 14  1  0
  5 15  1  0
 15 16  2  0
 16 17  1  0
 17 18  2  0
 17 19  1  0
 19 20  1  0
 20 21  2  0
 21 22  1  0
 22 23  2  0
 23 24  1  0
 24 25  2  0
 24 26  2  0
 24 27  1  0
 27 28  1  0
 28 29  1  0
 29 30  1  0
 30 31  1  0
 31 32  1  0
 23 33  1  0
 33 34  2  0
 16  2  1  0
 34 20  1  0
 14  9  1  0
 32 27  1  0
  1 35  1  0
  1 36  1  0
  1 37  1  0
  3 38  1  0
  4 39  1  0
  9 40  1  0
 10 41  1  0
 10 42  1  0
 11 43  1  0
 11 44  1  0
 13 45  1  0
 13 46  1  0
 14 47  1  0
 14 48  1  0
 15 49  1  0
 21 50  1  0
 22 51  1  0
 28 52  1  0
 28 53  1  0
 29 54  1  0
 29 55  1  0
 31 56  1  0
 31 57  1  0
 32 58  1  0
 32 59  1  0
 33 60  1  0
 34 61  1  0
M  CHG  2   9   1  19  -1
M  END
>  <UniqueID>  (20) 
19

>  <SMILES>  (20) 
Cc1ccc(S(=O)(=O)[NH+]2CCOCC2)cc1C(=O)[N-]c1ccc(S(=O)(=O)N2CCOCC2)cc1

>  <Energy>  (20) 
83.96827275968178

>  <Genealogy>  (20) 
Cc1ccc(S(=O)(=O)[NH+]2CCOCC2)cc1C(=O)[N-]c1ccc(S(=O)(=O)N2CCOCC2)cc1 (protonated)
Cc1ccc(S(=O)(=O)[NH+]2CCOCC2)cc1C(=O)[N-]c1ccc(S(=O)(=O)N2CCOCC2)cc1 (3D coordinates assigned)
Cc1ccc(S(=O)(=O)[NH+]2CCOCC2)cc1C(=O)[N-]c1ccc(S(=O)(=O)N2CCOCC2)cc1 (nonaromatic ring conformer: 83.96827275968178 kcal/mol)

>  <smiles>  (20) 
Cc1ccc(S(=O)(=O)N2CCOCC2)cc1C(=O)Nc1ccc(S(=O)(=O)N2CCOCC2)cc1

>  <score_type>  (20) 
oracle

>  <origin>  (20) 
adgpu

>  <m_score__min__energy>  (20) 
-11.949999999999999

>  <m_primary>  (20) 
energy

$$$$
20:0
     RDKit          3D

 51 53  0  0  0  0  0  0  0  0999 V2000
   -9.1140   21.6730  -30.9830 C   0  0  0  0  0  0  0  0  0  0  0  0
   -8.3310   20.5620  -31.6340 C   0  0  0  0  0  0  0  0  0  0  0  0
   -8.8430   19.2560  -31.5790 C   0  0  0  0  0  0  0  0  0  0  0  0
   -8.1460   18.1940  -32.1500 C   0  0  0  0  0  0  0  0  0  0  0  0
   -6.9260   18.4180  -32.7820 C   0  0  0  0  0  0  0  0  0  0  0  0
   -6.3970   19.7160  -32.8760 C   0  0  0  0  0  0  0  0  0  0  0  0
   -5.1060   19.9150  -33.4810 N   0  0  0  0  0  0  0  0  0  0  0  0
   -3.9980   20.5080  -32.7870 C   0  0  0  0  0  0  0  0  0  0  0  0
   -2.6690   20.9440  -33.6450 S   0  0  0  0  0  0  0  0  0  0  0  0
   -3.9430   20.4640  -31.3510 N   0  0  0  0  0  0  0  0  0  0  0  0
   -3.2830   21.4480  -30.5360 C   0  0  0  0  0  0  0  0  0  0  0  0
   -1.9400   21.2930  -30.1470 C   0  0  0  0  0  0  0  0  0  0  0  0
   -1.3100   22.2770  -29.3800 C   0  0  0  0  0  0  0  0  0  0  0  0
   -2.0060   23.4310  -29.0010 C   0  0  0  0  0  0  0  0  0  0  0  0
   -1.1910   24.6710  -28.0510 S   0  0  0  0  0  0  0  0  0  0  0  0
    0.2970   24.5380  -28.2180 O   0  0  0  0  0  0  0  0  0  0  0  0
   -1.6120   26.0190  -28.5700 O   0  0  0  0  0  0  0  0  0  0  0  0
   -1.6460   24.5030  -26.3670 N   0  0  0  0  0  0  0  0  0  0  0  0
   -2.2770   25.7350  -25.8510 C   0  0  0  0  0  0  0  0  0  0  0  0
   -1.2510   26.8720  -25.6320 C   0  0  0  0  0  0  0  0  0  0  0  0
    0.0920   26.4220  -25.5700 O   0  0  0  0  0  0  0  0  0  0  0  0
    0.1770   25.2470  -24.7980 C   0  0  0  0  0  0  0  0  0  0  0  0
   -0.5000   24.0730  -25.5280 C   0  0  0  0  0  0  0  0  0  0  0  0
   -3.3370   23.6010  -29.4090 C   0  0  0  0  0  0  0  0  0  0  0  0
   -3.9680   22.6180  -30.1770 C   0  0  0  0  0  0  0  0  0  0  0  0
   -7.1130   20.8080  -32.3220 C   0  0  0  0  0  0  0  0  0  0  0  0
   -6.5550   22.2090  -32.4350 C   0  0  0  0  0  0  0  0  0  0  0  0
   -9.0464   21.5771  -29.8893 H   0  0  0  0  0  0  0  0  0  0  0  0
   -8.6994   22.6438  -31.2923 H   0  0  0  0  0  0  0  0  0  0  0  0
  -10.1677   21.6090  -31.2923 H   0  0  0  0  0  0  0  0  0  0  0  0
   -9.8051   19.0694  -31.0795 H   0  0  0  0  0  0  0  0  0  0  0  0
   -8.5603   17.1762  -32.1015 H   0  0  0  0  0  0  0  0  0  0  0  0
   -6.3712   17.5709  -33.2117 H   0  0  0  0  0  0  0  0  0  0  0  0
   -4.9760   19.6390  -34.4800 H   0  0  0  0  0  0  0  0  0  0  0  0
   -4.4110   19.6620  -30.8720 H   0  0  0  0  0  0  0  0  0  0  0  0
   -1.3832   20.3933  -30.4478 H   0  0  0  0  0  0  0  0  0  0  0  0
   -0.2622   22.1440  -29.0727 H   0  0  0  0  0  0  0  0  0  0  0  0
   -2.3690   23.7470  -26.3370 H   0  0  0  0  0  0  0  0  0  0  0  0
   -3.0330   26.0750  -26.5741 H   0  0  0  0  0  0  0  0  0  0  0  0
   -2.7307   25.4986  -24.8772 H   0  0  0  0  0  0  0  0  0  0  0  0
   -1.3403   27.5857  -26.4642 H   0  0  0  0  0  0  0  0  0  0  0  0
   -1.4820   27.3313  -24.6595 H   0  0  0  0  0  0  0  0  0  0  0  0
    1.2356   25.0035  -24.6245 H   0  0  0  0  0  0  0  0  0  0  0  0
   -0.3356   25.4132  -23.8390 H   0  0  0  0  0  0  0  0  0  0  0  0
    0.2444   23.5840  -26.1735 H   0  0  0  0  0  0  0  0  0  0  0  0
   -0.8891   23.3861  -24.7619 H   0  0  0  0  0  0  0  0  0  0  0  0
   -3.8861   24.5105  -29.1239 H   0  0  0  0  0  0  0  0  0  0  0  0
   -5.0088   22.7631  -30.5020 H   0  0  0  0  0  0  0  0  0  0  0  0
   -6.3910   22.6207  -31.4282 H   0  0  0  0  0  0  0  0  0  0  0  0
   -5.5996   22.1804  -32.9795 H   0  0  0  0  0  0  0  0  0  0  0  0
   -7.2684   22.8450  -32.9795 H   0  0  0  0  0  0  0  0  0  0  0  0
  1  2  1  0
  2  3  2  0
  3  4  1  0
  4  5  2  0
  5  6  1  0
  6  7  1  0
  7  8  1  0
  8  9  2  0
  8 10  1  0
 10 11  1  0
 11 12  2  0
 12 13  1  0
 13 14  2  0
 14 15  1  0
 15 16  2  0
 15 17  2  0
 15 18  1  0
 18 19  1  0
 19 20  1  0
 20 21  1  0
 21 22  1  0
 22 23  1  0
 14 24  1  0
 24 25  2  0
  6 26  2  0
 26 27  1  0
 26  2  1  0
 25 11  1  0
 23 18  1  0
  1 28  1  0
  1 29  1  0
  1 30  1  0
  3 31  1  0
  4 32  1  0
  5 33  1  0
  7 34  1  0
 10 35  1  0
 12 36  1  0
 13 37  1  0
 18 38  1  0
 19 39  1  0
 19 40  1  0
 20 41  1  0
 20 42  1  0
 22 43  1  0
 22 44  1  0
 23 45  1  0
 23 46  1  0
 24 47  1  0
 25 48  1  0
 27 49  1  0
 27 50  1  0
 27 51  1  0
M  CHG  1  18   1
M  END
>  <UniqueID>  (21) 
20

>  <SMILES>  (21) 
Cc1cccc(NC(=S)Nc2ccc(S(=O)(=O)[NH+]3CCOCC3)cc2)c1C

>  <Energy>  (21) 
72.88031572185626

>  <Genealogy>  (21) 
Cc1cccc(NC(=S)Nc2ccc(S(=O)(=O)[NH+]3CCOCC3)cc2)c1C (protonated)
Cc1cccc(NC(=S)Nc2ccc(S(=O)(=O)[NH+]3CCOCC3)cc2)c1C (3D coordinates assigned)
Cc1cccc(NC(=S)Nc2ccc(S(=O)(=O)[NH+]3CCOCC3)cc2)c1C (nonaromatic ring conformer: 72.88031572185626 kcal/mol)

>  <smiles>  (21) 
Cc1cccc(NC(=S)Nc2ccc(S(=O)(=O)N3CCOCC3)cc2)c1C

>  <score_type>  (21) 
oracle

>  <origin>  (21) 
adgpu

>  <m_score__min__energy>  (21) 
-8.5099999999999998

>  <m_primary>  (21) 
energy

$$$$
21:0
     RDKit          3D

 61 64  0  0  0  0  0  0  0  0999 V2000
   -0.7740   19.4380  -29.5370 O   0  0  0  0  0  0  0  0  0  0  0  0
   -1.0300   20.2770  -30.4450 C   0  0  0  0  0  0  0  0  0  0  0  0
   -1.0050   19.8640  -31.8220 N   0  0  0  0  0  0  0  0  0  0  0  0
   -1.1840   18.5040  -32.2540 C   0  0  0  0  0  0  0  0  0  0  0  0
   -0.2810   17.4910  -31.8830 C   0  0  0  0  0  0  0  0  0  0  0  0
   -0.4850   16.1740  -32.3060 C   0  0  0  0  0  0  0  0  0  0  0  0
   -1.5970   15.8530  -33.0870 C   0  0  0  0  0  0  0  0  0  0  0  0
   -2.5200   16.8450  -33.4380 C   0  0  0  0  0  0  0  0  0  0  0  0
   -3.9130   16.4290  -34.4330 S   0  0  0  0  0  0  0  0  0  0  0  0
   -3.7510   17.0710  -35.7830 O   0  0  0  0  0  0  0  0  0  0  0  0
   -3.9840   14.9380  -34.6190 O   0  0  0  0  0  0  0  0  0  0  0  0
   -5.3710   17.0110  -33.6720 N   0  0  0  0  0  0  0  0  0  0  0  0
   -5.4990   18.4640  -33.8760 C   0  0  0  0  0  0  0  0  0  0  0  0
   -6.8810   18.9530  -33.4030 C   0  0  0  0  0  0  0  0  0  0  0  0
   -7.5050   18.0260  -32.3470 C   0  0  0  0  0  0  0  0  0  0  0  0
   -6.4290   17.4390  -31.4290 C   0  0  0  0  0  0  0  0  0  0  0  0
   -5.3460   16.6800  -32.2310 C   0  0  0  0  0  0  0  0  0  0  0  0
   -2.3110   18.1670  -33.0190 C   0  0  0  0  0  0  0  0  0  0  0  0
   -1.3040   21.6880  -30.0790 C   0  0  0  0  0  0  0  0  0  0  0  0
   -0.3340   22.4420  -29.3940 C   0  0  0  0  0  0  0  0  0  0  0  0
   -0.5900   23.7670  -29.0370 C   0  0  0  0  0  0  0  0  0  0  0  0
   -1.8150   24.3580  -29.3490 C   0  0  0  0  0  0  0  0  0  0  0  0
   -2.0500   25.6770  -28.9790 O   0  0  0  0  0  0  0  0  0  0  0  0
   -2.7990   23.6190  -30.0250 C   0  0  0  0  0  0  0  0  0  0  0  0
   -4.3640   24.3510  -30.3920 S   0  0  0  0  0  0  0  0  0  0  0  0
   -5.3280   24.0230  -29.2880 O   0  0  0  0  0  0  0  0  0  0  0  0
   -4.2370   25.8470  -30.4910 O   0  0  0  0  0  0  0  0  0  0  0  0
   -4.9770   23.7250  -31.8920 N   0  0  0  0  0  0  0  0  0  0  0  0
   -5.3130   22.3120  -31.7380 C   0  0  0  0  0  0  0  0  0  0  0  0
   -6.8060   22.1660  -31.6850 C   0  0  0  0  0  0  0  0  0  0  0  0
   -7.3830   20.9890  -31.1780 C   0  0  0  0  0  0  0  0  0  0  0  0
   -8.7740   20.8680  -31.0920 C   0  0  0  0  0  0  0  0  0  0  0  0
   -9.5950   21.9210  -31.5020 C   0  0  0  0  0  0  0  0  0  0  0  0
   -9.0280   23.1010  -31.9930 C   0  0  0  0  0  0  0  0  0  0  0  0
   -7.6370   23.2270  -32.0800 C   0  0  0  0  0  0  0  0  0  0  0  0
   -2.5400   22.2860  -30.3830 C   0  0  0  0  0  0  0  0  0  0  0  0
   -0.7390   20.5740  -32.5410 H   0  0  0  0  0  0  0  0  0  0  0  0
    0.5897   17.7362  -31.2571 H   0  0  0  0  0  0  0  0  0  0  0  0
    0.2320   15.3893  -32.0229 H   0  0  0  0  0  0  0  0  0  0  0  0
   -1.7481   14.8179  -33.4273 H   0  0  0  0  0  0  0  0  0  0  0  0
   -4.7157   18.9809  -33.3022 H   0  0  0  0  0  0  0  0  0  0  0  0
   -5.3901   18.6847  -34.9481 H   0  0  0  0  0  0  0  0  0  0  0  0
   -6.7699   19.9576  -32.9688 H   0  0  0  0  0  0  0  0  0  0  0  0
   -7.5492   18.9611  -34.2767 H   0  0  0  0  0  0  0  0  0  0  0  0
   -8.2205   18.6011  -31.7410 H   0  0  0  0  0  0  0  0  0  0  0  0
   -8.0150   17.1993  -32.8632 H   0  0  0  0  0  0  0  0  0  0  0  0
   -5.9512   18.2575  -30.8707 H   0  0  0  0  0  0  0  0  0  0  0  0
   -6.9128   16.7259  -30.7453 H   0  0  0  0  0  0  0  0  0  0  0  0
   -4.3578   16.9434  -31.8258 H   0  0  0  0  0  0  0  0  0  0  0  0
   -5.5504   15.6037  -32.1322 H   0  0  0  0  0  0  0  0  0  0  0  0
   -3.0371   18.9467  -33.2925 H   0  0  0  0  0  0  0  0  0  0  0  0
    0.6329   21.9844  -29.1379 H   0  0  0  0  0  0  0  0  0  0  0  0
    0.1784   24.3486  -28.5066 H   0  0  0  0  0  0  0  0  0  0  0  0
   -4.9173   21.7438  -32.5928 H   0  0  0  0  0  0  0  0  0  0  0  0
   -4.8692   21.9243  -30.8092 H   0  0  0  0  0  0  0  0  0  0  0  0
   -6.7390   20.1606  -30.8479 H   0  0  0  0  0  0  0  0  0  0  0  0
   -9.2218   19.9425  -30.7010 H   0  0  0  0  0  0  0  0  0  0  0  0
  -10.6887   21.8218  -31.4385 H   0  0  0  0  0  0  0  0  0  0  0  0
   -9.6759   23.9310  -32.3112 H   0  0  0  0  0  0  0  0  0  0  0  0
   -7.1933   24.1596  -32.4588 H   0  0  0  0  0  0  0  0  0  0  0  0
   -3.3122   21.7034  -30.9068 H   0  0  0  0  0  0  0  0  0  0  0  0
  1  2  2  0
  2  3  1  0
  3  4  1  0
  4  5  2  0
  5  6  1  0
  6  7  2  0
  7  8  1  0
  8  9  1  0
  9 10  2  0
  9 11  2  0
  9 12  1  0
 12 13  1  0
 13 14  1  0
 14 15  1  0
 15 16  1  0
 16 17  1  0
  8 18  2  0
  2 19  1  0
 19 20  2  0
 20 21  1  0
 21 22  2  0
 22 23  1  0
 22 24  1  0
 24 25  1  0
 25 26  2  0
 25 27  2  0
 25 28  1  0
 28 29  1  0
 29 30  1  0
 30 31  2  0
 31 32  1  0
 32 33  2  0
 33 34  1  0
 34 35  2  0
 24 36  2  0
 18  4  1  0
 36 19  1  0
 17 12  1  0
 35 30  1  0
  3 37  1  0
  5 38  1  0
  6 39  1  0
  7 40  1  0
 13 41  1  0
 13 42  1  0
 14 43  1  0
 14 44  1  0
 15 45  1  0
 15 46  1  0
 16 47  1  0
 16 48  1  0
 17 49  1  0
 17 50  1  0
 18 51  1  0
 20 52  1  0
 21 53  1  0
 29 54  1  0
 29 55  1  0
 31 56  1  0
 32 57  1  0
 33 58  1  0
 34 59  1  0
 35 60  1  0
 36 61  1  0
M  CHG  2  23  -1  28  -1
M  END
>  <UniqueID>  (22) 
21

>  <SMILES>  (22) 
O=C(Nc1cccc(S(=O)(=O)N2CCCCC2)c1)c1ccc([O-])c(S(=O)(=O)[N-]Cc2ccccc2)c1

>  <Energy>  (22) 
70.71565139488129

>  <Genealogy>  (22) 
O=C(Nc1cccc(S(=O)(=O)N2CCCCC2)c1)c1ccc([O-])c(S(=O)(=O)[N-]Cc2ccccc2)c1 (protonated)
O=C(Nc1cccc(S(=O)(=O)N2CCCCC2)c1)c1ccc([O-])c(S(=O)(=O)[N-]Cc2ccccc2)c1 (3D coordinates assigned)
O=C(Nc1cccc(S(=O)(=O)N2CCCCC2)c1)c1ccc([O-])c(S(=O)(=O)[N-]Cc2ccccc2)c1 (nonaromatic ring conformer: 70.71565139488129 kcal/mol)

>  <smiles>  (22) 
O=C(Nc1cccc(S(=O)(=O)N2CCCCC2)c1)c1ccc(O)c(S(=O)(=O)NCc2ccccc2)c1

>  <score_type>  (22) 
oracle

>  <origin>  (22) 
adgpu

>  <m_score__min__energy>  (22) 
-13.74

>  <m_primary>  (22) 
energy

$$$$
22:0
     RDKit          3D

 33 35  0  0  0  0  0  0  0  0999 V2000
   -4.0253   21.4637  -30.8541 H   0  0  0  0  0  0  0  0  0  0  0  0
   -4.8720   22.0360  -31.2610 C   0  0  0  0  0  0  0  0  0  0  0  0
   -5.1520   23.3760  -31.0970 C   0  0  0  0  0  0  0  0  0  0  0  0
   -4.3660   24.3370  -30.3020 C   0  0  0  0  0  0  0  0  0  0  0  0
   -4.0080   25.4260  -30.8230 O   0  0  0  0  0  0  0  0  0  0  0  0
   -3.9180   24.0220  -28.9770 N   0  0  0  0  0  0  0  0  0  0  0  0
   -2.8830   24.5360  -28.3800 C   0  0  0  0  0  0  0  0  0  0  0  0
   -2.4570   24.1820  -26.7920 S   0  0  0  0  0  0  0  0  0  0  0  0
   -1.1010   25.1790  -26.9110 C   0  0  0  0  0  0  0  0  0  0  0  0
   -0.0820   25.3580  -25.8380 C   0  0  0  0  0  0  0  0  0  0  0  0
   -0.5666   25.2729  -24.8542 H   0  0  0  0  0  0  0  0  0  0  0  0
    0.6917   24.5820  -25.9340 H   0  0  0  0  0  0  0  0  0  0  0  0
    0.3809   26.3512  -25.9340 H   0  0  0  0  0  0  0  0  0  0  0  0
   -0.9870   25.7160  -28.1460 N   0  0  0  0  0  0  0  0  0  0  0  0
   -1.9810   25.3640  -28.9600 N   0  0  0  0  0  0  0  0  0  0  0  0
   -2.0070   25.6780  -29.9550 H   0  0  0  0  0  0  0  0  0  0  0  0
   -6.2890   23.6850  -31.7510 N   0  0  0  0  0  0  0  0  0  0  0  0
   -6.7090   22.5900  -32.3140 O   0  0  0  0  0  0  0  0  0  0  0  0
   -5.9070   21.5810  -32.0580 C   0  0  0  0  0  0  0  0  0  0  0  0
   -6.1210   20.2040  -32.5610 C   0  0  0  0  0  0  0  0  0  0  0  0
   -5.4800   19.7400  -33.7240 C   0  0  0  0  0  0  0  0  0  0  0  0
   -4.8035   20.4072  -34.2782 H   0  0  0  0  0  0  0  0  0  0  0  0
   -5.6970   18.4370  -34.1800 C   0  0  0  0  0  0  0  0  0  0  0  0
   -5.1818   18.0816  -35.0846 H   0  0  0  0  0  0  0  0  0  0  0  0
   -6.5670   17.5800  -33.4920 C   0  0  0  0  0  0  0  0  0  0  0  0
   -6.7690   16.1700  -33.9600 C   0  0  0  0  0  0  0  0  0  0  0  0
   -6.8643   15.5047  -33.0892 H   0  0  0  0  0  0  0  0  0  0  0  0
   -7.6845   16.1128  -34.5671 H   0  0  0  0  0  0  0  0  0  0  0  0
   -5.9064   15.8580  -34.5671 H   0  0  0  0  0  0  0  0  0  0  0  0
   -7.1940   18.0320  -32.3220 C   0  0  0  0  0  0  0  0  0  0  0  0
   -7.8595   17.3585  -31.7621 H   0  0  0  0  0  0  0  0  0  0  0  0
   -6.9770   19.3350  -31.8640 C   0  0  0  0  0  0  0  0  0  0  0  0
   -7.4808   19.6828  -30.9501 H   0  0  0  0  0  0  0  0  0  0  0  0
  1  2  1  0
  2  3  1  0
  3  4  1  0
  4  5  2  0
  4  6  1  0
  6  7  2  0
  7  8  1  0
  8  9  1  0
  9 10  1  0
 10 11  1  0
 10 12  1  0
 10 13  1  0
  9 14  2  0
 14 15  1  0
 15 16  1  0
  3 17  2  0
 17 18  1  0
 18 19  1  0
 19 20  1  0
 20 21  2  0
 21 22  1  0
 21 23  1  0
 23 24  1  0
 23 25  2  0
 25 26  1  0
 26 27  1  0
 26 28  1  0
 26 29  1  0
 25 30  1  0
 30 31  1  0
 30 32  2  0
 32 33  1  0
 19  2  2  0
 32 20  1  0
 15  7  1  0
M  END
>  <UniqueID>  (23) 
22

>  <SMILES>  (23) 
Cc1ccc(-c2cc(C(=O)/N=c3\[nH]nc(C)s3)no2)cc1

>  <Energy>  (23) 
104.68976463304145

>  <Genealogy>  (23) 
Cc1ccc(-c2cc(C(=O)/N=c3\[nH]nc(C)s3)no2)cc1 (cis-trans isomerization)
Cc1ccc(-c2cc(C(=O)/N=c3\[nH]nc(C)s3)no2)cc1 (3D coordinates assigned)
Cc1ccc(-c2cc(C(=O)/N=c3\[nH]nc(C)s3)no2)cc1 (optimized conformer: 104.68976463304145 kcal/mol)

>  <smiles>  (23) 
Cc1ccc(-c2cc(C(=O)N=c3[nH]nc(C)s3)no2)cc1

>  <score_type>  (23) 
oracle

>  <origin>  (23) 
adgpu

>  <m_score__min__energy>  (23) 
-9.0099999999999998

>  <m_primary>  (23) 
energy

$$$$
23:0
     RDKit          3D

 78 81  0  0  0  0  0  0  0  0999 V2000
   -2.8450   18.9280  -25.6460 C   0  0  0  0  0  0  0  0  0  0  0  0
   -2.0580   19.1890  -26.9360 C   0  0  0  0  0  0  0  0  0  0  0  0
   -0.9080   18.1880  -27.0820 C   0  0  0  0  0  0  0  0  0  0  0  0
   -1.5230   20.6020  -26.9530 C   0  0  0  0  0  0  0  0  0  0  0  0
   -1.2490   21.2910  -25.8210 N   0  0  0  0  0  0  0  0  0  0  0  0
   -0.7380   22.4610  -26.2510 C   0  0  0  0  0  0  0  0  0  0  0  0
   -0.6900   22.4620  -27.6290 C   0  0  0  0  0  0  0  0  0  0  0  0
   -0.2640   23.6280  -28.4800 C   0  0  0  0  0  0  0  0  0  0  0  0
   -1.3330   24.6450  -28.5350 N   0  0  0  0  0  0  0  0  0  0  0  0
   -1.0360   25.7680  -27.6270 C   0  0  0  0  0  0  0  0  0  0  0  0
   -2.6220   24.0420  -28.1660 C   0  0  0  0  0  0  0  0  0  0  0  0
   -1.1890   21.2900  -28.0720 N   0  0  0  0  0  0  0  0  0  0  0  0
   -1.3470   20.8740  -29.4370 C   0  0  0  0  0  0  0  0  0  0  0  0
   -0.4450   19.9600  -30.0050 C   0  0  0  0  0  0  0  0  0  0  0  0
   -0.5900   19.5630  -31.3360 C   0  0  0  0  0  0  0  0  0  0  0  0
   -1.6400   20.0740  -32.1120 C   0  0  0  0  0  0  0  0  0  0  0  0
   -1.8230   19.5800  -33.7920 S   0  0  0  0  0  0  0  0  0  0  0  0
   -2.2990   20.7580  -34.5950 O   0  0  0  0  0  0  0  0  0  0  0  0
   -0.5090   19.1050  -34.3500 O   0  0  0  0  0  0  0  0  0  0  0  0
   -2.9830   18.2950  -33.9200 N   0  0  0  0  0  0  0  0  0  0  0  0
   -4.3570   18.4100  -33.5080 C   0  0  0  0  0  0  0  0  0  0  0  0
   -5.0960   17.2420  -33.2710 C   0  0  0  0  0  0  0  0  0  0  0  0
   -6.4340   17.3150  -32.8770 C   0  0  0  0  0  0  0  0  0  0  0  0
   -7.0590   18.5610  -32.7190 C   0  0  0  0  0  0  0  0  0  0  0  0
   -8.5070   18.6450  -32.3120 C   0  0  0  0  0  0  0  0  0  0  0  0
   -9.1180   20.0200  -32.6360 C   0  0  0  0  0  0  0  0  0  0  0  0
   -9.2840   20.8680  -31.4360 N   0  0  0  0  0  0  0  0  0  0  0  0
   -8.0150   21.4930  -31.0250 C   0  0  0  0  0  0  0  0  0  0  0  0
   -7.6550   22.6710  -31.9480 C   0  0  1  0  0  0  0  0  0  0  0  0
   -8.8230   23.4030  -32.2290 O   0  0  0  0  0  0  0  0  0  0  0  0
   -6.6210   23.5670  -31.3000 C   0  0  0  0  0  0  0  0  0  0  0  0
   -7.0030   24.5490  -30.3730 C   0  0  0  0  0  0  0  0  0  0  0  0
   -6.0420   25.3830  -29.7980 C   0  0  0  0  0  0  0  0  0  0  0  0
   -4.7030   25.2280  -30.1550 C   0  0  0  0  0  0  0  0  0  0  0  0
   -4.3440   24.2820  -31.0620 N   0  0  0  0  0  0  0  0  0  0  0  0
   -5.2610   23.4610  -31.6390 C   0  0  0  0  0  0  0  0  0  0  0  0
   -6.3280   19.7320  -32.9690 C   0  0  0  0  0  0  0  0  0  0  0  0
   -4.9860   19.6600  -33.3530 C   0  0  0  0  0  0  0  0  0  0  0  0
   -2.5410   20.9870  -31.5480 C   0  0  0  0  0  0  0  0  0  0  0  0
   -2.3940   21.3850  -30.2160 C   0  0  0  0  0  0  0  0  0  0  0  0
   -2.2051   19.1402  -24.7768 H   0  0  0  0  0  0  0  0  0  0  0  0
   -3.7299   19.5808  -25.6179 H   0  0  0  0  0  0  0  0  0  0  0  0
   -3.1645   17.8758  -25.6179 H   0  0  0  0  0  0  0  0  0  0  0  0
   -2.7432   19.0600  -27.7868 H   0  0  0  0  0  0  0  0  0  0  0  0
   -0.5581   17.8835  -26.0846 H   0  0  0  0  0  0  0  0  0  0  0  0
   -1.2597   17.3034  -27.6331 H   0  0  0  0  0  0  0  0  0  0  0  0
   -0.0803   18.6583  -27.6331 H   0  0  0  0  0  0  0  0  0  0  0  0
   -0.4099   23.2873  -25.6033 H   0  0  0  0  0  0  0  0  0  0  0  0
    0.6425   24.0784  -28.0495 H   0  0  0  0  0  0  0  0  0  0  0  0
   -0.0611   23.2692  -29.4998 H   0  0  0  0  0  0  0  0  0  0  0  0
   -1.1254   25.4298  -26.5841 H   0  0  0  0  0  0  0  0  0  0  0  0
   -0.0122   26.1264  -27.8097 H   0  0  0  0  0  0  0  0  0  0  0  0
   -1.7488   26.5857  -27.8097 H   0  0  0  0  0  0  0  0  0  0  0  0
   -2.7077   24.0019  -27.0701 H   0  0  0  0  0  0  0  0  0  0  0  0
   -3.4420   24.6500  -28.5759 H   0  0  0  0  0  0  0  0  0  0  0  0
   -2.6808   23.0229  -28.5759 H   0  0  0  0  0  0  0  0  0  0  0  0
    0.3791   19.5551  -29.3992 H   0  0  0  0  0  0  0  0  0  0  0  0
    0.1207   18.8482  -31.7763 H   0  0  0  0  0  0  0  0  0  0  0  0
   -2.6280   17.3670  -34.2430 H   0  0  0  0  0  0  0  0  0  0  0  0
   -4.6176   16.2595  -33.3965 H   0  0  0  0  0  0  0  0  0  0  0  0
   -7.0005   16.3909  -32.6896 H   0  0  0  0  0  0  0  0  0  0  0  0
   -9.0725   17.8695  -32.8494 H   0  0  0  0  0  0  0  0  0  0  0  0
   -8.5633   18.4961  -31.2236 H   0  0  0  0  0  0  0  0  0  0  0  0
   -8.4578   20.5400  -33.3457 H   0  0  0  0  0  0  0  0  0  0  0  0
  -10.1175   19.8474  -33.0616 H   0  0  0  0  0  0  0  0  0  0  0  0
  -10.0080   21.6070  -31.5970 H   0  0  0  0  0  0  0  0  0  0  0  0
   -8.1133   21.8616  -29.9933 H   0  0  0  0  0  0  0  0  0  0  0  0
   -7.2162   20.7397  -31.0910 H   0  0  0  0  0  0  0  0  0  0  0  0
   -7.2251   22.2798  -32.8819 H   0  0  0  0  0  0  0  0  0  0  0  0
   -9.5290   22.7460  -32.4630 H   0  0  0  0  0  0  0  0  0  0  0  0
   -8.0622   24.6620  -30.0987 H   0  0  0  0  0  0  0  0  0  0  0  0
   -6.3380   26.1539  -29.0713 H   0  0  0  0  0  0  0  0  0  0  0  0
   -3.9358   25.8728  -29.7015 H   0  0  0  0  0  0  0  0  0  0  0  0
   -4.9372   22.7101  -32.3747 H   0  0  0  0  0  0  0  0  0  0  0  0
   -6.8140   20.7130  -32.8621 H   0  0  0  0  0  0  0  0  0  0  0  0
   -4.4185   20.5846  -33.5350 H   0  0  0  0  0  0  0  0  0  0  0  0
   -3.3651   21.3911  -32.1542 H   0  0  0  0  0  0  0  0  0  0  0  0
   -3.1032   22.1024  -29.7774 H   0  0  0  0  0  0  0  0  0  0  0  0
  1  2  1  0
  2  3  1  0
  2  4  1  0
  4  5  2  0
  5  6  1  0
  6  7  2  0
  7  8  1  0
  8  9  1  0
  9 10  1  0
  9 11  1  0
  7 12  1  0
 12 13  1  0
 13 14  2  0
 14 15  1  0
 15 16  2  0
 16 17  1  0
 17 18  2  0
 17 19  2  0
 17 20  1  0
 20 21  1  0
 21 22  2  0
 22 23  1  0
 23 24  2  0
 24 25  1  0
 25 26  1  0
 26 27  1  0
 27 28  1  0
 28 29  1  0
 29 30  1  0
 29 31  1  0
 31 32  2  0
 32 33  1  0
 33 34  2  0
 34 35  1  0
 35 36  2  0
 24 37  1  0
 37 38  2  0
 16 39  1  0
 39 40  2  0
 12  4  1  0
 40 13  1  0
 38 21  1  0
 36 31  1  0
  1 41  1  0
  1 42  1  0
  1 43  1  0
  2 44  1  0
  3 45  1  0
  3 46  1  0
  3 47  1  0
  6 48  1  0
  8 49  1  0
  8 50  1  0
 10 51  1  0
 10 52  1  0
 10 53  1  0
 11 54  1  0
 11 55  1  0
 11 56  1  0
 14 57  1  0
 15 58  1  0
 20 59  1  0
 22 60  1  0
 23 61  1  0
 25 62  1  0
 25 63  1  0
 26 64  1  0
 26 65  1  0
 27 66  1  0
 28 67  1  0
 28 68  1  0
 29 69  1  6
 30 70  1  0
 32 71  1  0
 33 72  1  0
 34 73  1  0
 36 74  1  0
 37 75  1  0
 38 76  1  0
 39 77  1  0
 40 78  1  0
M  END
>  <UniqueID>  (24) 
23

>  <SMILES>  (24) 
CC(C)c1ncc(CN(C)C)n1-c1ccc(S(=O)(=O)Nc2ccc(CCNC[C@@H](O)c3cccnc3)cc2)cc1

>  <Energy>  (24) 
109.15254363038676

>  <Genealogy>  (24) 
CC(C)c1ncc(CN(C)C)n1-c1ccc(S(=O)(=O)Nc2ccc(CCNC[C@@H](O)c3cccnc3)cc2)cc1 (chirality)
CC(C)c1ncc(CN(C)C)n1-c1ccc(S(=O)(=O)Nc2ccc(CCNC[C@@H](O)c3cccnc3)cc2)cc1 (3D coordinates assigned)
CC(C)c1ncc(CN(C)C)n1-c1ccc(S(=O)(=O)Nc2ccc(CCNC[C@@H](O)c3cccnc3)cc2)cc1 (optimized conformer: 109.15254363038676 kcal/mol)

>  <smiles>  (24) 
CC(C)c1ncc(CN(C)C)n1-c1ccc(S(=O)(=O)Nc2ccc(CCNCC(O)c3cccnc3)cc2)cc1

>  <score_type>  (24) 
oracle

>  <origin>  (24) 
adgpu

>  <m_score__min__energy>  (24) 
-10.890000000000001

>  <m_primary>  (24) 
energy

$$$$
24:0
     RDKit          3D

 60 63  0  0  1  0  0  0  0  0999 V2000
   -1.9120   30.8870  -25.2930 C   0  0  0  0  0  0  0  0  0  0  0  0
   -0.8120   30.1710  -24.9820 C   0  0  0  0  0  0  0  0  0  0  0  0
   -0.5450   29.0370  -25.8690 C   0  0  0  0  0  0  0  0  0  0  0  0
   -0.1800   29.3810  -27.0440 O   0  0  0  0  0  0  0  0  0  0  0  0
   -0.6750   27.6840  -25.4720 N   0  0  0  0  0  0  0  0  0  0  0  0
   -0.3820   26.5690  -26.3460 C   0  0  0  0  0  0  0  0  0  0  0  0
    0.7600   25.8410  -26.0650 C   0  0  0  0  0  0  0  0  0  0  0  0
    1.0050   24.7810  -26.9740 C   0  0  0  0  0  0  0  0  0  0  0  0
    0.1470   24.5370  -28.0290 C   0  0  0  0  0  0  0  0  0  0  0  0
   -0.9790   25.2690  -28.2930 C   0  0  0  0  0  0  0  0  0  0  0  0
   -1.9210   25.1110  -29.3010 N   0  0  0  0  0  0  0  0  0  0  0  0
   -2.9180   24.3740  -29.3520 C   0  0  0  0  0  0  0  0  0  0  0  0
   -3.7250   24.3380  -30.4050 N   0  0  0  0  0  0  0  0  0  0  0  0
   -4.8160   23.5750  -30.5340 C   0  0  0  0  0  0  0  0  0  0  0  0
   -5.5200   23.5580  -31.5900 N   0  0  0  0  0  0  0  0  0  0  0  0
   -6.6780   22.7850  -31.8170 C   0  0  0  0  0  0  0  0  0  0  0  0
   -7.9610   23.1540  -31.5410 C   0  0  0  0  0  0  0  0  0  0  0  0
   -8.9960   22.2900  -31.7740 C   0  0  0  0  0  0  0  0  0  0  0  0
   -8.8260   21.0160  -32.2890 C   0  0  0  0  0  0  0  0  0  0  0  0
   -7.5340   20.6290  -32.5700 C   0  0  0  0  0  0  0  0  0  0  0  0
   -7.2700   19.3280  -33.0530 N   0  0  0  0  0  0  0  0  0  0  0  0
   -6.6060   18.2840  -32.3930 C   0  0  0  0  0  0  0  0  0  0  0  0
   -6.1320   18.3820  -31.2150 O   0  0  0  0  0  0  0  0  0  0  0  0
   -6.4720   16.9930  -33.1610 C   0  0  0  0  0  0  0  0  0  0  0  0
   -5.4200   16.1290  -32.5590 C   0  0  0  0  0  0  0  0  0  0  0  0
   -4.9190   15.0720  -33.5330 C   0  0  0  0  0  0  0  0  0  0  0  0
   -4.4570   15.6220  -34.7250 O   0  0  0  0  0  0  0  0  0  0  0  0
   -4.6360   17.0040  -34.7650 C   0  0  0  0  0  0  0  0  0  0  0  0
   -6.1200   17.3380  -34.5830 C   0  0  0  0  0  0  0  0  0  0  0  0
   -6.4700   21.5050  -32.3360 C   0  0  0  0  0  0  0  0  0  0  0  0
   -5.1310   22.7730  -29.5140 N   0  0  0  0  0  0  0  0  0  0  0  0
   -4.3580   22.7450  -28.3930 C   0  0  0  0  0  0  0  0  0  0  0  0
   -3.2410   23.5370  -28.2850 C   0  0  0  0  0  0  0  0  0  0  0  0
   -2.2450   23.4550  -26.8530 Cl  0  0  0  0  0  0  0  0  0  0  0  0
   -1.2240   26.3320  -27.3810 C   0  0  0  0  0  0  0  0  0  0  0  0
   -2.1923   31.7578  -24.6822 H   0  0  0  0  0  0  0  0  0  0  0  0
   -2.5288   30.6001  -26.1574 H   0  0  0  0  0  0  0  0  0  0  0  0
   -0.1653   30.4199  -24.1277 H   0  0  0  0  0  0  0  0  0  0  0  0
   -0.9980   27.5210  -24.4910 H   0  0  0  0  0  0  0  0  0  0  0  0
    1.4188   26.0644  -25.2129 H   0  0  0  0  0  0  0  0  0  0  0  0
    1.8910   24.1436  -26.8373 H   0  0  0  0  0  0  0  0  0  0  0  0
    0.3844   23.6992  -28.7011 H   0  0  0  0  0  0  0  0  0  0  0  0
   -3.4870   24.9600  -31.2110 H   0  0  0  0  0  0  0  0  0  0  0  0
   -8.1655   24.1529  -31.1283 H   0  0  0  0  0  0  0  0  0  0  0  0
  -10.0172   22.6252  -31.5398 H   0  0  0  0  0  0  0  0  0  0  0  0
   -9.6804   20.3459  -32.4651 H   0  0  0  0  0  0  0  0  0  0  0  0
   -7.6280   19.1470  -34.0480 H   0  0  0  0  0  0  0  0  0  0  0  0
   -7.4178   16.4325  -33.1264 H   0  0  0  0  0  0  0  0  0  0  0  0
   -4.5727   16.7614  -32.2555 H   0  0  0  0  0  0  0  0  0  0  0  0
   -5.8615   15.6107  -31.6950 H   0  0  0  0  0  0  0  0  0  0  0  0
   -4.0965   14.5167  -33.0586 H   0  0  0  0  0  0  0  0  0  0  0  0
   -5.7655   14.4125  -33.7751 H   0  0  0  0  0  0  0  0  0  0  0  0
   -4.0542   17.4716  -33.9570 H   0  0  0  0  0  0  0  0  0  0  0  0
   -4.2928   17.3878  -35.7371 H   0  0  0  0  0  0  0  0  0  0  0  0
   -6.2925   18.4087  -34.7667 H   0  0  0  0  0  0  0  0  0  0  0  0
   -6.7419   16.7719  -35.2921 H   0  0  0  0  0  0  0  0  0  0  0  0
   -5.4450   21.1786  -32.5660 H   0  0  0  0  0  0  0  0  0  0  0  0
   -5.9750   22.1670  -29.5080 H   0  0  0  0  0  0  0  0  0  0  0  0
   -4.6322   22.0784  -27.5620 H   0  0  0  0  0  0  0  0  0  0  0  0
   -2.1091   26.9707  -27.5175 H   0  0  0  0  0  0  0  0  0  0  0  0
  1  2  2  0
  2  3  1  0
  3  4  2  0
  3  5  1  0
  5  6  1  0
  6  7  2  0
  7  8  1  0
  8  9  2  0
  9 10  1  0
 10 11  1  0
 11 12  2  0
 12 13  1  0
 13 14  1  0
 14 15  2  0
 15 16  1  0
 16 17  2  0
 17 18  1  0
 18 19  2  0
 19 20  1  0
 20 21  1  0
 21 22  1  0
 22 23  2  0
 22 24  1  0
 24 25  1  0
 25 26  1  0
 26 27  1  0
 27 28  1  0
 28 29  1  0
 20 30  2  0
 14 31  1  0
 31 32  1  0
 32 33  2  0
 33 34  1  0
 10 35  2  0
 35  6  1  0
 33 12  1  0
 30 16  1  0
 29 24  1  0
  1 36  1  0
  1 37  1  0
  2 38  1  0
  5 39  1  0
  7 40  1  0
  8 41  1  0
  9 42  1  0
 13 43  1  0
 17 44  1  0
 18 45  1  0
 19 46  1  0
 21 47  1  0
 24 48  1  0
 25 49  1  0
 25 50  1  0
 26 51  1  0
 26 52  1  0
 28 53  1  0
 28 54  1  0
 29 55  1  0
 29 56  1  0
 30 57  1  0
 31 58  1  0
 32 59  1  0
 35 60  1  0
M  END
>  <smiles>  (25) 
C=CC(=O)Nc1cccc(N=c2[nH]c(=Nc3cccc(NC(=O)C4CCOCC4)c3)[nH]cc2Cl)c1

>  <score_type>  (25) 
oracle

>  <origin>  (25) 
adgpu

>  <m_score__min__energy>  (25) 
-10.699999999999999

>  <m_primary>  (25) 
energy

$$$$
25:0
     RDKit          3D

 42 44  0  0  0  0  0  0  0  0999 V2000
   -0.7579   24.8996  -23.3680 H   0  0  0  0  0  0  0  0  0  0  0  0
   -0.7790   25.6820  -24.1410 C   0  0  0  0  0  0  0  0  0  0  0  0
   -0.8060   26.9930  -23.7800 N   0  0  0  0  0  0  0  0  0  0  0  0
   -0.8320   27.9870  -24.7060 C   0  0  0  0  0  0  0  0  0  0  0  0
   -0.8515   29.0381  -24.3824 H   0  0  0  0  0  0  0  0  0  0  0  0
   -0.8340   27.6770  -26.0680 C   0  0  0  0  0  0  0  0  0  0  0  0
   -0.8457   28.4812  -26.8184 H   0  0  0  0  0  0  0  0  0  0  0  0
   -0.8210   26.3310  -26.4740 C   0  0  0  0  0  0  0  0  0  0  0  0
   -0.8180   25.9690  -27.9120 C   0  0  0  0  0  0  0  0  0  0  0  0
   -1.2420   26.8000  -28.7570 O   0  0  0  0  0  0  0  0  0  0  0  0
   -0.3950   24.6760  -28.3730 N   0  0  0  0  0  0  0  0  0  0  0  0
   -1.0640   23.8980  -29.1750 C   0  0  0  0  0  0  0  0  0  0  0  0
   -2.3140   24.2360  -29.6040 N   0  0  0  0  0  0  0  0  0  0  0  0
   -3.0380   23.4270  -30.4230 C   0  0  0  0  0  0  0  0  0  0  0  0
   -4.0398   23.7358  -30.7561 H   0  0  0  0  0  0  0  0  0  0  0  0
   -2.5090   22.2040  -30.8410 C   0  0  0  0  0  0  0  0  0  0  0  0
   -3.4570   21.1160  -31.9080 S   0  0  0  0  0  0  0  0  0  0  0  0
   -4.6510   22.3880  -32.4640 C   0  0  0  0  0  0  0  0  0  0  0  0
   -4.5990   22.4672  -33.5599 H   0  0  0  0  0  0  0  0  0  0  0  0
   -4.3810   23.3381  -31.9798 H   0  0  0  0  0  0  0  0  0  0  0  0
   -6.0720   22.0530  -32.0670 C   0  0  0  0  0  0  0  0  0  0  0  0
   -6.6570   20.8980  -32.6240 C   0  0  0  0  0  0  0  0  0  0  0  0
   -6.0630   20.2577  -33.2928 H   0  0  0  0  0  0  0  0  0  0  0  0
   -7.9780   20.5560  -32.3390 C   0  0  0  0  0  0  0  0  0  0  0  0
   -8.4208   19.6540  -32.7867 H   0  0  0  0  0  0  0  0  0  0  0  0
   -8.7380   21.3550  -31.4880 C   0  0  0  0  0  0  0  0  0  0  0  0
   -9.7812   21.0853  -31.2668 H   0  0  0  0  0  0  0  0  0  0  0  0
   -8.1770   22.4970  -30.9160 C   0  0  0  0  0  0  0  0  0  0  0  0
   -8.7837   23.1211  -30.2433 H   0  0  0  0  0  0  0  0  0  0  0  0
   -6.8460   22.8610  -31.1880 C   0  0  0  0  0  0  0  0  0  0  0  0
   -6.1940   24.3100  -30.3940 S   0  0  0  0  0  0  0  0  0  0  0  0
   -5.1890   24.9770  -31.2900 O   0  0  0  0  0  0  0  0  0  0  0  0
   -7.3000   25.2900  -30.1200 O   0  0  0  0  0  0  0  0  0  0  0  0
   -5.4120   23.8810  -28.9150 N   0  0  0  0  0  0  0  0  0  0  0  0
   -5.7950   22.9540  -28.6210 H   0  0  0  0  0  0  0  0  0  0  0  0
   -5.7140   24.5740  -28.1950 H   0  0  0  0  0  0  0  0  0  0  0  0
   -1.2270   21.8360  -30.4200 C   0  0  0  0  0  0  0  0  0  0  0  0
   -0.7911   20.8821  -30.7518 H   0  0  0  0  0  0  0  0  0  0  0  0
   -0.5010   22.6810  -29.5780 C   0  0  0  0  0  0  0  0  0  0  0  0
    0.5036   22.3933  -29.2346 H   0  0  0  0  0  0  0  0  0  0  0  0
   -0.7780   25.3280  -25.4920 C   0  0  0  0  0  0  0  0  0  0  0  0
   -0.7437   24.2684  -25.7855 H   0  0  0  0  0  0  0  0  0  0  0  0
  1  2  1  0
  2  3  2  0
  3  4  1  0
  4  5  1  0
  4  6  2  0
  6  7  1  0
  6  8  1  0
  8  9  1  0
  9 10  2  0
  9 11  1  0
 11 12  2  0
 12 13  1  0
 13 14  1  0
 14 15  1  0
 14 16  2  0
 16 17  1  0
 17 18  1  0
 18 19  1  0
 18 20  1  0
 18 21  1  0
 21 22  2  0
 22 23  1  0
 22 24  1  0
 24 25  1  0
 24 26  2  0
 26 27  1  0
 26 28  1  0
 28 29  1  0
 28 30  2  0
 30 31  1  0
 31 32  2  0
 31 33  2  0
 31 34  1  0
 34 35  1  0
 34 36  1  0
 16 37  1  0
 37 38  1  0
 37 39  2  0
 39 40  1  0
  8 41  2  0
 41 42  1  0
 41  2  1  0
 39 12  1  0
 30 21  1  0
M  CHG  1  13  -1
M  END
>  <UniqueID>  (26) 
24

>  <SMILES>  (26) 
NS(=O)(=O)c1ccccc1CSc1cc/c(=N/C(=O)c2ccncc2)[n-]c1

>  <Energy>  (26) 
51.06229217526952

>  <Genealogy>  (26) 
NS(=O)(=O)c1ccccc1CSc1ccc(=NC(=O)c2ccncc2)[n-]c1 (protonated)
NS(=O)(=O)c1ccccc1CSc1cc/c(=N/C(=O)c2ccncc2)[n-]c1 (cis-trans isomerization)
NS(=O)(=O)c1ccccc1CSc1cc/c(=N/C(=O)c2ccncc2)[n-]c1 (3D coordinates assigned)
NS(=O)(=O)c1ccccc1CSc1cc/c(=N/C(=O)c2ccncc2)[n-]c1 (optimized conformer: 51.06229217526952 kcal/mol)

>  <smiles>  (26) 
NS(=O)(=O)c1ccccc1CSc1ccc(=NC(=O)c2ccncc2)[nH]c1

>  <score_type>  (26) 
oracle

>  <origin>  (26) 
adgpu

>  <m_score__min__energy>  (26) 
-10.779999999999999

>  <m_primary>  (26) 
energy

$$$$
26:0
     RDKit          3D

 41 43  0  0  0  0  0  0  0  0999 V2000
   -4.4040   25.6190  -30.8730 O   0  0  0  0  0  0  0  0  0  0  0  0
   -4.9980   24.5960  -29.9490 S   0  0  0  0  0  0  0  0  0  0  0  0
   -6.3700   25.0630  -29.5480 O   0  0  0  0  0  0  0  0  0  0  0  0
   -3.9960   24.4530  -28.5390 N   0  0  0  0  0  0  0  0  0  0  0  0
   -2.7550   23.7330  -28.4670 C   0  0  0  0  0  0  0  0  0  0  0  0
   -2.6830   22.4080  -27.9930 C   0  0  0  0  0  0  0  0  0  0  0  0
   -1.4550   21.7430  -27.9480 C   0  0  0  0  0  0  0  0  0  0  0  0
   -0.2900   22.3830  -28.3820 C   0  0  0  0  0  0  0  0  0  0  0  0
   -0.3510   23.6990  -28.8490 C   0  0  0  0  0  0  0  0  0  0  0  0
   -1.5760   24.3740  -28.8870 C   0  0  0  0  0  0  0  0  0  0  0  0
   -1.6220   25.6850  -29.3460 O   0  0  0  0  0  0  0  0  0  0  0  0
   -5.0760   23.0480  -30.7890 C   0  0  0  0  0  0  0  0  0  0  0  0
   -3.8930   22.4280  -31.2130 C   0  0  0  0  0  0  0  0  0  0  0  0
   -3.9410   21.1870  -31.8510 C   0  0  0  0  0  0  0  0  0  0  0  0
   -5.1680   20.5540  -32.0650 C   0  0  0  0  0  0  0  0  0  0  0  0
   -6.3570   21.1640  -31.6400 C   0  0  0  0  0  0  0  0  0  0  0  0
   -7.9040   20.3410  -31.8190 S   0  0  0  0  0  0  0  0  0  0  0  0
   -8.6020   20.7770  -33.0760 O   0  0  0  0  0  0  0  0  0  0  0  0
   -8.7750   20.6780  -30.6410 O   0  0  0  0  0  0  0  0  0  0  0  0
   -7.6520   18.6260  -31.8740 N   0  0  0  0  0  0  0  0  0  0  0  0
   -6.6320   17.9540  -32.6340 C   0  0  0  0  0  0  0  0  0  0  0  0
   -6.0260   16.7700  -32.1680 C   0  0  0  0  0  0  0  0  0  0  0  0
   -5.0490   16.1280  -32.9330 C   0  0  0  0  0  0  0  0  0  0  0  0
   -4.6590   16.6580  -34.1620 C   0  0  0  0  0  0  0  0  0  0  0  0
   -5.2470   17.8350  -34.6330 C   0  0  0  0  0  0  0  0  0  0  0  0
   -6.2380   18.4810  -33.8830 C   0  0  0  0  0  0  0  0  0  0  0  0
   -6.8250   19.6330  -34.4040 O   0  0  0  0  0  0  0  0  0  0  0  0
   -6.3080   22.4170  -31.0170 C   0  0  0  0  0  0  0  0  0  0  0  0
   -3.5966   21.8955  -27.6573 H   0  0  0  0  0  0  0  0  0  0  0  0
   -1.4045   20.7114  -27.5695 H   0  0  0  0  0  0  0  0  0  0  0  0
    0.6728   21.8517  -28.3559 H   0  0  0  0  0  0  0  0  0  0  0  0
    0.5654   24.2048  -29.1872 H   0  0  0  0  0  0  0  0  0  0  0  0
   -2.9241   22.9203  -31.0428 H   0  0  0  0  0  0  0  0  0  0  0  0
   -3.0101   20.7063  -32.1861 H   0  0  0  0  0  0  0  0  0  0  0  0
   -5.2014   19.5760  -32.5674 H   0  0  0  0  0  0  0  0  0  0  0  0
   -6.3239   16.3490  -31.1964 H   0  0  0  0  0  0  0  0  0  0  0  0
   -4.5858   15.2009  -32.5642 H   0  0  0  0  0  0  0  0  0  0  0  0
   -3.8887   16.1499  -34.7608 H   0  0  0  0  0  0  0  0  0  0  0  0
   -4.9298   18.2565  -35.5982 H   0  0  0  0  0  0  0  0  0  0  0  0
   -7.7810   19.8970  -34.1950 H   0  0  0  0  0  0  0  0  0  0  0  0
   -7.2407   22.9093  -30.7046 H   0  0  0  0  0  0  0  0  0  0  0  0
  1  2  2  0
  2  3  2  0
  2  4  1  0
  4  5  1  0
  5  6  2  0
  6  7  1  0
  7  8  2  0
  8  9  1  0
  9 10  2  0
 10 11  1  0
  2 12  1  0
 12 13  2  0
 13 14  1  0
 14 15  2  0
 15 16  1  0
 16 17  1  0
 17 18  2  0
 17 19  2  0
 17 20  1  0
 20 21  1  0
 21 22  2  0
 22 23  1  0
 23 24  2  0
 24 25  1  0
 25 26  2  0
 26 27  1  0
 16 28  2  0
 10  5  1  0
 28 12  1  0
 26 21  1  0
  6 29  1  0
  7 30  1  0
  8 31  1  0
  9 32  1  0
 13 33  1  0
 14 34  1  0
 15 35  1  0
 22 36  1  0
 23 37  1  0
 24 38  1  0
 25 39  1  0
 27 40  1  0
 28 41  1  0
M  CHG  3   4  -1  11  -1  20  -1
M  END
>  <UniqueID>  (27) 
25

>  <SMILES>  (27) 
O=S(=O)([N-]c1ccccc1[O-])c1cccc(S(=O)(=O)[N-]c2ccccc2O)c1

>  <Energy>  (27) 
48.61132255689461

>  <Genealogy>  (27) 
O=S(=O)([N-]c1ccccc1[O-])c1cccc(S(=O)(=O)[N-]c2ccccc2O)c1 (protonated)
O=S(=O)([N-]c1ccccc1[O-])c1cccc(S(=O)(=O)[N-]c2ccccc2O)c1 (3D coordinates assigned)
O=S(=O)([N-]c1ccccc1[O-])c1cccc(S(=O)(=O)[N-]c2ccccc2O)c1 (optimized conformer: 48.61132255689461 kcal/mol)

>  <smiles>  (27) 
O=S(=O)(Nc1ccccc1O)c1cccc(S(=O)(=O)Nc2ccccc2O)c1

>  <score_type>  (27) 
oracle

>  <origin>  (27) 
adgpu

>  <m_score__min__energy>  (27) 
-13.06

>  <m_primary>  (27) 
energy

$$$$
27:0
     RDKit          3D

 27 28  0  0  0  0  0  0  0  0999 V2000
   -2.3070   21.6150  -33.1720 N   0  0  0  0  0  0  0  0  0  0  0  0
   -3.4140   20.8610  -32.5860 C   0  0  0  0  0  0  0  0  0  0  0  0
   -4.5850   21.7650  -32.2780 C   0  0  0  0  0  0  0  0  0  0  0  0
   -4.3210   23.0410  -31.8890 N   0  0  0  0  0  0  0  0  0  0  0  0
   -5.2950   23.8860  -31.5540 N   0  0  0  0  0  0  0  0  0  0  0  0
   -4.9860   25.1720  -31.1730 O   0  0  0  0  0  0  0  0  0  0  0  0
   -6.5910   23.4910  -31.5810 C   0  0  0  0  0  0  0  0  0  0  0  0
   -6.8940   22.1860  -31.9640 C   0  0  0  0  0  0  0  0  0  0  0  0
   -8.1010   21.8150  -31.9890 O   0  0  0  0  0  0  0  0  0  0  0  0
   -5.8880   21.3260  -32.3080 N   0  0  0  0  0  0  0  0  0  0  0  0
   -6.2150   19.9810  -32.7030 C   0  0  0  0  0  0  0  0  0  0  0  0
   -7.0020   19.1730  -31.8670 C   0  0  0  0  0  0  0  0  0  0  0  0
   -7.3320   17.8720  -32.2590 C   0  0  0  0  0  0  0  0  0  0  0  0
   -6.8870   17.3760  -33.4870 C   0  0  0  0  0  0  0  0  0  0  0  0
   -6.1130   18.1810  -34.3290 C   0  0  0  0  0  0  0  0  0  0  0  0
   -5.7800   19.4830  -33.9400 C   0  0  0  0  0  0  0  0  0  0  0  0
   -2.3590   22.6050  -32.8430 H   0  0  0  0  0  0  0  0  0  0  0  0
   -2.4170   21.6210  -34.2130 H   0  0  0  0  0  0  0  0  0  0  0  0
   -3.7361   20.0852  -33.2963 H   0  0  0  0  0  0  0  0  0  0  0  0
   -3.0678   20.4053  -31.6466 H   0  0  0  0  0  0  0  0  0  0  0  0
   -4.2120   25.6680  -31.6000 H   0  0  0  0  0  0  0  0  0  0  0  0
   -7.3930   24.1912  -31.3043 H   0  0  0  0  0  0  0  0  0  0  0  0
   -7.3593   19.5637  -30.9028 H   0  0  0  0  0  0  0  0  0  0  0  0
   -7.9429   17.2380  -31.5995 H   0  0  0  0  0  0  0  0  0  0  0  0
   -7.1457   16.3513  -33.7919 H   0  0  0  0  0  0  0  0  0  0  0  0
   -5.7661   17.7905  -35.2971 H   0  0  0  0  0  0  0  0  0  0  0  0
   -5.1760   20.1173  -34.6055 H   0  0  0  0  0  0  0  0  0  0  0  0
  1  2  1  0
  2  3  1  0
  3  4  2  0
  4  5  1  0
  5  6  1  0
  5  7  2  0
  7  8  1  0
  8  9  2  0
  8 10  1  0
 10 11  1  0
 11 12  2  0
 12 13  1  0
 13 14  2  0
 14 15  1  0
 15 16  2  0
 10  3  1  0
 16 11  1  0
  1 17  1  0
  1 18  1  0
  2 19  1  0
  2 20  1  0
  6 21  1  0
  7 22  1  0
 12 23  1  0
 13 24  1  0
 14 25  1  0
 15 26  1  0
 16 27  1  0
M  CHG  1   5   1
M  END
>  <UniqueID>  (28) 
26

>  <SMILES>  (28) 
NCc1n[n+](O)cc(=O)n1-c1ccccc1

>  <Energy>  (28) 
36.8201510088716

>  <Genealogy>  (28) 
NCc1n[n+](O)cc(=O)n1-c1ccccc1 (protonated)
NCc1n[n+](O)cc(=O)n1-c1ccccc1 (3D coordinates assigned)
NCc1n[n+](O)cc(=O)n1-c1ccccc1 (optimized conformer: 36.8201510088716 kcal/mol)

>  <smiles>  (28) 
NCc1n[n+]([O-])cc(=O)n1-c1ccccc1

>  <score_type>  (28) 
oracle

>  <origin>  (28) 
adgpu

>  <m_score__min__energy>  (28) 
-6.6500000000000004

>  <m_primary>  (28) 
energy

$$$$
28:0
     RDKit          3D

 59 62  0  0  0  0  0  0  0  0999 V2000
    4.2090   18.0010  -31.6780 C   0  0  0  0  0  0  0  0  0  0  0  0
    3.3710   16.6800  -32.6100 S   0  0  0  0  0  0  0  0  0  0  0  0
    2.6170   17.8020  -33.7890 C   0  0  0  0  0  0  0  0  0  0  0  0
    2.6090   17.6110  -35.4420 S   0  0  0  0  0  0  0  0  0  0  0  0
    1.5910   18.8470  -35.8850 N   0  0  0  0  0  0  0  0  0  0  0  0
    1.2140   19.4320  -34.7170 C   0  0  0  0  0  0  0  0  0  0  0  0
    0.0840   20.7760  -34.7090 S   0  0  0  0  0  0  0  0  0  0  0  0
    0.6550   21.9030  -33.8930 O   0  0  0  0  0  0  0  0  0  0  0  0
   -0.1250   21.2680  -36.1140 O   0  0  0  0  0  0  0  0  0  0  0  0
   -1.4560   20.2410  -34.0440 C   0  0  0  0  0  0  0  0  0  0  0  0
   -1.7790   18.8770  -33.9870 C   0  0  0  0  0  0  0  0  0  0  0  0
   -3.0110   18.4680  -33.4690 C   0  0  0  0  0  0  0  0  0  0  0  0
   -3.9280   19.4170  -32.9910 C   0  0  0  0  0  0  0  0  0  0  0  0
   -5.2680   18.9820  -32.4730 C   0  0  0  0  0  0  0  0  0  0  0  0
   -3.6110   20.7810  -33.0670 C   0  0  0  0  0  0  0  0  0  0  0  0
   -2.3790   21.1900  -33.5860 C   0  0  0  0  0  0  0  0  0  0  0  0
    1.7680   18.8760  -33.5370 C   0  0  0  0  0  0  0  0  0  0  0  0
    1.3700   19.2800  -32.2210 N   0  0  0  0  0  0  0  0  0  0  0  0
    0.6090   18.4410  -31.3490 C   0  0  0  0  0  0  0  0  0  0  0  0
    0.3460   17.2540  -31.6800 O   0  0  0  0  0  0  0  0  0  0  0  0
    0.1520   18.9640  -30.0960 N   0  0  0  0  0  0  0  0  0  0  0  0
   -0.5230   20.2150  -29.8950 C   0  0  0  0  0  0  0  0  0  0  0  0
   -0.5110   21.2300  -30.8690 C   0  0  0  0  0  0  0  0  0  0  0  0
   -1.2050   22.4240  -30.6490 C   0  0  0  0  0  0  0  0  0  0  0  0
   -1.9300   22.6140  -29.4660 C   0  0  0  0  0  0  0  0  0  0  0  0
   -2.8180   24.1150  -29.1940 S   0  0  0  0  0  0  0  0  0  0  0  0
   -1.8680   25.2750  -29.3050 O   0  0  0  0  0  0  0  0  0  0  0  0
   -3.3820   24.1090  -27.8010 O   0  0  0  0  0  0  0  0  0  0  0  0
   -4.1150   24.3240  -30.3440 N   0  0  0  0  0  0  0  0  0  0  0  0
   -5.2940   24.9130  -29.6880 C   0  0  0  0  0  0  0  0  0  0  0  0
   -6.5040   24.9190  -30.6460 C   0  0  0  0  0  0  0  0  0  0  0  0
   -6.1210   24.5560  -31.9600 O   0  0  0  0  0  0  0  0  0  0  0  0
   -5.6270   23.2290  -31.9640 C   0  0  0  0  0  0  0  0  0  0  0  0
   -4.4690   23.0370  -30.9620 C   0  0  0  0  0  0  0  0  0  0  0  0
   -1.9620   21.5920  -28.5060 C   0  0  0  0  0  0  0  0  0  0  0  0
   -1.2680   20.3990  -28.7250 C   0  0  0  0  0  0  0  0  0  0  0  0
    4.0934   17.8188  -30.5994 H   0  0  0  0  0  0  0  0  0  0  0  0
    5.2783   18.0100  -31.9358 H   0  0  0  0  0  0  0  0  0  0  0  0
    3.7615   18.9722  -31.9358 H   0  0  0  0  0  0  0  0  0  0  0  0
   -1.0608   18.1275  -34.3509 H   0  0  0  0  0  0  0  0  0  0  0  0
   -3.2630   17.3978  -33.4358 H   0  0  0  0  0  0  0  0  0  0  0  0
   -5.2549   18.9862  -31.3731 H   0  0  0  0  0  0  0  0  0  0  0  0
   -6.0428   19.6747  -32.8332 H   0  0  0  0  0  0  0  0  0  0  0  0
   -5.4882   17.9662  -32.8332 H   0  0  0  0  0  0  0  0  0  0  0  0
   -4.3345   21.5320  -32.7169 H   0  0  0  0  0  0  0  0  0  0  0  0
   -2.1335   22.2611  -33.6349 H   0  0  0  0  0  0  0  0  0  0  0  0
    1.7620   20.1660  -31.8320 H   0  0  0  0  0  0  0  0  0  0  0  0
    0.0459   21.0841  -31.8063 H   0  0  0  0  0  0  0  0  0  0  0  0
   -1.1813   23.2184  -31.4095 H   0  0  0  0  0  0  0  0  0  0  0  0
   -5.5434   24.3217  -28.7946 H   0  0  0  0  0  0  0  0  0  0  0  0
   -5.0608   25.9503  -29.4056 H   0  0  0  0  0  0  0  0  0  0  0  0
   -7.2542   24.2023  -30.2804 H   0  0  0  0  0  0  0  0  0  0  0  0
   -6.9199   25.9370  -30.6740 H   0  0  0  0  0  0  0  0  0  0  0  0
   -6.4456   22.5451  -31.6952 H   0  0  0  0  0  0  0  0  0  0  0  0
   -5.2418   23.0143  -32.9717 H   0  0  0  0  0  0  0  0  0  0  0  0
   -4.7798   22.3306  -30.1782 H   0  0  0  0  0  0  0  0  0  0  0  0
   -3.5927   22.6419  -31.4968 H   0  0  0  0  0  0  0  0  0  0  0  0
   -2.5354   21.7300  -27.5775 H   0  0  0  0  0  0  0  0  0  0  0  0
   -1.3077   19.5984  -27.9717 H   0  0  0  0  0  0  0  0  0  0  0  0
  1  2  1  0
  2  3  1  0
  3  4  1  0
  4  5  1  0
  5  6  2  0
  6  7  1  0
  7  8  2  0
  7  9  2  0
  7 10  1  0
 10 11  2  0
 11 12  1  0
 12 13  2  0
 13 14  1  0
 13 15  1  0
 15 16  2  0
  6 17  1  0
 17 18  1  0
 18 19  1  0
 19 20  2  0
 19 21  1  0
 21 22  1  0
 22 23  2  0
 23 24  1  0
 24 25  2  0
 25 26  1  0
 26 27  2  0
 26 28  2  0
 26 29  1  0
 29 30  1  0
 30 31  1  0
 31 32  1  0
 32 33  1  0
 33 34  1  0
 25 35  1  0
 35 36  2  0
 17  3  2  0
 36 22  1  0
 16 10  1  0
 34 29  1  0
  1 37  1  0
  1 38  1  0
  1 39  1  0
 11 40  1  0
 12 41  1  0
 14 42  1  0
 14 43  1  0
 14 44  1  0
 15 45  1  0
 16 46  1  0
 18 47  1  0
 23 48  1  0
 24 49  1  0
 30 50  1  0
 30 51  1  0
 31 52  1  0
 31 53  1  0
 33 54  1  0
 33 55  1  0
 34 56  1  0
 34 57  1  0
 35 58  1  0
 36 59  1  0
M  CHG  1  21  -1
M  END
>  <UniqueID>  (29) 
27

>  <SMILES>  (29) 
CSc1snc(S(=O)(=O)c2ccc(C)cc2)c1NC(=O)[N-]c1ccc(S(=O)(=O)N2CCOCC2)cc1

>  <Energy>  (29) 
107.37840558848254

>  <Genealogy>  (29) 
CSc1snc(S(=O)(=O)c2ccc(C)cc2)c1NC(=O)[N-]c1ccc(S(=O)(=O)N2CCOCC2)cc1 (protonated)
CSc1snc(S(=O)(=O)c2ccc(C)cc2)c1NC(=O)[N-]c1ccc(S(=O)(=O)N2CCOCC2)cc1 (3D coordinates assigned)
CSc1snc(S(=O)(=O)c2ccc(C)cc2)c1NC(=O)[N-]c1ccc(S(=O)(=O)N2CCOCC2)cc1 (nonaromatic ring conformer: 107.37840558848254 kcal/mol)

>  <smiles>  (29) 
CSc1snc(S(=O)(=O)c2ccc(C)cc2)c1NC(=O)Nc1ccc(S(=O)(=O)N2CCOCC2)cc1

>  <score_type>  (29) 
oracle

>  <origin>  (29) 
adgpu

>  <m_score__min__energy>  (29) 
-11.73

>  <m_primary>  (29) 
energy

$$$$
29:0
     RDKit          3D

 50 54  0  0  0  0  0  0  0  0999 V2000
    1.8100   25.4510  -25.3580 C   0  0  0  0  0  0  0  0  0  0  0  0
    1.0000   24.9640  -26.5310 C   0  0  0  0  0  0  0  0  0  0  0  0
    1.1550   23.6280  -26.9390 C   0  0  0  0  0  0  0  0  0  0  0  0
    0.4190   23.1190  -28.0060 C   0  0  0  0  0  0  0  0  0  0  0  0
   -0.4950   23.9320  -28.6860 C   0  0  0  0  0  0  0  0  0  0  0  0
   -1.2940   23.3920  -29.7510 N   0  0  0  0  0  0  0  0  0  0  0  0
   -1.6880   22.0140  -29.8200 C   0  0  0  0  0  0  0  0  0  0  0  0
   -1.1770   21.1660  -29.0370 O   0  0  0  0  0  0  0  0  0  0  0  0
   -2.6920   21.6140  -30.7680 N   0  0  0  0  0  0  0  0  0  0  0  0
   -2.4380   20.6170  -31.7880 C   0  0  0  0  0  0  0  0  0  0  0  0
   -1.6760   19.4610  -31.5240 C   0  0  0  0  0  0  0  0  0  0  0  0
   -1.5740   18.4450  -32.4810 C   0  0  0  0  0  0  0  0  0  0  0  0
   -2.2430   18.5600  -33.7010 C   0  0  0  0  0  0  0  0  0  0  0  0
   -2.9980   19.7030  -33.9820 C   0  0  0  0  0  0  0  0  0  0  0  0
   -3.0740   20.7370  -33.0430 C   0  0  0  0  0  0  0  0  0  0  0  0
   -3.8660   22.2820  -33.4900 S   0  0  0  0  0  0  0  0  0  0  0  0
   -4.7100   22.4440  -31.9170 C   0  0  0  0  0  0  0  0  0  0  0  0
   -6.0420   22.8690  -31.8770 C   0  0  0  0  0  0  0  0  0  0  0  0
   -6.6550   23.1350  -30.6490 C   0  0  0  0  0  0  0  0  0  0  0  0
   -5.9390   22.9710  -29.4590 C   0  0  0  0  0  0  0  0  0  0  0  0
   -4.6170   22.5160  -29.4930 C   0  0  0  0  0  0  0  0  0  0  0  0
   -3.9930   22.2380  -30.7230 C   0  0  0  0  0  0  0  0  0  0  0  0
   -0.6630   25.2710  -28.2910 C   0  0  0  0  0  0  0  0  0  0  0  0
   -1.6010   26.0550  -28.9560 O   0  0  0  0  0  0  0  0  0  0  0  0
    0.1110   25.8130  -27.2410 C   0  0  0  0  0  0  0  0  0  0  0  0
   -0.0670   27.5360  -26.8050 S   0  0  0  0  0  0  0  0  0  0  0  0
    1.2770   28.0880  -26.4190 O   0  0  0  0  0  0  0  0  0  0  0  0
   -0.5510   28.3300  -27.9870 O   0  0  0  0  0  0  0  0  0  0  0  0
   -1.2020   27.7820  -25.4350 C   0  0  0  0  0  0  0  0  0  0  0  0
   -1.8050   26.4930  -24.8990 C   0  0  0  0  0  0  0  0  0  0  0  0
   -0.7670   27.2400  -24.0800 C   0  0  0  0  0  0  0  0  0  0  0  0
    1.3151   25.1534  -24.4218 H   0  0  0  0  0  0  0  0  0  0  0  0
    2.8160   25.0079  -25.3978 H   0  0  0  0  0  0  0  0  0  0  0  0
    1.8904   26.5473  -25.3978 H   0  0  0  0  0  0  0  0  0  0  0  0
    1.8660   22.9769  -26.4093 H   0  0  0  0  0  0  0  0  0  0  0  0
    0.5567   22.0726  -28.3160 H   0  0  0  0  0  0  0  0  0  0  0  0
   -1.5470   24.0180  -30.5530 H   0  0  0  0  0  0  0  0  0  0  0  0
   -1.1580   19.3567  -30.5592 H   0  0  0  0  0  0  0  0  0  0  0  0
   -0.9650   17.5533  -32.2714 H   0  0  0  0  0  0  0  0  0  0  0  0
   -2.1761   17.7502  -34.4424 H   0  0  0  0  0  0  0  0  0  0  0  0
   -3.5314   19.7889  -34.9402 H   0  0  0  0  0  0  0  0  0  0  0  0
   -6.6075   22.9940  -32.8122 H   0  0  0  0  0  0  0  0  0  0  0  0
   -7.7012   23.4735  -30.6188 H   0  0  0  0  0  0  0  0  0  0  0  0
   -6.4163   23.2002  -28.4948 H   0  0  0  0  0  0  0  0  0  0  0  0
   -4.0624   22.3748  -28.5536 H   0  0  0  0  0  0  0  0  0  0  0  0
   -1.5801   28.7546  -25.7829 H   0  0  0  0  0  0  0  0  0  0  0  0
   -2.8543   26.4725  -24.5695 H   0  0  0  0  0  0  0  0  0  0  0  0
   -1.9032   25.4649  -25.2776 H   0  0  0  0  0  0  0  0  0  0  0  0
   -1.0646   27.7608  -23.1580 H   0  0  0  0  0  0  0  0  0  0  0  0
    0.1973   26.9775  -23.6204 H   0  0  0  0  0  0  0  0  0  0  0  0
  1  2  1  0
  2  3  2  0
  3  4  1  0
  4  5  2  0
  5  6  1  0
  6  7  1  0
  7  8  2  0
  7  9  1  0
  9 10  1  0
 10 11  2  0
 11 12  1  0
 12 13  2  0
 13 14  1  0
 14 15  2  0
 15 16  1  0
 16 17  1  0
 17 18  2  0
 18 19  1  0
 19 20  2  0
 20 21  1  0
 21 22  2  0
  5 23  1  0
 23 24  1  0
 23 25  2  0
 25 26  1  0
 26 27  2  0
 26 28  2  0
 26 29  1  0
 29 30  1  0
 30 31  1  0
 25  2  1  0
 31 29  1  0
 22  9  1  0
 15 10  1  0
 22 17  1  0
  1 32  1  0
  1 33  1  0
  1 34  1  0
  3 35  1  0
  4 36  1  0
  6 37  1  0
 11 38  1  0
 12 39  1  0
 13 40  1  0
 14 41  1  0
 18 42  1  0
 19 43  1  0
 20 44  1  0
 21 45  1  0
 29 46  1  0
 30 47  1  0
 30 48  1  0
 31 49  1  0
 31 50  1  0
M  CHG  1  24  -1
M  END
>  <UniqueID>  (30) 
28

>  <SMILES>  (30) 
Cc1ccc(NC(=O)N2c3ccccc3Sc3ccccc32)c([O-])c1S(=O)(=O)C1CC1

>  <Energy>  (30) 
350.2503780415573

>  <Genealogy>  (30) 
Cc1ccc(NC(=O)N2c3ccccc3Sc3ccccc32)c([O-])c1S(=O)(=O)C1CC1 (protonated)
Cc1ccc(NC(=O)N2c3ccccc3Sc3ccccc32)c([O-])c1S(=O)(=O)C1CC1 (3D coordinates assigned)
Cc1ccc(NC(=O)N2c3ccccc3Sc3ccccc32)c([O-])c1S(=O)(=O)C1CC1 (nonaromatic ring conformer: 350.2503780415573 kcal/mol)

>  <smiles>  (30) 
Cc1ccc(NC(=O)N2c3ccccc3Sc3ccccc32)c(O)c1S(=O)(=O)C1CC1

>  <score_type>  (30) 
oracle

>  <origin>  (30) 
adgpu

>  <m_score__min__energy>  (30) 
-11.42

>  <m_primary>  (30) 
energy

$$$$
30:0
     RDKit          3D

 40 42  0  0  0  0  0  0  0  0999 V2000
   -6.1270   25.9120  -30.3940 O   0  0  0  0  0  0  0  0  0  0  0  0
   -5.2890   25.0760  -30.8270 C   0  0  0  0  0  0  0  0  0  0  0  0
   -3.9070   25.1860  -30.4690 N   0  0  0  0  0  0  0  0  0  0  0  0
   -3.2150   24.3200  -29.5580 C   0  0  0  0  0  0  0  0  0  0  0  0
   -3.6210   22.9870  -29.4700 C   0  0  0  0  0  0  0  0  0  0  0  0
   -2.9670   22.1050  -28.6140 C   0  0  0  0  0  0  0  0  0  0  0  0
   -1.8920   22.5390  -27.8330 C   0  0  0  0  0  0  0  0  0  0  0  0
   -1.1040   21.3440  -26.8070 Cl  0  0  0  0  0  0  0  0  0  0  0  0
   -1.4570   23.8820  -27.9110 C   0  0  0  0  0  0  0  0  0  0  0  0
   -0.0790   24.4540  -26.9460 S   0  0  0  0  0  0  0  0  0  0  0  0
    0.2800   23.4390  -25.8970 O   0  0  0  0  0  0  0  0  0  0  0  0
    1.1260   24.6460  -27.8260 O   0  0  0  0  0  0  0  0  0  0  0  0
   -0.5460   25.9780  -26.1270 C   0  0  0  0  0  0  0  0  0  0  0  0
   -0.8610   25.8650  -24.6440 C   0  0  0  0  0  0  0  0  0  0  0  0
   -1.9900   26.0090  -25.6530 C   0  0  0  0  0  0  0  0  0  0  0  0
   -2.1010   24.7590  -28.8120 C   0  0  0  0  0  0  0  0  0  0  0  0
   -1.6120   26.0470  -29.0030 O   0  0  0  0  0  0  0  0  0  0  0  0
   -5.7170   23.9810  -31.6440 N   0  0  0  0  0  0  0  0  0  0  0  0
   -7.1140   23.7760  -32.0180 C   0  0  0  0  0  0  0  0  0  0  0  0
   -7.4400   22.3080  -32.0340 C   0  0  0  0  0  0  0  0  0  0  0  0
   -8.7160   21.8530  -31.6630 C   0  0  0  0  0  0  0  0  0  0  0  0
   -9.0030   20.4840  -31.6630 C   0  0  0  0  0  0  0  0  0  0  0  0
   -8.0190   19.5620  -32.0260 C   0  0  0  0  0  0  0  0  0  0  0  0
   -6.7450   20.0060  -32.3920 C   0  0  0  0  0  0  0  0  0  0  0  0
   -6.4540   21.3740  -32.3940 C   0  0  0  0  0  0  0  0  0  0  0  0
   -4.4635   22.6312  -30.0813 H   0  0  0  0  0  0  0  0  0  0  0  0
   -3.2989   21.0581  -28.5518 H   0  0  0  0  0  0  0  0  0  0  0  0
    0.1027   26.6324  -26.7278 H   0  0  0  0  0  0  0  0  0  0  0  0
   -0.7095   24.9094  -24.1207 H   0  0  0  0  0  0  0  0  0  0  0  0
   -0.5520   26.4092  -23.7394 H   0  0  0  0  0  0  0  0  0  0  0  0
   -2.6551   25.1575  -25.8595 H   0  0  0  0  0  0  0  0  0  0  0  0
   -2.8359   26.7006  -25.7804 H   0  0  0  0  0  0  0  0  0  0  0  0
   -4.9990   23.3100  -31.9990 H   0  0  0  0  0  0  0  0  0  0  0  0
   -7.7630   24.2839  -31.2894 H   0  0  0  0  0  0  0  0  0  0  0  0
   -7.2797   24.1903  -33.0234 H   0  0  0  0  0  0  0  0  0  0  0  0
   -9.4923   22.5758  -31.3714 H   0  0  0  0  0  0  0  0  0  0  0  0
  -10.0054   20.1331  -31.3766 H   0  0  0  0  0  0  0  0  0  0  0  0
   -8.2465   18.4858  -32.0239 H   0  0  0  0  0  0  0  0  0  0  0  0
   -5.9709   19.2790  -32.6786 H   0  0  0  0  0  0  0  0  0  0  0  0
   -5.4494   21.7200  -32.6785 H   0  0  0  0  0  0  0  0  0  0  0  0
  1  2  2  0
  2  3  1  0
  3  4  1  0
  4  5  2  0
  5  6  1  0
  6  7  2  0
  7  8  1  0
  7  9  1  0
  9 10  1  0
 10 11  2  0
 10 12  2  0
 10 13  1  0
 13 14  1  0
 14 15  1  0
  9 16  2  0
 16 17  1  0
  2 18  1  0
 18 19  1  0
 19 20  1  0
 20 21  2  0
 21 22  1  0
 22 23  2  0
 23 24  1  0
 24 25  2  0
 16  4  1  0
 25 20  1  0
 15 13  1  0
  5 26  1  0
  6 27  1  0
 13 28  1  0
 14 29  1  0
 14 30  1  0
 15 31  1  0
 15 32  1  0
 18 33  1  0
 19 34  1  0
 19 35  1  0
 21 36  1  0
 22 37  1  0
 23 38  1  0
 24 39  1  0
 25 40  1  0
M  CHG  2   3  -1  17  -1
M  END
>  <UniqueID>  (31) 
29

>  <SMILES>  (31) 
O=C([N-]c1ccc(Cl)c(S(=O)(=O)C2CC2)c1[O-])NCc1ccccc1

>  <Energy>  (31) 
310.5039575776331

>  <Genealogy>  (31) 
O=C([N-]c1ccc(Cl)c(S(=O)(=O)C2CC2)c1[O-])NCc1ccccc1 (protonated)
O=C([N-]c1ccc(Cl)c(S(=O)(=O)C2CC2)c1[O-])NCc1ccccc1 (3D coordinates assigned)
O=C([N-]c1ccc(Cl)c(S(=O)(=O)C2CC2)c1[O-])NCc1ccccc1 (nonaromatic ring conformer: 310.5039575776331 kcal/mol)

>  <smiles>  (31) 
O=C(NCc1ccccc1)Nc1ccc(Cl)c(S(=O)(=O)C2CC2)c1O

>  <score_type>  (31) 
oracle

>  <origin>  (31) 
adgpu

>  <m_score__min__energy>  (31) 
-13.73

>  <m_primary>  (31) 
energy

$$$$
31:0
     RDKit          3D

 48 50  0  0  0  0  0  0  0  0999 V2000
   -3.3980   23.8010  -28.1920 C   0  0  0  0  0  0  0  0  0  0  0  0
   -3.0520   24.6920  -29.3390 C   0  0  0  0  0  0  0  0  0  0  0  0
   -1.9560   25.2970  -29.3290 O   0  0  0  0  0  0  0  0  0  0  0  0
   -3.9350   24.8950  -30.4420 N   0  0  0  0  0  0  0  0  0  0  0  0
   -5.1030   24.1320  -30.7590 C   0  0  0  0  0  0  0  0  0  0  0  0
   -5.7290   23.4070  -29.7470 C   0  0  0  0  0  0  0  0  0  0  0  0
   -6.9020   22.6990  -30.0100 C   0  0  0  0  0  0  0  0  0  0  0  0
   -7.4640   22.7080  -31.2920 C   0  0  0  0  0  0  0  0  0  0  0  0
   -9.0090   21.9150  -31.5670 S   0  0  0  0  0  0  0  0  0  0  0  0
   -9.8990   22.8430  -32.3450 O   0  0  0  0  0  0  0  0  0  0  0  0
   -9.6910   21.5850  -30.2730 O   0  0  0  0  0  0  0  0  0  0  0  0
   -8.7480   20.4770  -32.5010 N   0  0  0  0  0  0  0  0  0  0  0  0
   -7.5200   19.7420  -32.5710 C   0  0  0  0  0  0  0  0  0  0  0  0
   -7.5510   18.3580  -32.3350 C   0  0  0  0  0  0  0  0  0  0  0  0
   -6.3770   17.5980  -32.4010 C   0  0  0  0  0  0  0  0  0  0  0  0
   -5.1620   18.2210  -32.6860 C   0  0  0  0  0  0  0  0  0  0  0  0
   -5.1140   19.6030  -32.8900 C   0  0  0  0  0  0  0  0  0  0  0  0
   -3.5640   20.3910  -33.1690 S   0  0  0  0  0  0  0  0  0  0  0  0
   -3.8230   21.8060  -33.5950 O   0  0  0  0  0  0  0  0  0  0  0  0
   -2.8260   19.6880  -34.2730 O   0  0  0  0  0  0  0  0  0  0  0  0
   -2.6080   20.3810  -31.7080 N   0  0  0  0  0  0  0  0  0  0  0  0
   -1.2400   19.9040  -31.9700 C   0  0  0  0  0  0  0  0  0  0  0  0
   -0.2260   21.0590  -32.0570 C   0  0  0  0  0  0  0  0  0  0  0  0
   -0.1900   21.9070  -30.9140 O   0  0  0  0  0  0  0  0  0  0  0  0
   -1.4070   21.9350  -30.1890 C   0  0  0  0  0  0  0  0  0  0  0  0
   -2.6470   21.7130  -31.0700 C   0  0  0  0  0  0  0  0  0  0  0  0
   -6.2940   20.3590  -32.8360 C   0  0  0  0  0  0  0  0  0  0  0  0
   -6.8380   23.4330  -32.3080 C   0  0  0  0  0  0  0  0  0  0  0  0
   -5.6790   24.1630  -32.0370 C   0  0  0  0  0  0  0  0  0  0  0  0
   -3.1946   24.3249  -27.2464 H   0  0  0  0  0  0  0  0  0  0  0  0
   -4.4644   23.5360  -28.2423 H   0  0  0  0  0  0  0  0  0  0  0  0
   -2.7899   22.8857  -28.2423 H   0  0  0  0  0  0  0  0  0  0  0  0
   -5.2962   23.3928  -28.7358 H   0  0  0  0  0  0  0  0  0  0  0  0
   -7.3886   22.1297  -29.2043 H   0  0  0  0  0  0  0  0  0  0  0  0
   -8.5058   17.8668  -32.0962 H   0  0  0  0  0  0  0  0  0  0  0  0
   -6.4127   16.5122  -32.2285 H   0  0  0  0  0  0  0  0  0  0  0  0
   -4.2404   17.6240  -32.7503 H   0  0  0  0  0  0  0  0  0  0  0  0
   -0.9385   19.2290  -31.1555 H   0  0  0  0  0  0  0  0  0  0  0  0
   -1.2441   19.3855  -32.9401 H   0  0  0  0  0  0  0  0  0  0  0  0
    0.7758   20.6257  -32.1938 H   0  0  0  0  0  0  0  0  0  0  0  0
   -0.5444   21.6887  -32.9009 H   0  0  0  0  0  0  0  0  0  0  0  0
   -1.3760   21.1444  -29.4248 H   0  0  0  0  0  0  0  0  0  0  0  0
   -1.4984   22.9377  -29.7460 H   0  0  0  0  0  0  0  0  0  0  0  0
   -3.5501   21.7874  -30.4463 H   0  0  0  0  0  0  0  0  0  0  0  0
   -2.6605   22.4802  -31.8581 H   0  0  0  0  0  0  0  0  0  0  0  0
   -6.2545   21.4455  -33.0034 H   0  0  0  0  0  0  0  0  0  0  0  0
   -7.2589   23.4290  -33.3243 H   0  0  0  0  0  0  0  0  0  0  0  0
   -5.2149   24.7662  -32.8312 H   0  0  0  0  0  0  0  0  0  0  0  0
  1  2  1  0
  2  3  2  0
  2  4  1  0
  4  5  1  0
  5  6  2  0
  6  7  1  0
  7  8  2  0
  8  9  1  0
  9 10  2  0
  9 11  2  0
  9 12  1  0
 12 13  1  0
 13 14  2  0
 14 15  1  0
 15 16  2  0
 16 17  1  0
 17 18  1  0
 18 19  2  0
 18 20  2  0
 18 21  1  0
 21 22  1  0
 22 23  1  0
 23 24  1  0
 24 25  1  0
 25 26  1  0
 17 27  2  0
  8 28  1  0
 28 29  2  0
 29  5  1  0
 27 13  1  0
 26 21  1  0
  1 30  1  0
  1 31  1  0
  1 32  1  0
  6 33  1  0
  7 34  1  0
 14 35  1  0
 15 36  1  0
 16 37  1  0
 22 38  1  0
 22 39  1  0
 23 40  1  0
 23 41  1  0
 25 42  1  0
 25 43  1  0
 26 44  1  0
 26 45  1  0
 27 46  1  0
 28 47  1  0
 29 48  1  0
M  CHG  2   4  -1  12  -1
M  END
>  <UniqueID>  (32) 
30

>  <SMILES>  (32) 
CC(=O)[N-]c1ccc(S(=O)(=O)[N-]c2cccc(S(=O)(=O)N3CCOCC3)c2)cc1

>  <Energy>  (32) 
67.94950893594932

>  <Genealogy>  (32) 
CC(=O)[N-]c1ccc(S(=O)(=O)[N-]c2cccc(S(=O)(=O)N3CCOCC3)c2)cc1 (protonated)
CC(=O)[N-]c1ccc(S(=O)(=O)[N-]c2cccc(S(=O)(=O)N3CCOCC3)c2)cc1 (3D coordinates assigned)
CC(=O)[N-]c1ccc(S(=O)(=O)[N-]c2cccc(S(=O)(=O)N3CCOCC3)c2)cc1 (nonaromatic ring conformer: 67.94950893594932 kcal/mol)

>  <smiles>  (32) 
CC(=O)Nc1ccc(S(=O)(=O)Nc2cccc(S(=O)(=O)N3CCOCC3)c2)cc1

>  <score_type>  (32) 
oracle

>  <origin>  (32) 
adgpu

>  <m_score__min__energy>  (32) 
-11.43

>  <m_primary>  (32) 
energy

$$$$
32:0
     RDKit          3D

 62 65  0  0  0  0  0  0  0  0999 V2000
   -3.5510   19.7280  -32.0670 C   0  0  0  0  0  0  0  0  0  0  0  0
   -3.7820   21.1510  -32.5720 C   0  0  0  0  0  0  0  0  0  0  0  0
   -3.8690   22.1130  -31.4590 N   0  0  0  0  0  0  0  0  0  0  0  0
   -4.9230   23.0930  -31.4080 C   0  0  0  0  0  0  0  0  0  0  0  0
   -4.6400   24.2930  -31.1340 O   0  0  0  0  0  0  0  0  0  0  0  0
   -6.3330   22.7280  -31.6640 C   0  0  0  0  0  0  0  0  0  0  0  0
   -7.3230   23.7230  -31.7230 C   0  0  0  0  0  0  0  0  0  0  0  0
   -8.6550   23.3790  -31.9620 C   0  0  0  0  0  0  0  0  0  0  0  0
   -9.0150   22.0410  -32.1370 C   0  0  0  0  0  0  0  0  0  0  0  0
   -8.0420   21.0360  -32.0610 C   0  0  0  0  0  0  0  0  0  0  0  0
   -8.4980   19.3420  -32.2600 S   0  0  0  0  0  0  0  0  0  0  0  0
   -9.7910   19.2640  -33.0270 O   0  0  0  0  0  0  0  0  0  0  0  0
   -8.7240   18.7320  -30.9050 O   0  0  0  0  0  0  0  0  0  0  0  0
   -7.2680   18.4330  -33.1020 N   0  0  0  0  0  0  0  0  0  0  0  0
   -6.3700   17.7730  -32.1450 C   0  0  0  0  0  0  0  0  0  0  0  0
   -5.3250   16.9310  -32.9070 C   0  0  0  0  0  0  0  0  0  0  0  0
   -5.3230   17.1980  -34.2990 O   0  0  0  0  0  0  0  0  0  0  0  0
   -5.2380   18.5920  -34.5230 C   0  0  0  0  0  0  0  0  0  0  0  0
   -6.4980   19.3120  -34.0010 C   0  0  0  0  0  0  0  0  0  0  0  0
   -6.7060   21.3820  -31.8200 C   0  0  0  0  0  0  0  0  0  0  0  0
   -2.7500   22.2590  -30.5650 C   0  0  0  0  0  0  0  0  0  0  0  0
   -2.9210   22.6540  -29.2200 C   0  0  0  0  0  0  0  0  0  0  0  0
   -4.2610   22.8050  -28.7150 N   0  0  0  0  0  0  0  0  0  0  0  0
   -1.8090   22.8500  -28.4180 N   0  0  0  0  0  0  0  0  0  0  0  0
   -1.9150   23.2270  -26.9900 C   0  0  0  0  0  0  0  0  0  0  0  0
   -1.5780   24.6850  -26.7950 C   0  0  0  0  0  0  0  0  0  0  0  0
   -1.1970   25.4770  -27.8930 C   0  0  0  0  0  0  0  0  0  0  0  0
   -0.8590   26.8210  -27.7110 C   0  0  0  0  0  0  0  0  0  0  0  0
   -0.8960   27.3850  -26.4320 C   0  0  0  0  0  0  0  0  0  0  0  0
   -1.2730   26.6060  -25.3350 C   0  0  0  0  0  0  0  0  0  0  0  0
   -1.6130   25.2620  -25.5130 C   0  0  0  0  0  0  0  0  0  0  0  0
   -0.5540   22.6250  -28.9400 C   0  0  0  0  0  0  0  0  0  0  0  0
    0.4790   22.7810  -28.2320 O   0  0  0  0  0  0  0  0  0  0  0  0
   -0.3990   22.2240  -30.2240 N   0  0  0  0  0  0  0  0  0  0  0  0
   -1.4580   22.0370  -31.0410 C   0  0  0  0  0  0  0  0  0  0  0  0
   -1.2680   21.6690  -32.2310 O   0  0  0  0  0  0  0  0  0  0  0  0
   -3.5505   19.7249  -30.9670 H   0  0  0  0  0  0  0  0  0  0  0  0
   -4.3546   19.0733  -32.4352 H   0  0  0  0  0  0  0  0  0  0  0  0
   -2.5815   19.3611  -32.4352 H   0  0  0  0  0  0  0  0  0  0  0  0
   -2.9462   21.4375  -33.2273 H   0  0  0  0  0  0  0  0  0  0  0  0
   -4.7353   21.1715  -33.1204 H   0  0  0  0  0  0  0  0  0  0  0  0
   -7.0475   24.7783  -31.5802 H   0  0  0  0  0  0  0  0  0  0  0  0
   -9.4234   24.1645  -32.0126 H   0  0  0  0  0  0  0  0  0  0  0  0
  -10.0641   21.7759  -32.3348 H   0  0  0  0  0  0  0  0  0  0  0  0
   -5.8555   18.5350  -31.5411 H   0  0  0  0  0  0  0  0  0  0  0  0
   -6.9581   17.1156  -31.4878 H   0  0  0  0  0  0  0  0  0  0  0  0
   -4.3272   17.1573  -32.5030 H   0  0  0  0  0  0  0  0  0  0  0  0
   -5.5859   15.8712  -32.7704 H   0  0  0  0  0  0  0  0  0  0  0  0
   -4.3548   18.9874  -34.0000 H   0  0  0  0  0  0  0  0  0  0  0  0
   -5.1555   18.7692  -35.6055 H   0  0  0  0  0  0  0  0  0  0  0  0
   -6.1955   20.2150  -33.4505 H   0  0  0  0  0  0  0  0  0  0  0  0
   -7.1315   19.5812  -34.8590 H   0  0  0  0  0  0  0  0  0  0  0  0
   -5.9423   20.5933  -31.7523 H   0  0  0  0  0  0  0  0  0  0  0  0
   -4.9700   23.4480  -29.1220 H   0  0  0  0  0  0  0  0  0  0  0  0
   -4.6010   22.2300  -27.9130 H   0  0  0  0  0  0  0  0  0  0  0  0
   -2.9432   23.0450  -26.6442 H   0  0  0  0  0  0  0  0  0  0  0  0
   -1.2036   22.6199  -26.4110 H   0  0  0  0  0  0  0  0  0  0  0  0
   -1.1648   25.0364  -28.9004 H   0  0  0  0  0  0  0  0  0  0  0  0
   -0.5637   27.4354  -28.5744 H   0  0  0  0  0  0  0  0  0  0  0  0
   -0.6282   28.4423  -26.2894 H   0  0  0  0  0  0  0  0  0  0  0  0
   -1.3023   27.0512  -24.3296 H   0  0  0  0  0  0  0  0  0  0  0  0
   -1.9093   24.6528  -24.6463 H   0  0  0  0  0  0  0  0  0  0  0  0
  1  2  1  0
  2  3  1  0
  3  4  1  0
  4  5  2  0
  4  6  1  0
  6  7  2  0
  7  8  1  0
  8  9  2  0
  9 10  1  0
 10 11  1  0
 11 12  2  0
 11 13  2  0
 11 14  1  0
 14 15  1  0
 15 16  1  0
 16 17  1  0
 17 18  1  0
 18 19  1  0
 10 20  2  0
  3 21  1  0
 21 22  2  0
 22 23  1  0
 22 24  1  0
 24 25  1  0
 25 26  1  0
 26 27  2  0
 27 28  1  0
 28 29  2  0
 29 30  1  0
 30 31  2  0
 24 32  1  0
 32 33  2  0
 32 34  1  0
 34 35  1  0
 35 36  2  0
 20  6  1  0
 35 21  1  0
 19 14  1  0
 31 26  1  0
  1 37  1  0
  1 38  1  0
  1 39  1  0
  2 40  1  0
  2 41  1  0
  7 42  1  0
  8 43  1  0
  9 44  1  0
 15 45  1  0
 15 46  1  0
 16 47  1  0
 16 48  1  0
 18 49  1  0
 18 50  1  0
 19 51  1  0
 19 52  1  0
 20 53  1  0
 23 54  1  0
 23 55  1  0
 25 56  1  0
 25 57  1  0
 27 58  1  0
 28 59  1  0
 29 60  1  0
 30 61  1  0
 31 62  1  0
M  CHG  1  34  -1
M  END
>  <UniqueID>  (33) 
31

>  <SMILES>  (33) 
CCN(C(=O)c1cccc(S(=O)(=O)N2CCOCC2)c1)c1c(N)n(Cc2ccccc2)c(=O)[n-]c1=O

>  <Energy>  (33) 
89.92085958203772

>  <Genealogy>  (33) 
CCN(C(=O)c1cccc(S(=O)(=O)N2CCOCC2)c1)c1c(N)n(Cc2ccccc2)c(=O)[n-]c1=O (protonated)
CCN(C(=O)c1cccc(S(=O)(=O)N2CCOCC2)c1)c1c(N)n(Cc2ccccc2)c(=O)[n-]c1=O (3D coordinates assigned)
CCN(C(=O)c1cccc(S(=O)(=O)N2CCOCC2)c1)c1c(N)n(Cc2ccccc2)c(=O)[n-]c1=O (nonaromatic ring conformer: 89.92085958203772 kcal/mol)

>  <smiles>  (33) 
CCN(C(=O)c1cccc(S(=O)(=O)N2CCOCC2)c1)c1c(N)n(Cc2ccccc2)c(=O)[nH]c1=O

>  <score_type>  (33) 
oracle

>  <origin>  (33) 
adgpu

>  <m_score__min__energy>  (33) 
-10.890000000000001

>  <m_primary>  (33) 
energy

$$$$
33:0
     RDKit          3D

 59 62  0  0  0  0  0  0  0  0999 V2000
   -6.0230   18.1090  -35.2800 O   0  0  0  0  0  0  0  0  0  0  0  0
   -5.6220   18.5270  -34.1640 C   0  0  0  0  0  0  0  0  0  0  0  0
   -4.2580   18.2910  -33.7870 N   0  0  0  0  0  0  0  0  0  0  0  0
   -3.1880   19.2830  -33.8240 C   0  0  0  0  0  0  0  0  0  0  0  0
   -2.9870   19.9030  -32.4380 C   0  0  0  0  0  0  0  0  0  0  0  0
   -2.2300   21.1690  -32.5570 N   0  0  0  0  0  0  0  0  0  0  0  0
   -1.4370   21.2320  -33.8080 C   0  0  0  0  0  0  0  0  0  0  0  0
   -0.0060   20.6820  -33.6290 C   0  0  0  0  0  0  0  0  0  0  0  0
    0.0460   19.7690  -32.5540 O   0  0  0  0  0  0  0  0  0  0  0  0
   -0.1740   20.4450  -31.3290 C   0  0  0  0  0  0  0  0  0  0  0  0
   -1.3750   21.4200  -31.3820 C   0  0  0  0  0  0  0  0  0  0  0  0
   -6.5620   19.2580  -33.2940 C   0  0  0  0  0  0  0  0  0  0  0  0
   -7.6130   18.5710  -32.6680 C   0  0  0  0  0  0  0  0  0  0  0  0
   -8.5020   19.2540  -31.8320 C   0  0  0  0  0  0  0  0  0  0  0  0
   -8.3400   20.6220  -31.6040 C   0  0  0  0  0  0  0  0  0  0  0  0
   -7.2680   21.3150  -32.1960 C   0  0  0  0  0  0  0  0  0  0  0  0
   -7.0820   22.6910  -32.0070 O   0  0  0  0  0  0  0  0  0  0  0  0
   -6.0260   23.2770  -31.3010 C   0  0  0  0  0  0  0  0  0  0  0  0
   -6.1730   24.5870  -30.8400 C   0  0  0  0  0  0  0  0  0  0  0  0
   -5.1210   25.2250  -30.1790 C   0  0  0  0  0  0  0  0  0  0  0  0
   -3.8960   24.5750  -29.9940 C   0  0  0  0  0  0  0  0  0  0  0  0
   -2.8350   25.2840  -29.3400 N   0  0  0  0  0  0  0  0  0  0  0  0
   -1.6040   24.7320  -28.8430 C   0  0  0  0  0  0  0  0  0  0  0  0
   -0.9110   23.9640  -29.5610 O   0  0  0  0  0  0  0  0  0  0  0  0
   -1.1570   25.0770  -27.4770 C   0  0  0  0  0  0  0  0  0  0  0  0
   -2.1280   25.4000  -26.5110 C   0  0  0  0  0  0  0  0  0  0  0  0
   -1.7560   25.6880  -25.1950 C   0  0  0  0  0  0  0  0  0  0  0  0
   -0.4140   25.6500  -24.8260 C   0  0  0  0  0  0  0  0  0  0  0  0
    0.5640   25.3450  -25.7750 C   0  0  0  0  0  0  0  0  0  0  0  0
    0.2130   25.0800  -27.1050 C   0  0  0  0  0  0  0  0  0  0  0  0
    1.2450   24.8580  -28.0240 O   0  0  0  0  0  0  0  0  0  0  0  0
   -3.7520   23.2490  -30.4370 C   0  0  0  0  0  0  0  0  0  0  0  0
   -4.8080   22.6080  -31.0910 C   0  0  0  0  0  0  0  0  0  0  0  0
   -6.3860   20.6280  -33.0370 C   0  0  0  0  0  0  0  0  0  0  0  0
   -2.2540   18.7971  -34.1427 H   0  0  0  0  0  0  0  0  0  0  0  0
   -3.4620   20.0772  -34.5340 H   0  0  0  0  0  0  0  0  0  0  0  0
   -3.9680   20.1060  -31.9836 H   0  0  0  0  0  0  0  0  0  0  0  0
   -2.4223   19.2016  -31.8062 H   0  0  0  0  0  0  0  0  0  0  0  0
   -1.9488   20.6391  -34.5803 H   0  0  0  0  0  0  0  0  0  0  0  0
   -1.3546   22.2897  -34.0986 H   0  0  0  0  0  0  0  0  0  0  0  0
    0.3025   20.1704  -34.5526 H   0  0  0  0  0  0  0  0  0  0  0  0
    0.6714   21.5214  -33.4135 H   0  0  0  0  0  0  0  0  0  0  0  0
   -0.3645   19.6969  -30.5454 H   0  0  0  0  0  0  0  0  0  0  0  0
    0.7250   21.0425  -31.1175 H   0  0  0  0  0  0  0  0  0  0  0  0
   -1.9768   21.2942  -30.4699 H   0  0  0  0  0  0  0  0  0  0  0  0
   -0.9818   22.4446  -31.4567 H   0  0  0  0  0  0  0  0  0  0  0  0
   -7.7382   17.4910  -32.8354 H   0  0  0  0  0  0  0  0  0  0  0  0
   -9.3308   18.7122  -31.3529 H   0  0  0  0  0  0  0  0  0  0  0  0
   -9.0520   21.1591  -30.9602 H   0  0  0  0  0  0  0  0  0  0  0  0
   -7.1225   25.1193  -30.9983 H   0  0  0  0  0  0  0  0  0  0  0  0
   -5.2570   26.2487  -29.8001 H   0  0  0  0  0  0  0  0  0  0  0  0
   -3.1905   25.4261  -26.7946 H   0  0  0  0  0  0  0  0  0  0  0  0
   -2.5238   25.9448  -24.4504 H   0  0  0  0  0  0  0  0  0  0  0  0
   -0.1239   25.8604  -23.7860 H   0  0  0  0  0  0  0  0  0  0  0  0
    1.6217   25.3125  -25.4748 H   0  0  0  0  0  0  0  0  0  0  0  0
    1.0830   24.5520  -28.9760 H   0  0  0  0  0  0  0  0  0  0  0  0
   -2.8057   22.7142  -30.2686 H   0  0  0  0  0  0  0  0  0  0  0  0
   -4.6849   21.5733  -31.4436 H   0  0  0  0  0  0  0  0  0  0  0  0
   -5.5464   21.1658  -33.5016 H   0  0  0  0  0  0  0  0  0  0  0  0
  1  2  2  0
  2  3  1  0
  3  4  1  0
  4  5  1  0
  5  6  1  0
  6  7  1  0
  7  8  1  0
  8  9  1  0
  9 10  1  0
 10 11  1  0
  2 12  1  0
 12 13  2  0
 13 14  1  0
 14 15  2  0
 15 16  1  0
 16 17  1  0
 17 18  1  0
 18 19  2  0
 19 20  1  0
 20 21  2  0
 21 22  1  0
 22 23  1  0
 23 24  2  0
 23 25  1  0
 25 26  2  0
 26 27  1  0
 27 28  2  0
 28 29  1  0
 29 30  2  0
 30 31  1  0
 21 32  1  0
 32 33  2  0
 16 34  2  0
 11  6  1  0
 34 12  1  0
 33 18  1  0
 30 25  1  0
  4 35  1  0
  4 36  1  0
  5 37  1  0
  5 38  1  0
  7 39  1  0
  7 40  1  0
  8 41  1  0
  8 42  1  0
 10 43  1  0
 10 44  1  0
 11 45  1  0
 11 46  1  0
 13 47  1  0
 14 48  1  0
 15 49  1  0
 19 50  1  0
 20 51  1  0
 26 52  1  0
 27 53  1  0
 28 54  1  0
 29 55  1  0
 31 56  1  0
 32 57  1  0
 33 58  1  0
 34 59  1  0
M  CHG  2   3  -1  22  -1
M  END
>  <UniqueID>  (34) 
32

>  <SMILES>  (34) 
O=C([N-]CCN1CCOCC1)c1cccc(Oc2ccc([N-]C(=O)c3ccccc3O)cc2)c1

>  <Energy>  (34) 
92.05588313207569

>  <Genealogy>  (34) 
O=C([N-]CCN1CCOCC1)c1cccc(Oc2ccc([N-]C(=O)c3ccccc3O)cc2)c1 (protonated)
O=C([N-]CCN1CCOCC1)c1cccc(Oc2ccc([N-]C(=O)c3ccccc3O)cc2)c1 (3D coordinates assigned)
O=C([N-]CCN1CCOCC1)c1cccc(Oc2ccc([N-]C(=O)c3ccccc3O)cc2)c1 (nonaromatic ring conformer: 92.05588313207569 kcal/mol)

>  <smiles>  (34) 
O=C(NCCN1CCOCC1)c1cccc(Oc2ccc(NC(=O)c3ccccc3O)cc2)c1

>  <score_type>  (34) 
oracle

>  <origin>  (34) 
adgpu

>  <m_score__min__energy>  (34) 
-11.130000000000001

>  <m_primary>  (34) 
energy

$$$$
34:0
     RDKit          3D

 23 24  0  0  0  0  0  0  0  0999 V2000
   -7.9520   21.4770  -32.0750 O   0  0  0  0  0  0  0  0  0  0  0  0
   -6.7800   21.1320  -32.3800 C   0  0  0  0  0  0  0  0  0  0  0  0
   -6.4390   20.0340  -33.1360 C   0  0  0  0  0  0  0  0  0  0  0  0
   -5.0590   20.1080  -33.1770 C   0  0  0  0  0  0  0  0  0  0  0  0
   -4.2300   19.2080  -33.8340 O   0  0  0  0  0  0  0  0  0  0  0  0
   -4.6060   21.1780  -32.4930 N   0  0  0  0  0  0  0  0  0  0  0  0
   -5.6700   21.7960  -32.0090 N   0  0  0  0  0  0  0  0  0  0  0  0
   -5.6050   23.2440  -31.0630 S   0  0  0  0  0  0  0  0  0  0  0  0
   -5.7430   24.4310  -31.9750 O   0  0  0  0  0  0  0  0  0  0  0  0
   -6.7400   23.2570  -30.0760 O   0  0  0  0  0  0  0  0  0  0  0  0
   -4.0780   23.3030  -30.1830 C   0  0  0  0  0  0  0  0  0  0  0  0
   -3.5670   22.1430  -29.5810 C   0  0  0  0  0  0  0  0  0  0  0  0
   -2.3620   22.1880  -28.8750 C   0  0  0  0  0  0  0  0  0  0  0  0
   -1.6560   23.3930  -28.7610 C   0  0  0  0  0  0  0  0  0  0  0  0
   -0.4540   23.4430  -28.0580 O   0  0  0  0  0  0  0  0  0  0  0  0
   -2.1620   24.5540  -29.3590 C   0  0  0  0  0  0  0  0  0  0  0  0
   -1.4640   25.7510  -29.2490 O   0  0  0  0  0  0  0  0  0  0  0  0
   -3.3700   24.5110  -30.0690 C   0  0  0  0  0  0  0  0  0  0  0  0
   -3.8600   25.6730  -30.6570 O   0  0  0  0  0  0  0  0  0  0  0  0
   -7.1002   19.2836  -33.5940 H   0  0  0  0  0  0  0  0  0  0  0  0
   -4.1173   21.1943  -29.6652 H   0  0  0  0  0  0  0  0  0  0  0  0
   -1.9663   21.2745  -28.4072 H   0  0  0  0  0  0  0  0  0  0  0  0
    0.0640   24.3080  -27.9540 H   0  0  0  0  0  0  0  0  0  0  0  0
  1  2  2  0
  2  3  1  0
  3  4  2  0
  4  5  1  0
  4  6  1  0
  6  7  1  0
  7  8  1  0
  8  9  2  0
  8 10  2  0
  8 11  1  0
 11 12  2  0
 12 13  1  0
 13 14  2  0
 14 15  1  0
 14 16  1  0
 16 17  1  0
 16 18  2  0
 18 19  1  0
  7  2  1  0
 18 11  1  0
  3 20  1  0
 12 21  1  0
 13 22  1  0
 15 23  1  0
M  CHG  4   5  -1   6  -1  17  -1  19  -1
M  END
>  <UniqueID>  (35) 
33

>  <SMILES>  (35) 
O=c1cc([O-])[n-]n1S(=O)(=O)c1ccc(O)c([O-])c1[O-]

>  <Energy>  (35) 
59.40483796991941

>  <Genealogy>  (35) 
O=c1cc([O-])[n-]n1S(=O)(=O)c1ccc(O)c([O-])c1[O-] (protonated)
O=c1cc([O-])[n-]n1S(=O)(=O)c1ccc(O)c([O-])c1[O-] (3D coordinates assigned)
O=c1cc([O-])[n-]n1S(=O)(=O)c1ccc(O)c([O-])c1[O-] (optimized conformer: 59.40483796991941 kcal/mol)

>  <smiles>  (35) 
O=c1cc(O)[nH]n1S(=O)(=O)c1ccc(O)c(O)c1O

>  <score_type>  (35) 
oracle

>  <origin>  (35) 
adgpu

>  <m_score__min__energy>  (35) 
-11.68

>  <m_primary>  (35) 
energy

$$$$
35:0
     RDKit          3D

 47 50  0  0  0  0  0  0  0  0999 V2000
   -2.5920   21.3050  -32.6920 C   0  0  0  0  0  0  0  0  0  0  0  0
   -3.5030   22.2620  -31.9910 C   0  0  0  0  0  0  0  0  0  0  0  0
   -4.8230   22.4260  -32.4210 C   0  0  0  0  0  0  0  0  0  0  0  0
   -5.6290   23.3470  -31.7520 C   0  0  0  0  0  0  0  0  0  0  0  0
   -7.3400   23.5810  -32.2360 S   0  0  0  0  0  0  0  0  0  0  0  0
   -7.9540   22.1240  -31.3280 C   0  0  0  0  0  0  0  0  0  0  0  0
   -7.5090   20.8610  -31.9970 C   0  0  0  0  0  0  0  0  0  0  0  0
   -7.6750   19.6310  -31.4410 N   0  0  0  0  0  0  0  0  0  0  0  0
   -7.1580   18.8120  -32.3750 C   0  0  0  0  0  0  0  0  0  0  0  0
   -7.0540   17.4250  -32.3280 C   0  0  0  0  0  0  0  0  0  0  0  0
   -6.4520   16.7770  -33.4240 C   0  0  0  0  0  0  0  0  0  0  0  0
   -5.9820   17.5260  -34.5280 C   0  0  0  0  0  0  0  0  0  0  0  0
   -6.1090   18.9270  -34.5440 C   0  0  0  0  0  0  0  0  0  0  0  0
   -6.7060   19.5320  -33.4410 C   0  0  0  0  0  0  0  0  0  0  0  0
   -6.9260   20.8330  -33.2220 N   0  0  0  0  0  0  0  0  0  0  0  0
   -5.1220   24.0620  -30.7160 N   0  0  0  0  0  0  0  0  0  0  0  0
   -3.8360   23.8940  -30.3070 C   0  0  0  0  0  0  0  0  0  0  0  0
   -3.3120   24.6590  -29.2140 N   0  0  0  0  0  0  0  0  0  0  0  0
   -2.0680   24.3400  -28.5690 C   0  0  0  0  0  0  0  0  0  0  0  0
   -1.8170   23.0570  -28.0270 C   0  0  0  0  0  0  0  0  0  0  0  0
   -2.8110   21.9320  -28.1350 C   0  0  0  0  0  0  0  0  0  0  0  0
   -0.6030   22.8210  -27.3660 C   0  0  0  0  0  0  0  0  0  0  0  0
    0.3670   23.8280  -27.3110 C   0  0  0  0  0  0  0  0  0  0  0  0
    1.6610   23.5940  -26.5980 C   0  0  0  0  0  0  0  0  0  0  0  0
    0.1180   25.0370  -27.8790 N   0  0  0  0  0  0  0  0  0  0  0  0
   -1.0570   25.3130  -28.5010 C   0  0  0  0  0  0  0  0  0  0  0  0
   -1.2370   26.4540  -29.0040 O   0  0  0  0  0  0  0  0  0  0  0  0
   -3.0370   23.0030  -30.9500 N   0  0  0  0  0  0  0  0  0  0  0  0
   -2.0335   20.7183  -31.9477 H   0  0  0  0  0  0  0  0  0  0  0  0
   -3.1868   20.6272  -33.3219 H   0  0  0  0  0  0  0  0  0  0  0  0
   -1.8857   21.8657  -33.3219 H   0  0  0  0  0  0  0  0  0  0  0  0
   -5.2165   21.8428  -33.2666 H   0  0  0  0  0  0  0  0  0  0  0  0
   -7.5618   22.1465  -30.3005 H   0  0  0  0  0  0  0  0  0  0  0  0
   -9.0536   22.1508  -31.3159 H   0  0  0  0  0  0  0  0  0  0  0  0
   -7.4288   16.8549  -31.4652 H   0  0  0  0  0  0  0  0  0  0  0  0
   -6.3467   15.6821  -33.4214 H   0  0  0  0  0  0  0  0  0  0  0  0
   -5.5143   17.0098  -35.3794 H   0  0  0  0  0  0  0  0  0  0  0  0
   -5.7500   19.5225  -35.3963 H   0  0  0  0  0  0  0  0  0  0  0  0
   -6.7000   21.6380  -33.8480 H   0  0  0  0  0  0  0  0  0  0  0  0
   -3.9460   25.3490  -28.7500 H   0  0  0  0  0  0  0  0  0  0  0  0
   -3.1024   21.6022  -27.1269 H   0  0  0  0  0  0  0  0  0  0  0  0
   -3.7016   22.2805  -28.6785 H   0  0  0  0  0  0  0  0  0  0  0  0
   -2.3555   21.0911  -28.6785 H   0  0  0  0  0  0  0  0  0  0  0  0
   -0.4137   21.8466  -26.8919 H   0  0  0  0  0  0  0  0  0  0  0  0
    1.4917   23.6246  -25.5115 H   0  0  0  0  0  0  0  0  0  0  0  0
    2.0616   22.6088  -26.8791 H   0  0  0  0  0  0  0  0  0  0  0  0
    2.3812   24.3765  -26.8791 H   0  0  0  0  0  0  0  0  0  0  0  0
  1  2  1  0
  2  3  2  0
  3  4  1  0
  4  5  1  0
  5  6  1  0
  6  7  1  0
  7  8  2  0
  8  9  1  0
  9 10  2  0
 10 11  1  0
 11 12  2  0
 12 13  1  0
 13 14  2  0
 14 15  1  0
  4 16  2  0
 16 17  1  0
 17 18  1  0
 18 19  1  0
 19 20  2  0
 20 21  1  0
 20 22  1  0
 22 23  2  0
 23 24  1  0
 23 25  1  0
 25 26  1  0
 26 27  2  0
 17 28  2  0
 28  2  1  0
 15  7  1  0
 26 19  1  0
 14  9  1  0
  1 29  1  0
  1 30  1  0
  1 31  1  0
  3 32  1  0
  6 33  1  0
  6 34  1  0
 10 35  1  0
 11 36  1  0
 12 37  1  0
 13 38  1  0
 15 39  1  0
 18 40  1  0
 21 41  1  0
 21 42  1  0
 21 43  1  0
 22 44  1  0
 24 45  1  0
 24 46  1  0
 24 47  1  0
M  CHG  1  25  -1
M  END
>  <UniqueID>  (36) 
34

>  <SMILES>  (36) 
Cc1cc(SCc2nc3ccccc3[nH]2)nc(Nc2c(C)cc(C)[n-]c2=O)n1

>  <Energy>  (36) 
81.60834667367263

>  <Genealogy>  (36) 
Cc1cc(SCc2nc3ccccc3[nH]2)nc(Nc2c(C)cc(C)[n-]c2=O)n1 (protonated)
Cc1cc(SCc2nc3ccccc3[nH]2)nc(Nc2c(C)cc(C)[n-]c2=O)n1 (3D coordinates assigned)
Cc1cc(SCc2nc3ccccc3[nH]2)nc(Nc2c(C)cc(C)[n-]c2=O)n1 (optimized conformer: 81.60834667367263 kcal/mol)

>  <smiles>  (36) 
Cc1cc(SCc2nc3ccccc3[nH]2)nc(Nc2c(C)cc(C)[nH]c2=O)n1

>  <score_type>  (36) 
oracle

>  <origin>  (36) 
adgpu

>  <m_score__min__energy>  (36) 
-11.15

>  <m_primary>  (36) 
energy

$$$$
36:0
     RDKit          3D

 49 51  0  0  0  0  0  0  0  0999 V2000
   -9.0840   19.2960  -32.4700 C   0  0  0  0  0  0  0  0  0  0  0  0
   -9.1450   20.7120  -32.6100 O   0  0  0  0  0  0  0  0  0  0  0  0
   -8.2260   21.6050  -32.0370 C   0  0  0  0  0  0  0  0  0  0  0  0
   -8.5590   22.9300  -31.7230 C   0  0  0  0  0  0  0  0  0  0  0  0
   -7.6110   23.7760  -31.1500 C   0  0  0  0  0  0  0  0  0  0  0  0
   -6.3030   23.3320  -30.8940 C   0  0  0  0  0  0  0  0  0  0  0  0
   -5.1790   24.4620  -30.1110 S   0  0  0  0  0  0  0  0  0  0  0  0
   -4.4890   25.2760  -31.1690 O   0  0  0  0  0  0  0  0  0  0  0  0
   -5.8990   25.3860  -29.1720 O   0  0  0  0  0  0  0  0  0  0  0  0
   -3.9790   23.6050  -29.2010 N   0  0  0  0  0  0  0  0  0  0  0  0
   -2.8090   24.1060  -28.9570 C   0  0  0  0  0  0  0  0  0  0  0  0
   -2.4050   25.2940  -29.3470 O   0  0  0  0  0  0  0  0  0  0  0  0
   -1.1910   25.5060  -28.9330 N   0  0  0  0  0  0  0  0  0  0  0  0
   -0.7820   24.4140  -28.2550 C   0  0  0  0  0  0  0  0  0  0  0  0
    0.5370   24.2940  -27.5640 C   0  0  0  0  0  0  0  0  0  0  0  0
   -1.8070   23.4880  -28.2410 C   0  0  0  0  0  0  0  0  0  0  0  0
   -1.8470   21.7730  -27.3980 Br  0  0  0  0  0  0  0  0  0  0  0  0
   -5.9570   21.9890  -31.2100 C   0  0  0  0  0  0  0  0  0  0  0  0
   -4.5730   21.4080  -30.9920 C   0  0  0  0  0  0  0  0  0  0  0  0
   -3.6910   21.5080  -32.2490 C   0  0  0  0  0  0  0  0  0  0  0  0
   -3.7130   20.2430  -33.0680 C   0  0  0  0  0  0  0  0  0  0  0  0
   -2.5170   19.5720  -33.3680 C   0  0  0  0  0  0  0  0  0  0  0  0
   -2.5400   18.3700  -34.0810 C   0  0  0  0  0  0  0  0  0  0  0  0
   -3.7600   17.8300  -34.5170 C   0  0  0  0  0  0  0  0  0  0  0  0
   -3.7940   16.5130  -35.2330 C   0  0  0  0  0  0  0  0  0  0  0  0
   -4.9560   18.4970  -34.2160 C   0  0  0  0  0  0  0  0  0  0  0  0
   -4.9330   19.6990  -33.5000 C   0  0  0  0  0  0  0  0  0  0  0  0
   -6.9340   21.1460  -31.7720 C   0  0  0  0  0  0  0  0  0  0  0  0
   -9.0727   19.0333  -31.4019 H   0  0  0  0  0  0  0  0  0  0  0  0
   -9.9634   18.8419  -32.9500 H   0  0  0  0  0  0  0  0  0  0  0  0
   -8.1688   18.9192  -32.9500 H   0  0  0  0  0  0  0  0  0  0  0  0
   -9.5727   23.3036  -31.9297 H   0  0  0  0  0  0  0  0  0  0  0  0
   -7.8917   24.8083  -30.8940 H   0  0  0  0  0  0  0  0  0  0  0  0
   -0.6490   26.3820  -29.0980 H   0  0  0  0  0  0  0  0  0  0  0  0
    0.3830   24.3080  -26.4749 H   0  0  0  0  0  0  0  0  0  0  0  0
    1.0182   23.3484  -27.8541 H   0  0  0  0  0  0  0  0  0  0  0  0
    1.1810   25.1373  -27.8541 H   0  0  0  0  0  0  0  0  0  0  0  0
   -4.0845   21.9563  -30.1730 H   0  0  0  0  0  0  0  0  0  0  0  0
   -4.6910   20.3418  -30.7486 H   0  0  0  0  0  0  0  0  0  0  0  0
   -4.0558   22.3383  -32.8715 H   0  0  0  0  0  0  0  0  0  0  0  0
   -2.6551   21.6764  -31.9195 H   0  0  0  0  0  0  0  0  0  0  0  0
   -1.5559   19.9947  -33.0400 H   0  0  0  0  0  0  0  0  0  0  0  0
   -1.5986   17.8454  -34.3012 H   0  0  0  0  0  0  0  0  0  0  0  0
   -3.8151   15.6959  -34.4969 H   0  0  0  0  0  0  0  0  0  0  0  0
   -4.6938   16.4617  -35.8637 H   0  0  0  0  0  0  0  0  0  0  0  0
   -2.8981   16.4153  -35.8637 H   0  0  0  0  0  0  0  0  0  0  0  0
   -5.9167   18.0735  -34.5442 H   0  0  0  0  0  0  0  0  0  0  0  0
   -5.8752   20.2201  -33.2746 H   0  0  0  0  0  0  0  0  0  0  0  0
   -6.6743   20.1034  -32.0075 H   0  0  0  0  0  0  0  0  0  0  0  0
  1  2  1  0
  2  3  1  0
  3  4  2  0
  4  5  1  0
  5  6  2  0
  6  7  1  0
  7  8  2  0
  7  9  2  0
  7 10  1  0
 10 11  2  3
 11 12  1  0
 12 13  1  0
 13 14  1  0
 14 15  1  0
 14 16  2  0
 16 17  1  0
  6 18  1  0
 18 19  1  0
 19 20  1  0
 20 21  1  0
 21 22  2  0
 22 23  1  0
 23 24  2  0
 24 25  1  0
 24 26  1  0
 26 27  2  0
 18 28  2  0
 28  3  1  0
 16 11  1  0
 27 21  1  0
  1 29  1  0
  1 30  1  0
  1 31  1  0
  4 32  1  0
  5 33  1  0
 13 34  1  0
 15 35  1  0
 15 36  1  0
 15 37  1  0
 19 38  1  0
 19 39  1  0
 20 40  1  0
 20 41  1  0
 22 42  1  0
 23 43  1  0
 25 44  1  0
 25 45  1  0
 25 46  1  0
 26 47  1  0
 27 48  1  0
 28 49  1  0
M  END
>  <UniqueID>  (37) 
35

>  <SMILES>  (37) 
COc1ccc(S(=O)(=O)N=c2o[nH]c(C)c2Br)c(CCc2ccc(C)cc2)c1

>  <Energy>  (37) 
80.7616035003604

>  <Genealogy>  (37) 
COc1ccc(S(=O)(=O)N=c2o[nH]c(C)c2Br)c(CCc2ccc(C)cc2)c1 (3D coordinates assigned)
COc1ccc(S(=O)(=O)N=c2o[nH]c(C)c2Br)c(CCc2ccc(C)cc2)c1 (optimized conformer: 80.7616035003604 kcal/mol)

>  <smiles>  (37) 
COc1ccc(S(=O)(=O)N=c2o[nH]c(C)c2Br)c(CCc2ccc(C)cc2)c1

>  <score_type>  (37) 
oracle

>  <origin>  (37) 
adgpu

>  <m_score__min__energy>  (37) 
-10.56

>  <m_primary>  (37) 
energy

$$$$
37:0
     RDKit          3D

 43 45  0  0  0  0  0  0  0  0999 V2000
   -7.2200   17.7990  -32.4650 C   0  0  0  0  0  0  0  0  0  0  0  0
   -8.8670   18.5590  -32.3090 S   0  0  0  0  0  0  0  0  0  0  0  0
   -8.2070   20.1800  -31.9110 C   0  0  0  0  0  0  0  0  0  0  0  0
   -8.9770   21.0890  -31.1840 C   0  0  0  0  0  0  0  0  0  0  0  0
   -8.4750   22.3600  -30.8950 C   0  0  0  0  0  0  0  0  0  0  0  0
   -7.1940   22.7460  -31.3340 C   0  0  0  0  0  0  0  0  0  0  0  0
   -6.7480   24.1650  -31.0900 C   0  0  0  0  0  0  0  0  0  0  0  0
   -6.3880   21.8050  -32.0320 C   0  0  0  0  0  0  0  0  0  0  0  0
   -5.0080   22.1110  -32.4900 C   0  0  0  0  0  0  0  0  0  0  0  0
   -4.4720   21.3910  -33.3780 O   0  0  0  0  0  0  0  0  0  0  0  0
   -4.2470   23.1600  -31.8770 N   0  0  0  0  0  0  0  0  0  0  0  0
   -3.2620   22.9690  -30.8510 C   0  0  0  0  0  0  0  0  0  0  0  0
   -2.7910   21.6780  -30.6130 C   0  0  0  0  0  0  0  0  0  0  0  0
   -1.8340   21.4480  -29.6260 C   0  0  0  0  0  0  0  0  0  0  0  0
   -1.3410   22.5010  -28.8510 C   0  0  0  0  0  0  0  0  0  0  0  0
   -0.4120   22.1940  -27.8580 O   0  0  0  0  0  0  0  0  0  0  0  0
   -1.8080   23.8210  -29.0750 C   0  0  0  0  0  0  0  0  0  0  0  0
   -1.1480   25.1870  -28.1440 S   0  0  0  0  0  0  0  0  0  0  0  0
   -1.2330   26.4620  -28.9390 O   0  0  0  0  0  0  0  0  0  0  0  0
    0.3080   24.9250  -27.8750 O   0  0  0  0  0  0  0  0  0  0  0  0
   -1.9890   25.4510  -26.5800 C   0  0  0  0  0  0  0  0  0  0  0  0
   -1.1490   25.0580  -25.3740 C   0  0  0  0  0  0  0  0  0  0  0  0
   -1.4310   26.5220  -25.6540 C   0  0  0  0  0  0  0  0  0  0  0  0
   -2.8030   24.0370  -30.0550 C   0  0  0  0  0  0  0  0  0  0  0  0
   -3.3670   25.2990  -30.2190 O   0  0  0  0  0  0  0  0  0  0  0  0
   -6.9210   20.5320  -32.3270 C   0  0  0  0  0  0  0  0  0  0  0  0
   -6.8076   17.6087  -31.4631 H   0  0  0  0  0  0  0  0  0  0  0  0
   -7.3049   16.8490  -33.0131 H   0  0  0  0  0  0  0  0  0  0  0  0
   -6.5523   18.4801  -33.0131 H   0  0  0  0  0  0  0  0  0  0  0  0
   -9.9814   20.8039  -30.8378 H   0  0  0  0  0  0  0  0  0  0  0  0
   -9.0877   23.0679  -30.3175 H   0  0  0  0  0  0  0  0  0  0  0  0
   -6.6898   24.3500  -30.0072 H   0  0  0  0  0  0  0  0  0  0  0  0
   -5.7575   24.3210  -31.5424 H   0  0  0  0  0  0  0  0  0  0  0  0
   -7.4712   24.8596  -31.5424 H   0  0  0  0  0  0  0  0  0  0  0  0
   -3.1768   20.8367  -31.2074 H   0  0  0  0  0  0  0  0  0  0  0  0
   -1.4629   20.4266  -29.4554 H   0  0  0  0  0  0  0  0  0  0  0  0
    0.2260   22.8670  -27.4570 H   0  0  0  0  0  0  0  0  0  0  0  0
   -2.9964   25.2343  -26.9649 H   0  0  0  0  0  0  0  0  0  0  0  0
   -1.6213   24.5621  -24.5132 H   0  0  0  0  0  0  0  0  0  0  0  0
   -0.2404   24.4567  -25.2224 H   0  0  0  0  0  0  0  0  0  0  0  0
   -2.1078   27.0871  -24.9963 H   0  0  0  0  0  0  0  0  0  0  0  0
   -0.8116   27.4209  -25.7894 H   0  0  0  0  0  0  0  0  0  0  0  0
   -6.3158   19.8076  -32.8919 H   0  0  0  0  0  0  0  0  0  0  0  0
  1  2  1  0
  2  3  1  0
  3  4  2  0
  4  5  1  0
  5  6  2  0
  6  7  1  0
  6  8  1  0
  8  9  1  0
  9 10  2  0
  9 11  1  0
 11 12  1  0
 12 13  2  0
 13 14  1  0
 14 15  2  0
 15 16  1  0
 15 17  1  0
 17 18  1  0
 18 19  2  0
 18 20  2  0
 18 21  1  0
 21 22  1  0
 22 23  1  0
 17 24  2  0
 24 25  1  0
  8 26  2  0
 26  3  1  0
 24 12  1  0
 23 21  1  0
  1 27  1  0
  1 28  1  0
  1 29  1  0
  4 30  1  0
  5 31  1  0
  7 32  1  0
  7 33  1  0
  7 34  1  0
 13 35  1  0
 14 36  1  0
 16 37  1  0
 21 38  1  0
 22 39  1  0
 22 40  1  0
 23 41  1  0
 23 42  1  0
 26 43  1  0
M  CHG  2  11  -1  25  -1
M  END
>  <UniqueID>  (38) 
36

>  <SMILES>  (38) 
CSc1ccc(C)c(C(=O)[N-]c2ccc(O)c(S(=O)(=O)C3CC3)c2[O-])c1

>  <Energy>  (38) 
317.5637266674799

>  <Genealogy>  (38) 
CSc1ccc(C)c(C(=O)[N-]c2ccc(O)c(S(=O)(=O)C3CC3)c2[O-])c1 (protonated)
CSc1ccc(C)c(C(=O)[N-]c2ccc(O)c(S(=O)(=O)C3CC3)c2[O-])c1 (3D coordinates assigned)
CSc1ccc(C)c(C(=O)[N-]c2ccc(O)c(S(=O)(=O)C3CC3)c2[O-])c1 (nonaromatic ring conformer: 317.5637266674799 kcal/mol)

>  <smiles>  (38) 
CSc1ccc(C)c(C(=O)Nc2ccc(O)c(S(=O)(=O)C3CC3)c2O)c1

>  <score_type>  (38) 
oracle

>  <origin>  (38) 
adgpu

>  <m_score__min__energy>  (38) 
-13.470000000000001

>  <m_primary>  (38) 
energy

$$$$
38:0
     RDKit          3D

 39 41  0  0  0  0  0  0  0  0999 V2000
   -0.5930   26.8460  -22.9500 C   0  0  0  0  0  0  0  0  0  0  0  0
   -0.6810   26.2730  -24.3330 C   0  0  0  0  0  0  0  0  0  0  0  0
   -0.4990   24.8980  -24.5410 C   0  0  0  0  0  0  0  0  0  0  0  0
   -0.5450   24.3680  -25.8350 C   0  0  0  0  0  0  0  0  0  0  0  0
   -0.7530   25.2080  -26.9440 C   0  0  0  0  0  0  0  0  0  0  0  0
   -0.8070   24.6420  -28.3130 C   0  0  0  0  0  0  0  0  0  0  0  0
    0.2610   24.4930  -28.9660 O   0  0  0  0  0  0  0  0  0  0  0  0
   -2.0670   24.2930  -28.9070 N   0  0  0  0  0  0  0  0  0  0  0  0
   -2.2340   23.2730  -29.9060 C   0  0  0  0  0  0  0  0  0  0  0  0
   -1.0800   22.1360  -30.3700 S   0  0  0  0  0  0  0  0  0  0  0  0
   -2.0470   21.3340  -31.4870 C   0  0  0  0  0  0  0  0  0  0  0  0
   -3.2960   21.9410  -31.5020 C   0  0  0  0  0  0  0  0  0  0  0  0
   -3.4080   23.0240  -30.6180 C   0  0  0  0  0  0  0  0  0  0  0  0
   -4.9070   23.9230  -30.4000 S   0  0  0  0  0  0  0  0  0  0  0  0
   -5.0380   24.2890  -28.9480 O   0  0  0  0  0  0  0  0  0  0  0  0
   -4.8800   25.1820  -31.2200 O   0  0  0  0  0  0  0  0  0  0  0  0
   -6.2770   22.9410  -30.9160 C   0  0  0  0  0  0  0  0  0  0  0  0
   -6.2660   22.3360  -32.1820 C   0  0  0  0  0  0  0  0  0  0  0  0
   -7.3360   21.5320  -32.5850 C   0  0  0  0  0  0  0  0  0  0  0  0
   -8.4220   21.3310  -31.7290 C   0  0  0  0  0  0  0  0  0  0  0  0
   -8.4410   21.9370  -30.4700 C   0  0  0  0  0  0  0  0  0  0  0  0
   -7.3720   22.7420  -30.0630 C   0  0  0  0  0  0  0  0  0  0  0  0
   -0.9290   26.5870  -26.7280 C   0  0  0  0  0  0  0  0  0  0  0  0
   -0.8840   27.1150  -25.4360 C   0  0  0  0  0  0  0  0  0  0  0  0
   -0.7167   26.0407  -22.2109 H   0  0  0  0  0  0  0  0  0  0  0  0
    0.3888   27.3225  -22.8123 H   0  0  0  0  0  0  0  0  0  0  0  0
   -1.3866   27.5951  -22.8123 H   0  0  0  0  0  0  0  0  0  0  0  0
   -0.3193   24.2334  -23.6831 H   0  0  0  0  0  0  0  0  0  0  0  0
   -0.4175   23.2859  -25.9863 H   0  0  0  0  0  0  0  0  0  0  0  0
   -2.9160   24.7940  -28.5660 H   0  0  0  0  0  0  0  0  0  0  0  0
   -1.7422   20.4743  -32.1017 H   0  0  0  0  0  0  0  0  0  0  0  0
   -4.1206   21.6038  -32.1472 H   0  0  0  0  0  0  0  0  0  0  0  0
   -5.4135   22.4948  -32.8588 H   0  0  0  0  0  0  0  0  0  0  0  0
   -7.3231   21.0570  -33.5771 H   0  0  0  0  0  0  0  0  0  0  0  0
   -9.2621   20.6957  -32.0462 H   0  0  0  0  0  0  0  0  0  0  0  0
   -9.2978   21.7807  -29.7981 H   0  0  0  0  0  0  0  0  0  0  0  0
   -7.3903   23.2197  -29.0723 H   0  0  0  0  0  0  0  0  0  0  0  0
   -1.1036   27.2551  -27.5843 H   0  0  0  0  0  0  0  0  0  0  0  0
   -1.0084   28.1971  -25.2826 H   0  0  0  0  0  0  0  0  0  0  0  0
  1  2  1  0
  2  3  2  0
  3  4  1  0
  4  5  2  0
  5  6  1  0
  6  7  2  0
  6  8  1  0
  8  9  1  0
  9 10  1  0
 10 11  1  0
 11 12  2  0
 12 13  1  0
 13 14  1  0
 14 15  2  0
 14 16  2  0
 14 17  1  0
 17 18  2  0
 18 19  1  0
 19 20  2  0
 20 21  1  0
 21 22  2  0
  5 23  1  0
 23 24  2  0
 24  2  1  0
 13  9  2  0
 22 17  1  0
  1 25  1  0
  1 26  1  0
  1 27  1  0
  3 28  1  0
  4 29  1  0
  8 30  1  0
 11 31  1  0
 12 32  1  0
 18 33  1  0
 19 34  1  0
 20 35  1  0
 21 36  1  0
 22 37  1  0
 23 38  1  0
 24 39  1  0
M  END
>  <UniqueID>  (39) 
37

>  <SMILES>  (39) 
Cc1ccc(C(=O)Nc2sccc2S(=O)(=O)c2ccccc2)cc1

>  <Energy>  (39) 
71.24026870752381

>  <Genealogy>  (39) 
Cc1ccc(C(=O)Nc2sccc2S(=O)(=O)c2ccccc2)cc1 (3D coordinates assigned)
Cc1ccc(C(=O)Nc2sccc2S(=O)(=O)c2ccccc2)cc1 (optimized conformer: 71.24026870752381 kcal/mol)

>  <smiles>  (39) 
Cc1ccc(C(=O)Nc2sccc2S(=O)(=O)c2ccccc2)cc1

>  <score_type>  (39) 
oracle

>  <origin>  (39) 
adgpu

>  <m_score__min__energy>  (39) 
-9.1899999999999995

>  <m_primary>  (39) 
energy

$$$$
39:0
     RDKit          3D

 57 59  0  0  0  0  0  0  0  0999 V2000
   -2.5050   18.9720  -26.5530 C   0  0  0  0  0  0  0  0  0  0  0  0
   -3.1100   20.1040  -27.3730 C   0  0  0  0  0  0  0  0  0  0  0  0
   -2.0540   20.5440  -28.7440 S   0  0  0  0  0  0  0  0  0  0  0  0
   -0.7190   19.8750  -28.5780 O   0  0  0  0  0  0  0  0  0  0  0  0
   -2.6700   20.0680  -30.0300 O   0  0  0  0  0  0  0  0  0  0  0  0
   -1.8290   22.2910  -28.7960 C   0  0  0  0  0  0  0  0  0  0  0  0
   -0.7310   22.8730  -28.1540 C   0  0  0  0  0  0  0  0  0  0  0  0
   -0.5510   24.2570  -28.1890 C   0  0  0  0  0  0  0  0  0  0  0  0
   -1.4760   25.0760  -28.8530 C   0  0  0  0  0  0  0  0  0  0  0  0
   -1.2500   26.4490  -28.9350 O   0  0  0  0  0  0  0  0  0  0  0  0
   -2.6090   24.4980  -29.4590 C   0  0  0  0  0  0  0  0  0  0  0  0
   -3.5900   25.2880  -30.1450 N   0  0  0  0  0  0  0  0  0  0  0  0
   -4.8470   24.8110  -30.6400 C   0  0  0  0  0  0  0  0  0  0  0  0
   -5.9140   25.4180  -30.3580 O   0  0  0  0  0  0  0  0  0  0  0  0
   -4.9090   23.6430  -31.4640 N   0  0  0  0  0  0  0  0  0  0  0  0
   -6.0590   22.8060  -31.6660 C   0  0  0  0  0  0  0  0  0  0  0  0
   -7.3530   23.3380  -31.6960 C   0  0  0  0  0  0  0  0  0  0  0  0
   -8.4490   22.5070  -31.9040 C   0  0  0  0  0  0  0  0  0  0  0  0
   -8.2820   21.1290  -32.1210 C   0  0  0  0  0  0  0  0  0  0  0  0
   -9.5220   20.2890  -32.2790 C   0  0  0  0  0  0  0  0  0  0  0  0
   -6.9690   20.5790  -32.1330 C   0  0  0  0  0  0  0  0  0  0  0  0
   -6.6530   18.8440  -32.4350 S   0  0  0  0  0  0  0  0  0  0  0  0
   -6.2910   18.1820  -31.1350 O   0  0  0  0  0  0  0  0  0  0  0  0
   -7.8860   18.1530  -32.9450 O   0  0  0  0  0  0  0  0  0  0  0  0
   -5.3470   18.5960  -33.5740 N   0  0  0  0  0  0  0  0  0  0  0  0
   -5.7040   17.5400  -34.5380 C   0  0  0  0  0  0  0  0  0  0  0  0
   -4.6050   17.3930  -35.5940 C   0  0  0  0  0  0  0  0  0  0  0  0
   -3.2630   17.0810  -34.9260 C   0  0  0  0  0  0  0  0  0  0  0  0
   -2.9410   18.1200  -33.8490 C   0  0  0  0  0  0  0  0  0  0  0  0
   -4.1060   18.2520  -32.8610 C   0  0  0  0  0  0  0  0  0  0  0  0
   -5.8690   21.4380  -31.9000 C   0  0  0  0  0  0  0  0  0  0  0  0
   -4.5710   20.9370  -31.8910 O   0  0  0  0  0  0  0  0  0  0  0  0
   -2.7620   23.1060  -29.4510 C   0  0  0  0  0  0  0  0  0  0  0  0
   -2.6225   19.1919  -25.4816 H   0  0  0  0  0  0  0  0  0  0  0  0
   -3.0199   18.0299  -26.7926 H   0  0  0  0  0  0  0  0  0  0  0  0
   -1.4357   18.8766  -26.7926 H   0  0  0  0  0  0  0  0  0  0  0  0
   -4.0876   19.7827  -27.7618 H   0  0  0  0  0  0  0  0  0  0  0  0
   -3.2215   20.9842  -26.7227 H   0  0  0  0  0  0  0  0  0  0  0  0
   -0.0078   22.2388  -27.6204 H   0  0  0  0  0  0  0  0  0  0  0  0
    0.3212   24.7077  -27.6930 H   0  0  0  0  0  0  0  0  0  0  0  0
   -2.0150   27.1140  -28.9580 H   0  0  0  0  0  0  0  0  0  0  0  0
   -7.5042   24.4183  -31.5544 H   0  0  0  0  0  0  0  0  0  0  0  0
   -9.4621   22.9354  -31.8985 H   0  0  0  0  0  0  0  0  0  0  0  0
   -9.9140   20.0235  -31.2861 H   0  0  0  0  0  0  0  0  0  0  0  0
  -10.2826   20.8586  -32.8332 H   0  0  0  0  0  0  0  0  0  0  0  0
   -9.2751   19.3714  -32.8332 H   0  0  0  0  0  0  0  0  0  0  0  0
   -5.8241   16.5860  -34.0037 H   0  0  0  0  0  0  0  0  0  0  0  0
   -6.6458   17.8131  -35.0364 H   0  0  0  0  0  0  0  0  0  0  0  0
   -4.8680   16.5739  -36.2796 H   0  0  0  0  0  0  0  0  0  0  0  0
   -4.5159   18.3374  -36.1510 H   0  0  0  0  0  0  0  0  0  0  0  0
   -3.3130   16.0844  -34.4630 H   0  0  0  0  0  0  0  0  0  0  0  0
   -2.4725   17.1071  -35.6905 H   0  0  0  0  0  0  0  0  0  0  0  0
   -2.0382   17.8076  -33.3037 H   0  0  0  0  0  0  0  0  0  0  0  0
   -2.7750   19.0934  -34.3337 H   0  0  0  0  0  0  0  0  0  0  0  0
   -4.2440   17.2966  -32.3336 H   0  0  0  0  0  0  0  0  0  0  0  0
   -3.8747   19.0511  -32.1413 H   0  0  0  0  0  0  0  0  0  0  0  0
   -3.6215   22.6487  -29.9630 H   0  0  0  0  0  0  0  0  0  0  0  0
  1  2  1  0
  2  3  1  0
  3  4  2  0
  3  5  2  0
  3  6  1  0
  6  7  2  0
  7  8  1  0
  8  9  2  0
  9 10  1  0
  9 11  1  0
 11 12  1  0
 12 13  1  0
 13 14  2  0
 13 15  1  0
 15 16  1  0
 16 17  2  0
 17 18  1  0
 18 19  2  0
 19 20  1  0
 19 21  1  0
 21 22  1  0
 22 23  2  0
 22 24  2  0
 22 25  1  0
 25 26  1  0
 26 27  1  0
 27 28  1  0
 28 29  1  0
 29 30  1  0
 21 31  2  0
 31 32  1  0
 11 33  2  0
 33  6  1  0
 31 16  1  0
 30 25  1  0
  1 34  1  0
  1 35  1  0
  1 36  1  0
  2 37  1  0
  2 38  1  0
  7 39  1  0
  8 40  1  0
 10 41  1  0
 17 42  1  0
 18 43  1  0
 20 44  1  0
 20 45  1  0
 20 46  1  0
 26 47  1  0
 26 48  1  0
 27 49  1  0
 27 50  1  0
 28 51  1  0
 28 52  1  0
 29 53  1  0
 29 54  1  0
 30 55  1  0
 30 56  1  0
 33 57  1  0
M  CHG  3  12  -1  15  -1  32  -1
M  END
>  <UniqueID>  (40) 
38

>  <SMILES>  (40) 
CCS(=O)(=O)c1ccc(O)c([N-]C(=O)[N-]c2ccc(C)c(S(=O)(=O)N3CCCCC3)c2[O-])c1

>  <Energy>  (40) 
60.17005774032008

>  <Genealogy>  (40) 
CCS(=O)(=O)c1ccc(O)c([N-]C(=O)[N-]c2ccc(C)c(S(=O)(=O)N3CCCCC3)c2[O-])c1 (protonated)
CCS(=O)(=O)c1ccc(O)c([N-]C(=O)[N-]c2ccc(C)c(S(=O)(=O)N3CCCCC3)c2[O-])c1 (3D coordinates assigned)
CCS(=O)(=O)c1ccc(O)c([N-]C(=O)[N-]c2ccc(C)c(S(=O)(=O)N3CCCCC3)c2[O-])c1 (nonaromatic ring conformer: 60.17005774032008 kcal/mol)

>  <smiles>  (40) 
CCS(=O)(=O)c1ccc(O)c(NC(=O)Nc2ccc(C)c(S(=O)(=O)N3CCCCC3)c2O)c1

>  <score_type>  (40) 
oracle

>  <origin>  (40) 
adgpu

>  <m_score__min__energy>  (40) 
-15.449999999999999

>  <m_primary>  (40) 
energy

$$$$
40:0
     RDKit          3D

 55 58  0  0  0  0  0  0  0  0999 V2000
   -0.3200   22.5280  -26.3770 C   0  0  0  0  0  0  0  0  0  0  0  0
   -1.1030   23.1930  -27.4800 C   0  0  0  0  0  0  0  0  0  0  0  0
   -1.0840   24.5940  -27.5530 C   0  0  0  0  0  0  0  0  0  0  0  0
   -1.8450   25.2680  -28.5030 C   0  0  0  0  0  0  0  0  0  0  0  0
   -2.6370   24.5590  -29.4050 C   0  0  0  0  0  0  0  0  0  0  0  0
   -3.5200   25.2940  -30.2600 N   0  0  0  0  0  0  0  0  0  0  0  0
   -4.9020   24.9600  -30.4230 C   0  0  0  0  0  0  0  0  0  0  0  0
   -5.6970   25.1410  -29.4630 O   0  0  0  0  0  0  0  0  0  0  0  0
   -5.3560   24.3650  -31.6460 N   0  0  0  0  0  0  0  0  0  0  0  0
   -6.0770   23.1340  -31.7900 C   0  0  0  0  0  0  0  0  0  0  0  0
   -7.2520   22.9590  -31.0530 C   0  0  0  0  0  0  0  0  0  0  0  0
   -7.9660   21.7630  -31.1350 C   0  0  0  0  0  0  0  0  0  0  0  0
   -7.5090   20.7190  -31.9460 C   0  0  0  0  0  0  0  0  0  0  0  0
   -8.4810   19.2540  -32.0440 Cl  0  0  0  0  0  0  0  0  0  0  0  0
   -6.3130   20.8710  -32.6790 C   0  0  0  0  0  0  0  0  0  0  0  0
   -5.7750   19.7770  -33.5180 C   0  0  0  0  0  0  0  0  0  0  0  0
   -6.4350   19.4000  -34.5240 O   0  0  0  0  0  0  0  0  0  0  0  0
   -4.5260   19.1280  -33.2000 N   0  0  0  0  0  0  0  0  0  0  0  0
   -4.3410   17.7030  -33.5000 C   0  0  0  0  0  0  0  0  0  0  0  0
   -2.8730   17.4300  -33.8450 C   0  0  0  0  0  0  0  0  0  0  0  0
   -2.0160   17.9430  -32.8430 O   0  0  0  0  0  0  0  0  0  0  0  0
   -2.1130   19.3540  -32.8100 C   0  0  0  0  0  0  0  0  0  0  0  0
   -3.5140   19.7910  -32.3700 C   0  0  0  0  0  0  0  0  0  0  0  0
   -5.5970   22.0770  -32.5820 C   0  0  0  0  0  0  0  0  0  0  0  0
   -2.5880   23.1470  -29.4210 C   0  0  0  0  0  0  0  0  0  0  0  0
   -3.2670   22.4270  -30.4070 O   0  0  0  0  0  0  0  0  0  0  0  0
   -1.8360   22.4530  -28.4460 C   0  0  0  0  0  0  0  0  0  0  0  0
   -1.8880   20.6680  -28.4050 S   0  0  0  0  0  0  0  0  0  0  0  0
   -2.9170   20.1560  -29.3740 O   0  0  0  0  0  0  0  0  0  0  0  0
   -0.5610   20.1080  -28.8320 O   0  0  0  0  0  0  0  0  0  0  0  0
   -2.2820   20.0220  -26.7760 C   0  0  0  0  0  0  0  0  0  0  0  0
   -1.9880   18.5380  -26.6150 C   0  0  0  0  0  0  0  0  0  0  0  0
   -3.4270   19.0240  -26.6820 C   0  0  0  0  0  0  0  0  0  0  0  0
   -0.7080   22.8575  -25.4019 H   0  0  0  0  0  0  0  0  0  0  0  0
   -0.4217   21.4360  -26.4621 H   0  0  0  0  0  0  0  0  0  0  0  0
    0.7411   22.8052  -26.4621 H   0  0  0  0  0  0  0  0  0  0  0  0
   -0.4600   25.1664  -26.8508 H   0  0  0  0  0  0  0  0  0  0  0  0
   -1.8216   26.3670  -28.5426 H   0  0  0  0  0  0  0  0  0  0  0  0
   -7.6160   23.7694  -30.4043 H   0  0  0  0  0  0  0  0  0  0  0  0
   -8.8945   21.6403  -30.5580 H   0  0  0  0  0  0  0  0  0  0  0  0
   -4.6268   17.1051  -32.6220 H   0  0  0  0  0  0  0  0  0  0  0  0
   -4.9723   17.4281  -34.3579 H   0  0  0  0  0  0  0  0  0  0  0  0
   -2.7187   16.3442  -33.9298 H   0  0  0  0  0  0  0  0  0  0  0  0
   -2.6372   17.9267  -34.7977 H   0  0  0  0  0  0  0  0  0  0  0  0
   -1.3718   19.7503  -32.1004 H   0  0  0  0  0  0  0  0  0  0  0  0
   -1.9218   19.7451  -33.8202 H   0  0  0  0  0  0  0  0  0  0  0  0
   -3.6683   19.5152  -31.3164 H   0  0  0  0  0  0  0  0  0  0  0  0
   -3.6071   20.8809  -32.4858 H   0  0  0  0  0  0  0  0  0  0  0  0
   -4.6514   22.1944  -33.1316 H   0  0  0  0  0  0  0  0  0  0  0  0
   -3.9480   22.8460  -31.0280 H   0  0  0  0  0  0  0  0  0  0  0  0
   -2.0344   20.9485  -26.2373 H   0  0  0  0  0  0  0  0  0  0  0  0
   -1.5605   17.9680  -27.4531 H   0  0  0  0  0  0  0  0  0  0  0  0
   -1.4036   17.9336  -25.9056 H   0  0  0  0  0  0  0  0  0  0  0  0
   -4.0405   18.8057  -27.5686 H   0  0  0  0  0  0  0  0  0  0  0  0
   -4.3147   18.9169  -26.0413 H   0  0  0  0  0  0  0  0  0  0  0  0
  1  2  1  0
  2  3  2  0
  3  4  1  0
  4  5  2  0
  5  6  1  0
  6  7  1  0
  7  8  2  0
  7  9  1  0
  9 10  1  0
 10 11  2  0
 11 12  1  0
 12 13  2  0
 13 14  1  0
 13 15  1  0
 15 16  1  0
 16 17  2  0
 16 18  1  0
 18 19  1  0
 19 20  1  0
 20 21  1  0
 21 22  1  0
 22 23  1  0
 15 24  2  0
  5 25  1  0
 25 26  1  0
 25 27  2  0
 27 28  1  0
 28 29  2  0
 28 30  2  0
 28 31  1  0
 31 32  1  0
 32 33  1  0
 27  2  1  0
 33 31  1  0
 24 10  1  0
 23 18  1  0
  1 34  1  0
  1 35  1  0
  1 36  1  0
  3 37  1  0
  4 38  1  0
 11 39  1  0
 12 40  1  0
 19 41  1  0
 19 42  1  0
 20 43  1  0
 20 44  1  0
 22 45  1  0
 22 46  1  0
 23 47  1  0
 23 48  1  0
 24 49  1  0
 26 50  1  0
 31 51  1  0
 32 52  1  0
 32 53  1  0
 33 54  1  0
 33 55  1  0
M  CHG  2   6  -1   9  -1
M  END
>  <UniqueID>  (41) 
39

>  <SMILES>  (41) 
Cc1ccc([N-]C(=O)[N-]c2ccc(Cl)c(C(=O)N3CCOCC3)c2)c(O)c1S(=O)(=O)C1CC1

>  <Energy>  (41) 
340.5157373004044

>  <Genealogy>  (41) 
Cc1ccc([N-]C(=O)[N-]c2ccc(Cl)c(C(=O)N3CCOCC3)c2)c(O)c1S(=O)(=O)C1CC1 (protonated)
Cc1ccc([N-]C(=O)[N-]c2ccc(Cl)c(C(=O)N3CCOCC3)c2)c(O)c1S(=O)(=O)C1CC1 (3D coordinates assigned)
Cc1ccc([N-]C(=O)[N-]c2ccc(Cl)c(C(=O)N3CCOCC3)c2)c(O)c1S(=O)(=O)C1CC1 (nonaromatic ring conformer: 340.5157373004044 kcal/mol)

>  <smiles>  (41) 
Cc1ccc(NC(=O)Nc2ccc(Cl)c(C(=O)N3CCOCC3)c2)c(O)c1S(=O)(=O)C1CC1

>  <score_type>  (41) 
oracle

>  <origin>  (41) 
adgpu

>  <m_score__min__energy>  (41) 
-13.220000000000001

>  <m_primary>  (41) 
energy

$$$$
41:0
     RDKit          3D

 62 65  0  0  0  0  0  0  0  0999 V2000
   -1.5170   21.8100  -29.1900 O   0  0  0  0  0  0  0  0  0  0  0  0
   -2.0450   22.9040  -29.5310 C   0  0  0  0  0  0  0  0  0  0  0  0
   -1.4520   24.1440  -29.1080 N   0  0  0  0  0  0  0  0  0  0  0  0
   -0.5920   24.2630  -27.9610 C   0  0  0  0  0  0  0  0  0  0  0  0
    0.3770   23.2780  -27.7200 C   0  0  0  0  0  0  0  0  0  0  0  0
    1.2240   23.3770  -26.6130 C   0  0  0  0  0  0  0  0  0  0  0  0
    1.1240   24.4690  -25.7490 C   0  0  0  0  0  0  0  0  0  0  0  0
    0.1830   25.4770  -25.9940 C   0  0  0  0  0  0  0  0  0  0  0  0
    0.0640   26.8530  -24.9010 S   0  0  0  0  0  0  0  0  0  0  0  0
    1.3780   27.0610  -24.1970 O   0  0  0  0  0  0  0  0  0  0  0  0
   -0.9880   26.5610  -23.8680 O   0  0  0  0  0  0  0  0  0  0  0  0
   -0.3710   28.2850  -25.8000 N   0  0  0  0  0  0  0  0  0  0  0  0
    0.8080   28.8120  -26.5100 C   0  0  0  0  0  0  0  0  0  0  0  0
    0.3990   29.9460  -27.4700 C   0  0  0  0  0  0  0  0  0  0  0  0
   -0.9220   30.6160  -27.0580 C   0  0  0  0  0  0  0  0  0  0  0  0
   -1.0450   30.6930  -25.5340 C   0  0  0  0  0  0  0  0  0  0  0  0
   -0.9280   29.2980  -24.8800 C   0  0  0  0  0  0  0  0  0  0  0  0
   -0.6710   25.3740  -27.1020 C   0  0  0  0  0  0  0  0  0  0  0  0
   -3.2300   22.8940  -30.4200 C   0  0  0  0  0  0  0  0  0  0  0  0
   -3.6840   21.6720  -30.9500 C   0  0  0  0  0  0  0  0  0  0  0  0
   -4.8080   21.6260  -31.7850 C   0  0  0  0  0  0  0  0  0  0  0  0
   -5.3690   20.0810  -32.4290 S   0  0  0  0  0  0  0  0  0  0  0  0
   -4.8090   19.8820  -33.8100 O   0  0  0  0  0  0  0  0  0  0  0  0
   -4.8580   18.9690  -31.5550 O   0  0  0  0  0  0  0  0  0  0  0  0
   -7.1140   20.0090  -32.4950 N   0  0  0  0  0  0  0  0  0  0  0  0
   -7.5910   18.6980  -32.0230 C   0  0  0  0  0  0  0  0  0  0  0  0
   -9.0960   18.5410  -32.3110 C   0  0  0  0  0  0  0  0  0  0  0  0
   -9.8140   19.8950  -32.4400 C   0  0  0  0  0  0  0  0  0  0  0  0
   -9.2200   20.9270  -31.4770 C   0  0  0  0  0  0  0  0  0  0  0  0
   -7.6990   21.1040  -31.6930 C   0  0  0  0  0  0  0  0  0  0  0  0
   -5.4860   22.8110  -32.0970 C   0  0  0  0  0  0  0  0  0  0  0  0
   -5.0510   24.0280  -31.5710 C   0  0  0  0  0  0  0  0  0  0  0  0
   -3.9360   24.0760  -30.7280 C   0  0  0  0  0  0  0  0  0  0  0  0
   -3.5610   25.2990  -30.1830 O   0  0  0  0  0  0  0  0  0  0  0  0
   -1.5610   24.9750  -29.7310 H   0  0  0  0  0  0  0  0  0  0  0  0
    0.4707   22.4232  -28.4059 H   0  0  0  0  0  0  0  0  0  0  0  0
    1.9713   22.5927  -26.4219 H   0  0  0  0  0  0  0  0  0  0  0  0
    1.7861   24.5379  -24.8733 H   0  0  0  0  0  0  0  0  0  0  0  0
    1.5282   29.2018  -25.7756 H   0  0  0  0  0  0  0  0  0  0  0  0
    1.2637   27.9990  -27.0942 H   0  0  0  0  0  0  0  0  0  0  0  0
    1.1936   30.7066  -27.4768 H   0  0  0  0  0  0  0  0  0  0  0  0
    0.2541   29.5048  -28.4672 H   0  0  0  0  0  0  0  0  0  0  0  0
   -0.9542   31.6340  -27.4736 H   0  0  0  0  0  0  0  0  0  0  0  0
   -1.7568   30.0148  -27.4475 H   0  0  0  0  0  0  0  0  0  0  0  0
   -0.2439   31.3380  -25.1438 H   0  0  0  0  0  0  0  0  0  0  0  0
   -2.0358   31.1040  -25.2903 H   0  0  0  0  0  0  0  0  0  0  0  0
   -0.2712   29.3748  -24.0009 H   0  0  0  0  0  0  0  0  0  0  0  0
   -1.9417   28.9741  -24.6015 H   0  0  0  0  0  0  0  0  0  0  0  0
   -1.4071   26.1670  -27.3003 H   0  0  0  0  0  0  0  0  0  0  0  0
   -3.1500   20.7418  -30.7058 H   0  0  0  0  0  0  0  0  0  0  0  0
   -7.0372   17.9020  -32.5423 H   0  0  0  0  0  0  0  0  0  0  0  0
   -7.4251   18.6265  -30.9379 H   0  0  0  0  0  0  0  0  0  0  0  0
   -9.2192   17.9850  -33.2521 H   0  0  0  0  0  0  0  0  0  0  0  0
   -9.5449   18.0035  -31.4628 H   0  0  0  0  0  0  0  0  0  0  0  0
   -9.7064   20.2621  -33.4713 H   0  0  0  0  0  0  0  0  0  0  0  0
  -10.8756   19.7532  -32.1894 H   0  0  0  0  0  0  0  0  0  0  0  0
   -9.7179   21.8942  -31.6400 H   0  0  0  0  0  0  0  0  0  0  0  0
   -9.3804   20.5684  -30.4495 H   0  0  0  0  0  0  0  0  0  0  0  0
   -7.5245   22.0565  -32.2148 H   0  0  0  0  0  0  0  0  0  0  0  0
   -7.2157   21.0921  -30.7049 H   0  0  0  0  0  0  0  0  0  0  0  0
   -6.3642   22.7823  -32.7588 H   0  0  0  0  0  0  0  0  0  0  0  0
   -5.5881   24.9549  -31.8208 H   0  0  0  0  0  0  0  0  0  0  0  0
  1  2  2  0
  2  3  1  0
  3  4  1  0
  4  5  2  0
  5  6  1  0
  6  7  2  0
  7  8  1  0
  8  9  1  0
  9 10  2  0
  9 11  2  0
  9 12  1  0
 12 13  1  0
 13 14  1  0
 14 15  1  0
 15 16  1  0
 16 17  1  0
  8 18  2  0
  2 19  1  0
 19 20  2  0
 20 21  1  0
 21 22  1  0
 22 23  2  0
 22 24  2  0
 22 25  1  0
 25 26  1  0
 26 27  1  0
 27 28  1  0
 28 29  1  0
 29 30  1  0
 21 31  2  0
 31 32  1  0
 32 33  2  0
 33 34  1  0
 18  4  1  0
 33 19  1  0
 17 12  1  0
 30 25  1  0
  3 35  1  0
  5 36  1  0
  6 37  1  0
  7 38  1  0
 13 39  1  0
 13 40  1  0
 14 41  1  0
 14 42  1  0
 15 43  1  0
 15 44  1  0
 16 45  1  0
 16 46  1  0
 17 47  1  0
 17 48  1  0
 18 49  1  0
 20 50  1  0
 26 51  1  0
 26 52  1  0
 27 53  1  0
 27 54  1  0
 28 55  1  0
 28 56  1  0
 29 57  1  0
 29 58  1  0
 30 59  1  0
 30 60  1  0
 31 61  1  0
 32 62  1  0
M  CHG  1  34  -1
M  END
>  <UniqueID>  (42) 
40

>  <SMILES>  (42) 
O=C(Nc1cccc(S(=O)(=O)N2CCCCC2)c1)c1cc(S(=O)(=O)N2CCCCC2)ccc1[O-]

>  <Energy>  (42) 
76.02438996687376

>  <Genealogy>  (42) 
O=C(Nc1cccc(S(=O)(=O)N2CCCCC2)c1)c1cc(S(=O)(=O)N2CCCCC2)ccc1[O-] (protonated)
O=C(Nc1cccc(S(=O)(=O)N2CCCCC2)c1)c1cc(S(=O)(=O)N2CCCCC2)ccc1[O-] (3D coordinates assigned)
O=C(Nc1cccc(S(=O)(=O)N2CCCCC2)c1)c1cc(S(=O)(=O)N2CCCCC2)ccc1[O-] (nonaromatic ring conformer: 76.02438996687376 kcal/mol)

>  <smiles>  (42) 
O=C(Nc1cccc(S(=O)(=O)N2CCCCC2)c1)c1cc(S(=O)(=O)N2CCCCC2)ccc1O

>  <score_type>  (42) 
oracle

>  <origin>  (42) 
adgpu

>  <m_score__min__energy>  (42) 
-14.6

>  <m_primary>  (42) 
energy

$$$$
42:0
     RDKit          3D

 45 48  0  0  0  0  0  0  0  0999 V2000
   -0.0359   26.0821  -22.7062 H   0  0  0  0  0  0  0  0  0  0  0  0
   -0.2600   26.0330  -23.7820 C   0  0  0  0  0  0  0  0  0  0  0  0
   -0.1660   27.2000  -24.5710 C   0  0  0  0  0  0  0  0  0  0  0  0
    0.1313   28.1515  -24.1059 H   0  0  0  0  0  0  0  0  0  0  0  0
   -0.4500   27.1540  -25.9480 C   0  0  0  0  0  0  0  0  0  0  0  0
   -0.3815   28.0578  -26.5712 H   0  0  0  0  0  0  0  0  0  0  0  0
   -0.8210   25.9280  -26.4990 C   0  0  0  0  0  0  0  0  0  0  0  0
   -0.9150   24.7890  -25.7270 C   0  0  0  0  0  0  0  0  0  0  0  0
   -0.6380   24.8080  -24.3610 C   0  0  0  0  0  0  0  0  0  0  0  0
   -0.7127   23.8933  -23.7545 H   0  0  0  0  0  0  0  0  0  0  0  0
   -1.3210   23.6940  -26.6000 C   0  0  0  0  0  0  0  0  0  0  0  0
   -1.4590   22.4930  -26.2470 O   0  0  0  0  0  0  0  0  0  0  0  0
   -1.4830   24.1700  -27.9410 N   0  0  0  0  0  0  0  0  0  0  0  0
   -1.8550   23.4110  -29.1060 C   0  0  0  0  0  0  0  0  0  0  0  0
   -3.0020   23.7550  -29.8430 C   0  0  0  0  0  0  0  0  0  0  0  0
   -3.6169   24.6116  -29.5297 H   0  0  0  0  0  0  0  0  0  0  0  0
   -3.3650   23.0150  -30.9710 C   0  0  0  0  0  0  0  0  0  0  0  0
   -4.2623   23.2937  -31.5430 H   0  0  0  0  0  0  0  0  0  0  0  0
   -2.5920   21.9200  -31.3770 C   0  0  0  0  0  0  0  0  0  0  0  0
   -3.0540   20.9990  -32.8020 S   0  0  0  0  0  0  0  0  0  0  0  0
   -1.8700   20.2230  -33.3110 O   0  0  0  0  0  0  0  0  0  0  0  0
   -3.5390   21.9450  -33.8640 O   0  0  0  0  0  0  0  0  0  0  0  0
   -4.3180   19.8880  -32.3760 N   0  0  0  0  0  0  0  0  0  0  0  0
   -5.5500   20.2410  -32.1650 C   0  0  0  0  0  0  0  0  0  0  0  0
   -5.9270   21.5450  -32.2720 N   0  0  0  0  0  0  0  0  0  0  0  0
   -7.2120   21.9300  -32.0560 C   0  0  0  0  0  0  0  0  0  0  0  0
   -7.5950   23.3670  -32.2100 C   0  0  0  0  0  0  0  0  0  0  0  0
   -7.7164   23.8226  -31.2162 H   0  0  0  0  0  0  0  0  0  0  0  0
   -6.8073   23.8991  -32.7636 H   0  0  0  0  0  0  0  0  0  0  0  0
   -8.5430   23.4365  -32.7636 H   0  0  0  0  0  0  0  0  0  0  0  0
   -8.1730   20.9690  -31.7310 C   0  0  0  0  0  0  0  0  0  0  0  0
   -9.2230   21.2572  -31.5748 H   0  0  0  0  0  0  0  0  0  0  0  0
   -7.7750   19.6340  -31.6080 C   0  0  0  0  0  0  0  0  0  0  0  0
   -8.7830   18.5690  -31.2910 C   0  0  0  0  0  0  0  0  0  0  0  0
   -8.8787   18.4679  -30.1998 H   0  0  0  0  0  0  0  0  0  0  0  0
   -9.7570   18.8465  -31.7204 H   0  0  0  0  0  0  0  0  0  0  0  0
   -8.4524   17.6117  -31.7204 H   0  0  0  0  0  0  0  0  0  0  0  0
   -6.4750   19.2950  -31.8390 N   0  0  0  0  0  0  0  0  0  0  0  0
   -6.1820   18.2930  -31.7660 H   0  0  0  0  0  0  0  0  0  0  0  0
   -1.4440   21.5780  -30.6500 C   0  0  0  0  0  0  0  0  0  0  0  0
   -0.8276   20.7246  -30.9690 H   0  0  0  0  0  0  0  0  0  0  0  0
   -1.0790   22.3170  -29.5210 C   0  0  0  0  0  0  0  0  0  0  0  0
   -0.1781   22.0397  -28.9541 H   0  0  0  0  0  0  0  0  0  0  0  0
   -1.1700   25.5670  -27.8680 C   0  0  0  0  0  0  0  0  0  0  0  0
   -1.2380   26.3660  -28.8380 O   0  0  0  0  0  0  0  0  0  0  0  0
  1  2  1  0
  2  3  2  0
  3  4  1  0
  3  5  1  0
  5  6  1  0
  5  7  2  0
  7  8  1  0
  8  9  2  0
  9 10  1  0
  8 11  1  0
 11 12  2  0
 11 13  1  0
 13 14  1  0
 14 15  2  0
 15 16  1  0
 15 17  1  0
 17 18  1  0
 17 19  2  0
 19 20  1  0
 20 21  2  0
 20 22  2  0
 20 23  1  0
 23 24  2  0
 24 25  1  0
 25 26  2  0
 26 27  1  0
 27 28  1  0
 27 29  1  0
 27 30  1  0
 26 31  1  0
 31 32  1  0
 31 33  2  0
 33 34  1  0
 34 35  1  0
 34 36  1  0
 34 37  1  0
 33 38  1  0
 38 39  1  0
 19 40  1  0
 40 41  1  0
 40 42  2  0
 42 43  1  0
 13 44  1  0
 44 45  2  0
  9  2  1  0
 42 14  1  0
 44  7  1  0
 38 24  1  0
M  END
>  <UniqueID>  (43) 
41

>  <SMILES>  (43) 
Cc1cc(C)[nH]/c(=N/S(=O)(=O)c2ccc(N3C(=O)c4ccccc4C3=O)cc2)n1

>  <Energy>  (43) 
88.53933161972064

>  <Genealogy>  (43) 
Cc1cc(C)[nH]/c(=N/S(=O)(=O)c2ccc(N3C(=O)c4ccccc4C3=O)cc2)n1 (cis-trans isomerization)
Cc1cc(C)[nH]/c(=N/S(=O)(=O)c2ccc(N3C(=O)c4ccccc4C3=O)cc2)n1 (3D coordinates assigned)
Cc1cc(C)[nH]/c(=N/S(=O)(=O)c2ccc(N3C(=O)c4ccccc4C3=O)cc2)n1 (nonaromatic ring conformer: 88.53933161972064 kcal/mol)

>  <smiles>  (43) 
Cc1cc(C)[nH]c(=NS(=O)(=O)c2ccc(N3C(=O)c4ccccc4C3=O)cc2)n1

>  <score_type>  (43) 
oracle

>  <origin>  (43) 
adgpu

>  <m_score__min__energy>  (43) 
-9.8100000000000005

>  <m_primary>  (43) 
energy

$$$$
43:0
     RDKit          3D

 43 45  0  0  0  0  0  0  0  0999 V2000
   -3.9577   21.4521  -33.5404 H   0  0  0  0  0  0  0  0  0  0  0  0
   -4.0820   20.3700  -33.3870 C   0  0  0  0  0  0  0  0  0  0  0  0
   -3.0800   19.5720  -33.6030 N   0  0  0  0  0  0  0  0  0  0  0  0
   -1.7570   19.9450  -34.0300 C   0  0  0  0  0  0  0  0  0  0  0  0
   -1.2440   21.2500  -33.8810 C   0  0  0  0  0  0  0  0  0  0  0  0
   -1.8674   22.0359  -33.4296 H   0  0  0  0  0  0  0  0  0  0  0  0
    0.0540   21.5480  -34.3050 C   0  0  0  0  0  0  0  0  0  0  0  0
    0.4450   22.5698  -34.1911 H   0  0  0  0  0  0  0  0  0  0  0  0
    0.8600   20.5540  -34.8740 C   0  0  0  0  0  0  0  0  0  0  0  0
    2.4940   20.9520  -35.3960 S   0  0  0  0  0  0  0  0  0  0  0  0
    2.6040   20.7240  -36.8770 O   0  0  0  0  0  0  0  0  0  0  0  0
    3.4680   20.0700  -34.6660 O   0  0  0  0  0  0  0  0  0  0  0  0
    2.8470   22.6130  -35.0440 N   0  0  0  0  0  0  0  0  0  0  0  0
    2.3190   23.6030  -35.6930 C   0  0  0  0  0  0  0  0  0  0  0  0
    1.4440   23.4590  -36.7120 N   0  0  0  0  0  0  0  0  0  0  0  0
    1.0470   24.6240  -37.2190 N   0  0  0  0  0  0  0  0  0  0  0  0
    1.5970   25.6930  -36.5970 C   0  0  0  0  0  0  0  0  0  0  0  0
    1.3560   27.1070  -37.0180 C   0  0  0  0  0  0  0  0  0  0  0  0
    1.7813   27.2632  -38.0204 H   0  0  0  0  0  0  0  0  0  0  0  0
    1.8358   27.7797  -36.2919 H   0  0  0  0  0  0  0  0  0  0  0  0
   -0.1380   27.4090  -37.0550 C   0  0  0  0  0  0  0  0  0  0  0  0
   -0.5220   27.4866  -36.0271 H   0  0  0  0  0  0  0  0  0  0  0  0
   -0.3070   28.3595  -37.5823 H   0  0  0  0  0  0  0  0  0  0  0  0
   -0.6629   26.5988  -37.5823 H   0  0  0  0  0  0  0  0  0  0  0  0
    2.6520   25.2190  -35.3680 S   0  0  0  0  0  0  0  0  0  0  0  0
    0.3570   19.2540  -35.0130 C   0  0  0  0  0  0  0  0  0  0  0  0
    0.9848   18.4673  -35.4568 H   0  0  0  0  0  0  0  0  0  0  0  0
   -0.9410   18.9540  -34.5890 C   0  0  0  0  0  0  0  0  0  0  0  0
   -1.3252   17.9288  -34.6957 H   0  0  0  0  0  0  0  0  0  0  0  0
   -5.3860   19.8420  -32.9380 C   0  0  0  0  0  0  0  0  0  0  0  0
   -6.4870   20.6930  -32.7190 C   0  0  0  0  0  0  0  0  0  0  0  0
   -6.3833   21.7756  -32.8842 H   0  0  0  0  0  0  0  0  0  0  0  0
   -7.7100   20.1690  -32.2930 C   0  0  0  0  0  0  0  0  0  0  0  0
   -8.5606   20.8430  -32.1133 H   0  0  0  0  0  0  0  0  0  0  0  0
   -7.8600   18.7890  -32.0930 C   0  0  0  0  0  0  0  0  0  0  0  0
   -9.1620   18.2320  -31.6000 C   0  0  0  0  0  0  0  0  0  0  0  0
   -9.1669   18.2299  -30.5000 H   0  0  0  0  0  0  0  0  0  0  0  0
   -9.9904   18.8545  -31.9692 H   0  0  0  0  0  0  0  0  0  0  0  0
   -9.2839   17.2030  -31.9692 H   0  0  0  0  0  0  0  0  0  0  0  0
   -6.7610   17.9420  -32.2940 C   0  0  0  0  0  0  0  0  0  0  0  0
   -6.8637   16.8612  -32.1172 H   0  0  0  0  0  0  0  0  0  0  0  0
   -5.5350   18.4640  -32.7180 C   0  0  0  0  0  0  0  0  0  0  0  0
   -4.6812   17.7897  -32.8803 H   0  0  0  0  0  0  0  0  0  0  0  0
  1  2  1  0
  2  3  2  0
  3  4  1  0
  4  5  2  0
  5  6  1  0
  5  7  1  0
  7  8  1  0
  7  9  2  0
  9 10  1  0
 10 11  2  0
 10 12  2  0
 10 13  1  0
 13 14  2  3
 14 15  1  0
 15 16  1  0
 16 17  2  0
 17 18  1  0
 18 19  1  0
 18 20  1  0
 18 21  1  0
 21 22  1  0
 21 23  1  0
 21 24  1  0
 17 25  1  0
  9 26  1  0
 26 27  1  0
 26 28  2  0
 28 29  1  0
  2 30  1  0
 30 31  2  0
 31 32  1  0
 31 33  1  0
 33 34  1  0
 33 35  2  0
 35 36  1  0
 36 37  1  0
 36 38  1  0
 36 39  1  0
 35 40  1  0
 40 41  1  0
 40 42  2  0
 42 43  1  0
 28  4  1  0
 42 30  1  0
 25 14  1  0
M  CHG  1  15  -1
M  END
>  <UniqueID>  (44) 
42

>  <SMILES>  (44) 
CCc1n[n-]c(=NS(=O)(=O)c2ccc(/N=C/c3ccc(C)cc3)cc2)s1

>  <Energy>  (44) 
80.94776485442851

>  <Genealogy>  (44) 
CCc1n[n-]c(=NS(=O)(=O)c2ccc(N=Cc3ccc(C)cc3)cc2)s1 (protonated)
CCc1n[n-]c(=NS(=O)(=O)c2ccc(/N=C/c3ccc(C)cc3)cc2)s1 (cis-trans isomerization)
CCc1n[n-]c(=NS(=O)(=O)c2ccc(/N=C/c3ccc(C)cc3)cc2)s1 (3D coordinates assigned)
CCc1n[n-]c(=NS(=O)(=O)c2ccc(/N=C/c3ccc(C)cc3)cc2)s1 (optimized conformer: 80.94776485442851 kcal/mol)

>  <smiles>  (44) 
CCc1n[nH]c(=NS(=O)(=O)c2ccc(N=Cc3ccc(C)cc3)cc2)s1

>  <score_type>  (44) 
oracle

>  <origin>  (44) 
adgpu

>  <m_score__min__energy>  (44) 
-9.7300000000000004

>  <m_primary>  (44) 
energy

$$$$
44:0
     RDKit          3D

 42 45  0  0  0  0  0  0  0  0999 V2000
   -6.5310   25.6680  -29.3500 C   0  0  0  0  0  0  0  0  0  0  0  0
   -5.5460   24.7180  -29.9640 C   0  0  0  0  0  0  0  0  0  0  0  0
   -5.9430   23.8620  -31.0000 C   0  0  0  0  0  0  0  0  0  0  0  0
   -5.0260   22.9800  -31.5880 C   0  0  0  0  0  0  0  0  0  0  0  0
   -5.4610   22.1150  -32.6510 N   0  0  0  0  0  0  0  0  0  0  0  0
   -6.4860   21.1140  -32.5170 C   0  0  0  0  0  0  0  0  0  0  0  0
   -7.7550   21.4830  -32.0470 C   0  0  0  0  0  0  0  0  0  0  0  0
   -8.7580   20.5220  -31.8890 C   0  0  0  0  0  0  0  0  0  0  0  0
   -8.4950   19.1820  -32.1850 C   0  0  0  0  0  0  0  0  0  0  0  0
   -7.2270   18.8000  -32.6300 C   0  0  0  0  0  0  0  0  0  0  0  0
   -6.2230   19.7590  -32.7890 C   0  0  0  0  0  0  0  0  0  0  0  0
   -3.6850   23.0040  -31.1700 C   0  0  0  0  0  0  0  0  0  0  0  0
   -3.2650   23.8880  -30.1630 C   0  0  0  0  0  0  0  0  0  0  0  0
   -1.9000   23.9070  -29.7070 N   0  0  0  0  0  0  0  0  0  0  0  0
   -1.5050   24.0890  -28.3370 C   0  0  0  0  0  0  0  0  0  0  0  0
   -0.9350   22.9990  -27.6280 C   0  0  0  0  0  0  0  0  0  0  0  0
   -0.5560   23.1350  -26.2780 C   0  0  0  0  0  0  0  0  0  0  0  0
   -0.7750   24.3670  -25.6690 C   0  0  0  0  0  0  0  0  0  0  0  0
   -0.5100   24.7340  -24.4060 N   0  0  0  0  0  0  0  0  0  0  0  0
   -0.8950   25.9950  -24.2470 N   0  0  0  0  0  0  0  0  0  0  0  0
   -1.4110   26.4380  -25.4210 C   0  0  0  0  0  0  0  0  0  0  0  0
   -1.3410   25.4110  -26.3360 C   0  0  0  0  0  0  0  0  0  0  0  0
   -1.7310   25.3180  -27.6680 C   0  0  0  0  0  0  0  0  0  0  0  0
   -4.2050   24.7300  -29.5520 C   0  0  0  0  0  0  0  0  0  0  0  0
   -6.4662   25.6055  -28.2537 H   0  0  0  0  0  0  0  0  0  0  0  0
   -6.3011   26.6941  -29.6730 H   0  0  0  0  0  0  0  0  0  0  0  0
   -7.5481   25.4011  -29.6730 H   0  0  0  0  0  0  0  0  0  0  0  0
   -6.9839   23.8824  -31.3551 H   0  0  0  0  0  0  0  0  0  0  0  0
   -4.9950   22.2130  -33.5820 H   0  0  0  0  0  0  0  0  0  0  0  0
   -7.9623   22.5350  -31.8012 H   0  0  0  0  0  0  0  0  0  0  0  0
   -9.7545   20.8208  -31.5316 H   0  0  0  0  0  0  0  0  0  0  0  0
   -9.2868   18.4275  -32.0676 H   0  0  0  0  0  0  0  0  0  0  0  0
   -7.0188   17.7437  -32.8554 H   0  0  0  0  0  0  0  0  0  0  0  0
   -5.2224   19.4530  -33.1284 H   0  0  0  0  0  0  0  0  0  0  0  0
   -2.9569   22.3237  -31.6360 H   0  0  0  0  0  0  0  0  0  0  0  0
   -1.1450   23.7840  -30.4190 H   0  0  0  0  0  0  0  0  0  0  0  0
   -0.7875   22.0362  -28.1392 H   0  0  0  0  0  0  0  0  0  0  0  0
   -0.1036   22.2982  -25.7256 H   0  0  0  0  0  0  0  0  0  0  0  0
   -0.0790   24.1450  -23.6590 H   0  0  0  0  0  0  0  0  0  0  0  0
   -1.8153   27.4435  -25.6094 H   0  0  0  0  0  0  0  0  0  0  0  0
   -2.1988   26.1691  -28.1845 H   0  0  0  0  0  0  0  0  0  0  0  0
   -3.8886   25.4052  -28.7433 H   0  0  0  0  0  0  0  0  0  0  0  0
  1  2  1  0
  2  3  2  0
  3  4  1  0
  4  5  1  0
  5  6  1  0
  6  7  2  0
  7  8  1  0
  8  9  2  0
  9 10  1  0
 10 11  2  0
  4 12  2  0
 12 13  1  0
 13 14  1  0
 14 15  1  0
 15 16  2  0
 16 17  1  0
 17 18  2  0
 18 19  1  0
 19 20  1  0
 20 21  2  0
 21 22  1  0
 22 23  2  0
 13 24  2  0
 24  2  1  0
 11  6  1  0
 23 15  1  0
 22 18  1  0
  1 25  1  0
  1 26  1  0
  1 27  1  0
  3 28  1  0
  5 29  1  0
  7 30  1  0
  8 31  1  0
  9 32  1  0
 10 33  1  0
 11 34  1  0
 12 35  1  0
 14 36  1  0
 16 37  1  0
 17 38  1  0
 19 39  1  0
 21 40  1  0
 23 41  1  0
 24 42  1  0
M  END
>  <UniqueID>  (45) 
43

>  <SMILES>  (45) 
Cc1cc(Nc2ccccc2)cc(Nc2ccc3[nH]ncc3c2)c1

>  <Energy>  (45) 
94.27375440172695

>  <Genealogy>  (45) 
Cc1cc(Nc2ccccc2)cc(Nc2ccc3[nH]ncc3c2)c1 (3D coordinates assigned)
Cc1cc(Nc2ccccc2)cc(Nc2ccc3[nH]ncc3c2)c1 (optimized conformer: 94.27375440172695 kcal/mol)

>  <smiles>  (45) 
Cc1cc(Nc2ccccc2)cc(Nc2ccc3[nH]ncc3c2)c1

>  <score_type>  (45) 
oracle

>  <origin>  (45) 
adgpu

>  <m_score__min__energy>  (45) 
-8.9499999999999993

>  <m_primary>  (45) 
energy

$$$$
45:0
     RDKit          3D

 40 42  0  0  0  0  0  0  0  0999 V2000
   -4.6400   26.1940  -31.2480 H   0  0  0  0  0  0  0  0  0  0  0  0
   -3.8660   25.6400  -30.9030 O   0  0  0  0  0  0  0  0  0  0  0  0
   -4.0360   24.5430  -30.0560 C   0  0  0  0  0  0  0  0  0  0  0  0
   -2.9060   24.0220  -29.4130 C   0  0  0  0  0  0  0  0  0  0  0  0
   -1.9225   24.4876  -29.5739 H   0  0  0  0  0  0  0  0  0  0  0  0
   -3.0200   22.9140  -28.5680 C   0  0  0  0  0  0  0  0  0  0  0  0
   -1.5960   22.2640  -27.7760 Cl  0  0  0  0  0  0  0  0  0  0  0  0
   -4.2690   22.3280  -28.3500 C   0  0  0  0  0  0  0  0  0  0  0  0
   -4.3592   21.4585  -27.6822 H   0  0  0  0  0  0  0  0  0  0  0  0
   -5.4030   22.8450  -28.9790 C   0  0  0  0  0  0  0  0  0  0  0  0
   -6.3866   22.3901  -28.7904 H   0  0  0  0  0  0  0  0  0  0  0  0
   -5.2980   23.9430  -29.8520 C   0  0  0  0  0  0  0  0  0  0  0  0
   -6.5150   24.4950  -30.4920 C   0  0  0  0  0  0  0  0  0  0  0  0
   -6.7139   25.5714  -30.3837 H   0  0  0  0  0  0  0  0  0  0  0  0
   -7.3640   23.7800  -31.1760 N   0  0  0  0  0  0  0  0  0  0  0  0
   -7.2050   22.4110  -31.5780 C   0  0  0  0  0  0  0  0  0  0  0  0
   -8.1710   21.4220  -31.5170 C   0  0  0  0  0  0  0  0  0  0  0  0
   -9.5270   21.5510  -30.8910 C   0  0  0  0  0  0  0  0  0  0  0  0
   -9.4275   21.5415  -29.7955 H   0  0  0  0  0  0  0  0  0  0  0  0
   -9.9892   22.4972  -31.2091 H   0  0  0  0  0  0  0  0  0  0  0  0
  -10.1593   20.7090  -31.2091 H   0  0  0  0  0  0  0  0  0  0  0  0
   -7.6600   20.2860  -32.0530 N   0  0  0  0  0  0  0  0  0  0  0  0
   -8.3420   18.9910  -32.1300 C   0  0  0  0  0  0  0  0  0  0  0  0
   -8.5380   18.6188  -31.1136 H   0  0  0  0  0  0  0  0  0  0  0  0
   -9.2946   19.1096  -32.6671 H   0  0  0  0  0  0  0  0  0  0  0  0
   -7.7052   18.2726  -32.6671 H   0  0  0  0  0  0  0  0  0  0  0  0
   -6.4330   20.5400  -32.5070 N   0  0  0  0  0  0  0  0  0  0  0  0
   -5.5730   19.6110  -33.1900 C   0  0  0  0  0  0  0  0  0  0  0  0
   -6.0520   18.8880  -34.2940 C   0  0  0  0  0  0  0  0  0  0  0  0
   -7.0843   19.0401  -34.6422 H   0  0  0  0  0  0  0  0  0  0  0  0
   -5.2220   17.9750  -34.9530 C   0  0  0  0  0  0  0  0  0  0  0  0
   -5.6000   17.4165  -35.8220 H   0  0  0  0  0  0  0  0  0  0  0  0
   -3.9130   17.7720  -34.5080 C   0  0  0  0  0  0  0  0  0  0  0  0
   -3.2608   17.0543  -35.0271 H   0  0  0  0  0  0  0  0  0  0  0  0
   -3.4320   18.4810  -33.4030 C   0  0  0  0  0  0  0  0  0  0  0  0
   -2.4015   18.3202  -33.0533 H   0  0  0  0  0  0  0  0  0  0  0  0
   -4.2590   19.3940  -32.7420 C   0  0  0  0  0  0  0  0  0  0  0  0
   -3.8798   19.9443  -31.8683 H   0  0  0  0  0  0  0  0  0  0  0  0
   -6.1420   21.8290  -32.2390 C   0  0  0  0  0  0  0  0  0  0  0  0
   -5.0830   22.4090  -32.6000 O   0  0  0  0  0  0  0  0  0  0  0  0
  1  2  1  0
  2  3  1  0
  3  4  2  0
  4  5  1  0
  4  6  1  0
  6  7  1  0
  6  8  2  0
  8  9  1  0
  8 10  1  0
 10 11  1  0
 10 12  2  0
 12 13  1  0
 13 14  1  0
 13 15  2  0
 15 16  1  0
 16 17  2  0
 17 18  1  0
 18 19  1  0
 18 20  1  0
 18 21  1  0
 17 22  1  0
 22 23  1  0
 23 24  1  0
 23 25  1  0
 23 26  1  0
 22 27  1  0
 27 28  1  0
 28 29  2  0
 29 30  1  0
 29 31  1  0
 31 32  1  0
 31 33  2  0
 33 34  1  0
 33 35  1  0
 35 36  1  0
 35 37  2  0
 37 38  1  0
 27 39  1  0
 39 40  2  0
 12  3  1  0
 39 16  1  0
 37 28  1  0
M  END
>  <UniqueID>  (46) 
44

>  <SMILES>  (46) 
Cc1c(/N=C\c2ccc(Cl)cc2O)c(=O)n(-c2ccccc2)n1C

>  <Energy>  (46) 
94.46037394738384

>  <Genealogy>  (46) 
Cc1c(/N=C\c2ccc(Cl)cc2O)c(=O)n(-c2ccccc2)n1C (cis-trans isomerization)
Cc1c(/N=C\c2ccc(Cl)cc2O)c(=O)n(-c2ccccc2)n1C (3D coordinates assigned)
Cc1c(/N=C\c2ccc(Cl)cc2O)c(=O)n(-c2ccccc2)n1C (optimized conformer: 94.46037394738384 kcal/mol)

>  <smiles>  (46) 
Cc1c(N=Cc2ccc(Cl)cc2O)c(=O)n(-c2ccccc2)n1C

>  <score_type>  (46) 
oracle

>  <origin>  (46) 
adgpu

>  <m_score__min__energy>  (46) 
-9.8300000000000001

>  <m_primary>  (46) 
energy

$$$$
46:0
     RDKit          3D

 45 46  0  0  0  0  0  0  0  0999 V2000
   -4.9470   17.5030  -34.9780 C   0  0  0  0  0  0  0  0  0  0  0  0
   -5.5100   18.7670  -34.6520 O   0  0  0  0  0  0  0  0  0  0  0  0
   -6.4700   18.9310  -33.6510 C   0  0  0  0  0  0  0  0  0  0  0  0
   -7.0570   17.8540  -33.0610 N   0  0  0  0  0  0  0  0  0  0  0  0
   -7.9910   18.0130  -32.0880 C   0  0  0  0  0  0  0  0  0  0  0  0
   -8.3590   19.2940  -31.6800 C   0  0  0  0  0  0  0  0  0  0  0  0
   -7.7470   20.3960  -32.2880 C   0  0  0  0  0  0  0  0  0  0  0  0
   -8.0840   21.7390  -31.8940 N   0  0  0  0  0  0  0  0  0  0  0  0
   -8.3830   22.0460  -30.4930 C   0  0  0  0  0  0  0  0  0  0  0  0
   -7.1390   22.6710  -29.8550 C   0  0  0  0  0  0  0  0  0  0  0  0
   -6.6640   23.8330  -30.6360 N   0  0  0  0  0  0  0  0  0  0  0  0
   -5.2490   24.5500  -29.8900 S   0  0  0  0  0  0  0  0  0  0  0  0
   -5.7390   25.3600  -28.7210 O   0  0  0  0  0  0  0  0  0  0  0  0
   -4.5960   25.5110  -30.8450 O   0  0  0  0  0  0  0  0  0  0  0  0
   -4.0240   23.4010  -29.2010 C   0  0  0  0  0  0  0  0  0  0  0  0
   -2.6030   23.9050  -28.7840 C   0  0  0  0  0  0  0  0  0  0  0  0
   -1.4750   23.2810  -29.6310 C   0  0  0  0  0  0  0  0  0  0  0  0
   -2.3350   23.6570  -27.2840 C   0  0  0  0  0  0  0  0  0  0  0  0
   -2.6000   25.3000  -29.0000 O   0  0  0  0  0  0  0  0  0  0  0  0
   -6.4180   23.5180  -32.0610 C   0  0  0  0  0  0  0  0  0  0  0  0
   -7.6520   22.8760  -32.7080 C   0  0  0  0  0  0  0  0  0  0  0  0
   -6.8210   20.1850  -33.2640 N   0  0  0  0  0  0  0  0  0  0  0  0
   -4.7050   16.9597  -34.0526 H   0  0  0  0  0  0  0  0  0  0  0  0
   -5.6706   16.9202  -35.5668 H   0  0  0  0  0  0  0  0  0  0  0  0
   -4.0297   17.6510  -35.5668 H   0  0  0  0  0  0  0  0  0  0  0  0
   -8.4566   17.1318  -31.6224 H   0  0  0  0  0  0  0  0  0  0  0  0
   -9.1162   19.4361  -30.8949 H   0  0  0  0  0  0  0  0  0  0  0  0
   -9.2228   22.7545  -30.4397 H   0  0  0  0  0  0  0  0  0  0  0  0
   -8.6592   21.1261  -29.9568 H   0  0  0  0  0  0  0  0  0  0  0  0
   -7.3861   23.0010  -28.8352 H   0  0  0  0  0  0  0  0  0  0  0  0
   -6.3405   21.9147  -29.8352 H   0  0  0  0  0  0  0  0  0  0  0  0
   -7.4130   24.5650  -30.6030 H   0  0  0  0  0  0  0  0  0  0  0  0
   -4.4778   22.9603  -28.3011 H   0  0  0  0  0  0  0  0  0  0  0  0
   -3.8088   22.7342  -30.0490 H   0  0  0  0  0  0  0  0  0  0  0  0
   -0.7085   22.8570  -28.9656 H   0  0  0  0  0  0  0  0  0  0  0  0
   -1.8908   22.4846  -30.2657 H   0  0  0  0  0  0  0  0  0  0  0  0
   -1.0213   24.0564  -30.2657 H   0  0  0  0  0  0  0  0  0  0  0  0
   -3.0109   24.2825  -26.6824 H   0  0  0  0  0  0  0  0  0  0  0  0
   -2.5116   22.5967  -27.0504 H   0  0  0  0  0  0  0  0  0  0  0  0
   -1.2915   23.9151  -27.0504 H   0  0  0  0  0  0  0  0  0  0  0  0
   -3.5320   25.6370  -28.9350 H   0  0  0  0  0  0  0  0  0  0  0  0
   -6.1742   24.4471  -32.5970 H   0  0  0  0  0  0  0  0  0  0  0  0
   -5.5824   22.8051  -32.1211 H   0  0  0  0  0  0  0  0  0  0  0  0
   -8.4637   23.6160  -32.7670 H   0  0  0  0  0  0  0  0  0  0  0  0
   -7.4011   22.5311  -33.7220 H   0  0  0  0  0  0  0  0  0  0  0  0
  1  2  1  0
  2  3  1  0
  3  4  2  0
  4  5  1  0
  5  6  2  0
  6  7  1  0
  7  8  1  0
  8  9  1  0
  9 10  1  0
 10 11  1  0
 11 12  1  0
 12 13  2  0
 12 14  2  0
 12 15  1  0
 15 16  1  0
 16 17  1  0
 16 18  1  0
 16 19  1  0
 11 20  1  0
 20 21  1  0
  7 22  2  0
 22  3  1  0
 21  8  1  0
  1 23  1  0
  1 24  1  0
  1 25  1  0
  5 26  1  0
  6 27  1  0
  9 28  1  0
  9 29  1  0
 10 30  1  0
 10 31  1  0
 11 32  1  0
 15 33  1  0
 15 34  1  0
 17 35  1  0
 17 36  1  0
 17 37  1  0
 18 38  1  0
 18 39  1  0
 18 40  1  0
 19 41  1  0
 20 42  1  0
 20 43  1  0
 21 44  1  0
 21 45  1  0
M  CHG  1  11   1
M  END
>  <UniqueID>  (47) 
45

>  <SMILES>  (47) 
COc1nccc(N2CC[NH+](S(=O)(=O)CC(C)(C)O)CC2)n1

>  <Energy>  (47) 
49.180589596258145

>  <Genealogy>  (47) 
COc1nccc(N2CC[NH+](S(=O)(=O)CC(C)(C)O)CC2)n1 (protonated)
COc1nccc(N2CC[NH+](S(=O)(=O)CC(C)(C)O)CC2)n1 (3D coordinates assigned)
COc1nccc(N2CC[NH+](S(=O)(=O)CC(C)(C)O)CC2)n1 (nonaromatic ring conformer: 49.180589596258145 kcal/mol)

>  <smiles>  (47) 
COc1nccc(N2CCN(S(=O)(=O)CC(C)(C)O)CC2)n1

>  <score_type>  (47) 
oracle

>  <origin>  (47) 
adgpu

>  <m_score__min__energy>  (47) 
-7.7699999999999996

>  <m_primary>  (47) 
energy

$$$$
47:0
     RDKit          3D

 25 26  0  0  0  0  0  0  0  0999 V2000
    0.5610   24.8360  -28.0820 O   0  0  0  0  0  0  0  0  0  0  0  0
   -0.6960   24.8350  -28.1930 C   0  0  0  0  0  0  0  0  0  0  0  0
   -1.4860   25.8340  -27.5250 N   0  0  0  0  0  0  0  0  0  0  0  0
   -0.9400   26.8620  -26.6790 C   0  0  0  0  0  0  0  0  0  0  0  0
   -0.9810   26.7680  -25.2780 C   0  0  0  0  0  0  0  0  0  0  0  0
   -0.4640   27.8000  -24.4940 C   0  0  0  0  0  0  0  0  0  0  0  0
    0.0760   28.9280  -25.1150 C   0  0  0  0  0  0  0  0  0  0  0  0
    0.0850   29.0170  -26.4720 N   0  0  0  0  0  0  0  0  0  0  0  0
   -0.4110   28.0240  -27.2580 C   0  0  0  0  0  0  0  0  0  0  0  0
   -1.3380   23.7890  -29.0170 C   0  0  0  0  0  0  0  0  0  0  0  0
   -0.7300   22.5260  -29.1160 C   0  0  0  0  0  0  0  0  0  0  0  0
   -1.3180   21.5130  -29.8800 C   0  0  0  0  0  0  0  0  0  0  0  0
   -0.5540   19.9370  -29.9810 Cl  0  0  0  0  0  0  0  0  0  0  0  0
   -2.5130   21.7550  -30.5600 C   0  0  0  0  0  0  0  0  0  0  0  0
   -3.1200   23.0130  -30.4890 C   0  0  0  0  0  0  0  0  0  0  0  0
   -4.6100   23.3010  -31.3720 Cl  0  0  0  0  0  0  0  0  0  0  0  0
   -2.5320   24.0360  -29.7280 C   0  0  0  0  0  0  0  0  0  0  0  0
   -3.1190   25.2980  -29.7120 O   0  0  0  0  0  0  0  0  0  0  0  0
   -2.5170   25.8540  -27.6930 H   0  0  0  0  0  0  0  0  0  0  0  0
   -1.4207   25.8808  -24.7990 H   0  0  0  0  0  0  0  0  0  0  0  0
   -0.4817   27.7256  -23.3967 H   0  0  0  0  0  0  0  0  0  0  0  0
    0.4938   29.7440  -24.5071 H   0  0  0  0  0  0  0  0  0  0  0  0
   -0.3970   28.1331  -28.3525 H   0  0  0  0  0  0  0  0  0  0  0  0
    0.2157   22.3327  -28.5885 H   0  0  0  0  0  0  0  0  0  0  0  0
   -2.9784   20.9541  -31.1532 H   0  0  0  0  0  0  0  0  0  0  0  0
  1  2  2  0
  2  3  1  0
  3  4  1  0
  4  5  2  0
  5  6  1  0
  6  7  2  0
  7  8  1  0
  8  9  2  0
  2 10  1  0
 10 11  2  0
 11 12  1  0
 12 13  1  0
 12 14  2  0
 14 15  1  0
 15 16  1  0
 15 17  2  0
 17 18  1  0
  9  4  1  0
 17 10  1  0
  3 19  1  0
  5 20  1  0
  6 21  1  0
  7 22  1  0
  9 23  1  0
 11 24  1  0
 14 25  1  0
M  CHG  1  18  -1
M  END
>  <UniqueID>  (48) 
46

>  <SMILES>  (48) 
O=C(Nc1cccnc1)c1cc(Cl)cc(Cl)c1[O-]

>  <Energy>  (48) 
36.018912743474566

>  <Genealogy>  (48) 
O=C(Nc1cccnc1)c1cc(Cl)cc(Cl)c1[O-] (protonated)
O=C(Nc1cccnc1)c1cc(Cl)cc(Cl)c1[O-] (3D coordinates assigned)
O=C(Nc1cccnc1)c1cc(Cl)cc(Cl)c1[O-] (optimized conformer: 36.018912743474566 kcal/mol)

>  <smiles>  (48) 
O=C(Nc1cccnc1)c1cc(Cl)cc(Cl)c1O

>  <score_type>  (48) 
oracle

>  <origin>  (48) 
adgpu

>  <m_score__min__energy>  (48) 
-8.7300000000000004

>  <m_primary>  (48) 
energy

$$$$
48:0
     RDKit          3D

 45 48  0  0  0  0  0  0  0  0999 V2000
   -4.5640   24.8730  -30.8460 O   0  0  0  0  0  0  0  0  0  0  0  0
   -5.0860   23.8570  -30.3100 C   0  0  0  0  0  0  0  0  0  0  0  0
   -4.6000   23.3830  -29.0420 N   0  0  0  0  0  0  0  0  0  0  0  0
   -3.7680   24.1590  -28.1600 C   0  0  0  0  0  0  0  0  0  0  0  0
   -2.4560   24.4670  -28.5480 C   0  0  0  0  0  0  0  0  0  0  0  0
   -1.6190   25.1980  -27.7010 C   0  0  0  0  0  0  0  0  0  0  0  0
   -2.0750   25.6220  -26.4430 C   0  0  0  0  0  0  0  0  0  0  0  0
   -1.2100   26.3790  -25.5750 N   0  0  0  0  0  0  0  0  0  0  0  0
   -0.6210   25.7540  -24.3870 C   0  0  0  0  0  0  0  0  0  0  0  0
   -0.3500   26.8220  -23.3240 C   0  0  0  0  0  0  0  0  0  0  0  0
    0.4120   27.8860  -23.8640 O   0  0  0  0  0  0  0  0  0  0  0  0
   -0.3390   28.5550  -24.8590 C   0  0  0  0  0  0  0  0  0  0  0  0
   -0.6110   27.6300  -26.0500 C   0  0  0  0  0  0  0  0  0  0  0  0
   -3.3840   25.3000  -26.0470 C   0  0  0  0  0  0  0  0  0  0  0  0
   -4.2210   24.5680  -26.8930 C   0  0  0  0  0  0  0  0  0  0  0  0
   -6.1710   23.1350  -31.0090 C   0  0  0  0  0  0  0  0  0  0  0  0
   -7.4060   23.7500  -31.2630 C   0  0  0  0  0  0  0  0  0  0  0  0
   -8.4070   23.0340  -31.9200 C   0  0  0  0  0  0  0  0  0  0  0  0
   -8.1780   21.7170  -32.3190 C   0  0  0  0  0  0  0  0  0  0  0  0
   -6.9330   21.1210  -32.0500 C   0  0  0  0  0  0  0  0  0  0  0  0
   -6.6390   19.7660  -32.4380 N   0  0  0  0  0  0  0  0  0  0  0  0
   -6.1140   19.3340  -33.6030 C   0  0  0  0  0  0  0  0  0  0  0  0
   -6.0030   17.9610  -33.5500 C   0  0  0  0  0  0  0  0  0  0  0  0
   -6.4870   17.6160  -32.3060 C   0  0  0  0  0  0  0  0  0  0  0  0
   -6.8690   18.7280  -31.6480 N   0  0  0  0  0  0  0  0  0  0  0  0
   -5.9760   21.8470  -31.4080 N   0  0  0  0  0  0  0  0  0  0  0  0
   -4.7880   22.3900  -28.7810 H   0  0  0  0  0  0  0  0  0  0  0  0
   -2.0830   24.1305  -29.5266 H   0  0  0  0  0  0  0  0  0  0  0  0
   -0.5958   25.4429  -28.0222 H   0  0  0  0  0  0  0  0  0  0  0  0
   -1.3186   25.0052  -23.9837 H   0  0  0  0  0  0  0  0  0  0  0  0
    0.3253   25.2658  -24.6630 H   0  0  0  0  0  0  0  0  0  0  0  0
   -1.3088   27.2157  -22.9555 H   0  0  0  0  0  0  0  0  0  0  0  0
    0.2175   26.3641  -22.5004 H   0  0  0  0  0  0  0  0  0  0  0  0
   -1.2977   28.8807  -24.4291 H   0  0  0  0  0  0  0  0  0  0  0  0
    0.2374   29.4231  -25.2114 H   0  0  0  0  0  0  0  0  0  0  0  0
   -1.3025   28.1252  -26.7475 H   0  0  0  0  0  0  0  0  0  0  0  0
    0.3359   27.4091  -26.5644 H   0  0  0  0  0  0  0  0  0  0  0  0
   -3.7527   25.6267  -25.0635 H   0  0  0  0  0  0  0  0  0  0  0  0
   -5.2393   24.3103  -26.5664 H   0  0  0  0  0  0  0  0  0  0  0  0
   -7.5837   24.7884  -30.9467 H   0  0  0  0  0  0  0  0  0  0  0  0
   -9.3782   23.5086  -32.1237 H   0  0  0  0  0  0  0  0  0  0  0  0
   -8.9640   21.1500  -32.8392 H   0  0  0  0  0  0  0  0  0  0  0  0
   -5.8234   19.9700  -34.4521 H   0  0  0  0  0  0  0  0  0  0  0  0
   -5.6139   17.2886  -34.3288 H   0  0  0  0  0  0  0  0  0  0  0  0
   -6.5514   16.5912  -31.9116 H   0  0  0  0  0  0  0  0  0  0  0  0
  1  2  2  0
  2  3  1  0
  3  4  1  0
  4  5  2  0
  5  6  1  0
  6  7  2  0
  7  8  1  0
  8  9  1  0
  9 10  1  0
 10 11  1  0
 11 12  1  0
 12 13  1  0
  7 14  1  0
 14 15  2  0
  2 16  1  0
 16 17  2  0
 17 18  1  0
 18 19  2  0
 19 20  1  0
 20 21  1  0
 21 22  1  0
 22 23  2  0
 23 24  1  0
 24 25  2  0
 20 26  2  0
 15  4  1  0
 26 16  1  0
 13  8  1  0
 25 21  1  0
  3 27  1  0
  5 28  1  0
  6 29  1  0
  9 30  1  0
  9 31  1  0
 10 32  1  0
 10 33  1  0
 12 34  1  0
 12 35  1  0
 13 36  1  0
 13 37  1  0
 14 38  1  0
 15 39  1  0
 17 40  1  0
 18 41  1  0
 19 42  1  0
 22 43  1  0
 23 44  1  0
 24 45  1  0
M  END
>  <UniqueID>  (49) 
47

>  <SMILES>  (49) 
O=C(Nc1ccc(N2CCOCC2)cc1)c1cccc(-n2cccn2)n1

>  <Energy>  (49) 
89.0965250177337

>  <Genealogy>  (49) 
O=C(Nc1ccc(N2CCOCC2)cc1)c1cccc(-n2cccn2)n1 (3D coordinates assigned)
O=C(Nc1ccc(N2CCOCC2)cc1)c1cccc(-n2cccn2)n1 (nonaromatic ring conformer: 89.0965250177337 kcal/mol)

>  <smiles>  (49) 
O=C(Nc1ccc(N2CCOCC2)cc1)c1cccc(-n2cccn2)n1

>  <score_type>  (49) 
oracle

>  <origin>  (49) 
adgpu

>  <m_score__min__energy>  (49) 
-8.6300000000000008

>  <m_primary>  (49) 
energy

$$$$
49:0
     RDKit          3D

 50 52  0  0  0  0  0  0  0  0999 V2000
   -6.6890   18.2720  -31.5110 C   0  0  0  0  0  0  0  0  0  0  0  0
   -7.1510   19.3350  -32.5260 C   0  0  0  0  0  0  0  0  0  0  0  0
   -8.6760   19.2120  -32.7190 C   0  0  0  0  0  0  0  0  0  0  0  0
   -6.4450   19.1030  -33.8740 C   0  0  0  0  0  0  0  0  0  0  0  0
   -6.7750   20.7130  -32.0120 C   0  0  0  0  0  0  0  0  0  0  0  0
   -5.7840   21.5540  -32.4920 C   0  0  0  0  0  0  0  0  0  0  0  0
   -5.8350   22.6190  -31.6260 C   0  0  0  0  0  0  0  0  0  0  0  0
   -5.0680   23.6680  -31.7030 N   0  0  0  0  0  0  0  0  0  0  0  0
   -5.0410   24.7600  -30.7700 C   0  0  0  0  0  0  0  0  0  0  0  0
   -6.1290   25.2880  -30.4180 O   0  0  0  0  0  0  0  0  0  0  0  0
   -3.8120   25.2800  -30.2450 N   0  0  0  0  0  0  0  0  0  0  0  0
   -2.7860   24.4920  -29.6220 C   0  0  0  0  0  0  0  0  0  0  0  0
   -2.9170   23.0980  -29.6200 C   0  0  0  0  0  0  0  0  0  0  0  0
   -1.9120   22.2910  -29.0750 C   0  0  0  0  0  0  0  0  0  0  0  0
   -2.0100   20.5340  -29.1750 S   0  0  0  0  0  0  0  0  0  0  0  0
   -0.9730   19.9410  -28.2600 O   0  0  0  0  0  0  0  0  0  0  0  0
   -3.3720   20.0580  -28.7450 O   0  0  0  0  0  0  0  0  0  0  0  0
   -1.7050   20.0350  -30.8230 N   0  0  0  0  0  0  0  0  0  0  0  0
   -0.4470   20.6380  -31.3050 C   0  0  0  0  0  0  0  0  0  0  0  0
   -0.3850   20.5990  -32.8400 C   0  0  0  0  0  0  0  0  0  0  0  0
   -1.4590   21.2670  -33.4930 O   0  0  0  0  0  0  0  0  0  0  0  0
   -2.5790   21.5020  -32.6590 C   0  0  0  0  0  0  0  0  0  0  0  0
   -2.8610   20.3370  -31.6980 C   0  0  0  0  0  0  0  0  0  0  0  0
   -0.7870   22.8830  -28.4960 C   0  0  0  0  0  0  0  0  0  0  0  0
   -0.6640   24.2730  -28.4620 C   0  0  0  0  0  0  0  0  0  0  0  0
   -1.6560   25.0820  -29.0220 C   0  0  0  0  0  0  0  0  0  0  0  0
   -1.5180   26.4640  -28.9630 O   0  0  0  0  0  0  0  0  0  0  0  0
   -6.7960   22.4340  -30.7040 N   0  0  0  0  0  0  0  0  0  0  0  0
   -7.3310   21.2780  -30.9610 O   0  0  0  0  0  0  0  0  0  0  0  0
   -6.8514   18.6456  -30.4892 H   0  0  0  0  0  0  0  0  0  0  0  0
   -7.2666   17.3477  -31.6595 H   0  0  0  0  0  0  0  0  0  0  0  0
   -5.6192   18.0637  -31.6595 H   0  0  0  0  0  0  0  0  0  0  0  0
   -9.1680   19.1723  -31.7360 H   0  0  0  0  0  0  0  0  0  0  0  0
   -9.0461   20.0832  -33.2794 H   0  0  0  0  0  0  0  0  0  0  0  0
   -8.9017   18.2927  -33.2794 H   0  0  0  0  0  0  0  0  0  0  0  0
   -5.4140   18.7642  -33.6944 H   0  0  0  0  0  0  0  0  0  0  0  0
   -6.9886   18.3362  -34.4455 H   0  0  0  0  0  0  0  0  0  0  0  0
   -6.4279   20.0428  -34.4455 H   0  0  0  0  0  0  0  0  0  0  0  0
   -5.1190   21.4052  -33.3555 H   0  0  0  0  0  0  0  0  0  0  0  0
   -3.8167   22.6337  -30.0501 H   0  0  0  0  0  0  0  0  0  0  0  0
   -0.3939   21.6834  -30.9670 H   0  0  0  0  0  0  0  0  0  0  0  0
    0.4002   20.0651  -30.9001 H   0  0  0  0  0  0  0  0  0  0  0  0
    0.5565   21.0709  -33.1576 H   0  0  0  0  0  0  0  0  0  0  0  0
   -0.4550   19.5398  -33.1283 H   0  0  0  0  0  0  0  0  0  0  0  0
   -2.3913   22.4092  -32.0659 H   0  0  0  0  0  0  0  0  0  0  0  0
   -3.4586   21.6145  -33.3099 H   0  0  0  0  0  0  0  0  0  0  0  0
   -3.7226   20.6002  -31.0669 H   0  0  0  0  0  0  0  0  0  0  0  0
   -3.0648   19.4428  -32.3054 H   0  0  0  0  0  0  0  0  0  0  0  0
    0.0044   22.2518  -28.0655 H   0  0  0  0  0  0  0  0  0  0  0  0
    0.2177   24.7334  -27.9923 H   0  0  0  0  0  0  0  0  0  0  0  0
  1  2  1  0
  2  3  1  0
  2  4  1  0
  2  5  1  0
  5  6  2  0
  6  7  1  0
  7  8  2  3
  8  9  1  0
  9 10  2  0
  9 11  1  0
 11 12  1  0
 12 13  2  0
 13 14  1  0
 14 15  1  0
 15 16  2  0
 15 17  2  0
 15 18  1  0
 18 19  1  0
 19 20  1  0
 20 21  1  0
 21 22  1  0
 22 23  1  0
 14 24  2  0
 24 25  1  0
 25 26  2  0
 26 27  1  0
  7 28  1  0
 28 29  1  0
 29  5  1  0
 26 12  1  0
 23 18  1  0
  1 30  1  0
  1 31  1  0
  1 32  1  0
  3 33  1  0
  3 34  1  0
  3 35  1  0
  4 36  1  0
  4 37  1  0
  4 38  1  0
  6 39  1  0
 13 40  1  0
 19 41  1  0
 19 42  1  0
 20 43  1  0
 20 44  1  0
 22 45  1  0
 22 46  1  0
 23 47  1  0
 23 48  1  0
 24 49  1  0
 25 50  1  0
M  CHG  3  11  -1  27  -1  28  -1
M  END
>  <UniqueID>  (50) 
48

>  <SMILES>  (50) 
CC(C)(C)c1cc(=NC(=O)[N-]c2cc(S(=O)(=O)N3CCOCC3)ccc2[O-])[n-]o1

>  <Energy>  (50) 
97.60993319752764

>  <Genealogy>  (50) 
CC(C)(C)c1cc(=NC(=O)[N-]c2cc(S(=O)(=O)N3CCOCC3)ccc2[O-])[n-]o1 (protonated)
CC(C)(C)c1cc(=NC(=O)[N-]c2cc(S(=O)(=O)N3CCOCC3)ccc2[O-])[n-]o1 (3D coordinates assigned)
CC(C)(C)c1cc(=NC(=O)[N-]c2cc(S(=O)(=O)N3CCOCC3)ccc2[O-])[n-]o1 (nonaromatic ring conformer: 97.60993319752764 kcal/mol)

>  <smiles>  (50) 
CC(C)(C)c1cc(=NC(=O)Nc2cc(S(=O)(=O)N3CCOCC3)ccc2O)[nH]o1

>  <score_type>  (50) 
oracle

>  <origin>  (50) 
adgpu

>  <m_score__min__energy>  (50) 
-12.859999999999999

>  <m_primary>  (50) 
energy

$$$$
