0:0
     RDKit          3D

 44 46  0  0  0  0  0  0  0  0999 V2000
   -2.1520   22.7780  -30.9280 O   0  0  0  0  0  0  0  0  0  0  0  0
   -3.0930   22.9210  -30.1040 C   0  0  0  0  0  0  0  0  0  0  0  0
   -2.8420   22.6310  -28.7230 N   0  0  0  0  0  0  0  0  0  0  0  0
   -1.8240   23.2320  -27.9090 C   0  0  0  0  0  0  0  0  0  0  0  0
   -1.3080   22.5000  -26.8310 C   0  0  0  0  0  0  0  0  0  0  0  0
   -0.3080   23.0430  -26.0210 C   0  0  0  0  0  0  0  0  0  0  0  0
    0.2040   24.3120  -26.2980 C   0  0  0  0  0  0  0  0  0  0  0  0
   -0.2770   25.0360  -27.3910 C   0  0  0  0  0  0  0  0  0  0  0  0
   -1.2920   24.5060  -28.2010 C   0  0  0  0  0  0  0  0  0  0  0  0
   -1.7470   25.2270  -29.3030 O   0  0  0  0  0  0  0  0  0  0  0  0
   -4.4420   23.3060  -30.5910 C   0  0  0  0  0  0  0  0  0  0  0  0
   -5.3890   22.3130  -30.8960 C   0  0  0  0  0  0  0  0  0  0  0  0
   -6.6510   22.6550  -31.4010 C   0  0  0  0  0  0  0  0  0  0  0  0
   -7.8290   21.3930  -31.7790 S   0  0  0  0  0  0  0  0  0  0  0  0
   -9.0910   22.0300  -32.2900 O   0  0  0  0  0  0  0  0  0  0  0  0
   -8.1640   20.6410  -30.5220 O   0  0  0  0  0  0  0  0  0  0  0  0
   -7.2280   20.2870  -32.9940 N   0  0  0  0  0  0  0  0  0  0  0  0
   -5.7880   20.5120  -33.2800 C   0  0  0  0  0  0  0  0  0  0  0  0
   -4.8800   19.4460  -32.6470 C   0  0  0  0  0  0  0  0  0  0  0  0
   -5.2530   18.0340  -33.1270 C   0  0  0  0  0  0  0  0  0  0  0  0
   -6.7500   17.8910  -33.4510 C   0  0  0  0  0  0  0  0  0  0  0  0
   -7.5840   18.8940  -32.6480 C   0  0  0  0  0  0  0  0  0  0  0  0
   -6.9660   24.0010  -31.6180 C   0  0  0  0  0  0  0  0  0  0  0  0
   -6.0370   24.9970  -31.3140 C   0  0  0  0  0  0  0  0  0  0  0  0
   -4.7800   24.6590  -30.8030 C   0  0  0  0  0  0  0  0  0  0  0  0
   -3.8800   25.6760  -30.5000 O   0  0  0  0  0  0  0  0  0  0  0  0
   -1.6931   21.4911  -26.6214 H   0  0  0  0  0  0  0  0  0  0  0  0
    0.0765   22.4703  -25.1641 H   0  0  0  0  0  0  0  0  0  0  0  0
    0.9864   24.7416  -25.6552 H   0  0  0  0  0  0  0  0  0  0  0  0
    0.1424   26.0273  -27.6179 H   0  0  0  0  0  0  0  0  0  0  0  0
   -2.2020   24.7710  -30.0860 H   0  0  0  0  0  0  0  0  0  0  0  0
   -5.1365   21.2543  -30.7364 H   0  0  0  0  0  0  0  0  0  0  0  0
   -5.6399   20.4972  -34.3699 H   0  0  0  0  0  0  0  0  0  0  0  0
   -5.5120   21.4830  -32.8431 H   0  0  0  0  0  0  0  0  0  0  0  0
   -3.8362   19.6543  -32.9248 H   0  0  0  0  0  0  0  0  0  0  0  0
   -5.0090   19.4856  -31.5553 H   0  0  0  0  0  0  0  0  0  0  0  0
   -4.6737   17.8066  -34.0341 H   0  0  0  0  0  0  0  0  0  0  0  0
   -5.0225   17.3346  -32.3099 H   0  0  0  0  0  0  0  0  0  0  0  0
   -6.9046   18.0729  -34.5248 H   0  0  0  0  0  0  0  0  0  0  0  0
   -7.0710   16.8738  -33.1822 H   0  0  0  0  0  0  0  0  0  0  0  0
   -8.6495   18.7313  -32.8677 H   0  0  0  0  0  0  0  0  0  0  0  0
   -7.3792   18.7385  -31.5785 H   0  0  0  0  0  0  0  0  0  0  0  0
   -7.9487   24.2748  -32.0294 H   0  0  0  0  0  0  0  0  0  0  0  0
   -6.2950   26.0538  -31.4772 H   0  0  0  0  0  0  0  0  0  0  0  0
  1  2  2  0
  2  3  1  0
  3  4  1  0
  4  5  2  0
  5  6  1  0
  6  7  2  0
  7  8  1  0
  8  9  2  0
  9 10  1  0
  2 11  1  0
 11 12  2  0
 12 13  1  0
 13 14  1  0
 14 15  2  0
 14 16  2  0
 14 17  1  0
 17 18  1  0
 18 19  1  0
 19 20  1  0
 20 21  1  0
 21 22  1  0
 13 23  2  0
 23 24  1  0
 24 25  2  0
 25 26  1  0
  9  4  1  0
 25 11  1  0
 22 17  1  0
  5 27  1  0
  6 28  1  0
  7 29  1  0
  8 30  1  0
 10 31  1  0
 12 32  1  0
 18 33  1  0
 18 34  1  0
 19 35  1  0
 19 36  1  0
 20 37  1  0
 20 38  1  0
 21 39  1  0
 21 40  1  0
 22 41  1  0
 22 42  1  0
 23 43  1  0
 24 44  1  0
M  CHG  2   3  -1  26  -1
M  END
>  <UniqueID>  (1) 
1

>  <SMILES>  (1) 
O=C([N-]c1ccccc1O)c1cc(S(=O)(=O)N2CCCCC2)ccc1[O-]

>  <Energy>  (1) 
56.974089914629566

>  <Genealogy>  (1) 
O=C([N-]c1ccccc1O)c1cc(S(=O)(=O)N2CCCCC2)ccc1[O-] (protonated)
O=C([N-]c1ccccc1O)c1cc(S(=O)(=O)N2CCCCC2)ccc1[O-] (3D coordinates assigned)
O=C([N-]c1ccccc1O)c1cc(S(=O)(=O)N2CCCCC2)ccc1[O-] (nonaromatic ring conformer: 56.974089914629566 kcal/mol)

>  <smiles>  (1) 
O=C(Nc1ccccc1O)c1cc(S(=O)(=O)N2CCCCC2)ccc1O

>  <score_type>  (1) 
oracle

>  <origin>  (1) 
adgpu

>  <m_score__min__energy>  (1) 
-13.880000000000001

>  <m_primary>  (1) 
energy

$$$$
1:0
     RDKit          3D

 44 46  0  0  0  0  0  0  0  0999 V2000
   -7.2770   20.4970  -33.2340 O   0  0  0  0  0  0  0  0  0  0  0  0
   -6.4910   21.2130  -32.5560 C   0  0  0  0  0  0  0  0  0  0  0  0
   -5.0270   21.0310  -32.7320 C   0  0  0  0  0  0  0  0  0  0  0  0
   -4.5060   19.7630  -33.0550 C   0  0  0  0  0  0  0  0  0  0  0  0
   -3.1310   19.5740  -33.1970 C   0  0  0  0  0  0  0  0  0  0  0  0
   -2.2580   20.6510  -33.0350 C   0  0  0  0  0  0  0  0  0  0  0  0
   -0.3760   20.3870  -33.2170 Br  0  0  0  0  0  0  0  0  0  0  0  0
   -2.7580   21.9180  -32.7230 C   0  0  0  0  0  0  0  0  0  0  0  0
   -4.1370   22.1130  -32.5440 C   0  0  0  0  0  0  0  0  0  0  0  0
   -4.6350   23.3860  -32.1030 N   0  0  0  0  0  0  0  0  0  0  0  0
   -4.4870   23.9490  -30.4680 S   0  0  0  0  0  0  0  0  0  0  0  0
   -5.8620   24.0630  -29.8690 O   0  0  0  0  0  0  0  0  0  0  0  0
   -3.8280   25.2990  -30.4570 O   0  0  0  0  0  0  0  0  0  0  0  0
   -3.5670   22.7890  -29.5090 C   0  0  0  0  0  0  0  0  0  0  0  0
   -2.7140   23.2580  -28.4980 C   0  0  0  0  0  0  0  0  0  0  0  0
   -2.0370   22.3550  -27.6730 C   0  0  0  0  0  0  0  0  0  0  0  0
   -2.2040   20.9780  -27.8570 C   0  0  0  0  0  0  0  0  0  0  0  0
   -1.2910   19.7460  -26.7160 Br  0  0  0  0  0  0  0  0  0  0  0  0
   -3.0440   20.5060  -28.8720 C   0  0  0  0  0  0  0  0  0  0  0  0
   -3.7250   21.4080  -29.6970 C   0  0  0  0  0  0  0  0  0  0  0  0
   -7.0260   22.2000  -31.6340 N   0  0  0  0  0  0  0  0  0  0  0  0
   -7.8730   23.2100  -32.3360 C   0  0  0  0  0  0  0  0  0  0  0  0
   -9.3720   23.1360  -31.9820 C   0  0  0  0  0  0  0  0  0  0  0  0
   -9.8480   21.6870  -31.8980 C   0  0  0  0  0  0  0  0  0  0  0  0
   -9.0410   20.8760  -30.8740 C   0  0  0  0  0  0  0  0  0  0  0  0
   -7.7000   21.5440  -30.4900 C   0  0  0  0  0  0  0  0  0  0  0  0
   -5.1900   18.9132  -33.1967 H   0  0  0  0  0  0  0  0  0  0  0  0
   -2.7349   18.5762  -33.4366 H   0  0  0  0  0  0  0  0  0  0  0  0
   -2.0673   22.7675  -32.6170 H   0  0  0  0  0  0  0  0  0  0  0  0
   -2.5776   24.3400  -28.3542 H   0  0  0  0  0  0  0  0  0  0  0  0
   -1.3728   22.7271  -26.8790 H   0  0  0  0  0  0  0  0  0  0  0  0
   -3.1692   19.4234  -29.0216 H   0  0  0  0  0  0  0  0  0  0  0  0
   -4.3848   21.0338  -30.4936 H   0  0  0  0  0  0  0  0  0  0  0  0
   -6.2170   22.7320  -31.2330 H   0  0  0  0  0  0  0  0  0  0  0  0
   -7.5053   24.2123  -32.0709 H   0  0  0  0  0  0  0  0  0  0  0  0
   -7.7921   22.9963  -33.4120 H   0  0  0  0  0  0  0  0  0  0  0  0
   -9.5359   23.6246  -31.0102 H   0  0  0  0  0  0  0  0  0  0  0  0
   -9.9425   23.6452  -32.7727 H   0  0  0  0  0  0  0  0  0  0  0  0
  -10.9077   21.6776  -31.6031 H   0  0  0  0  0  0  0  0  0  0  0  0
   -9.7064   21.2246  -32.8860 H   0  0  0  0  0  0  0  0  0  0  0  0
   -9.6473   20.7599  -29.9636 H   0  0  0  0  0  0  0  0  0  0  0  0
   -8.8032   19.9073  -31.3377 H   0  0  0  0  0  0  0  0  0  0  0  0
   -7.8958   22.3026  -29.7179 H   0  0  0  0  0  0  0  0  0  0  0  0
   -7.0308   20.7493  -30.1284 H   0  0  0  0  0  0  0  0  0  0  0  0
  1  2  2  0
  2  3  1  0
  3  4  2  0
  4  5  1  0
  5  6  2  0
  6  7  1  0
  6  8  1  0
  8  9  2  0
  9 10  1  0
 10 11  1  0
 11 12  2  0
 11 13  2  0
 11 14  1  0
 14 15  2  0
 15 16  1  0
 16 17  2  0
 17 18  1  0
 17 19  1  0
 19 20  2  0
  2 21  1  0
 21 22  1  0
 22 23  1  0
 23 24  1  0
 24 25  1  0
 25 26  1  0
  9  3  1  0
 20 14  1  0
 26 21  1  0
  4 27  1  0
  5 28  1  0
  8 29  1  0
 15 30  1  0
 16 31  1  0
 19 32  1  0
 20 33  1  0
 21 34  1  0
 22 35  1  0
 22 36  1  0
 23 37  1  0
 23 38  1  0
 24 39  1  0
 24 40  1  0
 25 41  1  0
 25 42  1  0
 26 43  1  0
 26 44  1  0
M  CHG  2  10  -1  21   1
M  END
>  <UniqueID>  (2) 
2

>  <SMILES>  (2) 
O=C(c1ccc(Br)cc1[N-]S(=O)(=O)c1ccc(Br)cc1)[NH+]1CCCCC1

>  <Energy>  (2) 
65.44276083063906

>  <Genealogy>  (2) 
O=C(c1ccc(Br)cc1[N-]S(=O)(=O)c1ccc(Br)cc1)[NH+]1CCCCC1 (protonated)
O=C(c1ccc(Br)cc1[N-]S(=O)(=O)c1ccc(Br)cc1)[NH+]1CCCCC1 (3D coordinates assigned)
O=C(c1ccc(Br)cc1[N-]S(=O)(=O)c1ccc(Br)cc1)[NH+]1CCCCC1 (nonaromatic ring conformer: 65.44276083063906 kcal/mol)

>  <smiles>  (2) 
O=C(c1ccc(Br)cc1NS(=O)(=O)c1ccc(Br)cc1)N1CCCCC1

>  <score_type>  (2) 
oracle

>  <origin>  (2) 
adgpu

>  <m_score__min__energy>  (2) 
-9.3399999999999999

>  <m_primary>  (2) 
energy

$$$$
2:0
     RDKit          3D

 43 46  0  0  0  0  0  0  0  0999 V2000
   -8.4450   21.1120  -31.5050 C   0  0  0  0  0  0  0  0  0  0  0  0
   -7.5870   20.1020  -32.2090 C   0  0  0  0  0  0  0  0  0  0  0  0
   -7.0470   20.3810  -33.4750 C   0  0  0  0  0  0  0  0  0  0  0  0
   -6.2160   19.4530  -34.1090 C   0  0  0  0  0  0  0  0  0  0  0  0
   -5.9020   18.2460  -33.4760 C   0  0  0  0  0  0  0  0  0  0  0  0
   -5.0400   17.3730  -34.0630 N   0  0  0  0  0  0  0  0  0  0  0  0
   -4.6630   16.2120  -33.4590 C   0  0  0  0  0  0  0  0  0  0  0  0
   -3.5630   15.3920  -34.0720 C   0  0  0  0  0  0  0  0  0  0  0  0
   -1.9290   15.8050  -33.3430 S   0  0  0  0  0  0  0  0  0  0  0  0
   -2.1490   17.5800  -33.4570 C   0  0  0  0  0  0  0  0  0  0  0  0
   -2.3780   18.2510  -34.6000 N   0  0  0  0  0  0  0  0  0  0  0  0
   -2.6010   19.5080  -34.2480 N   0  0  0  0  0  0  0  0  0  0  0  0
   -2.4990   19.5510  -32.9030 C   0  0  0  0  0  0  0  0  0  0  0  0
   -2.7790   20.7360  -32.0740 C   0  0  0  0  0  0  0  0  0  0  0  0
   -1.7380   21.4370  -31.4450 C   0  0  0  0  0  0  0  0  0  0  0  0
   -2.0020   22.6230  -30.7530 C   0  0  0  0  0  0  0  0  0  0  0  0
   -3.3090   23.1200  -30.6770 C   0  0  0  0  0  0  0  0  0  0  0  0
   -3.6200   24.6430  -29.8530 S   0  0  0  0  0  0  0  0  0  0  0  0
   -2.1400   25.2710  -29.2150 N   0  0  0  0  0  0  0  0  0  0  0  0
   -4.5860   24.4350  -28.7200 O   0  0  0  0  0  0  0  0  0  0  0  0
   -4.2020   25.6260  -30.8260 O   0  0  0  0  0  0  0  0  0  0  0  0
   -4.3540   22.4160  -31.2890 C   0  0  0  0  0  0  0  0  0  0  0  0
   -4.0910   21.2320  -31.9820 C   0  0  0  0  0  0  0  0  0  0  0  0
   -2.2010   18.3730  -32.4160 O   0  0  0  0  0  0  0  0  0  0  0  0
   -5.1860   15.8840  -32.2000 C   0  0  0  0  0  0  0  0  0  0  0  0
   -6.0780   16.7580  -31.5750 C   0  0  0  0  0  0  0  0  0  0  0  0
   -6.4330   17.9590  -32.2010 C   0  0  0  0  0  0  0  0  0  0  0  0
   -7.2760   18.8890  -31.5730 C   0  0  0  0  0  0  0  0  0  0  0  0
   -8.3396   20.9880  -30.4171 H   0  0  0  0  0  0  0  0  0  0  0  0
   -8.1276   22.1257  -31.7909 H   0  0  0  0  0  0  0  0  0  0  0  0
   -9.4966   20.9627  -31.7909 H   0  0  0  0  0  0  0  0  0  0  0  0
   -7.2793   21.3352  -33.9705 H   0  0  0  0  0  0  0  0  0  0  0  0
   -5.8085   19.6722  -35.1069 H   0  0  0  0  0  0  0  0  0  0  0  0
   -3.7726   14.3262  -33.8985 H   0  0  0  0  0  0  0  0  0  0  0  0
   -3.5264   15.6139  -35.1488 H   0  0  0  0  0  0  0  0  0  0  0  0
   -0.7092   21.0512  -31.4968 H   0  0  0  0  0  0  0  0  0  0  0  0
   -1.1796   23.1679  -30.2663 H   0  0  0  0  0  0  0  0  0  0  0  0
   -1.6060   25.6670  -30.0200 H   0  0  0  0  0  0  0  0  0  0  0  0
   -5.3841   22.7964  -31.2237 H   0  0  0  0  0  0  0  0  0  0  0  0
   -4.9167   20.6838  -32.4592 H   0  0  0  0  0  0  0  0  0  0  0  0
   -4.8955   14.9442  -31.7078 H   0  0  0  0  0  0  0  0  0  0  0  0
   -6.5012   16.5032  -30.5921 H   0  0  0  0  0  0  0  0  0  0  0  0
   -7.6942   18.6673  -30.5801 H   0  0  0  0  0  0  0  0  0  0  0  0
  1  2  1  0
  2  3  2  0
  3  4  1  0
  4  5  2  0
  5  6  1  0
  6  7  2  0
  7  8  1  0
  8  9  1  0
  9 10  1  0
 10 11  2  0
 11 12  1  0
 12 13  2  0
 13 14  1  0
 14 15  2  0
 15 16  1  0
 16 17  2  0
 17 18  1  0
 18 19  1  0
 18 20  2  0
 18 21  2  0
 17 22  1  0
 22 23  2  0
 13 24  1  0
  7 25  1  0
 25 26  2  0
 26 27  1  0
 27 28  2  0
 28  2  1  0
 27  5  1  0
 24 10  1  0
 23 14  1  0
  1 29  1  0
  1 30  1  0
  1 31  1  0
  3 32  1  0
  4 33  1  0
  8 34  1  0
  8 35  1  0
 15 36  1  0
 16 37  1  0
 19 38  1  0
 22 39  1  0
 23 40  1  0
 25 41  1  0
 26 42  1  0
 28 43  1  0
M  CHG  1  19  -1
M  END
>  <UniqueID>  (3) 
3

>  <SMILES>  (3) 
Cc1ccc2nc(CSc3nnc(-c4ccc(S([NH-])(=O)=O)cc4)o3)ccc2c1

>  <Energy>  (3) 
75.46673835351775

>  <Genealogy>  (3) 
Cc1ccc2nc(CSc3nnc(-c4ccc(S([NH-])(=O)=O)cc4)o3)ccc2c1 (protonated)
Cc1ccc2nc(CSc3nnc(-c4ccc(S([NH-])(=O)=O)cc4)o3)ccc2c1 (3D coordinates assigned)
Cc1ccc2nc(CSc3nnc(-c4ccc(S([NH-])(=O)=O)cc4)o3)ccc2c1 (optimized conformer: 75.46673835351775 kcal/mol)

>  <smiles>  (3) 
Cc1ccc2nc(CSc3nnc(-c4ccc(S(N)(=O)=O)cc4)o3)ccc2c1

>  <score_type>  (3) 
oracle

>  <origin>  (3) 
adgpu

>  <m_score__min__energy>  (3) 
-12.029999999999999

>  <m_primary>  (3) 
energy

$$$$
3:0
     RDKit          3D

 36 37  0  0  0  0  0  0  0  0999 V2000
   -2.8270   23.7320  -28.2830 C   0  0  0  0  0  0  0  0  0  0  0  0
   -2.5510   24.9000  -29.1690 C   0  0  0  0  0  0  0  0  0  0  0  0
   -1.5330   25.6140  -28.9620 O   0  0  0  0  0  0  0  0  0  0  0  0
   -3.5000   25.2500  -30.1850 N   0  0  0  0  0  0  0  0  0  0  0  0
   -4.7160   24.5520  -30.4890 C   0  0  0  0  0  0  0  0  0  0  0  0
   -5.9760   25.0520  -30.1130 C   0  0  0  0  0  0  0  0  0  0  0  0
   -7.1380   24.3530  -30.4510 C   0  0  0  0  0  0  0  0  0  0  0  0
   -7.0590   23.1590  -31.1780 C   0  0  0  0  0  0  0  0  0  0  0  0
   -8.5320   22.3020  -31.6230 S   0  0  0  0  0  0  0  0  0  0  0  0
   -9.4870   23.2730  -32.2550 O   0  0  0  0  0  0  0  0  0  0  0  0
   -9.1820   21.6940  -30.4110 O   0  0  0  0  0  0  0  0  0  0  0  0
   -8.1640   21.0430  -32.7600 N   0  0  0  0  0  0  0  0  0  0  0  0
   -7.4100   19.8590  -32.4670 C   0  0  0  0  0  0  0  0  0  0  0  0
   -7.9140   18.9630  -31.5220 C   0  0  0  0  0  0  0  0  0  0  0  0
   -7.2210   17.7910  -31.2160 C   0  0  0  0  0  0  0  0  0  0  0  0
   -6.0110   17.4940  -31.8500 C   0  0  0  0  0  0  0  0  0  0  0  0
   -5.3590   16.3070  -31.5120 O   0  0  0  0  0  0  0  0  0  0  0  0
   -5.4840   18.3920  -32.8060 C   0  0  0  0  0  0  0  0  0  0  0  0
   -4.1860   18.1040  -33.5110 C   0  0  0  0  0  0  0  0  0  0  0  0
   -6.1890   19.5720  -33.1050 C   0  0  0  0  0  0  0  0  0  0  0  0
   -5.8070   22.6700  -31.5690 C   0  0  0  0  0  0  0  0  0  0  0  0
   -4.6430   23.3690  -31.2340 C   0  0  0  0  0  0  0  0  0  0  0  0
   -2.7532   24.0444  -27.2309 H   0  0  0  0  0  0  0  0  0  0  0  0
   -3.8397   23.3517  -28.4824 H   0  0  0  0  0  0  0  0  0  0  0  0
   -2.0916   22.9386  -28.4824 H   0  0  0  0  0  0  0  0  0  0  0  0
   -6.0468   25.9953  -29.5517 H   0  0  0  0  0  0  0  0  0  0  0  0
   -8.1198   24.7429  -30.1443 H   0  0  0  0  0  0  0  0  0  0  0  0
   -8.8650   19.1828  -31.0147 H   0  0  0  0  0  0  0  0  0  0  0  0
   -7.6305   17.0947  -30.4693 H   0  0  0  0  0  0  0  0  0  0  0  0
   -5.3580   15.9250  -30.5740 H   0  0  0  0  0  0  0  0  0  0  0  0
   -3.3954   17.9286  -32.7665 H   0  0  0  0  0  0  0  0  0  0  0  0
   -4.3014   17.2096  -34.1409 H   0  0  0  0  0  0  0  0  0  0  0  0
   -3.9124   18.9633  -34.1409 H   0  0  0  0  0  0  0  0  0  0  0  0
   -5.7819   20.2772  -33.8446 H   0  0  0  0  0  0  0  0  0  0  0  0
   -5.7385   21.7332  -32.1414 H   0  0  0  0  0  0  0  0  0  0  0  0
   -3.6637   22.9868  -31.5580 H   0  0  0  0  0  0  0  0  0  0  0  0
  1  2  1  0
  2  3  2  0
  2  4  1  0
  4  5  1  0
  5  6  2  0
  6  7  1  0
  7  8  2  0
  8  9  1  0
  9 10  2  0
  9 11  2  0
  9 12  1  0
 12 13  1  0
 13 14  2  0
 14 15  1  0
 15 16  2  0
 16 17  1  0
 16 18  1  0
 18 19  1  0
 18 20  2  0
  8 21  1  0
 21 22  2  0
 22  5  1  0
 20 13  1  0
  1 23  1  0
  1 24  1  0
  1 25  1  0
  6 26  1  0
  7 27  1  0
 14 28  1  0
 15 29  1  0
 17 30  1  0
 19 31  1  0
 19 32  1  0
 19 33  1  0
 20 34  1  0
 21 35  1  0
 22 36  1  0
M  CHG  2   4  -1  12  -1
M  END
>  <UniqueID>  (4) 
4

>  <SMILES>  (4) 
CC(=O)[N-]c1ccc(S(=O)(=O)[N-]c2ccc(O)c(C)c2)cc1

>  <Energy>  (4) 
41.19709854104996

>  <Genealogy>  (4) 
CC(=O)[N-]c1ccc(S(=O)(=O)[N-]c2ccc(O)c(C)c2)cc1 (protonated)
CC(=O)[N-]c1ccc(S(=O)(=O)[N-]c2ccc(O)c(C)c2)cc1 (3D coordinates assigned)
CC(=O)[N-]c1ccc(S(=O)(=O)[N-]c2ccc(O)c(C)c2)cc1 (optimized conformer: 41.19709854104996 kcal/mol)

>  <smiles>  (4) 
CC(=O)Nc1ccc(S(=O)(=O)Nc2ccc(O)c(C)c2)cc1

>  <score_type>  (4) 
oracle

>  <origin>  (4) 
adgpu

>  <m_score__min__energy>  (4) 
-10.029999999999999

>  <m_primary>  (4) 
energy

$$$$
4:0
     RDKit          3D

 48 51  0  0  0  0  0  0  0  0999 V2000
   -9.1330   19.8760  -32.7420 C   0  0  0  0  0  0  0  0  0  0  0  0
   -8.0790   20.8540  -32.3170 C   0  0  0  0  0  0  0  0  0  0  0  0
   -6.7990   20.8130  -32.8930 C   0  0  0  0  0  0  0  0  0  0  0  0
   -5.7980   21.6830  -32.4490 C   0  0  0  0  0  0  0  0  0  0  0  0
   -6.0580   22.5810  -31.4030 C   0  0  0  0  0  0  0  0  0  0  0  0
   -4.9770   23.4310  -30.8780 C   0  0  0  0  0  0  0  0  0  0  0  0
   -4.9880   24.7770  -30.9420 N   0  0  0  0  0  0  0  0  0  0  0  0
   -3.8640   25.1930  -30.4340 O   0  0  0  0  0  0  0  0  0  0  0  0
   -3.1150   24.1860  -30.0500 C   0  0  0  0  0  0  0  0  0  0  0  0
   -1.4810   24.3690  -29.3340 S   0  0  0  0  0  0  0  0  0  0  0  0
   -2.0700   24.3410  -27.6070 C   0  0  0  0  0  0  0  0  0  0  0  0
   -1.5690   25.5340  -26.8410 C   0  0  0  0  0  0  0  0  0  0  0  0
   -0.8400   26.5470  -27.4910 C   0  0  0  0  0  0  0  0  0  0  0  0
   -0.3670   27.6490  -26.7700 C   0  0  0  0  0  0  0  0  0  0  0  0
   -0.6290   27.7550  -25.4020 C   0  0  0  0  0  0  0  0  0  0  0  0
   -1.3690   26.7620  -24.7520 C   0  0  0  0  0  0  0  0  0  0  0  0
   -1.8370   25.6540  -25.4660 C   0  0  0  0  0  0  0  0  0  0  0  0
   -3.7870   23.0080  -30.3130 C   0  0  0  0  0  0  0  0  0  0  0  0
   -3.1570   21.3580  -30.2420 S   0  0  0  0  0  0  0  0  0  0  0  0
   -2.5380   21.0830  -28.9010 O   0  0  0  0  0  0  0  0  0  0  0  0
   -4.2800   20.3830  -30.4680 O   0  0  0  0  0  0  0  0  0  0  0  0
   -1.9190   21.1690  -31.4820 C   0  0  0  0  0  0  0  0  0  0  0  0
   -2.2480   21.3900  -32.8270 C   0  0  0  0  0  0  0  0  0  0  0  0
   -1.3060   21.1420  -33.8310 C   0  0  0  0  0  0  0  0  0  0  0  0
   -0.0320   20.6680  -33.4960 C   0  0  0  0  0  0  0  0  0  0  0  0
    1.1410   20.3250  -34.7550 Cl  0  0  0  0  0  0  0  0  0  0  0  0
    0.3040   20.4600  -32.1530 C   0  0  0  0  0  0  0  0  0  0  0  0
   -0.6350   20.7140  -31.1480 C   0  0  0  0  0  0  0  0  0  0  0  0
   -7.3410   22.6330  -30.8380 C   0  0  0  0  0  0  0  0  0  0  0  0
   -8.3420   21.7670  -31.2870 C   0  0  0  0  0  0  0  0  0  0  0  0
   -9.6062   19.4369  -31.8514 H   0  0  0  0  0  0  0  0  0  0  0  0
   -9.8939   20.3952  -33.3432 H   0  0  0  0  0  0  0  0  0  0  0  0
   -8.6721   19.0784  -33.3432 H   0  0  0  0  0  0  0  0  0  0  0  0
   -6.5827   20.0937  -33.6967 H   0  0  0  0  0  0  0  0  0  0  0  0
   -4.8046   21.6631  -32.9210 H   0  0  0  0  0  0  0  0  0  0  0  0
   -3.1700   24.3485  -27.6031 H   0  0  0  0  0  0  0  0  0  0  0  0
   -1.6860   23.4308  -27.1233 H   0  0  0  0  0  0  0  0  0  0  0  0
   -0.6412   26.4723  -28.5703 H   0  0  0  0  0  0  0  0  0  0  0  0
    0.2117   28.4326  -27.2810 H   0  0  0  0  0  0  0  0  0  0  0  0
   -0.2531   28.6199  -24.8357 H   0  0  0  0  0  0  0  0  0  0  0  0
   -1.5834   26.8526  -23.6769 H   0  0  0  0  0  0  0  0  0  0  0  0
   -2.4165   24.8742  -24.9502 H   0  0  0  0  0  0  0  0  0  0  0  0
   -3.2493   21.7593  -33.0933 H   0  0  0  0  0  0  0  0  0  0  0  0
   -1.5666   21.3196  -34.8848 H   0  0  0  0  0  0  0  0  0  0  0  0
    1.3077   20.0964  -31.8878 H   0  0  0  0  0  0  0  0  0  0  0  0
   -0.3658   20.5565  -30.0931 H   0  0  0  0  0  0  0  0  0  0  0  0
   -7.5598   23.3572  -30.0395 H   0  0  0  0  0  0  0  0  0  0  0  0
   -9.3417   21.8023  -30.8294 H   0  0  0  0  0  0  0  0  0  0  0  0
  1  2  1  0
  2  3  2  0
  3  4  1  0
  4  5  2  0
  5  6  1  0
  6  7  2  0
  7  8  1  0
  8  9  1  0
  9 10  1  0
 10 11  1  0
 11 12  1  0
 12 13  2  0
 13 14  1  0
 14 15  2  0
 15 16  1  0
 16 17  2  0
  9 18  2  0
 18 19  1  0
 19 20  2  0
 19 21  2  0
 19 22  1  0
 22 23  2  0
 23 24  1  0
 24 25  2  0
 25 26  1  0
 25 27  1  0
 27 28  2  0
  5 29  1  0
 29 30  2  0
 30  2  1  0
 18  6  1  0
 28 22  1  0
 17 12  1  0
  1 31  1  0
  1 32  1  0
  1 33  1  0
  3 34  1  0
  4 35  1  0
 11 36  1  0
 11 37  1  0
 13 38  1  0
 14 39  1  0
 15 40  1  0
 16 41  1  0
 17 42  1  0
 23 43  1  0
 24 44  1  0
 27 45  1  0
 28 46  1  0
 29 47  1  0
 30 48  1  0
M  END
>  <UniqueID>  (5) 
5

>  <SMILES>  (5) 
Cc1ccc(-c2noc(SCc3ccccc3)c2S(=O)(=O)c2ccc(Cl)cc2)cc1

>  <Energy>  (5) 
80.7035013987669

>  <Genealogy>  (5) 
Cc1ccc(-c2noc(SCc3ccccc3)c2S(=O)(=O)c2ccc(Cl)cc2)cc1 (3D coordinates assigned)
Cc1ccc(-c2noc(SCc3ccccc3)c2S(=O)(=O)c2ccc(Cl)cc2)cc1 (optimized conformer: 80.7035013987669 kcal/mol)

>  <smiles>  (5) 
Cc1ccc(-c2noc(SCc3ccccc3)c2S(=O)(=O)c2ccc(Cl)cc2)cc1

>  <score_type>  (5) 
oracle

>  <origin>  (5) 
adgpu

>  <m_score__min__energy>  (5) 
-10.74

>  <m_primary>  (5) 
energy

$$$$
5:0
     RDKit          3D

 45 47  0  0  0  0  0  0  0  0999 V2000
   -2.0900   20.3560  -27.4530 C   0  0  0  0  0  0  0  0  0  0  0  0
   -2.5470   21.7730  -27.6250 C   0  0  0  0  0  0  0  0  0  0  0  0
   -1.8370   22.8220  -27.0200 C   0  0  0  0  0  0  0  0  0  0  0  0
   -2.2770   24.1400  -27.1600 C   0  0  0  0  0  0  0  0  0  0  0  0
   -3.4390   24.4200  -27.8840 C   0  0  0  0  0  0  0  0  0  0  0  0
   -4.1850   23.3760  -28.4610 C   0  0  0  0  0  0  0  0  0  0  0  0
   -5.3740   23.6370  -29.2240 N   0  0  0  0  0  0  0  0  0  0  0  0
   -5.3790   23.9230  -30.6320 C   0  0  0  0  0  0  0  0  0  0  0  0
   -4.3220   24.2870  -31.2140 O   0  0  0  0  0  0  0  0  0  0  0  0
   -6.6510   23.8180  -31.4150 C   0  0  0  0  0  0  0  0  0  0  0  0
   -6.9270   22.3840  -31.7720 C   0  0  0  0  0  0  0  0  0  0  0  0
   -8.1400   21.7180  -31.6800 C   0  0  0  0  0  0  0  0  0  0  0  0
   -9.4400   22.2950  -31.2230 C   0  0  0  0  0  0  0  0  0  0  0  0
   -8.0070   20.4640  -32.1520 N   0  0  0  0  0  0  0  0  0  0  0  0
   -6.7450   20.3000  -32.5230 N   0  0  0  0  0  0  0  0  0  0  0  0
   -6.2520   19.0630  -33.0620 C   0  0  0  0  0  0  0  0  0  0  0  0
   -6.1930   17.9030  -32.2690 C   0  0  0  0  0  0  0  0  0  0  0  0
   -5.7340   16.7000  -32.8130 C   0  0  0  0  0  0  0  0  0  0  0  0
   -5.3430   16.6410  -34.1530 C   0  0  0  0  0  0  0  0  0  0  0  0
   -5.4180   17.7840  -34.9540 C   0  0  0  0  0  0  0  0  0  0  0  0
   -5.8780   18.9880  -34.4130 C   0  0  0  0  0  0  0  0  0  0  0  0
   -6.0620   21.4550  -32.3300 C   0  0  0  0  0  0  0  0  0  0  0  0
   -4.6200   21.6850  -32.6830 C   0  0  0  0  0  0  0  0  0  0  0  0
   -3.7230   22.0560  -28.3360 C   0  0  0  0  0  0  0  0  0  0  0  0
   -2.0147   20.1226  -26.3807 H   0  0  0  0  0  0  0  0  0  0  0  0
   -2.8147   19.6770  -27.9260 H   0  0  0  0  0  0  0  0  0  0  0  0
   -1.1051   20.2284  -27.9260 H   0  0  0  0  0  0  0  0  0  0  0  0
   -0.9316   22.6053  -26.4341 H   0  0  0  0  0  0  0  0  0  0  0  0
   -1.7072   24.9602  -26.6990 H   0  0  0  0  0  0  0  0  0  0  0  0
   -3.7720   25.4616  -28.0033 H   0  0  0  0  0  0  0  0  0  0  0  0
   -6.2860   23.6730  -28.7160 H   0  0  0  0  0  0  0  0  0  0  0  0
   -7.4828   24.2079  -30.8100 H   0  0  0  0  0  0  0  0  0  0  0  0
   -6.5510   24.4043  -32.3404 H   0  0  0  0  0  0  0  0  0  0  0  0
   -9.4691   22.3079  -30.1235 H   0  0  0  0  0  0  0  0  0  0  0  0
   -9.5397   23.3219  -31.6045 H   0  0  0  0  0  0  0  0  0  0  0  0
  -10.2684   21.6801  -31.6045 H   0  0  0  0  0  0  0  0  0  0  0  0
   -6.5094   17.9426  -31.2162 H   0  0  0  0  0  0  0  0  0  0  0  0
   -5.6806   15.7984  -32.1851 H   0  0  0  0  0  0  0  0  0  0  0  0
   -4.9761   15.6949  -34.5777 H   0  0  0  0  0  0  0  0  0  0  0  0
   -5.1150   17.7360  -36.0103 H   0  0  0  0  0  0  0  0  0  0  0  0
   -5.9474   19.8822  -35.0498 H   0  0  0  0  0  0  0  0  0  0  0  0
   -4.0274   21.7795  -31.7611 H   0  0  0  0  0  0  0  0  0  0  0  0
   -4.2469   20.8350  -33.2732 H   0  0  0  0  0  0  0  0  0  0  0  0
   -4.5298   22.6089  -33.2732 H   0  0  0  0  0  0  0  0  0  0  0  0
   -4.2890   21.2351  -28.8004 H   0  0  0  0  0  0  0  0  0  0  0  0
  1  2  1  0
  2  3  2  0
  3  4  1  0
  4  5  2  0
  5  6  1  0
  6  7  1  0
  7  8  1  0
  8  9  2  0
  8 10  1  0
 10 11  1  0
 11 12  1  0
 12 13  1  0
 12 14  2  0
 14 15  1  0
 15 16  1  0
 16 17  2  0
 17 18  1  0
 18 19  2  0
 19 20  1  0
 20 21  2  0
 15 22  1  0
 22 23  1  0
  6 24  2  0
 24  2  1  0
 22 11  2  0
 21 16  1  0
  1 25  1  0
  1 26  1  0
  1 27  1  0
  3 28  1  0
  4 29  1  0
  5 30  1  0
  7 31  1  0
 10 32  1  0
 10 33  1  0
 13 34  1  0
 13 35  1  0
 13 36  1  0
 17 37  1  0
 18 38  1  0
 19 39  1  0
 20 40  1  0
 21 41  1  0
 23 42  1  0
 23 43  1  0
 23 44  1  0
 24 45  1  0
M  END
>  <UniqueID>  (6) 
6

>  <SMILES>  (6) 
Cc1cccc(NC(=O)Cc2c(C)nn(-c3ccccc3)c2C)c1

>  <Energy>  (6) 
80.74171005610252

>  <Genealogy>  (6) 
Cc1cccc(NC(=O)Cc2c(C)nn(-c3ccccc3)c2C)c1 (3D coordinates assigned)
Cc1cccc(NC(=O)Cc2c(C)nn(-c3ccccc3)c2C)c1 (optimized conformer: 80.74171005610252 kcal/mol)

>  <smiles>  (6) 
Cc1cccc(NC(=O)Cc2c(C)nn(-c3ccccc3)c2C)c1

>  <score_type>  (6) 
oracle

>  <origin>  (6) 
adgpu

>  <m_score__min__energy>  (6) 
-9.3499999999999996

>  <m_primary>  (6) 
energy

$$$$
6:0
     RDKit          3D

 55 58  0  0  0  0  0  0  0  0999 V2000
   -8.3420   22.6960  -31.9380 C   0  0  0  0  0  0  0  0  0  0  0  0
   -8.1340   21.2320  -32.1900 C   0  0  0  0  0  0  0  0  0  0  0  0
   -9.1740   20.3210  -31.9590 C   0  0  0  0  0  0  0  0  0  0  0  0
   -8.9850   18.9610  -32.2130 C   0  0  0  0  0  0  0  0  0  0  0  0
   -7.7660   18.5030  -32.7160 C   0  0  0  0  0  0  0  0  0  0  0  0
   -6.7210   19.4040  -32.9860 C   0  0  0  0  0  0  0  0  0  0  0  0
   -5.4370   18.8980  -33.5270 C   0  0  0  0  0  0  0  0  0  0  0  0
   -5.3790   18.5630  -34.7420 O   0  0  0  0  0  0  0  0  0  0  0  0
   -4.2690   18.7800  -32.6920 N   0  0  0  0  0  0  0  0  0  0  0  0
   -2.9780   18.3730  -33.1750 C   0  0  0  0  0  0  0  0  0  0  0  0
   -2.5850   17.0250  -33.1700 C   0  0  0  0  0  0  0  0  0  0  0  0
   -1.3380   16.6540  -33.6790 C   0  0  0  0  0  0  0  0  0  0  0  0
   -0.4780   17.6180  -34.2070 C   0  0  0  0  0  0  0  0  0  0  0  0
   -0.8620   18.9700  -34.2400 C   0  0  0  0  0  0  0  0  0  0  0  0
    0.0380   19.9960  -34.8220 C   0  0  0  0  0  0  0  0  0  0  0  0
   -0.4870   21.1890  -35.3490 C   0  0  0  0  0  0  0  0  0  0  0  0
    0.3670   22.1810  -35.8400 C   0  0  0  0  0  0  0  0  0  0  0  0
    1.7530   21.9950  -35.8130 C   0  0  0  0  0  0  0  0  0  0  0  0
    2.8120   23.3130  -36.3060 S   0  0  0  0  0  0  0  0  0  0  0  0
    3.8780   22.7620  -37.2100 O   0  0  0  0  0  0  0  0  0  0  0  0
    3.4760   23.9340  -35.1070 O   0  0  0  0  0  0  0  0  0  0  0  0
    1.8980   24.5170  -37.1700 N   0  0  0  0  0  0  0  0  0  0  0  0
    1.8350   25.7810  -36.4300 C   0  0  0  0  0  0  0  0  0  0  0  0
    0.5420   26.5090  -36.6920 C   0  0  0  0  0  0  0  0  0  0  0  0
   -0.0680   27.2680  -35.6820 C   0  0  0  0  0  0  0  0  0  0  0  0
   -1.2450   27.9680  -35.9500 C   0  0  0  0  0  0  0  0  0  0  0  0
   -1.8130   27.8930  -37.2230 C   0  0  0  0  0  0  0  0  0  0  0  0
   -1.2240   27.1360  -38.1860 N   0  0  0  0  0  0  0  0  0  0  0  0
   -0.0760   26.4450  -37.9510 C   0  0  0  0  0  0  0  0  0  0  0  0
    2.2830   20.7950  -35.3220 C   0  0  0  0  0  0  0  0  0  0  0  0
    1.4320   19.8030  -34.8270 C   0  0  0  0  0  0  0  0  0  0  0  0
   -2.1200   19.3360  -33.7280 C   0  0  0  0  0  0  0  0  0  0  0  0
   -6.9140   20.7730  -32.7140 C   0  0  0  0  0  0  0  0  0  0  0  0
   -8.3683   22.8814  -30.8540 H   0  0  0  0  0  0  0  0  0  0  0  0
   -7.5159   23.2664  -32.3876 H   0  0  0  0  0  0  0  0  0  0  0  0
   -9.2943   23.0138  -32.3876 H   0  0  0  0  0  0  0  0  0  0  0  0
  -10.1415   20.6784  -31.5766 H   0  0  0  0  0  0  0  0  0  0  0  0
   -9.7993   18.2482  -32.0161 H   0  0  0  0  0  0  0  0  0  0  0  0
   -7.6219   17.4286  -32.9026 H   0  0  0  0  0  0  0  0  0  0  0  0
   -4.3580   18.9470  -31.6660 H   0  0  0  0  0  0  0  0  0  0  0  0
   -3.2613   16.2584  -32.7639 H   0  0  0  0  0  0  0  0  0  0  0  0
   -1.0326   15.5973  -33.6635 H   0  0  0  0  0  0  0  0  0  0  0  0
    0.5051   17.3185  -34.5993 H   0  0  0  0  0  0  0  0  0  0  0  0
   -1.5759   21.3428  -35.3751 H   0  0  0  0  0  0  0  0  0  0  0  0
   -0.0528   23.1117  -36.2493 H   0  0  0  0  0  0  0  0  0  0  0  0
    1.9146   25.5695  -35.3535 H   0  0  0  0  0  0  0  0  0  0  0  0
    2.6654   26.4197  -36.7654 H   0  0  0  0  0  0  0  0  0  0  0  0
    0.3815   27.3113  -34.6790 H   0  0  0  0  0  0  0  0  0  0  0  0
   -1.7212   28.5737  -35.1649 H   0  0  0  0  0  0  0  0  0  0  0  0
   -2.7370   28.4464  -37.4466 H   0  0  0  0  0  0  0  0  0  0  0  0
    0.3695   25.8341  -38.7500 H   0  0  0  0  0  0  0  0  0  0  0  0
    3.3710   20.6331  -35.3260 H   0  0  0  0  0  0  0  0  0  0  0  0
    1.8548   18.8647  -34.4386 H   0  0  0  0  0  0  0  0  0  0  0  0
   -2.4349   20.3894  -33.7615 H   0  0  0  0  0  0  0  0  0  0  0  0
   -6.1026   21.4884  -32.9136 H   0  0  0  0  0  0  0  0  0  0  0  0
  1  2  1  0
  2  3  2  0
  3  4  1  0
  4  5  2  0
  5  6  1  0
  6  7  1  0
  7  8  2  0
  7  9  1  0
  9 10  1  0
 10 11  2  0
 11 12  1  0
 12 13  2  0
 13 14  1  0
 14 15  1  0
 15 16  2  0
 16 17  1  0
 17 18  2  0
 18 19  1  0
 19 20  2  0
 19 21  2  0
 19 22  1  0
 22 23  1  0
 23 24  1  0
 24 25  2  0
 25 26  1  0
 26 27  2  0
 27 28  1  0
 28 29  2  0
 18 30  1  0
 30 31  2  0
 14 32  2  0
  6 33  2  0
 33  2  1  0
 32 10  1  0
 31 15  1  0
 29 24  1  0
  1 34  1  0
  1 35  1  0
  1 36  1  0
  3 37  1  0
  4 38  1  0
  5 39  1  0
  9 40  1  0
 11 41  1  0
 12 42  1  0
 13 43  1  0
 16 44  1  0
 17 45  1  0
 23 46  1  0
 23 47  1  0
 25 48  1  0
 26 49  1  0
 27 50  1  0
 29 51  1  0
 30 52  1  0
 31 53  1  0
 32 54  1  0
 33 55  1  0
M  CHG  1  22  -1
M  END
>  <UniqueID>  (7) 
7

>  <SMILES>  (7) 
Cc1cccc(C(=O)Nc2cccc(-c3ccc(S(=O)(=O)[N-]Cc4cccnc4)cc3)c2)c1

>  <Energy>  (7) 
67.44132126261258

>  <Genealogy>  (7) 
Cc1cccc(C(=O)Nc2cccc(-c3ccc(S(=O)(=O)[N-]Cc4cccnc4)cc3)c2)c1 (protonated)
Cc1cccc(C(=O)Nc2cccc(-c3ccc(S(=O)(=O)[N-]Cc4cccnc4)cc3)c2)c1 (3D coordinates assigned)
Cc1cccc(C(=O)Nc2cccc(-c3ccc(S(=O)(=O)[N-]Cc4cccnc4)cc3)c2)c1 (optimized conformer: 67.44132126261258 kcal/mol)

>  <smiles>  (7) 
Cc1cccc(C(=O)Nc2cccc(-c3ccc(S(=O)(=O)NCc4cccnc4)cc3)c2)c1

>  <score_type>  (7) 
oracle

>  <origin>  (7) 
adgpu

>  <m_score__min__energy>  (7) 
-10.789999999999999

>  <m_primary>  (7) 
energy

$$$$
7:0
     RDKit          3D

 53 55  0  0  0  0  0  0  0  0999 V2000
   -4.3040   15.2490  -34.2810 C   0  0  0  0  0  0  0  0  0  0  0  0
   -5.0470   16.4280  -33.8110 N   0  0  0  0  0  0  0  0  0  0  0  0
   -4.6920   17.6210  -34.6130 C   0  0  0  0  0  0  0  0  0  0  0  0
   -5.7700   18.7270  -34.5790 C   0  0  0  0  0  0  0  0  0  0  0  0
   -6.6420   18.6070  -33.3970 N   0  0  0  0  0  0  0  0  0  0  0  0
   -7.0720   19.7940  -32.6800 C   0  0  0  0  0  0  0  0  0  0  0  0
   -6.1550   20.6380  -32.0270 C   0  0  0  0  0  0  0  0  0  0  0  0
   -6.6290   21.7720  -31.3530 C   0  0  0  0  0  0  0  0  0  0  0  0
   -5.7310   22.6470  -30.6480 N   0  0  0  0  0  0  0  0  0  0  0  0
   -6.2110   23.9600  -30.2000 C   0  0  0  0  0  0  0  0  0  0  0  0
   -5.2290   24.5880  -29.2000 C   0  0  0  0  0  0  0  0  0  0  0  0
   -4.6410   23.5390  -28.3420 N   0  0  0  0  0  0  0  0  0  0  0  0
   -3.8900   24.1390  -27.2540 C   0  0  0  0  0  0  0  0  0  0  0  0
   -4.4390   24.9120  -26.4800 O   0  0  0  0  0  0  0  0  0  0  0  0
   -2.4280   23.8120  -27.0450 C   0  0  0  0  0  0  0  0  0  0  0  0
   -1.5320   25.0410  -27.2380 C   0  0  0  0  0  0  0  0  0  0  0  0
   -1.6990   25.6490  -28.5970 C   0  0  0  0  0  0  0  0  0  0  0  0
   -1.2120   26.7840  -28.8520 O   0  0  0  0  0  0  0  0  0  0  0  0
   -2.3700   24.9480  -29.5930 O   0  0  0  0  0  0  0  0  0  0  0  0
   -3.7770   22.6100  -29.1150 C   0  0  0  0  0  0  0  0  0  0  0  0
   -4.2950   22.3480  -30.5450 C   0  0  0  0  0  0  0  0  0  0  0  0
   -7.9660   22.0160  -31.3250 N   0  0  0  0  0  0  0  0  0  0  0  0
   -8.8470   21.2000  -31.9580 C   0  0  0  0  0  0  0  0  0  0  0  0
  -10.1130   21.4550  -31.9250 N   0  0  0  0  0  0  0  0  0  0  0  0
   -8.3960   20.1080  -32.6250 N   0  0  0  0  0  0  0  0  0  0  0  0
   -7.2050   17.2860  -33.0720 C   0  0  0  0  0  0  0  0  0  0  0  0
   -6.4940   16.1700  -33.8390 C   0  0  0  0  0  0  0  0  0  0  0  0
   -3.9421   14.6747  -33.4155 H   0  0  0  0  0  0  0  0  0  0  0  0
   -4.9670   14.6164  -34.8895 H   0  0  0  0  0  0  0  0  0  0  0  0
   -3.4473   15.5741  -34.8895 H   0  0  0  0  0  0  0  0  0  0  0  0
   -3.7526   18.0377  -34.2208 H   0  0  0  0  0  0  0  0  0  0  0  0
   -4.5971   17.2925  -35.6585 H   0  0  0  0  0  0  0  0  0  0  0  0
   -5.2728   19.7079  -34.5562 H   0  0  0  0  0  0  0  0  0  0  0  0
   -6.3961   18.6211  -35.4772 H   0  0  0  0  0  0  0  0  0  0  0  0
   -5.0789   20.4107  -32.0452 H   0  0  0  0  0  0  0  0  0  0  0  0
   -6.3118   24.6236  -31.0715 H   0  0  0  0  0  0  0  0  0  0  0  0
   -7.1839   23.8290  -29.7036 H   0  0  0  0  0  0  0  0  0  0  0  0
   -4.4264   25.1004  -29.7507 H   0  0  0  0  0  0  0  0  0  0  0  0
   -5.7686   25.3097  -28.5692 H   0  0  0  0  0  0  0  0  0  0  0  0
   -5.4300   22.9790  -27.9380 H   0  0  0  0  0  0  0  0  0  0  0  0
   -2.2920   23.4303  -26.0224 H   0  0  0  0  0  0  0  0  0  0  0  0
   -2.1378   23.0588  -27.7924 H   0  0  0  0  0  0  0  0  0  0  0  0
   -1.7917   25.7928  -26.4782 H   0  0  0  0  0  0  0  0  0  0  0  0
   -0.4854   24.7180  -27.1364 H   0  0  0  0  0  0  0  0  0  0  0  0
   -2.7686   23.0443  -29.1823 H   0  0  0  0  0  0  0  0  0  0  0  0
   -3.7764   21.6460  -28.5852 H   0  0  0  0  0  0  0  0  0  0  0  0
   -3.7430   22.9867  -31.2503 H   0  0  0  0  0  0  0  0  0  0  0  0
   -4.1400   21.2857  -30.7849 H   0  0  0  0  0  0  0  0  0  0  0  0
  -10.4900   22.2870  -31.4180 H   0  0  0  0  0  0  0  0  0  0  0  0
   -7.0932   17.1054  -31.9927 H   0  0  0  0  0  0  0  0  0  0  0  0
   -8.2662   17.2822  -33.3616 H   0  0  0  0  0  0  0  0  0  0  0  0
   -6.7066   15.2008  -33.3643 H   0  0  0  0  0  0  0  0  0  0  0  0
   -6.8504   16.1437  -34.8793 H   0  0  0  0  0  0  0  0  0  0  0  0
  1  2  1  0
  2  3  1  0
  3  4  1  0
  4  5  1  0
  5  6  1  0
  6  7  1  0
  7  8  2  0
  8  9  1  0
  9 10  1  0
 10 11  1  0
 11 12  1  0
 12 13  1  0
 13 14  2  0
 13 15  1  0
 15 16  1  0
 16 17  1  0
 17 18  2  0
 17 19  1  0
 12 20  1  0
 20 21  1  0
  8 22  1  0
 22 23  1  0
 23 24  2  3
 23 25  1  0
  5 26  1  0
 26 27  1  0
 27  2  1  0
 25  6  2  0
 21  9  1  0
  1 28  1  0
  1 29  1  0
  1 30  1  0
  3 31  1  0
  3 32  1  0
  4 33  1  0
  4 34  1  0
  7 35  1  0
 10 36  1  0
 10 37  1  0
 11 38  1  0
 11 39  1  0
 12 40  1  0
 15 41  1  0
 15 42  1  0
 16 43  1  0
 16 44  1  0
 20 45  1  0
 20 46  1  0
 21 47  1  0
 21 48  1  0
 24 49  1  0
 26 50  1  0
 26 51  1  0
 27 52  1  0
 27 53  1  0
M  CHG  3  12   1  19  -1  22  -1
M  END
>  <UniqueID>  (8) 
8

>  <SMILES>  (8) 
CN1CCN(c2cc(N3CC[NH+](C(=O)CCC(=O)[O-])CC3)[n-]c(=N)n2)CC1

>  <Energy>  (8) 
65.58776507180693

>  <Genealogy>  (8) 
CN1CCN(c2cc(N3CC[NH+](C(=O)CCC(=O)[O-])CC3)[n-]c(=N)n2)CC1 (protonated)
CN1CCN(c2cc(N3CC[NH+](C(=O)CCC(=O)[O-])CC3)[n-]c(=N)n2)CC1 (3D coordinates assigned)
CN1CCN(c2cc(N3CC[NH+](C(=O)CCC(=O)[O-])CC3)[n-]c(=N)n2)CC1 (nonaromatic ring conformer: 65.58776507180693 kcal/mol)

>  <smiles>  (8) 
CN1CCN(c2cc(N3CCN(C(=O)CCC(=O)O)CC3)[nH]c(=N)n2)CC1

>  <score_type>  (8) 
oracle

>  <origin>  (8) 
adgpu

>  <m_score__min__energy>  (8) 
-9.5

>  <m_primary>  (8) 
energy

$$$$
8:0
     RDKit          3D

 57 59  0  0  0  0  0  0  0  0999 V2000
   -7.3640   18.1020  -32.6100 C   0  0  0  0  0  0  0  0  0  0  0  0
   -7.7720   19.5030  -32.2630 C   0  0  0  0  0  0  0  0  0  0  0  0
   -9.1150   19.8060  -31.9980 C   0  0  0  0  0  0  0  0  0  0  0  0
   -9.4920   21.1140  -31.6880 C   0  0  0  0  0  0  0  0  0  0  0  0
   -8.5350   22.1320  -31.6550 C   0  0  0  0  0  0  0  0  0  0  0  0
   -7.1910   21.8500  -31.9480 C   0  0  0  0  0  0  0  0  0  0  0  0
   -6.2030   22.8970  -31.8990 N   0  0  0  0  0  0  0  0  0  0  0  0
   -4.8340   22.6730  -32.3710 C   0  0  0  0  0  0  0  0  0  0  0  0
   -3.8300   22.9380  -31.2320 C   0  0  0  0  0  0  0  0  0  0  0  0
   -4.2820   23.9670  -30.2540 N   0  0  0  0  0  0  0  0  0  0  0  0
   -4.7760   23.3740  -28.9900 C   0  0  0  0  0  0  0  0  0  0  0  0
   -3.8910   23.8050  -27.8140 C   0  0  0  0  0  0  0  0  0  0  0  0
   -2.9220   22.7220  -27.4590 C   0  0  0  0  0  0  0  0  0  0  0  0
   -1.9030   22.9960  -26.7650 O   0  0  0  0  0  0  0  0  0  0  0  0
   -3.1330   21.4250  -27.9420 O   0  0  0  0  0  0  0  0  0  0  0  0
   -2.1410   20.4360  -27.9340 C   0  0  0  0  0  0  0  0  0  0  0  0
   -1.0300   20.5760  -28.7870 C   0  0  0  0  0  0  0  0  0  0  0  0
   -0.8910   21.7930  -29.6580 C   0  0  0  0  0  0  0  0  0  0  0  0
   -0.0040   19.6190  -28.7570 C   0  0  0  0  0  0  0  0  0  0  0  0
   -0.0940   18.5030  -27.9180 C   0  0  0  0  0  0  0  0  0  0  0  0
    1.0300   17.5110  -27.8710 C   0  0  0  0  0  0  0  0  0  0  0  0
   -1.2090   18.3560  -27.0850 C   0  0  0  0  0  0  0  0  0  0  0  0
   -2.2480   19.2980  -27.1050 C   0  0  0  0  0  0  0  0  0  0  0  0
   -3.4450   19.0800  -26.2210 C   0  0  0  0  0  0  0  0  0  0  0  0
   -5.2570   24.9160  -30.8370 C   0  0  0  0  0  0  0  0  0  0  0  0
   -6.5340   24.1960  -31.3030 C   0  0  0  0  0  0  0  0  0  0  0  0
   -6.8170   20.5310  -32.2540 C   0  0  0  0  0  0  0  0  0  0  0  0
   -7.1972   17.5292  -31.6859 H   0  0  0  0  0  0  0  0  0  0  0  0
   -8.1601   17.6236  -33.1993 H   0  0  0  0  0  0  0  0  0  0  0  0
   -6.4355   18.1258  -33.1993 H   0  0  0  0  0  0  0  0  0  0  0  0
   -9.8740   19.0107  -32.0345 H   0  0  0  0  0  0  0  0  0  0  0  0
  -10.5452   21.3440  -31.4691 H   0  0  0  0  0  0  0  0  0  0  0  0
   -8.8359   23.1585  -31.3984 H   0  0  0  0  0  0  0  0  0  0  0  0
   -4.7322   21.6317  -32.7105 H   0  0  0  0  0  0  0  0  0  0  0  0
   -4.6235   23.3608  -33.2032 H   0  0  0  0  0  0  0  0  0  0  0  0
   -3.6643   21.9950  -30.6904 H   0  0  0  0  0  0  0  0  0  0  0  0
   -2.9123   23.3243  -31.6997 H   0  0  0  0  0  0  0  0  0  0  0  0
   -5.8072   23.7119  -28.8101 H   0  0  0  0  0  0  0  0  0  0  0  0
   -4.7462   22.2777  -29.0752 H   0  0  0  0  0  0  0  0  0  0  0  0
   -3.3337   24.7110  -28.0942 H   0  0  0  0  0  0  0  0  0  0  0  0
   -4.5321   24.0064  -26.9431 H   0  0  0  0  0  0  0  0  0  0  0  0
   -0.7889   22.6870  -29.0253 H   0  0  0  0  0  0  0  0  0  0  0  0
    0.0012   21.6894  -30.2931 H   0  0  0  0  0  0  0  0  0  0  0  0
   -1.7835   21.8933  -30.2931 H   0  0  0  0  0  0  0  0  0  0  0  0
    0.8796   19.7476  -29.3994 H   0  0  0  0  0  0  0  0  0  0  0  0
    1.2804   17.2900  -26.8229 H   0  0  0  0  0  0  0  0  0  0  0  0
    0.7226   16.5843  -28.3778 H   0  0  0  0  0  0  0  0  0  0  0  0
    1.9113   17.9311  -28.3778 H   0  0  0  0  0  0  0  0  0  0  0  0
   -1.2712   17.4920  -26.4070 H   0  0  0  0  0  0  0  0  0  0  0  0
   -3.1371   19.1361  -25.1665 H   0  0  0  0  0  0  0  0  0  0  0  0
   -4.1976   19.8558  -26.4250 H   0  0  0  0  0  0  0  0  0  0  0  0
   -3.8758   18.0886  -26.4250 H   0  0  0  0  0  0  0  0  0  0  0  0
   -5.5256   25.6646  -30.0771 H   0  0  0  0  0  0  0  0  0  0  0  0
   -4.7922   25.3953  -31.7112 H   0  0  0  0  0  0  0  0  0  0  0  0
   -7.1970   24.0396  -30.4393 H   0  0  0  0  0  0  0  0  0  0  0  0
   -7.0365   24.8168  -32.0594 H   0  0  0  0  0  0  0  0  0  0  0  0
   -5.7669   20.3022  -32.4885 H   0  0  0  0  0  0  0  0  0  0  0  0
  1  2  1  0
  2  3  2  0
  3  4  1  0
  4  5  2  0
  5  6  1  0
  6  7  1  0
  7  8  1  0
  8  9  1  0
  9 10  1  0
 10 11  1  0
 11 12  1  0
 12 13  1  0
 13 14  2  0
 13 15  1  0
 15 16  1  0
 16 17  2  0
 17 18  1  0
 17 19  1  0
 19 20  2  0
 20 21  1  0
 20 22  1  0
 22 23  2  0
 23 24  1  0
 10 25  1  0
 25 26  1  0
  6 27  2  0
 27  2  1  0
 26  7  1  0
 23 16  1  0
  1 28  1  0
  1 29  1  0
  1 30  1  0
  3 31  1  0
  4 32  1  0
  5 33  1  0
  8 34  1  0
  8 35  1  0
  9 36  1  0
  9 37  1  0
 11 38  1  0
 11 39  1  0
 12 40  1  0
 12 41  1  0
 18 42  1  0
 18 43  1  0
 18 44  1  0
 19 45  1  0
 21 46  1  0
 21 47  1  0
 21 48  1  0
 22 49  1  0
 24 50  1  0
 24 51  1  0
 24 52  1  0
 25 53  1  0
 25 54  1  0
 26 55  1  0
 26 56  1  0
 27 57  1  0
M  END
>  <UniqueID>  (9) 
9

>  <SMILES>  (9) 
Cc1cccc(N2CCN(CCC(=O)Oc3c(C)cc(C)cc3C)CC2)c1

>  <Energy>  (9) 
71.87784282147234

>  <Genealogy>  (9) 
Cc1cccc(N2CCN(CCC(=O)Oc3c(C)cc(C)cc3C)CC2)c1 (3D coordinates assigned)
Cc1cccc(N2CCN(CCC(=O)Oc3c(C)cc(C)cc3C)CC2)c1 (nonaromatic ring conformer: 71.87784282147234 kcal/mol)

>  <smiles>  (9) 
Cc1cccc(N2CCN(CCC(=O)Oc3c(C)cc(C)cc3C)CC2)c1

>  <score_type>  (9) 
oracle

>  <origin>  (9) 
adgpu

>  <m_score__min__energy>  (9) 
-9.4000000000000004

>  <m_primary>  (9) 
energy

$$$$
9:0
     RDKit          3D

 38 39  0  0  0  0  0  0  0  0999 V2000
   -6.1510   18.9280  -33.9000 C   0  0  0  0  0  0  0  0  0  0  0  0
   -6.9850   18.3920  -32.8180 N   0  0  0  0  0  0  0  0  0  0  0  0
   -6.1400   17.9460  -31.7020 C   0  0  0  0  0  0  0  0  0  0  0  0
   -8.1000   19.6180  -32.2630 S   0  0  0  0  0  0  0  0  0  0  0  0
   -8.9850   20.0390  -33.4030 O   0  0  0  0  0  0  0  0  0  0  0  0
   -8.9750   19.0470  -31.1830 O   0  0  0  0  0  0  0  0  0  0  0  0
   -7.2490   21.0320  -31.6360 C   0  0  0  0  0  0  0  0  0  0  0  0
   -5.8810   21.2000  -31.8860 C   0  0  0  0  0  0  0  0  0  0  0  0
   -5.2020   22.3090  -31.3710 C   0  0  0  0  0  0  0  0  0  0  0  0
   -5.8880   23.2580  -30.5990 C   0  0  0  0  0  0  0  0  0  0  0  0
   -5.0340   24.6360  -29.9140 S   0  0  0  0  0  0  0  0  0  0  0  0
   -6.0220   25.7350  -29.6430 O   0  0  0  0  0  0  0  0  0  0  0  0
   -3.9850   25.1410  -30.8650 O   0  0  0  0  0  0  0  0  0  0  0  0
   -4.2730   24.1760  -28.4240 N   0  0  0  0  0  0  0  0  0  0  0  0
   -2.9770   23.5730  -28.3050 C   0  0  0  0  0  0  0  0  0  0  0  0
   -2.8200   22.2350  -27.8930 C   0  0  0  0  0  0  0  0  0  0  0  0
   -1.5440   21.6770  -27.7730 C   0  0  0  0  0  0  0  0  0  0  0  0
   -0.4140   22.4420  -28.0680 C   0  0  0  0  0  0  0  0  0  0  0  0
   -0.5580   23.7660  -28.4870 C   0  0  0  0  0  0  0  0  0  0  0  0
   -1.8310   24.3360  -28.6080 C   0  0  0  0  0  0  0  0  0  0  0  0
   -1.9330   25.6640  -29.0260 O   0  0  0  0  0  0  0  0  0  0  0  0
   -7.2580   23.0950  -30.3580 C   0  0  0  0  0  0  0  0  0  0  0  0
   -7.9350   21.9860  -30.8730 C   0  0  0  0  0  0  0  0  0  0  0  0
   -5.2994   19.4753  -33.4697 H   0  0  0  0  0  0  0  0  0  0  0  0
   -5.7787   18.0997  -34.5207 H   0  0  0  0  0  0  0  0  0  0  0  0
   -6.7498   19.6108  -34.5207 H   0  0  0  0  0  0  0  0  0  0  0  0
   -6.6258   18.2024  -30.7490 H   0  0  0  0  0  0  0  0  0  0  0  0
   -6.0000   16.8565  -31.7607 H   0  0  0  0  0  0  0  0  0  0  0  0
   -5.1615   18.4451  -31.7607 H   0  0  0  0  0  0  0  0  0  0  0  0
   -5.3389   20.4571  -32.4895 H   0  0  0  0  0  0  0  0  0  0  0  0
   -4.1281   22.4372  -31.5718 H   0  0  0  0  0  0  0  0  0  0  0  0
   -3.7068   21.6257  -27.6644 H   0  0  0  0  0  0  0  0  0  0  0  0
   -1.4300   20.6331  -27.4455 H   0  0  0  0  0  0  0  0  0  0  0  0
    0.5893   22.0018  -27.9704 H   0  0  0  0  0  0  0  0  0  0  0  0
    0.3339   24.3648  -28.7234 H   0  0  0  0  0  0  0  0  0  0  0  0
   -2.8060   26.0680  -29.3390 H   0  0  0  0  0  0  0  0  0  0  0  0
   -7.8027   23.8419  -29.7617 H   0  0  0  0  0  0  0  0  0  0  0  0
   -9.0105   21.8617  -30.6785 H   0  0  0  0  0  0  0  0  0  0  0  0
  1  2  1  0
  2  3  1  0
  2  4  1  0
  4  5  2  0
  4  6  2  0
  4  7  1  0
  7  8  2  0
  8  9  1  0
  9 10  2  0
 10 11  1  0
 11 12  2  0
 11 13  2  0
 11 14  1  0
 14 15  1  0
 15 16  2  0
 16 17  1  0
 17 18  2  0
 18 19  1  0
 19 20  2  0
 20 21  1  0
 10 22  1  0
 22 23  2  0
 23  7  1  0
 20 15  1  0
  1 24  1  0
  1 25  1  0
  1 26  1  0
  3 27  1  0
  3 28  1  0
  3 29  1  0
  8 30  1  0
  9 31  1  0
 16 32  1  0
 17 33  1  0
 18 34  1  0
 19 35  1  0
 21 36  1  0
 22 37  1  0
 23 38  1  0
M  CHG  1  14  -1
M  END
>  <UniqueID>  (10) 
10

>  <SMILES>  (10) 
CN(C)S(=O)(=O)c1ccc(S(=O)(=O)[N-]c2ccccc2O)cc1

>  <Energy>  (10) 
38.94540449692607

>  <Genealogy>  (10) 
CN(C)S(=O)(=O)c1ccc(S(=O)(=O)[N-]c2ccccc2O)cc1 (protonated)
CN(C)S(=O)(=O)c1ccc(S(=O)(=O)[N-]c2ccccc2O)cc1 (3D coordinates assigned)
CN(C)S(=O)(=O)c1ccc(S(=O)(=O)[N-]c2ccccc2O)cc1 (optimized conformer: 38.94540449692607 kcal/mol)

>  <smiles>  (10) 
CN(C)S(=O)(=O)c1ccc(S(=O)(=O)Nc2ccccc2O)cc1

>  <score_type>  (10) 
oracle

>  <origin>  (10) 
adgpu

>  <m_score__min__energy>  (10) 
-11.289999999999999

>  <m_primary>  (10) 
energy

$$$$
10:0
     RDKit          3D

 44 46  0  0  0  0  0  0  0  0999 V2000
   -2.8790   19.6880  -27.7960 C   0  0  0  0  0  0  0  0  0  0  0  0
   -1.5820   20.1370  -28.3000 N   0  0  0  0  0  0  0  0  0  0  0  0
   -1.2370   19.9710  -29.6860 C   0  0  0  0  0  0  0  0  0  0  0  0
   -0.1110   19.2140  -30.0580 C   0  0  0  0  0  0  0  0  0  0  0  0
    0.2200   19.0570  -31.4070 C   0  0  0  0  0  0  0  0  0  0  0  0
   -0.5660   19.6560  -32.3950 C   0  0  0  0  0  0  0  0  0  0  0  0
   -1.6850   20.4130  -32.0350 C   0  0  0  0  0  0  0  0  0  0  0  0
   -2.0200   20.5710  -30.6860 C   0  0  0  0  0  0  0  0  0  0  0  0
   -0.6070   21.1430  -27.2710 S   0  0  0  0  0  0  0  0  0  0  0  0
    0.8360   20.7260  -27.3390 O   0  0  0  0  0  0  0  0  0  0  0  0
   -1.0830   21.0160  -25.8500 O   0  0  0  0  0  0  0  0  0  0  0  0
   -0.7340   22.8080  -27.8270 C   0  0  0  0  0  0  0  0  0  0  0  0
    0.1320   23.7950  -27.3380 C   0  0  0  0  0  0  0  0  0  0  0  0
   -0.0370   25.1280  -27.7250 C   0  0  0  0  0  0  0  0  0  0  0  0
   -1.0780   25.4830  -28.5890 C   0  0  0  0  0  0  0  0  0  0  0  0
   -1.2340   26.8120  -28.9650 O   0  0  0  0  0  0  0  0  0  0  0  0
   -1.9520   24.4970  -29.0750 C   0  0  0  0  0  0  0  0  0  0  0  0
   -3.0580   24.8400  -29.9100 N   0  0  0  0  0  0  0  0  0  0  0  0
   -4.6550   24.2870  -29.5390 S   0  0  0  0  0  0  0  0  0  0  0  0
   -4.6750   23.6370  -28.1850 O   0  0  0  0  0  0  0  0  0  0  0  0
   -5.5950   25.4600  -29.5260 O   0  0  0  0  0  0  0  0  0  0  0  0
   -5.1730   23.1440  -30.7760 C   0  0  0  0  0  0  0  0  0  0  0  0
   -6.4910   22.6670  -30.7900 C   0  0  0  0  0  0  0  0  0  0  0  0
   -6.8910   21.7340  -31.7520 C   0  0  0  0  0  0  0  0  0  0  0  0
   -5.9760   21.2700  -32.7010 C   0  0  0  0  0  0  0  0  0  0  0  0
   -4.6570   21.7330  -32.6850 C   0  0  0  0  0  0  0  0  0  0  0  0
   -4.2530   22.6640  -31.7210 C   0  0  0  0  0  0  0  0  0  0  0  0
   -1.7680   23.1620  -28.7020 C   0  0  0  0  0  0  0  0  0  0  0  0
   -2.8664   19.6923  -26.6961 H   0  0  0  0  0  0  0  0  0  0  0  0
   -3.6670   20.3657  -28.1564 H   0  0  0  0  0  0  0  0  0  0  0  0
   -3.0794   18.6682  -28.1564 H   0  0  0  0  0  0  0  0  0  0  0  0
    0.5121   18.7433  -29.2833 H   0  0  0  0  0  0  0  0  0  0  0  0
    1.1001   18.4614  -31.6911 H   0  0  0  0  0  0  0  0  0  0  0  0
   -0.3043   19.5319  -33.4562 H   0  0  0  0  0  0  0  0  0  0  0  0
   -2.3026   20.8849  -32.8134 H   0  0  0  0  0  0  0  0  0  0  0  0
   -2.9008   21.1680  -30.4070 H   0  0  0  0  0  0  0  0  0  0  0  0
    0.9450   23.5212  -26.6495 H   0  0  0  0  0  0  0  0  0  0  0  0
    0.6508   25.8997  -27.3488 H   0  0  0  0  0  0  0  0  0  0  0  0
   -7.2127   23.0275  -30.0422 H   0  0  0  0  0  0  0  0  0  0  0  0
   -7.9272   21.3649  -31.7617 H   0  0  0  0  0  0  0  0  0  0  0  0
   -6.2936   20.5405  -33.4605 H   0  0  0  0  0  0  0  0  0  0  0  0
   -3.9363   21.3655  -33.4303 H   0  0  0  0  0  0  0  0  0  0  0  0
   -3.2124   23.0201  -31.7040 H   0  0  0  0  0  0  0  0  0  0  0  0
   -2.4392   22.3858  -29.0982 H   0  0  0  0  0  0  0  0  0  0  0  0
  1  2  1  0
  2  3  1  0
  3  4  2  0
  4  5  1  0
  5  6  2  0
  6  7  1  0
  7  8  2  0
  2  9  1  0
  9 10  2  0
  9 11  2  0
  9 12  1  0
 12 13  2  0
 13 14  1  0
 14 15  2  0
 15 16  1  0
 15 17  1  0
 17 18  1  0
 18 19  1  0
 19 20  2  0
 19 21  2  0
 19 22  1  0
 22 23  2  0
 23 24  1  0
 24 25  2  0
 25 26  1  0
 26 27  2  0
 17 28  2  0
  8  3  1  0
 28 12  1  0
 27 22  1  0
  1 29  1  0
  1 30  1  0
  1 31  1  0
  4 32  1  0
  5 33  1  0
  6 34  1  0
  7 35  1  0
  8 36  1  0
 13 37  1  0
 14 38  1  0
 23 39  1  0
 24 40  1  0
 25 41  1  0
 26 42  1  0
 27 43  1  0
 28 44  1  0
M  CHG  2  16  -1  18  -1
M  END
>  <UniqueID>  (11) 
11

>  <SMILES>  (11) 
CN(c1ccccc1)S(=O)(=O)c1ccc([O-])c([N-]S(=O)(=O)c2ccccc2)c1

>  <Energy>  (11) 
58.09089431136841

>  <Genealogy>  (11) 
CN(c1ccccc1)S(=O)(=O)c1ccc([O-])c([N-]S(=O)(=O)c2ccccc2)c1 (protonated)
CN(c1ccccc1)S(=O)(=O)c1ccc([O-])c([N-]S(=O)(=O)c2ccccc2)c1 (3D coordinates assigned)
CN(c1ccccc1)S(=O)(=O)c1ccc([O-])c([N-]S(=O)(=O)c2ccccc2)c1 (optimized conformer: 58.09089431136841 kcal/mol)

>  <smiles>  (11) 
CN(c1ccccc1)S(=O)(=O)c1ccc(O)c(NS(=O)(=O)c2ccccc2)c1

>  <score_type>  (11) 
oracle

>  <origin>  (11) 
adgpu

>  <m_score__min__energy>  (11) 
-12.99

>  <m_primary>  (11) 
energy

$$$$
11:0
     RDKit          3D

 47 49  0  0  0  0  0  0  0  0999 V2000
   -3.9760   18.8700  -33.8950 C   0  0  0  0  0  0  0  0  0  0  0  0
   -4.5610   20.0660  -33.2060 C   0  0  0  0  0  0  0  0  0  0  0  0
   -3.8170   21.2500  -33.0970 C   0  0  0  0  0  0  0  0  0  0  0  0
   -4.3460   22.3570  -32.4250 C   0  0  0  0  0  0  0  0  0  0  0  0
   -5.6250   22.2950  -31.8450 C   0  0  0  0  0  0  0  0  0  0  0  0
   -6.1670   23.4320  -31.1480 N   0  0  0  0  0  0  0  0  0  0  0  0
   -7.5990   23.7260  -31.2180 C   0  0  0  0  0  0  0  0  0  0  0  0
   -5.1250   24.5030  -30.2560 S   0  0  0  0  0  0  0  0  0  0  0  0
   -5.9690   25.4440  -29.4420 O   0  0  0  0  0  0  0  0  0  0  0  0
   -4.2680   25.3000  -31.2000 O   0  0  0  0  0  0  0  0  0  0  0  0
   -4.0630   23.5610  -29.2140 C   0  0  0  0  0  0  0  0  0  0  0  0
   -4.0520   22.1630  -29.2790 C   0  0  0  0  0  0  0  0  0  0  0  0
   -3.1970   21.4240  -28.4580 C   0  0  0  0  0  0  0  0  0  0  0  0
   -2.3330   22.0750  -27.5560 C   0  0  0  0  0  0  0  0  0  0  0  0
   -1.4570   21.3490  -26.7160 C   0  0  0  0  0  0  0  0  0  0  0  0
   -1.3820   19.9150  -26.7840 N   0  0  0  0  0  0  0  0  0  0  0  0
   -0.4540   19.2900  -27.7240 C   0  0  0  0  0  0  0  0  0  0  0  0
   -2.5060   19.1250  -26.2820 C   0  0  0  0  0  0  0  0  0  0  0  0
   -0.6360   22.0390  -25.8120 C   0  0  0  0  0  0  0  0  0  0  0  0
   -0.6700   23.4320  -25.7410 C   0  0  0  0  0  0  0  0  0  0  0  0
   -1.5220   24.1580  -26.5730 C   0  0  0  0  0  0  0  0  0  0  0  0
   -2.3570   23.4910  -27.4820 C   0  0  0  0  0  0  0  0  0  0  0  0
   -3.2190   24.2220  -28.3130 C   0  0  0  0  0  0  0  0  0  0  0  0
   -6.3560   21.0990  -31.9370 C   0  0  0  0  0  0  0  0  0  0  0  0
   -5.8270   19.9920  -32.6070 C   0  0  0  0  0  0  0  0  0  0  0  0
   -3.6235   18.1493  -33.1425 H   0  0  0  0  0  0  0  0  0  0  0  0
   -4.7444   18.3969  -34.5241 H   0  0  0  0  0  0  0  0  0  0  0  0
   -3.1308   19.1862  -34.5241 H   0  0  0  0  0  0  0  0  0  0  0  0
   -2.8128   21.3084  -33.5421 H   0  0  0  0  0  0  0  0  0  0  0  0
   -3.7568   23.2828  -32.3499 H   0  0  0  0  0  0  0  0  0  0  0  0
   -8.0063   23.8096  -30.1996 H   0  0  0  0  0  0  0  0  0  0  0  0
   -7.7528   24.6745  -31.7535 H   0  0  0  0  0  0  0  0  0  0  0  0
   -8.1141   22.9149  -31.7535 H   0  0  0  0  0  0  0  0  0  0  0  0
   -4.7207   21.6431  -29.9808 H   0  0  0  0  0  0  0  0  0  0  0  0
   -3.1985   20.3255  -28.5163 H   0  0  0  0  0  0  0  0  0  0  0  0
    0.3322   18.7605  -27.1658 H   0  0  0  0  0  0  0  0  0  0  0  0
   -0.9995   18.5746  -28.3569 H   0  0  0  0  0  0  0  0  0  0  0  0
    0.0039   20.0645  -28.3569 H   0  0  0  0  0  0  0  0  0  0  0  0
   -2.4966   19.1316  -25.1821 H   0  0  0  0  0  0  0  0  0  0  0  0
   -3.4498   19.5594  -26.6432 H   0  0  0  0  0  0  0  0  0  0  0  0
   -2.4169   18.0898  -26.6432 H   0  0  0  0  0  0  0  0  0  0  0  0
    0.0413   21.4764  -25.1526 H   0  0  0  0  0  0  0  0  0  0  0  0
   -0.0221   23.9599  -25.0258 H   0  0  0  0  0  0  0  0  0  0  0  0
   -1.5393   25.2564  -26.5164 H   0  0  0  0  0  0  0  0  0  0  0  0
   -3.2320   25.3205  -28.2566 H   0  0  0  0  0  0  0  0  0  0  0  0
   -7.3534   21.0329  -31.4778 H   0  0  0  0  0  0  0  0  0  0  0  0
   -6.4063   19.0587  -32.6647 H   0  0  0  0  0  0  0  0  0  0  0  0
  1  2  1  0
  2  3  2  0
  3  4  1  0
  4  5  2  0
  5  6  1  0
  6  7  1  0
  6  8  1  0
  8  9  2  0
  8 10  2  0
  8 11  1  0
 11 12  2  0
 12 13  1  0
 13 14  2  0
 14 15  1  0
 15 16  1  0
 16 17  1  0
 16 18  1  0
 15 19  2  0
 19 20  1  0
 20 21  2  0
 21 22  1  0
 22 23  2  0
  5 24  1  0
 24 25  2  0
 25  2  1  0
 23 11  1  0
 22 14  1  0
  1 26  1  0
  1 27  1  0
  1 28  1  0
  3 29  1  0
  4 30  1  0
  7 31  1  0
  7 32  1  0
  7 33  1  0
 12 34  1  0
 13 35  1  0
 17 36  1  0
 17 37  1  0
 17 38  1  0
 18 39  1  0
 18 40  1  0
 18 41  1  0
 19 42  1  0
 20 43  1  0
 21 44  1  0
 23 45  1  0
 24 46  1  0
 25 47  1  0
M  END
>  <UniqueID>  (12) 
12

>  <SMILES>  (12) 
Cc1ccc(N(C)S(=O)(=O)c2ccc3c(N(C)C)cccc3c2)cc1

>  <Energy>  (12) 
60.464966822083085

>  <Genealogy>  (12) 
Cc1ccc(N(C)S(=O)(=O)c2ccc3c(N(C)C)cccc3c2)cc1 (3D coordinates assigned)
Cc1ccc(N(C)S(=O)(=O)c2ccc3c(N(C)C)cccc3c2)cc1 (optimized conformer: 60.464966822083085 kcal/mol)

>  <smiles>  (12) 
Cc1ccc(N(C)S(=O)(=O)c2ccc3c(N(C)C)cccc3c2)cc1

>  <score_type>  (12) 
oracle

>  <origin>  (12) 
adgpu

>  <m_score__min__energy>  (12) 
-9.8000000000000007

>  <m_primary>  (12) 
energy

$$$$
12:0
     RDKit          3D

 42 44  0  0  0  0  0  0  0  0999 V2000
   -1.6440   22.9150  -30.3140 O   0  0  0  0  0  0  0  0  0  0  0  0
   -2.7280   23.1360  -29.7070 C   0  0  0  0  0  0  0  0  0  0  0  0
   -2.7130   23.3180  -28.2840 N   0  0  0  0  0  0  0  0  0  0  0  0
   -1.7560   24.0960  -27.5540 C   0  0  0  0  0  0  0  0  0  0  0  0
   -1.3320   23.6300  -26.3030 C   0  0  0  0  0  0  0  0  0  0  0  0
   -0.3950   24.3520  -25.5580 C   0  0  0  0  0  0  0  0  0  0  0  0
    0.1390   25.5370  -26.0670 C   0  0  0  0  0  0  0  0  0  0  0  0
   -0.2510   25.9950  -27.3280 C   0  0  0  0  0  0  0  0  0  0  0  0
   -1.1850   25.2730  -28.0860 C   0  0  0  0  0  0  0  0  0  0  0  0
   -1.5180   25.7040  -29.3690 O   0  0  0  0  0  0  0  0  0  0  0  0
   -3.9960   23.2570  -30.4790 C   0  0  0  0  0  0  0  0  0  0  0  0
   -4.7090   22.0900  -30.8220 C   0  0  0  0  0  0  0  0  0  0  0  0
   -5.9070   22.1660  -31.5460 C   0  0  0  0  0  0  0  0  0  0  0  0
   -6.8070   20.7080  -31.9550 S   0  0  0  0  0  0  0  0  0  0  0  0
   -7.9010   20.5180  -30.9410 O   0  0  0  0  0  0  0  0  0  0  0  0
   -7.4310   20.8460  -33.3170 O   0  0  0  0  0  0  0  0  0  0  0  0
   -5.7290   19.3340  -31.9320 N   0  0  0  0  0  0  0  0  0  0  0  0
   -5.0040   19.2010  -33.2160 C   0  0  0  0  0  0  0  0  0  0  0  0
   -5.5430   18.0410  -34.0720 C   0  0  0  0  0  0  0  0  0  0  0  0
   -5.4790   16.7850  -33.4120 O   0  0  0  0  0  0  0  0  0  0  0  0
   -5.7150   16.8590  -32.0120 C   0  0  0  0  0  0  0  0  0  0  0  0
   -6.4770   18.1170  -31.5640 C   0  0  0  0  0  0  0  0  0  0  0  0
   -6.4070   23.4130  -31.9280 C   0  0  0  0  0  0  0  0  0  0  0  0
   -5.7140   24.5780  -31.5970 C   0  0  0  0  0  0  0  0  0  0  0  0
   -4.5160   24.5110  -30.8770 C   0  0  0  0  0  0  0  0  0  0  0  0
   -3.8660   25.7000  -30.5650 O   0  0  0  0  0  0  0  0  0  0  0  0
   -1.7392   22.6893  -25.9040 H   0  0  0  0  0  0  0  0  0  0  0  0
   -0.0784   23.9861  -24.5702 H   0  0  0  0  0  0  0  0  0  0  0  0
    0.8673   26.1106  -25.4749 H   0  0  0  0  0  0  0  0  0  0  0  0
    0.1763   26.9262  -27.7284 H   0  0  0  0  0  0  0  0  0  0  0  0
   -2.4670   25.6520  -29.7180 H   0  0  0  0  0  0  0  0  0  0  0  0
   -4.3202   21.1071  -30.5175 H   0  0  0  0  0  0  0  0  0  0  0  0
   -5.1113   20.1382  -33.7819 H   0  0  0  0  0  0  0  0  0  0  0  0
   -3.9491   18.9893  -32.9872 H   0  0  0  0  0  0  0  0  0  0  0  0
   -6.5929   18.2507  -34.3245 H   0  0  0  0  0  0  0  0  0  0  0  0
   -4.9094   17.9730  -34.9686 H   0  0  0  0  0  0  0  0  0  0  0  0
   -6.3012   15.9770  -31.7144 H   0  0  0  0  0  0  0  0  0  0  0  0
   -4.7280   16.8998  -31.5281 H   0  0  0  0  0  0  0  0  0  0  0  0
   -7.4623   18.1363  -32.0527 H   0  0  0  0  0  0  0  0  0  0  0  0
   -6.5957   18.0899  -30.4708 H   0  0  0  0  0  0  0  0  0  0  0  0
   -7.3497   23.4768  -32.4913 H   0  0  0  0  0  0  0  0  0  0  0  0
   -6.1123   25.5562  -31.9043 H   0  0  0  0  0  0  0  0  0  0  0  0
  1  2  2  0
  2  3  1  0
  3  4  1  0
  4  5  2  0
  5  6  1  0
  6  7  2  0
  7  8  1  0
  8  9  2  0
  9 10  1  0
  2 11  1  0
 11 12  2  0
 12 13  1  0
 13 14  1  0
 14 15  2  0
 14 16  2  0
 14 17  1  0
 17 18  1  0
 18 19  1  0
 19 20  1  0
 20 21  1  0
 21 22  1  0
 13 23  2  0
 23 24  1  0
 24 25  2  0
 25 26  1  0
  9  4  1  0
 25 11  1  0
 22 17  1  0
  5 27  1  0
  6 28  1  0
  7 29  1  0
  8 30  1  0
 10 31  1  0
 12 32  1  0
 18 33  1  0
 18 34  1  0
 19 35  1  0
 19 36  1  0
 21 37  1  0
 21 38  1  0
 22 39  1  0
 22 40  1  0
 23 41  1  0
 24 42  1  0
M  CHG  2   3  -1  26  -1
M  END
>  <UniqueID>  (13) 
13

>  <SMILES>  (13) 
O=C([N-]c1ccccc1O)c1cc(S(=O)(=O)N2CCOCC2)ccc1[O-]

>  <Energy>  (13) 
64.06614579863185

>  <Genealogy>  (13) 
O=C([N-]c1ccccc1O)c1cc(S(=O)(=O)N2CCOCC2)ccc1[O-] (protonated)
O=C([N-]c1ccccc1O)c1cc(S(=O)(=O)N2CCOCC2)ccc1[O-] (3D coordinates assigned)
O=C([N-]c1ccccc1O)c1cc(S(=O)(=O)N2CCOCC2)ccc1[O-] (nonaromatic ring conformer: 64.06614579863185 kcal/mol)

>  <smiles>  (13) 
O=C(Nc1ccccc1O)c1cc(S(=O)(=O)N2CCOCC2)ccc1O

>  <score_type>  (13) 
oracle

>  <origin>  (13) 
adgpu

>  <m_score__min__energy>  (13) 
-12.75

>  <m_primary>  (13) 
energy

$$$$
13:0
     RDKit          3D

 59 62  0  0  0  0  0  0  0  0999 V2000
   -5.8260   18.5950  -32.1810 C   0  0  0  0  0  0  0  0  0  0  0  0
   -7.1230   19.3570  -32.1670 C   0  0  0  0  0  0  0  0  0  0  0  0
   -8.2770   18.7380  -32.6780 C   0  0  0  0  0  0  0  0  0  0  0  0
   -9.4950   19.4250  -32.7120 C   0  0  0  0  0  0  0  0  0  0  0  0
   -9.5740   20.7340  -32.2370 C   0  0  0  0  0  0  0  0  0  0  0  0
   -8.4400   21.3570  -31.7100 C   0  0  0  0  0  0  0  0  0  0  0  0
   -7.2160   20.6710  -31.6440 C   0  0  0  0  0  0  0  0  0  0  0  0
   -6.0820   21.3430  -31.0730 N   0  0  0  0  0  0  0  0  0  0  0  0
   -5.6710   22.6520  -31.4970 C   0  0  0  0  0  0  0  0  0  0  0  0
   -6.2200   23.1900  -32.4970 O   0  0  0  0  0  0  0  0  0  0  0  0
   -4.5700   23.3570  -30.8050 C   0  0  0  0  0  0  0  0  0  0  0  0
   -4.5730   24.6650  -30.3300 C   0  0  0  0  0  0  0  0  0  0  0  0
   -5.6980   25.6480  -30.4020 C   0  0  0  0  0  0  0  0  0  0  0  0
   -3.3800   24.9600  -29.7750 N   0  0  0  0  0  0  0  0  0  0  0  0
   -2.5950   23.8730  -29.9100 C   0  0  0  0  0  0  0  0  0  0  0  0
   -1.1890   23.8440  -29.4680 C   0  0  0  0  0  0  0  0  0  0  0  0
   -0.5880   24.9290  -29.2510 O   0  0  0  0  0  0  0  0  0  0  0  0
   -0.4850   22.5990  -29.3800 N   0  0  0  0  0  0  0  0  0  0  0  0
   -0.8610   21.4690  -28.5800 C   0  0  0  0  0  0  0  0  0  0  0  0
   -0.5270   20.1590  -28.9700 C   0  0  0  0  0  0  0  0  0  0  0  0
   -0.9160   19.0710  -28.1850 C   0  0  0  0  0  0  0  0  0  0  0  0
   -1.6340   19.2780  -27.0050 C   0  0  0  0  0  0  0  0  0  0  0  0
   -1.9500   20.5760  -26.5980 C   0  0  0  0  0  0  0  0  0  0  0  0
   -1.5560   21.6770  -27.3710 C   0  0  0  0  0  0  0  0  0  0  0  0
   -1.9190   23.0050  -26.9600 N   0  0  0  0  0  0  0  0  0  0  0  0
   -0.9020   23.8680  -26.3410 C   0  0  0  0  0  0  0  0  0  0  0  0
   -1.2670   25.3690  -26.4180 C   0  0  0  0  0  0  0  0  0  0  0  0
   -2.3900   25.6240  -27.2390 O   0  0  0  0  0  0  0  0  0  0  0  0
   -3.4940   24.8960  -26.7530 C   0  0  0  0  0  0  0  0  0  0  0  0
   -3.3210   23.4200  -27.0930 C   0  0  0  0  0  0  0  0  0  0  0  0
   -3.3040   22.8490  -30.5290 C   0  0  0  0  0  0  0  0  0  0  0  0
   -2.8120   21.4640  -30.8390 C   0  0  0  0  0  0  0  0  0  0  0  0
   -5.5016   18.4044  -31.1474 H   0  0  0  0  0  0  0  0  0  0  0  0
   -5.9690   17.6373  -32.7029 H   0  0  0  0  0  0  0  0  0  0  0  0
   -5.0591   19.1861  -32.7029 H   0  0  0  0  0  0  0  0  0  0  0  0
   -8.2218   17.7057  -33.0539 H   0  0  0  0  0  0  0  0  0  0  0  0
  -10.3923   18.9319  -33.1142 H   0  0  0  0  0  0  0  0  0  0  0  0
  -10.5301   21.2764  -32.2774 H   0  0  0  0  0  0  0  0  0  0  0  0
   -8.5061   22.3922  -31.3441 H   0  0  0  0  0  0  0  0  0  0  0  0
   -5.4080   20.7680  -30.5200 H   0  0  0  0  0  0  0  0  0  0  0  0
   -6.0114   25.9218  -29.3838 H   0  0  0  0  0  0  0  0  0  0  0  0
   -5.3640   26.5489  -30.9376 H   0  0  0  0  0  0  0  0  0  0  0  0
   -6.5460   25.1962  -30.9376 H   0  0  0  0  0  0  0  0  0  0  0  0
   -3.1070   25.8760  -29.3490 H   0  0  0  0  0  0  0  0  0  0  0  0
    0.0423   19.9911  -29.8961 H   0  0  0  0  0  0  0  0  0  0  0  0
   -0.6562   18.0487  -28.4970 H   0  0  0  0  0  0  0  0  0  0  0  0
   -1.9507   18.4184  -26.3961 H   0  0  0  0  0  0  0  0  0  0  0  0
   -2.5113   20.7353  -25.6655 H   0  0  0  0  0  0  0  0  0  0  0  0
   -0.7967   23.5851  -25.2832 H   0  0  0  0  0  0  0  0  0  0  0  0
    0.0374   23.7253  -26.8953 H   0  0  0  0  0  0  0  0  0  0  0  0
   -1.4869   25.7287  -25.4020 H   0  0  0  0  0  0  0  0  0  0  0  0
   -0.4086   25.8936  -26.8630 H   0  0  0  0  0  0  0  0  0  0  0  0
   -3.5597   25.0153  -25.6615 H   0  0  0  0  0  0  0  0  0  0  0  0
   -4.4156   25.2736  -27.2200 H   0  0  0  0  0  0  0  0  0  0  0  0
   -3.9393   22.8195  -26.4095 H   0  0  0  0  0  0  0  0  0  0  0  0
   -3.6328   23.2642  -28.1363 H   0  0  0  0  0  0  0  0  0  0  0  0
   -2.6203   20.9242  -29.8999 H   0  0  0  0  0  0  0  0  0  0  0  0
   -3.5741   20.9261  -31.4221 H   0  0  0  0  0  0  0  0  0  0  0  0
   -1.8814   21.5274  -31.4221 H   0  0  0  0  0  0  0  0  0  0  0  0
  1  2  1  0
  2  3  2  0
  3  4  1  0
  4  5  2  0
  5  6  1  0
  6  7  2  0
  7  8  1  0
  8  9  1  0
  9 10  2  0
  9 11  1  0
 11 12  2  0
 12 13  1  0
 12 14  1  0
 14 15  1  0
 15 16  1  0
 16 17  2  0
 16 18  1  0
 18 19  1  0
 19 20  2  0
 20 21  1  0
 21 22  2  0
 22 23  1  0
 23 24  2  0
 24 25  1  0
 25 26  1  0
 26 27  1  0
 27 28  1  0
 28 29  1  0
 29 30  1  0
 15 31  2  0
 31 32  1  0
  7  2  1  0
 31 11  1  0
 24 19  1  0
 30 25  1  0
  1 33  1  0
  1 34  1  0
  1 35  1  0
  3 36  1  0
  4 37  1  0
  5 38  1  0
  6 39  1  0
  8 40  1  0
 13 41  1  0
 13 42  1  0
 13 43  1  0
 14 44  1  0
 20 45  1  0
 21 46  1  0
 22 47  1  0
 23 48  1  0
 26 49  1  0
 26 50  1  0
 27 51  1  0
 27 52  1  0
 29 53  1  0
 29 54  1  0
 30 55  1  0
 30 56  1  0
 32 57  1  0
 32 58  1  0
 32 59  1  0
M  CHG  1  18  -1
M  END
>  <UniqueID>  (14) 
14

>  <SMILES>  (14) 
Cc1ccccc1NC(=O)c1c(C)[nH]c(C(=O)[N-]c2ccccc2N2CCOCC2)c1C

>  <Energy>  (14) 
109.62525976741938

>  <Genealogy>  (14) 
Cc1ccccc1NC(=O)c1c(C)[nH]c(C(=O)[N-]c2ccccc2N2CCOCC2)c1C (protonated)
Cc1ccccc1NC(=O)c1c(C)[nH]c(C(=O)[N-]c2ccccc2N2CCOCC2)c1C (3D coordinates assigned)
Cc1ccccc1NC(=O)c1c(C)[nH]c(C(=O)[N-]c2ccccc2N2CCOCC2)c1C (nonaromatic ring conformer: 109.62525976741938 kcal/mol)

>  <smiles>  (14) 
Cc1ccccc1NC(=O)c1c(C)[nH]c(C(=O)Nc2ccccc2N2CCOCC2)c1C

>  <score_type>  (14) 
oracle

>  <origin>  (14) 
adgpu

>  <m_score__min__energy>  (14) 
-10.640000000000001

>  <m_primary>  (14) 
energy

$$$$
14:0
     RDKit          3D

 57 60  0  0  0  0  0  0  0  0999 V2000
   -0.5790   21.9120  -34.2090 O   0  0  0  0  0  0  0  0  0  0  0  0
   -0.9370   20.9070  -33.5340 C   0  0  0  0  0  0  0  0  0  0  0  0
   -0.8280   19.5910  -34.0980 N   0  0  0  0  0  0  0  0  0  0  0  0
   -1.8360   18.5700  -34.0600 C   0  0  0  0  0  0  0  0  0  0  0  0
   -1.4490   17.2470  -33.8060 C   0  0  0  0  0  0  0  0  0  0  0  0
   -2.4030   16.2290  -33.7590 C   0  0  0  0  0  0  0  0  0  0  0  0
   -3.7560   16.5280  -33.9340 C   0  0  0  0  0  0  0  0  0  0  0  0
   -4.1630   17.8520  -34.1500 C   0  0  0  0  0  0  0  0  0  0  0  0
   -5.8710   18.2440  -34.3190 S   0  0  0  0  0  0  0  0  0  0  0  0
   -6.6620   16.9690  -34.2130 O   0  0  0  0  0  0  0  0  0  0  0  0
   -6.1140   18.8340  -35.6780 O   0  0  0  0  0  0  0  0  0  0  0  0
   -6.3480   19.3520  -33.0460 N   0  0  0  0  0  0  0  0  0  0  0  0
   -7.7930   19.6560  -33.0700 C   0  0  0  0  0  0  0  0  0  0  0  0
   -8.6380   18.5680  -32.3770 C   0  0  0  0  0  0  0  0  0  0  0  0
   -8.1690   18.3060  -31.0720 O   0  0  0  0  0  0  0  0  0  0  0  0
   -6.8400   17.8270  -31.1330 C   0  0  0  0  0  0  0  0  0  0  0  0
   -5.9050   18.8990  -31.7150 C   0  0  0  0  0  0  0  0  0  0  0  0
   -3.2020   18.8700  -34.2160 C   0  0  0  0  0  0  0  0  0  0  0  0
   -1.4340   21.0850  -32.1500 C   0  0  0  0  0  0  0  0  0  0  0  0
   -0.9240   20.3000  -31.1000 C   0  0  0  0  0  0  0  0  0  0  0  0
   -1.4260   20.4400  -29.8050 C   0  0  0  0  0  0  0  0  0  0  0  0
   -2.4420   21.3640  -29.5430 C   0  0  0  0  0  0  0  0  0  0  0  0
   -2.9510   22.1650  -30.5700 C   0  0  0  0  0  0  0  0  0  0  0  0
   -4.2510   23.3110  -30.2370 S   0  0  0  0  0  0  0  0  0  0  0  0
   -4.4060   23.4740  -28.7490 O   0  0  0  0  0  0  0  0  0  0  0  0
   -3.8810   24.6490  -30.8140 O   0  0  0  0  0  0  0  0  0  0  0  0
   -5.7770   22.7890  -30.9090 N   0  0  0  0  0  0  0  0  0  0  0  0
   -6.2020   23.6840  -32.0010 C   0  0  0  0  0  0  0  0  0  0  0  0
   -7.6690   23.4120  -32.3860 C   0  0  0  0  0  0  0  0  0  0  0  0
   -8.0820   22.1460  -31.9080 O   0  0  0  0  0  0  0  0  0  0  0  0
   -8.1080   22.1450  -30.4880 C   0  0  0  0  0  0  0  0  0  0  0  0
   -6.8140   22.7180  -29.8720 C   0  0  0  0  0  0  0  0  0  0  0  0
   -2.4460   22.0250  -31.8720 C   0  0  0  0  0  0  0  0  0  0  0  0
   -0.3874   17.0095  -33.6428 H   0  0  0  0  0  0  0  0  0  0  0  0
   -2.0886   15.1895  -33.5838 H   0  0  0  0  0  0  0  0  0  0  0  0
   -4.5043   15.7224  -33.9023 H   0  0  0  0  0  0  0  0  0  0  0  0
   -7.9604   20.6136  -32.5553 H   0  0  0  0  0  0  0  0  0  0  0  0
   -8.1070   19.7021  -34.1232 H   0  0  0  0  0  0  0  0  0  0  0  0
   -9.6826   18.9079  -32.3205 H   0  0  0  0  0  0  0  0  0  0  0  0
   -8.5605   17.6419  -32.9655 H   0  0  0  0  0  0  0  0  0  0  0  0
   -6.5031   17.5653  -30.1191 H   0  0  0  0  0  0  0  0  0  0  0  0
   -6.8119   16.9406  -31.7838 H   0  0  0  0  0  0  0  0  0  0  0  0
   -5.8864   19.7624  -31.0336 H   0  0  0  0  0  0  0  0  0  0  0  0
   -4.9038   18.4560  -31.8218 H   0  0  0  0  0  0  0  0  0  0  0  0
   -3.5173   19.9093  -34.3907 H   0  0  0  0  0  0  0  0  0  0  0  0
   -0.1247   19.5714  -31.3006 H   0  0  0  0  0  0  0  0  0  0  0  0
   -1.0216   19.8224  -28.9895 H   0  0  0  0  0  0  0  0  0  0  0  0
   -2.8432   21.4614  -28.5234 H   0  0  0  0  0  0  0  0  0  0  0  0
   -6.1026   24.7287  -31.6714 H   0  0  0  0  0  0  0  0  0  0  0  0
   -5.5652   23.4994  -32.8787 H   0  0  0  0  0  0  0  0  0  0  0  0
   -8.3088   24.1911  -31.9459 H   0  0  0  0  0  0  0  0  0  0  0  0
   -7.7561   23.4231  -33.4825 H   0  0  0  0  0  0  0  0  0  0  0  0
   -8.9592   22.7546  -30.1505 H   0  0  0  0  0  0  0  0  0  0  0  0
   -8.2015   21.1003  -30.1565 H   0  0  0  0  0  0  0  0  0  0  0  0
   -7.0093   23.7259  -29.4771 H   0  0  0  0  0  0  0  0  0  0  0  0
   -6.4743   22.0669  -29.0531 H   0  0  0  0  0  0  0  0  0  0  0  0
   -2.8435   22.6543  -32.6819 H   0  0  0  0  0  0  0  0  0  0  0  0
  1  2  2  0
  2  3  1  0
  3  4  1  0
  4  5  2  0
  5  6  1  0
  6  7  2  0
  7  8  1  0
  8  9  1  0
  9 10  2  0
  9 11  2  0
  9 12  1  0
 12 13  1  0
 13 14  1  0
 14 15  1  0
 15 16  1  0
 16 17  1  0
  8 18  2  0
  2 19  1  0
 19 20  2  0
 20 21  1  0
 21 22  2  0
 22 23  1  0
 23 24  1  0
 24 25  2  0
 24 26  2  0
 24 27  1  0
 27 28  1  0
 28 29  1  0
 29 30  1  0
 30 31  1  0
 31 32  1  0
 23 33  2  0
 18  4  1  0
 33 19  1  0
 17 12  1  0
 32 27  1  0
  5 34  1  0
  6 35  1  0
  7 36  1  0
 13 37  1  0
 13 38  1  0
 14 39  1  0
 14 40  1  0
 16 41  1  0
 16 42  1  0
 17 43  1  0
 17 44  1  0
 18 45  1  0
 20 46  1  0
 21 47  1  0
 22 48  1  0
 28 49  1  0
 28 50  1  0
 29 51  1  0
 29 52  1  0
 31 53  1  0
 31 54  1  0
 32 55  1  0
 32 56  1  0
 33 57  1  0
M  CHG  1   3  -1
M  END
>  <UniqueID>  (15) 
15

>  <SMILES>  (15) 
O=C([N-]c1cccc(S(=O)(=O)N2CCOCC2)c1)c1cccc(S(=O)(=O)N2CCOCC2)c1

>  <Energy>  (15) 
76.17480757945259

>  <Genealogy>  (15) 
O=C([N-]c1cccc(S(=O)(=O)N2CCOCC2)c1)c1cccc(S(=O)(=O)N2CCOCC2)c1 (protonated)
O=C([N-]c1cccc(S(=O)(=O)N2CCOCC2)c1)c1cccc(S(=O)(=O)N2CCOCC2)c1 (3D coordinates assigned)
O=C([N-]c1cccc(S(=O)(=O)N2CCOCC2)c1)c1cccc(S(=O)(=O)N2CCOCC2)c1 (nonaromatic ring conformer: 76.17480757945259 kcal/mol)

>  <smiles>  (15) 
O=C(Nc1cccc(S(=O)(=O)N2CCOCC2)c1)c1cccc(S(=O)(=O)N2CCOCC2)c1

>  <score_type>  (15) 
oracle

>  <origin>  (15) 
adgpu

>  <m_score__min__energy>  (15) 
-11.880000000000001

>  <m_primary>  (15) 
energy

$$$$
15:0
     RDKit          3D

 51 54  0  0  0  0  0  0  0  0999 V2000
    0.6800   14.5040  -32.0690 O   0  0  0  0  0  0  0  0  0  0  0  0
    0.1040   13.5050  -31.5610 C   0  0  0  0  0  0  0  0  0  0  0  0
    0.8180   12.4420  -30.8280 C   0  0  0  0  0  0  0  0  0  0  0  0
   -0.3070   11.4870  -30.4080 C   0  0  0  0  0  0  0  0  0  0  0  0
   -1.5790   11.9330  -31.1510 C   0  0  0  0  0  0  0  0  0  0  0  0
   -1.2840   13.2450  -31.7050 N   0  0  0  0  0  0  0  0  0  0  0  0
   -2.2570   14.1150  -32.3180 C   0  0  0  0  0  0  0  0  0  0  0  0
   -1.8530   15.1680  -33.1570 C   0  0  0  0  0  0  0  0  0  0  0  0
   -2.8010   16.0140  -33.7400 C   0  0  0  0  0  0  0  0  0  0  0  0
   -4.1640   15.8290  -33.4830 C   0  0  0  0  0  0  0  0  0  0  0  0
   -5.3500   16.8840  -34.2490 S   0  0  0  0  0  0  0  0  0  0  0  0
   -4.9930   17.0910  -35.6960 O   0  0  0  0  0  0  0  0  0  0  0  0
   -6.7000   16.2260  -34.1790 O   0  0  0  0  0  0  0  0  0  0  0  0
   -5.3960   18.4190  -33.4190 N   0  0  0  0  0  0  0  0  0  0  0  0
   -6.0650   19.4380  -34.2660 C   0  0  0  0  0  0  0  0  0  0  0  0
   -6.6280   20.6250  -33.4570 C   0  0  0  0  0  0  0  0  0  0  0  0
   -5.9600   20.7360  -32.1550 N   0  0  0  0  0  0  0  0  0  0  0  0
   -5.4260   21.9940  -31.6990 C   0  0  0  0  0  0  0  0  0  0  0  0
   -6.2210   23.1550  -31.7260 C   0  0  0  0  0  0  0  0  0  0  0  0
   -5.6990   24.3790  -31.2960 C   0  0  0  0  0  0  0  0  0  0  0  0
   -4.3790   24.4580  -30.8420 C   0  0  0  0  0  0  0  0  0  0  0  0
   -3.8620   25.6750  -30.4150 O   0  0  0  0  0  0  0  0  0  0  0  0
   -3.5790   23.3120  -30.8210 C   0  0  0  0  0  0  0  0  0  0  0  0
   -4.0970   22.0860  -31.2510 C   0  0  0  0  0  0  0  0  0  0  0  0
   -5.9040   19.5520  -31.2880 C   0  0  0  0  0  0  0  0  0  0  0  0
   -6.0630   18.2650  -32.1120 C   0  0  0  0  0  0  0  0  0  0  0  0
   -4.5740   14.7870  -32.6420 C   0  0  0  0  0  0  0  0  0  0  0  0
   -3.6280   13.9410  -32.0580 C   0  0  0  0  0  0  0  0  0  0  0  0
    1.5441   11.9335  -31.4793 H   0  0  0  0  0  0  0  0  0  0  0  0
    1.4003   12.8228  -29.9760 H   0  0  0  0  0  0  0  0  0  0  0  0
   -0.0494   10.4545  -30.6868 H   0  0  0  0  0  0  0  0  0  0  0  0
   -0.4590   11.5155  -29.3189 H   0  0  0  0  0  0  0  0  0  0  0  0
   -1.8189   11.2236  -31.9567 H   0  0  0  0  0  0  0  0  0  0  0  0
   -2.4470   11.9679  -30.4762 H   0  0  0  0  0  0  0  0  0  0  0  0
   -0.7830   15.3275  -33.3563 H   0  0  0  0  0  0  0  0  0  0  0  0
   -2.4742   16.8283  -34.4034 H   0  0  0  0  0  0  0  0  0  0  0  0
   -4.4020   18.7100  -33.2600 H   0  0  0  0  0  0  0  0  0  0  0  0
   -5.3339   19.8245  -34.9914 H   0  0  0  0  0  0  0  0  0  0  0  0
   -6.9158   18.9457  -34.7598 H   0  0  0  0  0  0  0  0  0  0  0  0
   -6.4692   21.5544  -34.0235 H   0  0  0  0  0  0  0  0  0  0  0  0
   -7.7018   20.4567  -33.2876 H   0  0  0  0  0  0  0  0  0  0  0  0
   -7.2585   23.0993  -32.0873 H   0  0  0  0  0  0  0  0  0  0  0  0
   -6.3280   25.2812  -31.3150 H   0  0  0  0  0  0  0  0  0  0  0  0
   -2.5399   23.3745  -30.4656 H   0  0  0  0  0  0  0  0  0  0  0  0
   -3.4607   21.1888  -31.2385 H   0  0  0  0  0  0  0  0  0  0  0  0
   -4.9344   19.5305  -30.7689 H   0  0  0  0  0  0  0  0  0  0  0  0
   -6.7266   19.6086  -30.5599 H   0  0  0  0  0  0  0  0  0  0  0  0
   -5.6079   17.4247  -31.5672 H   0  0  0  0  0  0  0  0  0  0  0  0
   -7.1332   18.0683  -32.2729 H   0  0  0  0  0  0  0  0  0  0  0  0
   -5.6445   14.6341  -32.4406 H   0  0  0  0  0  0  0  0  0  0  0  0
   -3.9582   13.1323  -31.3894 H   0  0  0  0  0  0  0  0  0  0  0  0
  1  2  2  0
  2  3  1  0
  3  4  1  0
  4  5  1  0
  5  6  1  0
  6  7  1  0
  7  8  2  0
  8  9  1  0
  9 10  2  0
 10 11  1  0
 11 12  2  0
 11 13  2  0
 11 14  1  0
 14 15  1  0
 15 16  1  0
 16 17  1  0
 17 18  1  0
 18 19  2  0
 19 20  1  0
 20 21  2  0
 21 22  1  0
 21 23  1  0
 23 24  2  0
 17 25  1  0
 25 26  1  0
 10 27  1  0
 27 28  2  0
  6  2  1  0
 28  7  1  0
 26 14  1  0
 24 18  1  0
  3 29  1  0
  3 30  1  0
  4 31  1  0
  4 32  1  0
  5 33  1  0
  5 34  1  0
  8 35  1  0
  9 36  1  0
 14 37  1  0
 15 38  1  0
 15 39  1  0
 16 40  1  0
 16 41  1  0
 19 42  1  0
 20 43  1  0
 23 44  1  0
 24 45  1  0
 25 46  1  0
 25 47  1  0
 26 48  1  0
 26 49  1  0
 27 50  1  0
 28 51  1  0
M  CHG  2  14   1  22  -1
M  END
>  <UniqueID>  (16) 
16

>  <SMILES>  (16) 
O=C1CCCN1c1ccc(S(=O)(=O)[NH+]2CCN(c3ccc([O-])cc3)CC2)cc1

>  <Energy>  (16) 
71.80227699498326

>  <Genealogy>  (16) 
O=C1CCCN1c1ccc(S(=O)(=O)[NH+]2CCN(c3ccc([O-])cc3)CC2)cc1 (protonated)
O=C1CCCN1c1ccc(S(=O)(=O)[NH+]2CCN(c3ccc([O-])cc3)CC2)cc1 (3D coordinates assigned)
O=C1CCCN1c1ccc(S(=O)(=O)[NH+]2CCN(c3ccc([O-])cc3)CC2)cc1 (nonaromatic ring conformer: 71.80227699498326 kcal/mol)

>  <smiles>  (16) 
O=C1CCCN1c1ccc(S(=O)(=O)N2CCN(c3ccc(O)cc3)CC2)cc1

>  <score_type>  (16) 
oracle

>  <origin>  (16) 
adgpu

>  <m_score__min__energy>  (16) 
-9.7799999999999994

>  <m_primary>  (16) 
energy

$$$$
16:0
     RDKit          3D

 60 63  0  0  0  0  0  0  0  0999 V2000
   -9.0630   18.5270  -31.1890 C   0  0  0  0  0  0  0  0  0  0  0  0
   -8.2050   19.6050  -31.8920 C   0  0  0  0  0  0  0  0  0  0  0  0
   -8.0470   20.7930  -30.9210 C   0  0  0  0  0  0  0  0  0  0  0  0
   -8.9790   20.0640  -33.1470 C   0  0  0  0  0  0  0  0  0  0  0  0
   -6.8070   19.0940  -32.2980 C   0  0  0  0  0  0  0  0  0  0  0  0
   -6.6130   18.1000  -33.2890 C   0  0  0  0  0  0  0  0  0  0  0  0
   -5.3310   17.6590  -33.6220 C   0  0  0  0  0  0  0  0  0  0  0  0
   -4.2090   18.1870  -32.9760 C   0  0  0  0  0  0  0  0  0  0  0  0
   -2.5940   17.6560  -33.4370 S   0  0  0  0  0  0  0  0  0  0  0  0
   -2.4730   16.1630  -33.3280 O   0  0  0  0  0  0  0  0  0  0  0  0
   -2.3980   18.0400  -34.8770 O   0  0  0  0  0  0  0  0  0  0  0  0
   -1.3370   18.4080  -32.4350 C   0  0  0  0  0  0  0  0  0  0  0  0
   -0.6090   17.5680  -31.5720 C   0  0  0  0  0  0  0  0  0  0  0  0
    0.4130   18.0730  -30.7680 C   0  0  0  0  0  0  0  0  0  0  0  0
    1.2950   17.0040  -29.6930 Cl  0  0  0  0  0  0  0  0  0  0  0  0
    0.7330   19.4250  -30.8210 C   0  0  0  0  0  0  0  0  0  0  0  0
    0.0260   20.2770  -31.6670 C   0  0  0  0  0  0  0  0  0  0  0  0
   -1.0280   19.7990  -32.4660 C   0  0  0  0  0  0  0  0  0  0  0  0
   -1.8820   21.0040  -33.4560 S   0  0  0  0  0  0  0  0  0  0  0  0
   -2.7370   20.3930  -34.5270 O   0  0  0  0  0  0  0  0  0  0  0  0
   -0.8790   21.9240  -34.0950 O   0  0  0  0  0  0  0  0  0  0  0  0
   -2.9550   21.9100  -32.3930 C   0  0  0  0  0  0  0  0  0  0  0  0
   -4.2600   22.2290  -32.7840 C   0  0  0  0  0  0  0  0  0  0  0  0
   -5.0490   23.0510  -31.9760 C   0  0  0  0  0  0  0  0  0  0  0  0
   -4.5360   23.5730  -30.7860 C   0  0  0  0  0  0  0  0  0  0  0  0
   -5.3030   24.4020  -30.0360 F   0  0  0  0  0  0  0  0  0  0  0  0
   -3.2310   23.2520  -30.3860 C   0  0  0  0  0  0  0  0  0  0  0  0
   -2.5510   23.9530  -28.9170 S   0  0  0  0  0  0  0  0  0  0  0  0
   -3.6180   24.1500  -27.8760 O   0  0  0  0  0  0  0  0  0  0  0  0
   -1.9580   25.2930  -29.2450 O   0  0  0  0  0  0  0  0  0  0  0  0
   -1.3110   22.9200  -28.2860 N   0  0  0  0  0  0  0  0  0  0  0  0
   -1.4950   21.5430  -27.9400 C   0  0  0  0  0  0  0  0  0  0  0  0
   -0.4550   20.6310  -27.7730 C   0  0  0  0  0  0  0  0  0  0  0  0
   -1.1430   19.1490  -27.3830 S   0  0  0  0  0  0  0  0  0  0  0  0
   -2.7180   19.7210  -27.4440 C   0  0  0  0  0  0  0  0  0  0  0  0
   -2.7440   21.0330  -27.7600 N   0  0  0  0  0  0  0  0  0  0  0  0
   -2.4520   22.4070  -31.1850 C   0  0  0  0  0  0  0  0  0  0  0  0
   -4.3800   19.1720  -31.9990 C   0  0  0  0  0  0  0  0  0  0  0  0
   -5.6600   19.6090  -31.6540 C   0  0  0  0  0  0  0  0  0  0  0  0
   -8.9729   18.6403  -30.0986 H   0  0  0  0  0  0  0  0  0  0  0  0
  -10.1159   18.6464  -31.4842 H   0  0  0  0  0  0  0  0  0  0  0  0
   -8.7104   17.5277  -31.4842 H   0  0  0  0  0  0  0  0  0  0  0  0
   -8.0955   20.4282  -29.8844 H   0  0  0  0  0  0  0  0  0  0  0  0
   -7.0761   21.2806  -31.0931 H   0  0  0  0  0  0  0  0  0  0  0  0
   -8.8567   21.5174  -31.0931 H   0  0  0  0  0  0  0  0  0  0  0  0
   -9.8877   20.6029  -32.8407 H   0  0  0  0  0  0  0  0  0  0  0  0
   -8.3422   20.7306  -33.7471 H   0  0  0  0  0  0  0  0  0  0  0  0
   -9.2584   19.1855  -33.7471 H   0  0  0  0  0  0  0  0  0  0  0  0
   -7.4850   17.6697  -33.8033 H   0  0  0  0  0  0  0  0  0  0  0  0
   -5.2026   16.8904  -34.3984 H   0  0  0  0  0  0  0  0  0  0  0  0
   -0.8498   16.4955  -31.5307 H   0  0  0  0  0  0  0  0  0  0  0  0
    1.5451   19.8224  -30.1944 H   0  0  0  0  0  0  0  0  0  0  0  0
    0.2970   21.3422  -31.7107 H   0  0  0  0  0  0  0  0  0  0  0  0
   -4.6644   21.8327  -33.7271 H   0  0  0  0  0  0  0  0  0  0  0  0
   -6.0796   23.2886  -32.2782 H   0  0  0  0  0  0  0  0  0  0  0  0
    0.6194   20.8426  -27.8774 H   0  0  0  0  0  0  0  0  0  0  0  0
   -3.6113   19.1085  -27.2520 H   0  0  0  0  0  0  0  0  0  0  0  0
   -1.4374   22.1316  -30.8613 H   0  0  0  0  0  0  0  0  0  0  0  0
   -3.5010   19.6051  -31.4993 H   0  0  0  0  0  0  0  0  0  0  0  0
   -5.7777   20.3680  -30.8665 H   0  0  0  0  0  0  0  0  0  0  0  0
  1  2  1  0
  2  3  1  0
  2  4  1  0
  2  5  1  0
  5  6  2  0
  6  7  1  0
  7  8  2  0
  8  9  1  0
  9 10  2  0
  9 11  2  0
  9 12  1  0
 12 13  2  0
 13 14  1  0
 14 15  1  0
 14 16  2  0
 16 17  1  0
 17 18  2  0
 18 19  1  0
 19 20  2  0
 19 21  2  0
 19 22  1  0
 22 23  2  0
 23 24  1  0
 24 25  2  0
 25 26  1  0
 25 27  1  0
 27 28  1  0
 28 29  2  0
 28 30  2  0
 28 31  1  0
 31 32  1  0
 32 33  2  0
 33 34  1  0
 34 35  1  0
 35 36  2  0
 27 37  2  0
  8 38  1  0
 38 39  2  0
 39  5  1  0
 18 12  1  0
 37 22  1  0
 36 32  1  0
  1 40  1  0
  1 41  1  0
  1 42  1  0
  3 43  1  0
  3 44  1  0
  3 45  1  0
  4 46  1  0
  4 47  1  0
  4 48  1  0
  6 49  1  0
  7 50  1  0
 13 51  1  0
 16 52  1  0
 17 53  1  0
 23 54  1  0
 24 55  1  0
 33 56  1  0
 35 57  1  0
 37 58  1  0
 38 59  1  0
 39 60  1  0
M  CHG  1  31  -1
M  END
>  <UniqueID>  (17) 
17

>  <SMILES>  (17) 
CC(C)(C)c1ccc(S(=O)(=O)c2cc(Cl)ccc2S(=O)(=O)c2ccc(F)c(S(=O)(=O)[N-]c3cscn3)c2)cc1

>  <Energy>  (17) 
104.70079949591437

>  <Genealogy>  (17) 
CC(C)(C)c1ccc(S(=O)(=O)c2cc(Cl)ccc2S(=O)(=O)c2ccc(F)c(S(=O)(=O)[N-]c3cscn3)c2)cc1 (protonated)
CC(C)(C)c1ccc(S(=O)(=O)c2cc(Cl)ccc2S(=O)(=O)c2ccc(F)c(S(=O)(=O)[N-]c3cscn3)c2)cc1 (3D coordinates assigned)
CC(C)(C)c1ccc(S(=O)(=O)c2cc(Cl)ccc2S(=O)(=O)c2ccc(F)c(S(=O)(=O)[N-]c3cscn3)c2)cc1 (optimized conformer: 104.70079949591437 kcal/mol)

>  <smiles>  (17) 
CC(C)(C)c1ccc(S(=O)(=O)c2cc(Cl)ccc2S(=O)(=O)c2ccc(F)c(S(=O)(=O)Nc3cscn3)c2)cc1

>  <score_type>  (17) 
oracle

>  <origin>  (17) 
adgpu

>  <m_score__min__energy>  (17) 
-12.34

>  <m_primary>  (17) 
energy

$$$$
17:0
     RDKit          3D

 85 91  0  0  0  0  0  0  0  0999 V2000
   -8.3647   17.7858  -32.6095 H   0  0  0  0  0  0  0  0  0  0  0  0
   -7.8290   18.6970  -32.3050 C   0  0  0  0  0  0  0  0  0  0  0  0
   -6.5040   18.6390  -32.0100 N   0  0  0  0  0  0  0  0  0  0  0  0
   -5.7970   19.7410  -31.6330 C   0  0  0  0  0  0  0  0  0  0  0  0
   -4.4350   19.6390  -31.3160 O   0  0  0  0  0  0  0  0  0  0  0  0
   -3.3690   20.1890  -32.0440 C   0  0  0  0  0  0  0  0  0  0  0  0
   -2.3810   20.9840  -31.4320 C   0  0  0  0  0  0  0  0  0  0  0  0
   -2.4038   21.1423  -30.3437 H   0  0  0  0  0  0  0  0  0  0  0  0
   -1.3720   21.5730  -32.1980 C   0  0  0  0  0  0  0  0  0  0  0  0
   -0.6022   22.1902  -31.7117 H   0  0  0  0  0  0  0  0  0  0  0  0
   -1.3400   21.3790  -33.5790 C   0  0  0  0  0  0  0  0  0  0  0  0
   -0.5394   21.8360  -34.1791 H   0  0  0  0  0  0  0  0  0  0  0  0
   -2.3220   20.6060  -34.2010 C   0  0  0  0  0  0  0  0  0  0  0  0
   -2.2969   20.4637  -35.2915 H   0  0  0  0  0  0  0  0  0  0  0  0
   -3.3420   20.0090  -33.4420 C   0  0  0  0  0  0  0  0  0  0  0  0
   -4.3870   19.2150  -34.1250 C   0  0  0  0  0  0  0  0  0  0  0  0
   -5.5570   19.6720  -34.2170 O   0  0  0  0  0  0  0  0  0  0  0  0
   -4.1100   17.9060  -34.6410 N   0  0  0  0  0  0  0  0  0  0  0  0
   -4.1100   16.7010  -33.8610 C   0  0  0  0  0  0  0  0  0  0  0  0
   -5.3130   16.0280  -33.5770 C   0  0  0  0  0  0  0  0  0  0  0  0
   -6.2676   16.4391  -33.9372 H   0  0  0  0  0  0  0  0  0  0  0  0
   -5.3020   14.8420  -32.8410 C   0  0  0  0  0  0  0  0  0  0  0  0
   -6.2460   14.3187  -32.6287 H   0  0  0  0  0  0  0  0  0  0  0  0
   -4.0950   14.3190  -32.3740 C   0  0  0  0  0  0  0  0  0  0  0  0
   -4.0881   13.3798  -31.8014 H   0  0  0  0  0  0  0  0  0  0  0  0
   -2.8960   14.9870  -32.6330 C   0  0  0  0  0  0  0  0  0  0  0  0
   -1.9471   14.5704  -32.2641 H   0  0  0  0  0  0  0  0  0  0  0  0
   -2.8950   16.1880  -33.3620 C   0  0  0  0  0  0  0  0  0  0  0  0
   -1.6540   16.8730  -33.6020 N   0  0  0  0  0  0  0  0  0  0  0  0
   -1.1310   16.9800  -34.9690 C   0  0  0  0  0  0  0  0  0  0  0  0
   -1.9702   16.9925  -35.6801 H   0  0  0  0  0  0  0  0  0  0  0  0
   -0.4801   16.1175  -35.1750 H   0  0  0  0  0  0  0  0  0  0  0  0
   -0.3190   18.2700  -35.1200 C   0  0  0  0  0  0  0  0  0  0  0  0
   -0.9853   19.1307  -34.9615 H   0  0  0  0  0  0  0  0  0  0  0  0
    0.1132   18.2855  -36.1314 H   0  0  0  0  0  0  0  0  0  0  0  0
    0.7930   18.3380  -34.1430 N   0  0  0  0  0  0  0  0  0  0  0  0
    1.2970   19.7150  -34.0440 C   0  0  0  0  0  0  0  0  0  0  0  0
    1.3987   19.9929  -32.9846 H   0  0  0  0  0  0  0  0  0  0  0  0
    2.2782   19.7826  -34.5367 H   0  0  0  0  0  0  0  0  0  0  0  0
    0.5913   20.4001  -34.5367 H   0  0  0  0  0  0  0  0  0  0  0  0
    0.4820   17.7790  -32.8000 C   0  0  0  0  0  0  0  0  0  0  0  0
    0.9136   18.4444  -32.0378 H   0  0  0  0  0  0  0  0  0  0  0  0
    0.9124   16.7674  -32.7637 H   0  0  0  0  0  0  0  0  0  0  0  0
   -1.0210   17.6390  -32.5270 C   0  0  0  0  0  0  0  0  0  0  0  0
   -1.4767   18.6388  -32.4745 H   0  0  0  0  0  0  0  0  0  0  0  0
   -1.1679   17.1125  -31.5724 H   0  0  0  0  0  0  0  0  0  0  0  0
   -6.4380   20.9970  -31.5780 C   0  0  0  0  0  0  0  0  0  0  0  0
   -5.7070   22.2280  -31.2020 C   0  0  0  0  0  0  0  0  0  0  0  0
   -4.6760   22.1490  -30.3170 N   0  0  0  0  0  0  0  0  0  0  0  0
   -3.9840   23.2560  -29.9300 C   0  0  0  0  0  0  0  0  0  0  0  0
   -3.0080   23.1690  -29.0790 N   0  0  0  0  0  0  0  0  0  0  0  0
   -2.5690   21.9330  -28.5060 C   0  0  0  0  0  0  0  0  0  0  0  0
   -3.4490   21.1720  -27.7260 C   0  0  0  0  0  0  0  0  0  0  0  0
   -4.4770   21.5244  -27.5557 H   0  0  0  0  0  0  0  0  0  0  0  0
   -3.0230   19.9660  -27.1640 C   0  0  0  0  0  0  0  0  0  0  0  0
   -3.7176   19.3659  -26.5579 H   0  0  0  0  0  0  0  0  0  0  0  0
   -1.7140   19.5220  -27.3720 C   0  0  0  0  0  0  0  0  0  0  0  0
   -1.3798   18.5734  -26.9265 H   0  0  0  0  0  0  0  0  0  0  0  0
   -0.8260   20.2810  -28.1460 C   0  0  0  0  0  0  0  0  0  0  0  0
    0.8300   19.7260  -28.3540 S   0  0  0  0  0  0  0  0  0  0  0  0
    1.1220   19.6210  -29.8240 O   0  0  0  0  0  0  0  0  0  0  0  0
    1.8020   20.6950  -27.7410 O   0  0  0  0  0  0  0  0  0  0  0  0
    0.9870   18.1900  -27.5630 N   0  0  0  0  0  0  0  0  0  0  0  0
    1.0840   16.9250  -28.2270 C   0  0  0  0  0  0  0  0  0  0  0  0
    0.6790   16.7510  -29.5620 C   0  0  0  0  0  0  0  0  0  0  0  0
    0.2685   17.6020  -30.1252 H   0  0  0  0  0  0  0  0  0  0  0  0
    0.7960   15.5000  -30.1770 C   0  0  0  0  0  0  0  0  0  0  0  0
    0.4628   15.3660  -31.2167 H   0  0  0  0  0  0  0  0  0  0  0  0
    1.3360   14.4190  -29.4720 C   0  0  0  0  0  0  0  0  0  0  0  0
    1.4154   13.4328  -29.9528 H   0  0  0  0  0  0  0  0  0  0  0  0
    1.7750   14.5930  -28.1550 C   0  0  0  0  0  0  0  0  0  0  0  0
    2.2145   13.7480  -27.6048 H   0  0  0  0  0  0  0  0  0  0  0  0
    1.6540   15.8450  -27.5380 C   0  0  0  0  0  0  0  0  0  0  0  0
    2.0087   15.9817  -26.5058 H   0  0  0  0  0  0  0  0  0  0  0  0
   -1.2560   21.4890  -28.7130 C   0  0  0  0  0  0  0  0  0  0  0  0
   -0.5624   22.0886  -29.3207 H   0  0  0  0  0  0  0  0  0  0  0  0
   -4.3290   24.4730  -30.4270 N   0  0  0  0  0  0  0  0  0  0  0  0
   -5.3560   24.6030  -31.3050 C   0  0  0  0  0  0  0  0  0  0  0  0
   -5.6213   25.5960  -31.6970 H   0  0  0  0  0  0  0  0  0  0  0  0
   -6.0740   23.4810  -31.7100 C   0  0  0  0  0  0  0  0  0  0  0  0
   -6.9130   23.5765  -32.4150 H   0  0  0  0  0  0  0  0  0  0  0  0
   -7.8130   21.0630  -31.8560 C   0  0  0  0  0  0  0  0  0  0  0  0
   -8.3412   22.0253  -31.7849 H   0  0  0  0  0  0  0  0  0  0  0  0
   -8.5110   19.9120  -32.2220 C   0  0  0  0  0  0  0  0  0  0  0  0
   -9.5875   19.9614  -32.4429 H   0  0  0  0  0  0  0  0  0  0  0  0
  1  2  1  0
  2  3  2  0
  3  4  1  0
  4  5  1  0
  5  6  1  0
  6  7  2  0
  7  8  1  0
  7  9  1  0
  9 10  1  0
  9 11  2  0
 11 12  1  0
 11 13  1  0
 13 14  1  0
 13 15  2  0
 15 16  1  0
 16 17  2  0
 16 18  1  0
 18 19  1  0
 19 20  2  0
 20 21  1  0
 20 22  1  0
 22 23  1  0
 22 24  2  0
 24 25  1  0
 24 26  1  0
 26 27  1  0
 26 28  2  0
 28 29  1  0
 29 30  1  0
 30 31  1  0
 30 32  1  0
 30 33  1  0
 33 34  1  0
 33 35  1  0
 33 36  1  0
 36 37  1  0
 37 38  1  0
 37 39  1  0
 37 40  1  0
 36 41  1  0
 41 42  1  0
 41 43  1  0
 41 44  1  0
 44 45  1  0
 44 46  1  0
  4 47  2  0
 47 48  1  0
 48 49  2  0
 49 50  1  0
 50 51  2  0
 51 52  1  0
 52 53  2  0
 53 54  1  0
 53 55  1  0
 55 56  1  0
 55 57  2  0
 57 58  1  0
 57 59  1  0
 59 60  1  0
 60 61  2  0
 60 62  2  0
 60 63  1  0
 63 64  1  0
 64 65  2  0
 65 66  1  0
 65 67  1  0
 67 68  1  0
 67 69  2  0
 69 70  1  0
 69 71  1  0
 71 72  1  0
 71 73  2  0
 73 74  1  0
 59 75  2  0
 75 76  1  0
 50 77  1  0
 77 78  1  0
 78 79  1  0
 78 80  2  0
 80 81  1  0
 47 82  1  0
 82 83  1  0
 82 84  2  0
 84 85  1  0
 84  2  1  0
 15  6  1  0
 28 19  1  0
 44 29  1  0
 80 48  1  0
 75 52  1  0
 73 64  1  0
M  CHG  3  18  -1  63  -1  77  -1
M  END
>  <UniqueID>  (18) 
18

>  <SMILES>  (18) 
CN1CCN(c2ccccc2[N-]C(=O)c2ccccc2Oc2ncccc2-c2cc[n-]/c(=N/c3cccc(S(=O)(=O)[N-]c4ccccc4)c3)n2)CC1

>  <Energy>  (18) 
142.11234638472968

>  <Genealogy>  (18) 
CN1CCN(c2ccccc2[N-]C(=O)c2ccccc2Oc2ncccc2-c2cc[n-]c(=Nc3cccc(S(=O)(=O)[N-]c4ccccc4)c3)n2)CC1 (protonated)
CN1CCN(c2ccccc2[N-]C(=O)c2ccccc2Oc2ncccc2-c2cc[n-]/c(=N/c3cccc(S(=O)(=O)[N-]c4ccccc4)c3)n2)CC1 (cis-trans isomerization)
CN1CCN(c2ccccc2[N-]C(=O)c2ccccc2Oc2ncccc2-c2cc[n-]/c(=N/c3cccc(S(=O)(=O)[N-]c4ccccc4)c3)n2)CC1 (3D coordinates assigned)
CN1CCN(c2ccccc2[N-]C(=O)c2ccccc2Oc2ncccc2-c2cc[n-]/c(=N/c3cccc(S(=O)(=O)[N-]c4ccccc4)c3)n2)CC1 (nonaromatic ring conformer: 142.11234638472968 kcal/mol)

>  <smiles>  (18) 
CN1CCN(c2ccccc2NC(=O)c2ccccc2Oc2ncccc2-c2cc[nH]c(=Nc3cccc(S(=O)(=O)Nc4ccccc4)c3)n2)CC1

>  <score_type>  (18) 
oracle

>  <origin>  (18) 
adgpu

>  <m_score__min__energy>  (18) 
-13.01

>  <m_primary>  (18) 
energy

$$$$
18:0
     RDKit          3D

 41 43  0  0  0  0  0  0  0  0999 V2000
   -3.0490   21.4420  -33.8820 H   0  0  0  0  0  0  0  0  0  0  0  0
   -3.5910   20.5520  -33.8430 N   0  0  0  0  0  0  0  0  0  0  0  0
   -4.7730   20.3920  -33.3120 C   0  0  0  0  0  0  0  0  0  0  0  0
   -5.3750   19.1590  -33.4070 N   0  0  0  0  0  0  0  0  0  0  0  0
   -4.6460   18.0270  -34.0120 C   0  0  0  0  0  0  0  0  0  0  0  0
   -4.2348   17.3884  -33.2163 H   0  0  0  0  0  0  0  0  0  0  0  0
   -5.3351   17.4382  -34.6353 H   0  0  0  0  0  0  0  0  0  0  0  0
   -3.8249   18.4108  -34.6353 H   0  0  0  0  0  0  0  0  0  0  0  0
   -6.6780   18.9940  -33.0240 C   0  0  0  0  0  0  0  0  0  0  0  0
   -7.2370   17.8680  -33.1500 O   0  0  0  0  0  0  0  0  0  0  0  0
   -7.4070   20.0740  -32.5180 C   0  0  0  0  0  0  0  0  0  0  0  0
   -8.7650   19.9320  -32.1650 C   0  0  0  0  0  0  0  0  0  0  0  0
   -9.2524   18.9500  -32.2553 H   0  0  0  0  0  0  0  0  0  0  0  0
   -9.4940   21.0250  -31.7030 C   0  0  0  0  0  0  0  0  0  0  0  0
  -10.5496   20.9023  -31.4190 H   0  0  0  0  0  0  0  0  0  0  0  0
   -8.8860   22.2720  -31.6010 C   0  0  0  0  0  0  0  0  0  0  0  0
   -9.4680   23.1382  -31.2531 H   0  0  0  0  0  0  0  0  0  0  0  0
   -7.5410   22.4290  -31.9380 C   0  0  0  0  0  0  0  0  0  0  0  0
   -7.0761   23.4232  -31.8640 H   0  0  0  0  0  0  0  0  0  0  0  0
   -6.7640   21.3240  -32.3750 C   0  0  0  0  0  0  0  0  0  0  0  0
   -5.4250   21.4450  -32.6940 N   0  0  0  0  0  0  0  0  0  0  0  0
   -4.6730   22.6750  -32.3360 C   0  0  0  0  0  0  0  0  0  0  0  0
   -3.7045   22.6553  -32.8571 H   0  0  0  0  0  0  0  0  0  0  0  0
   -5.2916   23.5327  -32.6388 H   0  0  0  0  0  0  0  0  0  0  0  0
   -4.4140   22.8140  -30.8420 C   0  0  0  0  0  0  0  0  0  0  0  0
   -3.7030   21.8240  -30.1290 C   0  0  0  0  0  0  0  0  0  0  0  0
   -3.3288   20.9370  -30.6612 H   0  0  0  0  0  0  0  0  0  0  0  0
   -3.4670   21.9540  -28.7550 C   0  0  0  0  0  0  0  0  0  0  0  0
   -2.6790   20.9060  -28.0230 C   0  0  0  0  0  0  0  0  0  0  0  0
   -2.7904   21.0542  -26.9387 H   0  0  0  0  0  0  0  0  0  0  0  0
   -3.0525   19.9083  -28.2970 H   0  0  0  0  0  0  0  0  0  0  0  0
   -1.6168   20.9878  -28.2970 H   0  0  0  0  0  0  0  0  0  0  0  0
   -3.9090   23.0970  -28.0830 C   0  0  0  0  0  0  0  0  0  0  0  0
   -3.7070   23.2129  -27.0079 H   0  0  0  0  0  0  0  0  0  0  0  0
   -4.6050   24.0910  -28.7700 C   0  0  0  0  0  0  0  0  0  0  0  0
   -4.9590   24.9807  -28.2287 H   0  0  0  0  0  0  0  0  0  0  0  0
   -4.8590   23.9680  -30.1470 C   0  0  0  0  0  0  0  0  0  0  0  0
   -5.6190   25.0660  -30.8460 C   0  0  0  0  0  0  0  0  0  0  0  0
   -6.0776   25.7286  -30.0972 H   0  0  0  0  0  0  0  0  0  0  0  0
   -4.9285   25.6465  -31.4755 H   0  0  0  0  0  0  0  0  0  0  0  0
   -6.4055   24.6242  -31.4755 H   0  0  0  0  0  0  0  0  0  0  0  0
  1  2  1  0
  2  3  2  0
  3  4  1  0
  4  5  1  0
  5  6  1  0
  5  7  1  0
  5  8  1  0
  4  9  1  0
  9 10  2  0
  9 11  1  0
 11 12  2  0
 12 13  1  0
 12 14  1  0
 14 15  1  0
 14 16  2  0
 16 17  1  0
 16 18  1  0
 18 19  1  0
 18 20  2  0
 20 21  1  0
 21 22  1  0
 22 23  1  0
 22 24  1  0
 22 25  1  0
 25 26  2  0
 26 27  1  0
 26 28  1  0
 28 29  1  0
 29 30  1  0
 29 31  1  0
 29 32  1  0
 28 33  2  0
 33 34  1  0
 33 35  1  0
 35 36  1  0
 35 37  2  0
 37 38  1  0
 38 39  1  0
 38 40  1  0
 38 41  1  0
 21  3  1  0
 37 25  1  0
 20 11  1  0
M  END
>  <UniqueID>  (19) 
19

>  <SMILES>  (19) 
[H]/N=c1/n(C)c(=O)c2ccccc2n1Cc1cc(C)ccc1C

>  <Energy>  (19) 
65.72553484258039

>  <Genealogy>  (19) 
[H]/N=c1/n(C)c(=O)c2ccccc2n1Cc1cc(C)ccc1C (cis-trans isomerization)
[H]/N=c1/n(C)c(=O)c2ccccc2n1Cc1cc(C)ccc1C (3D coordinates assigned)
[H]/N=c1/n(C)c(=O)c2ccccc2n1Cc1cc(C)ccc1C (optimized conformer: 65.72553484258039 kcal/mol)

>  <smiles>  (19) 
Cc1ccc(C)c(Cn2c(=N)n(C)c(=O)c3ccccc32)c1

>  <score_type>  (19) 
oracle

>  <origin>  (19) 
adgpu

>  <m_score__min__energy>  (19) 
-7.9900000000000002

>  <m_primary>  (19) 
energy

$$$$
19:0
     RDKit          3D

 54 57  0  0  0  0  0  0  0  0999 V2000
   -8.7820   19.9730  -32.0790 C   0  0  0  0  0  0  0  0  0  0  0  0
   -7.8290   19.9640  -33.1390 O   0  0  0  0  0  0  0  0  0  0  0  0
   -6.4790   20.3190  -32.9950 C   0  0  0  0  0  0  0  0  0  0  0  0
   -6.0760   21.4500  -32.2600 C   0  0  0  0  0  0  0  0  0  0  0  0
   -4.7130   21.7570  -32.1070 C   0  0  0  0  0  0  0  0  0  0  0  0
   -4.2790   22.9310  -31.3190 C   0  0  0  0  0  0  0  0  0  0  0  0
   -4.7570   24.1730  -31.5350 N   0  0  0  0  0  0  0  0  0  0  0  0
   -4.2360   24.9940  -30.6350 N   0  0  0  0  0  0  0  0  0  0  0  0
   -3.4070   24.2890  -29.8430 C   0  0  0  0  0  0  0  0  0  0  0  0
   -2.6620   24.8920  -28.7250 C   0  0  0  0  0  0  0  0  0  0  0  0
   -2.9450   24.5460  -27.5480 O   0  0  0  0  0  0  0  0  0  0  0  0
   -1.6210   25.8510  -28.9340 N   0  0  0  0  0  0  0  0  0  0  0  0
   -0.5620   26.1320  -27.9710 C   0  0  0  0  0  0  0  0  0  0  0  0
    0.0380   24.8460  -27.5110 C   0  0  0  0  0  0  0  0  0  0  0  0
   -0.2370   24.2090  -26.3190 C   0  0  0  0  0  0  0  0  0  0  0  0
    0.5630   23.0890  -26.3040 C   0  0  0  0  0  0  0  0  0  0  0  0
    1.2780   23.1140  -27.4850 C   0  0  0  0  0  0  0  0  0  0  0  0
    0.9450   24.1750  -28.1820 O   0  0  0  0  0  0  0  0  0  0  0  0
   -3.4080   22.9590  -30.2380 C   0  0  0  0  0  0  0  0  0  0  0  0
   -2.6530   21.8340  -29.6370 C   0  0  0  0  0  0  0  0  0  0  0  0
   -1.6110   21.2230  -30.3480 C   0  0  0  0  0  0  0  0  0  0  0  0
   -0.8970   20.1670  -29.7860 C   0  0  0  0  0  0  0  0  0  0  0  0
   -1.2040   19.7070  -28.4920 C   0  0  0  0  0  0  0  0  0  0  0  0
   -0.5030   18.6520  -27.8890 O   0  0  0  0  0  0  0  0  0  0  0  0
    0.6190   17.9940  -28.4710 C   0  0  0  0  0  0  0  0  0  0  0  0
   -2.2390   20.3200  -27.7670 C   0  0  0  0  0  0  0  0  0  0  0  0
   -2.5160   19.8500  -26.4730 O   0  0  0  0  0  0  0  0  0  0  0  0
   -3.2950   18.6940  -26.1850 C   0  0  0  0  0  0  0  0  0  0  0  0
   -2.9630   21.3790  -28.3480 C   0  0  0  0  0  0  0  0  0  0  0  0
   -3.7550   20.9530  -32.7400 C   0  0  0  0  0  0  0  0  0  0  0  0
   -4.1490   19.8360  -33.4800 C   0  0  0  0  0  0  0  0  0  0  0  0
   -5.5070   19.5140  -33.6040 C   0  0  0  0  0  0  0  0  0  0  0  0
   -5.8980   18.3920  -34.3330 O   0  0  0  0  0  0  0  0  0  0  0  0
   -8.2560   19.9680  -31.1129 H   0  0  0  0  0  0  0  0  0  0  0  0
   -9.4042   20.8771  -32.1530 H   0  0  0  0  0  0  0  0  0  0  0  0
   -9.4212   19.0809  -32.1530 H   0  0  0  0  0  0  0  0  0  0  0  0
   -6.8354   22.1000  -31.8008 H   0  0  0  0  0  0  0  0  0  0  0  0
    0.2135   26.7501  -28.4471 H   0  0  0  0  0  0  0  0  0  0  0  0
   -0.9805   26.6731  -27.1095 H   0  0  0  0  0  0  0  0  0  0  0  0
   -0.9473   24.5291  -25.5425 H   0  0  0  0  0  0  0  0  0  0  0  0
    0.6210   22.3282  -25.5117 H   0  0  0  0  0  0  0  0  0  0  0  0
    2.0153   22.3588  -27.7948 H   0  0  0  0  0  0  0  0  0  0  0  0
   -1.3553   21.5797  -31.3566 H   0  0  0  0  0  0  0  0  0  0  0  0
   -0.0876   19.6894  -30.3577 H   0  0  0  0  0  0  0  0  0  0  0  0
    1.2731   17.6104  -27.6741 H   0  0  0  0  0  0  0  0  0  0  0  0
    0.2707   17.1571  -29.0941 H   0  0  0  0  0  0  0  0  0  0  0  0
    1.1794   18.7066  -29.0941 H   0  0  0  0  0  0  0  0  0  0  0  0
   -3.3784   18.5702  -25.0952 H   0  0  0  0  0  0  0  0  0  0  0  0
   -4.2991   18.8111  -26.6186 H   0  0  0  0  0  0  0  0  0  0  0  0
   -2.8095   17.8073  -26.6186 H   0  0  0  0  0  0  0  0  0  0  0  0
   -3.7799   21.8538  -27.7847 H   0  0  0  0  0  0  0  0  0  0  0  0
   -2.6873   21.2031  -32.6535 H   0  0  0  0  0  0  0  0  0  0  0  0
   -3.3901   19.2064  -33.9675 H   0  0  0  0  0  0  0  0  0  0  0  0
   -6.8590   18.2500  -34.6170 H   0  0  0  0  0  0  0  0  0  0  0  0
  1  2  1  0
  2  3  1  0
  3  4  2  0
  4  5  1  0
  5  6  1  0
  6  7  1  0
  7  8  1  0
  8  9  2  0
  9 10  1  0
 10 11  2  0
 10 12  1  0
 12 13  1  0
 13 14  1  0
 14 15  2  0
 15 16  1  0
 16 17  2  0
 17 18  1  0
  9 19  1  0
 19 20  1  0
 20 21  2  0
 21 22  1  0
 22 23  2  0
 23 24  1  0
 24 25  1  0
 23 26  1  0
 26 27  1  0
 27 28  1  0
 26 29  2  0
  5 30  2  0
 30 31  1  0
 31 32  2  0
 32 33  1  0
 32  3  1  0
 19  6  2  0
 29 20  1  0
 18 14  1  0
  1 34  1  0
  1 35  1  0
  1 36  1  0
  4 37  1  0
 13 38  1  0
 13 39  1  0
 15 40  1  0
 16 41  1  0
 17 42  1  0
 21 43  1  0
 22 44  1  0
 25 45  1  0
 25 46  1  0
 25 47  1  0
 28 48  1  0
 28 49  1  0
 28 50  1  0
 29 51  1  0
 30 52  1  0
 31 53  1  0
 33 54  1  0
M  CHG  2   7  -1  12  -1
M  END
>  <UniqueID>  (20) 
20

>  <SMILES>  (20) 
COc1cc(-c2[n-]nc(C(=O)[N-]Cc3ccco3)c2-c2ccc(OC)c(OC)c2)ccc1O

>  <Energy>  (20) 
120.27945019973733

>  <Genealogy>  (20) 
COc1cc(-c2[n-]nc(C(=O)[N-]Cc3ccco3)c2-c2ccc(OC)c(OC)c2)ccc1O (protonated)
COc1cc(-c2[n-]nc(C(=O)[N-]Cc3ccco3)c2-c2ccc(OC)c(OC)c2)ccc1O (3D coordinates assigned)
COc1cc(-c2[n-]nc(C(=O)[N-]Cc3ccco3)c2-c2ccc(OC)c(OC)c2)ccc1O (optimized conformer: 120.27945019973733 kcal/mol)

>  <smiles>  (20) 
COc1cc(-c2[nH]nc(C(=O)NCc3ccco3)c2-c2ccc(OC)c(OC)c2)ccc1O

>  <score_type>  (20) 
oracle

>  <origin>  (20) 
adgpu

>  <m_score__min__energy>  (20) 
-11

>  <m_primary>  (20) 
energy

$$$$
20:0
     RDKit          3D

 45 47  0  0  0  0  0  0  0  0999 V2000
   -5.8640   25.5080  -31.0910 O   0  0  0  0  0  0  0  0  0  0  0  0
   -5.0910   24.4110  -30.4140 S   0  0  0  0  0  0  0  0  0  0  0  0
   -5.6910   24.1650  -29.0580 O   0  0  0  0  0  0  0  0  0  0  0  0
   -3.4400   24.9140  -30.2170 N   0  0  0  0  0  0  0  0  0  0  0  0
   -2.5300   24.3370  -29.2590 C   0  0  0  0  0  0  0  0  0  0  0  0
   -2.7110   23.0310  -28.7640 C   0  0  0  0  0  0  0  0  0  0  0  0
   -1.8110   22.4810  -27.8410 C   0  0  0  0  0  0  0  0  0  0  0  0
   -2.0350   20.8280  -27.2610 S   0  0  0  0  0  0  0  0  0  0  0  0
   -1.5820   20.7400  -25.8300 O   0  0  0  0  0  0  0  0  0  0  0  0
   -3.4960   20.4790  -27.3090 O   0  0  0  0  0  0  0  0  0  0  0  0
   -1.1400   19.6820  -28.2340 N   0  0  0  0  0  0  0  0  0  0  0  0
   -0.0010   20.3290  -28.9320 C   0  0  0  0  0  0  0  0  0  0  0  0
    1.3540   20.0270  -28.2750 C   0  0  0  0  0  0  0  0  0  0  0  0
    1.6230   18.5140  -28.2200 C   0  0  0  0  0  0  0  0  0  0  0  0
    0.3330   17.6830  -28.0960 C   0  0  0  0  0  0  0  0  0  0  0  0
   -0.7800   18.4960  -27.4280 C   0  0  0  0  0  0  0  0  0  0  0  0
   -0.7290   23.2470  -27.3900 C   0  0  0  0  0  0  0  0  0  0  0  0
   -0.5400   24.5440  -27.8700 C   0  0  0  0  0  0  0  0  0  0  0  0
   -1.4290   25.0890  -28.8010 C   0  0  0  0  0  0  0  0  0  0  0  0
   -1.2130   26.3820  -29.2650 O   0  0  0  0  0  0  0  0  0  0  0  0
   -5.1550   22.9680  -31.4270 C   0  0  0  0  0  0  0  0  0  0  0  0
   -3.9550   22.3520  -31.8080 C   0  0  0  0  0  0  0  0  0  0  0  0
   -3.9720   21.2090  -32.6120 C   0  0  0  0  0  0  0  0  0  0  0  0
   -5.1890   20.6680  -33.0340 C   0  0  0  0  0  0  0  0  0  0  0  0
   -6.3900   21.2750  -32.6570 C   0  0  0  0  0  0  0  0  0  0  0  0
   -6.3790   22.4240  -31.8590 C   0  0  0  0  0  0  0  0  0  0  0  0
   -7.5590   22.9970  -31.5160 F   0  0  0  0  0  0  0  0  0  0  0  0
   -3.1060   25.6680  -30.8560 H   0  0  0  0  0  0  0  0  0  0  0  0
   -3.5698   22.4349  -29.1062 H   0  0  0  0  0  0  0  0  0  0  0  0
    0.0246   19.9678  -29.9707 H   0  0  0  0  0  0  0  0  0  0  0  0
   -0.1574   21.4166  -28.8796 H   0  0  0  0  0  0  0  0  0  0  0  0
    2.1509   20.5117  -28.8580 H   0  0  0  0  0  0  0  0  0  0  0  0
    1.3348   20.4140  -27.2455 H   0  0  0  0  0  0  0  0  0  0  0  0
    2.1458   18.2162  -29.1409 H   0  0  0  0  0  0  0  0  0  0  0  0
    2.2307   18.3179  -27.3243 H   0  0  0  0  0  0  0  0  0  0  0  0
    0.0031   17.3784  -29.1002 H   0  0  0  0  0  0  0  0  0  0  0  0
    0.5430   16.7993  -27.4755 H   0  0  0  0  0  0  0  0  0  0  0  0
   -1.6689   17.8584  -27.3127 H   0  0  0  0  0  0  0  0  0  0  0  0
   -0.4168   18.8405  -26.4485 H   0  0  0  0  0  0  0  0  0  0  0  0
   -0.0265   22.8257  -26.6559 H   0  0  0  0  0  0  0  0  0  0  0  0
    0.3129   25.1404  -27.5138 H   0  0  0  0  0  0  0  0  0  0  0  0
   -2.9947   22.7705  -31.4724 H   0  0  0  0  0  0  0  0  0  0  0  0
   -3.0262   20.7348  -32.9129 H   0  0  0  0  0  0  0  0  0  0  0  0
   -5.2019   19.7652  -33.6623 H   0  0  0  0  0  0  0  0  0  0  0  0
   -7.3477   20.8477  -32.9890 H   0  0  0  0  0  0  0  0  0  0  0  0
  1  2  2  0
  2  3  2  0
  2  4  1  0
  4  5  1  0
  5  6  2  0
  6  7  1  0
  7  8  1  0
  8  9  2  0
  8 10  2  0
  8 11  1  0
 11 12  1  0
 12 13  1  0
 13 14  1  0
 14 15  1  0
 15 16  1  0
  7 17  2  0
 17 18  1  0
 18 19  2  0
 19 20  1  0
  2 21  1  0
 21 22  2  0
 22 23  1  0
 23 24  2  0
 24 25  1  0
 25 26  2  0
 26 27  1  0
 19  5  1  0
 26 21  1  0
 16 11  1  0
  4 28  1  0
  6 29  1  0
 12 30  1  0
 12 31  1  0
 13 32  1  0
 13 33  1  0
 14 34  1  0
 14 35  1  0
 15 36  1  0
 15 37  1  0
 16 38  1  0
 16 39  1  0
 17 40  1  0
 18 41  1  0
 22 42  1  0
 23 43  1  0
 24 44  1  0
 25 45  1  0
M  CHG  1  20  -1
M  END
>  <UniqueID>  (21) 
21

>  <SMILES>  (21) 
O=S(=O)(Nc1cc(S(=O)(=O)N2CCCCC2)ccc1[O-])c1ccccc1F

>  <Energy>  (21) 
52.09122861122836

>  <Genealogy>  (21) 
O=S(=O)(Nc1cc(S(=O)(=O)N2CCCCC2)ccc1[O-])c1ccccc1F (protonated)
O=S(=O)(Nc1cc(S(=O)(=O)N2CCCCC2)ccc1[O-])c1ccccc1F (3D coordinates assigned)
O=S(=O)(Nc1cc(S(=O)(=O)N2CCCCC2)ccc1[O-])c1ccccc1F (nonaromatic ring conformer: 52.09122861122836 kcal/mol)

>  <smiles>  (21) 
O=S(=O)(Nc1cc(S(=O)(=O)N2CCCCC2)ccc1O)c1ccccc1F

>  <score_type>  (21) 
oracle

>  <origin>  (21) 
adgpu

>  <m_score__min__energy>  (21) 
-12.380000000000001

>  <m_primary>  (21) 
energy

$$$$
21:0
     RDKit          3D

 41 43  0  0  0  0  0  0  0  0999 V2000
   -7.5900   22.7390  -29.7880 C   0  0  0  0  0  0  0  0  0  0  0  0
   -7.7470   21.8160  -30.9650 C   0  0  0  0  0  0  0  0  0  0  0  0
   -8.9860   21.1760  -31.1580 C   0  0  0  0  0  0  0  0  0  0  0  0
   -9.1700   20.2870  -32.2170 C   0  0  0  0  0  0  0  0  0  0  0  0
   -8.1250   20.0260  -33.1000 C   0  0  0  0  0  0  0  0  0  0  0  0
   -6.8990   20.6730  -32.9420 C   0  0  0  0  0  0  0  0  0  0  0  0
   -6.7000   21.5870  -31.8940 C   0  0  0  0  0  0  0  0  0  0  0  0
   -5.1320   22.4110  -31.7990 S   0  0  0  0  0  0  0  0  0  0  0  0
   -4.5010   22.1960  -30.4540 O   0  0  0  0  0  0  0  0  0  0  0  0
   -5.3450   23.8900  -31.9620 O   0  0  0  0  0  0  0  0  0  0  0  0
   -4.1020   21.8630  -33.0860 N   0  0  0  0  0  0  0  0  0  0  0  0
   -2.8990   21.1020  -32.8900 C   0  0  0  0  0  0  0  0  0  0  0  0
   -1.8310   21.6130  -32.1310 C   0  0  0  0  0  0  0  0  0  0  0  0
   -0.6420   20.8900  -32.0050 C   0  0  0  0  0  0  0  0  0  0  0  0
   -0.4920   19.6660  -32.6590 C   0  0  0  0  0  0  0  0  0  0  0  0
   -1.5320   19.1640  -33.4430 C   0  0  0  0  0  0  0  0  0  0  0  0
   -2.7330   19.8700  -33.5590 C   0  0  0  0  0  0  0  0  0  0  0  0
   -3.7570   19.3450  -34.3530 O   0  0  0  0  0  0  0  0  0  0  0  0
   -4.7260   18.4500  -33.8780 C   0  0  0  0  0  0  0  0  0  0  0  0
   -5.5640   17.7310  -34.7510 C   0  0  0  0  0  0  0  0  0  0  0  0
   -6.5440   16.8770  -34.2370 C   0  0  0  0  0  0  0  0  0  0  0  0
   -6.6770   16.7130  -32.8560 C   0  0  0  0  0  0  0  0  0  0  0  0
   -5.8430   17.4190  -31.9850 C   0  0  0  0  0  0  0  0  0  0  0  0
   -4.8770   18.2910  -32.4960 C   0  0  0  0  0  0  0  0  0  0  0  0
   -7.6878   22.1639  -28.8554 H   0  0  0  0  0  0  0  0  0  0  0  0
   -6.5982   23.2135  -29.8239 H   0  0  0  0  0  0  0  0  0  0  0  0
   -8.3691   23.5147  -29.8239 H   0  0  0  0  0  0  0  0  0  0  0  0
   -9.8173   21.3790  -30.4668 H   0  0  0  0  0  0  0  0  0  0  0  0
  -10.1422   19.7912  -32.3550 H   0  0  0  0  0  0  0  0  0  0  0  0
   -8.2663   19.3093  -33.9224 H   0  0  0  0  0  0  0  0  0  0  0  0
   -6.0794   20.4651  -33.6456 H   0  0  0  0  0  0  0  0  0  0  0  0
   -4.5100   21.9090  -34.0460 H   0  0  0  0  0  0  0  0  0  0  0  0
   -1.9324   22.5886  -31.6331 H   0  0  0  0  0  0  0  0  0  0  0  0
    0.1782   21.2866  -31.3886 H   0  0  0  0  0  0  0  0  0  0  0  0
    0.4444   19.0979  -32.5567 H   0  0  0  0  0  0  0  0  0  0  0  0
   -1.4059   18.2080  -33.9723 H   0  0  0  0  0  0  0  0  0  0  0  0
   -5.4475   17.8413  -35.8392 H   0  0  0  0  0  0  0  0  0  0  0  0
   -7.2118   16.3330  -34.9212 H   0  0  0  0  0  0  0  0  0  0  0  0
   -7.4383   16.0281  -32.4543 H   0  0  0  0  0  0  0  0  0  0  0  0
   -5.9465   17.2887  -30.8977 H   0  0  0  0  0  0  0  0  0  0  0  0
   -4.2315   18.8557  -31.8072 H   0  0  0  0  0  0  0  0  0  0  0  0
  1  2  1  0
  2  3  2  0
  3  4  1  0
  4  5  2  0
  5  6  1  0
  6  7  2  0
  7  8  1  0
  8  9  2  0
  8 10  2  0
  8 11  1  0
 11 12  1  0
 12 13  2  0
 13 14  1  0
 14 15  2  0
 15 16  1  0
 16 17  2  0
 17 18  1  0
 18 19  1  0
 19 20  2  0
 20 21  1  0
 21 22  2  0
 22 23  1  0
 23 24  2  0
  7  2  1  0
 17 12  1  0
 24 19  1  0
  1 25  1  0
  1 26  1  0
  1 27  1  0
  3 28  1  0
  4 29  1  0
  5 30  1  0
  6 31  1  0
 11 32  1  0
 13 33  1  0
 14 34  1  0
 15 35  1  0
 16 36  1  0
 20 37  1  0
 21 38  1  0
 22 39  1  0
 23 40  1  0
 24 41  1  0
M  END
>  <UniqueID>  (22) 
22

>  <SMILES>  (22) 
Cc1ccccc1S(=O)(=O)Nc1ccccc1Oc1ccccc1

>  <Energy>  (22) 
56.30301820123713

>  <Genealogy>  (22) 
Cc1ccccc1S(=O)(=O)Nc1ccccc1Oc1ccccc1 (3D coordinates assigned)
Cc1ccccc1S(=O)(=O)Nc1ccccc1Oc1ccccc1 (optimized conformer: 56.30301820123713 kcal/mol)

>  <smiles>  (22) 
Cc1ccccc1S(=O)(=O)Nc1ccccc1Oc1ccccc1

>  <score_type>  (22) 
oracle

>  <origin>  (22) 
adgpu

>  <m_score__min__energy>  (22) 
-9.0999999999999996

>  <m_primary>  (22) 
energy

$$$$
22:0
     RDKit          3D

 33 34  0  0  0  0  0  0  0  0999 V2000
   -3.8680   25.5680  -30.8470 N   0  0  0  0  0  0  0  0  0  0  0  0
   -5.1900   24.9310  -29.9340 S   0  0  0  0  0  0  0  0  0  0  0  0
   -6.2440   25.9910  -29.7750 O   0  0  0  0  0  0  0  0  0  0  0  0
   -4.7080   24.5230  -28.5700 O   0  0  0  0  0  0  0  0  0  0  0  0
   -5.8650   23.5360  -30.7690 C   0  0  0  0  0  0  0  0  0  0  0  0
   -7.2440   23.4450  -30.9920 C   0  0  0  0  0  0  0  0  0  0  0  0
   -7.7770   22.3420  -31.6640 C   0  0  0  0  0  0  0  0  0  0  0  0
   -6.9400   21.3130  -32.1250 C   0  0  0  0  0  0  0  0  0  0  0  0
   -7.5230   20.1880  -32.8060 N   0  0  0  0  0  0  0  0  0  0  0  0
   -7.3230   18.5400  -32.3030 S   0  0  0  0  0  0  0  0  0  0  0  0
   -8.6550   17.8450  -32.3550 O   0  0  0  0  0  0  0  0  0  0  0  0
   -6.8120   18.5110  -30.8890 O   0  0  0  0  0  0  0  0  0  0  0  0
   -6.1550   17.7290  -33.3410 C   0  0  0  0  0  0  0  0  0  0  0  0
   -5.7040   16.4430  -33.0160 C   0  0  0  0  0  0  0  0  0  0  0  0
   -4.7670   15.7990  -33.8290 C   0  0  0  0  0  0  0  0  0  0  0  0
   -4.2770   16.4340  -34.9800 C   0  0  0  0  0  0  0  0  0  0  0  0
   -3.3180   15.7750  -35.8120 N   0  0  0  0  0  0  0  0  0  0  0  0
   -4.7330   17.7180  -35.3080 C   0  0  0  0  0  0  0  0  0  0  0  0
   -5.6690   18.3620  -34.4940 C   0  0  0  0  0  0  0  0  0  0  0  0
   -5.5520   21.4180  -31.9130 C   0  0  0  0  0  0  0  0  0  0  0  0
   -5.0210   22.5220  -31.2400 C   0  0  0  0  0  0  0  0  0  0  0  0
   -2.9940   25.3040  -30.3410 H   0  0  0  0  0  0  0  0  0  0  0  0
   -7.9105   24.2448  -30.6369 H   0  0  0  0  0  0  0  0  0  0  0  0
   -8.8620   22.2791  -31.8335 H   0  0  0  0  0  0  0  0  0  0  0  0
   -8.1670   20.3600  -33.6110 H   0  0  0  0  0  0  0  0  0  0  0  0
   -6.0888   15.9382  -32.1176 H   0  0  0  0  0  0  0  0  0  0  0  0
   -4.4128   14.7914  -33.5656 H   0  0  0  0  0  0  0  0  0  0  0  0
   -2.8640   16.2790  -36.6050 H   0  0  0  0  0  0  0  0  0  0  0  0
   -3.0550   14.7780  -35.6390 H   0  0  0  0  0  0  0  0  0  0  0  0
   -4.3528   18.2208  -36.2095 H   0  0  0  0  0  0  0  0  0  0  0  0
   -6.0255   19.3684  -34.7586 H   0  0  0  0  0  0  0  0  0  0  0  0
   -4.8816   20.6265  -32.2792 H   0  0  0  0  0  0  0  0  0  0  0  0
   -3.9352   22.5949  -31.0795 H   0  0  0  0  0  0  0  0  0  0  0  0
  1  2  1  0
  2  3  2  0
  2  4  2  0
  2  5  1  0
  5  6  2  0
  6  7  1  0
  7  8  2  0
  8  9  1  0
  9 10  1  0
 10 11  2  0
 10 12  2  0
 10 13  1  0
 13 14  2  0
 14 15  1  0
 15 16  2  0
 16 17  1  0
 16 18  1  0
 18 19  2  0
  8 20  1  0
 20 21  2  0
 21  5  1  0
 19 13  1  0
  1 22  1  0
  6 23  1  0
  7 24  1  0
  9 25  1  0
 14 26  1  0
 15 27  1  0
 17 28  1  0
 17 29  1  0
 18 30  1  0
 19 31  1  0
 20 32  1  0
 21 33  1  0
M  CHG  1   1  -1
M  END
>  <UniqueID>  (23) 
23

>  <SMILES>  (23) 
[NH-]S(=O)(=O)c1ccc(NS(=O)(=O)c2ccc(N)cc2)cc1

>  <Energy>  (23) 
34.881507098262766

>  <Genealogy>  (23) 
[NH-]S(=O)(=O)c1ccc(NS(=O)(=O)c2ccc(N)cc2)cc1 (protonated)
[NH-]S(=O)(=O)c1ccc(NS(=O)(=O)c2ccc(N)cc2)cc1 (3D coordinates assigned)
[NH-]S(=O)(=O)c1ccc(NS(=O)(=O)c2ccc(N)cc2)cc1 (optimized conformer: 34.881507098262766 kcal/mol)

>  <smiles>  (23) 
Nc1ccc(S(=O)(=O)Nc2ccc(S(N)(=O)=O)cc2)cc1

>  <score_type>  (23) 
oracle

>  <origin>  (23) 
adgpu

>  <m_score__min__energy>  (23) 
-9.9600000000000009

>  <m_primary>  (23) 
energy

$$$$
23:0
     RDKit          3D

 59 62  0  0  0  0  0  0  0  0999 V2000
    0.2020   28.7990  -25.5240 C   0  0  0  0  0  0  0  0  0  0  0  0
   -0.8310   27.8740  -24.8660 C   0  0  0  0  0  0  0  0  0  0  0  0
   -0.2070   27.0830  -23.6890 C   0  0  0  0  0  0  0  0  0  0  0  0
    0.1950   25.6700  -24.1230 C   0  0  0  0  0  0  0  0  0  0  0  0
   -0.9800   24.8830  -24.5610 N   0  0  0  0  0  0  0  0  0  0  0  0
   -0.4670   23.4980  -25.4980 S   0  0  0  0  0  0  0  0  0  0  0  0
   -0.6480   22.2510  -24.6780 O   0  0  0  0  0  0  0  0  0  0  0  0
    0.9940   23.6280  -25.8310 O   0  0  0  0  0  0  0  0  0  0  0  0
   -1.3930   23.3490  -26.9940 C   0  0  0  0  0  0  0  0  0  0  0  0
   -2.2500   22.2580  -27.1880 C   0  0  0  0  0  0  0  0  0  0  0  0
   -3.0050   22.1550  -28.3580 C   0  0  0  0  0  0  0  0  0  0  0  0
   -2.9030   23.1310  -29.3610 C   0  0  0  0  0  0  0  0  0  0  0  0
   -3.7120   23.0150  -30.5430 N   0  0  0  0  0  0  0  0  0  0  0  0
   -4.5460   24.0670  -31.0550 C   0  0  0  0  0  0  0  0  0  0  0  0
   -4.3480   25.2610  -30.7070 O   0  0  0  0  0  0  0  0  0  0  0  0
   -5.5390   23.7910  -32.0480 N   0  0  0  0  0  0  0  0  0  0  0  0
   -6.6110   22.8480  -31.9030 C   0  0  0  0  0  0  0  0  0  0  0  0
   -7.9080   23.2750  -31.5690 C   0  0  0  0  0  0  0  0  0  0  0  0
   -8.9490   22.3490  -31.4580 C   0  0  0  0  0  0  0  0  0  0  0  0
   -8.7070   20.9940  -31.6910 C   0  0  0  0  0  0  0  0  0  0  0  0
   -7.4240   20.5620  -32.0370 C   0  0  0  0  0  0  0  0  0  0  0  0
   -6.3750   21.4830  -32.1460 C   0  0  0  0  0  0  0  0  0  0  0  0
   -4.7280   20.8910  -32.5590 S   0  0  0  0  0  0  0  0  0  0  0  0
   -5.3190   19.2440  -32.9590 C   0  0  0  0  0  0  0  0  0  0  0  0
   -5.4500   18.2810  -31.9510 C   0  0  0  0  0  0  0  0  0  0  0  0
   -5.8990   16.9950  -32.2650 C   0  0  0  0  0  0  0  0  0  0  0  0
   -6.2210   16.6690  -33.5860 C   0  0  0  0  0  0  0  0  0  0  0  0
   -6.0990   17.6300  -34.5940 C   0  0  0  0  0  0  0  0  0  0  0  0
   -5.6520   18.9180  -34.2810 C   0  0  0  0  0  0  0  0  0  0  0  0
   -2.0510   24.2320  -29.1580 C   0  0  0  0  0  0  0  0  0  0  0  0
   -1.2950   24.3330  -27.9860 C   0  0  0  0  0  0  0  0  0  0  0  0
   -2.0220   25.6660  -25.2700 C   0  0  0  0  0  0  0  0  0  0  0  0
   -1.4680   26.9420  -25.9210 C   0  0  0  0  0  0  0  0  0  0  0  0
    0.7800   29.3166  -24.7442 H   0  0  0  0  0  0  0  0  0  0  0  0
    0.8823   28.2026  -26.1497 H   0  0  0  0  0  0  0  0  0  0  0  0
   -0.3160   29.5408  -26.1497 H   0  0  0  0  0  0  0  0  0  0  0  0
   -1.6345   28.4928  -24.4400 H   0  0  0  0  0  0  0  0  0  0  0  0
    0.6862   27.6164  -23.3317 H   0  0  0  0  0  0  0  0  0  0  0  0
   -0.9563   27.0015  -22.8878 H   0  0  0  0  0  0  0  0  0  0  0  0
    0.9086   25.7415  -24.9571 H   0  0  0  0  0  0  0  0  0  0  0  0
    0.6505   25.1603  -23.2612 H   0  0  0  0  0  0  0  0  0  0  0  0
   -2.3285   21.4791  -26.4153 H   0  0  0  0  0  0  0  0  0  0  0  0
   -3.6855   21.3016  -28.4946 H   0  0  0  0  0  0  0  0  0  0  0  0
   -3.6110   22.1530  -31.1240 H   0  0  0  0  0  0  0  0  0  0  0  0
   -8.1046   24.3431  -31.3942 H   0  0  0  0  0  0  0  0  0  0  0  0
   -9.9597   22.6881  -31.1869 H   0  0  0  0  0  0  0  0  0  0  0  0
   -9.5268   20.2660  -31.6022 H   0  0  0  0  0  0  0  0  0  0  0  0
   -7.2374   19.4943  -32.2245 H   0  0  0  0  0  0  0  0  0  0  0  0
   -5.1993   18.5367  -30.9109 H   0  0  0  0  0  0  0  0  0  0  0  0
   -5.9991   16.2390  -31.4723 H   0  0  0  0  0  0  0  0  0  0  0  0
   -6.5706   15.6555  -33.8323 H   0  0  0  0  0  0  0  0  0  0  0  0
   -6.3544   17.3734  -35.6327 H   0  0  0  0  0  0  0  0  0  0  0  0
   -5.5617   19.6758  -35.0732 H   0  0  0  0  0  0  0  0  0  0  0  0
   -1.9792   25.0172  -29.9250 H   0  0  0  0  0  0  0  0  0  0  0  0
   -0.6199   25.1895  -27.8424 H   0  0  0  0  0  0  0  0  0  0  0  0
   -2.4632   25.0341  -26.0549 H   0  0  0  0  0  0  0  0  0  0  0  0
   -2.7703   25.9728  -24.5244 H   0  0  0  0  0  0  0  0  0  0  0  0
   -0.7046   26.6644  -26.6627 H   0  0  0  0  0  0  0  0  0  0  0  0
   -2.2994   27.4772  -26.4031 H   0  0  0  0  0  0  0  0  0  0  0  0
  1  2  1  0
  2  3  1  0
  3  4  1  0
  4  5  1  0
  5  6  1  0
  6  7  2  0
  6  8  2  0
  6  9  1  0
  9 10  2  0
 10 11  1  0
 11 12  2  0
 12 13  1  0
 13 14  1  0
 14 15  2  0
 14 16  1  0
 16 17  1  0
 17 18  2  0
 18 19  1  0
 19 20  2  0
 20 21  1  0
 21 22  2  0
 22 23  1  0
 23 24  1  0
 24 25  2  0
 25 26  1  0
 26 27  2  0
 27 28  1  0
 28 29  2  0
 12 30  1  0
 30 31  2  0
  5 32  1  0
 32 33  1  0
 33  2  1  0
 31  9  1  0
 22 17  1  0
 29 24  1  0
  1 34  1  0
  1 35  1  0
  1 36  1  0
  2 37  1  0
  3 38  1  0
  3 39  1  0
  4 40  1  0
  4 41  1  0
 10 42  1  0
 11 43  1  0
 13 44  1  0
 18 45  1  0
 19 46  1  0
 20 47  1  0
 21 48  1  0
 25 49  1  0
 26 50  1  0
 27 51  1  0
 28 52  1  0
 29 53  1  0
 30 54  1  0
 31 55  1  0
 32 56  1  0
 32 57  1  0
 33 58  1  0
 33 59  1  0
M  CHG  1  16  -1
M  END
>  <UniqueID>  (24) 
24

>  <SMILES>  (24) 
CC1CCN(S(=O)(=O)c2ccc(NC(=O)[N-]c3ccccc3Sc3ccccc3)cc2)CC1

>  <Energy>  (24) 
67.4448696081363

>  <Genealogy>  (24) 
CC1CCN(S(=O)(=O)c2ccc(NC(=O)[N-]c3ccccc3Sc3ccccc3)cc2)CC1 (protonated)
CC1CCN(S(=O)(=O)c2ccc(NC(=O)[N-]c3ccccc3Sc3ccccc3)cc2)CC1 (3D coordinates assigned)
CC1CCN(S(=O)(=O)c2ccc(NC(=O)[N-]c3ccccc3Sc3ccccc3)cc2)CC1 (nonaromatic ring conformer: 67.4448696081363 kcal/mol)

>  <smiles>  (24) 
CC1CCN(S(=O)(=O)c2ccc(NC(=O)Nc3ccccc3Sc3ccccc3)cc2)CC1

>  <score_type>  (24) 
oracle

>  <origin>  (24) 
adgpu

>  <m_score__min__energy>  (24) 
-12.949999999999999

>  <m_primary>  (24) 
energy

$$$$
24:0
     RDKit          3D

 49 52  0  0  0  0  0  0  0  0999 V2000
   -6.5130   18.9190  -31.2200 O   0  0  0  0  0  0  0  0  0  0  0  0
   -6.7310   19.7070  -32.1810 C   0  0  0  0  0  0  0  0  0  0  0  0
   -6.6890   19.2160  -33.5320 N   0  0  0  0  0  0  0  0  0  0  0  0
   -5.9840   18.0260  -33.9280 C   0  0  0  0  0  0  0  0  0  0  0  0
   -6.4990   16.7440  -33.6640 C   0  0  0  0  0  0  0  0  0  0  0  0
   -5.7820   15.6020  -34.0370 C   0  0  0  0  0  0  0  0  0  0  0  0
   -4.5330   15.7240  -34.6760 C   0  0  0  0  0  0  0  0  0  0  0  0
   -3.7720   14.6120  -35.0710 O   0  0  0  0  0  0  0  0  0  0  0  0
   -4.1130   13.2490  -34.8260 C   0  0  0  0  0  0  0  0  0  0  0  0
   -3.1430   12.4130  -35.3540 F   0  0  0  0  0  0  0  0  0  0  0  0
   -4.2370   13.0250  -33.4670 F   0  0  0  0  0  0  0  0  0  0  0  0
   -5.3220   12.9730  -35.4350 F   0  0  0  0  0  0  0  0  0  0  0  0
   -4.0190   17.0010  -34.9260 C   0  0  0  0  0  0  0  0  0  0  0  0
   -4.7310   18.1420  -34.5460 C   0  0  0  0  0  0  0  0  0  0  0  0
   -7.0730   21.1230  -31.9020 C   0  0  0  0  0  0  0  0  0  0  0  0
   -8.3430   21.6260  -32.2370 C   0  0  0  0  0  0  0  0  0  0  0  0
   -8.6710   22.9580  -31.9660 C   0  0  0  0  0  0  0  0  0  0  0  0
   -7.7420   23.8000  -31.3540 C   0  0  0  0  0  0  0  0  0  0  0  0
   -6.4760   23.3130  -31.0070 C   0  0  0  0  0  0  0  0  0  0  0  0
   -5.3090   24.3430  -30.1840 S   0  0  0  0  0  0  0  0  0  0  0  0
   -4.5830   25.1780  -31.2010 O   0  0  0  0  0  0  0  0  0  0  0  0
   -5.9980   25.2670  -29.2170 O   0  0  0  0  0  0  0  0  0  0  0  0
   -4.1790   23.3440  -29.3280 N   0  0  0  0  0  0  0  0  0  0  0  0
   -3.9070   23.4760  -27.8960 C   0  0  0  0  0  0  0  0  0  0  0  0
   -2.6270   22.6470  -27.6270 C   0  0  0  0  0  0  0  0  0  0  0  0
   -2.2290   22.1810  -28.9850 C   0  0  0  0  0  0  0  0  0  0  0  0
   -1.0980   21.4440  -29.3440 C   0  0  0  0  0  0  0  0  0  0  0  0
   -0.9050   21.1370  -30.7000 C   0  0  0  0  0  0  0  0  0  0  0  0
   -1.8370   21.5680  -31.6650 C   0  0  0  0  0  0  0  0  0  0  0  0
   -2.9700   22.3040  -31.2770 C   0  0  0  0  0  0  0  0  0  0  0  0
   -3.1350   22.5990  -29.9210 C   0  0  0  0  0  0  0  0  0  0  0  0
   -6.1460   21.9770  -31.2750 C   0  0  0  0  0  0  0  0  0  0  0  0
   -7.3040   19.6780  -34.2380 H   0  0  0  0  0  0  0  0  0  0  0  0
   -7.4716   16.6386  -33.1611 H   0  0  0  0  0  0  0  0  0  0  0  0
   -6.1958   14.6040  -33.8301 H   0  0  0  0  0  0  0  0  0  0  0  0
   -3.0453   17.1080  -35.4264 H   0  0  0  0  0  0  0  0  0  0  0  0
   -4.3050   19.1387  -34.7333 H   0  0  0  0  0  0  0  0  0  0  0  0
   -9.0829   20.9674  -32.7152 H   0  0  0  0  0  0  0  0  0  0  0  0
   -9.6652   23.3434  -32.2363 H   0  0  0  0  0  0  0  0  0  0  0  0
   -8.0044   24.8474  -31.1439 H   0  0  0  0  0  0  0  0  0  0  0  0
   -3.7410   24.5314  -27.6341 H   0  0  0  0  0  0  0  0  0  0  0  0
   -4.7531   23.1191  -27.2904 H   0  0  0  0  0  0  0  0  0  0  0  0
   -1.8402   23.2712  -27.1783 H   0  0  0  0  0  0  0  0  0  0  0  0
   -2.7899   21.8211  -26.9190 H   0  0  0  0  0  0  0  0  0  0  0  0
   -0.3764   21.1124  -28.5828 H   0  0  0  0  0  0  0  0  0  0  0  0
   -0.0229   20.5578  -31.0105 H   0  0  0  0  0  0  0  0  0  0  0  0
   -1.6773   21.3275  -32.7264 H   0  0  0  0  0  0  0  0  0  0  0  0
   -3.7075   22.6390  -32.0213 H   0  0  0  0  0  0  0  0  0  0  0  0
   -5.1546   21.5929  -30.9930 H   0  0  0  0  0  0  0  0  0  0  0  0
  1  2  2  0
  2  3  1  0
  3  4  1  0
  4  5  2  0
  5  6  1  0
  6  7  2  0
  7  8  1  0
  8  9  1  0
  9 10  1  0
  9 11  1  0
  9 12  1  0
  7 13  1  0
 13 14  2  0
  2 15  1  0
 15 16  2  0
 16 17  1  0
 17 18  2  0
 18 19  1  0
 19 20  1  0
 20 21  2  0
 20 22  2  0
 20 23  1  0
 23 24  1  0
 24 25  1  0
 25 26  1  0
 26 27  2  0
 27 28  1  0
 28 29  2  0
 29 30  1  0
 30 31  2  0
 19 32  2  0
 14  4  1  0
 32 15  1  0
 31 23  1  0
 31 26  1  0
  3 33  1  0
  5 34  1  0
  6 35  1  0
 13 36  1  0
 14 37  1  0
 16 38  1  0
 17 39  1  0
 18 40  1  0
 24 41  1  0
 24 42  1  0
 25 43  1  0
 25 44  1  0
 27 45  1  0
 28 46  1  0
 29 47  1  0
 30 48  1  0
 32 49  1  0
M  END
>  <UniqueID>  (25) 
25

>  <SMILES>  (25) 
O=C(Nc1ccc(OC(F)(F)F)cc1)c1cccc(S(=O)(=O)N2CCc3ccccc32)c1

>  <Energy>  (25) 
74.18328944851703

>  <Genealogy>  (25) 
O=C(Nc1ccc(OC(F)(F)F)cc1)c1cccc(S(=O)(=O)N2CCc3ccccc32)c1 (3D coordinates assigned)
O=C(Nc1ccc(OC(F)(F)F)cc1)c1cccc(S(=O)(=O)N2CCc3ccccc32)c1 (nonaromatic ring conformer: 74.18328944851703 kcal/mol)

>  <smiles>  (25) 
O=C(Nc1ccc(OC(F)(F)F)cc1)c1cccc(S(=O)(=O)N2CCc3ccccc32)c1

>  <score_type>  (25) 
oracle

>  <origin>  (25) 
adgpu

>  <m_score__min__energy>  (25) 
-9.6400000000000006

>  <m_primary>  (25) 
energy

$$$$
25:0
     RDKit          3D

 44 46  0  0  0  0  0  0  0  0999 V2000
   -2.3880   18.9590  -26.6900 C   0  0  0  0  0  0  0  0  0  0  0  0
   -1.9670   20.0900  -27.5790 C   0  0  0  0  0  0  0  0  0  0  0  0
   -1.2410   19.8380  -28.7520 C   0  0  0  0  0  0  0  0  0  0  0  0
   -0.8840   20.8910  -29.6010 C   0  0  0  0  0  0  0  0  0  0  0  0
   -1.2610   22.2000  -29.2920 C   0  0  0  0  0  0  0  0  0  0  0  0
   -2.0110   22.4650  -28.1340 C   0  0  0  0  0  0  0  0  0  0  0  0
   -2.3550   23.8830  -27.7650 C   0  0  0  0  0  0  0  0  0  0  0  0
   -2.0520   24.7770  -28.9230 C   0  0  0  0  0  0  0  0  0  0  0  0
   -0.8550   25.0220  -29.2310 O   0  0  0  0  0  0  0  0  0  0  0  0
   -3.1240   25.2870  -29.7210 N   0  0  0  0  0  0  0  0  0  0  0  0
   -4.2500   24.5160  -30.1600 C   0  0  0  0  0  0  0  0  0  0  0  0
   -5.5410   24.9340  -29.8180 C   0  0  0  0  0  0  0  0  0  0  0  0
   -6.6520   24.1680  -30.1850 C   0  0  0  0  0  0  0  0  0  0  0  0
   -6.4760   22.9670  -30.8820 C   0  0  0  0  0  0  0  0  0  0  0  0
   -5.1880   22.5250  -31.2050 C   0  0  0  0  0  0  0  0  0  0  0  0
   -4.9460   21.0010  -32.0560 S   0  0  0  0  0  0  0  0  0  0  0  0
   -4.5090   21.2560  -33.4710 O   0  0  0  0  0  0  0  0  0  0  0  0
   -3.8790   20.2020  -31.3560 O   0  0  0  0  0  0  0  0  0  0  0  0
   -6.4610   20.0990  -32.0850 C   0  0  0  0  0  0  0  0  0  0  0  0
   -6.4820   18.7500  -31.7010 C   0  0  0  0  0  0  0  0  0  0  0  0
   -7.6710   18.0160  -31.7740 C   0  0  0  0  0  0  0  0  0  0  0  0
   -8.8410   18.6250  -32.2350 C   0  0  0  0  0  0  0  0  0  0  0  0
   -8.8240   19.9680  -32.6280 C   0  0  0  0  0  0  0  0  0  0  0  0
   -7.6390   20.7040  -32.5540 C   0  0  0  0  0  0  0  0  0  0  0  0
   -4.0780   23.3020  -30.8470 C   0  0  0  0  0  0  0  0  0  0  0  0
   -2.3540   21.4050  -27.2770 C   0  0  0  0  0  0  0  0  0  0  0  0
   -2.2764   19.2588  -25.6375 H   0  0  0  0  0  0  0  0  0  0  0  0
   -3.4400   18.7074  -26.8900 H   0  0  0  0  0  0  0  0  0  0  0  0
   -1.7566   18.0808  -26.8900 H   0  0  0  0  0  0  0  0  0  0  0  0
   -0.9509   18.8077  -29.0057 H   0  0  0  0  0  0  0  0  0  0  0  0
   -0.3051   20.6877  -30.5140 H   0  0  0  0  0  0  0  0  0  0  0  0
   -0.9697   23.0260  -29.9575 H   0  0  0  0  0  0  0  0  0  0  0  0
   -3.4248   23.9501  -27.5180 H   0  0  0  0  0  0  0  0  0  0  0  0
   -1.7615   24.1931  -26.8923 H   0  0  0  0  0  0  0  0  0  0  0  0
   -5.6826   25.8699  -29.2576 H   0  0  0  0  0  0  0  0  0  0  0  0
   -7.6650   24.5096  -29.9257 H   0  0  0  0  0  0  0  0  0  0  0  0
   -7.3515   22.3696  -31.1764 H   0  0  0  0  0  0  0  0  0  0  0  0
   -5.5610   18.2678  -31.3414 H   0  0  0  0  0  0  0  0  0  0  0  0
   -7.6846   16.9594  -31.4684 H   0  0  0  0  0  0  0  0  0  0  0  0
   -9.7762   18.0484  -32.2891 H   0  0  0  0  0  0  0  0  0  0  0  0
   -9.7447   20.4446  -32.9956 H   0  0  0  0  0  0  0  0  0  0  0  0
   -7.6282   21.7595  -32.8636 H   0  0  0  0  0  0  0  0  0  0  0  0
   -3.0652   22.9594  -31.1055 H   0  0  0  0  0  0  0  0  0  0  0  0
   -2.9304   21.6076  -26.3623 H   0  0  0  0  0  0  0  0  0  0  0  0
  1  2  1  0
  2  3  2  0
  3  4  1  0
  4  5  2  0
  5  6  1  0
  6  7  1  0
  7  8  1  0
  8  9  2  0
  8 10  1  0
 10 11  1  0
 11 12  2  0
 12 13  1  0
 13 14  2  0
 14 15  1  0
 15 16  1  0
 16 17  2  0
 16 18  2  0
 16 19  1  0
 19 20  2  0
 20 21  1  0
 21 22  2  0
 22 23  1  0
 23 24  2  0
 15 25  2  0
  6 26  2  0
 26  2  1  0
 25 11  1  0
 24 19  1  0
  1 27  1  0
  1 28  1  0
  1 29  1  0
  3 30  1  0
  4 31  1  0
  5 32  1  0
  7 33  1  0
  7 34  1  0
 12 35  1  0
 13 36  1  0
 14 37  1  0
 20 38  1  0
 21 39  1  0
 22 40  1  0
 23 41  1  0
 24 42  1  0
 25 43  1  0
 26 44  1  0
M  CHG  1  10  -1
M  END
>  <UniqueID>  (26) 
26

>  <SMILES>  (26) 
Cc1cccc(CC(=O)[N-]c2cccc(S(=O)(=O)c3ccccc3)c2)c1

>  <Energy>  (26) 
46.3687560991207

>  <Genealogy>  (26) 
Cc1cccc(CC(=O)[N-]c2cccc(S(=O)(=O)c3ccccc3)c2)c1 (protonated)
Cc1cccc(CC(=O)[N-]c2cccc(S(=O)(=O)c3ccccc3)c2)c1 (3D coordinates assigned)
Cc1cccc(CC(=O)[N-]c2cccc(S(=O)(=O)c3ccccc3)c2)c1 (optimized conformer: 46.3687560991207 kcal/mol)

>  <smiles>  (26) 
Cc1cccc(CC(=O)Nc2cccc(S(=O)(=O)c3ccccc3)c2)c1

>  <score_type>  (26) 
oracle

>  <origin>  (26) 
adgpu

>  <m_score__min__energy>  (26) 
-11.300000000000001

>  <m_primary>  (26) 
energy

$$$$
26:0
     RDKit          3D

 38 40  0  0  0  0  0  0  0  0999 V2000
   -2.7580   19.2080  -26.7040 C   0  0  0  0  0  0  0  0  0  0  0  0
   -2.2810   20.4530  -27.2050 O   0  0  0  0  0  0  0  0  0  0  0  0
   -1.7850   20.6550  -28.5030 C   0  0  0  0  0  0  0  0  0  0  0  0
   -0.5530   20.1100  -28.9160 C   0  0  0  0  0  0  0  0  0  0  0  0
   -0.0820   20.3220  -30.2120 C   0  0  0  0  0  0  0  0  0  0  0  0
   -0.8280   21.0810  -31.1130 C   0  0  0  0  0  0  0  0  0  0  0  0
   -2.0510   21.6290  -30.7190 C   0  0  0  0  0  0  0  0  0  0  0  0
   -2.5420   21.4200  -29.4200 C   0  0  0  0  0  0  0  0  0  0  0  0
   -3.8800   22.0080  -29.0420 C   0  0  0  0  0  0  0  0  0  0  0  0
   -4.1140   23.2600  -29.7710 N   0  0  0  0  0  0  0  0  0  0  0  0
   -5.0660   23.5240  -30.6900 C   0  0  0  0  0  0  0  0  0  0  0  0
   -6.1060   22.5790  -31.1250 C   0  0  0  0  0  0  0  0  0  0  0  0
   -7.3590   22.6240  -30.4950 C   0  0  0  0  0  0  0  0  0  0  0  0
   -8.3800   21.7600  -30.8940 C   0  0  0  0  0  0  0  0  0  0  0  0
   -8.1580   20.8420  -31.9210 C   0  0  0  0  0  0  0  0  0  0  0  0
   -6.9130   20.7810  -32.5500 C   0  0  0  0  0  0  0  0  0  0  0  0
   -5.8690   21.6330  -32.1500 C   0  0  0  0  0  0  0  0  0  0  0  0
   -4.5390   21.5460  -32.8500 C   0  0  0  0  0  0  0  0  0  0  0  0
   -4.9200   24.7550  -31.2180 N   0  0  0  0  0  0  0  0  0  0  0  0
   -3.8650   25.3040  -30.6330 N   0  0  0  0  0  0  0  0  0  0  0  0
   -3.3840   24.3960  -29.7650 C   0  0  0  0  0  0  0  0  0  0  0  0
   -2.0550   24.6580  -28.8440 S   0  0  0  0  0  0  0  0  0  0  0  0
   -2.7503   19.2281  -25.6042 H   0  0  0  0  0  0  0  0  0  0  0  0
   -3.7848   19.0385  -27.0604 H   0  0  0  0  0  0  0  0  0  0  0  0
   -2.1074   18.3958  -27.0604 H   0  0  0  0  0  0  0  0  0  0  0  0
    0.0426   19.5122  -28.2104 H   0  0  0  0  0  0  0  0  0  0  0  0
    0.8801   19.8894  -30.5238 H   0  0  0  0  0  0  0  0  0  0  0  0
   -0.4535   21.2482  -32.1337 H   0  0  0  0  0  0  0  0  0  0  0  0
   -2.6345   22.2294  -31.4324 H   0  0  0  0  0  0  0  0  0  0  0  0
   -4.6749   21.2896  -29.2913 H   0  0  0  0  0  0  0  0  0  0  0  0
   -3.8848   22.2181  -27.9623 H   0  0  0  0  0  0  0  0  0  0  0  0
   -7.5375   23.3438  -29.6826 H   0  0  0  0  0  0  0  0  0  0  0  0
   -9.3610   21.8029  -30.3981 H   0  0  0  0  0  0  0  0  0  0  0  0
   -8.9657   20.1648  -32.2358 H   0  0  0  0  0  0  0  0  0  0  0  0
   -6.7479   20.0607  -33.3648 H   0  0  0  0  0  0  0  0  0  0  0  0
   -3.7339   21.4933  -32.1023 H   0  0  0  0  0  0  0  0  0  0  0  0
   -4.5143   20.6443  -33.4796 H   0  0  0  0  0  0  0  0  0  0  0  0
   -4.3970   22.4368  -33.4796 H   0  0  0  0  0  0  0  0  0  0  0  0
  1  2  1  0
  2  3  1  0
  3  4  2  0
  4  5  1  0
  5  6  2  0
  6  7  1  0
  7  8  2  0
  8  9  1  0
  9 10  1  0
 10 11  1  0
 11 12  1  0
 12 13  2  0
 13 14  1  0
 14 15  2  0
 15 16  1  0
 16 17  2  0
 17 18  1  0
 11 19  2  0
 19 20  1  0
 20 21  1  0
 21 22  2  0
  8  3  1  0
 21 10  1  0
 17 12  1  0
  1 23  1  0
  1 24  1  0
  1 25  1  0
  4 26  1  0
  5 27  1  0
  6 28  1  0
  7 29  1  0
  9 30  1  0
  9 31  1  0
 13 32  1  0
 14 33  1  0
 15 34  1  0
 16 35  1  0
 18 36  1  0
 18 37  1  0
 18 38  1  0
M  CHG  1  20  -1
M  END
>  <UniqueID>  (27) 
27

>  <SMILES>  (27) 
COc1ccccc1Cn1c(-c2ccccc2C)n[n-]c1=S

>  <Energy>  (27) 
79.86736883063125

>  <Genealogy>  (27) 
COc1ccccc1Cn1c(-c2ccccc2C)n[n-]c1=S (protonated)
COc1ccccc1Cn1c(-c2ccccc2C)n[n-]c1=S (3D coordinates assigned)
COc1ccccc1Cn1c(-c2ccccc2C)n[n-]c1=S (optimized conformer: 79.86736883063125 kcal/mol)

>  <smiles>  (27) 
COc1ccccc1Cn1c(-c2ccccc2C)n[nH]c1=S

>  <score_type>  (27) 
oracle

>  <origin>  (27) 
adgpu

>  <m_score__min__energy>  (27) 
-9.0199999999999996

>  <m_primary>  (27) 
energy

$$$$
27:0
     RDKit          3D

 46 48  0  0  0  0  0  0  0  0999 V2000
    0.6330   18.5340  -28.3970 C   0  0  0  0  0  0  0  0  0  0  0  0
   -0.5130   18.9900  -29.1070 O   0  0  0  0  0  0  0  0  0  0  0  0
   -0.9650   20.3200  -29.1200 C   0  0  0  0  0  0  0  0  0  0  0  0
   -0.5620   21.2390  -30.1080 C   0  0  0  0  0  0  0  0  0  0  0  0
   -1.0250   22.5590  -30.0780 C   0  0  0  0  0  0  0  0  0  0  0  0
   -1.8940   22.9790  -29.0620 C   0  0  0  0  0  0  0  0  0  0  0  0
   -2.4160   24.6590  -28.9690 S   0  0  0  0  0  0  0  0  0  0  0  0
   -1.2090   25.5480  -29.0630 O   0  0  0  0  0  0  0  0  0  0  0  0
   -3.1280   24.9240  -27.6730 O   0  0  0  0  0  0  0  0  0  0  0  0
   -3.4880   25.0080  -30.2860 N   0  0  0  0  0  0  0  0  0  0  0  0
   -4.6730   24.2620  -30.5900 C   0  0  0  0  0  0  0  0  0  0  0  0
   -4.5420   23.0170  -31.2180 C   0  0  0  0  0  0  0  0  0  0  0  0
   -5.6680   22.2190  -31.4490 C   0  0  0  0  0  0  0  0  0  0  0  0
   -6.9390   22.6650  -31.0620 C   0  0  0  0  0  0  0  0  0  0  0  0
   -8.3490   21.6250  -31.2170 S   0  0  0  0  0  0  0  0  0  0  0  0
   -9.1790   21.7380  -29.9720 O   0  0  0  0  0  0  0  0  0  0  0  0
   -9.1840   22.0270  -32.4010 O   0  0  0  0  0  0  0  0  0  0  0  0
   -7.8240   19.9850  -31.4150 N   0  0  0  0  0  0  0  0  0  0  0  0
   -7.1790   19.5870  -32.4680 C   0  0  0  0  0  0  0  0  0  0  0  0
   -6.8650   20.3540  -33.4860 O   0  0  0  0  0  0  0  0  0  0  0  0
   -6.1980   19.6820  -34.3810 N   0  0  0  0  0  0  0  0  0  0  0  0
   -6.0770   18.4200  -33.9170 C   0  0  0  0  0  0  0  0  0  0  0  0
   -5.3460   17.3340  -34.6360 C   0  0  0  0  0  0  0  0  0  0  0  0
   -6.7090   18.3130  -32.6910 C   0  0  0  0  0  0  0  0  0  0  0  0
   -6.7570   17.1280  -31.7790 C   0  0  0  0  0  0  0  0  0  0  0  0
   -7.0780   23.9260  -30.4710 C   0  0  0  0  0  0  0  0  0  0  0  0
   -5.9540   24.7250  -30.2420 C   0  0  0  0  0  0  0  0  0  0  0  0
   -2.3090   22.0670  -28.0850 C   0  0  0  0  0  0  0  0  0  0  0  0
   -1.8470   20.7460  -28.1100 C   0  0  0  0  0  0  0  0  0  0  0  0
   -2.3690   19.6330  -26.8540 Cl  0  0  0  0  0  0  0  0  0  0  0  0
    0.4475   18.6078  -27.3153 H   0  0  0  0  0  0  0  0  0  0  0  0
    0.8366   17.4864  -28.6635 H   0  0  0  0  0  0  0  0  0  0  0  0
    1.5007   19.1554  -28.6635 H   0  0  0  0  0  0  0  0  0  0  0  0
    0.1209   20.9172  -30.9081 H   0  0  0  0  0  0  0  0  0  0  0  0
   -0.7058   23.2696  -30.8546 H   0  0  0  0  0  0  0  0  0  0  0  0
   -3.5483   22.6645  -31.5314 H   0  0  0  0  0  0  0  0  0  0  0  0
   -5.5553   21.2390  -31.9357 H   0  0  0  0  0  0  0  0  0  0  0  0
   -4.8878   16.6532  -33.9035 H   0  0  0  0  0  0  0  0  0  0  0  0
   -6.0510   16.7730  -35.2670 H   0  0  0  0  0  0  0  0  0  0  0  0
   -4.5609   17.7760  -35.2670 H   0  0  0  0  0  0  0  0  0  0  0  0
   -6.7432   17.4693  -30.7334 H   0  0  0  0  0  0  0  0  0  0  0  0
   -7.6790   16.5581  -31.9665 H   0  0  0  0  0  0  0  0  0  0  0  0
   -5.8841   16.4854  -31.9665 H   0  0  0  0  0  0  0  0  0  0  0  0
   -8.0760   24.2900  -30.1855 H   0  0  0  0  0  0  0  0  0  0  0  0
   -6.0723   25.7198  -29.7878 H   0  0  0  0  0  0  0  0  0  0  0  0
   -3.0015   22.3898  -27.2937 H   0  0  0  0  0  0  0  0  0  0  0  0
  1  2  1  0
  2  3  1  0
  3  4  2  0
  4  5  1  0
  5  6  2  0
  6  7  1  0
  7  8  2  0
  7  9  2  0
  7 10  1  0
 10 11  1  0
 11 12  2  0
 12 13  1  0
 13 14  2  0
 14 15  1  0
 15 16  2  0
 15 17  2  0
 15 18  1  0
 18 19  2  3
 19 20  1  0
 20 21  1  0
 21 22  1  0
 22 23  1  0
 22 24  2  0
 24 25  1  0
 14 26  1  0
 26 27  2  0
  6 28  1  0
 28 29  2  0
 29 30  1  0
 29  3  1  0
 27 11  1  0
 24 19  1  0
  1 31  1  0
  1 32  1  0
  1 33  1  0
  4 34  1  0
  5 35  1  0
 12 36  1  0
 13 37  1  0
 23 38  1  0
 23 39  1  0
 23 40  1  0
 25 41  1  0
 25 42  1  0
 25 43  1  0
 26 44  1  0
 27 45  1  0
 28 46  1  0
M  CHG  2  10  -1  21  -1
M  END
>  <UniqueID>  (28) 
28

>  <SMILES>  (28) 
COc1ccc(S(=O)(=O)[N-]c2ccc(S(=O)(=O)N=c3o[n-]c(C)c3C)cc2)cc1Cl

>  <Energy>  (28) 
81.80829744647107

>  <Genealogy>  (28) 
COc1ccc(S(=O)(=O)[N-]c2ccc(S(=O)(=O)N=c3o[n-]c(C)c3C)cc2)cc1Cl (protonated)
COc1ccc(S(=O)(=O)[N-]c2ccc(S(=O)(=O)N=c3o[n-]c(C)c3C)cc2)cc1Cl (3D coordinates assigned)
COc1ccc(S(=O)(=O)[N-]c2ccc(S(=O)(=O)N=c3o[n-]c(C)c3C)cc2)cc1Cl (optimized conformer: 81.80829744647107 kcal/mol)

>  <smiles>  (28) 
COc1ccc(S(=O)(=O)Nc2ccc(S(=O)(=O)N=c3o[nH]c(C)c3C)cc2)cc1Cl

>  <score_type>  (28) 
oracle

>  <origin>  (28) 
adgpu

>  <m_score__min__energy>  (28) 
-12.539999999999999

>  <m_primary>  (28) 
energy

$$$$
28:0
     RDKit          3D

 45 49  0  0  0  0  0  0  0  0999 V2000
   -0.8510   26.9710  -27.9520 C   0  0  0  0  0  0  0  0  0  0  0  0
   -1.4920   26.1950  -28.9600 O   0  0  0  0  0  0  0  0  0  0  0  0
   -1.8530   24.8470  -28.8160 C   0  0  0  0  0  0  0  0  0  0  0  0
   -1.1830   23.9840  -27.9270 C   0  0  0  0  0  0  0  0  0  0  0  0
   -1.5730   22.6460  -27.7990 C   0  0  0  0  0  0  0  0  0  0  0  0
   -0.8760   21.8240  -26.9030 O   0  0  0  0  0  0  0  0  0  0  0  0
   -0.7250   20.4360  -27.0290 C   0  0  0  0  0  0  0  0  0  0  0  0
   -1.7700   19.5830  -26.6240 C   0  0  0  0  0  0  0  0  0  0  0  0
   -1.6470   18.1800  -26.7500 C   0  0  0  0  0  0  0  0  0  0  0  0
   -0.4820   17.6130  -27.2970 C   0  0  0  0  0  0  0  0  0  0  0  0
    0.5260   18.4820  -27.7080 C   0  0  0  0  0  0  0  0  0  0  0  0
    1.6920   18.1780  -28.2890 N   0  0  0  0  0  0  0  0  0  0  0  0
    2.2550   19.3870  -28.5140 C   0  0  0  0  0  0  0  0  0  0  0  0
    3.3790   19.5240  -29.0620 O   0  0  0  0  0  0  0  0  0  0  0  0
    1.5040   20.4410  -28.1040 N   0  0  0  0  0  0  0  0  0  0  0  0
    0.4160   19.8380  -27.5870 C   0  0  0  0  0  0  0  0  0  0  0  0
   -2.6150   22.1520  -28.6010 C   0  0  0  0  0  0  0  0  0  0  0  0
   -3.2860   23.0010  -29.4820 C   0  0  0  0  0  0  0  0  0  0  0  0
   -2.9250   24.3550  -29.5790 C   0  0  0  0  0  0  0  0  0  0  0  0
   -3.6130   25.2430  -30.4720 N   0  0  0  0  0  0  0  0  0  0  0  0
   -5.0350   25.3280  -30.6310 C   0  0  0  0  0  0  0  0  0  0  0  0
   -5.6050   26.4300  -30.4210 O   0  0  0  0  0  0  0  0  0  0  0  0
   -5.8530   24.1520  -30.9900 C   0  0  0  0  0  0  0  0  0  0  0  0
   -7.1560   23.8760  -30.5770 C   0  0  0  0  0  0  0  0  0  0  0  0
   -7.5610   22.6830  -31.0780 N   0  0  0  0  0  0  0  0  0  0  0  0
   -6.5490   22.2040  -31.7810 N   0  0  0  0  0  0  0  0  0  0  0  0
   -6.4990   21.0200  -32.4380 C   0  0  0  0  0  0  0  0  0  0  0  0
   -5.3070   20.6850  -33.0930 C   0  0  0  0  0  0  0  0  0  0  0  0
   -4.2240   21.5840  -33.0340 C   0  0  0  0  0  0  0  0  0  0  0  0
   -4.3370   22.7590  -32.3510 N   0  0  0  0  0  0  0  0  0  0  0  0
   -5.5150   23.0500  -31.7440 C   0  0  0  0  0  0  0  0  0  0  0  0
   -1.1534   26.6049  -26.9597 H   0  0  0  0  0  0  0  0  0  0  0  0
    0.2401   26.8817  -28.0589 H   0  0  0  0  0  0  0  0  0  0  0  0
   -1.1448   28.0256  -28.0589 H   0  0  0  0  0  0  0  0  0  0  0  0
   -0.3440   24.3659  -27.3267 H   0  0  0  0  0  0  0  0  0  0  0  0
   -2.6918   20.0129  -26.2051 H   0  0  0  0  0  0  0  0  0  0  0  0
   -2.4681   17.5276  -26.4179 H   0  0  0  0  0  0  0  0  0  0  0  0
   -0.3709   16.5232  -27.3966 H   0  0  0  0  0  0  0  0  0  0  0  0
    2.0710   17.2340  -28.5270 H   0  0  0  0  0  0  0  0  0  0  0  0
   -2.9030   21.0925  -28.5344 H   0  0  0  0  0  0  0  0  0  0  0  0
   -4.1030   22.6074  -30.1046 H   0  0  0  0  0  0  0  0  0  0  0  0
   -7.7664   24.5308  -29.9378 H   0  0  0  0  0  0  0  0  0  0  0  0
   -7.3664   20.3438  -32.4564 H   0  0  0  0  0  0  0  0  0  0  0  0
   -5.2182   19.7369  -33.6436 H   0  0  0  0  0  0  0  0  0  0  0  0
   -3.2805   21.3365  -33.5424 H   0  0  0  0  0  0  0  0  0  0  0  0
  1  2  1  0
  2  3  1  0
  3  4  2  0
  4  5  1  0
  5  6  1  0
  6  7  1  0
  7  8  2  0
  8  9  1  0
  9 10  2  0
 10 11  1  0
 11 12  1  0
 12 13  1  0
 13 14  2  0
 13 15  1  0
 15 16  1  0
  5 17  2  0
 17 18  1  0
 18 19  2  0
 19 20  1  0
 20 21  1  0
 21 22  2  0
 21 23  1  0
 23 24  1  0
 24 25  2  0
 25 26  1  0
 26 27  1  0
 27 28  2  0
 28 29  1  0
 29 30  2  0
 30 31  1  0
 19  3  1  0
 31 23  2  0
 16  7  1  0
 31 26  1  0
 16 11  2  0
  1 32  1  0
  1 33  1  0
  1 34  1  0
  4 35  1  0
  8 36  1  0
  9 37  1  0
 10 38  1  0
 12 39  1  0
 17 40  1  0
 18 41  1  0
 24 42  1  0
 27 43  1  0
 28 44  1  0
 29 45  1  0
M  CHG  2  15  -1  20  -1
M  END
>  <UniqueID>  (29) 
29

>  <SMILES>  (29) 
COc1cc(Oc2cccc3[nH]c(=O)[n-]c23)ccc1[N-]C(=O)c1cnn2cccnc12

>  <Energy>  (29) 
136.89213303097566

>  <Genealogy>  (29) 
COc1cc(Oc2cccc3[nH]c(=O)[n-]c23)ccc1[N-]C(=O)c1cnn2cccnc12 (protonated)
COc1cc(Oc2cccc3[nH]c(=O)[n-]c23)ccc1[N-]C(=O)c1cnn2cccnc12 (3D coordinates assigned)
COc1cc(Oc2cccc3[nH]c(=O)[n-]c23)ccc1[N-]C(=O)c1cnn2cccnc12 (optimized conformer: 136.89213303097566 kcal/mol)

>  <smiles>  (29) 
COc1cc(Oc2cccc3[nH]c(=O)[nH]c23)ccc1NC(=O)c1cnn2cccnc12

>  <score_type>  (29) 
oracle

>  <origin>  (29) 
adgpu

>  <m_score__min__energy>  (29) 
-11.369999999999999

>  <m_primary>  (29) 
energy

$$$$
29:0
     RDKit          3D

 43 45  0  0  0  0  0  0  0  0999 V2000
   -1.2480   22.4120  -30.5810 C   0  0  0  0  0  0  0  0  0  0  0  0
   -1.5180   22.9360  -29.2100 C   0  0  0  0  0  0  0  0  0  0  0  0
   -0.9150   22.4710  -28.0960 N   0  0  0  0  0  0  0  0  0  0  0  0
   -1.3300   23.2080  -27.0730 N   0  0  0  0  0  0  0  0  0  0  0  0
   -0.8090   23.0630  -25.7180 C   0  0  0  0  0  0  0  0  0  0  0  0
   -2.1790   24.1630  -27.5100 C   0  0  0  0  0  0  0  0  0  0  0  0
   -2.7030   25.2960  -26.6810 C   0  0  0  0  0  0  0  0  0  0  0  0
   -2.3170   24.0130  -28.8740 C   0  0  0  0  0  0  0  0  0  0  0  0
   -2.9630   24.9240  -29.7640 N   0  0  0  0  0  0  0  0  0  0  0  0
   -4.6790   24.8830  -29.9830 S   0  0  0  0  0  0  0  0  0  0  0  0
   -5.3690   24.9790  -28.6520 O   0  0  0  0  0  0  0  0  0  0  0  0
   -5.1000   26.0470  -30.8350 O   0  0  0  0  0  0  0  0  0  0  0  0
   -5.1080   23.3850  -30.8050 C   0  0  0  0  0  0  0  0  0  0  0  0
   -4.1650   22.7500  -31.6210 C   0  0  0  0  0  0  0  0  0  0  0  0
   -4.4610   21.5200  -32.2150 C   0  0  0  0  0  0  0  0  0  0  0  0
   -5.7080   20.9030  -31.9950 C   0  0  0  0  0  0  0  0  0  0  0  0
   -6.0150   19.5830  -32.6030 C   0  0  0  0  0  0  0  0  0  0  0  0
   -7.1870   18.8900  -32.2510 C   0  0  0  0  0  0  0  0  0  0  0  0
   -7.4790   17.6520  -32.8280 C   0  0  0  0  0  0  0  0  0  0  0  0
   -6.6100   17.0830  -33.7650 C   0  0  0  0  0  0  0  0  0  0  0  0
   -6.9390   15.8450  -34.3190 O   0  0  0  0  0  0  0  0  0  0  0  0
   -5.4320   17.7680  -34.1250 C   0  0  0  0  0  0  0  0  0  0  0  0
   -4.2990   17.0990  -35.2940 Cl  0  0  0  0  0  0  0  0  0  0  0  0
   -5.1420   19.0090  -33.5450 C   0  0  0  0  0  0  0  0  0  0  0  0
   -6.6540   21.5520  -31.1780 C   0  0  0  0  0  0  0  0  0  0  0  0
   -6.3530   22.7830  -30.5860 C   0  0  0  0  0  0  0  0  0  0  0  0
   -0.7453   21.4363  -30.5082 H   0  0  0  0  0  0  0  0  0  0  0  0
   -2.1983   22.2953  -31.1227 H   0  0  0  0  0  0  0  0  0  0  0  0
   -0.6015   23.1181  -31.1227 H   0  0  0  0  0  0  0  0  0  0  0  0
   -1.6060   23.2848  -24.9930 H   0  0  0  0  0  0  0  0  0  0  0  0
   -0.4549   22.0322  -25.5697 H   0  0  0  0  0  0  0  0  0  0  0  0
    0.0267   23.7627  -25.5697 H   0  0  0  0  0  0  0  0  0  0  0  0
   -2.5904   25.0525  -25.6142 H   0  0  0  0  0  0  0  0  0  0  0  0
   -2.1365   26.2106  -26.9101 H   0  0  0  0  0  0  0  0  0  0  0  0
   -3.7668   25.4566  -26.9101 H   0  0  0  0  0  0  0  0  0  0  0  0
   -3.1864   23.2210  -31.7957 H   0  0  0  0  0  0  0  0  0  0  0  0
   -3.7152   21.0305  -32.8586 H   0  0  0  0  0  0  0  0  0  0  0  0
   -7.8790   19.3263  -31.5156 H   0  0  0  0  0  0  0  0  0  0  0  0
   -8.3991   17.1205  -32.5435 H   0  0  0  0  0  0  0  0  0  0  0  0
   -6.3050   15.3260  -34.9120 H   0  0  0  0  0  0  0  0  0  0  0  0
   -4.2218   19.5407  -33.8289 H   0  0  0  0  0  0  0  0  0  0  0  0
   -7.6360   21.0877  -31.0043 H   0  0  0  0  0  0  0  0  0  0  0  0
   -7.0970   23.2799  -29.9461 H   0  0  0  0  0  0  0  0  0  0  0  0
  1  2  1  0
  2  3  2  0
  3  4  1  0
  4  5  1  0
  4  6  1  0
  6  7  1  0
  6  8  2  0
  8  9  1  0
  9 10  1  0
 10 11  2  0
 10 12  2  0
 10 13  1  0
 13 14  2  0
 14 15  1  0
 15 16  2  0
 16 17  1  0
 17 18  2  0
 18 19  1  0
 19 20  2  0
 20 21  1  0
 20 22  1  0
 22 23  1  0
 22 24  2  0
 16 25  1  0
 25 26  2  0
  8  2  1  0
 26 13  1  0
 24 17  1  0
  1 27  1  0
  1 28  1  0
  1 29  1  0
  5 30  1  0
  5 31  1  0
  5 32  1  0
  7 33  1  0
  7 34  1  0
  7 35  1  0
 14 36  1  0
 15 37  1  0
 18 38  1  0
 19 39  1  0
 21 40  1  0
 24 41  1  0
 25 42  1  0
 26 43  1  0
M  CHG  1   9  -1
M  END
>  <UniqueID>  (30) 
30

>  <SMILES>  (30) 
Cc1nn(C)c(C)c1[N-]S(=O)(=O)c1ccc(-c2ccc(O)c(Cl)c2)cc1

>  <Energy>  (30) 
87.36769250887284

>  <Genealogy>  (30) 
Cc1nn(C)c(C)c1[N-]S(=O)(=O)c1ccc(-c2ccc(O)c(Cl)c2)cc1 (protonated)
Cc1nn(C)c(C)c1[N-]S(=O)(=O)c1ccc(-c2ccc(O)c(Cl)c2)cc1 (3D coordinates assigned)
Cc1nn(C)c(C)c1[N-]S(=O)(=O)c1ccc(-c2ccc(O)c(Cl)c2)cc1 (optimized conformer: 87.36769250887284 kcal/mol)

>  <smiles>  (30) 
Cc1nn(C)c(C)c1NS(=O)(=O)c1ccc(-c2ccc(O)c(Cl)c2)cc1

>  <score_type>  (30) 
oracle

>  <origin>  (30) 
adgpu

>  <m_score__min__energy>  (30) 
-9.7699999999999996

>  <m_primary>  (30) 
energy

$$$$
30:0
     RDKit          3D

 27 28  0  0  0  0  0  0  0  0999 V2000
   -2.1680   25.3200  -28.9010 N   0  0  0  0  0  0  0  0  0  0  0  0
   -2.4530   23.9330  -28.6760 C   0  0  0  0  0  0  0  0  0  0  0  0
   -1.7040   23.2250  -27.7220 C   0  0  0  0  0  0  0  0  0  0  0  0
   -1.9230   21.8600  -27.5230 C   0  0  0  0  0  0  0  0  0  0  0  0
   -2.8870   21.1880  -28.2760 C   0  0  0  0  0  0  0  0  0  0  0  0
   -3.6430   21.8820  -29.2230 C   0  0  0  0  0  0  0  0  0  0  0  0
   -3.4490   23.2580  -29.4180 C   0  0  0  0  0  0  0  0  0  0  0  0
   -4.2630   23.9470  -30.3810 N   0  0  0  0  0  0  0  0  0  0  0  0
   -3.8670   25.1810  -30.7850 O   0  0  0  0  0  0  0  0  0  0  0  0
   -5.4010   23.3240  -31.0150 C   0  0  0  0  0  0  0  0  0  0  0  0
   -5.2090   22.3020  -31.9630 C   0  0  0  0  0  0  0  0  0  0  0  0
   -6.3030   21.6900  -32.5820 C   0  0  0  0  0  0  0  0  0  0  0  0
   -7.6030   22.0860  -32.2570 C   0  0  0  0  0  0  0  0  0  0  0  0
   -7.8100   23.0920  -31.3120 C   0  0  0  0  0  0  0  0  0  0  0  0
   -6.7200   23.7080  -30.6910 C   0  0  0  0  0  0  0  0  0  0  0  0
   -1.9900   25.6740  -29.8670 H   0  0  0  0  0  0  0  0  0  0  0  0
   -2.1870   26.0180  -28.1260 H   0  0  0  0  0  0  0  0  0  0  0  0
   -0.9404   23.7486  -27.1280 H   0  0  0  0  0  0  0  0  0  0  0  0
   -1.3345   21.3135  -26.7713 H   0  0  0  0  0  0  0  0  0  0  0  0
   -3.0513   20.1111  -28.1234 H   0  0  0  0  0  0  0  0  0  0  0  0
   -4.3957   21.3464  -29.8202 H   0  0  0  0  0  0  0  0  0  0  0  0
   -3.3030   25.0180  -31.5850 H   0  0  0  0  0  0  0  0  0  0  0  0
   -4.1884   21.9816  -32.2195 H   0  0  0  0  0  0  0  0  0  0  0  0
   -6.1402   20.8959  -33.3256 H   0  0  0  0  0  0  0  0  0  0  0  0
   -8.4630   21.6050  -32.7458 H   0  0  0  0  0  0  0  0  0  0  0  0
   -8.8340   23.4009  -31.0552 H   0  0  0  0  0  0  0  0  0  0  0  0
   -6.8912   24.4976  -29.9445 H   0  0  0  0  0  0  0  0  0  0  0  0
  1  2  1  0
  2  3  2  0
  3  4  1  0
  4  5  2  0
  5  6  1  0
  6  7  2  0
  7  8  1  0
  8  9  1  0
  8 10  1  0
 10 11  2  0
 11 12  1  0
 12 13  2  0
 13 14  1  0
 14 15  2  0
  7  2  1  0
 15 10  1  0
  1 16  1  0
  1 17  1  0
  3 18  1  0
  4 19  1  0
  5 20  1  0
  6 21  1  0
  9 22  1  0
 11 23  1  0
 12 24  1  0
 13 25  1  0
 14 26  1  0
 15 27  1  0
M  END
>  <UniqueID>  (31) 
31

>  <SMILES>  (31) 
Nc1ccccc1N(O)c1ccccc1

>  <Energy>  (31) 
34.95015571751907

>  <Genealogy>  (31) 
Nc1ccccc1N(O)c1ccccc1 (3D coordinates assigned)
Nc1ccccc1N(O)c1ccccc1 (optimized conformer: 34.95015571751907 kcal/mol)

>  <smiles>  (31) 
Nc1ccccc1N(O)c1ccccc1

>  <score_type>  (31) 
oracle

>  <origin>  (31) 
adgpu

>  <m_score__min__energy>  (31) 
-6.9500000000000002

>  <m_primary>  (31) 
energy

$$$$
31:0
     RDKit          3D

 56 58  0  0  0  0  0  0  0  0999 V2000
   -9.5600   21.2210  -31.9150 C   0  0  0  0  0  0  0  0  0  0  0  0
   -8.3960   20.5580  -31.4360 O   0  0  0  0  0  0  0  0  0  0  0  0
   -7.1130   20.7070  -31.9840 C   0  0  0  0  0  0  0  0  0  0  0  0
   -6.5940   19.8060  -32.9350 C   0  0  0  0  0  0  0  0  0  0  0  0
   -5.3070   19.9800  -33.4460 C   0  0  0  0  0  0  0  0  0  0  0  0
   -4.5200   21.0610  -33.0270 C   0  0  0  0  0  0  0  0  0  0  0  0
   -3.0960   21.1960  -33.5050 C   0  0  0  0  0  0  0  0  0  0  0  0
   -2.4260   19.8290  -33.7140 C   0  0  0  0  0  0  0  0  0  0  0  0
   -1.5210   19.5190  -32.6090 N   0  0  0  0  0  0  0  0  0  0  0  0
   -0.8680   20.5280  -31.8310 C   0  0  0  0  0  0  0  0  0  0  0  0
    0.2850   20.9230  -32.1610 O   0  0  0  0  0  0  0  0  0  0  0  0
   -1.5050   21.0520  -30.6060 C   0  0  0  0  0  0  0  0  0  0  0  0
   -1.5280   20.2910  -29.4250 C   0  0  0  0  0  0  0  0  0  0  0  0
   -2.0880   20.8170  -28.2580 C   0  0  0  0  0  0  0  0  0  0  0  0
   -2.6180   22.1080  -28.2500 C   0  0  0  0  0  0  0  0  0  0  0  0
   -2.5910   22.8820  -29.4140 C   0  0  0  0  0  0  0  0  0  0  0  0
   -3.2360   24.5190  -29.4140 S   0  0  0  0  0  0  0  0  0  0  0  0
   -4.3500   24.6020  -28.4100 O   0  0  0  0  0  0  0  0  0  0  0  0
   -3.7680   24.8860  -30.7710 O   0  0  0  0  0  0  0  0  0  0  0  0
   -1.9920   25.6400  -28.9680 N   0  0  0  0  0  0  0  0  0  0  0  0
   -1.5640   25.9080  -27.6270 C   0  0  0  0  0  0  0  0  0  0  0  0
   -2.1200   25.2460  -26.5190 C   0  0  0  0  0  0  0  0  0  0  0  0
   -1.6840   25.5490  -25.2250 C   0  0  0  0  0  0  0  0  0  0  0  0
   -0.6810   26.5080  -25.0220 C   0  0  0  0  0  0  0  0  0  0  0  0
   -0.2240   26.8580  -23.6370 C   0  0  0  0  0  0  0  0  0  0  0  0
   -0.1360   27.1770  -26.1270 C   0  0  0  0  0  0  0  0  0  0  0  0
   -0.5700   26.8710  -27.4200 C   0  0  0  0  0  0  0  0  0  0  0  0
   -2.0400   22.3520  -30.5880 C   0  0  0  0  0  0  0  0  0  0  0  0
   -5.0380   21.9680  -32.0880 C   0  0  0  0  0  0  0  0  0  0  0  0
   -6.3320   21.7940  -31.5590 C   0  0  0  0  0  0  0  0  0  0  0  0
   -6.8710   22.6710  -30.6060 O   0  0  0  0  0  0  0  0  0  0  0  0
   -6.6310   24.0740  -30.5760 C   0  0  0  0  0  0  0  0  0  0  0  0
  -10.1634   21.5647  -31.0619 H   0  0  0  0  0  0  0  0  0  0  0  0
   -9.2638   22.0859  -32.5267 H   0  0  0  0  0  0  0  0  0  0  0  0
  -10.1528   20.5250  -32.5267 H   0  0  0  0  0  0  0  0  0  0  0  0
   -7.2076   18.9595  -33.2771 H   0  0  0  0  0  0  0  0  0  0  0  0
   -4.9086   19.2652  -34.1811 H   0  0  0  0  0  0  0  0  0  0  0  0
   -3.0923   21.7428  -34.4595 H   0  0  0  0  0  0  0  0  0  0  0  0
   -2.5289   21.7375  -32.7335 H   0  0  0  0  0  0  0  0  0  0  0  0
   -3.2026   19.0522  -33.7726 H   0  0  0  0  0  0  0  0  0  0  0  0
   -1.8444   19.8609  -34.6471 H   0  0  0  0  0  0  0  0  0  0  0  0
   -1.1031   19.2764  -29.4192 H   0  0  0  0  0  0  0  0  0  0  0  0
   -2.1113   20.2103  -27.3407 H   0  0  0  0  0  0  0  0  0  0  0  0
   -3.0570   22.5166  -27.3279 H   0  0  0  0  0  0  0  0  0  0  0  0
   -2.9012   24.4865  -26.6700 H   0  0  0  0  0  0  0  0  0  0  0  0
   -2.1300   25.0325  -24.3623 H   0  0  0  0  0  0  0  0  0  0  0  0
   -0.8726   26.3613  -22.9004 H   0  0  0  0  0  0  0  0  0  0  0  0
    0.8140   26.5217  -23.4974 H   0  0  0  0  0  0  0  0  0  0  0  0
   -0.2782   27.9478  -23.4974 H   0  0  0  0  0  0  0  0  0  0  0  0
    0.6362   27.9457  -25.9759 H   0  0  0  0  0  0  0  0  0  0  0  0
   -0.1266   27.3914  -28.2818 H   0  0  0  0  0  0  0  0  0  0  0  0
   -2.0258   22.9592  -31.5051 H   0  0  0  0  0  0  0  0  0  0  0  0
   -4.4271   22.8229  -31.7624 H   0  0  0  0  0  0  0  0  0  0  0  0
   -6.5729   24.4138  -29.5314 H   0  0  0  0  0  0  0  0  0  0  0  0
   -5.6821   24.2947  -31.0867 H   0  0  0  0  0  0  0  0  0  0  0  0
   -7.4526   24.5975  -31.0867 H   0  0  0  0  0  0  0  0  0  0  0  0
  1  2  1  0
  2  3  1  0
  3  4  2  0
  4  5  1  0
  5  6  2  0
  6  7  1  0
  7  8  1  0
  8  9  1  0
  9 10  1  0
 10 11  2  0
 10 12  1  0
 12 13  2  0
 13 14  1  0
 14 15  2  0
 15 16  1  0
 16 17  1  0
 17 18  2  0
 17 19  2  0
 17 20  1  0
 20 21  1  0
 21 22  2  0
 22 23  1  0
 23 24  2  0
 24 25  1  0
 24 26  1  0
 26 27  2  0
 16 28  2  0
  6 29  1  0
 29 30  2  0
 30 31  1  0
 31 32  1  0
 30  3  1  0
 28 12  1  0
 27 21  1  0
  1 33  1  0
  1 34  1  0
  1 35  1  0
  4 36  1  0
  5 37  1  0
  7 38  1  0
  7 39  1  0
  8 40  1  0
  8 41  1  0
 13 42  1  0
 14 43  1  0
 15 44  1  0
 22 45  1  0
 23 46  1  0
 25 47  1  0
 25 48  1  0
 25 49  1  0
 26 50  1  0
 27 51  1  0
 28 52  1  0
 29 53  1  0
 32 54  1  0
 32 55  1  0
 32 56  1  0
M  CHG  2   9  -1  20  -1
M  END
>  <UniqueID>  (32) 
32

>  <SMILES>  (32) 
COc1ccc(CC[N-]C(=O)c2cccc(S(=O)(=O)[N-]c3ccc(C)cc3)c2)cc1OC

>  <Energy>  (32) 
53.81021392196038

>  <Genealogy>  (32) 
COc1ccc(CC[N-]C(=O)c2cccc(S(=O)(=O)[N-]c3ccc(C)cc3)c2)cc1OC (protonated)
COc1ccc(CC[N-]C(=O)c2cccc(S(=O)(=O)[N-]c3ccc(C)cc3)c2)cc1OC (3D coordinates assigned)
COc1ccc(CC[N-]C(=O)c2cccc(S(=O)(=O)[N-]c3ccc(C)cc3)c2)cc1OC (optimized conformer: 53.81021392196038 kcal/mol)

>  <smiles>  (32) 
COc1ccc(CCNC(=O)c2cccc(S(=O)(=O)Nc3ccc(C)cc3)c2)cc1OC

>  <score_type>  (32) 
oracle

>  <origin>  (32) 
adgpu

>  <m_score__min__energy>  (32) 
-10.699999999999999

>  <m_primary>  (32) 
energy

$$$$
32:0
     RDKit          3D

 43 45  0  0  1  0  0  0  0  0999 V2000
   -5.1450   24.4980  -28.7380 N   0  0  0  0  0  0  0  0  0  0  0  0
   -5.1170   24.5150  -30.4600 S   0  0  0  0  0  0  0  0  0  0  0  0
   -6.4870   24.8060  -30.9950 O   0  0  0  0  0  0  0  0  0  0  0  0
   -4.1990   25.6700  -30.8490 O   0  0  0  0  0  0  0  0  0  0  0  0
   -4.5450   23.0240  -31.1300 C   0  0  0  0  0  0  0  0  0  0  0  0
   -3.6340   22.2910  -30.3680 C   0  0  0  0  0  0  0  0  0  0  0  0
   -3.1440   21.0990  -30.8340 C   0  0  0  0  0  0  0  0  0  0  0  0
   -3.5330   20.5930  -32.0560 C   0  0  0  0  0  0  0  0  0  0  0  0
   -2.9700   19.3540  -32.4690 N   0  0  0  0  0  0  0  0  0  0  0  0
   -1.9250   19.3350  -33.4550 C   0  0  0  0  0  0  0  0  0  0  0  0
   -1.5140   20.4200  -33.9500 O   0  0  0  0  0  0  0  0  0  0  0  0
   -1.2890   18.0920  -33.9310 C   0  0  0  0  0  0  0  0  0  0  0  0
   -2.5270   16.7690  -33.8860 S   0  0  0  0  0  0  0  0  0  0  0  0
   -4.1330   17.4760  -34.2140 C   0  0  0  0  0  0  0  0  0  0  0  0
   -5.0390   17.9210  -33.3160 N   0  0  0  0  0  0  0  0  0  0  0  0
   -6.1310   18.3980  -33.9640 C   0  0  0  0  0  0  0  0  0  0  0  0
   -7.2020   18.9160  -33.4070 N   0  0  0  0  0  0  0  0  0  0  0  0
   -7.2700   19.0070  -31.9410 C   0  0  0  0  0  0  0  0  0  0  0  0
   -7.8320   20.3270  -31.5220 C   0  0  0  0  0  0  0  0  0  0  0  0
   -9.0900   20.8510  -31.8500 C   0  0  0  0  0  0  0  0  0  0  0  0
   -9.2200   22.1060  -31.2620 C   0  0  0  0  0  0  0  0  0  0  0  0
   -8.0230   22.2900  -30.5950 C   0  0  0  0  0  0  0  0  0  0  0  0
   -7.2840   21.2560  -30.7800 O   0  0  0  0  0  0  0  0  0  0  0  0
   -5.8950   18.2450  -35.2830 N   0  0  0  0  0  0  0  0  0  0  0  0
   -4.6930   17.6900  -35.4400 N   0  0  0  0  0  0  0  0  0  0  0  0
   -4.4320   21.3090  -32.8160 C   0  0  0  0  0  0  0  0  0  0  0  0
   -4.9190   22.5110  -32.3340 C   0  0  0  0  0  0  0  0  0  0  0  0
   -4.8680   25.4160  -28.3190 H   0  0  0  0  0  0  0  0  0  0  0  0
   -6.0800   24.1770  -28.4060 H   0  0  0  0  0  0  0  0  0  0  0  0
   -3.3078   22.6718  -29.3889 H   0  0  0  0  0  0  0  0  0  0  0  0
   -2.4260   20.5347  -30.2208 H   0  0  0  0  0  0  0  0  0  0  0  0
   -3.3090   18.4560  -32.0680 H   0  0  0  0  0  0  0  0  0  0  0  0
   -0.9280   18.2292  -34.9610 H   0  0  0  0  0  0  0  0  0  0  0  0
   -0.4333   17.8335  -33.2899 H   0  0  0  0  0  0  0  0  0  0  0  0
   -7.9142   18.2017  -31.5582 H   0  0  0  0  0  0  0  0  0  0  0  0
   -6.2538   18.9079  -31.5318 H   0  0  0  0  0  0  0  0  0  0  0  0
   -9.8496   20.3525  -32.4701 H   0  0  0  0  0  0  0  0  0  0  0  0
  -10.0774   22.7930  -31.3156 H   0  0  0  0  0  0  0  0  0  0  0  0
   -7.7488   23.1759  -30.0034 H   0  0  0  0  0  0  0  0  0  0  0  0
   -6.5230   18.5060  -36.0820 H   0  0  0  0  0  0  0  0  0  0  0  0
   -4.2140   17.4380  -36.3390 H   0  0  0  0  0  0  0  0  0  0  0  0
   -4.7589   20.9292  -33.7952 H   0  0  0  0  0  0  0  0  0  0  0  0
   -5.6369   23.0744  -32.9482 H   0  0  0  0  0  0  0  0  0  0  0  0
  1  2  1  0
  2  3  2  0
  2  4  2  0
  2  5  1  0
  5  6  2  0
  6  7  1  0
  7  8  2  0
  8  9  1  0
  9 10  1  0
 10 11  2  0
 10 12  1  0
 12 13  1  0
 13 14  1  0
 14 15  2  0
 15 16  1  0
 16 17  2  0
 17 18  1  0
 18 19  1  0
 19 20  2  0
 20 21  1  0
 21 22  2  0
 22 23  1  0
 16 24  1  0
 24 25  1  0
  8 26  1  0
 26 27  2  0
 27  5  1  0
 25 14  1  0
 23 19  1  0
  1 28  1  0
  1 29  1  0
  6 30  1  0
  7 31  1  0
  9 32  1  0
 12 33  1  0
 12 34  1  0
 18 35  1  0
 18 36  1  0
 20 37  1  0
 21 38  1  0
 22 39  1  0
 24 40  1  0
 25 41  1  0
 26 42  1  0
 27 43  1  0
M  END
>  <smiles>  (33) 
NS(=O)(=O)c1ccc(NC(=O)CSc2nc(=NCc3ccco3)[nH][nH]2)cc1

>  <score_type>  (33) 
oracle

>  <origin>  (33) 
adgpu

>  <m_score__min__energy>  (33) 
-8.8599999999999994

>  <m_primary>  (33) 
energy

$$$$
33:0
     RDKit          3D

 55 58  0  0  0  0  0  0  0  0999 V2000
   -7.5320   21.9000  -32.2890 C   0  0  0  0  0  0  0  0  0  0  0  0
   -6.4520   22.7530  -31.6760 C   0  0  0  0  0  0  0  0  0  0  0  0
   -6.7920   24.0090  -31.1450 C   0  0  0  0  0  0  0  0  0  0  0  0
   -5.8140   24.8330  -30.5870 C   0  0  0  0  0  0  0  0  0  0  0  0
   -4.4830   24.4110  -30.5240 C   0  0  0  0  0  0  0  0  0  0  0  0
   -3.5010   25.2970  -29.9720 N   0  0  0  0  0  0  0  0  0  0  0  0
   -2.3110   24.8980  -29.2860 C   0  0  0  0  0  0  0  0  0  0  0  0
   -1.3280   25.6840  -29.2570 O   0  0  0  0  0  0  0  0  0  0  0  0
   -2.2780   23.6650  -28.5550 N   0  0  0  0  0  0  0  0  0  0  0  0
   -1.7170   22.4250  -29.0050 C   0  0  0  0  0  0  0  0  0  0  0  0
   -1.1250   22.2950  -30.2760 C   0  0  0  0  0  0  0  0  0  0  0  0
   -0.6210   21.0590  -30.6930 C   0  0  0  0  0  0  0  0  0  0  0  0
   -0.7180   19.9450  -29.8550 C   0  0  0  0  0  0  0  0  0  0  0  0
   -1.3220   20.0630  -28.6000 C   0  0  0  0  0  0  0  0  0  0  0  0
   -1.4120   18.9830  -27.7860 F   0  0  0  0  0  0  0  0  0  0  0  0
   -1.8260   21.2950  -28.1820 C   0  0  0  0  0  0  0  0  0  0  0  0
   -4.1270   23.1700  -31.0760 C   0  0  0  0  0  0  0  0  0  0  0  0
   -5.0970   22.3410  -31.6610 C   0  0  0  0  0  0  0  0  0  0  0  0
   -4.6680   21.0590  -32.2590 C   0  0  0  0  0  0  0  0  0  0  0  0
   -5.4900   19.9280  -32.1620 C   0  0  0  0  0  0  0  0  0  0  0  0
   -5.0710   18.7300  -32.7370 C   0  0  0  0  0  0  0  0  0  0  0  0
   -3.8730   18.6610  -33.3770 N   0  0  0  0  0  0  0  0  0  0  0  0
   -3.0340   19.7290  -33.4740 C   0  0  0  0  0  0  0  0  0  0  0  0
   -1.7710   19.5910  -34.1670 N   0  0  0  0  0  0  0  0  0  0  0  0
   -0.8480   20.7340  -34.2450 C   0  0  0  0  0  0  0  0  0  0  0  0
   -0.0570   20.7270  -35.5700 C   0  0  0  0  0  0  0  0  0  0  0  0
    0.3510   19.3740  -36.0350 N   0  0  0  0  0  0  0  0  0  0  0  0
    1.7380   19.3770  -36.5300 C   0  0  0  0  0  0  0  0  0  0  0  0
    0.1720   18.3170  -35.0240 C   0  0  0  0  0  0  0  0  0  0  0  0
   -1.2920   18.2640  -34.5880 C   0  0  0  0  0  0  0  0  0  0  0  0
   -3.4260   20.9550  -32.9000 C   0  0  0  0  0  0  0  0  0  0  0  0
   -8.1260   21.4309  -31.4908 H   0  0  0  0  0  0  0  0  0  0  0  0
   -8.1860   22.5280  -32.9119 H   0  0  0  0  0  0  0  0  0  0  0  0
   -7.0726   21.1183  -32.9119 H   0  0  0  0  0  0  0  0  0  0  0  0
   -7.8389   24.3456  -31.1695 H   0  0  0  0  0  0  0  0  0  0  0  0
   -6.0925   25.8219  -30.1938 H   0  0  0  0  0  0  0  0  0  0  0  0
   -1.0588   23.1677  -30.9424 H   0  0  0  0  0  0  0  0  0  0  0  0
   -0.1478   20.9636  -31.6814 H   0  0  0  0  0  0  0  0  0  0  0  0
   -0.3186   18.9741  -30.1833 H   0  0  0  0  0  0  0  0  0  0  0  0
   -2.3126   21.3805  -27.1992 H   0  0  0  0  0  0  0  0  0  0  0  0
   -3.0768   22.8439  -31.0497 H   0  0  0  0  0  0  0  0  0  0  0  0
   -6.4553   19.9855  -31.6377 H   0  0  0  0  0  0  0  0  0  0  0  0
   -5.7109   17.8376  -32.6731 H   0  0  0  0  0  0  0  0  0  0  0  0
   -1.4268   21.6670  -34.1782 H   0  0  0  0  0  0  0  0  0  0  0  0
   -0.1322   20.6594  -33.4131 H   0  0  0  0  0  0  0  0  0  0  0  0
   -0.6860   21.1832  -36.3486 H   0  0  0  0  0  0  0  0  0  0  0  0
    0.8707   21.2883  -35.3848 H   0  0  0  0  0  0  0  0  0  0  0  0
    2.4319   19.3785  -35.6765 H   0  0  0  0  0  0  0  0  0  0  0  0
    1.9110   18.4792  -37.1416 H   0  0  0  0  0  0  0  0  0  0  0  0
    1.9071   20.2755  -37.1416 H   0  0  0  0  0  0  0  0  0  0  0  0
    0.4608   17.3467  -35.4543 H   0  0  0  0  0  0  0  0  0  0  0  0
    0.8044   18.5368  -34.1512 H   0  0  0  0  0  0  0  0  0  0  0  0
   -1.9048   17.9123  -35.4310 H   0  0  0  0  0  0  0  0  0  0  0  0
   -1.3761   17.5763  -33.7336 H   0  0  0  0  0  0  0  0  0  0  0  0
   -2.7590   21.8279  -32.9549 H   0  0  0  0  0  0  0  0  0  0  0  0
  1  2  1  0
  2  3  2  0
  3  4  1  0
  4  5  2  0
  5  6  1  0
  6  7  1  0
  7  8  2  0
  7  9  1  0
  9 10  1  0
 10 11  2  0
 11 12  1  0
 12 13  2  0
 13 14  1  0
 14 15  1  0
 14 16  2  0
  5 17  1  0
 17 18  2  0
 18 19  1  0
 19 20  2  0
 20 21  1  0
 21 22  2  0
 22 23  1  0
 23 24  1  0
 24 25  1  0
 25 26  1  0
 26 27  1  0
 27 28  1  0
 27 29  1  0
 29 30  1  0
 23 31  2  0
 18  2  1  0
 31 19  1  0
 16 10  1  0
 30 24  1  0
  1 32  1  0
  1 33  1  0
  1 34  1  0
  3 35  1  0
  4 36  1  0
 11 37  1  0
 12 38  1  0
 13 39  1  0
 16 40  1  0
 17 41  1  0
 20 42  1  0
 21 43  1  0
 25 44  1  0
 25 45  1  0
 26 46  1  0
 26 47  1  0
 28 48  1  0
 28 49  1  0
 28 50  1  0
 29 51  1  0
 29 52  1  0
 30 53  1  0
 30 54  1  0
 31 55  1  0
M  CHG  2   6  -1   9  -1
M  END
>  <UniqueID>  (34) 
33

>  <SMILES>  (34) 
Cc1ccc([N-]C(=O)[N-]c2cccc(F)c2)cc1-c1ccnc(N2CCN(C)CC2)c1

>  <Energy>  (34) 
79.98808895453637

>  <Genealogy>  (34) 
Cc1ccc([N-]C(=O)[N-]c2cccc(F)c2)cc1-c1ccnc(N2CCN(C)CC2)c1 (protonated)
Cc1ccc([N-]C(=O)[N-]c2cccc(F)c2)cc1-c1ccnc(N2CCN(C)CC2)c1 (3D coordinates assigned)
Cc1ccc([N-]C(=O)[N-]c2cccc(F)c2)cc1-c1ccnc(N2CCN(C)CC2)c1 (nonaromatic ring conformer: 79.98808895453637 kcal/mol)

>  <smiles>  (34) 
Cc1ccc(NC(=O)Nc2cccc(F)c2)cc1-c1ccnc(N2CCN(C)CC2)c1

>  <score_type>  (34) 
oracle

>  <origin>  (34) 
adgpu

>  <m_score__min__energy>  (34) 
-12.119999999999999

>  <m_primary>  (34) 
energy

$$$$
34:0
     RDKit          3D

 51 54  0  0  0  0  0  0  0  0999 V2000
   -3.6000   22.4080  -31.7820 C   0  0  0  0  0  0  0  0  0  0  0  0
   -4.8180   23.1780  -31.3520 C   0  0  0  0  0  0  0  0  0  0  0  0
   -6.0880   22.6410  -31.6270 C   0  0  0  0  0  0  0  0  0  0  0  0
   -7.2450   23.2930  -31.1930 C   0  0  0  0  0  0  0  0  0  0  0  0
   -7.1470   24.4830  -30.4720 C   0  0  0  0  0  0  0  0  0  0  0  0
   -5.8940   25.0390  -30.2070 C   0  0  0  0  0  0  0  0  0  0  0  0
   -4.7270   24.4220  -30.6770 C   0  0  0  0  0  0  0  0  0  0  0  0
   -3.4730   25.0820  -30.4480 N   0  0  0  0  0  0  0  0  0  0  0  0
   -2.5900   24.8350  -29.3430 C   0  0  0  0  0  0  0  0  0  0  0  0
   -1.6890   25.6740  -29.0850 O   0  0  0  0  0  0  0  0  0  0  0  0
   -2.7200   23.6730  -28.5140 N   0  0  0  0  0  0  0  0  0  0  0  0
   -1.9300   22.4830  -28.6230 C   0  0  0  0  0  0  0  0  0  0  0  0
   -0.9500   22.3490  -29.6220 C   0  0  0  0  0  0  0  0  0  0  0  0
   -0.2130   21.1670  -29.7330 C   0  0  0  0  0  0  0  0  0  0  0  0
   -0.4350   20.1160  -28.8380 C   0  0  0  0  0  0  0  0  0  0  0  0
    0.2720   18.9610  -28.9530 N   0  0  0  0  0  0  0  0  0  0  0  0
    0.0940   17.9110  -28.1020 C   0  0  0  0  0  0  0  0  0  0  0  0
    0.8710   16.7080  -28.2850 N   0  0  0  0  0  0  0  0  0  0  0  0
    1.1190   15.8220  -27.1420 C   0  0  0  0  0  0  0  0  0  0  0  0
    2.4090   15.0290  -27.3680 C   0  0  0  0  0  0  0  0  0  0  0  0
    2.3570   14.2170  -28.6080 N   0  0  0  0  0  0  0  0  0  0  0  0
    3.7160   13.8860  -29.0610 C   0  0  0  0  0  0  0  0  0  0  0  0
    1.5490   14.8080  -29.7060 C   0  0  0  0  0  0  0  0  0  0  0  0
    1.4000   16.3330  -29.6030 C   0  0  0  0  0  0  0  0  0  0  0  0
   -0.8590   18.0170  -27.0720 C   0  0  0  0  0  0  0  0  0  0  0  0
   -1.5990   19.1910  -26.9290 C   0  0  0  0  0  0  0  0  0  0  0  0
   -1.3940   20.2570  -27.8130 C   0  0  0  0  0  0  0  0  0  0  0  0
   -2.1290   21.4460  -27.7040 C   0  0  0  0  0  0  0  0  0  0  0  0
   -3.0524   22.0618  -30.8931 H   0  0  0  0  0  0  0  0  0  0  0  0
   -3.9083   21.5403  -32.3837 H   0  0  0  0  0  0  0  0  0  0  0  0
   -2.9484   23.0586  -32.3837 H   0  0  0  0  0  0  0  0  0  0  0  0
   -6.1714   21.6990  -32.1889 H   0  0  0  0  0  0  0  0  0  0  0  0
   -8.2337   22.8676  -31.4200 H   0  0  0  0  0  0  0  0  0  0  0  0
   -8.0577   24.9839  -30.1119 H   0  0  0  0  0  0  0  0  0  0  0  0
   -5.8223   25.9693  -29.6243 H   0  0  0  0  0  0  0  0  0  0  0  0
   -0.7625   23.1786  -30.3196 H   0  0  0  0  0  0  0  0  0  0  0  0
    0.5428   21.0633  -30.5255 H   0  0  0  0  0  0  0  0  0  0  0  0
    1.2171   16.4252  -26.2274 H   0  0  0  0  0  0  0  0  0  0  0  0
    0.2771   15.1219  -27.0370 H   0  0  0  0  0  0  0  0  0  0  0  0
    3.2501   15.7341  -27.4412 H   0  0  0  0  0  0  0  0  0  0  0  0
    2.5360   14.3413  -26.5189 H   0  0  0  0  0  0  0  0  0  0  0  0
    4.3654   13.7278  -28.1873 H   0  0  0  0  0  0  0  0  0  0  0  0
    3.6872   12.9686  -29.6673 H   0  0  0  0  0  0  0  0  0  0  0  0
    4.1122   14.7139  -29.6673 H   0  0  0  0  0  0  0  0  0  0  0  0
    2.0350   14.5693  -30.6635 H   0  0  0  0  0  0  0  0  0  0  0  0
    0.5391   14.3781  -29.6328 H   0  0  0  0  0  0  0  0  0  0  0  0
    2.3838   16.8038  -29.7460 H   0  0  0  0  0  0  0  0  0  0  0  0
    0.7002   16.6764  -30.3792 H   0  0  0  0  0  0  0  0  0  0  0  0
   -1.0201   17.1762  -26.3813 H   0  0  0  0  0  0  0  0  0  0  0  0
   -2.3423   19.2789  -26.1230 H   0  0  0  0  0  0  0  0  0  0  0  0
   -2.8640   21.5643  -26.8942 H   0  0  0  0  0  0  0  0  0  0  0  0
  1  2  1  0
  2  3  2  0
  3  4  1  0
  4  5  2  0
  5  6  1  0
  6  7  2  0
  7  8  1  0
  8  9  1  0
  9 10  2  0
  9 11  1  0
 11 12  1  0
 12 13  2  0
 13 14  1  0
 14 15  2  0
 15 16  1  0
 16 17  2  0
 17 18  1  0
 18 19  1  0
 19 20  1  0
 20 21  1  0
 21 22  1  0
 21 23  1  0
 23 24  1  0
 17 25  1  0
 25 26  2  0
 26 27  1  0
 27 28  2  0
  7  2  1  0
 28 12  1  0
 27 15  1  0
 24 18  1  0
  1 29  1  0
  1 30  1  0
  1 31  1  0
  3 32  1  0
  4 33  1  0
  5 34  1  0
  6 35  1  0
 13 36  1  0
 14 37  1  0
 19 38  1  0
 19 39  1  0
 20 40  1  0
 20 41  1  0
 22 42  1  0
 22 43  1  0
 22 44  1  0
 23 45  1  0
 23 46  1  0
 24 47  1  0
 24 48  1  0
 25 49  1  0
 26 50  1  0
 28 51  1  0
M  CHG  2   8  -1  11  -1
M  END
>  <UniqueID>  (35) 
34

>  <SMILES>  (35) 
Cc1ccccc1[N-]C(=O)[N-]c1ccc2nc(N3CCN(C)CC3)ccc2c1

>  <Energy>  (35) 
74.87630769696266

>  <Genealogy>  (35) 
Cc1ccccc1[N-]C(=O)[N-]c1ccc2nc(N3CCN(C)CC3)ccc2c1 (protonated)
Cc1ccccc1[N-]C(=O)[N-]c1ccc2nc(N3CCN(C)CC3)ccc2c1 (3D coordinates assigned)
Cc1ccccc1[N-]C(=O)[N-]c1ccc2nc(N3CCN(C)CC3)ccc2c1 (nonaromatic ring conformer: 74.87630769696266 kcal/mol)

>  <smiles>  (35) 
Cc1ccccc1NC(=O)Nc1ccc2nc(N3CCN(C)CC3)ccc2c1

>  <score_type>  (35) 
oracle

>  <origin>  (35) 
adgpu

>  <m_score__min__energy>  (35) 
-10.81

>  <m_primary>  (35) 
energy

$$$$
35:0
     RDKit          3D

 52 54  0  0  0  0  0  0  0  0999 V2000
    2.7350   22.5420  -35.6910 C   0  0  0  0  0  0  0  0  0  0  0  0
    1.2460   22.7160  -35.6970 C   0  0  0  0  0  0  0  0  0  0  0  0
    0.7630   23.8790  -35.6700 O   0  0  0  0  0  0  0  0  0  0  0  0
    0.3540   21.5950  -35.7310 N   0  0  0  0  0  0  0  0  0  0  0  0
    0.4410   20.2400  -34.6520 S   0  0  0  0  0  0  0  0  0  0  0  0
   -0.0660   19.0140  -35.3590 O   0  0  0  0  0  0  0  0  0  0  0  0
    1.8740   20.0160  -34.2530 O   0  0  0  0  0  0  0  0  0  0  0  0
   -0.5590   20.5260  -33.2330 C   0  0  0  0  0  0  0  0  0  0  0  0
   -1.5460   21.5220  -33.2500 C   0  0  0  0  0  0  0  0  0  0  0  0
   -2.3390   21.7450  -32.1210 C   0  0  0  0  0  0  0  0  0  0  0  0
   -2.1680   20.9670  -30.9690 C   0  0  0  0  0  0  0  0  0  0  0  0
   -2.9850   21.2430  -29.8220 N   0  0  0  0  0  0  0  0  0  0  0  0
   -3.4940   22.5280  -29.4360 C   0  0  0  0  0  0  0  0  0  0  0  0
   -3.0120   23.1140  -28.4290 O   0  0  0  0  0  0  0  0  0  0  0  0
   -4.6280   23.1440  -30.1720 C   0  0  0  0  0  0  0  0  0  0  0  0
   -5.7790   22.3750  -30.4370 C   0  0  0  0  0  0  0  0  0  0  0  0
   -6.8670   22.9220  -31.1290 C   0  0  0  0  0  0  0  0  0  0  0  0
   -8.2870   21.9400  -31.4770 S   0  0  0  0  0  0  0  0  0  0  0  0
   -9.3950   22.8530  -31.9240 O   0  0  0  0  0  0  0  0  0  0  0  0
   -8.7100   21.2350  -30.2170 O   0  0  0  0  0  0  0  0  0  0  0  0
   -7.8760   20.7750  -32.7260 N   0  0  0  0  0  0  0  0  0  0  0  0
   -6.4380   20.4460  -32.7790 C   0  0  0  0  0  0  0  0  0  0  0  0
   -6.0210   19.4610  -31.6770 C   0  0  0  0  0  0  0  0  0  0  0  0
   -6.8780   18.1970  -31.7380 C   0  0  0  0  0  0  0  0  0  0  0  0
   -8.3590   18.5590  -31.6440 C   0  0  0  0  0  0  0  0  0  0  0  0
   -8.7460   19.5810  -32.7260 C   0  0  0  0  0  0  0  0  0  0  0  0
   -6.8100   24.2470  -31.5690 C   0  0  0  0  0  0  0  0  0  0  0  0
   -5.6790   25.0240  -31.3130 C   0  0  0  0  0  0  0  0  0  0  0  0
   -4.5920   24.4840  -30.6170 C   0  0  0  0  0  0  0  0  0  0  0  0
   -3.4930   25.2990  -30.3680 O   0  0  0  0  0  0  0  0  0  0  0  0
   -1.1590   19.9870  -30.9440 C   0  0  0  0  0  0  0  0  0  0  0  0
   -0.3630   19.7680  -32.0720 C   0  0  0  0  0  0  0  0  0  0  0  0
    3.0951   22.4999  -34.6525 H   0  0  0  0  0  0  0  0  0  0  0  0
    2.9970   21.6071  -36.2081 H   0  0  0  0  0  0  0  0  0  0  0  0
    3.2055   23.3913  -36.2081 H   0  0  0  0  0  0  0  0  0  0  0  0
   -1.6965   22.1295  -34.1546 H   0  0  0  0  0  0  0  0  0  0  0  0
   -3.1025   22.5367  -32.1373 H   0  0  0  0  0  0  0  0  0  0  0  0
   -5.8235   21.3303  -30.0955 H   0  0  0  0  0  0  0  0  0  0  0  0
   -6.2145   19.9963  -33.7577 H   0  0  0  0  0  0  0  0  0  0  0  0
   -5.8751   21.3785  -32.6255 H   0  0  0  0  0  0  0  0  0  0  0  0
   -4.9642   19.1891  -31.8153 H   0  0  0  0  0  0  0  0  0  0  0  0
   -6.1635   19.9411  -30.6976 H   0  0  0  0  0  0  0  0  0  0  0  0
   -6.6908   17.6766  -32.6888 H   0  0  0  0  0  0  0  0  0  0  0  0
   -6.6140   17.5431  -30.8938 H   0  0  0  0  0  0  0  0  0  0  0  0
   -8.9612   17.6482  -31.7776 H   0  0  0  0  0  0  0  0  0  0  0  0
   -8.5489   19.0050  -30.6566 H   0  0  0  0  0  0  0  0  0  0  0  0
   -8.6745   19.0945  -33.7100 H   0  0  0  0  0  0  0  0  0  0  0  0
   -9.7703   19.9188  -32.5100 H   0  0  0  0  0  0  0  0  0  0  0  0
   -7.6591   24.6791  -32.1189 H   0  0  0  0  0  0  0  0  0  0  0  0
   -5.6421   26.0670  -31.6605 H   0  0  0  0  0  0  0  0  0  0  0  0
   -0.9959   19.3911  -30.0339 H   0  0  0  0  0  0  0  0  0  0  0  0
    0.4209   18.9967  -32.0475 H   0  0  0  0  0  0  0  0  0  0  0  0
  1  2  1  0
  2  3  2  0
  2  4  1  0
  4  5  1  0
  5  6  2  0
  5  7  2  0
  5  8  1  0
  8  9  2  0
  9 10  1  0
 10 11  2  0
 11 12  1  0
 12 13  1  0
 13 14  2  0
 13 15  1  0
 15 16  2  0
 16 17  1  0
 17 18  1  0
 18 19  2  0
 18 20  2  0
 18 21  1  0
 21 22  1  0
 22 23  1  0
 23 24  1  0
 24 25  1  0
 25 26  1  0
 17 27  2  0
 27 28  1  0
 28 29  2  0
 29 30  1  0
 11 31  1  0
 31 32  2  0
 32  8  1  0
 29 15  1  0
 26 21  1  0
  1 33  1  0
  1 34  1  0
  1 35  1  0
  9 36  1  0
 10 37  1  0
 16 38  1  0
 22 39  1  0
 22 40  1  0
 23 41  1  0
 23 42  1  0
 24 43  1  0
 24 44  1  0
 25 45  1  0
 25 46  1  0
 26 47  1  0
 26 48  1  0
 27 49  1  0
 28 50  1  0
 31 51  1  0
 32 52  1  0
M  CHG  3   4  -1  12  -1  30  -1
M  END
>  <UniqueID>  (36) 
35

>  <SMILES>  (36) 
CC(=O)[N-]S(=O)(=O)c1ccc([N-]C(=O)c2cc(S(=O)(=O)N3CCCCC3)ccc2[O-])cc1

>  <Energy>  (36) 
61.61408369415104

>  <Genealogy>  (36) 
CC(=O)[N-]S(=O)(=O)c1ccc([N-]C(=O)c2cc(S(=O)(=O)N3CCCCC3)ccc2[O-])cc1 (protonated)
CC(=O)[N-]S(=O)(=O)c1ccc([N-]C(=O)c2cc(S(=O)(=O)N3CCCCC3)ccc2[O-])cc1 (3D coordinates assigned)
CC(=O)[N-]S(=O)(=O)c1ccc([N-]C(=O)c2cc(S(=O)(=O)N3CCCCC3)ccc2[O-])cc1 (nonaromatic ring conformer: 61.61408369415104 kcal/mol)

>  <smiles>  (36) 
CC(=O)NS(=O)(=O)c1ccc(NC(=O)c2cc(S(=O)(=O)N3CCCCC3)ccc2O)cc1

>  <score_type>  (36) 
oracle

>  <origin>  (36) 
adgpu

>  <m_score__min__energy>  (36) 
-13.710000000000001

>  <m_primary>  (36) 
energy

$$$$
36:0
     RDKit          3D

 39 41  0  0  0  0  0  0  0  0999 V2000
   -3.1680   21.7100  -33.7360 O   0  0  0  0  0  0  0  0  0  0  0  0
   -2.5260   21.6680  -32.6520 C   0  0  0  0  0  0  0  0  0  0  0  0
   -3.0550   22.3570  -31.5120 N   0  0  0  0  0  0  0  0  0  0  0  0
   -4.4020   22.8340  -31.3610 C   0  0  0  0  0  0  0  0  0  0  0  0
   -5.5040   22.0290  -31.7040 C   0  0  0  0  0  0  0  0  0  0  0  0
   -6.8050   22.5060  -31.5360 C   0  0  0  0  0  0  0  0  0  0  0  0
   -7.0200   23.7770  -31.0040 C   0  0  0  0  0  0  0  0  0  0  0  0
   -5.9350   24.5790  -30.6410 C   0  0  0  0  0  0  0  0  0  0  0  0
   -4.6180   24.1190  -30.8280 C   0  0  0  0  0  0  0  0  0  0  0  0
   -3.4830   24.9120  -30.4480 N   0  0  0  0  0  0  0  0  0  0  0  0
   -2.6050   24.6760  -29.3400 C   0  0  0  0  0  0  0  0  0  0  0  0
   -1.9560   25.6350  -28.8400 O   0  0  0  0  0  0  0  0  0  0  0  0
   -2.4110   23.3000  -28.8120 C   0  0  0  0  0  0  0  0  0  0  0  0
   -3.4550   22.6690  -28.1050 C   0  0  0  0  0  0  0  0  0  0  0  0
   -3.2940   21.3770  -27.6000 C   0  0  0  0  0  0  0  0  0  0  0  0
   -2.0930   20.6930  -27.7920 C   0  0  0  0  0  0  0  0  0  0  0  0
   -1.0490   21.3020  -28.4910 C   0  0  0  0  0  0  0  0  0  0  0  0
   -1.1990   22.5960  -29.0010 C   0  0  0  0  0  0  0  0  0  0  0  0
   -0.1570   23.1470  -29.6740 F   0  0  0  0  0  0  0  0  0  0  0  0
   -1.2710   20.8830  -32.5850 C   0  0  0  0  0  0  0  0  0  0  0  0
   -1.0650   20.0060  -31.5050 C   0  0  0  0  0  0  0  0  0  0  0  0
    0.1020   19.2410  -31.4270 C   0  0  0  0  0  0  0  0  0  0  0  0
    1.0770   19.3490  -32.4190 C   0  0  0  0  0  0  0  0  0  0  0  0
    0.8960   20.2310  -33.4850 C   0  0  0  0  0  0  0  0  0  0  0  0
   -0.2680   21.0100  -33.5710 C   0  0  0  0  0  0  0  0  0  0  0  0
   -0.4170   21.9190  -34.6180 O   0  0  0  0  0  0  0  0  0  0  0  0
   -5.3394   21.0186  -32.1066 H   0  0  0  0  0  0  0  0  0  0  0  0
   -7.6616   21.8787  -31.8236 H   0  0  0  0  0  0  0  0  0  0  0  0
   -8.0464   24.1491  -30.8698 H   0  0  0  0  0  0  0  0  0  0  0  0
   -6.1109   25.5744  -30.2071 H   0  0  0  0  0  0  0  0  0  0  0  0
   -4.4059   23.1997  -27.9496 H   0  0  0  0  0  0  0  0  0  0  0  0
   -4.1164   20.8971  -27.0492 H   0  0  0  0  0  0  0  0  0  0  0  0
   -1.9689   19.6754  -27.3932 H   0  0  0  0  0  0  0  0  0  0  0  0
   -0.1030   20.7612  -28.6416 H   0  0  0  0  0  0  0  0  0  0  0  0
   -1.8274   19.9216  -30.7165 H   0  0  0  0  0  0  0  0  0  0  0  0
    0.2520   18.5527  -30.5822 H   0  0  0  0  0  0  0  0  0  0  0  0
    1.9898   18.7379  -32.3607 H   0  0  0  0  0  0  0  0  0  0  0  0
    1.6699   20.3161  -34.2621 H   0  0  0  0  0  0  0  0  0  0  0  0
   -1.3270   22.2640  -34.8980 H   0  0  0  0  0  0  0  0  0  0  0  0
  1  2  2  0
  2  3  1  0
  3  4  1  0
  4  5  2  0
  5  6  1  0
  6  7  2  0
  7  8  1  0
  8  9  2  0
  9 10  1  0
 10 11  1  0
 11 12  2  0
 11 13  1  0
 13 14  2  0
 14 15  1  0
 15 16  2  0
 16 17  1  0
 17 18  2  0
 18 19  1  0
  2 20  1  0
 20 21  2  0
 21 22  1  0
 22 23  2  0
 23 24  1  0
 24 25  2  0
 25 26  1  0
  9  4  1  0
 18 13  1  0
 25 20  1  0
  5 27  1  0
  6 28  1  0
  7 29  1  0
  8 30  1  0
 14 31  1  0
 15 32  1  0
 16 33  1  0
 17 34  1  0
 21 35  1  0
 22 36  1  0
 23 37  1  0
 24 38  1  0
 26 39  1  0
M  CHG  2   3  -1  10  -1
M  END
>  <UniqueID>  (37) 
36

>  <SMILES>  (37) 
O=C([N-]c1ccccc1[N-]C(=O)c1ccccc1F)c1ccccc1O

>  <Energy>  (37) 
56.009562150296105

>  <Genealogy>  (37) 
O=C([N-]c1ccccc1[N-]C(=O)c1ccccc1F)c1ccccc1O (protonated)
O=C([N-]c1ccccc1[N-]C(=O)c1ccccc1F)c1ccccc1O (3D coordinates assigned)
O=C([N-]c1ccccc1[N-]C(=O)c1ccccc1F)c1ccccc1O (optimized conformer: 56.009562150296105 kcal/mol)

>  <smiles>  (37) 
O=C(Nc1ccccc1NC(=O)c1ccccc1F)c1ccccc1O

>  <score_type>  (37) 
oracle

>  <origin>  (37) 
adgpu

>  <m_score__min__energy>  (37) 
-10.98

>  <m_primary>  (37) 
energy

$$$$
37:0
     RDKit          3D

 39 41  0  0  0  0  0  0  0  0999 V2000
   -9.8590   19.1080  -32.6880 N   0  0  0  0  0  0  0  0  0  0  0  0
   -8.7050   19.1860  -32.7200 C   0  0  0  0  0  0  0  0  0  0  0  0
   -7.2700   19.2850  -32.7570 C   0  0  0  0  0  0  0  0  0  0  0  0
   -6.4810   18.2250  -32.2910 C   0  0  0  0  0  0  0  0  0  0  0  0
   -5.0870   18.3160  -32.3380 C   0  0  0  0  0  0  0  0  0  0  0  0
   -4.4720   19.4660  -32.8490 C   0  0  0  0  0  0  0  0  0  0  0  0
   -2.7160   19.5380  -32.9700 S   0  0  0  0  0  0  0  0  0  0  0  0
   -2.3430   20.4930  -34.0680 O   0  0  0  0  0  0  0  0  0  0  0  0
   -2.1500   18.1830  -33.2900 O   0  0  0  0  0  0  0  0  0  0  0  0
   -2.0330   20.0920  -31.4740 N   0  0  0  0  0  0  0  0  0  0  0  0
   -2.1750   21.4150  -30.9390 C   0  0  0  0  0  0  0  0  0  0  0  0
   -1.1020   21.9790  -30.2420 C   0  0  0  0  0  0  0  0  0  0  0  0
   -1.2010   23.2670  -29.7130 C   0  0  0  0  0  0  0  0  0  0  0  0
   -2.3720   24.0130  -29.8820 C   0  0  0  0  0  0  0  0  0  0  0  0
   -2.4400   25.2930  -29.3370 O   0  0  0  0  0  0  0  0  0  0  0  0
   -3.4660   23.4650  -30.5850 C   0  0  0  0  0  0  0  0  0  0  0  0
   -4.7000   24.2590  -30.8330 C   0  0  0  0  0  0  0  0  0  0  0  0
   -4.6140   25.5110  -30.9570 O   0  0  0  0  0  0  0  0  0  0  0  0
   -6.0290   23.6190  -30.9900 C   0  0  0  0  0  0  0  0  0  0  0  0
   -6.5860   22.8440  -29.9560 C   0  0  0  0  0  0  0  0  0  0  0  0
   -7.8280   22.2260  -30.1260 C   0  0  0  0  0  0  0  0  0  0  0  0
   -8.5300   22.3830  -31.3240 C   0  0  0  0  0  0  0  0  0  0  0  0
   -7.9970   23.1700  -32.3480 C   0  0  0  0  0  0  0  0  0  0  0  0
   -6.7560   23.7920  -32.1810 C   0  0  0  0  0  0  0  0  0  0  0  0
   -3.3530   22.1640  -31.1060 C   0  0  0  0  0  0  0  0  0  0  0  0
   -5.2630   20.5310  -33.3080 C   0  0  0  0  0  0  0  0  0  0  0  0
   -6.6570   20.4380  -33.2650 C   0  0  0  0  0  0  0  0  0  0  0  0
   -6.9592   17.3202  -31.8877 H   0  0  0  0  0  0  0  0  0  0  0  0
   -4.4707   17.4814  -31.9724 H   0  0  0  0  0  0  0  0  0  0  0  0
   -0.1737   21.4039  -30.1097 H   0  0  0  0  0  0  0  0  0  0  0  0
   -0.3532   23.6977  -29.1601 H   0  0  0  0  0  0  0  0  0  0  0  0
   -6.0407   22.7238  -29.0083 H   0  0  0  0  0  0  0  0  0  0  0  0
   -8.2533   21.6154  -29.3159 H   0  0  0  0  0  0  0  0  0  0  0  0
   -9.5022   21.8870  -31.4608 H   0  0  0  0  0  0  0  0  0  0  0  0
   -8.5546   23.3005  -33.2872 H   0  0  0  0  0  0  0  0  0  0  0  0
   -6.3462   24.4201  -32.9857 H   0  0  0  0  0  0  0  0  0  0  0  0
   -4.2002   21.7250  -31.6533 H   0  0  0  0  0  0  0  0  0  0  0  0
   -4.7851   21.4400  -33.7021 H   0  0  0  0  0  0  0  0  0  0  0  0
   -7.2742   21.2718  -33.6308 H   0  0  0  0  0  0  0  0  0  0  0  0
  1  2  3  0
  2  3  1  0
  3  4  2  0
  4  5  1  0
  5  6  2  0
  6  7  1  0
  7  8  2  0
  7  9  2  0
  7 10  1  0
 10 11  1  0
 11 12  2  0
 12 13  1  0
 13 14  2  0
 14 15  1  0
 14 16  1  0
 16 17  1  0
 17 18  2  0
 17 19  1  0
 19 20  2  0
 20 21  1  0
 21 22  2  0
 22 23  1  0
 23 24  2  0
 16 25  2  0
  6 26  1  0
 26 27  2  0
 27  3  1  0
 25 11  1  0
 24 19  1  0
  4 28  1  0
  5 29  1  0
 12 30  1  0
 13 31  1  0
 20 32  1  0
 21 33  1  0
 22 34  1  0
 23 35  1  0
 24 36  1  0
 25 37  1  0
 26 38  1  0
 27 39  1  0
M  CHG  2  10  -1  15  -1
M  END
>  <UniqueID>  (38) 
37

>  <SMILES>  (38) 
N#Cc1ccc(S(=O)(=O)[N-]c2ccc([O-])c(C(=O)c3ccccc3)c2)cc1

>  <Energy>  (38) 
50.253217483249294

>  <Genealogy>  (38) 
N#Cc1ccc(S(=O)(=O)[N-]c2ccc([O-])c(C(=O)c3ccccc3)c2)cc1 (protonated)
N#Cc1ccc(S(=O)(=O)[N-]c2ccc([O-])c(C(=O)c3ccccc3)c2)cc1 (3D coordinates assigned)
N#Cc1ccc(S(=O)(=O)[N-]c2ccc([O-])c(C(=O)c3ccccc3)c2)cc1 (optimized conformer: 50.253217483249294 kcal/mol)

>  <smiles>  (38) 
N#Cc1ccc(S(=O)(=O)Nc2ccc(O)c(C(=O)c3ccccc3)c2)cc1

>  <score_type>  (38) 
oracle

>  <origin>  (38) 
adgpu

>  <m_score__min__energy>  (38) 
-12.539999999999999

>  <m_primary>  (38) 
energy

$$$$
38:0
     RDKit          3D

 37 39  0  0  0  0  0  0  0  0999 V2000
   -4.4320   13.4660  -34.2650 C   0  0  0  0  0  0  0  0  0  0  0  0
   -4.8900   14.8910  -34.3530 C   0  0  0  0  0  0  0  0  0  0  0  0
   -4.0390   15.8770  -34.8760 C   0  0  0  0  0  0  0  0  0  0  0  0
   -4.4520   17.2110  -34.9240 C   0  0  0  0  0  0  0  0  0  0  0  0
   -5.7170   17.5800  -34.4520 C   0  0  0  0  0  0  0  0  0  0  0  0
   -6.0890   18.9310  -34.5030 O   0  0  0  0  0  0  0  0  0  0  0  0
   -5.5970   19.9430  -33.6650 C   0  0  0  0  0  0  0  0  0  0  0  0
   -4.2210   20.1170  -33.4370 C   0  0  0  0  0  0  0  0  0  0  0  0
   -3.7680   21.1260  -32.5830 C   0  0  0  0  0  0  0  0  0  0  0  0
   -4.6830   21.9730  -31.9310 C   0  0  0  0  0  0  0  0  0  0  0  0
   -4.2210   23.0480  -31.0230 C   0  0  0  0  0  0  0  0  0  0  0  0
   -3.4620   22.9200  -29.8740 C   0  0  0  0  0  0  0  0  0  0  0  0
   -3.2960   24.1640  -29.3950 N   0  0  0  0  0  0  0  0  0  0  0  0
   -2.5100   24.5530  -28.2300 C   0  0  0  0  0  0  0  0  0  0  0  0
   -1.2400   25.2080  -28.6690 C   0  0  0  0  0  0  0  0  0  0  0  0
   -1.2360   26.4240  -28.9960 O   0  0  0  0  0  0  0  0  0  0  0  0
   -0.0730   24.4640  -28.7720 O   0  0  0  0  0  0  0  0  0  0  0  0
   -3.9000   25.0150  -30.2080 N   0  0  0  0  0  0  0  0  0  0  0  0
   -4.4780   24.3620  -31.2050 N   0  0  0  0  0  0  0  0  0  0  0  0
   -6.0590   21.7790  -32.1470 C   0  0  0  0  0  0  0  0  0  0  0  0
   -6.5080   20.7680  -33.0020 C   0  0  0  0  0  0  0  0  0  0  0  0
   -6.5560   16.5980  -33.8930 C   0  0  0  0  0  0  0  0  0  0  0  0
   -6.1440   15.2630  -33.8450 C   0  0  0  0  0  0  0  0  0  0  0  0
   -4.3386   13.1755  -33.2082 H   0  0  0  0  0  0  0  0  0  0  0  0
   -5.1658   12.8137  -34.7611 H   0  0  0  0  0  0  0  0  0  0  0  0
   -3.4556   13.3634  -34.7611 H   0  0  0  0  0  0  0  0  0  0  0  0
   -3.0426   15.5984  -35.2497 H   0  0  0  0  0  0  0  0  0  0  0  0
   -3.7781   17.9767  -35.3357 H   0  0  0  0  0  0  0  0  0  0  0  0
   -3.4965   19.4550  -33.9338 H   0  0  0  0  0  0  0  0  0  0  0  0
   -2.6884   21.2591  -32.4193 H   0  0  0  0  0  0  0  0  0  0  0  0
   -3.0726   21.9873  -29.4398 H   0  0  0  0  0  0  0  0  0  0  0  0
   -3.0909   25.2577  -27.6168 H   0  0  0  0  0  0  0  0  0  0  0  0
   -2.2699   23.6567  -27.6393 H   0  0  0  0  0  0  0  0  0  0  0  0
   -6.7878   22.4278  -31.6392 H   0  0  0  0  0  0  0  0  0  0  0  0
   -7.5876   20.6212  -33.1537 H   0  0  0  0  0  0  0  0  0  0  0  0
   -7.5402   16.8822  -33.4921 H   0  0  0  0  0  0  0  0  0  0  0  0
   -6.8056   14.5010  -33.4072 H   0  0  0  0  0  0  0  0  0  0  0  0
  1  2  1  0
  2  3  2  0
  3  4  1  0
  4  5  2  0
  5  6  1  0
  6  7  1  0
  7  8  2  0
  8  9  1  0
  9 10  2  0
 10 11  1  0
 11 12  2  0
 12 13  1  0
 13 14  1  0
 14 15  1  0
 15 16  2  0
 15 17  1  0
 13 18  1  0
 18 19  2  0
 10 20  1  0
 20 21  2  0
  5 22  1  0
 22 23  2  0
 23  2  1  0
 21  7  1  0
 19 11  1  0
  1 24  1  0
  1 25  1  0
  1 26  1  0
  3 27  1  0
  4 28  1  0
  8 29  1  0
  9 30  1  0
 12 31  1  0
 14 32  1  0
 14 33  1  0
 20 34  1  0
 21 35  1  0
 22 36  1  0
 23 37  1  0
M  CHG  1  17  -1
M  END
>  <UniqueID>  (39) 
38

>  <SMILES>  (39) 
Cc1ccc(Oc2ccc(-c3cn(CC(=O)[O-])nn3)cc2)cc1

>  <Energy>  (39) 
79.2949089334368

>  <Genealogy>  (39) 
Cc1ccc(Oc2ccc(-c3cn(CC(=O)[O-])nn3)cc2)cc1 (protonated)
Cc1ccc(Oc2ccc(-c3cn(CC(=O)[O-])nn3)cc2)cc1 (3D coordinates assigned)
Cc1ccc(Oc2ccc(-c3cn(CC(=O)[O-])nn3)cc2)cc1 (optimized conformer: 79.2949089334368 kcal/mol)

>  <smiles>  (39) 
Cc1ccc(Oc2ccc(-c3cn(CC(=O)O)nn3)cc2)cc1

>  <score_type>  (39) 
oracle

>  <origin>  (39) 
adgpu

>  <m_score__min__energy>  (39) 
-9.9600000000000009

>  <m_primary>  (39) 
energy

$$$$
39:0
     RDKit          3D

 45 47  0  0  0  0  0  0  0  0999 V2000
   -3.9290   25.4070  -30.8360 N   0  0  0  0  0  0  0  0  0  0  0  0
   -5.1410   24.8090  -29.7540 S   0  0  0  0  0  0  0  0  0  0  0  0
   -6.1710   25.8780  -29.5220 O   0  0  0  0  0  0  0  0  0  0  0  0
   -4.5110   24.4550  -28.4360 O   0  0  0  0  0  0  0  0  0  0  0  0
   -5.8950   23.3740  -30.4580 C   0  0  0  0  0  0  0  0  0  0  0  0
   -7.2700   23.1420  -30.2920 C   0  0  0  0  0  0  0  0  0  0  0  0
   -7.8670   22.0200  -30.8800 C   0  0  0  0  0  0  0  0  0  0  0  0
   -7.0990   21.1240  -31.6450 C   0  0  0  0  0  0  0  0  0  0  0  0
   -7.8820   19.7720  -32.4660 S   0  0  0  0  0  0  0  0  0  0  0  0
   -8.2120   18.6710  -31.4920 O   0  0  0  0  0  0  0  0  0  0  0  0
   -9.1620   20.2500  -33.0920 O   0  0  0  0  0  0  0  0  0  0  0  0
   -6.8170   19.1910  -33.7130 N   0  0  0  0  0  0  0  0  0  0  0  0
   -5.8810   18.1190  -33.5350 C   0  0  0  0  0  0  0  0  0  0  0  0
   -6.3090   16.8430  -33.1230 C   0  0  0  0  0  0  0  0  0  0  0  0
   -5.3820   15.8190  -32.9410 C   0  0  0  0  0  0  0  0  0  0  0  0
   -4.0240   16.0590  -33.1480 C   0  0  0  0  0  0  0  0  0  0  0  0
   -3.5740   17.3250  -33.5620 C   0  0  0  0  0  0  0  0  0  0  0  0
   -1.8380   17.5920  -33.7730 S   0  0  0  0  0  0  0  0  0  0  0  0
   -1.4350   17.1220  -35.1400 O   0  0  0  0  0  0  0  0  0  0  0  0
   -1.0810   16.8340  -32.7180 O   0  0  0  0  0  0  0  0  0  0  0  0
   -1.4790   19.2840  -33.6370 N   0  0  0  0  0  0  0  0  0  0  0  0
   -1.3540   20.0100  -32.4080 C   0  0  0  0  0  0  0  0  0  0  0  0
   -0.5440   19.5540  -31.3470 C   0  0  0  0  0  0  0  0  0  0  0  0
   -0.4190   20.3100  -30.1790 C   0  0  0  0  0  0  0  0  0  0  0  0
   -1.1090   21.5200  -30.0510 C   0  0  0  0  0  0  0  0  0  0  0  0
   -1.9360   21.9680  -31.0880 C   0  0  0  0  0  0  0  0  0  0  0  0
   -2.0600   21.2160  -32.2630 C   0  0  0  0  0  0  0  0  0  0  0  0
   -2.8800   21.6790  -33.2890 O   0  0  0  0  0  0  0  0  0  0  0  0
   -4.5170   18.3590  -33.7770 C   0  0  0  0  0  0  0  0  0  0  0  0
   -4.1330   19.6320  -34.2090 O   0  0  0  0  0  0  0  0  0  0  0  0
   -5.7280   21.3590  -31.8160 C   0  0  0  0  0  0  0  0  0  0  0  0
   -5.1280   22.4790  -31.2240 C   0  0  0  0  0  0  0  0  0  0  0  0
   -3.0010   25.2740  -30.3660 H   0  0  0  0  0  0  0  0  0  0  0  0
   -7.8782   23.8417  -29.7000 H   0  0  0  0  0  0  0  0  0  0  0  0
   -8.9432   21.8384  -30.7427 H   0  0  0  0  0  0  0  0  0  0  0  0
   -7.3778   16.6539  -32.9443 H   0  0  0  0  0  0  0  0  0  0  0  0
   -5.7220   14.8191  -32.6334 H   0  0  0  0  0  0  0  0  0  0  0  0
   -3.2973   15.2494  -32.9857 H   0  0  0  0  0  0  0  0  0  0  0  0
   -0.0079   18.5980  -31.4398 H   0  0  0  0  0  0  0  0  0  0  0  0
    0.2224   19.9536  -29.3595 H   0  0  0  0  0  0  0  0  0  0  0  0
   -1.0018   22.1198  -29.1352 H   0  0  0  0  0  0  0  0  0  0  0  0
   -2.4895   22.9124  -30.9797 H   0  0  0  0  0  0  0  0  0  0  0  0
   -3.4320   20.1890  -33.7450 H   0  0  0  0  0  0  0  0  0  0  0  0
   -5.1220   20.6637  -32.4155 H   0  0  0  0  0  0  0  0  0  0  0  0
   -4.0512   22.6585  -31.3596 H   0  0  0  0  0  0  0  0  0  0  0  0
  1  2  1  0
  2  3  2  0
  2  4  2  0
  2  5  1  0
  5  6  2  0
  6  7  1  0
  7  8  2  0
  8  9  1  0
  9 10  2  0
  9 11  2  0
  9 12  1  0
 12 13  1  0
 13 14  2  0
 14 15  1  0
 15 16  2  0
 16 17  1  0
 17 18  1  0
 18 19  2  0
 18 20  2  0
 18 21  1  0
 21 22  1  0
 22 23  2  0
 23 24  1  0
 24 25  2  0
 25 26  1  0
 26 27  2  0
 27 28  1  0
 17 29  2  0
 29 30  1  0
  8 31  1  0
 31 32  2  0
 32  5  1  0
 29 13  1  0
 27 22  1  0
  1 33  1  0
  6 34  1  0
  7 35  1  0
 14 36  1  0
 15 37  1  0
 16 38  1  0
 23 39  1  0
 24 40  1  0
 25 41  1  0
 26 42  1  0
 30 43  1  0
 31 44  1  0
 32 45  1  0
M  CHG  4   1  -1  12  -1  21  -1  28  -1
M  END
>  <UniqueID>  (40) 
39

>  <SMILES>  (40) 
[NH-]S(=O)(=O)c1ccc(S(=O)(=O)[N-]c2cccc(S(=O)(=O)[N-]c3ccccc3[O-])c2O)cc1

>  <Energy>  (40) 
59.98847222132517

>  <Genealogy>  (40) 
[NH-]S(=O)(=O)c1ccc(S(=O)(=O)[N-]c2cccc(S(=O)(=O)[N-]c3ccccc3[O-])c2O)cc1 (protonated)
[NH-]S(=O)(=O)c1ccc(S(=O)(=O)[N-]c2cccc(S(=O)(=O)[N-]c3ccccc3[O-])c2O)cc1 (3D coordinates assigned)
[NH-]S(=O)(=O)c1ccc(S(=O)(=O)[N-]c2cccc(S(=O)(=O)[N-]c3ccccc3[O-])c2O)cc1 (optimized conformer: 59.98847222132517 kcal/mol)

>  <smiles>  (40) 
NS(=O)(=O)c1ccc(S(=O)(=O)Nc2cccc(S(=O)(=O)Nc3ccccc3O)c2O)cc1

>  <score_type>  (40) 
oracle

>  <origin>  (40) 
adgpu

>  <m_score__min__energy>  (40) 
-13.130000000000001

>  <m_primary>  (40) 
energy

$$$$
40:0
     RDKit          3D

 48 51  0  0  0  0  0  0  0  0999 V2000
   -5.4090   25.2790  -30.6260 C   0  0  0  0  0  0  0  0  0  0  0  0
   -4.3810   24.2120  -30.8360 C   0  0  0  0  0  0  0  0  0  0  0  0
   -4.6390   23.2030  -31.7130 N   0  0  0  0  0  0  0  0  0  0  0  0
   -3.7430   22.2130  -31.9790 C   0  0  0  0  0  0  0  0  0  0  0  0
   -4.0800   21.1190  -32.9230 C   0  0  0  0  0  0  0  0  0  0  0  0
   -3.1560   20.3810  -33.3540 O   0  0  0  0  0  0  0  0  0  0  0  0
   -5.4140   20.8700  -33.3920 N   0  0  0  0  0  0  0  0  0  0  0  0
   -5.8960   19.6940  -34.1080 C   0  0  0  0  0  0  0  0  0  0  0  0
   -5.9150   18.4610  -33.2350 C   0  0  0  0  0  0  0  0  0  0  0  0
   -6.8960   18.0320  -32.3370 C   0  0  0  0  0  0  0  0  0  0  0  0
   -8.1630   18.7010  -32.0060 C   0  0  0  0  0  0  0  0  0  0  0  0
   -9.2140   18.0090  -31.9380 O   0  0  0  0  0  0  0  0  0  0  0  0
   -8.2160   20.1080  -31.7260 N   0  0  0  0  0  0  0  0  0  0  0  0
   -7.0850   20.8790  -31.2360 C   0  0  0  0  0  0  0  0  0  0  0  0
   -7.6700   22.1980  -30.7500 C   0  0  0  0  0  0  0  0  0  0  0  0
   -9.0610   22.2920  -31.3730 C   0  0  0  0  0  0  0  0  0  0  0  0
   -9.4580   20.8610  -31.7120 C   0  0  0  0  0  0  0  0  0  0  0  0
   -6.5540   16.8330  -31.8090 N   0  0  0  0  0  0  0  0  0  0  0  0
   -5.3550   16.5710  -32.3690 C   0  0  0  0  0  0  0  0  0  0  0  0
   -4.5790   15.4310  -32.1410 C   0  0  0  0  0  0  0  0  0  0  0  0
   -4.9860   14.4220  -31.2700 O   0  0  0  0  0  0  0  0  0  0  0  0
   -3.3600   15.3250  -32.8280 C   0  0  0  0  0  0  0  0  0  0  0  0
   -2.9500   16.3420  -33.7100 C   0  0  0  0  0  0  0  0  0  0  0  0
   -3.7700   17.4620  -33.9020 C   0  0  0  0  0  0  0  0  0  0  0  0
   -4.9450   17.5280  -33.2190 N   0  0  0  0  0  0  0  0  0  0  0  0
   -2.5040   22.2210  -31.3190 C   0  0  0  0  0  0  0  0  0  0  0  0
   -2.2010   23.2540  -30.4310 C   0  0  0  0  0  0  0  0  0  0  0  0
   -3.1350   24.2610  -30.1900 C   0  0  0  0  0  0  0  0  0  0  0  0
   -2.8220   25.2980  -29.3160 O   0  0  0  0  0  0  0  0  0  0  0  0
   -5.5599   25.4356  -29.5477 H   0  0  0  0  0  0  0  0  0  0  0  0
   -5.0646   26.2160  -31.0880 H   0  0  0  0  0  0  0  0  0  0  0  0
   -6.3582   24.9697  -31.0880 H   0  0  0  0  0  0  0  0  0  0  0  0
   -6.9177   19.8909  -34.4649 H   0  0  0  0  0  0  0  0  0  0  0  0
   -5.2085   19.5038  -34.9454 H   0  0  0  0  0  0  0  0  0  0  0  0
   -6.5894   20.3504  -30.4084 H   0  0  0  0  0  0  0  0  0  0  0  0
   -6.3272   21.0329  -32.0183 H   0  0  0  0  0  0  0  0  0  0  0  0
   -7.7409   22.2041  -29.6523 H   0  0  0  0  0  0  0  0  0  0  0  0
   -7.0389   23.0513  -31.0390 H   0  0  0  0  0  0  0  0  0  0  0  0
   -9.7732   22.7283  -30.6572 H   0  0  0  0  0  0  0  0  0  0  0  0
   -9.0640   22.9363  -32.2645 H   0  0  0  0  0  0  0  0  0  0  0  0
  -10.1420   20.4606  -30.9492 H   0  0  0  0  0  0  0  0  0  0  0  0
   -9.9835   20.8003  -32.6764 H   0  0  0  0  0  0  0  0  0  0  0  0
   -5.6770   14.5900  -30.5480 H   0  0  0  0  0  0  0  0  0  0  0  0
   -2.7215   14.4422  -32.6763 H   0  0  0  0  0  0  0  0  0  0  0  0
   -1.9925   16.2584  -34.2450 H   0  0  0  0  0  0  0  0  0  0  0  0
   -3.4711   18.2682  -34.5881 H   0  0  0  0  0  0  0  0  0  0  0  0
   -1.7756   21.4170  -31.5009 H   0  0  0  0  0  0  0  0  0  0  0  0
   -1.2263   23.2739  -29.9216 H   0  0  0  0  0  0  0  0  0  0  0  0
  1  2  1  0
  2  3  2  0
  3  4  1  0
  4  5  1  0
  5  6  2  0
  5  7  1  0
  7  8  1  0
  8  9  1  0
  9 10  2  0
 10 11  1  0
 11 12  2  0
 11 13  1  0
 13 14  1  0
 14 15  1  0
 15 16  1  0
 16 17  1  0
 10 18  1  0
 18 19  2  0
 19 20  1  0
 20 21  1  0
 20 22  2  0
 22 23  1  0
 23 24  2  0
 24 25  1  0
  4 26  2  0
 26 27  1  0
 27 28  2  0
 28 29  1  0
 28  2  1  0
 25  9  1  0
 17 13  1  0
 25 19  1  0
  1 30  1  0
  1 31  1  0
  1 32  1  0
  8 33  1  0
  8 34  1  0
 14 35  1  0
 14 36  1  0
 15 37  1  0
 15 38  1  0
 16 39  1  0
 16 40  1  0
 17 41  1  0
 17 42  1  0
 21 43  1  0
 22 44  1  0
 23 45  1  0
 24 46  1  0
 26 47  1  0
 27 48  1  0
M  CHG  2   7  -1  29  -1
M  END
>  <UniqueID>  (41) 
40

>  <SMILES>  (41) 
Cc1nc(C(=O)[N-]Cc2c(C(=O)N3CCCC3)nc3c(O)cccn23)ccc1[O-]

>  <Energy>  (41) 
90.20789013483001

>  <Genealogy>  (41) 
Cc1nc(C(=O)[N-]Cc2c(C(=O)N3CCCC3)nc3c(O)cccn23)ccc1[O-] (protonated)
Cc1nc(C(=O)[N-]Cc2c(C(=O)N3CCCC3)nc3c(O)cccn23)ccc1[O-] (3D coordinates assigned)
Cc1nc(C(=O)[N-]Cc2c(C(=O)N3CCCC3)nc3c(O)cccn23)ccc1[O-] (nonaromatic ring conformer: 90.20789013483001 kcal/mol)

>  <smiles>  (41) 
Cc1nc(C(=O)NCc2c(C(=O)N3CCCC3)nc3c(O)cccn23)ccc1O

>  <score_type>  (41) 
oracle

>  <origin>  (41) 
adgpu

>  <m_score__min__energy>  (41) 
-10.94

>  <m_primary>  (41) 
energy

$$$$
41:0
     RDKit          3D

 27 28  0  0  0  0  0  0  0  0999 V2000
   -0.5970   25.3500  -30.0250 H   0  0  0  0  0  0  0  0  0  0  0  0
   -1.0260   25.1740  -29.0880 N   0  0  0  0  0  0  0  0  0  0  0  0
   -2.2870   24.9140  -28.9570 C   0  0  0  0  0  0  0  0  0  0  0  0
   -3.0890   24.8640  -30.0540 N   0  0  0  0  0  0  0  0  0  0  0  0
   -4.4170   24.6010  -29.9510 C   0  0  0  0  0  0  0  0  0  0  0  0
   -5.1880   24.5450  -31.1210 O   0  0  0  0  0  0  0  0  0  0  0  0
   -5.9410   23.4420  -31.5490 C   0  0  0  0  0  0  0  0  0  0  0  0
   -5.3460   22.3390  -32.1870 C   0  0  0  0  0  0  0  0  0  0  0  0
   -4.2620   22.3338  -32.3738 H   0  0  0  0  0  0  0  0  0  0  0  0
   -6.1260   21.2490  -32.5850 C   0  0  0  0  0  0  0  0  0  0  0  0
   -5.6549   20.3945  -33.0929 H   0  0  0  0  0  0  0  0  0  0  0  0
   -7.5130   21.2410  -32.3380 C   0  0  0  0  0  0  0  0  0  0  0  0
   -8.3390   20.1730  -32.7180 O   0  0  0  0  0  0  0  0  0  0  0  0
   -8.7390   19.1180  -31.8510 C   0  0  0  0  0  0  0  0  0  0  0  0
   -8.6180   19.4370  -30.8052 H   0  0  0  0  0  0  0  0  0  0  0  0
   -9.7939   18.8691  -32.0388 H   0  0  0  0  0  0  0  0  0  0  0  0
   -8.1143   18.2323  -32.0388 H   0  0  0  0  0  0  0  0  0  0  0  0
   -8.0950   22.3330  -31.6840 C   0  0  0  0  0  0  0  0  0  0  0  0
   -9.1761   22.3342  -31.4808 H   0  0  0  0  0  0  0  0  0  0  0  0
   -7.3140   23.4220  -31.2870 C   0  0  0  0  0  0  0  0  0  0  0  0
   -7.7829   24.2691  -30.7649 H   0  0  0  0  0  0  0  0  0  0  0  0
   -4.9680   24.3480  -28.6870 C   0  0  0  0  0  0  0  0  0  0  0  0
   -6.0364   24.1101  -28.5783 H   0  0  0  0  0  0  0  0  0  0  0  0
   -4.1340   24.4040  -27.5690 C   0  0  0  0  0  0  0  0  0  0  0  0
   -4.6050   24.1850  -26.4210 O   0  0  0  0  0  0  0  0  0  0  0  0
   -2.8120   24.6890  -27.7200 N   0  0  0  0  0  0  0  0  0  0  0  0
   -2.1930   24.7290  -26.8780 H   0  0  0  0  0  0  0  0  0  0  0  0
  1  2  1  0
  2  3  2  0
  3  4  1  0
  4  5  1  0
  5  6  1  0
  6  7  1  0
  7  8  2  0
  8  9  1  0
  8 10  1  0
 10 11  1  0
 10 12  2  0
 12 13  1  0
 13 14  1  0
 14 15  1  0
 14 16  1  0
 14 17  1  0
 12 18  1  0
 18 19  1  0
 18 20  2  0
 20 21  1  0
  5 22  2  0
 22 23  1  0
 22 24  1  0
 24 25  2  0
 24 26  1  0
 26 27  1  0
 26  3  1  0
 20  7  1  0
M  CHG  1   4  -1
M  END
>  <UniqueID>  (42) 
41

>  <SMILES>  (42) 
[H]/N=c1\[n-]c(Oc2ccc(OC)cc2)cc(=O)[nH]1

>  <Energy>  (42) 
34.30421347529041

>  <Genealogy>  (42) 
COc1ccc(Oc2cc(=O)[nH]c(=N)[n-]2)cc1 (protonated)
[H]/N=c1\[n-]c(Oc2ccc(OC)cc2)cc(=O)[nH]1 (cis-trans isomerization)
[H]/N=c1\[n-]c(Oc2ccc(OC)cc2)cc(=O)[nH]1 (3D coordinates assigned)
[H]/N=c1\[n-]c(Oc2ccc(OC)cc2)cc(=O)[nH]1 (optimized conformer: 34.30421347529041 kcal/mol)

>  <smiles>  (42) 
COc1ccc(Oc2cc(=O)[nH]c(=N)[nH]2)cc1

>  <score_type>  (42) 
oracle

>  <origin>  (42) 
adgpu

>  <m_score__min__energy>  (42) 
-7.6100000000000003

>  <m_primary>  (42) 
energy

$$$$
42:0
     RDKit          3D

 33 34  0  0  0  0  0  0  0  0999 V2000
   -6.8630   17.3720  -33.8440 C   0  0  0  0  0  0  0  0  0  0  0  0
   -6.5670   18.5420  -32.9600 C   0  0  0  0  0  0  0  0  0  0  0  0
   -6.1010   18.3390  -31.8060 O   0  0  0  0  0  0  0  0  0  0  0  0
   -6.9080   19.8690  -33.3900 N   0  0  0  0  0  0  0  0  0  0  0  0
   -6.5320   21.0680  -32.6920 C   0  0  0  0  0  0  0  0  0  0  0  0
   -7.4790   21.8420  -31.9960 C   0  0  0  0  0  0  0  0  0  0  0  0
   -7.0810   22.9960  -31.3130 C   0  0  0  0  0  0  0  0  0  0  0  0
   -5.7360   23.3830  -31.3050 C   0  0  0  0  0  0  0  0  0  0  0  0
   -5.2520   24.8490  -30.4580 S   0  0  0  0  0  0  0  0  0  0  0  0
   -5.7530   26.0400  -31.2260 O   0  0  0  0  0  0  0  0  0  0  0  0
   -5.8330   24.8820  -29.0720 O   0  0  0  0  0  0  0  0  0  0  0  0
   -3.5230   24.9240  -30.3530 N   0  0  0  0  0  0  0  0  0  0  0  0
   -2.7260   24.2700  -29.3550 C   0  0  0  0  0  0  0  0  0  0  0  0
   -3.0560   22.9950  -28.8570 C   0  0  0  0  0  0  0  0  0  0  0  0
   -2.2500   22.3870  -27.8900 C   0  0  0  0  0  0  0  0  0  0  0  0
   -1.1110   23.0410  -27.4130 C   0  0  0  0  0  0  0  0  0  0  0  0
   -0.7800   24.3070  -27.8980 C   0  0  0  0  0  0  0  0  0  0  0  0
   -1.5820   24.9210  -28.8650 C   0  0  0  0  0  0  0  0  0  0  0  0
   -1.2380   26.1820  -29.3410 O   0  0  0  0  0  0  0  0  0  0  0  0
   -4.7860   22.5990  -31.9700 C   0  0  0  0  0  0  0  0  0  0  0  0
   -5.1810   21.4450  -32.6520 C   0  0  0  0  0  0  0  0  0  0  0  0
   -7.0859   16.4911  -33.2240 H   0  0  0  0  0  0  0  0  0  0  0  0
   -7.7311   17.6026  -34.4790 H   0  0  0  0  0  0  0  0  0  0  0  0
   -5.9897   17.1620  -34.4790 H   0  0  0  0  0  0  0  0  0  0  0  0
   -7.5430   19.9610  -34.2160 H   0  0  0  0  0  0  0  0  0  0  0  0
   -8.5362   21.5384  -31.9890 H   0  0  0  0  0  0  0  0  0  0  0  0
   -7.8284   23.6020  -30.7799 H   0  0  0  0  0  0  0  0  0  0  0  0
   -3.9510   22.4756  -29.2301 H   0  0  0  0  0  0  0  0  0  0  0  0
   -2.5131   21.3913  -27.5036 H   0  0  0  0  0  0  0  0  0  0  0  0
   -0.4757   22.5583  -26.6558 H   0  0  0  0  0  0  0  0  0  0  0  0
    0.1142   24.8232  -27.5186 H   0  0  0  0  0  0  0  0  0  0  0  0
   -3.7258   22.8920  -31.9557 H   0  0  0  0  0  0  0  0  0  0  0  0
   -4.4268   20.8273  -33.1615 H   0  0  0  0  0  0  0  0  0  0  0  0
  1  2  1  0
  2  3  2  0
  2  4  1  0
  4  5  1  0
  5  6  2  0
  6  7  1  0
  7  8  2  0
  8  9  1  0
  9 10  2  0
  9 11  2  0
  9 12  1  0
 12 13  1  0
 13 14  2  0
 14 15  1  0
 15 16  2  0
 16 17  1  0
 17 18  2  0
 18 19  1  0
  8 20  1  0
 20 21  2  0
 21  5  1  0
 18 13  1  0
  1 22  1  0
  1 23  1  0
  1 24  1  0
  4 25  1  0
  6 26  1  0
  7 27  1  0
 14 28  1  0
 15 29  1  0
 16 30  1  0
 17 31  1  0
 20 32  1  0
 21 33  1  0
M  CHG  2  12  -1  19  -1
M  END
>  <UniqueID>  (43) 
42

>  <SMILES>  (43) 
CC(=O)Nc1ccc(S(=O)(=O)[N-]c2ccccc2[O-])cc1

>  <Energy>  (43) 
38.477296114683185

>  <Genealogy>  (43) 
CC(=O)Nc1ccc(S(=O)(=O)[N-]c2ccccc2[O-])cc1 (protonated)
CC(=O)Nc1ccc(S(=O)(=O)[N-]c2ccccc2[O-])cc1 (3D coordinates assigned)
CC(=O)Nc1ccc(S(=O)(=O)[N-]c2ccccc2[O-])cc1 (optimized conformer: 38.477296114683185 kcal/mol)

>  <smiles>  (43) 
CC(=O)Nc1ccc(S(=O)(=O)Nc2ccccc2O)cc1

>  <score_type>  (43) 
oracle

>  <origin>  (43) 
adgpu

>  <m_score__min__energy>  (43) 
-12.91

>  <m_primary>  (43) 
energy

$$$$
43:0
     RDKit          3D

 39 41  0  0  0  0  0  0  0  0999 V2000
   -5.6710   18.6680  -34.2160 C   0  0  0  0  0  0  0  0  0  0  0  0
   -6.7250   19.2920  -33.4300 N   0  0  0  0  0  0  0  0  0  0  0  0
   -6.7600   20.5820  -33.0450 C   0  0  0  0  0  0  0  0  0  0  0  0
   -7.8750   20.7500  -32.2570 C   0  0  0  0  0  0  0  0  0  0  0  0
   -8.3810   22.2190  -31.4490 S   0  0  0  0  0  0  0  0  0  0  0  0
   -9.3680   21.8850  -30.3650 O   0  0  0  0  0  0  0  0  0  0  0  0
   -9.0540   23.1310  -32.4360 O   0  0  0  0  0  0  0  0  0  0  0  0
   -6.9730   23.0130  -30.7560 C   0  0  0  0  0  0  0  0  0  0  0  0
   -5.8720   22.2570  -30.3320 C   0  0  0  0  0  0  0  0  0  0  0  0
   -4.7460   22.8910  -29.8010 C   0  0  0  0  0  0  0  0  0  0  0  0
   -4.7060   24.2890  -29.6790 C   0  0  0  0  0  0  0  0  0  0  0  0
   -3.5270   24.9190  -29.1510 N   0  0  0  0  0  0  0  0  0  0  0  0
   -2.8320   24.4590  -27.9790 C   0  0  0  0  0  0  0  0  0  0  0  0
   -2.9690   23.2640  -27.6010 O   0  0  0  0  0  0  0  0  0  0  0  0
   -1.9140   25.3580  -27.2380 C   0  0  0  0  0  0  0  0  0  0  0  0
   -2.1630   25.6990  -25.8950 C   0  0  0  0  0  0  0  0  0  0  0  0
   -1.2870   26.5420  -25.2030 C   0  0  0  0  0  0  0  0  0  0  0  0
   -0.1510   27.0490  -25.8400 C   0  0  0  0  0  0  0  0  0  0  0  0
    0.9470   28.1050  -24.9700 Cl  0  0  0  0  0  0  0  0  0  0  0  0
    0.1120   26.7100  -27.1700 C   0  0  0  0  0  0  0  0  0  0  0  0
   -0.7610   25.8670  -27.8640 C   0  0  0  0  0  0  0  0  0  0  0  0
   -5.8020   25.0460  -30.1330 C   0  0  0  0  0  0  0  0  0  0  0  0
   -6.9280   24.4110  -30.6650 C   0  0  0  0  0  0  0  0  0  0  0  0
   -8.4720   19.5080  -32.1820 C   0  0  0  0  0  0  0  0  0  0  0  0
   -7.7450   18.6310  -32.9030 N   0  0  0  0  0  0  0  0  0  0  0  0
   -4.9235   18.2254  -33.5412 H   0  0  0  0  0  0  0  0  0  0  0  0
   -6.1040   17.8806  -34.8504 H   0  0  0  0  0  0  0  0  0  0  0  0
   -5.1889   19.4263  -34.8504 H   0  0  0  0  0  0  0  0  0  0  0  0
   -6.0297   21.3600  -33.3121 H   0  0  0  0  0  0  0  0  0  0  0  0
   -5.8944   21.1606  -30.4175 H   0  0  0  0  0  0  0  0  0  0  0  0
   -3.8839   22.2900  -29.4759 H   0  0  0  0  0  0  0  0  0  0  0  0
   -3.0870   25.6820  -29.7140 H   0  0  0  0  0  0  0  0  0  0  0  0
   -3.0527   25.2997  -25.3862 H   0  0  0  0  0  0  0  0  0  0  0  0
   -1.4927   26.8064  -24.1553 H   0  0  0  0  0  0  0  0  0  0  0  0
    1.0070   27.1069  -27.6714 H   0  0  0  0  0  0  0  0  0  0  0  0
   -0.5447   25.5992  -28.9087 H   0  0  0  0  0  0  0  0  0  0  0  0
   -5.7725   26.1437  -30.0689 H   0  0  0  0  0  0  0  0  0  0  0  0
   -7.7818   25.0106  -31.0135 H   0  0  0  0  0  0  0  0  0  0  0  0
   -9.3908   19.2722  -31.6250 H   0  0  0  0  0  0  0  0  0  0  0  0
  1  2  1  0
  2  3  1  0
  3  4  2  0
  4  5  1  0
  5  6  2  0
  5  7  2  0
  5  8  1  0
  8  9  2  0
  9 10  1  0
 10 11  2  0
 11 12  1  0
 12 13  1  0
 13 14  2  0
 13 15  1  0
 15 16  2  0
 16 17  1  0
 17 18  2  0
 18 19  1  0
 18 20  1  0
 20 21  2  0
 11 22  1  0
 22 23  2  0
  4 24  1  0
 24 25  2  0
 25  2  1  0
 23  8  1  0
 21 15  1  0
  1 26  1  0
  1 27  1  0
  1 28  1  0
  3 29  1  0
  9 30  1  0
 10 31  1  0
 12 32  1  0
 16 33  1  0
 17 34  1  0
 20 35  1  0
 21 36  1  0
 22 37  1  0
 23 38  1  0
 24 39  1  0
M  END
>  <UniqueID>  (44) 
43

>  <SMILES>  (44) 
Cn1cc(S(=O)(=O)c2ccc(NC(=O)c3ccc(Cl)cc3)cc2)cn1

>  <Energy>  (44) 
77.94848061822117

>  <Genealogy>  (44) 
Cn1cc(S(=O)(=O)c2ccc(NC(=O)c3ccc(Cl)cc3)cc2)cn1 (3D coordinates assigned)
Cn1cc(S(=O)(=O)c2ccc(NC(=O)c3ccc(Cl)cc3)cc2)cn1 (optimized conformer: 77.94848061822117 kcal/mol)

>  <smiles>  (44) 
Cn1cc(S(=O)(=O)c2ccc(NC(=O)c3ccc(Cl)cc3)cc2)cn1

>  <score_type>  (44) 
oracle

>  <origin>  (44) 
adgpu

>  <m_score__min__energy>  (44) 
-8.5700000000000003

>  <m_primary>  (44) 
energy

$$$$
44:0
     RDKit          3D

 47 50  0  0  0  0  0  0  0  0999 V2000
   -2.7770   20.2780  -28.3180 C   0  0  0  0  0  0  0  0  0  0  0  0
   -2.5170   21.7160  -28.4960 N   0  0  0  0  0  0  0  0  0  0  0  0
   -1.4170   22.2500  -27.8810 C   0  0  0  0  0  0  0  0  0  0  0  0
   -1.1020   23.6060  -28.0030 C   0  0  0  0  0  0  0  0  0  0  0  0
    0.3390   24.2520  -27.2120 S   0  0  0  0  0  0  0  0  0  0  0  0
    1.2530   24.8970  -28.2170 O   0  0  0  0  0  0  0  0  0  0  0  0
    1.0900   23.1310  -26.5490 O   0  0  0  0  0  0  0  0  0  0  0  0
   -0.1500   25.4550  -26.0250 C   0  0  0  0  0  0  0  0  0  0  0  0
   -0.4470   26.7690  -26.4170 C   0  0  0  0  0  0  0  0  0  0  0  0
   -0.8180   27.7200  -25.4610 C   0  0  0  0  0  0  0  0  0  0  0  0
   -0.8920   27.3640  -24.1110 C   0  0  0  0  0  0  0  0  0  0  0  0
   -0.5900   26.0580  -23.7150 C   0  0  0  0  0  0  0  0  0  0  0  0
   -0.2190   25.1050  -24.6690 C   0  0  0  0  0  0  0  0  0  0  0  0
   -1.9210   24.4310  -28.7800 C   0  0  0  0  0  0  0  0  0  0  0  0
   -1.6370   25.6540  -28.9090 O   0  0  0  0  0  0  0  0  0  0  0  0
   -3.0540   23.8930  -29.4140 C   0  0  0  0  0  0  0  0  0  0  0  0
   -3.8960   24.7030  -30.1970 C   0  0  0  0  0  0  0  0  0  0  0  0
   -5.0200   24.1670  -30.8250 C   0  0  0  0  0  0  0  0  0  0  0  0
   -5.7920   24.9720  -31.5940 F   0  0  0  0  0  0  0  0  0  0  0  0
   -5.3250   22.8060  -30.6820 C   0  0  0  0  0  0  0  0  0  0  0  0
   -6.4850   22.2380  -31.3180 N   0  0  0  0  0  0  0  0  0  0  0  0
   -7.8020   22.8640  -31.1750 C   0  0  0  0  0  0  0  0  0  0  0  0
   -8.8850   21.7800  -31.1960 C   0  0  0  0  0  0  0  0  0  0  0  0
   -8.7460   20.9540  -32.3380 O   0  0  0  0  0  0  0  0  0  0  0  0
   -7.5260   20.2390  -32.2690 C   0  0  0  0  0  0  0  0  0  0  0  0
   -6.3300   21.1940  -32.3340 C   0  0  0  0  0  0  0  0  0  0  0  0
   -4.4920   21.9890  -29.9050 C   0  0  0  0  0  0  0  0  0  0  0  0
   -3.3460   22.5110  -29.2600 C   0  0  0  0  0  0  0  0  0  0  0  0
   -2.8194   20.0432  -27.2442 H   0  0  0  0  0  0  0  0  0  0  0  0
   -3.7367   20.0179  -28.7884 H   0  0  0  0  0  0  0  0  0  0  0  0
   -1.9691   19.6983  -28.7884 H   0  0  0  0  0  0  0  0  0  0  0  0
   -0.7675   21.5983  -27.2782 H   0  0  0  0  0  0  0  0  0  0  0  0
   -0.3879   27.0518  -27.4784 H   0  0  0  0  0  0  0  0  0  0  0  0
   -1.0518   28.7490  -25.7715 H   0  0  0  0  0  0  0  0  0  0  0  0
   -1.1879   28.1118  -23.3605 H   0  0  0  0  0  0  0  0  0  0  0  0
   -0.6442   25.7795  -22.6522 H   0  0  0  0  0  0  0  0  0  0  0  0
    0.0193   24.0781  -24.3547 H   0  0  0  0  0  0  0  0  0  0  0  0
   -3.6653   25.7720  -30.3155 H   0  0  0  0  0  0  0  0  0  0  0  0
   -7.8474   23.4099  -30.2211 H   0  0  0  0  0  0  0  0  0  0  0  0
   -7.9678   23.5656  -32.0058 H   0  0  0  0  0  0  0  0  0  0  0  0
   -8.7946   21.1620  -30.2905 H   0  0  0  0  0  0  0  0  0  0  0  0
   -9.8710   22.2665  -31.2299 H   0  0  0  0  0  0  0  0  0  0  0  0
   -7.4893   19.6793  -31.3228 H   0  0  0  0  0  0  0  0  0  0  0  0
   -7.4730   19.5497  -33.1246 H   0  0  0  0  0  0  0  0  0  0  0  0
   -5.4023   20.6337  -32.1458 H   0  0  0  0  0  0  0  0  0  0  0  0
   -6.2825   21.6560  -33.3312 H   0  0  0  0  0  0  0  0  0  0  0  0
   -4.7340   20.9216  -29.7946 H   0  0  0  0  0  0  0  0  0  0  0  0
  1  2  1  0
  2  3  1  0
  3  4  2  0
  4  5  1  0
  5  6  2  0
  5  7  2  0
  5  8  1  0
  8  9  2  0
  9 10  1  0
 10 11  2  0
 11 12  1  0
 12 13  2  0
  4 14  1  0
 14 15  2  0
 14 16  1  0
 16 17  2  0
 17 18  1  0
 18 19  1  0
 18 20  2  0
 20 21  1  0
 21 22  1  0
 22 23  1  0
 23 24  1  0
 24 25  1  0
 25 26  1  0
 20 27  1  0
 27 28  2  0
 28  2  1  0
 13  8  1  0
 28 16  1  0
 26 21  1  0
  1 29  1  0
  1 30  1  0
  1 31  1  0
  3 32  1  0
  9 33  1  0
 10 34  1  0
 11 35  1  0
 12 36  1  0
 13 37  1  0
 17 38  1  0
 22 39  1  0
 22 40  1  0
 23 41  1  0
 23 42  1  0
 25 43  1  0
 25 44  1  0
 26 45  1  0
 26 46  1  0
 27 47  1  0
M  END
>  <UniqueID>  (45) 
44

>  <SMILES>  (45) 
Cn1cc(S(=O)(=O)c2ccccc2)c(=O)c2cc(F)c(N3CCOCC3)cc21

>  <Energy>  (45) 
68.21462550175269

>  <Genealogy>  (45) 
Cn1cc(S(=O)(=O)c2ccccc2)c(=O)c2cc(F)c(N3CCOCC3)cc21 (3D coordinates assigned)
Cn1cc(S(=O)(=O)c2ccccc2)c(=O)c2cc(F)c(N3CCOCC3)cc21 (nonaromatic ring conformer: 68.21462550175269 kcal/mol)

>  <smiles>  (45) 
Cn1cc(S(=O)(=O)c2ccccc2)c(=O)c2cc(F)c(N3CCOCC3)cc21

>  <score_type>  (45) 
oracle

>  <origin>  (45) 
adgpu

>  <m_score__min__energy>  (45) 
-8.4600000000000009

>  <m_primary>  (45) 
energy

$$$$
45:0
     RDKit          3D

 51 53  0  0  0  0  0  0  0  0999 V2000
   -0.8430   26.9390  -27.9360 C   0  0  0  0  0  0  0  0  0  0  0  0
   -1.3340   26.0310  -28.9150 O   0  0  0  0  0  0  0  0  0  0  0  0
   -1.6980   24.7000  -28.6550 C   0  0  0  0  0  0  0  0  0  0  0  0
   -1.0090   23.9030  -27.7170 C   0  0  0  0  0  0  0  0  0  0  0  0
   -1.4160   22.5880  -27.4750 C   0  0  0  0  0  0  0  0  0  0  0  0
   -2.5020   22.0520  -28.1690 C   0  0  0  0  0  0  0  0  0  0  0  0
   -3.1910   22.8330  -29.1000 C   0  0  0  0  0  0  0  0  0  0  0  0
   -2.7990   24.1590  -29.3390 C   0  0  0  0  0  0  0  0  0  0  0  0
   -3.4960   24.9650  -30.2920 N   0  0  0  0  0  0  0  0  0  0  0  0
   -5.2210   24.9330  -30.4520 S   0  0  0  0  0  0  0  0  0  0  0  0
   -5.6880   26.1530  -31.1960 O   0  0  0  0  0  0  0  0  0  0  0  0
   -5.8460   24.9290  -29.0870 O   0  0  0  0  0  0  0  0  0  0  0  0
   -5.6850   23.4650  -31.3030 C   0  0  0  0  0  0  0  0  0  0  0  0
   -7.0350   23.1050  -31.3650 C   0  0  0  0  0  0  0  0  0  0  0  0
   -7.4220   21.9460  -32.0410 C   0  0  0  0  0  0  0  0  0  0  0  0
   -6.4630   21.1380  -32.6520 C   0  0  0  0  0  0  0  0  0  0  0  0
   -5.0990   21.4770  -32.5890 C   0  0  0  0  0  0  0  0  0  0  0  0
   -4.0960   20.5830  -33.2120 C   0  0  0  0  0  0  0  0  0  0  0  0
   -4.2850   19.3370  -33.1880 O   0  0  0  0  0  0  0  0  0  0  0  0
   -2.8900   21.1050  -33.7940 N   0  0  0  0  0  0  0  0  0  0  0  0
   -1.7490   20.2530  -34.1270 C   0  0  0  0  0  0  0  0  0  0  0  0
   -0.4690   20.7180  -33.4170 C   0  0  0  0  0  0  0  0  0  0  0  0
   -0.8060   21.5520  -31.8220 S   0  0  0  0  0  0  0  0  0  0  0  0
   -0.2590   20.2050  -30.7630 C   0  0  0  0  0  0  0  0  0  0  0  0
   -0.1800   18.9030  -31.2780 C   0  0  0  0  0  0  0  0  0  0  0  0
    0.2370   17.8490  -30.4580 C   0  0  0  0  0  0  0  0  0  0  0  0
    0.5630   18.0890  -29.1200 C   0  0  0  0  0  0  0  0  0  0  0  0
    0.4650   19.3830  -28.5980 C   0  0  0  0  0  0  0  0  0  0  0  0
    0.0460   20.4400  -29.4160 C   0  0  0  0  0  0  0  0  0  0  0  0
   -4.7190   22.6570  -31.9200 C   0  0  0  0  0  0  0  0  0  0  0  0
   -1.0559   26.5453  -26.9312 H   0  0  0  0  0  0  0  0  0  0  0  0
    0.2433   27.0597  -28.0599 H   0  0  0  0  0  0  0  0  0  0  0  0
   -1.3368   27.9141  -28.0599 H   0  0  0  0  0  0  0  0  0  0  0  0
   -0.1475   24.3183  -27.1735 H   0  0  0  0  0  0  0  0  0  0  0  0
   -0.8795   21.9744  -26.7363 H   0  0  0  0  0  0  0  0  0  0  0  0
   -2.8154   21.0142  -27.9827 H   0  0  0  0  0  0  0  0  0  0  0  0
   -4.0443   22.4068  -29.6480 H   0  0  0  0  0  0  0  0  0  0  0  0
   -7.7940   23.7365  -30.8800 H   0  0  0  0  0  0  0  0  0  0  0  0
   -8.4855   21.6696  -32.0918 H   0  0  0  0  0  0  0  0  0  0  0  0
   -6.7755   20.2291  -33.1870 H   0  0  0  0  0  0  0  0  0  0  0  0
   -2.7900   22.1290  -33.9700 H   0  0  0  0  0  0  0  0  0  0  0  0
   -1.9727   19.2208  -33.8196 H   0  0  0  0  0  0  0  0  0  0  0  0
   -1.5809   20.3124  -35.2125 H   0  0  0  0  0  0  0  0  0  0  0  0
    0.1665   19.8404  -33.2274 H   0  0  0  0  0  0  0  0  0  0  0  0
    0.0280   21.4472  -34.0737 H   0  0  0  0  0  0  0  0  0  0  0  0
   -0.4462   18.7103  -32.3278 H   0  0  0  0  0  0  0  0  0  0  0  0
    0.3084   16.8302  -30.8666 H   0  0  0  0  0  0  0  0  0  0  0  0
    0.8965   17.2605  -28.4778 H   0  0  0  0  0  0  0  0  0  0  0  0
    0.7173   19.5707  -27.5439 H   0  0  0  0  0  0  0  0  0  0  0  0
   -0.0436   21.4547  -29.0007 H   0  0  0  0  0  0  0  0  0  0  0  0
   -3.6584   22.9463  -31.8813 H   0  0  0  0  0  0  0  0  0  0  0  0
  1  2  1  0
  2  3  1  0
  3  4  2  0
  4  5  1  0
  5  6  2  0
  6  7  1  0
  7  8  2  0
  8  9  1  0
  9 10  1  0
 10 11  2  0
 10 12  2  0
 10 13  1  0
 13 14  2  0
 14 15  1  0
 15 16  2  0
 16 17  1  0
 17 18  1  0
 18 19  2  0
 18 20  1  0
 20 21  1  0
 21 22  1  0
 22 23  1  0
 23 24  1  0
 24 25  2  0
 25 26  1  0
 26 27  2  0
 27 28  1  0
 28 29  2  0
 17 30  2  0
  8  3  1  0
 30 13  1  0
 29 24  1  0
  1 31  1  0
  1 32  1  0
  1 33  1  0
  4 34  1  0
  5 35  1  0
  6 36  1  0
  7 37  1  0
 14 38  1  0
 15 39  1  0
 16 40  1  0
 20 41  1  0
 21 42  1  0
 21 43  1  0
 22 44  1  0
 22 45  1  0
 25 46  1  0
 26 47  1  0
 27 48  1  0
 28 49  1  0
 29 50  1  0
 30 51  1  0
M  CHG  1   9  -1
M  END
>  <UniqueID>  (46) 
45

>  <SMILES>  (46) 
COc1ccccc1[N-]S(=O)(=O)c1cccc(C(=O)NCCSc2ccccc2)c1

>  <Energy>  (46) 
50.22857235781491

>  <Genealogy>  (46) 
COc1ccccc1[N-]S(=O)(=O)c1cccc(C(=O)NCCSc2ccccc2)c1 (protonated)
COc1ccccc1[N-]S(=O)(=O)c1cccc(C(=O)NCCSc2ccccc2)c1 (3D coordinates assigned)
COc1ccccc1[N-]S(=O)(=O)c1cccc(C(=O)NCCSc2ccccc2)c1 (optimized conformer: 50.22857235781491 kcal/mol)

>  <smiles>  (46) 
COc1ccccc1NS(=O)(=O)c1cccc(C(=O)NCCSc2ccccc2)c1

>  <score_type>  (46) 
oracle

>  <origin>  (46) 
adgpu

>  <m_score__min__energy>  (46) 
-10.970000000000001

>  <m_primary>  (46) 
energy

$$$$
46:0
     RDKit          3D

 61 64  0  0  0  0  0  0  0  0999 V2000
   -5.9400   22.9450  -31.9710 C   0  0  0  0  0  0  0  0  0  0  0  0
   -4.5570   22.3620  -32.0860 C   0  0  0  0  0  0  0  0  0  0  0  0
   -4.3480   21.3350  -33.0300 C   0  0  0  0  0  0  0  0  0  0  0  0
   -3.0760   20.7770  -33.2240 C   0  0  0  0  0  0  0  0  0  0  0  0
   -2.8410   19.7750  -34.1790 O   0  0  0  0  0  0  0  0  0  0  0  0
   -1.7280   18.9250  -34.1720 C   0  0  0  0  0  0  0  0  0  0  0  0
   -1.8290   17.6860  -33.5210 C   0  0  0  0  0  0  0  0  0  0  0  0
   -0.7240   16.8330  -33.4520 C   0  0  0  0  0  0  0  0  0  0  0  0
    0.4890   17.2130  -34.0410 C   0  0  0  0  0  0  0  0  0  0  0  0
    0.5930   18.4350  -34.7150 C   0  0  0  0  0  0  0  0  0  0  0  0
   -0.5160   19.2850  -34.8070 C   0  0  0  0  0  0  0  0  0  0  0  0
   -0.4110   20.4720  -35.5940 N   0  0  0  0  0  0  0  0  0  0  0  0
    0.7390   21.7110  -35.2170 S   0  0  0  0  0  0  0  0  0  0  0  0
    1.1500   21.5650  -33.7790 O   0  0  0  0  0  0  0  0  0  0  0  0
    0.1360   23.0720  -35.4140 O   0  0  0  0  0  0  0  0  0  0  0  0
    2.1610   21.5450  -36.2320 C   0  0  0  0  0  0  0  0  0  0  0  0
    2.5470   20.4390  -36.9550 C   0  0  0  0  0  0  0  0  0  0  0  0
    3.6790   20.7330  -37.6230 N   0  0  0  0  0  0  0  0  0  0  0  0
    4.0190   21.9850  -37.3500 N   0  0  0  0  0  0  0  0  0  0  0  0
    3.1090   22.5060  -36.5050 C   0  0  0  0  0  0  0  0  0  0  0  0
   -2.0020   21.2530  -32.4750 C   0  0  0  0  0  0  0  0  0  0  0  0
   -2.1900   22.2550  -31.5230 C   0  0  0  0  0  0  0  0  0  0  0  0
   -3.4590   22.8260  -31.3040 C   0  0  0  0  0  0  0  0  0  0  0  0
   -3.5670   23.9160  -30.2890 C   0  0  0  0  0  0  0  0  0  0  0  0
   -3.4990   25.1210  -30.6610 O   0  0  0  0  0  0  0  0  0  0  0  0
   -3.7120   23.6270  -28.8940 N   0  0  0  0  0  0  0  0  0  0  0  0
   -3.0750   24.3680  -27.8430 C   0  0  0  0  0  0  0  0  0  0  0  0
   -3.8250   24.6820  -26.7090 C   0  0  0  0  0  0  0  0  0  0  0  0
   -3.2420   25.3620  -25.6420 C   0  0  0  0  0  0  0  0  0  0  0  0
   -1.8960   25.7340  -25.6910 C   0  0  0  0  0  0  0  0  0  0  0  0
   -1.2390   26.6090  -24.3110 Cl  0  0  0  0  0  0  0  0  0  0  0  0
   -1.1200   25.4390  -26.8340 C   0  0  0  0  0  0  0  0  0  0  0  0
    0.5890   25.9260  -26.8960 S   0  0  0  0  0  0  0  0  0  0  0  0
    1.1990   25.9460  -25.5210 O   0  0  0  0  0  0  0  0  0  0  0  0
    0.6710   27.3200  -27.4580 O   0  0  0  0  0  0  0  0  0  0  0  0
    1.4770   24.8260  -27.9210 N   0  0  0  0  0  0  0  0  0  0  0  0
    1.2650   23.4460  -27.4610 C   0  0  0  0  0  0  0  0  0  0  0  0
    2.9070   25.1600  -27.8640 C   0  0  0  0  0  0  0  0  0  0  0  0
   -1.7320   24.8030  -27.9370 C   0  0  0  0  0  0  0  0  0  0  0  0
   -1.0150   24.6550  -29.1280 O   0  0  0  0  0  0  0  0  0  0  0  0
   -6.2039   23.0562  -30.9089 H   0  0  0  0  0  0  0  0  0  0  0  0
   -5.9645   23.9300  -32.4600 H   0  0  0  0  0  0  0  0  0  0  0  0
   -6.6623   22.2748  -32.4600 H   0  0  0  0  0  0  0  0  0  0  0  0
   -5.1969   20.9655  -33.6240 H   0  0  0  0  0  0  0  0  0  0  0  0
   -2.7825   17.3846  -33.0628 H   0  0  0  0  0  0  0  0  0  0  0  0
   -0.8066   15.8650  -32.9361 H   0  0  0  0  0  0  0  0  0  0  0  0
    1.3629   16.5484  -33.9734 H   0  0  0  0  0  0  0  0  0  0  0  0
    1.5486   18.7287  -35.1738 H   0  0  0  0  0  0  0  0  0  0  0  0
    2.0184   19.4747  -36.9826 H   0  0  0  0  0  0  0  0  0  0  0  0
    3.1209   23.5288  -36.1003 H   0  0  0  0  0  0  0  0  0  0  0  0
   -0.9973   20.8351  -32.6357 H   0  0  0  0  0  0  0  0  0  0  0  0
   -1.3311   22.6059  -30.9321 H   0  0  0  0  0  0  0  0  0  0  0  0
   -4.8844   24.3905  -26.6572 H   0  0  0  0  0  0  0  0  0  0  0  0
   -3.8450   25.6076  -24.7554 H   0  0  0  0  0  0  0  0  0  0  0  0
    1.2614   23.4226  -26.3613 H   0  0  0  0  0  0  0  0  0  0  0  0
    0.2998   23.0778  -27.8388 H   0  0  0  0  0  0  0  0  0  0  0  0
    2.0752   22.8050  -27.8388 H   0  0  0  0  0  0  0  0  0  0  0  0
    3.2246   25.2342  -26.8135 H   0  0  0  0  0  0  0  0  0  0  0  0
    3.4877   24.3733  -28.3679 H   0  0  0  0  0  0  0  0  0  0  0  0
    3.0791   26.1225  -28.3679 H   0  0  0  0  0  0  0  0  0  0  0  0
   -1.4600   24.5370  -30.0280 H   0  0  0  0  0  0  0  0  0  0  0  0
  1  2  1  0
  2  3  2  0
  3  4  1  0
  4  5  1  0
  5  6  1  0
  6  7  2  0
  7  8  1  0
  8  9  2  0
  9 10  1  0
 10 11  2  0
 11 12  1  0
 12 13  1  0
 13 14  2  0
 13 15  2  0
 13 16  1  0
 16 17  1  0
 17 18  2  0
 18 19  1  0
 19 20  1  0
  4 21  2  0
 21 22  1  0
 22 23  2  0
 23 24  1  0
 24 25  2  0
 24 26  1  0
 26 27  1  0
 27 28  2  0
 28 29  1  0
 29 30  2  0
 30 31  1  0
 30 32  1  0
 32 33  1  0
 33 34  2  0
 33 35  2  0
 33 36  1  0
 36 37  1  0
 36 38  1  0
 32 39  2  0
 39 40  1  0
 23  2  1  0
 39 27  1  0
 11  6  1  0
 20 16  2  0
  1 41  1  0
  1 42  1  0
  1 43  1  0
  3 44  1  0
  7 45  1  0
  8 46  1  0
  9 47  1  0
 10 48  1  0
 17 49  1  0
 20 50  1  0
 21 51  1  0
 22 52  1  0
 28 53  1  0
 29 54  1  0
 37 55  1  0
 37 56  1  0
 37 57  1  0
 38 58  1  0
 38 59  1  0
 38 60  1  0
 40 61  1  0
M  CHG  3  12  -1  19  -1  26  -1
M  END
>  <UniqueID>  (47) 
46

>  <SMILES>  (47) 
Cc1cc(Oc2ccccc2[N-]S(=O)(=O)c2cn[n-]c2)ccc1C(=O)[N-]c1ccc(Cl)c(S(=O)(=O)N(C)C)c1O

>  <Energy>  (47) 
124.66914427736384

>  <Genealogy>  (47) 
Cc1cc(Oc2ccccc2[N-]S(=O)(=O)c2cn[n-]c2)ccc1C(=O)[N-]c1ccc(Cl)c(S(=O)(=O)N(C)C)c1O (protonated)
Cc1cc(Oc2ccccc2[N-]S(=O)(=O)c2cn[n-]c2)ccc1C(=O)[N-]c1ccc(Cl)c(S(=O)(=O)N(C)C)c1O (3D coordinates assigned)
Cc1cc(Oc2ccccc2[N-]S(=O)(=O)c2cn[n-]c2)ccc1C(=O)[N-]c1ccc(Cl)c(S(=O)(=O)N(C)C)c1O (optimized conformer: 124.66914427736384 kcal/mol)

>  <smiles>  (47) 
Cc1cc(Oc2ccccc2NS(=O)(=O)c2cn[nH]c2)ccc1C(=O)Nc1ccc(Cl)c(S(=O)(=O)N(C)C)c1O

>  <score_type>  (47) 
oracle

>  <origin>  (47) 
adgpu

>  <m_score__min__energy>  (47) 
-13.41

>  <m_primary>  (47) 
energy

$$$$
47:0
     RDKit          3D

 42 44  0  0  0  0  0  0  0  0999 V2000
   -5.7120   16.0640  -34.2270 C   0  0  0  0  0  0  0  0  0  0  0  0
   -6.3270   17.3230  -33.6890 C   0  0  0  0  0  0  0  0  0  0  0  0
   -5.9520   18.5700  -34.2100 C   0  0  0  0  0  0  0  0  0  0  0  0
   -6.4950   19.7460  -33.6840 C   0  0  0  0  0  0  0  0  0  0  0  0
   -7.4130   19.6890  -32.6270 C   0  0  0  0  0  0  0  0  0  0  0  0
   -8.0860   21.1750  -31.9660 S   0  0  0  0  0  0  0  0  0  0  0  0
   -9.4200   21.4510  -32.6010 O   0  0  0  0  0  0  0  0  0  0  0  0
   -8.2470   21.0200  -30.4790 O   0  0  0  0  0  0  0  0  0  0  0  0
   -7.0090   22.4880  -32.3140 N   0  0  0  0  0  0  0  0  0  0  0  0
   -5.7640   22.7360  -31.6460 C   0  0  0  0  0  0  0  0  0  0  0  0
   -4.9130   21.6960  -31.2390 C   0  0  0  0  0  0  0  0  0  0  0  0
   -3.7100   21.9820  -30.5900 C   0  0  0  0  0  0  0  0  0  0  0  0
   -3.3280   23.3130  -30.3300 C   0  0  0  0  0  0  0  0  0  0  0  0
   -2.0380   23.5860  -29.6410 C   0  0  0  0  0  0  0  0  0  0  0  0
   -1.7600   24.7520  -29.2490 O   0  0  0  0  0  0  0  0  0  0  0  0
   -1.1270   22.5100  -29.3750 N   0  0  0  0  0  0  0  0  0  0  0  0
   -1.3960   21.3300  -28.6040 C   0  0  0  0  0  0  0  0  0  0  0  0
   -2.5180   21.2370  -27.7590 C   0  0  0  0  0  0  0  0  0  0  0  0
   -2.7350   20.0830  -27.0010 C   0  0  0  0  0  0  0  0  0  0  0  0
   -1.8290   19.0210  -27.0670 C   0  0  0  0  0  0  0  0  0  0  0  0
   -0.7010   19.1150  -27.8870 C   0  0  0  0  0  0  0  0  0  0  0  0
   -0.4800   20.2670  -28.6480 C   0  0  0  0  0  0  0  0  0  0  0  0
    0.6500   20.3480  -29.4550 O   0  0  0  0  0  0  0  0  0  0  0  0
   -4.1900   24.3550  -30.7440 C   0  0  0  0  0  0  0  0  0  0  0  0
   -3.8710   25.6890  -30.5130 O   0  0  0  0  0  0  0  0  0  0  0  0
   -5.3920   24.0590  -31.3930 C   0  0  0  0  0  0  0  0  0  0  0  0
   -7.7710   18.4450  -32.0900 C   0  0  0  0  0  0  0  0  0  0  0  0
   -7.2270   17.2690  -32.6140 C   0  0  0  0  0  0  0  0  0  0  0  0
   -5.3986   15.4224  -33.3903 H   0  0  0  0  0  0  0  0  0  0  0  0
   -6.4503   15.5292  -34.8425 H   0  0  0  0  0  0  0  0  0  0  0  0
   -4.8363   16.3177  -34.8425 H   0  0  0  0  0  0  0  0  0  0  0  0
   -5.2275   18.6230  -35.0360 H   0  0  0  0  0  0  0  0  0  0  0  0
   -6.2003   20.7200  -34.1017 H   0  0  0  0  0  0  0  0  0  0  0  0
   -5.1953   20.6506  -31.4323 H   0  0  0  0  0  0  0  0  0  0  0  0
   -3.0522   21.1575  -30.2778 H   0  0  0  0  0  0  0  0  0  0  0  0
   -3.2267   22.0758  -27.6950 H   0  0  0  0  0  0  0  0  0  0  0  0
   -3.6200   20.0106  -26.3517 H   0  0  0  0  0  0  0  0  0  0  0  0
   -2.0036   18.1113  -26.4737 H   0  0  0  0  0  0  0  0  0  0  0  0
    0.0145   18.2808  -27.9338 H   0  0  0  0  0  0  0  0  0  0  0  0
   -6.0541   24.8786  -31.7089 H   0  0  0  0  0  0  0  0  0  0  0  0
   -8.4828   18.3939  -31.2529 H   0  0  0  0  0  0  0  0  0  0  0  0
   -7.5057   16.2967  -32.1816 H   0  0  0  0  0  0  0  0  0  0  0  0
  1  2  1  0
  2  3  2  0
  3  4  1  0
  4  5  2  0
  5  6  1  0
  6  7  2  0
  6  8  2  0
  6  9  1  0
  9 10  1  0
 10 11  2  0
 11 12  1  0
 12 13  2  0
 13 14  1  0
 14 15  2  0
 14 16  1  0
 16 17  1  0
 17 18  2  0
 18 19  1  0
 19 20  2  0
 20 21  1  0
 21 22  2  0
 22 23  1  0
 13 24  1  0
 24 25  1  0
 24 26  2  0
  5 27  1  0
 27 28  2  0
 28  2  1  0
 26 10  1  0
 22 17  1  0
  1 29  1  0
  1 30  1  0
  1 31  1  0
  3 32  1  0
  4 33  1  0
 11 34  1  0
 12 35  1  0
 18 36  1  0
 19 37  1  0
 20 38  1  0
 21 39  1  0
 26 40  1  0
 27 41  1  0
 28 42  1  0
M  CHG  4   9  -1  16  -1  23  -1  25  -1
M  END
>  <UniqueID>  (48) 
47

>  <SMILES>  (48) 
Cc1ccc(S(=O)(=O)[N-]c2ccc(C(=O)[N-]c3ccccc3[O-])c([O-])c2)cc1

>  <Energy>  (48) 
54.76038640091988

>  <Genealogy>  (48) 
Cc1ccc(S(=O)(=O)[N-]c2ccc(C(=O)[N-]c3ccccc3[O-])c([O-])c2)cc1 (protonated)
Cc1ccc(S(=O)(=O)[N-]c2ccc(C(=O)[N-]c3ccccc3[O-])c([O-])c2)cc1 (3D coordinates assigned)
Cc1ccc(S(=O)(=O)[N-]c2ccc(C(=O)[N-]c3ccccc3[O-])c([O-])c2)cc1 (optimized conformer: 54.76038640091988 kcal/mol)

>  <smiles>  (48) 
Cc1ccc(S(=O)(=O)Nc2ccc(C(=O)Nc3ccccc3O)c(O)c2)cc1

>  <score_type>  (48) 
oracle

>  <origin>  (48) 
adgpu

>  <m_score__min__energy>  (48) 
-15.67

>  <m_primary>  (48) 
energy

$$$$
