0:0
     RDKit          3D

 59 63  0  0  0  0  0  0  0  0999 V2000
   -5.5570   18.3850  -34.5570 C   0  0  0  0  0  0  0  0  0  0  0  0
   -6.2200   19.6690  -34.0680 C   0  0  0  0  0  0  0  0  0  0  0  0
   -5.3480   20.3800  -33.0810 C   0  0  0  0  0  0  0  0  0  0  0  0
   -5.7960   21.1530  -32.0120 C   0  0  0  0  0  0  0  0  0  0  0  0
   -4.6230   21.5810  -31.4370 C   0  0  0  0  0  0  0  0  0  0  0  0
   -4.4720   22.3780  -30.3550 N   0  0  0  0  0  0  0  0  0  0  0  0
   -3.2150   22.6980  -29.9270 C   0  0  0  0  0  0  0  0  0  0  0  0
   -3.0770   23.5510  -28.7210 C   0  0  0  0  0  0  0  0  0  0  0  0
   -4.1490   23.7330  -27.8290 C   0  0  0  0  0  0  0  0  0  0  0  0
   -4.0020   24.5450  -26.7020 C   0  0  0  0  0  0  0  0  0  0  0  0
   -2.8020   25.2200  -26.4610 C   0  0  0  0  0  0  0  0  0  0  0  0
   -2.7180   26.0440  -25.3280 O   0  0  0  0  0  0  0  0  0  0  0  0
   -1.5500   26.6940  -24.9220 C   0  0  0  0  0  0  0  0  0  0  0  0
   -0.8260   26.2260  -23.8230 C   0  0  0  0  0  0  0  0  0  0  0  0
    0.3270   26.8970  -23.4050 C   0  0  0  0  0  0  0  0  0  0  0  0
    0.7660   28.0550  -24.0810 C   0  0  0  0  0  0  0  0  0  0  0  0
    1.9170   28.7570  -23.6830 O   0  0  0  0  0  0  0  0  0  0  0  0
    2.4280   28.7840  -22.3520 C   0  0  0  0  0  0  0  0  0  0  0  0
    0.0280   28.5290  -25.1840 C   0  0  0  0  0  0  0  0  0  0  0  0
    0.4760   29.7560  -25.9290 C   0  0  0  0  0  0  0  0  0  0  0  0
   -1.1210   27.8370  -25.6030 C   0  0  0  0  0  0  0  0  0  0  0  0
   -1.7310   25.0590  -27.3590 C   0  0  0  0  0  0  0  0  0  0  0  0
   -1.8690   24.2320  -28.4790 C   0  0  0  0  0  0  0  0  0  0  0  0
   -2.0790   22.2090  -30.6370 C   0  0  0  0  0  0  0  0  0  0  0  0
   -0.7900   22.5440  -30.2100 O   0  0  0  0  0  0  0  0  0  0  0  0
   -2.2900   21.3840  -31.7690 C   0  0  0  0  0  0  0  0  0  0  0  0
   -1.1720   20.8700  -32.5880 C   0  0  0  0  0  0  0  0  0  0  0  0
   -0.4370   19.7490  -32.1660 C   0  0  0  0  0  0  0  0  0  0  0  0
    0.6220   19.2670  -32.9410 C   0  0  0  0  0  0  0  0  0  0  0  0
    0.9580   19.9040  -34.1400 C   0  0  0  0  0  0  0  0  0  0  0  0
    0.2400   21.0290  -34.5600 C   0  0  0  0  0  0  0  0  0  0  0  0
    0.6480   21.8260  -36.0710 Cl  0  0  0  0  0  0  0  0  0  0  0  0
   -0.8180   21.5150  -33.7810 C   0  0  0  0  0  0  0  0  0  0  0  0
   -3.5740   21.0950  -32.1070 N   0  0  0  0  0  0  0  0  0  0  0  0
   -3.9920   20.3610  -33.1260 N   0  0  0  0  0  0  0  0  0  0  0  0
   -5.2451   17.7810  -33.6922 H   0  0  0  0  0  0  0  0  0  0  0  0
   -6.2719   17.8120  -35.1657 H   0  0  0  0  0  0  0  0  0  0  0  0
   -4.6759   18.6361  -35.1657 H   0  0  0  0  0  0  0  0  0  0  0  0
   -6.4027   20.3298  -34.9282 H   0  0  0  0  0  0  0  0  0  0  0  0
   -7.1679   19.4083  -33.5745 H   0  0  0  0  0  0  0  0  0  0  0  0
   -6.8302   21.3674  -31.7048 H   0  0  0  0  0  0  0  0  0  0  0  0
   -5.1097   23.2325  -28.0201 H   0  0  0  0  0  0  0  0  0  0  0  0
   -4.8392   24.6544  -25.9969 H   0  0  0  0  0  0  0  0  0  0  0  0
   -1.1637   25.3277  -23.2854 H   0  0  0  0  0  0  0  0  0  0  0  0
    0.8961   26.5194  -22.5427 H   0  0  0  0  0  0  0  0  0  0  0  0
    1.5927   28.7399  -21.6376 H   0  0  0  0  0  0  0  0  0  0  0  0
    3.0901   27.9196  -22.1958 H   0  0  0  0  0  0  0  0  0  0  0  0
    2.9953   29.7134  -22.1958 H   0  0  0  0  0  0  0  0  0  0  0  0
    0.7615   30.5378  -25.2098 H   0  0  0  0  0  0  0  0  0  0  0  0
    1.3408   29.5058  -26.5611 H   0  0  0  0  0  0  0  0  0  0  0  0
   -0.3465   30.1219  -26.5611 H   0  0  0  0  0  0  0  0  0  0  0  0
   -1.6876   28.1977  -26.4741 H   0  0  0  0  0  0  0  0  0  0  0  0
   -0.7818   25.5852  -27.1799 H   0  0  0  0  0  0  0  0  0  0  0  0
   -1.0266   24.1129  -29.1762 H   0  0  0  0  0  0  0  0  0  0  0  0
   -0.0190   21.8880  -30.2140 H   0  0  0  0  0  0  0  0  0  0  0  0
   -0.6962   19.2484  -31.2214 H   0  0  0  0  0  0  0  0  0  0  0  0
    1.1911   18.3866  -32.6078 H   0  0  0  0  0  0  0  0  0  0  0  0
    1.7870   19.5204  -34.7529 H   0  0  0  0  0  0  0  0  0  0  0  0
   -1.3734   22.4068  -34.1070 H   0  0  0  0  0  0  0  0  0  0  0  0
  1  2  1  0
  2  3  1  0
  3  4  1  0
  4  5  2  0
  5  6  1  0
  6  7  2  0
  7  8  1  0
  8  9  2  0
  9 10  1  0
 10 11  2  0
 11 12  1  0
 12 13  1  0
 13 14  2  0
 14 15  1  0
 15 16  2  0
 16 17  1  0
 17 18  1  0
 16 19  1  0
 19 20  1  0
 19 21  2  0
 11 22  1  0
 22 23  2  0
  7 24  1  0
 24 25  1  0
 24 26  2  0
 26 27  1  0
 27 28  2  0
 28 29  1  0
 29 30  2  0
 30 31  1  0
 31 32  1  0
 31 33  2  0
 26 34  1  0
 34 35  1  0
 35  3  2  0
 34  5  1  0
 23  8  1  0
 33 27  1  0
 21 13  1  0
  1 36  1  0
  1 37  1  0
  1 38  1  0
  2 39  1  0
  2 40  1  0
  4 41  1  0
  9 42  1  0
 10 43  1  0
 14 44  1  0
 15 45  1  0
 18 46  1  0
 18 47  1  0
 18 48  1  0
 20 49  1  0
 20 50  1  0
 20 51  1  0
 21 52  1  0
 22 53  1  0
 23 54  1  0
 25 55  1  0
 28 56  1  0
 29 57  1  0
 30 58  1  0
 33 59  1  0
M  END
>  <UniqueID>  (1) 
1

>  <SMILES>  (1) 
CCc1cc2nc(-c3ccc(Oc4ccc(OC)c(C)c4)cc3)c(O)c(-c3cccc(Cl)c3)n2n1

>  <Energy>  (1) 
119.9802287732163

>  <Genealogy>  (1) 
CCc1cc2nc(-c3ccc(Oc4ccc(OC)c(C)c4)cc3)c(O)c(-c3cccc(Cl)c3)n2n1 (3D coordinates assigned)
CCc1cc2nc(-c3ccc(Oc4ccc(OC)c(C)c4)cc3)c(O)c(-c3cccc(Cl)c3)n2n1 (optimized conformer: 119.9802287732163 kcal/mol)

>  <smiles>  (1) 
CCc1cc2nc(-c3ccc(Oc4ccc(OC)c(C)c4)cc3)c(O)c(-c3cccc(Cl)c3)n2n1

>  <score_type>  (1) 
oracle

>  <origin>  (1) 
adgpu

>  <m_score__min__energy>  (1) 
-9.1999999999999993

>  <m_primary>  (1) 
energy

$$$$
1:0
     RDKit          3D

 62 65  0  0  0  0  0  0  0  0999 V2000
   -1.1700   20.7900  -25.9670 C   0  0  0  0  0  0  0  0  0  0  0  0
   -1.9070   21.2170  -27.2030 C   0  0  0  0  0  0  0  0  0  0  0  0
   -2.5370   20.2630  -28.0110 C   0  0  0  0  0  0  0  0  0  0  0  0
   -3.2000   20.6560  -29.1750 C   0  0  0  0  0  0  0  0  0  0  0  0
   -3.2400   22.0040  -29.5530 C   0  0  0  0  0  0  0  0  0  0  0  0
   -3.9560   22.3670  -30.7410 N   0  0  0  0  0  0  0  0  0  0  0  0
   -5.2920   23.4710  -30.6850 S   0  0  0  0  0  0  0  0  0  0  0  0
   -4.9900   24.6600  -31.5550 O   0  0  0  0  0  0  0  0  0  0  0  0
   -5.4870   23.9440  -29.2740 O   0  0  0  0  0  0  0  0  0  0  0  0
   -6.7560   22.6670  -31.2390 C   0  0  0  0  0  0  0  0  0  0  0  0
   -7.8260   23.4290  -31.7240 C   0  0  0  0  0  0  0  0  0  0  0  0
   -9.0000   22.8000  -32.1480 C   0  0  0  0  0  0  0  0  0  0  0  0
   -9.1060   21.4080  -32.0990 C   0  0  0  0  0  0  0  0  0  0  0  0
   -8.0270   20.6320  -31.6420 C   0  0  0  0  0  0  0  0  0  0  0  0
   -8.1040   19.2000  -31.5710 N   0  0  0  0  0  0  0  0  0  0  0  0
   -6.9950   18.2920  -31.5920 C   0  0  0  0  0  0  0  0  0  0  0  0
   -6.9050   17.4300  -30.6770 O   0  0  0  0  0  0  0  0  0  0  0  0
   -5.9310   18.3720  -32.6210 C   0  0  0  0  0  0  0  0  0  0  0  0
   -5.8830   17.4490  -33.6810 C   0  0  0  0  0  0  0  0  0  0  0  0
   -4.8800   17.5370  -34.6490 C   0  0  0  0  0  0  0  0  0  0  0  0
   -3.9220   18.5480  -34.5780 C   0  0  0  0  0  0  0  0  0  0  0  0
   -3.9630   19.4830  -33.5350 C   0  0  0  0  0  0  0  0  0  0  0  0
   -2.7760   20.7830  -33.4490 S   0  0  0  0  0  0  0  0  0  0  0  0
   -1.8160   20.6200  -34.5950 O   0  0  0  0  0  0  0  0  0  0  0  0
   -3.4670   22.1090  -33.5950 O   0  0  0  0  0  0  0  0  0  0  0  0
   -1.9030   20.6900  -31.9330 N   0  0  0  0  0  0  0  0  0  0  0  0
   -0.7330   21.5880  -31.8970 C   0  0  0  0  0  0  0  0  0  0  0  0
    0.4940   20.9730  -32.5860 C   0  0  0  0  0  0  0  0  0  0  0  0
    0.7960   19.7070  -32.0380 O   0  0  0  0  0  0  0  0  0  0  0  0
   -0.2770   18.8220  -32.2780 C   0  0  0  0  0  0  0  0  0  0  0  0
   -1.5550   19.3040  -31.5720 C   0  0  0  0  0  0  0  0  0  0  0  0
   -4.9720   19.3980  -32.5650 C   0  0  0  0  0  0  0  0  0  0  0  0
   -6.8620   21.2690  -31.1970 C   0  0  0  0  0  0  0  0  0  0  0  0
   -2.5520   22.9670  -28.7760 C   0  0  0  0  0  0  0  0  0  0  0  0
   -2.4950   24.4140  -29.1830 C   0  0  0  0  0  0  0  0  0  0  0  0
   -1.9040   22.5630  -27.5970 C   0  0  0  0  0  0  0  0  0  0  0  0
   -1.7289   21.1138  -25.0766 H   0  0  0  0  0  0  0  0  0  0  0  0
   -1.0708   19.6945  -25.9593 H   0  0  0  0  0  0  0  0  0  0  0  0
   -0.1703   21.2488  -25.9593 H   0  0  0  0  0  0  0  0  0  0  0  0
   -2.5095   19.2004  -27.7278 H   0  0  0  0  0  0  0  0  0  0  0  0
   -3.6957   19.8997  -29.8013 H   0  0  0  0  0  0  0  0  0  0  0  0
   -3.9250   21.7110  -31.5540 H   0  0  0  0  0  0  0  0  0  0  0  0
   -7.7425   24.5248  -31.7714 H   0  0  0  0  0  0  0  0  0  0  0  0
   -9.8417   23.4021  -32.5208 H   0  0  0  0  0  0  0  0  0  0  0  0
  -10.0371   20.9176  -32.4192 H   0  0  0  0  0  0  0  0  0  0  0  0
   -6.6396   16.6533  -33.7481 H   0  0  0  0  0  0  0  0  0  0  0  0
   -4.8456   16.8062  -35.4704 H   0  0  0  0  0  0  0  0  0  0  0  0
   -3.1330   18.6116  -35.3418 H   0  0  0  0  0  0  0  0  0  0  0  0
   -0.9919   22.5273  -32.4076 H   0  0  0  0  0  0  0  0  0  0  0  0
   -0.4747   21.7627  -30.8421 H   0  0  0  0  0  0  0  0  0  0  0  0
    0.2855   20.8604  -33.6602 H   0  0  0  0  0  0  0  0  0  0  0  0
    1.3558   21.6387  -32.4305 H   0  0  0  0  0  0  0  0  0  0  0  0
   -0.4628   18.7668  -33.3608 H   0  0  0  0  0  0  0  0  0  0  0  0
   -0.0099   17.8309  -31.8826 H   0  0  0  0  0  0  0  0  0  0  0  0
   -2.3875   18.6441  -31.8575 H   0  0  0  0  0  0  0  0  0  0  0  0
   -1.3730   19.2736  -30.4876 H   0  0  0  0  0  0  0  0  0  0  0  0
   -5.0133   20.1400  -31.7540 H   0  0  0  0  0  0  0  0  0  0  0  0
   -6.0244   20.6690  -30.8119 H   0  0  0  0  0  0  0  0  0  0  0  0
   -2.4701   25.0471  -28.2838 H   0  0  0  0  0  0  0  0  0  0  0  0
   -1.5892   24.5912  -29.7814 H   0  0  0  0  0  0  0  0  0  0  0  0
   -3.3841   24.6619  -29.7814 H   0  0  0  0  0  0  0  0  0  0  0  0
   -1.3886   23.3105  -26.9760 H   0  0  0  0  0  0  0  0  0  0  0  0
  1  2  1  0
  2  3  2  0
  3  4  1  0
  4  5  2  0
  5  6  1  0
  6  7  1  0
  7  8  2  0
  7  9  2  0
  7 10  1  0
 10 11  2  0
 11 12  1  0
 12 13  2  0
 13 14  1  0
 14 15  1  0
 15 16  1  0
 16 17  2  0
 16 18  1  0
 18 19  2  0
 19 20  1  0
 20 21  2  0
 21 22  1  0
 22 23  1  0
 23 24  2  0
 23 25  2  0
 23 26  1  0
 26 27  1  0
 27 28  1  0
 28 29  1  0
 29 30  1  0
 30 31  1  0
 22 32  2  0
 14 33  2  0
  5 34  1  0
 34 35  1  0
 34 36  2  0
 36  2  1  0
 33 10  1  0
 32 18  1  0
 31 26  1  0
  1 37  1  0
  1 38  1  0
  1 39  1  0
  3 40  1  0
  4 41  1  0
  6 42  1  0
 11 43  1  0
 12 44  1  0
 13 45  1  0
 19 46  1  0
 20 47  1  0
 21 48  1  0
 27 49  1  0
 27 50  1  0
 28 51  1  0
 28 52  1  0
 30 53  1  0
 30 54  1  0
 31 55  1  0
 31 56  1  0
 32 57  1  0
 33 58  1  0
 35 59  1  0
 35 60  1  0
 35 61  1  0
 36 62  1  0
M  CHG  1  15  -1
M  END
>  <UniqueID>  (2) 
2

>  <SMILES>  (2) 
Cc1ccc(NS(=O)(=O)c2cccc([N-]C(=O)c3cccc(S(=O)(=O)N4CCOCC4)c3)c2)c(C)c1

>  <Energy>  (2) 
82.55298535014042

>  <Genealogy>  (2) 
Cc1ccc(NS(=O)(=O)c2cccc([N-]C(=O)c3cccc(S(=O)(=O)N4CCOCC4)c3)c2)c(C)c1 (protonated)
Cc1ccc(NS(=O)(=O)c2cccc([N-]C(=O)c3cccc(S(=O)(=O)N4CCOCC4)c3)c2)c(C)c1 (3D coordinates assigned)
Cc1ccc(NS(=O)(=O)c2cccc([N-]C(=O)c3cccc(S(=O)(=O)N4CCOCC4)c3)c2)c(C)c1 (nonaromatic ring conformer: 82.55298535014042 kcal/mol)

>  <smiles>  (2) 
Cc1ccc(NS(=O)(=O)c2cccc(NC(=O)c3cccc(S(=O)(=O)N4CCOCC4)c3)c2)c(C)c1

>  <score_type>  (2) 
oracle

>  <origin>  (2) 
adgpu

>  <m_score__min__energy>  (2) 
-12.779999999999999

>  <m_primary>  (2) 
energy

$$$$
2:0
     RDKit          3D

 46 48  0  0  0  0  0  0  0  0999 V2000
   -2.6740   19.7060  -33.2030 C   0  0  0  0  0  0  0  0  0  0  0  0
   -3.2740   21.0020  -33.5040 N   0  0  0  0  0  0  0  0  0  0  0  0
   -4.4150   21.5330  -32.8030 C   0  0  0  0  0  0  0  0  0  0  0  0
   -5.6680   20.9220  -32.9720 C   0  0  0  0  0  0  0  0  0  0  0  0
   -6.7940   21.4220  -32.3130 C   0  0  0  0  0  0  0  0  0  0  0  0
   -6.6820   22.5350  -31.4800 C   0  0  0  0  0  0  0  0  0  0  0  0
   -5.4400   23.1530  -31.2930 C   0  0  0  0  0  0  0  0  0  0  0  0
   -5.3270   24.5770  -30.2630 S   0  0  0  0  0  0  0  0  0  0  0  0
   -4.2830   25.4980  -30.8280 O   0  0  0  0  0  0  0  0  0  0  0  0
   -6.6370   25.3120  -30.2060 O   0  0  0  0  0  0  0  0  0  0  0  0
   -4.8620   24.0980  -28.6600 N   0  0  0  0  0  0  0  0  0  0  0  0
   -3.7180   23.2740  -28.3830 C   0  0  0  0  0  0  0  0  0  0  0  0
   -2.4340   23.7750  -28.6370 C   0  0  0  0  0  0  0  0  0  0  0  0
   -1.3030   22.9900  -28.3940 C   0  0  0  0  0  0  0  0  0  0  0  0
   -1.4400   21.6820  -27.8990 C   0  0  0  0  0  0  0  0  0  0  0  0
   -0.3220   20.8720  -27.6420 O   0  0  0  0  0  0  0  0  0  0  0  0
    0.0900   19.7840  -28.4240 C   0  0  0  0  0  0  0  0  0  0  0  0
    0.3310   18.5610  -27.7960 C   0  0  0  0  0  0  0  0  0  0  0  0
    0.7330   17.4520  -28.5380 C   0  0  0  0  0  0  0  0  0  0  0  0
    0.8920   17.5470  -29.9250 C   0  0  0  0  0  0  0  0  0  0  0  0
    1.4130   16.1080  -30.7980 Cl  0  0  0  0  0  0  0  0  0  0  0  0
    0.6310   18.7690  -30.5860 C   0  0  0  0  0  0  0  0  0  0  0  0
    0.7880   18.8850  -32.0870 C   0  0  0  0  0  0  0  0  0  0  0  0
   -0.0150   17.9820  -32.7630 F   0  0  0  0  0  0  0  0  0  0  0  0
    2.1040   18.6390  -32.4370 F   0  0  0  0  0  0  0  0  0  0  0  0
    0.4410   20.1620  -32.4920 F   0  0  0  0  0  0  0  0  0  0  0  0
    0.2210   19.8800  -29.8210 C   0  0  0  0  0  0  0  0  0  0  0  0
   -2.7210   21.1900  -27.6080 C   0  0  0  0  0  0  0  0  0  0  0  0
   -2.9280   19.5740  -26.9520 Cl  0  0  0  0  0  0  0  0  0  0  0  0
   -3.8500   21.9810  -27.8470 C   0  0  0  0  0  0  0  0  0  0  0  0
   -4.3080   22.6520  -31.9530 C   0  0  0  0  0  0  0  0  0  0  0  0
   -2.6131   19.5745  -32.1126 H   0  0  0  0  0  0  0  0  0  0  0  0
   -3.2934   18.9060  -33.6348 H   0  0  0  0  0  0  0  0  0  0  0  0
   -1.6633   19.6607  -33.6348 H   0  0  0  0  0  0  0  0  0  0  0  0
   -2.8320   21.5760  -34.2580 H   0  0  0  0  0  0  0  0  0  0  0  0
   -5.7637   20.0439  -33.6276 H   0  0  0  0  0  0  0  0  0  0  0  0
   -7.7713   20.9366  -32.4515 H   0  0  0  0  0  0  0  0  0  0  0  0
   -7.5727   22.9285  -30.9682 H   0  0  0  0  0  0  0  0  0  0  0  0
   -5.3640   24.5560  -27.8660 H   0  0  0  0  0  0  0  0  0  0  0  0
   -2.3151   24.7951  -29.0311 H   0  0  0  0  0  0  0  0  0  0  0  0
   -0.3008   23.3983  -28.5913 H   0  0  0  0  0  0  0  0  0  0  0  0
    0.2026   18.4719  -26.7072 H   0  0  0  0  0  0  0  0  0  0  0  0
    0.9266   16.4957  -28.0301 H   0  0  0  0  0  0  0  0  0  0  0  0
    0.0008   20.8337  -30.3230 H   0  0  0  0  0  0  0  0  0  0  0  0
   -4.8503   21.5876  -27.6133 H   0  0  0  0  0  0  0  0  0  0  0  0
   -3.3309   23.1355  -31.8062 H   0  0  0  0  0  0  0  0  0  0  0  0
  1  2  1  0
  2  3  1  0
  3  4  2  0
  4  5  1  0
  5  6  2  0
  6  7  1  0
  7  8  1  0
  8  9  2  0
  8 10  2  0
  8 11  1  0
 11 12  1  0
 12 13  2  0
 13 14  1  0
 14 15  2  0
 15 16  1  0
 16 17  1  0
 17 18  2  0
 18 19  1  0
 19 20  2  0
 20 21  1  0
 20 22  1  0
 22 23  1  0
 23 24  1  0
 23 25  1  0
 23 26  1  0
 22 27  2  0
 15 28  1  0
 28 29  1  0
 28 30  2  0
  7 31  2  0
 31  3  1  0
 30 12  1  0
 27 17  1  0
  1 32  1  0
  1 33  1  0
  1 34  1  0
  2 35  1  0
  4 36  1  0
  5 37  1  0
  6 38  1  0
 11 39  1  0
 13 40  1  0
 14 41  1  0
 18 42  1  0
 19 43  1  0
 27 44  1  0
 30 45  1  0
 31 46  1  0
M  END
>  <UniqueID>  (3) 
3

>  <SMILES>  (3) 
CNc1cccc(S(=O)(=O)Nc2ccc(Oc3ccc(Cl)c(C(F)(F)F)c3)c(Cl)c2)c1

>  <Energy>  (3) 
58.35765812304975

>  <Genealogy>  (3) 
CNc1cccc(S(=O)(=O)Nc2ccc(Oc3ccc(Cl)c(C(F)(F)F)c3)c(Cl)c2)c1 (3D coordinates assigned)
CNc1cccc(S(=O)(=O)Nc2ccc(Oc3ccc(Cl)c(C(F)(F)F)c3)c(Cl)c2)c1 (optimized conformer: 58.35765812304975 kcal/mol)

>  <smiles>  (3) 
CNc1cccc(S(=O)(=O)Nc2ccc(Oc3ccc(Cl)c(C(F)(F)F)c3)c(Cl)c2)c1

>  <score_type>  (3) 
oracle

>  <origin>  (3) 
adgpu

>  <m_score__min__energy>  (3) 
-10.06

>  <m_primary>  (3) 
energy

$$$$
3:0
     RDKit          3D

 39 41  0  0  1  0  0  0  0  0999 V2000
   -1.9170   22.9170  -29.5650 C   0  0  0  0  0  0  0  0  0  0  0  0
   -2.6640   23.8260  -28.7910 N   0  0  0  0  0  0  0  0  0  0  0  0
   -1.9540   24.5530  -27.7840 C   0  0  0  0  0  0  0  0  0  0  0  0
   -3.9990   23.5140  -28.4330 C   0  0  0  0  0  0  0  0  0  0  0  0
   -4.9150   23.6880  -29.5580 C   0  0  0  0  0  0  0  0  0  0  0  0
   -5.9560   22.7570  -29.6750 C   0  0  0  0  0  0  0  0  0  0  0  0
   -6.8950   22.8540  -30.6980 C   0  0  0  0  0  0  0  0  0  0  0  0
   -7.9280   21.9060  -30.7280 N   0  0  0  0  0  0  0  0  0  0  0  0
   -7.8650   20.7840  -31.3000 C   0  0  0  0  0  0  0  0  0  0  0  0
   -8.8740   19.8900  -31.3160 N   0  0  0  0  0  0  0  0  0  0  0  0
   -8.5340   18.8040  -31.9850 N   0  0  0  0  0  0  0  0  0  0  0  0
   -7.2760   18.9950  -32.4150 C   0  0  0  0  0  0  0  0  0  0  0  0
   -6.4650   18.1660  -33.1550 C   0  0  0  0  0  0  0  0  0  0  0  0
   -5.2030   18.6250  -33.4570 C   0  0  0  0  0  0  0  0  0  0  0  0
   -4.0380   17.5380  -34.4700 Br  0  0  0  0  0  0  0  0  0  0  0  0
   -4.7580   19.8600  -33.0420 C   0  0  0  0  0  0  0  0  0  0  0  0
   -2.9780   20.4250  -33.5060 Br  0  0  0  0  0  0  0  0  0  0  0  0
   -5.5720   20.6950  -32.2970 C   0  0  0  0  0  0  0  0  0  0  0  0
   -6.8250   20.2410  -31.9960 C   0  0  0  0  0  0  0  0  0  0  0  0
   -6.8280   23.8870  -31.6440 C   0  0  0  0  0  0  0  0  0  0  0  0
   -5.8020   24.8010  -31.5270 C   0  0  0  0  0  0  0  0  0  0  0  0
   -4.8730   24.6860  -30.4960 C   0  0  0  0  0  0  0  0  0  0  0  0
   -3.8800   25.6400  -30.4560 O   0  0  0  0  0  0  0  0  0  0  0  0
   -1.3606   22.2400  -28.9001 H   0  0  0  0  0  0  0  0  0  0  0  0
   -2.5974   22.3303  -30.1997 H   0  0  0  0  0  0  0  0  0  0  0  0
   -1.2096   23.4707  -30.1997 H   0  0  0  0  0  0  0  0  0  0  0  0
   -2.2821   24.2171  -26.7893 H   0  0  0  0  0  0  0  0  0  0  0  0
   -0.8745   24.3729  -27.8942 H   0  0  0  0  0  0  0  0  0  0  0  0
   -2.1596   25.6280  -27.8942 H   0  0  0  0  0  0  0  0  0  0  0  0
   -4.0425   22.4677  -28.0964 H   0  0  0  0  0  0  0  0  0  0  0  0
   -4.3079   24.1996  -27.6302 H   0  0  0  0  0  0  0  0  0  0  0  0
   -6.0323   21.9363  -28.9466 H   0  0  0  0  0  0  0  0  0  0  0  0
   -9.8140   19.9970  -30.8720 H   0  0  0  0  0  0  0  0  0  0  0  0
   -9.1260   17.9430  -32.1570 H   0  0  0  0  0  0  0  0  0  0  0  0
   -6.8107   17.1774  -33.4914 H   0  0  0  0  0  0  0  0  0  0  0  0
   -5.2247   21.6832  -31.9611 H   0  0  0  0  0  0  0  0  0  0  0  0
   -7.5694   23.9657  -32.4528 H   0  0  0  0  0  0  0  0  0  0  0  0
   -5.7171   25.6245  -32.2513 H   0  0  0  0  0  0  0  0  0  0  0  0
   -3.1010   25.6700  -29.8230 H   0  0  0  0  0  0  0  0  0  0  0  0
  1  2  1  0
  2  3  1  0
  2  4  1  0
  4  5  1  0
  5  6  2  0
  6  7  1  0
  7  8  1  0
  8  9  2  0
  9 10  1  0
 10 11  1  0
 11 12  1  0
 12 13  2  0
 13 14  1  0
 14 15  1  0
 14 16  2  0
 16 17  1  0
 16 18  1  0
 18 19  2  0
  7 20  2  0
 20 21  1  0
 21 22  2  0
 22 23  1  0
 22  5  1  0
 19  9  1  0
 19 12  1  0
  1 24  1  0
  1 25  1  0
  1 26  1  0
  3 27  1  0
  3 28  1  0
  3 29  1  0
  4 30  1  0
  4 31  1  0
  6 32  1  0
 10 33  1  0
 11 34  1  0
 13 35  1  0
 18 36  1  0
 20 37  1  0
 21 38  1  0
 23 39  1  0
M  END
>  <smiles>  (4) 
CN(C)Cc1cc(N=c2[nH][nH]c3cc(Br)c(Br)cc23)ccc1O

>  <score_type>  (4) 
oracle

>  <origin>  (4) 
adgpu

>  <m_score__min__energy>  (4) 
-9.6999999999999993

>  <m_primary>  (4) 
energy

$$$$
4:0
     RDKit          3D

 51 55  0  0  0  0  0  0  0  0999 V2000
   -5.7270   18.2140  -35.7190 O   0  0  0  0  0  0  0  0  0  0  0  0
   -5.7520   18.3880  -34.4670 C   0  0  0  0  0  0  0  0  0  0  0  0
   -4.7350   19.2940  -33.8580 C   0  0  0  0  0  0  0  0  0  0  0  0
   -3.3670   19.0160  -34.0320 C   0  0  0  0  0  0  0  0  0  0  0  0
   -2.3950   19.8470  -33.4750 C   0  0  0  0  0  0  0  0  0  0  0  0
   -2.7700   20.9710  -32.7400 C   0  0  0  0  0  0  0  0  0  0  0  0
   -4.1270   21.2800  -32.5560 C   0  0  0  0  0  0  0  0  0  0  0  0
   -4.5260   22.4850  -31.7830 C   0  0  0  0  0  0  0  0  0  0  0  0
   -5.7400   23.1380  -32.0580 C   0  0  0  0  0  0  0  0  0  0  0  0
   -6.1130   24.2700  -31.3320 C   0  0  0  0  0  0  0  0  0  0  0  0
   -5.2830   24.7650  -30.3240 C   0  0  0  0  0  0  0  0  0  0  0  0
   -4.0650   24.1290  -30.0310 C   0  0  0  0  0  0  0  0  0  0  0  0
   -3.1860   24.6500  -28.9600 C   0  0  0  0  0  0  0  0  0  0  0  0
   -3.4800   24.5290  -27.6370 N   0  0  0  0  0  0  0  0  0  0  0  0
   -2.4350   25.1260  -27.0460 C   0  0  0  0  0  0  0  0  0  0  0  0
   -2.2070   25.2950  -25.6830 C   0  0  0  0  0  0  0  0  0  0  0  0
   -1.0270   25.9590  -25.2950 C   0  0  0  0  0  0  0  0  0  0  0  0
   -0.1190   26.4310  -26.2720 C   0  0  0  0  0  0  0  0  0  0  0  0
   -0.3840   26.2400  -27.6420 C   0  0  0  0  0  0  0  0  0  0  0  0
   -1.5610   25.5790  -27.9850 C   0  0  0  0  0  0  0  0  0  0  0  0
   -2.0120   25.2910  -29.2140 N   0  0  0  0  0  0  0  0  0  0  0  0
   -3.6940   22.9880  -30.7660 C   0  0  0  0  0  0  0  0  0  0  0  0
   -5.1030   20.4360  -33.1180 C   0  0  0  0  0  0  0  0  0  0  0  0
   -6.7740   17.7280  -33.6690 N   0  0  0  0  0  0  0  0  0  0  0  0
   -6.5840   17.9460  -32.2080 C   0  0  0  0  0  0  0  0  0  0  0  0
   -5.8630   16.7800  -31.5020 C   0  0  0  0  0  0  0  0  0  0  0  0
   -4.9270   16.1310  -32.4200 N   0  0  0  0  0  0  0  0  0  0  0  0
   -5.6390   15.4820  -33.5310 C   0  0  0  0  0  0  0  0  0  0  0  0
   -6.8670   16.2920  -34.0110 C   0  0  0  0  0  0  0  0  0  0  0  0
   -3.0606   18.1339  -34.6135 H   0  0  0  0  0  0  0  0  0  0  0  0
   -1.3291   19.6148  -33.6160 H   0  0  0  0  0  0  0  0  0  0  0  0
   -1.9975   21.6198  -32.3015 H   0  0  0  0  0  0  0  0  0  0  0  0
   -6.3999   22.7545  -32.8501 H   0  0  0  0  0  0  0  0  0  0  0  0
   -7.0648   24.7744  -31.5547 H   0  0  0  0  0  0  0  0  0  0  0  0
   -5.5844   25.6577  -29.7563 H   0  0  0  0  0  0  0  0  0  0  0  0
   -2.9232   24.9231  -24.9355 H   0  0  0  0  0  0  0  0  0  0  0  0
   -0.8104   26.1113  -24.2274 H   0  0  0  0  0  0  0  0  0  0  0  0
    0.7992   26.9501  -25.9598 H   0  0  0  0  0  0  0  0  0  0  0  0
    0.3132   26.5998  -28.4130 H   0  0  0  0  0  0  0  0  0  0  0  0
   -2.7424   22.4834  -30.5429 H   0  0  0  0  0  0  0  0  0  0  0  0
   -6.1684   20.6709  -32.9778 H   0  0  0  0  0  0  0  0  0  0  0  0
   -7.6950   18.1670  -33.9000 H   0  0  0  0  0  0  0  0  0  0  0  0
   -5.9890   18.8603  -32.0666 H   0  0  0  0  0  0  0  0  0  0  0  0
   -7.5851   18.0271  -31.7595 H   0  0  0  0  0  0  0  0  0  0  0  0
   -5.3097   17.1679  -30.6340 H   0  0  0  0  0  0  0  0  0  0  0  0
   -6.6110   16.0432  -31.1738 H   0  0  0  0  0  0  0  0  0  0  0  0
   -4.4060   15.3940  -31.8890 H   0  0  0  0  0  0  0  0  0  0  0  0
   -4.9428   15.3662  -34.3747 H   0  0  0  0  0  0  0  0  0  0  0  0
   -6.0047   14.5104  -33.1674 H   0  0  0  0  0  0  0  0  0  0  0  0
   -6.9469   16.1952  -35.1038 H   0  0  0  0  0  0  0  0  0  0  0  0
   -7.7526   15.8859  -33.5003 H   0  0  0  0  0  0  0  0  0  0  0  0
  1  2  2  0
  2  3  1  0
  3  4  2  0
  4  5  1  0
  5  6  2  0
  6  7  1  0
  7  8  1  0
  8  9  2  0
  9 10  1  0
 10 11  2  0
 11 12  1  0
 12 13  1  0
 13 14  2  0
 14 15  1  0
 15 16  2  0
 16 17  1  0
 17 18  2  0
 18 19  1  0
 19 20  2  0
 20 21  1  0
 12 22  2  0
  7 23  2  0
  2 24  1  0
 24 25  1  0
 25 26  1  0
 26 27  1  0
 27 28  1  0
 28 29  1  0
 23  3  1  0
 29 24  1  0
 22  8  1  0
 21 13  1  0
 20 15  1  0
  4 30  1  0
  5 31  1  0
  6 32  1  0
  9 33  1  0
 10 34  1  0
 11 35  1  0
 16 36  1  0
 17 37  1  0
 18 38  1  0
 19 39  1  0
 22 40  1  0
 23 41  1  0
 24 42  1  0
 25 43  1  0
 25 44  1  0
 26 45  1  0
 26 46  1  0
 27 47  1  0
 28 48  1  0
 28 49  1  0
 29 50  1  0
 29 51  1  0
M  CHG  2  21  -1  24   1
M  END
>  <UniqueID>  (5) 
4

>  <SMILES>  (5) 
O=C(c1cccc(-c2cccc(-c3nc4ccccc4[n-]3)c2)c1)[NH+]1CCNCC1

>  <Energy>  (5) 
111.74325526457875

>  <Genealogy>  (5) 
O=C(c1cccc(-c2cccc(-c3nc4ccccc4[n-]3)c2)c1)[NH+]1CCNCC1 (protonated)
O=C(c1cccc(-c2cccc(-c3nc4ccccc4[n-]3)c2)c1)[NH+]1CCNCC1 (3D coordinates assigned)
O=C(c1cccc(-c2cccc(-c3nc4ccccc4[n-]3)c2)c1)[NH+]1CCNCC1 (nonaromatic ring conformer: 111.74325526457875 kcal/mol)

>  <smiles>  (5) 
O=C(c1cccc(-c2cccc(-c3nc4ccccc4[nH]3)c2)c1)N1CCNCC1

>  <score_type>  (5) 
oracle

>  <origin>  (5) 
adgpu

>  <m_score__min__energy>  (5) 
-10.220000000000001

>  <m_primary>  (5) 
energy

$$$$
5:0
     RDKit          3D

 48 50  0  0  0  0  0  0  0  0999 V2000
    0.0880   25.9230  -36.6430 C   0  0  0  0  0  0  0  0  0  0  0  0
    1.5650   25.5600  -36.5310 C   0  0  0  0  0  0  0  0  0  0  0  0
    1.7760   24.1890  -36.8700 O   0  0  0  0  0  0  0  0  0  0  0  0
    1.5260   23.0910  -36.0310 C   0  0  0  0  0  0  0  0  0  0  0  0
    2.5530   22.3240  -35.4510 C   0  0  0  0  0  0  0  0  0  0  0  0
    2.2450   21.2410  -34.6230 C   0  0  0  0  0  0  0  0  0  0  0  0
    0.9050   20.9090  -34.3410 C   0  0  0  0  0  0  0  0  0  0  0  0
    0.5220   19.7090  -33.4800 C   0  0  0  0  0  0  0  0  0  0  0  0
    0.1960   20.1270  -32.0380 C   0  0  0  0  0  0  0  0  0  0  0  0
   -1.1510   20.7740  -31.9520 C   0  0  0  0  0  0  0  0  0  0  0  0
   -1.3270   21.7230  -31.1390 O   0  0  0  0  0  0  0  0  0  0  0  0
   -2.2380   20.2990  -32.7680 N   0  0  0  0  0  0  0  0  0  0  0  0
   -3.5570   20.8520  -32.6050 C   0  0  0  0  0  0  0  0  0  0  0  0
   -4.6890   20.0300  -32.7120 C   0  0  0  0  0  0  0  0  0  0  0  0
   -5.9670   20.5660  -32.5350 C   0  0  0  0  0  0  0  0  0  0  0  0
   -6.1240   21.9280  -32.2630 C   0  0  0  0  0  0  0  0  0  0  0  0
   -5.0070   22.7680  -32.1810 C   0  0  0  0  0  0  0  0  0  0  0  0
   -5.2020   24.1550  -31.8730 N   0  0  0  0  0  0  0  0  0  0  0  0
   -4.8860   24.8100  -30.6370 C   0  0  0  0  0  0  0  0  0  0  0  0
   -5.8730   24.9150  -29.5140 C   0  0  0  0  0  0  0  0  0  0  0  0
   -3.7310   25.2820  -30.4770 O   0  0  0  0  0  0  0  0  0  0  0  0
   -3.7200   22.2190  -32.3260 C   0  0  0  0  0  0  0  0  0  0  0  0
   -1.9860   19.3170  -33.7940 C   0  0  0  0  0  0  0  0  0  0  0  0
   -2.9460   18.8180  -34.4410 O   0  0  0  0  0  0  0  0  0  0  0  0
   -0.5920   18.8250  -34.0850 C   0  0  0  0  0  0  0  0  0  0  0  0
   -0.1140   21.6750  -34.9340 C   0  0  0  0  0  0  0  0  0  0  0  0
    0.1960   22.7570  -35.7620 C   0  0  0  0  0  0  0  0  0  0  0  0
   -0.3411   26.0285  -35.6356 H   0  0  0  0  0  0  0  0  0  0  0  0
   -0.0158   26.8734  -37.1871 H   0  0  0  0  0  0  0  0  0  0  0  0
   -0.4445   25.1290  -37.1871 H   0  0  0  0  0  0  0  0  0  0  0  0
    2.1456   26.1947  -37.2165 H   0  0  0  0  0  0  0  0  0  0  0  0
    1.8906   25.7212  -35.4927 H   0  0  0  0  0  0  0  0  0  0  0  0
    3.6045   22.5782  -35.6504 H   0  0  0  0  0  0  0  0  0  0  0  0
    3.0575   20.6413  -34.1868 H   0  0  0  0  0  0  0  0  0  0  0  0
    1.4173   19.0703  -33.4574 H   0  0  0  0  0  0  0  0  0  0  0  0
    0.2069   19.2347  -31.3949 H   0  0  0  0  0  0  0  0  0  0  0  0
    0.9526   20.8537  -31.7071 H   0  0  0  0  0  0  0  0  0  0  0  0
   -4.5698   18.9597  -32.9361 H   0  0  0  0  0  0  0  0  0  0  0  0
   -6.8508   19.9153  -32.6098 H   0  0  0  0  0  0  0  0  0  0  0  0
   -7.1317   22.3426  -32.1124 H   0  0  0  0  0  0  0  0  0  0  0  0
   -5.3418   24.8585  -28.5524 H   0  0  0  0  0  0  0  0  0  0  0  0
   -6.4058   25.8749  -29.5827 H   0  0  0  0  0  0  0  0  0  0  0  0
   -6.5958   24.0887  -29.5827 H   0  0  0  0  0  0  0  0  0  0  0  0
   -2.8355   22.8644  -32.2202 H   0  0  0  0  0  0  0  0  0  0  0  0
   -0.4901   17.8096  -33.6743 H   0  0  0  0  0  0  0  0  0  0  0  0
   -0.4646   18.8529  -35.1772 H   0  0  0  0  0  0  0  0  0  0  0  0
   -1.1670   21.4197  -34.7440 H   0  0  0  0  0  0  0  0  0  0  0  0
   -0.6153   23.3520  -36.2067 H   0  0  0  0  0  0  0  0  0  0  0  0
  1  2  1  0
  2  3  1  0
  3  4  1  0
  4  5  2  0
  5  6  1  0
  6  7  2  0
  7  8  1  0
  8  9  1  0
  9 10  1  0
 10 11  2  0
 10 12  1  0
 12 13  1  0
 13 14  2  0
 14 15  1  0
 15 16  2  0
 16 17  1  0
 17 18  1  0
 18 19  1  0
 19 20  1  0
 19 21  2  0
 17 22  2  0
 12 23  1  0
 23 24  2  0
 23 25  1  0
  7 26  1  0
 26 27  2  0
 27  4  1  0
 25  8  1  0
 22 13  1  0
  1 28  1  0
  1 29  1  0
  1 30  1  0
  2 31  1  0
  2 32  1  0
  5 33  1  0
  6 34  1  0
  8 35  1  0
  9 36  1  0
  9 37  1  0
 14 38  1  0
 15 39  1  0
 16 40  1  0
 20 41  1  0
 20 42  1  0
 20 43  1  0
 22 44  1  0
 25 45  1  0
 25 46  1  0
 26 47  1  0
 27 48  1  0
M  CHG  1  18  -1
M  END
>  <UniqueID>  (6) 
5

>  <SMILES>  (6) 
CCOc1ccc(C2CC(=O)N(c3cccc([N-]C(C)=O)c3)C(=O)C2)cc1

>  <Energy>  (6) 
58.37734653666768

>  <Genealogy>  (6) 
CCOc1ccc(C2CC(=O)N(c3cccc([N-]C(C)=O)c3)C(=O)C2)cc1 (protonated)
CCOc1ccc(C2CC(=O)N(c3cccc([N-]C(C)=O)c3)C(=O)C2)cc1 (3D coordinates assigned)
CCOc1ccc(C2CC(=O)N(c3cccc([N-]C(C)=O)c3)C(=O)C2)cc1 (nonaromatic ring conformer: 58.37734653666768 kcal/mol)

>  <smiles>  (6) 
CCOc1ccc(C2CC(=O)N(c3cccc(NC(C)=O)c3)C(=O)C2)cc1

>  <score_type>  (6) 
oracle

>  <origin>  (6) 
adgpu

>  <m_score__min__energy>  (6) 
-9.2200000000000006

>  <m_primary>  (6) 
energy

$$$$
6:0
     RDKit          3D

 42 44  0  0  0  0  0  0  0  0999 V2000
   -1.2275   22.9127  -29.5075 H   0  0  0  0  0  0  0  0  0  0  0  0
   -2.2320   22.9710  -29.9520 C   0  0  0  0  0  0  0  0  0  0  0  0
   -2.8040   21.8360  -30.5380 C   0  0  0  0  0  0  0  0  0  0  0  0
   -2.2507   20.8853  -30.5416 H   0  0  0  0  0  0  0  0  0  0  0  0
   -4.0810   21.9030  -31.1220 C   0  0  0  0  0  0  0  0  0  0  0  0
   -4.6790   20.6860  -31.7210 C   0  0  0  0  0  0  0  0  0  0  0  0
   -3.8520   19.6860  -32.1220 N   0  0  0  0  0  0  0  0  0  0  0  0
   -4.3350   18.5500  -32.6800 C   0  0  0  0  0  0  0  0  0  0  0  0
   -3.4790   17.5300  -33.0900 C   0  0  0  0  0  0  0  0  0  0  0  0
   -2.3918   17.6368  -32.9616 H   0  0  0  0  0  0  0  0  0  0  0  0
   -3.9920   16.4030  -33.6490 N   0  0  0  0  0  0  0  0  0  0  0  0
   -5.3320   16.2500  -33.8180 C   0  0  0  0  0  0  0  0  0  0  0  0
   -5.7860   15.1600  -34.3620 N   0  0  0  0  0  0  0  0  0  0  0  0
   -7.2010   14.8690  -34.5970 C   0  0  0  0  0  0  0  0  0  0  0  0
   -7.5089   15.3237  -35.5501 H   0  0  0  0  0  0  0  0  0  0  0  0
   -7.7887   15.2854  -33.7656 H   0  0  0  0  0  0  0  0  0  0  0  0
   -7.4430   13.3640  -34.6600 C   0  0  0  0  0  0  0  0  0  0  0  0
   -7.5080   12.9600  -33.6389 H   0  0  0  0  0  0  0  0  0  0  0  0
   -8.3845   13.1660  -35.1932 H   0  0  0  0  0  0  0  0  0  0  0  0
   -6.6110   12.8808  -35.1932 H   0  0  0  0  0  0  0  0  0  0  0  0
   -6.1800   17.2400  -33.4220 N   0  0  0  0  0  0  0  0  0  0  0  0
   -5.7170   18.3870  -32.8540 C   0  0  0  0  0  0  0  0  0  0  0  0
   -6.5770   19.3830  -32.4590 N   0  0  0  0  0  0  0  0  0  0  0  0
   -8.0320   19.2280  -32.6680 C   0  0  0  0  0  0  0  0  0  0  0  0
   -8.4066   20.0890  -33.2410 H   0  0  0  0  0  0  0  0  0  0  0  0
   -8.2088   18.2920  -33.2181 H   0  0  0  0  0  0  0  0  0  0  0  0
   -8.7760   19.1550  -31.3290 C   0  0  0  0  0  0  0  0  0  0  0  0
   -9.5481   18.3737  -31.3883 H   0  0  0  0  0  0  0  0  0  0  0  0
   -8.0503   18.9194  -30.5366 H   0  0  0  0  0  0  0  0  0  0  0  0
   -9.3920   20.3930  -31.0240 O   0  0  0  0  0  0  0  0  0  0  0  0
   -9.6000   21.1410  -32.2010 C   0  0  0  0  0  0  0  0  0  0  0  0
   -9.8860   22.1696  -31.9360 H   0  0  0  0  0  0  0  0  0  0  0  0
   -8.6728   21.1591  -32.7926 H   0  0  0  0  0  0  0  0  0  0  0  0
  -10.4034   20.6779  -32.7926 H   0  0  0  0  0  0  0  0  0  0  0  0
   -6.0720   20.5420  -31.9150 C   0  0  0  0  0  0  0  0  0  0  0  0
   -6.8470   21.4900  -31.6100 O   0  0  0  0  0  0  0  0  0  0  0  0
   -4.7880   23.1200  -31.0810 C   0  0  0  0  0  0  0  0  0  0  0  0
   -5.7975   23.1814  -31.5136 H   0  0  0  0  0  0  0  0  0  0  0  0
   -4.2130   24.2510  -30.4930 C   0  0  0  0  0  0  0  0  0  0  0  0
   -4.7680   25.2005  -30.4729 H   0  0  0  0  0  0  0  0  0  0  0  0
   -2.9360   24.1790  -29.9310 C   0  0  0  0  0  0  0  0  0  0  0  0
   -2.3670   25.3050  -29.3480 O   0  0  0  0  0  0  0  0  0  0  0  0
  1  2  1  0
  2  3  2  0
  3  4  1  0
  3  5  1  0
  5  6  1  0
  6  7  2  0
  7  8  1  0
  8  9  2  0
  9 10  1  0
  9 11  1  0
 11 12  1  0
 12 13  2  0
 13 14  1  0
 14 15  1  0
 14 16  1  0
 14 17  1  0
 17 18  1  0
 17 19  1  0
 17 20  1  0
 12 21  1  0
 21 22  2  0
 22 23  1  0
 23 24  1  0
 24 25  1  0
 24 26  1  0
 24 27  1  0
 27 28  1  0
 27 29  1  0
 27 30  1  0
 30 31  1  0
 31 32  1  0
 31 33  1  0
 31 34  1  0
 23 35  1  0
 35 36  2  0
  5 37  2  0
 37 38  1  0
 37 39  1  0
 39 40  1  0
 39 41  2  0
 41 42  1  0
 41  2  1  0
 35  6  1  0
 22  8  1  0
M  CHG  2  11  -1  42  -1
M  END
>  <UniqueID>  (7) 
6

>  <SMILES>  (7) 
CC/N=c1\nc2c(c[n-]1)nc(-c1ccc([O-])cc1)c(=O)n2CCOC

>  <Energy>  (7) 
54.66328669114957

>  <Genealogy>  (7) 
CCN=c1nc2c(c[n-]1)nc(-c1ccc([O-])cc1)c(=O)n2CCOC (protonated)
CC/N=c1\nc2c(c[n-]1)nc(-c1ccc([O-])cc1)c(=O)n2CCOC (cis-trans isomerization)
CC/N=c1\nc2c(c[n-]1)nc(-c1ccc([O-])cc1)c(=O)n2CCOC (3D coordinates assigned)
CC/N=c1\nc2c(c[n-]1)nc(-c1ccc([O-])cc1)c(=O)n2CCOC (optimized conformer: 54.66328669114957 kcal/mol)

>  <smiles>  (7) 
CCN=c1nc2c(c[nH]1)nc(-c1ccc(O)cc1)c(=O)n2CCOC

>  <score_type>  (7) 
oracle

>  <origin>  (7) 
adgpu

>  <m_score__min__energy>  (7) 
-9.7300000000000004

>  <m_primary>  (7) 
energy

$$$$
7:0
     RDKit          3D

 36 38  0  0  0  0  0  0  0  0999 V2000
   -5.8709   19.7910  -33.7234 H   0  0  0  0  0  0  0  0  0  0  0  0
   -6.2200   20.5800  -33.0410 C   0  0  0  0  0  0  0  0  0  0  0  0
   -7.5440   20.6930  -32.7560 N   0  0  0  0  0  0  0  0  0  0  0  0
   -8.0160   21.6530  -31.9160 C   0  0  0  0  0  0  0  0  0  0  0  0
   -9.4820   21.7310  -31.6240 C   0  0  0  0  0  0  0  0  0  0  0  0
   -9.6391   21.7394  -30.5353 H   0  0  0  0  0  0  0  0  0  0  0  0
   -9.8944   22.6524  -32.0611 H   0  0  0  0  0  0  0  0  0  0  0  0
   -9.9899   20.8586  -32.0611 H   0  0  0  0  0  0  0  0  0  0  0  0
   -7.1260   22.5560  -31.3200 C   0  0  0  0  0  0  0  0  0  0  0  0
   -7.4999   23.3245  -30.6274 H   0  0  0  0  0  0  0  0  0  0  0  0
   -5.7570   22.4760  -31.6100 C   0  0  0  0  0  0  0  0  0  0  0  0
   -4.8160   23.4190  -30.9720 C   0  0  0  0  0  0  0  0  0  0  0  0
   -4.8240   24.7550  -31.2010 N   0  0  0  0  0  0  0  0  0  0  0  0
   -3.8650   25.3290  -30.4800 N   0  0  0  0  0  0  0  0  0  0  0  0
   -3.2400   24.3550  -29.7980 C   0  0  0  0  0  0  0  0  0  0  0  0
   -2.1600   24.4820  -28.9320 C   0  0  0  0  0  0  0  0  0  0  0  0
   -1.7278   25.4658  -28.6968 H   0  0  0  0  0  0  0  0  0  0  0  0
   -1.6370   23.2900  -28.3630 C   0  0  0  0  0  0  0  0  0  0  0  0
   -0.6390   23.2930  -27.5260 N   0  0  0  0  0  0  0  0  0  0  0  0
    0.1750   24.4110  -27.1440 C   0  0  0  0  0  0  0  0  0  0  0  0
    1.0850   24.7980  -27.9250 O   0  0  0  0  0  0  0  0  0  0  0  0
   -0.1050   25.1470  -25.9440 N   0  0  0  0  0  0  0  0  0  0  0  0
   -1.0020   24.9710  -25.4400 H   0  0  0  0  0  0  0  0  0  0  0  0
    0.7770   26.2010  -25.4450 C   0  0  0  0  0  0  0  0  0  0  0  0
    0.9624   26.9287  -26.2488 H   0  0  0  0  0  0  0  0  0  0  0  0
    1.7245   25.7475  -25.1186 H   0  0  0  0  0  0  0  0  0  0  0  0
    0.1370   26.9150  -24.2590 C   0  0  0  0  0  0  0  0  0  0  0  0
    0.5214   26.4861  -23.3218 H   0  0  0  0  0  0  0  0  0  0  0  0
    0.3828   27.9864  -24.2999 H   0  0  0  0  0  0  0  0  0  0  0  0
   -0.9548   26.7875  -24.2999 H   0  0  0  0  0  0  0  0  0  0  0  0
   -2.2190   22.0870  -28.6750 N   0  0  0  0  0  0  0  0  0  0  0  0
   -3.2810   21.9770  -29.5260 C   0  0  0  0  0  0  0  0  0  0  0  0
   -3.7148   20.9953  -29.7672 H   0  0  0  0  0  0  0  0  0  0  0  0
   -3.7980   23.1450  -30.0790 C   0  0  0  0  0  0  0  0  0  0  0  0
   -5.3010   21.4640  -32.4690 C   0  0  0  0  0  0  0  0  0  0  0  0
   -4.2279   21.3673  -32.6905 H   0  0  0  0  0  0  0  0  0  0  0  0
  1  2  1  0
  2  3  2  0
  3  4  1  0
  4  5  1  0
  5  6  1  0
  5  7  1  0
  5  8  1  0
  4  9  2  0
  9 10  1  0
  9 11  1  0
 11 12  1  0
 12 13  2  0
 13 14  1  0
 14 15  1  0
 15 16  2  0
 16 17  1  0
 16 18  1  0
 18 19  2  0
 19 20  1  0
 20 21  2  0
 20 22  1  0
 22 23  1  0
 22 24  1  0
 24 25  1  0
 24 26  1  0
 24 27  1  0
 27 28  1  0
 27 29  1  0
 27 30  1  0
 18 31  1  0
 31 32  1  0
 32 33  1  0
 32 34  2  0
 11 35  2  0
 35 36  1  0
 35  2  1  0
 34 12  1  0
 34 15  1  0
M  CHG  2  14  -1  31  -1
M  END
>  <UniqueID>  (8) 
7

>  <SMILES>  (8) 
CCNC(=O)/N=c1\cc2[n-]nc(-c3ccnc(C)c3)c2c[n-]1

>  <Energy>  (8) 
84.33575116993856

>  <Genealogy>  (8) 
CCNC(=O)N=c1cc2[n-]nc(-c3ccnc(C)c3)c2c[n-]1 (protonated)
CCNC(=O)/N=c1\cc2[n-]nc(-c3ccnc(C)c3)c2c[n-]1 (cis-trans isomerization)
CCNC(=O)/N=c1\cc2[n-]nc(-c3ccnc(C)c3)c2c[n-]1 (3D coordinates assigned)
CCNC(=O)/N=c1\cc2[n-]nc(-c3ccnc(C)c3)c2c[n-]1 (optimized conformer: 84.33575116993856 kcal/mol)

>  <smiles>  (8) 
CCNC(=O)N=c1cc2[nH]nc(-c3ccnc(C)c3)c2c[nH]1

>  <score_type>  (8) 
oracle

>  <origin>  (8) 
adgpu

>  <m_score__min__energy>  (8) 
-9.8599999999999994

>  <m_primary>  (8) 
energy

$$$$
8:0
     RDKit          3D

 31 33  0  0  0  0  0  0  0  0999 V2000
   -7.0259   16.7319  -33.8050 H   0  0  0  0  0  0  0  0  0  0  0  0
   -6.8700   17.7640  -33.4580 C   0  0  0  0  0  0  0  0  0  0  0  0
   -5.8910   18.5250  -34.0090 N   0  0  0  0  0  0  0  0  0  0  0  0
   -5.6660   19.8070  -33.6130 C   0  0  0  0  0  0  0  0  0  0  0  0
   -4.8620   20.3921  -34.0834 H   0  0  0  0  0  0  0  0  0  0  0  0
   -6.4580   20.3890  -32.6030 C   0  0  0  0  0  0  0  0  0  0  0  0
   -6.2420   21.7850  -32.1380 C   0  0  0  0  0  0  0  0  0  0  0  0
   -5.0030   22.2290  -31.7830 N   0  0  0  0  0  0  0  0  0  0  0  0
   -5.0110   23.5240  -31.4050 C   0  0  0  0  0  0  0  0  0  0  0  0
   -3.8770   24.2220  -30.8680 N   0  0  0  0  0  0  0  0  0  0  0  0
   -3.3930   24.1940  -29.6550 C   0  0  0  0  0  0  0  0  0  0  0  0
   -3.8750   23.3170  -28.6590 C   0  0  0  0  0  0  0  0  0  0  0  0
   -4.6898   22.6143  -28.8877 H   0  0  0  0  0  0  0  0  0  0  0  0
   -3.3120   23.3470  -27.3840 C   0  0  0  0  0  0  0  0  0  0  0  0
   -3.6909   22.6744  -26.6004 H   0  0  0  0  0  0  0  0  0  0  0  0
   -2.2710   24.2270  -27.1010 C   0  0  0  0  0  0  0  0  0  0  0  0
   -1.8367   24.2668  -26.0911 H   0  0  0  0  0  0  0  0  0  0  0  0
   -1.7820   25.0610  -28.1140 C   0  0  0  0  0  0  0  0  0  0  0  0
   -0.6780   26.0320  -27.8180 C   0  0  0  0  0  0  0  0  0  0  0  0
   -0.5618   26.1342  -26.7289 H   0  0  0  0  0  0  0  0  0  0  0  0
    0.2619   25.6626  -28.2540 H   0  0  0  0  0  0  0  0  0  0  0  0
   -0.9244   27.0114  -28.2540 H   0  0  0  0  0  0  0  0  0  0  0  0
   -2.3560   25.0300  -29.3520 N   0  0  0  0  0  0  0  0  0  0  0  0
   -1.9950   25.6760  -30.0930 H   0  0  0  0  0  0  0  0  0  0  0  0
   -6.5590   24.1630  -31.4290 S   0  0  0  0  0  0  0  0  0  0  0  0
   -7.2540   22.7430  -32.0030 C   0  0  0  0  0  0  0  0  0  0  0  0
   -8.3193   22.5930  -32.2326 H   0  0  0  0  0  0  0  0  0  0  0  0
   -7.4710   19.6020  -32.0230 C   0  0  0  0  0  0  0  0  0  0  0  0
   -8.1027   20.0233  -31.2271 H   0  0  0  0  0  0  0  0  0  0  0  0
   -7.6780   18.2910  -32.4520 C   0  0  0  0  0  0  0  0  0  0  0  0
   -8.4721   17.6783  -32.0003 H   0  0  0  0  0  0  0  0  0  0  0  0
  1  2  1  0
  2  3  2  0
  3  4  1  0
  4  5  1  0
  4  6  2  0
  6  7  1  0
  7  8  1  0
  8  9  2  0
  9 10  1  0
 10 11  2  0
 11 12  1  0
 12 13  1  0
 12 14  2  0
 14 15  1  0
 14 16  1  0
 16 17  1  0
 16 18  2  0
 18 19  1  0
 19 20  1  0
 19 21  1  0
 19 22  1  0
 18 23  1  0
 23 24  1  0
  9 25  1  0
 25 26  1  0
 26 27  1  0
  6 28  1  0
 28 29  1  0
 28 30  2  0
 30 31  1  0
 30  2  1  0
 26  7  2  0
 23 11  1  0
M  END
>  <UniqueID>  (9) 
8

>  <SMILES>  (9) 
Cc1ccc/c(=N\c2nc(-c3cccnc3)cs2)[nH]1

>  <Energy>  (9) 
73.3565338860192

>  <Genealogy>  (9) 
Cc1ccc/c(=N\c2nc(-c3cccnc3)cs2)[nH]1 (cis-trans isomerization)
Cc1ccc/c(=N\c2nc(-c3cccnc3)cs2)[nH]1 (3D coordinates assigned)
Cc1ccc/c(=N\c2nc(-c3cccnc3)cs2)[nH]1 (optimized conformer: 73.3565338860192 kcal/mol)

>  <smiles>  (9) 
Cc1cccc(=Nc2nc(-c3cccnc3)cs2)[nH]1

>  <score_type>  (9) 
oracle

>  <origin>  (9) 
adgpu

>  <m_score__min__energy>  (9) 
-8.4100000000000001

>  <m_primary>  (9) 
energy

$$$$
9:0
     RDKit          3D

 18 18  0  0  0  0  0  0  0  0999 V2000
   -9.6160   21.8750  -31.2070 N   0  0  0  0  0  0  0  0  0  0  0  0
   -8.5460   21.8770  -31.6700 C   0  0  0  0  0  0  0  0  0  0  0  0
   -7.1960   21.8540  -32.2600 C   0  0  0  0  0  0  0  0  0  0  0  0
   -6.2450   22.6810  -31.4740 C   0  0  0  0  0  0  0  0  0  0  0  0
   -6.6120   23.1600  -30.2170 C   0  0  0  0  0  0  0  0  0  0  0  0
   -5.7320   23.9090  -29.5260 N   0  0  0  0  0  0  0  0  0  0  0  0
   -4.5130   24.2100  -30.0070 C   0  0  0  0  0  0  0  0  0  0  0  0
   -3.6930   24.9240  -29.3280 N   0  0  0  0  0  0  0  0  0  0  0  0
   -4.1210   23.7680  -31.2160 N   0  0  0  0  0  0  0  0  0  0  0  0
   -4.9860   23.0180  -31.9210 C   0  0  0  0  0  0  0  0  0  0  0  0
   -4.5850   22.5940  -33.0940 N   0  0  0  0  0  0  0  0  0  0  0  0
   -6.8332   20.8158  -32.2823 H   0  0  0  0  0  0  0  0  0  0  0  0
   -7.2563   22.2693  -33.2768 H   0  0  0  0  0  0  0  0  0  0  0  0
   -7.6025   22.9301  -29.7975 H   0  0  0  0  0  0  0  0  0  0  0  0
   -6.0030   24.2690  -28.5840 H   0  0  0  0  0  0  0  0  0  0  0  0
   -4.0030   25.2610  -28.3930 H   0  0  0  0  0  0  0  0  0  0  0  0
   -3.1640   24.0210  -31.5610 H   0  0  0  0  0  0  0  0  0  0  0  0
   -5.2710   22.0130  -33.6230 H   0  0  0  0  0  0  0  0  0  0  0  0
  1  2  3  0
  2  3  1  0
  3  4  1  0
  4  5  2  0
  5  6  1  0
  6  7  1  0
  7  8  2  3
  7  9  1  0
  9 10  1  0
 10 11  2  3
 10  4  1  0
  3 12  1  0
  3 13  1  0
  5 14  1  0
  6 15  1  0
  8 16  1  0
  9 17  1  0
 11 18  1  0
M  END
>  <smiles>  (10) 
N#CCc1c[nH]c(=N)[nH]c1=N

>  <score_type>  (10) 
oracle

>  <origin>  (10) 
adgpu

>  <m_score__min__energy>  (10) 
-4.9000000000000004

>  <m_primary>  (10) 
energy

$$$$
10:0
     RDKit          3D

 44 46  0  0  0  0  0  0  0  0999 V2000
   -4.0730   15.4200  -34.0980 C   0  0  0  0  0  0  0  0  0  0  0  0
   -3.1930   16.2360  -34.8630 O   0  0  0  0  0  0  0  0  0  0  0  0
   -2.6080   17.4260  -34.4020 C   0  0  0  0  0  0  0  0  0  0  0  0
   -1.2360   17.5170  -34.1020 C   0  0  0  0  0  0  0  0  0  0  0  0
   -0.6880   18.7220  -33.6540 C   0  0  0  0  0  0  0  0  0  0  0  0
   -1.5020   19.8510  -33.4890 C   0  0  0  0  0  0  0  0  0  0  0  0
   -0.9060   21.1550  -33.0460 C   0  0  0  0  0  0  0  0  0  0  0  0
   -2.8670   19.7680  -33.8010 C   0  0  0  0  0  0  0  0  0  0  0  0
   -3.4220   18.5600  -34.2380 C   0  0  0  0  0  0  0  0  0  0  0  0
   -4.8220   18.4870  -34.4980 N   0  0  0  0  0  0  0  0  0  0  0  0
   -5.9620   18.2380  -33.2190 S   0  0  0  0  0  0  0  0  0  0  0  0
   -5.3150   17.3930  -32.1590 O   0  0  0  0  0  0  0  0  0  0  0  0
   -7.1560   17.4910  -33.7420 O   0  0  0  0  0  0  0  0  0  0  0  0
   -6.4280   19.7970  -32.5090 C   0  0  0  0  0  0  0  0  0  0  0  0
   -5.4480   20.8000  -32.4370 C   0  0  0  0  0  0  0  0  0  0  0  0
   -5.7540   22.0670  -31.9370 C   0  0  0  0  0  0  0  0  0  0  0  0
   -7.0660   22.3590  -31.5370 C   0  0  0  0  0  0  0  0  0  0  0  0
   -8.0450   21.3640  -31.5780 C   0  0  0  0  0  0  0  0  0  0  0  0
   -7.7460   20.0820  -32.0710 C   0  0  0  0  0  0  0  0  0  0  0  0
   -8.8430   19.0500  -32.0960 C   0  0  0  0  0  0  0  0  0  0  0  0
   -7.5260   24.0340  -31.0680 S   0  0  0  0  0  0  0  0  0  0  0  0
   -6.0570   24.2980  -30.0210 C   0  0  2  0  0  0  0  0  0  0  0  0
   -6.1480   25.6760  -29.3630 C   0  0  0  0  0  0  0  0  0  0  0  0
   -4.8240   24.1460  -30.8800 C   0  0  0  0  0  0  0  0  0  0  0  0
   -3.8670   24.9610  -30.7900 O   0  0  0  0  0  0  0  0  0  0  0  0
   -4.7050   23.0270  -31.7630 N   0  0  0  0  0  0  0  0  0  0  0  0
   -3.8909   15.5888  -33.0264 H   0  0  0  0  0  0  0  0  0  0  0  0
   -5.1148   15.6788  -34.3382 H   0  0  0  0  0  0  0  0  0  0  0  0
   -3.8934   14.3617  -34.3382 H   0  0  0  0  0  0  0  0  0  0  0  0
   -0.5909   16.6340  -34.2209 H   0  0  0  0  0  0  0  0  0  0  0  0
    0.3871   18.7847  -33.4298 H   0  0  0  0  0  0  0  0  0  0  0  0
   -0.8876   21.1952  -31.9469 H   0  0  0  0  0  0  0  0  0  0  0  0
    0.1201   21.2395  -33.4332 H   0  0  0  0  0  0  0  0  0  0  0  0
   -1.5136   21.9862  -33.4332 H   0  0  0  0  0  0  0  0  0  0  0  0
   -3.5054   20.6583  -33.7015 H   0  0  0  0  0  0  0  0  0  0  0  0
   -4.4251   20.5845  -32.7793 H   0  0  0  0  0  0  0  0  0  0  0  0
   -9.0614   21.5859  -31.2206 H   0  0  0  0  0  0  0  0  0  0  0  0
   -9.1226   18.7870  -31.0651 H   0  0  0  0  0  0  0  0  0  0  0  0
   -9.7192   19.4589  -32.6206 H   0  0  0  0  0  0  0  0  0  0  0  0
   -8.4884   18.1505  -32.6206 H   0  0  0  0  0  0  0  0  0  0  0  0
   -6.0015   23.5545  -29.2122 H   0  0  0  0  0  0  0  0  0  0  0  0
   -6.1404   25.5612  -28.2690 H   0  0  0  0  0  0  0  0  0  0  0  0
   -5.2883   26.2880  -29.6734 H   0  0  0  0  0  0  0  0  0  0  0  0
   -7.0807   26.1697  -29.6734 H   0  0  0  0  0  0  0  0  0  0  0  0
  1  2  1  0
  2  3  1  0
  3  4  2  0
  4  5  1  0
  5  6  2  0
  6  7  1  0
  6  8  1  0
  8  9  2  0
  9 10  1  0
 10 11  1  0
 11 12  2  0
 11 13  2  0
 11 14  1  0
 14 15  2  0
 15 16  1  0
 16 17  2  0
 17 18  1  0
 18 19  2  0
 19 20  1  0
 17 21  1  0
 21 22  1  0
 22 23  1  0
 22 24  1  0
 24 25  2  0
 24 26  1  0
  9  3  1  0
 19 14  1  0
 26 16  1  0
  1 27  1  0
  1 28  1  0
  1 29  1  0
  4 30  1  0
  5 31  1  0
  7 32  1  0
  7 33  1  0
  7 34  1  0
  8 35  1  0
 15 36  1  0
 18 37  1  0
 20 38  1  0
 20 39  1  0
 20 40  1  0
 22 41  1  1
 23 42  1  0
 23 43  1  0
 23 44  1  0
M  CHG  2  10  -1  26  -1
M  END
>  <UniqueID>  (11) 
9

>  <SMILES>  (11) 
COc1ccc(C)cc1[N-]S(=O)(=O)c1cc2c(cc1C)S[C@H](C)C(=O)[N-]2

>  <Energy>  (11) 
56.68402443771146

>  <Genealogy>  (11) 
COc1ccc(C)cc1[N-]S(=O)(=O)c1cc2c(cc1C)SC(C)C(=O)[N-]2 (protonated)
COc1ccc(C)cc1[N-]S(=O)(=O)c1cc2c(cc1C)S[C@H](C)C(=O)[N-]2 (chirality)
COc1ccc(C)cc1[N-]S(=O)(=O)c1cc2c(cc1C)S[C@H](C)C(=O)[N-]2 (3D coordinates assigned)
COc1ccc(C)cc1[N-]S(=O)(=O)c1cc2c(cc1C)S[C@H](C)C(=O)[N-]2 (nonaromatic ring conformer: 56.68402443771146 kcal/mol)

>  <smiles>  (11) 
COc1ccc(C)cc1NS(=O)(=O)c1cc2c(cc1C)SC(C)C(=O)N2

>  <score_type>  (11) 
oracle

>  <origin>  (11) 
adgpu

>  <m_score__min__energy>  (11) 
-10.82

>  <m_primary>  (11) 
energy

$$$$
11:0
     RDKit          3D

 42 44  0  0  0  0  0  0  0  0999 V2000
   -7.0379   21.2835  -31.3361 H   0  0  0  0  0  0  0  0  0  0  0  0
   -6.4430   20.5930  -31.9520 C   0  0  0  0  0  0  0  0  0  0  0  0
   -7.1390   19.5030  -32.6690 C   0  0  0  0  0  0  0  0  0  0  0  0
   -8.3950   19.5580  -32.7540 O   0  0  0  0  0  0  0  0  0  0  0  0
   -6.4310   18.3470  -33.2710 C   0  0  0  0  0  0  0  0  0  0  0  0
   -5.7200   18.4810  -34.4770 C   0  0  0  0  0  0  0  0  0  0  0  0
   -5.6989   19.4515  -34.9944 H   0  0  0  0  0  0  0  0  0  0  0  0
   -5.0400   17.3880  -35.0220 C   0  0  0  0  0  0  0  0  0  0  0  0
   -4.4967   17.5026  -35.9716 H   0  0  0  0  0  0  0  0  0  0  0  0
   -5.0440   16.1500  -34.3710 C   0  0  0  0  0  0  0  0  0  0  0  0
   -4.3480   15.0850  -34.9600 O   0  0  0  0  0  0  0  0  0  0  0  0
   -3.0630   15.2000  -35.5640 C   0  0  0  0  0  0  0  0  0  0  0  0
   -2.2943   15.2688  -34.7802 H   0  0  0  0  0  0  0  0  0  0  0  0
   -2.8712   14.3154  -36.1891 H   0  0  0  0  0  0  0  0  0  0  0  0
   -3.0313   16.1046  -36.1891 H   0  0  0  0  0  0  0  0  0  0  0  0
   -5.7400   16.0170  -33.1550 C   0  0  0  0  0  0  0  0  0  0  0  0
   -5.7492   15.0491  -32.6324 H   0  0  0  0  0  0  0  0  0  0  0  0
   -6.4200   17.1100  -32.6080 C   0  0  0  0  0  0  0  0  0  0  0  0
   -6.9503   16.9992  -31.6507 H   0  0  0  0  0  0  0  0  0  0  0  0
   -5.1160   20.7740  -32.0220 C   0  0  0  0  0  0  0  0  0  0  0  0
   -4.5300   20.0756  -32.6375 H   0  0  0  0  0  0  0  0  0  0  0  0
   -4.3920   21.8610  -31.3180 C   0  0  0  0  0  0  0  0  0  0  0  0
   -4.8310   23.2020  -31.3360 C   0  0  0  0  0  0  0  0  0  0  0  0
   -5.7508   23.4662  -31.8784 H   0  0  0  0  0  0  0  0  0  0  0  0
   -4.1030   24.2070  -30.6660 C   0  0  0  0  0  0  0  0  0  0  0  0
   -4.5060   25.5510  -30.6630 O   0  0  0  0  0  0  0  0  0  0  0  0
   -5.7300   26.0260  -30.1150 C   0  0  0  0  0  0  0  0  0  0  0  0
   -5.6730   26.0039  -29.0167 H   0  0  0  0  0  0  0  0  0  0  0  0
   -5.9067   27.0580  -30.4523 H   0  0  0  0  0  0  0  0  0  0  0  0
   -6.5566   25.3834  -30.4523 H   0  0  0  0  0  0  0  0  0  0  0  0
   -2.9300   23.8600  -29.9870 C   0  0  0  0  0  0  0  0  0  0  0  0
   -2.4970   22.5290  -29.9530 C   0  0  0  0  0  0  0  0  0  0  0  0
   -3.2090   21.5410  -30.6330 C   0  0  0  0  0  0  0  0  0  0  0  0
   -2.8412   20.5043  -30.6326 H   0  0  0  0  0  0  0  0  0  0  0  0
   -1.3420   22.2070  -29.2340 O   0  0  0  0  0  0  0  0  0  0  0  0
   -0.7590   23.1370  -28.3150 C   0  0  0  0  0  0  0  0  0  0  0  0
   -1.3021   23.0929  -27.3594 H   0  0  0  0  0  0  0  0  0  0  0  0
    0.2974   22.8734  -28.1582 H   0  0  0  0  0  0  0  0  0  0  0  0
   -0.8420   24.5600  -28.8800 C   0  0  0  0  0  0  0  0  0  0  0  0
   -0.5697   25.2794  -28.0937 H   0  0  0  0  0  0  0  0  0  0  0  0
   -0.1479   24.6497  -29.7286 H   0  0  0  0  0  0  0  0  0  0  0  0
   -2.1700   24.8360  -29.3330 O   0  0  0  0  0  0  0  0  0  0  0  0
  1  2  1  0
  2  3  1  0
  3  4  2  0
  3  5  1  0
  5  6  2  0
  6  7  1  0
  6  8  1  0
  8  9  1  0
  8 10  2  0
 10 11  1  0
 11 12  1  0
 12 13  1  0
 12 14  1  0
 12 15  1  0
 10 16  1  0
 16 17  1  0
 16 18  2  0
 18 19  1  0
  2 20  2  0
 20 21  1  0
 20 22  1  0
 22 23  2  0
 23 24  1  0
 23 25  1  0
 25 26  1  0
 26 27  1  0
 27 28  1  0
 27 29  1  0
 27 30  1  0
 25 31  2  0
 31 32  1  0
 32 33  2  0
 33 34  1  0
 32 35  1  0
 35 36  1  0
 36 37  1  0
 36 38  1  0
 36 39  1  0
 39 40  1  0
 39 41  1  0
 39 42  1  0
 18  5  1  0
 33 22  1  0
 42 31  1  0
M  END
>  <UniqueID>  (12) 
10

>  <SMILES>  (12) 
COc1ccc(C(=O)/C=C/c2cc(OC)c3c(c2)OCCO3)cc1

>  <Energy>  (12) 
50.69475000182125

>  <Genealogy>  (12) 
COc1ccc(C(=O)/C=C/c2cc(OC)c3c(c2)OCCO3)cc1 (cis-trans isomerization)
COc1ccc(C(=O)/C=C/c2cc(OC)c3c(c2)OCCO3)cc1 (3D coordinates assigned)
COc1ccc(C(=O)/C=C/c2cc(OC)c3c(c2)OCCO3)cc1 (nonaromatic ring conformer: 50.69475000182125 kcal/mol)

>  <smiles>  (12) 
COc1ccc(C(=O)C=Cc2cc(OC)c3c(c2)OCCO3)cc1

>  <score_type>  (12) 
oracle

>  <origin>  (12) 
adgpu

>  <m_score__min__energy>  (12) 
-7.5599999999999996

>  <m_primary>  (12) 
energy

$$$$
12:0
     RDKit          3D

 59 63  0  0  0  0  0  0  0  0999 V2000
   -9.6771   19.6637  -33.5725 H   0  0  0  0  0  0  0  0  0  0  0  0
   -8.8040   20.0380  -33.0180 C   0  0  0  0  0  0  0  0  0  0  0  0
   -8.8870   21.2090  -32.3400 N   0  0  0  0  0  0  0  0  0  0  0  0
   -7.8350   21.7100  -31.6420 C   0  0  0  0  0  0  0  0  0  0  0  0
   -7.9740   22.9170  -30.9510 C   0  0  0  0  0  0  0  0  0  0  0  0
   -8.9325   23.4559  -30.9793 H   0  0  0  0  0  0  0  0  0  0  0  0
   -6.9050   23.4420  -30.2260 C   0  0  0  0  0  0  0  0  0  0  0  0
   -7.0281   24.3906  -29.6829 H   0  0  0  0  0  0  0  0  0  0  0  0
   -5.6720   22.7700  -30.1830 C   0  0  0  0  0  0  0  0  0  0  0  0
   -4.5350   23.3300  -29.4120 C   0  0  0  0  0  0  0  0  0  0  0  0
   -4.4070   23.0680  -28.0360 C   0  0  0  0  0  0  0  0  0  0  0  0
   -5.1671   22.4616  -27.5218 H   0  0  0  0  0  0  0  0  0  0  0  0
   -3.3190   23.5740  -27.3180 C   0  0  0  0  0  0  0  0  0  0  0  0
   -3.2313   23.3687  -26.2409 H   0  0  0  0  0  0  0  0  0  0  0  0
   -2.3400   24.3410  -27.9630 C   0  0  0  0  0  0  0  0  0  0  0  0
   -0.9450   24.9380  -27.0660 S   0  0  0  0  0  0  0  0  0  0  0  0
   -0.6250   23.9670  -25.9630 O   0  0  0  0  0  0  0  0  0  0  0  0
    0.2430   24.9960  -27.9850 O   0  0  0  0  0  0  0  0  0  0  0  0
   -1.2220   26.5220  -26.3730 N   0  0  0  0  0  0  0  0  0  0  0  0
   -0.1330   27.4850  -26.6520 C   0  0  0  0  0  0  0  0  0  0  0  0
   -0.5446   28.3154  -27.2445 H   0  0  0  0  0  0  0  0  0  0  0  0
    0.6536   26.9392  -27.1936 H   0  0  0  0  0  0  0  0  0  0  0  0
    0.5070   28.0630  -25.3820 C   0  0  0  0  0  0  0  0  0  0  0  0
   -0.1638   28.8190  -24.9479 H   0  0  0  0  0  0  0  0  0  0  0  0
    1.4712   28.5243  -25.6418 H   0  0  0  0  0  0  0  0  0  0  0  0
    0.7340   26.9910  -24.3990 N   0  0  0  0  0  0  0  0  0  0  0  0
    1.3060   26.2420  -24.8530 H   0  0  0  0  0  0  0  0  0  0  0  0
    1.5220   27.4950  -23.2620 C   0  0  0  0  0  0  0  0  0  0  0  0
    1.0435   27.1890  -22.3200 H   0  0  0  0  0  0  0  0  0  0  0  0
    2.5395   27.0797  -23.3083 H   0  0  0  0  0  0  0  0  0  0  0  0
    1.5717   28.5929  -23.3083 H   0  0  0  0  0  0  0  0  0  0  0  0
   -0.5440   26.4030  -23.9310 C   0  0  0  0  0  0  0  0  0  0  0  0
   -0.8649   26.9450  -23.0292 H   0  0  0  0  0  0  0  0  0  0  0  0
   -0.3531   25.3371  -23.7377 H   0  0  0  0  0  0  0  0  0  0  0  0
   -1.6850   26.4730  -24.9730 C   0  0  0  0  0  0  0  0  0  0  0  0
   -2.2791   27.3771  -24.7741 H   0  0  0  0  0  0  0  0  0  0  0  0
   -2.2694   25.5474  -24.8651 H   0  0  0  0  0  0  0  0  0  0  0  0
   -2.4800   24.6300  -29.3270 C   0  0  0  0  0  0  0  0  0  0  0  0
   -1.7327   25.2592  -29.8326 H   0  0  0  0  0  0  0  0  0  0  0  0
   -3.5640   24.1230  -30.0480 C   0  0  0  0  0  0  0  0  0  0  0  0
   -3.6583   24.3459  -31.1210 H   0  0  0  0  0  0  0  0  0  0  0  0
   -5.5300   21.5540  -30.8760 C   0  0  0  0  0  0  0  0  0  0  0  0
   -4.5687   21.0201  -30.8450 H   0  0  0  0  0  0  0  0  0  0  0  0
   -6.6050   21.0110  -31.6100 C   0  0  0  0  0  0  0  0  0  0  0  0
   -6.4910   19.7900  -32.3180 C   0  0  0  0  0  0  0  0  0  0  0  0
   -5.3650   19.1270  -32.2810 N   0  0  0  0  0  0  0  0  0  0  0  0
   -5.0420   17.9220  -32.9910 C   0  0  0  0  0  0  0  0  0  0  0  0
   -4.4450   18.0140  -34.2540 C   0  0  0  0  0  0  0  0  0  0  0  0
   -4.1982   19.0009  -34.6726 H   0  0  0  0  0  0  0  0  0  0  0  0
   -4.1610   16.8560  -34.9860 C   0  0  0  0  0  0  0  0  0  0  0  0
   -3.6746   16.9330  -35.9696 H   0  0  0  0  0  0  0  0  0  0  0  0
   -4.4950   15.6010  -34.4680 C   0  0  0  0  0  0  0  0  0  0  0  0
   -4.2635   14.6906  -35.0403 H   0  0  0  0  0  0  0  0  0  0  0  0
   -5.1230   15.5030  -33.2230 C   0  0  0  0  0  0  0  0  0  0  0  0
   -5.3935   14.5157  -32.8205 H   0  0  0  0  0  0  0  0  0  0  0  0
   -5.4080   16.6590  -32.4880 C   0  0  0  0  0  0  0  0  0  0  0  0
   -6.0600   16.5510  -31.3030 F   0  0  0  0  0  0  0  0  0  0  0  0
   -7.6180   19.3060  -33.0160 C   0  0  0  0  0  0  0  0  0  0  0  0
   -7.5604   18.3509  -33.5586 H   0  0  0  0  0  0  0  0  0  0  0  0
  1  2  1  0
  2  3  1  0
  3  4  1  0
  4  5  2  0
  5  6  1  0
  5  7  1  0
  7  8  1  0
  7  9  2  0
  9 10  1  0
 10 11  2  0
 11 12  1  0
 11 13  1  0
 13 14  1  0
 13 15  2  0
 15 16  1  0
 16 17  2  0
 16 18  2  0
 16 19  1  0
 19 20  1  0
 20 21  1  0
 20 22  1  0
 20 23  1  0
 23 24  1  0
 23 25  1  0
 23 26  1  0
 26 27  1  0
 26 28  1  0
 28 29  1  0
 28 30  1  0
 28 31  1  0
 26 32  1  0
 32 33  1  0
 32 34  1  0
 32 35  1  0
 35 36  1  0
 35 37  1  0
 15 38  1  0
 38 39  1  0
 38 40  2  0
 40 41  1  0
  9 42  1  0
 42 43  1  0
 42 44  2  0
 44 45  1  0
 45 46  2  0
 46 47  1  0
 47 48  2  0
 48 49  1  0
 48 50  1  0
 50 51  1  0
 50 52  2  0
 52 53  1  0
 52 54  1  0
 54 55  1  0
 54 56  2  0
 56 57  1  0
 45 58  1  0
 58 59  1  0
 58  2  2  0
 44  4  1  0
 56 47  1  0
 40 10  1  0
 35 19  1  0
M  CHG  2   3  -1  26   1
M  END
>  <UniqueID>  (13) 
11

>  <SMILES>  (13) 
C[NH+]1CCN(S(=O)(=O)c2ccc(-c3ccc4[n-]cc/c(=N\c5ccccc5F)c4c3)cc2)CC1

>  <Energy>  (13) 
96.11471959436304

>  <Genealogy>  (13) 
C[NH+]1CCN(S(=O)(=O)c2ccc(-c3ccc4[n-]ccc(=Nc5ccccc5F)c4c3)cc2)CC1 (protonated)
C[NH+]1CCN(S(=O)(=O)c2ccc(-c3ccc4[n-]cc/c(=N\c5ccccc5F)c4c3)cc2)CC1 (cis-trans isomerization)
C[NH+]1CCN(S(=O)(=O)c2ccc(-c3ccc4[n-]cc/c(=N\c5ccccc5F)c4c3)cc2)CC1 (3D coordinates assigned)
C[NH+]1CCN(S(=O)(=O)c2ccc(-c3ccc4[n-]cc/c(=N\c5ccccc5F)c4c3)cc2)CC1 (nonaromatic ring conformer: 96.11471959436304 kcal/mol)

>  <smiles>  (13) 
CN1CCN(S(=O)(=O)c2ccc(-c3ccc4[nH]ccc(=Nc5ccccc5F)c4c3)cc2)CC1

>  <score_type>  (13) 
oracle

>  <origin>  (13) 
adgpu

>  <m_score__min__energy>  (13) 
-10.52

>  <m_primary>  (13) 
energy

$$$$
13:0
     RDKit          3D

 39 41  0  0  0  0  0  0  0  0999 V2000
   -4.2390   24.4410  -26.9740 O   0  0  0  0  0  0  0  0  0  0  0  0
   -3.3530   24.9010  -27.7460 C   0  0  0  0  0  0  0  0  0  0  0  0
   -3.5820   24.9230  -29.1640 N   0  0  0  0  0  0  0  0  0  0  0  0
   -4.5270   24.0730  -29.8360 C   0  0  0  0  0  0  0  0  0  0  0  0
   -5.8450   24.4990  -30.0910 C   0  0  0  0  0  0  0  0  0  0  0  0
   -6.7510   23.6470  -30.7270 C   0  0  0  0  0  0  0  0  0  0  0  0
   -6.3590   22.3580  -31.1090 C   0  0  0  0  0  0  0  0  0  0  0  0
   -7.4940   21.2840  -31.9210 S   0  0  0  0  0  0  0  0  0  0  0  0
   -7.8900   20.1900  -30.9710 O   0  0  0  0  0  0  0  0  0  0  0  0
   -8.7270   22.0340  -32.3430 O   0  0  0  0  0  0  0  0  0  0  0  0
   -6.7520   20.5740  -33.3240 N   0  0  0  0  0  0  0  0  0  0  0  0
   -6.4520   19.3180  -33.4910 C   0  0  0  0  0  0  0  0  0  0  0  0
   -6.6990   18.3390  -32.5060 C   0  0  0  0  0  0  0  0  0  0  0  0
   -6.3560   17.0100  -32.7580 C   0  0  0  0  0  0  0  0  0  0  0  0
   -5.7730   16.6590  -33.9760 C   0  0  0  0  0  0  0  0  0  0  0  0
   -5.5390   17.6510  -34.9280 C   0  0  0  0  0  0  0  0  0  0  0  0
   -5.8790   18.9400  -34.6670 N   0  0  0  0  0  0  0  0  0  0  0  0
   -5.0580   21.9210  -30.8340 C   0  0  0  0  0  0  0  0  0  0  0  0
   -4.1500   22.7720  -30.1970 C   0  0  0  0  0  0  0  0  0  0  0  0
   -2.1190   25.4820  -27.1670 C   0  0  0  0  0  0  0  0  0  0  0  0
   -1.9290   25.4580  -25.7730 C   0  0  0  0  0  0  0  0  0  0  0  0
   -0.7770   26.0070  -25.2010 C   0  0  0  0  0  0  0  0  0  0  0  0
   -0.5630   25.9800  -23.4600 Cl  0  0  0  0  0  0  0  0  0  0  0  0
    0.2030   26.5790  -26.0160 C   0  0  0  0  0  0  0  0  0  0  0  0
    0.0360   26.5960  -27.4020 C   0  0  0  0  0  0  0  0  0  0  0  0
   -1.1110   26.0440  -27.9820 C   0  0  0  0  0  0  0  0  0  0  0  0
   -1.2240   26.0370  -29.3690 O   0  0  0  0  0  0  0  0  0  0  0  0
   -3.1130   25.6730  -29.7210 H   0  0  0  0  0  0  0  0  0  0  0  0
   -6.1625   25.5076  -29.7878 H   0  0  0  0  0  0  0  0  0  0  0  0
   -7.7765   23.9900  -30.9286 H   0  0  0  0  0  0  0  0  0  0  0  0
   -7.1583   18.6208  -31.5470 H   0  0  0  0  0  0  0  0  0  0  0  0
   -6.5453   16.2392  -31.9964 H   0  0  0  0  0  0  0  0  0  0  0  0
   -5.5014   15.6133  -34.1828 H   0  0  0  0  0  0  0  0  0  0  0  0
   -5.0783   17.3891  -35.8919 H   0  0  0  0  0  0  0  0  0  0  0  0
   -4.7490   20.9048  -31.1200 H   0  0  0  0  0  0  0  0  0  0  0  0
   -3.1319   22.4180  -29.9774 H   0  0  0  0  0  0  0  0  0  0  0  0
   -2.6941   25.0029  -25.1268 H   0  0  0  0  0  0  0  0  0  0  0  0
    1.1064   27.0161  -25.5656 H   0  0  0  0  0  0  0  0  0  0  0  0
    0.8102   27.0457  -28.0411 H   0  0  0  0  0  0  0  0  0  0  0  0
  1  2  2  0
  2  3  1  0
  3  4  1  0
  4  5  2  0
  5  6  1  0
  6  7  2  0
  7  8  1  0
  8  9  2  0
  8 10  2  0
  8 11  1  0
 11 12  2  3
 12 13  1  0
 13 14  2  0
 14 15  1  0
 15 16  2  0
 16 17  1  0
  7 18  1  0
 18 19  2  0
  2 20  1  0
 20 21  2  0
 21 22  1  0
 22 23  1  0
 22 24  2  0
 24 25  1  0
 25 26  2  0
 26 27  1  0
 19  4  1  0
 26 20  1  0
 17 12  1  0
  3 28  1  0
  5 29  1  0
  6 30  1  0
 13 31  1  0
 14 32  1  0
 15 33  1  0
 16 34  1  0
 18 35  1  0
 19 36  1  0
 21 37  1  0
 24 38  1  0
 25 39  1  0
M  CHG  2  17  -1  27  -1
M  END
>  <UniqueID>  (14) 
12

>  <SMILES>  (14) 
O=C(Nc1ccc(S(=O)(=O)N=c2cccc[n-]2)cc1)c1cc(Cl)ccc1[O-]

>  <Energy>  (14) 
55.41844357341705

>  <Genealogy>  (14) 
O=C(Nc1ccc(S(=O)(=O)N=c2cccc[n-]2)cc1)c1cc(Cl)ccc1[O-] (protonated)
O=C(Nc1ccc(S(=O)(=O)N=c2cccc[n-]2)cc1)c1cc(Cl)ccc1[O-] (3D coordinates assigned)
O=C(Nc1ccc(S(=O)(=O)N=c2cccc[n-]2)cc1)c1cc(Cl)ccc1[O-] (optimized conformer: 55.41844357341705 kcal/mol)

>  <smiles>  (14) 
O=C(Nc1ccc(S(=O)(=O)N=c2cccc[nH]2)cc1)c1cc(Cl)ccc1O

>  <score_type>  (14) 
oracle

>  <origin>  (14) 
adgpu

>  <m_score__min__energy>  (14) 
-12.01

>  <m_primary>  (14) 
energy

$$$$
14:0
     RDKit          3D

 47 49  0  0  1  0  0  0  0  0999 V2000
   -1.1790   25.9620  -29.3200 O   0  0  0  0  0  0  0  0  0  0  0  0
   -1.7350   24.7540  -28.9320 C   0  0  0  0  0  0  0  0  0  0  0  0
   -0.9690   23.7260  -28.3840 C   0  0  0  0  0  0  0  0  0  0  0  0
   -1.5560   22.5360  -28.0090 C   0  0  0  0  0  0  0  0  0  0  0  0
   -2.9230   22.3070  -28.1560 C   0  0  0  0  0  0  0  0  0  0  0  0
   -3.6710   23.3330  -28.7000 C   0  0  0  0  0  0  0  0  0  0  0  0
   -5.0870   23.2220  -28.9030 N   0  0  0  0  0  0  0  0  0  0  0  0
   -5.5990   23.1770  -30.0850 C   0  0  0  0  0  0  0  0  0  0  0  0
   -6.9700   23.0690  -30.2830 C   0  0  0  0  0  0  0  0  0  0  0  0
   -7.4790   23.0230  -31.5810 C   0  0  0  0  0  0  0  0  0  0  0  0
   -8.8840   22.9130  -31.8270 N   0  0  0  0  0  0  0  0  0  0  0  0
   -9.5590   21.7370  -31.3610 C   0  0  0  0  0  0  0  0  0  0  0  0
   -9.4670   20.5740  -32.3320 C   0  0  0  0  0  0  0  0  0  0  0  0
   -8.5250   19.5570  -31.7820 C   0  0  0  0  0  0  0  0  0  0  0  0
   -7.6920   18.9040  -32.7450 N   0  0  0  0  0  0  0  0  0  0  0  0
   -6.8200   19.8160  -33.4520 C   0  0  0  0  0  0  0  0  0  0  0  0
   -5.7390   19.0610  -34.1810 C   0  0  0  0  0  0  0  0  0  0  0  0
   -6.1090   17.7660  -34.5320 O   0  0  0  0  0  0  0  0  0  0  0  0
   -6.4880   16.9920  -33.4550 C   0  0  0  0  0  0  0  0  0  0  0  0
   -6.8910   17.8330  -32.2370 C   0  0  0  0  0  0  0  0  0  0  0  0
   -6.5830   23.0880  -32.5710 N   0  0  0  0  0  0  0  0  0  0  0  0
   -5.2490   23.1930  -32.3570 C   0  0  0  0  0  0  0  0  0  0  0  0
   -4.7270   23.2400  -31.1180 N   0  0  0  0  0  0  0  0  0  0  0  0
   -3.0960   24.5410  -29.0850 C   0  0  0  0  0  0  0  0  0  0  0  0
   -0.1700   26.0420  -29.2040 H   0  0  0  0  0  0  0  0  0  0  0  0
    0.1138   23.8656  -28.2495 H   0  0  0  0  0  0  0  0  0  0  0  0
   -0.9258   21.7427  -27.5805 H   0  0  0  0  0  0  0  0  0  0  0  0
   -3.3839   21.3552  -27.8534 H   0  0  0  0  0  0  0  0  0  0  0  0
   -7.6508   23.0200  -29.4204 H   0  0  0  0  0  0  0  0  0  0  0  0
   -9.3450   23.6970  -32.3370 H   0  0  0  0  0  0  0  0  0  0  0  0
   -9.1097   21.4311  -30.4047 H   0  0  0  0  0  0  0  0  0  0  0  0
  -10.6238   21.9909  -31.2530 H   0  0  0  0  0  0  0  0  0  0  0  0
  -10.4617   20.1230  -32.4628 H   0  0  0  0  0  0  0  0  0  0  0  0
   -9.1020   20.9308  -33.3064 H   0  0  0  0  0  0  0  0  0  0  0  0
   -7.8713   20.0594  -31.0538 H   0  0  0  0  0  0  0  0  0  0  0  0
   -9.1543   18.7687  -31.3433 H   0  0  0  0  0  0  0  0  0  0  0  0
   -7.4120   20.3912  -34.1791 H   0  0  0  0  0  0  0  0  0  0  0  0
   -6.3494   20.4923  -32.7232 H   0  0  0  0  0  0  0  0  0  0  0  0
   -5.4870   19.6124  -35.0989 H   0  0  0  0  0  0  0  0  0  0  0  0
   -4.8821   18.9793  -33.4962 H   0  0  0  0  0  0  0  0  0  0  0  0
   -7.3449   16.3697  -33.7525 H   0  0  0  0  0  0  0  0  0  0  0  0
   -5.6224   16.3784  -33.1646 H   0  0  0  0  0  0  0  0  0  0  0  0
   -7.4714   17.2248  -31.5277 H   0  0  0  0  0  0  0  0  0  0  0  0
   -6.0093   18.2099  -31.6980 H   0  0  0  0  0  0  0  0  0  0  0  0
   -6.9590   23.0540  -33.5480 H   0  0  0  0  0  0  0  0  0  0  0  0
   -4.5723   23.2413  -33.2229 H   0  0  0  0  0  0  0  0  0  0  0  0
   -3.7271   25.3331  -29.5142 H   0  0  0  0  0  0  0  0  0  0  0  0
  1  2  1  0
  2  3  2  0
  3  4  1  0
  4  5  2  0
  5  6  1  0
  6  7  1  0
  7  8  2  0
  8  9  1  0
  9 10  2  0
 10 11  1  0
 11 12  1  0
 12 13  1  0
 13 14  1  0
 14 15  1  0
 15 16  1  0
 16 17  1  0
 17 18  1  0
 18 19  1  0
 19 20  1  0
 10 21  1  0
 21 22  1  0
 22 23  2  0
  6 24  2  0
 24  2  1  0
 23  8  1  0
 20 15  1  0
  1 25  1  0
  3 26  1  0
  4 27  1  0
  5 28  1  0
  9 29  1  0
 11 30  1  0
 12 31  1  0
 12 32  1  0
 13 33  1  0
 13 34  1  0
 14 35  1  0
 14 36  1  0
 16 37  1  0
 16 38  1  0
 17 39  1  0
 17 40  1  0
 19 41  1  0
 19 42  1  0
 20 43  1  0
 20 44  1  0
 21 45  1  0
 22 46  1  0
 24 47  1  0
M  END
>  <smiles>  (15) 
Oc1cccc(N=c2cc(NCCCN3CCOCC3)[nH]cn2)c1

>  <score_type>  (15) 
oracle

>  <origin>  (15) 
adgpu

>  <m_score__min__energy>  (15) 
-8.4100000000000001

>  <m_primary>  (15) 
energy

$$$$
15:0
     RDKit          3D

 31 32  0  0  0  0  0  0  0  0999 V2000
   -7.3500   23.7595  -30.8520 H   0  0  0  0  0  0  0  0  0  0  0  0
   -6.9590   22.8870  -31.3960 C   0  0  0  0  0  0  0  0  0  0  0  0
   -5.5770   22.7760  -31.6370 C   0  0  0  0  0  0  0  0  0  0  0  0
   -4.6470   23.7890  -31.2170 N   0  0  0  0  0  0  0  0  0  0  0  0
   -3.7620   23.6920  -30.2660 C   0  0  0  0  0  0  0  0  0  0  0  0
   -3.5700   22.5170  -29.6020 N   0  0  0  0  0  0  0  0  0  0  0  0
   -2.6350   22.3970  -28.6230 C   0  0  0  0  0  0  0  0  0  0  0  0
   -2.4550   21.0880  -27.9100 C   0  0  0  0  0  0  0  0  0  0  0  0
   -3.5830   20.8040  -27.1640 F   0  0  0  0  0  0  0  0  0  0  0  0
   -1.3600   21.1660  -27.0690 F   0  0  0  0  0  0  0  0  0  0  0  0
   -2.2490   20.0650  -28.8190 F   0  0  0  0  0  0  0  0  0  0  0  0
   -1.8410   23.5000  -28.2950 C   0  0  0  0  0  0  0  0  0  0  0  0
   -1.0775   23.4283  -27.5063 H   0  0  0  0  0  0  0  0  0  0  0  0
   -2.0380   24.6920  -28.9890 C   0  0  0  0  0  0  0  0  0  0  0  0
   -1.4242   25.5733  -28.7513 H   0  0  0  0  0  0  0  0  0  0  0  0
   -2.9860   24.7680  -29.9580 N   0  0  0  0  0  0  0  0  0  0  0  0
   -3.1160   25.6710  -30.4710 H   0  0  0  0  0  0  0  0  0  0  0  0
   -5.0970   21.6950  -32.3850 C   0  0  0  0  0  0  0  0  0  0  0  0
   -4.0241   21.6281  -32.6185 H   0  0  0  0  0  0  0  0  0  0  0  0
   -5.9700   20.6960  -32.8400 C   0  0  0  0  0  0  0  0  0  0  0  0
   -5.4500   19.5570  -33.6670 C   0  0  0  0  0  0  0  0  0  0  0  0
   -5.0856   18.7587  -33.0037 H   0  0  0  0  0  0  0  0  0  0  0  0
   -6.2586   19.1656  -34.3018 H   0  0  0  0  0  0  0  0  0  0  0  0
   -4.6246   19.9117  -34.3018 H   0  0  0  0  0  0  0  0  0  0  0  0
   -7.3440   20.8080  -32.5800 C   0  0  0  0  0  0  0  0  0  0  0  0
   -8.0358   20.0397  -32.9555 H   0  0  0  0  0  0  0  0  0  0  0  0
   -7.8410   21.8940  -31.8440 C   0  0  0  0  0  0  0  0  0  0  0  0
   -9.3170   22.0380  -31.6170 C   0  0  0  0  0  0  0  0  0  0  0  0
   -9.5216   22.0580  -30.5364 H   0  0  0  0  0  0  0  0  0  0  0  0
   -9.6686   22.9747  -32.0741 H   0  0  0  0  0  0  0  0  0  0  0  0
   -9.8430   21.1869  -32.0741 H   0  0  0  0  0  0  0  0  0  0  0  0
  1  2  1  0
  2  3  2  0
  3  4  1  0
  4  5  2  0
  5  6  1  0
  6  7  2  0
  7  8  1  0
  8  9  1  0
  8 10  1  0
  8 11  1  0
  7 12  1  0
 12 13  1  0
 12 14  2  0
 14 15  1  0
 14 16  1  0
 16 17  1  0
  3 18  1  0
 18 19  1  0
 18 20  2  0
 20 21  1  0
 21 22  1  0
 21 23  1  0
 21 24  1  0
 20 25  1  0
 25 26  1  0
 25 27  2  0
 27 28  1  0
 28 29  1  0
 28 30  1  0
 28 31  1  0
 27  2  1  0
 16  5  1  0
M  END
>  <UniqueID>  (16) 
13

>  <SMILES>  (16) 
Cc1cc(C)cc(/N=c2\nc(C(F)(F)F)cc[nH]2)c1

>  <Energy>  (16) 
35.56151797809044

>  <Genealogy>  (16) 
Cc1cc(C)cc(/N=c2\nc(C(F)(F)F)cc[nH]2)c1 (cis-trans isomerization)
Cc1cc(C)cc(/N=c2\nc(C(F)(F)F)cc[nH]2)c1 (3D coordinates assigned)
Cc1cc(C)cc(/N=c2\nc(C(F)(F)F)cc[nH]2)c1 (optimized conformer: 35.56151797809044 kcal/mol)

>  <smiles>  (16) 
Cc1cc(C)cc(N=c2nc(C(F)(F)F)cc[nH]2)c1

>  <score_type>  (16) 
oracle

>  <origin>  (16) 
adgpu

>  <m_score__min__energy>  (16) 
-6.4900000000000002

>  <m_primary>  (16) 
energy

$$$$
16:0
     RDKit          3D

 33 35  0  0  0  0  0  0  0  0999 V2000
   -6.4990   25.6770  -29.4570 S   0  0  0  0  0  0  0  0  0  0  0  0
   -5.3640   24.7400  -30.1780 C   0  0  0  0  0  0  0  0  0  0  0  0
   -4.1320   25.1850  -30.4760 N   0  0  0  0  0  0  0  0  0  0  0  0
   -3.5030   24.1900  -31.0830 N   0  0  0  0  0  0  0  0  0  0  0  0
   -4.3600   23.1500  -31.1370 C   0  0  0  0  0  0  0  0  0  0  0  0
   -4.0150   21.8700  -31.7870 C   0  0  0  0  0  0  0  0  0  0  0  0
   -3.4890   21.8280  -33.0850 C   0  0  0  0  0  0  0  0  0  0  0  0
   -3.1760   20.6000  -33.6720 C   0  0  0  0  0  0  0  0  0  0  0  0
   -3.4160   19.4230  -32.9640 C   0  0  0  0  0  0  0  0  0  0  0  0
   -3.9620   19.4760  -31.7210 N   0  0  0  0  0  0  0  0  0  0  0  0
   -4.2740   20.6590  -31.1280 C   0  0  0  0  0  0  0  0  0  0  0  0
   -5.5520   23.4630  -30.5740 N   0  0  0  0  0  0  0  0  0  0  0  0
   -6.8150   22.7100  -30.5860 C   0  0  0  0  0  0  0  0  0  0  0  0
   -7.2930   22.4430  -32.0190 C   0  0  0  0  0  0  0  0  0  0  0  0
   -7.4810   20.9710  -32.2800 C   0  0  0  0  0  0  0  0  0  0  0  0
   -8.4380   20.2410  -31.5550 C   0  0  0  0  0  0  0  0  0  0  0  0
   -8.5970   18.8710  -31.7790 C   0  0  0  0  0  0  0  0  0  0  0  0
   -7.8040   18.2200  -32.7290 C   0  0  0  0  0  0  0  0  0  0  0  0
   -6.8450   18.9380  -33.4490 C   0  0  0  0  0  0  0  0  0  0  0  0
   -6.6790   20.3070  -33.2240 C   0  0  0  0  0  0  0  0  0  0  0  0
   -3.3226   22.7621  -33.6416 H   0  0  0  0  0  0  0  0  0  0  0  0
   -2.7443   20.5617  -34.6830 H   0  0  0  0  0  0  0  0  0  0  0  0
   -3.1631   18.4508  -33.4122 H   0  0  0  0  0  0  0  0  0  0  0  0
   -4.7313   20.6666  -30.1276 H   0  0  0  0  0  0  0  0  0  0  0  0
   -6.6633   21.7482  -30.0741 H   0  0  0  0  0  0  0  0  0  0  0  0
   -7.5806   23.3092  -30.0713 H   0  0  0  0  0  0  0  0  0  0  0  0
   -8.2521   22.9580  -32.1764 H   0  0  0  0  0  0  0  0  0  0  0  0
   -6.5251   22.8181  -32.7115 H   0  0  0  0  0  0  0  0  0  0  0  0
   -9.0646   20.7502  -30.8080 H   0  0  0  0  0  0  0  0  0  0  0  0
   -9.3467   18.3041  -31.2075 H   0  0  0  0  0  0  0  0  0  0  0  0
   -7.9349   17.1429  -32.9097 H   0  0  0  0  0  0  0  0  0  0  0  0
   -6.2198   18.4244  -34.1942 H   0  0  0  0  0  0  0  0  0  0  0  0
   -5.9181   20.8669  -33.7876 H   0  0  0  0  0  0  0  0  0  0  0  0
  1  2  2  0
  2  3  1  0
  3  4  1  0
  4  5  2  0
  5  6  1  0
  6  7  2  0
  7  8  1  0
  8  9  2  0
  9 10  1  0
 10 11  2  0
  5 12  1  0
 12 13  1  0
 13 14  1  0
 14 15  1  0
 15 16  2  0
 16 17  1  0
 17 18  2  0
 18 19  1  0
 19 20  2  0
 12  2  1  0
 20 15  1  0
 11  6  1  0
  7 21  1  0
  8 22  1  0
  9 23  1  0
 11 24  1  0
 13 25  1  0
 13 26  1  0
 14 27  1  0
 14 28  1  0
 16 29  1  0
 17 30  1  0
 18 31  1  0
 19 32  1  0
 20 33  1  0
M  CHG  1   3  -1
M  END
>  <UniqueID>  (17) 
14

>  <SMILES>  (17) 
S=c1[n-]nc(-c2cccnc2)n1CCc1ccccc1

>  <Energy>  (17) 
71.25597294188773

>  <Genealogy>  (17) 
S=c1[n-]nc(-c2cccnc2)n1CCc1ccccc1 (protonated)
S=c1[n-]nc(-c2cccnc2)n1CCc1ccccc1 (3D coordinates assigned)
S=c1[n-]nc(-c2cccnc2)n1CCc1ccccc1 (optimized conformer: 71.25597294188773 kcal/mol)

>  <smiles>  (17) 
S=c1[nH]nc(-c2cccnc2)n1CCc1ccccc1

>  <score_type>  (17) 
oracle

>  <origin>  (17) 
adgpu

>  <m_score__min__energy>  (17) 
-8.9299999999999997

>  <m_primary>  (17) 
energy

$$$$
17:0
     RDKit          3D

 43 46  0  0  0  0  0  0  0  0999 V2000
   -9.4900   21.9610  -31.9100 C   0  0  0  0  0  0  0  0  0  0  0  0
   -8.1090   22.5320  -31.8350 C   0  0  0  0  0  0  0  0  0  0  0  0
   -7.8540   23.8140  -31.5110 N   0  0  0  0  0  0  0  0  0  0  0  0
   -6.5370   23.9600  -31.5090 N   0  0  0  0  0  0  0  0  0  0  0  0
   -6.0090   22.7650  -31.8340 C   0  0  0  0  0  0  0  0  0  0  0  0
   -4.2400   22.4500  -31.8430 S   0  0  0  0  0  0  0  0  0  0  0  0
   -3.9670   23.0880  -30.1520 C   0  0  0  0  0  0  0  0  0  0  0  0
   -3.5040   24.5190  -30.1740 C   0  0  0  0  0  0  0  0  0  0  0  0
   -4.2160   25.3810  -30.7530 O   0  0  0  0  0  0  0  0  0  0  0  0
   -2.2400   24.9210  -29.6280 N   0  0  0  0  0  0  0  0  0  0  0  0
   -1.9930   25.3020  -28.2700 C   0  0  0  0  0  0  0  0  0  0  0  0
   -0.9140   26.1490  -27.9840 C   0  0  0  0  0  0  0  0  0  0  0  0
   -0.6630   26.5520  -26.6680 C   0  0  0  0  0  0  0  0  0  0  0  0
   -1.5040   26.1280  -25.6350 C   0  0  0  0  0  0  0  0  0  0  0  0
   -2.6020   25.3110  -25.9170 C   0  0  0  0  0  0  0  0  0  0  0  0
   -2.8530   24.9060  -27.2330 C   0  0  0  0  0  0  0  0  0  0  0  0
   -6.9690   21.8410  -32.0490 N   0  0  0  0  0  0  0  0  0  0  0  0
   -6.8230   20.4420  -32.3430 C   0  0  0  0  0  0  0  0  0  0  0  0
   -7.5930   19.4810  -31.6680 C   0  0  0  0  0  0  0  0  0  0  0  0
   -7.4300   18.1270  -31.9710 C   0  0  0  0  0  0  0  0  0  0  0  0
   -6.4970   17.7360  -32.9380 C   0  0  0  0  0  0  0  0  0  0  0  0
   -6.3060   16.3860  -33.2660 C   0  0  0  0  0  0  0  0  0  0  0  0
   -5.3610   16.0290  -34.2320 C   0  0  0  0  0  0  0  0  0  0  0  0
   -4.6030   17.0150  -34.8730 C   0  0  0  0  0  0  0  0  0  0  0  0
   -4.7860   18.3640  -34.5510 C   0  0  0  0  0  0  0  0  0  0  0  0
   -5.7300   18.7300  -33.5870 C   0  0  0  0  0  0  0  0  0  0  0  0
   -5.9120   20.0400  -33.2720 N   0  0  0  0  0  0  0  0  0  0  0  0
   -9.8765   21.8012  -30.8926 H   0  0  0  0  0  0  0  0  0  0  0  0
  -10.1476   22.6610  -32.4463 H   0  0  0  0  0  0  0  0  0  0  0  0
   -9.4612   21.0010  -32.4463 H   0  0  0  0  0  0  0  0  0  0  0  0
   -4.9100   23.0255  -29.5892 H   0  0  0  0  0  0  0  0  0  0  0  0
   -3.1861   22.4785  -29.6737 H   0  0  0  0  0  0  0  0  0  0  0  0
   -0.2615   26.4985  -28.7977 H   0  0  0  0  0  0  0  0  0  0  0  0
    0.1960   27.2024  -26.4462 H   0  0  0  0  0  0  0  0  0  0  0  0
   -1.3012   26.4378  -24.5992 H   0  0  0  0  0  0  0  0  0  0  0  0
   -3.2690   24.9862  -25.1048 H   0  0  0  0  0  0  0  0  0  0  0  0
   -3.7265   24.2756  -27.4556 H   0  0  0  0  0  0  0  0  0  0  0  0
   -8.3209   19.7928  -30.9045 H   0  0  0  0  0  0  0  0  0  0  0  0
   -8.0341   17.3694  -31.4503 H   0  0  0  0  0  0  0  0  0  0  0  0
   -6.8997   15.6083  -32.7632 H   0  0  0  0  0  0  0  0  0  0  0  0
   -5.2128   14.9698  -34.4890 H   0  0  0  0  0  0  0  0  0  0  0  0
   -3.8608   16.7285  -35.6326 H   0  0  0  0  0  0  0  0  0  0  0  0
   -4.1874   19.1364  -35.0561 H   0  0  0  0  0  0  0  0  0  0  0  0
  1  2  1  0
  2  3  2  0
  3  4  1  0
  4  5  2  0
  5  6  1  0
  6  7  1  0
  7  8  1  0
  8  9  2  0
  8 10  1  0
 10 11  1  0
 11 12  2  0
 12 13  1  0
 13 14  2  0
 14 15  1  0
 15 16  2  0
  5 17  1  0
 17 18  1  0
 18 19  2  0
 19 20  1  0
 20 21  2  0
 21 22  1  0
 22 23  2  0
 23 24  1  0
 24 25  2  0
 25 26  1  0
 26 27  2  0
 17  2  1  0
 27 18  1  0
 16 11  1  0
 26 21  1  0
  1 28  1  0
  1 29  1  0
  1 30  1  0
  7 31  1  0
  7 32  1  0
 12 33  1  0
 13 34  1  0
 14 35  1  0
 15 36  1  0
 16 37  1  0
 19 38  1  0
 20 39  1  0
 22 40  1  0
 23 41  1  0
 24 42  1  0
 25 43  1  0
M  CHG  1  10  -1
M  END
>  <UniqueID>  (18) 
15

>  <SMILES>  (18) 
Cc1nnc(SCC(=O)[N-]c2ccccc2)n1-c1ccc2ccccc2n1

>  <Energy>  (18) 
90.04611184911877

>  <Genealogy>  (18) 
Cc1nnc(SCC(=O)[N-]c2ccccc2)n1-c1ccc2ccccc2n1 (protonated)
Cc1nnc(SCC(=O)[N-]c2ccccc2)n1-c1ccc2ccccc2n1 (3D coordinates assigned)
Cc1nnc(SCC(=O)[N-]c2ccccc2)n1-c1ccc2ccccc2n1 (optimized conformer: 90.04611184911877 kcal/mol)

>  <smiles>  (18) 
Cc1nnc(SCC(=O)Nc2ccccc2)n1-c1ccc2ccccc2n1

>  <score_type>  (18) 
oracle

>  <origin>  (18) 
adgpu

>  <m_score__min__energy>  (18) 
-11.720000000000001

>  <m_primary>  (18) 
energy

$$$$
18:0
     RDKit          3D

 19 20  0  0  0  0  0  0  0  0999 V2000
   -1.7980   24.4400  -29.9210 H   0  0  0  0  0  0  0  0  0  0  0  0
   -2.7010   24.9250  -29.7190 N   0  0  0  0  0  0  0  0  0  0  0  0
   -3.8280   24.4740  -30.1710 C   0  0  0  0  0  0  0  0  0  0  0  0
   -3.8550   23.3480  -30.9260 N   0  0  0  0  0  0  0  0  0  0  0  0
   -5.0090   22.8280  -31.4270 C   0  0  0  0  0  0  0  0  0  0  0  0
   -4.8510   21.5860  -32.2340 C   0  0  0  0  0  0  0  0  0  0  0  0
   -5.8360   20.7190  -32.3380 O   0  0  0  0  0  0  0  0  0  0  0  0
   -5.4540   19.7200  -33.0950 C   0  0  0  0  0  0  0  0  0  0  0  0
   -6.4620   18.3440  -33.4920 Cl  0  0  0  0  0  0  0  0  0  0  0  0
   -4.1640   19.9170  -33.5210 C   0  0  0  0  0  0  0  0  0  0  0  0
   -3.5695   19.2543  -34.1671 H   0  0  0  0  0  0  0  0  0  0  0  0
   -3.7680   21.1180  -32.9710 C   0  0  0  0  0  0  0  0  0  0  0  0
   -2.7906   21.6082  -33.0911 H   0  0  0  0  0  0  0  0  0  0  0  0
   -6.2280   23.5010  -31.1430 C   0  0  0  0  0  0  0  0  0  0  0  0
   -7.9680   22.9470  -31.7470 Br  0  0  0  0  0  0  0  0  0  0  0  0
   -6.1730   24.6670  -30.3580 C   0  0  0  0  0  0  0  0  0  0  0  0
   -7.2300   25.2960  -30.0820 O   0  0  0  0  0  0  0  0  0  0  0  0
   -4.9830   25.1280  -29.8910 N   0  0  0  0  0  0  0  0  0  0  0  0
   -4.9610   25.9970  -29.3090 H   0  0  0  0  0  0  0  0  0  0  0  0
  1  2  1  0
  2  3  2  0
  3  4  1  0
  4  5  1  0
  5  6  1  0
  6  7  1  0
  7  8  1  0
  8  9  1  0
  8 10  2  0
 10 11  1  0
 10 12  1  0
 12 13  1  0
  5 14  2  0
 14 15  1  0
 14 16  1  0
 16 17  2  0
 16 18  1  0
 18 19  1  0
 18  3  1  0
 12  6  2  0
M  CHG  1   4  -1
M  END
>  <UniqueID>  (19) 
16

>  <SMILES>  (19) 
[H]/N=c1\[n-]c(-c2ccc(Cl)o2)c(Br)c(=O)[nH]1

>  <Energy>  (19) 
55.67116946092284

>  <Genealogy>  (19) 
N=c1[n-]c(-c2ccc(Cl)o2)c(Br)c(=O)[nH]1 (protonated)
[H]/N=c1\[n-]c(-c2ccc(Cl)o2)c(Br)c(=O)[nH]1 (cis-trans isomerization)
[H]/N=c1\[n-]c(-c2ccc(Cl)o2)c(Br)c(=O)[nH]1 (3D coordinates assigned)
[H]/N=c1\[n-]c(-c2ccc(Cl)o2)c(Br)c(=O)[nH]1 (optimized conformer: 55.67116946092284 kcal/mol)

>  <smiles>  (19) 
N=c1[nH]c(-c2ccc(Cl)o2)c(Br)c(=O)[nH]1

>  <score_type>  (19) 
oracle

>  <origin>  (19) 
adgpu

>  <m_score__min__energy>  (19) 
-7.9699999999999998

>  <m_primary>  (19) 
energy

$$$$
19:0
     RDKit          3D

 39 40  0  0  0  0  0  0  0  0999 V2000
   -3.0060   21.2380  -31.3550 C   0  0  0  0  0  0  0  0  0  0  0  0
   -3.2390   21.8180  -29.9980 C   0  0  0  0  0  0  0  0  0  0  0  0
   -2.9440   21.1700  -28.8540 N   0  0  0  0  0  0  0  0  0  0  0  0
   -3.2680   21.9590  -27.8710 O   0  0  0  0  0  0  0  0  0  0  0  0
   -3.7600   23.0940  -28.3120 C   0  0  0  0  0  0  0  0  0  0  0  0
   -4.2160   24.2000  -27.4180 C   0  0  0  0  0  0  0  0  0  0  0  0
   -3.7680   23.0650  -29.6990 C   0  0  0  0  0  0  0  0  0  0  0  0
   -4.2230   24.1120  -30.6390 C   0  0  0  0  0  0  0  0  0  0  0  0
   -3.8570   25.3060  -30.4680 O   0  0  0  0  0  0  0  0  0  0  0  0
   -5.0370   23.7600  -31.7650 N   0  0  0  0  0  0  0  0  0  0  0  0
   -6.1890   22.9060  -31.7620 C   0  0  0  0  0  0  0  0  0  0  0  0
   -7.4510   23.4870  -31.5860 C   0  0  0  0  0  0  0  0  0  0  0  0
   -8.6020   22.6940  -31.5970 C   0  0  0  0  0  0  0  0  0  0  0  0
   -8.5030   21.3170  -31.7960 C   0  0  0  0  0  0  0  0  0  0  0  0
   -7.2500   20.7240  -32.0000 C   0  0  0  0  0  0  0  0  0  0  0  0
   -7.1270   18.9880  -32.2920 S   0  0  0  0  0  0  0  0  0  0  0  0
   -6.2970   18.3640  -31.2040 O   0  0  0  0  0  0  0  0  0  0  0  0
   -8.5000   18.3770  -32.2370 O   0  0  0  0  0  0  0  0  0  0  0  0
   -6.4000   18.6530  -33.8440 N   0  0  0  0  0  0  0  0  0  0  0  0
   -5.0150   19.1400  -33.8750 C   0  0  0  0  0  0  0  0  0  0  0  0
   -6.4500   17.2110  -34.1290 C   0  0  0  0  0  0  0  0  0  0  0  0
   -6.0960   21.5200  -31.9920 C   0  0  0  0  0  0  0  0  0  0  0  0
   -2.5977   20.2216  -31.2541 H   0  0  0  0  0  0  0  0  0  0  0  0
   -3.9578   21.1979  -31.9050 H   0  0  0  0  0  0  0  0  0  0  0  0
   -2.2910   21.8675  -31.9050 H   0  0  0  0  0  0  0  0  0  0  0  0
   -4.0913   23.8976  -26.3678 H   0  0  0  0  0  0  0  0  0  0  0  0
   -3.6159   25.1009  -27.6139 H   0  0  0  0  0  0  0  0  0  0  0  0
   -5.2766   24.4162  -27.6139 H   0  0  0  0  0  0  0  0  0  0  0  0
   -7.5370   24.5736  -31.4383 H   0  0  0  0  0  0  0  0  0  0  0  0
   -9.5886   23.1572  -31.4483 H   0  0  0  0  0  0  0  0  0  0  0  0
   -9.4105   20.6953  -31.7928 H   0  0  0  0  0  0  0  0  0  0  0  0
   -6.9510   19.1580  -34.5760 H   0  0  0  0  0  0  0  0  0  0  0  0
   -4.6485   19.2689  -32.8459 H   0  0  0  0  0  0  0  0  0  0  0  0
   -4.3816   18.4107  -34.4012 H   0  0  0  0  0  0  0  0  0  0  0  0
   -4.9774   20.1053  -34.4012 H   0  0  0  0  0  0  0  0  0  0  0  0
   -6.4694   16.6507  -33.1826 H   0  0  0  0  0  0  0  0  0  0  0  0
   -7.3566   16.9830  -34.7088 H   0  0  0  0  0  0  0  0  0  0  0  0
   -5.5614   16.9208  -34.7088 H   0  0  0  0  0  0  0  0  0  0  0  0
   -5.1125   21.0593  -32.1664 H   0  0  0  0  0  0  0  0  0  0  0  0
  1  2  1  0
  2  3  2  0
  3  4  1  0
  4  5  1  0
  5  6  1  0
  5  7  2  0
  7  8  1  0
  8  9  2  0
  8 10  1  0
 10 11  1  0
 11 12  2  0
 12 13  1  0
 13 14  2  0
 14 15  1  0
 15 16  1  0
 16 17  2  0
 16 18  2  0
 16 19  1  0
 19 20  1  0
 19 21  1  0
 15 22  2  0
  7  2  1  0
 22 11  1  0
  1 23  1  0
  1 24  1  0
  1 25  1  0
  6 26  1  0
  6 27  1  0
  6 28  1  0
 12 29  1  0
 13 30  1  0
 14 31  1  0
 19 32  1  0
 20 33  1  0
 20 34  1  0
 20 35  1  0
 21 36  1  0
 21 37  1  0
 21 38  1  0
 22 39  1  0
M  CHG  2  10  -1  19   1
M  END
>  <UniqueID>  (20) 
17

>  <SMILES>  (20) 
Cc1noc(C)c1C(=O)[N-]c1cccc(S(=O)(=O)[NH+](C)C)c1

>  <Energy>  (20) 
68.36393920085072

>  <Genealogy>  (20) 
Cc1noc(C)c1C(=O)[N-]c1cccc(S(=O)(=O)[NH+](C)C)c1 (protonated)
Cc1noc(C)c1C(=O)[N-]c1cccc(S(=O)(=O)[NH+](C)C)c1 (3D coordinates assigned)
Cc1noc(C)c1C(=O)[N-]c1cccc(S(=O)(=O)[NH+](C)C)c1 (optimized conformer: 68.36393920085072 kcal/mol)

>  <smiles>  (20) 
Cc1noc(C)c1C(=O)Nc1cccc(S(=O)(=O)N(C)C)c1

>  <score_type>  (20) 
oracle

>  <origin>  (20) 
adgpu

>  <m_score__min__energy>  (20) 
-8.5600000000000005

>  <m_primary>  (20) 
energy

$$$$
20:0
     RDKit          3D

 22 23  0  0  0  0  0  0  0  0999 V2000
   -1.0760   26.3040  -30.0350 H   0  0  0  0  0  0  0  0  0  0  0  0
   -1.2380   25.6670  -29.2230 N   0  0  0  0  0  0  0  0  0  0  0  0
   -2.2930   24.9240  -29.1550 C   0  0  0  0  0  0  0  0  0  0  0  0
   -2.5290   24.0930  -28.1200 N   0  0  0  0  0  0  0  0  0  0  0  0
   -3.7040   23.5210  -28.4350 C   0  0  0  0  0  0  0  0  0  0  0  0
   -4.2330   22.7730  -27.8262 H   0  0  0  0  0  0  0  0  0  0  0  0
   -4.1410   24.0230  -29.6460 C   0  0  0  0  0  0  0  0  0  0  0  0
   -5.3770   23.6800  -30.3750 C   0  0  0  0  0  0  0  0  0  0  0  0
   -5.8722   24.4650  -30.9653 H   0  0  0  0  0  0  0  0  0  0  0  0
   -5.9240   22.4590  -30.3520 C   0  0  0  0  0  0  0  0  0  0  0  0
   -5.4340   21.6693  -29.7636 H   0  0  0  0  0  0  0  0  0  0  0  0
   -7.1580   22.1350  -31.0860 C   0  0  0  0  0  0  0  0  0  0  0  0
   -7.5210   20.8820  -31.4280 N   0  0  0  0  0  0  0  0  0  0  0  0
   -8.7130   20.8630  -32.1020 C   0  0  0  0  0  0  0  0  0  0  0  0
   -9.4280   19.3250  -32.6730 S   0  0  0  0  0  0  0  0  0  0  0  0
   -8.0880   18.3110  -31.9770 C   0  0  0  0  0  0  0  0  0  0  0  0
   -8.1343   18.3461  -30.8785 H   0  0  0  0  0  0  0  0  0  0  0  0
   -8.2016   17.2706  -32.3158 H   0  0  0  0  0  0  0  0  0  0  0  0
   -7.1177   18.7031  -32.3158 H   0  0  0  0  0  0  0  0  0  0  0  0
   -9.3340   22.0530  -32.3230 N   0  0  0  0  0  0  0  0  0  0  0  0
   -8.3310   23.1830  -31.6330 S   0  0  0  0  0  0  0  0  0  0  0  0
   -3.2470   24.9150  -30.1090 N   0  0  0  0  0  0  0  0  0  0  0  0
  1  2  1  0
  2  3  2  0
  3  4  1  0
  4  5  1  0
  5  6  1  0
  5  7  2  0
  7  8  1  0
  8  9  1  0
  8 10  2  0
 10 11  1  0
 10 12  1  0
 12 13  2  0
 13 14  1  0
 14 15  1  0
 15 16  1  0
 16 17  1  0
 16 18  1  0
 16 19  1  0
 14 20  2  0
 20 21  1  0
  7 22  1  0
 22  3  1  0
 21 12  1  0
M  CHG  2   4  -1  22  -1
M  END
>  <UniqueID>  (21) 
18

>  <SMILES>  (21) 
[H]/N=c1/[n-]cc(/C=C/c2nc(SC)ns2)[n-]1

>  <Energy>  (21) 
81.4619214529556

>  <Genealogy>  (21) 
CSc1nsc(C=Cc2c[n-]c(=N)[n-]2)n1 (protonated)
[H]/N=c1/[n-]cc(/C=C/c2nc(SC)ns2)[n-]1 (cis-trans isomerization)
[H]/N=c1/[n-]cc(/C=C/c2nc(SC)ns2)[n-]1 (3D coordinates assigned)
[H]/N=c1/[n-]cc(/C=C/c2nc(SC)ns2)[n-]1 (optimized conformer: 81.4619214529556 kcal/mol)

>  <smiles>  (21) 
CSc1nsc(C=Cc2c[nH]c(=N)[nH]2)n1

>  <score_type>  (21) 
oracle

>  <origin>  (21) 
adgpu

>  <m_score__min__energy>  (21) 
-9.6999999999999993

>  <m_primary>  (21) 
energy

$$$$
21:0
     RDKit          3D

 54 56  0  0  0  0  0  0  0  0999 V2000
    0.5230   20.0110  -31.3400 C   0  0  0  0  0  0  0  0  0  0  0  0
    0.0370   20.2150  -32.7710 C   0  0  0  0  0  0  0  0  0  0  0  0
   -1.0320   21.1600  -32.8120 O   0  0  0  0  0  0  0  0  0  0  0  0
   -2.4010   20.8700  -32.6680 C   0  0  0  0  0  0  0  0  0  0  0  0
   -3.1170   20.1820  -33.6700 C   0  0  0  0  0  0  0  0  0  0  0  0
   -4.4680   19.8820  -33.5020 C   0  0  0  0  0  0  0  0  0  0  0  0
   -5.1310   20.2540  -32.3300 C   0  0  0  0  0  0  0  0  0  0  0  0
   -6.8450   19.9050  -32.1190 S   0  0  0  0  0  0  0  0  0  0  0  0
   -7.0070   18.6960  -31.2400 O   0  0  0  0  0  0  0  0  0  0  0  0
   -7.4810   19.6020  -33.4470 O   0  0  0  0  0  0  0  0  0  0  0  0
   -7.6380   21.2750  -31.3950 N   0  0  0  0  0  0  0  0  0  0  0  0
   -9.0630   21.1870  -31.0550 C   0  0  0  0  0  0  0  0  0  0  0  0
   -9.8890   20.8280  -32.2870 C   0  0  0  0  0  0  0  0  0  0  0  0
   -6.8830   22.4680  -31.1090 C   0  0  0  0  0  0  0  0  0  0  0  0
   -6.4770   22.7600  -29.7950 C   0  0  0  0  0  0  0  0  0  0  0  0
   -5.7370   23.9160  -29.5250 C   0  0  0  0  0  0  0  0  0  0  0  0
   -5.3930   24.7870  -30.5620 C   0  0  0  0  0  0  0  0  0  0  0  0
   -4.6760   25.9070  -30.2980 F   0  0  0  0  0  0  0  0  0  0  0  0
   -5.7890   24.5030  -31.8710 C   0  0  0  0  0  0  0  0  0  0  0  0
   -6.5290   23.3490  -32.1450 C   0  0  0  0  0  0  0  0  0  0  0  0
   -4.4330   20.9290  -31.3250 C   0  0  0  0  0  0  0  0  0  0  0  0
   -3.0710   21.2540  -31.4800 C   0  0  0  0  0  0  0  0  0  0  0  0
   -2.3790   22.0030  -30.3930 C   0  0  0  0  0  0  0  0  0  0  0  0
   -2.4750   23.3560  -30.3100 N   0  0  0  0  0  0  0  0  0  0  0  0
   -1.8620   24.0550  -29.3220 C   0  0  0  0  0  0  0  0  0  0  0  0
   -1.9890   25.3080  -29.2890 O   0  0  0  0  0  0  0  0  0  0  0  0
   -1.1010   23.3790  -28.3500 C   0  0  0  0  0  0  0  0  0  0  0  0
   -0.4220   24.1290  -27.2280 C   0  0  0  0  0  0  0  0  0  0  0  0
   -1.0330   21.9730  -28.4350 C   0  0  0  0  0  0  0  0  0  0  0  0
   -0.2640   21.1540  -27.4390 C   0  0  0  0  0  0  0  0  0  0  0  0
   -1.6650   21.3310  -29.4520 N   0  0  0  0  0  0  0  0  0  0  0  0
   -0.2575   20.3386  -30.6375 H   0  0  0  0  0  0  0  0  0  0  0  0
    0.7409   18.9455  -31.1752 H   0  0  0  0  0  0  0  0  0  0  0  0
    1.4361   20.6018  -31.1752 H   0  0  0  0  0  0  0  0  0  0  0  0
    0.8704   20.5859  -33.3857 H   0  0  0  0  0  0  0  0  0  0  0  0
   -0.3269   19.2530  -33.1609 H   0  0  0  0  0  0  0  0  0  0  0  0
   -2.6035   19.8788  -34.5943 H   0  0  0  0  0  0  0  0  0  0  0  0
   -5.0140   19.3504  -34.2953 H   0  0  0  0  0  0  0  0  0  0  0  0
   -9.2041   20.4122  -30.2871 H   0  0  0  0  0  0  0  0  0  0  0  0
   -9.3978   22.1640  -30.6765 H   0  0  0  0  0  0  0  0  0  0  0  0
  -10.8553   20.4080  -31.9710 H   0  0  0  0  0  0  0  0  0  0  0  0
  -10.0615   21.7323  -32.8890 H   0  0  0  0  0  0  0  0  0  0  0  0
   -9.3455   20.0849  -32.8890 H   0  0  0  0  0  0  0  0  0  0  0  0
   -6.7425   22.0762  -28.9753 H   0  0  0  0  0  0  0  0  0  0  0  0
   -5.4253   24.1398  -28.4941 H   0  0  0  0  0  0  0  0  0  0  0  0
   -5.5182   25.1884  -32.6876 H   0  0  0  0  0  0  0  0  0  0  0  0
   -6.8361   23.1292  -33.1781 H   0  0  0  0  0  0  0  0  0  0  0  0
   -4.9550   21.2109  -30.3987 H   0  0  0  0  0  0  0  0  0  0  0  0
   -0.7741   23.7400  -26.2612 H   0  0  0  0  0  0  0  0  0  0  0  0
    0.6671   23.9937  -27.3029 H   0  0  0  0  0  0  0  0  0  0  0  0
   -0.6646   25.1993  -27.3029 H   0  0  0  0  0  0  0  0  0  0  0  0
   -0.5471   21.4555  -26.4197 H   0  0  0  0  0  0  0  0  0  0  0  0
   -0.4955   20.0884  -27.5838 H   0  0  0  0  0  0  0  0  0  0  0  0
    0.8140   21.3180  -27.5838 H   0  0  0  0  0  0  0  0  0  0  0  0
  1  2  1  0
  2  3  1  0
  3  4  1  0
  4  5  2  0
  5  6  1  0
  6  7  2  0
  7  8  1  0
  8  9  2  0
  8 10  2  0
  8 11  1  0
 11 12  1  0
 12 13  1  0
 11 14  1  0
 14 15  2  0
 15 16  1  0
 16 17  2  0
 17 18  1  0
 17 19  1  0
 19 20  2  0
  7 21  1  0
 21 22  2  0
 22 23  1  0
 23 24  2  0
 24 25  1  0
 25 26  2  0
 25 27  1  0
 27 28  1  0
 27 29  2  0
 29 30  1  0
 29 31  1  0
 22  4  1  0
 31 23  1  0
 20 14  1  0
  1 32  1  0
  1 33  1  0
  1 34  1  0
  2 35  1  0
  2 36  1  0
  5 37  1  0
  6 38  1  0
 12 39  1  0
 12 40  1  0
 13 41  1  0
 13 42  1  0
 13 43  1  0
 15 44  1  0
 16 45  1  0
 19 46  1  0
 20 47  1  0
 21 48  1  0
 28 49  1  0
 28 50  1  0
 28 51  1  0
 30 52  1  0
 30 53  1  0
 30 54  1  0
M  CHG  1  31  -1
M  END
>  <UniqueID>  (22) 
19

>  <SMILES>  (22) 
CCOc1ccc(S(=O)(=O)N(CC)c2ccc(F)cc2)cc1-c1nc(=O)c(C)c(C)[n-]1

>  <Energy>  (22) 
60.058902909574144

>  <Genealogy>  (22) 
CCOc1ccc(S(=O)(=O)N(CC)c2ccc(F)cc2)cc1-c1nc(=O)c(C)c(C)[n-]1 (protonated)
CCOc1ccc(S(=O)(=O)N(CC)c2ccc(F)cc2)cc1-c1nc(=O)c(C)c(C)[n-]1 (3D coordinates assigned)
CCOc1ccc(S(=O)(=O)N(CC)c2ccc(F)cc2)cc1-c1nc(=O)c(C)c(C)[n-]1 (optimized conformer: 60.058902909574144 kcal/mol)

>  <smiles>  (22) 
CCOc1ccc(S(=O)(=O)N(CC)c2ccc(F)cc2)cc1-c1nc(=O)c(C)c(C)[nH]1

>  <score_type>  (22) 
oracle

>  <origin>  (22) 
adgpu

>  <m_score__min__energy>  (22) 
-9.9000000000000004

>  <m_primary>  (22) 
energy

$$$$
22:0
     RDKit          3D

 70 73  0  0  0  0  0  0  0  0999 V2000
   -2.4680   21.8170  -28.5200 C   0  0  0  0  0  0  0  0  0  0  0  0
   -1.9220   21.6390  -29.9140 C   0  0  0  0  0  0  0  0  0  0  0  0
   -0.7000   20.9740  -30.0780 C   0  0  0  0  0  0  0  0  0  0  0  0
   -0.1680   20.7570  -31.3520 C   0  0  0  0  0  0  0  0  0  0  0  0
   -0.8560   21.1890  -32.5000 C   0  0  0  0  0  0  0  0  0  0  0  0
   -0.3260   20.9470  -33.8730 C   0  0  0  0  0  0  0  0  0  0  0  0
   -0.2650   19.6570  -34.4400 C   0  0  0  0  0  0  0  0  0  0  0  0
    0.2540   19.4930  -35.7250 C   0  0  0  0  0  0  0  0  0  0  0  0
    0.6980   20.6010  -36.4450 C   0  0  0  0  0  0  0  0  0  0  0  0
    0.6060   21.8680  -35.8690 C   0  0  0  0  0  0  0  0  0  0  0  0
    0.0990   22.0090  -34.6170 N   0  0  0  0  0  0  0  0  0  0  0  0
   -2.0630   21.8920  -32.3330 C   0  0  0  0  0  0  0  0  0  0  0  0
   -2.5850   22.1460  -31.0540 C   0  0  0  0  0  0  0  0  0  0  0  0
   -3.8490   22.9010  -30.9510 C   0  0  0  0  0  0  0  0  0  0  0  0
   -3.8730   24.2090  -30.6330 N   0  0  0  0  0  0  0  0  0  0  0  0
   -5.1790   24.5350  -30.6380 C   0  0  0  0  0  0  0  0  0  0  0  0
   -5.6440   25.9390  -30.4190 C   0  0  0  0  0  0  0  0  0  0  0  0
   -5.9410   23.4140  -30.9690 C   0  0  0  0  0  0  0  0  0  0  0  0
   -7.4560   23.3170  -31.0920 C   0  0  0  0  0  0  0  0  0  0  0  0
   -7.9160   23.4290  -32.5510 C   0  0  0  0  0  0  0  0  0  0  0  0
   -8.0100   22.0530  -30.4260 C   0  0  0  0  0  0  0  0  0  0  0  0
   -5.0830   22.3810  -31.1580 N   0  0  0  0  0  0  0  0  0  0  0  0
   -5.4070   20.9810  -31.4770 C   0  0  0  0  0  0  0  0  0  0  0  0
   -5.7880   20.8020  -32.9530 C   0  0  0  0  0  0  0  0  0  0  0  0
   -6.2810   19.3790  -33.2530 C   0  0  0  0  0  0  0  0  0  0  0  0
   -5.4990   18.7770  -34.3580 N   0  0  0  0  0  0  0  0  0  0  0  0
   -4.0360   18.9310  -34.2000 C   0  0  0  0  0  0  0  0  0  0  0  0
   -3.4400   17.9860  -33.1340 C   0  0  0  0  0  0  0  0  0  0  0  0
   -3.8420   16.5740  -33.3250 N   0  0  0  0  0  0  0  0  0  0  0  0
   -3.0930   15.9270  -34.4190 C   0  0  0  0  0  0  0  0  0  0  0  0
   -5.3040   16.4440  -33.4920 C   0  0  0  0  0  0  0  0  0  0  0  0
   -5.8540   17.3650  -34.5960 C   0  0  0  0  0  0  0  0  0  0  0  0
   -1.6891   21.5631  -27.7859 H   0  0  0  0  0  0  0  0  0  0  0  0
   -2.7782   22.8628  -28.3785 H   0  0  0  0  0  0  0  0  0  0  0  0
   -3.3350   21.1550  -28.3785 H   0  0  0  0  0  0  0  0  0  0  0  0
   -0.1523   20.6181  -29.1929 H   0  0  0  0  0  0  0  0  0  0  0  0
    0.7988   20.2430  -31.4579 H   0  0  0  0  0  0  0  0  0  0  0  0
   -0.6243   18.7856  -33.8729 H   0  0  0  0  0  0  0  0  0  0  0  0
    0.3128   18.4888  -36.1700 H   0  0  0  0  0  0  0  0  0  0  0  0
    1.1158   20.4776  -37.4551 H   0  0  0  0  0  0  0  0  0  0  0  0
    0.9440   22.7527  -36.4286 H   0  0  0  0  0  0  0  0  0  0  0  0
   -2.6075   22.2490  -33.2196 H   0  0  0  0  0  0  0  0  0  0  0  0
   -5.7103   26.1391  -29.3394 H   0  0  0  0  0  0  0  0  0  0  0  0
   -4.9293   26.6378  -30.8782 H   0  0  0  0  0  0  0  0  0  0  0  0
   -6.6345   26.0730  -30.8782 H   0  0  0  0  0  0  0  0  0  0  0  0
   -7.8726   24.1771  -30.5473 H   0  0  0  0  0  0  0  0  0  0  0  0
   -8.9844   23.6891  -32.5797 H   0  0  0  0  0  0  0  0  0  0  0  0
   -7.3343   24.2117  -33.0598 H   0  0  0  0  0  0  0  0  0  0  0  0
   -7.7592   22.4664  -33.0598 H   0  0  0  0  0  0  0  0  0  0  0  0
   -7.9616   22.1634  -29.3326 H   0  0  0  0  0  0  0  0  0  0  0  0
   -9.0556   21.9047  -30.7336 H   0  0  0  0  0  0  0  0  0  0  0  0
   -7.4104   21.1836  -30.7336 H   0  0  0  0  0  0  0  0  0  0  0  0
   -4.5298   20.3545  -31.2580 H   0  0  0  0  0  0  0  0  0  0  0  0
   -6.2707   20.6836  -30.8642 H   0  0  0  0  0  0  0  0  0  0  0  0
   -6.5882   21.5146  -33.2019 H   0  0  0  0  0  0  0  0  0  0  0  0
   -4.8888   20.9843  -33.5598 H   0  0  0  0  0  0  0  0  0  0  0  0
   -6.1676   18.7597  -32.3510 H   0  0  0  0  0  0  0  0  0  0  0  0
   -7.3384   19.4264  -33.5524 H   0  0  0  0  0  0  0  0  0  0  0  0
   -3.5550   18.7172  -35.1659 H   0  0  0  0  0  0  0  0  0  0  0  0
   -3.8485   19.9623  -33.8664 H   0  0  0  0  0  0  0  0  0  0  0  0
   -2.3429   18.0482  -33.1840 H   0  0  0  0  0  0  0  0  0  0  0  0
   -3.8246   18.3088  -32.1553 H   0  0  0  0  0  0  0  0  0  0  0  0
   -3.5840   16.0610  -32.4470 H   0  0  0  0  0  0  0  0  0  0  0  0
   -2.3249   15.2635  -33.9951 H   0  0  0  0  0  0  0  0  0  0  0  0
   -3.7850   15.3379  -35.0388 H   0  0  0  0  0  0  0  0  0  0  0  0
   -2.6107   16.6972  -35.0388 H   0  0  0  0  0  0  0  0  0  0  0  0
   -5.5382   15.4014  -33.7529 H   0  0  0  0  0  0  0  0  0  0  0  0
   -5.7769   16.7388  -32.5436 H   0  0  0  0  0  0  0  0  0  0  0  0
   -5.4353   17.0507  -35.5634 H   0  0  0  0  0  0  0  0  0  0  0  0
   -6.9509   17.2831  -34.5949 H   0  0  0  0  0  0  0  0  0  0  0  0
  1  2  1  0
  2  3  2  0
  3  4  1  0
  4  5  2  0
  5  6  1  0
  6  7  2  0
  7  8  1  0
  8  9  2  0
  9 10  1  0
 10 11  2  0
  5 12  1  0
 12 13  2  0
 13 14  1  0
 14 15  2  0
 15 16  1  0
 16 17  1  0
 16 18  2  0
 18 19  1  0
 19 20  1  0
 19 21  1  0
 18 22  1  0
 22 23  1  0
 23 24  1  0
 24 25  1  0
 25 26  1  0
 26 27  1  0
 27 28  1  0
 28 29  1  0
 29 30  1  0
 29 31  1  0
 31 32  1  0
 13  2  1  0
 22 14  1  0
 32 26  1  0
 11  6  1  0
  1 33  1  0
  1 34  1  0
  1 35  1  0
  3 36  1  0
  4 37  1  0
  7 38  1  0
  8 39  1  0
  9 40  1  0
 10 41  1  0
 12 42  1  0
 17 43  1  0
 17 44  1  0
 17 45  1  0
 19 46  1  0
 20 47  1  0
 20 48  1  0
 20 49  1  0
 21 50  1  0
 21 51  1  0
 21 52  1  0
 23 53  1  0
 23 54  1  0
 24 55  1  0
 24 56  1  0
 25 57  1  0
 25 58  1  0
 27 59  1  0
 27 60  1  0
 28 61  1  0
 28 62  1  0
 29 63  1  0
 30 64  1  0
 30 65  1  0
 30 66  1  0
 31 67  1  0
 31 68  1  0
 32 69  1  0
 32 70  1  0
M  CHG  1  29   1
M  END
>  <UniqueID>  (23) 
20

>  <SMILES>  (23) 
Cc1ccc(-c2ccccn2)cc1-c1nc(C)c(C(C)C)n1CCCN1CC[NH+](C)CC1

>  <Energy>  (23) 
111.09261517836825

>  <Genealogy>  (23) 
Cc1ccc(-c2ccccn2)cc1-c1nc(C)c(C(C)C)n1CCCN1CC[NH+](C)CC1 (protonated)
Cc1ccc(-c2ccccn2)cc1-c1nc(C)c(C(C)C)n1CCCN1CC[NH+](C)CC1 (3D coordinates assigned)
Cc1ccc(-c2ccccn2)cc1-c1nc(C)c(C(C)C)n1CCCN1CC[NH+](C)CC1 (nonaromatic ring conformer: 111.09261517836825 kcal/mol)

>  <smiles>  (23) 
Cc1ccc(-c2ccccn2)cc1-c1nc(C)c(C(C)C)n1CCCN1CCN(C)CC1

>  <score_type>  (23) 
oracle

>  <origin>  (23) 
adgpu

>  <m_score__min__energy>  (23) 
-9

>  <m_primary>  (23) 
energy

$$$$
23:0
     RDKit          3D

 48 50  0  0  0  0  0  0  0  0999 V2000
   -9.0740   22.2800  -31.6970 C   0  0  0  0  0  0  0  0  0  0  0  0
   -9.1080   20.8490  -31.1760 C   0  0  0  0  0  0  0  0  0  0  0  0
   -8.2280   19.9540  -32.0040 C   0  0  0  0  0  0  0  0  0  0  0  0
   -7.4740   20.4850  -33.0620 C   0  0  0  0  0  0  0  0  0  0  0  0
   -6.6150   19.6630  -33.7960 C   0  0  0  0  0  0  0  0  0  0  0  0
   -6.5150   18.2930  -33.5040 C   0  0  0  0  0  0  0  0  0  0  0  0
   -5.5500   17.4940  -34.2100 N   0  0  0  0  0  0  0  0  0  0  0  0
   -4.5260   16.7260  -33.5680 C   0  0  0  0  0  0  0  0  0  0  0  0
   -4.9390   15.5110  -32.5500 S   0  0  0  0  0  0  0  0  0  0  0  0
   -3.1450   16.9330  -33.9050 N   0  0  0  0  0  0  0  0  0  0  0  0
   -2.6680   18.1860  -34.4830 C   0  0  0  0  0  0  0  0  0  0  0  0
   -2.5850   19.2370  -33.4210 C   0  0  0  0  0  0  0  0  0  0  0  0
   -3.3960   20.3160  -33.3850 N   0  0  0  0  0  0  0  0  0  0  0  0
   -3.0910   20.9220  -32.2170 C   0  0  0  0  0  0  0  0  0  0  0  0
   -3.8100   22.1150  -31.7020 C   0  0  0  0  0  0  0  0  0  0  0  0
   -5.1560   22.3530  -32.0290 C   0  0  0  0  0  0  0  0  0  0  0  0
   -5.7980   23.5090  -31.5810 C   0  0  0  0  0  0  0  0  0  0  0  0
   -5.1090   24.4380  -30.8020 C   0  0  0  0  0  0  0  0  0  0  0  0
   -3.7720   24.2210  -30.4560 C   0  0  0  0  0  0  0  0  0  0  0  0
   -3.1250   25.1860  -29.6710 O   0  0  0  0  0  0  0  0  0  0  0  0
   -2.3650   24.8960  -28.5040 C   0  0  0  0  0  0  0  0  0  0  0  0
   -3.1260   23.0540  -30.9080 C   0  0  0  0  0  0  0  0  0  0  0  0
   -2.1030   20.1960  -31.5730 C   0  0  0  0  0  0  0  0  0  0  0  0
   -1.7950   19.1350  -32.3360 N   0  0  0  0  0  0  0  0  0  0  0  0
   -7.3040   17.7540  -32.4710 C   0  0  0  0  0  0  0  0  0  0  0  0
   -8.1560   18.5780  -31.7290 C   0  0  0  0  0  0  0  0  0  0  0  0
   -9.0574   22.9791  -30.8479 H   0  0  0  0  0  0  0  0  0  0  0  0
   -8.1721   22.4258  -32.3097 H   0  0  0  0  0  0  0  0  0  0  0  0
   -9.9679   22.4685  -32.3097 H   0  0  0  0  0  0  0  0  0  0  0  0
   -8.7551   20.8368  -30.1342 H   0  0  0  0  0  0  0  0  0  0  0  0
  -10.1418   20.4780  -31.2366 H   0  0  0  0  0  0  0  0  0  0  0  0
   -7.5596   21.5522  -33.3143 H   0  0  0  0  0  0  0  0  0  0  0  0
   -6.0119   20.0926  -34.6095 H   0  0  0  0  0  0  0  0  0  0  0  0
   -5.5130   17.5650  -35.2510 H   0  0  0  0  0  0  0  0  0  0  0  0
   -2.4390   16.2190  -33.6160 H   0  0  0  0  0  0  0  0  0  0  0  0
   -1.6709   18.0298  -34.9204 H   0  0  0  0  0  0  0  0  0  0  0  0
   -3.3691   18.5148  -35.2643 H   0  0  0  0  0  0  0  0  0  0  0  0
   -5.7069   21.6241  -32.6416 H   0  0  0  0  0  0  0  0  0  0  0  0
   -6.8512   23.6876  -31.8435 H   0  0  0  0  0  0  0  0  0  0  0  0
   -5.6213   25.3483  -30.4572 H   0  0  0  0  0  0  0  0  0  0  0  0
   -2.9640   25.1246  -27.6102 H   0  0  0  0  0  0  0  0  0  0  0  0
   -2.0919   23.8305  -28.4997 H   0  0  0  0  0  0  0  0  0  0  0  0
   -1.4515   25.5087  -28.4997 H   0  0  0  0  0  0  0  0  0  0  0  0
   -2.0750   22.8746  -30.6373 H   0  0  0  0  0  0  0  0  0  0  0  0
   -1.6486   20.4457  -30.6029 H   0  0  0  0  0  0  0  0  0  0  0  0
   -1.1120   18.3760  -32.1170 H   0  0  0  0  0  0  0  0  0  0  0  0
   -7.2503   16.6786  -32.2459 H   0  0  0  0  0  0  0  0  0  0  0  0
   -8.7726   18.1470  -30.9265 H   0  0  0  0  0  0  0  0  0  0  0  0
  1  2  1  0
  2  3  1  0
  3  4  2  0
  4  5  1  0
  5  6  2  0
  6  7  1  0
  7  8  1  0
  8  9  2  0
  8 10  1  0
 10 11  1  0
 11 12  1  0
 12 13  2  0
 13 14  1  0
 14 15  1  0
 15 16  2  0
 16 17  1  0
 17 18  2  0
 18 19  1  0
 19 20  1  0
 20 21  1  0
 19 22  2  0
 14 23  2  0
 23 24  1  0
  6 25  1  0
 25 26  2  0
 26  3  1  0
 24 12  1  0
 22 15  1  0
  1 27  1  0
  1 28  1  0
  1 29  1  0
  2 30  1  0
  2 31  1  0
  4 32  1  0
  5 33  1  0
  7 34  1  0
 10 35  1  0
 11 36  1  0
 11 37  1  0
 16 38  1  0
 17 39  1  0
 18 40  1  0
 21 41  1  0
 21 42  1  0
 21 43  1  0
 22 44  1  0
 23 45  1  0
 24 46  1  0
 25 47  1  0
 26 48  1  0
M  END
>  <UniqueID>  (24) 
21

>  <SMILES>  (24) 
CCc1ccc(NC(=S)NCc2nc(-c3cccc(OC)c3)c[nH]2)cc1

>  <Energy>  (24) 
72.18537287239336

>  <Genealogy>  (24) 
CCc1ccc(NC(=S)NCc2nc(-c3cccc(OC)c3)c[nH]2)cc1 (3D coordinates assigned)
CCc1ccc(NC(=S)NCc2nc(-c3cccc(OC)c3)c[nH]2)cc1 (optimized conformer: 72.18537287239336 kcal/mol)

>  <smiles>  (24) 
CCc1ccc(NC(=S)NCc2nc(-c3cccc(OC)c3)c[nH]2)cc1

>  <score_type>  (24) 
oracle

>  <origin>  (24) 
adgpu

>  <m_score__min__energy>  (24) 
-8.4800000000000004

>  <m_primary>  (24) 
energy

$$$$
24:0
     RDKit          3D

 28 29  0  0  0  0  0  0  0  0999 V2000
   -5.7580   17.6040  -34.2850 O   0  0  0  0  0  0  0  0  0  0  0  0
   -5.2380   18.7740  -33.7440 C   0  0  0  0  0  0  0  0  0  0  0  0
   -6.0890   19.6880  -33.1130 C   0  0  0  0  0  0  0  0  0  0  0  0
   -5.5720   20.8660  -32.5670 C   0  0  0  0  0  0  0  0  0  0  0  0
   -4.2000   21.1460  -32.6580 C   0  0  0  0  0  0  0  0  0  0  0  0
   -3.6380   22.3980  -32.0380 C   0  0  0  0  0  0  0  0  0  0  0  0
   -4.0190   22.4840  -30.5570 C   0  0  0  0  0  0  0  0  0  0  0  0
   -2.8860   23.0750  -29.7480 C   0  0  0  0  0  0  0  0  0  0  0  0
   -2.6900   24.4720  -29.7320 C   0  0  0  0  0  0  0  0  0  0  0  0
   -3.5200   25.3110  -30.4700 O   0  0  0  0  0  0  0  0  0  0  0  0
   -1.6610   25.0320  -28.9680 C   0  0  0  0  0  0  0  0  0  0  0  0
   -1.4640   26.4080  -28.9620 O   0  0  0  0  0  0  0  0  0  0  0  0
   -0.8270   24.2120  -28.2060 C   0  0  0  0  0  0  0  0  0  0  0  0
   -1.0220   22.8290  -28.1940 C   0  0  0  0  0  0  0  0  0  0  0  0
   -0.1880   22.0310  -27.4190 O   0  0  0  0  0  0  0  0  0  0  0  0
   -2.0500   22.2530  -28.9550 C   0  0  0  0  0  0  0  0  0  0  0  0
   -2.2740   20.5040  -28.8840 Cl  0  0  0  0  0  0  0  0  0  0  0  0
   -3.3470   20.2190  -33.2810 C   0  0  0  0  0  0  0  0  0  0  0  0
   -3.8650   19.0400  -33.8250 C   0  0  0  0  0  0  0  0  0  0  0  0
   -3.0140   18.1320  -34.4460 O   0  0  0  0  0  0  0  0  0  0  0  0
   -7.1669   19.4790  -33.0466 H   0  0  0  0  0  0  0  0  0  0  0  0
   -6.2437   21.5770  -32.0636 H   0  0  0  0  0  0  0  0  0  0  0  0
   -2.5419   22.3859  -32.1292 H   0  0  0  0  0  0  0  0  0  0  0  0
   -4.0539   23.2709  -32.5624 H   0  0  0  0  0  0  0  0  0  0  0  0
   -4.9099   23.1202  -30.4495 H   0  0  0  0  0  0  0  0  0  0  0  0
   -4.2278   21.4699  -30.1856 H   0  0  0  0  0  0  0  0  0  0  0  0
   -0.0138   24.6563  -27.6132 H   0  0  0  0  0  0  0  0  0  0  0  0
   -2.2675   20.4219  -33.3408 H   0  0  0  0  0  0  0  0  0  0  0  0
  1  2  1  0
  2  3  2  0
  3  4  1  0
  4  5  2  0
  5  6  1  0
  6  7  1  0
  7  8  1  0
  8  9  2  0
  9 10  1  0
  9 11  1  0
 11 12  1  0
 11 13  2  0
 13 14  1  0
 14 15  1  0
 14 16  2  0
 16 17  1  0
  5 18  1  0
 18 19  2  0
 19 20  1  0
 19  2  1  0
 16  8  1  0
  3 21  1  0
  4 22  1  0
  6 23  1  0
  6 24  1  0
  7 25  1  0
  7 26  1  0
 13 27  1  0
 18 28  1  0
M  CHG  5   1  -1  10  -1  12  -1  15  -1  20  -1
M  END
>  <UniqueID>  (25) 
22

>  <SMILES>  (25) 
[O-]c1ccc(CCc2c([O-])c([O-])cc([O-])c2Cl)cc1[O-]

>  <Energy>  (25) 
28.943792350424168

>  <Genealogy>  (25) 
[O-]c1ccc(CCc2c([O-])c([O-])cc([O-])c2Cl)cc1[O-] (protonated)
[O-]c1ccc(CCc2c([O-])c([O-])cc([O-])c2Cl)cc1[O-] (3D coordinates assigned)
[O-]c1ccc(CCc2c([O-])c([O-])cc([O-])c2Cl)cc1[O-] (optimized conformer: 28.943792350424168 kcal/mol)

>  <smiles>  (25) 
Oc1ccc(CCc2c(O)c(O)cc(O)c2Cl)cc1O

>  <score_type>  (25) 
oracle

>  <origin>  (25) 
adgpu

>  <m_score__min__energy>  (25) 
-12.23

>  <m_primary>  (25) 
energy

$$$$
25:0
     RDKit          3D

 66 69  0  0  0  0  0  0  0  0999 V2000
    1.6260   21.5130  -34.5840 H   0  0  0  0  0  0  0  0  0  0  0  0
    0.6500   21.8860  -34.5380 N   0  0  0  0  0  0  0  0  0  0  0  0
   -0.2830   21.2610  -33.8980 C   0  0  0  0  0  0  0  0  0  0  0  0
   -0.0140   20.0940  -33.2620 N   0  0  0  0  0  0  0  0  0  0  0  0
   -0.9910   19.4510  -32.5690 C   0  0  0  0  0  0  0  0  0  0  0  0
   -0.6970   18.1780  -31.8840 C   0  0  0  0  0  0  0  0  0  0  0  0
   -0.8130   17.0010  -32.6410 C   0  0  0  0  0  0  0  0  0  0  0  0
   -1.2795   17.0408  -33.6364 H   0  0  0  0  0  0  0  0  0  0  0  0
   -0.3440   15.7780  -32.1480 C   0  0  0  0  0  0  0  0  0  0  0  0
   -0.4520   14.5130  -32.9800 C   0  0  0  0  0  0  0  0  0  0  0  0
    0.3000   14.5636  -33.7812 H   0  0  0  0  0  0  0  0  0  0  0  0
   -0.2907   13.6708  -32.2910 H   0  0  0  0  0  0  0  0  0  0  0  0
   -1.7840   14.2980  -33.6060 N   0  0  0  0  0  0  0  0  0  0  0  0
   -1.7610   13.3150  -33.9670 H   0  0  0  0  0  0  0  0  0  0  0  0
   -1.9930   15.1620  -34.7940 C   0  0  0  0  0  0  0  0  0  0  0  0
   -1.6609   16.1836  -34.5572 H   0  0  0  0  0  0  0  0  0  0  0  0
   -1.4115   14.7484  -35.6311 H   0  0  0  0  0  0  0  0  0  0  0  0
   -3.4740   15.1990  -35.2030 C   0  0  0  0  0  0  0  0  0  0  0  0
   -3.5776   15.8443  -36.0878 H   0  0  0  0  0  0  0  0  0  0  0  0
   -3.7843   14.1645  -35.4116 H   0  0  0  0  0  0  0  0  0  0  0  0
   -4.3630   15.7240  -34.1240 N   0  0  0  0  0  0  0  0  0  0  0  0
   -4.9180   17.0710  -34.4520 C   0  0  0  0  0  0  0  0  0  0  0  0
   -5.3916   16.9707  -35.4398 H   0  0  0  0  0  0  0  0  0  0  0  0
   -5.9280   17.4970  -33.3690 C   0  0  0  0  0  0  0  0  0  0  0  0
   -5.4967   17.3151  -32.3735 H   0  0  0  0  0  0  0  0  0  0  0  0
   -6.1551   18.5675  -33.4802 H   0  0  0  0  0  0  0  0  0  0  0  0
   -6.8532   16.9125  -33.4802 H   0  0  0  0  0  0  0  0  0  0  0  0
   -3.8390   18.1730  -34.5410 C   0  0  0  0  0  0  0  0  0  0  0  0
   -3.5411   18.4772  -33.5268 H   0  0  0  0  0  0  0  0  0  0  0  0
   -2.9621   17.7849  -35.0798 H   0  0  0  0  0  0  0  0  0  0  0  0
   -4.2455   19.0416  -35.0798 H   0  0  0  0  0  0  0  0  0  0  0  0
   -3.7350   15.6410  -32.7800 C   0  0  0  0  0  0  0  0  0  0  0  0
   -3.0742   16.5088  -32.6379 H   0  0  0  0  0  0  0  0  0  0  0  0
   -4.5318   15.6338  -32.0217 H   0  0  0  0  0  0  0  0  0  0  0  0
   -2.9110   14.3540  -32.6340 C   0  0  0  0  0  0  0  0  0  0  0  0
   -2.5023   14.3081  -31.6138 H   0  0  0  0  0  0  0  0  0  0  0  0
   -3.5756   13.5011  -32.8359 H   0  0  0  0  0  0  0  0  0  0  0  0
    0.3060   15.7700  -30.9090 C   0  0  0  0  0  0  0  0  0  0  0  0
    0.7608   14.8407  -30.5355 H   0  0  0  0  0  0  0  0  0  0  0  0
    0.3780   16.9030  -30.1660 N   0  0  0  0  0  0  0  0  0  0  0  0
   -0.1390   18.0920  -30.5760 C   0  0  0  0  0  0  0  0  0  0  0  0
   -0.1000   19.0810  -29.7220 N   0  0  0  0  0  0  0  0  0  0  0  0
   -0.7740   20.3480  -29.7570 C   0  0  0  0  0  0  0  0  0  0  0  0
   -2.1080   20.4250  -29.3370 C   0  0  0  0  0  0  0  0  0  0  0  0
   -2.6081   19.5313  -28.9354 H   0  0  0  0  0  0  0  0  0  0  0  0
   -2.8070   21.6330  -29.4260 C   0  0  0  0  0  0  0  0  0  0  0  0
   -3.8502   21.6907  -29.0819 H   0  0  0  0  0  0  0  0  0  0  0  0
   -2.1800   22.7700  -29.9530 C   0  0  0  0  0  0  0  0  0  0  0  0
   -2.9280   24.0310  -30.0760 C   0  0  0  0  0  0  0  0  0  0  0  0
   -3.9230   24.0830  -30.8450 O   0  0  0  0  0  0  0  0  0  0  0  0
   -2.5490   25.1980  -29.3410 N   0  0  0  0  0  0  0  0  0  0  0  0
   -1.3060   25.3030  -28.5910 C   0  0  0  0  0  0  0  0  0  0  0  0
   -1.5254   25.2845  -27.5133 H   0  0  0  0  0  0  0  0  0  0  0  0
   -0.6510   24.4570  -28.8465 H   0  0  0  0  0  0  0  0  0  0  0  0
   -0.8022   26.2469  -28.8465 H   0  0  0  0  0  0  0  0  0  0  0  0
   -0.8570   22.6890  -30.4050 C   0  0  0  0  0  0  0  0  0  0  0  0
   -0.3637   23.5794  -30.8221 H   0  0  0  0  0  0  0  0  0  0  0  0
   -0.1620   21.4780  -30.3270 C   0  0  0  0  0  0  0  0  0  0  0  0
    0.8659   21.4095  -30.7125 H   0  0  0  0  0  0  0  0  0  0  0  0
   -2.2450   19.9710  -32.5360 N   0  0  0  0  0  0  0  0  0  0  0  0
   -2.5200   21.1340  -33.1790 C   0  0  0  0  0  0  0  0  0  0  0  0
   -3.8770   21.7420  -33.0740 C   0  0  0  0  0  0  0  0  0  0  0  0
   -4.1441   21.8617  -32.0137 H   0  0  0  0  0  0  0  0  0  0  0  0
   -3.8769   22.7261  -33.5654 H   0  0  0  0  0  0  0  0  0  0  0  0
   -4.6114   21.0869  -33.5654 H   0  0  0  0  0  0  0  0  0  0  0  0
   -1.5340   21.7830  -33.8510 N   0  0  0  0  0  0  0  0  0  0  0  0
  1  2  1  0
  2  3  2  0
  3  4  1  0
  4  5  2  0
  5  6  1  0
  6  7  2  0
  7  8  1  0
  7  9  1  0
  9 10  1  0
 10 11  1  0
 10 12  1  0
 10 13  1  0
 13 14  1  0
 13 15  1  0
 15 16  1  0
 15 17  1  0
 15 18  1  0
 18 19  1  0
 18 20  1  0
 18 21  1  0
 21 22  1  0
 22 23  1  0
 22 24  1  0
 24 25  1  0
 24 26  1  0
 24 27  1  0
 22 28  1  0
 28 29  1  0
 28 30  1  0
 28 31  1  0
 21 32  1  0
 32 33  1  0
 32 34  1  0
 32 35  1  0
 35 36  1  0
 35 37  1  0
  9 38  2  0
 38 39  1  0
 38 40  1  0
 40 41  1  0
 41 42  2  3
 42 43  1  0
 43 44  2  0
 44 45  1  0
 44 46  1  0
 46 47  1  0
 46 48  2  0
 48 49  1  0
 49 50  2  0
 49 51  1  0
 51 52  1  0
 52 53  1  0
 52 54  1  0
 52 55  1  0
 48 56  1  0
 56 57  1  0
 56 58  2  0
 58 59  1  0
  5 60  1  0
 60 61  1  0
 61 62  1  0
 62 63  1  0
 62 64  1  0
 62 65  1  0
 61 66  2  0
 66  3  1  0
 41  6  1  0
 58 43  1  0
 35 13  1  0
M  CHG  4  13   1  40  -1  51  -1  60  -1
M  END
>  <UniqueID>  (26) 
23

>  <SMILES>  (26) 
[H]/N=c1/nc(C)[n-]c(-c2cc(C[NH+]3CCN(C(C)C)CC3)c[n-]c2=Nc2ccc(C(=O)[N-]C)cc2)n1

>  <Energy>  (26) 
108.90493595378646

>  <Genealogy>  (26) 
C[N-]C(=O)c1ccc(N=c2[n-]cc(C[NH+]3CCN(C(C)C)CC3)cc2-c2nc(=N)nc(C)[n-]2)cc1 (protonated)
[H]/N=c1/nc(C)[n-]c(-c2cc(C[NH+]3CCN(C(C)C)CC3)c[n-]c2=Nc2ccc(C(=O)[N-]C)cc2)n1 (cis-trans isomerization)
[H]/N=c1/nc(C)[n-]c(-c2cc(C[NH+]3CCN(C(C)C)CC3)c[n-]c2=Nc2ccc(C(=O)[N-]C)cc2)n1 (3D coordinates assigned)
[H]/N=c1/nc(C)[n-]c(-c2cc(C[NH+]3CCN(C(C)C)CC3)c[n-]c2=Nc2ccc(C(=O)[N-]C)cc2)n1 (nonaromatic ring conformer: 108.90493595378646 kcal/mol)

>  <smiles>  (26) 
CNC(=O)c1ccc(N=c2[nH]cc(CN3CCN(C(C)C)CC3)cc2-c2nc(=N)nc(C)[nH]2)cc1

>  <score_type>  (26) 
oracle

>  <origin>  (26) 
adgpu

>  <m_score__min__energy>  (26) 
-9.9499999999999993

>  <m_primary>  (26) 
energy

$$$$
26:0
     RDKit          3D

 44 46  0  0  0  0  0  0  0  0999 V2000
   -7.4360   22.2040  -30.9140 C   0  0  0  0  0  0  0  0  0  0  0  0
   -6.9200   22.2090  -32.3490 C   0  0  0  0  0  0  0  0  0  0  0  0
   -5.9360   21.1380  -32.5470 N   0  0  0  0  0  0  0  0  0  0  0  0
   -6.3570   19.7750  -32.7310 C   0  0  0  0  0  0  0  0  0  0  0  0
   -7.2730   19.1930  -31.8390 C   0  0  0  0  0  0  0  0  0  0  0  0
   -7.6910   17.8710  -32.0220 C   0  0  0  0  0  0  0  0  0  0  0  0
   -7.2000   17.1230  -33.0940 C   0  0  0  0  0  0  0  0  0  0  0  0
   -6.2890   17.6950  -33.9850 C   0  0  0  0  0  0  0  0  0  0  0  0
   -5.8690   19.0170  -33.8080 C   0  0  0  0  0  0  0  0  0  0  0  0
   -4.2420   21.5330  -32.5530 S   0  0  0  0  0  0  0  0  0  0  0  0
   -3.8870   22.3000  -33.7960 O   0  0  0  0  0  0  0  0  0  0  0  0
   -3.4460   20.2580  -32.5160 O   0  0  0  0  0  0  0  0  0  0  0  0
   -3.8710   22.5360  -31.1550 C   0  0  0  0  0  0  0  0  0  0  0  0
   -2.8620   22.1430  -30.2670 C   0  0  0  0  0  0  0  0  0  0  0  0
   -2.5540   22.9330  -29.1570 C   0  0  0  0  0  0  0  0  0  0  0  0
   -3.2620   24.1190  -28.9090 C   0  0  0  0  0  0  0  0  0  0  0  0
   -2.9090   24.9280  -27.7740 N   0  0  0  0  0  0  0  0  0  0  0  0
   -1.5680   25.3530  -27.4820 C   0  0  0  0  0  0  0  0  0  0  0  0
   -0.6900   25.3430  -28.3860 O   0  0  0  0  0  0  0  0  0  0  0  0
   -1.2070   25.8510  -26.1420 C   0  0  0  0  0  0  0  0  0  0  0  0
   -0.8790   25.0830  -25.0280 C   0  0  0  0  0  0  0  0  0  0  0  0
   -0.5640   25.8510  -23.9010 C   0  0  0  0  0  0  0  0  0  0  0  0
   -0.6360   27.2200  -24.1180 C   0  0  0  0  0  0  0  0  0  0  0  0
   -1.0910   27.4750  -25.7160 S   0  0  0  0  0  0  0  0  0  0  0  0
   -4.2640   24.5190  -29.8120 C   0  0  0  0  0  0  0  0  0  0  0  0
   -4.5700   23.7280  -30.9230 C   0  0  0  0  0  0  0  0  0  0  0  0
   -6.5842   22.2123  -30.2180 H   0  0  0  0  0  0  0  0  0  0  0  0
   -8.0567   23.0962  -30.7444 H   0  0  0  0  0  0  0  0  0  0  0  0
   -8.0393   21.3000  -30.7444 H   0  0  0  0  0  0  0  0  0  0  0  0
   -7.7642   22.0563  -33.0374 H   0  0  0  0  0  0  0  0  0  0  0  0
   -6.4366   23.1766  -32.5491 H   0  0  0  0  0  0  0  0  0  0  0  0
   -7.6628   19.7791  -30.9937 H   0  0  0  0  0  0  0  0  0  0  0  0
   -8.4078   17.4197  -31.3202 H   0  0  0  0  0  0  0  0  0  0  0  0
   -7.5305   16.0836  -33.2368 H   0  0  0  0  0  0  0  0  0  0  0  0
   -5.9011   17.1042  -34.8279 H   0  0  0  0  0  0  0  0  0  0  0  0
   -5.1543   19.4646  -34.5143 H   0  0  0  0  0  0  0  0  0  0  0  0
   -2.3097   21.2084  -30.4443 H   0  0  0  0  0  0  0  0  0  0  0  0
   -1.7507   22.6233  -28.4723 H   0  0  0  0  0  0  0  0  0  0  0  0
   -3.6860   25.3070  -27.1860 H   0  0  0  0  0  0  0  0  0  0  0  0
   -0.8685   23.9831  -25.0330 H   0  0  0  0  0  0  0  0  0  0  0  0
   -0.2851   25.4102  -22.9326 H   0  0  0  0  0  0  0  0  0  0  0  0
   -0.4308   28.0028  -23.3730 H   0  0  0  0  0  0  0  0  0  0  0  0
   -4.8094   25.4591  -29.6428 H   0  0  0  0  0  0  0  0  0  0  0  0
   -5.3626   24.0425  -31.6179 H   0  0  0  0  0  0  0  0  0  0  0  0
  1  2  1  0
  2  3  1  0
  3  4  1  0
  4  5  2  0
  5  6  1  0
  6  7  2  0
  7  8  1  0
  8  9  2  0
  3 10  1  0
 10 11  2  0
 10 12  2  0
 10 13  1  0
 13 14  2  0
 14 15  1  0
 15 16  2  0
 16 17  1  0
 17 18  1  0
 18 19  2  0
 18 20  1  0
 20 21  2  0
 21 22  1  0
 22 23  2  0
 23 24  1  0
 16 25  1  0
 25 26  2  0
  9  4  1  0
 26 13  1  0
 24 20  1  0
  1 27  1  0
  1 28  1  0
  1 29  1  0
  2 30  1  0
  2 31  1  0
  5 32  1  0
  6 33  1  0
  7 34  1  0
  8 35  1  0
  9 36  1  0
 14 37  1  0
 15 38  1  0
 17 39  1  0
 21 40  1  0
 22 41  1  0
 23 42  1  0
 25 43  1  0
 26 44  1  0
M  END
>  <UniqueID>  (27) 
24

>  <SMILES>  (27) 
CCN(c1ccccc1)S(=O)(=O)c1ccc(NC(=O)c2cccs2)cc1

>  <Energy>  (27) 
77.6760225543582

>  <Genealogy>  (27) 
CCN(c1ccccc1)S(=O)(=O)c1ccc(NC(=O)c2cccs2)cc1 (3D coordinates assigned)
CCN(c1ccccc1)S(=O)(=O)c1ccc(NC(=O)c2cccs2)cc1 (optimized conformer: 77.6760225543582 kcal/mol)

>  <smiles>  (27) 
CCN(c1ccccc1)S(=O)(=O)c1ccc(NC(=O)c2cccs2)cc1

>  <score_type>  (27) 
oracle

>  <origin>  (27) 
adgpu

>  <m_score__min__energy>  (27) 
-8.7200000000000006

>  <m_primary>  (27) 
energy

$$$$
27:0
     RDKit          3D

 39 41  0  0  0  0  0  0  0  0999 V2000
   -6.3850   24.8930  -30.5950 O   0  0  0  0  0  0  0  0  0  0  0  0
   -5.5770   23.6260  -30.6330 S   0  0  0  0  0  0  0  0  0  0  0  0
   -4.4160   23.7750  -31.5740 O   0  0  0  0  0  0  0  0  0  0  0  0
   -4.9770   23.3130  -29.0360 N   0  0  0  0  0  0  0  0  0  0  0  0
   -3.7220   23.7750  -28.5180 C   0  0  0  0  0  0  0  0  0  0  0  0
   -3.1150   23.1880  -27.3920 C   0  0  0  0  0  0  0  0  0  0  0  0
   -1.8900   23.6730  -26.9220 C   0  0  0  0  0  0  0  0  0  0  0  0
   -1.2620   24.7410  -27.5680 C   0  0  0  0  0  0  0  0  0  0  0  0
   -1.8600   25.3280  -28.6880 C   0  0  0  0  0  0  0  0  0  0  0  0
   -1.2360   26.3900  -29.3310 O   0  0  0  0  0  0  0  0  0  0  0  0
   -3.0850   24.8460  -29.1600 C   0  0  0  0  0  0  0  0  0  0  0  0
   -6.5910   22.2750  -31.1690 C   0  0  0  0  0  0  0  0  0  0  0  0
   -7.9080   22.2060  -30.6790 C   0  0  0  0  0  0  0  0  0  0  0  0
   -8.7660   21.1800  -31.0740 C   0  0  0  0  0  0  0  0  0  0  0  0
   -8.3240   20.2050  -31.9640 C   0  0  0  0  0  0  0  0  0  0  0  0
   -9.4100   18.9220  -32.4680 Cl  0  0  0  0  0  0  0  0  0  0  0  0
   -7.0180   20.2460  -32.4540 C   0  0  0  0  0  0  0  0  0  0  0  0
   -6.1290   21.2620  -32.0570 C   0  0  0  0  0  0  0  0  0  0  0  0
   -4.4790   21.2340  -32.7100 S   0  0  0  0  0  0  0  0  0  0  0  0
   -4.3020   20.0070  -33.5620 O   0  0  0  0  0  0  0  0  0  0  0  0
   -4.2170   22.4540  -33.5490 O   0  0  0  0  0  0  0  0  0  0  0  0
   -3.2810   21.2210  -31.4160 C   0  0  0  0  0  0  0  0  0  0  0  0
   -2.0690   21.9070  -31.5800 C   0  0  0  0  0  0  0  0  0  0  0  0
   -1.1230   21.9190  -30.5490 C   0  0  0  0  0  0  0  0  0  0  0  0
   -1.3850   21.2500  -29.3510 C   0  0  0  0  0  0  0  0  0  0  0  0
   -2.5950   20.5710  -29.1790 C   0  0  0  0  0  0  0  0  0  0  0  0
   -3.5420   20.5570  -30.2070 C   0  0  0  0  0  0  0  0  0  0  0  0
   -3.6048   22.3462  -26.8806 H   0  0  0  0  0  0  0  0  0  0  0  0
   -1.4196   23.2121  -26.0410 H   0  0  0  0  0  0  0  0  0  0  0  0
   -0.2985   25.1197  -27.1962 H   0  0  0  0  0  0  0  0  0  0  0  0
   -3.5519   25.3105  -30.0411 H   0  0  0  0  0  0  0  0  0  0  0  0
   -8.2658   22.9716  -29.9749 H   0  0  0  0  0  0  0  0  0  0  0  0
   -9.7930   21.1411  -30.6819 H   0  0  0  0  0  0  0  0  0  0  0  0
   -6.6789   19.4737  -33.1601 H   0  0  0  0  0  0  0  0  0  0  0  0
   -1.8614   22.4369  -32.5213 H   0  0  0  0  0  0  0  0  0  0  0  0
   -0.1721   22.4558  -30.6820 H   0  0  0  0  0  0  0  0  0  0  0  0
   -0.6390   21.2574  -28.5426 H   0  0  0  0  0  0  0  0  0  0  0  0
   -2.8019   20.0474  -28.2340 H   0  0  0  0  0  0  0  0  0  0  0  0
   -4.4943   20.0243  -30.0683 H   0  0  0  0  0  0  0  0  0  0  0  0
  1  2  2  0
  2  3  2  0
  2  4  1  0
  4  5  1  0
  5  6  2  0
  6  7  1  0
  7  8  2  0
  8  9  1  0
  9 10  1  0
  9 11  2  0
  2 12  1  0
 12 13  2  0
 13 14  1  0
 14 15  2  0
 15 16  1  0
 15 17  1  0
 17 18  2  0
 18 19  1  0
 19 20  2  0
 19 21  2  0
 19 22  1  0
 22 23  2  0
 23 24  1  0
 24 25  2  0
 25 26  1  0
 26 27  2  0
 11  5  1  0
 18 12  1  0
 27 22  1  0
  6 28  1  0
  7 29  1  0
  8 30  1  0
 11 31  1  0
 13 32  1  0
 14 33  1  0
 17 34  1  0
 23 35  1  0
 24 36  1  0
 25 37  1  0
 26 38  1  0
 27 39  1  0
M  CHG  2   4  -1  10  -1
M  END
>  <UniqueID>  (28) 
25

>  <SMILES>  (28) 
O=S(=O)([N-]c1cccc([O-])c1)c1ccc(Cl)cc1S(=O)(=O)c1ccccc1

>  <Energy>  (28) 
52.39929805310995

>  <Genealogy>  (28) 
O=S(=O)([N-]c1cccc([O-])c1)c1ccc(Cl)cc1S(=O)(=O)c1ccccc1 (protonated)
O=S(=O)([N-]c1cccc([O-])c1)c1ccc(Cl)cc1S(=O)(=O)c1ccccc1 (3D coordinates assigned)
O=S(=O)([N-]c1cccc([O-])c1)c1ccc(Cl)cc1S(=O)(=O)c1ccccc1 (optimized conformer: 52.39929805310995 kcal/mol)

>  <smiles>  (28) 
O=S(=O)(Nc1cccc(O)c1)c1ccc(Cl)cc1S(=O)(=O)c1ccccc1

>  <score_type>  (28) 
oracle

>  <origin>  (28) 
adgpu

>  <m_score__min__energy>  (28) 
-12.779999999999999

>  <m_primary>  (28) 
energy

$$$$
28:0
     RDKit          3D

 41 43  0  0  0  0  0  0  0  0999 V2000
   -1.2900   25.8520  -27.6670 C   0  0  0  0  0  0  0  0  0  0  0  0
   -1.9890   25.6410  -28.8910 O   0  0  0  0  0  0  0  0  0  0  0  0
   -2.2570   24.3800  -29.4420 C   0  0  0  0  0  0  0  0  0  0  0  0
   -3.5590   23.9650  -29.7800 C   0  0  0  0  0  0  0  0  0  0  0  0
   -3.7730   22.6970  -30.3290 C   0  0  0  0  0  0  0  0  0  0  0  0
   -2.6960   21.8330  -30.5660 C   0  0  0  0  0  0  0  0  0  0  0  0
   -2.9670   20.5340  -31.1140 N   0  0  0  0  0  0  0  0  0  0  0  0
   -2.4160   19.9810  -32.3140 C   0  0  0  0  0  0  0  0  0  0  0  0
   -1.6410   20.6600  -33.0410 O   0  0  0  0  0  0  0  0  0  0  0  0
   -2.8000   18.6930  -32.6960 O   0  0  0  0  0  0  0  0  0  0  0  0
   -3.5820   18.4130  -33.8560 C   0  0  0  0  0  0  0  0  0  0  0  0
   -4.9190   19.1930  -33.8620 C   0  0  0  0  0  0  0  0  0  0  0  0
   -5.2720   19.8590  -32.5850 N   0  0  0  0  0  0  0  0  0  0  0  0
   -6.5520   19.4340  -32.0710 C   0  0  0  0  0  0  0  0  0  0  0  0
   -6.8020   18.2470  -31.7260 O   0  0  0  0  0  0  0  0  0  0  0  0
   -7.4910   20.5390  -31.9520 C   0  0  0  0  0  0  0  0  0  0  0  0
   -8.8210   20.5670  -31.5370 C   0  0  0  0  0  0  0  0  0  0  0  0
   -9.4840   21.8080  -31.5360 C   0  0  0  0  0  0  0  0  0  0  0  0
   -8.8070   22.9790  -31.9460 C   0  0  0  0  0  0  0  0  0  0  0  0
   -7.4650   22.9160  -32.3610 C   0  0  0  0  0  0  0  0  0  0  0  0
   -6.8370   21.6710  -32.3500 C   0  0  0  0  0  0  0  0  0  0  0  0
   -5.4850   21.2800  -32.7220 C   0  0  0  0  0  0  0  0  0  0  0  0
   -4.5870   22.0830  -33.0940 O   0  0  0  0  0  0  0  0  0  0  0  0
   -1.3990   22.2390  -30.2080 C   0  0  0  0  0  0  0  0  0  0  0  0
   -1.1850   23.5070  -29.6580 C   0  0  0  0  0  0  0  0  0  0  0  0
   -1.9628   25.6489  -26.8208 H   0  0  0  0  0  0  0  0  0  0  0  0
   -0.4243   25.1751  -27.6178 H   0  0  0  0  0  0  0  0  0  0  0  0
   -0.9434   26.8948  -27.6178 H   0  0  0  0  0  0  0  0  0  0  0  0
   -4.4107   24.6404  -29.6117 H   0  0  0  0  0  0  0  0  0  0  0  0
   -4.7953   22.3753  -30.5768 H   0  0  0  0  0  0  0  0  0  0  0  0
   -3.0042   18.6936  -34.7490 H   0  0  0  0  0  0  0  0  0  0  0  0
   -3.8178   17.3386  -33.8531 H   0  0  0  0  0  0  0  0  0  0  0  0
   -4.8576   19.9659  -34.6423 H   0  0  0  0  0  0  0  0  0  0  0  0
   -5.7055   18.4453  -34.0417 H   0  0  0  0  0  0  0  0  0  0  0  0
   -4.5340   19.6840  -31.8630 H   0  0  0  0  0  0  0  0  0  0  0  0
   -9.3361   19.6481  -31.2203 H   0  0  0  0  0  0  0  0  0  0  0  0
  -10.5343   21.8672  -31.2146 H   0  0  0  0  0  0  0  0  0  0  0  0
   -9.3329   23.9451  -31.9404 H   0  0  0  0  0  0  0  0  0  0  0  0
   -6.9277   23.8199  -32.6840 H   0  0  0  0  0  0  0  0  0  0  0  0
   -0.5494   21.5573  -30.3609 H   0  0  0  0  0  0  0  0  0  0  0  0
   -0.1646   23.8209  -29.3928 H   0  0  0  0  0  0  0  0  0  0  0  0
  1  2  1  0
  2  3  1  0
  3  4  2  0
  4  5  1  0
  5  6  2  0
  6  7  1  0
  7  8  1  0
  8  9  2  0
  8 10  1  0
 10 11  1  0
 11 12  1  0
 12 13  1  0
 13 14  1  0
 14 15  2  0
 14 16  1  0
 16 17  2  0
 17 18  1  0
 18 19  2  0
 19 20  1  0
 20 21  2  0
 21 22  1  0
 22 23  2  0
  6 24  1  0
 24 25  2  0
 25  3  1  0
 22 13  1  0
 21 16  1  0
  1 26  1  0
  1 27  1  0
  1 28  1  0
  4 29  1  0
  5 30  1  0
 11 31  1  0
 11 32  1  0
 12 33  1  0
 12 34  1  0
 13 35  1  0
 17 36  1  0
 18 37  1  0
 19 38  1  0
 20 39  1  0
 24 40  1  0
 25 41  1  0
M  CHG  2   7  -1  13   1
M  END
>  <UniqueID>  (29) 
26

>  <SMILES>  (29) 
COc1ccc([N-]C(=O)OCC[NH+]2C(=O)c3ccccc3C2=O)cc1

>  <Energy>  (29) 
71.17579096562369

>  <Genealogy>  (29) 
COc1ccc([N-]C(=O)OCC[NH+]2C(=O)c3ccccc3C2=O)cc1 (protonated)
COc1ccc([N-]C(=O)OCC[NH+]2C(=O)c3ccccc3C2=O)cc1 (3D coordinates assigned)
COc1ccc([N-]C(=O)OCC[NH+]2C(=O)c3ccccc3C2=O)cc1 (nonaromatic ring conformer: 71.17579096562369 kcal/mol)

>  <smiles>  (29) 
COc1ccc(NC(=O)OCCN2C(=O)c3ccccc3C2=O)cc1

>  <score_type>  (29) 
oracle

>  <origin>  (29) 
adgpu

>  <m_score__min__energy>  (29) 
-9.0899999999999999

>  <m_primary>  (29) 
energy

$$$$
29:0
     RDKit          3D

 38 39  0  0  0  0  0  0  0  0999 V2000
   -7.4080   18.6200  -32.7010 C   0  0  0  0  0  0  0  0  0  0  0  0
   -6.5730   19.6740  -33.1680 O   0  0  0  0  0  0  0  0  0  0  0  0
   -6.4390   20.9190  -32.5370 C   0  0  0  0  0  0  0  0  0  0  0  0
   -5.2210   21.6260  -32.5120 C   0  0  0  0  0  0  0  0  0  0  0  0
   -5.1390   22.8660  -31.8700 C   0  0  0  0  0  0  0  0  0  0  0  0
   -6.2650   23.4120  -31.2360 C   0  0  0  0  0  0  0  0  0  0  0  0
   -6.1870   24.7640  -30.5810 C   0  0  0  0  0  0  0  0  0  0  0  0
   -4.8900   24.8970  -29.8420 C   0  0  0  0  0  0  0  0  0  0  0  0
   -3.8650   25.2980  -30.4560 O   0  0  0  0  0  0  0  0  0  0  0  0
   -4.8230   24.5580  -28.4490 N   0  0  0  0  0  0  0  0  0  0  0  0
   -3.5860   24.4050  -27.7290 C   0  0  0  0  0  0  0  0  0  0  0  0
   -3.2800   25.2680  -26.6600 C   0  0  0  0  0  0  0  0  0  0  0  0
   -2.0630   25.1560  -25.9750 C   0  0  0  0  0  0  0  0  0  0  0  0
   -1.7650   26.0380  -24.8900 N   0  0  0  0  0  0  0  0  0  0  0  0
   -1.1370   24.1830  -26.3660 C   0  0  0  0  0  0  0  0  0  0  0  0
   -1.4210   23.3300  -27.4350 C   0  0  0  0  0  0  0  0  0  0  0  0
   -2.6420   23.4280  -28.1210 C   0  0  0  0  0  0  0  0  0  0  0  0
   -2.9200   22.4990  -29.2710 C   0  0  0  0  0  0  0  0  0  0  0  0
   -7.4810   22.7130  -31.2720 C   0  0  0  0  0  0  0  0  0  0  0  0
   -7.5630   21.4740  -31.9140 C   0  0  0  0  0  0  0  0  0  0  0  0
   -7.4118   18.6152  -31.6010 H   0  0  0  0  0  0  0  0  0  0  0  0
   -8.4327   18.7729  -33.0706 H   0  0  0  0  0  0  0  0  0  0  0  0
   -7.0247   17.6574  -33.0706 H   0  0  0  0  0  0  0  0  0  0  0  0
   -4.3309   21.2013  -32.9992 H   0  0  0  0  0  0  0  0  0  0  0  0
   -4.1864   23.4160  -31.8622 H   0  0  0  0  0  0  0  0  0  0  0  0
   -6.2503   25.5469  -31.3511 H   0  0  0  0  0  0  0  0  0  0  0  0
   -7.0212   24.8724  -29.8722 H   0  0  0  0  0  0  0  0  0  0  0  0
   -5.7210   24.4500  -27.9270 H   0  0  0  0  0  0  0  0  0  0  0  0
   -4.0045   26.0390  -26.3590 H   0  0  0  0  0  0  0  0  0  0  0  0
   -0.8760   25.9400  -24.3500 H   0  0  0  0  0  0  0  0  0  0  0  0
   -2.4300   26.7950  -24.6170 H   0  0  0  0  0  0  0  0  0  0  0  0
   -0.1813   24.0893  -25.8294 H   0  0  0  0  0  0  0  0  0  0  0  0
   -0.6819   22.5753  -27.7419 H   0  0  0  0  0  0  0  0  0  0  0  0
   -3.2151   21.5130  -28.8828 H   0  0  0  0  0  0  0  0  0  0  0  0
   -3.7346   22.9098  -29.8856 H   0  0  0  0  0  0  0  0  0  0  0  0
   -2.0137   22.3949  -29.8856 H   0  0  0  0  0  0  0  0  0  0  0  0
   -8.3736   23.1418  -30.7930 H   0  0  0  0  0  0  0  0  0  0  0  0
   -8.5191   20.9304  -31.9298 H   0  0  0  0  0  0  0  0  0  0  0  0
  1  2  1  0
  2  3  1  0
  3  4  2  0
  4  5  1  0
  5  6  2  0
  6  7  1  0
  7  8  1  0
  8  9  2  0
  8 10  1  0
 10 11  1  0
 11 12  2  0
 12 13  1  0
 13 14  1  0
 13 15  2  0
 15 16  1  0
 16 17  2  0
 17 18  1  0
  6 19  1  0
 19 20  2  0
 20  3  1  0
 17 11  1  0
  1 21  1  0
  1 22  1  0
  1 23  1  0
  4 24  1  0
  5 25  1  0
  7 26  1  0
  7 27  1  0
 10 28  1  0
 12 29  1  0
 14 30  1  0
 14 31  1  0
 15 32  1  0
 16 33  1  0
 18 34  1  0
 18 35  1  0
 18 36  1  0
 19 37  1  0
 20 38  1  0
M  END
>  <UniqueID>  (30) 
27

>  <SMILES>  (30) 
COc1ccc(CC(=O)Nc2cc(N)ccc2C)cc1

>  <Energy>  (30) 
38.166379650878056

>  <Genealogy>  (30) 
COc1ccc(CC(=O)Nc2cc(N)ccc2C)cc1 (3D coordinates assigned)
COc1ccc(CC(=O)Nc2cc(N)ccc2C)cc1 (optimized conformer: 38.166379650878056 kcal/mol)

>  <smiles>  (30) 
COc1ccc(CC(=O)Nc2cc(N)ccc2C)cc1

>  <score_type>  (30) 
oracle

>  <origin>  (30) 
adgpu

>  <m_score__min__energy>  (30) 
-7.5199999999999996

>  <m_primary>  (30) 
energy

$$$$
30:0
     RDKit          3D

 42 44  0  0  0  0  0  0  0  0999 V2000
   -3.4287   25.9248  -30.4050 H   0  0  0  0  0  0  0  0  0  0  0  0
   -3.8780   24.9230  -30.3380 C   0  0  0  0  0  0  0  0  0  0  0  0
   -4.9340   24.6020  -31.1240 N   0  0  0  0  0  0  0  0  0  0  0  0
   -5.5200   23.3790  -31.0620 C   0  0  0  0  0  0  0  0  0  0  0  0
   -6.5340   23.1340  -31.8440 N   0  0  0  0  0  0  0  0  0  0  0  0
   -7.2180   21.8840  -32.0130 C   0  0  0  0  0  0  0  0  0  0  0  0
   -8.5400   21.7110  -31.5680 C   0  0  0  0  0  0  0  0  0  0  0  0
   -9.0833   22.5566  -31.1210 H   0  0  0  0  0  0  0  0  0  0  0  0
   -9.1670   20.4660  -31.6920 C   0  0  0  0  0  0  0  0  0  0  0  0
  -10.2083   20.3395  -31.3609 H   0  0  0  0  0  0  0  0  0  0  0  0
   -8.4710   19.3840  -32.2360 C   0  0  0  0  0  0  0  0  0  0  0  0
   -9.0790   18.1760  -32.3530 F   0  0  0  0  0  0  0  0  0  0  0  0
   -7.1440   19.5410  -32.6460 C   0  0  0  0  0  0  0  0  0  0  0  0
   -6.5937   18.6857  -33.0652 H   0  0  0  0  0  0  0  0  0  0  0  0
   -6.5150   20.7840  -32.5240 C   0  0  0  0  0  0  0  0  0  0  0  0
   -5.4647   20.8991  -32.8301 H   0  0  0  0  0  0  0  0  0  0  0  0
   -5.0600   22.4600  -30.1600 N   0  0  0  0  0  0  0  0  0  0  0  0
   -5.5410   21.5430  -30.0320 H   0  0  0  0  0  0  0  0  0  0  0  0
   -3.9860   22.7270  -29.3670 C   0  0  0  0  0  0  0  0  0  0  0  0
   -3.4480   21.4830  -28.1810 S   0  0  0  0  0  0  0  0  0  0  0  0
   -2.0350   20.9350  -29.1970 C   0  0  0  0  0  0  0  0  0  0  0  0
   -1.7200   19.9321  -28.8731 H   0  0  0  0  0  0  0  0  0  0  0  0
   -1.2031   21.6439  -29.0731 H   0  0  0  0  0  0  0  0  0  0  0  0
   -2.4390   20.8880  -30.6620 C   0  0  0  0  0  0  0  0  0  0  0  0
   -3.5290   20.7612  -30.7379 H   0  0  0  0  0  0  0  0  0  0  0  0
   -2.1439   21.8265  -31.1540 H   0  0  0  0  0  0  0  0  0  0  0  0
   -1.9363   20.0423  -31.1540 H   0  0  0  0  0  0  0  0  0  0  0  0
   -3.3580   23.9840  -29.4420 C   0  0  0  0  0  0  0  0  0  0  0  0
   -2.2350   24.3630  -28.5590 C   0  0  0  0  0  0  0  0  0  0  0  0
   -0.9090   24.1190  -28.9450 C   0  0  0  0  0  0  0  0  0  0  0  0
   -0.6990   23.6464  -29.9158 H   0  0  0  0  0  0  0  0  0  0  0  0
    0.1460   24.4740  -28.1010 C   0  0  0  0  0  0  0  0  0  0  0  0
    1.1836   24.2698  -28.4037 H   0  0  0  0  0  0  0  0  0  0  0  0
   -0.1140   25.0880  -26.8730 C   0  0  0  0  0  0  0  0  0  0  0  0
    0.7190   25.3527  -26.2052 H   0  0  0  0  0  0  0  0  0  0  0  0
   -1.4340   25.3680  -26.4890 C   0  0  0  0  0  0  0  0  0  0  0  0
   -1.7160   25.9960  -25.1570 C   0  0  0  0  0  0  0  0  0  0  0  0
   -1.4076   25.3091  -24.3551 H   0  0  0  0  0  0  0  0  0  0  0  0
   -1.1543   26.9377  -25.0693 H   0  0  0  0  0  0  0  0  0  0  0  0
   -2.7930   26.2019  -25.0693 H   0  0  0  0  0  0  0  0  0  0  0  0
   -2.4920   24.9920  -27.3310 C   0  0  0  0  0  0  0  0  0  0  0  0
   -3.5299   25.1917  -27.0263 H   0  0  0  0  0  0  0  0  0  0  0  0
  1  2  1  0
  2  3  2  0
  3  4  1  0
  4  5  2  0
  5  6  1  0
  6  7  2  0
  7  8  1  0
  7  9  1  0
  9 10  1  0
  9 11  2  0
 11 12  1  0
 11 13  1  0
 13 14  1  0
 13 15  2  0
 15 16  1  0
  4 17  1  0
 17 18  1  0
 17 19  1  0
 19 20  1  0
 20 21  1  0
 21 22  1  0
 21 23  1  0
 21 24  1  0
 24 25  1  0
 24 26  1  0
 24 27  1  0
 19 28  2  0
 28 29  1  0
 29 30  2  0
 30 31  1  0
 30 32  1  0
 32 33  1  0
 32 34  2  0
 34 35  1  0
 34 36  1  0
 36 37  1  0
 37 38  1  0
 37 39  1  0
 37 40  1  0
 36 41  2  0
 41 42  1  0
 28  2  1  0
 41 29  1  0
 15  6  1  0
M  END
>  <UniqueID>  (31) 
28

>  <SMILES>  (31) 
CCSc1[nH]/c(=N\c2ccc(F)cc2)ncc1-c1cccc(C)c1

>  <Energy>  (31) 
53.87675582576939

>  <Genealogy>  (31) 
CCSc1[nH]/c(=N\c2ccc(F)cc2)ncc1-c1cccc(C)c1 (cis-trans isomerization)
CCSc1[nH]/c(=N\c2ccc(F)cc2)ncc1-c1cccc(C)c1 (3D coordinates assigned)
CCSc1[nH]/c(=N\c2ccc(F)cc2)ncc1-c1cccc(C)c1 (optimized conformer: 53.87675582576939 kcal/mol)

>  <smiles>  (31) 
CCSc1[nH]c(=Nc2ccc(F)cc2)ncc1-c1cccc(C)c1

>  <score_type>  (31) 
oracle

>  <origin>  (31) 
adgpu

>  <m_score__min__energy>  (31) 
-7.4699999999999998

>  <m_primary>  (31) 
energy

$$$$
31:0
     RDKit          3D

 37 38  0  0  0  0  0  0  0  0999 V2000
   -3.8650   22.6450  -28.1520 C   0  0  0  0  0  0  0  0  0  0  0  0
   -3.8690   24.1660  -28.2700 C   0  0  0  0  0  0  0  0  0  0  0  0
   -3.0140   24.6310  -29.4530 C   0  0  0  0  0  0  0  0  0  0  0  0
   -3.8430   25.2880  -30.4610 N   0  0  0  0  0  0  0  0  0  0  0  0
   -5.1430   24.8570  -30.8880 C   0  0  0  0  0  0  0  0  0  0  0  0
   -6.1060   25.6640  -30.8030 O   0  0  0  0  0  0  0  0  0  0  0  0
   -5.3860   23.5100  -31.4380 C   0  0  0  0  0  0  0  0  0  0  0  0
   -4.3070   22.6460  -31.6740 C   0  0  0  0  0  0  0  0  0  0  0  0
   -4.5250   21.3700  -32.2010 C   0  0  0  0  0  0  0  0  0  0  0  0
   -5.8260   20.9490  -32.5280 C   0  0  0  0  0  0  0  0  0  0  0  0
   -6.0810   19.6320  -33.0480 N   0  0  0  0  0  0  0  0  0  0  0  0
   -5.0630   18.7740  -33.5930 C   0  0  0  0  0  0  0  0  0  0  0  0
   -3.9370   19.2500  -33.9050 O   0  0  0  0  0  0  0  0  0  0  0  0
   -5.3430   17.3400  -33.8270 C   0  0  0  0  0  0  0  0  0  0  0  0
   -4.2990   16.4030  -33.9240 C   0  0  0  0  0  0  0  0  0  0  0  0
   -4.6020   15.0570  -34.1400 C   0  0  0  0  0  0  0  0  0  0  0  0
   -5.9320   14.6530  -34.2550 C   0  0  0  0  0  0  0  0  0  0  0  0
   -6.9460   15.6070  -34.1520 C   0  0  0  0  0  0  0  0  0  0  0  0
   -6.6320   16.9130  -33.9410 N   0  0  0  0  0  0  0  0  0  0  0  0
   -6.9030   21.8150  -32.2910 C   0  0  0  0  0  0  0  0  0  0  0  0
   -6.6850   23.0920  -31.7640 C   0  0  0  0  0  0  0  0  0  0  0  0
   -3.8642   22.3597  -27.0897 H   0  0  0  0  0  0  0  0  0  0  0  0
   -4.7621   22.2370  -28.6406 H   0  0  0  0  0  0  0  0  0  0  0  0
   -2.9658   22.2417  -28.6406 H   0  0  0  0  0  0  0  0  0  0  0  0
   -4.9029   24.5120  -28.4163 H   0  0  0  0  0  0  0  0  0  0  0  0
   -3.4462   24.5886  -27.3466 H   0  0  0  0  0  0  0  0  0  0  0  0
   -2.2536   25.3395  -29.0928 H   0  0  0  0  0  0  0  0  0  0  0  0
   -2.5318   23.7533  -29.9082 H   0  0  0  0  0  0  0  0  0  0  0  0
   -3.2829   22.9745  -31.4430 H   0  0  0  0  0  0  0  0  0  0  0  0
   -3.6741   20.6915  -32.3608 H   0  0  0  0  0  0  0  0  0  0  0  0
   -7.0760   19.3210  -33.1130 H   0  0  0  0  0  0  0  0  0  0  0  0
   -3.2522   16.7276  -33.8305 H   0  0  0  0  0  0  0  0  0  0  0  0
   -3.7927   14.3163  -34.2193 H   0  0  0  0  0  0  0  0  0  0  0  0
   -6.1792   13.5947  -34.4249 H   0  0  0  0  0  0  0  0  0  0  0  0
   -7.9991   15.3021  -34.2415 H   0  0  0  0  0  0  0  0  0  0  0  0
   -7.9275   21.4874  -32.5214 H   0  0  0  0  0  0  0  0  0  0  0  0
   -7.5353   23.7713  -31.6045 H   0  0  0  0  0  0  0  0  0  0  0  0
  1  2  1  0
  2  3  1  0
  3  4  1  0
  4  5  1  0
  5  6  2  0
  5  7  1  0
  7  8  2  0
  8  9  1  0
  9 10  2  0
 10 11  1  0
 11 12  1  0
 12 13  2  0
 12 14  1  0
 14 15  2  0
 15 16  1  0
 16 17  2  0
 17 18  1  0
 18 19  2  0
 10 20  1  0
 20 21  2  0
 21  7  1  0
 19 14  1  0
  1 22  1  0
  1 23  1  0
  1 24  1  0
  2 25  1  0
  2 26  1  0
  3 27  1  0
  3 28  1  0
  8 29  1  0
  9 30  1  0
 11 31  1  0
 15 32  1  0
 16 33  1  0
 17 34  1  0
 18 35  1  0
 20 36  1  0
 21 37  1  0
M  CHG  1   4  -1
M  END
>  <UniqueID>  (32) 
29

>  <SMILES>  (32) 
CCC[N-]C(=O)c1ccc(NC(=O)c2ccccn2)cc1

>  <Energy>  (32) 
40.96455522182105

>  <Genealogy>  (32) 
CCC[N-]C(=O)c1ccc(NC(=O)c2ccccn2)cc1 (protonated)
CCC[N-]C(=O)c1ccc(NC(=O)c2ccccn2)cc1 (3D coordinates assigned)
CCC[N-]C(=O)c1ccc(NC(=O)c2ccccn2)cc1 (optimized conformer: 40.96455522182105 kcal/mol)

>  <smiles>  (32) 
CCCNC(=O)c1ccc(NC(=O)c2ccccn2)cc1

>  <score_type>  (32) 
oracle

>  <origin>  (32) 
adgpu

>  <m_score__min__energy>  (32) 
-8.3399999999999999

>  <m_primary>  (32) 
energy

$$$$
32:0
     RDKit          3D

 48 51  0  0  0  0  0  0  0  0999 V2000
   -4.3868   14.3918  -35.1380 H   0  0  0  0  0  0  0  0  0  0  0  0
   -4.5530   15.3610  -34.6450 C   0  0  0  0  0  0  0  0  0  0  0  0
   -5.0600   15.4050  -33.3440 C   0  0  0  0  0  0  0  0  0  0  0  0
   -5.2896   14.4698  -32.8123 H   0  0  0  0  0  0  0  0  0  0  0  0
   -5.2760   16.6350  -32.7170 C   0  0  0  0  0  0  0  0  0  0  0  0
   -5.6682   16.6648  -31.6897 H   0  0  0  0  0  0  0  0  0  0  0  0
   -4.9940   17.8350  -33.3940 C   0  0  0  0  0  0  0  0  0  0  0  0
   -5.2030   19.1410  -32.7310 C   0  0  0  0  0  0  0  0  0  0  0  0
   -4.1550   20.0760  -32.7180 C   0  0  0  0  0  0  0  0  0  0  0  0
   -3.1991   19.8302  -33.2036 H   0  0  0  0  0  0  0  0  0  0  0  0
   -4.3160   21.3150  -32.0940 C   0  0  0  0  0  0  0  0  0  0  0  0
   -3.4837   22.0341  -32.0814 H   0  0  0  0  0  0  0  0  0  0  0  0
   -5.5330   21.6460  -31.4840 C   0  0  0  0  0  0  0  0  0  0  0  0
   -5.7070   22.9550  -30.8250 C   0  0  0  0  0  0  0  0  0  0  0  0
   -6.8670   23.6950  -31.1070 C   0  0  0  0  0  0  0  0  0  0  0  0
   -7.6047   23.3020  -31.8221 H   0  0  0  0  0  0  0  0  0  0  0  0
   -7.0910   24.9250  -30.4870 C   0  0  0  0  0  0  0  0  0  0  0  0
   -8.0029   25.4967  -30.7140 H   0  0  0  0  0  0  0  0  0  0  0  0
   -6.1600   25.4300  -29.5800 C   0  0  0  0  0  0  0  0  0  0  0  0
   -6.3431   26.3951  -29.0850 H   0  0  0  0  0  0  0  0  0  0  0  0
   -4.9950   24.7120  -29.2990 C   0  0  0  0  0  0  0  0  0  0  0  0
   -4.2649   25.1171  -28.5829 H   0  0  0  0  0  0  0  0  0  0  0  0
   -4.7470   23.4780  -29.9220 C   0  0  0  0  0  0  0  0  0  0  0  0
   -3.2250   22.6420  -29.5760 S   0  0  0  0  0  0  0  0  0  0  0  0
   -2.2860   22.7840  -30.7410 O   0  0  0  0  0  0  0  0  0  0  0  0
   -3.5050   21.1890  -29.3130 O   0  0  0  0  0  0  0  0  0  0  0  0
   -2.4800   23.3450  -28.1790 N   0  0  0  0  0  0  0  0  0  0  0  0
   -1.9280   24.5170  -28.2020 C   0  0  0  0  0  0  0  0  0  0  0  0
   -1.8660   25.2980  -29.2550 O   0  0  0  0  0  0  0  0  0  0  0  0
   -1.2700   26.4190  -28.9630 N   0  0  0  0  0  0  0  0  0  0  0  0
   -0.9320   26.3580  -27.6560 C   0  0  0  0  0  0  0  0  0  0  0  0
   -0.2370   27.4570  -26.9230 C   0  0  0  0  0  0  0  0  0  0  0  0
   -0.3385   27.2965  -25.8395 H   0  0  0  0  0  0  0  0  0  0  0  0
    0.8289   27.4621  -27.1947 H   0  0  0  0  0  0  0  0  0  0  0  0
   -0.6893   28.4222  -27.1947 H   0  0  0  0  0  0  0  0  0  0  0  0
   -1.3220   25.1390  -27.1330 C   0  0  0  0  0  0  0  0  0  0  0  0
   -1.2340   24.6650  -25.7160 C   0  0  0  0  0  0  0  0  0  0  0  0
   -1.3917   25.5142  -25.0348 H   0  0  0  0  0  0  0  0  0  0  0  0
   -2.0059   23.9023  -25.5359 H   0  0  0  0  0  0  0  0  0  0  0  0
   -0.2398   24.2302  -25.5359 H   0  0  0  0  0  0  0  0  0  0  0  0
   -6.5830   20.7160  -31.4890 C   0  0  0  0  0  0  0  0  0  0  0  0
   -7.5351   20.9662  -30.9983 H   0  0  0  0  0  0  0  0  0  0  0  0
   -6.4300   19.4720  -32.1130 C   0  0  0  0  0  0  0  0  0  0  0  0
   -7.8170   18.3880  -32.1550 Cl  0  0  0  0  0  0  0  0  0  0  0  0
   -4.4730   17.7810  -34.6970 C   0  0  0  0  0  0  0  0  0  0  0  0
   -4.2337   18.7130  -35.2300 H   0  0  0  0  0  0  0  0  0  0  0  0
   -4.2570   16.5480  -35.3200 C   0  0  0  0  0  0  0  0  0  0  0  0
   -3.8536   16.5125  -36.3427 H   0  0  0  0  0  0  0  0  0  0  0  0
  1  2  1  0
  2  3  2  0
  3  4  1  0
  3  5  1  0
  5  6  1  0
  5  7  2  0
  7  8  1  0
  8  9  2  0
  9 10  1  0
  9 11  1  0
 11 12  1  0
 11 13  2  0
 13 14  1  0
 14 15  2  0
 15 16  1  0
 15 17  1  0
 17 18  1  0
 17 19  2  0
 19 20  1  0
 19 21  1  0
 21 22  1  0
 21 23  2  0
 23 24  1  0
 24 25  2  0
 24 26  2  0
 24 27  1  0
 27 28  2  0
 28 29  1  0
 29 30  1  0
 30 31  1  0
 31 32  1  0
 32 33  1  0
 32 34  1  0
 32 35  1  0
 31 36  2  0
 36 37  1  0
 37 38  1  0
 37 39  1  0
 37 40  1  0
 13 41  1  0
 41 42  1  0
 41 43  2  0
 43 44  1  0
  7 45  1  0
 45 46  1  0
 45 47  2  0
 47 48  1  0
 47  2  1  0
 43  8  1  0
 23 14  1  0
 36 28  1  0
M  CHG  1  30  -1
M  END
>  <UniqueID>  (33) 
30

>  <SMILES>  (33) 
Cc1[n-]o/c(=N\S(=O)(=O)c2ccccc2-c2ccc(-c3ccccc3)c(Cl)c2)c1C

>  <Energy>  (33) 
101.32607162194226

>  <Genealogy>  (33) 
Cc1[n-]oc(=NS(=O)(=O)c2ccccc2-c2ccc(-c3ccccc3)c(Cl)c2)c1C (protonated)
Cc1[n-]o/c(=N\S(=O)(=O)c2ccccc2-c2ccc(-c3ccccc3)c(Cl)c2)c1C (cis-trans isomerization)
Cc1[n-]o/c(=N\S(=O)(=O)c2ccccc2-c2ccc(-c3ccccc3)c(Cl)c2)c1C (3D coordinates assigned)
Cc1[n-]o/c(=N\S(=O)(=O)c2ccccc2-c2ccc(-c3ccccc3)c(Cl)c2)c1C (optimized conformer: 101.32607162194226 kcal/mol)

>  <smiles>  (33) 
Cc1[nH]oc(=NS(=O)(=O)c2ccccc2-c2ccc(-c3ccccc3)c(Cl)c2)c1C

>  <score_type>  (33) 
oracle

>  <origin>  (33) 
adgpu

>  <m_score__min__energy>  (33) 
-12.49

>  <m_primary>  (33) 
energy

$$$$
33:0
     RDKit          3D

 60 63  0  0  0  0  0  0  0  0999 V2000
   -9.1430   22.5380  -31.9500 C   0  0  0  0  0  0  0  0  0  0  0  0
   -8.2580   22.3510  -30.8480 O   0  0  0  0  0  0  0  0  0  0  0  0
   -7.0900   23.0970  -30.6350 C   0  0  0  0  0  0  0  0  0  0  0  0
   -6.7070   24.1590  -31.4760 C   0  0  0  0  0  0  0  0  0  0  0  0
   -5.5270   24.8660  -31.2250 C   0  0  0  0  0  0  0  0  0  0  0  0
   -4.7150   24.5300  -30.1340 C   0  0  0  0  0  0  0  0  0  0  0  0
   -3.5130   25.2840  -29.9180 N   0  0  0  0  0  0  0  0  0  0  0  0
   -2.1570   24.7560  -28.9730 S   0  0  0  0  0  0  0  0  0  0  0  0
   -1.0300   25.7410  -29.1080 O   0  0  0  0  0  0  0  0  0  0  0  0
   -2.5630   24.6910  -27.5270 O   0  0  0  0  0  0  0  0  0  0  0  0
   -1.6660   23.1490  -29.4990 C   0  0  0  0  0  0  0  0  0  0  0  0
   -0.4970   22.5590  -29.0070 C   0  0  0  0  0  0  0  0  0  0  0  0
   -0.1190   21.2880  -29.4460 C   0  0  0  0  0  0  0  0  0  0  0  0
   -0.9020   20.6020  -30.3770 C   0  0  0  0  0  0  0  0  0  0  0  0
   -2.0720   21.1840  -30.8860 C   0  0  0  0  0  0  0  0  0  0  0  0
   -2.8870   20.4370  -31.8090 N   0  0  0  0  0  0  0  0  0  0  0  0
   -4.1830   20.8640  -32.2600 C   0  0  0  0  0  0  0  0  0  0  0  0
   -4.3980   22.0930  -32.4500 O   0  0  0  0  0  0  0  0  0  0  0  0
   -5.2620   19.8800  -32.5320 C   0  0  0  0  0  0  0  0  0  0  0  0
   -6.6080   20.2840  -32.6150 C   0  0  0  0  0  0  0  0  0  0  0  0
   -7.6110   19.3510  -32.8930 C   0  0  0  0  0  0  0  0  0  0  0  0
   -7.2870   18.0130  -33.1070 C   0  0  0  0  0  0  0  0  0  0  0  0
   -5.9520   17.5940  -33.0500 C   0  0  0  0  0  0  0  0  0  0  0  0
   -5.5400   15.9090  -33.3730 S   0  0  0  0  0  0  0  0  0  0  0  0
   -5.2090   15.2240  -32.0770 O   0  0  0  0  0  0  0  0  0  0  0  0
   -6.7420   15.2210  -33.9590 O   0  0  0  0  0  0  0  0  0  0  0  0
   -4.1890   15.7470  -34.4760 N   0  0  0  0  0  0  0  0  0  0  0  0
   -3.0050   15.1360  -33.8420 C   0  0  0  0  0  0  0  0  0  0  0  0
   -2.1420   16.1520  -33.0550 C   0  0  0  0  0  0  0  0  0  0  0  0
   -2.5510   17.4910  -33.2410 O   0  0  0  0  0  0  0  0  0  0  0  0
   -2.6850   17.7590  -34.6180 C   0  0  0  0  0  0  0  0  0  0  0  0
   -3.8890   17.0010  -35.2020 C   0  0  0  0  0  0  0  0  0  0  0  0
   -4.9460   18.5260  -32.7520 C   0  0  0  0  0  0  0  0  0  0  0  0
   -2.4550   22.4600  -30.4280 C   0  0  0  0  0  0  0  0  0  0  0  0
   -5.1020   23.4750  -29.2900 C   0  0  0  0  0  0  0  0  0  0  0  0
   -6.2790   22.7660  -29.5440 C   0  0  0  0  0  0  0  0  0  0  0  0
  -10.1549   22.7518  -31.5754 H   0  0  0  0  0  0  0  0  0  0  0  0
   -8.7928   23.3820  -32.5624 H   0  0  0  0  0  0  0  0  0  0  0  0
   -9.1641   21.6245  -32.5624 H   0  0  0  0  0  0  0  0  0  0  0  0
   -7.3384   24.4337  -32.3338 H   0  0  0  0  0  0  0  0  0  0  0  0
   -5.2341   25.6924  -31.8893 H   0  0  0  0  0  0  0  0  0  0  0  0
    0.1242   23.0957  -28.2748 H   0  0  0  0  0  0  0  0  0  0  0  0
    0.7998   20.8252  -29.0566 H   0  0  0  0  0  0  0  0  0  0  0  0
   -0.5992   19.5993  -30.7130 H   0  0  0  0  0  0  0  0  0  0  0  0
   -2.5010   19.5470  -32.1980 H   0  0  0  0  0  0  0  0  0  0  0  0
   -6.8721   21.3405  -32.4601 H   0  0  0  0  0  0  0  0  0  0  0  0
   -8.6611   19.6747  -32.9431 H   0  0  0  0  0  0  0  0  0  0  0  0
   -8.0821   17.2837  -33.3213 H   0  0  0  0  0  0  0  0  0  0  0  0
   -3.3450   14.3539  -33.1472 H   0  0  0  0  0  0  0  0  0  0  0  0
   -2.3767   14.7284  -34.6476 H   0  0  0  0  0  0  0  0  0  0  0  0
   -2.2088   15.9116  -31.9837 H   0  0  0  0  0  0  0  0  0  0  0  0
   -1.1125   16.0690  -33.4336 H   0  0  0  0  0  0  0  0  0  0  0  0
   -2.8327   18.8393  -34.7634 H   0  0  0  0  0  0  0  0  0  0  0  0
   -1.7723   17.4270  -35.1345 H   0  0  0  0  0  0  0  0  0  0  0  0
   -4.7724   17.6546  -35.1528 H   0  0  0  0  0  0  0  0  0  0  0  0
   -3.6367   16.7298  -36.2377 H   0  0  0  0  0  0  0  0  0  0  0  0
   -3.8989   18.1948  -32.6896 H   0  0  0  0  0  0  0  0  0  0  0  0
   -3.3816   22.9188  -30.8034 H   0  0  0  0  0  0  0  0  0  0  0  0
   -4.4760   23.2064  -28.4263 H   0  0  0  0  0  0  0  0  0  0  0  0
   -6.5709   21.9394  -28.8796 H   0  0  0  0  0  0  0  0  0  0  0  0
  1  2  1  0
  2  3  1  0
  3  4  2  0
  4  5  1  0
  5  6  2  0
  6  7  1  0
  7  8  1  0
  8  9  2  0
  8 10  2  0
  8 11  1  0
 11 12  2  0
 12 13  1  0
 13 14  2  0
 14 15  1  0
 15 16  1  0
 16 17  1  0
 17 18  2  0
 17 19  1  0
 19 20  2  0
 20 21  1  0
 21 22  2  0
 22 23  1  0
 23 24  1  0
 24 25  2  0
 24 26  2  0
 24 27  1  0
 27 28  1  0
 28 29  1  0
 29 30  1  0
 30 31  1  0
 31 32  1  0
 23 33  2  0
 15 34  2  0
  6 35  1  0
 35 36  2  0
 36  3  1  0
 34 11  1  0
 33 19  1  0
 32 27  1  0
  1 37  1  0
  1 38  1  0
  1 39  1  0
  4 40  1  0
  5 41  1  0
 12 42  1  0
 13 43  1  0
 14 44  1  0
 16 45  1  0
 20 46  1  0
 21 47  1  0
 22 48  1  0
 28 49  1  0
 28 50  1  0
 29 51  1  0
 29 52  1  0
 31 53  1  0
 31 54  1  0
 32 55  1  0
 32 56  1  0
 33 57  1  0
 34 58  1  0
 35 59  1  0
 36 60  1  0
M  CHG  1   7  -1
M  END
>  <UniqueID>  (34) 
31

>  <SMILES>  (34) 
COc1ccc([N-]S(=O)(=O)c2cccc(NC(=O)c3cccc(S(=O)(=O)N4CCOCC4)c3)c2)cc1

>  <Energy>  (34) 
82.31337340994935

>  <Genealogy>  (34) 
COc1ccc([N-]S(=O)(=O)c2cccc(NC(=O)c3cccc(S(=O)(=O)N4CCOCC4)c3)c2)cc1 (protonated)
COc1ccc([N-]S(=O)(=O)c2cccc(NC(=O)c3cccc(S(=O)(=O)N4CCOCC4)c3)c2)cc1 (3D coordinates assigned)
COc1ccc([N-]S(=O)(=O)c2cccc(NC(=O)c3cccc(S(=O)(=O)N4CCOCC4)c3)c2)cc1 (nonaromatic ring conformer: 82.31337340994935 kcal/mol)

>  <smiles>  (34) 
COc1ccc(NS(=O)(=O)c2cccc(NC(=O)c3cccc(S(=O)(=O)N4CCOCC4)c3)c2)cc1

>  <score_type>  (34) 
oracle

>  <origin>  (34) 
adgpu

>  <m_score__min__energy>  (34) 
-11.25

>  <m_primary>  (34) 
energy

$$$$
34:0
     RDKit          3D

 44 47  0  0  0  0  0  0  0  0999 V2000
   -9.1870   22.9217  -32.0208 H   0  0  0  0  0  0  0  0  0  0  0  0
   -8.1400   22.5880  -32.0700 C   0  0  0  0  0  0  0  0  0  0  0  0
   -7.1880   23.5180  -31.9010 C   0  0  0  0  0  0  0  0  0  0  0  0
   -7.5031   24.5719  -31.9044 H   0  0  0  0  0  0  0  0  0  0  0  0
   -5.7520   23.2390  -31.7110 C   0  0  0  0  0  0  0  0  0  0  0  0
   -5.0200   23.4680  -30.5680 C   0  0  0  0  0  0  0  0  0  0  0  0
   -5.3300   24.0730  -29.3540 C   0  0  0  0  0  0  0  0  0  0  0  0
   -6.3327   24.4820  -29.1610 H   0  0  0  0  0  0  0  0  0  0  0  0
   -4.3150   24.1430  -28.3820 C   0  0  0  0  0  0  0  0  0  0  0  0
   -4.5219   24.6207  -27.4130 H   0  0  0  0  0  0  0  0  0  0  0  0
   -3.0220   23.6020  -28.6390 C   0  0  0  0  0  0  0  0  0  0  0  0
   -1.9720   23.6700  -27.6560 N   0  0  0  0  0  0  0  0  0  0  0  0
   -1.3860   22.8190  -27.5000 H   0  0  0  0  0  0  0  0  0  0  0  0
   -1.5610   24.8830  -27.0100 C   0  0  0  0  0  0  0  0  0  0  0  0
   -1.6010   24.9500  -25.6120 C   0  0  0  0  0  0  0  0  0  0  0  0
   -1.9628   24.0861  -25.0350 H   0  0  0  0  0  0  0  0  0  0  0  0
   -1.1860   26.1030  -24.9440 C   0  0  0  0  0  0  0  0  0  0  0  0
   -1.2138   26.1366  -23.8449 H   0  0  0  0  0  0  0  0  0  0  0  0
   -0.7330   27.2210  -25.6640 C   0  0  0  0  0  0  0  0  0  0  0  0
   -0.2990   28.4090  -24.9780 N   0  0  0  0  0  0  0  0  0  0  0  0
   -1.0090   29.4360  -24.9710 O   0  0  0  0  0  0  0  0  0  0  0  0
    0.9070   28.4350  -24.3150 O   0  0  0  0  0  0  0  0  0  0  0  0
   -0.7190   27.1650  -27.0680 C   0  0  0  0  0  0  0  0  0  0  0  0
   -0.3718   28.0367  -27.6422 H   0  0  0  0  0  0  0  0  0  0  0  0
   -1.1420   26.0120  -27.7480 C   0  0  0  0  0  0  0  0  0  0  0  0
   -1.1770   26.0180  -29.1810 N   0  0  0  0  0  0  0  0  0  0  0  0
   -1.2330   26.9060  -29.7260 H   0  0  0  0  0  0  0  0  0  0  0  0
   -1.0860   25.1270  -29.7180 H   0  0  0  0  0  0  0  0  0  0  0  0
   -2.7540   23.0040  -29.8890 C   0  0  0  0  0  0  0  0  0  0  0  0
   -1.7609   22.5887  -30.1153 H   0  0  0  0  0  0  0  0  0  0  0  0
   -3.7810   22.9540  -30.8280 C   0  0  0  0  0  0  0  0  0  0  0  0
   -3.7440   22.4100  -32.0580 N   0  0  0  0  0  0  0  0  0  0  0  0
   -4.9530   22.5820  -32.5850 N   0  0  0  0  0  0  0  0  0  0  0  0
   -5.2300   22.2160  -33.5230 H   0  0  0  0  0  0  0  0  0  0  0  0
   -7.8960   21.1510  -32.3170 C   0  0  0  0  0  0  0  0  0  0  0  0
   -6.8760   20.7450  -33.1260 N   0  0  0  0  0  0  0  0  0  0  0  0
   -6.6560   19.4330  -33.4040 C   0  0  0  0  0  0  0  0  0  0  0  0
   -5.8172   19.1417  -34.0533 H   0  0  0  0  0  0  0  0  0  0  0  0
   -7.4940   18.4550  -32.8660 C   0  0  0  0  0  0  0  0  0  0  0  0
   -7.3163   17.3908  -33.0803 H   0  0  0  0  0  0  0  0  0  0  0  0
   -8.5600   18.8430  -32.0530 C   0  0  0  0  0  0  0  0  0  0  0  0
   -9.2335   18.0842  -31.6281 H   0  0  0  0  0  0  0  0  0  0  0  0
   -8.7700   20.1960  -31.7800 C   0  0  0  0  0  0  0  0  0  0  0  0
   -9.6144   20.5098  -31.1487 H   0  0  0  0  0  0  0  0  0  0  0  0
  1  2  1  0
  2  3  2  0
  3  4  1  0
  3  5  1  0
  5  6  2  0
  6  7  1  0
  7  8  1  0
  7  9  2  0
  9 10  1  0
  9 11  1  0
 11 12  1  0
 12 13  1  0
 12 14  1  0
 14 15  2  0
 15 16  1  0
 15 17  1  0
 17 18  1  0
 17 19  2  0
 19 20  1  0
 20 21  2  0
 20 22  1  0
 19 23  1  0
 23 24  1  0
 23 25  2  0
 25 26  1  0
 26 27  1  0
 26 28  1  0
 11 29  2  0
 29 30  1  0
 29 31  1  0
 31 32  2  0
 32 33  1  0
 33 34  1  0
  2 35  1  0
 35 36  2  0
 36 37  1  0
 37 38  1  0
 37 39  2  0
 39 40  1  0
 39 41  1  0
 41 42  1  0
 41 43  2  0
 43 44  1  0
 33  5  1  0
 43 35  1  0
 31  6  1  0
 25 14  1  0
M  CHG  2  20   1  22  -1
M  END
>  <UniqueID>  (35) 
32

>  <SMILES>  (35) 
Nc1cc([N+](=O)[O-])ccc1Nc1ccc2c(/C=C\c3ccccn3)[nH]nc2c1

>  <Energy>  (35) 
102.4655965282407

>  <Genealogy>  (35) 
Nc1cc([N+](=O)[O-])ccc1Nc1ccc2c(/C=C\c3ccccn3)[nH]nc2c1 (cis-trans isomerization)
Nc1cc([N+](=O)[O-])ccc1Nc1ccc2c(/C=C\c3ccccn3)[nH]nc2c1 (3D coordinates assigned)
Nc1cc([N+](=O)[O-])ccc1Nc1ccc2c(/C=C\c3ccccn3)[nH]nc2c1 (optimized conformer: 102.4655965282407 kcal/mol)

>  <smiles>  (35) 
Nc1cc([N+](=O)[O-])ccc1Nc1ccc2c(C=Cc3ccccn3)[nH]nc2c1

>  <score_type>  (35) 
oracle

>  <origin>  (35) 
adgpu

>  <m_score__min__energy>  (35) 
-9.6999999999999993

>  <m_primary>  (35) 
energy

$$$$
35:0
     RDKit          3D

 39 41  0  0  0  0  0  0  0  0999 V2000
   -6.3245   16.2373  -32.8538 H   0  0  0  0  0  0  0  0  0  0  0  0
   -6.4740   17.3200  -32.9780 C   0  0  0  0  0  0  0  0  0  0  0  0
   -7.1590   18.0230  -32.0390 N   0  0  0  0  0  0  0  0  0  0  0  0
   -7.3640   19.3650  -32.1390 C   0  0  0  0  0  0  0  0  0  0  0  0
   -8.0500   19.9580  -31.2040 N   0  0  0  0  0  0  0  0  0  0  0  0
   -8.4670   21.6440  -31.1360 S   0  0  0  0  0  0  0  0  0  0  0  0
   -9.2360   22.0100  -32.3740 O   0  0  0  0  0  0  0  0  0  0  0  0
   -9.3320   21.8890  -29.9310 O   0  0  0  0  0  0  0  0  0  0  0  0
   -7.0070   22.6250  -31.0620 C   0  0  0  0  0  0  0  0  0  0  0  0
   -7.0890   24.0050  -30.8370 C   0  0  0  0  0  0  0  0  0  0  0  0
   -8.0723   24.4960  -30.7916 H   0  0  0  0  0  0  0  0  0  0  0  0
   -5.9240   24.7600  -30.6700 C   0  0  0  0  0  0  0  0  0  0  0  0
   -5.9953   25.8444  -30.4998 H   0  0  0  0  0  0  0  0  0  0  0  0
   -4.6680   24.1450  -30.7180 C   0  0  0  0  0  0  0  0  0  0  0  0
   -3.5020   24.9350  -30.4510 N   0  0  0  0  0  0  0  0  0  0  0  0
   -2.3900   24.6410  -29.1550 S   0  0  0  0  0  0  0  0  0  0  0  0
   -1.2140   25.5650  -29.3000 O   0  0  0  0  0  0  0  0  0  0  0  0
   -3.0720   24.9160  -27.8450 O   0  0  0  0  0  0  0  0  0  0  0  0
   -1.8710   22.9580  -29.1860 C   0  0  0  0  0  0  0  0  0  0  0  0
   -1.1750   22.4490  -30.2940 C   0  0  0  0  0  0  0  0  0  0  0  0
   -0.9207   23.1113  -31.1347 H   0  0  0  0  0  0  0  0  0  0  0  0
   -0.8050   21.1020  -30.3300 C   0  0  0  0  0  0  0  0  0  0  0  0
   -0.2586   20.7058  -31.1986 H   0  0  0  0  0  0  0  0  0  0  0  0
   -1.1280   20.2570  -29.2640 C   0  0  0  0  0  0  0  0  0  0  0  0
   -0.8432   19.1951  -29.2980 H   0  0  0  0  0  0  0  0  0  0  0  0
   -1.8130   20.7620  -28.1550 C   0  0  0  0  0  0  0  0  0  0  0  0
   -2.0602   20.0983  -27.3133 H   0  0  0  0  0  0  0  0  0  0  0  0
   -2.1840   22.1080  -28.1140 C   0  0  0  0  0  0  0  0  0  0  0  0
   -2.7226   22.5026  -27.2398 H   0  0  0  0  0  0  0  0  0  0  0  0
   -4.5870   22.7690  -30.9970 C   0  0  0  0  0  0  0  0  0  0  0  0
   -3.6033   22.2841  -31.0824 H   0  0  0  0  0  0  0  0  0  0  0  0
   -5.7510   22.0160  -31.1660 C   0  0  0  0  0  0  0  0  0  0  0  0
   -5.6804   20.9397  -31.3818 H   0  0  0  0  0  0  0  0  0  0  0  0
   -6.8420   20.0540  -33.2550 C   0  0  0  0  0  0  0  0  0  0  0  0
   -6.9833   21.1406  -33.3511 H   0  0  0  0  0  0  0  0  0  0  0  0
   -6.1450   19.3460  -34.2360 C   0  0  0  0  0  0  0  0  0  0  0  0
   -5.7427   19.8721  -35.1143 H   0  0  0  0  0  0  0  0  0  0  0  0
   -5.9600   17.9710  -34.1000 C   0  0  0  0  0  0  0  0  0  0  0  0
   -5.4144   17.4050  -34.8694 H   0  0  0  0  0  0  0  0  0  0  0  0
  1  2  1  0
  2  3  1  0
  3  4  1  0
  4  5  2  0
  5  6  1  0
  6  7  2  0
  6  8  2  0
  6  9  1  0
  9 10  2  0
 10 11  1  0
 10 12  1  0
 12 13  1  0
 12 14  2  0
 14 15  1  0
 15 16  1  0
 16 17  2  0
 16 18  2  0
 16 19  1  0
 19 20  2  0
 20 21  1  0
 20 22  1  0
 22 23  1  0
 22 24  2  0
 24 25  1  0
 24 26  1  0
 26 27  1  0
 26 28  2  0
 28 29  1  0
 14 30  1  0
 30 31  1  0
 30 32  2  0
 32 33  1  0
  4 34  1  0
 34 35  1  0
 34 36  2  0
 36 37  1  0
 36 38  1  0
 38 39  1  0
 38  2  2  0
 32  9  1  0
 28 19  1  0
M  CHG  2   3  -1  15  -1
M  END
>  <UniqueID>  (36) 
33

>  <SMILES>  (36) 
O=S(=O)(/N=c1\cccc[n-]1)c1ccc([N-]S(=O)(=O)c2ccccc2)cc1

>  <Energy>  (36) 
50.35635555561922

>  <Genealogy>  (36) 
O=S(=O)(N=c1cccc[n-]1)c1ccc([N-]S(=O)(=O)c2ccccc2)cc1 (protonated)
O=S(=O)(/N=c1\cccc[n-]1)c1ccc([N-]S(=O)(=O)c2ccccc2)cc1 (cis-trans isomerization)
O=S(=O)(/N=c1\cccc[n-]1)c1ccc([N-]S(=O)(=O)c2ccccc2)cc1 (3D coordinates assigned)
O=S(=O)(/N=c1\cccc[n-]1)c1ccc([N-]S(=O)(=O)c2ccccc2)cc1 (optimized conformer: 50.35635555561922 kcal/mol)

>  <smiles>  (36) 
O=S(=O)(N=c1cccc[nH]1)c1ccc(NS(=O)(=O)c2ccccc2)cc1

>  <score_type>  (36) 
oracle

>  <origin>  (36) 
adgpu

>  <m_score__min__energy>  (36) 
-11.029999999999999

>  <m_primary>  (36) 
energy

$$$$
36:0
     RDKit          3D

 33 34  0  0  0  0  0  0  0  0999 V2000
   -0.3680   27.1290  -22.9670 C   0  0  0  0  0  0  0  0  0  0  0  0
   -0.6310   26.1750  -24.0860 C   0  0  0  0  0  0  0  0  0  0  0  0
    0.0380   25.1090  -24.1580 O   0  0  0  0  0  0  0  0  0  0  0  0
   -1.7040   26.4290  -25.0070 N   0  0  0  0  0  0  0  0  0  0  0  0
   -1.9620   25.6300  -26.1740 C   0  0  0  0  0  0  0  0  0  0  0  0
   -0.9710   25.5000  -27.1570 C   0  0  0  0  0  0  0  0  0  0  0  0
   -1.2000   24.7250  -28.2960 C   0  0  0  0  0  0  0  0  0  0  0  0
   -2.4210   24.0540  -28.4580 C   0  0  0  0  0  0  0  0  0  0  0  0
   -2.7200   23.0870  -29.8990 S   0  0  0  0  0  0  0  0  0  0  0  0
   -1.4280   22.9170  -30.6450 O   0  0  0  0  0  0  0  0  0  0  0  0
   -3.2540   21.7320  -29.5270 O   0  0  0  0  0  0  0  0  0  0  0  0
   -3.8660   23.8840  -30.9280 N   0  0  0  0  0  0  0  0  0  0  0  0
   -5.1780   23.3960  -31.2440 C   0  0  0  0  0  0  0  0  0  0  0  0
   -5.3690   22.1920  -31.9480 C   0  0  0  0  0  0  0  0  0  0  0  0
   -6.6610   21.7510  -32.2530 C   0  0  0  0  0  0  0  0  0  0  0  0
   -6.8870   20.2510  -33.1350 Cl  0  0  0  0  0  0  0  0  0  0  0  0
   -7.7700   22.5100  -31.8660 C   0  0  0  0  0  0  0  0  0  0  0  0
   -7.5900   23.6990  -31.1590 C   0  0  0  0  0  0  0  0  0  0  0  0
   -6.2990   24.1400  -30.8400 C   0  0  0  0  0  0  0  0  0  0  0  0
   -6.1100   25.6410  -29.9460 Cl  0  0  0  0  0  0  0  0  0  0  0  0
   -3.4060   24.1600  -27.4680 C   0  0  0  0  0  0  0  0  0  0  0  0
   -3.1780   24.9380  -26.3300 C   0  0  0  0  0  0  0  0  0  0  0  0
   -0.5099   26.6142  -22.0053 H   0  0  0  0  0  0  0  0  0  0  0  0
    0.6656   27.4989  -23.0358 H   0  0  0  0  0  0  0  0  0  0  0  0
   -1.0661   27.9763  -23.0358 H   0  0  0  0  0  0  0  0  0  0  0  0
   -2.4060   27.1580  -24.7470 H   0  0  0  0  0  0  0  0  0  0  0  0
   -0.0058   26.0122  -27.0302 H   0  0  0  0  0  0  0  0  0  0  0  0
   -0.4209   24.6406  -29.0679 H   0  0  0  0  0  0  0  0  0  0  0  0
   -4.4988   21.5956  -32.2595 H   0  0  0  0  0  0  0  0  0  0  0  0
   -8.7848   22.1693  -32.1192 H   0  0  0  0  0  0  0  0  0  0  0  0
   -8.4639   24.2919  -30.8512 H   0  0  0  0  0  0  0  0  0  0  0  0
   -4.3621   23.6291  -27.5867 H   0  0  0  0  0  0  0  0  0  0  0  0
   -3.9525   25.0101  -25.5522 H   0  0  0  0  0  0  0  0  0  0  0  0
  1  2  1  0
  2  3  2  0
  2  4  1  0
  4  5  1  0
  5  6  2  0
  6  7  1  0
  7  8  2  0
  8  9  1  0
  9 10  2  0
  9 11  2  0
  9 12  1  0
 12 13  1  0
 13 14  2  0
 14 15  1  0
 15 16  1  0
 15 17  2  0
 17 18  1  0
 18 19  2  0
 19 20  1  0
  8 21  1  0
 21 22  2  0
 22  5  1  0
 19 13  1  0
  1 23  1  0
  1 24  1  0
  1 25  1  0
  4 26  1  0
  6 27  1  0
  7 28  1  0
 14 29  1  0
 17 30  1  0
 18 31  1  0
 21 32  1  0
 22 33  1  0
M  CHG  1  12  -1
M  END
>  <UniqueID>  (37) 
34

>  <SMILES>  (37) 
CC(=O)Nc1ccc(S(=O)(=O)[N-]c2cc(Cl)ccc2Cl)cc1

>  <Energy>  (37) 
38.41533522025984

>  <Genealogy>  (37) 
CC(=O)Nc1ccc(S(=O)(=O)[N-]c2cc(Cl)ccc2Cl)cc1 (protonated)
CC(=O)Nc1ccc(S(=O)(=O)[N-]c2cc(Cl)ccc2Cl)cc1 (3D coordinates assigned)
CC(=O)Nc1ccc(S(=O)(=O)[N-]c2cc(Cl)ccc2Cl)cc1 (optimized conformer: 38.41533522025984 kcal/mol)

>  <smiles>  (37) 
CC(=O)Nc1ccc(S(=O)(=O)Nc2cc(Cl)ccc2Cl)cc1

>  <score_type>  (37) 
oracle

>  <origin>  (37) 
adgpu

>  <m_score__min__energy>  (37) 
-9.3100000000000005

>  <m_primary>  (37) 
energy

$$$$
37:0
     RDKit          3D

 39 41  0  0  0  0  0  0  0  0999 V2000
   -5.4210   26.3740  -30.5560 O   0  0  0  0  0  0  0  0  0  0  0  0
   -4.8990   25.2390  -30.7100 C   0  0  0  0  0  0  0  0  0  0  0  0
   -3.4970   25.0880  -30.4450 N   0  0  0  0  0  0  0  0  0  0  0  0
   -2.9110   24.2800  -29.4130 C   0  0  0  0  0  0  0  0  0  0  0  0
   -3.6650   23.3250  -28.7090 C   0  0  0  0  0  0  0  0  0  0  0  0
   -3.0630   22.5560  -27.7090 C   0  0  0  0  0  0  0  0  0  0  0  0
   -1.7080   22.7220  -27.4140 C   0  0  0  0  0  0  0  0  0  0  0  0
   -1.1350   21.9710  -26.4400 F   0  0  0  0  0  0  0  0  0  0  0  0
   -0.9470   23.6540  -28.1290 C   0  0  0  0  0  0  0  0  0  0  0  0
    0.7590   23.8670  -27.7720 Cl  0  0  0  0  0  0  0  0  0  0  0  0
   -1.5480   24.4250  -29.1320 C   0  0  0  0  0  0  0  0  0  0  0  0
   -5.7550   24.0930  -31.1050 C   0  0  0  0  0  0  0  0  0  0  0  0
   -7.1360   24.1240  -30.8470 C   0  0  0  0  0  0  0  0  0  0  0  0
   -7.9470   23.0500  -31.2180 C   0  0  0  0  0  0  0  0  0  0  0  0
   -7.3900   21.9310  -31.8400 C   0  0  0  0  0  0  0  0  0  0  0  0
   -6.0130   21.8760  -32.0850 C   0  0  0  0  0  0  0  0  0  0  0  0
   -5.3120   20.4610  -32.8650 S   0  0  0  0  0  0  0  0  0  0  0  0
   -6.1960   20.0510  -34.0090 O   0  0  0  0  0  0  0  0  0  0  0  0
   -5.2070   19.3220  -31.8910 O   0  0  0  0  0  0  0  0  0  0  0  0
   -3.7310   20.8270  -33.4790 N   0  0  0  0  0  0  0  0  0  0  0  0
   -2.5430   20.9440  -32.6860 C   0  0  0  0  0  0  0  0  0  0  0  0
   -1.3060   21.0270  -33.3390 C   0  0  0  0  0  0  0  0  0  0  0  0
   -0.1240   21.1550  -32.6030 C   0  0  0  0  0  0  0  0  0  0  0  0
   -0.1700   21.2040  -31.2070 C   0  0  0  0  0  0  0  0  0  0  0  0
   -1.3980   21.1150  -30.5460 C   0  0  0  0  0  0  0  0  0  0  0  0
   -2.5810   20.9860  -31.2790 C   0  0  0  0  0  0  0  0  0  0  0  0
   -5.2000   22.9530  -31.7140 C   0  0  0  0  0  0  0  0  0  0  0  0
   -4.7299   23.1827  -28.9453 H   0  0  0  0  0  0  0  0  0  0  0  0
   -3.6586   21.8174  -27.1524 H   0  0  0  0  0  0  0  0  0  0  0  0
   -0.9456   25.1480  -29.7016 H   0  0  0  0  0  0  0  0  0  0  0  0
   -7.5803   24.9991  -30.3501 H   0  0  0  0  0  0  0  0  0  0  0  0
   -9.0284   23.0855  -31.0196 H   0  0  0  0  0  0  0  0  0  0  0  0
   -8.0346   21.0910  -32.1381 H   0  0  0  0  0  0  0  0  0  0  0  0
   -1.2645   20.9912  -34.4376 H   0  0  0  0  0  0  0  0  0  0  0  0
    0.8432   21.2172  -33.1233 H   0  0  0  0  0  0  0  0  0  0  0  0
    0.7596   21.3125  -30.6291 H   0  0  0  0  0  0  0  0  0  0  0  0
   -1.4336   21.1465  -29.4470 H   0  0  0  0  0  0  0  0  0  0  0  0
   -3.5456   20.9170  -30.7547 H   0  0  0  0  0  0  0  0  0  0  0  0
   -4.1169   22.9076  -31.9004 H   0  0  0  0  0  0  0  0  0  0  0  0
  1  2  2  0
  2  3  1  0
  3  4  1  0
  4  5  2  0
  5  6  1  0
  6  7  2  0
  7  8  1  0
  7  9  1  0
  9 10  1  0
  9 11  2  0
  2 12  1  0
 12 13  2  0
 13 14  1  0
 14 15  2  0
 15 16  1  0
 16 17  1  0
 17 18  2  0
 17 19  2  0
 17 20  1  0
 20 21  1  0
 21 22  2  0
 22 23  1  0
 23 24  2  0
 24 25  1  0
 25 26  2  0
 16 27  2  0
 11  4  1  0
 27 12  1  0
 26 21  1  0
  5 28  1  0
  6 29  1  0
 11 30  1  0
 13 31  1  0
 14 32  1  0
 15 33  1  0
 22 34  1  0
 23 35  1  0
 24 36  1  0
 25 37  1  0
 26 38  1  0
 27 39  1  0
M  CHG  2   3  -1  20  -1
M  END
>  <UniqueID>  (38) 
35

>  <SMILES>  (38) 
O=C([N-]c1ccc(F)c(Cl)c1)c1cccc(S(=O)(=O)[N-]c2ccccc2)c1

>  <Energy>  (38) 
51.16218816547269

>  <Genealogy>  (38) 
O=C([N-]c1ccc(F)c(Cl)c1)c1cccc(S(=O)(=O)[N-]c2ccccc2)c1 (protonated)
O=C([N-]c1ccc(F)c(Cl)c1)c1cccc(S(=O)(=O)[N-]c2ccccc2)c1 (3D coordinates assigned)
O=C([N-]c1ccc(F)c(Cl)c1)c1cccc(S(=O)(=O)[N-]c2ccccc2)c1 (optimized conformer: 51.16218816547269 kcal/mol)

>  <smiles>  (38) 
O=C(Nc1ccc(F)c(Cl)c1)c1cccc(S(=O)(=O)Nc2ccccc2)c1

>  <score_type>  (38) 
oracle

>  <origin>  (38) 
adgpu

>  <m_score__min__energy>  (38) 
-10.539999999999999

>  <m_primary>  (38) 
energy

$$$$
38:0
     RDKit          3D

 63 67  0  0  0  0  0  0  0  0999 V2000
   -1.5620   19.5800  -32.5960 H   0  0  0  0  0  0  0  0  0  0  0  0
   -1.3040   19.5470  -31.5840 N   0  0  0  0  0  0  0  0  0  0  0  0
   -0.4620   18.6790  -31.1250 C   0  0  0  0  0  0  0  0  0  0  0  0
    0.1000   17.7710  -31.9750 N   0  0  0  0  0  0  0  0  0  0  0  0
    0.9650   16.8060  -31.5520 C   0  0  0  0  0  0  0  0  0  0  0  0
    1.4059   16.1108  -32.2816 H   0  0  0  0  0  0  0  0  0  0  0  0
    1.2980   16.6920  -30.1920 C   0  0  0  0  0  0  0  0  0  0  0  0
    2.2170   15.6250  -29.7320 C   0  0  0  0  0  0  0  0  0  0  0  0
    3.5670   15.6260  -30.1190 C   0  0  0  0  0  0  0  0  0  0  0  0
    3.9461   16.4191  -30.7802 H   0  0  0  0  0  0  0  0  0  0  0  0
    4.4300   14.6260  -29.6690 C   0  0  0  0  0  0  0  0  0  0  0  0
    5.4836   14.6285  -29.9849 H   0  0  0  0  0  0  0  0  0  0  0  0
    3.9610   13.6220  -28.8190 C   0  0  0  0  0  0  0  0  0  0  0  0
    4.6450   12.8330  -28.4732 H   0  0  0  0  0  0  0  0  0  0  0  0
    2.6190   13.6160  -28.4040 C   0  0  0  0  0  0  0  0  0  0  0  0
    2.1120   12.5390  -27.4670 C   0  0  0  0  0  0  0  0  0  0  0  0
    1.2176   12.0824  -27.9159 H   0  0  0  0  0  0  0  0  0  0  0  0
    2.9327   11.8187  -27.3347 H   0  0  0  0  0  0  0  0  0  0  0  0
    1.7550   13.0360  -26.1190 N   0  0  0  0  0  0  0  0  0  0  0  0
    2.2730   12.1780  -25.0430 C   0  0  0  0  0  0  0  0  0  0  0  0
    2.0099   12.6137  -24.0678 H   0  0  0  0  0  0  0  0  0  0  0  0
    1.8294   11.1750  -25.1281 H   0  0  0  0  0  0  0  0  0  0  0  0
    3.3672   12.1034  -25.1281 H   0  0  0  0  0  0  0  0  0  0  0  0
    0.3110   13.2640  -25.9630 C   0  0  0  0  0  0  0  0  0  0  0  0
    0.0596   13.3037  -24.8929 H   0  0  0  0  0  0  0  0  0  0  0  0
    0.0366   14.2166  -26.4397 H   0  0  0  0  0  0  0  0  0  0  0  0
   -0.2436   12.4423  -26.4397 H   0  0  0  0  0  0  0  0  0  0  0  0
    1.7510   14.6190  -28.8690 C   0  0  0  0  0  0  0  0  0  0  0  0
    0.6970   14.6163  -28.5543 H   0  0  0  0  0  0  0  0  0  0  0  0
    0.7300   17.6280  -29.3160 C   0  0  0  0  0  0  0  0  0  0  0  0
    0.9520   17.7790  -27.6560 S   0  0  0  0  0  0  0  0  0  0  0  0
   -0.0530   19.1160  -27.4660 C   0  0  0  0  0  0  0  0  0  0  0  0
   -0.2731   19.6193  -26.5130 H   0  0  0  0  0  0  0  0  0  0  0  0
   -0.5620   19.4830  -28.7130 C   0  0  0  0  0  0  0  0  0  0  0  0
   -1.4200   20.6720  -28.8680 C   0  0  0  0  0  0  0  0  0  0  0  0
   -2.5270   20.8560  -28.0270 C   0  0  0  0  0  0  0  0  0  0  0  0
   -2.7671   20.1010  -27.2639 H   0  0  0  0  0  0  0  0  0  0  0  0
   -3.3260   21.9950  -28.1550 C   0  0  0  0  0  0  0  0  0  0  0  0
   -4.2058   22.1198  -27.5066 H   0  0  0  0  0  0  0  0  0  0  0  0
   -3.0160   22.9790  -29.1020 C   0  0  0  0  0  0  0  0  0  0  0  0
   -3.8800   24.1200  -29.2130 N   0  0  0  0  0  0  0  0  0  0  0  0
   -4.2670   24.7910  -30.4200 C   0  0  0  0  0  0  0  0  0  0  0  0
   -4.3010   26.0480  -30.4710 O   0  0  0  0  0  0  0  0  0  0  0  0
   -4.6170   24.0410  -31.5880 N   0  0  0  0  0  0  0  0  0  0  0  0
   -5.4590   22.8800  -31.6280 C   0  0  0  0  0  0  0  0  0  0  0  0
   -4.8730   21.6320  -31.8710 C   0  0  0  0  0  0  0  0  0  0  0  0
   -3.7857   21.5585  -32.0203 H   0  0  0  0  0  0  0  0  0  0  0  0
   -5.6610   20.4790  -31.9250 C   0  0  0  0  0  0  0  0  0  0  0  0
   -5.1906   19.5003  -32.1009 H   0  0  0  0  0  0  0  0  0  0  0  0
   -7.0450   20.5670  -31.7560 C   0  0  0  0  0  0  0  0  0  0  0  0
   -7.6592   19.6547  -31.7774 H   0  0  0  0  0  0  0  0  0  0  0  0
   -7.6540   21.8160  -31.5590 C   0  0  0  0  0  0  0  0  0  0  0  0
   -9.1380   21.9180  -31.3730 C   0  0  0  0  0  0  0  0  0  0  0  0
   -9.3726   21.9341  -30.2984 H   0  0  0  0  0  0  0  0  0  0  0  0
   -9.5036   22.8434  -31.8420 H   0  0  0  0  0  0  0  0  0  0  0  0
   -9.6268   21.0513  -31.8420 H   0  0  0  0  0  0  0  0  0  0  0  0
   -6.8560   22.9690  -31.4890 C   0  0  0  0  0  0  0  0  0  0  0  0
   -7.3268   23.9494  -31.3242 H   0  0  0  0  0  0  0  0  0  0  0  0
   -1.9090   22.7930  -29.9490 C   0  0  0  0  0  0  0  0  0  0  0  0
   -1.6715   23.5468  -30.7141 H   0  0  0  0  0  0  0  0  0  0  0  0
   -1.1090   21.6530  -29.8220 C   0  0  0  0  0  0  0  0  0  0  0  0
   -0.2317   21.5247  -30.4731 H   0  0  0  0  0  0  0  0  0  0  0  0
   -0.1240   18.6330  -29.7580 C   0  0  0  0  0  0  0  0  0  0  0  0
  1  2  1  0
  2  3  2  0
  3  4  1  0
  4  5  1  0
  5  6  1  0
  5  7  2  0
  7  8  1  0
  8  9  2  0
  9 10  1  0
  9 11  1  0
 11 12  1  0
 11 13  2  0
 13 14  1  0
 13 15  1  0
 15 16  1  0
 16 17  1  0
 16 18  1  0
 16 19  1  0
 19 20  1  0
 20 21  1  0
 20 22  1  0
 20 23  1  0
 19 24  1  0
 24 25  1  0
 24 26  1  0
 24 27  1  0
 15 28  2  0
 28 29  1  0
  7 30  1  0
 30 31  1  0
 31 32  1  0
 32 33  1  0
 32 34  2  0
 34 35  1  0
 35 36  2  0
 36 37  1  0
 36 38  1  0
 38 39  1  0
 38 40  2  0
 40 41  1  0
 41 42  1  0
 42 43  2  0
 42 44  1  0
 44 45  1  0
 45 46  2  0
 46 47  1  0
 46 48  1  0
 48 49  1  0
 48 50  2  0
 50 51  1  0
 50 52  1  0
 52 53  1  0
 53 54  1  0
 53 55  1  0
 53 56  1  0
 52 57  2  0
 57 58  1  0
 40 59  1  0
 59 60  1  0
 59 61  2  0
 61 62  1  0
 34 63  1  0
 63  3  1  0
 28  8  1  0
 63 30  2  0
 61 35  1  0
 57 45  1  0
M  CHG  3   4  -1  41  -1  44  -1
M  END
>  <UniqueID>  (39) 
36

>  <SMILES>  (39) 
[H]/N=c1\[n-]cc(-c2cccc(CN(C)C)c2)c2scc(-c3ccc([N-]C(=O)[N-]c4cccc(C)c4)cc3)c12

>  <Energy>  (39) 
123.75874950888587

>  <Genealogy>  (39) 
Cc1cccc([N-]C(=O)[N-]c2ccc(-c3csc4c(-c5cccc(CN(C)C)c5)c[n-]c(=N)c34)cc2)c1 (protonated)
[H]/N=c1\[n-]cc(-c2cccc(CN(C)C)c2)c2scc(-c3ccc([N-]C(=O)[N-]c4cccc(C)c4)cc3)c12 (cis-trans isomerization)
[H]/N=c1\[n-]cc(-c2cccc(CN(C)C)c2)c2scc(-c3ccc([N-]C(=O)[N-]c4cccc(C)c4)cc3)c12 (3D coordinates assigned)
[H]/N=c1\[n-]cc(-c2cccc(CN(C)C)c2)c2scc(-c3ccc([N-]C(=O)[N-]c4cccc(C)c4)cc3)c12 (optimized conformer: 123.75874950888587 kcal/mol)

>  <smiles>  (39) 
Cc1cccc(NC(=O)Nc2ccc(-c3csc4c(-c5cccc(CN(C)C)c5)c[nH]c(=N)c34)cc2)c1

>  <score_type>  (39) 
oracle

>  <origin>  (39) 
adgpu

>  <m_score__min__energy>  (39) 
-11.630000000000001

>  <m_primary>  (39) 
energy

$$$$
39:0
     RDKit          3D

 36 38  0  0  0  0  0  0  0  0999 V2000
   -9.4310   19.6770  -32.3710 C   0  0  0  0  0  0  0  0  0  0  0  0
   -8.0360   19.2510  -32.7190 C   0  0  0  0  0  0  0  0  0  0  0  0
   -7.0810   20.2040  -33.0880 C   0  0  0  0  0  0  0  0  0  0  0  0
   -5.7950   19.8060  -33.4580 C   0  0  0  0  0  0  0  0  0  0  0  0
   -5.4430   18.4470  -33.4810 C   0  0  0  0  0  0  0  0  0  0  0  0
   -3.8120   18.0000  -34.0080 S   0  0  0  0  0  0  0  0  0  0  0  0
   -3.8820   17.4580  -35.4080 O   0  0  0  0  0  0  0  0  0  0  0  0
   -3.2330   16.9380  -33.1130 O   0  0  0  0  0  0  0  0  0  0  0  0
   -2.7650   19.3820  -33.9800 N   0  0  0  0  0  0  0  0  0  0  0  0
   -2.5110   20.2030  -32.8330 C   0  0  0  0  0  0  0  0  0  0  0  0
   -1.4930   19.8230  -31.9510 C   0  0  0  0  0  0  0  0  0  0  0  0
   -1.1990   20.6050  -30.8310 C   0  0  0  0  0  0  0  0  0  0  0  0
   -1.9190   21.7750  -30.5830 C   0  0  0  0  0  0  0  0  0  0  0  0
   -2.9480   22.1730  -31.4540 C   0  0  0  0  0  0  0  0  0  0  0  0
   -3.7080   23.4140  -31.1970 C   0  0  0  0  0  0  0  0  0  0  0  0
   -3.2560   24.4500  -30.4670 N   0  0  0  0  0  0  0  0  0  0  0  0
   -4.2400   25.3330  -30.4870 N   0  0  0  0  0  0  0  0  0  0  0  0
   -5.2500   24.8600  -31.1990 N   0  0  0  0  0  0  0  0  0  0  0  0
   -4.9500   23.6570  -31.6580 N   0  0  0  0  0  0  0  0  0  0  0  0
   -3.2420   21.3780  -32.5750 C   0  0  0  0  0  0  0  0  0  0  0  0
   -6.4040   17.4760  -33.1030 C   0  0  0  0  0  0  0  0  0  0  0  0
   -6.1000   16.0000  -33.1310 C   0  0  0  0  0  0  0  0  0  0  0  0
   -7.7000   17.8900  -32.7470 C   0  0  0  0  0  0  0  0  0  0  0  0
   -9.5419   19.7109  -31.2771 H   0  0  0  0  0  0  0  0  0  0  0  0
   -9.6249   20.6753  -32.7903 H   0  0  0  0  0  0  0  0  0  0  0  0
  -10.1495   18.9573  -32.7903 H   0  0  0  0  0  0  0  0  0  0  0  0
   -7.3444   21.2720  -33.0867 H   0  0  0  0  0  0  0  0  0  0  0  0
   -5.0491   20.5657  -33.7346 H   0  0  0  0  0  0  0  0  0  0  0  0
   -0.9207   18.9029  -32.1407 H   0  0  0  0  0  0  0  0  0  0  0  0
   -0.3979   20.2978  -30.1427 H   0  0  0  0  0  0  0  0  0  0  0  0
   -1.6799   22.3884  -29.7018 H   0  0  0  0  0  0  0  0  0  0  0  0
   -4.0513   21.6769  -33.2575 H   0  0  0  0  0  0  0  0  0  0  0  0
   -6.0222   15.6221  -32.1009 H   0  0  0  0  0  0  0  0  0  0  0  0
   -6.9077   15.4692  -33.6563 H   0  0  0  0  0  0  0  0  0  0  0  0
   -5.1483   15.8315  -33.6563 H   0  0  0  0  0  0  0  0  0  0  0  0
   -8.4590   17.1373  -32.4875 H   0  0  0  0  0  0  0  0  0  0  0  0
  1  2  1  0
  2  3  2  0
  3  4  1  0
  4  5  2  0
  5  6  1  0
  6  7  2  0
  6  8  2  0
  6  9  1  0
  9 10  1  0
 10 11  2  0
 11 12  1  0
 12 13  2  0
 13 14  1  0
 14 15  1  0
 15 16  1  0
 16 17  2  0
 17 18  1  0
 18 19  1  0
 14 20  2  0
  5 21  1  0
 21 22  1  0
 21 23  2  0
 23  2  1  0
 20 10  1  0
 19 15  2  0
  1 24  1  0
  1 25  1  0
  1 26  1  0
  3 27  1  0
  4 28  1  0
 11 29  1  0
 12 30  1  0
 13 31  1  0
 20 32  1  0
 22 33  1  0
 22 34  1  0
 22 35  1  0
 23 36  1  0
M  CHG  2   9  -1  18  -1
M  END
>  <UniqueID>  (40) 
37

>  <SMILES>  (40) 
Cc1ccc(S(=O)(=O)[N-]c2cccc(-c3nn[n-]n3)c2)c(C)c1

>  <Energy>  (40) 
79.90098617962283

>  <Genealogy>  (40) 
Cc1ccc(S(=O)(=O)[N-]c2cccc(-c3nn[n-]n3)c2)c(C)c1 (protonated)
Cc1ccc(S(=O)(=O)[N-]c2cccc(-c3nn[n-]n3)c2)c(C)c1 (3D coordinates assigned)
Cc1ccc(S(=O)(=O)[N-]c2cccc(-c3nn[n-]n3)c2)c(C)c1 (optimized conformer: 79.90098617962283 kcal/mol)

>  <smiles>  (40) 
Cc1ccc(S(=O)(=O)Nc2cccc(-c3nn[nH]n3)c2)c(C)c1

>  <score_type>  (40) 
oracle

>  <origin>  (40) 
adgpu

>  <m_score__min__energy>  (40) 
-10.09

>  <m_primary>  (40) 
energy

$$$$
40:0
     RDKit          3D

 50 53  0  0  0  0  0  0  0  0999 V2000
   -0.6630   25.3630  -25.8890 C   0  0  0  0  0  0  0  0  0  0  0  0
    0.5690   25.4420  -26.7840 C   0  0  0  0  0  0  0  0  0  0  0  0
    0.4670   24.5200  -27.8690 O   0  0  0  0  0  0  0  0  0  0  0  0
   -0.7290   24.0120  -28.4010 C   0  0  0  0  0  0  0  0  0  0  0  0
   -1.1550   22.6850  -28.1920 C   0  0  0  0  0  0  0  0  0  0  0  0
   -2.3550   22.2350  -28.7480 C   0  0  0  0  0  0  0  0  0  0  0  0
   -3.1460   23.0950  -29.5270 C   0  0  0  0  0  0  0  0  0  0  0  0
   -4.4220   22.6140  -30.0920 C   0  0  0  0  0  0  0  0  0  0  0  0
   -5.5830   23.3050  -29.9890 N   0  0  0  0  0  0  0  0  0  0  0  0
   -6.4930   22.4910  -30.5630 C   0  0  0  0  0  0  0  0  0  0  0  0
   -7.8440   22.7810  -30.7430 C   0  0  0  0  0  0  0  0  0  0  0  0
   -8.6310   21.8330  -31.4170 C   0  0  0  0  0  0  0  0  0  0  0  0
   -8.0550   20.6370  -31.8910 C   0  0  0  0  0  0  0  0  0  0  0  0
   -9.0310   19.4700  -32.7630 Cl  0  0  0  0  0  0  0  0  0  0  0  0
   -6.6910   20.3960  -31.6760 C   0  0  0  0  0  0  0  0  0  0  0  0
   -5.9700   21.3360  -31.0100 N   0  0  0  0  0  0  0  0  0  0  0  0
   -4.6600   21.3970  -30.7260 C   0  0  0  0  0  0  0  0  0  0  0  0
   -3.6940   20.4430  -31.1930 N   0  0  0  0  0  0  0  0  0  0  0  0
   -2.6870   20.7470  -32.2150 C   0  0  0  0  0  0  0  0  0  0  0  0
   -3.1890   20.4390  -33.6360 C   0  0  0  0  0  0  0  0  0  0  0  0
   -4.0150   19.1770  -33.6940 C   0  0  0  0  0  0  0  0  0  0  0  0
   -5.3250   19.2090  -34.2020 C   0  0  0  0  0  0  0  0  0  0  0  0
   -6.1020   18.0460  -34.2210 C   0  0  0  0  0  0  0  0  0  0  0  0
   -5.5760   16.8450  -33.7410 C   0  0  0  0  0  0  0  0  0  0  0  0
   -4.2700   16.8010  -33.2470 C   0  0  0  0  0  0  0  0  0  0  0  0
   -3.4890   17.9620  -33.2250 C   0  0  0  0  0  0  0  0  0  0  0  0
   -2.7320   24.4240  -29.7200 C   0  0  0  0  0  0  0  0  0  0  0  0
   -3.4980   25.3030  -30.4790 O   0  0  0  0  0  0  0  0  0  0  0  0
   -1.5310   24.8720  -29.1590 C   0  0  0  0  0  0  0  0  0  0  0  0
   -0.3518   25.3830  -24.8341 H   0  0  0  0  0  0  0  0  0  0  0  0
   -1.3205   26.2208  -26.0936 H   0  0  0  0  0  0  0  0  0  0  0  0
   -1.2055   24.4282  -26.0936 H   0  0  0  0  0  0  0  0  0  0  0  0
    0.6587   26.4624  -27.1850 H   0  0  0  0  0  0  0  0  0  0  0  0
    1.4562   25.1863  -26.1861 H   0  0  0  0  0  0  0  0  0  0  0  0
   -0.5402   22.0009  -27.5887 H   0  0  0  0  0  0  0  0  0  0  0  0
   -2.6827   21.1994  -28.5743 H   0  0  0  0  0  0  0  0  0  0  0  0
   -8.2790   23.7200  -30.3701 H   0  0  0  0  0  0  0  0  0  0  0  0
   -9.7024   22.0248  -31.5758 H   0  0  0  0  0  0  0  0  0  0  0  0
   -6.2170   19.4711  -32.0365 H   0  0  0  0  0  0  0  0  0  0  0  0
   -3.8490   19.4370  -30.9590 H   0  0  0  0  0  0  0  0  0  0  0  0
   -2.4313   21.8151  -32.1535 H   0  0  0  0  0  0  0  0  0  0  0  0
   -1.8089   20.1130  -32.0226 H   0  0  0  0  0  0  0  0  0  0  0  0
   -3.8059   21.2811  -33.9829 H   0  0  0  0  0  0  0  0  0  0  0  0
   -2.3081   20.2929  -34.2784 H   0  0  0  0  0  0  0  0  0  0  0  0
   -5.7409   20.1521  -34.5861 H   0  0  0  0  0  0  0  0  0  0  0  0
   -7.1287   18.0777  -34.6146 H   0  0  0  0  0  0  0  0  0  0  0  0
   -6.1905   15.9327  -33.7518 H   0  0  0  0  0  0  0  0  0  0  0  0
   -3.8551   15.8527  -32.8749 H   0  0  0  0  0  0  0  0  0  0  0  0
   -2.4597   17.9229  -32.8391 H   0  0  0  0  0  0  0  0  0  0  0  0
   -1.2134   25.9134  -29.3159 H   0  0  0  0  0  0  0  0  0  0  0  0
  1  2  1  0
  2  3  1  0
  3  4  1  0
  4  5  2  0
  5  6  1  0
  6  7  2  0
  7  8  1  0
  8  9  1  0
  9 10  2  0
 10 11  1  0
 11 12  2  0
 12 13  1  0
 13 14  1  0
 13 15  2  0
 15 16  1  0
 16 17  1  0
 17 18  1  0
 18 19  1  0
 19 20  1  0
 20 21  1  0
 21 22  2  0
 22 23  1  0
 23 24  2  0
 24 25  1  0
 25 26  2  0
  7 27  1  0
 27 28  1  0
 27 29  2  0
 29  4  1  0
 17  8  2  0
 26 21  1  0
 16 10  1  0
  1 30  1  0
  1 31  1  0
  1 32  1  0
  2 33  1  0
  2 34  1  0
  5 35  1  0
  6 36  1  0
 11 37  1  0
 12 38  1  0
 15 39  1  0
 18 40  1  0
 19 41  1  0
 19 42  1  0
 20 43  1  0
 20 44  1  0
 22 45  1  0
 23 46  1  0
 24 47  1  0
 25 48  1  0
 26 49  1  0
 29 50  1  0
M  CHG  1  28  -1
M  END
>  <UniqueID>  (41) 
38

>  <SMILES>  (41) 
CCOc1ccc(-c2nc3ccc(Cl)cn3c2NCCc2ccccc2)c([O-])c1

>  <Energy>  (41) 
89.78191793835722

>  <Genealogy>  (41) 
CCOc1ccc(-c2nc3ccc(Cl)cn3c2NCCc2ccccc2)c([O-])c1 (protonated)
CCOc1ccc(-c2nc3ccc(Cl)cn3c2NCCc2ccccc2)c([O-])c1 (3D coordinates assigned)
CCOc1ccc(-c2nc3ccc(Cl)cn3c2NCCc2ccccc2)c([O-])c1 (optimized conformer: 89.78191793835722 kcal/mol)

>  <smiles>  (41) 
CCOc1ccc(-c2nc3ccc(Cl)cn3c2NCCc2ccccc2)c(O)c1

>  <score_type>  (41) 
oracle

>  <origin>  (41) 
adgpu

>  <m_score__min__energy>  (41) 
-11.289999999999999

>  <m_primary>  (41) 
energy

$$$$
41:0
     RDKit          3D

 54 57  0  0  0  0  0  0  0  0999 V2000
   -9.0720   21.5470  -30.4710 C   0  0  0  0  0  0  0  0  0  0  0  0
   -7.8830   22.3540  -30.8980 C   0  0  0  0  0  0  0  0  0  0  0  0
   -7.8780   23.0030  -32.1430 C   0  0  0  0  0  0  0  0  0  0  0  0
   -6.7800   23.7770  -32.5280 C   0  0  0  0  0  0  0  0  0  0  0  0
   -5.6900   23.9260  -31.6660 C   0  0  0  0  0  0  0  0  0  0  0  0
   -5.7010   23.3180  -30.4020 C   0  0  0  0  0  0  0  0  0  0  0  0
   -4.5790   23.4490  -29.5170 N   0  0  0  0  0  0  0  0  0  0  0  0
   -4.5480   24.3340  -28.5320 N   0  0  0  0  0  0  0  0  0  0  0  0
   -3.3740   24.1880  -27.8920 C   0  0  0  0  0  0  0  0  0  0  0  0
   -2.9830   24.9650  -26.6810 C   0  0  0  0  0  0  0  0  0  0  0  0
   -2.6380   23.1740  -28.4730 C   0  0  0  0  0  0  0  0  0  0  0  0
   -3.4290   22.7300  -29.5180 C   0  0  0  0  0  0  0  0  0  0  0  0
   -3.0260   21.6930  -30.5470 C   0  0  2  0  0  0  0  0  0  0  0  0
   -2.9840   22.3090  -31.9610 C   0  0  0  0  0  0  0  0  0  0  0  0
   -3.2120   21.2320  -33.0230 C   0  0  0  0  0  0  0  0  0  0  0  0
   -4.5830   20.6810  -32.9180 N   0  0  1  0  0  0  0  0  0  0  0  0
   -4.7240   19.5120  -33.7710 C   0  0  0  0  0  0  0  0  0  0  0  0
   -3.7620   19.1260  -34.4230 O   0  0  0  0  0  0  0  0  0  0  0  0
   -6.0340   18.7470  -33.8650 C   0  0  1  0  0  0  0  0  0  0  0  0
   -6.1020   17.5710  -32.9320 C   0  0  0  0  0  0  0  0  0  0  0  0
   -7.5860   17.4700  -32.6330 C   0  0  0  0  0  0  0  0  0  0  0  0
   -8.2110   18.7070  -32.9020 O   0  0  0  0  0  0  0  0  0  0  0  0
   -7.2370   19.5720  -33.4410 C   0  0  0  0  0  0  0  0  0  0  0  0
   -5.0470   20.4170  -31.5250 C   0  0  0  0  0  0  0  0  0  0  0  0
   -3.9220   20.4300  -30.4710 C   0  0  0  0  0  0  0  0  0  0  0  0
   -6.7940   22.5220  -30.0290 C   0  0  0  0  0  0  0  0  0  0  0  0
   -9.1184   21.5155  -29.3724 H   0  0  0  0  0  0  0  0  0  0  0  0
   -9.9894   22.0098  -30.8636 H   0  0  0  0  0  0  0  0  0  0  0  0
   -8.9806   20.5235  -30.8636 H   0  0  0  0  0  0  0  0  0  0  0  0
   -8.7411   22.9019  -32.8175 H   0  0  0  0  0  0  0  0  0  0  0  0
   -6.7736   24.2699  -33.5114 H   0  0  0  0  0  0  0  0  0  0  0  0
   -4.8205   24.5221  -31.9799 H   0  0  0  0  0  0  0  0  0  0  0  0
   -3.2655   24.4037  -25.7782 H   0  0  0  0  0  0  0  0  0  0  0  0
   -1.8952   25.1286  -26.6857 H   0  0  0  0  0  0  0  0  0  0  0  0
   -3.4998   25.9360  -26.6857 H   0  0  0  0  0  0  0  0  0  0  0  0
   -1.6469   22.8031  -28.1728 H   0  0  0  0  0  0  0  0  0  0  0  0
   -2.0054   21.3569  -30.3115 H   0  0  0  0  0  0  0  0  0  0  0  0
   -3.7706   23.0733  -32.0462 H   0  0  0  0  0  0  0  0  0  0  0  0
   -1.9948   22.7624  -32.1216 H   0  0  0  0  0  0  0  0  0  0  0  0
   -3.0748   21.6733  -34.0212 H   0  0  0  0  0  0  0  0  0  0  0  0
   -2.4888   20.4183  -32.8651 H   0  0  0  0  0  0  0  0  0  0  0  0
   -5.2190   21.4200  -33.3070 H   0  0  0  0  0  0  0  0  0  0  0  0
   -6.0612   18.4561  -34.9255 H   0  0  0  0  0  0  0  0  0  0  0  0
   -5.7320   16.6564  -33.4185 H   0  0  0  0  0  0  0  0  0  0  0  0
   -5.4818   17.6910  -32.0315 H   0  0  0  0  0  0  0  0  0  0  0  0
   -8.0340   16.6890  -33.2649 H   0  0  0  0  0  0  0  0  0  0  0  0
   -7.7273   17.2135  -31.5727 H   0  0  0  0  0  0  0  0  0  0  0  0
   -7.6513   20.0979  -34.3138 H   0  0  0  0  0  0  0  0  0  0  0  0
   -6.9357   20.3137  -32.6866 H   0  0  0  0  0  0  0  0  0  0  0  0
   -5.7823   21.1890  -31.2542 H   0  0  0  0  0  0  0  0  0  0  0  0
   -5.4726   19.4027  -31.5205 H   0  0  0  0  0  0  0  0  0  0  0  0
   -4.3793   20.3858  -29.4715 H   0  0  0  0  0  0  0  0  0  0  0  0
   -3.2780   19.5608  -30.6706 H   0  0  0  0  0  0  0  0  0  0  0  0
   -6.7976   22.0255  -29.0475 H   0  0  0  0  0  0  0  0  0  0  0  0
  1  2  1  0
  2  3  2  0
  3  4  1  0
  4  5  2  0
  5  6  1  0
  6  7  1  0
  7  8  1  0
  8  9  2  0
  9 10  1  0
  9 11  1  0
 11 12  2  0
 12 13  1  0
 13 14  1  0
 14 15  1  0
 15 16  1  0
 16 17  1  0
 17 18  2  0
 17 19  1  0
 19 20  1  0
 20 21  1  0
 21 22  1  0
 22 23  1  0
 16 24  1  0
 24 25  1  0
  6 26  2  0
 26  2  1  0
 12  7  1  0
 25 13  1  0
 23 19  1  0
  1 27  1  0
  1 28  1  0
  1 29  1  0
  3 30  1  0
  4 31  1  0
  5 32  1  0
 10 33  1  0
 10 34  1  0
 10 35  1  0
 11 36  1  0
 13 37  1  1
 14 38  1  0
 14 39  1  0
 15 40  1  0
 15 41  1  0
 16 42  1  6
 19 43  1  6
 20 44  1  0
 20 45  1  0
 21 46  1  0
 21 47  1  0
 23 48  1  0
 23 49  1  0
 24 50  1  0
 24 51  1  0
 25 52  1  0
 25 53  1  0
 26 54  1  0
M  CHG  1  16   1
M  END
>  <UniqueID>  (42) 
39

>  <SMILES>  (42) 
Cc1cccc(-n2nc(C)cc2C2CC[NH+](C(=O)[C@H]3CCOC3)CC2)c1

>  <Energy>  (42) 
99.56872898811365

>  <Genealogy>  (42) 
Cc1cccc(-n2nc(C)cc2C2CC[NH+](C(=O)C3CCOC3)CC2)c1 (protonated)
Cc1cccc(-n2nc(C)cc2C2CC[NH+](C(=O)[C@H]3CCOC3)CC2)c1 (chirality)
Cc1cccc(-n2nc(C)cc2C2CC[NH+](C(=O)[C@H]3CCOC3)CC2)c1 (3D coordinates assigned)
Cc1cccc(-n2nc(C)cc2C2CC[NH+](C(=O)[C@H]3CCOC3)CC2)c1 (nonaromatic ring conformer: 99.56872898811365 kcal/mol)

>  <smiles>  (42) 
Cc1cccc(-n2nc(C)cc2C2CCN(C(=O)C3CCOC3)CC2)c1

>  <score_type>  (42) 
oracle

>  <origin>  (42) 
adgpu

>  <m_score__min__energy>  (42) 
-8.1099999999999994

>  <m_primary>  (42) 
energy

$$$$
42:0
     RDKit          3D

 39 42  0  0  0  0  0  0  0  0999 V2000
   -0.3750   22.2020  -34.9780 N   0  0  0  0  0  0  0  0  0  0  0  0
   -0.2850   20.6670  -34.1870 S   0  0  0  0  0  0  0  0  0  0  0  0
    1.1220   20.4390  -33.7080 O   0  0  0  0  0  0  0  0  0  0  0  0
   -0.6480   19.5770  -35.1580 O   0  0  0  0  0  0  0  0  0  0  0  0
   -1.4050   20.6410  -32.8310 C   0  0  0  0  0  0  0  0  0  0  0  0
   -0.9450   20.4280  -31.5230 C   0  0  0  0  0  0  0  0  0  0  0  0
   -1.8410   20.4660  -30.4500 C   0  0  0  0  0  0  0  0  0  0  0  0
   -3.1950   20.7270  -30.6760 C   0  0  0  0  0  0  0  0  0  0  0  0
   -3.6650   20.9330  -31.9800 C   0  0  0  0  0  0  0  0  0  0  0  0
   -5.0430   21.2760  -32.2090 N   0  0  0  0  0  0  0  0  0  0  0  0
   -6.0150   20.4380  -32.6480 C   0  0  0  0  0  0  0  0  0  0  0  0
   -5.8240   19.0170  -33.0220 C   0  0  0  0  0  0  0  0  0  0  0  0
   -5.5490   18.6520  -34.3520 C   0  0  0  0  0  0  0  0  0  0  0  0
   -5.3430   17.3110  -34.6870 C   0  0  0  0  0  0  0  0  0  0  0  0
   -5.4250   16.3230  -33.7040 C   0  0  0  0  0  0  0  0  0  0  0  0
   -5.7200   16.6730  -32.3840 C   0  0  0  0  0  0  0  0  0  0  0  0
   -5.9240   18.0140  -32.0430 C   0  0  0  0  0  0  0  0  0  0  0  0
   -7.2280   21.1030  -32.6940 C   0  0  0  0  0  0  0  0  0  0  0  0
   -6.9870   22.3940  -32.2740 C   0  0  0  0  0  0  0  0  0  0  0  0
   -5.6390   22.4710  -31.9730 C   0  0  0  0  0  0  0  0  0  0  0  0
   -4.9950   23.6630  -31.3870 C   0  0  0  0  0  0  0  0  0  0  0  0
   -5.5310   24.8960  -31.3550 N   0  0  0  0  0  0  0  0  0  0  0  0
   -4.6100   25.6510  -30.7780 N   0  0  0  0  0  0  0  0  0  0  0  0
   -3.5540   24.9130  -30.4760 N   0  0  0  0  0  0  0  0  0  0  0  0
   -3.7610   23.6610  -30.8480 N   0  0  0  0  0  0  0  0  0  0  0  0
   -2.7650   20.8850  -33.0550 C   0  0  0  0  0  0  0  0  0  0  0  0
   -0.4610   22.0150  -36.0020 H   0  0  0  0  0  0  0  0  0  0  0  0
   -1.2720   22.6460  -34.6790 H   0  0  0  0  0  0  0  0  0  0  0  0
    0.1218   20.2308  -31.3411 H   0  0  0  0  0  0  0  0  0  0  0  0
   -1.4792   20.2901  -29.4262 H   0  0  0  0  0  0  0  0  0  0  0  0
   -3.8940   20.7709  -29.8278 H   0  0  0  0  0  0  0  0  0  0  0  0
   -5.4958   19.4256  -35.1322 H   0  0  0  0  0  0  0  0  0  0  0  0
   -5.1159   17.0334  -35.7269 H   0  0  0  0  0  0  0  0  0  0  0  0
   -5.2573   15.2686  -33.9689 H   0  0  0  0  0  0  0  0  0  0  0  0
   -5.7919   15.8928  -31.6119 H   0  0  0  0  0  0  0  0  0  0  0  0
   -6.1637   18.2846  -31.0041 H   0  0  0  0  0  0  0  0  0  0  0  0
   -8.1960   20.6832  -33.0051 H   0  0  0  0  0  0  0  0  0  0  0  0
   -7.7245   23.2062  -32.1937 H   0  0  0  0  0  0  0  0  0  0  0  0
   -3.1305   21.0401  -34.0808 H   0  0  0  0  0  0  0  0  0  0  0  0
  1  2  1  0
  2  3  2  0
  2  4  2  0
  2  5  1  0
  5  6  2  0
  6  7  1  0
  7  8  2  0
  8  9  1  0
  9 10  1  0
 10 11  1  0
 11 12  1  0
 12 13  2  0
 13 14  1  0
 14 15  2  0
 15 16  1  0
 16 17  2  0
 11 18  2  0
 18 19  1  0
 19 20  2  0
 20 21  1  0
 21 22  1  0
 22 23  2  0
 23 24  1  0
 24 25  1  0
  9 26  2  0
 26  5  1  0
 20 10  1  0
 25 21  2  0
 17 12  1  0
  1 27  1  0
  1 28  1  0
  6 29  1  0
  7 30  1  0
  8 31  1  0
 13 32  1  0
 14 33  1  0
 15 34  1  0
 16 35  1  0
 17 36  1  0
 18 37  1  0
 19 38  1  0
 26 39  1  0
M  CHG  1  24  -1
M  END
>  <UniqueID>  (43) 
40

>  <SMILES>  (43) 
NS(=O)(=O)c1cccc(-n2c(-c3ccccc3)ccc2-c2nn[n-]n2)c1

>  <Energy>  (43) 
116.70606098868356

>  <Genealogy>  (43) 
NS(=O)(=O)c1cccc(-n2c(-c3ccccc3)ccc2-c2nn[n-]n2)c1 (protonated)
NS(=O)(=O)c1cccc(-n2c(-c3ccccc3)ccc2-c2nn[n-]n2)c1 (3D coordinates assigned)
NS(=O)(=O)c1cccc(-n2c(-c3ccccc3)ccc2-c2nn[n-]n2)c1 (optimized conformer: 116.70606098868356 kcal/mol)

>  <smiles>  (43) 
NS(=O)(=O)c1cccc(-n2c(-c3ccccc3)ccc2-c2nn[nH]n2)c1

>  <score_type>  (43) 
oracle

>  <origin>  (43) 
adgpu

>  <m_score__min__energy>  (43) 
-11.34

>  <m_primary>  (43) 
energy

$$$$
43:0
     RDKit          3D

 28 29  0  0  0  0  0  0  0  0999 V2000
   -5.5326   24.9885  -31.5972 H   0  0  0  0  0  0  0  0  0  0  0  0
   -5.8560   23.9530  -31.4150 C   0  0  0  0  0  0  0  0  0  0  0  0
   -5.5090   23.3530  -30.1070 C   0  0  0  0  0  0  0  0  0  0  0  0
   -6.4130   22.7440  -29.4750 O   0  0  0  0  0  0  0  0  0  0  0  0
   -4.1670   23.5020  -29.4880 C   0  0  0  0  0  0  0  0  0  0  0  0
   -3.6540   22.4850  -28.6630 C   0  0  0  0  0  0  0  0  0  0  0  0
   -4.2420   21.5709  -28.4936 H   0  0  0  0  0  0  0  0  0  0  0  0
   -2.4030   22.6270  -28.0570 C   0  0  0  0  0  0  0  0  0  0  0  0
   -2.0141   21.8290  -27.4075 H   0  0  0  0  0  0  0  0  0  0  0  0
   -1.6460   23.7790  -28.2740 C   0  0  0  0  0  0  0  0  0  0  0  0
   -0.4030   23.9120  -27.6660 O   0  0  0  0  0  0  0  0  0  0  0  0
   -2.1360   24.7930  -29.1040 C   0  0  0  0  0  0  0  0  0  0  0  0
   -1.3770   25.9380  -29.3210 O   0  0  0  0  0  0  0  0  0  0  0  0
   -3.3920   24.6580  -29.7120 C   0  0  0  0  0  0  0  0  0  0  0  0
   -3.8700   25.6870  -30.5180 O   0  0  0  0  0  0  0  0  0  0  0  0
   -6.5330   23.3370  -32.3970 C   0  0  0  0  0  0  0  0  0  0  0  0
   -6.6221   23.8630  -33.3590 H   0  0  0  0  0  0  0  0  0  0  0  0
   -7.1680   22.0070  -32.2860 C   0  0  0  0  0  0  0  0  0  0  0  0
   -8.4660   21.8590  -31.7660 C   0  0  0  0  0  0  0  0  0  0  0  0
   -9.0302   22.7452  -31.4399 H   0  0  0  0  0  0  0  0  0  0  0  0
   -9.0420   20.5890  -31.6620 C   0  0  0  0  0  0  0  0  0  0  0  0
  -10.0502   20.4763  -31.2367 H   0  0  0  0  0  0  0  0  0  0  0  0
   -8.3380   19.4620  -32.0980 C   0  0  0  0  0  0  0  0  0  0  0  0
   -8.9140   18.2020  -31.9880 O   0  0  0  0  0  0  0  0  0  0  0  0
   -7.0590   19.6060  -32.6480 C   0  0  0  0  0  0  0  0  0  0  0  0
   -6.3590   18.4900  -33.0910 O   0  0  0  0  0  0  0  0  0  0  0  0
   -6.4820   20.8770  -32.7520 C   0  0  0  0  0  0  0  0  0  0  0  0
   -5.4846   20.9897  -33.2020 H   0  0  0  0  0  0  0  0  0  0  0  0
  1  2  1  0
  2  3  1  0
  3  4  2  0
  3  5  1  0
  5  6  2  0
  6  7  1  0
  6  8  1  0
  8  9  1  0
  8 10  2  0
 10 11  1  0
 10 12  1  0
 12 13  1  0
 12 14  2  0
 14 15  1  0
  2 16  2  0
 16 17  1  0
 16 18  1  0
 18 19  2  0
 19 20  1  0
 19 21  1  0
 21 22  1  0
 21 23  2  0
 23 24  1  0
 23 25  1  0
 25 26  1  0
 25 27  2  0
 27 28  1  0
 14  5  1  0
 27 18  1  0
M  CHG  5  11  -1  13  -1  15  -1  24  -1  26  -1
M  END
>  <UniqueID>  (44) 
41

>  <SMILES>  (44) 
O=C(/C=C\c1ccc([O-])c([O-])c1)c1ccc([O-])c([O-])c1[O-]

>  <Energy>  (44) 
41.120854141412366

>  <Genealogy>  (44) 
O=C(C=Cc1ccc([O-])c([O-])c1)c1ccc([O-])c([O-])c1[O-] (protonated)
O=C(/C=C\c1ccc([O-])c([O-])c1)c1ccc([O-])c([O-])c1[O-] (cis-trans isomerization)
O=C(/C=C\c1ccc([O-])c([O-])c1)c1ccc([O-])c([O-])c1[O-] (3D coordinates assigned)
O=C(/C=C\c1ccc([O-])c([O-])c1)c1ccc([O-])c([O-])c1[O-] (optimized conformer: 41.120854141412366 kcal/mol)

>  <smiles>  (44) 
O=C(C=Cc1ccc(O)c(O)c1)c1ccc(O)c(O)c1O

>  <score_type>  (44) 
oracle

>  <origin>  (44) 
adgpu

>  <m_score__min__energy>  (44) 
-13.640000000000001

>  <m_primary>  (44) 
energy

$$$$
44:0
     RDKit          3D

 45 48  0  0  0  0  0  0  0  0999 V2000
   -5.0880   26.9740  -29.9280 H   0  0  0  0  0  0  0  0  0  0  0  0
   -5.3430   26.1350  -30.4970 N   0  0  0  0  0  0  0  0  0  0  0  0
   -4.6420   25.0470  -30.4730 C   0  0  0  0  0  0  0  0  0  0  0  0
   -5.0220   23.9930  -31.2380 N   0  0  0  0  0  0  0  0  0  0  0  0
   -4.2990   22.8450  -31.2420 C   0  0  0  0  0  0  0  0  0  0  0  0
   -4.7150   21.6980  -32.0890 C   0  0  0  0  0  0  0  0  0  0  0  0
   -6.0790   21.4370  -32.3230 C   0  0  0  0  0  0  0  0  0  0  0  0
   -6.8441   22.0880  -31.8749 H   0  0  0  0  0  0  0  0  0  0  0  0
   -6.4680   20.3560  -33.1210 C   0  0  0  0  0  0  0  0  0  0  0  0
   -7.5360   20.1599  -33.2969 H   0  0  0  0  0  0  0  0  0  0  0  0
   -5.5030   19.5250  -33.6950 C   0  0  0  0  0  0  0  0  0  0  0  0
   -5.8830   18.4780  -34.4680 F   0  0  0  0  0  0  0  0  0  0  0  0
   -4.1470   19.7730  -33.4710 C   0  0  0  0  0  0  0  0  0  0  0  0
   -3.3876   19.1178  -33.9227 H   0  0  0  0  0  0  0  0  0  0  0  0
   -3.7520   20.8520  -32.6740 C   0  0  0  0  0  0  0  0  0  0  0  0
   -2.6821   21.0416  -32.5026 H   0  0  0  0  0  0  0  0  0  0  0  0
   -3.1890   22.7570  -30.4630 N   0  0  0  0  0  0  0  0  0  0  0  0
   -2.8030   23.7940  -29.6780 C   0  0  0  0  0  0  0  0  0  0  0  0
   -1.7270   23.6580  -28.9550 N   0  0  0  0  0  0  0  0  0  0  0  0
   -1.2060   24.5830  -27.9880 C   0  0  0  0  0  0  0  0  0  0  0  0
   -0.8630   25.8920  -28.3460 C   0  0  0  0  0  0  0  0  0  0  0  0
   -0.9498   26.2121  -29.3948 H   0  0  0  0  0  0  0  0  0  0  0  0
   -0.4110   26.7950  -27.3800 C   0  0  0  0  0  0  0  0  0  0  0  0
   -0.1260   27.8135  -27.6825 H   0  0  0  0  0  0  0  0  0  0  0  0
   -0.3140   26.4200  -26.0180 C   0  0  0  0  0  0  0  0  0  0  0  0
    0.1620   27.3600  -25.0060 N   0  0  0  0  0  0  0  0  0  0  0  0
    0.6630   26.8410  -23.7140 C   0  0  0  0  0  0  0  0  0  0  0  0
   -0.1274   26.2287  -23.2554 H   0  0  0  0  0  0  0  0  0  0  0  0
    1.5709   26.2590  -23.9308 H   0  0  0  0  0  0  0  0  0  0  0  0
    1.0600   27.9390  -22.7240 C   0  0  0  0  0  0  0  0  0  0  0  0
    0.1577   28.3057  -22.2127 H   0  0  0  0  0  0  0  0  0  0  0  0
    1.7696   27.5161  -21.9976 H   0  0  0  0  0  0  0  0  0  0  0  0
    1.6830   29.0140  -23.3860 O   0  0  0  0  0  0  0  0  0  0  0  0
    0.7170   29.6710  -24.1690 C   0  0  0  0  0  0  0  0  0  0  0  0
   -0.1578   29.9008  -23.5430 H   0  0  0  0  0  0  0  0  0  0  0  0
    1.1592   30.5958  -24.5679 H   0  0  0  0  0  0  0  0  0  0  0  0
    0.2750   28.7950  -25.3450 C   0  0  0  0  0  0  0  0  0  0  0  0
   -0.7072   29.1486  -25.6918 H   0  0  0  0  0  0  0  0  0  0  0  0
    1.0498   28.8826  -26.1209 H   0  0  0  0  0  0  0  0  0  0  0  0
   -0.6960   25.1010  -25.6750 C   0  0  0  0  0  0  0  0  0  0  0  0
   -0.6358   24.7762  -24.6258 H   0  0  0  0  0  0  0  0  0  0  0  0
   -1.1480   24.2050  -26.6460 C   0  0  0  0  0  0  0  0  0  0  0  0
   -1.4610   23.1927  -26.3505 H   0  0  0  0  0  0  0  0  0  0  0  0
   -3.5260   24.9540  -29.6950 N   0  0  0  0  0  0  0  0  0  0  0  0
   -3.2210   25.7910  -29.1520 H   0  0  0  0  0  0  0  0  0  0  0  0
  1  2  1  0
  2  3  2  0
  3  4  1  0
  4  5  2  0
  5  6  1  0
  6  7  2  0
  7  8  1  0
  7  9  1  0
  9 10  1  0
  9 11  2  0
 11 12  1  0
 11 13  1  0
 13 14  1  0
 13 15  2  0
 15 16  1  0
  5 17  1  0
 17 18  1  0
 18 19  2  0
 19 20  1  0
 20 21  2  0
 21 22  1  0
 21 23  1  0
 23 24  1  0
 23 25  2  0
 25 26  1  0
 26 27  1  0
 27 28  1  0
 27 29  1  0
 27 30  1  0
 30 31  1  0
 30 32  1  0
 30 33  1  0
 33 34  1  0
 34 35  1  0
 34 36  1  0
 34 37  1  0
 37 38  1  0
 37 39  1  0
 25 40  1  0
 40 41  1  0
 40 42  2  0
 42 43  1  0
 18 44  1  0
 44 45  1  0
 44  3  1  0
 15  6  1  0
 42 20  1  0
 37 26  1  0
M  CHG  1  17  -1
M  END
>  <UniqueID>  (45) 
42

>  <SMILES>  (45) 
[H]/N=c1/nc(-c2ccc(F)cc2)[n-]/c(=N/c2ccc(N3CCOCC3)cc2)[nH]1

>  <Energy>  (45) 
67.5273617241546

>  <Genealogy>  (45) 
N=c1nc(-c2ccc(F)cc2)[n-]c(=Nc2ccc(N3CCOCC3)cc2)[nH]1 (protonated)
[H]/N=c1/nc(-c2ccc(F)cc2)[n-]/c(=N/c2ccc(N3CCOCC3)cc2)[nH]1 (cis-trans isomerization)
[H]/N=c1/nc(-c2ccc(F)cc2)[n-]/c(=N/c2ccc(N3CCOCC3)cc2)[nH]1 (3D coordinates assigned)
[H]/N=c1/nc(-c2ccc(F)cc2)[n-]/c(=N/c2ccc(N3CCOCC3)cc2)[nH]1 (nonaromatic ring conformer: 67.5273617241546 kcal/mol)

>  <smiles>  (45) 
N=c1nc(-c2ccc(F)cc2)[nH]c(=Nc2ccc(N3CCOCC3)cc2)[nH]1

>  <score_type>  (45) 
oracle

>  <origin>  (45) 
adgpu

>  <m_score__min__energy>  (45) 
-8.8000000000000007

>  <m_primary>  (45) 
energy

$$$$
45:0
     RDKit          3D

 59 64  0  0  0  0  0  0  0  0999 V2000
   -0.4560   26.8320  -22.9940 C   0  0  0  0  0  0  0  0  0  0  0  0
   -0.6840   26.6980  -24.4610 C   0  0  0  0  0  0  0  0  0  0  0  0
   -0.0810   27.4590  -25.4400 C   0  0  0  0  0  0  0  0  0  0  0  0
   -0.5900   27.0000  -26.6370 C   0  0  0  0  0  0  0  0  0  0  0  0
   -1.4780   25.9840  -26.3090 C   0  0  0  0  0  0  0  0  0  0  0  0
   -2.2860   25.1680  -27.2460 C   0  0  0  0  0  0  0  0  0  0  0  0
   -3.4660   24.5560  -26.7910 C   0  0  0  0  0  0  0  0  0  0  0  0
   -4.2410   23.7770  -27.6540 C   0  0  0  0  0  0  0  0  0  0  0  0
   -3.8420   23.5840  -28.9840 C   0  0  0  0  0  0  0  0  0  0  0  0
   -4.6440   22.8030  -29.8830 N   0  0  0  0  0  0  0  0  0  0  0  0
   -5.9380   23.0170  -30.0650 N   0  0  0  0  0  0  0  0  0  0  0  0
   -6.3740   22.1750  -31.0260 C   0  0  0  0  0  0  0  0  0  0  0  0
   -7.7140   22.3070  -31.6150 C   0  0  0  0  0  0  0  0  0  0  0  0
   -8.2490   23.4710  -32.0320 N   0  0  0  0  0  0  0  0  0  0  0  0
   -9.5090   23.1850  -32.3330 N   0  0  0  0  0  0  0  0  0  0  0  0
   -9.7560   21.9060  -32.0910 N   0  0  0  0  0  0  0  0  0  0  0  0
   -8.6490   21.3410  -31.6430 N   0  0  0  0  0  0  0  0  0  0  0  0
   -8.5450   19.9620  -31.1830 C   0  0  0  0  0  0  0  0  0  0  0  0
   -5.3030   21.3940  -31.4630 C   0  0  0  0  0  0  0  0  0  0  0  0
   -4.2300   21.8330  -30.7250 C   0  0  0  0  0  0  0  0  0  0  0  0
   -2.8150   21.5590  -31.1500 C   0  0  0  0  0  0  0  0  0  0  0  0
   -2.6980   20.1810  -31.8280 C   0  0  0  0  0  0  0  0  0  0  0  0
   -3.8570   19.8470  -32.7550 C   0  0  0  0  0  0  0  0  0  0  0  0
   -3.6670   18.8800  -33.7550 C   0  0  0  0  0  0  0  0  0  0  0  0
   -4.7480   18.3940  -34.5040 C   0  0  0  0  0  0  0  0  0  0  0  0
   -4.5030   17.4100  -35.5260 N   0  0  0  0  0  0  0  0  0  0  0  0
   -3.4870   16.0170  -35.3260 S   0  0  0  0  0  0  0  0  0  0  0  0
   -4.2650   14.8410  -34.2390 C   0  0  0  0  0  0  0  0  0  0  0  0
   -2.1870   16.4500  -34.7080 O   0  0  0  0  0  0  0  0  0  0  0  0
   -3.2000   15.3900  -36.6610 O   0  0  0  0  0  0  0  0  0  0  0  0
   -6.0400   18.8670  -34.2180 C   0  0  0  0  0  0  0  0  0  0  0  0
   -6.2420   19.8210  -33.2190 C   0  0  0  0  0  0  0  0  0  0  0  0
   -5.1550   20.3560  -32.5100 C   0  0  0  0  0  0  0  0  0  0  0  0
   -2.6790   24.2120  -29.4500 C   0  0  0  0  0  0  0  0  0  0  0  0
   -1.9020   24.9920  -28.5880 C   0  0  0  0  0  0  0  0  0  0  0  0
   -1.5090   25.8340  -25.0030 O   0  0  0  0  0  0  0  0  0  0  0  0
   -1.2798   26.3478  -22.4492 H   0  0  0  0  0  0  0  0  0  0  0  0
    0.4951   26.3492  -22.7251 H   0  0  0  0  0  0  0  0  0  0  0  0
   -0.4150   27.8979  -22.7251 H   0  0  0  0  0  0  0  0  0  0  0  0
    0.6536   28.2650  -25.2962 H   0  0  0  0  0  0  0  0  0  0  0  0
   -0.3430   27.3642  -27.6451 H   0  0  0  0  0  0  0  0  0  0  0  0
   -3.7825   24.6913  -25.7462 H   0  0  0  0  0  0  0  0  0  0  0  0
   -5.1687   23.3129  -27.2881 H   0  0  0  0  0  0  0  0  0  0  0  0
   -8.5435   19.9415  -30.0832 H   0  0  0  0  0  0  0  0  0  0  0  0
   -9.4021   19.3843  -31.5593 H   0  0  0  0  0  0  0  0  0  0  0  0
   -7.6109   19.5194  -31.5593 H   0  0  0  0  0  0  0  0  0  0  0  0
   -2.4956   22.3369  -31.8592 H   0  0  0  0  0  0  0  0  0  0  0  0
   -2.1738   21.5648  -30.2562 H   0  0  0  0  0  0  0  0  0  0  0  0
   -1.7685   20.1626  -32.4159 H   0  0  0  0  0  0  0  0  0  0  0  0
   -2.7062   19.4295  -31.0248 H   0  0  0  0  0  0  0  0  0  0  0  0
   -2.6548   18.4979  -33.9538 H   0  0  0  0  0  0  0  0  0  0  0  0
   -4.8950   17.5690  -36.4810 H   0  0  0  0  0  0  0  0  0  0  0  0
   -4.0759   15.1269  -33.1938 H   0  0  0  0  0  0  0  0  0  0  0  0
   -5.3490   14.8303  -34.4258 H   0  0  0  0  0  0  0  0  0  0  0  0
   -3.8508   13.8392  -34.4258 H   0  0  0  0  0  0  0  0  0  0  0  0
   -6.8997   18.4822  -34.7862 H   0  0  0  0  0  0  0  0  0  0  0  0
   -7.2631   20.1568  -32.9851 H   0  0  0  0  0  0  0  0  0  0  0  0
   -2.3756   24.0906  -30.5003 H   0  0  0  0  0  0  0  0  0  0  0  0
   -0.9849   25.4710  -28.9614 H   0  0  0  0  0  0  0  0  0  0  0  0
  1  2  1  0
  2  3  2  0
  3  4  1  0
  4  5  2  0
  5  6  1  0
  6  7  2  0
  7  8  1  0
  8  9  2  0
  9 10  1  0
 10 11  1  0
 11 12  2  0
 12 13  1  0
 13 14  2  0
 14 15  1  0
 15 16  2  0
 16 17  1  0
 17 18  1  0
 12 19  1  0
 19 20  2  0
 20 21  1  0
 21 22  1  0
 22 23  1  0
 23 24  2  0
 24 25  1  0
 25 26  1  0
 26 27  1  0
 27 28  1  0
 27 29  2  0
 27 30  2  0
 25 31  2  0
 31 32  1  0
 32 33  2  0
  9 34  1  0
 34 35  2  0
  5 36  1  0
 36  2  1  0
 35  6  1  0
 20 10  1  0
 33 23  1  0
 17 13  1  0
 33 19  1  0
  1 37  1  0
  1 38  1  0
  1 39  1  0
  3 40  1  0
  4 41  1  0
  7 42  1  0
  8 43  1  0
 18 44  1  0
 18 45  1  0
 18 46  1  0
 21 47  1  0
 21 48  1  0
 22 49  1  0
 22 50  1  0
 24 51  1  0
 26 52  1  0
 28 53  1  0
 28 54  1  0
 28 55  1  0
 31 56  1  0
 32 57  1  0
 34 58  1  0
 35 59  1  0
M  END
>  <UniqueID>  (46) 
43

>  <SMILES>  (46) 
Cc1ccc(-c2ccc(-n3nc(-c4nnnn4C)c4c3CCc3cc(NS(C)(=O)=O)ccc3-4)cc2)o1

>  <Energy>  (46) 
181.55603136146232

>  <Genealogy>  (46) 
Cc1ccc(-c2ccc(-n3nc(-c4nnnn4C)c4c3CCc3cc(NS(C)(=O)=O)ccc3-4)cc2)o1 (3D coordinates assigned)
Cc1ccc(-c2ccc(-n3nc(-c4nnnn4C)c4c3CCc3cc(NS(C)(=O)=O)ccc3-4)cc2)o1 (nonaromatic ring conformer: 181.55603136146232 kcal/mol)

>  <smiles>  (46) 
Cc1ccc(-c2ccc(-n3nc(-c4nnnn4C)c4c3CCc3cc(NS(C)(=O)=O)ccc3-4)cc2)o1

>  <score_type>  (46) 
oracle

>  <origin>  (46) 
adgpu

>  <m_score__min__energy>  (46) 
-10.44

>  <m_primary>  (46) 
energy

$$$$
46:0
     RDKit          3D

 29 31  0  0  0  0  0  0  0  0999 V2000
    0.0797   27.1690  -24.8918 H   0  0  0  0  0  0  0  0  0  0  0  0
   -0.5840   26.6250  -25.5800 C   0  0  0  0  0  0  0  0  0  0  0  0
   -1.8690   26.2640  -25.1720 C   0  0  0  0  0  0  0  0  0  0  0  0
   -2.2170   26.5287  -24.1626 H   0  0  0  0  0  0  0  0  0  0  0  0
   -2.7160   25.5680  -26.0390 C   0  0  0  0  0  0  0  0  0  0  0  0
   -3.9760   25.2800  -25.6250 F   0  0  0  0  0  0  0  0  0  0  0  0
   -2.2760   25.2180  -27.3340 C   0  0  0  0  0  0  0  0  0  0  0  0
   -3.1590   24.4780  -28.2670 C   0  0  0  0  0  0  0  0  0  0  0  0
   -3.3320   24.8200  -29.5640 N   0  0  0  0  0  0  0  0  0  0  0  0
   -4.1830   23.8610  -29.9820 C   0  0  0  0  0  0  0  0  0  0  0  0
   -4.6490   23.8110  -31.1940 N   0  0  0  0  0  0  0  0  0  0  0  0
   -5.5220   22.8030  -31.7320 C   0  0  0  0  0  0  0  0  0  0  0  0
   -4.9600   21.7690  -32.4930 C   0  0  0  0  0  0  0  0  0  0  0  0
   -3.8761   21.7558  -32.6802 H   0  0  0  0  0  0  0  0  0  0  0  0
   -5.7670   20.7540  -33.0160 C   0  0  0  0  0  0  0  0  0  0  0  0
   -5.3189   19.9545  -33.6242 H   0  0  0  0  0  0  0  0  0  0  0  0
   -7.1420   20.7540  -32.7670 C   0  0  0  0  0  0  0  0  0  0  0  0
   -7.7773   19.9600  -33.1866 H   0  0  0  0  0  0  0  0  0  0  0  0
   -7.7100   21.7640  -31.9840 C   0  0  0  0  0  0  0  0  0  0  0  0
   -9.4320   21.7450  -31.6460 Cl  0  0  0  0  0  0  0  0  0  0  0  0
   -6.9050   22.7810  -31.4600 C   0  0  0  0  0  0  0  0  0  0  0  0
   -7.3528   23.5664  -30.8334 H   0  0  0  0  0  0  0  0  0  0  0  0
   -4.4930   23.0210  -29.0250 O   0  0  0  0  0  0  0  0  0  0  0  0
   -3.8690   23.3770  -27.9460 N   0  0  0  0  0  0  0  0  0  0  0  0
   -3.9030   22.8660  -27.0380 H   0  0  0  0  0  0  0  0  0  0  0  0
   -0.9800   25.5990  -27.7390 C   0  0  0  0  0  0  0  0  0  0  0  0
   -0.5120   25.2770  -28.9720 F   0  0  0  0  0  0  0  0  0  0  0  0
   -0.1420   26.2950  -26.8620 C   0  0  0  0  0  0  0  0  0  0  0  0
    0.8695   26.5835  -27.1839 H   0  0  0  0  0  0  0  0  0  0  0  0
  1  2  1  0
  2  3  2  0
  3  4  1  0
  3  5  1  0
  5  6  1  0
  5  7  2  0
  7  8  1  0
  8  9  2  0
  9 10  1  0
 10 11  2  0
 11 12  1  0
 12 13  2  0
 13 14  1  0
 13 15  1  0
 15 16  1  0
 15 17  2  0
 17 18  1  0
 17 19  1  0
 19 20  1  0
 19 21  2  0
 21 22  1  0
 10 23  1  0
 23 24  1  0
 24 25  1  0
  7 26  1  0
 26 27  1  0
 26 28  2  0
 28 29  1  0
 28  2  1  0
 24  8  1  0
 21 12  1  0
M  END
>  <UniqueID>  (47) 
44

>  <SMILES>  (47) 
Fc1cccc(F)c1-c1n/c(=N/c2cccc(Cl)c2)o[nH]1

>  <Energy>  (47) 
75.77936932238482

>  <Genealogy>  (47) 
Fc1cccc(F)c1-c1n/c(=N/c2cccc(Cl)c2)o[nH]1 (cis-trans isomerization)
Fc1cccc(F)c1-c1n/c(=N/c2cccc(Cl)c2)o[nH]1 (3D coordinates assigned)
Fc1cccc(F)c1-c1n/c(=N/c2cccc(Cl)c2)o[nH]1 (optimized conformer: 75.77936932238482 kcal/mol)

>  <smiles>  (47) 
Fc1cccc(F)c1-c1nc(=Nc2cccc(Cl)c2)o[nH]1

>  <score_type>  (47) 
oracle

>  <origin>  (47) 
adgpu

>  <m_score__min__energy>  (47) 
-7.21

>  <m_primary>  (47) 
energy

$$$$
47:0
     RDKit          3D

 48 52  0  0  0  0  0  0  0  0999 V2000
   -2.0900   13.2650  -36.8640 C   0  0  0  0  0  0  0  0  0  0  0  0
   -3.0740   13.7770  -35.8690 C   0  0  0  0  0  0  0  0  0  0  0  0
   -3.3940   15.0760  -35.7290 N   0  0  0  0  0  0  0  0  0  0  0  0
   -4.3060   15.0200  -34.7330 C   0  0  0  0  0  0  0  0  0  0  0  0
   -4.9900   16.2070  -34.1750 C   0  0  0  0  0  0  0  0  0  0  0  0
   -5.2930   17.3030  -34.9960 C   0  0  0  0  0  0  0  0  0  0  0  0
   -5.9260   18.4280  -34.4690 C   0  0  0  0  0  0  0  0  0  0  0  0
   -6.2710   18.4880  -33.1100 C   0  0  0  0  0  0  0  0  0  0  0  0
   -6.9160   19.7190  -32.6060 C   0  0  0  0  0  0  0  0  0  0  0  0
   -8.3070   19.8880  -32.6710 C   0  0  0  0  0  0  0  0  0  0  0  0
   -8.8800   21.0540  -32.1620 C   0  0  0  0  0  0  0  0  0  0  0  0
   -8.0710   22.0320  -31.5820 C   0  0  0  0  0  0  0  0  0  0  0  0
   -6.6830   21.8280  -31.5120 C   0  0  0  0  0  0  0  0  0  0  0  0
   -5.8240   22.8110  -30.9130 N   0  0  0  0  0  0  0  0  0  0  0  0
   -5.6980   24.0960  -31.3080 C   0  0  0  0  0  0  0  0  0  0  0  0
   -4.7860   24.6990  -30.4740 C   0  0  0  0  0  0  0  0  0  0  0  0
   -4.3570   26.0210  -30.5210 O   0  0  0  0  0  0  0  0  0  0  0  0
   -4.3870   23.7250  -29.5830 C   0  0  0  0  0  0  0  0  0  0  0  0
   -3.4220   23.8690  -28.4880 C   0  0  0  0  0  0  0  0  0  0  0  0
   -3.2550   22.9600  -27.5080 N   0  0  0  0  0  0  0  0  0  0  0  0
   -2.3180   23.4500  -26.7560 O   0  0  0  0  0  0  0  0  0  0  0  0
   -1.9240   24.6020  -27.2390 C   0  0  0  0  0  0  0  0  0  0  0  0
   -0.8470   25.4400  -26.6410 C   0  0  0  0  0  0  0  0  0  0  0  0
   -2.5950   24.9280  -28.3610 N   0  0  0  0  0  0  0  0  0  0  0  0
   -5.0350   22.5780  -29.8710 N   0  0  0  0  0  0  0  0  0  0  0  0
   -6.1510   20.6800  -32.0200 N   0  0  0  0  0  0  0  0  0  0  0  0
   -6.0110   17.3690  -32.2800 C   0  0  0  0  0  0  0  0  0  0  0  0
   -6.4130   17.3390  -30.8290 C   0  0  0  0  0  0  0  0  0  0  0  0
   -5.3520   16.2500  -32.8190 C   0  0  0  0  0  0  0  0  0  0  0  0
   -4.5190   13.7590  -34.3050 N   0  0  0  0  0  0  0  0  0  0  0  0
   -3.7390   13.0210  -35.0330 O   0  0  0  0  0  0  0  0  0  0  0  0
   -1.2336   12.8194  -36.3368 H   0  0  0  0  0  0  0  0  0  0  0  0
   -2.5696   12.5021  -37.4948 H   0  0  0  0  0  0  0  0  0  0  0  0
   -1.7405   14.0956  -37.4948 H   0  0  0  0  0  0  0  0  0  0  0  0
   -5.0293   17.2748  -36.0636 H   0  0  0  0  0  0  0  0  0  0  0  0
   -6.1578   19.2789  -35.1265 H   0  0  0  0  0  0  0  0  0  0  0  0
   -8.9404   19.1083  -33.1192 H   0  0  0  0  0  0  0  0  0  0  0  0
   -9.9685   21.2022  -32.2179 H   0  0  0  0  0  0  0  0  0  0  0  0
   -8.5166   22.9551  -31.1829 H   0  0  0  0  0  0  0  0  0  0  0  0
   -6.2285   24.5737  -32.1449 H   0  0  0  0  0  0  0  0  0  0  0  0
   -3.8640   26.4340  -29.7380 H   0  0  0  0  0  0  0  0  0  0  0  0
   -0.9105   25.3906  -25.5439 H   0  0  0  0  0  0  0  0  0  0  0  0
    0.1339   25.0652  -26.9688 H   0  0  0  0  0  0  0  0  0  0  0  0
   -0.9692   26.4829  -26.9688 H   0  0  0  0  0  0  0  0  0  0  0  0
   -5.5144   17.4061  -30.1981 H   0  0  0  0  0  0  0  0  0  0  0  0
   -7.0760   18.1902  -30.6145 H   0  0  0  0  0  0  0  0  0  0  0  0
   -6.9423   16.3989  -30.6145 H   0  0  0  0  0  0  0  0  0  0  0  0
   -5.1164   15.3950  -32.1683 H   0  0  0  0  0  0  0  0  0  0  0  0
  1  2  1  0
  2  3  2  0
  3  4  1  0
  4  5  1  0
  5  6  2  0
  6  7  1  0
  7  8  2  0
  8  9  1  0
  9 10  2  0
 10 11  1  0
 11 12  2  0
 12 13  1  0
 13 14  1  0
 14 15  1  0
 15 16  2  0
 16 17  1  0
 16 18  1  0
 18 19  1  0
 19 20  2  0
 20 21  1  0
 21 22  1  0
 22 23  1  0
 22 24  2  0
 18 25  2  0
 13 26  2  0
  8 27  1  0
 27 28  1  0
 27 29  2  0
  4 30  2  0
 30 31  1  0
 31  2  1  0
 29  5  1  0
 26  9  1  0
 25 14  1  0
 24 19  1  0
  1 32  1  0
  1 33  1  0
  1 34  1  0
  6 35  1  0
  7 36  1  0
 10 37  1  0
 11 38  1  0
 12 39  1  0
 15 40  1  0
 17 41  1  0
 23 42  1  0
 23 43  1  0
 23 44  1  0
 28 45  1  0
 28 46  1  0
 28 47  1  0
 29 48  1  0
M  END
>  <UniqueID>  (48) 
45

>  <SMILES>  (48) 
Cc1nc(-c2ccc(-c3cccc(-n4cc(O)c(-c5noc(C)n5)n4)n3)c(C)c2)no1

>  <Energy>  (48) 
156.184932201751

>  <Genealogy>  (48) 
Cc1nc(-c2ccc(-c3cccc(-n4cc(O)c(-c5noc(C)n5)n4)n3)c(C)c2)no1 (3D coordinates assigned)
Cc1nc(-c2ccc(-c3cccc(-n4cc(O)c(-c5noc(C)n5)n4)n3)c(C)c2)no1 (optimized conformer: 156.184932201751 kcal/mol)

>  <smiles>  (48) 
Cc1nc(-c2ccc(-c3cccc(-n4cc(O)c(-c5noc(C)n5)n4)n3)c(C)c2)no1

>  <score_type>  (48) 
oracle

>  <origin>  (48) 
adgpu

>  <m_score__min__energy>  (48) 
-10.09

>  <m_primary>  (48) 
energy

$$$$
