0:0
     RDKit          3D

 40 42  0  0  0  0  0  0  0  0999 V2000
   -2.1650   19.2140  -27.5050 N   0  0  0  0  0  0  0  0  0  0  0  0
   -2.2700   20.5570  -27.9860 C   0  0  0  0  0  0  0  0  0  0  0  0
   -3.3600   21.3560  -27.6160 C   0  0  0  0  0  0  0  0  0  0  0  0
   -3.4640   22.6690  -28.0860 C   0  0  0  0  0  0  0  0  0  0  0  0
   -2.4840   23.1940  -28.9420 C   0  0  0  0  0  0  0  0  0  0  0  0
   -2.5760   24.5840  -29.4330 C   0  0  0  0  0  0  0  0  0  0  0  0
   -1.8230   25.4600  -28.9340 O   0  0  0  0  0  0  0  0  0  0  0  0
   -3.4940   24.9740  -30.4610 N   0  0  0  0  0  0  0  0  0  0  0  0
   -5.1940   24.6280  -30.4580 S   0  0  0  0  0  0  0  0  0  0  0  0
   -5.9340   25.6960  -31.2150 O   0  0  0  0  0  0  0  0  0  0  0  0
   -5.7150   24.5720  -29.0490 O   0  0  0  0  0  0  0  0  0  0  0  0
   -5.4510   23.0600  -31.2160 C   0  0  0  0  0  0  0  0  0  0  0  0
   -6.7110   22.4540  -31.1540 C   0  0  0  0  0  0  0  0  0  0  0  0
   -6.9240   21.2050  -31.7430 C   0  0  0  0  0  0  0  0  0  0  0  0
   -5.8740   20.5390  -32.4030 C   0  0  0  0  0  0  0  0  0  0  0  0
   -6.0970   19.2120  -33.0310 C   0  0  0  0  0  0  0  0  0  0  0  0
   -5.4450   18.8690  -34.2290 C   0  0  0  0  0  0  0  0  0  0  0  0
   -5.6580   17.6190  -34.8190 C   0  0  0  0  0  0  0  0  0  0  0  0
   -6.5200   16.6980  -34.2190 C   0  0  0  0  0  0  0  0  0  0  0  0
   -7.1720   17.0260  -33.0280 C   0  0  0  0  0  0  0  0  0  0  0  0
   -6.9640   18.2750  -32.4350 C   0  0  0  0  0  0  0  0  0  0  0  0
   -4.6090   21.1520  -32.4560 C   0  0  0  0  0  0  0  0  0  0  0  0
   -4.3980   22.4020  -31.8640 C   0  0  0  0  0  0  0  0  0  0  0  0
   -1.3800   22.4000  -29.2930 C   0  0  0  0  0  0  0  0  0  0  0  0
   -1.2780   21.0860  -28.8220 C   0  0  0  0  0  0  0  0  0  0  0  0
   -2.7860   18.8700  -26.7400 H   0  0  0  0  0  0  0  0  0  0  0  0
   -1.4660   18.5540  -27.9120 H   0  0  0  0  0  0  0  0  0  0  0  0
   -4.1374   20.9486  -26.9529 H   0  0  0  0  0  0  0  0  0  0  0  0
   -4.3178   23.2929  -27.7833 H   0  0  0  0  0  0  0  0  0  0  0  0
   -7.5383   22.9639  -30.6387 H   0  0  0  0  0  0  0  0  0  0  0  0
   -7.9190   20.7389  -31.6906 H   0  0  0  0  0  0  0  0  0  0  0  0
   -4.7629   19.5887  -34.7052 H   0  0  0  0  0  0  0  0  0  0  0  0
   -5.1457   17.3606  -35.7575 H   0  0  0  0  0  0  0  0  0  0  0  0
   -6.6853   15.7150  -34.6842 H   0  0  0  0  0  0  0  0  0  0  0  0
   -7.8504   16.3002  -32.5557 H   0  0  0  0  0  0  0  0  0  0  0  0
   -7.4805   18.5276  -31.4973 H   0  0  0  0  0  0  0  0  0  0  0  0
   -3.7782   20.6440  -32.9675 H   0  0  0  0  0  0  0  0  0  0  0  0
   -3.4030   22.8690  -31.9076 H   0  0  0  0  0  0  0  0  0  0  0  0
   -0.5924   22.8125  -29.9407 H   0  0  0  0  0  0  0  0  0  0  0  0
   -0.4158   20.4663  -29.1093 H   0  0  0  0  0  0  0  0  0  0  0  0
  1  2  1  0
  2  3  2  0
  3  4  1  0
  4  5  2  0
  5  6  1  0
  6  7  2  0
  6  8  1  0
  8  9  1  0
  9 10  2  0
  9 11  2  0
  9 12  1  0
 12 13  2  0
 13 14  1  0
 14 15  2  0
 15 16  1  0
 16 17  2  0
 17 18  1  0
 18 19  2  0
 19 20  1  0
 20 21  2  0
 15 22  1  0
 22 23  2  0
  5 24  1  0
 24 25  2  0
 25  2  1  0
 23 12  1  0
 21 16  1  0
  1 26  1  0
  1 27  1  0
  3 28  1  0
  4 29  1  0
 13 30  1  0
 14 31  1  0
 17 32  1  0
 18 33  1  0
 19 34  1  0
 20 35  1  0
 21 36  1  0
 22 37  1  0
 23 38  1  0
 24 39  1  0
 25 40  1  0
M  CHG  1   8  -1
M  END
>  <UniqueID>  (1) 
1

>  <SMILES>  (1) 
Nc1ccc(C(=O)[N-]S(=O)(=O)c2ccc(-c3ccccc3)cc2)cc1

>  <Energy>  (1) 
55.82596557813423

>  <Genealogy>  (1) 
Nc1ccc(C(=O)[N-]S(=O)(=O)c2ccc(-c3ccccc3)cc2)cc1 (protonated)
Nc1ccc(C(=O)[N-]S(=O)(=O)c2ccc(-c3ccccc3)cc2)cc1 (3D coordinates assigned)
Nc1ccc(C(=O)[N-]S(=O)(=O)c2ccc(-c3ccccc3)cc2)cc1 (optimized conformer: 55.82596557813423 kcal/mol)

>  <smiles>  (1) 
Nc1ccc(C(=O)NS(=O)(=O)c2ccc(-c3ccccc3)cc2)cc1

>  <score_type>  (1) 
oracle

>  <origin>  (1) 
adgpu

>  <m_score__min__energy>  (1) 
-10.84

>  <m_primary>  (1) 
energy

$$$$
1:0
     RDKit          3D

 47 50  0  0  0  0  0  0  0  0999 V2000
    0.2510   24.3320  -27.8510 H   0  0  0  0  0  0  0  0  0  0  0  0
   -0.2240   23.4410  -27.9290 O   0  0  0  0  0  0  0  0  0  0  0  0
   -1.4660   23.3420  -28.5500 C   0  0  0  0  0  0  0  0  0  0  0  0
   -2.1140   24.3670  -29.2060 C   0  0  0  0  0  0  0  0  0  0  0  0
   -1.6600   25.6730  -29.3410 O   0  0  0  0  0  0  0  0  0  0  0  0
   -3.2790   23.8420  -29.7250 C   0  0  0  0  0  0  0  0  0  0  0  0
   -4.2980   24.5460  -30.5290 C   0  0  0  0  0  0  0  0  0  0  0  0
   -4.3240   25.8040  -30.5340 O   0  0  0  0  0  0  0  0  0  0  0  0
   -5.2900   23.8250  -31.2720 N   0  0  0  0  0  0  0  0  0  0  0  0
   -5.0630   22.5620  -31.9130 C   0  0  0  0  0  0  0  0  0  0  0  0
   -6.0650   21.5850  -31.8810 C   0  0  0  0  0  0  0  0  0  0  0  0
   -7.0301   21.8043  -31.4008 H   0  0  0  0  0  0  0  0  0  0  0  0
   -5.8420   20.3310  -32.4580 C   0  0  0  0  0  0  0  0  0  0  0  0
   -6.6261   19.5609  -32.4116 H   0  0  0  0  0  0  0  0  0  0  0  0
   -4.6260   20.0490  -33.0950 C   0  0  0  0  0  0  0  0  0  0  0  0
   -4.3640   18.4550  -33.7990 S   0  0  0  0  0  0  0  0  0  0  0  0
   -4.4890   17.3990  -32.7370 O   0  0  0  0  0  0  0  0  0  0  0  0
   -5.4100   18.2160  -34.8510 O   0  0  0  0  0  0  0  0  0  0  0  0
   -2.8000   18.3340  -34.5470 N   0  0  0  0  0  0  0  0  0  0  0  0
   -1.6680   18.4800  -33.9270 C   0  0  0  0  0  0  0  0  0  0  0  0
   -0.5060   18.3850  -34.5260 O   0  0  0  0  0  0  0  0  0  0  0  0
    0.4640   18.5880  -33.6840 N   0  0  0  0  0  0  0  0  0  0  0  0
   -0.1030   18.8210  -32.4830 C   0  0  0  0  0  0  0  0  0  0  0  0
    0.6660   19.1320  -31.2420 C   0  0  0  0  0  0  0  0  0  0  0  0
    0.0556   18.8851  -30.3608 H   0  0  0  0  0  0  0  0  0  0  0  0
    1.5913   18.5374  -31.2253 H   0  0  0  0  0  0  0  0  0  0  0  0
    0.9178   20.2027  -31.2253 H   0  0  0  0  0  0  0  0  0  0  0  0
   -1.4790   18.7640  -32.5880 C   0  0  0  0  0  0  0  0  0  0  0  0
   -2.2352   18.9085  -31.8023 H   0  0  0  0  0  0  0  0  0  0  0  0
   -3.6420   21.0450  -33.1710 C   0  0  0  0  0  0  0  0  0  0  0  0
   -2.6974   20.8432  -33.6973 H   0  0  0  0  0  0  0  0  0  0  0  0
   -3.8570   22.2920  -32.5810 C   0  0  0  0  0  0  0  0  0  0  0  0
   -3.0783   23.0668  -32.6395 H   0  0  0  0  0  0  0  0  0  0  0  0
   -3.3040   22.5100  -29.3410 C   0  0  0  0  0  0  0  0  0  0  0  0
   -4.1099   21.8014  -29.5829 H   0  0  0  0  0  0  0  0  0  0  0  0
   -2.1970   22.2060  -28.6270 N   0  0  0  0  0  0  0  0  0  0  0  0
   -1.8760   20.9100  -28.0870 C   0  0  0  0  0  0  0  0  0  0  0  0
   -2.7870   20.2250  -27.2600 C   0  0  0  0  0  0  0  0  0  0  0  0
   -3.7544   20.6866  -27.0129 H   0  0  0  0  0  0  0  0  0  0  0  0
   -2.4700   18.9620  -26.7510 C   0  0  0  0  0  0  0  0  0  0  0  0
   -3.1838   18.4381  -26.0983 H   0  0  0  0  0  0  0  0  0  0  0  0
   -1.2480   18.3640  -27.0700 C   0  0  0  0  0  0  0  0  0  0  0  0
   -0.9994   17.3716  -26.6658 H   0  0  0  0  0  0  0  0  0  0  0  0
   -0.3420   19.0260  -27.9020 C   0  0  0  0  0  0  0  0  0  0  0  0
    0.6156   18.5505  -28.1608 H   0  0  0  0  0  0  0  0  0  0  0  0
   -0.6520   20.2930  -28.4060 C   0  0  0  0  0  0  0  0  0  0  0  0
    0.0669   20.8118  -29.0573 H   0  0  0  0  0  0  0  0  0  0  0  0
  1  2  1  0
  2  3  1  0
  3  4  2  0
  4  5  1  0
  4  6  1  0
  6  7  1  0
  7  8  2  0
  7  9  1  0
  9 10  1  0
 10 11  2  0
 11 12  1  0
 11 13  1  0
 13 14  1  0
 13 15  2  0
 15 16  1  0
 16 17  2  0
 16 18  2  0
 16 19  1  0
 19 20  2  0
 20 21  1  0
 21 22  1  0
 22 23  1  0
 23 24  1  0
 24 25  1  0
 24 26  1  0
 24 27  1  0
 23 28  2  0
 28 29  1  0
 15 30  1  0
 30 31  1  0
 30 32  2  0
 32 33  1  0
  6 34  2  0
 34 35  1  0
 34 36  1  0
 36 37  1  0
 37 38  2  0
 38 39  1  0
 38 40  1  0
 40 41  1  0
 40 42  2  0
 42 43  1  0
 42 44  1  0
 44 45  1  0
 44 46  2  0
 46 47  1  0
 36  3  1  0
 46 37  1  0
 32 10  1  0
 28 20  1  0
M  CHG  3   5  -1   9  -1  22  -1
M  END
>  <UniqueID>  (2) 
2

>  <SMILES>  (2) 
Cc1c/c(=N\S(=O)(=O)c2ccc([N-]C(=O)c3cn(-c4ccccc4)c(O)c3[O-])cc2)o[n-]1

>  <Energy>  (2) 
121.03111649144553

>  <Genealogy>  (2) 
Cc1cc(=NS(=O)(=O)c2ccc([N-]C(=O)c3cn(-c4ccccc4)c(O)c3[O-])cc2)o[n-]1 (protonated)
Cc1c/c(=N\S(=O)(=O)c2ccc([N-]C(=O)c3cn(-c4ccccc4)c(O)c3[O-])cc2)o[n-]1 (cis-trans isomerization)
Cc1c/c(=N\S(=O)(=O)c2ccc([N-]C(=O)c3cn(-c4ccccc4)c(O)c3[O-])cc2)o[n-]1 (3D coordinates assigned)
Cc1c/c(=N\S(=O)(=O)c2ccc([N-]C(=O)c3cn(-c4ccccc4)c(O)c3[O-])cc2)o[n-]1 (optimized conformer: 121.03111649144553 kcal/mol)

>  <smiles>  (2) 
Cc1cc(=NS(=O)(=O)c2ccc(NC(=O)c3cn(-c4ccccc4)c(O)c3O)cc2)o[nH]1

>  <score_type>  (2) 
oracle

>  <origin>  (2) 
adgpu

>  <m_score__min__energy>  (2) 
-13.199999999999999

>  <m_primary>  (2) 
energy

$$$$
2:0
     RDKit          3D

 59 63  0  0  0  0  0  0  0  0999 V2000
   -3.3370   23.4260  -31.5760 O   0  0  0  0  0  0  0  0  0  0  0  0
   -3.2170   22.7590  -30.5110 C   0  0  0  0  0  0  0  0  0  0  0  0
   -3.0740   21.3320  -30.5850 N   0  0  0  0  0  0  0  0  0  0  0  0
   -3.4130   20.5920  -31.7660 C   0  0  0  0  0  0  0  0  0  0  0  0
   -2.4890   19.6740  -32.2870 C   0  0  0  0  0  0  0  0  0  0  0  0
   -2.7800   18.9630  -33.4520 C   0  0  0  0  0  0  0  0  0  0  0  0
   -4.0010   19.1530  -34.1000 C   0  0  0  0  0  0  0  0  0  0  0  0
   -4.9410   20.0470  -33.5750 C   0  0  0  0  0  0  0  0  0  0  0  0
   -4.6650   20.7560  -32.4000 C   0  0  0  0  0  0  0  0  0  0  0  0
   -5.9480   21.8020  -31.6930 S   0  0  0  0  0  0  0  0  0  0  0  0
   -7.2150   20.5420  -31.8810 C   0  0  0  0  0  0  0  0  0  0  0  0
   -8.4980   20.8870  -32.3280 C   0  0  0  0  0  0  0  0  0  0  0  0
   -9.4830   19.9050  -32.4590 C   0  0  0  0  0  0  0  0  0  0  0  0
   -9.1880   18.5710  -32.1560 C   0  0  0  0  0  0  0  0  0  0  0  0
   -7.9060   18.2220  -31.7140 C   0  0  0  0  0  0  0  0  0  0  0  0
   -6.9200   19.2050  -31.5780 C   0  0  0  0  0  0  0  0  0  0  0  0
   -3.2270   23.4580  -29.2050 C   0  0  0  0  0  0  0  0  0  0  0  0
   -4.2550   23.2170  -28.2760 C   0  0  0  0  0  0  0  0  0  0  0  0
   -4.2410   23.8400  -27.0260 C   0  0  0  0  0  0  0  0  0  0  0  0
   -3.1920   24.6950  -26.6800 C   0  0  0  0  0  0  0  0  0  0  0  0
   -2.1550   24.9370  -27.5860 C   0  0  0  0  0  0  0  0  0  0  0  0
   -0.7940   25.9510  -27.1090 S   0  0  0  0  0  0  0  0  0  0  0  0
   -1.1380   26.6160  -25.8050 O   0  0  0  0  0  0  0  0  0  0  0  0
   -0.5670   27.0220  -28.1400 O   0  0  0  0  0  0  0  0  0  0  0  0
    0.6580   24.9920  -26.8950 N   0  0  0  0  0  0  0  0  0  0  0  0
    0.8800   24.5660  -25.5020 C   0  0  0  0  0  0  0  0  0  0  0  0
   -0.1920   23.5890  -25.0060 C   0  0  0  0  0  0  0  0  0  0  0  0
   -0.4930   22.5190  -26.0170 C   0  0  0  0  0  0  0  0  0  0  0  0
   -1.2180   21.3840  -25.6190 C   0  0  0  0  0  0  0  0  0  0  0  0
   -1.5930   20.4220  -26.5570 C   0  0  0  0  0  0  0  0  0  0  0  0
   -1.2410   20.5820  -27.8990 C   0  0  0  0  0  0  0  0  0  0  0  0
   -0.5090   21.6990  -28.3040 C   0  0  0  0  0  0  0  0  0  0  0  0
   -0.1470   22.6840  -27.3740 C   0  0  0  0  0  0  0  0  0  0  0  0
    0.6970   23.8530  -27.8280 C   0  0  0  0  0  0  0  0  0  0  0  0
   -2.1810   24.3300  -28.8490 C   0  0  0  0  0  0  0  0  0  0  0  0
   -2.5100   20.8490  -29.8530 H   0  0  0  0  0  0  0  0  0  0  0  0
   -1.5292   19.5136  -31.7741 H   0  0  0  0  0  0  0  0  0  0  0  0
   -2.0462   18.2522  -33.8598 H   0  0  0  0  0  0  0  0  0  0  0  0
   -4.2249   18.5998  -35.0240 H   0  0  0  0  0  0  0  0  0  0  0  0
   -5.9026   20.1934  -34.0888 H   0  0  0  0  0  0  0  0  0  0  0  0
   -8.7298   21.9333  -32.5762 H   0  0  0  0  0  0  0  0  0  0  0  0
  -10.4916   20.1807  -32.8007 H   0  0  0  0  0  0  0  0  0  0  0  0
   -9.9624   17.7974  -32.2649 H   0  0  0  0  0  0  0  0  0  0  0  0
   -7.6740   17.1740  -31.4735 H   0  0  0  0  0  0  0  0  0  0  0  0
   -5.9126   18.9290  -31.2331 H   0  0  0  0  0  0  0  0  0  0  0  0
   -5.0762   22.5328  -28.5358 H   0  0  0  0  0  0  0  0  0  0  0  0
   -5.0579   23.6569  -26.3124 H   0  0  0  0  0  0  0  0  0  0  0  0
   -3.1818   25.1791  -25.6923 H   0  0  0  0  0  0  0  0  0  0  0  0
    1.8619   24.0746  -25.4362 H   0  0  0  0  0  0  0  0  0  0  0  0
    0.8318   25.4634  -24.8677 H   0  0  0  0  0  0  0  0  0  0  0  0
    0.1634   23.1125  -24.0804 H   0  0  0  0  0  0  0  0  0  0  0  0
   -1.1160   24.1599  -24.8318 H   0  0  0  0  0  0  0  0  0  0  0  0
   -1.4917   21.2528  -24.5617 H   0  0  0  0  0  0  0  0  0  0  0  0
   -2.1656   19.5379  -26.2399 H   0  0  0  0  0  0  0  0  0  0  0  0
   -1.5416   19.8255  -28.6388 H   0  0  0  0  0  0  0  0  0  0  0  0
   -0.2145   21.8073  -29.3583 H   0  0  0  0  0  0  0  0  0  0  0  0
    1.7394   23.5153  -27.9245 H   0  0  0  0  0  0  0  0  0  0  0  0
    0.2857   24.2010  -28.7870 H   0  0  0  0  0  0  0  0  0  0  0  0
   -1.3759   24.5371  -29.5693 H   0  0  0  0  0  0  0  0  0  0  0  0
  1  2  2  0
  2  3  1  0
  3  4  1  0
  4  5  2  0
  5  6  1  0
  6  7  2  0
  7  8  1  0
  8  9  2  0
  9 10  1  0
 10 11  1  0
 11 12  2  0
 12 13  1  0
 13 14  2  0
 14 15  1  0
 15 16  2  0
  2 17  1  0
 17 18  2  0
 18 19  1  0
 19 20  2  0
 20 21  1  0
 21 22  1  0
 22 23  2  0
 22 24  2  0
 22 25  1  0
 25 26  1  0
 26 27  1  0
 27 28  1  0
 28 29  2  0
 29 30  1  0
 30 31  2  0
 31 32  1  0
 32 33  2  0
 33 34  1  0
 21 35  2  0
  9  4  1  0
 16 11  1  0
 35 17  1  0
 34 25  1  0
 33 28  1  0
  3 36  1  0
  5 37  1  0
  6 38  1  0
  7 39  1  0
  8 40  1  0
 12 41  1  0
 13 42  1  0
 14 43  1  0
 15 44  1  0
 16 45  1  0
 18 46  1  0
 19 47  1  0
 20 48  1  0
 26 49  1  0
 26 50  1  0
 27 51  1  0
 27 52  1  0
 29 53  1  0
 30 54  1  0
 31 55  1  0
 32 56  1  0
 34 57  1  0
 34 58  1  0
 35 59  1  0
M  END
>  <UniqueID>  (3) 
3

>  <SMILES>  (3) 
O=C(Nc1ccccc1Sc1ccccc1)c1cccc(S(=O)(=O)N2CCc3ccccc3C2)c1

>  <Energy>  (3) 
69.1657345241239

>  <Genealogy>  (3) 
O=C(Nc1ccccc1Sc1ccccc1)c1cccc(S(=O)(=O)N2CCc3ccccc3C2)c1 (3D coordinates assigned)
O=C(Nc1ccccc1Sc1ccccc1)c1cccc(S(=O)(=O)N2CCc3ccccc3C2)c1 (nonaromatic ring conformer: 69.1657345241239 kcal/mol)

>  <smiles>  (3) 
O=C(Nc1ccccc1Sc1ccccc1)c1cccc(S(=O)(=O)N2CCc3ccccc3C2)c1

>  <score_type>  (3) 
oracle

>  <origin>  (3) 
adgpu

>  <m_score__min__energy>  (3) 
-11.77

>  <m_primary>  (3) 
energy

$$$$
3:0
     RDKit          3D

 45 47  0  0  0  0  0  0  0  0999 V2000
   -8.7380   19.2500  -31.8020 O   0  0  0  0  0  0  0  0  0  0  0  0
   -7.5250   18.9690  -32.0040 C   0  0  0  0  0  0  0  0  0  0  0  0
   -7.1260   17.5370  -32.1850 C   0  0  0  0  0  0  0  0  0  0  0  0
   -6.0020   17.4500  -33.1100 N   0  0  0  0  0  0  0  0  0  0  0  0
   -6.0750   17.1150  -34.4130 C   0  0  0  0  0  0  0  0  0  0  0  0
   -4.8170   17.2320  -34.9630 C   0  0  0  0  0  0  0  0  0  0  0  0
   -4.0180   17.6470  -33.9120 C   0  0  0  0  0  0  0  0  0  0  0  0
   -2.5700   18.0110  -34.0010 C   0  0  0  0  0  0  0  0  0  0  0  0
   -2.4490   19.3830  -34.1210 F   0  0  0  0  0  0  0  0  0  0  0  0
   -1.9970   17.4050  -35.1040 F   0  0  0  0  0  0  0  0  0  0  0  0
   -1.9050   17.5940  -32.8630 F   0  0  0  0  0  0  0  0  0  0  0  0
   -4.7630   17.7950  -32.7990 N   0  0  0  0  0  0  0  0  0  0  0  0
   -6.5460   20.0090  -32.1540 N   0  0  0  0  0  0  0  0  0  0  0  0
   -6.7910   21.3930  -31.8580 C   0  0  0  0  0  0  0  0  0  0  0  0
   -7.9920   22.0230  -32.2290 C   0  0  0  0  0  0  0  0  0  0  0  0
   -8.2140   23.3640  -31.9070 C   0  0  0  0  0  0  0  0  0  0  0  0
   -7.2480   24.0850  -31.2020 C   0  0  0  0  0  0  0  0  0  0  0  0
   -6.0580   23.4650  -30.8050 C   0  0  0  0  0  0  0  0  0  0  0  0
   -4.8570   24.3850  -29.9030 S   0  0  0  0  0  0  0  0  0  0  0  0
   -4.0720   25.2590  -30.8420 O   0  0  0  0  0  0  0  0  0  0  0  0
   -5.5740   25.2560  -28.9080 O   0  0  0  0  0  0  0  0  0  0  0  0
   -3.7870   23.2720  -29.0740 N   0  0  0  0  0  0  0  0  0  0  0  0
   -2.5860   22.9600  -29.8800 C   0  0  0  0  0  0  0  0  0  0  0  0
   -1.3490   23.7630  -29.4390 C   0  0  0  0  0  0  0  0  0  0  0  0
   -1.7340   25.0350  -28.9710 O   0  0  0  0  0  0  0  0  0  0  0  0
   -2.4350   24.9160  -27.7450 C   0  0  0  0  0  0  0  0  0  0  0  0
   -3.4490   23.7470  -27.7220 C   0  0  0  0  0  0  0  0  0  0  0  0
   -5.8340   22.1200  -31.1290 C   0  0  0  0  0  0  0  0  0  0  0  0
   -6.8324   17.1141  -31.2129 H   0  0  0  0  0  0  0  0  0  0  0  0
   -7.9768   16.9720  -32.5935 H   0  0  0  0  0  0  0  0  0  0  0  0
   -6.9842   16.8014  -34.9469 H   0  0  0  0  0  0  0  0  0  0  0  0
   -4.5157   17.0390  -36.0032 H   0  0  0  0  0  0  0  0  0  0  0  0
   -5.6310   19.7540  -32.5910 H   0  0  0  0  0  0  0  0  0  0  0  0
   -8.7607   21.4570  -32.7756 H   0  0  0  0  0  0  0  0  0  0  0  0
   -9.1517   23.8531  -32.2094 H   0  0  0  0  0  0  0  0  0  0  0  0
   -7.4230   25.1432  -30.9581 H   0  0  0  0  0  0  0  0  0  0  0  0
   -2.3635   21.8875  -29.7792 H   0  0  0  0  0  0  0  0  0  0  0  0
   -2.8054   23.2339  -30.9225 H   0  0  0  0  0  0  0  0  0  0  0  0
   -0.8325   23.2208  -28.6333 H   0  0  0  0  0  0  0  0  0  0  0  0
   -0.6765   23.8868  -30.3006 H   0  0  0  0  0  0  0  0  0  0  0  0
   -1.7027   24.7571  -26.9397 H   0  0  0  0  0  0  0  0  0  0  0  0
   -3.0097   25.8442  -27.6106 H   0  0  0  0  0  0  0  0  0  0  0  0
   -3.0136   22.9125  -27.1527 H   0  0  0  0  0  0  0  0  0  0  0  0
   -4.3743   24.1141  -27.2539 H   0  0  0  0  0  0  0  0  0  0  0  0
   -4.9023   21.6296  -30.8104 H   0  0  0  0  0  0  0  0  0  0  0  0
  1  2  2  0
  2  3  1  0
  3  4  1  0
  4  5  1  0
  5  6  2  0
  6  7  1  0
  7  8  1  0
  8  9  1  0
  8 10  1  0
  8 11  1  0
  7 12  2  0
  2 13  1  0
 13 14  1  0
 14 15  2  0
 15 16  1  0
 16 17  2  0
 17 18  1  0
 18 19  1  0
 19 20  2  0
 19 21  2  0
 19 22  1  0
 22 23  1  0
 23 24  1  0
 24 25  1  0
 25 26  1  0
 26 27  1  0
 18 28  2  0
 12  4  1  0
 28 14  1  0
 27 22  1  0
  3 29  1  0
  3 30  1  0
  5 31  1  0
  6 32  1  0
 13 33  1  0
 15 34  1  0
 16 35  1  0
 17 36  1  0
 23 37  1  0
 23 38  1  0
 24 39  1  0
 24 40  1  0
 26 41  1  0
 26 42  1  0
 27 43  1  0
 27 44  1  0
 28 45  1  0
M  END
>  <UniqueID>  (4) 
4

>  <SMILES>  (4) 
O=C(Cn1ccc(C(F)(F)F)n1)Nc1cccc(S(=O)(=O)N2CCOCC2)c1

>  <Energy>  (4) 
86.11746059676315

>  <Genealogy>  (4) 
O=C(Cn1ccc(C(F)(F)F)n1)Nc1cccc(S(=O)(=O)N2CCOCC2)c1 (3D coordinates assigned)
O=C(Cn1ccc(C(F)(F)F)n1)Nc1cccc(S(=O)(=O)N2CCOCC2)c1 (nonaromatic ring conformer: 86.11746059676315 kcal/mol)

>  <smiles>  (4) 
O=C(Cn1ccc(C(F)(F)F)n1)Nc1cccc(S(=O)(=O)N2CCOCC2)c1

>  <score_type>  (4) 
oracle

>  <origin>  (4) 
adgpu

>  <m_score__min__energy>  (4) 
-8.5800000000000001

>  <m_primary>  (4) 
energy

$$$$
4:0
     RDKit          3D

 36 39  0  0  0  0  0  0  0  0999 V2000
   -2.4090   14.1310  -36.8120 O   0  0  0  0  0  0  0  0  0  0  0  0
   -3.4050   14.2870  -35.8570 C   0  0  0  0  0  0  0  0  0  0  0  0
   -4.2200   13.2040  -35.5150 C   0  0  0  0  0  0  0  0  0  0  0  0
   -5.2210   13.3590  -34.5530 C   0  0  0  0  0  0  0  0  0  0  0  0
   -5.4110   14.5970  -33.9310 C   0  0  0  0  0  0  0  0  0  0  0  0
   -4.6010   15.6950  -34.2720 C   0  0  0  0  0  0  0  0  0  0  0  0
   -4.7900   17.0070  -33.6090 C   0  0  0  0  0  0  0  0  0  0  0  0
   -3.6580   17.7430  -33.1870 C   0  0  0  0  0  0  0  0  0  0  0  0
   -3.8660   18.9660  -32.5550 C   0  0  0  0  0  0  0  0  0  0  0  0
   -2.9920   19.8960  -32.0430 C   0  0  0  0  0  0  0  0  0  0  0  0
   -1.6010   19.8320  -32.0640 O   0  0  0  0  0  0  0  0  0  0  0  0
   -3.7850   20.9250  -31.5350 C   0  0  0  0  0  0  0  0  0  0  0  0
   -3.3410   22.1760  -30.8750 C   0  0  0  0  0  0  0  0  0  0  0  0
   -2.2170   22.1450  -30.0320 C   0  0  0  0  0  0  0  0  0  0  0  0
   -1.7720   23.3090  -29.3990 C   0  0  0  0  0  0  0  0  0  0  0  0
   -2.4370   24.5200  -29.6090 C   0  0  0  0  0  0  0  0  0  0  0  0
   -1.9900   25.6740  -28.9770 O   0  0  0  0  0  0  0  0  0  0  0  0
   -3.5470   24.5670  -30.4580 C   0  0  0  0  0  0  0  0  0  0  0  0
   -4.2060   25.7710  -30.6800 O   0  0  0  0  0  0  0  0  0  0  0  0
   -3.9970   23.4020  -31.0920 C   0  0  0  0  0  0  0  0  0  0  0  0
   -5.0600   20.6350  -31.7420 O   0  0  0  0  0  0  0  0  0  0  0  0
   -5.1200   19.4700  -32.3450 C   0  0  0  0  0  0  0  0  0  0  0  0
   -6.2590   18.7840  -32.7510 C   0  0  0  0  0  0  0  0  0  0  0  0
   -6.0940   17.5430  -33.3940 C   0  0  0  0  0  0  0  0  0  0  0  0
   -7.2230   16.8600  -33.8340 O   0  0  0  0  0  0  0  0  0  0  0  0
   -3.5910   15.5270  -35.2370 C   0  0  0  0  0  0  0  0  0  0  0  0
   -4.0731   12.2294  -36.0035 H   0  0  0  0  0  0  0  0  0  0  0  0
   -5.8610   12.5056  -34.2843 H   0  0  0  0  0  0  0  0  0  0  0  0
   -6.1980   14.7126  -33.1712 H   0  0  0  0  0  0  0  0  0  0  0  0
   -2.6407   17.3593  -33.3537 H   0  0  0  0  0  0  0  0  0  0  0  0
   -1.0650   19.7620  -31.2080 H   0  0  0  0  0  0  0  0  0  0  0  0
   -1.6832   21.1971  -29.8690 H   0  0  0  0  0  0  0  0  0  0  0  0
   -0.8965   23.2717  -28.7341 H   0  0  0  0  0  0  0  0  0  0  0  0
   -4.8676   23.4455  -31.7629 H   0  0  0  0  0  0  0  0  0  0  0  0
   -7.2619   19.1999  -32.5745 H   0  0  0  0  0  0  0  0  0  0  0  0
   -2.9442   16.3753  -35.5053 H   0  0  0  0  0  0  0  0  0  0  0  0
  1  2  1  0
  2  3  2  0
  3  4  1  0
  4  5  2  0
  5  6  1  0
  6  7  1  0
  7  8  2  0
  8  9  1  0
  9 10  1  0
 10 11  1  0
 10 12  2  0
 12 13  1  0
 13 14  2  0
 14 15  1  0
 15 16  2  0
 16 17  1  0
 16 18  1  0
 18 19  1  0
 18 20  2  0
 12 21  1  0
 21 22  1  0
 22 23  1  0
 23 24  2  0
 24 25  1  0
  6 26  2  0
 26  2  1  0
 24  7  1  0
 22  9  2  0
 20 13  1  0
  3 27  1  0
  4 28  1  0
  5 29  1  0
  8 30  1  0
 11 31  1  0
 14 32  1  0
 15 33  1  0
 20 34  1  0
 23 35  1  0
 26 36  1  0
M  CHG  4   1  -1  17  -1  19  -1  25  -1
M  END
>  <UniqueID>  (5) 
5

>  <SMILES>  (5) 
[O-]c1cccc(-c2cc3c(O)c(-c4ccc([O-])c([O-])c4)oc3cc2[O-])c1

>  <Energy>  (5) 
86.30888994011214

>  <Genealogy>  (5) 
[O-]c1cccc(-c2cc3c(O)c(-c4ccc([O-])c([O-])c4)oc3cc2[O-])c1 (protonated)
[O-]c1cccc(-c2cc3c(O)c(-c4ccc([O-])c([O-])c4)oc3cc2[O-])c1 (3D coordinates assigned)
[O-]c1cccc(-c2cc3c(O)c(-c4ccc([O-])c([O-])c4)oc3cc2[O-])c1 (optimized conformer: 86.30888994011214 kcal/mol)

>  <smiles>  (5) 
Oc1cccc(-c2cc3c(O)c(-c4ccc(O)c(O)c4)oc3cc2O)c1

>  <score_type>  (5) 
oracle

>  <origin>  (5) 
adgpu

>  <m_score__min__energy>  (5) 
-11.59

>  <m_primary>  (5) 
energy

$$$$
5:0
     RDKit          3D

 50 53  0  0  0  0  0  0  0  0999 V2000
   -5.8340   24.9370  -29.0020 N   0  0  0  0  0  0  0  0  0  0  0  0
   -6.1010   24.0280  -30.0770 C   0  0  0  0  0  0  0  0  0  0  0  0
   -7.3520   23.3930  -30.1400 C   0  0  0  0  0  0  0  0  0  0  0  0
   -7.6790   22.5770  -31.2250 C   0  0  0  0  0  0  0  0  0  0  0  0
   -6.7640   22.3940  -32.2630 C   0  0  0  0  0  0  0  0  0  0  0  0
   -5.5130   23.0100  -32.2080 C   0  0  0  0  0  0  0  0  0  0  0  0
   -5.1580   23.8030  -31.1090 C   0  0  0  0  0  0  0  0  0  0  0  0
   -3.8450   24.3790  -31.0800 N   0  0  0  0  0  0  0  0  0  0  0  0
   -2.9290   24.2460  -29.9860 C   0  0  0  0  0  0  0  0  0  0  0  0
   -2.7650   25.2090  -29.1870 O   0  0  0  0  0  0  0  0  0  0  0  0
   -2.1950   22.9760  -29.7790 C   0  0  0  0  0  0  0  0  0  0  0  0
   -0.7920   22.9700  -29.6840 C   0  0  0  0  0  0  0  0  0  0  0  0
   -0.0990   21.7710  -29.4930 C   0  0  0  0  0  0  0  0  0  0  0  0
   -0.7960   20.5610  -29.3930 C   0  0  0  0  0  0  0  0  0  0  0  0
    0.0970   19.0560  -29.1800 S   0  0  0  0  0  0  0  0  0  0  0  0
   -0.6720   18.1290  -28.2800 O   0  0  0  0  0  0  0  0  0  0  0  0
    1.4080   19.3760  -28.5170 O   0  0  0  0  0  0  0  0  0  0  0  0
    0.4030   18.3010  -30.7330 N   0  0  2  0  0  0  0  0  0  0  0  0
    1.3400   19.0720  -31.5750 C   0  0  0  0  0  0  0  0  0  0  0  0
    0.7700   20.4300  -32.0090 C   0  0  0  0  0  0  0  0  0  0  0  0
   -0.6670   20.3400  -32.4420 C   0  0  0  0  0  0  0  0  0  0  0  0
   -1.2520   21.4310  -33.1030 C   0  0  0  0  0  0  0  0  0  0  0  0
   -2.6010   21.3990  -33.4640 C   0  0  0  0  0  0  0  0  0  0  0  0
   -3.3790   20.2790  -33.1620 C   0  0  0  0  0  0  0  0  0  0  0  0
   -2.8110   19.1920  -32.4940 C   0  0  0  0  0  0  0  0  0  0  0  0
   -1.4610   19.2190  -32.1130 C   0  0  0  0  0  0  0  0  0  0  0  0
   -0.8550   18.0040  -31.4490 C   0  0  0  0  0  0  0  0  0  0  0  0
   -2.1930   20.5580  -29.4900 C   0  0  0  0  0  0  0  0  0  0  0  0
   -2.8880   21.7560  -29.6810 C   0  0  0  0  0  0  0  0  0  0  0  0
   -6.5060   25.0720  -28.2170 H   0  0  0  0  0  0  0  0  0  0  0  0
   -4.9080   25.4180  -28.9320 H   0  0  0  0  0  0  0  0  0  0  0  0
   -8.0799   23.5395  -29.3284 H   0  0  0  0  0  0  0  0  0  0  0  0
   -8.6586   22.0780  -31.2617 H   0  0  0  0  0  0  0  0  0  0  0  0
   -7.0291   21.7639  -33.1248 H   0  0  0  0  0  0  0  0  0  0  0  0
   -4.8000   22.8718  -33.0341 H   0  0  0  0  0  0  0  0  0  0  0  0
   -0.2356   23.9158  -29.7606 H   0  0  0  0  0  0  0  0  0  0  0  0
    0.9986   21.7783  -29.4210 H   0  0  0  0  0  0  0  0  0  0  0  0
    0.8630   17.3840  -30.5220 H   0  0  0  0  0  0  0  0  0  0  0  0
    2.2644   19.2449  -31.0045 H   0  0  0  0  0  0  0  0  0  0  0  0
    1.5268   18.4846  -32.4861 H   0  0  0  0  0  0  0  0  0  0  0  0
    0.8401   21.1287  -31.1623 H   0  0  0  0  0  0  0  0  0  0  0  0
    1.3574   20.7787  -32.8712 H   0  0  0  0  0  0  0  0  0  0  0  0
   -0.6442   22.3171  -33.3384 H   0  0  0  0  0  0  0  0  0  0  0  0
   -3.0508   22.2562  -33.9863 H   0  0  0  0  0  0  0  0  0  0  0  0
   -4.4402   20.2531  -33.4506 H   0  0  0  0  0  0  0  0  0  0  0  0
   -3.4259   18.3091  -32.2651 H   0  0  0  0  0  0  0  0  0  0  0  0
   -1.5812   17.6005  -30.7280 H   0  0  0  0  0  0  0  0  0  0  0  0
   -0.6173   17.2809  -32.2431 H   0  0  0  0  0  0  0  0  0  0  0  0
   -2.7455   19.6097  -29.4157 H   0  0  0  0  0  0  0  0  0  0  0  0
   -3.9854   21.7443  -29.7552 H   0  0  0  0  0  0  0  0  0  0  0  0
  1  2  1  0
  2  3  2  0
  3  4  1  0
  4  5  2  0
  5  6  1  0
  6  7  2  0
  7  8  1  0
  8  9  1  0
  9 10  2  0
  9 11  1  0
 11 12  2  0
 12 13  1  0
 13 14  2  0
 14 15  1  0
 15 16  2  0
 15 17  2  0
 15 18  1  0
 18 19  1  0
 19 20  1  0
 20 21  1  0
 21 22  2  0
 22 23  1  0
 23 24  2  0
 24 25  1  0
 25 26  2  0
 26 27  1  0
 14 28  1  0
 28 29  2  0
  7  2  1  0
 29 11  1  0
 27 18  1  0
 26 21  1  0
  1 30  1  0
  1 31  1  0
  3 32  1  0
  4 33  1  0
  5 34  1  0
  6 35  1  0
 12 36  1  0
 13 37  1  0
 18 38  1  1
 19 39  1  0
 19 40  1  0
 20 41  1  0
 20 42  1  0
 22 43  1  0
 23 44  1  0
 24 45  1  0
 25 46  1  0
 27 47  1  0
 27 48  1  0
 28 49  1  0
 29 50  1  0
M  CHG  2   8  -1  18   1
M  END
>  <UniqueID>  (6) 
6

>  <SMILES>  (6) 
Nc1ccccc1[N-]C(=O)c1ccc(S(=O)(=O)[N@@H+]2CCc3ccccc3C2)cc1

>  <Energy>  (6) 
65.15839156055402

>  <Genealogy>  (6) 
Nc1ccccc1[N-]C(=O)c1ccc(S(=O)(=O)[NH+]2CCc3ccccc3C2)cc1 (protonated)
Nc1ccccc1[N-]C(=O)c1ccc(S(=O)(=O)[N@@H+]2CCc3ccccc3C2)cc1 (chirality)
Nc1ccccc1[N-]C(=O)c1ccc(S(=O)(=O)[N@@H+]2CCc3ccccc3C2)cc1 (3D coordinates assigned)
Nc1ccccc1[N-]C(=O)c1ccc(S(=O)(=O)[N@@H+]2CCc3ccccc3C2)cc1 (nonaromatic ring conformer: 65.15839156055402 kcal/mol)

>  <smiles>  (6) 
Nc1ccccc1NC(=O)c1ccc(S(=O)(=O)N2CCc3ccccc3C2)cc1

>  <score_type>  (6) 
oracle

>  <origin>  (6) 
adgpu

>  <m_score__min__energy>  (6) 
-11.869999999999999

>  <m_primary>  (6) 
energy

$$$$
6:0
     RDKit          3D

 49 53  0  0  1  0  0  0  0  0999 V2000
   -2.7020   25.3280  -26.6960 N   0  0  0  0  0  0  0  0  0  0  0  0
   -2.3200   24.6080  -27.5520 C   0  0  0  0  0  0  0  0  0  0  0  0
   -1.8830   23.7370  -28.5840 C   0  0  0  0  0  0  0  0  0  0  0  0
   -2.6800   23.4780  -29.6680 C   0  0  0  0  0  0  0  0  0  0  0  0
   -3.9630   24.1070  -29.9320 C   0  0  0  0  0  0  0  0  0  0  0  0
   -5.2420   23.7700  -29.6570 C   0  0  0  0  0  0  0  0  0  0  0  0
   -6.1050   24.7620  -30.1440 C   0  0  0  0  0  0  0  0  0  0  0  0
   -5.2650   25.6820  -30.7100 C   0  0  0  0  0  0  0  0  0  0  0  0
   -4.0590   25.2770  -30.5690 O   0  0  0  0  0  0  0  0  0  0  0  0
   -2.2200   22.6010  -30.6020 N   0  0  0  0  0  0  0  0  0  0  0  0
   -1.0440   21.9820  -30.5280 C   0  0  0  0  0  0  0  0  0  0  0  0
   -0.5180   20.8500  -31.8040 S   0  0  0  0  0  0  0  0  0  0  0  0
   -1.9210   19.8960  -32.4300 C   0  0  0  0  0  0  0  0  0  0  0  0
   -3.1230   20.7480  -32.6350 C   0  0  0  0  0  0  0  0  0  0  0  0
   -3.2410   21.9900  -33.1000 N   0  0  0  0  0  0  0  0  0  0  0  0
   -4.5490   22.2790  -33.0770 N   0  0  0  0  0  0  0  0  0  0  0  0
   -5.2320   21.2290  -32.6030 C   0  0  0  0  0  0  0  0  0  0  0  0
   -6.6640   21.0550  -32.3900 C   0  0  0  0  0  0  0  0  0  0  0  0
   -7.3860   22.0770  -31.8120 C   0  0  0  0  0  0  0  0  0  0  0  0
   -8.7440   21.9400  -31.5980 C   0  0  0  0  0  0  0  0  0  0  0  0
   -9.3880   20.7840  -31.9610 C   0  0  0  0  0  0  0  0  0  0  0  0
   -8.6870   19.7490  -32.5410 C   0  0  0  0  0  0  0  0  0  0  0  0
   -7.3280   19.9000  -32.7480 C   0  0  0  0  0  0  0  0  0  0  0  0
   -6.4640   18.5820  -33.4810 Cl  0  0  0  0  0  0  0  0  0  0  0  0
   -4.3390   20.3050  -32.3400 O   0  0  0  0  0  0  0  0  0  0  0  0
   -0.2540   22.2200  -29.4840 N   0  0  0  0  0  0  0  0  0  0  0  0
   -0.6540   23.0880  -28.5110 C   0  0  0  0  0  0  0  0  0  0  0  0
    0.1540   23.2590  -27.5680 N   0  0  0  0  0  0  0  0  0  0  0  0
   -0.0080   24.0870  -26.4650 C   0  0  0  0  0  0  0  0  0  0  0  0
    0.3810   25.4170  -26.5790 C   0  0  0  0  0  0  0  0  0  0  0  0
    0.2750   26.2540  -25.4690 C   0  0  0  0  0  0  0  0  0  0  0  0
   -0.2160   25.7130  -24.3000 C   0  0  0  0  0  0  0  0  0  0  0  0
   -0.3060   26.5540  -23.2350 F   0  0  0  0  0  0  0  0  0  0  0  0
   -0.6010   24.3870  -24.1960 C   0  0  0  0  0  0  0  0  0  0  0  0
   -0.5000   23.5460  -25.2920 C   0  0  0  0  0  0  0  0  0  0  0  0
   -5.5581   22.8569  -29.1313 H   0  0  0  0  0  0  0  0  0  0  0  0
   -7.2030   24.7934  -30.0848 H   0  0  0  0  0  0  0  0  0  0  0  0
   -5.5747   26.6147  -31.2041 H   0  0  0  0  0  0  0  0  0  0  0  0
   -2.8010   22.3640  -31.4630 H   0  0  0  0  0  0  0  0  0  0  0  0
   -1.6405   19.4395  -33.3907 H   0  0  0  0  0  0  0  0  0  0  0  0
   -2.1709   19.1272  -31.6840 H   0  0  0  0  0  0  0  0  0  0  0  0
   -6.8777   23.0076  -31.5193 H   0  0  0  0  0  0  0  0  0  0  0  0
   -9.3112   22.7608  -31.1348 H   0  0  0  0  0  0  0  0  0  0  0  0
  -10.4696   20.6829  -31.7881 H   0  0  0  0  0  0  0  0  0  0  0  0
   -9.1987   18.8203  -32.8338 H   0  0  0  0  0  0  0  0  0  0  0  0
    0.7677   25.8041  -27.5333 H   0  0  0  0  0  0  0  0  0  0  0  0
    0.5734   27.3113  -25.5242 H   0  0  0  0  0  0  0  0  0  0  0  0
   -0.9877   24.0008  -23.2414 H   0  0  0  0  0  0  0  0  0  0  0  0
   -0.7995   22.4893  -25.2313 H   0  0  0  0  0  0  0  0  0  0  0  0
  1  2  3  0
  2  3  1  0
  3  4  2  0
  4  5  1  0
  5  6  2  0
  6  7  1  0
  7  8  2  0
  8  9  1  0
  4 10  1  0
 10 11  1  0
 11 12  1  0
 12 13  1  0
 13 14  1  0
 14 15  2  0
 15 16  1  0
 16 17  2  0
 17 18  1  0
 18 19  2  0
 19 20  1  0
 20 21  2  0
 21 22  1  0
 22 23  2  0
 23 24  1  0
 17 25  1  0
 11 26  2  0
 26 27  1  0
 27 28  2  0
 28 29  1  0
 29 30  2  0
 30 31  1  0
 31 32  2  0
 32 33  1  0
 32 34  1  0
 34 35  2  0
 27  3  1  0
 35 29  1  0
  9  5  1  0
 25 14  1  0
 23 18  1  0
  6 36  1  0
  7 37  1  0
  8 38  1  0
 10 39  1  0
 13 40  1  0
 13 41  1  0
 19 42  1  0
 20 43  1  0
 21 44  1  0
 22 45  1  0
 30 46  1  0
 31 47  1  0
 34 48  1  0
 35 49  1  0
M  END
>  <smiles>  (7) 
N#Cc1c(-c2ccco2)[nH]c(SCc2nnc(-c3ccccc3Cl)o2)nc1=Nc1ccc(F)cc1

>  <score_type>  (7) 
oracle

>  <origin>  (7) 
adgpu

>  <m_score__min__energy>  (7) 
-10.699999999999999

>  <m_primary>  (7) 
energy

$$$$
7:0
     RDKit          3D

 38 40  0  0  0  0  0  0  0  0999 V2000
    0.3560   24.4360  -28.3740 O   0  0  0  0  0  0  0  0  0  0  0  0
   -0.7790   24.9170  -28.1030 C   0  0  0  0  0  0  0  0  0  0  0  0
   -1.9510   24.3960  -28.7550 N   0  0  0  0  0  0  0  0  0  0  0  0
   -1.9070   23.3500  -29.7410 C   0  0  0  0  0  0  0  0  0  0  0  0
   -0.8150   22.4640  -29.7780 C   0  0  0  0  0  0  0  0  0  0  0  0
   -0.7900   21.4070  -30.6900 C   0  0  0  0  0  0  0  0  0  0  0  0
   -1.8570   21.2150  -31.5670 C   0  0  0  0  0  0  0  0  0  0  0  0
   -2.9550   22.0760  -31.5320 C   0  0  0  0  0  0  0  0  0  0  0  0
   -2.9990   23.1420  -30.6160 C   0  0  0  0  0  0  0  0  0  0  0  0
   -4.1580   24.0680  -30.6330 C   0  0  0  0  0  0  0  0  0  0  0  0
   -3.9550   25.2990  -30.4460 O   0  0  0  0  0  0  0  0  0  0  0  0
   -5.5420   23.5920  -30.8790 C   0  0  0  0  0  0  0  0  0  0  0  0
   -6.1390   23.7820  -32.1400 C   0  0  0  0  0  0  0  0  0  0  0  0
   -7.4470   23.3480  -32.3770 C   0  0  0  0  0  0  0  0  0  0  0  0
   -8.1770   22.7290  -31.3590 C   0  0  0  0  0  0  0  0  0  0  0  0
   -7.6000   22.5460  -30.1000 C   0  0  0  0  0  0  0  0  0  0  0  0
   -6.2930   22.9780  -29.8580 C   0  0  0  0  0  0  0  0  0  0  0  0
   -0.8760   26.0200  -27.1180 C   0  0  0  0  0  0  0  0  0  0  0  0
   -1.4300   25.7750  -25.8470 C   0  0  0  0  0  0  0  0  0  0  0  0
   -1.5240   26.8050  -24.9050 C   0  0  0  0  0  0  0  0  0  0  0  0
   -1.0600   28.0840  -25.2170 C   0  0  0  0  0  0  0  0  0  0  0  0
   -0.4940   28.3350  -26.4680 C   0  0  0  0  0  0  0  0  0  0  0  0
   -0.3980   27.3110  -27.4150 C   0  0  0  0  0  0  0  0  0  0  0  0
   -2.8860   24.8060  -28.5350 H   0  0  0  0  0  0  0  0  0  0  0  0
    0.0259   22.6050  -29.0830 H   0  0  0  0  0  0  0  0  0  0  0  0
    0.0725   20.7248  -30.7167 H   0  0  0  0  0  0  0  0  0  0  0  0
   -1.8333   20.3840  -32.2873 H   0  0  0  0  0  0  0  0  0  0  0  0
   -3.7931   21.9193  -32.2270 H   0  0  0  0  0  0  0  0  0  0  0  0
   -5.5728   24.2750  -32.9439 H   0  0  0  0  0  0  0  0  0  0  0  0
   -7.9025   23.4943  -33.3675 H   0  0  0  0  0  0  0  0  0  0  0  0
   -9.2049   22.3862  -31.5487 H   0  0  0  0  0  0  0  0  0  0  0  0
   -8.1753   22.0610  -29.2976 H   0  0  0  0  0  0  0  0  0  0  0  0
   -5.8474   22.8373  -28.8622 H   0  0  0  0  0  0  0  0  0  0  0  0
   -1.7911   24.7675  -25.5931 H   0  0  0  0  0  0  0  0  0  0  0  0
   -1.9643   26.6066  -23.9167 H   0  0  0  0  0  0  0  0  0  0  0  0
   -1.1404   28.8940  -24.4771 H   0  0  0  0  0  0  0  0  0  0  0  0
   -0.1223   29.3417  -26.7095 H   0  0  0  0  0  0  0  0  0  0  0  0
    0.0533   27.5148  -28.3973 H   0  0  0  0  0  0  0  0  0  0  0  0
  1  2  2  0
  2  3  1  0
  3  4  1  0
  4  5  2  0
  5  6  1  0
  6  7  2  0
  7  8  1  0
  8  9  2  0
  9 10  1  0
 10 11  2  0
 10 12  1  0
 12 13  2  0
 13 14  1  0
 14 15  2  0
 15 16  1  0
 16 17  2  0
  2 18  1  0
 18 19  2  0
 19 20  1  0
 20 21  2  0
 21 22  1  0
 22 23  2  0
  9  4  1  0
 17 12  1  0
 23 18  1  0
  3 24  1  0
  5 25  1  0
  6 26  1  0
  7 27  1  0
  8 28  1  0
 13 29  1  0
 14 30  1  0
 15 31  1  0
 16 32  1  0
 17 33  1  0
 19 34  1  0
 20 35  1  0
 21 36  1  0
 22 37  1  0
 23 38  1  0
M  END
>  <UniqueID>  (8) 
7

>  <SMILES>  (8) 
O=C(Nc1ccccc1C(=O)c1ccccc1)c1ccccc1

>  <Energy>  (8) 
55.671367421305725

>  <Genealogy>  (8) 
O=C(Nc1ccccc1C(=O)c1ccccc1)c1ccccc1 (3D coordinates assigned)
O=C(Nc1ccccc1C(=O)c1ccccc1)c1ccccc1 (optimized conformer: 55.671367421305725 kcal/mol)

>  <smiles>  (8) 
O=C(Nc1ccccc1C(=O)c1ccccc1)c1ccccc1

>  <score_type>  (8) 
oracle

>  <origin>  (8) 
adgpu

>  <m_score__min__energy>  (8) 
-8.4800000000000004

>  <m_primary>  (8) 
energy

$$$$
8:0
     RDKit          3D

 42 45  0  0  0  0  0  0  0  0999 V2000
   -3.5170   12.1920  -31.9840 C   0  0  0  0  0  0  0  0  0  0  0  0
   -4.4050   13.1890  -32.6470 C   0  0  0  0  0  0  0  0  0  0  0  0
   -4.5230   14.5230  -32.3300 C   0  0  0  0  0  0  0  0  0  0  0  0
   -5.3760   15.0510  -33.2300 N   0  0  0  0  0  0  0  0  0  0  0  0
   -5.8380   16.4150  -33.3260 C   0  0  0  0  0  0  0  0  0  0  0  0
   -6.4910   17.0130  -32.2320 C   0  0  0  0  0  0  0  0  0  0  0  0
   -6.9430   18.3340  -32.3060 C   0  0  0  0  0  0  0  0  0  0  0  0
   -6.7460   19.0870  -33.4670 C   0  0  0  0  0  0  0  0  0  0  0  0
   -7.2190   20.4070  -33.5000 O   0  0  0  0  0  0  0  0  0  0  0  0
   -6.7540   21.4380  -32.6730 C   0  0  0  0  0  0  0  0  0  0  0  0
   -5.3900   21.7430  -32.6830 C   0  0  0  0  0  0  0  0  0  0  0  0
   -4.8850   22.7630  -31.8700 C   0  0  0  0  0  0  0  0  0  0  0  0
   -3.5530   23.0200  -31.8820 F   0  0  0  0  0  0  0  0  0  0  0  0
   -5.7500   23.5020  -31.0480 C   0  0  0  0  0  0  0  0  0  0  0  0
   -5.1270   24.7950  -30.0240 S   0  0  0  0  0  0  0  0  0  0  0  0
   -6.2550   25.6210  -29.4720 O   0  0  0  0  0  0  0  0  0  0  0  0
   -4.2270   25.6750  -30.8440 O   0  0  0  0  0  0  0  0  0  0  0  0
   -4.2180   24.1390  -28.7010 N   0  0  0  0  0  0  0  0  0  0  0  0
   -2.9540   24.6500  -28.2670 C   0  0  0  0  0  0  0  0  0  0  0  0
   -2.4680   24.5260  -26.9660 C   0  0  0  0  0  0  0  0  0  0  0  0
   -0.9560   25.2570  -26.9240 S   0  0  0  0  0  0  0  0  0  0  0  0
   -0.9820   25.6970  -28.5440 C   0  0  0  0  0  0  0  0  0  0  0  0
   -2.1290   25.2970  -29.1330 N   0  0  0  0  0  0  0  0  0  0  0  0
   -7.1200   23.2070  -31.0470 C   0  0  0  0  0  0  0  0  0  0  0  0
   -7.6290   22.1890  -31.8620 C   0  0  0  0  0  0  0  0  0  0  0  0
   -9.3680   21.9270  -31.9000 Cl  0  0  0  0  0  0  0  0  0  0  0  0
   -6.1100   18.4920  -34.5710 C   0  0  0  0  0  0  0  0  0  0  0  0
   -5.6570   17.1720  -34.4990 C   0  0  0  0  0  0  0  0  0  0  0  0
   -5.7460   14.0820  -34.0570 N   0  0  0  0  0  0  0  0  0  0  0  0
   -5.1630   12.9380  -33.7300 N   0  0  0  0  0  0  0  0  0  0  0  0
   -3.6054   12.2912  -30.8921 H   0  0  0  0  0  0  0  0  0  0  0  0
   -3.8159   11.1772  -32.2854 H   0  0  0  0  0  0  0  0  0  0  0  0
   -2.4745   12.3719  -32.2854 H   0  0  0  0  0  0  0  0  0  0  0  0
   -4.0214   15.0525  -31.5066 H   0  0  0  0  0  0  0  0  0  0  0  0
   -6.6474   16.4351  -31.3092 H   0  0  0  0  0  0  0  0  0  0  0  0
   -7.4575   18.7841  -31.4442 H   0  0  0  0  0  0  0  0  0  0  0  0
   -4.7087   21.1767  -33.3350 H   0  0  0  0  0  0  0  0  0  0  0  0
   -2.9801   24.0394  -26.1228 H   0  0  0  0  0  0  0  0  0  0  0  0
   -0.1732   26.2384  -29.0566 H   0  0  0  0  0  0  0  0  0  0  0  0
   -7.8009   23.7801  -30.4005 H   0  0  0  0  0  0  0  0  0  0  0  0
   -5.9682   19.0690  -35.4967 H   0  0  0  0  0  0  0  0  0  0  0  0
   -5.1543   16.7203  -35.3669 H   0  0  0  0  0  0  0  0  0  0  0  0
  1  2  1  0
  2  3  2  0
  3  4  1  0
  4  5  1  0
  5  6  2  0
  6  7  1  0
  7  8  2  0
  8  9  1  0
  9 10  1  0
 10 11  2  0
 11 12  1  0
 12 13  1  0
 12 14  2  0
 14 15  1  0
 15 16  2  0
 15 17  2  0
 15 18  1  0
 18 19  1  0
 19 20  2  0
 20 21  1  0
 21 22  1  0
 22 23  2  0
 14 24  1  0
 24 25  2  0
 25 26  1  0
  8 27  1  0
 27 28  2  0
  4 29  1  0
 29 30  2  0
 30  2  1  0
 28  5  1  0
 25 10  1  0
 23 19  1  0
  1 31  1  0
  1 32  1  0
  1 33  1  0
  3 34  1  0
  6 35  1  0
  7 36  1  0
 11 37  1  0
 20 38  1  0
 22 39  1  0
 24 40  1  0
 27 41  1  0
 28 42  1  0
M  CHG  1  18  -1
M  END
>  <UniqueID>  (9) 
8

>  <SMILES>  (9) 
Cc1cn(-c2ccc(Oc3cc(F)c(S(=O)(=O)[N-]c4cscn4)cc3Cl)cc2)nn1

>  <Energy>  (9) 
123.32759875358589

>  <Genealogy>  (9) 
Cc1cn(-c2ccc(Oc3cc(F)c(S(=O)(=O)[N-]c4cscn4)cc3Cl)cc2)nn1 (protonated)
Cc1cn(-c2ccc(Oc3cc(F)c(S(=O)(=O)[N-]c4cscn4)cc3Cl)cc2)nn1 (3D coordinates assigned)
Cc1cn(-c2ccc(Oc3cc(F)c(S(=O)(=O)[N-]c4cscn4)cc3Cl)cc2)nn1 (optimized conformer: 123.32759875358589 kcal/mol)

>  <smiles>  (9) 
Cc1cn(-c2ccc(Oc3cc(F)c(S(=O)(=O)Nc4cscn4)cc3Cl)cc2)nn1

>  <score_type>  (9) 
oracle

>  <origin>  (9) 
adgpu

>  <m_score__min__energy>  (9) 
-11.199999999999999

>  <m_primary>  (9) 
energy

$$$$
9:0
     RDKit          3D

 55 58  0  0  0  0  0  0  0  0999 V2000
   -2.3790   21.1690  -33.3930 C   0  0  0  0  0  0  0  0  0  0  0  0
   -2.1920   21.6310  -32.0050 N   0  0  0  0  0  0  0  0  0  0  0  0
   -0.8270   21.3180  -31.5580 C   0  0  0  0  0  0  0  0  0  0  0  0
   -3.1810   21.0020  -31.1060 C   0  0  0  0  0  0  0  0  0  0  0  0
   -4.3940   21.8920  -30.9250 C   0  0  0  0  0  0  0  0  0  0  0  0
   -5.6520   21.6120  -31.4860 C   0  0  0  0  0  0  0  0  0  0  0  0
   -6.0640   20.3880  -32.1990 C   0  0  0  0  0  0  0  0  0  0  0  0
   -5.4670   20.0350  -33.4190 C   0  0  0  0  0  0  0  0  0  0  0  0
   -5.8470   18.8640  -34.0790 C   0  0  0  0  0  0  0  0  0  0  0  0
   -6.8140   18.0130  -33.5130 C   0  0  0  0  0  0  0  0  0  0  0  0
   -7.2350   16.8380  -34.1530 O   0  0  0  0  0  0  0  0  0  0  0  0
   -6.6180   15.5840  -34.0390 C   0  0  0  0  0  0  0  0  0  0  0  0
   -5.3720   15.5030  -33.4020 C   0  0  0  0  0  0  0  0  0  0  0  0
   -4.7190   14.2730  -33.2810 C   0  0  0  0  0  0  0  0  0  0  0  0
   -5.3010   13.1170  -33.8080 C   0  0  0  0  0  0  0  0  0  0  0  0
   -6.5340   13.1900  -34.4620 C   0  0  0  0  0  0  0  0  0  0  0  0
   -7.1890   14.4200  -34.5840 C   0  0  0  0  0  0  0  0  0  0  0  0
   -7.4100   18.3670  -32.2980 C   0  0  0  0  0  0  0  0  0  0  0  0
   -7.0290   19.5390  -31.6360 C   0  0  0  0  0  0  0  0  0  0  0  0
   -6.6800   22.9150  -31.2050 S   0  0  0  0  0  0  0  0  0  0  0  0
   -5.5690   23.8320  -30.3480 C   0  0  0  0  0  0  0  0  0  0  0  0
   -5.8620   25.1040  -29.7680 N   0  0  0  0  0  0  0  0  0  0  0  0
   -4.3620   23.1410  -30.2540 C   0  0  0  0  0  0  0  0  0  0  0  0
   -3.1710   23.6950  -29.5770 C   0  0  0  0  0  0  0  0  0  0  0  0
   -2.9190   24.9240  -29.6990 O   0  0  0  0  0  0  0  0  0  0  0  0
   -2.2630   22.8420  -28.7750 C   0  0  0  0  0  0  0  0  0  0  0  0
   -0.9130   23.1960  -28.5930 C   0  0  0  0  0  0  0  0  0  0  0  0
   -0.0700   22.3930  -27.8210 C   0  0  0  0  0  0  0  0  0  0  0  0
   -0.5600   21.2260  -27.2300 C   0  0  0  0  0  0  0  0  0  0  0  0
   -1.8950   20.8560  -27.4150 C   0  0  0  0  0  0  0  0  0  0  0  0
   -2.5670   19.2640  -26.6010 Br  0  0  0  0  0  0  0  0  0  0  0  0
   -2.7420   21.6570  -28.1890 C   0  0  0  0  0  0  0  0  0  0  0  0
   -2.7917   20.1494  -33.3876 H   0  0  0  0  0  0  0  0  0  0  0  0
   -3.0749   21.8435  -33.9133 H   0  0  0  0  0  0  0  0  0  0  0  0
   -1.4099   21.1695  -33.9133 H   0  0  0  0  0  0  0  0  0  0  0  0
   -0.7939   21.3104  -30.4585 H   0  0  0  0  0  0  0  0  0  0  0  0
   -0.5336   20.3293  -31.9405 H   0  0  0  0  0  0  0  0  0  0  0  0
   -0.1321   22.0801  -31.9405 H   0  0  0  0  0  0  0  0  0  0  0  0
   -3.5004   20.0421  -31.5380 H   0  0  0  0  0  0  0  0  0  0  0  0
   -2.7116   20.8454  -30.1236 H   0  0  0  0  0  0  0  0  0  0  0  0
   -4.6952   20.6843  -33.8581 H   0  0  0  0  0  0  0  0  0  0  0  0
   -5.3884   18.6062  -35.0450 H   0  0  0  0  0  0  0  0  0  0  0  0
   -4.9055   16.4123  -32.9951 H   0  0  0  0  0  0  0  0  0  0  0  0
   -3.7463   14.2150  -32.7706 H   0  0  0  0  0  0  0  0  0  0  0  0
   -4.7883   12.1489  -33.7080 H   0  0  0  0  0  0  0  0  0  0  0  0
   -6.9893   12.2804  -34.8807 H   0  0  0  0  0  0  0  0  0  0  0  0
   -8.1544   14.4770  -35.1082 H   0  0  0  0  0  0  0  0  0  0  0  0
   -8.1837   17.7193  -31.8600 H   0  0  0  0  0  0  0  0  0  0  0  0
   -7.4879   19.7961  -30.6699 H   0  0  0  0  0  0  0  0  0  0  0  0
   -6.8500   25.4350  -29.7050 H   0  0  0  0  0  0  0  0  0  0  0  0
   -5.1080   25.7070  -29.3710 H   0  0  0  0  0  0  0  0  0  0  0  0
   -0.5195   24.1102  -29.0613 H   0  0  0  0  0  0  0  0  0  0  0  0
    0.9822   22.6803  -27.6782 H   0  0  0  0  0  0  0  0  0  0  0  0
    0.1050   20.5981  -26.6189 H   0  0  0  0  0  0  0  0  0  0  0  0
   -3.7896   21.3576  -28.3400 H   0  0  0  0  0  0  0  0  0  0  0  0
  1  2  1  0
  2  3  1  0
  2  4  1  0
  4  5  1  0
  5  6  2  0
  6  7  1  0
  7  8  2  0
  8  9  1  0
  9 10  2  0
 10 11  1  0
 11 12  1  0
 12 13  2  0
 13 14  1  0
 14 15  2  0
 15 16  1  0
 16 17  2  0
 10 18  1  0
 18 19  2  0
  6 20  1  0
 20 21  1  0
 21 22  1  0
 21 23  2  0
 23 24  1  0
 24 25  2  0
 24 26  1  0
 26 27  2  0
 27 28  1  0
 28 29  2  0
 29 30  1  0
 30 31  1  0
 30 32  2  0
 23  5  1  0
 32 26  1  0
 19  7  1  0
 17 12  1  0
  1 33  1  0
  1 34  1  0
  1 35  1  0
  3 36  1  0
  3 37  1  0
  3 38  1  0
  4 39  1  0
  4 40  1  0
  8 41  1  0
  9 42  1  0
 13 43  1  0
 14 44  1  0
 15 45  1  0
 16 46  1  0
 17 47  1  0
 18 48  1  0
 19 49  1  0
 22 50  1  0
 22 51  1  0
 27 52  1  0
 28 53  1  0
 29 54  1  0
 32 55  1  0
M  END
>  <UniqueID>  (10) 
9

>  <SMILES>  (10) 
CN(C)Cc1c(-c2ccc(Oc3ccccc3)cc2)sc(N)c1C(=O)c1cccc(Br)c1

>  <Energy>  (10) 
102.51974908880733

>  <Genealogy>  (10) 
CN(C)Cc1c(-c2ccc(Oc3ccccc3)cc2)sc(N)c1C(=O)c1cccc(Br)c1 (3D coordinates assigned)
CN(C)Cc1c(-c2ccc(Oc3ccccc3)cc2)sc(N)c1C(=O)c1cccc(Br)c1 (optimized conformer: 102.51974908880733 kcal/mol)

>  <smiles>  (10) 
CN(C)Cc1c(-c2ccc(Oc3ccccc3)cc2)sc(N)c1C(=O)c1cccc(Br)c1

>  <score_type>  (10) 
oracle

>  <origin>  (10) 
adgpu

>  <m_score__min__energy>  (10) 
-10.210000000000001

>  <m_primary>  (10) 
energy

$$$$
10:0
     RDKit          3D

 46 48  0  0  0  0  0  0  0  0999 V2000
   -3.1780   23.9860  -28.7250 O   0  0  0  0  0  0  0  0  0  0  0  0
   -3.3630   24.0590  -29.9710 C   0  0  0  0  0  0  0  0  0  0  0  0
   -3.8510   25.2760  -30.5470 N   0  0  0  0  0  0  0  0  0  0  0  0
   -5.2670   25.6120  -30.6520 C   0  0  0  0  0  0  0  0  0  0  0  0
   -6.1000   24.7100  -29.7380 C   0  0  0  0  0  0  0  0  0  0  0  0
   -6.7450   23.6060  -30.5320 C   0  0  0  0  0  0  0  0  0  0  0  0
   -6.6660   23.6020  -31.9340 C   0  0  0  0  0  0  0  0  0  0  0  0
   -7.2930   22.5930  -32.6730 C   0  0  0  0  0  0  0  0  0  0  0  0
   -8.0130   21.5850  -32.0190 C   0  0  0  0  0  0  0  0  0  0  0  0
   -8.6400   20.5750  -32.7440 O   0  0  0  0  0  0  0  0  0  0  0  0
   -8.1040   21.5920  -30.6230 C   0  0  0  0  0  0  0  0  0  0  0  0
   -7.4790   22.6000  -29.8810 C   0  0  0  0  0  0  0  0  0  0  0  0
   -3.0810   22.8870  -30.8320 C   0  0  0  0  0  0  0  0  0  0  0  0
   -2.0670   21.9740  -30.4900 C   0  0  0  0  0  0  0  0  0  0  0  0
   -1.8030   20.8680  -31.3040 C   0  0  0  0  0  0  0  0  0  0  0  0
   -2.5510   20.6550  -32.4680 C   0  0  0  0  0  0  0  0  0  0  0  0
   -2.2130   19.2720  -33.5050 S   0  0  0  0  0  0  0  0  0  0  0  0
   -1.1480   19.6360  -34.5020 O   0  0  0  0  0  0  0  0  0  0  0  0
   -1.7320   18.1250  -32.6600 O   0  0  0  0  0  0  0  0  0  0  0  0
   -3.6680   18.8270  -34.3350 N   0  0  0  0  0  0  0  0  0  0  0  0
   -4.8760   18.3810  -33.7030 C   0  0  0  0  0  0  0  0  0  0  0  0
   -5.7100   17.4070  -34.2850 C   0  0  0  0  0  0  0  0  0  0  0  0
   -6.8790   17.0020  -33.6310 C   0  0  0  0  0  0  0  0  0  0  0  0
   -7.2240   17.5630  -32.3990 C   0  0  0  0  0  0  0  0  0  0  0  0
   -6.4010   18.5300  -31.8170 C   0  0  0  0  0  0  0  0  0  0  0  0
   -5.2320   18.9370  -32.4660 C   0  0  0  0  0  0  0  0  0  0  0  0
   -3.5570   21.5630  -32.8200 C   0  0  0  0  0  0  0  0  0  0  0  0
   -3.8230   22.6690  -32.0080 C   0  0  0  0  0  0  0  0  0  0  0  0
   -5.4132   26.6614  -30.3562 H   0  0  0  0  0  0  0  0  0  0  0  0
   -5.5923   25.4630  -31.6922 H   0  0  0  0  0  0  0  0  0  0  0  0
   -5.4463   24.2696  -28.9707 H   0  0  0  0  0  0  0  0  0  0  0  0
   -6.8877   25.3142  -29.2641 H   0  0  0  0  0  0  0  0  0  0  0  0
   -6.1088   24.3955  -32.4534 H   0  0  0  0  0  0  0  0  0  0  0  0
   -7.2204   22.5912  -33.7706 H   0  0  0  0  0  0  0  0  0  0  0  0
   -8.2810   20.2650  -33.6390 H   0  0  0  0  0  0  0  0  0  0  0  0
   -8.6691   20.8019  -30.1068 H   0  0  0  0  0  0  0  0  0  0  0  0
   -7.5625   22.6051  -28.7842 H   0  0  0  0  0  0  0  0  0  0  0  0
   -1.4771   22.1313  -29.5750 H   0  0  0  0  0  0  0  0  0  0  0  0
   -1.0048   20.1629  -31.0287 H   0  0  0  0  0  0  0  0  0  0  0  0
   -5.4421   16.9637  -35.2554 H   0  0  0  0  0  0  0  0  0  0  0  0
   -7.5277   16.2402  -34.0880 H   0  0  0  0  0  0  0  0  0  0  0  0
   -8.1437   17.2432  -31.8873 H   0  0  0  0  0  0  0  0  0  0  0  0
   -6.6732   18.9716  -30.8470 H   0  0  0  0  0  0  0  0  0  0  0  0
   -4.5870   19.6985  -32.0033 H   0  0  0  0  0  0  0  0  0  0  0  0
   -4.1403   21.4053  -33.7392 H   0  0  0  0  0  0  0  0  0  0  0  0
   -4.6184   23.3745  -32.2902 H   0  0  0  0  0  0  0  0  0  0  0  0
  1  2  2  0
  2  3  1  0
  3  4  1  0
  4  5  1  0
  5  6  1  0
  6  7  2  0
  7  8  1  0
  8  9  2  0
  9 10  1  0
  9 11  1  0
 11 12  2  0
  2 13  1  0
 13 14  2  0
 14 15  1  0
 15 16  2  0
 16 17  1  0
 17 18  2  0
 17 19  2  0
 17 20  1  0
 20 21  1  0
 21 22  2  0
 22 23  1  0
 23 24  2  0
 24 25  1  0
 25 26  2  0
 16 27  1  0
 27 28  2  0
 12  6  1  0
 28 13  1  0
 26 21  1  0
  4 29  1  0
  4 30  1  0
  5 31  1  0
  5 32  1  0
  7 33  1  0
  8 34  1  0
 10 35  1  0
 11 36  1  0
 12 37  1  0
 14 38  1  0
 15 39  1  0
 22 40  1  0
 23 41  1  0
 24 42  1  0
 25 43  1  0
 26 44  1  0
 27 45  1  0
 28 46  1  0
M  CHG  2   3  -1  20  -1
M  END
>  <UniqueID>  (11) 
10

>  <SMILES>  (11) 
O=C([N-]CCc1ccc(O)cc1)c1ccc(S(=O)(=O)[N-]c2ccccc2)cc1

>  <Energy>  (11) 
48.840744778834576

>  <Genealogy>  (11) 
O=C([N-]CCc1ccc(O)cc1)c1ccc(S(=O)(=O)[N-]c2ccccc2)cc1 (protonated)
O=C([N-]CCc1ccc(O)cc1)c1ccc(S(=O)(=O)[N-]c2ccccc2)cc1 (3D coordinates assigned)
O=C([N-]CCc1ccc(O)cc1)c1ccc(S(=O)(=O)[N-]c2ccccc2)cc1 (optimized conformer: 48.840744778834576 kcal/mol)

>  <smiles>  (11) 
O=C(NCCc1ccc(O)cc1)c1ccc(S(=O)(=O)Nc2ccccc2)cc1

>  <score_type>  (11) 
oracle

>  <origin>  (11) 
adgpu

>  <m_score__min__energy>  (11) 
-11.050000000000001

>  <m_primary>  (11) 
energy

$$$$
11:0
     RDKit          3D

 52 54  0  0  0  0  0  0  0  0999 V2000
   -8.7710   18.6760  -31.5840 C   0  0  0  0  0  0  0  0  0  0  0  0
   -8.5980   19.8570  -31.7500 C   0  0  0  0  0  0  0  0  0  0  0  0
   -8.3840   21.2950  -31.9520 C   0  0  0  0  0  0  0  0  0  0  0  0
   -6.9570   21.6170  -31.8130 N   0  0  0  0  0  0  0  0  0  0  0  0
   -5.9440   20.7550  -32.3820 C   0  0  0  0  0  0  0  0  0  0  0  0
   -4.7360   20.5080  -31.7040 C   0  0  0  0  0  0  0  0  0  0  0  0
   -3.7660   19.6700  -32.2610 C   0  0  0  0  0  0  0  0  0  0  0  0
   -3.9780   19.0640  -33.5120 C   0  0  0  0  0  0  0  0  0  0  0  0
   -2.9620   18.1670  -34.1140 C   0  0  0  0  0  0  0  0  0  0  0  0
   -3.2800   17.4500  -35.1020 O   0  0  0  0  0  0  0  0  0  0  0  0
   -1.6190   18.1160  -33.6040 N   0  0  0  0  0  0  0  0  0  0  0  0
   -0.6210   17.1880  -34.1290 C   0  0  0  0  0  0  0  0  0  0  0  0
    0.0490   17.7740  -35.3410 C   0  0  0  0  0  0  0  0  0  0  0  0
    0.2660   19.1550  -35.4320 C   0  0  0  0  0  0  0  0  0  0  0  0
    0.8700   19.6940  -36.5700 C   0  0  0  0  0  0  0  0  0  0  0  0
    1.2500   18.8440  -37.6100 C   0  0  0  0  0  0  0  0  0  0  0  0
    1.0290   17.5060  -37.5110 N   0  0  0  0  0  0  0  0  0  0  0  0
    0.4430   16.9570  -36.4140 C   0  0  0  0  0  0  0  0  0  0  0  0
   -5.1900   19.3000  -34.1830 C   0  0  0  0  0  0  0  0  0  0  0  0
   -6.1590   20.1390  -33.6270 C   0  0  0  0  0  0  0  0  0  0  0  0
   -6.5740   22.8730  -31.2170 C   0  0  0  0  0  0  0  0  0  0  0  0
   -7.5520   23.7180  -30.6690 C   0  0  0  0  0  0  0  0  0  0  0  0
   -7.1860   24.9350  -30.0920 C   0  0  0  0  0  0  0  0  0  0  0  0
   -5.8450   25.3220  -30.0590 C   0  0  0  0  0  0  0  0  0  0  0  0
   -4.8560   24.4960  -30.6050 C   0  0  0  0  0  0  0  0  0  0  0  0
   -3.4910   24.9350  -30.5530 N   0  0  0  0  0  0  0  0  0  0  0  0
   -2.3670   24.5530  -29.2910 S   0  0  0  0  0  0  0  0  0  0  0  0
   -3.2720   24.0620  -27.8420 C   0  0  0  0  0  0  0  0  0  0  0  0
   -1.5350   25.7630  -28.9640 O   0  0  0  0  0  0  0  0  0  0  0  0
   -1.4780   23.4220  -29.7230 O   0  0  0  0  0  0  0  0  0  0  0  0
   -5.2260   23.2700  -31.1880 C   0  0  0  0  0  0  0  0  0  0  0  0
   -8.9289   17.5980  -31.4325 H   0  0  0  0  0  0  0  0  0  0  0  0
   -8.7239   21.5755  -32.9599 H   0  0  0  0  0  0  0  0  0  0  0  0
   -8.9548   21.8539  -31.1958 H   0  0  0  0  0  0  0  0  0  0  0  0
   -4.5534   20.9787  -30.7267 H   0  0  0  0  0  0  0  0  0  0  0  0
   -2.8289   19.4830  -31.7162 H   0  0  0  0  0  0  0  0  0  0  0  0
   -1.3090   18.8010  -32.8790 H   0  0  0  0  0  0  0  0  0  0  0  0
    0.1356   16.9925  -33.3549 H   0  0  0  0  0  0  0  0  0  0  0  0
   -1.1193   16.2496  -34.4139 H   0  0  0  0  0  0  0  0  0  0  0  0
   -0.0395   19.8151  -34.6068 H   0  0  0  0  0  0  0  0  0  0  0  0
    1.0445   20.7774  -36.6460 H   0  0  0  0  0  0  0  0  0  0  0  0
    1.7286   19.2569  -38.5103 H   0  0  0  0  0  0  0  0  0  0  0  0
    0.2769   15.8707  -36.3663 H   0  0  0  0  0  0  0  0  0  0  0  0
   -5.3775   18.8198  -35.1547 H   0  0  0  0  0  0  0  0  0  0  0  0
   -7.0992   20.3192  -34.1688 H   0  0  0  0  0  0  0  0  0  0  0  0
   -8.6105   23.4199  -30.6945 H   0  0  0  0  0  0  0  0  0  0  0  0
   -7.9567   25.5915  -29.6618 H   0  0  0  0  0  0  0  0  0  0  0  0
   -5.5641   26.2819  -29.6011 H   0  0  0  0  0  0  0  0  0  0  0  0
   -2.7156   24.3639  -26.9424 H   0  0  0  0  0  0  0  0  0  0  0  0
   -4.2585   24.5486  -27.8435 H   0  0  0  0  0  0  0  0  0  0  0  0
   -3.4019   22.9697  -27.8435 H   0  0  0  0  0  0  0  0  0  0  0  0
   -4.4550   22.6178  -31.6241 H   0  0  0  0  0  0  0  0  0  0  0  0
  1  2  3  0
  2  3  1  0
  3  4  1  0
  4  5  1  0
  5  6  2  0
  6  7  1  0
  7  8  2  0
  8  9  1  0
  9 10  2  0
  9 11  1  0
 11 12  1  0
 12 13  1  0
 13 14  2  0
 14 15  1  0
 15 16  2  0
 16 17  1  0
 17 18  2  0
  8 19  1  0
 19 20  2  0
  4 21  1  0
 21 22  2  0
 22 23  1  0
 23 24  2  0
 24 25  1  0
 25 26  1  0
 26 27  1  0
 27 28  1  0
 27 29  2  0
 27 30  2  0
 25 31  2  0
 20  5  1  0
 31 21  1  0
 18 13  1  0
  1 32  1  0
  3 33  1  0
  3 34  1  0
  6 35  1  0
  7 36  1  0
 11 37  1  0
 12 38  1  0
 12 39  1  0
 14 40  1  0
 15 41  1  0
 16 42  1  0
 18 43  1  0
 19 44  1  0
 20 45  1  0
 22 46  1  0
 23 47  1  0
 24 48  1  0
 28 49  1  0
 28 50  1  0
 28 51  1  0
 31 52  1  0
M  CHG  1  26  -1
M  END
>  <UniqueID>  (12) 
11

>  <SMILES>  (12) 
C#CCN(c1ccc(C(=O)NCc2cccnc2)cc1)c1cccc([N-]S(C)(=O)=O)c1

>  <Energy>  (12) 
60.28530040904726

>  <Genealogy>  (12) 
C#CCN(c1ccc(C(=O)NCc2cccnc2)cc1)c1cccc([N-]S(C)(=O)=O)c1 (protonated)
C#CCN(c1ccc(C(=O)NCc2cccnc2)cc1)c1cccc([N-]S(C)(=O)=O)c1 (3D coordinates assigned)
C#CCN(c1ccc(C(=O)NCc2cccnc2)cc1)c1cccc([N-]S(C)(=O)=O)c1 (optimized conformer: 60.28530040904726 kcal/mol)

>  <smiles>  (12) 
C#CCN(c1ccc(C(=O)NCc2cccnc2)cc1)c1cccc(NS(C)(=O)=O)c1

>  <score_type>  (12) 
oracle

>  <origin>  (12) 
adgpu

>  <m_score__min__energy>  (12) 
-10.369999999999999

>  <m_primary>  (12) 
energy

$$$$
12:0
     RDKit          3D

 46 48  0  0  0  0  0  0  0  0999 V2000
   -2.4470   20.6220  -33.3520 C   0  0  0  0  0  0  0  0  0  0  0  0
   -3.1610   21.2240  -32.2750 O   0  0  0  0  0  0  0  0  0  0  0  0
   -2.5800   22.0200  -31.2760 C   0  0  0  0  0  0  0  0  0  0  0  0
   -1.2600   21.8050  -30.8370 C   0  0  0  0  0  0  0  0  0  0  0  0
   -0.6990   22.6140  -29.8500 C   0  0  0  0  0  0  0  0  0  0  0  0
   -1.4360   23.6680  -29.2920 C   0  0  0  0  0  0  0  0  0  0  0  0
   -0.8710   24.5370  -28.2360 C   0  0  0  0  0  0  0  0  0  0  0  0
    0.3930   24.9030  -28.2050 O   0  0  0  0  0  0  0  0  0  0  0  0
    0.6430   25.6710  -27.1840 N   0  0  0  0  0  0  0  0  0  0  0  0
   -0.5130   25.8220  -26.5090 C   0  0  0  0  0  0  0  0  0  0  0  0
   -0.6390   26.6040  -25.2440 C   0  0  0  0  0  0  0  0  0  0  0  0
   -1.5080   25.0910  -27.1320 C   0  0  0  0  0  0  0  0  0  0  0  0
   -2.9260   24.9210  -26.6750 C   0  0  0  0  0  0  0  0  0  0  0  0
   -2.7580   23.8710  -29.7110 C   0  0  0  0  0  0  0  0  0  0  0  0
   -3.3360   23.0590  -30.6950 C   0  0  0  0  0  0  0  0  0  0  0  0
   -4.9850   23.4120  -31.2250 S   0  0  0  0  0  0  0  0  0  0  0  0
   -5.0900   24.8780  -31.5410 O   0  0  0  0  0  0  0  0  0  0  0  0
   -5.9870   23.0950  -30.1520 O   0  0  0  0  0  0  0  0  0  0  0  0
   -5.3320   22.5010  -32.6590 N   0  0  0  0  0  0  0  0  0  0  0  0
   -6.3310   21.4760  -32.6710 C   0  0  0  0  0  0  0  0  0  0  0  0
   -6.0080   20.1550  -33.0240 C   0  0  0  0  0  0  0  0  0  0  0  0
   -6.9970   19.1700  -33.0420 C   0  0  0  0  0  0  0  0  0  0  0  0
   -8.3130   19.4920  -32.7010 C   0  0  0  0  0  0  0  0  0  0  0  0
   -8.6500   20.8070  -32.3380 C   0  0  0  0  0  0  0  0  0  0  0  0
  -10.0540   21.1530  -31.9300 C   0  0  0  0  0  0  0  0  0  0  0  0
   -7.6500   21.7890  -32.3040 C   0  0  0  0  0  0  0  0  0  0  0  0
   -1.6643   19.9621  -32.9496 H   0  0  0  0  0  0  0  0  0  0  0  0
   -3.1418   20.0330  -33.9687 H   0  0  0  0  0  0  0  0  0  0  0  0
   -1.9839   21.4063  -33.9687 H   0  0  0  0  0  0  0  0  0  0  0  0
   -0.6654   20.9908  -31.2770 H   0  0  0  0  0  0  0  0  0  0  0  0
    0.3287   22.4241  -29.5068 H   0  0  0  0  0  0  0  0  0  0  0  0
   -0.5301   25.9283  -24.3828 H   0  0  0  0  0  0  0  0  0  0  0  0
    0.1468   27.3729  -25.2084 H   0  0  0  0  0  0  0  0  0  0  0  0
   -1.6266   27.0871  -25.2084 H   0  0  0  0  0  0  0  0  0  0  0  0
   -2.9589   24.9171  -25.5755 H   0  0  0  0  0  0  0  0  0  0  0  0
   -3.5366   25.7524  -27.0571 H   0  0  0  0  0  0  0  0  0  0  0  0
   -3.3227   23.9689  -27.0571 H   0  0  0  0  0  0  0  0  0  0  0  0
   -3.3507   24.6805  -29.2601 H   0  0  0  0  0  0  0  0  0  0  0  0
   -4.5980   22.4940  -33.4030 H   0  0  0  0  0  0  0  0  0  0  0  0
   -4.9718   19.8959  -33.2872 H   0  0  0  0  0  0  0  0  0  0  0  0
   -6.7398   18.1387  -33.3251 H   0  0  0  0  0  0  0  0  0  0  0  0
   -9.0890   18.7125  -32.7167 H   0  0  0  0  0  0  0  0  0  0  0  0
  -10.1232   21.1701  -30.8323 H   0  0  0  0  0  0  0  0  0  0  0  0
  -10.3185   22.1432  -32.3295 H   0  0  0  0  0  0  0  0  0  0  0  0
  -10.7483   20.3991  -32.3295 H   0  0  0  0  0  0  0  0  0  0  0  0
   -7.9003   22.8123  -31.9875 H   0  0  0  0  0  0  0  0  0  0  0  0
  1  2  1  0
  2  3  1  0
  3  4  2  0
  4  5  1  0
  5  6  2  0
  6  7  1  0
  7  8  1  0
  8  9  1  0
  9 10  2  0
 10 11  1  0
 10 12  1  0
 12 13  1  0
  6 14  1  0
 14 15  2  0
 15 16  1  0
 16 17  2  0
 16 18  2  0
 16 19  1  0
 19 20  1  0
 20 21  2  0
 21 22  1  0
 22 23  2  0
 23 24  1  0
 24 25  1  0
 24 26  2  0
 15  3  1  0
 26 20  1  0
 12  7  2  0
  1 27  1  0
  1 28  1  0
  1 29  1  0
  4 30  1  0
  5 31  1  0
 11 32  1  0
 11 33  1  0
 11 34  1  0
 13 35  1  0
 13 36  1  0
 13 37  1  0
 14 38  1  0
 19 39  1  0
 21 40  1  0
 22 41  1  0
 23 42  1  0
 25 43  1  0
 25 44  1  0
 25 45  1  0
 26 46  1  0
M  END
>  <UniqueID>  (13) 
12

>  <SMILES>  (13) 
COc1ccc(-c2onc(C)c2C)cc1S(=O)(=O)Nc1cccc(C)c1

>  <Energy>  (13) 
83.98597093277769

>  <Genealogy>  (13) 
COc1ccc(-c2onc(C)c2C)cc1S(=O)(=O)Nc1cccc(C)c1 (3D coordinates assigned)
COc1ccc(-c2onc(C)c2C)cc1S(=O)(=O)Nc1cccc(C)c1 (optimized conformer: 83.98597093277769 kcal/mol)

>  <smiles>  (13) 
COc1ccc(-c2onc(C)c2C)cc1S(=O)(=O)Nc1cccc(C)c1

>  <score_type>  (13) 
oracle

>  <origin>  (13) 
adgpu

>  <m_score__min__energy>  (13) 
-9.8100000000000005

>  <m_primary>  (13) 
energy

$$$$
13:0
     RDKit          3D

 51 53  0  0  0  0  0  0  0  0999 V2000
   -3.6072   20.8136  -30.2474 H   0  0  0  0  0  0  0  0  0  0  0  0
   -3.2210   21.8090  -29.9830 C   0  0  0  0  0  0  0  0  0  0  0  0
   -3.8970   22.9220  -30.3720 N   0  0  0  0  0  0  0  0  0  0  0  0
   -3.4600   24.1770  -30.0730 C   0  0  0  0  0  0  0  0  0  0  0  0
   -4.1250   25.2260  -30.4610 N   0  0  0  0  0  0  0  0  0  0  0  0
   -5.3760   25.1880  -31.2160 C   0  0  0  0  0  0  0  0  0  0  0  0
   -5.8308   26.1896  -31.2135 H   0  0  0  0  0  0  0  0  0  0  0  0
   -5.1595   24.8722  -32.2472 H   0  0  0  0  0  0  0  0  0  0  0  0
   -6.3540   24.1880  -30.5860 C   0  0  0  0  0  0  0  0  0  0  0  0
   -5.7953   23.2906  -30.2819 H   0  0  0  0  0  0  0  0  0  0  0  0
   -6.8271   24.6785  -29.7226 H   0  0  0  0  0  0  0  0  0  0  0  0
   -7.4670   23.7710  -31.5570 C   0  0  0  0  0  0  0  0  0  0  0  0
   -8.4379   24.0713  -31.1361 H   0  0  0  0  0  0  0  0  0  0  0  0
   -7.2838   24.2677  -32.5212 H   0  0  0  0  0  0  0  0  0  0  0  0
   -7.4760   22.2810  -31.7910 C   0  0  0  0  0  0  0  0  0  0  0  0
   -6.3140   21.6310  -32.2420 C   0  0  0  0  0  0  0  0  0  0  0  0
   -5.3907   22.2074  -32.4011 H   0  0  0  0  0  0  0  0  0  0  0  0
   -6.3270   20.2560  -32.4890 C   0  0  0  0  0  0  0  0  0  0  0  0
   -5.4151   19.7527  -32.8427 H   0  0  0  0  0  0  0  0  0  0  0  0
   -7.4980   19.5190  -32.2870 C   0  0  0  0  0  0  0  0  0  0  0  0
   -7.5059   18.4358  -32.4785 H   0  0  0  0  0  0  0  0  0  0  0  0
   -8.6580   20.1580  -31.8420 C   0  0  0  0  0  0  0  0  0  0  0  0
   -9.5788   19.5774  -31.6841 H   0  0  0  0  0  0  0  0  0  0  0  0
   -8.6500   21.5350  -31.5970 C   0  0  0  0  0  0  0  0  0  0  0  0
   -9.5665   22.0355  -31.2511 H   0  0  0  0  0  0  0  0  0  0  0  0
   -2.2800   24.3390  -29.3420 C   0  0  0  0  0  0  0  0  0  0  0  0
   -1.9161   25.3469  -29.0934 H   0  0  0  0  0  0  0  0  0  0  0  0
   -1.5670   23.2130  -28.9300 C   0  0  0  0  0  0  0  0  0  0  0  0
   -0.6367   23.3349  -28.3558 H   0  0  0  0  0  0  0  0  0  0  0  0
   -2.0300   21.9240  -29.2440 C   0  0  0  0  0  0  0  0  0  0  0  0
   -1.2810   20.7160  -28.8100 C   0  0  0  0  0  0  0  0  0  0  0  0
   -1.6160   20.0550  -27.6140 C   0  0  0  0  0  0  0  0  0  0  0  0
   -2.4411   20.4347  -26.9935 H   0  0  0  0  0  0  0  0  0  0  0  0
   -0.9090   18.9200  -27.2080 C   0  0  0  0  0  0  0  0  0  0  0  0
   -1.1724   18.4212  -26.2636 H   0  0  0  0  0  0  0  0  0  0  0  0
    0.1350   18.4120  -27.9970 C   0  0  0  0  0  0  0  0  0  0  0  0
    0.8960   17.2190  -27.5670 C   0  0  0  0  0  0  0  0  0  0  0  0
    0.2660   16.2360  -27.0890 O   0  0  0  0  0  0  0  0  0  0  0  0
    2.3300   17.1560  -27.6750 N   0  0  0  0  0  0  0  0  0  0  0  0
    2.9750   15.8490  -27.8270 C   0  0  0  0  0  0  0  0  0  0  0  0
    3.1840   15.4255  -26.8335 H   0  0  0  0  0  0  0  0  0  0  0  0
    2.3072   15.1727  -28.3808 H   0  0  0  0  0  0  0  0  0  0  0  0
    3.9180   15.9677  -28.3808 H   0  0  0  0  0  0  0  0  0  0  0  0
    3.1430   18.3590  -27.4610 C   0  0  0  0  0  0  0  0  0  0  0  0
    3.2614   18.5343  -26.3815 H   0  0  0  0  0  0  0  0  0  0  0  0
    4.1326   18.2193  -27.9205 H   0  0  0  0  0  0  0  0  0  0  0  0
    2.6443   19.2251  -27.9205 H   0  0  0  0  0  0  0  0  0  0  0  0
    0.4870   19.0820  -29.1780 C   0  0  0  0  0  0  0  0  0  0  0  0
    1.3234   18.7103  -29.7881 H   0  0  0  0  0  0  0  0  0  0  0  0
   -0.2170   20.2180  -29.5850 C   0  0  0  0  0  0  0  0  0  0  0  0
    0.0626   20.7275  -30.5190 H   0  0  0  0  0  0  0  0  0  0  0  0
  1  2  1  0
  2  3  1  0
  3  4  1  0
  4  5  2  0
  5  6  1  0
  6  7  1  0
  6  8  1  0
  6  9  1  0
  9 10  1  0
  9 11  1  0
  9 12  1  0
 12 13  1  0
 12 14  1  0
 12 15  1  0
 15 16  2  0
 16 17  1  0
 16 18  1  0
 18 19  1  0
 18 20  2  0
 20 21  1  0
 20 22  1  0
 22 23  1  0
 22 24  2  0
 24 25  1  0
  4 26  1  0
 26 27  1  0
 26 28  2  0
 28 29  1  0
 28 30  1  0
 30 31  1  0
 31 32  2  0
 32 33  1  0
 32 34  1  0
 34 35  1  0
 34 36  2  0
 36 37  1  0
 37 38  2  0
 37 39  1  0
 39 40  1  0
 40 41  1  0
 40 42  1  0
 40 43  1  0
 39 44  1  0
 44 45  1  0
 44 46  1  0
 44 47  1  0
 36 48  1  0
 48 49  1  0
 48 50  2  0
 50 51  1  0
 30  2  2  0
 50 31  1  0
 24 15  1  0
M  CHG  1   3  -1
M  END
>  <UniqueID>  (14) 
13

>  <SMILES>  (14) 
CN(C)C(=O)c1ccc(-c2cc/c(=N/CCCc3ccccc3)[n-]c2)cc1

>  <Energy>  (14) 
57.571455950794885

>  <Genealogy>  (14) 
CN(C)C(=O)c1ccc(-c2ccc(=NCCCc3ccccc3)[n-]c2)cc1 (protonated)
CN(C)C(=O)c1ccc(-c2cc/c(=N/CCCc3ccccc3)[n-]c2)cc1 (cis-trans isomerization)
CN(C)C(=O)c1ccc(-c2cc/c(=N/CCCc3ccccc3)[n-]c2)cc1 (3D coordinates assigned)
CN(C)C(=O)c1ccc(-c2cc/c(=N/CCCc3ccccc3)[n-]c2)cc1 (optimized conformer: 57.571455950794885 kcal/mol)

>  <smiles>  (14) 
CN(C)C(=O)c1ccc(-c2ccc(=NCCCc3ccccc3)[nH]c2)cc1

>  <score_type>  (14) 
oracle

>  <origin>  (14) 
adgpu

>  <m_score__min__energy>  (14) 
-9.3699999999999992

>  <m_primary>  (14) 
energy

$$$$
14:0
     RDKit          3D

 47 49  0  0  0  0  0  0  0  0999 V2000
   -2.3070   25.6640  -26.0130 C   0  0  0  0  0  0  0  0  0  0  0  0
   -1.0650   25.3350  -26.8370 C   0  0  0  0  0  0  0  0  0  0  0  0
   -1.2400   25.6650  -28.3240 C   0  0  0  0  0  0  0  0  0  0  0  0
   -2.5110   25.1430  -28.8320 N   0  0  0  0  0  0  0  0  0  0  0  0
   -2.6660   24.0140  -29.7180 C   0  0  0  0  0  0  0  0  0  0  0  0
   -1.6450   23.0680  -29.9260 C   0  0  0  0  0  0  0  0  0  0  0  0
   -1.8420   21.9900  -30.7950 C   0  0  0  0  0  0  0  0  0  0  0  0
   -3.0570   21.8370  -31.4830 C   0  0  0  0  0  0  0  0  0  0  0  0
   -3.2680   20.6760  -32.3800 C   0  0  0  0  0  0  0  0  0  0  0  0
   -2.3240   19.8630  -32.5790 O   0  0  0  0  0  0  0  0  0  0  0  0
   -4.5360   20.4590  -33.0190 N   0  0  0  0  0  0  0  0  0  0  0  0
   -4.9030   19.1870  -33.5720 C   0  0  0  0  0  0  0  0  0  0  0  0
   -3.9290   18.4440  -34.2530 C   0  0  0  0  0  0  0  0  0  0  0  0
   -4.2240   17.1760  -34.7560 C   0  0  0  0  0  0  0  0  0  0  0  0
   -5.5010   16.6410  -34.5900 C   0  0  0  0  0  0  0  0  0  0  0  0
   -6.4930   17.3790  -33.9390 C   0  0  0  0  0  0  0  0  0  0  0  0
   -6.2160   18.6630  -33.4350 C   0  0  0  0  0  0  0  0  0  0  0  0
   -7.3110   19.4650  -32.8360 C   0  0  0  0  0  0  0  0  0  0  0  0
   -8.5410   18.9900  -32.4090 C   0  0  0  0  0  0  0  0  0  0  0  0
   -9.2210   20.0860  -31.9200 C   0  0  0  0  0  0  0  0  0  0  0  0
   -8.3670   21.1570  -32.0810 C   0  0  0  0  0  0  0  0  0  0  0  0
   -8.6570   22.5670  -31.6920 C   0  0  0  0  0  0  0  0  0  0  0  0
   -7.2440   20.7620  -32.6320 O   0  0  0  0  0  0  0  0  0  0  0  0
   -4.0770   22.7810  -31.2740 C   0  0  0  0  0  0  0  0  0  0  0  0
   -3.8810   23.8560  -30.4040 C   0  0  0  0  0  0  0  0  0  0  0  0
   -2.0642   25.5997  -24.9421 H   0  0  0  0  0  0  0  0  0  0  0  0
   -2.6460   26.6829  -26.2515 H   0  0  0  0  0  0  0  0  0  0  0  0
   -3.1059   24.9465  -26.2515 H   0  0  0  0  0  0  0  0  0  0  0  0
   -0.2176   25.9162  -26.4444 H   0  0  0  0  0  0  0  0  0  0  0  0
   -0.8873   24.2526  -26.7544 H   0  0  0  0  0  0  0  0  0  0  0  0
   -1.2218   26.7571  -28.4546 H   0  0  0  0  0  0  0  0  0  0  0  0
   -0.4190   25.1957  -28.8859 H   0  0  0  0  0  0  0  0  0  0  0  0
   -3.3710   25.6660  -28.5480 H   0  0  0  0  0  0  0  0  0  0  0  0
   -0.6846   23.1773  -29.4010 H   0  0  0  0  0  0  0  0  0  0  0  0
   -1.0372   21.2545  -30.9412 H   0  0  0  0  0  0  0  0  0  0  0  0
   -5.1170   21.2900  -33.2700 H   0  0  0  0  0  0  0  0  0  0  0  0
   -2.9221   18.8644  -34.3924 H   0  0  0  0  0  0  0  0  0  0  0  0
   -3.4498   16.5991  -35.2830 H   0  0  0  0  0  0  0  0  0  0  0  0
   -5.7281   15.6350  -34.9727 H   0  0  0  0  0  0  0  0  0  0  0  0
   -7.4997   16.9521  -33.8195 H   0  0  0  0  0  0  0  0  0  0  0  0
   -8.9012   17.9515  -32.4514 H   0  0  0  0  0  0  0  0  0  0  0  0
  -10.2337   20.1024  -31.4909 H   0  0  0  0  0  0  0  0  0  0  0  0
   -8.6738   22.6487  -30.5952 H   0  0  0  0  0  0  0  0  0  0  0  0
   -7.8758   23.2272  -32.0969 H   0  0  0  0  0  0  0  0  0  0  0  0
   -9.6353   22.8653  -32.0969 H   0  0  0  0  0  0  0  0  0  0  0  0
   -5.0372   22.6724  -31.7997 H   0  0  0  0  0  0  0  0  0  0  0  0
   -4.6884   24.5879  -30.2544 H   0  0  0  0  0  0  0  0  0  0  0  0
  1  2  1  0
  2  3  1  0
  3  4  1  0
  4  5  1  0
  5  6  2  0
  6  7  1  0
  7  8  2  0
  8  9  1  0
  9 10  2  0
  9 11  1  0
 11 12  1  0
 12 13  2  0
 13 14  1  0
 14 15  2  0
 15 16  1  0
 16 17  2  0
 17 18  1  0
 18 19  2  0
 19 20  1  0
 20 21  2  0
 21 22  1  0
 21 23  1  0
  8 24  1  0
 24 25  2  0
 25  5  1  0
 17 12  1  0
 23 18  1  0
  1 26  1  0
  1 27  1  0
  1 28  1  0
  2 29  1  0
  2 30  1  0
  3 31  1  0
  3 32  1  0
  4 33  1  0
  6 34  1  0
  7 35  1  0
 11 36  1  0
 13 37  1  0
 14 38  1  0
 15 39  1  0
 16 40  1  0
 19 41  1  0
 20 42  1  0
 22 43  1  0
 22 44  1  0
 22 45  1  0
 24 46  1  0
 25 47  1  0
M  END
>  <UniqueID>  (15) 
14

>  <SMILES>  (15) 
CCCNc1ccc(C(=O)Nc2ccccc2-c2ccc(C)o2)cc1

>  <Energy>  (15) 
79.55567993921915

>  <Genealogy>  (15) 
CCCNc1ccc(C(=O)Nc2ccccc2-c2ccc(C)o2)cc1 (3D coordinates assigned)
CCCNc1ccc(C(=O)Nc2ccccc2-c2ccc(C)o2)cc1 (optimized conformer: 79.55567993921915 kcal/mol)

>  <smiles>  (15) 
CCCNc1ccc(C(=O)Nc2ccccc2-c2ccc(C)o2)cc1

>  <score_type>  (15) 
oracle

>  <origin>  (15) 
adgpu

>  <m_score__min__energy>  (15) 
-8.4700000000000006

>  <m_primary>  (15) 
energy

$$$$
15:0
     RDKit          3D

 51 54  0  0  0  0  0  0  0  0999 V2000
   -5.6910   26.1760  -30.1360 O   0  0  0  0  0  0  0  0  0  0  0  0
   -5.0140   25.1780  -30.4990 C   0  0  0  0  0  0  0  0  0  0  0  0
   -3.5820   25.2620  -30.4440 N   0  0  0  0  0  0  0  0  0  0  0  0
   -2.7200   24.4610  -29.6210 C   0  0  0  0  0  0  0  0  0  0  0  0
   -2.3300   24.8790  -28.3380 C   0  0  0  0  0  0  0  0  0  0  0  0
   -1.4900   24.0770  -27.5630 C   0  0  0  0  0  0  0  0  0  0  0  0
   -1.0460   22.8470  -28.0530 C   0  0  0  0  0  0  0  0  0  0  0  0
   -1.4480   22.3990  -29.3240 C   0  0  0  0  0  0  0  0  0  0  0  0
   -0.9870   21.0860  -29.8420 C   0  0  0  0  0  0  0  0  0  0  0  0
   -0.3790   20.1510  -28.9830 C   0  0  0  0  0  0  0  0  0  0  0  0
    0.0560   18.9150  -29.4730 C   0  0  0  0  0  0  0  0  0  0  0  0
   -0.1130   18.5980  -30.8220 C   0  0  0  0  0  0  0  0  0  0  0  0
   -0.7150   19.5170  -31.6850 C   0  0  0  0  0  0  0  0  0  0  0  0
   -1.1500   20.7540  -31.2010 C   0  0  0  0  0  0  0  0  0  0  0  0
   -2.2950   23.2150  -30.0980 C   0  0  0  0  0  0  0  0  0  0  0  0
   -5.7100   23.9420  -30.9260 C   0  0  0  0  0  0  0  0  0  0  0  0
   -6.7060   24.0010  -31.9150 C   0  0  0  0  0  0  0  0  0  0  0  0
   -7.3420   22.8330  -32.3470 C   0  0  0  0  0  0  0  0  0  0  0  0
   -6.9960   21.5930  -31.7930 C   0  0  0  0  0  0  0  0  0  0  0  0
   -7.7740   20.1130  -32.3620 S   0  0  0  0  0  0  0  0  0  0  0  0
   -9.1130   20.4590  -32.9540 O   0  0  0  0  0  0  0  0  0  0  0  0
   -8.0050   19.1980  -31.1920 O   0  0  0  0  0  0  0  0  0  0  0  0
   -6.8190   19.2760  -33.5630 N   0  0  0  0  0  0  0  0  0  0  0  0
   -5.4180   19.7030  -33.5600 C   0  0  0  0  0  0  0  0  0  0  0  0
   -4.6090   18.5410  -34.1210 C   0  0  0  0  0  0  0  0  0  0  0  0
   -5.5070   17.3180  -33.9830 C   0  0  0  0  0  0  0  0  0  0  0  0
   -6.7920   17.8280  -33.3470 C   0  0  0  0  0  0  0  0  0  0  0  0
   -6.0320   21.5370  -30.7770 C   0  0  0  0  0  0  0  0  0  0  0  0
   -5.3930   22.7030  -30.3460 C   0  0  0  0  0  0  0  0  0  0  0  0
   -2.6875   25.8412  -27.9426 H   0  0  0  0  0  0  0  0  0  0  0  0
   -1.1772   24.4148  -26.5640 H   0  0  0  0  0  0  0  0  0  0  0  0
   -0.3772   22.2243  -27.4406 H   0  0  0  0  0  0  0  0  0  0  0  0
   -0.2450   20.3941  -27.9186 H   0  0  0  0  0  0  0  0  0  0  0  0
    0.5319   18.1918  -28.7943 H   0  0  0  0  0  0  0  0  0  0  0  0
    0.2277   17.6249  -31.2053 H   0  0  0  0  0  0  0  0  0  0  0  0
   -0.8470   19.2665  -32.7479 H   0  0  0  0  0  0  0  0  0  0  0  0
   -1.6228   21.4731  -31.8861 H   0  0  0  0  0  0  0  0  0  0  0  0
   -2.6266   22.8699  -31.0884 H   0  0  0  0  0  0  0  0  0  0  0  0
   -6.9869   24.9707  -32.3517 H   0  0  0  0  0  0  0  0  0  0  0  0
   -8.1175   22.8877  -33.1252 H   0  0  0  0  0  0  0  0  0  0  0  0
   -7.2330   19.4710  -34.5060 H   0  0  0  0  0  0  0  0  0  0  0  0
   -5.2913   20.5942  -34.1922 H   0  0  0  0  0  0  0  0  0  0  0  0
   -5.0849   19.9654  -32.5450 H   0  0  0  0  0  0  0  0  0  0  0  0
   -4.3615   18.7193  -35.1779 H   0  0  0  0  0  0  0  0  0  0  0  0
   -3.6561   18.4108  -33.5871 H   0  0  0  0  0  0  0  0  0  0  0  0
   -5.7142   16.8796  -34.9704 H   0  0  0  0  0  0  0  0  0  0  0  0
   -5.0352   16.5312  -33.3761 H   0  0  0  0  0  0  0  0  0  0  0  0
   -7.6644   17.3568  -33.8233 H   0  0  0  0  0  0  0  0  0  0  0  0
   -6.8273   17.5859  -32.2745 H   0  0  0  0  0  0  0  0  0  0  0  0
   -5.7772   20.5710  -30.3167 H   0  0  0  0  0  0  0  0  0  0  0  0
   -4.6377   22.6498  -29.5481 H   0  0  0  0  0  0  0  0  0  0  0  0
  1  2  2  0
  2  3  1  0
  3  4  1  0
  4  5  2  0
  5  6  1  0
  6  7  2  0
  7  8  1  0
  8  9  1  0
  9 10  2  0
 10 11  1  0
 11 12  2  0
 12 13  1  0
 13 14  2  0
  8 15  2  0
  2 16  1  0
 16 17  2  0
 17 18  1  0
 18 19  2  0
 19 20  1  0
 20 21  2  0
 20 22  2  0
 20 23  1  0
 23 24  1  0
 24 25  1  0
 25 26  1  0
 26 27  1  0
 19 28  1  0
 28 29  2  0
 15  4  1  0
 29 16  1  0
 14  9  1  0
 27 23  1  0
  5 30  1  0
  6 31  1  0
  7 32  1  0
 10 33  1  0
 11 34  1  0
 12 35  1  0
 13 36  1  0
 14 37  1  0
 15 38  1  0
 17 39  1  0
 18 40  1  0
 23 41  1  0
 24 42  1  0
 24 43  1  0
 25 44  1  0
 25 45  1  0
 26 46  1  0
 26 47  1  0
 27 48  1  0
 27 49  1  0
 28 50  1  0
 29 51  1  0
M  CHG  2   3  -1  23   1
M  END
>  <UniqueID>  (16) 
15

>  <SMILES>  (16) 
O=C([N-]c1cccc(-c2ccccc2)c1)c1ccc(S(=O)(=O)[NH+]2CCCC2)cc1

>  <Energy>  (16) 
67.33790007867556

>  <Genealogy>  (16) 
O=C([N-]c1cccc(-c2ccccc2)c1)c1ccc(S(=O)(=O)[NH+]2CCCC2)cc1 (protonated)
O=C([N-]c1cccc(-c2ccccc2)c1)c1ccc(S(=O)(=O)[NH+]2CCCC2)cc1 (3D coordinates assigned)
O=C([N-]c1cccc(-c2ccccc2)c1)c1ccc(S(=O)(=O)[NH+]2CCCC2)cc1 (nonaromatic ring conformer: 67.33790007867556 kcal/mol)

>  <smiles>  (16) 
O=C(Nc1cccc(-c2ccccc2)c1)c1ccc(S(=O)(=O)N2CCCC2)cc1

>  <score_type>  (16) 
oracle

>  <origin>  (16) 
adgpu

>  <m_score__min__energy>  (16) 
-12.289999999999999

>  <m_primary>  (16) 
energy

$$$$
16:0
     RDKit          3D

 46 49  0  0  0  0  0  0  0  0999 V2000
  -10.0007   19.5321  -31.5676 H   0  0  0  0  0  0  0  0  0  0  0  0
   -9.0880   20.1040  -31.7910 C   0  0  0  0  0  0  0  0  0  0  0  0
   -7.9920   19.4700  -32.3810 C   0  0  0  0  0  0  0  0  0  0  0  0
   -8.0406   18.3969  -32.6180 H   0  0  0  0  0  0  0  0  0  0  0  0
   -6.8330   20.1970  -32.6710 C   0  0  0  0  0  0  0  0  0  0  0  0
   -5.9664   19.6906  -33.1210 H   0  0  0  0  0  0  0  0  0  0  0  0
   -6.7720   21.5740  -32.3890 C   0  0  0  0  0  0  0  0  0  0  0  0
   -5.6250   22.3390  -32.6520 O   0  0  0  0  0  0  0  0  0  0  0  0
   -4.8620   23.0220  -31.6940 C   0  0  0  0  0  0  0  0  0  0  0  0
   -3.6180   22.5430  -31.2470 C   0  0  0  0  0  0  0  0  0  0  0  0
   -3.2207   21.5978  -31.6455 H   0  0  0  0  0  0  0  0  0  0  0  0
   -2.8830   23.2610  -30.2990 C   0  0  0  0  0  0  0  0  0  0  0  0
   -1.9260   22.8620  -29.9316 H   0  0  0  0  0  0  0  0  0  0  0  0
   -3.3620   24.4930  -29.8120 C   0  0  0  0  0  0  0  0  0  0  0  0
   -2.6590   25.2740  -28.8280 N   0  0  0  0  0  0  0  0  0  0  0  0
   -1.4280   25.1440  -28.4290 C   0  0  0  0  0  0  0  0  0  0  0  0
   -0.5430   24.2590  -28.9320 N   0  0  0  0  0  0  0  0  0  0  0  0
    0.6640   24.3550  -28.3740 N   0  0  0  0  0  0  0  0  0  0  0  0
    0.7610   25.3310  -27.4380 C   0  0  0  0  0  0  0  0  0  0  0  0
    1.9930   25.6180  -26.6530 C   0  0  0  0  0  0  0  0  0  0  0  0
    3.0780   26.2530  -27.2860 C   0  0  0  0  0  0  0  0  0  0  0  0
    3.0199   26.4852  -28.3596 H   0  0  0  0  0  0  0  0  0  0  0  0
    4.2270   26.5920  -26.5690 C   0  0  0  0  0  0  0  0  0  0  0  0
    5.0640   27.0913  -27.0790 H   0  0  0  0  0  0  0  0  0  0  0  0
    4.3170   26.3000  -25.2100 C   0  0  0  0  0  0  0  0  0  0  0  0
    5.2200   26.5761  -24.6458 H   0  0  0  0  0  0  0  0  0  0  0  0
    3.2620   25.6580  -24.5670 C   0  0  0  0  0  0  0  0  0  0  0  0
    3.3405   25.4229  -23.4953 H   0  0  0  0  0  0  0  0  0  0  0  0
    2.0980   25.3070  -25.2720 C   0  0  0  0  0  0  0  0  0  0  0  0
    1.0700   24.5670  -24.5950 N   0  0  0  0  0  0  0  0  0  0  0  0
    0.6800   24.9520  -23.7030 H   0  0  0  0  0  0  0  0  0  0  0  0
    0.5970   23.2940  -25.0620 C   0  0  0  0  0  0  0  0  0  0  0  0
    1.0970   22.7650  -26.0900 O   0  0  0  0  0  0  0  0  0  0  0  0
   -0.4980   22.5910  -24.3270 C   0  0  0  0  0  0  0  0  0  0  0  0
   -0.3374   22.6941  -23.2437 H   0  0  0  0  0  0  0  0  0  0  0  0
   -1.4665   23.0365  -24.5982 H   0  0  0  0  0  0  0  0  0  0  0  0
   -0.4960   21.5249  -24.5982 H   0  0  0  0  0  0  0  0  0  0  0  0
   -0.7230   26.1260  -27.2640 S   0  0  0  0  0  0  0  0  0  0  0  0
   -4.6030   24.9600  -30.2590 C   0  0  0  0  0  0  0  0  0  0  0  0
   -5.0028   25.9052  -29.8631 H   0  0  0  0  0  0  0  0  0  0  0  0
   -5.3400   24.2400  -31.2020 C   0  0  0  0  0  0  0  0  0  0  0  0
   -6.3027   24.6339  -31.5598 H   0  0  0  0  0  0  0  0  0  0  0  0
   -7.8680   22.1970  -31.7790 C   0  0  0  0  0  0  0  0  0  0  0  0
   -7.8199   23.2673  -31.5298 H   0  0  0  0  0  0  0  0  0  0  0  0
   -9.0230   21.4660  -31.4850 C   0  0  0  0  0  0  0  0  0  0  0  0
   -9.8822   21.9639  -31.0119 H   0  0  0  0  0  0  0  0  0  0  0  0
  1  2  1  0
  2  3  2  0
  3  4  1  0
  3  5  1  0
  5  6  1  0
  5  7  2  0
  7  8  1  0
  8  9  1  0
  9 10  2  0
 10 11  1  0
 10 12  1  0
 12 13  1  0
 12 14  2  0
 14 15  1  0
 15 16  2  0
 16 17  1  0
 17 18  1  0
 18 19  2  0
 19 20  1  0
 20 21  2  0
 21 22  1  0
 21 23  1  0
 23 24  1  0
 23 25  2  0
 25 26  1  0
 25 27  1  0
 27 28  1  0
 27 29  2  0
 29 30  1  0
 30 31  1  0
 30 32  1  0
 32 33  2  0
 32 34  1  0
 34 35  1  0
 34 36  1  0
 34 37  1  0
 19 38  1  0
 14 39  1  0
 39 40  1  0
 39 41  2  0
 41 42  1  0
  7 43  1  0
 43 44  1  0
 43 45  2  0
 45 46  1  0
 45  2  1  0
 41  9  1  0
 38 16  1  0
 29 20  1  0
M  CHG  1  17  -1
M  END
>  <UniqueID>  (17) 
16

>  <SMILES>  (17) 
CC(=O)Nc1ccccc1-c1n[n-]/c(=N\c2ccc(Oc3ccccc3)cc2)s1

>  <Energy>  (17) 
104.22314795602884

>  <Genealogy>  (17) 
CC(=O)Nc1ccccc1-c1n[n-]c(=Nc2ccc(Oc3ccccc3)cc2)s1 (protonated)
CC(=O)Nc1ccccc1-c1n[n-]/c(=N\c2ccc(Oc3ccccc3)cc2)s1 (cis-trans isomerization)
CC(=O)Nc1ccccc1-c1n[n-]/c(=N\c2ccc(Oc3ccccc3)cc2)s1 (3D coordinates assigned)
CC(=O)Nc1ccccc1-c1n[n-]/c(=N\c2ccc(Oc3ccccc3)cc2)s1 (optimized conformer: 104.22314795602884 kcal/mol)

>  <smiles>  (17) 
CC(=O)Nc1ccccc1-c1n[nH]c(=Nc2ccc(Oc3ccccc3)cc2)s1

>  <score_type>  (17) 
oracle

>  <origin>  (17) 
adgpu

>  <m_score__min__energy>  (17) 
-10.1

>  <m_primary>  (17) 
energy

$$$$
17:0
     RDKit          3D

 26 27  0  0  0  0  0  0  0  0999 V2000
   -4.9394   22.8401  -28.3927 H   0  0  0  0  0  0  0  0  0  0  0  0
   -4.0790   22.8500  -29.0780 C   0  0  0  0  0  0  0  0  0  0  0  0
   -4.1510   22.1250  -30.1580 N   0  0  0  0  0  0  0  0  0  0  0  0
   -3.1010   21.8530  -31.1000 C   0  0  0  0  0  0  0  0  0  0  0  0
   -3.4040   21.8270  -32.4650 C   0  0  0  0  0  0  0  0  0  0  0  0
   -4.4304   22.0370  -32.8004 H   0  0  0  0  0  0  0  0  0  0  0  0
   -2.4120   21.5360  -33.4070 C   0  0  0  0  0  0  0  0  0  0  0  0
   -2.6596   21.5349  -34.4788 H   0  0  0  0  0  0  0  0  0  0  0  0
   -1.1010   21.2450  -32.9930 C   0  0  0  0  0  0  0  0  0  0  0  0
   -0.0520   20.9400  -33.9910 C   0  0  0  0  0  0  0  0  0  0  0  0
    0.2200   19.7470  -34.2920 O   0  0  0  0  0  0  0  0  0  0  0  0
    0.6480   21.9680  -34.6130 O   0  0  0  0  0  0  0  0  0  0  0  0
   -0.8070   21.2360  -31.6180 C   0  0  0  0  0  0  0  0  0  0  0  0
    0.2123   20.9989  -31.2792 H   0  0  0  0  0  0  0  0  0  0  0  0
   -1.8000   21.5260  -30.6790 C   0  0  0  0  0  0  0  0  0  0  0  0
   -1.5628   21.4984  -29.6052 H   0  0  0  0  0  0  0  0  0  0  0  0
   -2.9120   23.6870  -28.7140 C   0  0  0  0  0  0  0  0  0  0  0  0
   -2.6550   24.8760  -29.4140 C   0  0  0  0  0  0  0  0  0  0  0  0
   -3.4990   25.3020  -30.4330 O   0  0  0  0  0  0  0  0  0  0  0  0
   -1.5720   25.6260  -29.0830 N   0  0  0  0  0  0  0  0  0  0  0  0
   -0.7220   25.2460  -28.0960 C   0  0  0  0  0  0  0  0  0  0  0  0
    0.2700   25.9660  -27.8110 O   0  0  0  0  0  0  0  0  0  0  0  0
   -0.9590   24.0490  -27.4100 C   0  0  0  0  0  0  0  0  0  0  0  0
   -0.1760   23.6680  -26.4970 O   0  0  0  0  0  0  0  0  0  0  0  0
   -2.0410   23.2910  -27.7390 N   0  0  0  0  0  0  0  0  0  0  0  0
   -2.1870   22.3810  -27.2450 H   0  0  0  0  0  0  0  0  0  0  0  0
  1  2  1  0
  2  3  2  0
  3  4  1  0
  4  5  2  0
  5  6  1  0
  5  7  1  0
  7  8  1  0
  7  9  2  0
  9 10  1  0
 10 11  2  0
 10 12  1  0
  9 13  1  0
 13 14  1  0
 13 15  2  0
 15 16  1  0
  2 17  1  0
 17 18  2  0
 18 19  1  0
 18 20  1  0
 20 21  1  0
 21 22  2  0
 21 23  1  0
 23 24  2  0
 23 25  1  0
 25 26  1  0
 15  4  1  0
 25 17  1  0
M  CHG  3  12  -1  19  -1  20  -1
M  END
>  <UniqueID>  (18) 
17

>  <SMILES>  (18) 
O=C([O-])c1ccc(/N=C\c2[nH]c(=O)c(=O)[n-]c2[O-])cc1

>  <Energy>  (18) 
41.05492689616445

>  <Genealogy>  (18) 
O=C([O-])c1ccc(N=Cc2[nH]c(=O)c(=O)[n-]c2[O-])cc1 (protonated)
O=C([O-])c1ccc(/N=C\c2[nH]c(=O)c(=O)[n-]c2[O-])cc1 (cis-trans isomerization)
O=C([O-])c1ccc(/N=C\c2[nH]c(=O)c(=O)[n-]c2[O-])cc1 (3D coordinates assigned)
O=C([O-])c1ccc(/N=C\c2[nH]c(=O)c(=O)[n-]c2[O-])cc1 (optimized conformer: 41.05492689616445 kcal/mol)

>  <smiles>  (18) 
O=C(O)c1ccc(N=Cc2[nH]c(=O)c(=O)[nH]c2O)cc1

>  <score_type>  (18) 
oracle

>  <origin>  (18) 
adgpu

>  <m_score__min__energy>  (18) 
-11.08

>  <m_primary>  (18) 
energy

$$$$
18:0
     RDKit          3D

 53 55  0  0  0  0  0  0  0  0999 V2000
   -1.4000   26.1790  -25.4500 C   0  0  0  0  0  0  0  0  0  0  0  0
   -2.1580   25.2970  -26.4070 C   0  0  0  0  0  0  0  0  0  0  0  0
   -3.5580   25.2340  -26.3090 C   0  0  0  0  0  0  0  0  0  0  0  0
   -4.2980   24.4320  -27.1780 C   0  0  0  0  0  0  0  0  0  0  0  0
   -3.6540   23.6790  -28.1710 C   0  0  0  0  0  0  0  0  0  0  0  0
   -4.3990   22.8350  -29.0660 N   0  0  0  0  0  0  0  0  0  0  0  0
   -4.9540   23.2920  -30.3100 C   0  0  0  0  0  0  0  0  0  0  0  0
   -4.4960   24.3360  -30.8520 O   0  0  0  0  0  0  0  0  0  0  0  0
   -6.0370   22.5280  -30.9780 C   0  0  0  0  0  0  0  0  0  0  0  0
   -7.3640   22.6940  -30.5590 C   0  0  0  0  0  0  0  0  0  0  0  0
   -8.3960   22.0250  -31.2080 C   0  0  0  0  0  0  0  0  0  0  0  0
   -8.1030   21.1950  -32.2870 C   0  0  0  0  0  0  0  0  0  0  0  0
   -6.8130   21.0210  -32.7080 N   0  0  0  0  0  0  0  0  0  0  0  0
   -6.5640   20.0900  -33.8220 C   0  0  0  0  0  0  0  0  0  0  0  0
   -6.1710   18.7360  -33.2930 C   0  0  0  0  0  0  0  0  0  0  0  0
   -6.5570   18.3390  -32.0010 C   0  0  0  0  0  0  0  0  0  0  0  0
   -6.1460   17.1030  -31.4930 C   0  0  0  0  0  0  0  0  0  0  0  0
   -5.3370   16.2600  -32.2620 C   0  0  0  0  0  0  0  0  0  0  0  0
   -4.9320   15.0650  -31.7640 F   0  0  0  0  0  0  0  0  0  0  0  0
   -4.9430   16.6500  -33.5470 C   0  0  0  0  0  0  0  0  0  0  0  0
   -5.3590   17.8820  -34.0630 C   0  0  0  0  0  0  0  0  0  0  0  0
   -5.7790   21.6660  -32.0710 C   0  0  0  0  0  0  0  0  0  0  0  0
   -4.5890   21.4820  -32.4520 O   0  0  0  0  0  0  0  0  0  0  0  0
   -2.2570   23.7140  -28.2560 C   0  0  0  0  0  0  0  0  0  0  0  0
   -1.4990   24.5170  -27.3870 C   0  0  0  0  0  0  0  0  0  0  0  0
    0.2640   24.5470  -27.5680 S   0  0  0  0  0  0  0  0  0  0  0  0
    0.7700   25.9620  -27.4760 O   0  0  0  0  0  0  0  0  0  0  0  0
    0.6270   24.0030  -28.9220 O   0  0  0  0  0  0  0  0  0  0  0  0
    1.0020   23.5780  -26.3160 N   0  0  0  0  0  0  0  0  0  0  0  0
    1.6320   24.4600  -25.3280 C   0  0  0  0  0  0  0  0  0  0  0  0
   -0.0240   22.7500  -25.6720 C   0  0  0  0  0  0  0  0  0  0  0  0
   -1.6450   25.8939  -24.4162 H   0  0  0  0  0  0  0  0  0  0  0  0
   -0.3195   26.0582  -25.6174 H   0  0  0  0  0  0  0  0  0  0  0  0
   -1.6819   27.2290  -25.6174 H   0  0  0  0  0  0  0  0  0  0  0  0
   -4.0764   25.8236  -25.5385 H   0  0  0  0  0  0  0  0  0  0  0  0
   -5.3932   24.3898  -27.0840 H   0  0  0  0  0  0  0  0  0  0  0  0
   -4.4480   21.8130  -28.8510 H   0  0  0  0  0  0  0  0  0  0  0  0
   -7.5906   23.3576  -29.7115 H   0  0  0  0  0  0  0  0  0  0  0  0
   -9.4358   22.1505  -30.8716 H   0  0  0  0  0  0  0  0  0  0  0  0
   -8.9192   20.6726  -32.8075 H   0  0  0  0  0  0  0  0  0  0  0  0
   -7.4788   19.9926  -34.4250 H   0  0  0  0  0  0  0  0  0  0  0  0
   -5.7448   20.4839  -34.4415 H   0  0  0  0  0  0  0  0  0  0  0  0
   -7.1843   19.0027  -31.3878 H   0  0  0  0  0  0  0  0  0  0  0  0
   -6.4598   16.7925  -30.4855 H   0  0  0  0  0  0  0  0  0  0  0  0
   -4.3060   15.9876  -34.1515 H   0  0  0  0  0  0  0  0  0  0  0  0
   -5.0503   18.1846  -35.0745 H   0  0  0  0  0  0  0  0  0  0  0  0
   -1.7450   23.1037  -29.0145 H   0  0  0  0  0  0  0  0  0  0  0  0
    1.3834   24.1120  -24.3145 H   0  0  0  0  0  0  0  0  0  0  0  0
    2.7234   24.4427  -25.4642 H   0  0  0  0  0  0  0  0  0  0  0  0
    1.2617   25.4868  -25.4642 H   0  0  0  0  0  0  0  0  0  0  0  0
    0.0738   22.8290  -24.5792 H   0  0  0  0  0  0  0  0  0  0  0  0
   -1.0216   23.0991  -25.9770 H   0  0  0  0  0  0  0  0  0  0  0  0
    0.1066   21.7012  -25.9770 H   0  0  0  0  0  0  0  0  0  0  0  0
  1  2  1  0
  2  3  2  0
  3  4  1  0
  4  5  2  0
  5  6  1  0
  6  7  1  0
  7  8  2  0
  7  9  1  0
  9 10  2  0
 10 11  1  0
 11 12  2  0
 12 13  1  0
 13 14  1  0
 14 15  1  0
 15 16  2  0
 16 17  1  0
 17 18  2  0
 18 19  1  0
 18 20  1  0
 20 21  2  0
 13 22  1  0
 22 23  2  0
  5 24  1  0
 24 25  2  0
 25 26  1  0
 26 27  2  0
 26 28  2  0
 26 29  1  0
 29 30  1  0
 29 31  1  0
 25  2  1  0
 22  9  1  0
 21 15  1  0
  1 32  1  0
  1 33  1  0
  1 34  1  0
  3 35  1  0
  4 36  1  0
  6 37  1  0
 10 38  1  0
 11 39  1  0
 12 40  1  0
 14 41  1  0
 14 42  1  0
 16 43  1  0
 17 44  1  0
 20 45  1  0
 21 46  1  0
 24 47  1  0
 30 48  1  0
 30 49  1  0
 30 50  1  0
 31 51  1  0
 31 52  1  0
 31 53  1  0
M  END
>  <UniqueID>  (19) 
18

>  <SMILES>  (19) 
Cc1ccc(NC(=O)c2cccn(Cc3ccc(F)cc3)c2=O)cc1S(=O)(=O)N(C)C

>  <Energy>  (19) 
63.43343297560016

>  <Genealogy>  (19) 
Cc1ccc(NC(=O)c2cccn(Cc3ccc(F)cc3)c2=O)cc1S(=O)(=O)N(C)C (3D coordinates assigned)
Cc1ccc(NC(=O)c2cccn(Cc3ccc(F)cc3)c2=O)cc1S(=O)(=O)N(C)C (optimized conformer: 63.43343297560016 kcal/mol)

>  <smiles>  (19) 
Cc1ccc(NC(=O)c2cccn(Cc3ccc(F)cc3)c2=O)cc1S(=O)(=O)N(C)C

>  <score_type>  (19) 
oracle

>  <origin>  (19) 
adgpu

>  <m_score__min__energy>  (19) 
-10.029999999999999

>  <m_primary>  (19) 
energy

$$$$
19:0
     RDKit          3D

 41 44  0  0  0  0  0  0  0  0999 V2000
   -6.1651   24.0355  -32.9812 H   0  0  0  0  0  0  0  0  0  0  0  0
   -5.8810   23.8000  -31.9450 C   0  0  0  0  0  0  0  0  0  0  0  0
   -4.9790   24.4760  -31.2080 N   0  0  0  0  0  0  0  0  0  0  0  0
   -4.9840   23.8220  -30.0280 C   0  0  0  0  0  0  0  0  0  0  0  0
   -4.1130   24.1950  -28.8790 C   0  0  0  0  0  0  0  0  0  0  0  0
   -4.6341   23.9719  -27.9363 H   0  0  0  0  0  0  0  0  0  0  0  0
   -3.1772   23.6187  -28.9260 H   0  0  0  0  0  0  0  0  0  0  0  0
   -3.8844   25.2699  -28.9260 H   0  0  0  0  0  0  0  0  0  0  0  0
   -5.8140   22.8040  -30.0120 O   0  0  0  0  0  0  0  0  0  0  0  0
   -6.3920   22.7620  -31.1880 C   0  0  0  0  0  0  0  0  0  0  0  0
   -7.4040   21.7560  -31.5830 C   0  0  0  0  0  0  0  0  0  0  0  0
   -8.7620   22.1190  -31.6210 C   0  0  0  0  0  0  0  0  0  0  0  0
   -9.0621   23.1419  -31.3497 H   0  0  0  0  0  0  0  0  0  0  0  0
   -9.7320   21.1890  -32.0010 C   0  0  0  0  0  0  0  0  0  0  0  0
  -10.7913   21.4838  -32.0315 H   0  0  0  0  0  0  0  0  0  0  0  0
   -9.3630   19.8880  -32.3420 C   0  0  0  0  0  0  0  0  0  0  0  0
  -10.1314   19.1628  -32.6481 H   0  0  0  0  0  0  0  0  0  0  0  0
   -8.0160   19.5010  -32.2960 C   0  0  0  0  0  0  0  0  0  0  0  0
   -7.6130   18.1120  -32.7080 C   0  0  0  0  0  0  0  0  0  0  0  0
   -7.4332   17.5022  -31.8103 H   0  0  0  0  0  0  0  0  0  0  0  0
   -8.4190   17.6614  -33.3057 H   0  0  0  0  0  0  0  0  0  0  0  0
   -6.3650   18.1710  -33.5260 C   0  0  0  0  0  0  0  0  0  0  0  0
   -6.1760   17.4850  -34.6750 N   0  0  0  0  0  0  0  0  0  0  0  0
   -4.9510   17.7910  -35.0680 N   0  0  0  0  0  0  0  0  0  0  0  0
   -4.4880   17.4280  -35.9310 H   0  0  0  0  0  0  0  0  0  0  0  0
   -4.4390   18.6320  -34.1560 C   0  0  0  0  0  0  0  0  0  0  0  0
   -3.2470   19.1430  -34.2370 N   0  0  0  0  0  0  0  0  0  0  0  0
   -2.6280   20.0080  -33.2700 C   0  0  0  0  0  0  0  0  0  0  0  0
   -3.3890   21.0450  -32.7160 C   0  0  0  0  0  0  0  0  0  0  0  0
   -4.4410   21.1687  -33.0126 H   0  0  0  0  0  0  0  0  0  0  0  0
   -2.8210   21.9250  -31.7880 C   0  0  0  0  0  0  0  0  0  0  0  0
   -3.4309   22.7272  -31.3471 H   0  0  0  0  0  0  0  0  0  0  0  0
   -1.4810   21.7860  -31.4210 C   0  0  0  0  0  0  0  0  0  0  0  0
   -0.9310   22.6400  -30.5250 F   0  0  0  0  0  0  0  0  0  0  0  0
   -0.7030   20.7720  -31.9880 C   0  0  0  0  0  0  0  0  0  0  0  0
    0.3545   20.6676  -31.7039 H   0  0  0  0  0  0  0  0  0  0  0  0
   -1.2670   19.8900  -32.9160 C   0  0  0  0  0  0  0  0  0  0  0  0
   -0.6481   19.1026  -33.3709 H   0  0  0  0  0  0  0  0  0  0  0  0
   -5.3050   18.8790  -33.2030 O   0  0  0  0  0  0  0  0  0  0  0  0
   -7.0380   20.4410  -31.9290 C   0  0  0  0  0  0  0  0  0  0  0  0
   -5.9781   20.1472  -31.9119 H   0  0  0  0  0  0  0  0  0  0  0  0
  1  2  1  0
  2  3  1  0
  3  4  2  0
  4  5  1  0
  5  6  1  0
  5  7  1  0
  5  8  1  0
  4  9  1  0
  9 10  1  0
 10 11  1  0
 11 12  2  0
 12 13  1  0
 12 14  1  0
 14 15  1  0
 14 16  2  0
 16 17  1  0
 16 18  1  0
 18 19  1  0
 19 20  1  0
 19 21  1  0
 19 22  1  0
 22 23  2  0
 23 24  1  0
 24 25  1  0
 24 26  1  0
 26 27  2  0
 27 28  1  0
 28 29  2  0
 29 30  1  0
 29 31  1  0
 31 32  1  0
 31 33  2  0
 33 34  1  0
 33 35  1  0
 35 36  1  0
 35 37  2  0
 37 38  1  0
 26 39  1  0
 18 40  2  0
 40 41  1  0
 10  2  2  0
 40 11  1  0
 39 22  1  0
 37 28  1  0
M  END
>  <UniqueID>  (20) 
19

>  <SMILES>  (20) 
Cc1ncc(-c2cccc(Cc3n[nH]/c(=N/c4ccc(F)cc4)o3)c2)o1

>  <Energy>  (20) 
113.05800182322534

>  <Genealogy>  (20) 
Cc1ncc(-c2cccc(Cc3n[nH]/c(=N/c4ccc(F)cc4)o3)c2)o1 (cis-trans isomerization)
Cc1ncc(-c2cccc(Cc3n[nH]/c(=N/c4ccc(F)cc4)o3)c2)o1 (3D coordinates assigned)
Cc1ncc(-c2cccc(Cc3n[nH]/c(=N/c4ccc(F)cc4)o3)c2)o1 (optimized conformer: 113.05800182322534 kcal/mol)

>  <smiles>  (20) 
Cc1ncc(-c2cccc(Cc3n[nH]c(=Nc4ccc(F)cc4)o3)c2)o1

>  <score_type>  (20) 
oracle

>  <origin>  (20) 
adgpu

>  <m_score__min__energy>  (20) 
-8.7599999999999998

>  <m_primary>  (20) 
energy

$$$$
20:0
     RDKit          3D

 49 51  0  0  0  0  0  0  0  0999 V2000
   -8.8620   21.6560  -31.4660 C   0  0  0  0  0  0  0  0  0  0  0  0
   -7.8150   22.5840  -31.2040 O   0  0  0  0  0  0  0  0  0  0  0  0
   -6.4500   22.3040  -31.3670 C   0  0  0  0  0  0  0  0  0  0  0  0
   -5.9580   21.5480  -32.4490 C   0  0  0  0  0  0  0  0  0  0  0  0
   -4.5880   21.2930  -32.5640 C   0  0  0  0  0  0  0  0  0  0  0  0
   -3.6990   21.7880  -31.6090 C   0  0  0  0  0  0  0  0  0  0  0  0
   -4.1740   22.5520  -30.5340 C   0  0  0  0  0  0  0  0  0  0  0  0
   -3.2340   23.0730  -29.5200 C   0  0  0  0  0  0  0  0  0  0  0  0
   -2.9280   24.4460  -29.5200 C   0  0  0  0  0  0  0  0  0  0  0  0
   -3.4950   25.2950  -30.4650 O   0  0  0  0  0  0  0  0  0  0  0  0
   -2.0420   24.9720  -28.5790 C   0  0  0  0  0  0  0  0  0  0  0  0
   -1.4520   24.1450  -27.6110 C   0  0  0  0  0  0  0  0  0  0  0  0
   -0.5010   24.6980  -26.6160 C   0  0  0  0  0  0  0  0  0  0  0  0
    0.3600   23.9280  -26.1060 O   0  0  0  0  0  0  0  0  0  0  0  0
   -0.5250   26.1200  -26.1970 C   0  0  0  0  0  0  0  0  0  0  0  0
   -0.2960   27.1530  -27.1270 C   0  0  0  0  0  0  0  0  0  0  0  0
   -0.3370   28.4900  -26.7220 C   0  0  0  0  0  0  0  0  0  0  0  0
   -0.6180   28.8120  -25.3910 C   0  0  0  0  0  0  0  0  0  0  0  0
   -0.6700   30.4910  -24.8860 Cl  0  0  0  0  0  0  0  0  0  0  0  0
   -0.8620   27.7950  -24.4650 C   0  0  0  0  0  0  0  0  0  0  0  0
   -0.8220   26.4560  -24.8650 C   0  0  0  0  0  0  0  0  0  0  0  0
   -1.7440   22.7740  -27.6160 C   0  0  0  0  0  0  0  0  0  0  0  0
   -2.6320   22.2250  -28.5550 C   0  0  0  0  0  0  0  0  0  0  0  0
   -2.9570   20.7480  -28.4470 C   0  0  0  0  0  0  0  0  0  0  0  0
   -2.2460   20.1400  -27.3030 N   0  0  0  0  0  0  0  0  0  0  0  0
   -3.1080   19.1690  -26.6060 C   0  0  0  0  0  0  0  0  0  0  0  0
   -1.0240   19.4650  -27.7720 C   0  0  0  0  0  0  0  0  0  0  0  0
   -5.5510   22.7970  -30.4130 C   0  0  0  0  0  0  0  0  0  0  0  0
   -9.2746   21.2903  -30.5141 H   0  0  0  0  0  0  0  0  0  0  0  0
   -9.6560   22.1524  -32.0432 H   0  0  0  0  0  0  0  0  0  0  0  0
   -8.4645   20.8081  -32.0432 H   0  0  0  0  0  0  0  0  0  0  0  0
   -6.6538   21.1570  -33.2059 H   0  0  0  0  0  0  0  0  0  0  0  0
   -4.2098   20.7003  -33.4100 H   0  0  0  0  0  0  0  0  0  0  0  0
   -2.6230   21.5782  -31.7000 H   0  0  0  0  0  0  0  0  0  0  0  0
   -1.8037   26.0457  -28.5962 H   0  0  0  0  0  0  0  0  0  0  0  0
   -0.0838   26.9060  -28.1777 H   0  0  0  0  0  0  0  0  0  0  0  0
   -0.1477   29.2907  -27.4522 H   0  0  0  0  0  0  0  0  0  0  0  0
   -1.0862   28.0484  -23.4183 H   0  0  0  0  0  0  0  0  0  0  0  0
   -1.0242   25.6605  -24.1327 H   0  0  0  0  0  0  0  0  0  0  0  0
   -1.2696   22.1173  -26.8719 H   0  0  0  0  0  0  0  0  0  0  0  0
   -4.0409   20.6260  -28.3048 H   0  0  0  0  0  0  0  0  0  0  0  0
   -2.6350   20.2461  -29.3713 H   0  0  0  0  0  0  0  0  0  0  0  0
   -2.9968   19.2942  -25.5188 H   0  0  0  0  0  0  0  0  0  0  0  0
   -4.1570   19.3403  -26.8895 H   0  0  0  0  0  0  0  0  0  0  0  0
   -2.8136   18.1477  -26.8895 H   0  0  0  0  0  0  0  0  0  0  0  0
   -0.4307   19.1373  -26.9057 H   0  0  0  0  0  0  0  0  0  0  0  0
   -1.2986   18.5906  -28.3803 H   0  0  0  0  0  0  0  0  0  0  0  0
   -0.4300   20.1630  -28.3803 H   0  0  0  0  0  0  0  0  0  0  0  0
   -5.9274   23.3818  -29.5607 H   0  0  0  0  0  0  0  0  0  0  0  0
  1  2  1  0
  2  3  1  0
  3  4  2  0
  4  5  1  0
  5  6  2  0
  6  7  1  0
  7  8  1  0
  8  9  2  0
  9 10  1  0
  9 11  1  0
 11 12  2  0
 12 13  1  0
 13 14  2  0
 13 15  1  0
 15 16  2  0
 16 17  1  0
 17 18  2  0
 18 19  1  0
 18 20  1  0
 20 21  2  0
 12 22  1  0
 22 23  2  0
 23 24  1  0
 24 25  1  0
 25 26  1  0
 25 27  1  0
  7 28  2  0
 28  3  1  0
 23  8  1  0
 21 15  1  0
  1 29  1  0
  1 30  1  0
  1 31  1  0
  4 32  1  0
  5 33  1  0
  6 34  1  0
 11 35  1  0
 16 36  1  0
 17 37  1  0
 20 38  1  0
 21 39  1  0
 22 40  1  0
 24 41  1  0
 24 42  1  0
 26 43  1  0
 26 44  1  0
 26 45  1  0
 27 46  1  0
 27 47  1  0
 27 48  1  0
 28 49  1  0
M  CHG  1  10  -1
M  END
>  <UniqueID>  (21) 
20

>  <SMILES>  (21) 
COc1cccc(-c2c([O-])cc(C(=O)c3ccc(Cl)cc3)cc2CN(C)C)c1

>  <Energy>  (21) 
65.1513945710909

>  <Genealogy>  (21) 
COc1cccc(-c2c([O-])cc(C(=O)c3ccc(Cl)cc3)cc2CN(C)C)c1 (protonated)
COc1cccc(-c2c([O-])cc(C(=O)c3ccc(Cl)cc3)cc2CN(C)C)c1 (3D coordinates assigned)
COc1cccc(-c2c([O-])cc(C(=O)c3ccc(Cl)cc3)cc2CN(C)C)c1 (optimized conformer: 65.1513945710909 kcal/mol)

>  <smiles>  (21) 
COc1cccc(-c2c(O)cc(C(=O)c3ccc(Cl)cc3)cc2CN(C)C)c1

>  <score_type>  (21) 
oracle

>  <origin>  (21) 
adgpu

>  <m_score__min__energy>  (21) 
-12.07

>  <m_primary>  (21) 
energy

$$$$
21:0
     RDKit          3D

 42 45  0  0  0  0  0  0  0  0999 V2000
   -8.9725   22.9999  -31.4437 H   0  0  0  0  0  0  0  0  0  0  0  0
   -8.0760   22.4340  -31.7370 C   0  0  0  0  0  0  0  0  0  0  0  0
   -6.9560   23.1310  -31.9770 C   0  0  0  0  0  0  0  0  0  0  0  0
   -7.0368   24.2272  -32.0192 H   0  0  0  0  0  0  0  0  0  0  0  0
   -5.6210   22.5340  -32.1890 C   0  0  0  0  0  0  0  0  0  0  0  0
   -5.3990   21.5350  -33.0860 N   0  0  0  0  0  0  0  0  0  0  0  0
   -4.1020   21.2370  -32.9000 C   0  0  0  0  0  0  0  0  0  0  0  0
   -3.3540   20.2690  -33.5650 C   0  0  0  0  0  0  0  0  0  0  0  0
   -3.8013   19.6476  -34.3548 H   0  0  0  0  0  0  0  0  0  0  0  0
   -2.0060   20.1130  -33.1920 C   0  0  0  0  0  0  0  0  0  0  0  0
   -1.3823   19.3609  -33.6973 H   0  0  0  0  0  0  0  0  0  0  0  0
   -1.4490   20.9170  -32.1720 C   0  0  0  0  0  0  0  0  0  0  0  0
   -0.3950   20.7847  -31.8864 H   0  0  0  0  0  0  0  0  0  0  0  0
   -2.2340   21.8860  -31.5190 C   0  0  0  0  0  0  0  0  0  0  0  0
   -1.8134   22.5164  -30.7217 H   0  0  0  0  0  0  0  0  0  0  0  0
   -3.5660   22.0190  -31.9190 C   0  0  0  0  0  0  0  0  0  0  0  0
   -4.5170   22.8490  -31.4580 N   0  0  0  0  0  0  0  0  0  0  0  0
   -4.3530   24.0550  -30.2130 S   0  0  0  0  0  0  0  0  0  0  0  0
   -3.8800   25.3470  -30.8170 O   0  0  0  0  0  0  0  0  0  0  0  0
   -5.6830   24.3180  -29.5620 O   0  0  0  0  0  0  0  0  0  0  0  0
   -3.1990   23.4970  -29.0050 C   0  0  0  0  0  0  0  0  0  0  0  0
   -3.3470   22.2310  -28.4170 C   0  0  0  0  0  0  0  0  0  0  0  0
   -4.1797   21.5794  -28.7203 H   0  0  0  0  0  0  0  0  0  0  0  0
   -2.4390   21.7960  -27.4470 C   0  0  0  0  0  0  0  0  0  0  0  0
   -2.5565   20.8022  -26.9903 H   0  0  0  0  0  0  0  0  0  0  0  0
   -1.3810   22.6240  -27.0570 C   0  0  0  0  0  0  0  0  0  0  0  0
   -0.6667   22.2816  -26.2937 H   0  0  0  0  0  0  0  0  0  0  0  0
   -1.2320   23.8870  -27.6380 C   0  0  0  0  0  0  0  0  0  0  0  0
   -0.3998   24.5375  -27.3310 H   0  0  0  0  0  0  0  0  0  0  0  0
   -2.1380   24.3250  -28.6080 C   0  0  0  0  0  0  0  0  0  0  0  0
   -2.0191   25.3204  -29.0609 H   0  0  0  0  0  0  0  0  0  0  0  0
   -8.2000   20.9630  -31.8360 C   0  0  0  0  0  0  0  0  0  0  0  0
   -7.1710   20.1080  -31.3990 C   0  0  0  0  0  0  0  0  0  0  0  0
   -6.2618   20.5313  -30.9471 H   0  0  0  0  0  0  0  0  0  0  0  0
   -7.3000   18.7230  -31.5370 C   0  0  0  0  0  0  0  0  0  0  0  0
   -6.4998   18.0587  -31.1787 H   0  0  0  0  0  0  0  0  0  0  0  0
   -8.4430   18.1810  -32.1290 C   0  0  0  0  0  0  0  0  0  0  0  0
   -8.5465   17.0905  -32.2291 H   0  0  0  0  0  0  0  0  0  0  0  0
   -9.4550   19.0250  -32.5940 C   0  0  0  0  0  0  0  0  0  0  0  0
  -10.3514   18.5983  -33.0677 H   0  0  0  0  0  0  0  0  0  0  0  0
   -9.3300   20.4120  -32.4580 C   0  0  0  0  0  0  0  0  0  0  0  0
  -10.1215   21.0732  -32.8406 H   0  0  0  0  0  0  0  0  0  0  0  0
  1  2  1  0
  2  3  2  0
  3  4  1  0
  3  5  1  0
  5  6  2  0
  6  7  1  0
  7  8  2  0
  8  9  1  0
  8 10  1  0
 10 11  1  0
 10 12  2  0
 12 13  1  0
 12 14  1  0
 14 15  1  0
 14 16  2  0
 16 17  1  0
 17 18  1  0
 18 19  2  0
 18 20  2  0
 18 21  1  0
 21 22  2  0
 22 23  1  0
 22 24  1  0
 24 25  1  0
 24 26  2  0
 26 27  1  0
 26 28  1  0
 28 29  1  0
 28 30  2  0
 30 31  1  0
  2 32  1  0
 32 33  2  0
 33 34  1  0
 33 35  1  0
 35 36  1  0
 35 37  2  0
 37 38  1  0
 37 39  1  0
 39 40  1  0
 39 41  2  0
 41 42  1  0
 17  5  1  0
 30 21  1  0
 41 32  1  0
 16  7  1  0
M  END
>  <UniqueID>  (22) 
21

>  <SMILES>  (22) 
O=S(=O)(c1ccccc1)n1c(/C=C\c2ccccc2)nc2ccccc21

>  <Energy>  (22) 
94.74807052603776

>  <Genealogy>  (22) 
O=S(=O)(c1ccccc1)n1c(/C=C\c2ccccc2)nc2ccccc21 (cis-trans isomerization)
O=S(=O)(c1ccccc1)n1c(/C=C\c2ccccc2)nc2ccccc21 (3D coordinates assigned)
O=S(=O)(c1ccccc1)n1c(/C=C\c2ccccc2)nc2ccccc21 (optimized conformer: 94.74807052603776 kcal/mol)

>  <smiles>  (22) 
O=S(=O)(c1ccccc1)n1c(C=Cc2ccccc2)nc2ccccc21

>  <score_type>  (22) 
oracle

>  <origin>  (22) 
adgpu

>  <m_score__min__energy>  (22) 
-9.6799999999999997

>  <m_primary>  (22) 
energy

$$$$
22:0
     RDKit          3D

 56 59  0  0  0  0  0  0  0  0999 V2000
   -1.5990   26.3200  -28.5830 O   0  0  0  0  0  0  0  0  0  0  0  0
   -1.6320   25.0930  -28.8820 C   0  0  0  0  0  0  0  0  0  0  0  0
   -0.4130   24.3400  -28.9300 N   0  0  0  0  0  0  0  0  0  0  0  0
    0.1400   23.6220  -27.7870 C   0  0  0  0  0  0  0  0  0  0  0  0
   -0.4730   22.2520  -27.6840 C   0  0  0  0  0  0  0  0  0  0  0  0
   -0.9570   21.7890  -26.4490 C   0  0  0  0  0  0  0  0  0  0  0  0
   -1.5480   20.5250  -26.3540 C   0  0  0  0  0  0  0  0  0  0  0  0
   -1.6640   19.7180  -27.4900 C   0  0  0  0  0  0  0  0  0  0  0  0
   -1.1890   20.1740  -28.7230 C   0  0  0  0  0  0  0  0  0  0  0  0
   -0.5970   21.4360  -28.8230 C   0  0  0  0  0  0  0  0  0  0  0  0
   -2.9260   24.4370  -29.1810 C   0  0  0  0  0  0  0  0  0  0  0  0
   -3.3470   23.3110  -28.4480 C   0  0  0  0  0  0  0  0  0  0  0  0
   -4.5670   22.6900  -28.7390 C   0  0  0  0  0  0  0  0  0  0  0  0
   -5.3870   23.1830  -29.7640 C   0  0  0  0  0  0  0  0  0  0  0  0
   -6.6790   22.4880  -30.0930 C   0  0  0  0  0  0  0  0  0  0  0  0
   -6.4660   21.5040  -31.1600 N   0  0  0  0  0  0  0  0  0  0  0  0
   -5.1550   21.2830  -31.7060 C   0  0  0  0  0  0  0  0  0  0  0  0
   -4.3370   20.2610  -31.1960 C   0  0  0  0  0  0  0  0  0  0  0  0
   -3.0700   20.0350  -31.7400 C   0  0  0  0  0  0  0  0  0  0  0  0
   -2.6100   20.8240  -32.7990 C   0  0  0  0  0  0  0  0  0  0  0  0
   -3.4150   21.8480  -33.3080 C   0  0  0  0  0  0  0  0  0  0  0  0
   -4.6820   22.0780  -32.7640 C   0  0  0  0  0  0  0  0  0  0  0  0
   -7.8260   20.6250  -31.8000 S   0  0  0  0  0  0  0  0  0  0  0  0
   -8.6530   21.5340  -32.6670 O   0  0  0  0  0  0  0  0  0  0  0  0
   -8.6870   20.1210  -30.6730 O   0  0  0  0  0  0  0  0  0  0  0  0
   -7.2550   19.2410  -32.7290 C   0  0  0  0  0  0  0  0  0  0  0  0
   -6.4540   19.4270  -33.8670 C   0  0  0  0  0  0  0  0  0  0  0  0
   -5.9960   18.3200  -34.5910 C   0  0  0  0  0  0  0  0  0  0  0  0
   -6.3420   17.0260  -34.1860 C   0  0  0  0  0  0  0  0  0  0  0  0
   -7.1370   16.8360  -33.0510 C   0  0  0  0  0  0  0  0  0  0  0  0
   -7.5900   17.9410  -32.3210 C   0  0  0  0  0  0  0  0  0  0  0  0
   -4.9690   24.3040  -30.4990 C   0  0  0  0  0  0  0  0  0  0  0  0
   -3.7530   24.9260  -30.2100 C   0  0  0  0  0  0  0  0  0  0  0  0
    1.2284   23.5239  -27.9122 H   0  0  0  0  0  0  0  0  0  0  0  0
   -0.0848   24.1843  -26.8687 H   0  0  0  0  0  0  0  0  0  0  0  0
   -0.8708   22.4226  -25.5540 H   0  0  0  0  0  0  0  0  0  0  0  0
   -1.9221   20.1652  -25.3842 H   0  0  0  0  0  0  0  0  0  0  0  0
   -2.1291   18.7241  -27.4133 H   0  0  0  0  0  0  0  0  0  0  0  0
   -1.2813   19.5385  -29.6161 H   0  0  0  0  0  0  0  0  0  0  0  0
   -0.2268   21.7924  -29.7956 H   0  0  0  0  0  0  0  0  0  0  0  0
   -2.7124   22.9165  -27.6407 H   0  0  0  0  0  0  0  0  0  0  0  0
   -4.8844   21.8101  -28.1603 H   0  0  0  0  0  0  0  0  0  0  0  0
   -7.0549   21.9753  -29.1953 H   0  0  0  0  0  0  0  0  0  0  0  0
   -7.4121   23.2342  -30.4332 H   0  0  0  0  0  0  0  0  0  0  0  0
   -4.6955   19.6360  -30.3648 H   0  0  0  0  0  0  0  0  0  0  0  0
   -2.4332   19.2350  -31.3345 H   0  0  0  0  0  0  0  0  0  0  0  0
   -1.6156   20.6393  -33.2314 H   0  0  0  0  0  0  0  0  0  0  0  0
   -3.0510   22.4728  -34.1369 H   0  0  0  0  0  0  0  0  0  0  0  0
   -5.3119   22.8852  -33.1660 H   0  0  0  0  0  0  0  0  0  0  0  0
   -6.1861   20.4438  -34.1900 H   0  0  0  0  0  0  0  0  0  0  0  0
   -5.3637   18.4674  -35.4789 H   0  0  0  0  0  0  0  0  0  0  0  0
   -5.9884   16.1574  -34.7608 H   0  0  0  0  0  0  0  0  0  0  0  0
   -7.4062   15.8182  -32.7321 H   0  0  0  0  0  0  0  0  0  0  0  0
   -8.2102   17.7899  -31.4252 H   0  0  0  0  0  0  0  0  0  0  0  0
   -5.6039   24.6947  -31.3079 H   0  0  0  0  0  0  0  0  0  0  0  0
   -3.4385   25.8054  -30.7911 H   0  0  0  0  0  0  0  0  0  0  0  0
  1  2  2  0
  2  3  1  0
  3  4  1  0
  4  5  1  0
  5  6  2  0
  6  7  1  0
  7  8  2  0
  8  9  1  0
  9 10  2  0
  2 11  1  0
 11 12  2  0
 12 13  1  0
 13 14  2  0
 14 15  1  0
 15 16  1  0
 16 17  1  0
 17 18  2  0
 18 19  1  0
 19 20  2  0
 20 21  1  0
 21 22  2  0
 16 23  1  0
 23 24  2  0
 23 25  2  0
 23 26  1  0
 26 27  2  0
 27 28  1  0
 28 29  2  0
 29 30  1  0
 30 31  2  0
 14 32  1  0
 32 33  2  0
 10  5  1  0
 33 11  1  0
 22 17  1  0
 31 26  1  0
  4 34  1  0
  4 35  1  0
  6 36  1  0
  7 37  1  0
  8 38  1  0
  9 39  1  0
 10 40  1  0
 12 41  1  0
 13 42  1  0
 15 43  1  0
 15 44  1  0
 18 45  1  0
 19 46  1  0
 20 47  1  0
 21 48  1  0
 22 49  1  0
 27 50  1  0
 28 51  1  0
 29 52  1  0
 30 53  1  0
 31 54  1  0
 32 55  1  0
 33 56  1  0
M  CHG  1   3  -1
M  END
>  <UniqueID>  (23) 
22

>  <SMILES>  (23) 
O=C([N-]Cc1ccccc1)c1ccc(CN(c2ccccc2)S(=O)(=O)c2ccccc2)cc1

>  <Energy>  (23) 
62.750329040204484

>  <Genealogy>  (23) 
O=C([N-]Cc1ccccc1)c1ccc(CN(c2ccccc2)S(=O)(=O)c2ccccc2)cc1 (protonated)
O=C([N-]Cc1ccccc1)c1ccc(CN(c2ccccc2)S(=O)(=O)c2ccccc2)cc1 (3D coordinates assigned)
O=C([N-]Cc1ccccc1)c1ccc(CN(c2ccccc2)S(=O)(=O)c2ccccc2)cc1 (optimized conformer: 62.750329040204484 kcal/mol)

>  <smiles>  (23) 
O=C(NCc1ccccc1)c1ccc(CN(c2ccccc2)S(=O)(=O)c2ccccc2)cc1

>  <score_type>  (23) 
oracle

>  <origin>  (23) 
adgpu

>  <m_score__min__energy>  (23) 
-11.02

>  <m_primary>  (23) 
energy

$$$$
23:0
     RDKit          3D

 31 32  0  0  0  0  0  0  0  0999 V2000
   -4.6730   18.0620  -34.2080 C   0  0  0  0  0  0  0  0  0  0  0  0
   -5.1550   19.3070  -33.5240 C   0  0  0  0  0  0  0  0  0  0  0  0
   -4.2390   20.2870  -33.1130 C   0  0  0  0  0  0  0  0  0  0  0  0
   -4.6900   21.4640  -32.5070 C   0  0  0  0  0  0  0  0  0  0  0  0
   -6.0610   21.6760  -32.3150 C   0  0  0  0  0  0  0  0  0  0  0  0
   -6.6330   23.1520  -31.5450 S   0  0  0  0  0  0  0  0  0  0  0  0
   -7.2610   22.8630  -30.2110 O   0  0  0  0  0  0  0  0  0  0  0  0
   -7.6770   23.7640  -32.4360 O   0  0  0  0  0  0  0  0  0  0  0  0
   -5.3430   24.2990  -31.3560 N   0  0  0  0  0  0  0  0  0  0  0  0
   -4.4120   24.3670  -30.4470 C   0  0  0  0  0  0  0  0  0  0  0  0
   -3.4900   25.2990  -30.4820 O   0  0  0  0  0  0  0  0  0  0  0  0
   -2.6650   25.1920  -29.4830 N   0  0  0  0  0  0  0  0  0  0  0  0
   -3.0640   24.1330  -28.7540 C   0  0  0  0  0  0  0  0  0  0  0  0
   -2.3790   23.6970  -27.4980 C   0  0  0  0  0  0  0  0  0  0  0  0
   -4.1840   23.5550  -29.3330 C   0  0  0  0  0  0  0  0  0  0  0  0
   -4.9720   22.4130  -28.7620 C   0  0  0  0  0  0  0  0  0  0  0  0
   -6.9790   20.7110  -32.7480 C   0  0  0  0  0  0  0  0  0  0  0  0
   -6.5290   19.5340  -33.3540 C   0  0  0  0  0  0  0  0  0  0  0  0
   -4.3845   17.3167  -33.4522 H   0  0  0  0  0  0  0  0  0  0  0  0
   -5.4781   17.6539  -34.8367 H   0  0  0  0  0  0  0  0  0  0  0  0
   -3.8030   18.3024  -34.8367 H   0  0  0  0  0  0  0  0  0  0  0  0
   -3.1615   20.1289  -33.2681 H   0  0  0  0  0  0  0  0  0  0  0  0
   -3.9661   22.2251  -32.1804 H   0  0  0  0  0  0  0  0  0  0  0  0
   -2.9458   24.0578  -26.6270 H   0  0  0  0  0  0  0  0  0  0  0  0
   -2.3260   22.5986  -27.4716 H   0  0  0  0  0  0  0  0  0  0  0  0
   -1.3614   24.1140  -27.4716 H   0  0  0  0  0  0  0  0  0  0  0  0
   -4.9404   22.4588  -27.6634 H   0  0  0  0  0  0  0  0  0  0  0  0
   -6.0159   22.4816  -29.1020 H   0  0  0  0  0  0  0  0  0  0  0  0
   -4.5374   21.4614  -29.1020 H   0  0  0  0  0  0  0  0  0  0  0  0
   -8.0573   20.8795  -32.6109 H   0  0  0  0  0  0  0  0  0  0  0  0
   -7.2551   18.7831  -33.6988 H   0  0  0  0  0  0  0  0  0  0  0  0
  1  2  1  0
  2  3  2  0
  3  4  1  0
  4  5  2  0
  5  6  1  0
  6  7  2  0
  6  8  2  0
  6  9  1  0
  9 10  2  3
 10 11  1  0
 11 12  1  0
 12 13  1  0
 13 14  1  0
 13 15  2  0
 15 16  1  0
  5 17  1  0
 17 18  2  0
 18  2  1  0
 15 10  1  0
  1 19  1  0
  1 20  1  0
  1 21  1  0
  3 22  1  0
  4 23  1  0
 14 24  1  0
 14 25  1  0
 14 26  1  0
 16 27  1  0
 16 28  1  0
 16 29  1  0
 17 30  1  0
 18 31  1  0
M  CHG  1  12  -1
M  END
>  <UniqueID>  (24) 
23

>  <SMILES>  (24) 
Cc1ccc(S(=O)(=O)N=c2o[n-]c(C)c2C)cc1

>  <Energy>  (24) 
69.60729782100574

>  <Genealogy>  (24) 
Cc1ccc(S(=O)(=O)N=c2o[n-]c(C)c2C)cc1 (protonated)
Cc1ccc(S(=O)(=O)N=c2o[n-]c(C)c2C)cc1 (3D coordinates assigned)
Cc1ccc(S(=O)(=O)N=c2o[n-]c(C)c2C)cc1 (optimized conformer: 69.60729782100574 kcal/mol)

>  <smiles>  (24) 
Cc1ccc(S(=O)(=O)N=c2o[nH]c(C)c2C)cc1

>  <score_type>  (24) 
oracle

>  <origin>  (24) 
adgpu

>  <m_score__min__energy>  (24) 
-9.9199999999999999

>  <m_primary>  (24) 
energy

$$$$
24:0
     RDKit          3D

 28 30  0  0  0  0  0  0  0  0999 V2000
   -9.1900   20.2170  -32.7570 O   0  0  0  0  0  0  0  0  0  0  0  0
   -8.1980   21.0400  -32.2400 C   0  0  0  0  0  0  0  0  0  0  0  0
   -6.8830   20.9250  -32.6960 C   0  0  0  0  0  0  0  0  0  0  0  0
   -5.8820   21.7530  -32.1770 C   0  0  0  0  0  0  0  0  0  0  0  0
   -6.1880   22.7090  -31.1900 C   0  0  0  0  0  0  0  0  0  0  0  0
   -5.1430   23.5980  -30.6240 C   0  0  0  0  0  0  0  0  0  0  0  0
   -4.4390   23.4180  -29.4470 C   0  0  0  0  0  0  0  0  0  0  0  0
   -3.5940   24.5160  -29.3760 C   0  0  0  0  0  0  0  0  0  0  0  0
   -2.6010   24.8500  -28.3170 C   0  0  0  0  0  0  0  0  0  0  0  0
   -1.2660   25.1060  -28.6940 C   0  0  0  0  0  0  0  0  0  0  0  0
   -0.2980   25.4230  -27.7380 C   0  0  0  0  0  0  0  0  0  0  0  0
   -0.6440   25.4920  -26.3890 C   0  0  0  0  0  0  0  0  0  0  0  0
   -1.9580   25.2430  -25.9940 C   0  0  0  0  0  0  0  0  0  0  0  0
   -2.9360   24.9240  -26.9430 C   0  0  0  0  0  0  0  0  0  0  0  0
   -4.1940   24.6920  -26.5010 F   0  0  0  0  0  0  0  0  0  0  0  0
   -3.8010   25.2920  -30.4600 N   0  0  0  0  0  0  0  0  0  0  0  0
   -4.7360   24.7390  -31.2150 N   0  0  0  0  0  0  0  0  0  0  0  0
   -7.5170   22.8150  -30.7380 C   0  0  0  0  0  0  0  0  0  0  0  0
   -8.5140   21.9850  -31.2600 C   0  0  0  0  0  0  0  0  0  0  0  0
   -6.6334   20.1804  -33.4663 H   0  0  0  0  0  0  0  0  0  0  0  0
   -4.8490   21.6564  -32.5425 H   0  0  0  0  0  0  0  0  0  0  0  0
   -4.5290   22.5900  -28.7285 H   0  0  0  0  0  0  0  0  0  0  0  0
   -0.9832   25.0553  -29.7558 H   0  0  0  0  0  0  0  0  0  0  0  0
    0.7386   25.6185  -28.0498 H   0  0  0  0  0  0  0  0  0  0  0  0
    0.1188   25.7426  -25.6371 H   0  0  0  0  0  0  0  0  0  0  0  0
   -2.2278   25.2977  -24.9290 H   0  0  0  0  0  0  0  0  0  0  0  0
   -7.7734   23.5571  -29.9676 H   0  0  0  0  0  0  0  0  0  0  0  0
   -9.5489   22.0760  -30.8986 H   0  0  0  0  0  0  0  0  0  0  0  0
  1  2  1  0
  2  3  2  0
  3  4  1  0
  4  5  2  0
  5  6  1  0
  6  7  1  0
  7  8  2  0
  8  9  1  0
  9 10  2  0
 10 11  1  0
 11 12  2  0
 12 13  1  0
 13 14  2  0
 14 15  1  0
  8 16  1  0
 16 17  1  0
  5 18  1  0
 18 19  2  0
 19  2  1  0
 17  6  2  0
 14  9  1  0
  3 20  1  0
  4 21  1  0
  7 22  1  0
 10 23  1  0
 11 24  1  0
 12 25  1  0
 13 26  1  0
 18 27  1  0
 19 28  1  0
M  CHG  2   1  -1  16  -1
M  END
>  <UniqueID>  (25) 
24

>  <SMILES>  (25) 
[O-]c1ccc(-c2cc(-c3ccccc3F)[n-]n2)cc1

>  <Energy>  (25) 
65.68450494125345

>  <Genealogy>  (25) 
[O-]c1ccc(-c2cc(-c3ccccc3F)[n-]n2)cc1 (protonated)
[O-]c1ccc(-c2cc(-c3ccccc3F)[n-]n2)cc1 (3D coordinates assigned)
[O-]c1ccc(-c2cc(-c3ccccc3F)[n-]n2)cc1 (optimized conformer: 65.68450494125345 kcal/mol)

>  <smiles>  (25) 
Oc1ccc(-c2cc(-c3ccccc3F)[nH]n2)cc1

>  <score_type>  (25) 
oracle

>  <origin>  (25) 
adgpu

>  <m_score__min__energy>  (25) 
-8.9299999999999997

>  <m_primary>  (25) 
energy

$$$$
25:0
     RDKit          3D

 39 40  0  0  0  0  0  0  0  0999 V2000
   -2.2040   20.4540  -27.1360 C   0  0  0  0  0  0  0  0  0  0  0  0
   -2.0520   21.8220  -27.7340 C   0  0  0  0  0  0  0  0  0  0  0  0
   -0.8700   22.5490  -27.5410 C   0  0  0  0  0  0  0  0  0  0  0  0
   -0.7400   23.8330  -28.0730 C   0  0  0  0  0  0  0  0  0  0  0  0
   -1.7920   24.4140  -28.7870 C   0  0  0  0  0  0  0  0  0  0  0  0
   -1.6100   25.6740  -29.3480 O   0  0  0  0  0  0  0  0  0  0  0  0
   -3.0050   23.7120  -28.9540 C   0  0  0  0  0  0  0  0  0  0  0  0
   -4.1490   24.3040  -29.6830 C   0  0  0  0  0  0  0  0  0  0  0  0
   -3.9320   25.0070  -30.7080 O   0  0  0  0  0  0  0  0  0  0  0  0
   -5.4970   24.0650  -29.2560 N   0  0  0  0  0  0  0  0  0  0  0  0
   -6.6150   24.8430  -29.7900 C   0  0  0  0  0  0  0  0  0  0  0  0
   -6.8690   24.5220  -31.2690 C   0  0  0  0  0  0  0  0  0  0  0  0
   -6.9020   23.0330  -31.5120 C   0  0  0  0  0  0  0  0  0  0  0  0
   -5.8260   22.4000  -32.1530 C   0  0  0  0  0  0  0  0  0  0  0  0
   -5.8690   21.0280  -32.4170 C   0  0  0  0  0  0  0  0  0  0  0  0
   -6.9890   20.2730  -32.0420 C   0  0  0  0  0  0  0  0  0  0  0  0
   -7.0540   18.5500  -32.3980 S   0  0  0  0  0  0  0  0  0  0  0  0
   -6.4180   18.2630  -33.9780 N   0  0  0  0  0  0  0  0  0  0  0  0
   -8.4780   18.0720  -32.3380 O   0  0  0  0  0  0  0  0  0  0  0  0
   -6.2470   17.7880  -31.3850 O   0  0  0  0  0  0  0  0  0  0  0  0
   -8.0680   20.9040  -31.4090 C   0  0  0  0  0  0  0  0  0  0  0  0
   -8.0260   22.2750  -31.1440 C   0  0  0  0  0  0  0  0  0  0  0  0
   -3.1190   22.4110  -28.4300 C   0  0  0  0  0  0  0  0  0  0  0  0
   -2.1955   20.5305  -26.0387 H   0  0  0  0  0  0  0  0  0  0  0  0
   -3.1566   20.0136  -27.4655 H   0  0  0  0  0  0  0  0  0  0  0  0
   -1.3713   19.8152  -27.4655 H   0  0  0  0  0  0  0  0  0  0  0  0
   -0.0416   22.1065  -26.9683 H   0  0  0  0  0  0  0  0  0  0  0  0
    0.1967   24.3915  -27.9294 H   0  0  0  0  0  0  0  0  0  0  0  0
   -5.6780   23.2980  -28.5710 H   0  0  0  0  0  0  0  0  0  0  0  0
   -7.5215   24.6085  -29.2127 H   0  0  0  0  0  0  0  0  0  0  0  0
   -6.3628   25.9105  -29.7073 H   0  0  0  0  0  0  0  0  0  0  0  0
   -7.8349   24.9549  -31.5683 H   0  0  0  0  0  0  0  0  0  0  0  0
   -6.0480   24.9512  -31.8621 H   0  0  0  0  0  0  0  0  0  0  0  0
   -4.9440   22.9867  -32.4493 H   0  0  0  0  0  0  0  0  0  0  0  0
   -5.0217   20.5395  -32.9204 H   0  0  0  0  0  0  0  0  0  0  0  0
   -6.8790   18.9460  -34.6210 H   0  0  0  0  0  0  0  0  0  0  0  0
   -8.9522   20.3172  -31.1194 H   0  0  0  0  0  0  0  0  0  0  0  0
   -8.8764   22.7629  -30.6452 H   0  0  0  0  0  0  0  0  0  0  0  0
   -4.0548   21.8494  -28.5674 H   0  0  0  0  0  0  0  0  0  0  0  0
  1  2  1  0
  2  3  2  0
  3  4  1  0
  4  5  2  0
  5  6  1  0
  5  7  1  0
  7  8  1  0
  8  9  2  0
  8 10  1  0
 10 11  1  0
 11 12  1  0
 12 13  1  0
 13 14  2  0
 14 15  1  0
 15 16  2  0
 16 17  1  0
 17 18  1  0
 17 19  2  0
 17 20  2  0
 16 21  1  0
 21 22  2  0
  7 23  2  0
 23  2  1  0
 22 13  1  0
  1 24  1  0
  1 25  1  0
  1 26  1  0
  3 27  1  0
  4 28  1  0
 10 29  1  0
 11 30  1  0
 11 31  1  0
 12 32  1  0
 12 33  1  0
 14 34  1  0
 15 35  1  0
 18 36  1  0
 21 37  1  0
 22 38  1  0
 23 39  1  0
M  CHG  2   6  -1  18  -1
M  END
>  <UniqueID>  (26) 
25

>  <SMILES>  (26) 
Cc1ccc([O-])c(C(=O)NCCc2ccc(S([NH-])(=O)=O)cc2)c1

>  <Energy>  (26) 
37.74181922266795

>  <Genealogy>  (26) 
Cc1ccc([O-])c(C(=O)NCCc2ccc(S([NH-])(=O)=O)cc2)c1 (protonated)
Cc1ccc([O-])c(C(=O)NCCc2ccc(S([NH-])(=O)=O)cc2)c1 (3D coordinates assigned)
Cc1ccc([O-])c(C(=O)NCCc2ccc(S([NH-])(=O)=O)cc2)c1 (optimized conformer: 37.74181922266795 kcal/mol)

>  <smiles>  (26) 
Cc1ccc(O)c(C(=O)NCCc2ccc(S(N)(=O)=O)cc2)c1

>  <score_type>  (26) 
oracle

>  <origin>  (26) 
adgpu

>  <m_score__min__energy>  (26) 
-11.93

>  <m_primary>  (26) 
energy

$$$$
26:0
     RDKit          3D

 27 28  0  0  0  0  0  0  0  0999 V2000
   -0.2326   26.3302  -29.0629 H   0  0  0  0  0  0  0  0  0  0  0  0
   -0.9670   25.7450  -28.4900 C   0  0  0  0  0  0  0  0  0  0  0  0
   -2.0760   25.2550  -29.1060 N   0  0  0  0  0  0  0  0  0  0  0  0
   -3.0100   24.5200  -28.4350 C   0  0  0  0  0  0  0  0  0  0  0  0
   -4.0720   24.0630  -29.0340 N   0  0  0  0  0  0  0  0  0  0  0  0
   -4.4280   24.2370  -30.4150 C   0  0  0  0  0  0  0  0  0  0  0  0
   -4.2510   25.3380  -31.0060 O   0  0  0  0  0  0  0  0  0  0  0  0
   -5.0610   23.1010  -31.1520 C   0  0  0  0  0  0  0  0  0  0  0  0
   -4.3110   22.6326  -31.8063 H   0  0  0  0  0  0  0  0  0  0  0  0
   -5.4384   22.3714  -30.4203 H   0  0  0  0  0  0  0  0  0  0  0  0
   -6.4600   23.6900  -32.1690 S   0  0  0  0  0  0  0  0  0  0  0  0
   -7.3570   22.1380  -32.1160 C   0  0  0  0  0  0  0  0  0  0  0  0
   -7.1510   21.2040  -33.0820 N   0  0  0  0  0  0  0  0  0  0  0  0
   -7.8160   20.0460  -33.0880 N   0  0  0  0  0  0  0  0  0  0  0  0
   -7.6290   19.3600  -33.8530 H   0  0  0  0  0  0  0  0  0  0  0  0
   -8.7280   19.7530  -32.1210 C   0  0  0  0  0  0  0  0  0  0  0  0
   -9.3500   18.6580  -32.1450 O   0  0  0  0  0  0  0  0  0  0  0  0
   -8.9710   20.6750  -31.1010 C   0  0  0  0  0  0  0  0  0  0  0  0
   -9.7032   20.4514  -30.3111 H   0  0  0  0  0  0  0  0  0  0  0  0
   -8.2750   21.8810  -31.0960 C   0  0  0  0  0  0  0  0  0  0  0  0
   -8.4460   22.6206  -30.2999 H   0  0  0  0  0  0  0  0  0  0  0  0
   -2.8320   24.2620  -27.0700 C   0  0  0  0  0  0  0  0  0  0  0  0
   -3.5770   23.6722  -26.5158 H   0  0  0  0  0  0  0  0  0  0  0  0
   -1.7020   24.7590  -26.4180 C   0  0  0  0  0  0  0  0  0  0  0  0
   -1.5534   24.5633  -25.3458 H   0  0  0  0  0  0  0  0  0  0  0  0
   -0.7610   25.5050  -27.1300 C   0  0  0  0  0  0  0  0  0  0  0  0
    0.1331   25.8995  -26.6250 H   0  0  0  0  0  0  0  0  0  0  0  0
  1  2  1  0
  2  3  1  0
  3  4  1  0
  4  5  2  0
  5  6  1  0
  6  7  2  0
  6  8  1  0
  8  9  1  0
  8 10  1  0
  8 11  1  0
 11 12  1  0
 12 13  2  0
 13 14  1  0
 14 15  1  0
 14 16  1  0
 16 17  2  0
 16 18  1  0
 18 19  1  0
 18 20  2  0
 20 21  1  0
  4 22  1  0
 22 23  1  0
 22 24  2  0
 24 25  1  0
 24 26  1  0
 26 27  1  0
 26  2  2  0
 20 12  1  0
M  CHG  1   3  -1
M  END
>  <UniqueID>  (27) 
26

>  <SMILES>  (27) 
O=C(CSc1ccc(=O)[nH]n1)/N=c1/cccc[n-]1

>  <Energy>  (27) 
25.817978776224713

>  <Genealogy>  (27) 
O=C(CSc1ccc(=O)[nH]n1)N=c1cccc[n-]1 (protonated)
O=C(CSc1ccc(=O)[nH]n1)/N=c1/cccc[n-]1 (cis-trans isomerization)
O=C(CSc1ccc(=O)[nH]n1)/N=c1/cccc[n-]1 (3D coordinates assigned)
O=C(CSc1ccc(=O)[nH]n1)/N=c1/cccc[n-]1 (optimized conformer: 25.817978776224713 kcal/mol)

>  <smiles>  (27) 
O=C(CSc1ccc(=O)[nH]n1)N=c1cccc[nH]1

>  <score_type>  (27) 
oracle

>  <origin>  (27) 
adgpu

>  <m_score__min__energy>  (27) 
-8.6899999999999995

>  <m_primary>  (27) 
energy

$$$$
27:0
     RDKit          3D

 28 29  0  0  0  0  0  0  0  0999 V2000
   -4.9870   25.3280  -31.2230 O   0  0  0  0  0  0  0  0  0  0  0  0
   -5.0650   24.2190  -30.6270 C   0  0  0  0  0  0  0  0  0  0  0  0
   -4.1510   23.9780  -29.4540 C   0  0  0  0  0  0  0  0  0  0  0  0
   -3.0290   24.9180  -29.4650 N   0  0  0  0  0  0  0  0  0  0  0  0
   -1.9350   24.8920  -28.5290 C   0  0  0  0  0  0  0  0  0  0  0  0
   -2.1080   25.1860  -27.1640 C   0  0  0  0  0  0  0  0  0  0  0  0
   -1.0150   25.1490  -26.2960 C   0  0  0  0  0  0  0  0  0  0  0  0
    0.2440   24.8150  -26.7950 C   0  0  0  0  0  0  0  0  0  0  0  0
    0.3990   24.5260  -28.1130 N   0  0  0  0  0  0  0  0  0  0  0  0
   -0.6490   24.5550  -28.9790 C   0  0  0  0  0  0  0  0  0  0  0  0
   -6.0390   23.2000  -31.1010 C   0  0  0  0  0  0  0  0  0  0  0  0
   -7.4040   23.2680  -30.7570 C   0  0  0  0  0  0  0  0  0  0  0  0
   -8.3000   22.2940  -31.2110 C   0  0  0  0  0  0  0  0  0  0  0  0
   -7.8490   21.2470  -32.0160 C   0  0  0  0  0  0  0  0  0  0  0  0
   -6.5010   21.1700  -32.3710 C   0  0  0  0  0  0  0  0  0  0  0  0
   -5.6010   22.1400  -31.9200 C   0  0  0  0  0  0  0  0  0  0  0  0
   -4.7200   24.1071  -28.5215 H   0  0  0  0  0  0  0  0  0  0  0  0
   -3.7532   22.9547  -29.5225 H   0  0  0  0  0  0  0  0  0  0  0  0
   -3.0400   25.6670  -30.1940 H   0  0  0  0  0  0  0  0  0  0  0  0
   -3.1057   25.4454  -26.7802 H   0  0  0  0  0  0  0  0  0  0  0  0
   -1.1455   25.3811  -25.2287 H   0  0  0  0  0  0  0  0  0  0  0  0
    1.1123   24.7856  -26.1203 H   0  0  0  0  0  0  0  0  0  0  0  0
   -0.4877   24.3126  -30.0398 H   0  0  0  0  0  0  0  0  0  0  0  0
   -7.7677   24.0930  -30.1269 H   0  0  0  0  0  0  0  0  0  0  0  0
   -9.3626   22.3536  -30.9327 H   0  0  0  0  0  0  0  0  0  0  0  0
   -8.5557   20.4824  -32.3708 H   0  0  0  0  0  0  0  0  0  0  0  0
   -6.1466   20.3450  -33.0064 H   0  0  0  0  0  0  0  0  0  0  0  0
   -4.5411   22.0753  -32.2070 H   0  0  0  0  0  0  0  0  0  0  0  0
  1  2  2  0
  2  3  1  0
  3  4  1  0
  4  5  1  0
  5  6  2  0
  6  7  1  0
  7  8  2  0
  8  9  1  0
  9 10  2  0
  2 11  1  0
 11 12  2  0
 12 13  1  0
 13 14  2  0
 14 15  1  0
 15 16  2  0
 10  5  1  0
 16 11  1  0
  3 17  1  0
  3 18  1  0
  4 19  1  0
  6 20  1  0
  7 21  1  0
  8 22  1  0
 10 23  1  0
 12 24  1  0
 13 25  1  0
 14 26  1  0
 15 27  1  0
 16 28  1  0
M  END
>  <UniqueID>  (28) 
27

>  <SMILES>  (28) 
O=C(CNc1cccnc1)c1ccccc1

>  <Energy>  (28) 
30.202759914190946

>  <Genealogy>  (28) 
O=C(CNc1cccnc1)c1ccccc1 (3D coordinates assigned)
O=C(CNc1cccnc1)c1ccccc1 (optimized conformer: 30.202759914190946 kcal/mol)

>  <smiles>  (28) 
O=C(CNc1cccnc1)c1ccccc1

>  <score_type>  (28) 
oracle

>  <origin>  (28) 
adgpu

>  <m_score__min__energy>  (28) 
-6.9400000000000004

>  <m_primary>  (28) 
energy

$$$$
28:0
     RDKit          3D

 48 50  0  0  0  0  0  0  0  0999 V2000
   -4.6070   13.9850  -31.8650 C   0  0  0  0  0  0  0  0  0  0  0  0
   -4.2420   15.3720  -32.3820 C   0  0  0  0  0  0  0  0  0  0  0  0
   -5.2260   15.8440  -33.3030 O   0  0  0  0  0  0  0  0  0  0  0  0
   -5.9160   17.0640  -33.2080 C   0  0  0  0  0  0  0  0  0  0  0  0
   -5.4880   18.1270  -34.0110 C   0  0  0  0  0  0  0  0  0  0  0  0
   -6.1350   19.3640  -33.9580 C   0  0  0  0  0  0  0  0  0  0  0  0
   -7.2260   19.5580  -33.1020 C   0  0  0  0  0  0  0  0  0  0  0  0
   -7.8650   20.8420  -33.0860 N   0  0  0  0  0  0  0  0  0  0  0  0
   -8.2200   21.7640  -31.6610 S   0  0  0  0  0  0  0  0  0  0  0  0
   -9.4510   22.5920  -31.9050 O   0  0  0  0  0  0  0  0  0  0  0  0
   -8.4820   20.8250  -30.5180 O   0  0  0  0  0  0  0  0  0  0  0  0
   -6.8480   22.7880  -31.2530 C   0  0  0  0  0  0  0  0  0  0  0  0
   -5.5440   22.3080  -31.4280 C   0  0  0  0  0  0  0  0  0  0  0  0
   -4.4480   23.1150  -31.1110 C   0  0  0  0  0  0  0  0  0  0  0  0
   -4.6440   24.4030  -30.5980 C   0  0  0  0  0  0  0  0  0  0  0  0
   -3.4980   25.2000  -30.2650 N   0  0  0  0  0  0  0  0  0  0  0  0
   -2.4580   24.8350  -29.3470 C   0  0  0  0  0  0  0  0  0  0  0  0
   -1.5530   25.6700  -29.0880 O   0  0  0  0  0  0  0  0  0  0  0  0
   -2.4180   23.5480  -28.7160 N   0  0  0  0  0  0  0  0  0  0  0  0
   -1.8380   22.3570  -29.2680 C   0  0  0  0  0  0  0  0  0  0  0  0
   -1.6660   21.1950  -28.4950 C   0  0  0  0  0  0  0  0  0  0  0  0
   -1.0830   20.0570  -29.0590 C   0  0  0  0  0  0  0  0  0  0  0  0
   -0.6830   20.0630  -30.3980 C   0  0  0  0  0  0  0  0  0  0  0  0
   -0.8750   21.2090  -31.1800 C   0  0  0  0  0  0  0  0  0  0  0  0
   -0.4690   21.2140  -32.5620 C   0  0  0  0  0  0  0  0  0  0  0  0
   -0.1420   21.2180  -33.6720 N   0  0  0  0  0  0  0  0  0  0  0  0
   -1.4600   22.3500  -30.6160 C   0  0  0  0  0  0  0  0  0  0  0  0
   -5.9530   24.8950  -30.4490 C   0  0  0  0  0  0  0  0  0  0  0  0
   -7.0480   24.0860  -30.7650 C   0  0  0  0  0  0  0  0  0  0  0  0
   -7.6610   18.4940  -32.2940 C   0  0  0  0  0  0  0  0  0  0  0  0
   -7.0140   17.2560  -32.3470 C   0  0  0  0  0  0  0  0  0  0  0  0
   -4.6053   13.9915  -30.7650 H   0  0  0  0  0  0  0  0  0  0  0  0
   -5.6081   13.7099  -32.2285 H   0  0  0  0  0  0  0  0  0  0  0  0
   -3.8710   13.2528  -32.2285 H   0  0  0  0  0  0  0  0  0  0  0  0
   -4.1790   16.0685  -31.5329 H   0  0  0  0  0  0  0  0  0  0  0  0
   -3.2735   15.3120  -32.9001 H   0  0  0  0  0  0  0  0  0  0  0  0
   -4.6342   17.9873  -34.6903 H   0  0  0  0  0  0  0  0  0  0  0  0
   -5.7850   20.1912  -34.5930 H   0  0  0  0  0  0  0  0  0  0  0  0
   -5.3819   21.2917  -31.8165 H   0  0  0  0  0  0  0  0  0  0  0  0
   -3.4267   22.7366  -31.2652 H   0  0  0  0  0  0  0  0  0  0  0  0
   -1.9910   21.1817  -27.4442 H   0  0  0  0  0  0  0  0  0  0  0  0
   -0.9386   19.1542  -28.4474 H   0  0  0  0  0  0  0  0  0  0  0  0
   -0.2177   19.1684  -30.8375 H   0  0  0  0  0  0  0  0  0  0  0  0
   -1.6231   23.2445  -31.2350 H   0  0  0  0  0  0  0  0  0  0  0  0
   -6.1155   25.9194  -30.0827 H   0  0  0  0  0  0  0  0  0  0  0  0
   -8.0701   24.4696  -30.6301 H   0  0  0  0  0  0  0  0  0  0  0  0
   -8.5154   18.6360  -31.6159 H   0  0  0  0  0  0  0  0  0  0  0  0
   -7.3641   16.4278  -31.7133 H   0  0  0  0  0  0  0  0  0  0  0  0
  1  2  1  0
  2  3  1  0
  3  4  1  0
  4  5  2  0
  5  6  1  0
  6  7  2  0
  7  8  1  0
  8  9  1  0
  9 10  2  0
  9 11  2  0
  9 12  1  0
 12 13  2  0
 13 14  1  0
 14 15  2  0
 15 16  1  0
 16 17  1  0
 17 18  2  0
 17 19  1  0
 19 20  1  0
 20 21  2  0
 21 22  1  0
 22 23  2  0
 23 24  1  0
 24 25  1  0
 25 26  3  0
 24 27  2  0
 15 28  1  0
 28 29  2  0
  7 30  1  0
 30 31  2  0
 31  4  1  0
 29 12  1  0
 27 20  1  0
  1 32  1  0
  1 33  1  0
  1 34  1  0
  2 35  1  0
  2 36  1  0
  5 37  1  0
  6 38  1  0
 13 39  1  0
 14 40  1  0
 21 41  1  0
 22 42  1  0
 23 43  1  0
 27 44  1  0
 28 45  1  0
 29 46  1  0
 30 47  1  0
 31 48  1  0
M  CHG  3   8  -1  16  -1  19  -1
M  END
>  <UniqueID>  (29) 
28

>  <SMILES>  (29) 
CCOc1ccc([N-]S(=O)(=O)c2ccc([N-]C(=O)[N-]c3cccc(C#N)c3)cc2)cc1

>  <Energy>  (29) 
57.59041255635728

>  <Genealogy>  (29) 
CCOc1ccc([N-]S(=O)(=O)c2ccc([N-]C(=O)[N-]c3cccc(C#N)c3)cc2)cc1 (protonated)
CCOc1ccc([N-]S(=O)(=O)c2ccc([N-]C(=O)[N-]c3cccc(C#N)c3)cc2)cc1 (3D coordinates assigned)
CCOc1ccc([N-]S(=O)(=O)c2ccc([N-]C(=O)[N-]c3cccc(C#N)c3)cc2)cc1 (optimized conformer: 57.59041255635728 kcal/mol)

>  <smiles>  (29) 
CCOc1ccc(NS(=O)(=O)c2ccc(NC(=O)Nc3cccc(C#N)c3)cc2)cc1

>  <score_type>  (29) 
oracle

>  <origin>  (29) 
adgpu

>  <m_score__min__energy>  (29) 
-12.57

>  <m_primary>  (29) 
energy

$$$$
29:0
     RDKit          3D

 44 47  0  0  0  0  0  0  0  0999 V2000
   -0.4880   25.3320  -28.5850 O   0  0  0  0  0  0  0  0  0  0  0  0
   -1.4380   24.6100  -28.9850 C   0  0  0  0  0  0  0  0  0  0  0  0
   -2.6780   25.2410  -29.3380 N   0  0  0  0  0  0  0  0  0  0  0  0
   -3.8810   24.5630  -29.7290 C   0  0  0  0  0  0  0  0  0  0  0  0
   -4.3020   23.3850  -29.0890 C   0  0  0  0  0  0  0  0  0  0  0  0
   -5.4480   22.7200  -29.5260 C   0  0  0  0  0  0  0  0  0  0  0  0
   -6.1970   23.2310  -30.5930 C   0  0  0  0  0  0  0  0  0  0  0  0
   -7.5730   22.3150  -31.1980 S   0  0  0  0  0  0  0  0  0  0  0  0
   -8.6100   22.2800  -30.1110 O   0  0  0  0  0  0  0  0  0  0  0  0
   -8.1600   22.9790  -32.4120 O   0  0  0  0  0  0  0  0  0  0  0  0
   -7.0690   20.6990  -31.6130 N   0  0  0  0  0  0  0  0  0  0  0  0
   -7.9740   19.5660  -31.3870 C   0  0  0  0  0  0  0  0  0  0  0  0
   -8.1940   18.8290  -32.7110 C   0  0  0  0  0  0  0  0  0  0  0  0
   -6.9390   18.4890  -33.3050 O   0  0  0  0  0  0  0  0  0  0  0  0
   -5.8180   19.3250  -33.2020 C   0  0  0  0  0  0  0  0  0  0  0  0
   -4.6560   19.0310  -33.9240 C   0  0  0  0  0  0  0  0  0  0  0  0
   -3.5300   19.8490  -33.7980 C   0  0  0  0  0  0  0  0  0  0  0  0
   -3.5580   20.9540  -32.9420 C   0  0  0  0  0  0  0  0  0  0  0  0
   -4.7160   21.2510  -32.2150 C   0  0  0  0  0  0  0  0  0  0  0  0
   -5.8590   20.4470  -32.3540 C   0  0  0  0  0  0  0  0  0  0  0  0
   -5.8040   24.4300  -31.2030 C   0  0  0  0  0  0  0  0  0  0  0  0
   -4.6560   25.0970  -30.7640 C   0  0  0  0  0  0  0  0  0  0  0  0
   -1.2320   23.1480  -29.1230 C   0  0  0  0  0  0  0  0  0  0  0  0
   -1.0660   22.3260  -27.9960 C   0  0  0  0  0  0  0  0  0  0  0  0
   -0.8560   20.9550  -28.1520 C   0  0  0  0  0  0  0  0  0  0  0  0
   -0.8340   20.4100  -29.4360 C   0  0  0  0  0  0  0  0  0  0  0  0
   -1.0160   21.2090  -30.5180 N   0  0  0  0  0  0  0  0  0  0  0  0
   -1.2170   22.5490  -30.3930 C   0  0  0  0  0  0  0  0  0  0  0  0
   -3.7263   22.9859  -28.2409 H   0  0  0  0  0  0  0  0  0  0  0  0
   -5.7644   21.7904  -29.0303 H   0  0  0  0  0  0  0  0  0  0  0  0
   -7.5280   18.8791  -30.6527 H   0  0  0  0  0  0  0  0  0  0  0  0
   -8.9372   19.9320  -31.0020 H   0  0  0  0  0  0  0  0  0  0  0  0
   -8.7674   17.9093  -32.5232 H   0  0  0  0  0  0  0  0  0  0  0  0
   -8.7483   19.4856  -33.3978 H   0  0  0  0  0  0  0  0  0  0  0  0
   -4.6289   18.1563  -34.5905 H   0  0  0  0  0  0  0  0  0  0  0  0
   -2.6201   19.6231  -34.3733 H   0  0  0  0  0  0  0  0  0  0  0  0
   -2.6674   21.5915  -32.8398 H   0  0  0  0  0  0  0  0  0  0  0  0
   -4.7311   22.1148  -31.5341 H   0  0  0  0  0  0  0  0  0  0  0  0
   -6.3995   24.8471  -32.0284 H   0  0  0  0  0  0  0  0  0  0  0  0
   -4.3609   26.0463  -31.2349 H   0  0  0  0  0  0  0  0  0  0  0  0
   -1.1016   22.7641  -26.9876 H   0  0  0  0  0  0  0  0  0  0  0  0
   -0.7094   20.3113  -27.2721 H   0  0  0  0  0  0  0  0  0  0  0  0
   -0.6689   19.3310  -29.5718 H   0  0  0  0  0  0  0  0  0  0  0  0
   -1.3685   23.1659  -31.2910 H   0  0  0  0  0  0  0  0  0  0  0  0
  1  2  2  0
  2  3  1  0
  3  4  1  0
  4  5  2  0
  5  6  1  0
  6  7  2  0
  7  8  1  0
  8  9  2  0
  8 10  2  0
  8 11  1  0
 11 12  1  0
 12 13  1  0
 13 14  1  0
 14 15  1  0
 15 16  2  0
 16 17  1  0
 17 18  2  0
 18 19  1  0
 19 20  2  0
  7 21  1  0
 21 22  2  0
  2 23  1  0
 23 24  2  0
 24 25  1  0
 25 26  2  0
 26 27  1  0
 27 28  2  0
 22  4  1  0
 28 23  1  0
 20 11  1  0
 20 15  1  0
  5 29  1  0
  6 30  1  0
 12 31  1  0
 12 32  1  0
 13 33  1  0
 13 34  1  0
 16 35  1  0
 17 36  1  0
 18 37  1  0
 19 38  1  0
 21 39  1  0
 22 40  1  0
 24 41  1  0
 25 42  1  0
 26 43  1  0
 28 44  1  0
M  CHG  1   3  -1
M  END
>  <UniqueID>  (30) 
29

>  <SMILES>  (30) 
O=C([N-]c1ccc(S(=O)(=O)N2CCOc3ccccc32)cc1)c1cccnc1

>  <Energy>  (30) 
60.01471007804299

>  <Genealogy>  (30) 
O=C([N-]c1ccc(S(=O)(=O)N2CCOc3ccccc32)cc1)c1cccnc1 (protonated)
O=C([N-]c1ccc(S(=O)(=O)N2CCOc3ccccc32)cc1)c1cccnc1 (3D coordinates assigned)
O=C([N-]c1ccc(S(=O)(=O)N2CCOc3ccccc32)cc1)c1cccnc1 (nonaromatic ring conformer: 60.01471007804299 kcal/mol)

>  <smiles>  (30) 
O=C(Nc1ccc(S(=O)(=O)N2CCOc3ccccc32)cc1)c1cccnc1

>  <score_type>  (30) 
oracle

>  <origin>  (30) 
adgpu

>  <m_score__min__energy>  (30) 
-10.300000000000001

>  <m_primary>  (30) 
energy

$$$$
30:0
     RDKit          3D

 38 41  0  0  0  0  0  0  0  0999 V2000
   -1.2350   26.3530  -29.3460 O   0  0  0  0  0  0  0  0  0  0  0  0
   -1.1720   25.4850  -28.2620 C   0  0  0  0  0  0  0  0  0  0  0  0
   -0.2280   25.7300  -27.2580 C   0  0  0  0  0  0  0  0  0  0  0  0
   -0.1350   24.8800  -26.1550 C   0  0  0  0  0  0  0  0  0  0  0  0
   -0.9860   23.7800  -26.0470 C   0  0  0  0  0  0  0  0  0  0  0  0
   -1.9320   23.5260  -27.0430 C   0  0  0  0  0  0  0  0  0  0  0  0
   -2.0400   24.3720  -28.1630 C   0  0  0  0  0  0  0  0  0  0  0  0
   -3.0540   24.0780  -29.2060 C   0  0  0  0  0  0  0  0  0  0  0  0
   -3.4700   24.9780  -30.1200 N   0  0  0  0  0  0  0  0  0  0  0  0
   -4.3460   24.3490  -30.8410 O   0  0  0  0  0  0  0  0  0  0  0  0
   -4.4760   23.1190  -30.4070 C   0  0  0  0  0  0  0  0  0  0  0  0
   -5.3890   22.1210  -30.9950 C   0  0  0  0  0  0  0  0  0  0  0  0
   -4.9690   20.7930  -31.1900 C   0  0  0  0  0  0  0  0  0  0  0  0
   -5.8390   19.8520  -31.7500 C   0  0  0  0  0  0  0  0  0  0  0  0
   -7.1330   20.2280  -32.1230 C   0  0  0  0  0  0  0  0  0  0  0  0
   -8.2450   19.0220  -32.8490 S   0  0  0  0  0  0  0  0  0  0  0  0
   -6.8980   18.0420  -33.5130 C   0  0  0  0  0  0  0  0  0  0  0  0
   -6.6460   16.7600  -33.0060 C   0  0  0  0  0  0  0  0  0  0  0  0
   -5.5920   16.0000  -33.5210 C   0  0  0  0  0  0  0  0  0  0  0  0
   -4.7910   16.5140  -34.5450 C   0  0  0  0  0  0  0  0  0  0  0  0
   -5.0440   17.7910  -35.0550 C   0  0  0  0  0  0  0  0  0  0  0  0
   -6.0970   18.5550  -34.5410 C   0  0  0  0  0  0  0  0  0  0  0  0
   -7.5600   21.5460  -31.9290 C   0  0  0  0  0  0  0  0  0  0  0  0
   -6.6930   22.4890  -31.3690 C   0  0  0  0  0  0  0  0  0  0  0  0
   -3.6700   22.8840  -29.3530 N   0  0  0  0  0  0  0  0  0  0  0  0
    0.4441   26.5970  -27.3388 H   0  0  0  0  0  0  0  0  0  0  0  0
    0.6100   25.0776  -25.3702 H   0  0  0  0  0  0  0  0  0  0  0  0
   -0.9121   23.1117  -25.1764 H   0  0  0  0  0  0  0  0  0  0  0  0
   -2.5992   22.6563  -26.9512 H   0  0  0  0  0  0  0  0  0  0  0  0
   -3.9511   20.4929  -30.9006 H   0  0  0  0  0  0  0  0  0  0  0  0
   -5.5047   18.8144  -31.8972 H   0  0  0  0  0  0  0  0  0  0  0  0
   -7.2775   16.3520  -32.2030 H   0  0  0  0  0  0  0  0  0  0  0  0
   -5.3924   14.9954  -33.1198 H   0  0  0  0  0  0  0  0  0  0  0  0
   -3.9623   15.9142  -34.9492 H   0  0  0  0  0  0  0  0  0  0  0  0
   -4.4143   18.1953  -35.8613 H   0  0  0  0  0  0  0  0  0  0  0  0
   -6.2960   19.5589  -34.9443 H   0  0  0  0  0  0  0  0  0  0  0  0
   -8.5797   21.8409  -32.2176 H   0  0  0  0  0  0  0  0  0  0  0  0
   -7.0331   23.5245  -31.2203 H   0  0  0  0  0  0  0  0  0  0  0  0
  1  2  1  0
  2  3  2  0
  3  4  1  0
  4  5  2  0
  5  6  1  0
  6  7  2  0
  7  8  1  0
  8  9  2  0
  9 10  1  0
 10 11  1  0
 11 12  1  0
 12 13  2  0
 13 14  1  0
 14 15  2  0
 15 16  1  0
 16 17  1  0
 17 18  2  0
 18 19  1  0
 19 20  2  0
 20 21  1  0
 21 22  2  0
 15 23  1  0
 23 24  2  0
 11 25  2  0
  7  2  1  0
 25  8  1  0
 24 12  1  0
 22 17  1  0
  3 26  1  0
  4 27  1  0
  5 28  1  0
  6 29  1  0
 13 30  1  0
 14 31  1  0
 18 32  1  0
 19 33  1  0
 20 34  1  0
 21 35  1  0
 22 36  1  0
 23 37  1  0
 24 38  1  0
M  CHG  1   1  -1
M  END
>  <UniqueID>  (31) 
30

>  <SMILES>  (31) 
[O-]c1ccccc1-c1noc(-c2ccc(Sc3ccccc3)cc2)n1

>  <Energy>  (31) 
73.69149637501513

>  <Genealogy>  (31) 
[O-]c1ccccc1-c1noc(-c2ccc(Sc3ccccc3)cc2)n1 (protonated)
[O-]c1ccccc1-c1noc(-c2ccc(Sc3ccccc3)cc2)n1 (3D coordinates assigned)
[O-]c1ccccc1-c1noc(-c2ccc(Sc3ccccc3)cc2)n1 (optimized conformer: 73.69149637501513 kcal/mol)

>  <smiles>  (31) 
Oc1ccccc1-c1noc(-c2ccc(Sc3ccccc3)cc2)n1

>  <score_type>  (31) 
oracle

>  <origin>  (31) 
adgpu

>  <m_score__min__energy>  (31) 
-12.27

>  <m_primary>  (31) 
energy

$$$$
31:0
     RDKit          3D

 35 36  0  0  0  0  0  0  0  0999 V2000
   -6.5240   25.3020  -29.5200 C   0  0  0  0  0  0  0  0  0  0  0  0
   -6.0930   23.9160  -29.7850 N   0  0  2  0  0  0  0  0  0  0  0  0
   -4.6660   23.7030  -29.4430 C   0  0  0  0  0  0  0  0  0  0  0  0
   -3.7580   24.7970  -29.9400 C   0  0  0  0  0  0  0  0  0  0  0  0
   -4.1660   25.5920  -30.8270 O   0  0  0  0  0  0  0  0  0  0  0  0
   -2.4150   24.8760  -29.4430 N   0  0  0  0  0  0  0  0  0  0  0  0
   -2.0060   25.3070  -28.1370 C   0  0  0  0  0  0  0  0  0  0  0  0
   -2.7580   24.8960  -27.0290 C   0  0  0  0  0  0  0  0  0  0  0  0
   -2.4040   25.3080  -25.7410 C   0  0  0  0  0  0  0  0  0  0  0  0
   -1.3040   26.1490  -25.5530 C   0  0  0  0  0  0  0  0  0  0  0  0
   -0.9630   26.5500  -24.3040 F   0  0  0  0  0  0  0  0  0  0  0  0
   -0.5630   26.5850  -26.6540 C   0  0  0  0  0  0  0  0  0  0  0  0
   -0.9130   26.1730  -27.9450 C   0  0  0  0  0  0  0  0  0  0  0  0
   -6.3810   23.5210  -31.1540 C   0  0  0  0  0  0  0  0  0  0  0  0
   -5.8210   24.1340  -32.1090 O   0  0  0  0  0  0  0  0  0  0  0  0
   -7.2890   22.3820  -31.4760 C   0  0  0  0  0  0  0  0  0  0  0  0
   -8.6860   22.5380  -31.5630 C   0  0  0  0  0  0  0  0  0  0  0  0
   -9.4920   21.4370  -31.8620 C   0  0  0  0  0  0  0  0  0  0  0  0
   -8.9330   20.2150  -32.0660 N   0  0  0  0  0  0  0  0  0  0  0  0
   -7.5910   20.0270  -31.9860 C   0  0  0  0  0  0  0  0  0  0  0  0
   -6.7480   21.0990  -31.6890 C   0  0  0  0  0  0  0  0  0  0  0  0
   -6.5758   25.4686  -28.4339 H   0  0  0  0  0  0  0  0  0  0  0  0
   -5.8011   26.0021  -29.9643 H   0  0  0  0  0  0  0  0  0  0  0  0
   -7.5164   25.4687  -29.9643 H   0  0  0  0  0  0  0  0  0  0  0  0
   -6.6660   23.3240  -29.1390 H   0  0  0  0  0  0  0  0  0  0  0  0
   -4.5753   23.6461  -28.3482 H   0  0  0  0  0  0  0  0  0  0  0  0
   -4.3509   22.7722  -29.9373 H   0  0  0  0  0  0  0  0  0  0  0  0
   -3.6327   24.2448  -27.1734 H   0  0  0  0  0  0  0  0  0  0  0  0
   -2.9918   24.9699  -24.8748 H   0  0  0  0  0  0  0  0  0  0  0  0
    0.2977   27.2538  -26.5060 H   0  0  0  0  0  0  0  0  0  0  0  0
   -0.3333   26.5263  -28.8105 H   0  0  0  0  0  0  0  0  0  0  0  0
   -9.1416   23.5251  -31.3958 H   0  0  0  0  0  0  0  0  0  0  0  0
  -10.5829   21.5594  -31.9326 H   0  0  0  0  0  0  0  0  0  0  0  0
   -7.1665   19.0265  -32.1558 H   0  0  0  0  0  0  0  0  0  0  0  0
   -5.6614   20.9420  -31.6213 H   0  0  0  0  0  0  0  0  0  0  0  0
  1  2  1  0
  2  3  1  0
  3  4  1  0
  4  5  2  0
  4  6  1  0
  6  7  1  0
  7  8  2  0
  8  9  1  0
  9 10  2  0
 10 11  1  0
 10 12  1  0
 12 13  2  0
  2 14  1  0
 14 15  2  0
 14 16  1  0
 16 17  2  0
 17 18  1  0
 18 19  2  0
 19 20  1  0
 20 21  2  0
 13  7  1  0
 21 16  1  0
  1 22  1  0
  1 23  1  0
  1 24  1  0
  2 25  1  1
  3 26  1  0
  3 27  1  0
  8 28  1  0
  9 29  1  0
 12 30  1  0
 13 31  1  0
 17 32  1  0
 18 33  1  0
 20 34  1  0
 21 35  1  0
M  CHG  2   2   1   6  -1
M  END
>  <UniqueID>  (32) 
31

>  <SMILES>  (32) 
C[N@H+](CC(=O)[N-]c1ccc(F)cc1)C(=O)c1ccncc1

>  <Energy>  (32) 
45.86733929740913

>  <Genealogy>  (32) 
C[NH+](CC(=O)[N-]c1ccc(F)cc1)C(=O)c1ccncc1 (protonated)
C[N@H+](CC(=O)[N-]c1ccc(F)cc1)C(=O)c1ccncc1 (chirality)
C[N@H+](CC(=O)[N-]c1ccc(F)cc1)C(=O)c1ccncc1 (3D coordinates assigned)
C[N@H+](CC(=O)[N-]c1ccc(F)cc1)C(=O)c1ccncc1 (optimized conformer: 45.86733929740913 kcal/mol)

>  <smiles>  (32) 
CN(CC(=O)Nc1ccc(F)cc1)C(=O)c1ccncc1

>  <score_type>  (32) 
oracle

>  <origin>  (32) 
adgpu

>  <m_score__min__energy>  (32) 
-8.3599999999999994

>  <m_primary>  (32) 
energy

$$$$
32:0
     RDKit          3D

 52 55  0  0  0  0  0  0  0  0999 V2000
   -3.8710   25.3400  -30.4820 O   0  0  0  0  0  0  0  0  0  0  0  0
   -3.7740   24.1110  -30.2130 C   0  0  0  0  0  0  0  0  0  0  0  0
   -2.8140   23.6680  -29.2390 N   0  0  0  0  0  0  0  0  0  0  0  0
   -2.2600   24.5210  -28.2210 C   0  0  0  0  0  0  0  0  0  0  0  0
   -1.0490   25.2070  -28.4190 C   0  0  0  0  0  0  0  0  0  0  0  0
   -0.5390   26.0440  -27.4220 C   0  0  0  0  0  0  0  0  0  0  0  0
   -1.2340   26.2110  -26.2170 C   0  0  0  0  0  0  0  0  0  0  0  0
   -0.5810   27.2480  -24.9480 S   0  0  0  0  0  0  0  0  0  0  0  0
   -1.2330   26.8970  -23.6400 O   0  0  0  0  0  0  0  0  0  0  0  0
    0.8920   26.9760  -24.8120 O   0  0  0  0  0  0  0  0  0  0  0  0
   -0.8220   28.9520  -25.2790 N   0  0  0  0  0  0  0  0  0  0  0  0
   -0.8330   29.2520  -26.7230 C   0  0  0  0  0  0  0  0  0  0  0  0
    0.5860   29.3920  -27.3240 C   0  0  0  0  0  0  0  0  0  0  0  0
    1.6080   29.4270  -26.3480 O   0  0  0  0  0  0  0  0  0  0  0  0
    1.2700   30.3470  -25.3370 C   0  0  0  0  0  0  0  0  0  0  0  0
    0.0900   29.8210  -24.5030 C   0  0  0  0  0  0  0  0  0  0  0  0
   -2.4580   25.5530  -26.0300 C   0  0  0  0  0  0  0  0  0  0  0  0
   -2.9680   24.7180  -27.0270 C   0  0  0  0  0  0  0  0  0  0  0  0
   -4.6180   23.1360  -30.9470 C   0  0  0  0  0  0  0  0  0  0  0  0
   -4.0460   22.2570  -31.8800 C   0  0  0  0  0  0  0  0  0  0  0  0
   -4.8450   21.3470  -32.5740 C   0  0  0  0  0  0  0  0  0  0  0  0
   -6.2260   21.3150  -32.3300 C   0  0  0  0  0  0  0  0  0  0  0  0
   -7.0780   20.4340  -33.0120 O   0  0  0  0  0  0  0  0  0  0  0  0
   -6.7410   19.1420  -33.4410 C   0  0  0  0  0  0  0  0  0  0  0  0
   -7.1830   18.0470  -32.6890 C   0  0  0  0  0  0  0  0  0  0  0  0
   -6.8530   16.7430  -33.0760 C   0  0  0  0  0  0  0  0  0  0  0  0
   -6.0680   16.5280  -34.2110 C   0  0  0  0  0  0  0  0  0  0  0  0
   -5.6040   17.6150  -34.9570 C   0  0  0  0  0  0  0  0  0  0  0  0
   -5.9320   18.9200  -34.5720 C   0  0  0  0  0  0  0  0  0  0  0  0
   -6.7670   22.1920  -31.4440 N   0  0  0  0  0  0  0  0  0  0  0  0
   -6.0100   23.0870  -30.7560 C   0  0  0  0  0  0  0  0  0  0  0  0
   -2.4090   22.7110  -29.3470 H   0  0  0  0  0  0  0  0  0  0  0  0
   -0.4994   25.0845  -29.3640 H   0  0  0  0  0  0  0  0  0  0  0  0
    0.4115   26.5734  -27.5843 H   0  0  0  0  0  0  0  0  0  0  0  0
   -1.3560   28.4377  -27.2459 H   0  0  0  0  0  0  0  0  0  0  0  0
   -1.3417   30.2185  -26.8536 H   0  0  0  0  0  0  0  0  0  0  0  0
    0.7688   28.5356  -27.9897 H   0  0  0  0  0  0  0  0  0  0  0  0
    0.6177   30.3509  -27.8620 H   0  0  0  0  0  0  0  0  0  0  0  0
    2.1390   30.4981  -24.6797 H   0  0  0  0  0  0  0  0  0  0  0  0
    0.9786   31.2989  -25.8050 H   0  0  0  0  0  0  0  0  0  0  0  0
    0.4888   29.2435  -23.6560 H   0  0  0  0  0  0  0  0  0  0  0  0
   -0.4910   30.6926  -24.1672 H   0  0  0  0  0  0  0  0  0  0  0  0
   -3.0189   25.6949  -25.0944 H   0  0  0  0  0  0  0  0  0  0  0  0
   -3.9323   24.2112  -26.8742 H   0  0  0  0  0  0  0  0  0  0  0  0
   -2.9621   22.2855  -32.0652 H   0  0  0  0  0  0  0  0  0  0  0  0
   -4.3954   20.6604  -33.3064 H   0  0  0  0  0  0  0  0  0  0  0  0
   -7.7932   18.2124  -31.7888 H   0  0  0  0  0  0  0  0  0  0  0  0
   -7.2121   15.8870  -32.4859 H   0  0  0  0  0  0  0  0  0  0  0  0
   -5.8148   15.5025  -34.5180 H   0  0  0  0  0  0  0  0  0  0  0  0
   -4.9807   17.4448  -35.8472 H   0  0  0  0  0  0  0  0  0  0  0  0
   -5.5569   19.7744  -35.1544 H   0  0  0  0  0  0  0  0  0  0  0  0
   -6.4892   23.7769  -30.0458 H   0  0  0  0  0  0  0  0  0  0  0  0
  1  2  2  0
  2  3  1  0
  3  4  1  0
  4  5  2  0
  5  6  1  0
  6  7  2  0
  7  8  1  0
  8  9  2  0
  8 10  2  0
  8 11  1  0
 11 12  1  0
 12 13  1  0
 13 14  1  0
 14 15  1  0
 15 16  1  0
  7 17  1  0
 17 18  2  0
  2 19  1  0
 19 20  2  0
 20 21  1  0
 21 22  2  0
 22 23  1  0
 23 24  1  0
 24 25  2  0
 25 26  1  0
 26 27  2  0
 27 28  1  0
 28 29  2  0
 22 30  1  0
 30 31  2  0
 18  4  1  0
 31 19  1  0
 16 11  1  0
 29 24  1  0
  3 32  1  0
  5 33  1  0
  6 34  1  0
 12 35  1  0
 12 36  1  0
 13 37  1  0
 13 38  1  0
 15 39  1  0
 15 40  1  0
 16 41  1  0
 16 42  1  0
 17 43  1  0
 18 44  1  0
 20 45  1  0
 21 46  1  0
 25 47  1  0
 26 48  1  0
 27 49  1  0
 28 50  1  0
 29 51  1  0
 31 52  1  0
M  END
>  <UniqueID>  (33) 
32

>  <SMILES>  (33) 
O=C(Nc1ccc(S(=O)(=O)N2CCOCC2)cc1)c1ccc(Oc2ccccc2)nc1

>  <Energy>  (33) 
79.17153398489926

>  <Genealogy>  (33) 
O=C(Nc1ccc(S(=O)(=O)N2CCOCC2)cc1)c1ccc(Oc2ccccc2)nc1 (3D coordinates assigned)
O=C(Nc1ccc(S(=O)(=O)N2CCOCC2)cc1)c1ccc(Oc2ccccc2)nc1 (nonaromatic ring conformer: 79.17153398489926 kcal/mol)

>  <smiles>  (33) 
O=C(Nc1ccc(S(=O)(=O)N2CCOCC2)cc1)c1ccc(Oc2ccccc2)nc1

>  <score_type>  (33) 
oracle

>  <origin>  (33) 
adgpu

>  <m_score__min__energy>  (33) 
-9.1699999999999999

>  <m_primary>  (33) 
energy

$$$$
33:0
     RDKit          3D

 47 49  0  0  0  0  0  0  0  0999 V2000
   -3.9030   15.8730  -33.4660 C   0  0  0  0  0  0  0  0  0  0  0  0
   -5.2220   15.2620  -33.5650 N   0  0  0  0  0  0  0  0  0  0  0  0
   -6.4300   15.9690  -33.8770 C   0  0  0  0  0  0  0  0  0  0  0  0
   -7.2970   15.3990  -34.5910 O   0  0  0  0  0  0  0  0  0  0  0  0
   -6.6740   17.3530  -33.4230 C   0  0  0  0  0  0  0  0  0  0  0  0
   -6.0850   18.4250  -34.1100 C   0  0  0  0  0  0  0  0  0  0  0  0
   -6.3200   19.7420  -33.7000 C   0  0  0  0  0  0  0  0  0  0  0  0
   -7.1700   20.0040  -32.6110 C   0  0  0  0  0  0  0  0  0  0  0  0
   -7.4220   21.3070  -32.1560 O   0  0  0  0  0  0  0  0  0  0  0  0
   -6.4510   22.2080  -31.7000 C   0  0  0  0  0  0  0  0  0  0  0  0
   -6.8390   23.2720  -30.8830 C   0  0  0  0  0  0  0  0  0  0  0  0
   -5.8800   24.1870  -30.4420 C   0  0  0  0  0  0  0  0  0  0  0  0
   -4.5410   24.0480  -30.8400 C   0  0  0  0  0  0  0  0  0  0  0  0
   -3.5180   24.9500  -30.3880 N   0  0  0  0  0  0  0  0  0  0  0  0
   -2.5890   24.6540  -29.3290 C   0  0  0  0  0  0  0  0  0  0  0  0
   -2.6000   23.5280  -28.7660 O   0  0  0  0  0  0  0  0  0  0  0  0
   -1.6150   25.6200  -28.9170 N   0  0  0  0  0  0  0  0  0  0  0  0
   -1.2860   25.9570  -27.5630 C   0  0  0  0  0  0  0  0  0  0  0  0
   -2.1480   25.5580  -26.5350 C   0  0  0  0  0  0  0  0  0  0  0  0
   -1.8710   25.8980  -25.2090 C   0  0  0  0  0  0  0  0  0  0  0  0
   -0.7390   26.6570  -24.8900 C   0  0  0  0  0  0  0  0  0  0  0  0
   -0.5030   26.9700  -23.5430 O   0  0  0  0  0  0  0  0  0  0  0  0
    0.6830   27.5920  -23.0580 C   0  0  0  0  0  0  0  0  0  0  0  0
    0.1160   27.0820  -25.9240 C   0  0  0  0  0  0  0  0  0  0  0  0
   -0.1620   26.7410  -27.2520 C   0  0  0  0  0  0  0  0  0  0  0  0
   -4.1930   22.9580  -31.6500 C   0  0  0  0  0  0  0  0  0  0  0  0
   -5.1440   22.0810  -32.0650 N   0  0  0  0  0  0  0  0  0  0  0  0
   -7.7550   18.9320  -31.9280 C   0  0  0  0  0  0  0  0  0  0  0  0
   -7.5220   17.6160  -32.3370 C   0  0  0  0  0  0  0  0  0  0  0  0
   -3.6350   15.9971  -32.4064 H   0  0  0  0  0  0  0  0  0  0  0  0
   -3.1616   15.2266  -33.9584 H   0  0  0  0  0  0  0  0  0  0  0  0
   -3.9166   16.8565  -33.9584 H   0  0  0  0  0  0  0  0  0  0  0  0
   -5.4350   18.2292  -34.9755 H   0  0  0  0  0  0  0  0  0  0  0  0
   -5.8379   20.5756  -34.2317 H   0  0  0  0  0  0  0  0  0  0  0  0
   -7.8925   23.3888  -30.5888 H   0  0  0  0  0  0  0  0  0  0  0  0
   -6.1742   25.0168  -29.7826 H   0  0  0  0  0  0  0  0  0  0  0  0
   -3.5000   25.9030  -30.8150 H   0  0  0  0  0  0  0  0  0  0  0  0
   -3.0488   24.9733  -26.7728 H   0  0  0  0  0  0  0  0  0  0  0  0
   -2.5484   25.5664  -24.4083 H   0  0  0  0  0  0  0  0  0  0  0  0
    0.6756   27.5881  -21.9580 H   0  0  0  0  0  0  0  0  0  0  0  0
    1.5618   27.0387  -23.4207 H   0  0  0  0  0  0  0  0  0  0  0  0
    0.7275   28.6295  -23.4207 H   0  0  0  0  0  0  0  0  0  0  0  0
    1.0056   27.6842  -25.6872 H   0  0  0  0  0  0  0  0  0  0  0  0
    0.5026   27.0883  -28.0568 H   0  0  0  0  0  0  0  0  0  0  0  0
   -3.1451   22.8121  -31.9510 H   0  0  0  0  0  0  0  0  0  0  0  0
   -8.4040   19.1267  -31.0615 H   0  0  0  0  0  0  0  0  0  0  0  0
   -8.0055   16.7833  -31.8052 H   0  0  0  0  0  0  0  0  0  0  0  0
  1  2  1  0
  2  3  1  0
  3  4  2  0
  3  5  1  0
  5  6  2  0
  6  7  1  0
  7  8  2  0
  8  9  1  0
  9 10  1  0
 10 11  2  0
 11 12  1  0
 12 13  2  0
 13 14  1  0
 14 15  1  0
 15 16  2  0
 15 17  1  0
 17 18  1  0
 18 19  2  0
 19 20  1  0
 20 21  2  0
 21 22  1  0
 22 23  1  0
 21 24  1  0
 24 25  2  0
 13 26  1  0
 26 27  2  0
  8 28  1  0
 28 29  2  0
 29  5  1  0
 27 10  1  0
 25 18  1  0
  1 30  1  0
  1 31  1  0
  1 32  1  0
  6 33  1  0
  7 34  1  0
 11 35  1  0
 12 36  1  0
 14 37  1  0
 19 38  1  0
 20 39  1  0
 23 40  1  0
 23 41  1  0
 23 42  1  0
 24 43  1  0
 25 44  1  0
 26 45  1  0
 28 46  1  0
 29 47  1  0
M  CHG  2   2  -1  17  -1
M  END
>  <UniqueID>  (34) 
33

>  <SMILES>  (34) 
C[N-]C(=O)c1ccc(Oc2ccc(NC(=O)[N-]c3ccc(OC)cc3)cn2)cc1

>  <Energy>  (34) 
66.33652607367644

>  <Genealogy>  (34) 
C[N-]C(=O)c1ccc(Oc2ccc(NC(=O)[N-]c3ccc(OC)cc3)cn2)cc1 (protonated)
C[N-]C(=O)c1ccc(Oc2ccc(NC(=O)[N-]c3ccc(OC)cc3)cn2)cc1 (3D coordinates assigned)
C[N-]C(=O)c1ccc(Oc2ccc(NC(=O)[N-]c3ccc(OC)cc3)cn2)cc1 (optimized conformer: 66.33652607367644 kcal/mol)

>  <smiles>  (34) 
CNC(=O)c1ccc(Oc2ccc(NC(=O)Nc3ccc(OC)cc3)cn2)cc1

>  <score_type>  (34) 
oracle

>  <origin>  (34) 
adgpu

>  <m_score__min__energy>  (34) 
-9.7699999999999996

>  <m_primary>  (34) 
energy

$$$$
34:0
     RDKit          3D

 33 34  0  0  0  0  0  0  0  0999 V2000
   -2.9780   20.7390  -32.8410 C   0  0  0  0  0  0  0  0  0  0  0  0
   -3.9370   20.7690  -31.7180 N   0  0  0  0  0  0  0  0  0  0  0  0
   -4.8520   19.6100  -31.7920 C   0  0  0  0  0  0  0  0  0  0  0  0
   -6.2800   20.0680  -31.9380 C   0  0  0  0  0  0  0  0  0  0  0  0
   -7.2980   19.1280  -32.1720 C   0  0  0  0  0  0  0  0  0  0  0  0
   -8.6270   19.5450  -32.2940 C   0  0  0  0  0  0  0  0  0  0  0  0
   -8.9500   20.9000  -32.1820 C   0  0  0  0  0  0  0  0  0  0  0  0
  -10.2710   21.3120  -32.3040 O   0  0  0  0  0  0  0  0  0  0  0  0
   -7.9420   21.8410  -31.9460 C   0  0  0  0  0  0  0  0  0  0  0  0
   -6.6120   21.4280  -31.8250 C   0  0  0  0  0  0  0  0  0  0  0  0
   -3.2160   20.7730  -30.4270 C   0  0  0  0  0  0  0  0  0  0  0  0
   -2.7900   22.1700  -30.0600 C   0  0  0  0  0  0  0  0  0  0  0  0
   -1.6660   22.3690  -29.2430 C   0  0  0  0  0  0  0  0  0  0  0  0
   -1.2740   23.6620  -28.8860 C   0  0  0  0  0  0  0  0  0  0  0  0
   -2.0010   24.7670  -29.3400 C   0  0  0  0  0  0  0  0  0  0  0  0
   -1.6060   26.0510  -28.9810 O   0  0  0  0  0  0  0  0  0  0  0  0
   -3.1250   24.5770  -30.1530 C   0  0  0  0  0  0  0  0  0  0  0  0
   -3.8530   25.6720  -30.6050 O   0  0  0  0  0  0  0  0  0  0  0  0
   -3.5200   23.2840  -30.5120 C   0  0  0  0  0  0  0  0  0  0  0  0
   -1.9518   20.7069  -32.4461 H   0  0  0  0  0  0  0  0  0  0  0  0
   -3.1621   19.8462  -33.4566 H   0  0  0  0  0  0  0  0  0  0  0  0
   -3.1059   21.6416  -33.4566 H   0  0  0  0  0  0  0  0  0  0  0  0
   -4.5809   18.9906  -32.6596 H   0  0  0  0  0  0  0  0  0  0  0  0
   -4.7605   19.0270  -30.8637 H   0  0  0  0  0  0  0  0  0  0  0  0
   -7.0484   18.0603  -32.2595 H   0  0  0  0  0  0  0  0  0  0  0  0
   -9.4198   18.8051  -32.4785 H   0  0  0  0  0  0  0  0  0  0  0  0
   -8.1964   22.9074  -31.8555 H   0  0  0  0  0  0  0  0  0  0  0  0
   -5.8223   22.1712  -31.6405 H   0  0  0  0  0  0  0  0  0  0  0  0
   -3.8786   20.3795  -29.6421 H   0  0  0  0  0  0  0  0  0  0  0  0
   -2.3193   20.1428  -30.5206 H   0  0  0  0  0  0  0  0  0  0  0  0
   -1.0912   21.5033  -28.8822 H   0  0  0  0  0  0  0  0  0  0  0  0
   -0.3915   23.8109  -28.2464 H   0  0  0  0  0  0  0  0  0  0  0  0
   -4.4043   23.1380  -31.1498 H   0  0  0  0  0  0  0  0  0  0  0  0
  1  2  1  0
  2  3  1  0
  3  4  1  0
  4  5  2  0
  5  6  1  0
  6  7  2  0
  7  8  1  0
  7  9  1  0
  9 10  2  0
  2 11  1  0
 11 12  1  0
 12 13  2  0
 13 14  1  0
 14 15  2  0
 15 16  1  0
 15 17  1  0
 17 18  1  0
 17 19  2  0
 10  4  1  0
 19 12  1  0
  1 20  1  0
  1 21  1  0
  1 22  1  0
  3 23  1  0
  3 24  1  0
  5 25  1  0
  6 26  1  0
  9 27  1  0
 10 28  1  0
 11 29  1  0
 11 30  1  0
 13 31  1  0
 14 32  1  0
 19 33  1  0
M  CHG  3   8  -1  16  -1  18  -1
M  END
>  <UniqueID>  (35) 
34

>  <SMILES>  (35) 
CN(Cc1ccc([O-])cc1)Cc1ccc([O-])c([O-])c1

>  <Energy>  (35) 
34.66344169239399

>  <Genealogy>  (35) 
CN(Cc1ccc([O-])cc1)Cc1ccc([O-])c([O-])c1 (protonated)
CN(Cc1ccc([O-])cc1)Cc1ccc([O-])c([O-])c1 (3D coordinates assigned)
CN(Cc1ccc([O-])cc1)Cc1ccc([O-])c([O-])c1 (optimized conformer: 34.66344169239399 kcal/mol)

>  <smiles>  (35) 
CN(Cc1ccc(O)cc1)Cc1ccc(O)c(O)c1

>  <score_type>  (35) 
oracle

>  <origin>  (35) 
adgpu

>  <m_score__min__energy>  (35) 
-12.050000000000001

>  <m_primary>  (35) 
energy

$$$$
35:0
     RDKit          3D

 47 49  0  0  0  0  0  0  0  0999 V2000
   -5.7919   21.6392  -29.5819 H   0  0  0  0  0  0  0  0  0  0  0  0
   -5.5560   22.6860  -29.8240 C   0  0  0  0  0  0  0  0  0  0  0  0
   -4.2750   23.1870  -29.5720 C   0  0  0  0  0  0  0  0  0  0  0  0
   -3.5125   22.5372  -29.1178 H   0  0  0  0  0  0  0  0  0  0  0  0
   -3.9570   24.5190  -29.8970 C   0  0  0  0  0  0  0  0  0  0  0  0
   -2.6890   25.0700  -29.6600 O   0  0  0  0  0  0  0  0  0  0  0  0
   -1.6720   24.4410  -28.8880 C   0  0  0  0  0  0  0  0  0  0  0  0
   -1.8884   24.5748  -27.8178 H   0  0  0  0  0  0  0  0  0  0  0  0
   -1.6432   23.3672  -29.1248 H   0  0  0  0  0  0  0  0  0  0  0  0
   -0.6984   24.8949  -29.1248 H   0  0  0  0  0  0  0  0  0  0  0  0
   -4.9360   25.3300  -30.4820 C   0  0  0  0  0  0  0  0  0  0  0  0
   -4.6964   26.3709  -30.7449 H   0  0  0  0  0  0  0  0  0  0  0  0
   -6.2160   24.8280  -30.7350 C   0  0  0  0  0  0  0  0  0  0  0  0
   -6.9700   25.4711  -31.2123 H   0  0  0  0  0  0  0  0  0  0  0  0
   -6.5450   23.5150  -30.3860 C   0  0  0  0  0  0  0  0  0  0  0  0
   -7.8640   23.0290  -30.6890 N   0  0  0  0  0  0  0  0  0  0  0  0
   -8.1630   21.9660  -31.3810 C   0  0  0  0  0  0  0  0  0  0  0  0
   -7.1920   21.1240  -31.8270 N   0  0  0  0  0  0  0  0  0  0  0  0
   -7.4850   19.9960  -32.5300 C   0  0  0  0  0  0  0  0  0  0  0  0
   -6.4120   19.1490  -33.0010 N   0  0  0  0  0  0  0  0  0  0  0  0
   -5.0460   19.6080  -33.0230 C   0  0  0  0  0  0  0  0  0  0  0  0
   -3.9860   18.6870  -32.9780 C   0  0  0  0  0  0  0  0  0  0  0  0
   -4.1988   17.6090  -32.9268 H   0  0  0  0  0  0  0  0  0  0  0  0
   -2.6620   19.1350  -32.9980 C   0  0  0  0  0  0  0  0  0  0  0  0
   -1.8372   18.4080  -32.9642 H   0  0  0  0  0  0  0  0  0  0  0  0
   -2.3810   20.5070  -33.0610 C   0  0  0  0  0  0  0  0  0  0  0  0
   -0.7150   21.0720  -33.0980 S   0  0  0  0  0  0  0  0  0  0  0  0
   -0.4970   21.9230  -34.3190 O   0  0  0  0  0  0  0  0  0  0  0  0
   -0.4260   21.8970  -31.8760 O   0  0  0  0  0  0  0  0  0  0  0  0
    0.3820   19.6740  -33.1420 C   0  0  0  0  0  0  0  0  0  0  0  0
    0.6241   19.3654  -32.1143 H   0  0  0  0  0  0  0  0  0  0  0  0
   -0.1062   18.8413  -33.6695 H   0  0  0  0  0  0  0  0  0  0  0  0
    1.3069   19.9502  -33.6695 H   0  0  0  0  0  0  0  0  0  0  0  0
   -3.4360   21.4260  -33.1210 C   0  0  0  0  0  0  0  0  0  0  0  0
   -3.2215   22.5030  -33.1841 H   0  0  0  0  0  0  0  0  0  0  0  0
   -4.7600   20.9800  -33.1010 C   0  0  0  0  0  0  0  0  0  0  0  0
   -5.5831   21.7084  -33.1467 H   0  0  0  0  0  0  0  0  0  0  0  0
   -6.7230   17.7940  -33.4670 C   0  0  0  0  0  0  0  0  0  0  0  0
   -6.8745   17.1339  -32.6002 H   0  0  0  0  0  0  0  0  0  0  0  0
   -7.6393   17.8167  -34.0752 H   0  0  0  0  0  0  0  0  0  0  0  0
   -5.8885   17.4149  -34.0752 H   0  0  0  0  0  0  0  0  0  0  0  0
   -8.8280   19.7030  -32.8080 C   0  0  0  0  0  0  0  0  0  0  0  0
   -9.0974   18.8100  -33.3911 H   0  0  0  0  0  0  0  0  0  0  0  0
   -9.8150   20.5640  -32.3320 C   0  0  0  0  0  0  0  0  0  0  0  0
  -10.8750   20.3460  -32.5291 H   0  0  0  0  0  0  0  0  0  0  0  0
   -9.4710   21.6720  -31.6250 N   0  0  0  0  0  0  0  0  0  0  0  0
  -10.2250   22.3050  -31.2750 H   0  0  0  0  0  0  0  0  0  0  0  0
  1  2  1  0
  2  3  2  0
  3  4  1  0
  3  5  1  0
  5  6  1  0
  6  7  1  0
  7  8  1  0
  7  9  1  0
  7 10  1  0
  5 11  2  0
 11 12  1  0
 11 13  1  0
 13 14  1  0
 13 15  2  0
 15 16  1  0
 16 17  2  0
 17 18  1  0
 18 19  2  0
 19 20  1  0
 20 21  1  0
 21 22  2  0
 22 23  1  0
 22 24  1  0
 24 25  1  0
 24 26  2  0
 26 27  1  0
 27 28  2  0
 27 29  2  0
 27 30  1  0
 30 31  1  0
 30 32  1  0
 30 33  1  0
 26 34  1  0
 34 35  1  0
 34 36  2  0
 36 37  1  0
 20 38  1  0
 38 39  1  0
 38 40  1  0
 38 41  1  0
 19 42  1  0
 42 43  1  0
 42 44  2  0
 44 45  1  0
 44 46  1  0
 46 47  1  0
 15  2  1  0
 46 17  1  0
 36 21  1  0
M  END
>  <UniqueID>  (36) 
35

>  <SMILES>  (36) 
COc1ccc(/N=c2\nc(N(C)c3ccc(S(C)(=O)=O)cc3)cc[nH]2)cc1

>  <Energy>  (36) 
59.04853498814313

>  <Genealogy>  (36) 
COc1ccc(/N=c2\nc(N(C)c3ccc(S(C)(=O)=O)cc3)cc[nH]2)cc1 (cis-trans isomerization)
COc1ccc(/N=c2\nc(N(C)c3ccc(S(C)(=O)=O)cc3)cc[nH]2)cc1 (3D coordinates assigned)
COc1ccc(/N=c2\nc(N(C)c3ccc(S(C)(=O)=O)cc3)cc[nH]2)cc1 (optimized conformer: 59.04853498814313 kcal/mol)

>  <smiles>  (36) 
COc1ccc(N=c2nc(N(C)c3ccc(S(C)(=O)=O)cc3)cc[nH]2)cc1

>  <score_type>  (36) 
oracle

>  <origin>  (36) 
adgpu

>  <m_score__min__energy>  (36) 
-9.0600000000000005

>  <m_primary>  (36) 
energy

$$$$
36:0
     RDKit          3D

 58 61  0  0  0  0  0  0  0  0999 V2000
   -1.3680   25.5020  -28.1290 C   0  0  0  0  0  0  0  0  0  0  0  0
   -2.1380   25.2950  -29.3080 O   0  0  0  0  0  0  0  0  0  0  0  0
   -2.6220   24.0470  -29.7290 C   0  0  0  0  0  0  0  0  0  0  0  0
   -1.6970   23.0450  -30.0380 C   0  0  0  0  0  0  0  0  0  0  0  0
   -2.1300   21.7870  -30.4650 C   0  0  0  0  0  0  0  0  0  0  0  0
   -3.5000   21.5110  -30.6080 C   0  0  0  0  0  0  0  0  0  0  0  0
   -3.9450   20.1270  -31.0500 C   0  0  0  0  0  0  0  0  0  0  0  0
   -4.7880   20.1280  -32.2810 N   0  0  2  0  0  0  0  0  0  0  0  0
   -6.2080   19.7810  -31.9260 C   0  0  2  0  0  0  0  0  0  0  0  0
   -6.8370   18.6610  -32.8130 C   0  0  0  0  0  0  0  0  0  0  0  0
   -8.3460   18.4020  -32.5440 C   0  0  0  0  0  0  0  0  0  0  0  0
   -8.9370   19.2640  -31.4170 C   0  0  0  0  0  0  0  0  0  0  0  0
   -8.5310   20.6940  -31.6290 C   0  0  0  0  0  0  0  0  0  0  0  0
   -9.4840   21.7230  -31.5950 C   0  0  0  0  0  0  0  0  0  0  0  0
   -9.1190   23.0260  -31.9290 C   0  0  0  0  0  0  0  0  0  0  0  0
   -7.8100   23.3030  -32.3220 C   0  0  0  0  0  0  0  0  0  0  0  0
   -6.8520   22.2840  -32.3510 C   0  0  0  0  0  0  0  0  0  0  0  0
   -7.1850   20.9720  -31.9540 C   0  0  0  0  0  0  0  0  0  0  0  0
   -4.0790   18.9950  -33.4360 S   0  0  0  0  0  0  0  0  0  0  0  0
   -4.9380   18.9280  -34.6700 O   0  0  0  0  0  0  0  0  0  0  0  0
   -3.9880   17.6110  -32.8580 O   0  0  0  0  0  0  0  0  0  0  0  0
   -2.4310   19.4680  -33.8570 C   0  0  0  0  0  0  0  0  0  0  0  0
   -1.4810   18.5050  -34.2290 C   0  0  0  0  0  0  0  0  0  0  0  0
   -0.1800   18.8920  -34.5620 C   0  0  0  0  0  0  0  0  0  0  0  0
    0.1850   20.2470  -34.5300 C   0  0  0  0  0  0  0  0  0  0  0  0
    1.5920   20.6570  -34.8500 C   0  0  0  0  0  0  0  0  0  0  0  0
   -0.7560   21.2050  -34.1250 C   0  0  0  0  0  0  0  0  0  0  0  0
   -2.0580   20.8170  -33.7930 C   0  0  0  0  0  0  0  0  0  0  0  0
   -4.4290   22.5130  -30.2760 C   0  0  0  0  0  0  0  0  0  0  0  0
   -3.9960   23.7720  -29.8490 C   0  0  0  0  0  0  0  0  0  0  0  0
   -1.9993   25.3323  -27.2443 H   0  0  0  0  0  0  0  0  0  0  0  0
   -0.5217   24.7995  -28.1158 H   0  0  0  0  0  0  0  0  0  0  0  0
   -0.9880   26.5342  -28.1158 H   0  0  0  0  0  0  0  0  0  0  0  0
   -0.6201   23.2487  -29.9442 H   0  0  0  0  0  0  0  0  0  0  0  0
   -1.3906   21.0047  -30.6915 H   0  0  0  0  0  0  0  0  0  0  0  0
   -3.0482   19.5205  -31.2447 H   0  0  0  0  0  0  0  0  0  0  0  0
   -4.5643   19.7163  -30.2390 H   0  0  0  0  0  0  0  0  0  0  0  0
   -4.7810   21.0650  -32.7390 H   0  0  0  0  0  0  0  0  0  0  0  0
   -6.0911   19.4215  -30.8930 H   0  0  0  0  0  0  0  0  0  0  0  0
   -6.7201   18.9508  -33.8677 H   0  0  0  0  0  0  0  0  0  0  0  0
   -6.3087   17.7289  -32.5640 H   0  0  0  0  0  0  0  0  0  0  0  0
   -8.9033   18.6122  -33.4688 H   0  0  0  0  0  0  0  0  0  0  0  0
   -8.4368   17.3536  -32.2238 H   0  0  0  0  0  0  0  0  0  0  0  0
  -10.0342   19.1865  -31.4305 H   0  0  0  0  0  0  0  0  0  0  0  0
   -8.5615   18.9120  -30.4449 H   0  0  0  0  0  0  0  0  0  0  0  0
  -10.5214   21.5010  -31.3042 H   0  0  0  0  0  0  0  0  0  0  0  0
   -9.8628   23.8351  -31.8826 H   0  0  0  0  0  0  0  0  0  0  0  0
   -7.5296   24.3268  -32.6103 H   0  0  0  0  0  0  0  0  0  0  0  0
   -5.8287   22.5081  -32.6868 H   0  0  0  0  0  0  0  0  0  0  0  0
   -1.7611   17.4417  -34.2587 H   0  0  0  0  0  0  0  0  0  0  0  0
    0.5609   18.1317  -34.8503 H   0  0  0  0  0  0  0  0  0  0  0  0
    2.1483   20.8191  -33.9150 H   0  0  0  0  0  0  0  0  0  0  0  0
    2.0810   19.8640  -35.4348 H   0  0  0  0  0  0  0  0  0  0  0  0
    1.5785   21.5886  -35.4348 H   0  0  0  0  0  0  0  0  0  0  0  0
   -0.4689   22.2654  -34.0683 H   0  0  0  0  0  0  0  0  0  0  0  0
   -2.7922   21.5741  -33.4803 H   0  0  0  0  0  0  0  0  0  0  0  0
   -5.5063   22.3044  -30.3529 H   0  0  0  0  0  0  0  0  0  0  0  0
   -4.7335   24.5511  -29.6058 H   0  0  0  0  0  0  0  0  0  0  0  0
  1  2  1  0
  2  3  1  0
  3  4  2  0
  4  5  1  0
  5  6  2  0
  6  7  1  0
  7  8  1  0
  8  9  1  0
  9 10  1  0
 10 11  1  0
 11 12  1  0
 12 13  1  0
 13 14  2  0
 14 15  1  0
 15 16  2  0
 16 17  1  0
 17 18  2  0
  8 19  1  0
 19 20  2  0
 19 21  2  0
 19 22  1  0
 22 23  2  0
 23 24  1  0
 24 25  2  0
 25 26  1  0
 25 27  1  0
 27 28  2  0
  6 29  1  0
 29 30  2  0
 30  3  1  0
 18  9  1  0
 28 22  1  0
 18 13  1  0
  1 31  1  0
  1 32  1  0
  1 33  1  0
  4 34  1  0
  5 35  1  0
  7 36  1  0
  7 37  1  0
  8 38  1  6
  9 39  1  1
 10 40  1  0
 10 41  1  0
 11 42  1  0
 11 43  1  0
 12 44  1  0
 12 45  1  0
 14 46  1  0
 15 47  1  0
 16 48  1  0
 17 49  1  0
 23 50  1  0
 24 51  1  0
 26 52  1  0
 26 53  1  0
 26 54  1  0
 27 55  1  0
 28 56  1  0
 29 57  1  0
 30 58  1  0
M  CHG  1   8   1
M  END
>  <UniqueID>  (37) 
36

>  <SMILES>  (37) 
COc1ccc(C[N@H+]([C@@H]2CCCc3ccccc32)S(=O)(=O)c2ccc(C)cc2)cc1

>  <Energy>  (37) 
80.52045833339888

>  <Genealogy>  (37) 
COc1ccc(C[NH+](C2CCCc3ccccc32)S(=O)(=O)c2ccc(C)cc2)cc1 (protonated)
COc1ccc(C[N@H+]([C@@H]2CCCc3ccccc32)S(=O)(=O)c2ccc(C)cc2)cc1 (chirality)
COc1ccc(C[N@H+]([C@@H]2CCCc3ccccc32)S(=O)(=O)c2ccc(C)cc2)cc1 (3D coordinates assigned)
COc1ccc(C[N@H+]([C@@H]2CCCc3ccccc32)S(=O)(=O)c2ccc(C)cc2)cc1 (nonaromatic ring conformer: 80.52045833339888 kcal/mol)

>  <smiles>  (37) 
COc1ccc(CN(C2CCCc3ccccc32)S(=O)(=O)c2ccc(C)cc2)cc1

>  <score_type>  (37) 
oracle

>  <origin>  (37) 
adgpu

>  <m_score__min__energy>  (37) 
-9.4199999999999999

>  <m_primary>  (37) 
energy

$$$$
37:0
     RDKit          3D

 36 38  0  0  0  0  0  0  0  0999 V2000
   -9.3760   21.9290  -31.6330 C   0  0  0  0  0  0  0  0  0  0  0  0
   -7.9470   21.8880  -31.9290 N   0  0  0  0  0  0  0  0  0  0  0  0
   -7.2590   20.9070  -32.5670 C   0  0  0  0  0  0  0  0  0  0  0  0
   -7.8030   19.8820  -33.0580 O   0  0  0  0  0  0  0  0  0  0  0  0
   -5.9220   21.1350  -32.6010 N   0  0  0  0  0  0  0  0  0  0  0  0
   -4.8790   20.2590  -33.1290 C   0  0  0  0  0  0  0  0  0  0  0  0
   -5.7650   22.2890  -31.9210 C   0  0  0  0  0  0  0  0  0  0  0  0
   -4.5850   22.9590  -31.5970 C   0  0  0  0  0  0  0  0  0  0  0  0
   -4.6860   24.1480  -30.8350 C   0  0  0  0  0  0  0  0  0  0  0  0
   -3.5300   24.9070  -30.4590 N   0  0  0  0  0  0  0  0  0  0  0  0
   -2.5280   24.5810  -29.0810 S   0  0  0  0  0  0  0  0  0  0  0  0
   -3.3740   24.5650  -27.8380 O   0  0  0  0  0  0  0  0  0  0  0  0
   -1.4730   25.6460  -28.9740 O   0  0  0  0  0  0  0  0  0  0  0  0
   -1.7440   23.0120  -29.2590 C   0  0  0  0  0  0  0  0  0  0  0  0
   -1.5360   22.4610  -30.5330 C   0  0  0  0  0  0  0  0  0  0  0  0
   -0.9180   21.2140  -30.6680 C   0  0  0  0  0  0  0  0  0  0  0  0
   -0.7170   20.6860  -31.9010 F   0  0  0  0  0  0  0  0  0  0  0  0
   -0.5060   20.5100  -29.5330 C   0  0  0  0  0  0  0  0  0  0  0  0
   -0.7140   21.0500  -28.2620 C   0  0  0  0  0  0  0  0  0  0  0  0
   -1.3330   22.2980  -28.1210 C   0  0  0  0  0  0  0  0  0  0  0  0
   -1.5310   22.8050  -26.8790 F   0  0  0  0  0  0  0  0  0  0  0  0
   -5.9580   24.6090  -30.4200 C   0  0  0  0  0  0  0  0  0  0  0  0
   -7.1280   23.9040  -30.7530 C   0  0  0  0  0  0  0  0  0  0  0  0
   -6.9920   22.7440  -31.5130 C   0  0  0  0  0  0  0  0  0  0  0  0
   -9.5247   21.9333  -30.5431 H   0  0  0  0  0  0  0  0  0  0  0  0
   -9.8142   22.8401  -32.0664 H   0  0  0  0  0  0  0  0  0  0  0  0
   -9.8658   21.0445  -32.0664 H   0  0  0  0  0  0  0  0  0  0  0  0
   -4.3302   19.7980  -32.2945 H   0  0  0  0  0  0  0  0  0  0  0  0
   -5.3384   19.4719  -33.7450 H   0  0  0  0  0  0  0  0  0  0  0  0
   -4.1831   20.8474  -33.7450 H   0  0  0  0  0  0  0  0  0  0  0  0
   -3.6070   22.5756  -31.9233 H   0  0  0  0  0  0  0  0  0  0  0  0
   -1.8602   23.0120  -31.4282 H   0  0  0  0  0  0  0  0  0  0  0  0
   -0.0177   19.5302  -29.6409 H   0  0  0  0  0  0  0  0  0  0  0  0
   -0.3909   20.4937  -27.3697 H   0  0  0  0  0  0  0  0  0  0  0  0
   -6.0325   25.5330  -29.8278 H   0  0  0  0  0  0  0  0  0  0  0  0
   -8.1171   24.2562  -30.4248 H   0  0  0  0  0  0  0  0  0  0  0  0
  1  2  1  0
  2  3  1  0
  3  4  2  0
  3  5  1  0
  5  6  1  0
  5  7  1  0
  7  8  2  0
  8  9  1  0
  9 10  1  0
 10 11  1  0
 11 12  2  0
 11 13  2  0
 11 14  1  0
 14 15  2  0
 15 16  1  0
 16 17  1  0
 16 18  2  0
 18 19  1  0
 19 20  2  0
 20 21  1  0
  9 22  2  0
 22 23  1  0
 23 24  2  0
 24  2  1  0
 24  7  1  0
 20 14  1  0
  1 25  1  0
  1 26  1  0
  1 27  1  0
  6 28  1  0
  6 29  1  0
  6 30  1  0
  8 31  1  0
 15 32  1  0
 18 33  1  0
 19 34  1  0
 22 35  1  0
 23 36  1  0
M  CHG  1  10  -1
M  END
>  <UniqueID>  (38) 
37

>  <SMILES>  (38) 
Cn1c(=O)n(C)c2cc([N-]S(=O)(=O)c3cc(F)ccc3F)ccc21

>  <Energy>  (38) 
83.43979204091139

>  <Genealogy>  (38) 
Cn1c(=O)n(C)c2cc([N-]S(=O)(=O)c3cc(F)ccc3F)ccc21 (protonated)
Cn1c(=O)n(C)c2cc([N-]S(=O)(=O)c3cc(F)ccc3F)ccc21 (3D coordinates assigned)
Cn1c(=O)n(C)c2cc([N-]S(=O)(=O)c3cc(F)ccc3F)ccc21 (optimized conformer: 83.43979204091139 kcal/mol)

>  <smiles>  (38) 
Cn1c(=O)n(C)c2cc(NS(=O)(=O)c3cc(F)ccc3F)ccc21

>  <score_type>  (38) 
oracle

>  <origin>  (38) 
adgpu

>  <m_score__min__energy>  (38) 
-9.1799999999999997

>  <m_primary>  (38) 
energy

$$$$
38:0
     RDKit          3D

 39 42  0  0  1  0  0  0  0  0999 V2000
   -3.8640   25.4310  -30.6880 O   0  0  0  0  0  0  0  0  0  0  0  0
   -3.8270   24.1150  -30.2310 C   0  0  0  0  0  0  0  0  0  0  0  0
   -3.9810   23.7790  -28.9190 C   0  0  0  0  0  0  0  0  0  0  0  0
   -3.9360   22.4570  -28.5200 C   0  0  0  0  0  0  0  0  0  0  0  0
   -3.7350   21.4310  -29.4220 C   0  0  0  0  0  0  0  0  0  0  0  0
   -3.5780   21.7720  -30.7510 C   0  0  0  0  0  0  0  0  0  0  0  0
   -3.3620   20.7670  -31.7840 C   0  0  0  0  0  0  0  0  0  0  0  0
   -2.1150   20.4130  -32.2010 C   0  0  0  0  0  0  0  0  0  0  0  0
   -1.8340   19.4790  -33.1650 C   0  0  0  0  0  0  0  0  0  0  0  0
   -2.8950   18.8460  -33.7610 C   0  0  0  0  0  0  0  0  0  0  0  0
   -2.6130   17.9340  -34.7030 N   0  0  0  0  0  0  0  0  0  0  0  0
   -3.6300   17.2990  -35.3030 C   0  0  0  0  0  0  0  0  0  0  0  0
   -4.8970   17.5620  -34.9760 N   0  0  0  0  0  0  0  0  0  0  0  0
   -5.1790   18.4870  -34.0210 C   0  0  0  0  0  0  0  0  0  0  0  0
   -6.3690   18.6970  -33.7540 N   0  0  0  0  0  0  0  0  0  0  0  0
   -7.0350   19.5110  -32.8950 C   0  0  0  0  0  0  0  0  0  0  0  0
   -7.9150   18.9490  -31.9380 C   0  0  0  0  0  0  0  0  0  0  0  0
   -8.6820   19.7510  -31.1280 C   0  0  0  0  0  0  0  0  0  0  0  0
   -8.6040   21.1400  -31.2360 C   0  0  0  0  0  0  0  0  0  0  0  0
   -7.7510   21.6820  -32.1640 C   0  0  0  0  0  0  0  0  0  0  0  0
   -7.6560   23.4410  -32.2970 Cl  0  0  0  0  0  0  0  0  0  0  0  0
   -6.9630   20.9230  -32.9990 C   0  0  0  0  0  0  0  0  0  0  0  0
   -4.1860   19.1700  -33.3730 C   0  0  0  0  0  0  0  0  0  0  0  0
   -4.4350   20.1040  -32.4100 C   0  0  0  0  0  0  0  0  0  0  0  0
   -3.6240   23.1110  -31.1550 C   0  0  0  0  0  0  0  0  0  0  0  0
   -4.2280   25.6740  -31.6030 H   0  0  0  0  0  0  0  0  0  0  0  0
   -4.1428   24.5684  -28.1702 H   0  0  0  0  0  0  0  0  0  0  0  0
   -4.0638   22.2152  -27.4545 H   0  0  0  0  0  0  0  0  0  0  0  0
   -3.7012   20.3815  -29.0943 H   0  0  0  0  0  0  0  0  0  0  0  0
   -1.2618   20.9184  -31.7249 H   0  0  0  0  0  0  0  0  0  0  0  0
   -0.7972   19.2463  -33.4495 H   0  0  0  0  0  0  0  0  0  0  0  0
   -1.6250   17.7150  -34.9730 H   0  0  0  0  0  0  0  0  0  0  0  0
   -3.4165   16.5483  -36.0782 H   0  0  0  0  0  0  0  0  0  0  0  0
   -7.9853   17.8555  -31.8420 H   0  0  0  0  0  0  0  0  0  0  0  0
   -9.3605   19.2962  -30.3912 H   0  0  0  0  0  0  0  0  0  0  0  0
   -9.2145   21.7878  -30.5897 H   0  0  0  0  0  0  0  0  0  0  0  0
   -6.2934   21.4005  -33.7295 H   0  0  0  0  0  0  0  0  0  0  0  0
   -5.4709   20.3383  -32.1235 H   0  0  0  0  0  0  0  0  0  0  0  0
   -3.4973   23.3650  -32.2178 H   0  0  0  0  0  0  0  0  0  0  0  0
  1  2  1  0
  2  3  2  0
  3  4  1  0
  4  5  2  0
  5  6  1  0
  6  7  1  0
  7  8  2  0
  8  9  1  0
  9 10  2  0
 10 11  1  0
 11 12  1  0
 12 13  2  0
 13 14  1  0
 14 15  2  0
 15 16  1  0
 16 17  2  0
 17 18  1  0
 18 19  2  0
 19 20  1  0
 20 21  1  0
 20 22  2  0
 14 23  1  0
 23 24  2  0
  6 25  2  0
 25  2  1  0
 24  7  1  0
 23 10  1  0
 22 16  1  0
  1 26  1  0
  3 27  1  0
  4 28  1  0
  5 29  1  0
  8 30  1  0
  9 31  1  0
 11 32  1  0
 12 33  1  0
 17 34  1  0
 18 35  1  0
 19 36  1  0
 22 37  1  0
 24 38  1  0
 25 39  1  0
M  END
>  <smiles>  (39) 
Oc1cccc(-c2ccc3[nH]cnc(=Nc4cccc(Cl)c4)c3c2)c1

>  <score_type>  (39) 
oracle

>  <origin>  (39) 
adgpu

>  <m_score__min__energy>  (39) 
-9.8000000000000007

>  <m_primary>  (39) 
energy

$$$$
39:0
     RDKit          3D

 44 47  0  0  0  0  0  0  0  0999 V2000
   -1.4260   27.4996  -22.4068 H   0  0  0  0  0  0  0  0  0  0  0  0
   -1.0780   27.1080  -23.3740 C   0  0  0  0  0  0  0  0  0  0  0  0
   -0.8160   25.7440  -23.5220 C   0  0  0  0  0  0  0  0  0  0  0  0
   -0.9640   25.0612  -22.6724 H   0  0  0  0  0  0  0  0  0  0  0  0
   -0.3660   25.2450  -24.7480 C   0  0  0  0  0  0  0  0  0  0  0  0
   -0.1694   24.1686  -24.8607 H   0  0  0  0  0  0  0  0  0  0  0  0
   -0.1630   26.1100  -25.8380 C   0  0  0  0  0  0  0  0  0  0  0  0
    0.3190   25.5590  -27.1290 C   0  0  0  0  0  0  0  0  0  0  0  0
    1.2640   26.1430  -27.7270 O   0  0  0  0  0  0  0  0  0  0  0  0
   -0.2680   24.3410  -27.7400 C   0  0  0  0  0  0  0  0  0  0  0  0
    0.1300   23.0810  -27.2700 C   0  0  0  0  0  0  0  0  0  0  0  0
    0.8702   23.0094  -26.4594 H   0  0  0  0  0  0  0  0  0  0  0  0
   -0.4050   21.9200  -27.8220 C   0  0  0  0  0  0  0  0  0  0  0  0
   -0.0843   20.9370  -27.4467 H   0  0  0  0  0  0  0  0  0  0  0  0
   -1.3460   21.9980  -28.8490 C   0  0  0  0  0  0  0  0  0  0  0  0
   -1.7700   21.0746  -29.2704 H   0  0  0  0  0  0  0  0  0  0  0  0
   -1.7580   23.2460  -29.3510 C   0  0  0  0  0  0  0  0  0  0  0  0
   -2.7710   23.2970  -30.4370 C   0  0  0  0  0  0  0  0  0  0  0  0
   -2.5590   22.6760  -31.5150 O   0  0  0  0  0  0  0  0  0  0  0  0
   -4.0330   23.9470  -30.2160 N   0  0  0  0  0  0  0  0  0  0  0  0
   -5.2350   23.5330  -30.5140 C   0  0  0  0  0  0  0  0  0  0  0  0
   -6.3430   24.3020  -30.1000 C   0  0  0  0  0  0  0  0  0  0  0  0
   -6.1760   25.5140  -29.3550 N   0  0  0  0  0  0  0  0  0  0  0  0
   -6.9620   26.1850  -29.2070 H   0  0  0  0  0  0  0  0  0  0  0  0
   -5.2470   25.7440  -28.9370 H   0  0  0  0  0  0  0  0  0  0  0  0
   -7.6000   23.8830  -30.4030 N   0  0  0  0  0  0  0  0  0  0  0  0
   -7.8180   22.7470  -31.1090 C   0  0  0  0  0  0  0  0  0  0  0  0
   -9.1230   22.3390  -31.4080 C   0  0  0  0  0  0  0  0  0  0  0  0
   -9.9798   22.9352  -31.0608 H   0  0  0  0  0  0  0  0  0  0  0  0
   -9.3360   21.1720  -32.1490 C   0  0  0  0  0  0  0  0  0  0  0  0
  -10.3616   20.8500  -32.3825 H   0  0  0  0  0  0  0  0  0  0  0  0
   -8.2480   20.4130  -32.5940 C   0  0  0  0  0  0  0  0  0  0  0  0
   -8.4201   19.4967  -33.1778 H   0  0  0  0  0  0  0  0  0  0  0  0
   -6.9420   20.8170  -32.2980 C   0  0  0  0  0  0  0  0  0  0  0  0
   -6.0887   20.2191  -32.6507 H   0  0  0  0  0  0  0  0  0  0  0  0
   -6.7190   21.9850  -31.5510 C   0  0  0  0  0  0  0  0  0  0  0  0
   -5.4540   22.3990  -31.2510 N   0  0  0  0  0  0  0  0  0  0  0  0
   -4.6590   21.8470  -31.6370 H   0  0  0  0  0  0  0  0  0  0  0  0
   -1.1910   24.4220  -28.8070 C   0  0  0  0  0  0  0  0  0  0  0  0
   -1.5100   25.6680  -29.3420 O   0  0  0  0  0  0  0  0  0  0  0  0
   -0.4490   27.4830  -25.6850 C   0  0  0  0  0  0  0  0  0  0  0  0
   -0.3250   28.3440  -26.7270 F   0  0  0  0  0  0  0  0  0  0  0  0
   -0.8980   27.9740  -24.4540 C   0  0  0  0  0  0  0  0  0  0  0  0
   -1.1100   29.0470  -24.3368 H   0  0  0  0  0  0  0  0  0  0  0  0
  1  2  1  0
  2  3  2  0
  3  4  1  0
  3  5  1  0
  5  6  1  0
  5  7  2  0
  7  8  1  0
  8  9  2  0
  8 10  1  0
 10 11  2  0
 11 12  1  0
 11 13  1  0
 13 14  1  0
 13 15  2  0
 15 16  1  0
 15 17  1  0
 17 18  1  0
 18 19  2  0
 18 20  1  0
 20 21  2  0
 21 22  1  0
 22 23  1  0
 23 24  1  0
 23 25  1  0
 22 26  2  0
 26 27  1  0
 27 28  2  0
 28 29  1  0
 28 30  1  0
 30 31  1  0
 30 32  2  0
 32 33  1  0
 32 34  1  0
 34 35  1  0
 34 36  2  0
 36 37  1  0
 37 38  1  0
 17 39  2  0
 39 40  1  0
  7 41  1  0
 41 42  1  0
 41 43  2  0
 43 44  1  0
 43  2  1  0
 39 10  1  0
 37 21  1  0
 36 27  1  0
M  CHG  1  40  -1
M  END
>  <UniqueID>  (40) 
38

>  <SMILES>  (40) 
Nc1nc2ccccc2[nH]/c1=N\C(=O)c1cccc(C(=O)c2ccccc2F)c1[O-]

>  <Energy>  (40) 
71.62516997415908

>  <Genealogy>  (40) 
Nc1nc2ccccc2[nH]c1=NC(=O)c1cccc(C(=O)c2ccccc2F)c1[O-] (protonated)
Nc1nc2ccccc2[nH]/c1=N\C(=O)c1cccc(C(=O)c2ccccc2F)c1[O-] (cis-trans isomerization)
Nc1nc2ccccc2[nH]/c1=N\C(=O)c1cccc(C(=O)c2ccccc2F)c1[O-] (3D coordinates assigned)
Nc1nc2ccccc2[nH]/c1=N\C(=O)c1cccc(C(=O)c2ccccc2F)c1[O-] (optimized conformer: 71.62516997415908 kcal/mol)

>  <smiles>  (40) 
Nc1nc2ccccc2[nH]c1=NC(=O)c1cccc(C(=O)c2ccccc2F)c1O

>  <score_type>  (40) 
oracle

>  <origin>  (40) 
adgpu

>  <m_score__min__energy>  (40) 
-12.880000000000001

>  <m_primary>  (40) 
energy

$$$$
40:0
     RDKit          3D

 53 56  0  0  0  0  0  0  0  0999 V2000
   -9.1210   18.1790  -31.6090 C   0  0  0  0  0  0  0  0  0  0  0  0
   -9.0660   19.3920  -32.5330 C   0  0  0  0  0  0  0  0  0  0  0  0
   -7.8800   20.2350  -32.2320 N   0  0  0  0  0  0  0  0  0  0  0  0
   -8.0110   21.3440  -31.4160 C   0  0  0  0  0  0  0  0  0  0  0  0
   -9.4630   21.8520  -30.8320 S   0  0  0  0  0  0  0  0  0  0  0  0
   -6.9260   22.0760  -31.0720 N   0  0  0  0  0  0  0  0  0  0  0  0
   -5.6840   21.7820  -31.5140 C   0  0  0  0  0  0  0  0  0  0  0  0
   -4.5880   22.6020  -31.0920 N   0  0  0  0  0  0  0  0  0  0  0  0
   -3.2920   21.9690  -30.8120 C   0  0  0  0  0  0  0  0  0  0  0  0
   -2.2320   23.0130  -30.4510 C   0  0  0  0  0  0  0  0  0  0  0  0
   -2.7790   23.9640  -29.4780 N   0  0  0  0  0  0  0  0  0  0  0  0
   -2.0490   24.2530  -28.2770 C   0  0  0  0  0  0  0  0  0  0  0  0
   -1.6170   25.5670  -28.0530 C   0  0  0  0  0  0  0  0  0  0  0  0
   -0.8690   25.8800  -26.9220 C   0  0  0  0  0  0  0  0  0  0  0  0
   -0.5300   24.8830  -26.0080 C   0  0  0  0  0  0  0  0  0  0  0  0
   -0.9490   23.5570  -26.2070 C   0  0  0  0  0  0  0  0  0  0  0  0
   -0.5420   22.5070  -25.2050 C   0  0  0  0  0  0  0  0  0  0  0  0
   -1.7530   23.2390  -27.3340 C   0  0  0  0  0  0  0  0  0  0  0  0
   -2.2300   21.8220  -27.5610 C   0  0  0  0  0  0  0  0  0  0  0  0
   -4.1210   24.5350  -29.6530 C   0  0  0  0  0  0  0  0  0  0  0  0
   -4.7730   24.0490  -30.9500 C   0  0  0  0  0  0  0  0  0  0  0  0
   -5.5010   20.7060  -32.3910 C   0  0  0  0  0  0  0  0  0  0  0  0
   -4.2280   20.3950  -32.9040 C   0  0  0  0  0  0  0  0  0  0  0  0
   -4.0670   19.3400  -33.7980 C   0  0  0  0  0  0  0  0  0  0  0  0
   -5.1690   18.5920  -34.1990 C   0  0  0  0  0  0  0  0  0  0  0  0
   -6.4390   18.8820  -33.6980 C   0  0  0  0  0  0  0  0  0  0  0  0
   -6.6350   19.9370  -32.7660 C   0  0  0  0  0  0  0  0  0  0  0  0
   -9.1058   18.5149  -30.5617 H   0  0  0  0  0  0  0  0  0  0  0  0
  -10.0457   17.6145  -31.7996 H   0  0  0  0  0  0  0  0  0  0  0  0
   -8.2512   17.5331  -31.7996 H   0  0  0  0  0  0  0  0  0  0  0  0
   -9.0077   19.0477  -33.5761 H   0  0  0  0  0  0  0  0  0  0  0  0
   -9.9735   19.9938  -32.3770 H   0  0  0  0  0  0  0  0  0  0  0  0
   -3.4084   21.2702  -29.9705 H   0  0  0  0  0  0  0  0  0  0  0  0
   -2.9622   21.4362  -31.7161 H   0  0  0  0  0  0  0  0  0  0  0  0
   -1.3568   22.5086  -30.0156 H   0  0  0  0  0  0  0  0  0  0  0  0
   -1.9343   23.5560  -31.3601 H   0  0  0  0  0  0  0  0  0  0  0  0
   -1.8708   26.3563  -28.7759 H   0  0  0  0  0  0  0  0  0  0  0  0
   -0.5443   26.9166  -26.7486 H   0  0  0  0  0  0  0  0  0  0  0  0
    0.0713   25.1372  -25.1227 H   0  0  0  0  0  0  0  0  0  0  0  0
   -0.6922   22.8944  -24.1865 H   0  0  0  0  0  0  0  0  0  0  0  0
   -1.1559   21.6056  -25.3487 H   0  0  0  0  0  0  0  0  0  0  0  0
    0.5190   22.2548  -25.3487 H   0  0  0  0  0  0  0  0  0  0  0  0
   -2.3953   21.3309  -26.5907 H   0  0  0  0  0  0  0  0  0  0  0  0
   -3.1720   21.8387  -28.1287 H   0  0  0  0  0  0  0  0  0  0  0  0
   -1.4696   21.2657  -28.1287 H   0  0  0  0  0  0  0  0  0  0  0  0
   -4.7507   24.2352  -28.8023 H   0  0  0  0  0  0  0  0  0  0  0  0
   -4.0263   25.6297  -29.7036 H   0  0  0  0  0  0  0  0  0  0  0  0
   -5.8486   24.2781  -30.9252 H   0  0  0  0  0  0  0  0  0  0  0  0
   -4.3028   24.5588  -31.8038 H   0  0  0  0  0  0  0  0  0  0  0  0
   -3.3548   20.9892  -32.5967 H   0  0  0  0  0  0  0  0  0  0  0  0
   -3.0673   19.0977  -34.1876 H   0  0  0  0  0  0  0  0  0  0  0  0
   -5.0388   17.7672  -34.9151 H   0  0  0  0  0  0  0  0  0  0  0  0
   -7.3014   18.2850  -34.0295 H   0  0  0  0  0  0  0  0  0  0  0  0
  1  2  1  0
  2  3  1  0
  3  4  1  0
  4  5  2  0
  4  6  1  0
  6  7  2  0
  7  8  1  0
  8  9  1  0
  9 10  1  0
 10 11  1  0
 11 12  1  0
 12 13  2  0
 13 14  1  0
 14 15  2  0
 15 16  1  0
 16 17  1  0
 16 18  2  0
 18 19  1  0
 11 20  1  0
 20 21  1  0
  7 22  1  0
 22 23  2  0
 23 24  1  0
 24 25  2  0
 25 26  1  0
 26 27  2  0
 27  3  1  0
 21  8  1  0
 27 22  1  0
 18 12  1  0
  1 28  1  0
  1 29  1  0
  1 30  1  0
  2 31  1  0
  2 32  1  0
  9 33  1  0
  9 34  1  0
 10 35  1  0
 10 36  1  0
 13 37  1  0
 14 38  1  0
 15 39  1  0
 17 40  1  0
 17 41  1  0
 17 42  1  0
 19 43  1  0
 19 44  1  0
 19 45  1  0
 20 46  1  0
 20 47  1  0
 21 48  1  0
 21 49  1  0
 23 50  1  0
 24 51  1  0
 25 52  1  0
 26 53  1  0
M  END
>  <UniqueID>  (41) 
39

>  <SMILES>  (41) 
CCn1c(=S)nc(N2CCN(c3cccc(C)c3C)CC2)c2ccccc21

>  <Energy>  (41) 
80.23027480060058

>  <Genealogy>  (41) 
CCn1c(=S)nc(N2CCN(c3cccc(C)c3C)CC2)c2ccccc21 (3D coordinates assigned)
CCn1c(=S)nc(N2CCN(c3cccc(C)c3C)CC2)c2ccccc21 (nonaromatic ring conformer: 80.23027480060058 kcal/mol)

>  <smiles>  (41) 
CCn1c(=S)nc(N2CCN(c3cccc(C)c3C)CC2)c2ccccc21

>  <score_type>  (41) 
oracle

>  <origin>  (41) 
adgpu

>  <m_score__min__energy>  (41) 
-8.8300000000000001

>  <m_primary>  (41) 
energy

$$$$
41:0
     RDKit          3D

 32 33  0  0  0  0  0  0  0  0999 V2000
   -0.4727   26.5558  -28.9122 H   0  0  0  0  0  0  0  0  0  0  0  0
   -1.1820   25.9640  -28.3150 C   0  0  0  0  0  0  0  0  0  0  0  0
   -2.1940   25.2940  -28.9290 N   0  0  0  0  0  0  0  0  0  0  0  0
   -3.0990   24.5530  -28.2250 C   0  0  0  0  0  0  0  0  0  0  0  0
   -4.0610   23.9260  -28.8310 N   0  0  0  0  0  0  0  0  0  0  0  0
   -4.3040   23.9620  -30.5490 S   0  0  0  0  0  0  0  0  0  0  0  0
   -4.4610   25.3900  -30.9930 O   0  0  0  0  0  0  0  0  0  0  0  0
   -3.1050   23.3680  -31.2320 O   0  0  0  0  0  0  0  0  0  0  0  0
   -5.7290   23.0170  -30.9700 C   0  0  0  0  0  0  0  0  0  0  0  0
   -6.8460   23.0340  -30.1270 C   0  0  0  0  0  0  0  0  0  0  0  0
   -6.8235   23.6250  -29.1995 H   0  0  0  0  0  0  0  0  0  0  0  0
   -7.9900   22.3030  -30.4590 C   0  0  0  0  0  0  0  0  0  0  0  0
   -8.8617   22.3201  -29.7883 H   0  0  0  0  0  0  0  0  0  0  0  0
   -8.0360   21.5490  -31.6380 C   0  0  0  0  0  0  0  0  0  0  0  0
   -9.2130   20.8380  -31.9220 O   0  0  0  0  0  0  0  0  0  0  0  0
   -9.2750   19.5180  -32.4670 C   0  0  0  0  0  0  0  0  0  0  0  0
   -8.8217   19.5195  -33.4693 H   0  0  0  0  0  0  0  0  0  0  0  0
  -10.3290   19.2087  -32.5252 H   0  0  0  0  0  0  0  0  0  0  0  0
   -8.5230   18.5320  -31.5790 C   0  0  0  0  0  0  0  0  0  0  0  0
   -8.7084   18.7751  -30.5223 H   0  0  0  0  0  0  0  0  0  0  0  0
   -8.8733   17.5102  -31.7871 H   0  0  0  0  0  0  0  0  0  0  0  0
   -7.4450   18.5996  -31.7871 H   0  0  0  0  0  0  0  0  0  0  0  0
   -6.9060   21.5260  -32.4800 C   0  0  0  0  0  0  0  0  0  0  0  0
   -6.9240   20.9299  -33.4043 H   0  0  0  0  0  0  0  0  0  0  0  0
   -5.7630   22.2570  -32.1460 C   0  0  0  0  0  0  0  0  0  0  0  0
   -4.8860   22.2355  -32.8096 H   0  0  0  0  0  0  0  0  0  0  0  0
   -2.9890   24.4690  -26.8320 C   0  0  0  0  0  0  0  0  0  0  0  0
   -3.7114   23.8747  -26.2532 H   0  0  0  0  0  0  0  0  0  0  0  0
   -1.9530   25.1470  -26.1830 C   0  0  0  0  0  0  0  0  0  0  0  0
   -1.8548   25.0867  -25.0890 H   0  0  0  0  0  0  0  0  0  0  0  0
   -1.0430   25.9010  -26.9270 C   0  0  0  0  0  0  0  0  0  0  0  0
   -0.2256   26.4394  -26.4251 H   0  0  0  0  0  0  0  0  0  0  0  0
  1  2  1  0
  2  3  1  0
  3  4  1  0
  4  5  2  0
  5  6  1  0
  6  7  2  0
  6  8  2  0
  6  9  1  0
  9 10  2  0
 10 11  1  0
 10 12  1  0
 12 13  1  0
 12 14  2  0
 14 15  1  0
 15 16  1  0
 16 17  1  0
 16 18  1  0
 16 19  1  0
 19 20  1  0
 19 21  1  0
 19 22  1  0
 14 23  1  0
 23 24  1  0
 23 25  2  0
 25 26  1  0
  4 27  1  0
 27 28  1  0
 27 29  2  0
 29 30  1  0
 29 31  1  0
 31 32  1  0
 31  2  2  0
 25  9  1  0
M  CHG  1   3  -1
M  END
>  <UniqueID>  (42) 
40

>  <SMILES>  (42) 
CCOc1ccc(S(=O)(=O)/N=c2/cccc[n-]2)cc1

>  <Energy>  (42) 
34.00478035638294

>  <Genealogy>  (42) 
CCOc1ccc(S(=O)(=O)N=c2cccc[n-]2)cc1 (protonated)
CCOc1ccc(S(=O)(=O)/N=c2/cccc[n-]2)cc1 (cis-trans isomerization)
CCOc1ccc(S(=O)(=O)/N=c2/cccc[n-]2)cc1 (3D coordinates assigned)
CCOc1ccc(S(=O)(=O)/N=c2/cccc[n-]2)cc1 (optimized conformer: 34.00478035638294 kcal/mol)

>  <smiles>  (42) 
CCOc1ccc(S(=O)(=O)N=c2cccc[nH]2)cc1

>  <score_type>  (42) 
oracle

>  <origin>  (42) 
adgpu

>  <m_score__min__energy>  (42) 
-8.7699999999999996

>  <m_primary>  (42) 
energy

$$$$
42:0
     RDKit          3D

 40 42  0  0  0  0  0  0  0  0999 V2000
   -0.7800   28.4700  -24.7830 C   0  0  0  0  0  0  0  0  0  0  0  0
   -1.1940   27.2490  -24.1770 O   0  0  0  0  0  0  0  0  0  0  0  0
   -1.0220   25.9800  -24.7510 C   0  0  0  0  0  0  0  0  0  0  0  0
   -0.0490   25.1360  -24.2110 C   0  0  0  0  0  0  0  0  0  0  0  0
    0.1550   23.8590  -24.7360 C   0  0  0  0  0  0  0  0  0  0  0  0
   -0.6110   23.4060  -25.8270 C   0  0  0  0  0  0  0  0  0  0  0  0
   -0.4280   22.1270  -26.3800 O   0  0  0  0  0  0  0  0  0  0  0  0
   -1.2960   21.0200  -26.1600 C   0  0  0  0  0  0  0  0  0  0  0  0
   -1.5820   24.2550  -26.3910 C   0  0  0  0  0  0  0  0  0  0  0  0
   -2.3880   23.7890  -27.4890 N   0  0  0  0  0  0  0  0  0  0  0  0
   -2.5870   24.5390  -28.7000 C   0  0  0  0  0  0  0  0  0  0  0  0
   -1.8280   25.5070  -28.9770 O   0  0  0  0  0  0  0  0  0  0  0  0
   -3.6470   24.1700  -29.6520 C   0  0  0  0  0  0  0  0  0  0  0  0
   -4.4120   23.0200  -29.6370 C   0  0  0  0  0  0  0  0  0  0  0  0
   -5.2560   23.1740  -30.7230 C   0  0  0  0  0  0  0  0  0  0  0  0
   -6.3010   22.2370  -31.1940 C   0  0  0  0  0  0  0  0  0  0  0  0
   -5.9840   21.2760  -32.1710 C   0  0  0  0  0  0  0  0  0  0  0  0
   -6.9560   20.3820  -32.6280 C   0  0  0  0  0  0  0  0  0  0  0  0
   -8.2550   20.4360  -32.1170 C   0  0  0  0  0  0  0  0  0  0  0  0
   -9.4740   19.3130  -32.6930 Cl  0  0  0  0  0  0  0  0  0  0  0  0
   -8.5820   21.3870  -31.1460 C   0  0  0  0  0  0  0  0  0  0  0  0
   -7.6130   22.2830  -30.6850 C   0  0  0  0  0  0  0  0  0  0  0  0
   -4.9850   24.3230  -31.3000 O   0  0  0  0  0  0  0  0  0  0  0  0
   -4.0260   24.9490  -30.6830 N   0  0  0  0  0  0  0  0  0  0  0  0
   -1.7930   25.5320  -25.8390 C   0  0  0  0  0  0  0  0  0  0  0  0
   -0.5318   29.2021  -24.0004 H   0  0  0  0  0  0  0  0  0  0  0  0
    0.1063   28.2870  -25.4083 H   0  0  0  0  0  0  0  0  0  0  0  0
   -1.5949   28.8638  -25.4083 H   0  0  0  0  0  0  0  0  0  0  0  0
    0.5623   25.4809  -23.3640 H   0  0  0  0  0  0  0  0  0  0  0  0
    0.9191   23.2023  -24.2946 H   0  0  0  0  0  0  0  0  0  0  0  0
   -1.4207   20.8610  -25.0787 H   0  0  0  0  0  0  0  0  0  0  0  0
   -2.2758   21.2261  -26.6157 H   0  0  0  0  0  0  0  0  0  0  0  0
   -0.8622   20.1177  -26.6157 H   0  0  0  0  0  0  0  0  0  0  0  0
   -2.7720   22.8210  -27.4390 H   0  0  0  0  0  0  0  0  0  0  0  0
   -4.3622   22.1798  -28.9288 H   0  0  0  0  0  0  0  0  0  0  0  0
   -4.9633   21.2278  -32.5784 H   0  0  0  0  0  0  0  0  0  0  0  0
   -6.6976   19.6339  -33.3920 H   0  0  0  0  0  0  0  0  0  0  0  0
   -9.6048   21.4304  -30.7435 H   0  0  0  0  0  0  0  0  0  0  0  0
   -7.8770   23.0282  -29.9202 H   0  0  0  0  0  0  0  0  0  0  0  0
   -2.5688   26.1867  -26.2626 H   0  0  0  0  0  0  0  0  0  0  0  0
  1  2  1  0
  2  3  1  0
  3  4  2  0
  4  5  1  0
  5  6  2  0
  6  7  1  0
  7  8  1  0
  6  9  1  0
  9 10  1  0
 10 11  1  0
 11 12  2  0
 11 13  1  0
 13 14  1  0
 14 15  2  0
 15 16  1  0
 16 17  2  0
 17 18  1  0
 18 19  2  0
 19 20  1  0
 19 21  1  0
 21 22  2  0
 15 23  1  0
 23 24  1  0
  9 25  2  0
 25  3  1  0
 24 13  2  0
 22 16  1  0
  1 26  1  0
  1 27  1  0
  1 28  1  0
  4 29  1  0
  5 30  1  0
  8 31  1  0
  8 32  1  0
  8 33  1  0
 10 34  1  0
 14 35  1  0
 17 36  1  0
 18 37  1  0
 21 38  1  0
 22 39  1  0
 25 40  1  0
M  END
>  <UniqueID>  (43) 
41

>  <SMILES>  (43) 
COc1ccc(OC)c(NC(=O)c2cc(-c3ccc(Cl)cc3)on2)c1

>  <Energy>  (43) 
76.04133780693606

>  <Genealogy>  (43) 
COc1ccc(OC)c(NC(=O)c2cc(-c3ccc(Cl)cc3)on2)c1 (3D coordinates assigned)
COc1ccc(OC)c(NC(=O)c2cc(-c3ccc(Cl)cc3)on2)c1 (optimized conformer: 76.04133780693606 kcal/mol)

>  <smiles>  (43) 
COc1ccc(OC)c(NC(=O)c2cc(-c3ccc(Cl)cc3)on2)c1

>  <score_type>  (43) 
oracle

>  <origin>  (43) 
adgpu

>  <m_score__min__energy>  (43) 
-8.5999999999999996

>  <m_primary>  (43) 
energy

$$$$
43:0
     RDKit          3D

 34 35  0  0  0  0  0  0  0  0999 V2000
   -8.7220   20.4540  -32.3590 C   0  0  0  0  0  0  0  0  0  0  0  0
   -7.8350   21.5200  -31.7890 C   0  0  0  0  0  0  0  0  0  0  0  0
   -7.9900   21.9330  -30.4570 C   0  0  0  0  0  0  0  0  0  0  0  0
   -7.1880   22.9540  -29.9370 C   0  0  0  0  0  0  0  0  0  0  0  0
   -6.2330   23.5820  -30.7470 C   0  0  0  0  0  0  0  0  0  0  0  0
   -5.2200   24.8680  -30.0980 S   0  0  0  0  0  0  0  0  0  0  0  0
   -6.0890   25.8680  -29.3910 O   0  0  0  0  0  0  0  0  0  0  0  0
   -4.4720   25.5590  -31.2040 O   0  0  0  0  0  0  0  0  0  0  0  0
   -4.0780   24.2100  -28.9750 N   0  0  0  0  0  0  0  0  0  0  0  0
   -2.6740   24.1740  -29.2430 C   0  0  0  0  0  0  0  0  0  0  0  0
   -2.0160   25.2440  -29.3430 O   0  0  0  0  0  0  0  0  0  0  0  0
   -1.9770   22.8580  -29.3550 C   0  0  0  0  0  0  0  0  0  0  0  0
   -2.5950   22.0390  -30.4540 C   0  0  0  0  0  0  0  0  0  0  0  0
   -1.9730   21.9540  -31.7110 C   0  0  0  0  0  0  0  0  0  0  0  0
   -2.5320   21.1640  -32.7210 C   0  0  0  0  0  0  0  0  0  0  0  0
   -3.7090   20.4500  -32.4810 C   0  0  0  0  0  0  0  0  0  0  0  0
   -4.3260   20.5190  -31.2300 C   0  0  0  0  0  0  0  0  0  0  0  0
   -3.7710   21.3070  -30.2170 C   0  0  0  0  0  0  0  0  0  0  0  0
   -6.0850   23.1800  -32.0810 C   0  0  0  0  0  0  0  0  0  0  0  0
   -6.8870   22.1600  -32.6020 C   0  0  0  0  0  0  0  0  0  0  0  0
   -9.1911   19.8902  -31.5392 H   0  0  0  0  0  0  0  0  0  0  0  0
   -9.5032   20.9193  -32.9780 H   0  0  0  0  0  0  0  0  0  0  0  0
   -8.1224   19.7704  -32.9780 H   0  0  0  0  0  0  0  0  0  0  0  0
   -8.7457   21.4516  -29.8189 H   0  0  0  0  0  0  0  0  0  0  0  0
   -7.3075   23.2649  -28.8886 H   0  0  0  0  0  0  0  0  0  0  0  0
   -0.9139   23.0272  -29.5810 H   0  0  0  0  0  0  0  0  0  0  0  0
   -2.0751   22.3160  -28.4028 H   0  0  0  0  0  0  0  0  0  0  0  0
   -1.0435   22.5105  -31.9015 H   0  0  0  0  0  0  0  0  0  0  0  0
   -2.0445   21.1047  -33.7053 H   0  0  0  0  0  0  0  0  0  0  0  0
   -4.1499   19.8332  -33.2780 H   0  0  0  0  0  0  0  0  0  0  0  0
   -5.2499   19.9526  -31.0413 H   0  0  0  0  0  0  0  0  0  0  0  0
   -4.2566   21.3541  -29.2311 H   0  0  0  0  0  0  0  0  0  0  0  0
   -5.3352   23.6685  -32.7207 H   0  0  0  0  0  0  0  0  0  0  0  0
   -6.7744   21.8579  -33.6537 H   0  0  0  0  0  0  0  0  0  0  0  0
  1  2  1  0
  2  3  2  0
  3  4  1  0
  4  5  2  0
  5  6  1  0
  6  7  2  0
  6  8  2  0
  6  9  1  0
  9 10  1  0
 10 11  2  0
 10 12  1  0
 12 13  1  0
 13 14  2  0
 14 15  1  0
 15 16  2  0
 16 17  1  0
 17 18  2  0
  5 19  1  0
 19 20  2  0
 20  2  1  0
 18 13  1  0
  1 21  1  0
  1 22  1  0
  1 23  1  0
  3 24  1  0
  4 25  1  0
 12 26  1  0
 12 27  1  0
 14 28  1  0
 15 29  1  0
 16 30  1  0
 17 31  1  0
 18 32  1  0
 19 33  1  0
 20 34  1  0
M  CHG  1   9  -1
M  END
>  <UniqueID>  (44) 
42

>  <SMILES>  (44) 
Cc1ccc(S(=O)(=O)[N-]C(=O)Cc2ccccc2)cc1

>  <Energy>  (44) 
33.42025087665907

>  <Genealogy>  (44) 
Cc1ccc(S(=O)(=O)[N-]C(=O)Cc2ccccc2)cc1 (protonated)
Cc1ccc(S(=O)(=O)[N-]C(=O)Cc2ccccc2)cc1 (3D coordinates assigned)
Cc1ccc(S(=O)(=O)[N-]C(=O)Cc2ccccc2)cc1 (optimized conformer: 33.42025087665907 kcal/mol)

>  <smiles>  (44) 
Cc1ccc(S(=O)(=O)NC(=O)Cc2ccccc2)cc1

>  <score_type>  (44) 
oracle

>  <origin>  (44) 
adgpu

>  <m_score__min__energy>  (44) 
-9.3200000000000003

>  <m_primary>  (44) 
energy

$$$$
44:0
     RDKit          3D

 29 30  0  0  0  0  0  0  0  0999 V2000
   -6.0430   19.1280  -34.5370 N   0  0  0  0  0  0  0  0  0  0  0  0
   -6.4990   18.9410  -32.8820 S   0  0  0  0  0  0  0  0  0  0  0  0
   -5.2970   18.5440  -32.0700 O   0  0  0  0  0  0  0  0  0  0  0  0
   -7.5360   17.8600  -32.7680 O   0  0  0  0  0  0  0  0  0  0  0  0
   -7.1530   20.4600  -32.2780 C   0  0  0  0  0  0  0  0  0  0  0  0
   -8.5240   20.7260  -32.3750 C   0  0  0  0  0  0  0  0  0  0  0  0
   -9.0430   21.9270  -31.8840 C   0  0  0  0  0  0  0  0  0  0  0  0
   -8.1980   22.8660  -31.2870 C   0  0  0  0  0  0  0  0  0  0  0  0
   -6.8230   22.6040  -31.1690 C   0  0  0  0  0  0  0  0  0  0  0  0
   -5.9050   23.6060  -30.5190 C   0  0  0  0  0  0  0  0  0  0  0  0
   -4.7370   22.9360  -29.9510 N   0  0  0  0  0  0  0  0  0  0  0  0
   -3.5700   23.6450  -29.5090 C   0  0  0  0  0  0  0  0  0  0  0  0
   -2.6280   23.2140  -28.6000 C   0  0  0  0  0  0  0  0  0  0  0  0
   -1.7170   24.2500  -28.5170 C   0  0  0  0  0  0  0  0  0  0  0  0
   -0.5880   24.2380  -27.7050 O   0  0  0  0  0  0  0  0  0  0  0  0
   -2.0440   25.2880  -29.3170 N   0  0  0  0  0  0  0  0  0  0  0  0
   -3.1850   24.9030  -29.9190 C   0  0  0  0  0  0  0  0  0  0  0  0
   -3.8700   25.6890  -30.8370 O   0  0  0  0  0  0  0  0  0  0  0  0
   -6.3050   21.3990  -31.6730 C   0  0  0  0  0  0  0  0  0  0  0  0
   -6.8490   19.5770  -35.0270 H   0  0  0  0  0  0  0  0  0  0  0  0
   -9.1945   19.9877  -32.8390 H   0  0  0  0  0  0  0  0  0  0  0  0
  -10.1201   22.1337  -31.9678 H   0  0  0  0  0  0  0  0  0  0  0  0
   -8.6105   23.8128  -30.9084 H   0  0  0  0  0  0  0  0  0  0  0  0
   -5.5732   24.3353  -31.2727 H   0  0  0  0  0  0  0  0  0  0  0  0
   -6.4501   24.1169  -29.7116 H   0  0  0  0  0  0  0  0  0  0  0  0
   -4.7600   21.8960  -29.8520 H   0  0  0  0  0  0  0  0  0  0  0  0
   -2.6060   22.2562  -28.0595 H   0  0  0  0  0  0  0  0  0  0  0  0
    0.1240   23.5280  -27.8210 H   0  0  0  0  0  0  0  0  0  0  0  0
   -5.2279   21.1909  -31.5925 H   0  0  0  0  0  0  0  0  0  0  0  0
  1  2  1  0
  2  3  2  0
  2  4  2  0
  2  5  1  0
  5  6  2  0
  6  7  1  0
  7  8  2  0
  8  9  1  0
  9 10  1  0
 10 11  1  0
 11 12  1  0
 12 13  1  0
 13 14  2  0
 14 15  1  0
 14 16  1  0
 16 17  1  0
 17 18  1  0
  9 19  2  0
 19  5  1  0
 17 12  2  0
  1 20  1  0
  6 21  1  0
  7 22  1  0
  8 23  1  0
 10 24  1  0
 10 25  1  0
 11 26  1  0
 13 27  1  0
 15 28  1  0
 19 29  1  0
M  CHG  3   1  -1  16  -1  18  -1
M  END
>  <UniqueID>  (45) 
43

>  <SMILES>  (45) 
[NH-]S(=O)(=O)c1cccc(CNc2cc(O)[n-]c2[O-])c1

>  <Energy>  (45) 
53.01577425641712

>  <Genealogy>  (45) 
[NH-]S(=O)(=O)c1cccc(CNc2cc(O)[n-]c2[O-])c1 (protonated)
[NH-]S(=O)(=O)c1cccc(CNc2cc(O)[n-]c2[O-])c1 (3D coordinates assigned)
[NH-]S(=O)(=O)c1cccc(CNc2cc(O)[n-]c2[O-])c1 (optimized conformer: 53.01577425641712 kcal/mol)

>  <smiles>  (45) 
NS(=O)(=O)c1cccc(CNc2cc(O)[nH]c2O)c1

>  <score_type>  (45) 
oracle

>  <origin>  (45) 
adgpu

>  <m_score__min__energy>  (45) 
-11.06

>  <m_primary>  (45) 
energy

$$$$
45:0
     RDKit          3D

 37 39  0  0  0  0  0  0  0  0999 V2000
   -4.5210   13.4320  -30.6210 N   0  0  0  0  0  0  0  0  0  0  0  0
   -4.8470   14.1620  -31.8070 C   0  0  0  0  0  0  0  0  0  0  0  0
   -4.9990   13.4920  -33.0220 C   0  0  0  0  0  0  0  0  0  0  0  0
   -5.3210   14.2330  -34.1560 C   0  0  0  0  0  0  0  0  0  0  0  0
   -5.4680   13.6610  -35.2670 O   0  0  0  0  0  0  0  0  0  0  0  0
   -5.4790   15.5770  -34.0620 N   0  0  0  0  0  0  0  0  0  0  0  0
   -5.3280   16.2300  -32.8760 C   0  0  0  0  0  0  0  0  0  0  0  0
   -5.4970   17.6650  -32.8220 N   0  0  0  0  0  0  0  0  0  0  0  0
   -4.6150   18.5410  -33.6140 C   0  0  0  0  0  0  0  0  0  0  0  0
   -5.1590   19.9680  -33.6910 C   0  0  0  0  0  0  0  0  0  0  0  0
   -5.5090   20.4310  -32.3440 N   0  0  0  0  0  0  0  0  0  0  0  0
   -4.9930   21.6760  -31.8400 C   0  0  0  0  0  0  0  0  0  0  0  0
   -3.6490   21.7780  -31.4400 C   0  0  0  0  0  0  0  0  0  0  0  0
   -3.1510   22.9850  -30.9390 C   0  0  0  0  0  0  0  0  0  0  0  0
   -3.9900   24.0990  -30.8290 C   0  0  0  0  0  0  0  0  0  0  0  0
   -3.4940   25.2970  -30.3310 O   0  0  0  0  0  0  0  0  0  0  0  0
   -5.3290   24.0040  -31.2200 C   0  0  0  0  0  0  0  0  0  0  0  0
   -5.8300   22.7980  -31.7210 C   0  0  0  0  0  0  0  0  0  0  0  0
   -6.3220   19.5730  -31.4690 C   0  0  0  0  0  0  0  0  0  0  0  0
   -6.6720   18.2370  -32.1400 C   0  0  0  0  0  0  0  0  0  0  0  0
   -5.0140   15.5140  -31.7540 N   0  0  0  0  0  0  0  0  0  0  0  0
   -5.2100   13.3420  -29.8410 H   0  0  0  0  0  0  0  0  0  0  0  0
   -3.5870   12.9760  -30.5160 H   0  0  0  0  0  0  0  0  0  0  0  0
   -4.8672   12.4016  -33.0824 H   0  0  0  0  0  0  0  0  0  0  0  0
   -3.6201   18.5633  -33.1454 H   0  0  0  0  0  0  0  0  0  0  0  0
   -4.5594   18.1388  -34.6363 H   0  0  0  0  0  0  0  0  0  0  0  0
   -4.3919   20.6303  -34.1186 H   0  0  0  0  0  0  0  0  0  0  0  0
   -6.0549   19.9850  -34.3290 H   0  0  0  0  0  0  0  0  0  0  0  0
   -2.9859   20.9041  -31.5215 H   0  0  0  0  0  0  0  0  0  0  0  0
   -2.0976   23.0585  -30.6309 H   0  0  0  0  0  0  0  0  0  0  0  0
   -5.9896   24.8793  -31.1335 H   0  0  0  0  0  0  0  0  0  0  0  0
   -6.8852   22.7277  -32.0235 H   0  0  0  0  0  0  0  0  0  0  0  0
   -5.7582   19.3704  -30.5464 H   0  0  0  0  0  0  0  0  0  0  0  0
   -7.2620   20.1015  -31.2520 H   0  0  0  0  0  0  0  0  0  0  0  0
   -7.0224   17.5303  -31.3734 H   0  0  0  0  0  0  0  0  0  0  0  0
   -7.4588   18.4157  -32.8876 H   0  0  0  0  0  0  0  0  0  0  0  0
   -4.9100   15.9920  -30.8320 H   0  0  0  0  0  0  0  0  0  0  0  0
  1  2  1  0
  2  3  2  0
  3  4  1  0
  4  5  2  0
  4  6  1  0
  6  7  2  0
  7  8  1  0
  8  9  1  0
  9 10  1  0
 10 11  1  0
 11 12  1  0
 12 13  2  0
 13 14  1  0
 14 15  2  0
 15 16  1  0
 15 17  1  0
 17 18  2  0
 11 19  1  0
 19 20  1  0
  7 21  1  0
 21  2  1  0
 20  8  1  0
 18 12  1  0
  1 22  1  0
  1 23  1  0
  3 24  1  0
  9 25  1  0
  9 26  1  0
 10 27  1  0
 10 28  1  0
 13 29  1  0
 14 30  1  0
 17 31  1  0
 18 32  1  0
 19 33  1  0
 19 34  1  0
 20 35  1  0
 20 36  1  0
 21 37  1  0
M  CHG  1  16  -1
M  END
>  <UniqueID>  (46) 
44

>  <SMILES>  (46) 
Nc1cc(=O)nc(N2CCN(c3ccc([O-])cc3)CC2)[nH]1

>  <Energy>  (46) 
44.494297491708885

>  <Genealogy>  (46) 
Nc1cc(=O)nc(N2CCN(c3ccc([O-])cc3)CC2)[nH]1 (protonated)
Nc1cc(=O)nc(N2CCN(c3ccc([O-])cc3)CC2)[nH]1 (3D coordinates assigned)
Nc1cc(=O)nc(N2CCN(c3ccc([O-])cc3)CC2)[nH]1 (nonaromatic ring conformer: 44.494297491708885 kcal/mol)

>  <smiles>  (46) 
Nc1cc(=O)nc(N2CCN(c3ccc(O)cc3)CC2)[nH]1

>  <score_type>  (46) 
oracle

>  <origin>  (46) 
adgpu

>  <m_score__min__energy>  (46) 
-8.6799999999999997

>  <m_primary>  (46) 
energy

$$$$
46:0
     RDKit          3D

 60 64  0  0  0  0  0  0  0  0999 V2000
   -1.8410   18.3020  -33.2130 O   0  0  0  0  0  0  0  0  0  0  0  0
   -1.0880   19.2660  -32.9130 C   0  0  0  0  0  0  0  0  0  0  0  0
    0.2100   19.3350  -33.5190 N   0  0  0  0  0  0  0  0  0  0  0  0
    0.7420   20.4440  -34.2610 C   0  0  0  0  0  0  0  0  0  0  0  0
    2.1240   20.6810  -34.3470 C   0  0  0  0  0  0  0  0  0  0  0  0
    2.6070   21.7790  -35.0650 C   0  0  0  0  0  0  0  0  0  0  0  0
    1.7180   22.6730  -35.6860 C   0  0  0  0  0  0  0  0  0  0  0  0
    2.2360   23.8290  -36.4560 C   0  0  0  0  0  0  0  0  0  0  0  0
    3.3740   23.7580  -36.9960 O   0  0  0  0  0  0  0  0  0  0  0  0
    1.4560   25.0280  -36.6110 N   0  0  0  0  0  0  0  0  0  0  0  0
    1.4260   25.6980  -37.9130 C   0  0  0  0  0  0  0  0  0  0  0  0
    0.0260   26.2450  -38.1720 C   0  0  0  0  0  0  0  0  0  0  0  0
   -0.4930   27.0340  -36.9970 C   0  0  0  0  0  0  0  0  0  0  0  0
   -1.5250   27.9750  -37.1990 C   0  0  0  0  0  0  0  0  0  0  0  0
   -2.0660   28.6800  -36.1210 C   0  0  0  0  0  0  0  0  0  0  0  0
   -1.5950   28.4370  -34.8290 C   0  0  0  0  0  0  0  0  0  0  0  0
   -0.5800   27.4930  -34.6110 C   0  0  0  0  0  0  0  0  0  0  0  0
   -0.0270   26.7760  -35.6860 C   0  0  0  0  0  0  0  0  0  0  0  0
    1.1080   25.8140  -35.4190 C   0  0  0  0  0  0  0  0  0  0  0  0
    0.3370   22.4390  -35.5860 C   0  0  0  0  0  0  0  0  0  0  0  0
   -0.1450   21.3370  -34.8710 C   0  0  0  0  0  0  0  0  0  0  0  0
   -1.5400   20.2520  -31.9040 C   0  0  0  0  0  0  0  0  0  0  0  0
   -0.8070   20.4400  -30.7200 C   0  0  0  0  0  0  0  0  0  0  0  0
   -1.2400   21.3580  -29.7600 C   0  0  0  0  0  0  0  0  0  0  0  0
   -2.3990   22.1060  -29.9780 C   0  0  0  0  0  0  0  0  0  0  0  0
   -3.1250   21.9490  -31.1640 C   0  0  0  0  0  0  0  0  0  0  0  0
   -4.5970   22.8750  -31.4250 S   0  0  0  0  0  0  0  0  0  0  0  0
   -4.9560   22.8630  -32.8860 O   0  0  0  0  0  0  0  0  0  0  0  0
   -4.3830   24.3030  -31.0100 O   0  0  0  0  0  0  0  0  0  0  0  0
   -5.8880   22.1350  -30.5300 N   0  0  0  0  0  0  0  0  0  0  0  0
   -7.1060   21.6300  -31.0940 C   0  0  0  0  0  0  0  0  0  0  0  0
   -8.3100   22.3620  -31.0270 C   0  0  0  0  0  0  0  0  0  0  0  0
   -9.4700   21.8710  -31.6320 C   0  0  0  0  0  0  0  0  0  0  0  0
   -9.4410   20.6510  -32.3110 C   0  0  0  0  0  0  0  0  0  0  0  0
   -8.2480   19.9190  -32.3900 C   0  0  0  0  0  0  0  0  0  0  0  0
   -7.0790   20.4090  -31.7950 C   0  0  0  0  0  0  0  0  0  0  0  0
   -5.5940   19.4650  -31.9110 Cl  0  0  0  0  0  0  0  0  0  0  0  0
   -2.6950   21.0220  -32.1240 C   0  0  0  0  0  0  0  0  0  0  0  0
    2.8288   20.0000  -33.8475 H   0  0  0  0  0  0  0  0  0  0  0  0
    3.6916   21.9446  -35.1445 H   0  0  0  0  0  0  0  0  0  0  0  0
    2.1495   26.5266  -37.9156 H   0  0  0  0  0  0  0  0  0  0  0  0
    1.6897   24.9780  -38.7017 H   0  0  0  0  0  0  0  0  0  0  0  0
    0.0575   26.9003  -39.0549 H   0  0  0  0  0  0  0  0  0  0  0  0
   -0.6492   25.3923  -38.3364 H   0  0  0  0  0  0  0  0  0  0  0  0
   -1.9070   28.1551  -38.2147 H   0  0  0  0  0  0  0  0  0  0  0  0
   -2.8594   29.4231  -36.2892 H   0  0  0  0  0  0  0  0  0  0  0  0
   -2.0217   28.9883  -33.9781 H   0  0  0  0  0  0  0  0  0  0  0  0
   -0.2138   27.3125  -33.5896 H   0  0  0  0  0  0  0  0  0  0  0  0
    1.9916   26.3868  -35.1010 H   0  0  0  0  0  0  0  0  0  0  0  0
    0.7832   25.1150  -34.6342 H   0  0  0  0  0  0  0  0  0  0  0  0
   -0.3704   23.1264  -36.0729 H   0  0  0  0  0  0  0  0  0  0  0  0
   -1.2294   21.1718  -34.7881 H   0  0  0  0  0  0  0  0  0  0  0  0
    0.1126   19.8613  -30.5481 H   0  0  0  0  0  0  0  0  0  0  0  0
   -0.6669   21.4919  -28.8307 H   0  0  0  0  0  0  0  0  0  0  0  0
   -2.7422   22.8206  -29.2153 H   0  0  0  0  0  0  0  0  0  0  0  0
   -8.3359   23.3247  -30.4955 H   0  0  0  0  0  0  0  0  0  0  0  0
  -10.4062   22.4456  -31.5734 H   0  0  0  0  0  0  0  0  0  0  0  0
  -10.3554   20.2639  -32.7844 H   0  0  0  0  0  0  0  0  0  0  0  0
   -8.2302   18.9560  -32.9214 H   0  0  0  0  0  0  0  0  0  0  0  0
   -3.2657   20.8965  -33.0560 H   0  0  0  0  0  0  0  0  0  0  0  0
  1  2  2  0
  2  3  1  0
  3  4  1  0
  4  5  2  0
  5  6  1  0
  6  7  2  0
  7  8  1  0
  8  9  2  0
  8 10  1  0
 10 11  1  0
 11 12  1  0
 12 13  1  0
 13 14  2  0
 14 15  1  0
 15 16  2  0
 16 17  1  0
 17 18  2  0
 18 19  1  0
  7 20  1  0
 20 21  2  0
  2 22  1  0
 22 23  2  0
 23 24  1  0
 24 25  2  0
 25 26  1  0
 26 27  1  0
 27 28  2  0
 27 29  2  0
 27 30  1  0
 30 31  1  0
 31 32  2  0
 32 33  1  0
 33 34  2  0
 34 35  1  0
 35 36  2  0
 36 37  1  0
 26 38  2  0
 21  4  1  0
 38 22  1  0
 19 10  1  0
 36 31  1  0
 18 13  1  0
  5 39  1  0
  6 40  1  0
 11 41  1  0
 11 42  1  0
 12 43  1  0
 12 44  1  0
 14 45  1  0
 15 46  1  0
 16 47  1  0
 17 48  1  0
 19 49  1  0
 19 50  1  0
 20 51  1  0
 21 52  1  0
 23 53  1  0
 24 54  1  0
 25 55  1  0
 32 56  1  0
 33 57  1  0
 34 58  1  0
 35 59  1  0
 38 60  1  0
M  CHG  2   3  -1  30  -1
M  END
>  <UniqueID>  (47) 
45

>  <SMILES>  (47) 
O=C([N-]c1ccc(C(=O)N2CCc3ccccc3C2)cc1)c1cccc(S(=O)(=O)[N-]c2ccccc2Cl)c1

>  <Energy>  (47) 
85.99386226962471

>  <Genealogy>  (47) 
O=C([N-]c1ccc(C(=O)N2CCc3ccccc3C2)cc1)c1cccc(S(=O)(=O)[N-]c2ccccc2Cl)c1 (protonated)
O=C([N-]c1ccc(C(=O)N2CCc3ccccc3C2)cc1)c1cccc(S(=O)(=O)[N-]c2ccccc2Cl)c1 (3D coordinates assigned)
O=C([N-]c1ccc(C(=O)N2CCc3ccccc3C2)cc1)c1cccc(S(=O)(=O)[N-]c2ccccc2Cl)c1 (nonaromatic ring conformer: 85.99386226962471 kcal/mol)

>  <smiles>  (47) 
O=C(Nc1ccc(C(=O)N2CCc3ccccc3C2)cc1)c1cccc(S(=O)(=O)Nc2ccccc2Cl)c1

>  <score_type>  (47) 
oracle

>  <origin>  (47) 
adgpu

>  <m_score__min__energy>  (47) 
-13.220000000000001

>  <m_primary>  (47) 
energy

$$$$
47:0
     RDKit          3D

 47 50  0  0  0  0  0  0  0  0999 V2000
   -0.9684   19.3023  -30.3027 H   0  0  0  0  0  0  0  0  0  0  0  0
   -1.2380   20.3000  -29.9260 C   0  0  0  0  0  0  0  0  0  0  0  0
   -2.3010   20.4450  -29.0290 C   0  0  0  0  0  0  0  0  0  0  0  0
   -2.8653   19.5608  -28.6976 H   0  0  0  0  0  0  0  0  0  0  0  0
   -2.6470   21.7140  -28.5530 C   0  0  0  0  0  0  0  0  0  0  0  0
   -3.4795   21.8264  -27.8429 H   0  0  0  0  0  0  0  0  0  0  0  0
   -1.9340   22.8420  -28.9800 C   0  0  0  0  0  0  0  0  0  0  0  0
   -2.3670   24.4690  -28.3540 S   0  0  0  0  0  0  0  0  0  0  0  0
   -4.1660   24.3070  -28.6480 C   0  0  0  0  0  0  0  0  0  0  0  0
   -4.6890   25.1232  -28.1281 H   0  0  0  0  0  0  0  0  0  0  0  0
   -4.4937   23.3291  -28.2656 H   0  0  0  0  0  0  0  0  0  0  0  0
   -4.4880   24.3750  -30.1150 C   0  0  0  0  0  0  0  0  0  0  0  0
   -3.9800   25.2950  -30.8070 O   0  0  0  0  0  0  0  0  0  0  0  0
   -5.2190   23.3370  -30.7860 N   0  0  0  0  0  0  0  0  0  0  0  0
   -4.7670   22.4690  -31.6460 C   0  0  0  0  0  0  0  0  0  0  0  0
   -3.4420   22.2480  -31.9910 C   0  0  0  0  0  0  0  0  0  0  0  0
   -2.5558   22.8092  -31.6598 H   0  0  0  0  0  0  0  0  0  0  0  0
   -3.4880   21.1580  -32.8490 C   0  0  0  0  0  0  0  0  0  0  0  0
   -2.3240   20.5060  -33.5000 C   0  0  0  0  0  0  0  0  0  0  0  0
   -1.1700   21.2470  -33.8160 C   0  0  0  0  0  0  0  0  0  0  0  0
   -1.1277   22.3201  -33.5779 H   0  0  0  0  0  0  0  0  0  0  0  0
   -0.0760   20.6280  -34.4310 C   0  0  0  0  0  0  0  0  0  0  0  0
    0.8215   21.2156  -34.6746 H   0  0  0  0  0  0  0  0  0  0  0  0
   -0.1210   19.2670  -34.7360 C   0  0  0  0  0  0  0  0  0  0  0  0
    0.7405   18.7827  -35.2189 H   0  0  0  0  0  0  0  0  0  0  0  0
   -1.2600   18.5200  -34.4280 C   0  0  0  0  0  0  0  0  0  0  0  0
   -1.2947   17.4472  -34.6685 H   0  0  0  0  0  0  0  0  0  0  0  0
   -2.3570   19.1340  -33.8140 C   0  0  0  0  0  0  0  0  0  0  0  0
   -3.2517   18.5405  -33.5749 H   0  0  0  0  0  0  0  0  0  0  0  0
   -4.7720   20.7650  -32.9910 N   0  0  0  0  0  0  0  0  0  0  0  0
   -5.1220   19.9900  -33.5970 H   0  0  0  0  0  0  0  0  0  0  0  0
   -5.5470   21.5560  -32.2640 N   0  0  0  0  0  0  0  0  0  0  0  0
   -6.9780   21.4160  -32.1740 C   0  0  0  0  0  0  0  0  0  0  0  0
   -7.5720   20.1480  -32.3050 C   0  0  0  0  0  0  0  0  0  0  0  0
   -6.9403   19.2627  -32.4698 H   0  0  0  0  0  0  0  0  0  0  0  0
   -8.9610   20.0060  -32.2270 C   0  0  0  0  0  0  0  0  0  0  0  0
   -9.4175   19.0101  -32.3256 H   0  0  0  0  0  0  0  0  0  0  0  0
   -9.7700   21.1270  -32.0240 C   0  0  0  0  0  0  0  0  0  0  0  0
  -10.8622   21.0131  -31.9595 H   0  0  0  0  0  0  0  0  0  0  0  0
   -9.1910   22.3920  -31.9030 C   0  0  0  0  0  0  0  0  0  0  0  0
   -9.8288   23.2745  -31.7467 H   0  0  0  0  0  0  0  0  0  0  0  0
   -7.8020   22.5400  -31.9800 C   0  0  0  0  0  0  0  0  0  0  0  0
   -7.3520   23.5396  -31.8885 H   0  0  0  0  0  0  0  0  0  0  0  0
   -0.8620   22.6920  -29.8680 C   0  0  0  0  0  0  0  0  0  0  0  0
   -0.2895   23.5737  -30.1917 H   0  0  0  0  0  0  0  0  0  0  0  0
   -0.5180   21.4230  -30.3440 C   0  0  0  0  0  0  0  0  0  0  0  0
    0.3196   21.3083  -31.0477 H   0  0  0  0  0  0  0  0  0  0  0  0
  1  2  1  0
  2  3  2  0
  3  4  1  0
  3  5  1  0
  5  6  1  0
  5  7  2  0
  7  8  1  0
  8  9  1  0
  9 10  1  0
  9 11  1  0
  9 12  1  0
 12 13  2  0
 12 14  1  0
 14 15  2  0
 15 16  1  0
 16 17  1  0
 16 18  2  0
 18 19  1  0
 19 20  2  0
 20 21  1  0
 20 22  1  0
 22 23  1  0
 22 24  2  0
 24 25  1  0
 24 26  1  0
 26 27  1  0
 26 28  2  0
 28 29  1  0
 18 30  1  0
 30 31  1  0
 30 32  1  0
 32 33  1  0
 33 34  2  0
 34 35  1  0
 34 36  1  0
 36 37  1  0
 36 38  2  0
 38 39  1  0
 38 40  1  0
 40 41  1  0
 40 42  2  0
 42 43  1  0
  7 44  1  0
 44 45  1  0
 44 46  2  0
 46 47  1  0
 46  2  1  0
 32 15  1  0
 42 33  1  0
 28 19  1  0
M  END
>  <UniqueID>  (48) 
46

>  <SMILES>  (48) 
O=C(CSc1ccccc1)/N=c1\cc(-c2ccccc2)[nH]n1-c1ccccc1

>  <Energy>  (48) 
94.06846481335413

>  <Genealogy>  (48) 
O=C(CSc1ccccc1)/N=c1\cc(-c2ccccc2)[nH]n1-c1ccccc1 (cis-trans isomerization)
O=C(CSc1ccccc1)/N=c1\cc(-c2ccccc2)[nH]n1-c1ccccc1 (3D coordinates assigned)
O=C(CSc1ccccc1)/N=c1\cc(-c2ccccc2)[nH]n1-c1ccccc1 (optimized conformer: 94.06846481335413 kcal/mol)

>  <smiles>  (48) 
O=C(CSc1ccccc1)N=c1cc(-c2ccccc2)[nH]n1-c1ccccc1

>  <score_type>  (48) 
oracle

>  <origin>  (48) 
adgpu

>  <m_score__min__energy>  (48) 
-9.25

>  <m_primary>  (48) 
energy

$$$$
48:0
     RDKit          3D

 62 65  0  0  0  0  0  0  0  0999 V2000
   -0.9140   26.2960  -24.1730 C   0  0  0  0  0  0  0  0  0  0  0  0
   -0.5570   25.6150  -25.4610 C   0  0  0  0  0  0  0  0  0  0  0  0
    0.5130   24.7090  -25.5060 C   0  0  0  0  0  0  0  0  0  0  0  0
    0.8140   24.0360  -26.6910 C   0  0  0  0  0  0  0  0  0  0  0  0
    0.0510   24.2570  -27.8400 C   0  0  0  0  0  0  0  0  0  0  0  0
   -1.0200   25.1690  -27.8130 C   0  0  0  0  0  0  0  0  0  0  0  0
   -1.8450   25.3940  -28.9700 N   0  0  0  0  0  0  0  0  0  0  0  0
   -3.1330   24.7840  -29.1750 C   0  0  0  0  0  0  0  0  0  0  0  0
   -3.6420   24.0470  -28.2890 O   0  0  0  0  0  0  0  0  0  0  0  0
   -3.8710   25.0210  -30.3780 N   0  0  0  0  0  0  0  0  0  0  0  0
   -4.9560   24.2170  -30.8600 C   0  0  0  0  0  0  0  0  0  0  0  0
   -4.6720   23.0220  -31.5300 C   0  0  0  0  0  0  0  0  0  0  0  0
   -5.7090   22.2200  -32.0150 C   0  0  0  0  0  0  0  0  0  0  0  0
   -7.0420   22.6070  -31.8370 C   0  0  0  0  0  0  0  0  0  0  0  0
   -8.0630   21.7660  -32.2990 O   0  0  0  0  0  0  0  0  0  0  0  0
   -8.0090   20.3620  -32.3190 C   0  0  0  0  0  0  0  0  0  0  0  0
   -9.0190   19.6430  -31.6740 C   0  0  0  0  0  0  0  0  0  0  0  0
   -9.0350   18.2480  -31.7530 C   0  0  0  0  0  0  0  0  0  0  0  0
   -8.0760   17.5930  -32.4590 N   0  0  0  0  0  0  0  0  0  0  0  0
   -7.0720   18.2610  -33.0870 C   0  0  0  0  0  0  0  0  0  0  0  0
   -6.0740   17.5240  -33.8690 C   0  0  0  0  0  0  0  0  0  0  0  0
   -6.3750   16.3970  -34.3410 O   0  0  0  0  0  0  0  0  0  0  0  0
   -4.7480   18.0320  -34.0640 N   0  0  0  0  0  0  0  0  0  0  0  0
   -3.9070   18.6130  -33.0200 C   0  0  0  0  0  0  0  0  0  0  0  0
   -2.4510   18.7860  -33.4750 C   0  0  0  0  0  0  0  0  0  0  0  0
   -2.2640   20.0740  -34.1890 N   0  0  0  0  0  0  0  0  0  0  0  0
   -0.8580   20.3040  -34.5950 C   0  0  0  0  0  0  0  0  0  0  0  0
   -0.0130   20.9440  -33.4700 C   0  0  0  0  0  0  0  0  0  0  0  0
   -0.6300   20.7780  -32.2120 O   0  0  0  0  0  0  0  0  0  0  0  0
   -1.8500   21.4980  -32.1720 C   0  0  0  0  0  0  0  0  0  0  0  0
   -2.7520   21.2220  -33.3990 C   0  0  0  0  0  0  0  0  0  0  0  0
   -7.0130   19.6580  -33.0180 C   0  0  0  0  0  0  0  0  0  0  0  0
   -7.3280   23.8390  -31.2260 C   0  0  0  0  0  0  0  0  0  0  0  0
   -6.2920   24.6390  -30.7400 C   0  0  0  0  0  0  0  0  0  0  0  0
   -1.3340   25.8230  -26.6110 C   0  0  0  0  0  0  0  0  0  0  0  0
   -0.5878   25.6738  -23.3266 H   0  0  0  0  0  0  0  0  0  0  0  0
   -0.4125   27.2738  -24.1240 H   0  0  0  0  0  0  0  0  0  0  0  0
   -2.0035   26.4398  -24.1240 H   0  0  0  0  0  0  0  0  0  0  0  0
    1.1167   24.5284  -24.6044 H   0  0  0  0  0  0  0  0  0  0  0  0
    1.6557   23.3285  -26.7203 H   0  0  0  0  0  0  0  0  0  0  0  0
    0.2881   23.7166  -28.7683 H   0  0  0  0  0  0  0  0  0  0  0  0
   -1.4450   25.9800  -29.7340 H   0  0  0  0  0  0  0  0  0  0  0  0
   -3.6268   22.7119  -31.6759 H   0  0  0  0  0  0  0  0  0  0  0  0
   -5.4764   21.2810  -32.5386 H   0  0  0  0  0  0  0  0  0  0  0  0
   -9.7981   20.1730  -31.1065 H   0  0  0  0  0  0  0  0  0  0  0  0
   -9.8257   17.6786  -31.2425 H   0  0  0  0  0  0  0  0  0  0  0  0
   -4.3120   19.5986  -32.7470 H   0  0  0  0  0  0  0  0  0  0  0  0
   -3.9122   17.9252  -32.1615 H   0  0  0  0  0  0  0  0  0  0  0  0
   -1.7941   18.7654  -32.5930 H   0  0  0  0  0  0  0  0  0  0  0  0
   -2.2000   17.9653  -34.1631 H   0  0  0  0  0  0  0  0  0  0  0  0
   -0.4075   19.3384  -34.8684 H   0  0  0  0  0  0  0  0  0  0  0  0
   -0.8660   21.0023  -35.4449 H   0  0  0  0  0  0  0  0  0  0  0  0
    0.9779   20.4667  -33.4496 H   0  0  0  0  0  0  0  0  0  0  0  0
    0.0798   22.0210  -33.6734 H   0  0  0  0  0  0  0  0  0  0  0  0
   -2.3974   21.2109  -31.2621 H   0  0  0  0  0  0  0  0  0  0  0  0
   -1.6016   22.5696  -32.1789 H   0  0  0  0  0  0  0  0  0  0  0  0
   -3.7725   21.0062  -33.0498 H   0  0  0  0  0  0  0  0  0  0  0  0
   -2.7358   22.1132  -34.0436 H   0  0  0  0  0  0  0  0  0  0  0  0
   -6.1919   20.2018  -33.5080 H   0  0  0  0  0  0  0  0  0  0  0  0
   -8.3712   24.1745  -31.1301 H   0  0  0  0  0  0  0  0  0  0  0  0
   -6.5217   25.6026  -30.2617 H   0  0  0  0  0  0  0  0  0  0  0  0
   -2.1966   26.5044  -26.5703 H   0  0  0  0  0  0  0  0  0  0  0  0
  1  2  1  0
  2  3  2  0
  3  4  1  0
  4  5  2  0
  5  6  1  0
  6  7  1  0
  7  8  1  0
  8  9  2  0
  8 10  1  0
 10 11  1  0
 11 12  2  0
 12 13  1  0
 13 14  2  0
 14 15  1  0
 15 16  1  0
 16 17  2  0
 17 18  1  0
 18 19  2  0
 19 20  1  0
 20 21  1  0
 21 22  2  0
 21 23  1  0
 23 24  1  0
 24 25  1  0
 25 26  1  0
 26 27  1  0
 27 28  1  0
 28 29  1  0
 29 30  1  0
 30 31  1  0
 20 32  2  0
 14 33  1  0
 33 34  2  0
  6 35  2  0
 35  2  1  0
 34 11  1  0
 32 16  1  0
 31 26  1  0
  1 36  1  0
  1 37  1  0
  1 38  1  0
  3 39  1  0
  4 40  1  0
  5 41  1  0
  7 42  1  0
 12 43  1  0
 13 44  1  0
 17 45  1  0
 18 46  1  0
 24 47  1  0
 24 48  1  0
 25 49  1  0
 25 50  1  0
 27 51  1  0
 27 52  1  0
 28 53  1  0
 28 54  1  0
 30 55  1  0
 30 56  1  0
 31 57  1  0
 31 58  1  0
 32 59  1  0
 33 60  1  0
 34 61  1  0
 35 62  1  0
M  CHG  2  10  -1  23  -1
M  END
>  <UniqueID>  (49) 
47

>  <SMILES>  (49) 
Cc1cccc(NC(=O)[N-]c2ccc(Oc3ccnc(C(=O)[N-]CCN4CCOCC4)c3)cc2)c1

>  <Energy>  (49) 
94.11267353232708

>  <Genealogy>  (49) 
Cc1cccc(NC(=O)[N-]c2ccc(Oc3ccnc(C(=O)[N-]CCN4CCOCC4)c3)cc2)c1 (protonated)
Cc1cccc(NC(=O)[N-]c2ccc(Oc3ccnc(C(=O)[N-]CCN4CCOCC4)c3)cc2)c1 (3D coordinates assigned)
Cc1cccc(NC(=O)[N-]c2ccc(Oc3ccnc(C(=O)[N-]CCN4CCOCC4)c3)cc2)c1 (nonaromatic ring conformer: 94.11267353232708 kcal/mol)

>  <smiles>  (49) 
Cc1cccc(NC(=O)Nc2ccc(Oc3ccnc(C(=O)NCCN4CCOCC4)c3)cc2)c1

>  <score_type>  (49) 
oracle

>  <origin>  (49) 
adgpu

>  <m_score__min__energy>  (49) 
-11.5

>  <m_primary>  (49) 
energy

$$$$
49:0
     RDKit          3D

 34 36  0  0  0  0  0  0  0  0999 V2000
   -5.9320   14.6400  -33.9650 C   0  0  0  0  0  0  0  0  0  0  0  0
   -6.7510   15.8000  -34.0730 O   0  0  0  0  0  0  0  0  0  0  0  0
   -6.4220   17.0550  -33.5360 C   0  0  0  0  0  0  0  0  0  0  0  0
   -7.0470   17.5660  -32.3850 C   0  0  0  0  0  0  0  0  0  0  0  0
   -6.6930   18.8210  -31.8840 C   0  0  0  0  0  0  0  0  0  0  0  0
   -5.7120   19.5970  -32.5280 C   0  0  0  0  0  0  0  0  0  0  0  0
   -5.3080   20.9300  -32.0120 C   0  0  0  0  0  0  0  0  0  0  0  0
   -5.9990   22.0990  -32.3600 C   0  0  0  0  0  0  0  0  0  0  0  0
   -5.5800   23.3260  -31.8450 C   0  0  0  0  0  0  0  0  0  0  0  0
   -6.1790   24.3680  -32.2230 O   0  0  0  0  0  0  0  0  0  0  0  0
   -4.4830   23.3770  -30.9530 C   0  0  0  0  0  0  0  0  0  0  0  0
   -4.0000   24.5720  -30.3420 C   0  0  0  0  0  0  0  0  0  0  0  0
   -4.6920   25.8250  -30.4560 N   0  0  0  0  0  0  0  0  0  0  0  0
   -2.8290   24.5210  -29.5600 C   0  0  0  0  0  0  0  0  0  0  0  0
   -2.3240   25.6760  -28.9720 O   0  0  0  0  0  0  0  0  0  0  0  0
   -2.1700   23.3110  -29.3450 C   0  0  0  0  0  0  0  0  0  0  0  0
   -2.6660   22.1330  -29.8940 C   0  0  0  0  0  0  0  0  0  0  0  0
   -3.8090   22.1560  -30.6950 C   0  0  0  0  0  0  0  0  0  0  0  0
   -4.2460   21.0130  -31.2170 O   0  0  0  0  0  0  0  0  0  0  0  0
   -5.0800   19.0770  -33.6700 C   0  0  0  0  0  0  0  0  0  0  0  0
   -5.4350   17.8180  -34.1740 C   0  0  0  0  0  0  0  0  0  0  0  0
   -4.8080   17.3150  -35.3140 O   0  0  0  0  0  0  0  0  0  0  0  0
   -5.7665   14.4056  -32.9031 H   0  0  0  0  0  0  0  0  0  0  0  0
   -6.4321   13.7912  -34.4542 H   0  0  0  0  0  0  0  0  0  0  0  0
   -4.9647   14.8272  -34.4542 H   0  0  0  0  0  0  0  0  0  0  0  0
   -7.8206   16.9731  -31.8751 H   0  0  0  0  0  0  0  0  0  0  0  0
   -7.1853   19.2056  -30.9786 H   0  0  0  0  0  0  0  0  0  0  0  0
   -6.8662   22.0492  -33.0349 H   0  0  0  0  0  0  0  0  0  0  0  0
   -4.6010   26.5660  -29.7270 H   0  0  0  0  0  0  0  0  0  0  0  0
   -5.1180   26.1170  -31.3630 H   0  0  0  0  0  0  0  0  0  0  0  0
   -1.2530   23.2879  -28.7380 H   0  0  0  0  0  0  0  0  0  0  0  0
   -2.1552   21.1791  -29.6960 H   0  0  0  0  0  0  0  0  0  0  0  0
   -4.2982   19.6641  -34.1740 H   0  0  0  0  0  0  0  0  0  0  0  0
   -4.9970   16.3790  -35.6540 H   0  0  0  0  0  0  0  0  0  0  0  0
  1  2  1  0
  2  3  1  0
  3  4  2  0
  4  5  1  0
  5  6  2  0
  6  7  1  0
  7  8  2  0
  8  9  1  0
  9 10  2  0
  9 11  1  0
 11 12  2  0
 12 13  1  0
 12 14  1  0
 14 15  1  0
 14 16  2  0
 16 17  1  0
 17 18  2  0
 18 19  1  0
  6 20  1  0
 20 21  2  0
 21 22  1  0
 21  3  1  0
 19  7  1  0
 18 11  1  0
  1 23  1  0
  1 24  1  0
  1 25  1  0
  4 26  1  0
  5 27  1  0
  8 28  1  0
 13 29  1  0
 13 30  1  0
 16 31  1  0
 17 32  1  0
 20 33  1  0
 22 34  1  0
M  CHG  1  15  -1
M  END
>  <UniqueID>  (50) 
48

>  <SMILES>  (50) 
COc1ccc(-c2cc(=O)c3c(N)c([O-])ccc3o2)cc1O

>  <Energy>  (50) 
51.3897684887731

>  <Genealogy>  (50) 
COc1ccc(-c2cc(=O)c3c(N)c([O-])ccc3o2)cc1O (protonated)
COc1ccc(-c2cc(=O)c3c(N)c([O-])ccc3o2)cc1O (3D coordinates assigned)
COc1ccc(-c2cc(=O)c3c(N)c([O-])ccc3o2)cc1O (optimized conformer: 51.3897684887731 kcal/mol)

>  <smiles>  (50) 
COc1ccc(-c2cc(=O)c3c(N)c(O)ccc3o2)cc1O

>  <score_type>  (50) 
oracle

>  <origin>  (50) 
adgpu

>  <m_score__min__energy>  (50) 
-9.7599999999999998

>  <m_primary>  (50) 
energy

$$$$
