0:0
     RDKit          3D

 54 57  0  0  0  0  0  0  0  0999 V2000
    0.6090   24.1670  -28.2620 N   0  0  0  0  0  0  0  0  0  0  0  0
    0.6940   22.5260  -27.7210 S   0  0  0  0  0  0  0  0  0  0  0  0
   -0.0730   22.3780  -26.4370 O   0  0  0  0  0  0  0  0  0  0  0  0
    2.1340   22.1660  -27.4740 O   0  0  0  0  0  0  0  0  0  0  0  0
   -0.0050   21.4640  -28.9470 C   0  0  0  0  0  0  0  0  0  0  0  0
    0.2710   20.0880  -28.9190 C   0  0  0  0  0  0  0  0  0  0  0  0
   -0.2780   19.2380  -29.8820 C   0  0  0  0  0  0  0  0  0  0  0  0
   -1.1050   19.7540  -30.8790 C   0  0  0  0  0  0  0  0  0  0  0  0
   -1.3890   21.1210  -30.9180 C   0  0  0  0  0  0  0  0  0  0  0  0
   -0.8420   21.9880  -29.9530 C   0  0  0  0  0  0  0  0  0  0  0  0
   -1.1190   23.3960  -29.9700 N   0  0  0  0  0  0  0  0  0  0  0  0
   -2.3040   24.2070  -28.9990 S   0  0  0  0  0  0  0  0  0  0  0  0
   -2.3210   23.6200  -27.6160 O   0  0  0  0  0  0  0  0  0  0  0  0
   -1.9840   25.6730  -28.9390 O   0  0  0  0  0  0  0  0  0  0  0  0
   -3.8770   23.9870  -29.7380 C   0  0  0  0  0  0  0  0  0  0  0  0
   -4.7220   24.9980  -30.1610 C   0  0  0  0  0  0  0  0  0  0  0  0
   -5.9210   24.5210  -30.7040 C   0  0  0  0  0  0  0  0  0  0  0  0
   -6.0200   23.1270  -30.7080 C   0  0  0  0  0  0  0  0  0  0  0  0
   -7.1570   22.3170  -31.2170 C   0  0  0  0  0  0  0  0  0  0  0  0
   -8.3810   22.9350  -31.5360 C   0  0  0  0  0  0  0  0  0  0  0  0
   -9.4570   22.1780  -32.0080 C   0  0  0  0  0  0  0  0  0  0  0  0
   -9.3300   20.7980  -32.1610 C   0  0  0  0  0  0  0  0  0  0  0  0
   -8.1250   20.1620  -31.8390 C   0  0  0  0  0  0  0  0  0  0  0  0
   -7.9750   18.4110  -31.9970 S   0  0  0  0  0  0  0  0  0  0  0  0
   -9.3490   17.8010  -31.9340 O   0  0  0  0  0  0  0  0  0  0  0  0
   -7.1840   17.8760  -30.8360 O   0  0  0  0  0  0  0  0  0  0  0  0
   -7.2000   17.9330  -33.4950 N   0  0  0  0  0  0  0  0  0  0  0  0
   -6.3400   18.9940  -34.0610 C   0  0  0  0  0  0  0  0  0  0  0  0
   -4.8430   18.7540  -33.8000 C   0  0  0  0  0  0  0  0  0  0  0  0
   -4.6600   18.0400  -32.6000 O   0  0  0  0  0  0  0  0  0  0  0  0
   -5.1200   16.7120  -32.7600 C   0  0  0  0  0  0  0  0  0  0  0  0
   -6.5300   16.6240  -33.3910 C   0  0  0  0  0  0  0  0  0  0  0  0
   -7.0410   20.9230  -31.3780 C   0  0  0  0  0  0  0  0  0  0  0  0
   -4.6050   22.5040  -30.0270 S   0  0  0  0  0  0  0  0  0  0  0  0
    0.8060   24.1610  -29.2880 H   0  0  0  0  0  0  0  0  0  0  0  0
   -0.3810   24.4760  -28.1460 H   0  0  0  0  0  0  0  0  0  0  0  0
    0.9232   19.6768  -28.1344 H   0  0  0  0  0  0  0  0  0  0  0  0
   -0.0577   18.1607  -29.8538 H   0  0  0  0  0  0  0  0  0  0  0  0
   -1.5349   19.0826  -31.6369 H   0  0  0  0  0  0  0  0  0  0  0  0
   -2.0430   21.5220  -31.7063 H   0  0  0  0  0  0  0  0  0  0  0  0
   -4.4767   26.0671  -30.0790 H   0  0  0  0  0  0  0  0  0  0  0  0
   -6.7109   25.1814  -31.0911 H   0  0  0  0  0  0  0  0  0  0  0  0
   -8.4915   24.0225  -31.4128 H   0  0  0  0  0  0  0  0  0  0  0  0
  -10.4069   22.6725  -32.2595 H   0  0  0  0  0  0  0  0  0  0  0  0
  -10.1789   20.2073  -32.5357 H   0  0  0  0  0  0  0  0  0  0  0  0
   -6.5044   19.0365  -35.1478 H   0  0  0  0  0  0  0  0  0  0  0  0
   -6.6137   19.9386  -33.5683 H   0  0  0  0  0  0  0  0  0  0  0  0
   -4.4183   18.1756  -34.6338 H   0  0  0  0  0  0  0  0  0  0  0  0
   -4.3360   19.7266  -33.7162 H   0  0  0  0  0  0  0  0  0  0  0  0
   -4.4132   16.1735  -33.4084 H   0  0  0  0  0  0  0  0  0  0  0  0
   -5.1841   16.2665  -31.7563 H   0  0  0  0  0  0  0  0  0  0  0  0
   -6.4357   16.1979  -34.4007 H   0  0  0  0  0  0  0  0  0  0  0  0
   -7.1448   15.9923  -32.7330 H   0  0  0  0  0  0  0  0  0  0  0  0
   -6.0895   20.4253  -31.1395 H   0  0  0  0  0  0  0  0  0  0  0  0
  1  2  1  0
  2  3  2  0
  2  4  2  0
  2  5  1  0
  5  6  2  0
  6  7  1  0
  7  8  2  0
  8  9  1  0
  9 10  2  0
 10 11  1  0
 11 12  1  0
 12 13  2  0
 12 14  2  0
 12 15  1  0
 15 16  2  0
 16 17  1  0
 17 18  2  0
 18 19  1  0
 19 20  2  0
 20 21  1  0
 21 22  2  0
 22 23  1  0
 23 24  1  0
 24 25  2  0
 24 26  2  0
 24 27  1  0
 27 28  1  0
 28 29  1  0
 29 30  1  0
 30 31  1  0
 31 32  1  0
 23 33  2  0
 18 34  1  0
 10  5  1  0
 34 15  1  0
 33 19  1  0
 32 27  1  0
  1 35  1  0
  1 36  1  0
  6 37  1  0
  7 38  1  0
  8 39  1  0
  9 40  1  0
 16 41  1  0
 17 42  1  0
 20 43  1  0
 21 44  1  0
 22 45  1  0
 28 46  1  0
 28 47  1  0
 29 48  1  0
 29 49  1  0
 31 50  1  0
 31 51  1  0
 32 52  1  0
 32 53  1  0
 33 54  1  0
M  CHG  1  11  -1
M  END
>  <UniqueID>  (1) 
1

>  <SMILES>  (1) 
NS(=O)(=O)c1ccccc1[N-]S(=O)(=O)c1ccc(-c2cccc(S(=O)(=O)N3CCOCC3)c2)s1

>  <Energy>  (1) 
99.24120406866174

>  <Genealogy>  (1) 
NS(=O)(=O)c1ccccc1[N-]S(=O)(=O)c1ccc(-c2cccc(S(=O)(=O)N3CCOCC3)c2)s1 (protonated)
NS(=O)(=O)c1ccccc1[N-]S(=O)(=O)c1ccc(-c2cccc(S(=O)(=O)N3CCOCC3)c2)s1 (3D coordinates assigned)
NS(=O)(=O)c1ccccc1[N-]S(=O)(=O)c1ccc(-c2cccc(S(=O)(=O)N3CCOCC3)c2)s1 (nonaromatic ring conformer: 99.24120406866174 kcal/mol)

>  <smiles>  (1) 
NS(=O)(=O)c1ccccc1NS(=O)(=O)c1ccc(-c2cccc(S(=O)(=O)N3CCOCC3)c2)s1

>  <score_type>  (1) 
oracle

>  <origin>  (1) 
adgpu

>  <m_score__min__energy>  (1) 
-11.619999999999999

>  <m_primary>  (1) 
energy

$$$$
1:0
     RDKit          3D

 66 69  0  0  0  0  0  0  0  0999 V2000
   -0.5070   18.6070  -28.5350 C   0  0  0  0  0  0  0  0  0  0  0  0
   -1.1360   19.9740  -28.5760 C   0  0  0  0  0  0  0  0  0  0  0  0
   -1.6730   20.4890  -27.3840 C   0  0  0  0  0  0  0  0  0  0  0  0
   -2.2440   21.7580  -27.3470 C   0  0  0  0  0  0  0  0  0  0  0  0
   -2.2880   22.5470  -28.4940 C   0  0  0  0  0  0  0  0  0  0  0  0
   -2.8030   23.8790  -28.3820 N   0  0  0  0  0  0  0  0  0  0  0  0
   -2.5640   24.9150  -29.3440 C   0  0  0  0  0  0  0  0  0  0  0  0
   -1.4840   25.5630  -29.3170 O   0  0  0  0  0  0  0  0  0  0  0  0
   -3.5660   25.2730  -30.3000 N   0  0  0  0  0  0  0  0  0  0  0  0
   -4.7600   24.5370  -30.5990 C   0  0  0  0  0  0  0  0  0  0  0  0
   -4.6500   23.3440  -31.3250 C   0  0  0  0  0  0  0  0  0  0  0  0
   -5.7860   22.5850  -31.6170 C   0  0  0  0  0  0  0  0  0  0  0  0
   -7.0500   23.0050  -31.1780 C   0  0  0  0  0  0  0  0  0  0  0  0
   -8.4880   22.0530  -31.5640 S   0  0  0  0  0  0  0  0  0  0  0  0
   -9.4810   22.9240  -32.2810 O   0  0  0  0  0  0  0  0  0  0  0  0
   -9.1230   21.5800  -30.2860 O   0  0  0  0  0  0  0  0  0  0  0  0
   -8.1020   20.6670  -32.5630 N   0  0  0  0  0  0  0  0  0  0  0  0
   -9.2680   19.7900  -32.7240 C   0  0  0  0  0  0  0  0  0  0  0  0
   -9.0900   18.6090  -31.7910 C   0  0  0  0  0  0  0  0  0  0  0  0
   -7.5940   18.4730  -31.6440 C   0  0  0  0  0  0  0  0  0  0  0  0
   -7.0320   19.8530  -31.9630 C   0  0  0  0  0  0  0  0  0  0  0  0
   -7.1590   24.1800  -30.4230 C   0  0  0  0  0  0  0  0  0  0  0  0
   -6.0220   24.9380  -30.1280 C   0  0  0  0  0  0  0  0  0  0  0  0
   -1.8340   22.0200  -29.7220 C   0  0  0  0  0  0  0  0  0  0  0  0
   -1.9960   22.7380  -30.9100 O   0  0  0  0  0  0  0  0  0  0  0  0
   -1.2350   20.7400  -29.7700 C   0  0  0  0  0  0  0  0  0  0  0  0
   -0.6290   20.1680  -31.3490 S   0  0  0  0  0  0  0  0  0  0  0  0
   -0.4770   18.6740  -31.2910 O   0  0  0  0  0  0  0  0  0  0  0  0
    0.7120   20.7490  -31.6970 O   0  0  0  0  0  0  0  0  0  0  0  0
   -1.8110   20.5900  -32.6350 C   0  0  0  0  0  0  0  0  0  0  0  0
   -3.2500   20.3240  -32.1430 C   0  0  0  0  0  0  0  0  0  0  0  0
   -4.2060   20.1190  -33.3260 C   0  0  0  0  0  0  0  0  0  0  0  0
   -3.8210   18.9680  -34.1850 N   0  0  0  0  0  0  0  0  0  0  0  0
   -4.6540   17.7880  -33.9060 C   0  0  0  0  0  0  0  0  0  0  0  0
   -2.3830   18.6120  -34.1250 C   0  0  0  0  0  0  0  0  0  0  0  0
   -1.5010   19.8540  -33.9580 C   0  0  0  0  0  0  0  0  0  0  0  0
   -0.3656   18.2997  -27.4883 H   0  0  0  0  0  0  0  0  0  0  0  0
   -1.1638   17.8858  -29.0434 H   0  0  0  0  0  0  0  0  0  0  0  0
    0.4680   18.6366  -29.0434 H   0  0  0  0  0  0  0  0  0  0  0  0
   -1.6417   19.8812  -26.4677 H   0  0  0  0  0  0  0  0  0  0  0  0
   -2.6636   22.1405  -26.4049 H   0  0  0  0  0  0  0  0  0  0  0  0
   -3.6621   23.0024  -31.6676 H   0  0  0  0  0  0  0  0  0  0  0  0
   -5.6886   21.6535  -32.1940 H   0  0  0  0  0  0  0  0  0  0  0  0
  -10.1865   20.3369  -32.4647 H   0  0  0  0  0  0  0  0  0  0  0  0
   -9.3513   19.4480  -33.7661 H   0  0  0  0  0  0  0  0  0  0  0  0
   -9.5610   18.8073  -30.8169 H   0  0  0  0  0  0  0  0  0  0  0  0
   -9.5596   17.6927  -32.1781 H   0  0  0  0  0  0  0  0  0  0  0  0
   -7.3329   18.1786  -30.6168 H   0  0  0  0  0  0  0  0  0  0  0  0
   -7.1849   17.6993  -32.3104 H   0  0  0  0  0  0  0  0  0  0  0  0
   -6.6762   20.3313  -31.0385 H   0  0  0  0  0  0  0  0  0  0  0  0
   -6.1891   19.7634  -32.6641 H   0  0  0  0  0  0  0  0  0  0  0  0
   -8.1444   24.5079  -30.0604 H   0  0  0  0  0  0  0  0  0  0  0  0
   -6.1155   25.8528  -29.5243 H   0  0  0  0  0  0  0  0  0  0  0  0
   -2.1880   23.7320  -30.9320 H   0  0  0  0  0  0  0  0  0  0  0  0
   -1.7214   21.6647  -32.8518 H   0  0  0  0  0  0  0  0  0  0  0  0
   -3.2546   19.4203  -31.5159 H   0  0  0  0  0  0  0  0  0  0  0  0
   -3.5897   21.1958  -31.5646 H   0  0  0  0  0  0  0  0  0  0  0  0
   -5.2181   19.9415  -32.9333 H   0  0  0  0  0  0  0  0  0  0  0  0
   -4.1628   21.0254  -33.9477 H   0  0  0  0  0  0  0  0  0  0  0  0
   -4.7482   17.6546  -32.8182 H   0  0  0  0  0  0  0  0  0  0  0  0
   -5.6521   17.9315  -34.3456 H   0  0  0  0  0  0  0  0  0  0  0  0
   -4.1846   16.8956  -34.3456 H   0  0  0  0  0  0  0  0  0  0  0  0
   -2.2172   17.9389  -33.2709 H   0  0  0  0  0  0  0  0  0  0  0  0
   -2.1103   18.1209  -35.0708 H   0  0  0  0  0  0  0  0  0  0  0  0
   -0.4450   19.5460  -33.9576 H   0  0  0  0  0  0  0  0  0  0  0  0
   -1.7063   20.5401  -34.7929 H   0  0  0  0  0  0  0  0  0  0  0  0
  1  2  1  0
  2  3  2  0
  3  4  1  0
  4  5  2  0
  5  6  1  0
  6  7  1  0
  7  8  2  0
  7  9  1  0
  9 10  1  0
 10 11  2  0
 11 12  1  0
 12 13  2  0
 13 14  1  0
 14 15  2  0
 14 16  2  0
 14 17  1  0
 17 18  1  0
 18 19  1  0
 19 20  1  0
 20 21  1  0
 13 22  1  0
 22 23  2  0
  5 24  1  0
 24 25  1  0
 24 26  2  0
 26 27  1  0
 27 28  2  0
 27 29  2  0
 27 30  1  0
 30 31  1  0
 31 32  1  0
 32 33  1  0
 33 34  1  0
 33 35  1  0
 35 36  1  0
 26  2  1  0
 36 30  1  0
 23 10  1  0
 21 17  1  0
  1 37  1  0
  1 38  1  0
  1 39  1  0
  3 40  1  0
  4 41  1  0
 11 42  1  0
 12 43  1  0
 18 44  1  0
 18 45  1  0
 19 46  1  0
 19 47  1  0
 20 48  1  0
 20 49  1  0
 21 50  1  0
 21 51  1  0
 22 52  1  0
 23 53  1  0
 25 54  1  0
 30 55  1  0
 31 56  1  0
 31 57  1  0
 32 58  1  0
 32 59  1  0
 34 60  1  0
 34 61  1  0
 34 62  1  0
 35 63  1  0
 35 64  1  0
 36 65  1  0
 36 66  1  0
M  CHG  2   6  -1   9  -1
M  END
>  <UniqueID>  (2) 
2

>  <SMILES>  (2) 
Cc1ccc([N-]C(=O)[N-]c2ccc(S(=O)(=O)N3CCCC3)cc2)c(O)c1S(=O)(=O)C1CCN(C)CC1

>  <Energy>  (2) 
87.02606822483583

>  <Genealogy>  (2) 
Cc1ccc([N-]C(=O)[N-]c2ccc(S(=O)(=O)N3CCCC3)cc2)c(O)c1S(=O)(=O)C1CCN(C)CC1 (protonated)
Cc1ccc([N-]C(=O)[N-]c2ccc(S(=O)(=O)N3CCCC3)cc2)c(O)c1S(=O)(=O)C1CCN(C)CC1 (3D coordinates assigned)
Cc1ccc([N-]C(=O)[N-]c2ccc(S(=O)(=O)N3CCCC3)cc2)c(O)c1S(=O)(=O)C1CCN(C)CC1 (nonaromatic ring conformer: 87.02606822483583 kcal/mol)

>  <smiles>  (2) 
Cc1ccc(NC(=O)Nc2ccc(S(=O)(=O)N3CCCC3)cc2)c(O)c1S(=O)(=O)C1CCN(C)CC1

>  <score_type>  (2) 
oracle

>  <origin>  (2) 
adgpu

>  <m_score__min__energy>  (2) 
-14.279999999999999

>  <m_primary>  (2) 
energy

$$$$
2:0
     RDKit          3D

 41 43  0  0  0  0  0  0  0  0999 V2000
   -2.5990   21.4420  -33.4670 N   0  0  0  0  0  0  0  0  0  0  0  0
   -3.3320   22.0580  -32.6000 C   0  0  0  0  0  0  0  0  0  0  0  0
   -2.8270   22.4050  -31.3790 C   0  0  0  0  0  0  0  0  0  0  0  0
   -3.6550   23.0570  -30.5010 C   0  0  0  0  0  0  0  0  0  0  0  0
   -3.1940   23.4530  -29.1910 N   0  0  0  0  0  0  0  0  0  0  0  0
   -4.0360   23.4440  -28.0330 C   0  0  0  0  0  0  0  0  0  0  0  0
   -3.7350   24.5280  -27.0280 C   0  0  0  0  0  0  0  0  0  0  0  0
   -2.2640   24.6490  -26.7760 C   0  0  0  0  0  0  0  0  0  0  0  0
   -1.6420   25.0410  -28.1100 C   0  0  0  0  0  0  0  0  0  0  0  0
   -1.8170   23.8760  -29.0260 C   0  0  0  0  0  0  0  0  0  0  0  0
   -4.9160   23.3360  -30.8460 N   0  0  0  0  0  0  0  0  0  0  0  0
   -5.4430   22.9980  -32.0630 C   0  0  0  0  0  0  0  0  0  0  0  0
   -7.1070   23.4490  -32.3680 S   0  0  0  0  0  0  0  0  0  0  0  0
   -8.3390   22.2550  -31.9560 C   0  0  0  0  0  0  0  0  0  0  0  0
   -8.0040   20.8390  -32.1930 C   0  0  0  0  0  0  0  0  0  0  0  0
   -7.0260   20.3590  -33.0130 C   0  0  0  0  0  0  0  0  0  0  0  0
   -6.8310   18.9930  -33.1580 C   0  0  0  0  0  0  0  0  0  0  0  0
   -7.5940   18.0540  -32.4970 C   0  0  0  0  0  0  0  0  0  0  0  0
   -8.5850   18.5390  -31.6640 C   0  0  0  0  0  0  0  0  0  0  0  0
   -8.7830   19.8950  -31.5180 C   0  0  0  0  0  0  0  0  0  0  0  0
   -4.6160   22.3650  -32.8960 N   0  0  0  0  0  0  0  0  0  0  0  0
   -2.9540   21.1620  -34.4090 H   0  0  0  0  0  0  0  0  0  0  0  0
   -1.7874   22.1686  -31.1080 H   0  0  0  0  0  0  0  0  0  0  0  0
   -5.0776   23.5643  -28.3655 H   0  0  0  0  0  0  0  0  0  0  0  0
   -3.8532   22.4869  -27.5226 H   0  0  0  0  0  0  0  0  0  0  0  0
   -4.1119   25.4871  -27.4129 H   0  0  0  0  0  0  0  0  0  0  0  0
   -4.2274   24.2662  -26.0798 H   0  0  0  0  0  0  0  0  0  0  0  0
   -2.0679   25.4238  -26.0202 H   0  0  0  0  0  0  0  0  0  0  0  0
   -1.8411   23.7079  -26.3946 H   0  0  0  0  0  0  0  0  0  0  0  0
   -2.1517   25.9252  -28.5203 H   0  0  0  0  0  0  0  0  0  0  0  0
   -0.5779   25.2930  -27.9906 H   0  0  0  0  0  0  0  0  0  0  0  0
   -1.4196   24.1510  -30.0141 H   0  0  0  0  0  0  0  0  0  0  0  0
   -1.2786   23.0316  -28.5709 H   0  0  0  0  0  0  0  0  0  0  0  0
   -8.5656   22.3678  -30.8855 H   0  0  0  0  0  0  0  0  0  0  0  0
   -9.1800   22.4669  -32.6327 H   0  0  0  0  0  0  0  0  0  0  0  0
   -6.3850   21.0620  -33.5652 H   0  0  0  0  0  0  0  0  0  0  0  0
   -6.0328   18.6440  -33.8296 H   0  0  0  0  0  0  0  0  0  0  0  0
   -7.4231   16.9750  -32.6257 H   0  0  0  0  0  0  0  0  0  0  0  0
   -9.2232   17.8341  -31.1110 H   0  0  0  0  0  0  0  0  0  0  0  0
   -9.5812   20.2463  -30.8475 H   0  0  0  0  0  0  0  0  0  0  0  0
   -4.9630   22.0830  -33.8110 H   0  0  0  0  0  0  0  0  0  0  0  0
  1  2  2  3
  2  3  1  0
  3  4  2  0
  4  5  1  0
  5  6  1  0
  6  7  1  0
  7  8  1  0
  8  9  1  0
  9 10  1  0
  4 11  1  0
 11 12  2  0
 12 13  1  0
 13 14  1  0
 14 15  1  0
 15 16  2  0
 16 17  1  0
 17 18  2  0
 18 19  1  0
 19 20  2  0
 12 21  1  0
 21  2  1  0
 10  5  1  0
 20 15  1  0
  1 22  1  0
  3 23  1  0
  6 24  1  0
  6 25  1  0
  7 26  1  0
  7 27  1  0
  8 28  1  0
  8 29  1  0
  9 30  1  0
  9 31  1  0
 10 32  1  0
 10 33  1  0
 14 34  1  0
 14 35  1  0
 16 36  1  0
 17 37  1  0
 18 38  1  0
 19 39  1  0
 20 40  1  0
 21 41  1  0
M  END
>  <smiles>  (3) 
N=c1cc(N2CCCCC2)nc(SCc2ccccc2)[nH]1

>  <score_type>  (3) 
oracle

>  <origin>  (3) 
adgpu

>  <m_score__min__energy>  (3) 
-8.2100000000000009

>  <m_primary>  (3) 
energy

$$$$
3:0
     RDKit          3D

 44 46  0  0  0  0  0  0  0  0999 V2000
   -6.8430   18.0580  -30.8600 O   0  0  0  0  0  0  0  0  0  0  0  0
   -7.7870   18.5060  -31.9390 S   0  0  0  0  0  0  0  0  0  0  0  0
   -9.1350   17.8820  -31.7090 O   0  0  0  0  0  0  0  0  0  0  0  0
   -7.9300   20.2600  -31.8650 C   0  0  0  0  0  0  0  0  0  0  0  0
   -9.1800   20.8780  -31.9930 C   0  0  0  0  0  0  0  0  0  0  0  0
   -9.2840   22.2690  -31.9340 C   0  0  0  0  0  0  0  0  0  0  0  0
   -8.1420   23.0520  -31.7450 C   0  0  0  0  0  0  0  0  0  0  0  0
   -6.8770   22.4450  -31.6090 C   0  0  0  0  0  0  0  0  0  0  0  0
   -5.6810   23.2220  -31.4110 N   0  0  0  0  0  0  0  0  0  0  0  0
   -4.3600   22.7960  -31.8750 C   0  0  0  0  0  0  0  0  0  0  0  0
   -3.3840   22.9110  -30.7910 N   0  0  0  0  0  0  0  0  0  0  0  0
   -2.9980   24.0430  -30.1700 C   0  0  0  0  0  0  0  0  0  0  0  0
   -3.5200   25.3020  -30.4470 O   0  0  0  0  0  0  0  0  0  0  0  0
   -2.0160   23.7870  -29.2340 C   0  0  0  0  0  0  0  0  0  0  0  0
   -1.7770   22.4260  -29.2930 C   0  0  0  0  0  0  0  0  0  0  0  0
   -2.6250   21.9270  -30.2630 C   0  0  0  0  0  0  0  0  0  0  0  0
   -2.6770   20.5900  -30.6500 O   0  0  0  0  0  0  0  0  0  0  0  0
   -6.7850   21.0450  -31.6690 C   0  0  0  0  0  0  0  0  0  0  0  0
   -7.1750   18.0400  -33.5110 N   0  0  0  0  0  0  0  0  0  0  0  0
   -6.6080   16.6660  -33.5030 C   0  0  0  0  0  0  0  0  0  0  0  0
   -5.1090   16.6050  -33.8450 C   0  0  0  0  0  0  0  0  0  0  0  0
   -4.3460   17.7010  -33.1030 C   0  0  0  0  0  0  0  0  0  0  0  0
   -4.8980   19.1010  -33.4210 C   0  0  0  0  0  0  0  0  0  0  0  0
   -6.2880   19.0710  -34.0840 C   0  0  0  0  0  0  0  0  0  0  0  0
  -10.0821   20.2661  -32.1404 H   0  0  0  0  0  0  0  0  0  0  0  0
  -10.2679   22.7501  -32.0366 H   0  0  0  0  0  0  0  0  0  0  0  0
   -8.2307   24.1476  -31.7021 H   0  0  0  0  0  0  0  0  0  0  0  0
   -5.7600   24.1370  -30.9120 H   0  0  0  0  0  0  0  0  0  0  0  0
   -4.4118   21.7489  -32.2081 H   0  0  0  0  0  0  0  0  0  0  0  0
   -4.0473   23.4400  -32.7102 H   0  0  0  0  0  0  0  0  0  0  0  0
   -1.5236   24.5173  -28.5750 H   0  0  0  0  0  0  0  0  0  0  0  0
   -1.0564   21.8553  -28.6889 H   0  0  0  0  0  0  0  0  0  0  0  0
   -2.8610   19.8510  -29.9840 H   0  0  0  0  0  0  0  0  0  0  0  0
   -5.8041   20.5591  -31.5611 H   0  0  0  0  0  0  0  0  0  0  0  0
   -6.7514   16.2386  -32.4996 H   0  0  0  0  0  0  0  0  0  0  0  0
   -7.1358   16.0996  -34.2844 H   0  0  0  0  0  0  0  0  0  0  0  0
   -4.7101   15.6232  -33.5503 H   0  0  0  0  0  0  0  0  0  0  0  0
   -4.9846   16.7554  -34.9276 H   0  0  0  0  0  0  0  0  0  0  0  0
   -4.4307   17.5228  -32.0208 H   0  0  0  0  0  0  0  0  0  0  0  0
   -3.2963   17.6664  -33.4300 H   0  0  0  0  0  0  0  0  0  0  0  0
   -4.9711   19.6692  -32.4820 H   0  0  0  0  0  0  0  0  0  0  0  0
   -4.2058   19.5698  -34.1359 H   0  0  0  0  0  0  0  0  0  0  0  0
   -6.7616   20.0549  -33.9511 H   0  0  0  0  0  0  0  0  0  0  0  0
   -6.1419   18.8274  -35.1467 H   0  0  0  0  0  0  0  0  0  0  0  0
  1  2  2  0
  2  3  2  0
  2  4  1  0
  4  5  2  0
  5  6  1  0
  6  7  2  0
  7  8  1  0
  8  9  1  0
  9 10  1  0
 10 11  1  0
 11 12  1  0
 12 13  1  0
 12 14  2  0
 14 15  1  0
 15 16  2  0
 16 17  1  0
  8 18  2  0
  2 19  1  0
 19 20  1  0
 20 21  1  0
 21 22  1  0
 22 23  1  0
 23 24  1  0
 18  4  1  0
 24 19  1  0
 16 11  1  0
  5 25  1  0
  6 26  1  0
  7 27  1  0
  9 28  1  0
 10 29  1  0
 10 30  1  0
 14 31  1  0
 15 32  1  0
 17 33  1  0
 18 34  1  0
 20 35  1  0
 20 36  1  0
 21 37  1  0
 21 38  1  0
 22 39  1  0
 22 40  1  0
 23 41  1  0
 23 42  1  0
 24 43  1  0
 24 44  1  0
M  CHG  1  13  -1
M  END
>  <UniqueID>  (4) 
3

>  <SMILES>  (4) 
O=S(=O)(c1cccc(NCn2c([O-])ccc2O)c1)N1CCCCC1

>  <Energy>  (4) 
78.49804743136211

>  <Genealogy>  (4) 
O=S(=O)(c1cccc(NCn2c([O-])ccc2O)c1)N1CCCCC1 (protonated)
O=S(=O)(c1cccc(NCn2c([O-])ccc2O)c1)N1CCCCC1 (3D coordinates assigned)
O=S(=O)(c1cccc(NCn2c([O-])ccc2O)c1)N1CCCCC1 (nonaromatic ring conformer: 78.49804743136211 kcal/mol)

>  <smiles>  (4) 
O=S(=O)(c1cccc(NCn2c(O)ccc2O)c1)N1CCCCC1

>  <score_type>  (4) 
oracle

>  <origin>  (4) 
adgpu

>  <m_score__min__energy>  (4) 
-10.76

>  <m_primary>  (4) 
energy

$$$$
4:0
     RDKit          3D

 44 46  0  0  0  0  0  0  0  0999 V2000
   -7.5470   21.8960  -30.6770 C   0  0  0  0  0  0  0  0  0  0  0  0
   -6.5770   21.2290  -31.6180 C   0  0  0  0  0  0  0  0  0  0  0  0
   -6.8940   19.9600  -32.1280 C   0  0  0  0  0  0  0  0  0  0  0  0
   -6.0290   19.3140  -33.0110 C   0  0  0  0  0  0  0  0  0  0  0  0
   -4.8310   19.9190  -33.3930 C   0  0  0  0  0  0  0  0  0  0  0  0
   -3.9880   19.2600  -34.2790 O   0  0  0  0  0  0  0  0  0  0  0  0
   -4.4830   21.1780  -32.8780 C   0  0  0  0  0  0  0  0  0  0  0  0
   -3.2760   21.7790  -33.2420 O   0  0  0  0  0  0  0  0  0  0  0  0
   -5.3470   21.8360  -31.9790 C   0  0  0  0  0  0  0  0  0  0  0  0
   -4.9440   23.1480  -31.4240 C   0  0  0  0  0  0  0  0  0  0  0  0
   -5.3710   24.1930  -31.9840 O   0  0  0  0  0  0  0  0  0  0  0  0
   -4.0230   23.2510  -30.2610 C   0  0  0  0  0  0  0  0  0  0  0  0
   -3.6430   22.0890  -29.5620 C   0  0  0  0  0  0  0  0  0  0  0  0
   -2.7500   22.1590  -28.4850 C   0  0  0  0  0  0  0  0  0  0  0  0
   -2.2650   20.6860  -27.6440 S   0  0  0  0  0  0  0  0  0  0  0  0
   -1.3110   21.0390  -26.5370 O   0  0  0  0  0  0  0  0  0  0  0  0
   -3.4830   20.0650  -27.0190 O   0  0  0  0  0  0  0  0  0  0  0  0
   -1.5050   19.5210  -28.7090 N   0  0  0  0  0  0  0  0  0  0  0  0
   -0.3630   18.8380  -28.0730 C   0  0  0  0  0  0  0  0  0  0  0  0
    0.9450   19.6620  -28.1330 C   0  0  0  0  0  0  0  0  0  0  0  0
    0.8560   20.7970  -28.9700 O   0  0  0  0  0  0  0  0  0  0  0  0
    0.2950   20.4330  -30.2100 C   0  0  0  0  0  0  0  0  0  0  0  0
   -1.1920   20.0760  -30.0430 C   0  0  0  0  0  0  0  0  0  0  0  0
   -2.2380   23.4010  -28.0900 C   0  0  0  0  0  0  0  0  0  0  0  0
   -2.6090   24.5600  -28.7710 C   0  0  0  0  0  0  0  0  0  0  0  0
   -3.4950   24.4950  -29.8510 C   0  0  0  0  0  0  0  0  0  0  0  0
   -3.8520   25.6740  -30.4980 O   0  0  0  0  0  0  0  0  0  0  0  0
   -7.2494   21.6914  -29.6380 H   0  0  0  0  0  0  0  0  0  0  0  0
   -7.5409   22.9818  -30.8531 H   0  0  0  0  0  0  0  0  0  0  0  0
   -8.5587   21.5017  -30.8531 H   0  0  0  0  0  0  0  0  0  0  0  0
   -7.8327   19.4710  -31.8286 H   0  0  0  0  0  0  0  0  0  0  0  0
   -6.2925   18.3227  -33.4083 H   0  0  0  0  0  0  0  0  0  0  0  0
   -2.8340   21.6090  -34.1370 H   0  0  0  0  0  0  0  0  0  0  0  0
   -4.0525   21.1142  -29.8655 H   0  0  0  0  0  0  0  0  0  0  0  0
   -0.6106   18.6500  -27.0178 H   0  0  0  0  0  0  0  0  0  0  0  0
   -0.1887   17.9039  -28.6271 H   0  0  0  0  0  0  0  0  0  0  0  0
    1.1923   19.9980  -27.1152 H   0  0  0  0  0  0  0  0  0  0  0  0
    1.7217   19.0075  -28.5553 H   0  0  0  0  0  0  0  0  0  0  0  0
    0.3888   21.2753  -30.9112 H   0  0  0  0  0  0  0  0  0  0  0  0
    0.8308   19.5548  -30.5994 H   0  0  0  0  0  0  0  0  0  0  0  0
   -1.7904   20.9866  -30.1933 H   0  0  0  0  0  0  0  0  0  0  0  0
   -1.4306   19.3014  -30.7866 H   0  0  0  0  0  0  0  0  0  0  0  0
   -1.5416   23.4626  -27.2407 H   0  0  0  0  0  0  0  0  0  0  0  0
   -2.2018   25.5322  -28.4564 H   0  0  0  0  0  0  0  0  0  0  0  0
  1  2  1  0
  2  3  2  0
  3  4  1  0
  4  5  2  0
  5  6  1  0
  5  7  1  0
  7  8  1  0
  7  9  2  0
  9 10  1  0
 10 11  2  0
 10 12  1  0
 12 13  2  0
 13 14  1  0
 14 15  1  0
 15 16  2  0
 15 17  2  0
 15 18  1  0
 18 19  1  0
 19 20  1  0
 20 21  1  0
 21 22  1  0
 22 23  1  0
 14 24  2  0
 24 25  1  0
 25 26  2  0
 26 27  1  0
  9  2  1  0
 26 12  1  0
 23 18  1  0
  1 28  1  0
  1 29  1  0
  1 30  1  0
  3 31  1  0
  4 32  1  0
  8 33  1  0
 13 34  1  0
 19 35  1  0
 19 36  1  0
 20 37  1  0
 20 38  1  0
 22 39  1  0
 22 40  1  0
 23 41  1  0
 23 42  1  0
 24 43  1  0
 25 44  1  0
M  CHG  2   6  -1  27  -1
M  END
>  <UniqueID>  (5) 
4

>  <SMILES>  (5) 
Cc1ccc([O-])c(O)c1C(=O)c1cc(S(=O)(=O)N2CCOCC2)ccc1[O-]

>  <Energy>  (5) 
65.8466323692039

>  <Genealogy>  (5) 
Cc1ccc([O-])c(O)c1C(=O)c1cc(S(=O)(=O)N2CCOCC2)ccc1[O-] (protonated)
Cc1ccc([O-])c(O)c1C(=O)c1cc(S(=O)(=O)N2CCOCC2)ccc1[O-] (3D coordinates assigned)
Cc1ccc([O-])c(O)c1C(=O)c1cc(S(=O)(=O)N2CCOCC2)ccc1[O-] (nonaromatic ring conformer: 65.8466323692039 kcal/mol)

>  <smiles>  (5) 
Cc1ccc(O)c(O)c1C(=O)c1cc(S(=O)(=O)N2CCOCC2)ccc1O

>  <score_type>  (5) 
oracle

>  <origin>  (5) 
adgpu

>  <m_score__min__energy>  (5) 
-12.300000000000001

>  <m_primary>  (5) 
energy

$$$$
5:0
     RDKit          3D

 45 47  0  0  0  0  0  0  0  0999 V2000
   -4.3560   18.2600  -34.1960 C   0  0  0  0  0  0  0  0  0  0  0  0
   -5.3030   19.1440  -33.4450 C   0  0  0  0  0  0  0  0  0  0  0  0
   -6.5660   18.7820  -33.1490 N   0  0  0  0  0  0  0  0  0  0  0  0
   -7.1500   19.8360  -32.5450 C   0  0  0  0  0  0  0  0  0  0  0  0
   -8.5690   19.8340  -32.0710 C   0  0  0  0  0  0  0  0  0  0  0  0
   -6.2450   20.8810  -32.4340 C   0  0  0  0  0  0  0  0  0  0  0  0
   -6.5280   22.4700  -31.7260 S   0  0  0  0  0  0  0  0  0  0  0  0
   -7.4700   23.2600  -32.5900 O   0  0  0  0  0  0  0  0  0  0  0  0
   -7.1400   22.2910  -30.3640 O   0  0  0  0  0  0  0  0  0  0  0  0
   -5.0120   23.3030  -31.5910 N   0  0  0  0  0  0  0  0  0  0  0  0
   -4.1730   23.2600  -30.4210 C   0  0  0  0  0  0  0  0  0  0  0  0
   -3.8990   22.0480  -29.7550 C   0  0  0  0  0  0  0  0  0  0  0  0
   -3.0820   22.0300  -28.6190 C   0  0  0  0  0  0  0  0  0  0  0  0
   -2.7500   20.5150  -27.8010 Cl  0  0  0  0  0  0  0  0  0  0  0  0
   -2.5330   23.2190  -28.1340 C   0  0  0  0  0  0  0  0  0  0  0  0
   -2.8010   24.4270  -28.7800 C   0  0  0  0  0  0  0  0  0  0  0  0
   -3.6170   24.4530  -29.9160 C   0  0  0  0  0  0  0  0  0  0  0  0
   -3.8660   25.6700  -30.5410 O   0  0  0  0  0  0  0  0  0  0  0  0
   -5.0650   20.4400  -33.0080 C   0  0  0  0  0  0  0  0  0  0  0  0
   -3.8320   21.2260  -33.1860 C   0  0  0  0  0  0  0  0  0  0  0  0
   -3.8970   22.3390  -33.7730 O   0  0  0  0  0  0  0  0  0  0  0  0
   -2.5710   20.7560  -32.6850 N   0  0  0  0  0  0  0  0  0  0  0  0
   -1.3040   21.3730  -33.0340 C   0  0  0  0  0  0  0  0  0  0  0  0
   -0.2430   20.5790  -32.2850 C   0  0  0  0  0  0  0  0  0  0  0  0
   -0.9880   19.8270  -31.1840 C   0  0  0  0  0  0  0  0  0  0  0  0
   -2.4390   19.7560  -31.6370 C   0  0  0  0  0  0  0  0  0  0  0  0
   -3.7439   17.6886  -33.4827 H   0  0  0  0  0  0  0  0  0  0  0  0
   -4.9271   17.5645  -34.8285 H   0  0  0  0  0  0  0  0  0  0  0  0
   -3.7014   18.8775  -34.8285 H   0  0  0  0  0  0  0  0  0  0  0  0
   -7.0150   17.8650  -33.3700 H   0  0  0  0  0  0  0  0  0  0  0  0
   -8.5882   19.8340  -30.9712 H   0  0  0  0  0  0  0  0  0  0  0  0
   -9.0823   20.7314  -32.4467 H   0  0  0  0  0  0  0  0  0  0  0  0
   -9.0798   18.9351  -32.4467 H   0  0  0  0  0  0  0  0  0  0  0  0
   -4.6810   23.8040  -32.4440 H   0  0  0  0  0  0  0  0  0  0  0  0
   -4.3309   21.1089  -30.1313 H   0  0  0  0  0  0  0  0  0  0  0  0
   -1.8890   23.2036  -27.2424 H   0  0  0  0  0  0  0  0  0  0  0  0
   -2.3689   25.3622  -28.3943 H   0  0  0  0  0  0  0  0  0  0  0  0
   -1.1337   21.3134  -34.1191 H   0  0  0  0  0  0  0  0  0  0  0  0
   -1.2818   22.4390  -32.7634 H   0  0  0  0  0  0  0  0  0  0  0  0
    0.2556   19.8707  -32.9631 H   0  0  0  0  0  0  0  0  0  0  0  0
    0.5374   21.2347  -31.8715 H   0  0  0  0  0  0  0  0  0  0  0  0
   -0.5744   18.8148  -31.0645 H   0  0  0  0  0  0  0  0  0  0  0  0
   -0.8922   20.3337  -30.2124 H   0  0  0  0  0  0  0  0  0  0  0  0
   -2.6700   18.7550  -32.0302 H   0  0  0  0  0  0  0  0  0  0  0  0
   -3.1346   19.9434  -30.8057 H   0  0  0  0  0  0  0  0  0  0  0  0
  1  2  1  0
  2  3  1  0
  3  4  1  0
  4  5  1  0
  4  6  2  0
  6  7  1  0
  7  8  2  0
  7  9  2  0
  7 10  1  0
 10 11  1  0
 11 12  2  0
 12 13  1  0
 13 14  1  0
 13 15  2  0
 15 16  1  0
 16 17  2  0
 17 18  1  0
  6 19  1  0
 19 20  1  0
 20 21  2  0
 20 22  1  0
 22 23  1  0
 23 24  1  0
 24 25  1  0
 25 26  1  0
 19  2  2  0
 26 22  1  0
 17 11  1  0
  1 27  1  0
  1 28  1  0
  1 29  1  0
  3 30  1  0
  5 31  1  0
  5 32  1  0
  5 33  1  0
 10 34  1  0
 12 35  1  0
 15 36  1  0
 16 37  1  0
 23 38  1  0
 23 39  1  0
 24 40  1  0
 24 41  1  0
 25 42  1  0
 25 43  1  0
 26 44  1  0
 26 45  1  0
M  CHG  1  18  -1
M  END
>  <UniqueID>  (6) 
5

>  <SMILES>  (6) 
Cc1[nH]c(C)c(S(=O)(=O)Nc2cc(Cl)ccc2[O-])c1C(=O)N1CCCC1

>  <Energy>  (6) 
78.5085359302156

>  <Genealogy>  (6) 
Cc1[nH]c(C)c(S(=O)(=O)Nc2cc(Cl)ccc2[O-])c1C(=O)N1CCCC1 (protonated)
Cc1[nH]c(C)c(S(=O)(=O)Nc2cc(Cl)ccc2[O-])c1C(=O)N1CCCC1 (3D coordinates assigned)
Cc1[nH]c(C)c(S(=O)(=O)Nc2cc(Cl)ccc2[O-])c1C(=O)N1CCCC1 (nonaromatic ring conformer: 78.5085359302156 kcal/mol)

>  <smiles>  (6) 
Cc1[nH]c(C)c(S(=O)(=O)Nc2cc(Cl)ccc2O)c1C(=O)N1CCCC1

>  <score_type>  (6) 
oracle

>  <origin>  (6) 
adgpu

>  <m_score__min__energy>  (6) 
-11.74

>  <m_primary>  (6) 
energy

$$$$
6:0
     RDKit          3D

 41 43  0  0  0  0  0  0  0  0999 V2000
   -1.9420   24.1100  -28.7400 C   0  0  0  0  0  0  0  0  0  0  0  0
   -3.2360   24.1100  -29.4810 C   0  0  0  0  0  0  0  0  0  0  0  0
   -4.3000   23.2640  -29.2600 C   0  0  0  0  0  0  0  0  0  0  0  0
   -5.2250   23.6560  -30.2080 C   0  0  0  0  0  0  0  0  0  0  0  0
   -6.5750   23.0790  -30.3830 C   0  0  0  0  0  0  0  0  0  0  0  0
   -7.3790   23.1360  -29.4130 O   0  0  0  0  0  0  0  0  0  0  0  0
   -6.9910   22.4510  -31.6160 N   0  0  0  0  0  0  0  0  0  0  0  0
   -6.0190   21.7880  -32.4940 C   0  0  0  0  0  0  0  0  0  0  0  0
   -6.7070   20.7980  -33.4510 C   0  0  0  0  0  0  0  0  0  0  0  0
   -7.7760   19.9900  -32.8010 N   0  0  0  0  0  0  0  0  0  0  0  0
   -7.2320   18.7870  -32.1000 C   0  0  0  0  0  0  0  0  0  0  0  0
   -7.6290   17.4260  -32.7090 C   0  0  0  0  0  0  0  0  0  0  0  0
   -6.3470   16.6030  -32.8180 C   0  0  0  0  0  0  0  0  0  0  0  0
   -5.3000   17.3270  -31.9900 C   0  0  0  0  0  0  0  0  0  0  0  0
   -5.6980   18.7890  -32.0250 C   0  0  0  0  0  0  0  0  0  0  0  0
   -8.7520   20.7930  -31.9950 C   0  0  0  0  0  0  0  0  0  0  0  0
   -8.4140   22.2880  -31.9230 C   0  0  0  0  0  0  0  0  0  0  0  0
   -4.7230   24.6780  -30.9300 N   0  0  0  0  0  0  0  0  0  0  0  0
   -3.5290   24.9190  -30.4700 O   0  0  0  0  0  0  0  0  0  0  0  0
   -1.6238   23.0729  -28.5578 H   0  0  0  0  0  0  0  0  0  0  0  0
   -1.1775   24.6285  -29.3372 H   0  0  0  0  0  0  0  0  0  0  0  0
   -2.0701   24.6285  -27.7784 H   0  0  0  0  0  0  0  0  0  0  0  0
   -4.3914   22.4664  -28.5080 H   0  0  0  0  0  0  0  0  0  0  0  0
   -5.4936   22.5514  -33.0865 H   0  0  0  0  0  0  0  0  0  0  0  0
   -5.3128   21.2260  -31.8651 H   0  0  0  0  0  0  0  0  0  0  0  0
   -7.1554   21.3677  -34.2783 H   0  0  0  0  0  0  0  0  0  0  0  0
   -5.9359   20.0949  -33.7989 H   0  0  0  0  0  0  0  0  0  0  0  0
   -8.3230   19.6030  -33.6090 H   0  0  0  0  0  0  0  0  0  0  0  0
   -7.6929   18.8797  -31.1055 H   0  0  0  0  0  0  0  0  0  0  0  0
   -8.3529   16.9155  -32.0567 H   0  0  0  0  0  0  0  0  0  0  0  0
   -8.1006   17.5560  -33.6942 H   0  0  0  0  0  0  0  0  0  0  0  0
   -6.5108   15.5898  -32.4224 H   0  0  0  0  0  0  0  0  0  0  0  0
   -6.0265   16.5016  -33.8654 H   0  0  0  0  0  0  0  0  0  0  0  0
   -5.3012   16.9527  -30.9557 H   0  0  0  0  0  0  0  0  0  0  0  0
   -4.2857   17.1700  -32.3858 H   0  0  0  0  0  0  0  0  0  0  0  0
   -5.3570   19.3035  -31.1145 H   0  0  0  0  0  0  0  0  0  0  0  0
   -5.2454   19.3180  -32.8766 H   0  0  0  0  0  0  0  0  0  0  0  0
   -9.7484   20.6842  -32.4482 H   0  0  0  0  0  0  0  0  0  0  0  0
   -8.7128   20.4059  -30.9661 H   0  0  0  0  0  0  0  0  0  0  0  0
   -8.6373   22.7617  -32.8903 H   0  0  0  0  0  0  0  0  0  0  0  0
   -9.0166   22.7634  -31.1350 H   0  0  0  0  0  0  0  0  0  0  0  0
  1  2  1  0
  2  3  2  0
  3  4  1  0
  4  5  1  0
  5  6  2  0
  5  7  1  0
  7  8  1  0
  8  9  1  0
  9 10  1  0
 10 11  1  0
 11 12  1  0
 12 13  1  0
 13 14  1  0
 14 15  1  0
 10 16  1  0
 16 17  1  0
  4 18  2  0
 18 19  1  0
 19  2  1  0
 17  7  1  0
 15 11  1  0
  1 20  1  0
  1 21  1  0
  1 22  1  0
  3 23  1  0
  8 24  1  0
  8 25  1  0
  9 26  1  0
  9 27  1  0
 10 28  1  0
 11 29  1  0
 12 30  1  0
 12 31  1  0
 13 32  1  0
 13 33  1  0
 14 34  1  0
 14 35  1  0
 15 36  1  0
 15 37  1  0
 16 38  1  0
 16 39  1  0
 17 40  1  0
 17 41  1  0
M  CHG  1  10   1
M  END
>  <UniqueID>  (7) 
6

>  <SMILES>  (7) 
Cc1cc(C(=O)N2CC[NH+](C3CCCC3)CC2)no1

>  <Energy>  (7) 
87.10902783060268

>  <Genealogy>  (7) 
Cc1cc(C(=O)N2CC[NH+](C3CCCC3)CC2)no1 (protonated)
Cc1cc(C(=O)N2CC[NH+](C3CCCC3)CC2)no1 (3D coordinates assigned)
Cc1cc(C(=O)N2CC[NH+](C3CCCC3)CC2)no1 (nonaromatic ring conformer: 87.10902783060268 kcal/mol)

>  <smiles>  (7) 
Cc1cc(C(=O)N2CCN(C3CCCC3)CC2)no1

>  <score_type>  (7) 
oracle

>  <origin>  (7) 
adgpu

>  <m_score__min__energy>  (7) 
-7.9299999999999997

>  <m_primary>  (7) 
energy

$$$$
7:0
     RDKit          3D

 46 49  0  0  0  0  0  0  0  0999 V2000
   -0.6052   18.9667  -35.2260 H   0  0  0  0  0  0  0  0  0  0  0  0
   -1.0660   19.6590  -34.5060 C   0  0  0  0  0  0  0  0  0  0  0  0
   -2.4260   19.3410  -33.5650 S   0  0  0  0  0  0  0  0  0  0  0  0
   -2.3940   20.8490  -32.8340 C   0  0  0  0  0  0  0  0  0  0  0  0
   -3.2590   21.2330  -31.9440 N   0  0  0  0  0  0  0  0  0  0  0  0
   -3.2890   22.5090  -31.2820 C   0  0  0  0  0  0  0  0  0  0  0  0
   -2.2180   23.0390  -30.8780 O   0  0  0  0  0  0  0  0  0  0  0  0
   -4.5890   23.2030  -31.0750 C   0  0  0  0  0  0  0  0  0  0  0  0
   -5.7940   22.5030  -31.2930 C   0  0  0  0  0  0  0  0  0  0  0  0
   -5.7605   21.4519  -31.6156 H   0  0  0  0  0  0  0  0  0  0  0  0
   -7.0330   23.1290  -31.1040 C   0  0  0  0  0  0  0  0  0  0  0  0
   -8.5210   22.2370  -31.4110 S   0  0  0  0  0  0  0  0  0  0  0  0
   -9.1800   21.9140  -30.0990 O   0  0  0  0  0  0  0  0  0  0  0  0
   -9.4640   23.0830  -32.2250 O   0  0  0  0  0  0  0  0  0  0  0  0
   -8.1410   20.7570  -32.2540 N   0  0  0  0  0  0  0  0  0  0  0  0
   -9.3080   19.8800  -32.3380 C   0  0  0  0  0  0  0  0  0  0  0  0
   -9.9303   19.9884  -31.4375 H   0  0  0  0  0  0  0  0  0  0  0  0
   -9.9338   20.1331  -33.2065 H   0  0  0  0  0  0  0  0  0  0  0  0
   -8.7750   18.4600  -32.4400 C   0  0  0  0  0  0  0  0  0  0  0  0
   -9.3847   17.7751  -31.8324 H   0  0  0  0  0  0  0  0  0  0  0  0
   -8.8068   18.0835  -33.4731 H   0  0  0  0  0  0  0  0  0  0  0  0
   -7.3530   18.5250  -31.9040 C   0  0  0  0  0  0  0  0  0  0  0  0
   -7.2474   17.8862  -31.0147 H   0  0  0  0  0  0  0  0  0  0  0  0
   -6.6207   18.1676  -32.6429 H   0  0  0  0  0  0  0  0  0  0  0  0
   -7.1240   19.9850  -31.5410 C   0  0  0  0  0  0  0  0  0  0  0  0
   -7.2310   20.1275  -30.4555 H   0  0  0  0  0  0  0  0  0  0  0  0
   -6.1109   20.3093  -31.8210 H   0  0  0  0  0  0  0  0  0  0  0  0
   -7.0800   24.4690  -30.7070 C   0  0  0  0  0  0  0  0  0  0  0  0
   -8.0510   24.9670  -30.5688 H   0  0  0  0  0  0  0  0  0  0  0  0
   -5.8980   25.1750  -30.4860 C   0  0  0  0  0  0  0  0  0  0  0  0
   -5.9416   26.2273  -30.1685 H   0  0  0  0  0  0  0  0  0  0  0  0
   -4.6580   24.5550  -30.6650 C   0  0  0  0  0  0  0  0  0  0  0  0
   -3.5050   25.2980  -30.4310 O   0  0  0  0  0  0  0  0  0  0  0  0
   -1.3720   21.6070  -33.2850 N   0  0  0  0  0  0  0  0  0  0  0  0
   -0.6220   20.9540  -34.2160 C   0  0  0  0  0  0  0  0  0  0  0  0
    0.5540   21.6030  -34.8560 C   0  0  0  0  0  0  0  0  0  0  0  0
    0.3670   22.7250  -35.6860 C   0  0  0  0  0  0  0  0  0  0  0  0
   -0.6478   23.1138  -35.8565 H   0  0  0  0  0  0  0  0  0  0  0  0
    1.4590   23.3490  -36.2950 C   0  0  0  0  0  0  0  0  0  0  0  0
    1.3004   24.2229  -36.9440 H   0  0  0  0  0  0  0  0  0  0  0  0
    2.7510   22.8650  -36.0810 C   0  0  0  0  0  0  0  0  0  0  0  0
    3.6093   23.3551  -36.5639 H   0  0  0  0  0  0  0  0  0  0  0  0
    2.9530   21.7590  -35.2540 C   0  0  0  0  0  0  0  0  0  0  0  0
    3.9718   21.3813  -35.0826 H   0  0  0  0  0  0  0  0  0  0  0  0
    1.8650   21.1300  -34.6430 C   0  0  0  0  0  0  0  0  0  0  0  0
    2.0325   20.2598  -33.9913 H   0  0  0  0  0  0  0  0  0  0  0  0
  1  2  1  0
  2  3  1  0
  3  4  1  0
  4  5  2  0
  5  6  1  0
  6  7  2  0
  6  8  1  0
  8  9  2  0
  9 10  1  0
  9 11  1  0
 11 12  1  0
 12 13  2  0
 12 14  2  0
 12 15  1  0
 15 16  1  0
 16 17  1  0
 16 18  1  0
 16 19  1  0
 19 20  1  0
 19 21  1  0
 19 22  1  0
 22 23  1  0
 22 24  1  0
 22 25  1  0
 25 26  1  0
 25 27  1  0
 11 28  2  0
 28 29  1  0
 28 30  1  0
 30 31  1  0
 30 32  2  0
 32 33  1  0
  4 34  1  0
 34 35  1  0
 35 36  1  0
 36 37  2  0
 37 38  1  0
 37 39  1  0
 39 40  1  0
 39 41  2  0
 41 42  1  0
 41 43  1  0
 43 44  1  0
 43 45  2  0
 45 46  1  0
 35  2  2  0
 45 36  1  0
 32  8  1  0
 25 15  1  0
M  CHG  2  33  -1  34  -1
M  END
>  <UniqueID>  (8) 
7

>  <SMILES>  (8) 
O=C(/N=c1\[n-]c(-c2ccccc2)cs1)c1cc(S(=O)(=O)N2CCCC2)ccc1[O-]

>  <Energy>  (8) 
86.77817360902583

>  <Genealogy>  (8) 
O=C(N=c1[n-]c(-c2ccccc2)cs1)c1cc(S(=O)(=O)N2CCCC2)ccc1[O-] (protonated)
O=C(/N=c1\[n-]c(-c2ccccc2)cs1)c1cc(S(=O)(=O)N2CCCC2)ccc1[O-] (cis-trans isomerization)
O=C(/N=c1\[n-]c(-c2ccccc2)cs1)c1cc(S(=O)(=O)N2CCCC2)ccc1[O-] (3D coordinates assigned)
O=C(/N=c1\[n-]c(-c2ccccc2)cs1)c1cc(S(=O)(=O)N2CCCC2)ccc1[O-] (nonaromatic ring conformer: 86.77817360902583 kcal/mol)

>  <smiles>  (8) 
O=C(N=c1[nH]c(-c2ccccc2)cs1)c1cc(S(=O)(=O)N2CCCC2)ccc1O

>  <score_type>  (8) 
oracle

>  <origin>  (8) 
adgpu

>  <m_score__min__energy>  (8) 
-13.26

>  <m_primary>  (8) 
energy

$$$$
8:0
     RDKit          3D

 42 44  0  0  0  0  0  0  0  0999 V2000
   -0.3010   21.7640  -31.3080 O   0  0  0  0  0  0  0  0  0  0  0  0
   -1.5250   21.9590  -31.0770 C   0  0  0  0  0  0  0  0  0  0  0  0
   -1.9200   22.9410  -30.1040 N   0  0  0  0  0  0  0  0  0  0  0  0
   -1.0480   23.4210  -29.0650 C   0  0  0  0  0  0  0  0  0  0  0  0
   -0.1850   22.5430  -28.3820 C   0  0  0  0  0  0  0  0  0  0  0  0
    0.6350   23.0140  -27.3530 C   0  0  0  0  0  0  0  0  0  0  0  0
    0.5970   24.3640  -26.9900 C   0  0  0  0  0  0  0  0  0  0  0  0
   -0.2660   25.2420  -27.6520 C   0  0  0  0  0  0  0  0  0  0  0  0
   -1.0910   24.7760  -28.6830 C   0  0  0  0  0  0  0  0  0  0  0  0
   -1.9460   25.6650  -29.3250 O   0  0  0  0  0  0  0  0  0  0  0  0
   -2.5440   21.2110  -31.8500 C   0  0  0  0  0  0  0  0  0  0  0  0
   -3.6290   21.8880  -32.4320 C   0  0  0  0  0  0  0  0  0  0  0  0
   -4.6070   21.1850  -33.1390 C   0  0  0  0  0  0  0  0  0  0  0  0
   -4.5100   19.7950  -33.2820 C   0  0  0  0  0  0  0  0  0  0  0  0
   -5.8030   18.9120  -34.0910 S   0  0  0  0  0  0  0  0  0  0  0  0
   -5.2670   18.1800  -35.2900 O   0  0  0  0  0  0  0  0  0  0  0  0
   -6.8400   19.8950  -34.5560 O   0  0  0  0  0  0  0  0  0  0  0  0
   -6.5410   17.7780  -32.9970 N   0  0  0  0  0  0  0  0  0  0  0  0
   -6.7510   18.3720  -31.6740 C   0  0  0  0  0  0  0  0  0  0  0  0
   -7.7040   19.5360  -31.7490 C   0  0  0  0  0  0  0  0  0  0  0  0
   -7.3180   20.8120  -31.3120 C   0  0  0  0  0  0  0  0  0  0  0  0
   -8.2040   21.8860  -31.4180 C   0  0  0  0  0  0  0  0  0  0  0  0
   -9.4790   21.6700  -31.9480 C   0  0  0  0  0  0  0  0  0  0  0  0
   -9.8480   20.4250  -32.3480 N   0  0  0  0  0  0  0  0  0  0  0  0
   -9.0020   19.3630  -32.2570 C   0  0  0  0  0  0  0  0  0  0  0  0
   -3.4150   19.1170  -32.7310 C   0  0  0  0  0  0  0  0  0  0  0  0
   -2.4400   19.8190  -32.0180 C   0  0  0  0  0  0  0  0  0  0  0  0
   -2.8540   23.3960  -30.2180 H   0  0  0  0  0  0  0  0  0  0  0  0
   -0.1560   21.4791  -28.6602 H   0  0  0  0  0  0  0  0  0  0  0  0
    1.3107   22.3225  -26.8283 H   0  0  0  0  0  0  0  0  0  0  0  0
    1.2464   24.7350  -26.1834 H   0  0  0  0  0  0  0  0  0  0  0  0
   -0.2971   26.3026  -27.3620 H   0  0  0  0  0  0  0  0  0  0  0  0
   -3.7088   22.9804  -32.3300 H   0  0  0  0  0  0  0  0  0  0  0  0
   -5.4558   21.7244  -33.5847 H   0  0  0  0  0  0  0  0  0  0  0  0
   -7.1673   17.6093  -30.9994 H   0  0  0  0  0  0  0  0  0  0  0  0
   -5.7840   18.7351  -31.2958 H   0  0  0  0  0  0  0  0  0  0  0  0
   -6.3160   20.9666  -30.8853 H   0  0  0  0  0  0  0  0  0  0  0  0
   -7.9018   22.8909  -31.0880 H   0  0  0  0  0  0  0  0  0  0  0  0
  -10.1845   22.5088  -32.0414 H   0  0  0  0  0  0  0  0  0  0  0  0
   -9.3356   18.3665  -32.5821 H   0  0  0  0  0  0  0  0  0  0  0  0
   -3.3225   18.0285  -32.8601 H   0  0  0  0  0  0  0  0  0  0  0  0
   -1.5851   19.2789  -31.5851 H   0  0  0  0  0  0  0  0  0  0  0  0
  1  2  2  0
  2  3  1  0
  3  4  1  0
  4  5  2  0
  5  6  1  0
  6  7  2  0
  7  8  1  0
  8  9  2  0
  9 10  1  0
  2 11  1  0
 11 12  2  0
 12 13  1  0
 13 14  2  0
 14 15  1  0
 15 16  2  0
 15 17  2  0
 15 18  1  0
 18 19  1  0
 19 20  1  0
 20 21  2  0
 21 22  1  0
 22 23  2  0
 23 24  1  0
 24 25  2  0
 14 26  1  0
 26 27  2  0
  9  4  1  0
 27 11  1  0
 25 20  1  0
  3 28  1  0
  5 29  1  0
  6 30  1  0
  7 31  1  0
  8 32  1  0
 12 33  1  0
 13 34  1  0
 19 35  1  0
 19 36  1  0
 21 37  1  0
 22 38  1  0
 23 39  1  0
 25 40  1  0
 26 41  1  0
 27 42  1  0
M  CHG  2  10  -1  18  -1
M  END
>  <UniqueID>  (9) 
8

>  <SMILES>  (9) 
O=C(Nc1ccccc1[O-])c1ccc(S(=O)(=O)[N-]Cc2cccnc2)cc1

>  <Energy>  (9) 
47.623288600140754

>  <Genealogy>  (9) 
O=C(Nc1ccccc1[O-])c1ccc(S(=O)(=O)[N-]Cc2cccnc2)cc1 (protonated)
O=C(Nc1ccccc1[O-])c1ccc(S(=O)(=O)[N-]Cc2cccnc2)cc1 (3D coordinates assigned)
O=C(Nc1ccccc1[O-])c1ccc(S(=O)(=O)[N-]Cc2cccnc2)cc1 (optimized conformer: 47.623288600140754 kcal/mol)

>  <smiles>  (9) 
O=C(Nc1ccccc1O)c1ccc(S(=O)(=O)NCc2cccnc2)cc1

>  <score_type>  (9) 
oracle

>  <origin>  (9) 
adgpu

>  <m_score__min__energy>  (9) 
-12.039999999999999

>  <m_primary>  (9) 
energy

$$$$
9:0
     RDKit          3D

 46 48  0  0  0  0  0  0  0  0999 V2000
    0.0530   18.8230  -30.5760 O   0  0  0  0  0  0  0  0  0  0  0  0
   -0.7710   19.7560  -30.3870 C   0  0  0  0  0  0  0  0  0  0  0  0
   -0.8660   20.3430  -29.0800 N   0  0  0  0  0  0  0  0  0  0  0  0
   -2.0920   20.8240  -28.4460 C   0  0  0  0  0  0  0  0  0  0  0  0
   -2.5710   22.1010  -29.0890 C   0  0  0  0  0  0  0  0  0  0  0  0
   -3.7630   22.1190  -29.8330 C   0  0  0  0  0  0  0  0  0  0  0  0
   -4.2250   23.3140  -30.3930 C   0  0  0  0  0  0  0  0  0  0  0  0
   -3.4980   24.4960  -30.2250 C   0  0  0  0  0  0  0  0  0  0  0  0
   -3.9640   25.6800  -30.7820 O   0  0  0  0  0  0  0  0  0  0  0  0
   -2.3010   24.4820  -29.4980 C   0  0  0  0  0  0  0  0  0  0  0  0
   -1.5700   25.6540  -29.3320 O   0  0  0  0  0  0  0  0  0  0  0  0
   -1.8380   23.2890  -28.9340 C   0  0  0  0  0  0  0  0  0  0  0  0
   -1.6420   20.1830  -31.4990 C   0  0  0  0  0  0  0  0  0  0  0  0
   -2.9520   19.6900  -31.5950 C   0  0  0  0  0  0  0  0  0  0  0  0
   -3.7710   20.0590  -32.6710 C   0  0  0  0  0  0  0  0  0  0  0  0
   -5.3970   19.3970  -32.8000 S   0  0  0  0  0  0  0  0  0  0  0  0
   -5.4410   18.0890  -32.0600 O   0  0  0  0  0  0  0  0  0  0  0  0
   -5.7400   19.1600  -34.2450 O   0  0  0  0  0  0  0  0  0  0  0  0
   -6.5430   20.5130  -32.1010 N   0  0  0  0  0  0  0  0  0  0  0  0
   -6.3850   21.8450  -32.7070 C   0  0  0  0  0  0  0  0  0  0  0  0
   -7.2210   22.8850  -31.9390 C   0  0  0  0  0  0  0  0  0  0  0  0
   -8.4160   22.2520  -31.2060 C   0  0  0  0  0  0  0  0  0  0  0  0
   -8.9920   21.0780  -32.0030 C   0  0  0  0  0  0  0  0  0  0  0  0
   -7.9190   20.0050  -32.2940 C   0  0  0  0  0  0  0  0  0  0  0  0
   -3.2810   20.9320  -33.6500 C   0  0  0  0  0  0  0  0  0  0  0  0
   -1.9850   21.4430  -33.5470 C   0  0  0  0  0  0  0  0  0  0  0  0
   -1.1640   21.0750  -32.4760 C   0  0  0  0  0  0  0  0  0  0  0  0
    0.1300   21.5780  -32.4030 O   0  0  0  0  0  0  0  0  0  0  0  0
   -2.8733   20.0563  -28.5463 H   0  0  0  0  0  0  0  0  0  0  0  0
   -1.8811   21.0248  -27.3853 H   0  0  0  0  0  0  0  0  0  0  0  0
   -4.3345   21.1899  -29.9753 H   0  0  0  0  0  0  0  0  0  0  0  0
   -5.1631   23.3240  -30.9673 H   0  0  0  0  0  0  0  0  0  0  0  0
   -0.8957   23.2810  -28.3665 H   0  0  0  0  0  0  0  0  0  0  0  0
   -3.3385   19.0101  -30.8215 H   0  0  0  0  0  0  0  0  0  0  0  0
   -5.3246   22.1354  -32.6731 H   0  0  0  0  0  0  0  0  0  0  0  0
   -6.7325   21.8067  -33.7500 H   0  0  0  0  0  0  0  0  0  0  0  0
   -6.5752   23.3806  -31.1992 H   0  0  0  0  0  0  0  0  0  0  0  0
   -7.6191   23.6023  -32.6718 H   0  0  0  0  0  0  0  0  0  0  0  0
   -8.0831   21.8896  -30.2222 H   0  0  0  0  0  0  0  0  0  0  0  0
   -9.2000   23.0150  -31.0916 H   0  0  0  0  0  0  0  0  0  0  0  0
   -9.8071   20.6195  -31.4238 H   0  0  0  0  0  0  0  0  0  0  0  0
   -9.3612   21.4641  -32.9646 H   0  0  0  0  0  0  0  0  0  0  0  0
   -8.0789   19.1533  -31.6164 H   0  0  0  0  0  0  0  0  0  0  0  0
   -8.0208   19.7077  -33.3482 H   0  0  0  0  0  0  0  0  0  0  0  0
   -3.9174   21.2158  -34.5012 H   0  0  0  0  0  0  0  0  0  0  0  0
   -1.6083   22.1381  -34.3118 H   0  0  0  0  0  0  0  0  0  0  0  0
  1  2  2  0
  2  3  1  0
  3  4  1  0
  4  5  1  0
  5  6  2  0
  6  7  1  0
  7  8  2  0
  8  9  1  0
  8 10  1  0
 10 11  1  0
 10 12  2  0
  2 13  1  0
 13 14  2  0
 14 15  1  0
 15 16  1  0
 16 17  2  0
 16 18  2  0
 16 19  1  0
 19 20  1  0
 20 21  1  0
 21 22  1  0
 22 23  1  0
 23 24  1  0
 15 25  2  0
 25 26  1  0
 26 27  2  0
 27 28  1  0
 12  5  1  0
 27 13  1  0
 24 19  1  0
  4 29  1  0
  4 30  1  0
  6 31  1  0
  7 32  1  0
 12 33  1  0
 14 34  1  0
 20 35  1  0
 20 36  1  0
 21 37  1  0
 21 38  1  0
 22 39  1  0
 22 40  1  0
 23 41  1  0
 23 42  1  0
 24 43  1  0
 24 44  1  0
 25 45  1  0
 26 46  1  0
M  CHG  4   3  -1   9  -1  11  -1  28  -1
M  END
>  <UniqueID>  (10) 
9

>  <SMILES>  (10) 
O=C([N-]Cc1ccc([O-])c([O-])c1)c1cc(S(=O)(=O)N2CCCCC2)ccc1[O-]

>  <Energy>  (10) 
52.25284420057909

>  <Genealogy>  (10) 
O=C([N-]Cc1ccc([O-])c([O-])c1)c1cc(S(=O)(=O)N2CCCCC2)ccc1[O-] (protonated)
O=C([N-]Cc1ccc([O-])c([O-])c1)c1cc(S(=O)(=O)N2CCCCC2)ccc1[O-] (3D coordinates assigned)
O=C([N-]Cc1ccc([O-])c([O-])c1)c1cc(S(=O)(=O)N2CCCCC2)ccc1[O-] (nonaromatic ring conformer: 52.25284420057909 kcal/mol)

>  <smiles>  (10) 
O=C(NCc1ccc(O)c(O)c1)c1cc(S(=O)(=O)N2CCCCC2)ccc1O

>  <score_type>  (10) 
oracle

>  <origin>  (10) 
adgpu

>  <m_score__min__energy>  (10) 
-14.869999999999999

>  <m_primary>  (10) 
energy

$$$$
10:0
     RDKit          3D

 58 61  0  0  0  0  0  0  0  0999 V2000
   -0.3780   27.7530  -23.9690 C   0  0  0  0  0  0  0  0  0  0  0  0
   -0.4150   26.4800  -24.7660 C   0  0  0  0  0  0  0  0  0  0  0  0
   -0.3480   25.2410  -24.1140 C   0  0  0  0  0  0  0  0  0  0  0  0
   -0.4480   24.0480  -24.8450 C   0  0  0  0  0  0  0  0  0  0  0  0
   -0.3320   22.7220  -24.1510 C   0  0  0  0  0  0  0  0  0  0  0  0
   -0.5910   24.1000  -26.2410 C   0  0  0  0  0  0  0  0  0  0  0  0
   -0.6830   25.3370  -26.9090 C   0  0  0  0  0  0  0  0  0  0  0  0
   -0.8440   25.3820  -28.3840 C   0  0  0  0  0  0  0  0  0  0  0  0
   -1.2490   26.4380  -28.9410 O   0  0  0  0  0  0  0  0  0  0  0  0
   -0.5750   24.2220  -29.1810 N   0  0  0  0  0  0  0  0  0  0  0  0
   -1.3250   23.0070  -29.0520 C   0  0  0  0  0  0  0  0  0  0  0  0
   -0.6870   21.8840  -28.5030 C   0  0  0  0  0  0  0  0  0  0  0  0
   -1.4050   20.7100  -28.2570 C   0  0  0  0  0  0  0  0  0  0  0  0
   -2.7650   20.6490  -28.5600 C   0  0  0  0  0  0  0  0  0  0  0  0
   -3.4070   21.7510  -29.1340 C   0  0  0  0  0  0  0  0  0  0  0  0
   -2.6950   22.9350  -29.4100 C   0  0  0  0  0  0  0  0  0  0  0  0
   -3.3740   24.0280  -30.1530 C   0  0  0  0  0  0  0  0  0  0  0  0
   -3.5000   25.1750  -29.6360 O   0  0  0  0  0  0  0  0  0  0  0  0
   -3.8550   23.8000  -31.4800 N   0  0  0  0  0  0  0  0  0  0  0  0
   -4.9060   22.8710  -31.7980 C   0  0  0  0  0  0  0  0  0  0  0  0
   -6.2340   22.9780  -31.4260 C   0  0  0  0  0  0  0  0  0  0  0  0
   -6.8540   24.1310  -30.6920 C   0  0  0  0  0  0  0  0  0  0  0  0
   -6.8670   21.8150  -31.7440 N   0  0  0  0  0  0  0  0  0  0  0  0
   -8.2630   21.4820  -31.4380 C   0  0  0  0  0  0  0  0  0  0  0  0
   -5.9910   20.9920  -32.3200 N   0  0  0  0  0  0  0  0  0  0  0  0
   -6.2590   19.6500  -32.7740 C   0  0  0  0  0  0  0  0  0  0  0  0
   -6.9120   18.7320  -31.9300 C   0  0  0  0  0  0  0  0  0  0  0  0
   -7.1510   17.4220  -32.3590 C   0  0  0  0  0  0  0  0  0  0  0  0
   -6.7490   17.0190  -33.6360 C   0  0  0  0  0  0  0  0  0  0  0  0
   -6.0960   17.9220  -34.4830 C   0  0  0  0  0  0  0  0  0  0  0  0
   -5.8450   19.2300  -34.0530 C   0  0  0  0  0  0  0  0  0  0  0  0
   -4.7900   21.6100  -32.3480 C   0  0  0  0  0  0  0  0  0  0  0  0
   -3.7300   21.0900  -32.7880 O   0  0  0  0  0  0  0  0  0  0  0  0
   -0.6060   26.5250  -26.1600 C   0  0  0  0  0  0  0  0  0  0  0  0
   -0.3850   27.5137  -22.8954 H   0  0  0  0  0  0  0  0  0  0  0  0
    0.5368   28.3126  -24.2140 H   0  0  0  0  0  0  0  0  0  0  0  0
   -1.2587   28.3648  -24.2140 H   0  0  0  0  0  0  0  0  0  0  0  0
   -0.2162   25.2040  -23.0226 H   0  0  0  0  0  0  0  0  0  0  0  0
   -0.3455   22.8758  -23.0619 H   0  0  0  0  0  0  0  0  0  0  0  0
   -1.1775   22.0810  -24.4413 H   0  0  0  0  0  0  0  0  0  0  0  0
    0.6120   22.2376  -24.4413 H   0  0  0  0  0  0  0  0  0  0  0  0
   -0.6316   23.1650  -26.8191 H   0  0  0  0  0  0  0  0  0  0  0  0
    0.3859   21.9279  -28.2645 H   0  0  0  0  0  0  0  0  0  0  0  0
   -0.8977   19.8349  -27.8247 H   0  0  0  0  0  0  0  0  0  0  0  0
   -3.3340   19.7320  -28.3470 H   0  0  0  0  0  0  0  0  0  0  0  0
   -4.4792   21.6927  -29.3725 H   0  0  0  0  0  0  0  0  0  0  0  0
   -6.7653   23.9660  -29.6081 H   0  0  0  0  0  0  0  0  0  0  0  0
   -6.3345   25.0614  -30.9650 H   0  0  0  0  0  0  0  0  0  0  0  0
   -7.9166   24.2107  -30.9650 H   0  0  0  0  0  0  0  0  0  0  0  0
   -8.4015   21.4490  -30.3472 H   0  0  0  0  0  0  0  0  0  0  0  0
   -8.9254   22.2473  -31.8687 H   0  0  0  0  0  0  0  0  0  0  0  0
   -8.5086   20.5001  -31.8687 H   0  0  0  0  0  0  0  0  0  0  0  0
   -7.2363   19.0465  -30.9271 H   0  0  0  0  0  0  0  0  0  0  0  0
   -7.6556   16.7084  -31.6910 H   0  0  0  0  0  0  0  0  0  0  0  0
   -6.9461   15.9914  -33.9754 H   0  0  0  0  0  0  0  0  0  0  0  0
   -5.7799   17.6034  -35.4873 H   0  0  0  0  0  0  0  0  0  0  0  0
   -5.3218   19.9335  -34.7173 H   0  0  0  0  0  0  0  0  0  0  0  0
   -0.6957   27.4968  -26.6674 H   0  0  0  0  0  0  0  0  0  0  0  0
  1  2  1  0
  2  3  2  0
  3  4  1  0
  4  5  1  0
  4  6  2  0
  6  7  1  0
  7  8  1  0
  8  9  2  0
  8 10  1  0
 10 11  1  0
 11 12  2  0
 12 13  1  0
 13 14  2  0
 14 15  1  0
 15 16  2  0
 16 17  1  0
 17 18  2  0
 17 19  1  0
 19 20  1  0
 20 21  2  0
 21 22  1  0
 21 23  1  0
 23 24  1  0
 23 25  1  0
 25 26  1  0
 26 27  2  0
 27 28  1  0
 28 29  2  0
 29 30  1  0
 30 31  2  0
 25 32  1  0
 32 33  2  0
  7 34  2  0
 34  2  1  0
 16 11  1  0
 32 20  1  0
 31 26  1  0
  1 35  1  0
  1 36  1  0
  1 37  1  0
  3 38  1  0
  5 39  1  0
  5 40  1  0
  5 41  1  0
  6 42  1  0
 12 43  1  0
 13 44  1  0
 14 45  1  0
 15 46  1  0
 22 47  1  0
 22 48  1  0
 22 49  1  0
 24 50  1  0
 24 51  1  0
 24 52  1  0
 27 53  1  0
 28 54  1  0
 29 55  1  0
 30 56  1  0
 31 57  1  0
 34 58  1  0
M  CHG  2  10  -1  19  -1
M  END
>  <UniqueID>  (11) 
10

>  <SMILES>  (11) 
Cc1cc(C)cc(C(=O)[N-]c2ccccc2C(=O)[N-]c2c(C)n(C)n(-c3ccccc3)c2=O)c1

>  <Energy>  (11) 
118.85987731854014

>  <Genealogy>  (11) 
Cc1cc(C)cc(C(=O)[N-]c2ccccc2C(=O)[N-]c2c(C)n(C)n(-c3ccccc3)c2=O)c1 (protonated)
Cc1cc(C)cc(C(=O)[N-]c2ccccc2C(=O)[N-]c2c(C)n(C)n(-c3ccccc3)c2=O)c1 (3D coordinates assigned)
Cc1cc(C)cc(C(=O)[N-]c2ccccc2C(=O)[N-]c2c(C)n(C)n(-c3ccccc3)c2=O)c1 (optimized conformer: 118.85987731854014 kcal/mol)

>  <smiles>  (11) 
Cc1cc(C)cc(C(=O)Nc2ccccc2C(=O)Nc2c(C)n(C)n(-c3ccccc3)c2=O)c1

>  <score_type>  (11) 
oracle

>  <origin>  (11) 
adgpu

>  <m_score__min__energy>  (11) 
-12.890000000000001

>  <m_primary>  (11) 
energy

$$$$
11:0
     RDKit          3D

 60 63  0  0  0  0  0  0  0  0999 V2000
   -1.9720   21.7450  -33.3290 O   0  0  0  0  0  0  0  0  0  0  0  0
   -2.9420   21.8010  -32.5290 C   0  0  0  0  0  0  0  0  0  0  0  0
   -3.1810   23.0250  -31.8240 N   0  0  0  0  0  0  0  0  0  0  0  0
   -4.4260   23.4210  -31.2350 C   0  0  0  0  0  0  0  0  0  0  0  0
   -5.5890   22.7270  -31.5890 C   0  0  0  0  0  0  0  0  0  0  0  0
   -6.8290   23.0900  -31.0460 C   0  0  0  0  0  0  0  0  0  0  0  0
   -8.2720   22.1870  -31.5030 S   0  0  0  0  0  0  0  0  0  0  0  0
   -9.1680   23.0370  -32.3620 O   0  0  0  0  0  0  0  0  0  0  0  0
   -9.0150   21.8090  -30.2520 O   0  0  0  0  0  0  0  0  0  0  0  0
   -7.8040   20.7500  -32.3790 N   0  0  0  0  0  0  0  0  0  0  0  0
   -8.9960   20.0160  -32.8760 C   0  0  0  0  0  0  0  0  0  0  0  0
   -9.3370   18.7810  -32.0290 C   0  0  0  0  0  0  0  0  0  0  0  0
   -8.1570   17.7960  -31.9810 C   0  0  0  0  0  0  0  0  0  0  0  0
   -6.7910   18.4990  -32.0660 C   0  0  0  0  0  0  0  0  0  0  0  0
   -6.8810   19.9410  -31.5540 C   0  0  0  0  0  0  0  0  0  0  0  0
   -6.9070   24.1720  -30.1600 C   0  0  0  0  0  0  0  0  0  0  0  0
   -5.7560   24.8910  -29.8280 C   0  0  0  0  0  0  0  0  0  0  0  0
   -4.5190   24.5310  -30.3720 C   0  0  0  0  0  0  0  0  0  0  0  0
   -3.3970   25.2960  -30.0710 O   0  0  0  0  0  0  0  0  0  0  0  0
   -3.8080   20.6650  -32.3510 N   0  0  0  0  0  0  0  0  0  0  0  0
   -3.6500   19.4200  -33.0500 C   0  0  0  0  0  0  0  0  0  0  0  0
   -2.5820   18.5750  -32.7160 C   0  0  0  0  0  0  0  0  0  0  0  0
   -2.4140   17.3530  -33.3710 C   0  0  0  0  0  0  0  0  0  0  0  0
   -3.3210   16.9520  -34.3620 C   0  0  0  0  0  0  0  0  0  0  0  0
   -3.0930   15.4220  -35.2110 S   0  0  0  0  0  0  0  0  0  0  0  0
   -3.4530   15.6020  -36.6590 O   0  0  0  0  0  0  0  0  0  0  0  0
   -1.6430   15.0300  -35.1410 O   0  0  0  0  0  0  0  0  0  0  0  0
   -4.0710   14.1390  -34.5270 N   0  0  0  0  0  0  0  0  0  0  0  0
   -3.3340   13.4040  -33.4940 C   0  0  0  0  0  0  0  0  0  0  0  0
   -3.7460   13.9440  -32.1330 C   0  0  0  0  0  0  0  0  0  0  0  0
   -4.9960   14.7660  -32.3750 C   0  0  0  0  0  0  0  0  0  0  0  0
   -5.2670   14.6800  -33.8700 C   0  0  0  0  0  0  0  0  0  0  0  0
   -4.4100   17.7760  -34.6720 C   0  0  0  0  0  0  0  0  0  0  0  0
   -4.5780   19.0010  -34.0200 C   0  0  0  0  0  0  0  0  0  0  0  0
   -5.5291   21.8894  -32.2996 H   0  0  0  0  0  0  0  0  0  0  0  0
   -9.8584   20.6987  -32.8633 H   0  0  0  0  0  0  0  0  0  0  0  0
   -8.7654   19.6642  -33.8924 H   0  0  0  0  0  0  0  0  0  0  0  0
   -9.5770   19.1034  -31.0051 H   0  0  0  0  0  0  0  0  0  0  0  0
  -10.1975   18.2714  -32.4872 H   0  0  0  0  0  0  0  0  0  0  0  0
   -8.2055   17.2349  -31.0361 H   0  0  0  0  0  0  0  0  0  0  0  0
   -8.2433   17.1323  -32.8540 H   0  0  0  0  0  0  0  0  0  0  0  0
   -6.0631   17.9453  -31.4548 H   0  0  0  0  0  0  0  0  0  0  0  0
   -6.4736   18.5208  -33.1190 H   0  0  0  0  0  0  0  0  0  0  0  0
   -7.2449   19.9301  -30.5160 H   0  0  0  0  0  0  0  0  0  0  0  0
   -5.8794   20.3920  -31.6118 H   0  0  0  0  0  0  0  0  0  0  0  0
   -7.8764   24.4562  -29.7247 H   0  0  0  0  0  0  0  0  0  0  0  0
   -5.8230   25.7435  -29.1361 H   0  0  0  0  0  0  0  0  0  0  0  0
   -4.5520   20.7120  -31.6190 H   0  0  0  0  0  0  0  0  0  0  0  0
   -1.8714   18.8768  -31.9324 H   0  0  0  0  0  0  0  0  0  0  0  0
   -1.5667   16.7026  -33.1083 H   0  0  0  0  0  0  0  0  0  0  0  0
   -3.5753   12.3326  -33.5570 H   0  0  0  0  0  0  0  0  0  0  0  0
   -2.2512   13.5324  -33.6391 H   0  0  0  0  0  0  0  0  0  0  0  0
   -3.9603   13.1159  -31.4414 H   0  0  0  0  0  0  0  0  0  0  0  0
   -2.9466   14.5477  -31.6785 H   0  0  0  0  0  0  0  0  0  0  0  0
   -5.8426   14.3515  -31.8080 H   0  0  0  0  0  0  0  0  0  0  0  0
   -4.8648   15.8077  -32.0470 H   0  0  0  0  0  0  0  0  0  0  0  0
   -6.1246   14.0164  -34.0546 H   0  0  0  0  0  0  0  0  0  0  0  0
   -5.4994   15.6779  -34.2701 H   0  0  0  0  0  0  0  0  0  0  0  0
   -5.1375   17.4574  -35.4331 H   0  0  0  0  0  0  0  0  0  0  0  0
   -5.4391   19.6395  -34.2665 H   0  0  0  0  0  0  0  0  0  0  0  0
  1  2  2  0
  2  3  1  0
  3  4  1  0
  4  5  2  0
  5  6  1  0
  6  7  1  0
  7  8  2  0
  7  9  2  0
  7 10  1  0
 10 11  1  0
 11 12  1  0
 12 13  1  0
 13 14  1  0
 14 15  1  0
  6 16  2  0
 16 17  1  0
 17 18  2  0
 18 19  1  0
  2 20  1  0
 20 21  1  0
 21 22  2  0
 22 23  1  0
 23 24  2  0
 24 25  1  0
 25 26  2  0
 25 27  2  0
 25 28  1  0
 28 29  1  0
 29 30  1  0
 30 31  1  0
 31 32  1  0
 24 33  1  0
 33 34  2  0
 18  4  1  0
 34 21  1  0
 15 10  1  0
 32 28  1  0
  5 35  1  0
 11 36  1  0
 11 37  1  0
 12 38  1  0
 12 39  1  0
 13 40  1  0
 13 41  1  0
 14 42  1  0
 14 43  1  0
 15 44  1  0
 15 45  1  0
 16 46  1  0
 17 47  1  0
 20 48  1  0
 22 49  1  0
 23 50  1  0
 29 51  1  0
 29 52  1  0
 30 53  1  0
 30 54  1  0
 31 55  1  0
 31 56  1  0
 32 57  1  0
 32 58  1  0
 33 59  1  0
 34 60  1  0
M  CHG  2   3  -1  19  -1
M  END
>  <UniqueID>  (12) 
11

>  <SMILES>  (12) 
O=C([N-]c1cc(S(=O)(=O)N2CCCCC2)ccc1[O-])Nc1ccc(S(=O)(=O)N2CCCC2)cc1

>  <Energy>  (12) 
76.85582119755092

>  <Genealogy>  (12) 
O=C([N-]c1cc(S(=O)(=O)N2CCCCC2)ccc1[O-])Nc1ccc(S(=O)(=O)N2CCCC2)cc1 (protonated)
O=C([N-]c1cc(S(=O)(=O)N2CCCCC2)ccc1[O-])Nc1ccc(S(=O)(=O)N2CCCC2)cc1 (3D coordinates assigned)
O=C([N-]c1cc(S(=O)(=O)N2CCCCC2)ccc1[O-])Nc1ccc(S(=O)(=O)N2CCCC2)cc1 (nonaromatic ring conformer: 76.85582119755092 kcal/mol)

>  <smiles>  (12) 
O=C(Nc1ccc(S(=O)(=O)N2CCCC2)cc1)Nc1cc(S(=O)(=O)N2CCCCC2)ccc1O

>  <score_type>  (12) 
oracle

>  <origin>  (12) 
adgpu

>  <m_score__min__energy>  (12) 
-14.02

>  <m_primary>  (12) 
energy

$$$$
12:0
     RDKit          3D

 41 43  0  0  0  0  0  0  0  0999 V2000
   -5.4660   24.9070  -28.7610 O   0  0  0  0  0  0  0  0  0  0  0  0
   -5.0290   24.9100  -30.1990 S   0  0  0  0  0  0  0  0  0  0  0  0
   -5.4910   26.1940  -30.8280 O   0  0  0  0  0  0  0  0  0  0  0  0
   -3.2980   24.8450  -30.3130 N   0  0  0  0  0  0  0  0  0  0  0  0
   -2.3960   24.3280  -29.3230 C   0  0  0  0  0  0  0  0  0  0  0  0
   -2.5120   23.0220  -28.8120 C   0  0  0  0  0  0  0  0  0  0  0  0
   -1.6120   22.5520  -27.8460 C   0  0  0  0  0  0  0  0  0  0  0  0
   -1.7680   20.9130  -27.2090 S   0  0  0  0  0  0  0  0  0  0  0  0
   -1.5850   20.9420  -25.7160 O   0  0  0  0  0  0  0  0  0  0  0  0
   -3.1520   20.4010  -27.4970 O   0  0  0  0  0  0  0  0  0  0  0  0
   -0.5960   19.8330  -27.9210 N   0  0  0  0  0  0  0  0  0  0  0  0
   -0.8470   18.4490  -27.4910 C   0  0  0  0  0  0  0  0  0  0  0  0
    0.3210   17.5360  -27.9100 C   0  0  0  0  0  0  0  0  0  0  0  0
    1.1080   18.1010  -29.1050 C   0  0  0  0  0  0  0  0  0  0  0  0
    0.1790   18.8200  -30.0860 C   0  0  0  0  0  0  0  0  0  0  0  0
   -0.6290   19.9420  -29.3950 C   0  0  0  0  0  0  0  0  0  0  0  0
   -0.5900   23.3920  -27.3860 C   0  0  0  0  0  0  0  0  0  0  0  0
   -0.4700   24.6890  -27.8870 C   0  0  0  0  0  0  0  0  0  0  0  0
   -1.3670   25.1560  -28.8510 C   0  0  0  0  0  0  0  0  0  0  0  0
   -1.2320   26.4510  -29.3400 O   0  0  0  0  0  0  0  0  0  0  0  0
   -5.7510   23.5610  -31.0630 C   0  0  0  0  0  0  0  0  0  0  0  0
   -5.0570   22.5670  -31.7380 C   0  0  0  0  0  0  0  0  0  0  0  0
   -5.8990   21.6210  -32.3350 C   0  0  0  0  0  0  0  0  0  0  0  0
   -7.2510   21.8680  -32.1310 C   0  0  0  0  0  0  0  0  0  0  0  0
   -7.3990   23.2660  -31.2070 S   0  0  0  0  0  0  0  0  0  0  0  0
   -3.3160   22.3643  -29.1739 H   0  0  0  0  0  0  0  0  0  0  0  0
   -0.9526   18.4231  -26.3964 H   0  0  0  0  0  0  0  0  0  0  0  0
   -1.7702   18.0890  -27.9685 H   0  0  0  0  0  0  0  0  0  0  0  0
    1.0061   17.4249  -27.0566 H   0  0  0  0  0  0  0  0  0  0  0  0
   -0.1030   16.5680  -28.2154 H   0  0  0  0  0  0  0  0  0  0  0  0
    1.8605   18.8130  -28.7353 H   0  0  0  0  0  0  0  0  0  0  0  0
    1.5923   17.2651  -29.6311 H   0  0  0  0  0  0  0  0  0  0  0  0
    0.7846   19.2616  -30.8911 H   0  0  0  0  0  0  0  0  0  0  0  0
   -0.5329   18.0826  -30.4853 H   0  0  0  0  0  0  0  0  0  0  0  0
   -0.2051   20.9141  -29.6871 H   0  0  0  0  0  0  0  0  0  0  0  0
   -1.6770   19.8472  -29.7154 H   0  0  0  0  0  0  0  0  0  0  0  0
    0.1196   23.0286  -26.6281 H   0  0  0  0  0  0  0  0  0  0  0  0
    0.3333   25.3457  -27.5218 H   0  0  0  0  0  0  0  0  0  0  0  0
   -3.9594   22.5264  -31.7979 H   0  0  0  0  0  0  0  0  0  0  0  0
   -5.5250   20.7623  -32.9118 H   0  0  0  0  0  0  0  0  0  0  0  0
   -8.0822   21.2545  -32.5089 H   0  0  0  0  0  0  0  0  0  0  0  0
  1  2  2  0
  2  3  2  0
  2  4  1  0
  4  5  1  0
  5  6  2  0
  6  7  1  0
  7  8  1  0
  8  9  2  0
  8 10  2  0
  8 11  1  0
 11 12  1  0
 12 13  1  0
 13 14  1  0
 14 15  1  0
 15 16  1  0
  7 17  2  0
 17 18  1  0
 18 19  2  0
 19 20  1  0
  2 21  1  0
 21 22  2  0
 22 23  1  0
 23 24  2  0
 24 25  1  0
 19  5  1  0
 25 21  1  0
 16 11  1  0
  6 26  1  0
 12 27  1  0
 12 28  1  0
 13 29  1  0
 13 30  1  0
 14 31  1  0
 14 32  1  0
 15 33  1  0
 15 34  1  0
 16 35  1  0
 16 36  1  0
 17 37  1  0
 18 38  1  0
 22 39  1  0
 23 40  1  0
 24 41  1  0
M  CHG  2   4  -1  20  -1
M  END
>  <UniqueID>  (13) 
12

>  <SMILES>  (13) 
O=S(=O)([N-]c1cc(S(=O)(=O)N2CCCCC2)ccc1[O-])c1cccs1

>  <Energy>  (13) 
74.58316991894682

>  <Genealogy>  (13) 
O=S(=O)([N-]c1cc(S(=O)(=O)N2CCCCC2)ccc1[O-])c1cccs1 (protonated)
O=S(=O)([N-]c1cc(S(=O)(=O)N2CCCCC2)ccc1[O-])c1cccs1 (3D coordinates assigned)
O=S(=O)([N-]c1cc(S(=O)(=O)N2CCCCC2)ccc1[O-])c1cccs1 (nonaromatic ring conformer: 74.58316991894682 kcal/mol)

>  <smiles>  (13) 
O=S(=O)(Nc1cc(S(=O)(=O)N2CCCCC2)ccc1O)c1cccs1

>  <score_type>  (13) 
oracle

>  <origin>  (13) 
adgpu

>  <m_score__min__energy>  (13) 
-12.99

>  <m_primary>  (13) 
energy

$$$$
13:0
     RDKit          3D

 43 45  0  0  0  0  0  0  0  0999 V2000
   -0.5370   20.5660  -34.8880 C   0  0  0  0  0  0  0  0  0  0  0  0
   -0.0860   19.6180  -33.8620 N   0  0  0  0  0  0  0  0  0  0  0  0
   -0.1410   20.2450  -32.5350 C   0  0  0  0  0  0  0  0  0  0  0  0
   -1.0970   18.1930  -33.8860 S   0  0  0  0  0  0  0  0  0  0  0  0
   -0.8120   17.3990  -35.1310 O   0  0  0  0  0  0  0  0  0  0  0  0
   -0.7710   17.3280  -32.7010 O   0  0  0  0  0  0  0  0  0  0  0  0
   -2.8110   18.6110  -33.8470 C   0  0  0  0  0  0  0  0  0  0  0  0
   -3.7400   17.8510  -34.5710 C   0  0  0  0  0  0  0  0  0  0  0  0
   -5.0970   18.1870  -34.5460 C   0  0  0  0  0  0  0  0  0  0  0  0
   -5.5440   19.2760  -33.7790 C   0  0  0  0  0  0  0  0  0  0  0  0
   -6.9300   19.6480  -33.7560 N   0  0  0  0  0  0  0  0  0  0  0  0
   -7.5360   20.3620  -32.6730 C   0  0  0  0  0  0  0  0  0  0  0  0
   -7.5000   21.6610  -32.1890 C   0  0  0  0  0  0  0  0  0  0  0  0
   -6.8530   22.8690  -32.6040 N   0  0  0  0  0  0  0  0  0  0  0  0
   -5.8170   23.5130  -31.8480 C   0  0  0  0  0  0  0  0  0  0  0  0
   -4.5880   22.8580  -31.6660 C   0  0  0  0  0  0  0  0  0  0  0  0
   -3.5730   23.4560  -30.9120 C   0  0  0  0  0  0  0  0  0  0  0  0
   -3.7830   24.7060  -30.3210 C   0  0  0  0  0  0  0  0  0  0  0  0
   -2.7740   25.2980  -29.5720 O   0  0  0  0  0  0  0  0  0  0  0  0
   -5.0120   25.3530  -30.4760 C   0  0  0  0  0  0  0  0  0  0  0  0
   -6.0280   24.7580  -31.2300 C   0  0  0  0  0  0  0  0  0  0  0  0
   -8.4030   21.3110  -31.2000 C   0  0  0  0  0  0  0  0  0  0  0  0
   -8.9760   21.9180  -30.2580 O   0  0  0  0  0  0  0  0  0  0  0  0
   -8.4440   20.0230  -31.6900 C   0  0  0  0  0  0  0  0  0  0  0  0
   -9.0610   18.9710  -31.3740 O   0  0  0  0  0  0  0  0  0  0  0  0
   -4.6090   20.0480  -33.0750 C   0  0  0  0  0  0  0  0  0  0  0  0
   -3.2520   19.7140  -33.1030 C   0  0  0  0  0  0  0  0  0  0  0  0
   -0.9611   21.4574  -34.4026 H   0  0  0  0  0  0  0  0  0  0  0  0
    0.3171   20.8614  -35.5151 H   0  0  0  0  0  0  0  0  0  0  0  0
   -1.3050   20.0897  -35.5151 H   0  0  0  0  0  0  0  0  0  0  0  0
   -0.0728   19.4681  -31.7593 H   0  0  0  0  0  0  0  0  0  0  0  0
    0.6990   20.9467  -32.4259 H   0  0  0  0  0  0  0  0  0  0  0  0
   -1.0904   20.7898  -32.4259 H   0  0  0  0  0  0  0  0  0  0  0  0
   -3.4002   16.9870  -35.1610 H   0  0  0  0  0  0  0  0  0  0  0  0
   -5.8181   17.5959  -35.1296 H   0  0  0  0  0  0  0  0  0  0  0  0
   -7.5230   19.4370  -34.5890 H   0  0  0  0  0  0  0  0  0  0  0  0
   -7.2220   23.3460  -33.4570 H   0  0  0  0  0  0  0  0  0  0  0  0
   -4.4228   21.8693  -32.1189 H   0  0  0  0  0  0  0  0  0  0  0  0
   -2.6086   22.9426  -30.7837 H   0  0  0  0  0  0  0  0  0  0  0  0
   -5.1803   26.3322  -30.0039 H   0  0  0  0  0  0  0  0  0  0  0  0
   -6.9972   25.2665  -31.3402 H   0  0  0  0  0  0  0  0  0  0  0  0
   -4.9453   20.9216  -32.4973 H   0  0  0  0  0  0  0  0  0  0  0  0
   -2.5272   20.3193  -32.5388 H   0  0  0  0  0  0  0  0  0  0  0  0
  1  2  1  0
  2  3  1  0
  2  4  1  0
  4  5  2  0
  4  6  2  0
  4  7  1  0
  7  8  2  0
  8  9  1  0
  9 10  2  0
 10 11  1  0
 11 12  1  0
 12 13  2  0
 13 14  1  0
 14 15  1  0
 15 16  2  0
 16 17  1  0
 17 18  2  0
 18 19  1  0
 18 20  1  0
 20 21  2  0
 13 22  1  0
 22 23  2  0
 22 24  1  0
 24 25  2  0
 10 26  1  0
 26 27  2  0
 27  7  1  0
 24 12  1  0
 21 15  1  0
  1 28  1  0
  1 29  1  0
  1 30  1  0
  3 31  1  0
  3 32  1  0
  3 33  1  0
  8 34  1  0
  9 35  1  0
 11 36  1  0
 14 37  1  0
 16 38  1  0
 17 39  1  0
 20 40  1  0
 21 41  1  0
 26 42  1  0
 27 43  1  0
M  CHG  1  19  -1
M  END
>  <UniqueID>  (14) 
13

>  <SMILES>  (14) 
CN(C)S(=O)(=O)c1ccc(Nc2c(Nc3ccc([O-])cc3)c(=O)c2=O)cc1

>  <Energy>  (14) 
39.31902172822817

>  <Genealogy>  (14) 
CN(C)S(=O)(=O)c1ccc(Nc2c(Nc3ccc([O-])cc3)c(=O)c2=O)cc1 (protonated)
CN(C)S(=O)(=O)c1ccc(Nc2c(Nc3ccc([O-])cc3)c(=O)c2=O)cc1 (3D coordinates assigned)
CN(C)S(=O)(=O)c1ccc(Nc2c(Nc3ccc([O-])cc3)c(=O)c2=O)cc1 (optimized conformer: 39.31902172822817 kcal/mol)

>  <smiles>  (14) 
CN(C)S(=O)(=O)c1ccc(Nc2c(Nc3ccc(O)cc3)c(=O)c2=O)cc1

>  <score_type>  (14) 
oracle

>  <origin>  (14) 
adgpu

>  <m_score__min__energy>  (14) 
-11.68

>  <m_primary>  (14) 
energy

$$$$
14:0
     RDKit          3D

 44 47  0  0  0  0  0  0  0  0999 V2000
   -1.5990   24.9990  -26.6250 N   0  0  0  0  0  0  0  0  0  0  0  0
   -2.4350   24.4120  -27.6250 C   0  0  0  0  0  0  0  0  0  0  0  0
   -3.7840   24.1440  -27.3490 C   0  0  0  0  0  0  0  0  0  0  0  0
   -4.6010   23.5690  -28.3260 C   0  0  0  0  0  0  0  0  0  0  0  0
   -4.0810   23.2510  -29.5920 C   0  0  0  0  0  0  0  0  0  0  0  0
   -4.9250   22.6700  -30.6020 N   0  0  0  0  0  0  0  0  0  0  0  0
   -4.6330   21.3910  -31.1930 C   0  0  0  0  0  0  0  0  0  0  0  0
   -3.5310   20.8260  -30.9490 O   0  0  0  0  0  0  0  0  0  0  0  0
   -5.5550   20.7740  -32.1200 N   0  0  0  0  0  0  0  0  0  0  0  0
   -5.0000   20.1470  -33.3280 C   0  0  0  0  0  0  0  0  0  0  0  0
   -5.3820   18.6890  -33.3640 C   0  0  0  0  0  0  0  0  0  0  0  0
   -5.1670   17.8800  -32.2360 C   0  0  0  0  0  0  0  0  0  0  0  0
   -5.4590   16.5140  -32.2810 C   0  0  0  0  0  0  0  0  0  0  0  0
   -5.9590   15.9440  -33.4530 C   0  0  0  0  0  0  0  0  0  0  0  0
   -6.1660   16.7370  -34.5850 C   0  0  0  0  0  0  0  0  0  0  0  0
   -5.8750   18.1040  -34.5460 C   0  0  0  0  0  0  0  0  0  0  0  0
   -6.0700   18.8540  -35.6610 F   0  0  0  0  0  0  0  0  0  0  0  0
   -6.9790   21.0260  -32.0300 C   0  0  0  0  0  0  0  0  0  0  0  0
   -7.9050   20.0120  -32.3420 C   0  0  0  0  0  0  0  0  0  0  0  0
   -9.2790   20.2700  -32.3040 C   0  0  0  0  0  0  0  0  0  0  0  0
   -9.7450   21.5360  -31.9470 C   0  0  0  0  0  0  0  0  0  0  0  0
   -8.8400   22.5440  -31.6110 C   0  0  0  0  0  0  0  0  0  0  0  0
   -7.4640   22.2880  -31.6420 C   0  0  0  0  0  0  0  0  0  0  0  0
   -6.3240   23.5190  -31.1600 S   0  0  0  0  0  0  0  0  0  0  0  0
   -6.9000   24.3430  -30.0420 O   0  0  0  0  0  0  0  0  0  0  0  0
   -5.9720   24.3940  -32.3290 O   0  0  0  0  0  0  0  0  0  0  0  0
   -2.7310   23.5270  -29.8660 C   0  0  0  0  0  0  0  0  0  0  0  0
   -1.9140   24.1010  -28.8880 C   0  0  0  0  0  0  0  0  0  0  0  0
   -1.7330   25.9930  -26.3330 H   0  0  0  0  0  0  0  0  0  0  0  0
   -0.8410   24.4450  -26.1690 H   0  0  0  0  0  0  0  0  0  0  0  0
   -4.2001   24.3873  -26.3602 H   0  0  0  0  0  0  0  0  0  0  0  0
   -5.6583   23.3639  -28.1025 H   0  0  0  0  0  0  0  0  0  0  0  0
   -5.4005   20.6522  -34.2193 H   0  0  0  0  0  0  0  0  0  0  0  0
   -3.9037   20.2365  -33.3145 H   0  0  0  0  0  0  0  0  0  0  0  0
   -4.7668   18.3239  -31.3125 H   0  0  0  0  0  0  0  0  0  0  0  0
   -5.2946   15.8874  -31.3920 H   0  0  0  0  0  0  0  0  0  0  0  0
   -6.1904   14.8691  -33.4856 H   0  0  0  0  0  0  0  0  0  0  0  0
   -6.5584   16.2851  -35.5079 H   0  0  0  0  0  0  0  0  0  0  0  0
   -7.5450   19.0098  -32.6176 H   0  0  0  0  0  0  0  0  0  0  0  0
   -9.9941   19.4731  -32.5561 H   0  0  0  0  0  0  0  0  0  0  0  0
  -10.8259   21.7396  -31.9304 H   0  0  0  0  0  0  0  0  0  0  0  0
   -9.2079   23.5395  -31.3219 H   0  0  0  0  0  0  0  0  0  0  0  0
   -2.3145   23.2899  -30.8561 H   0  0  0  0  0  0  0  0  0  0  0  0
   -0.8572   24.3096  -29.1108 H   0  0  0  0  0  0  0  0  0  0  0  0
  1  2  1  0
  2  3  2  0
  3  4  1  0
  4  5  2  0
  5  6  1  0
  6  7  1  0
  7  8  2  0
  7  9  1  0
  9 10  1  0
 10 11  1  0
 11 12  2  0
 12 13  1  0
 13 14  2  0
 14 15  1  0
 15 16  2  0
 16 17  1  0
  9 18  1  0
 18 19  2  0
 19 20  1  0
 20 21  2  0
 21 22  1  0
 22 23  2  0
 23 24  1  0
 24 25  2  0
 24 26  2  0
  5 27  1  0
 27 28  2  0
 28  2  1  0
 24  6  1  0
 16 11  1  0
 23 18  1  0
  1 29  1  0
  1 30  1  0
  3 31  1  0
  4 32  1  0
 10 33  1  0
 10 34  1  0
 12 35  1  0
 13 36  1  0
 14 37  1  0
 15 38  1  0
 19 39  1  0
 20 40  1  0
 21 41  1  0
 22 42  1  0
 27 43  1  0
 28 44  1  0
M  END
>  <UniqueID>  (15) 
14

>  <SMILES>  (15) 
Nc1ccc(N2C(=O)N(Cc3ccccc3F)c3ccccc3S2(=O)=O)cc1

>  <Energy>  (15) 
62.73811489347877

>  <Genealogy>  (15) 
Nc1ccc(N2C(=O)N(Cc3ccccc3F)c3ccccc3S2(=O)=O)cc1 (3D coordinates assigned)
Nc1ccc(N2C(=O)N(Cc3ccccc3F)c3ccccc3S2(=O)=O)cc1 (nonaromatic ring conformer: 62.73811489347877 kcal/mol)

>  <smiles>  (15) 
Nc1ccc(N2C(=O)N(Cc3ccccc3F)c3ccccc3S2(=O)=O)cc1

>  <score_type>  (15) 
oracle

>  <origin>  (15) 
adgpu

>  <m_score__min__energy>  (15) 
-8.6600000000000001

>  <m_primary>  (15) 
energy

$$$$
15:0
     RDKit          3D

 37 38  0  0  0  0  0  0  0  0999 V2000
   -6.5090   16.6250  -33.4920 C   0  0  0  0  0  0  0  0  0  0  0  0
   -7.0410   17.9480  -33.0260 C   0  0  0  0  0  0  0  0  0  0  0  0
   -8.0170   18.0010  -32.0180 C   0  0  0  0  0  0  0  0  0  0  0  0
   -8.4880   19.2350  -31.5580 C   0  0  0  0  0  0  0  0  0  0  0  0
   -7.9820   20.4270  -32.0940 C   0  0  0  0  0  0  0  0  0  0  0  0
   -8.5900   21.9810  -31.5320 S   0  0  0  0  0  0  0  0  0  0  0  0
   -8.8700   21.8930  -30.0580 O   0  0  0  0  0  0  0  0  0  0  0  0
   -9.8580   22.3430  -32.2510 O   0  0  0  0  0  0  0  0  0  0  0  0
   -7.4090   23.2180  -31.8100 N   0  0  0  0  0  0  0  0  0  0  0  0
   -5.9960   22.9940  -31.8400 C   0  0  0  0  0  0  0  0  0  0  0  0
   -5.3220   23.5000  -32.7770 O   0  0  0  0  0  0  0  0  0  0  0  0
   -5.3400   22.2210  -30.8220 N   0  0  0  0  0  0  0  0  0  0  0  0
   -3.9380   21.9330  -30.8790 C   0  0  0  0  0  0  0  0  0  0  0  0
   -3.5210   20.7230  -31.4520 C   0  0  0  0  0  0  0  0  0  0  0  0
   -2.1650   20.3960  -31.5070 C   0  0  0  0  0  0  0  0  0  0  0  0
   -1.2140   21.2790  -30.9970 C   0  0  0  0  0  0  0  0  0  0  0  0
   -1.6140   22.4990  -30.4460 C   0  0  0  0  0  0  0  0  0  0  0  0
   -2.9730   22.8470  -30.3960 C   0  0  0  0  0  0  0  0  0  0  0  0
   -3.4260   24.4370  -29.7670 S   0  0  0  0  0  0  0  0  0  0  0  0
   -2.0160   25.2740  -29.2170 N   0  0  0  0  0  0  0  0  0  0  0  0
   -4.3820   24.2730  -28.6190 O   0  0  0  0  0  0  0  0  0  0  0  0
   -4.0710   25.2580  -30.8480 O   0  0  0  0  0  0  0  0  0  0  0  0
   -6.9910   20.3770  -33.0830 C   0  0  0  0  0  0  0  0  0  0  0  0
   -6.5190   19.1430  -33.5430 C   0  0  0  0  0  0  0  0  0  0  0  0
   -6.2588   16.0027  -32.6201 H   0  0  0  0  0  0  0  0  0  0  0  0
   -7.2724   16.1160  -34.0988 H   0  0  0  0  0  0  0  0  0  0  0  0
   -5.6058   16.7862  -34.0988 H   0  0  0  0  0  0  0  0  0  0  0  0
   -8.4126   17.0687  -31.5886 H   0  0  0  0  0  0  0  0  0  0  0  0
   -9.2579   19.2701  -30.7731 H   0  0  0  0  0  0  0  0  0  0  0  0
   -5.8310   22.0250  -29.9240 H   0  0  0  0  0  0  0  0  0  0  0  0
   -4.2677   20.0265  -31.8611 H   0  0  0  0  0  0  0  0  0  0  0  0
   -1.8468   19.4419  -31.9526 H   0  0  0  0  0  0  0  0  0  0  0  0
   -0.1467   21.0145  -31.0285 H   0  0  0  0  0  0  0  0  0  0  0  0
   -0.8581   23.1922  -30.0483 H   0  0  0  0  0  0  0  0  0  0  0  0
   -1.5530   25.6780  -30.0620 H   0  0  0  0  0  0  0  0  0  0  0  0
   -6.5831   21.3101  -33.4988 H   0  0  0  0  0  0  0  0  0  0  0  0
   -5.7349   19.1096  -34.3137 H   0  0  0  0  0  0  0  0  0  0  0  0
  1  2  1  0
  2  3  2  0
  3  4  1  0
  4  5  2  0
  5  6  1  0
  6  7  2  0
  6  8  2  0
  6  9  1  0
  9 10  1  0
 10 11  2  0
 10 12  1  0
 12 13  1  0
 13 14  2  0
 14 15  1  0
 15 16  2  0
 16 17  1  0
 17 18  2  0
 18 19  1  0
 19 20  1  0
 19 21  2  0
 19 22  2  0
  5 23  1  0
 23 24  2  0
 24  2  1  0
 18 13  1  0
  1 25  1  0
  1 26  1  0
  1 27  1  0
  3 28  1  0
  4 29  1  0
 12 30  1  0
 14 31  1  0
 15 32  1  0
 16 33  1  0
 17 34  1  0
 20 35  1  0
 23 36  1  0
 24 37  1  0
M  CHG  2   9  -1  20  -1
M  END
>  <UniqueID>  (16) 
15

>  <SMILES>  (16) 
Cc1ccc(S(=O)(=O)[N-]C(=O)Nc2ccccc2S([NH-])(=O)=O)cc1

>  <Energy>  (16) 
45.365072589347896

>  <Genealogy>  (16) 
Cc1ccc(S(=O)(=O)[N-]C(=O)Nc2ccccc2S([NH-])(=O)=O)cc1 (protonated)
Cc1ccc(S(=O)(=O)[N-]C(=O)Nc2ccccc2S([NH-])(=O)=O)cc1 (3D coordinates assigned)
Cc1ccc(S(=O)(=O)[N-]C(=O)Nc2ccccc2S([NH-])(=O)=O)cc1 (optimized conformer: 45.365072589347896 kcal/mol)

>  <smiles>  (16) 
Cc1ccc(S(=O)(=O)NC(=O)Nc2ccccc2S(N)(=O)=O)cc1

>  <score_type>  (16) 
oracle

>  <origin>  (16) 
adgpu

>  <m_score__min__energy>  (16) 
-11.84

>  <m_primary>  (16) 
energy

$$$$
16:0
     RDKit          3D

 49 52  0  0  0  0  0  0  0  0999 V2000
   -2.9310   19.7820  -27.0800 C   0  0  0  0  0  0  0  0  0  0  0  0
   -1.9530   19.8640  -28.1800 N   0  0  0  0  0  0  0  0  0  0  0  0
   -0.6270   20.3280  -27.7280 C   0  0  0  0  0  0  0  0  0  0  0  0
   -0.6550   21.7750  -27.2130 C   0  0  0  0  0  0  0  0  0  0  0  0
   -1.4660   22.6840  -28.0990 C   0  0  0  0  0  0  0  0  0  0  0  0
   -1.3720   24.0720  -27.9250 C   0  0  0  0  0  0  0  0  0  0  0  0
   -2.1540   24.9380  -28.6930 C   0  0  0  0  0  0  0  0  0  0  0  0
   -3.0580   24.4250  -29.6370 C   0  0  0  0  0  0  0  0  0  0  0  0
   -3.8600   25.2740  -30.4680 N   0  0  0  0  0  0  0  0  0  0  0  0
   -5.2870   25.4230  -30.4450 C   0  0  0  0  0  0  0  0  0  0  0  0
   -5.8660   25.9320  -29.4500 O   0  0  0  0  0  0  0  0  0  0  0  0
   -6.0720   24.9800  -31.5570 N   0  0  0  0  0  0  0  0  0  0  0  0
   -6.5690   23.6440  -31.7130 C   0  0  0  0  0  0  0  0  0  0  0  0
   -7.9210   23.4080  -31.4710 C   0  0  0  0  0  0  0  0  0  0  0  0
   -8.4610   22.1440  -31.6770 C   0  0  0  0  0  0  0  0  0  0  0  0
   -7.6540   21.0830  -32.0960 C   0  0  0  0  0  0  0  0  0  0  0  0
   -8.4770   19.5590  -32.4100 Cl  0  0  0  0  0  0  0  0  0  0  0  0
   -6.2590   21.2740  -32.2700 C   0  0  0  0  0  0  0  0  0  0  0  0
   -5.1830   19.9290  -32.7340 S   0  0  0  0  0  0  0  0  0  0  0  0
   -5.0330   18.9190  -31.6320 O   0  0  0  0  0  0  0  0  0  0  0  0
   -3.8110   20.4630  -33.0360 O   0  0  0  0  0  0  0  0  0  0  0  0
   -5.8600   19.1550  -34.2050 C   0  0  0  0  0  0  0  0  0  0  0  0
   -4.9680   18.1180  -34.8680 C   0  0  0  0  0  0  0  0  0  0  0  0
   -6.1700   17.6760  -34.0460 C   0  0  0  0  0  0  0  0  0  0  0  0
   -5.7220   22.5800  -32.0840 C   0  0  0  0  0  0  0  0  0  0  0  0
   -4.3610   22.8540  -32.2450 O   0  0  0  0  0  0  0  0  0  0  0  0
   -3.1420   23.0400  -29.8220 C   0  0  0  0  0  0  0  0  0  0  0  0
   -2.3730   22.1620  -29.0430 C   0  0  0  0  0  0  0  0  0  0  0  0
   -2.4540   20.6760  -29.3060 C   0  0  0  0  0  0  0  0  0  0  0  0
   -2.4031   19.8263  -26.1160 H   0  0  0  0  0  0  0  0  0  0  0  0
   -3.6349   20.6243  -27.1516 H   0  0  0  0  0  0  0  0  0  0  0  0
   -3.4848   18.8343  -27.1516 H   0  0  0  0  0  0  0  0  0  0  0  0
   -0.2811   19.6711  -26.9163 H   0  0  0  0  0  0  0  0  0  0  0  0
    0.0521   20.2937  -28.5927 H   0  0  0  0  0  0  0  0  0  0  0  0
   -1.0928   21.7825  -26.2039 H   0  0  0  0  0  0  0  0  0  0  0  0
    0.3795   22.1487  -27.2061 H   0  0  0  0  0  0  0  0  0  0  0  0
   -0.6769   24.4823  -27.1777 H   0  0  0  0  0  0  0  0  0  0  0  0
   -2.0613   26.0257  -28.5577 H   0  0  0  0  0  0  0  0  0  0  0  0
   -8.5641   24.2264  -31.1151 H   0  0  0  0  0  0  0  0  0  0  0  0
   -9.5351   21.9771  -31.5084 H   0  0  0  0  0  0  0  0  0  0  0  0
   -6.4095   20.0402  -34.5579 H   0  0  0  0  0  0  0  0  0  0  0  0
   -4.9772   18.0030  -35.9619 H   0  0  0  0  0  0  0  0  0  0  0  0
   -3.8910   17.8947  -34.8539 H   0  0  0  0  0  0  0  0  0  0  0  0
   -7.0482   17.2412  -34.5457 H   0  0  0  0  0  0  0  0  0  0  0  0
   -6.3220   17.0005  -33.1913 H   0  0  0  0  0  0  0  0  0  0  0  0
   -3.9120   23.7150  -31.9690 H   0  0  0  0  0  0  0  0  0  0  0  0
   -3.8196   22.6347  -30.5879 H   0  0  0  0  0  0  0  0  0  0  0  0
   -3.5051   20.4092  -29.4904 H   0  0  0  0  0  0  0  0  0  0  0  0
   -1.8174   20.4603  -30.1767 H   0  0  0  0  0  0  0  0  0  0  0  0
  1  2  1  0
  2  3  1  0
  3  4  1  0
  4  5  1  0
  5  6  2  0
  6  7  1  0
  7  8  2  0
  8  9  1  0
  9 10  1  0
 10 11  2  0
 10 12  1  0
 12 13  1  0
 13 14  2  0
 14 15  1  0
 15 16  2  0
 16 17  1  0
 16 18  1  0
 18 19  1  0
 19 20  2  0
 19 21  2  0
 19 22  1  0
 22 23  1  0
 23 24  1  0
 18 25  2  0
 25 26  1  0
  8 27  1  0
 27 28  2  0
 28 29  1  0
 29  2  1  0
 28  5  1  0
 25 13  1  0
 24 22  1  0
  1 30  1  0
  1 31  1  0
  1 32  1  0
  3 33  1  0
  3 34  1  0
  4 35  1  0
  4 36  1  0
  6 37  1  0
  7 38  1  0
 14 39  1  0
 15 40  1  0
 22 41  1  0
 23 42  1  0
 23 43  1  0
 24 44  1  0
 24 45  1  0
 26 46  1  0
 27 47  1  0
 29 48  1  0
 29 49  1  0
M  CHG  2   9  -1  12  -1
M  END
>  <UniqueID>  (17) 
16

>  <SMILES>  (17) 
CN1CCc2ccc([N-]C(=O)[N-]c3ccc(Cl)c(S(=O)(=O)C4CC4)c3O)cc2C1

>  <Energy>  (17) 
334.3245176627454

>  <Genealogy>  (17) 
CN1CCc2ccc([N-]C(=O)[N-]c3ccc(Cl)c(S(=O)(=O)C4CC4)c3O)cc2C1 (protonated)
CN1CCc2ccc([N-]C(=O)[N-]c3ccc(Cl)c(S(=O)(=O)C4CC4)c3O)cc2C1 (3D coordinates assigned)
CN1CCc2ccc([N-]C(=O)[N-]c3ccc(Cl)c(S(=O)(=O)C4CC4)c3O)cc2C1 (nonaromatic ring conformer: 334.3245176627454 kcal/mol)

>  <smiles>  (17) 
CN1CCc2ccc(NC(=O)Nc3ccc(Cl)c(S(=O)(=O)C4CC4)c3O)cc2C1

>  <score_type>  (17) 
oracle

>  <origin>  (17) 
adgpu

>  <m_score__min__energy>  (17) 
-13.6

>  <m_primary>  (17) 
energy

$$$$
17:0
     RDKit          3D

 57 60  0  0  0  0  0  0  0  0999 V2000
   -5.6920   14.6160  -33.5370 C   0  0  0  0  0  0  0  0  0  0  0  0
   -5.1670   15.5130  -34.5790 N   0  0  0  0  0  0  0  0  0  0  0  0
   -5.3310   16.9380  -34.1960 C   0  0  0  0  0  0  0  0  0  0  0  0
   -4.0230   17.5570  -33.6850 C   0  0  0  0  0  0  0  0  0  0  0  0
   -2.9700   17.5120  -34.7200 N   0  0  0  0  0  0  0  0  0  0  0  0
   -1.3910   17.6990  -33.9910 S   0  0  0  0  0  0  0  0  0  0  0  0
   -0.5750   16.4590  -34.2350 O   0  0  0  0  0  0  0  0  0  0  0  0
   -1.5480   17.8680  -32.5050 O   0  0  0  0  0  0  0  0  0  0  0  0
   -0.5370   19.0970  -34.6500 C   0  0  0  0  0  0  0  0  0  0  0  0
    0.2940   18.9550  -35.7690 C   0  0  0  0  0  0  0  0  0  0  0  0
    0.9990   20.0540  -36.2660 C   0  0  0  0  0  0  0  0  0  0  0  0
    0.8960   21.3060  -35.6440 C   0  0  0  0  0  0  0  0  0  0  0  0
    1.6320   22.4210  -36.1760 N   0  0  0  0  0  0  0  0  0  0  0  0
    3.0570   22.4400  -36.3340 C   0  0  0  0  0  0  0  0  0  0  0  0
    3.7400   21.4010  -36.1280 O   0  0  0  0  0  0  0  0  0  0  0  0
    3.7000   23.6570  -36.7270 N   0  0  0  0  0  0  0  0  0  0  0  0
    3.2580   24.9740  -36.3690 C   0  0  0  0  0  0  0  0  0  0  0  0
    3.9470   25.6590  -35.3660 C   0  0  0  0  0  0  0  0  0  0  0  0
    3.5670   26.9490  -35.0040 C   0  0  0  0  0  0  0  0  0  0  0  0
    2.4760   27.5670  -35.6200 C   0  0  0  0  0  0  0  0  0  0  0  0
    2.1160   29.2280  -35.1570 Cl  0  0  0  0  0  0  0  0  0  0  0  0
    1.7260   26.8700  -36.5970 C   0  0  0  0  0  0  0  0  0  0  0  0
    0.3130   27.6280  -37.3740 S   0  0  0  0  0  0  0  0  0  0  0  0
    0.5410   29.1040  -37.5340 O   0  0  0  0  0  0  0  0  0  0  0  0
    0.1310   27.0530  -38.7500 O   0  0  0  0  0  0  0  0  0  0  0  0
   -1.2120   27.3980  -36.4540 C   0  0  0  0  0  0  0  0  0  0  0  0
   -1.9170   28.6990  -36.1020 C   0  0  0  0  0  0  0  0  0  0  0  0
   -1.2340   27.8880  -35.0130 C   0  0  0  0  0  0  0  0  0  0  0  0
    2.1270   25.5660  -36.9640 C   0  0  0  0  0  0  0  0  0  0  0  0
    1.3910   24.8460  -37.9000 O   0  0  0  0  0  0  0  0  0  0  0  0
    0.0340   21.4540  -34.5440 C   0  0  0  0  0  0  0  0  0  0  0  0
   -0.6740   20.3560  -34.0490 C   0  0  0  0  0  0  0  0  0  0  0  0
   -3.0320   16.3110  -35.5860 C   0  0  0  0  0  0  0  0  0  0  0  0
   -3.7720   15.1440  -34.9180 C   0  0  0  0  0  0  0  0  0  0  0  0
   -5.4519   15.0262  -32.5450 H   0  0  0  0  0  0  0  0  0  0  0  0
   -6.7834   14.5293  -33.6436 H   0  0  0  0  0  0  0  0  0  0  0  0
   -5.2331   13.6220  -33.6436 H   0  0  0  0  0  0  0  0  0  0  0  0
   -5.6704   17.5042  -35.0759 H   0  0  0  0  0  0  0  0  0  0  0  0
   -6.0673   16.9850  -33.3801 H   0  0  0  0  0  0  0  0  0  0  0  0
   -4.2071   18.6050  -33.4059 H   0  0  0  0  0  0  0  0  0  0  0  0
   -3.6806   16.9780  -32.8147 H   0  0  0  0  0  0  0  0  0  0  0  0
    0.3917   17.9746  -36.2581 H   0  0  0  0  0  0  0  0  0  0  0  0
    1.6398   19.9359  -37.1522 H   0  0  0  0  0  0  0  0  0  0  0  0
    1.0930   23.2230  -36.5740 H   0  0  0  0  0  0  0  0  0  0  0  0
    4.7954   25.1766  -34.8585 H   0  0  0  0  0  0  0  0  0  0  0  0
    4.1306   27.4857  -34.2266 H   0  0  0  0  0  0  0  0  0  0  0  0
   -1.4822   26.4481  -36.9385 H   0  0  0  0  0  0  0  0  0  0  0  0
   -1.4888   29.6604  -36.4219 H   0  0  0  0  0  0  0  0  0  0  0  0
   -2.9302   29.0997  -36.2531 H   0  0  0  0  0  0  0  0  0  0  0  0
   -0.3115   28.2623  -34.5452 H   0  0  0  0  0  0  0  0  0  0  0  0
   -1.5480   27.4587  -34.0502 H   0  0  0  0  0  0  0  0  0  0  0  0
   -0.0839   22.4397  -34.0702 H   0  0  0  0  0  0  0  0  0  0  0  0
   -1.3419   20.4800  -33.1838 H   0  0  0  0  0  0  0  0  0  0  0  0
   -3.5551   16.5739  -36.5173 H   0  0  0  0  0  0  0  0  0  0  0  0
   -1.9996   15.9851  -35.7810 H   0  0  0  0  0  0  0  0  0  0  0  0
   -3.7857   14.2870  -35.6075 H   0  0  0  0  0  0  0  0  0  0  0  0
   -3.2454   14.8868  -33.9871 H   0  0  0  0  0  0  0  0  0  0  0  0
  1  2  1  0
  2  3  1  0
  3  4  1  0
  4  5  1  0
  5  6  1  0
  6  7  2  0
  6  8  2  0
  6  9  1  0
  9 10  2  0
 10 11  1  0
 11 12  2  0
 12 13  1  0
 13 14  1  0
 14 15  2  0
 14 16  1  0
 16 17  1  0
 17 18  2  0
 18 19  1  0
 19 20  2  0
 20 21  1  0
 20 22  1  0
 22 23  1  0
 23 24  2  0
 23 25  2  0
 23 26  1  0
 26 27  1  0
 27 28  1  0
 22 29  2  0
 29 30  1  0
 12 31  1  0
 31 32  2  0
  5 33  1  0
 33 34  1  0
 34  2  1  0
 32  9  1  0
 29 17  1  0
 28 26  1  0
  1 35  1  0
  1 36  1  0
  1 37  1  0
  3 38  1  0
  3 39  1  0
  4 40  1  0
  4 41  1  0
 10 42  1  0
 11 43  1  0
 13 44  1  0
 18 45  1  0
 19 46  1  0
 26 47  1  0
 27 48  1  0
 27 49  1  0
 28 50  1  0
 28 51  1  0
 31 52  1  0
 32 53  1  0
 33 54  1  0
 33 55  1  0
 34 56  1  0
 34 57  1  0
M  CHG  2  16  -1  30  -1
M  END
>  <UniqueID>  (18) 
17

>  <SMILES>  (18) 
CN1CCN(S(=O)(=O)c2ccc(NC(=O)[N-]c3ccc(Cl)c(S(=O)(=O)C4CC4)c3[O-])cc2)CC1

>  <Energy>  (18) 
343.88183462902043

>  <Genealogy>  (18) 
CN1CCN(S(=O)(=O)c2ccc(NC(=O)[N-]c3ccc(Cl)c(S(=O)(=O)C4CC4)c3[O-])cc2)CC1 (protonated)
CN1CCN(S(=O)(=O)c2ccc(NC(=O)[N-]c3ccc(Cl)c(S(=O)(=O)C4CC4)c3[O-])cc2)CC1 (3D coordinates assigned)
CN1CCN(S(=O)(=O)c2ccc(NC(=O)[N-]c3ccc(Cl)c(S(=O)(=O)C4CC4)c3[O-])cc2)CC1 (nonaromatic ring conformer: 343.88183462902043 kcal/mol)

>  <smiles>  (18) 
CN1CCN(S(=O)(=O)c2ccc(NC(=O)Nc3ccc(Cl)c(S(=O)(=O)C4CC4)c3O)cc2)CC1

>  <score_type>  (18) 
oracle

>  <origin>  (18) 
adgpu

>  <m_score__min__energy>  (18) 
-13.4

>  <m_primary>  (18) 
energy

$$$$
18:0
     RDKit          3D

 56 59  0  0  0  0  0  0  0  0999 V2000
   -9.1400   18.5920  -32.0020 C   0  0  0  0  0  0  0  0  0  0  0  0
   -7.9080   19.3980  -32.2950 C   0  0  0  0  0  0  0  0  0  0  0  0
   -8.0100   20.7530  -32.2920 N   0  0  0  0  0  0  0  0  0  0  0  0
   -6.9740   21.5580  -32.5360 N   0  0  0  0  0  0  0  0  0  0  0  0
   -7.2130   23.0060  -32.5310 C   0  0  0  0  0  0  0  0  0  0  0  0
   -7.6500   23.4670  -31.1400 C   0  0  0  0  0  0  0  0  0  0  0  0
   -6.4780   23.9970  -30.3690 C   0  0  0  0  0  0  0  0  0  0  0  0
   -6.5700   25.1190  -29.8020 O   0  0  0  0  0  0  0  0  0  0  0  0
   -5.2400   23.2680  -30.3590 N   0  0  0  0  0  0  0  0  0  0  0  0
   -4.1110   23.6020  -29.5340 C   0  0  0  0  0  0  0  0  0  0  0  0
   -2.8270   23.6090  -30.1000 C   0  0  0  0  0  0  0  0  0  0  0  0
   -1.7080   23.9010  -29.3150 C   0  0  0  0  0  0  0  0  0  0  0  0
   -1.8560   24.1740  -27.9490 C   0  0  0  0  0  0  0  0  0  0  0  0
   -0.4400   24.5300  -26.9570 S   0  0  0  0  0  0  0  0  0  0  0  0
    0.6780   25.0050  -27.8430 O   0  0  0  0  0  0  0  0  0  0  0  0
    0.0120   23.2690  -26.2740 O   0  0  0  0  0  0  0  0  0  0  0  0
   -0.7780   25.7480  -25.7510 N   0  0  0  0  0  0  0  0  0  0  0  0
   -0.2700   25.3250  -24.4350 C   0  0  0  0  0  0  0  0  0  0  0  0
   -0.4490   26.4560  -23.4000 C   0  0  0  0  0  0  0  0  0  0  0  0
   -1.1580   27.5520  -23.9450 O   0  0  0  0  0  0  0  0  0  0  0  0
   -0.4390   28.0910  -25.0390 C   0  0  0  0  0  0  0  0  0  0  0  0
   -0.1770   27.0350  -26.1340 C   0  0  0  0  0  0  0  0  0  0  0  0
   -3.1330   24.1490  -27.3750 C   0  0  0  0  0  0  0  0  0  0  0  0
   -4.2540   23.8570  -28.1580 C   0  0  0  0  0  0  0  0  0  0  0  0
   -5.7390   21.0410  -32.8250 C   0  0  0  0  0  0  0  0  0  0  0  0
   -4.7690   21.8120  -33.0730 O   0  0  0  0  0  0  0  0  0  0  0  0
   -5.5570   19.6470  -32.8460 C   0  0  0  0  0  0  0  0  0  0  0  0
   -4.3010   19.0760  -33.1330 C   0  0  0  0  0  0  0  0  0  0  0  0
   -4.1420   17.6890  -33.1500 C   0  0  0  0  0  0  0  0  0  0  0  0
   -5.2290   16.8570  -32.8820 C   0  0  0  0  0  0  0  0  0  0  0  0
   -6.4820   17.4060  -32.5950 C   0  0  0  0  0  0  0  0  0  0  0  0
   -6.6610   18.8040  -32.5750 C   0  0  0  0  0  0  0  0  0  0  0  0
   -9.2715   18.5059  -30.9133 H   0  0  0  0  0  0  0  0  0  0  0  0
  -10.0173   19.0913  -32.4390 H   0  0  0  0  0  0  0  0  0  0  0  0
   -9.0339   17.5881  -32.4390 H   0  0  0  0  0  0  0  0  0  0  0  0
   -6.2862   23.5277  -32.8116 H   0  0  0  0  0  0  0  0  0  0  0  0
   -8.0101   23.2396  -33.2522 H   0  0  0  0  0  0  0  0  0  0  0  0
   -8.4046   24.2608  -31.2424 H   0  0  0  0  0  0  0  0  0  0  0  0
   -8.0732   22.6085  -30.5978 H   0  0  0  0  0  0  0  0  0  0  0  0
   -5.1280   22.4950  -31.0540 H   0  0  0  0  0  0  0  0  0  0  0  0
   -2.7002   23.3831  -31.1691 H   0  0  0  0  0  0  0  0  0  0  0  0
   -0.7074   23.9165  -29.7716 H   0  0  0  0  0  0  0  0  0  0  0  0
   -0.8256   24.4365  -24.1006 H   0  0  0  0  0  0  0  0  0  0  0  0
    0.8008   25.0898  -24.5248 H   0  0  0  0  0  0  0  0  0  0  0  0
   -1.0058   26.0645  -22.5359 H   0  0  0  0  0  0  0  0  0  0  0  0
    0.5486   26.8072  -23.0975 H   0  0  0  0  0  0  0  0  0  0  0  0
   -1.0205   28.9172  -25.4740 H   0  0  0  0  0  0  0  0  0  0  0  0
    0.5341   28.4432  -24.6662 H   0  0  0  0  0  0  0  0  0  0  0  0
   -0.6204   27.3758  -27.0813 H   0  0  0  0  0  0  0  0  0  0  0  0
    0.9085   26.9033  -26.2541 H   0  0  0  0  0  0  0  0  0  0  0  0
   -3.2549   24.3602  -26.3024 H   0  0  0  0  0  0  0  0  0  0  0  0
   -5.2519   23.8266  -27.6961 H   0  0  0  0  0  0  0  0  0  0  0  0
   -3.4403   19.7273  -33.3450 H   0  0  0  0  0  0  0  0  0  0  0  0
   -3.1581   17.2517  -33.3751 H   0  0  0  0  0  0  0  0  0  0  0  0
   -5.0997   15.7647  -32.8966 H   0  0  0  0  0  0  0  0  0  0  0  0
   -7.3338   16.7429  -32.3834 H   0  0  0  0  0  0  0  0  0  0  0  0
  1  2  1  0
  2  3  2  0
  3  4  1  0
  4  5  1  0
  5  6  1  0
  6  7  1  0
  7  8  2  0
  7  9  1  0
  9 10  1  0
 10 11  2  0
 11 12  1  0
 12 13  2  0
 13 14  1  0
 14 15  2  0
 14 16  2  0
 14 17  1  0
 17 18  1  0
 18 19  1  0
 19 20  1  0
 20 21  1  0
 21 22  1  0
 13 23  1  0
 23 24  2  0
  4 25  1  0
 25 26  2  0
 25 27  1  0
 27 28  2  0
 28 29  1  0
 29 30  2  0
 30 31  1  0
 31 32  2  0
 32  2  1  0
 24 10  1  0
 32 27  1  0
 22 17  1  0
  1 33  1  0
  1 34  1  0
  1 35  1  0
  5 36  1  0
  5 37  1  0
  6 38  1  0
  6 39  1  0
  9 40  1  0
 11 41  1  0
 12 42  1  0
 18 43  1  0
 18 44  1  0
 19 45  1  0
 19 46  1  0
 21 47  1  0
 21 48  1  0
 22 49  1  0
 22 50  1  0
 23 51  1  0
 24 52  1  0
 28 53  1  0
 29 54  1  0
 30 55  1  0
 31 56  1  0
M  END
>  <UniqueID>  (19) 
18

>  <SMILES>  (19) 
Cc1nn(CCC(=O)Nc2ccc(S(=O)(=O)N3CCOCC3)cc2)c(=O)c2ccccc12

>  <Energy>  (19) 
72.61278346851431

>  <Genealogy>  (19) 
Cc1nn(CCC(=O)Nc2ccc(S(=O)(=O)N3CCOCC3)cc2)c(=O)c2ccccc12 (3D coordinates assigned)
Cc1nn(CCC(=O)Nc2ccc(S(=O)(=O)N3CCOCC3)cc2)c(=O)c2ccccc12 (nonaromatic ring conformer: 72.61278346851431 kcal/mol)

>  <smiles>  (19) 
Cc1nn(CCC(=O)Nc2ccc(S(=O)(=O)N3CCOCC3)cc2)c(=O)c2ccccc12

>  <score_type>  (19) 
oracle

>  <origin>  (19) 
adgpu

>  <m_score__min__energy>  (19) 
-10.94

>  <m_primary>  (19) 
energy

$$$$
19:0
     RDKit          3D

 27 28  0  0  0  0  0  0  0  0999 V2000
   -8.8450   21.3070  -31.8740 N   0  0  0  0  0  0  0  0  0  0  0  0
   -7.9270   21.9650  -31.6230 C   0  0  0  0  0  0  0  0  0  0  0  0
   -6.7820   22.7880  -31.3130 C   0  0  0  0  0  0  0  0  0  0  0  0
   -6.9890   24.0390  -30.7170 C   0  0  0  0  0  0  0  0  0  0  0  0
   -5.9040   24.8780  -30.4350 C   0  0  0  0  0  0  0  0  0  0  0  0
   -6.1080   26.1250  -29.8450 O   0  0  0  0  0  0  0  0  0  0  0  0
   -4.6050   24.4650  -30.7500 C   0  0  0  0  0  0  0  0  0  0  0  0
   -3.5230   25.2920  -30.4730 O   0  0  0  0  0  0  0  0  0  0  0  0
   -4.3900   23.2190  -31.3460 C   0  0  0  0  0  0  0  0  0  0  0  0
   -5.4720   22.3740  -31.6380 C   0  0  0  0  0  0  0  0  0  0  0  0
   -5.2160   21.0720  -32.2880 C   0  0  0  0  0  0  0  0  0  0  0  0
   -4.8340   21.0490  -33.4870 O   0  0  0  0  0  0  0  0  0  0  0  0
   -5.3650   19.8330  -31.5810 N   0  0  0  0  0  0  0  0  0  0  0  0
   -6.5320   18.9590  -31.6540 C   0  0  0  0  0  0  0  0  0  0  0  0
   -6.3800   17.9790  -32.7750 C   0  0  0  0  0  0  0  0  0  0  0  0
   -5.7130   18.2050  -33.9630 C   0  0  0  0  0  0  0  0  0  0  0  0
   -5.8560   17.0460  -34.6930 C   0  0  0  0  0  0  0  0  0  0  0  0
   -6.5950   16.1860  -33.9060 C   0  0  0  0  0  0  0  0  0  0  0  0
   -6.8920   16.7700  -32.7670 O   0  0  0  0  0  0  0  0  0  0  0  0
   -8.0102   24.3641  -30.4691 H   0  0  0  0  0  0  0  0  0  0  0  0
   -5.3510   26.6330  -29.4040 H   0  0  0  0  0  0  0  0  0  0  0  0
   -3.3659   22.8985  -31.5878 H   0  0  0  0  0  0  0  0  0  0  0  0
   -6.6349   18.4117  -30.7054 H   0  0  0  0  0  0  0  0  0  0  0  0
   -7.4268   19.5726  -31.8351 H   0  0  0  0  0  0  0  0  0  0  0  0
   -5.1795   19.1189  -34.2632 H   0  0  0  0  0  0  0  0  0  0  0  0
   -5.4610   16.8460  -35.7000 H   0  0  0  0  0  0  0  0  0  0  0  0
   -6.8908   15.1652  -34.1896 H   0  0  0  0  0  0  0  0  0  0  0  0
  1  2  3  0
  2  3  1  0
  3  4  2  0
  4  5  1  0
  5  6  1  0
  5  7  2  0
  7  8  1  0
  7  9  1  0
  9 10  2  0
 10 11  1  0
 11 12  2  0
 11 13  1  0
 13 14  1  0
 14 15  1  0
 15 16  2  0
 16 17  1  0
 17 18  2  0
 18 19  1  0
 10  3  1  0
 19 15  1  0
  4 20  1  0
  6 21  1  0
  9 22  1  0
 14 23  1  0
 14 24  1  0
 16 25  1  0
 17 26  1  0
 18 27  1  0
M  CHG  2   8  -1  13  -1
M  END
>  <UniqueID>  (20) 
19

>  <SMILES>  (20) 
N#Cc1cc(O)c([O-])cc1C(=O)[N-]Cc1ccco1

>  <Energy>  (20) 
55.38114179207924

>  <Genealogy>  (20) 
N#Cc1cc(O)c([O-])cc1C(=O)[N-]Cc1ccco1 (protonated)
N#Cc1cc(O)c([O-])cc1C(=O)[N-]Cc1ccco1 (3D coordinates assigned)
N#Cc1cc(O)c([O-])cc1C(=O)[N-]Cc1ccco1 (optimized conformer: 55.38114179207924 kcal/mol)

>  <smiles>  (20) 
N#Cc1cc(O)c(O)cc1C(=O)NCc1ccco1

>  <score_type>  (20) 
oracle

>  <origin>  (20) 
adgpu

>  <m_score__min__energy>  (20) 
-9.6099999999999994

>  <m_primary>  (20) 
energy

$$$$
20:0
     RDKit          3D

 39 40  0  0  0  0  0  0  0  0999 V2000
   -7.7580   19.9100  -32.2020 C   0  0  0  0  0  0  0  0  0  0  0  0
   -6.8000   20.4070  -33.1980 N   0  0  0  0  0  0  0  0  0  0  0  0
   -6.4910   19.3540  -34.1730 C   0  0  0  0  0  0  0  0  0  0  0  0
   -5.3350   20.9300  -32.4030 S   0  0  0  0  0  0  0  0  0  0  0  0
   -4.2600   21.1450  -33.4310 O   0  0  0  0  0  0  0  0  0  0  0  0
   -4.8690   19.8550  -31.4600 O   0  0  0  0  0  0  0  0  0  0  0  0
   -5.5850   22.4270  -31.5010 C   0  0  0  0  0  0  0  0  0  0  0  0
   -6.8620   22.7650  -31.0390 C   0  0  0  0  0  0  0  0  0  0  0  0
   -7.0620   23.9530  -30.3340 C   0  0  0  0  0  0  0  0  0  0  0  0
   -5.9900   24.8180  -30.0730 C   0  0  0  0  0  0  0  0  0  0  0  0
   -6.2430   26.0690  -29.4210 N   0  0  0  0  0  0  0  0  0  0  0  0
   -4.6920   24.4600  -30.5050 C   0  0  0  0  0  0  0  0  0  0  0  0
   -3.5480   25.2770  -30.2270 N   0  0  0  0  0  0  0  0  0  0  0  0
   -2.4980   24.8980  -29.3300 C   0  0  0  0  0  0  0  0  0  0  0  0
   -2.4430   23.7270  -28.8710 O   0  0  0  0  0  0  0  0  0  0  0  0
   -1.4860   25.8390  -28.9650 N   0  0  0  0  0  0  0  0  0  0  0  0
   -1.1130   26.0990  -27.5820 C   0  0  0  0  0  0  0  0  0  0  0  0
   -0.0150   25.1680  -27.1860 C   0  0  0  0  0  0  0  0  0  0  0  0
    0.1790   24.6330  -25.9290 C   0  0  0  0  0  0  0  0  0  0  0  0
    1.3200   23.8660  -26.0250 C   0  0  0  0  0  0  0  0  0  0  0  0
    1.7520   23.9840  -27.3310 C   0  0  0  0  0  0  0  0  0  0  0  0
    0.9360   24.7680  -27.9980 O   0  0  0  0  0  0  0  0  0  0  0  0
   -4.5070   23.2820  -31.2400 C   0  0  0  0  0  0  0  0  0  0  0  0
   -7.3728   20.1098  -31.1912 H   0  0  0  0  0  0  0  0  0  0  0  0
   -8.7230   20.4212  -32.3344 H   0  0  0  0  0  0  0  0  0  0  0  0
   -7.8958   18.8267  -32.3344 H   0  0  0  0  0  0  0  0  0  0  0  0
   -6.2199   18.4300  -33.6412 H   0  0  0  0  0  0  0  0  0  0  0  0
   -7.3726   19.1686  -34.8042 H   0  0  0  0  0  0  0  0  0  0  0  0
   -5.6490   19.6744  -34.8042 H   0  0  0  0  0  0  0  0  0  0  0  0
   -7.7107   22.0924  -31.2320 H   0  0  0  0  0  0  0  0  0  0  0  0
   -8.0704   24.2130  -29.9798 H   0  0  0  0  0  0  0  0  0  0  0  0
   -7.2110   26.4070  -29.2370 H   0  0  0  0  0  0  0  0  0  0  0  0
   -5.4530   26.6360  -29.0400 H   0  0  0  0  0  0  0  0  0  0  0  0
   -0.7673   27.1386  -27.4835 H   0  0  0  0  0  0  0  0  0  0  0  0
   -1.9840   25.9421  -26.9287 H   0  0  0  0  0  0  0  0  0  0  0  0
   -0.4462   24.7865  -25.0370 H   0  0  0  0  0  0  0  0  0  0  0  0
    1.7912   23.2786  -25.2232 H   0  0  0  0  0  0  0  0  0  0  0  0
    2.6443   23.4955  -27.7495 H   0  0  0  0  0  0  0  0  0  0  0  0
   -3.5054   23.0260  -31.6158 H   0  0  0  0  0  0  0  0  0  0  0  0
  1  2  1  0
  2  3  1  0
  2  4  1  0
  4  5  2  0
  4  6  2  0
  4  7  1  0
  7  8  2  0
  8  9  1  0
  9 10  2  0
 10 11  1  0
 10 12  1  0
 12 13  1  0
 13 14  1  0
 14 15  2  0
 14 16  1  0
 16 17  1  0
 17 18  1  0
 18 19  2  0
 19 20  1  0
 20 21  2  0
 21 22  1  0
 12 23  2  0
 23  7  1  0
 22 18  1  0
  1 24  1  0
  1 25  1  0
  1 26  1  0
  3 27  1  0
  3 28  1  0
  3 29  1  0
  8 30  1  0
  9 31  1  0
 11 32  1  0
 11 33  1  0
 17 34  1  0
 17 35  1  0
 19 36  1  0
 20 37  1  0
 21 38  1  0
 23 39  1  0
M  CHG  2  13  -1  16  -1
M  END
>  <UniqueID>  (21) 
20

>  <SMILES>  (21) 
CN(C)S(=O)(=O)c1ccc(N)c([N-]C(=O)[N-]Cc2ccco2)c1

>  <Energy>  (21) 
64.97329721245454

>  <Genealogy>  (21) 
CN(C)S(=O)(=O)c1ccc(N)c([N-]C(=O)[N-]Cc2ccco2)c1 (protonated)
CN(C)S(=O)(=O)c1ccc(N)c([N-]C(=O)[N-]Cc2ccco2)c1 (3D coordinates assigned)
CN(C)S(=O)(=O)c1ccc(N)c([N-]C(=O)[N-]Cc2ccco2)c1 (optimized conformer: 64.97329721245454 kcal/mol)

>  <smiles>  (21) 
CN(C)S(=O)(=O)c1ccc(N)c(NC(=O)NCc2ccco2)c1

>  <score_type>  (21) 
oracle

>  <origin>  (21) 
adgpu

>  <m_score__min__energy>  (21) 
-10.81

>  <m_primary>  (21) 
energy

$$$$
21:0
     RDKit          3D

 48 51  0  0  0  0  0  0  0  0999 V2000
   -5.6520   25.4190  -30.5760 O   0  0  0  0  0  0  0  0  0  0  0  0
   -4.9640   24.3990  -30.8560 C   0  0  0  0  0  0  0  0  0  0  0  0
   -5.4100   23.4810  -31.8640 N   0  0  0  0  0  0  0  0  0  0  0  0
   -6.6880   22.8320  -31.9230 C   0  0  0  0  0  0  0  0  0  0  0  0
   -7.8930   23.5410  -31.7720 C   0  0  0  0  0  0  0  0  0  0  0  0
   -9.1150   22.8630  -31.8050 C   0  0  0  0  0  0  0  0  0  0  0  0
   -9.1450   21.4770  -31.9730 C   0  0  0  0  0  0  0  0  0  0  0  0
   -7.9500   20.7570  -32.0980 C   0  0  0  0  0  0  0  0  0  0  0  0
   -7.9890   19.0010  -32.2790 S   0  0  0  0  0  0  0  0  0  0  0  0
   -7.7110   18.3650  -30.9450 O   0  0  0  0  0  0  0  0  0  0  0  0
   -9.3630   18.5770  -32.7180 O   0  0  0  0  0  0  0  0  0  0  0  0
   -6.8080   18.4480  -33.4420 N   0  0  0  0  0  0  0  0  0  0  0  0
   -5.4880   19.0640  -33.1670 C   0  0  0  0  0  0  0  0  0  0  0  0
   -4.3180   18.3270  -33.8600 C   0  0  0  0  0  0  0  0  0  0  0  0
   -4.7970   17.4800  -35.0400 C   0  0  0  0  0  0  0  0  0  0  0  0
   -5.8570   16.4580  -34.5960 C   0  0  0  0  0  0  0  0  0  0  0  0
   -6.7320   16.9750  -33.4350 C   0  0  0  0  0  0  0  0  0  0  0  0
   -6.7250   21.4390  -32.0690 C   0  0  0  0  0  0  0  0  0  0  0  0
   -3.6300   24.2430  -30.2450 C   0  0  0  0  0  0  0  0  0  0  0  0
   -3.1370   25.2950  -29.5390 N   0  0  0  0  0  0  0  0  0  0  0  0
   -1.9200   25.2840  -28.9990 N   0  0  0  0  0  0  0  0  0  0  0  0
   -1.0950   24.2160  -29.1240 C   0  0  0  0  0  0  0  0  0  0  0  0
    0.0530   24.2610  -28.6040 O   0  0  0  0  0  0  0  0  0  0  0  0
   -1.5350   23.0770  -29.8180 C   0  0  0  0  0  0  0  0  0  0  0  0
   -0.7150   21.9390  -29.9490 C   0  0  0  0  0  0  0  0  0  0  0  0
   -1.1870   20.8030  -30.6030 C   0  0  0  0  0  0  0  0  0  0  0  0
   -2.4810   20.7800  -31.1200 C   0  0  0  0  0  0  0  0  0  0  0  0
   -3.3080   21.9000  -31.0030 C   0  0  0  0  0  0  0  0  0  0  0  0
   -2.8380   23.0750  -30.3780 C   0  0  0  0  0  0  0  0  0  0  0  0
   -7.8739   24.6313  -31.6276 H   0  0  0  0  0  0  0  0  0  0  0  0
  -10.0558   23.4229  -31.6983 H   0  0  0  0  0  0  0  0  0  0  0  0
  -10.1096   20.9493  -32.0073 H   0  0  0  0  0  0  0  0  0  0  0  0
   -7.1440   18.7660  -34.3820 H   0  0  0  0  0  0  0  0  0  0  0  0
   -5.5063   20.1046  -33.5232 H   0  0  0  0  0  0  0  0  0  0  0  0
   -5.3173   19.0029  -32.0820 H   0  0  0  0  0  0  0  0  0  0  0  0
   -3.5959   19.0715  -34.2265 H   0  0  0  0  0  0  0  0  0  0  0  0
   -3.8545   17.6544  -33.1233 H   0  0  0  0  0  0  0  0  0  0  0  0
   -5.2335   18.1415  -35.8028 H   0  0  0  0  0  0  0  0  0  0  0  0
   -3.9349   16.9328  -35.4491 H   0  0  0  0  0  0  0  0  0  0  0  0
   -6.5078   16.2308  -35.4532 H   0  0  0  0  0  0  0  0  0  0  0  0
   -5.3269   15.5625  -34.2397 H   0  0  0  0  0  0  0  0  0  0  0  0
   -7.7465   16.5625  -33.5385 H   0  0  0  0  0  0  0  0  0  0  0  0
   -6.2786   16.6532  -32.4859 H   0  0  0  0  0  0  0  0  0  0  0  0
   -5.7849   20.8754  -32.1617 H   0  0  0  0  0  0  0  0  0  0  0  0
    0.3032   21.9474  -29.5328 H   0  0  0  0  0  0  0  0  0  0  0  0
   -0.5369   19.9223  -30.7115 H   0  0  0  0  0  0  0  0  0  0  0  0
   -2.8532   19.8752  -31.6229 H   0  0  0  0  0  0  0  0  0  0  0  0
   -4.3329   21.8658  -31.4009 H   0  0  0  0  0  0  0  0  0  0  0  0
  1  2  2  0
  2  3  1  0
  3  4  1  0
  4  5  2  0
  5  6  1  0
  6  7  2  0
  7  8  1  0
  8  9  1  0
  9 10  2  0
  9 11  2  0
  9 12  1  0
 12 13  1  0
 13 14  1  0
 14 15  1  0
 15 16  1  0
 16 17  1  0
  8 18  2  0
  2 19  1  0
 19 20  2  0
 20 21  1  0
 21 22  1  0
 22 23  2  0
 22 24  1  0
 24 25  2  0
 25 26  1  0
 26 27  2  0
 27 28  1  0
 28 29  2  0
 18  4  1  0
 29 19  1  0
 17 12  1  0
 29 24  1  0
  5 30  1  0
  6 31  1  0
  7 32  1  0
 12 33  1  0
 13 34  1  0
 13 35  1  0
 14 36  1  0
 14 37  1  0
 15 38  1  0
 15 39  1  0
 16 40  1  0
 16 41  1  0
 17 42  1  0
 17 43  1  0
 18 44  1  0
 25 45  1  0
 26 46  1  0
 27 47  1  0
 28 48  1  0
M  CHG  3   3  -1  12   1  21  -1
M  END
>  <UniqueID>  (22) 
21

>  <SMILES>  (22) 
O=C([N-]c1cccc(S(=O)(=O)[NH+]2CCCCC2)c1)c1n[n-]c(=O)c2ccccc12

>  <Energy>  (22) 
69.73819795698464

>  <Genealogy>  (22) 
O=C([N-]c1cccc(S(=O)(=O)[NH+]2CCCCC2)c1)c1n[n-]c(=O)c2ccccc12 (protonated)
O=C([N-]c1cccc(S(=O)(=O)[NH+]2CCCCC2)c1)c1n[n-]c(=O)c2ccccc12 (3D coordinates assigned)
O=C([N-]c1cccc(S(=O)(=O)[NH+]2CCCCC2)c1)c1n[n-]c(=O)c2ccccc12 (nonaromatic ring conformer: 69.73819795698464 kcal/mol)

>  <smiles>  (22) 
O=C(Nc1cccc(S(=O)(=O)N2CCCCC2)c1)c1n[nH]c(=O)c2ccccc12

>  <score_type>  (22) 
oracle

>  <origin>  (22) 
adgpu

>  <m_score__min__energy>  (22) 
-12.56

>  <m_primary>  (22) 
energy

$$$$
22:0
     RDKit          3D

 57 60  0  0  0  0  0  0  0  0999 V2000
   -0.0650   19.3110  -30.9720 C   0  0  0  0  0  0  0  0  0  0  0  0
   -0.7610   20.6200  -30.7010 C   0  0  0  0  0  0  0  0  0  0  0  0
   -0.4410   21.3130  -29.5240 C   0  0  0  0  0  0  0  0  0  0  0  0
   -1.0510   22.5270  -29.2230 C   0  0  0  0  0  0  0  0  0  0  0  0
   -1.9810   23.0950  -30.1050 C   0  0  0  0  0  0  0  0  0  0  0  0
   -2.6420   24.3310  -29.7920 N   0  0  0  0  0  0  0  0  0  0  0  0
   -3.9930   24.6870  -30.1080 C   0  0  0  0  0  0  0  0  0  0  0  0
   -4.2380   25.6750  -30.8520 O   0  0  0  0  0  0  0  0  0  0  0  0
   -5.0600   23.9040  -29.5560 N   0  0  0  0  0  0  0  0  0  0  0  0
   -5.8270   22.9000  -30.2390 C   0  0  0  0  0  0  0  0  0  0  0  0
   -5.1830   21.7270  -30.6510 C   0  0  0  0  0  0  0  0  0  0  0  0
   -5.8970   20.7170  -31.2990 C   0  0  0  0  0  0  0  0  0  0  0  0
   -7.2650   20.8770  -31.5660 C   0  0  0  0  0  0  0  0  0  0  0  0
   -8.1880   19.5730  -32.3210 S   0  0  0  0  0  0  0  0  0  0  0  0
   -9.3430   20.1680  -33.0760 O   0  0  0  0  0  0  0  0  0  0  0  0
   -8.7450   18.6830  -31.2460 O   0  0  0  0  0  0  0  0  0  0  0  0
   -7.2330   18.6050  -33.4190 N   0  0  0  0  0  0  0  0  0  0  0  0
   -6.2430   19.4010  -34.1390 C   0  0  0  0  0  0  0  0  0  0  0  0
   -5.1480   18.4340  -34.5580 C   0  0  0  0  0  0  0  0  0  0  0  0
   -5.2810   17.2460  -33.6140 C   0  0  0  0  0  0  0  0  0  0  0  0
   -6.4690   17.5750  -32.7210 C   0  0  0  0  0  0  0  0  0  0  0  0
   -7.9030   22.0640  -31.1900 C   0  0  0  0  0  0  0  0  0  0  0  0
   -7.1890   23.0760  -30.5390 C   0  0  0  0  0  0  0  0  0  0  0  0
   -2.3350   22.4010  -31.2800 C   0  0  0  0  0  0  0  0  0  0  0  0
   -3.2660   22.9550  -32.1620 O   0  0  0  0  0  0  0  0  0  0  0  0
   -1.7460   21.1480  -31.5750 C   0  0  0  0  0  0  0  0  0  0  0  0
   -2.2270   20.2570  -33.0420 S   0  0  0  0  0  0  0  0  0  0  0  0
   -3.2760   20.9970  -33.8230 O   0  0  0  0  0  0  0  0  0  0  0  0
   -2.8050   18.9260  -32.6480 O   0  0  0  0  0  0  0  0  0  0  0  0
   -0.8370   20.0280  -34.0550 N   0  0  0  0  0  0  0  0  0  0  0  0
   -0.2250   18.7420  -34.3460 C   0  0  0  0  0  0  0  0  0  0  0  0
    1.0330   19.0720  -35.1890 C   0  0  0  0  0  0  0  0  0  0  0  0
    1.0740   20.5260  -35.3290 N   0  0  0  0  0  0  0  0  0  0  0  0
   -0.0470   21.0380  -34.6430 C   0  0  0  0  0  0  0  0  0  0  0  0
   -0.3080   22.2670  -34.5670 O   0  0  0  0  0  0  0  0  0  0  0  0
    0.1919   18.8279  -30.0177 H   0  0  0  0  0  0  0  0  0  0  0  0
   -0.7325   18.6532  -31.5480 H   0  0  0  0  0  0  0  0  0  0  0  0
    0.8536   19.4965  -31.5480 H   0  0  0  0  0  0  0  0  0  0  0  0
    0.3014   20.8915  -28.8303 H   0  0  0  0  0  0  0  0  0  0  0  0
   -0.8014   23.0452  -28.2854 H   0  0  0  0  0  0  0  0  0  0  0  0
   -4.1067   21.6002  -30.4628 H   0  0  0  0  0  0  0  0  0  0  0  0
   -5.3846   19.7918  -31.6015 H   0  0  0  0  0  0  0  0  0  0  0  0
   -6.6993   19.8678  -35.0244 H   0  0  0  0  0  0  0  0  0  0  0  0
   -5.8446   20.2110  -33.5104 H   0  0  0  0  0  0  0  0  0  0  0  0
   -5.2928   18.1159  -35.6010 H   0  0  0  0  0  0  0  0  0  0  0  0
   -4.1502   18.8937  -34.5020 H   0  0  0  0  0  0  0  0  0  0  0  0
   -5.4690   16.3223  -34.1809 H   0  0  0  0  0  0  0  0  0  0  0  0
   -4.3629   17.0799  -33.0313 H   0  0  0  0  0  0  0  0  0  0  0  0
   -7.0891   16.6796  -32.5667 H   0  0  0  0  0  0  0  0  0  0  0  0
   -6.1406   17.9229  -31.7305 H   0  0  0  0  0  0  0  0  0  0  0  0
   -8.9724   22.2025  -31.4075 H   0  0  0  0  0  0  0  0  0  0  0  0
   -7.6951   24.0123  -30.2611 H   0  0  0  0  0  0  0  0  0  0  0  0
   -3.7940   23.7930  -31.9500 H   0  0  0  0  0  0  0  0  0  0  0  0
    0.0583   18.2300  -33.4145 H   0  0  0  0  0  0  0  0  0  0  0  0
   -0.9134   18.0706  -34.8803 H   0  0  0  0  0  0  0  0  0  0  0  0
    1.9379   18.7147  -34.6757 H   0  0  0  0  0  0  0  0  0  0  0  0
    0.9910   18.5805  -36.1722 H   0  0  0  0  0  0  0  0  0  0  0  0
  1  2  1  0
  2  3  2  0
  3  4  1  0
  4  5  2  0
  5  6  1  0
  6  7  1  0
  7  8  2  0
  7  9  1  0
  9 10  1  0
 10 11  2  0
 11 12  1  0
 12 13  2  0
 13 14  1  0
 14 15  2  0
 14 16  2  0
 14 17  1  0
 17 18  1  0
 18 19  1  0
 19 20  1  0
 20 21  1  0
 13 22  1  0
 22 23  2  0
  5 24  1  0
 24 25  1  0
 24 26  2  0
 26 27  1  0
 27 28  2  0
 27 29  2  0
 27 30  1  0
 30 31  1  0
 31 32  1  0
 32 33  1  0
 33 34  1  0
 34 35  2  0
 26  2  1  0
 34 30  1  0
 23 10  1  0
 21 17  1  0
  1 36  1  0
  1 37  1  0
  1 38  1  0
  3 39  1  0
  4 40  1  0
 11 41  1  0
 12 42  1  0
 18 43  1  0
 18 44  1  0
 19 45  1  0
 19 46  1  0
 20 47  1  0
 20 48  1  0
 21 49  1  0
 21 50  1  0
 22 51  1  0
 23 52  1  0
 25 53  1  0
 31 54  1  0
 31 55  1  0
 32 56  1  0
 32 57  1  0
M  CHG  3   6  -1   9  -1  33  -1
M  END
>  <UniqueID>  (23) 
22

>  <SMILES>  (23) 
Cc1ccc([N-]C(=O)[N-]c2ccc(S(=O)(=O)N3CCCC3)cc2)c(O)c1S(=O)(=O)N1CC[N-]C1=O

>  <Energy>  (23) 
86.97766485058186

>  <Genealogy>  (23) 
Cc1ccc([N-]C(=O)[N-]c2ccc(S(=O)(=O)N3CCCC3)cc2)c(O)c1S(=O)(=O)N1CC[N-]C1=O (protonated)
Cc1ccc([N-]C(=O)[N-]c2ccc(S(=O)(=O)N3CCCC3)cc2)c(O)c1S(=O)(=O)N1CC[N-]C1=O (3D coordinates assigned)
Cc1ccc([N-]C(=O)[N-]c2ccc(S(=O)(=O)N3CCCC3)cc2)c(O)c1S(=O)(=O)N1CC[N-]C1=O (nonaromatic ring conformer: 86.97766485058186 kcal/mol)

>  <smiles>  (23) 
Cc1ccc(NC(=O)Nc2ccc(S(=O)(=O)N3CCCC3)cc2)c(O)c1S(=O)(=O)N1CCNC1=O

>  <score_type>  (23) 
oracle

>  <origin>  (23) 
adgpu

>  <m_score__min__energy>  (23) 
-14.6

>  <m_primary>  (23) 
energy

$$$$
23:0
     RDKit          3D

 49 52  0  0  0  0  0  0  0  0999 V2000
   -5.7250   25.8520  -29.8130 O   0  0  0  0  0  0  0  0  0  0  0  0
   -5.0210   25.2530  -30.6700 C   0  0  0  0  0  0  0  0  0  0  0  0
   -3.6090   25.1440  -30.4660 N   0  0  0  0  0  0  0  0  0  0  0  0
   -3.0130   24.4450  -29.3650 C   0  0  0  0  0  0  0  0  0  0  0  0
   -3.6490   23.3060  -28.8690 C   0  0  0  0  0  0  0  0  0  0  0  0
   -3.0640   22.5640  -27.8450 C   0  0  0  0  0  0  0  0  0  0  0  0
   -1.8460   22.9630  -27.2850 C   0  0  0  0  0  0  0  0  0  0  0  0
   -1.1330   21.9140  -26.0630 Cl  0  0  0  0  0  0  0  0  0  0  0  0
   -1.2220   24.1530  -27.7230 C   0  0  0  0  0  0  0  0  0  0  0  0
    0.3310   24.6780  -27.0370 S   0  0  0  0  0  0  0  0  0  0  0  0
    0.8790   25.8380  -27.8190 O   0  0  0  0  0  0  0  0  0  0  0  0
    1.3410   23.5650  -27.1040 O   0  0  0  0  0  0  0  0  0  0  0  0
    0.0450   25.1850  -25.3430 C   0  0  0  0  0  0  0  0  0  0  0  0
   -1.3610   25.6650  -25.0260 C   0  0  0  0  0  0  0  0  0  0  0  0
   -0.2290   26.6710  -25.1780 C   0  0  0  0  0  0  0  0  0  0  0  0
   -1.8190   24.8930  -28.7670 C   0  0  0  0  0  0  0  0  0  0  0  0
   -1.2390   26.0800  -29.2030 O   0  0  0  0  0  0  0  0  0  0  0  0
   -5.6360   24.6140  -31.7950 N   0  0  0  0  0  0  0  0  0  0  0  0
   -5.8380   23.2030  -31.9520 C   0  0  0  0  0  0  0  0  0  0  0  0
   -7.1130   22.6930  -31.7150 C   0  0  0  0  0  0  0  0  0  0  0  0
   -7.3560   21.3280  -31.8050 C   0  0  0  0  0  0  0  0  0  0  0  0
   -6.3290   20.4430  -32.1410 C   0  0  0  0  0  0  0  0  0  0  0  0
   -6.7580   18.7360  -32.1920 Cl  0  0  0  0  0  0  0  0  0  0  0  0
   -5.0190   20.9300  -32.3850 C   0  0  0  0  0  0  0  0  0  0  0  0
   -3.6940   19.8340  -32.8570 S   0  0  0  0  0  0  0  0  0  0  0  0
   -3.1290   20.2730  -34.1800 O   0  0  0  0  0  0  0  0  0  0  0  0
   -4.1750   18.4210  -33.0280 O   0  0  0  0  0  0  0  0  0  0  0  0
   -2.4050   19.8910  -31.6090 C   0  0  0  0  0  0  0  0  0  0  0  0
   -1.3500   20.9530  -31.8670 C   0  0  0  0  0  0  0  0  0  0  0  0
   -1.7410   21.7410  -30.6970 N   0  0  0  0  0  0  0  0  0  0  0  0
   -2.7660   20.7380  -30.4030 C   0  0  0  0  0  0  0  0  0  0  0  0
   -4.7710   22.3230  -32.2320 C   0  0  0  0  0  0  0  0  0  0  0  0
   -3.4810   22.8570  -32.3030 O   0  0  0  0  0  0  0  0  0  0  0  0
   -4.6164   22.9927  -29.2884 H   0  0  0  0  0  0  0  0  0  0  0  0
   -3.5640   21.6572  -27.4740 H   0  0  0  0  0  0  0  0  0  0  0  0
    0.7296   24.4538  -24.8883 H   0  0  0  0  0  0  0  0  0  0  0  0
   -2.1488   25.6036  -25.7912 H   0  0  0  0  0  0  0  0  0  0  0  0
   -2.1022   25.4401  -24.2450 H   0  0  0  0  0  0  0  0  0  0  0  0
   -0.1983   27.3367  -26.0532 H   0  0  0  0  0  0  0  0  0  0  0  0
    0.1874   27.4745  -24.5527 H   0  0  0  0  0  0  0  0  0  0  0  0
   -7.9341   23.3770  -31.4544 H   0  0  0  0  0  0  0  0  0  0  0  0
   -8.3668   20.9406  -31.6098 H   0  0  0  0  0  0  0  0  0  0  0  0
   -2.1758   18.8169  -31.5474 H   0  0  0  0  0  0  0  0  0  0  0  0
   -0.3208   20.5688  -31.8104 H   0  0  0  0  0  0  0  0  0  0  0  0
   -1.3249   21.4447  -32.8507 H   0  0  0  0  0  0  0  0  0  0  0  0
   -2.2170   22.6120  -31.0310 H   0  0  0  0  0  0  0  0  0  0  0  0
   -2.6089   20.2217  -29.4445 H   0  0  0  0  0  0  0  0  0  0  0  0
   -3.8084   21.0683  -30.2831 H   0  0  0  0  0  0  0  0  0  0  0  0
   -3.2190   23.7650  -31.9480 H   0  0  0  0  0  0  0  0  0  0  0  0
  1  2  2  0
  2  3  1  0
  3  4  1  0
  4  5  2  0
  5  6  1  0
  6  7  2  0
  7  8  1  0
  7  9  1  0
  9 10  1  0
 10 11  2  0
 10 12  2  0
 10 13  1  0
 13 14  1  0
 14 15  1  0
  9 16  2  0
 16 17  1  0
  2 18  1  0
 18 19  1  0
 19 20  2  0
 20 21  1  0
 21 22  2  0
 22 23  1  0
 22 24  1  0
 24 25  1  0
 25 26  2  0
 25 27  2  0
 25 28  1  0
 28 29  1  0
 29 30  1  0
 30 31  1  0
 24 32  2  0
 32 33  1  0
 16  4  1  0
 32 19  1  0
 15 13  1  0
 31 28  1  0
  5 34  1  0
  6 35  1  0
 13 36  1  0
 14 37  1  0
 14 38  1  0
 15 39  1  0
 15 40  1  0
 20 41  1  0
 21 42  1  0
 28 43  1  0
 29 44  1  0
 29 45  1  0
 30 46  1  0
 31 47  1  0
 31 48  1  0
 33 49  1  0
M  CHG  3   3  -1  17  -1  18  -1
M  END
>  <UniqueID>  (24) 
23

>  <SMILES>  (24) 
O=C([N-]c1ccc(Cl)c(S(=O)(=O)C2CC2)c1[O-])[N-]c1ccc(Cl)c(S(=O)(=O)C2CNC2)c1O

>  <Energy>  (24) 
398.3893628517149

>  <Genealogy>  (24) 
O=C([N-]c1ccc(Cl)c(S(=O)(=O)C2CC2)c1[O-])[N-]c1ccc(Cl)c(S(=O)(=O)C2CNC2)c1O (protonated)
O=C([N-]c1ccc(Cl)c(S(=O)(=O)C2CC2)c1[O-])[N-]c1ccc(Cl)c(S(=O)(=O)C2CNC2)c1O (3D coordinates assigned)
O=C([N-]c1ccc(Cl)c(S(=O)(=O)C2CC2)c1[O-])[N-]c1ccc(Cl)c(S(=O)(=O)C2CNC2)c1O (nonaromatic ring conformer: 398.3893628517149 kcal/mol)

>  <smiles>  (24) 
O=C(Nc1ccc(Cl)c(S(=O)(=O)C2CC2)c1O)Nc1ccc(Cl)c(S(=O)(=O)C2CNC2)c1O

>  <score_type>  (24) 
oracle

>  <origin>  (24) 
adgpu

>  <m_score__min__energy>  (24) 
-15.91

>  <m_primary>  (24) 
energy

$$$$
24:0
     RDKit          3D

 48 51  0  0  0  0  0  0  0  0999 V2000
   -0.3360   24.2550  -25.2760 C   0  0  0  0  0  0  0  0  0  0  0  0
   -0.5730   25.6980  -25.3750 N   0  0  0  0  0  0  0  0  0  0  0  0
   -0.7050   26.4670  -24.2520 C   0  0  0  0  0  0  0  0  0  0  0  0
   -0.7930   27.8330  -24.4750 C   0  0  0  0  0  0  0  0  0  0  0  0
   -0.7400   28.0930  -26.1310 S   0  0  0  0  0  0  0  0  0  0  0  0
   -0.6200   26.4640  -26.5090 C   0  0  0  0  0  0  0  0  0  0  0  0
   -0.5180   26.0580  -27.7460 N   0  0  0  0  0  0  0  0  0  0  0  0
   -0.5240   24.7300  -28.2850 C   0  0  0  0  0  0  0  0  0  0  0  0
    0.5630   24.1750  -28.5960 O   0  0  0  0  0  0  0  0  0  0  0  0
   -1.7930   23.9660  -28.3600 C   0  0  0  0  0  0  0  0  0  0  0  0
   -1.9160   22.7230  -27.7140 C   0  0  0  0  0  0  0  0  0  0  0  0
   -3.1090   21.9990  -27.7890 C   0  0  0  0  0  0  0  0  0  0  0  0
   -4.1960   22.5110  -28.5020 C   0  0  0  0  0  0  0  0  0  0  0  0
   -4.0940   23.7460  -29.1530 C   0  0  0  0  0  0  0  0  0  0  0  0
   -5.4850   24.3750  -30.0360 S   0  0  0  0  0  0  0  0  0  0  0  0
   -6.2100   25.3880  -29.1870 O   0  0  0  0  0  0  0  0  0  0  0  0
   -4.9810   25.0750  -31.2690 O   0  0  0  0  0  0  0  0  0  0  0  0
   -6.5460   23.0360  -30.4450 N   0  0  1  0  0  0  0  0  0  0  0  0
   -7.6800   23.4950  -31.2700 C   0  0  0  0  0  0  0  0  0  0  0  0
   -8.7100   22.3720  -31.4410 C   0  0  0  0  0  0  0  0  0  0  0  0
   -8.0590   21.0790  -31.8560 C   0  0  0  0  0  0  0  0  0  0  0  0
   -8.8520   20.0430  -32.3770 C   0  0  0  0  0  0  0  0  0  0  0  0
   -8.2760   18.8120  -32.7090 C   0  0  0  0  0  0  0  0  0  0  0  0
   -6.9080   18.6060  -32.5140 C   0  0  0  0  0  0  0  0  0  0  0  0
   -6.1130   19.6260  -31.9860 C   0  0  0  0  0  0  0  0  0  0  0  0
   -6.6830   20.8580  -31.6330 C   0  0  0  0  0  0  0  0  0  0  0  0
   -5.7880   21.9730  -31.1380 C   0  0  0  0  0  0  0  0  0  0  0  0
   -2.8930   24.4700  -29.0840 C   0  0  0  0  0  0  0  0  0  0  0  0
   -0.2881   23.9631  -24.2165 H   0  0  0  0  0  0  0  0  0  0  0  0
   -1.1573   23.7139  -25.7686 H   0  0  0  0  0  0  0  0  0  0  0  0
    0.6152   24.0050  -25.7686 H   0  0  0  0  0  0  0  0  0  0  0  0
   -0.7390   26.0324  -23.2421 H   0  0  0  0  0  0  0  0  0  0  0  0
   -0.8820   28.6098  -23.7013 H   0  0  0  0  0  0  0  0  0  0  0  0
   -1.0664   22.3173  -27.1451 H   0  0  0  0  0  0  0  0  0  0  0  0
   -3.1924   21.0244  -27.2858 H   0  0  0  0  0  0  0  0  0  0  0  0
   -5.1357   21.9413  -28.5520 H   0  0  0  0  0  0  0  0  0  0  0  0
   -6.9170   22.6490  -29.5440 H   0  0  0  0  0  0  0  0  0  0  0  0
   -8.1599   24.3545  -30.7792 H   0  0  0  0  0  0  0  0  0  0  0  0
   -7.3033   23.7858  -32.2617 H   0  0  0  0  0  0  0  0  0  0  0  0
   -9.2317   22.2179  -30.4849 H   0  0  0  0  0  0  0  0  0  0  0  0
   -9.4153   22.6703  -32.2307 H   0  0  0  0  0  0  0  0  0  0  0  0
   -9.9306   20.2004  -32.5246 H   0  0  0  0  0  0  0  0  0  0  0  0
   -8.9001   18.0065  -33.1235 H   0  0  0  0  0  0  0  0  0  0  0  0
   -6.4559   17.6383  -32.7769 H   0  0  0  0  0  0  0  0  0  0  0  0
   -5.0343   19.4622  -31.8463 H   0  0  0  0  0  0  0  0  0  0  0  0
   -5.0511   21.5509  -30.4388 H   0  0  0  0  0  0  0  0  0  0  0  0
   -5.2987   22.4251  -32.0134 H   0  0  0  0  0  0  0  0  0  0  0  0
   -2.8095   25.4384  -29.5990 H   0  0  0  0  0  0  0  0  0  0  0  0
  1  2  1  0
  2  3  1  0
  3  4  2  0
  4  5  1  0
  5  6  1  0
  6  7  2  3
  7  8  1  0
  8  9  2  0
  8 10  1  0
 10 11  2  0
 11 12  1  0
 12 13  2  0
 13 14  1  0
 14 15  1  0
 15 16  2  0
 15 17  2  0
 15 18  1  0
 18 19  1  0
 19 20  1  0
 20 21  1  0
 21 22  2  0
 22 23  1  0
 23 24  2  0
 24 25  1  0
 25 26  2  0
 26 27  1  0
 14 28  2  0
  6  2  1  0
 28 10  1  0
 27 18  1  0
 26 21  1  0
  1 29  1  0
  1 30  1  0
  1 31  1  0
  3 32  1  0
  4 33  1  0
 11 34  1  0
 12 35  1  0
 13 36  1  0
 18 37  1  1
 19 38  1  0
 19 39  1  0
 20 40  1  0
 20 41  1  0
 22 42  1  0
 23 43  1  0
 24 44  1  0
 25 45  1  0
 27 46  1  0
 27 47  1  0
 28 48  1  0
M  CHG  1  18   1
M  END
>  <UniqueID>  (25) 
24

>  <SMILES>  (25) 
Cn1ccsc1=NC(=O)c1cccc(S(=O)(=O)[N@H+]2CCc3ccccc3C2)c1

>  <Energy>  (25) 
99.97480157143455

>  <Genealogy>  (25) 
Cn1ccsc1=NC(=O)c1cccc(S(=O)(=O)[NH+]2CCc3ccccc3C2)c1 (protonated)
Cn1ccsc1=NC(=O)c1cccc(S(=O)(=O)[N@H+]2CCc3ccccc3C2)c1 (chirality)
Cn1ccsc1=NC(=O)c1cccc(S(=O)(=O)[N@H+]2CCc3ccccc3C2)c1 (3D coordinates assigned)
Cn1ccsc1=NC(=O)c1cccc(S(=O)(=O)[N@H+]2CCc3ccccc3C2)c1 (nonaromatic ring conformer: 99.97480157143455 kcal/mol)

>  <smiles>  (25) 
Cn1ccsc1=NC(=O)c1cccc(S(=O)(=O)N2CCc3ccccc3C2)c1

>  <score_type>  (25) 
oracle

>  <origin>  (25) 
adgpu

>  <m_score__min__energy>  (25) 
-9.9800000000000004

>  <m_primary>  (25) 
energy

$$$$
25:0
     RDKit          3D

 45 48  0  0  0  0  0  0  0  0999 V2000
   -0.8435   16.6887  -26.5529 H   0  0  0  0  0  0  0  0  0  0  0  0
   -0.1520   17.3430  -27.1040 C   0  0  0  0  0  0  0  0  0  0  0  0
    1.0140   16.9390  -27.3560 O   0  0  0  0  0  0  0  0  0  0  0  0
   -0.6060   18.6780  -27.5350 C   0  0  0  0  0  0  0  0  0  0  0  0
    0.0610   19.3330  -28.5820 C   0  0  0  0  0  0  0  0  0  0  0  0
    0.9158   18.8468  -29.0748 H   0  0  0  0  0  0  0  0  0  0  0  0
   -0.3550   20.6000  -29.0020 C   0  0  0  0  0  0  0  0  0  0  0  0
    0.1891   21.1152  -29.8073 H   0  0  0  0  0  0  0  0  0  0  0  0
   -1.4590   21.2160  -28.4040 C   0  0  0  0  0  0  0  0  0  0  0  0
   -1.8190   22.5450  -28.8060 N   0  0  0  0  0  0  0  0  0  0  0  0
   -2.8730   22.9280  -29.4750 C   0  0  0  0  0  0  0  0  0  0  0  0
   -3.1200   24.3160  -29.6920 C   0  0  0  0  0  0  0  0  0  0  0  0
   -2.3920   25.2810  -29.1910 N   0  0  0  0  0  0  0  0  0  0  0  0
   -1.3240   25.1990  -28.2360 C   0  0  0  0  0  0  0  0  0  0  0  0
   -1.5200   25.6810  -26.9380 C   0  0  0  0  0  0  0  0  0  0  0  0
   -2.4813   26.1391  -26.6621 H   0  0  0  0  0  0  0  0  0  0  0  0
   -0.4970   25.5820  -25.9900 C   0  0  0  0  0  0  0  0  0  0  0  0
   -0.6526   25.9791  -24.9761 H   0  0  0  0  0  0  0  0  0  0  0  0
    0.7250   24.9810  -26.3210 C   0  0  0  0  0  0  0  0  0  0  0  0
    1.7210   24.9140  -25.3370 O   0  0  0  0  0  0  0  0  0  0  0  0
    1.6910   25.6410  -24.1130 C   0  0  0  0  0  0  0  0  0  0  0  0
    1.7200   24.9375  -23.2679 H   0  0  0  0  0  0  0  0  0  0  0  0
    2.5623   26.3106  -24.0628 H   0  0  0  0  0  0  0  0  0  0  0  0
    0.7675   26.2365  -24.0628 H   0  0  0  0  0  0  0  0  0  0  0  0
    0.9070   24.4650  -27.6180 C   0  0  0  0  0  0  0  0  0  0  0  0
    1.8586   23.9836  -27.8875 H   0  0  0  0  0  0  0  0  0  0  0  0
   -0.1170   24.5620  -28.5650 C   0  0  0  0  0  0  0  0  0  0  0  0
    0.0234   24.1382  -29.5703 H   0  0  0  0  0  0  0  0  0  0  0  0
   -4.1680   24.6740  -30.4800 N   0  0  0  0  0  0  0  0  0  0  0  0
   -4.9970   23.7630  -31.0420 C   0  0  0  0  0  0  0  0  0  0  0  0
   -6.0710   24.1770  -31.8390 C   0  0  0  0  0  0  0  0  0  0  0  0
   -6.2473   25.2491  -32.0110 H   0  0  0  0  0  0  0  0  0  0  0  0
   -6.9190   23.2280  -32.4160 C   0  0  0  0  0  0  0  0  0  0  0  0
   -7.7647   23.5540  -33.0394 H   0  0  0  0  0  0  0  0  0  0  0  0
   -6.6940   21.8640  -32.2020 C   0  0  0  0  0  0  0  0  0  0  0  0
   -7.3620   21.1193  -32.6594 H   0  0  0  0  0  0  0  0  0  0  0  0
   -5.6220   21.4450  -31.4080 C   0  0  0  0  0  0  0  0  0  0  0  0
   -5.4464   20.3716  -31.2436 H   0  0  0  0  0  0  0  0  0  0  0  0
   -4.7690   22.3940  -30.8200 C   0  0  0  0  0  0  0  0  0  0  0  0
   -3.7100   22.0090  -30.0550 N   0  0  0  0  0  0  0  0  0  0  0  0
   -3.5230   20.9860  -29.9640 H   0  0  0  0  0  0  0  0  0  0  0  0
   -2.1050   20.5810  -27.3300 C   0  0  0  0  0  0  0  0  0  0  0  0
   -2.9405   21.0826  -26.8197 H   0  0  0  0  0  0  0  0  0  0  0  0
   -1.6910   19.3150  -26.9070 C   0  0  0  0  0  0  0  0  0  0  0  0
   -2.2159   18.8149  -26.0797 H   0  0  0  0  0  0  0  0  0  0  0  0
  1  2  1  0
  2  3  2  0
  2  4  1  0
  4  5  2  0
  5  6  1  0
  5  7  1  0
  7  8  1  0
  7  9  2  0
  9 10  1  0
 10 11  2  0
 11 12  1  0
 12 13  2  0
 13 14  1  0
 14 15  2  0
 15 16  1  0
 15 17  1  0
 17 18  1  0
 17 19  2  0
 19 20  1  0
 20 21  1  0
 21 22  1  0
 21 23  1  0
 21 24  1  0
 19 25  1  0
 25 26  1  0
 25 27  2  0
 27 28  1  0
 12 29  1  0
 29 30  1  0
 30 31  2  0
 31 32  1  0
 31 33  1  0
 33 34  1  0
 33 35  2  0
 35 36  1  0
 35 37  1  0
 37 38  1  0
 37 39  2  0
 39 40  1  0
 40 41  1  0
  9 42  1  0
 42 43  1  0
 42 44  2  0
 44 45  1  0
 44  4  1  0
 40 11  1  0
 27 14  1  0
 39 30  1  0
M  CHG  1  29  -1
M  END
>  <UniqueID>  (26) 
25

>  <SMILES>  (26) 
COc1ccc(/N=c2/[n-]c3ccccc3[nH]c2=Nc2ccc(C=O)cc2)cc1

>  <Energy>  (26) 
75.48013979080838

>  <Genealogy>  (26) 
COc1ccc(N=c2[n-]c3ccccc3[nH]c2=Nc2ccc(C=O)cc2)cc1 (protonated)
COc1ccc(/N=c2/[n-]c3ccccc3[nH]c2=Nc2ccc(C=O)cc2)cc1 (cis-trans isomerization)
COc1ccc(/N=c2/[n-]c3ccccc3[nH]c2=Nc2ccc(C=O)cc2)cc1 (3D coordinates assigned)
COc1ccc(/N=c2/[n-]c3ccccc3[nH]c2=Nc2ccc(C=O)cc2)cc1 (optimized conformer: 75.48013979080838 kcal/mol)

>  <smiles>  (26) 
COc1ccc(N=c2[nH]c3ccccc3[nH]c2=Nc2ccc(C=O)cc2)cc1

>  <score_type>  (26) 
oracle

>  <origin>  (26) 
adgpu

>  <m_score__min__energy>  (26) 
-8.9700000000000006

>  <m_primary>  (26) 
energy

$$$$
26:0
     RDKit          3D

 57 60  0  0  0  0  0  0  0  0999 V2000
    0.8390   29.2120  -24.1450 C   0  0  0  0  0  0  0  0  0  0  0  0
    0.1360   28.1880  -24.9850 C   0  0  0  0  0  0  0  0  0  0  0  0
   -0.4750   27.0720  -24.3940 C   0  0  0  0  0  0  0  0  0  0  0  0
   -1.1020   26.1070  -25.1900 C   0  0  0  0  0  0  0  0  0  0  0  0
   -1.1210   26.2400  -26.5890 C   0  0  0  0  0  0  0  0  0  0  0  0
   -1.7540   25.2420  -27.4110 N   0  0  0  0  0  0  0  0  0  0  0  0
   -3.0370   24.9210  -27.3300 N   0  0  0  0  0  0  0  0  0  0  0  0
   -3.2470   23.9680  -28.2550 C   0  0  0  0  0  0  0  0  0  0  0  0
   -4.5920   23.3720  -28.5370 C   0  0  0  0  0  0  0  0  0  0  0  0
   -5.3780   24.2270  -29.8910 S   0  0  0  0  0  0  0  0  0  0  0  0
   -4.3440   24.7670  -30.8390 O   0  0  0  0  0  0  0  0  0  0  0  0
   -6.1880   25.3760  -29.3600 O   0  0  0  0  0  0  0  0  0  0  0  0
   -6.4290   23.1030  -30.7440 C   0  0  0  0  0  0  0  0  0  0  0  0
   -6.1020   22.6730  -32.0380 C   0  0  0  0  0  0  0  0  0  0  0  0
   -6.9470   21.7900  -32.7190 C   0  0  0  0  0  0  0  0  0  0  0  0
   -8.1220   21.3370  -32.1120 C   0  0  0  0  0  0  0  0  0  0  0  0
   -8.4560   21.7700  -30.8260 C   0  0  0  0  0  0  0  0  0  0  0  0
   -7.6140   22.6530  -30.1430 C   0  0  0  0  0  0  0  0  0  0  0  0
   -2.0440   23.7410  -28.9080 C   0  0  0  0  0  0  0  0  0  0  0  0
   -1.7570   22.8240  -30.0270 C   0  0  0  0  0  0  0  0  0  0  0  0
   -0.6370   22.2490  -30.1000 O   0  0  0  0  0  0  0  0  0  0  0  0
   -2.7440   22.6080  -31.0490 N   0  0  0  0  0  0  0  0  0  0  0  0
   -2.6260   21.5980  -32.0660 C   0  0  0  0  0  0  0  0  0  0  0  0
   -1.4630   21.5390  -32.8450 C   0  0  0  0  0  0  0  0  0  0  0  0
   -1.3240   20.5670  -33.8480 C   0  0  0  0  0  0  0  0  0  0  0  0
   -0.0870   20.5240  -34.6940 C   0  0  0  0  0  0  0  0  0  0  0  0
   -2.3770   19.6770  -34.0980 C   0  0  0  0  0  0  0  0  0  0  0  0
   -3.5510   19.7320  -33.3320 C   0  0  0  0  0  0  0  0  0  0  0  0
   -4.6910   18.8070  -33.6390 C   0  0  0  0  0  0  0  0  0  0  0  0
   -3.6790   20.7030  -32.3270 C   0  0  0  0  0  0  0  0  0  0  0  0
   -1.1250   24.5530  -28.3530 N   0  0  0  0  0  0  0  0  0  0  0  0
   -0.4970   27.3540  -27.1770 C   0  0  0  0  0  0  0  0  0  0  0  0
    0.1320   28.3160  -26.3800 C   0  0  0  0  0  0  0  0  0  0  0  0
    0.6821   28.9834  -23.0805 H   0  0  0  0  0  0  0  0  0  0  0  0
    1.9158   29.1936  -24.3691 H   0  0  0  0  0  0  0  0  0  0  0  0
    0.4349   30.2102  -24.3691 H   0  0  0  0  0  0  0  0  0  0  0  0
   -0.4611   26.9551  -23.3003 H   0  0  0  0  0  0  0  0  0  0  0  0
   -1.5834   25.2381  -24.7174 H   0  0  0  0  0  0  0  0  0  0  0  0
   -4.4705   22.3108  -28.7998 H   0  0  0  0  0  0  0  0  0  0  0  0
   -5.2210   23.4690  -27.6398 H   0  0  0  0  0  0  0  0  0  0  0  0
   -5.1794   23.0306  -32.5186 H   0  0  0  0  0  0  0  0  0  0  0  0
   -6.6866   21.4519  -33.7329 H   0  0  0  0  0  0  0  0  0  0  0  0
   -8.7837   20.6397  -32.6467 H   0  0  0  0  0  0  0  0  0  0  0  0
   -9.3825   21.4157  -30.3504 H   0  0  0  0  0  0  0  0  0  0  0  0
   -7.8813   22.9955  -29.1324 H   0  0  0  0  0  0  0  0  0  0  0  0
   -3.5330   23.2880  -31.1250 H   0  0  0  0  0  0  0  0  0  0  0  0
   -0.6517   22.2607  -32.6690 H   0  0  0  0  0  0  0  0  0  0  0  0
    0.8004   20.4932  -34.0447 H   0  0  0  0  0  0  0  0  0  0  0  0
   -0.1081   19.6260  -35.3290 H   0  0  0  0  0  0  0  0  0  0  0  0
   -0.0457   21.4213  -35.3290 H   0  0  0  0  0  0  0  0  0  0  0  0
   -2.2825   18.9303  -34.9002 H   0  0  0  0  0  0  0  0  0  0  0  0
   -5.1345   18.4471  -32.6989 H   0  0  0  0  0  0  0  0  0  0  0  0
   -5.4532   19.3452  -34.2216 H   0  0  0  0  0  0  0  0  0  0  0  0
   -4.3214   17.9503  -34.2216 H   0  0  0  0  0  0  0  0  0  0  0  0
   -4.6075   20.7644  -31.7404 H   0  0  0  0  0  0  0  0  0  0  0  0
   -0.5034   27.4699  -28.2709 H   0  0  0  0  0  0  0  0  0  0  0  0
    0.6265   29.1782  -26.8514 H   0  0  0  0  0  0  0  0  0  0  0  0
  1  2  1  0
  2  3  2  0
  3  4  1  0
  4  5  2  0
  5  6  1  0
  6  7  1  0
  7  8  2  0
  8  9  1  0
  9 10  1  0
 10 11  2  0
 10 12  2  0
 10 13  1  0
 13 14  2  0
 14 15  1  0
 15 16  2  0
 16 17  1  0
 17 18  2  0
  8 19  1  0
 19 20  1  0
 20 21  2  0
 20 22  1  0
 22 23  1  0
 23 24  2  0
 24 25  1  0
 25 26  1  0
 25 27  2  0
 27 28  1  0
 28 29  1  0
 28 30  2  0
 19 31  2  0
  5 32  1  0
 32 33  2  0
 33  2  1  0
 31  6  1  0
 18 13  1  0
 30 23  1  0
  1 34  1  0
  1 35  1  0
  1 36  1  0
  3 37  1  0
  4 38  1  0
  9 39  1  0
  9 40  1  0
 14 41  1  0
 15 42  1  0
 16 43  1  0
 17 44  1  0
 18 45  1  0
 22 46  1  0
 24 47  1  0
 26 48  1  0
 26 49  1  0
 26 50  1  0
 27 51  1  0
 29 52  1  0
 29 53  1  0
 29 54  1  0
 30 55  1  0
 32 56  1  0
 33 57  1  0
M  END
>  <UniqueID>  (27) 
26

>  <SMILES>  (27) 
Cc1ccc(-n2nc(CS(=O)(=O)c3ccccc3)c(C(=O)Nc3cc(C)cc(C)c3)n2)cc1

>  <Energy>  (27) 
93.82541657073776

>  <Genealogy>  (27) 
Cc1ccc(-n2nc(CS(=O)(=O)c3ccccc3)c(C(=O)Nc3cc(C)cc(C)c3)n2)cc1 (3D coordinates assigned)
Cc1ccc(-n2nc(CS(=O)(=O)c3ccccc3)c(C(=O)Nc3cc(C)cc(C)c3)n2)cc1 (optimized conformer: 93.82541657073776 kcal/mol)

>  <smiles>  (27) 
Cc1ccc(-n2nc(CS(=O)(=O)c3ccccc3)c(C(=O)Nc3cc(C)cc(C)c3)n2)cc1

>  <score_type>  (27) 
oracle

>  <origin>  (27) 
adgpu

>  <m_score__min__energy>  (27) 
-10.33

>  <m_primary>  (27) 
energy

$$$$
27:0
     RDKit          3D

 51 53  0  0  0  0  0  0  0  0999 V2000
   -6.4350   15.0350  -34.2110 C   0  0  0  0  0  0  0  0  0  0  0  0
   -6.5940   16.4380  -34.0390 O   0  0  0  0  0  0  0  0  0  0  0  0
   -5.5350   17.3600  -33.9790 C   0  0  0  0  0  0  0  0  0  0  0  0
   -4.3380   17.1570  -34.6920 C   0  0  0  0  0  0  0  0  0  0  0  0
   -3.3100   18.0970  -34.6320 C   0  0  0  0  0  0  0  0  0  0  0  0
   -3.4530   19.2460  -33.8470 C   0  0  0  0  0  0  0  0  0  0  0  0
   -2.4470   20.2590  -33.8420 N   0  0  0  0  0  0  0  0  0  0  0  0
   -1.1700   20.2440  -32.6740 S   0  0  0  0  0  0  0  0  0  0  0  0
   -0.7380   18.8250  -32.4290 O   0  0  0  0  0  0  0  0  0  0  0  0
    0.0110   21.0260  -33.1770 O   0  0  0  0  0  0  0  0  0  0  0  0
   -1.7840   20.9470  -31.1800 C   0  0  0  0  0  0  0  0  0  0  0  0
   -1.9920   20.1440  -30.0520 C   0  0  0  0  0  0  0  0  0  0  0  0
   -2.5620   20.6870  -28.9000 C   0  0  0  0  0  0  0  0  0  0  0  0
   -2.9440   22.0320  -28.8710 C   0  0  0  0  0  0  0  0  0  0  0  0
   -2.7580   22.8510  -30.0000 C   0  0  0  0  0  0  0  0  0  0  0  0
   -3.2010   24.2660  -29.9900 C   0  0  0  0  0  0  0  0  0  0  0  0
   -2.4140   25.2680  -29.3500 N   0  0  0  0  0  0  0  0  0  0  0  0
   -4.2840   24.5970  -30.5430 O   0  0  0  0  0  0  0  0  0  0  0  0
   -2.1620   22.2980  -31.1490 C   0  0  0  0  0  0  0  0  0  0  0  0
   -4.6240   19.4420  -33.1140 C   0  0  0  0  0  0  0  0  0  0  0  0
   -5.6790   18.5200  -33.1920 C   0  0  0  0  0  0  0  0  0  0  0  0
   -7.2010   18.8840  -32.3650 S   0  0  0  0  0  0  0  0  0  0  0  0
   -8.3370   18.2030  -33.0750 O   0  0  0  0  0  0  0  0  0  0  0  0
   -7.1440   18.3430  -30.9640 O   0  0  0  0  0  0  0  0  0  0  0  0
   -7.4980   20.6060  -32.2970 N   0  0  0  0  0  0  0  0  0  0  0  0
   -6.5990   21.2500  -31.3270 C   0  0  0  0  0  0  0  0  0  0  0  0
   -6.6840   22.7820  -31.4530 C   0  0  0  0  0  0  0  0  0  0  0  0
   -8.0050   23.2490  -32.0910 C   0  0  0  0  0  0  0  0  0  0  0  0
   -9.1730   22.3630  -31.6520 C   0  0  0  0  0  0  0  0  0  0  0  0
   -8.9110   20.8690  -31.9530 C   0  0  0  0  0  0  0  0  0  0  0  0
   -6.3799   14.5487  -33.2259 H   0  0  0  0  0  0  0  0  0  0  0  0
   -7.2935   14.6345  -34.7701 H   0  0  0  0  0  0  0  0  0  0  0  0
   -5.5086   14.8368  -34.7701 H   0  0  0  0  0  0  0  0  0  0  0  0
   -4.2129   16.2497  -35.3012 H   0  0  0  0  0  0  0  0  0  0  0  0
   -2.3842   17.9347  -35.2034 H   0  0  0  0  0  0  0  0  0  0  0  0
   -1.7053   19.0823  -30.0741 H   0  0  0  0  0  0  0  0  0  0  0  0
   -2.7113   20.0553  -28.0120 H   0  0  0  0  0  0  0  0  0  0  0  0
   -3.3930   22.4526  -27.9592 H   0  0  0  0  0  0  0  0  0  0  0  0
   -1.5800   25.6800  -29.8230 H   0  0  0  0  0  0  0  0  0  0  0  0
   -1.9908   22.9315  -32.0318 H   0  0  0  0  0  0  0  0  0  0  0  0
   -4.7211   20.3277  -32.4689 H   0  0  0  0  0  0  0  0  0  0  0  0
   -6.8914   20.9531  -30.3090 H   0  0  0  0  0  0  0  0  0  0  0  0
   -5.5661   20.9315  -31.5311 H   0  0  0  0  0  0  0  0  0  0  0  0
   -6.6018   23.2236  -30.4489 H   0  0  0  0  0  0  0  0  0  0  0  0
   -5.8628   23.1095  -32.1075 H   0  0  0  0  0  0  0  0  0  0  0  0
   -8.2055   24.2860  -31.7835 H   0  0  0  0  0  0  0  0  0  0  0  0
   -7.9075   23.1817  -33.1846 H   0  0  0  0  0  0  0  0  0  0  0  0
   -9.3249   22.4860  -30.5695 H   0  0  0  0  0  0  0  0  0  0  0  0
  -10.0652   22.6722  -32.2163 H   0  0  0  0  0  0  0  0  0  0  0  0
   -9.1747   20.2774  -31.0639 H   0  0  0  0  0  0  0  0  0  0  0  0
   -9.5267   20.5872  -32.8199 H   0  0  0  0  0  0  0  0  0  0  0  0
  1  2  1  0
  2  3  1  0
  3  4  2  0
  4  5  1  0
  5  6  2  0
  6  7  1  0
  7  8  1  0
  8  9  2  0
  8 10  2  0
  8 11  1  0
 11 12  2  0
 12 13  1  0
 13 14  2  0
 14 15  1  0
 15 16  1  0
 16 17  1  0
 16 18  2  0
 15 19  2  0
  6 20  1  0
 20 21  2  0
 21 22  1  0
 22 23  2  0
 22 24  2  0
 22 25  1  0
 25 26  1  0
 26 27  1  0
 27 28  1  0
 28 29  1  0
 29 30  1  0
 21  3  1  0
 30 25  1  0
 19 11  1  0
  1 31  1  0
  1 32  1  0
  1 33  1  0
  4 34  1  0
  5 35  1  0
 12 36  1  0
 13 37  1  0
 14 38  1  0
 17 39  1  0
 19 40  1  0
 20 41  1  0
 26 42  1  0
 26 43  1  0
 27 44  1  0
 27 45  1  0
 28 46  1  0
 28 47  1  0
 29 48  1  0
 29 49  1  0
 30 50  1  0
 30 51  1  0
M  CHG  2   7  -1  17  -1
M  END
>  <UniqueID>  (28) 
27

>  <SMILES>  (28) 
COc1ccc([N-]S(=O)(=O)c2cccc(C([NH-])=O)c2)cc1S(=O)(=O)N1CCCCC1

>  <Energy>  (28) 
58.63368813763888

>  <Genealogy>  (28) 
COc1ccc([N-]S(=O)(=O)c2cccc(C([NH-])=O)c2)cc1S(=O)(=O)N1CCCCC1 (protonated)
COc1ccc([N-]S(=O)(=O)c2cccc(C([NH-])=O)c2)cc1S(=O)(=O)N1CCCCC1 (3D coordinates assigned)
COc1ccc([N-]S(=O)(=O)c2cccc(C([NH-])=O)c2)cc1S(=O)(=O)N1CCCCC1 (nonaromatic ring conformer: 58.63368813763888 kcal/mol)

>  <smiles>  (28) 
COc1ccc(NS(=O)(=O)c2cccc(C(N)=O)c2)cc1S(=O)(=O)N1CCCCC1

>  <score_type>  (28) 
oracle

>  <origin>  (28) 
adgpu

>  <m_score__min__energy>  (28) 
-11.609999999999999

>  <m_primary>  (28) 
energy

$$$$
28:0
     RDKit          3D

 28 30  0  0  0  0  0  0  0  0999 V2000
   -3.7390   21.3280  -32.0700 O   0  0  0  0  0  0  0  0  0  0  0  0
   -4.8310   20.8660  -32.5080 C   0  0  0  0  0  0  0  0  0  0  0  0
   -4.8290   19.7110  -33.3060 C   0  0  0  0  0  0  0  0  0  0  0  0
   -3.6400   19.0380  -33.6480 C   0  0  0  0  0  0  0  0  0  0  0  0
   -3.6870   17.8900  -34.4440 C   0  0  0  0  0  0  0  0  0  0  0  0
   -4.9130   17.4050  -34.9040 C   0  0  0  0  0  0  0  0  0  0  0  0
   -6.0980   18.0660  -34.5710 C   0  0  0  0  0  0  0  0  0  0  0  0
   -6.0650   19.2200  -33.7720 C   0  0  0  0  0  0  0  0  0  0  0  0
   -7.2150   19.8670  -33.4460 N   0  0  0  0  0  0  0  0  0  0  0  0
   -7.2040   20.9890  -32.6730 C   0  0  0  0  0  0  0  0  0  0  0  0
   -8.6390   21.7310  -32.3470 S   0  0  0  0  0  0  0  0  0  0  0  0
   -6.0130   21.4900  -32.2000 N   0  0  0  0  0  0  0  0  0  0  0  0
   -5.9820   22.6720  -31.3750 C   0  0  0  0  0  0  0  0  0  0  0  0
   -7.0080   22.9130  -30.4490 C   0  0  0  0  0  0  0  0  0  0  0  0
   -6.9800   24.0610  -29.6520 C   0  0  0  0  0  0  0  0  0  0  0  0
   -5.9280   24.9750  -29.7780 C   0  0  0  0  0  0  0  0  0  0  0  0
   -4.9040   24.7420  -30.7020 C   0  0  0  0  0  0  0  0  0  0  0  0
   -3.8610   25.6500  -30.8280 O   0  0  0  0  0  0  0  0  0  0  0  0
   -4.9300   23.5930  -31.5010 C   0  0  0  0  0  0  0  0  0  0  0  0
   -2.6721   19.4167  -33.2878 H   0  0  0  0  0  0  0  0  0  0  0  0
   -2.7560   17.3674  -34.7087 H   0  0  0  0  0  0  0  0  0  0  0  0
   -4.9459   16.5009  -35.5297 H   0  0  0  0  0  0  0  0  0  0  0  0
   -7.0612   17.6805  -34.9365 H   0  0  0  0  0  0  0  0  0  0  0  0
   -8.1280   19.4980  -33.8000 H   0  0  0  0  0  0  0  0  0  0  0  0
   -7.8368   22.1966  -30.3499 H   0  0  0  0  0  0  0  0  0  0  0  0
   -7.7851   24.2459  -28.9256 H   0  0  0  0  0  0  0  0  0  0  0  0
   -5.9062   25.8777  -29.1498 H   0  0  0  0  0  0  0  0  0  0  0  0
   -4.1252   23.4115  -32.2285 H   0  0  0  0  0  0  0  0  0  0  0  0
  1  2  2  0
  2  3  1  0
  3  4  2  0
  4  5  1  0
  5  6  2  0
  6  7  1  0
  7  8  2  0
  8  9  1  0
  9 10  1  0
 10 11  2  0
 10 12  1  0
 12 13  1  0
 13 14  2  0
 14 15  1  0
 15 16  2  0
 16 17  1  0
 17 18  1  0
 17 19  2  0
 12  2  1  0
 19 13  1  0
  8  3  1  0
  4 20  1  0
  5 21  1  0
  6 22  1  0
  7 23  1  0
  9 24  1  0
 14 25  1  0
 15 26  1  0
 16 27  1  0
 19 28  1  0
M  CHG  1  18  -1
M  END
>  <UniqueID>  (29) 
28

>  <SMILES>  (29) 
O=c1c2ccccc2[nH]c(=S)n1-c1cccc([O-])c1

>  <Energy>  (29) 
47.965131336533325

>  <Genealogy>  (29) 
O=c1c2ccccc2[nH]c(=S)n1-c1cccc([O-])c1 (protonated)
O=c1c2ccccc2[nH]c(=S)n1-c1cccc([O-])c1 (3D coordinates assigned)
O=c1c2ccccc2[nH]c(=S)n1-c1cccc([O-])c1 (optimized conformer: 47.965131336533325 kcal/mol)

>  <smiles>  (29) 
O=c1c2ccccc2[nH]c(=S)n1-c1cccc(O)c1

>  <score_type>  (29) 
oracle

>  <origin>  (29) 
adgpu

>  <m_score__min__energy>  (29) 
-10.99

>  <m_primary>  (29) 
energy

$$$$
29:0
     RDKit          3D

 43 45  0  0  0  0  0  0  0  0999 V2000
   -3.7970   17.1330  -34.0140 C   0  0  0  0  0  0  0  0  0  0  0  0
   -4.9020   17.1100  -33.0460 N   0  0  0  0  0  0  0  0  0  0  0  0
   -5.0190   15.7730  -32.4500 C   0  0  0  0  0  0  0  0  0  0  0  0
   -6.3950   17.5130  -33.8570 S   0  0  0  0  0  0  0  0  0  0  0  0
   -7.2530   16.2850  -33.9820 O   0  0  0  0  0  0  0  0  0  0  0  0
   -6.1120   18.0400  -35.2370 O   0  0  0  0  0  0  0  0  0  0  0  0
   -7.2750   18.7210  -32.9230 C   0  0  0  0  0  0  0  0  0  0  0  0
   -8.6540   18.5800  -32.7260 C   0  0  0  0  0  0  0  0  0  0  0  0
   -9.3570   19.5290  -31.9830 C   0  0  0  0  0  0  0  0  0  0  0  0
   -8.6870   20.6190  -31.4190 C   0  0  0  0  0  0  0  0  0  0  0  0
   -7.2960   20.7590  -31.5850 C   0  0  0  0  0  0  0  0  0  0  0  0
   -6.5850   21.8790  -31.0320 N   0  0  0  0  0  0  0  0  0  0  0  0
   -5.3910   22.4330  -31.6100 C   0  0  0  0  0  0  0  0  0  0  0  0
   -5.0870   22.1740  -32.8050 O   0  0  0  0  0  0  0  0  0  0  0  0
   -4.5280   23.3420  -30.8360 C   0  0  0  0  0  0  0  0  0  0  0  0
   -3.7010   23.0020  -29.7840 C   0  0  0  0  0  0  0  0  0  0  0  0
   -3.1140   24.2000  -29.4160 C   0  0  0  0  0  0  0  0  0  0  0  0
   -2.1570   24.4290  -28.3070 C   0  0  0  0  0  0  0  0  0  0  0  0
   -2.1710   23.5550  -27.2050 C   0  0  0  0  0  0  0  0  0  0  0  0
   -1.2780   23.7310  -26.1440 C   0  0  0  0  0  0  0  0  0  0  0  0
   -0.3650   24.7860  -26.1660 C   0  0  0  0  0  0  0  0  0  0  0  0
   -0.3490   25.6720  -27.2440 C   0  0  0  0  0  0  0  0  0  0  0  0
   -1.2430   25.5080  -28.3090 C   0  0  0  0  0  0  0  0  0  0  0  0
   -1.2260   26.4370  -29.3430 O   0  0  0  0  0  0  0  0  0  0  0  0
   -3.5830   25.1860  -30.2090 N   0  0  0  0  0  0  0  0  0  0  0  0
   -4.4360   24.6630  -31.0750 N   0  0  0  0  0  0  0  0  0  0  0  0
   -6.6020   19.8120  -32.3540 C   0  0  0  0  0  0  0  0  0  0  0  0
   -2.8381   17.1530  -33.4754 H   0  0  0  0  0  0  0  0  0  0  0  0
   -3.8441   16.2337  -34.6457 H   0  0  0  0  0  0  0  0  0  0  0  0
   -3.8815   18.0296  -34.6457 H   0  0  0  0  0  0  0  0  0  0  0  0
   -5.0115   15.8585  -31.3534 H   0  0  0  0  0  0  0  0  0  0  0  0
   -5.9613   15.3078  -32.7751 H   0  0  0  0  0  0  0  0  0  0  0  0
   -4.1718   15.1512  -32.7751 H   0  0  0  0  0  0  0  0  0  0  0  0
   -9.1846   17.7188  -33.1581 H   0  0  0  0  0  0  0  0  0  0  0  0
  -10.4422   19.4193  -31.8404 H   0  0  0  0  0  0  0  0  0  0  0  0
   -9.2487   21.3697  -30.8436 H   0  0  0  0  0  0  0  0  0  0  0  0
   -7.0190   22.3770  -30.2230 H   0  0  0  0  0  0  0  0  0  0  0  0
   -3.5447   22.0076  -29.3404 H   0  0  0  0  0  0  0  0  0  0  0  0
   -2.8919   22.7246  -27.1778 H   0  0  0  0  0  0  0  0  0  0  0  0
   -1.2951   23.0370  -25.2907 H   0  0  0  0  0  0  0  0  0  0  0  0
    0.3419   24.9192  -25.3338 H   0  0  0  0  0  0  0  0  0  0  0  0
    0.3702   26.5042  -27.2571 H   0  0  0  0  0  0  0  0  0  0  0  0
   -5.5195   19.9266  -32.5120 H   0  0  0  0  0  0  0  0  0  0  0  0
  1  2  1  0
  2  3  1  0
  2  4  1  0
  4  5  2  0
  4  6  2  0
  4  7  1  0
  7  8  2  0
  8  9  1  0
  9 10  2  0
 10 11  1  0
 11 12  1  0
 12 13  1  0
 13 14  2  0
 13 15  1  0
 15 16  1  0
 16 17  2  0
 17 18  1  0
 18 19  2  0
 19 20  1  0
 20 21  2  0
 21 22  1  0
 22 23  2  0
 23 24  1  0
 17 25  1  0
 25 26  1  0
 11 27  2  0
 27  7  1  0
 26 15  2  0
 23 18  1  0
  1 28  1  0
  1 29  1  0
  1 30  1  0
  3 31  1  0
  3 32  1  0
  3 33  1  0
  8 34  1  0
  9 35  1  0
 10 36  1  0
 12 37  1  0
 16 38  1  0
 19 39  1  0
 20 40  1  0
 21 41  1  0
 22 42  1  0
 27 43  1  0
M  CHG  2  24  -1  25  -1
M  END
>  <UniqueID>  (30) 
29

>  <SMILES>  (30) 
CN(C)S(=O)(=O)c1cccc(NC(=O)c2cc(-c3ccccc3[O-])[n-]n2)c1

>  <Energy>  (30) 
79.69924711874863

>  <Genealogy>  (30) 
CN(C)S(=O)(=O)c1cccc(NC(=O)c2cc(-c3ccccc3[O-])[n-]n2)c1 (protonated)
CN(C)S(=O)(=O)c1cccc(NC(=O)c2cc(-c3ccccc3[O-])[n-]n2)c1 (3D coordinates assigned)
CN(C)S(=O)(=O)c1cccc(NC(=O)c2cc(-c3ccccc3[O-])[n-]n2)c1 (optimized conformer: 79.69924711874863 kcal/mol)

>  <smiles>  (30) 
CN(C)S(=O)(=O)c1cccc(NC(=O)c2cc(-c3ccccc3O)[nH]n2)c1

>  <score_type>  (30) 
oracle

>  <origin>  (30) 
adgpu

>  <m_score__min__energy>  (30) 
-14.380000000000001

>  <m_primary>  (30) 
energy

$$$$
30:0
     RDKit          3D

 51 54  0  0  0  0  0  0  0  0999 V2000
   -3.8900   23.9540  -30.9520 O   0  0  0  0  0  0  0  0  0  0  0  0
   -4.1350   23.7830  -29.7270 C   0  0  0  0  0  0  0  0  0  0  0  0
   -5.3940   23.2260  -29.3150 N   0  0  0  0  0  0  0  0  0  0  0  0
   -6.2630   22.4810  -30.1870 C   0  0  0  0  0  0  0  0  0  0  0  0
   -7.6450   22.4870  -29.9510 C   0  0  0  0  0  0  0  0  0  0  0  0
   -8.5060   21.7510  -30.7690 C   0  0  0  0  0  0  0  0  0  0  0  0
   -7.9930   20.9920  -31.8220 C   0  0  0  0  0  0  0  0  0  0  0  0
   -6.6130   20.9560  -32.0580 C   0  0  0  0  0  0  0  0  0  0  0  0
   -5.9620   19.9650  -33.3660 S   0  0  0  0  0  0  0  0  0  0  0  0
   -6.8900   20.0330  -34.5470 O   0  0  0  0  0  0  0  0  0  0  0  0
   -4.6290   20.5170  -33.7910 O   0  0  0  0  0  0  0  0  0  0  0  0
   -5.7770   18.3000  -32.8670 N   0  0  0  0  0  0  0  0  0  0  0  0
   -6.2320   18.1500  -31.4690 C   0  0  0  0  0  0  0  0  0  0  0  0
   -6.1320   16.7070  -30.9420 C   0  0  0  0  0  0  0  0  0  0  0  0
   -5.0460   15.8610  -31.6290 C   0  0  0  0  0  0  0  0  0  0  0  0
   -5.4690   15.1760  -32.9500 C   0  0  0  0  0  0  0  0  0  0  0  0
   -5.6580   16.1380  -34.1370 C   0  0  0  0  0  0  0  0  0  0  0  0
   -6.4880   17.4020  -33.8000 C   0  0  0  0  0  0  0  0  0  0  0  0
   -5.7500   21.6970  -31.2370 C   0  0  0  0  0  0  0  0  0  0  0  0
   -3.1320   24.2030  -28.7300 C   0  0  0  0  0  0  0  0  0  0  0  0
   -3.0000   23.6910  -27.4390 C   0  0  0  0  0  0  0  0  0  0  0  0
   -1.9310   24.3670  -26.8950 C   0  0  0  0  0  0  0  0  0  0  0  0
   -1.3410   24.2680  -25.6370 C   0  0  0  0  0  0  0  0  0  0  0  0
   -0.2390   25.0990  -25.3620 C   0  0  0  0  0  0  0  0  0  0  0  0
    0.2420   25.9960  -26.3400 C   0  0  0  0  0  0  0  0  0  0  0  0
   -0.3750   26.0710  -27.6040 C   0  0  0  0  0  0  0  0  0  0  0  0
   -1.4650   25.2370  -27.8450 C   0  0  0  0  0  0  0  0  0  0  0  0
   -2.1900   25.1460  -28.9730 N   0  0  0  0  0  0  0  0  0  0  0  0
   -5.7460   23.4540  -28.3580 H   0  0  0  0  0  0  0  0  0  0  0  0
   -8.0542   23.0751  -29.1163 H   0  0  0  0  0  0  0  0  0  0  0  0
   -9.5900   21.7698  -30.5828 H   0  0  0  0  0  0  0  0  0  0  0  0
   -8.6748   20.4202  -32.4687 H   0  0  0  0  0  0  0  0  0  0  0  0
   -5.6135   18.7976  -30.8302 H   0  0  0  0  0  0  0  0  0  0  0  0
   -7.2952   18.4310  -31.4429 H   0  0  0  0  0  0  0  0  0  0  0  0
   -5.9092   16.7471  -29.8656 H   0  0  0  0  0  0  0  0  0  0  0  0
   -7.0956   16.2228  -31.1587 H   0  0  0  0  0  0  0  0  0  0  0  0
   -4.1919   16.5190  -31.8472 H   0  0  0  0  0  0  0  0  0  0  0  0
   -4.8115   15.0458  -30.9287 H   0  0  0  0  0  0  0  0  0  0  0  0
   -4.6936   14.4443  -33.2210 H   0  0  0  0  0  0  0  0  0  0  0  0
   -6.4498   14.7146  -32.7626 H   0  0  0  0  0  0  0  0  0  0  0  0
   -4.6645   16.4591  -34.4831 H   0  0  0  0  0  0  0  0  0  0  0  0
   -6.2179   15.5864  -34.9066 H   0  0  0  0  0  0  0  0  0  0  0  0
   -6.6947   17.9495  -34.7314 H   0  0  0  0  0  0  0  0  0  0  0  0
   -7.4195   17.0765  -33.3139 H   0  0  0  0  0  0  0  0  0  0  0  0
   -4.6650   21.6650  -31.4152 H   0  0  0  0  0  0  0  0  0  0  0  0
   -3.6160   22.9158  -26.9599 H   0  0  0  0  0  0  0  0  0  0  0  0
   -1.7237   23.5637  -24.8836 H   0  0  0  0  0  0  0  0  0  0  0  0
    0.2508   25.0492  -24.3783 H   0  0  0  0  0  0  0  0  0  0  0  0
    1.1042   26.6405  -26.1136 H   0  0  0  0  0  0  0  0  0  0  0  0
   -0.0087   26.7647  -28.3751 H   0  0  0  0  0  0  0  0  0  0  0  0
   -2.0480   25.6910  -29.8530 H   0  0  0  0  0  0  0  0  0  0  0  0
  1  2  2  0
  2  3  1  0
  3  4  1  0
  4  5  2  0
  5  6  1  0
  6  7  2  0
  7  8  1  0
  8  9  1  0
  9 10  2  0
  9 11  2  0
  9 12  1  0
 12 13  1  0
 13 14  1  0
 14 15  1  0
 15 16  1  0
 16 17  1  0
 17 18  1  0
  8 19  2  0
  2 20  1  0
 20 21  2  0
 21 22  1  0
 22 23  2  0
 23 24  1  0
 24 25  2  0
 25 26  1  0
 26 27  2  0
 27 28  1  0
 19  4  1  0
 28 20  1  0
 18 12  1  0
 27 22  1  0
  3 29  1  0
  5 30  1  0
  6 31  1  0
  7 32  1  0
 13 33  1  0
 13 34  1  0
 14 35  1  0
 14 36  1  0
 15 37  1  0
 15 38  1  0
 16 39  1  0
 16 40  1  0
 17 41  1  0
 17 42  1  0
 18 43  1  0
 18 44  1  0
 19 45  1  0
 21 46  1  0
 23 47  1  0
 24 48  1  0
 25 49  1  0
 26 50  1  0
 28 51  1  0
M  END
>  <UniqueID>  (31) 
30

>  <SMILES>  (31) 
O=C(Nc1cccc(S(=O)(=O)N2CCCCCC2)c1)c1cc2ccccc2[nH]1

>  <Energy>  (31) 
96.79848675301054

>  <Genealogy>  (31) 
O=C(Nc1cccc(S(=O)(=O)N2CCCCCC2)c1)c1cc2ccccc2[nH]1 (3D coordinates assigned)
O=C(Nc1cccc(S(=O)(=O)N2CCCCCC2)c1)c1cc2ccccc2[nH]1 (nonaromatic ring conformer: 96.79848675301054 kcal/mol)

>  <smiles>  (31) 
O=C(Nc1cccc(S(=O)(=O)N2CCCCCC2)c1)c1cc2ccccc2[nH]1

>  <score_type>  (31) 
oracle

>  <origin>  (31) 
adgpu

>  <m_score__min__energy>  (31) 
-8.5899999999999999

>  <m_primary>  (31) 
energy

$$$$
31:0
     RDKit          3D

 47 50  0  0  0  0  0  0  0  0999 V2000
   -0.6220   27.1750  -23.0240 N   0  0  0  0  0  0  0  0  0  0  0  0
    0.1990   26.6370  -24.0660 C   0  0  0  0  0  0  0  0  0  0  0  0
    1.4270   26.4610  -23.8410 O   0  0  0  0  0  0  0  0  0  0  0  0
   -0.3580   26.2990  -25.4000 C   0  0  0  0  0  0  0  0  0  0  0  0
    0.2880   26.7740  -26.5750 C   0  0  0  0  0  0  0  0  0  0  0  0
   -0.2160   26.4650  -27.8510 C   0  0  0  0  0  0  0  0  0  0  0  0
   -1.3620   25.6810  -27.9220 C   0  0  0  0  0  0  0  0  0  0  0  0
   -2.0120   25.2750  -29.0210 N   0  0  0  0  0  0  0  0  0  0  0  0
   -3.0450   24.5520  -28.5080 C   0  0  0  0  0  0  0  0  0  0  0  0
   -4.0690   23.9010  -29.3550 C   0  0  0  0  0  0  0  0  0  0  0  0
   -5.2630   24.5710  -29.6710 C   0  0  0  0  0  0  0  0  0  0  0  0
   -6.2350   23.9490  -30.4610 C   0  0  0  0  0  0  0  0  0  0  0  0
   -6.0370   22.6510  -30.9420 C   0  0  0  0  0  0  0  0  0  0  0  0
   -7.0480   22.0710  -31.7210 O   0  0  0  0  0  0  0  0  0  0  0  0
   -8.4420   22.1570  -31.4340 C   0  0  0  0  0  0  0  0  0  0  0  0
   -9.2000   21.1970  -32.3050 C   0  0  0  0  0  0  0  0  0  0  0  0
  -10.4500   21.1070  -32.1720 O   0  0  0  0  0  0  0  0  0  0  0  0
   -8.5520   20.4000  -33.3090 N   0  0  0  0  0  0  0  0  0  0  0  0
   -7.5730   19.3780  -33.0750 C   0  0  0  0  0  0  0  0  0  0  0  0
   -6.3260   19.4160  -33.7250 C   0  0  0  0  0  0  0  0  0  0  0  0
   -5.3730   18.4240  -33.4840 C   0  0  0  0  0  0  0  0  0  0  0  0
   -5.6440   17.3970  -32.5800 C   0  0  0  0  0  0  0  0  0  0  0  0
   -6.8680   17.3640  -31.9080 C   0  0  0  0  0  0  0  0  0  0  0  0
   -7.8350   18.3560  -32.1410 C   0  0  0  0  0  0  0  0  0  0  0  0
   -9.0850   18.3010  -31.4390 N   0  0  0  0  0  0  0  0  0  0  0  0
   -4.8420   21.9780  -30.6310 C   0  0  0  0  0  0  0  0  0  0  0  0
   -3.8670   22.6000  -29.8460 C   0  0  0  0  0  0  0  0  0  0  0  0
   -3.0610   24.4940  -27.1490 N   0  0  0  0  0  0  0  0  0  0  0  0
   -1.9850   25.2170  -26.8090 C   0  0  0  0  0  0  0  0  0  0  0  0
   -1.5180   25.4940  -25.5270 C   0  0  0  0  0  0  0  0  0  0  0  0
   -1.5930   27.5090  -23.2050 H   0  0  0  0  0  0  0  0  0  0  0  0
   -0.2160   27.3440  -22.0770 H   0  0  0  0  0  0  0  0  0  0  0  0
    1.1939   27.3913  -26.4843 H   0  0  0  0  0  0  0  0  0  0  0  0
    0.2797   26.8312  -28.7621 H   0  0  0  0  0  0  0  0  0  0  0  0
   -5.4341   25.5904  -29.2949 H   0  0  0  0  0  0  0  0  0  0  0  0
   -7.1635   24.4855  -30.7062 H   0  0  0  0  0  0  0  0  0  0  0  0
   -8.6136   21.9050  -30.3771 H   0  0  0  0  0  0  0  0  0  0  0  0
   -8.7914   23.1811  -31.6319 H   0  0  0  0  0  0  0  0  0  0  0  0
   -6.1002   20.2320  -34.4273 H   0  0  0  0  0  0  0  0  0  0  0  0
   -4.4064   18.4527  -34.0083 H   0  0  0  0  0  0  0  0  0  0  0  0
   -4.8941   16.6134  -32.3964 H   0  0  0  0  0  0  0  0  0  0  0  0
   -7.0762   16.5558  -31.1915 H   0  0  0  0  0  0  0  0  0  0  0  0
   -9.7600   19.0950  -31.4980 H   0  0  0  0  0  0  0  0  0  0  0  0
   -9.3460   17.4790  -30.8510 H   0  0  0  0  0  0  0  0  0  0  0  0
   -4.6739   20.9580  -31.0070 H   0  0  0  0  0  0  0  0  0  0  0  0
   -2.9341   22.0668  -29.6107 H   0  0  0  0  0  0  0  0  0  0  0  0
   -2.0338   25.0999  -24.6390 H   0  0  0  0  0  0  0  0  0  0  0  0
  1  2  1  0
  2  3  2  0
  2  4  1  0
  4  5  2  0
  5  6  1  0
  6  7  2  0
  7  8  1  0
  8  9  1  0
  9 10  1  0
 10 11  2  0
 11 12  1  0
 12 13  2  0
 13 14  1  0
 14 15  1  0
 15 16  1  0
 16 17  2  0
 16 18  1  0
 18 19  1  0
 19 20  2  0
 20 21  1  0
 21 22  2  0
 22 23  1  0
 23 24  2  0
 24 25  1  0
 13 26  1  0
 26 27  2  0
  9 28  2  0
 28 29  1  0
 29 30  2  0
 30  4  1  0
 29  7  1  0
 27 10  1  0
 24 19  1  0
  1 31  1  0
  1 32  1  0
  5 33  1  0
  6 34  1  0
 11 35  1  0
 12 36  1  0
 15 37  1  0
 15 38  1  0
 20 39  1  0
 21 40  1  0
 22 41  1  0
 23 42  1  0
 25 43  1  0
 25 44  1  0
 26 45  1  0
 27 46  1  0
 30 47  1  0
M  CHG  2   8  -1  18  -1
M  END
>  <UniqueID>  (32) 
31

>  <SMILES>  (32) 
NC(=O)c1ccc2[n-]c(-c3ccc(OCC(=O)[N-]c4ccccc4N)cc3)nc2c1

>  <Energy>  (32) 
91.35178060295885

>  <Genealogy>  (32) 
NC(=O)c1ccc2[n-]c(-c3ccc(OCC(=O)[N-]c4ccccc4N)cc3)nc2c1 (protonated)
NC(=O)c1ccc2[n-]c(-c3ccc(OCC(=O)[N-]c4ccccc4N)cc3)nc2c1 (3D coordinates assigned)
NC(=O)c1ccc2[n-]c(-c3ccc(OCC(=O)[N-]c4ccccc4N)cc3)nc2c1 (optimized conformer: 91.35178060295885 kcal/mol)

>  <smiles>  (32) 
NC(=O)c1ccc2[nH]c(-c3ccc(OCC(=O)Nc4ccccc4N)cc3)nc2c1

>  <score_type>  (32) 
oracle

>  <origin>  (32) 
adgpu

>  <m_score__min__energy>  (32) 
-9.6199999999999992

>  <m_primary>  (32) 
energy

$$$$
32:0
     RDKit          3D

 64 68  0  0  1  0  0  0  0  0999 V2000
    0.8850   29.1490  -34.8050 C   0  0  0  0  0  0  0  0  0  0  0  0
    0.9940   27.8770  -35.4480 N   0  0  0  0  0  0  0  0  0  0  0  0
   -0.1870   27.0610  -35.3490 C   0  0  0  0  0  0  0  0  0  0  0  0
    0.0080   25.7820  -36.1220 C   0  0  0  0  0  0  0  0  0  0  0  0
    1.3190   25.6640  -36.7260 N   0  0  0  0  0  0  0  0  0  0  0  0
    2.0990   24.4610  -36.6580 C   0  0  0  0  0  0  0  0  0  0  0  0
    3.2450   24.4260  -37.2190 O   0  0  0  0  0  0  0  0  0  0  0  0
    1.5990   23.2870  -35.9610 C   0  0  0  0  0  0  0  0  0  0  0  0
    2.5690   22.3830  -35.5190 C   0  0  0  0  0  0  0  0  0  0  0  0
    2.1500   21.2600  -34.8430 C   0  0  0  0  0  0  0  0  0  0  0  0
    0.7910   21.0180  -34.5970 C   0  0  0  0  0  0  0  0  0  0  0  0
    0.4930   19.8220  -33.8300 C   0  0  0  0  0  0  0  0  0  0  0  0
    1.5880   19.0070  -33.5730 C   0  0  0  0  0  0  0  0  0  0  0  0
    1.4860   17.8620  -32.8430 C   0  0  0  0  0  0  0  0  0  0  0  0
    2.5480   17.0880  -32.6030 F   0  0  0  0  0  0  0  0  0  0  0  0
    0.2530   17.5220  -32.3590 C   0  0  0  0  0  0  0  0  0  0  0  0
   -0.8480   18.3300  -32.6120 C   0  0  0  0  0  0  0  0  0  0  0  0
   -0.7880   19.5040  -33.3500 C   0  0  0  0  0  0  0  0  0  0  0  0
   -1.7790   20.3360  -33.6440 O   0  0  0  0  0  0  0  0  0  0  0  0
   -2.6310   21.1640  -33.0530 C   0  0  0  0  0  0  0  0  0  0  0  0
   -3.9130   21.5030  -33.4060 C   0  0  0  0  0  0  0  0  0  0  0  0
   -4.7000   22.4030  -32.6790 C   0  0  0  0  0  0  0  0  0  0  0  0
   -4.1930   22.9940  -31.5490 C   0  0  0  0  0  0  0  0  0  0  0  0
   -5.2320   24.1210  -30.7000 S   0  0  0  0  0  0  0  0  0  0  0  0
   -4.6400   25.4940  -30.7700 O   0  0  0  0  0  0  0  0  0  0  0  0
   -5.3780   23.7290  -29.2550 O   0  0  0  0  0  0  0  0  0  0  0  0
   -6.8190   24.1690  -31.4240 N   0  0  0  0  0  0  0  0  0  0  0  0
   -7.5390   23.0880  -31.4500 C   0  0  0  0  0  0  0  0  0  0  0  0
   -8.8000   23.0470  -32.0020 C   0  0  0  0  0  0  0  0  0  0  0  0
   -9.5090   21.8410  -31.9910 C   0  0  0  0  0  0  0  0  0  0  0  0
   -8.9460   20.7280  -31.4360 N   0  0  0  0  0  0  0  0  0  0  0  0
   -7.7130   20.7860  -30.9000 C   0  0  0  0  0  0  0  0  0  0  0  0
   -7.0200   21.9470  -30.9060 N   0  0  0  0  0  0  0  0  0  0  0  0
   -2.9290   22.6820  -31.1700 C   0  0  0  0  0  0  0  0  0  0  0  0
   -2.1710   21.8110  -31.8780 C   0  0  0  0  0  0  0  0  0  0  0  0
   -0.5370   21.5130  -31.2830 Cl  0  0  0  0  0  0  0  0  0  0  0  0
   -0.1220   21.9280  -35.0480 C   0  0  0  0  0  0  0  0  0  0  0  0
    0.3110   23.0380  -35.7180 N   0  0  0  0  0  0  0  0  0  0  0  0
    1.8450   26.8250  -37.4180 C   0  0  0  0  0  0  0  0  0  0  0  0
    1.2300   28.0990  -36.8670 C   0  0  0  0  0  0  0  0  0  0  0  0
    0.8969   29.0105  -33.7138 H   0  0  0  0  0  0  0  0  0  0  0  0
    1.7320   29.7844  -35.1032 H   0  0  0  0  0  0  0  0  0  0  0  0
   -0.0577   29.6310  -35.1032 H   0  0  0  0  0  0  0  0  0  0  0  0
   -0.3786   26.8231  -34.2923 H   0  0  0  0  0  0  0  0  0  0  0  0
   -1.0433   27.6104  -35.7672 H   0  0  0  0  0  0  0  0  0  0  0  0
   -0.1360   24.9350  -35.4350 H   0  0  0  0  0  0  0  0  0  0  0  0
   -0.7257   25.7852  -36.9415 H   0  0  0  0  0  0  0  0  0  0  0  0
    3.6377   22.5642  -35.7063 H   0  0  0  0  0  0  0  0  0  0  0  0
    2.8980   20.5360  -34.4877 H   0  0  0  0  0  0  0  0  0  0  0  0
    2.5711   19.2964  -33.9728 H   0  0  0  0  0  0  0  0  0  0  0  0
    0.1325   16.6034  -31.7660 H   0  0  0  0  0  0  0  0  0  0  0  0
   -1.8223   18.0222  -32.2046 H   0  0  0  0  0  0  0  0  0  0  0  0
   -4.3444   21.0433  -34.3074 H   0  0  0  0  0  0  0  0  0  0  0  0
   -5.7221   22.6361  -33.0123 H   0  0  0  0  0  0  0  0  0  0  0  0
   -9.2438   23.9504  -32.4456 H   0  0  0  0  0  0  0  0  0  0  0  0
  -10.5171   21.7897  -32.4282 H   0  0  0  0  0  0  0  0  0  0  0  0
   -9.4890   19.8230  -31.4310 H   0  0  0  0  0  0  0  0  0  0  0  0
   -7.2668   19.8845  -30.4548 H   0  0  0  0  0  0  0  0  0  0  0  0
   -2.5092   23.1474  -30.2660 H   0  0  0  0  0  0  0  0  0  0  0  0
   -1.1964   21.7691  -34.8736 H   0  0  0  0  0  0  0  0  0  0  0  0
    2.9361   26.8626  -37.2834 H   0  0  0  0  0  0  0  0  0  0  0  0
    1.5962   26.7442  -38.4864 H   0  0  0  0  0  0  0  0  0  0  0  0
    1.9205   28.9436  -37.0077 H   0  0  0  0  0  0  0  0  0  0  0  0
    0.2920   28.3401  -37.3885 H   0  0  0  0  0  0  0  0  0  0  0  0
  1  2  1  0
  2  3  1  0
  3  4  1  0
  4  5  1  0
  5  6  1  0
  6  7  2  0
  6  8  1  0
  8  9  2  0
  9 10  1  0
 10 11  2  0
 11 12  1  0
 12 13  2  0
 13 14  1  0
 14 15  1  0
 14 16  2  0
 16 17  1  0
 17 18  2  0
 18 19  1  0
 19 20  1  0
 20 21  2  0
 21 22  1  0
 22 23  2  0
 23 24  1  0
 24 25  2  0
 24 26  2  0
 24 27  1  0
 27 28  2  0
 28 29  1  0
 29 30  2  0
 30 31  1  0
 31 32  1  0
 32 33  2  0
 23 34  1  0
 34 35  2  0
 35 36  1  0
 11 37  1  0
 37 38  2  0
  5 39  1  0
 39 40  1  0
 40  2  1  0
 38  8  1  0
 18 12  1  0
 35 20  1  0
 33 28  1  0
  1 41  1  0
  1 42  1  0
  1 43  1  0
  3 44  1  0
  3 45  1  0
  4 46  1  0
  4 47  1  0
  9 48  1  0
 10 49  1  0
 13 50  1  0
 16 51  1  0
 17 52  1  0
 21 53  1  0
 22 54  1  0
 29 55  1  0
 30 56  1  0
 31 57  1  0
 32 58  1  0
 34 59  1  0
 37 60  1  0
 39 61  1  0
 39 62  1  0
 40 63  1  0
 40 64  1  0
M  END
>  <smiles>  (33) 
CN1CCN(C(=O)c2ccc(-c3cc(F)ccc3Oc3ccc(S(=O)(=O)N=c4cc[nH]cn4)cc3Cl)cn2)CC1

>  <score_type>  (33) 
oracle

>  <origin>  (33) 
adgpu

>  <m_score__min__energy>  (33) 
-11.17

>  <m_primary>  (33) 
energy

$$$$
33:0
     RDKit          3D

 25 27  0  0  0  0  0  0  0  0999 V2000
   -2.8030   21.6640  -33.2290 O   0  0  0  0  0  0  0  0  0  0  0  0
   -3.9890   21.0840  -32.7900 C   0  0  0  0  0  0  0  0  0  0  0  0
   -4.3930   19.8650  -33.3430 C   0  0  0  0  0  0  0  0  0  0  0  0
   -5.6110   19.2840  -32.9650 C   0  0  0  0  0  0  0  0  0  0  0  0
   -6.0250   18.0630  -33.5190 C   0  0  0  0  0  0  0  0  0  0  0  0
   -7.2460   17.4980  -33.1390 C   0  0  0  0  0  0  0  0  0  0  0  0
   -8.0610   18.1470  -32.2080 C   0  0  0  0  0  0  0  0  0  0  0  0
   -7.6610   19.3640  -31.6490 C   0  0  0  0  0  0  0  0  0  0  0  0
   -6.4360   19.9400  -32.0210 C   0  0  0  0  0  0  0  0  0  0  0  0
   -6.0230   21.1600  -31.4640 C   0  0  0  0  0  0  0  0  0  0  0  0
   -4.7900   21.7260  -31.8250 C   0  0  0  0  0  0  0  0  0  0  0  0
   -4.3890   23.0070  -31.2160 C   0  0  0  0  0  0  0  0  0  0  0  0
   -5.1320   24.0960  -31.2730 O   0  0  0  0  0  0  0  0  0  0  0  0
   -4.5110   25.0510  -30.6220 C   0  0  0  0  0  0  0  0  0  0  0  0
   -5.0030   26.3410  -30.4730 O   0  0  0  0  0  0  0  0  0  0  0  0
   -3.3290   24.5810  -30.1090 C   0  0  0  0  0  0  0  0  0  0  0  0
   -2.4190   25.2930  -29.3370 O   0  0  0  0  0  0  0  0  0  0  0  0
   -3.2320   23.2610  -30.4840 C   0  0  0  0  0  0  0  0  0  0  0  0
   -1.8770   22.0290  -29.9320 Br  0  0  0  0  0  0  0  0  0  0  0  0
   -3.7510   19.3590  -34.0791 H   0  0  0  0  0  0  0  0  0  0  0  0
   -5.3875   17.5494  -34.2537 H   0  0  0  0  0  0  0  0  0  0  0  0
   -7.5660   16.5398  -33.5742 H   0  0  0  0  0  0  0  0  0  0  0  0
   -9.0213   17.6984  -31.9138 H   0  0  0  0  0  0  0  0  0  0  0  0
   -8.3067   19.8710  -30.9168 H   0  0  0  0  0  0  0  0  0  0  0  0
   -6.6698   21.6764  -30.7395 H   0  0  0  0  0  0  0  0  0  0  0  0
  1  2  1  0
  2  3  2  0
  3  4  1  0
  4  5  2  0
  5  6  1  0
  6  7  2  0
  7  8  1  0
  8  9  2  0
  9 10  1  0
 10 11  2  0
 11 12  1  0
 12 13  1  0
 13 14  1  0
 14 15  1  0
 14 16  2  0
 16 17  1  0
 16 18  1  0
 18 19  1  0
 11  2  1  0
 18 12  2  0
  9  4  1  0
  3 20  1  0
  5 21  1  0
  6 22  1  0
  7 23  1  0
  8 24  1  0
 10 25  1  0
M  CHG  3   1  -1  15  -1  17  -1
M  END
>  <UniqueID>  (34) 
32

>  <SMILES>  (34) 
[O-]c1cc2ccccc2cc1-c1oc([O-])c([O-])c1Br

>  <Energy>  (34) 
67.06125146950164

>  <Genealogy>  (34) 
[O-]c1cc2ccccc2cc1-c1oc([O-])c([O-])c1Br (protonated)
[O-]c1cc2ccccc2cc1-c1oc([O-])c([O-])c1Br (3D coordinates assigned)
[O-]c1cc2ccccc2cc1-c1oc([O-])c([O-])c1Br (optimized conformer: 67.06125146950164 kcal/mol)

>  <smiles>  (34) 
Oc1cc2ccccc2cc1-c1oc(O)c(O)c1Br

>  <score_type>  (34) 
oracle

>  <origin>  (34) 
adgpu

>  <m_score__min__energy>  (34) 
-12.130000000000001

>  <m_primary>  (34) 
energy

$$$$
34:0
     RDKit          3D

 55 58  0  0  0  0  0  0  0  0999 V2000
    1.2620   22.7680  -35.7830 C   0  0  0  0  0  0  0  0  0  0  0  0
    0.6380   21.3780  -35.7300 C   0  0  0  0  0  0  0  0  0  0  0  0
    0.1990   21.0660  -34.3650 N   0  0  0  0  0  0  0  0  0  0  0  0
   -1.0150   21.4730  -33.9890 N   0  0  0  0  0  0  0  0  0  0  0  0
   -1.5340   21.2140  -32.7620 C   0  0  0  0  0  0  0  0  0  0  0  0
   -2.9060   21.6790  -32.4870 C   0  0  0  0  0  0  0  0  0  0  0  0
   -3.8630   21.1570  -33.1200 O   0  0  0  0  0  0  0  0  0  0  0  0
   -3.1480   22.6860  -31.4910 N   0  0  0  0  0  0  0  0  0  0  0  0
   -4.4550   23.1880  -31.1640 C   0  0  0  0  0  0  0  0  0  0  0  0
   -5.5970   22.3820  -31.3170 C   0  0  0  0  0  0  0  0  0  0  0  0
   -6.8660   22.8760  -30.9850 C   0  0  0  0  0  0  0  0  0  0  0  0
   -8.2980   21.8780  -31.2230 S   0  0  0  0  0  0  0  0  0  0  0  0
   -9.1300   21.8760  -29.9690 O   0  0  0  0  0  0  0  0  0  0  0  0
   -9.1200   22.4620  -32.3380 O   0  0  0  0  0  0  0  0  0  0  0  0
   -7.8250   20.2490  -31.6360 N   0  0  0  0  0  0  0  0  0  0  0  0
   -8.9420   19.3170  -31.3680 C   0  0  0  0  0  0  0  0  0  0  0  0
   -8.7340   17.9340  -32.0230 C   0  0  0  0  0  0  0  0  0  0  0  0
   -7.2740   17.7150  -32.4250 C   0  0  0  0  0  0  0  0  0  0  0  0
   -6.7920   18.8230  -33.3750 C   0  0  0  0  0  0  0  0  0  0  0  0
   -7.4200   20.1910  -33.0510 C   0  0  0  0  0  0  0  0  0  0  0  0
   -6.9940   24.1790  -30.4890 C   0  0  0  0  0  0  0  0  0  0  0  0
   -5.8610   24.9750  -30.3080 C   0  0  0  0  0  0  0  0  0  0  0  0
   -4.5950   24.4830  -30.6380 C   0  0  0  0  0  0  0  0  0  0  0  0
   -3.4780   25.2920  -30.4550 O   0  0  0  0  0  0  0  0  0  0  0  0
   -0.7530   20.5110  -31.8210 C   0  0  0  0  0  0  0  0  0  0  0  0
   -1.1830   20.2880  -30.4950 C   0  0  0  0  0  0  0  0  0  0  0  0
   -0.3830   19.5760  -29.6000 C   0  0  0  0  0  0  0  0  0  0  0  0
    0.8600   19.0890  -30.0050 C   0  0  0  0  0  0  0  0  0  0  0  0
    1.3160   19.3260  -31.3020 C   0  0  0  0  0  0  0  0  0  0  0  0
    0.5240   20.0470  -32.2160 C   0  0  0  0  0  0  0  0  0  0  0  0
    0.9830   20.3330  -33.5140 C   0  0  0  0  0  0  0  0  0  0  0  0
    2.1160   19.9200  -33.8910 O   0  0  0  0  0  0  0  0  0  0  0  0
    1.4268   23.1352  -34.7593 H   0  0  0  0  0  0  0  0  0  0  0  0
    2.2241   22.7180  -36.3140 H   0  0  0  0  0  0  0  0  0  0  0  0
    0.5853   23.4537  -36.3140 H   0  0  0  0  0  0  0  0  0  0  0  0
   -0.2289   21.3439  -36.4062 H   0  0  0  0  0  0  0  0  0  0  0  0
    1.3895   20.6374  -36.0411 H   0  0  0  0  0  0  0  0  0  0  0  0
   -2.3250   23.1340  -31.0280 H   0  0  0  0  0  0  0  0  0  0  0  0
   -5.4937   21.3561  -31.7001 H   0  0  0  0  0  0  0  0  0  0  0  0
   -9.0337   19.1811  -30.2803 H   0  0  0  0  0  0  0  0  0  0  0  0
   -9.8527   19.7563  -31.8011 H   0  0  0  0  0  0  0  0  0  0  0  0
   -9.0283   17.1522  -31.3074 H   0  0  0  0  0  0  0  0  0  0  0  0
   -9.3518   17.8874  -32.9319 H   0  0  0  0  0  0  0  0  0  0  0  0
   -6.6475   17.7187  -31.5208 H   0  0  0  0  0  0  0  0  0  0  0  0
   -7.1948   16.7488  -32.9448 H   0  0  0  0  0  0  0  0  0  0  0  0
   -5.6985   18.9081  -33.2918 H   0  0  0  0  0  0  0  0  0  0  0  0
   -7.0995   18.5468  -34.3944 H   0  0  0  0  0  0  0  0  0  0  0  0
   -6.6838   20.9838  -33.2499 H   0  0  0  0  0  0  0  0  0  0  0  0
   -8.3094   20.3333  -33.6824 H   0  0  0  0  0  0  0  0  0  0  0  0
   -7.9893   24.5766  -30.2413 H   0  0  0  0  0  0  0  0  0  0  0  0
   -5.9652   25.9929  -29.9043 H   0  0  0  0  0  0  0  0  0  0  0  0
   -2.1567   20.6787  -30.1644 H   0  0  0  0  0  0  0  0  0  0  0  0
   -0.7335   19.3984  -28.5726 H   0  0  0  0  0  0  0  0  0  0  0  0
    1.4817   18.5171  -29.3004 H   0  0  0  0  0  0  0  0  0  0  0  0
    2.3008   18.9471  -31.6127 H   0  0  0  0  0  0  0  0  0  0  0  0
  1  2  1  0
  2  3  1  0
  3  4  1  0
  4  5  2  0
  5  6  1  0
  6  7  2  0
  6  8  1  0
  8  9  1  0
  9 10  2  0
 10 11  1  0
 11 12  1  0
 12 13  2  0
 12 14  2  0
 12 15  1  0
 15 16  1  0
 16 17  1  0
 17 18  1  0
 18 19  1  0
 19 20  1  0
 11 21  2  0
 21 22  1  0
 22 23  2  0
 23 24  1  0
  5 25  1  0
 25 26  2  0
 26 27  1  0
 27 28  2  0
 28 29  1  0
 29 30  2  0
 30 31  1  0
 31 32  2  0
 31  3  1  0
 23  9  1  0
 30 25  1  0
 20 15  1  0
  1 33  1  0
  1 34  1  0
  1 35  1  0
  2 36  1  0
  2 37  1  0
  8 38  1  0
 10 39  1  0
 16 40  1  0
 16 41  1  0
 17 42  1  0
 17 43  1  0
 18 44  1  0
 18 45  1  0
 19 46  1  0
 19 47  1  0
 20 48  1  0
 20 49  1  0
 21 50  1  0
 22 51  1  0
 26 52  1  0
 27 53  1  0
 28 54  1  0
 29 55  1  0
M  CHG  1  24  -1
M  END
>  <UniqueID>  (35) 
33

>  <SMILES>  (35) 
CCn1nc(C(=O)Nc2cc(S(=O)(=O)N3CCCCC3)ccc2[O-])c2ccccc2c1=O

>  <Energy>  (35) 
74.73569217074851

>  <Genealogy>  (35) 
CCn1nc(C(=O)Nc2cc(S(=O)(=O)N3CCCCC3)ccc2[O-])c2ccccc2c1=O (protonated)
CCn1nc(C(=O)Nc2cc(S(=O)(=O)N3CCCCC3)ccc2[O-])c2ccccc2c1=O (3D coordinates assigned)
CCn1nc(C(=O)Nc2cc(S(=O)(=O)N3CCCCC3)ccc2[O-])c2ccccc2c1=O (nonaromatic ring conformer: 74.73569217074851 kcal/mol)

>  <smiles>  (35) 
CCn1nc(C(=O)Nc2cc(S(=O)(=O)N3CCCCC3)ccc2O)c2ccccc2c1=O

>  <score_type>  (35) 
oracle

>  <origin>  (35) 
adgpu

>  <m_score__min__energy>  (35) 
-13.35

>  <m_primary>  (35) 
energy

$$$$
35:0
     RDKit          3D

 39 41  0  0  0  0  0  0  0  0999 V2000
   -5.3170   15.3170  -34.2850 C   0  0  0  0  0  0  0  0  0  0  0  0
   -5.0470   16.7870  -34.2640 C   0  0  0  0  0  0  0  0  0  0  0  0
   -4.5610   17.4820  -35.3070 N   0  0  0  0  0  0  0  0  0  0  0  0
   -4.5010   18.7340  -34.9660 O   0  0  0  0  0  0  0  0  0  0  0  0
   -4.9320   18.8990  -33.7380 C   0  0  0  0  0  0  0  0  0  0  0  0
   -4.9730   20.0770  -33.1830 N   0  0  0  0  0  0  0  0  0  0  0  0
   -5.4690   20.5170  -31.5810 S   0  0  0  0  0  0  0  0  0  0  0  0
   -4.5150   19.9060  -30.5960 O   0  0  0  0  0  0  0  0  0  0  0  0
   -6.8220   19.9120  -31.3260 O   0  0  0  0  0  0  0  0  0  0  0  0
   -5.5090   22.2760  -31.3110 C   0  0  0  0  0  0  0  0  0  0  0  0
   -6.7350   22.9160  -31.5380 C   0  0  0  0  0  0  0  0  0  0  0  0
   -6.8540   24.2920  -31.4070 C   0  0  0  0  0  0  0  0  0  0  0  0
   -5.7410   25.0380  -31.0470 C   0  0  0  0  0  0  0  0  0  0  0  0
   -4.5520   24.4290  -30.7930 N   0  0  0  0  0  0  0  0  0  0  0  0
   -3.4900   25.2390  -30.4630 O   0  0  0  0  0  0  0  0  0  0  0  0
   -4.4010   23.0630  -30.8740 C   0  0  0  0  0  0  0  0  0  0  0  0
   -2.8330   22.3370  -30.4120 S   0  0  0  0  0  0  0  0  0  0  0  0
   -1.8510   23.4320  -30.1120 O   0  0  0  0  0  0  0  0  0  0  0  0
   -2.9740   21.4940  -29.1750 O   0  0  0  0  0  0  0  0  0  0  0  0
   -2.2150   21.2540  -31.6560 C   0  0  0  0  0  0  0  0  0  0  0  0
   -2.3850   21.5850  -33.0080 C   0  0  0  0  0  0  0  0  0  0  0  0
   -1.9150   20.7260  -34.0060 C   0  0  0  0  0  0  0  0  0  0  0  0
   -1.2840   19.5270  -33.6580 C   0  0  0  0  0  0  0  0  0  0  0  0
   -1.1270   19.1850  -32.3120 C   0  0  0  0  0  0  0  0  0  0  0  0
   -1.5970   20.0430  -31.3120 C   0  0  0  0  0  0  0  0  0  0  0  0
   -5.3130   17.6570  -33.2200 C   0  0  0  0  0  0  0  0  0  0  0  0
   -6.0890   17.1340  -31.5500 Br  0  0  0  0  0  0  0  0  0  0  0  0
   -5.3859   14.9421  -33.2532 H   0  0  0  0  0  0  0  0  0  0  0  0
   -6.2653   15.1258  -34.8086 H   0  0  0  0  0  0  0  0  0  0  0  0
   -4.4985   14.8013  -34.8086 H   0  0  0  0  0  0  0  0  0  0  0  0
   -4.2830   17.1030  -36.2400 H   0  0  0  0  0  0  0  0  0  0  0  0
   -7.6141   22.3197  -31.8237 H   0  0  0  0  0  0  0  0  0  0  0  0
   -7.8202   24.7861  -31.5866 H   0  0  0  0  0  0  0  0  0  0  0  0
   -5.8211   26.1321  -30.9663 H   0  0  0  0  0  0  0  0  0  0  0  0
   -2.8894   22.5228  -33.2841 H   0  0  0  0  0  0  0  0  0  0  0  0
   -2.0415   20.9932  -35.0655 H   0  0  0  0  0  0  0  0  0  0  0  0
   -0.9114   18.8534  -34.4437 H   0  0  0  0  0  0  0  0  0  0  0  0
   -0.6336   18.2406  -32.0388 H   0  0  0  0  0  0  0  0  0  0  0  0
   -1.4816   19.7672  -30.2534 H   0  0  0  0  0  0  0  0  0  0  0  0
  1  2  1  0
  2  3  1  0
  3  4  1  0
  4  5  1  0
  5  6  2  3
  6  7  1  0
  7  8  2  0
  7  9  2  0
  7 10  1  0
 10 11  2  0
 11 12  1  0
 12 13  2  0
 13 14  1  0
 14 15  1  0
 14 16  2  0
 16 17  1  0
 17 18  2  0
 17 19  2  0
 17 20  1  0
 20 21  2  0
 21 22  1  0
 22 23  2  0
 23 24  1  0
 24 25  2  0
  5 26  1  0
 26 27  1  0
 26  2  2  0
 16 10  1  0
 25 20  1  0
  1 28  1  0
  1 29  1  0
  1 30  1  0
  3 31  1  0
 11 32  1  0
 12 33  1  0
 13 34  1  0
 21 35  1  0
 22 36  1  0
 23 37  1  0
 24 38  1  0
 25 39  1  0
M  CHG  2  14   1  15  -1
M  END
>  <UniqueID>  (36) 
34

>  <SMILES>  (36) 
Cc1[nH]oc(=NS(=O)(=O)c2ccc[n+]([O-])c2S(=O)(=O)c2ccccc2)c1Br

>  <Energy>  (36) 
91.32690421838474

>  <Genealogy>  (36) 
Cc1[nH]oc(=NS(=O)(=O)c2ccc[n+]([O-])c2S(=O)(=O)c2ccccc2)c1Br (3D coordinates assigned)
Cc1[nH]oc(=NS(=O)(=O)c2ccc[n+]([O-])c2S(=O)(=O)c2ccccc2)c1Br (optimized conformer: 91.32690421838474 kcal/mol)

>  <smiles>  (36) 
Cc1[nH]oc(=NS(=O)(=O)c2ccc[n+]([O-])c2S(=O)(=O)c2ccccc2)c1Br

>  <score_type>  (36) 
oracle

>  <origin>  (36) 
adgpu

>  <m_score__min__energy>  (36) 
-9.4000000000000004

>  <m_primary>  (36) 
energy

$$$$
36:0
     RDKit          3D

 38 40  0  0  0  0  0  0  0  0999 V2000
   -6.9440   23.4530  -33.0560 O   0  0  0  0  0  0  0  0  0  0  0  0
   -6.9790   22.8110  -31.6980 S   0  0  0  0  0  0  0  0  0  0  0  0
   -8.0830   23.4450  -30.8970 O   0  0  0  0  0  0  0  0  0  0  0  0
   -5.4290   23.0810  -30.9040 C   0  0  0  0  0  0  0  0  0  0  0  0
   -5.3410   23.9120  -29.7800 C   0  0  0  0  0  0  0  0  0  0  0  0
   -4.1110   24.1030  -29.1420 C   0  0  0  0  0  0  0  0  0  0  0  0
   -2.9550   23.4620  -29.6180 C   0  0  0  0  0  0  0  0  0  0  0  0
   -1.6890   23.6570  -28.9600 N   0  0  0  0  0  0  0  0  0  0  0  0
   -1.1010   24.8330  -28.6570 C   0  0  0  0  0  0  0  0  0  0  0  0
   -1.6320   26.0800  -28.9680 O   0  0  0  0  0  0  0  0  0  0  0  0
    0.1110   24.6340  -28.0250 C   0  0  0  0  0  0  0  0  0  0  0  0
    0.2760   23.2640  -27.9350 C   0  0  0  0  0  0  0  0  0  0  0  0
   -0.8450   22.7040  -28.5160 C   0  0  0  0  0  0  0  0  0  0  0  0
   -1.0870   21.3380  -28.6070 O   0  0  0  0  0  0  0  0  0  0  0  0
   -3.0520   22.6240  -30.7410 C   0  0  0  0  0  0  0  0  0  0  0  0
   -4.2820   22.4330  -31.3780 C   0  0  0  0  0  0  0  0  0  0  0  0
   -7.2670   21.0960  -31.8660 N   0  0  0  0  0  0  0  0  0  0  0  0
   -8.7220   20.8340  -31.8960 C   0  0  0  0  0  0  0  0  0  0  0  0
   -9.0580   19.4060  -32.3830 C   0  0  0  0  0  0  0  0  0  0  0  0
   -7.8370   18.4860  -32.3170 C   0  0  0  0  0  0  0  0  0  0  0  0
   -6.6700   19.0600  -33.1380 C   0  0  0  0  0  0  0  0  0  0  0  0
   -6.6160   20.5990  -33.0890 C   0  0  0  0  0  0  0  0  0  0  0  0
   -6.2413   24.4156  -29.3981 H   0  0  0  0  0  0  0  0  0  0  0  0
   -4.0484   24.7595  -28.2616 H   0  0  0  0  0  0  0  0  0  0  0  0
    0.8046   25.4086  -27.6659 H   0  0  0  0  0  0  0  0  0  0  0  0
    1.1278   22.7284  -27.4905 H   0  0  0  0  0  0  0  0  0  0  0  0
   -2.1545   22.1146  -31.1219 H   0  0  0  0  0  0  0  0  0  0  0  0
   -4.3487   21.7715  -32.2543 H   0  0  0  0  0  0  0  0  0  0  0  0
   -9.1245   20.9639  -30.8806 H   0  0  0  0  0  0  0  0  0  0  0  0
   -9.1741   21.5432  -32.6050 H   0  0  0  0  0  0  0  0  0  0  0  0
   -9.8532   18.9899  -31.7470 H   0  0  0  0  0  0  0  0  0  0  0  0
   -9.3853   19.4683  -33.4313 H   0  0  0  0  0  0  0  0  0  0  0  0
   -7.5218   18.3810  -31.2684 H   0  0  0  0  0  0  0  0  0  0  0  0
   -8.1125   17.5070  -32.7362 H   0  0  0  0  0  0  0  0  0  0  0  0
   -5.7266   18.6608  -32.7372 H   0  0  0  0  0  0  0  0  0  0  0  0
   -6.8210   18.7637  -34.1865 H   0  0  0  0  0  0  0  0  0  0  0  0
   -5.5656   20.9254  -33.0989 H   0  0  0  0  0  0  0  0  0  0  0  0
   -7.1453   21.0029  -33.9646 H   0  0  0  0  0  0  0  0  0  0  0  0
  1  2  2  0
  2  3  2  0
  2  4  1  0
  4  5  2  0
  5  6  1  0
  6  7  2  0
  7  8  1  0
  8  9  1  0
  9 10  1  0
  9 11  2  0
 11 12  1  0
 12 13  2  0
 13 14  1  0
  7 15  1  0
 15 16  2  0
  2 17  1  0
 17 18  1  0
 18 19  1  0
 19 20  1  0
 20 21  1  0
 21 22  1  0
 16  4  1  0
 22 17  1  0
 13  8  1  0
  5 23  1  0
  6 24  1  0
 11 25  1  0
 12 26  1  0
 15 27  1  0
 16 28  1  0
 18 29  1  0
 18 30  1  0
 19 31  1  0
 19 32  1  0
 20 33  1  0
 20 34  1  0
 21 35  1  0
 21 36  1  0
 22 37  1  0
 22 38  1  0
M  CHG  2  10  -1  14  -1
M  END
>  <UniqueID>  (37) 
35

>  <SMILES>  (37) 
O=S(=O)(c1ccc(-n2c([O-])ccc2[O-])cc1)N1CCCCC1

>  <Energy>  (37) 
75.18413358044364

>  <Genealogy>  (37) 
O=S(=O)(c1ccc(-n2c([O-])ccc2[O-])cc1)N1CCCCC1 (protonated)
O=S(=O)(c1ccc(-n2c([O-])ccc2[O-])cc1)N1CCCCC1 (3D coordinates assigned)
O=S(=O)(c1ccc(-n2c([O-])ccc2[O-])cc1)N1CCCCC1 (nonaromatic ring conformer: 75.18413358044364 kcal/mol)

>  <smiles>  (37) 
O=S(=O)(c1ccc(-n2c(O)ccc2O)cc1)N1CCCCC1

>  <score_type>  (37) 
oracle

>  <origin>  (37) 
adgpu

>  <m_score__min__energy>  (37) 
-10.800000000000001

>  <m_primary>  (37) 
energy

$$$$
37:0
     RDKit          3D

 43 44  0  0  0  0  0  0  0  0999 V2000
   -3.0480   20.9950  -28.9190 C   0  0  0  0  0  0  0  0  0  0  0  0
   -2.8600   22.4250  -28.4110 C   0  0  0  0  0  0  0  0  0  0  0  0
   -2.2480   23.3580  -29.4740 C   0  0  0  0  0  0  0  0  0  0  0  0
   -2.6840   24.8250  -29.3290 C   0  0  0  0  0  0  0  0  0  0  0  0
   -3.4890   25.2690  -30.4700 N   0  0  0  0  0  0  0  0  0  0  0  0
   -5.1790   24.9320  -30.2340 S   0  0  0  0  0  0  0  0  0  0  0  0
   -5.4690   24.8860  -28.7610 O   0  0  0  0  0  0  0  0  0  0  0  0
   -6.0070   26.0280  -30.8460 O   0  0  0  0  0  0  0  0  0  0  0  0
   -5.6030   23.3790  -30.9460 C   0  0  0  0  0  0  0  0  0  0  0  0
   -6.8580   22.8160  -30.6880 C   0  0  0  0  0  0  0  0  0  0  0  0
   -7.1910   21.5640  -31.2110 C   0  0  0  0  0  0  0  0  0  0  0  0
   -6.2700   20.8520  -32.0030 C   0  0  0  0  0  0  0  0  0  0  0  0
   -6.6020   19.5200  -32.5640 C   0  0  0  0  0  0  0  0  0  0  0  0
   -7.7980   18.8360  -32.4460 C   0  0  0  0  0  0  0  0  0  0  0  0
   -7.6700   17.7000  -33.0850 O   0  0  0  0  0  0  0  0  0  0  0  0
   -6.4530   17.6700  -33.5820 C   0  0  0  0  0  0  0  0  0  0  0  0
   -5.9090   16.5270  -34.3890 C   0  0  0  0  0  0  0  0  0  0  0  0
   -4.5820   16.9240  -35.0420 C   0  0  0  0  0  0  0  0  0  0  0  0
   -5.7340   15.2900  -33.5040 C   0  0  0  0  0  0  0  0  0  0  0  0
   -5.7410   18.7770  -33.2890 N   0  0  0  0  0  0  0  0  0  0  0  0
   -5.0110   21.4260  -32.2560 C   0  0  0  0  0  0  0  0  0  0  0  0
   -4.6800   22.6770  -31.7300 C   0  0  0  0  0  0  0  0  0  0  0  0
   -3.1380   20.3105  -28.0626 H   0  0  0  0  0  0  0  0  0  0  0  0
   -3.9611   20.9400  -29.5299 H   0  0  0  0  0  0  0  0  0  0  0  0
   -2.1801   20.7058  -29.5299 H   0  0  0  0  0  0  0  0  0  0  0  0
   -3.8409   22.8249  -28.1145 H   0  0  0  0  0  0  0  0  0  0  0  0
   -2.1626   22.3868  -27.5612 H   0  0  0  0  0  0  0  0  0  0  0  0
   -1.1523   23.3107  -29.3890 H   0  0  0  0  0  0  0  0  0  0  0  0
   -2.6067   23.0100  -30.4539 H   0  0  0  0  0  0  0  0  0  0  0  0
   -3.2800   24.9301  -28.4104 H   0  0  0  0  0  0  0  0  0  0  0  0
   -1.7785   25.4481  -29.2864 H   0  0  0  0  0  0  0  0  0  0  0  0
   -7.5861   23.3621  -30.0702 H   0  0  0  0  0  0  0  0  0  0  0  0
   -8.1805   21.1311  -31.0024 H   0  0  0  0  0  0  0  0  0  0  0  0
   -8.6948   19.1833  -31.9120 H   0  0  0  0  0  0  0  0  0  0  0  0
   -6.6251   16.2808  -35.1869 H   0  0  0  0  0  0  0  0  0  0  0  0
   -3.8406   17.1458  -34.2603 H   0  0  0  0  0  0  0  0  0  0  0  0
   -4.2187   16.0952  -35.6674 H   0  0  0  0  0  0  0  0  0  0  0  0
   -4.7335   17.8161  -35.6674 H   0  0  0  0  0  0  0  0  0  0  0  0
   -5.7761   15.5873  -32.4458 H   0  0  0  0  0  0  0  0  0  0  0  0
   -6.5394   14.5712  -33.7152 H   0  0  0  0  0  0  0  0  0  0  0  0
   -4.7608   14.8228  -33.7152 H   0  0  0  0  0  0  0  0  0  0  0  0
   -4.2799   20.8844  -32.8742 H   0  0  0  0  0  0  0  0  0  0  0  0
   -3.6903   23.1121  -31.9327 H   0  0  0  0  0  0  0  0  0  0  0  0
  1  2  1  0
  2  3  1  0
  3  4  1  0
  4  5  1  0
  5  6  1  0
  6  7  2  0
  6  8  2  0
  6  9  1  0
  9 10  2  0
 10 11  1  0
 11 12  2  0
 12 13  1  0
 13 14  2  0
 14 15  1  0
 15 16  1  0
 16 17  1  0
 17 18  1  0
 17 19  1  0
 16 20  2  0
 12 21  1  0
 21 22  2  0
 22  9  1  0
 20 13  1  0
  1 23  1  0
  1 24  1  0
  1 25  1  0
  2 26  1  0
  2 27  1  0
  3 28  1  0
  3 29  1  0
  4 30  1  0
  4 31  1  0
 10 32  1  0
 11 33  1  0
 14 34  1  0
 17 35  1  0
 18 36  1  0
 18 37  1  0
 18 38  1  0
 19 39  1  0
 19 40  1  0
 19 41  1  0
 21 42  1  0
 22 43  1  0
M  CHG  1   5  -1
M  END
>  <UniqueID>  (38) 
36

>  <SMILES>  (38) 
CCCC[N-]S(=O)(=O)c1ccc(-c2coc(C(C)C)n2)cc1

>  <Energy>  (38) 
61.950080380941756

>  <Genealogy>  (38) 
CCCC[N-]S(=O)(=O)c1ccc(-c2coc(C(C)C)n2)cc1 (protonated)
CCCC[N-]S(=O)(=O)c1ccc(-c2coc(C(C)C)n2)cc1 (3D coordinates assigned)
CCCC[N-]S(=O)(=O)c1ccc(-c2coc(C(C)C)n2)cc1 (optimized conformer: 61.950080380941756 kcal/mol)

>  <smiles>  (38) 
CCCCNS(=O)(=O)c1ccc(-c2coc(C(C)C)n2)cc1

>  <score_type>  (38) 
oracle

>  <origin>  (38) 
adgpu

>  <m_score__min__energy>  (38) 
-8.8200000000000003

>  <m_primary>  (38) 
energy

$$$$
38:0
     RDKit          3D

 48 50  0  0  0  0  0  0  0  0999 V2000
   -2.7440   18.5650  -25.6270 C   0  0  0  0  0  0  0  0  0  0  0  0
   -2.4470   19.3540  -26.8690 C   0  0  0  0  0  0  0  0  0  0  0  0
   -3.2610   20.4380  -27.2290 C   0  0  0  0  0  0  0  0  0  0  0  0
   -2.9780   21.1810  -28.3780 C   0  0  0  0  0  0  0  0  0  0  0  0
   -1.8730   20.8500  -29.1770 C   0  0  0  0  0  0  0  0  0  0  0  0
   -1.5540   21.7240  -30.6740 S   0  0  0  0  0  0  0  0  0  0  0  0
   -1.9680   20.8620  -31.8320 O   0  0  0  0  0  0  0  0  0  0  0  0
   -0.0900   22.0430  -30.8020 O   0  0  0  0  0  0  0  0  0  0  0  0
   -2.4590   23.2080  -30.7080 N   0  0  0  0  0  0  0  0  0  0  0  0
   -3.8890   23.2640  -30.8650 C   0  0  0  0  0  0  0  0  0  0  0  0
   -4.6370   22.1050  -31.1400 C   0  0  0  0  0  0  0  0  0  0  0  0
   -6.0140   22.1810  -31.3760 C   0  0  0  0  0  0  0  0  0  0  0  0
   -6.8720   20.7300  -31.8810 S   0  0  0  0  0  0  0  0  0  0  0  0
   -7.2410   20.8210  -33.3360 O   0  0  0  0  0  0  0  0  0  0  0  0
   -8.1310   20.6080  -31.0670 O   0  0  0  0  0  0  0  0  0  0  0  0
   -5.8220   19.3580  -31.6010 N   0  0  0  0  0  0  0  0  0  0  0  0
   -4.7200   19.2960  -32.5950 C   0  0  0  0  0  0  0  0  0  0  0  0
   -4.7140   18.0130  -33.4420 C   0  0  0  0  0  0  0  0  0  0  0  0
   -6.1230   17.6950  -33.9350 C   0  0  0  0  0  0  0  0  0  0  0  0
   -7.1270   17.5640  -32.7750 C   0  0  0  0  0  0  0  0  0  0  0  0
   -6.5820   18.1040  -31.4400 C   0  0  0  0  0  0  0  0  0  0  0  0
   -6.6670   23.4150  -31.2890 C   0  0  0  0  0  0  0  0  0  0  0  0
   -5.9430   24.5660  -30.9700 C   0  0  0  0  0  0  0  0  0  0  0  0
   -4.5610   24.4980  -30.7660 C   0  0  0  0  0  0  0  0  0  0  0  0
   -3.8590   25.6640  -30.4780 O   0  0  0  0  0  0  0  0  0  0  0  0
   -1.0450   19.7830  -28.8050 C   0  0  0  0  0  0  0  0  0  0  0  0
   -1.3250   19.0440  -27.6530 C   0  0  0  0  0  0  0  0  0  0  0  0
   -2.5142   19.1753  -24.7412 H   0  0  0  0  0  0  0  0  0  0  0  0
   -3.8083   18.2871  -25.6148 H   0  0  0  0  0  0  0  0  0  0  0  0
   -2.1271   17.6543  -25.6148 H   0  0  0  0  0  0  0  0  0  0  0  0
   -4.1261   20.7044  -26.6040 H   0  0  0  0  0  0  0  0  0  0  0  0
   -3.6229   22.0274  -28.6568 H   0  0  0  0  0  0  0  0  0  0  0  0
   -1.9040   24.0930  -30.7180 H   0  0  0  0  0  0  0  0  0  0  0  0
   -4.1335   21.1274  -31.1699 H   0  0  0  0  0  0  0  0  0  0  0  0
   -4.8162   20.1573  -33.2724 H   0  0  0  0  0  0  0  0  0  0  0  0
   -3.7780   19.3071  -32.0272 H   0  0  0  0  0  0  0  0  0  0  0  0
   -4.0500   18.1532  -34.3077 H   0  0  0  0  0  0  0  0  0  0  0  0
   -4.3555   17.1778  -32.8224 H   0  0  0  0  0  0  0  0  0  0  0  0
   -6.4560   18.5033  -34.6027 H   0  0  0  0  0  0  0  0  0  0  0  0
   -6.0875   16.7305  -34.4627 H   0  0  0  0  0  0  0  0  0  0  0  0
   -8.0367   18.1254  -33.0344 H   0  0  0  0  0  0  0  0  0  0  0  0
   -7.3299   16.4918  -32.6366 H   0  0  0  0  0  0  0  0  0  0  0  0
   -7.4292   18.2903  -30.7636 H   0  0  0  0  0  0  0  0  0  0  0  0
   -5.8942   17.3487  -31.0320 H   0  0  0  0  0  0  0  0  0  0  0  0
   -7.7498   23.4788  -31.4717 H   0  0  0  0  0  0  0  0  0  0  0  0
   -6.4626   25.5313  -30.8787 H   0  0  0  0  0  0  0  0  0  0  0  0
   -0.1714   19.5262  -29.4221 H   0  0  0  0  0  0  0  0  0  0  0  0
   -0.6634   18.2158  -27.3592 H   0  0  0  0  0  0  0  0  0  0  0  0
  1  2  1  0
  2  3  2  0
  3  4  1  0
  4  5  2  0
  5  6  1  0
  6  7  2  0
  6  8  2  0
  6  9  1  0
  9 10  1  0
 10 11  2  0
 11 12  1  0
 12 13  1  0
 13 14  2  0
 13 15  2  0
 13 16  1  0
 16 17  1  0
 17 18  1  0
 18 19  1  0
 19 20  1  0
 20 21  1  0
 12 22  2  0
 22 23  1  0
 23 24  2  0
 24 25  1  0
  5 26  1  0
 26 27  2  0
 27  2  1  0
 24 10  1  0
 21 16  1  0
  1 28  1  0
  1 29  1  0
  1 30  1  0
  3 31  1  0
  4 32  1  0
  9 33  1  0
 11 34  1  0
 17 35  1  0
 17 36  1  0
 18 37  1  0
 18 38  1  0
 19 39  1  0
 19 40  1  0
 20 41  1  0
 20 42  1  0
 21 43  1  0
 21 44  1  0
 22 45  1  0
 23 46  1  0
 26 47  1  0
 27 48  1  0
M  CHG  1  25  -1
M  END
>  <UniqueID>  (39) 
37

>  <SMILES>  (39) 
Cc1ccc(S(=O)(=O)Nc2cc(S(=O)(=O)N3CCCCC3)ccc2[O-])cc1

>  <Energy>  (39) 
54.883987794986076

>  <Genealogy>  (39) 
Cc1ccc(S(=O)(=O)Nc2cc(S(=O)(=O)N3CCCCC3)ccc2[O-])cc1 (protonated)
Cc1ccc(S(=O)(=O)Nc2cc(S(=O)(=O)N3CCCCC3)ccc2[O-])cc1 (3D coordinates assigned)
Cc1ccc(S(=O)(=O)Nc2cc(S(=O)(=O)N3CCCCC3)ccc2[O-])cc1 (nonaromatic ring conformer: 54.883987794986076 kcal/mol)

>  <smiles>  (39) 
Cc1ccc(S(=O)(=O)Nc2cc(S(=O)(=O)N3CCCCC3)ccc2O)cc1

>  <score_type>  (39) 
oracle

>  <origin>  (39) 
adgpu

>  <m_score__min__energy>  (39) 
-12.880000000000001

>  <m_primary>  (39) 
energy

$$$$
39:0
     RDKit          3D

 46 48  0  0  0  0  0  0  0  0999 V2000
   -0.5030   23.3900  -25.0410 C   0  0  0  0  0  0  0  0  0  0  0  0
   -0.8620   23.3870  -26.5040 C   0  0  0  0  0  0  0  0  0  0  0  0
   -1.0380   22.1500  -27.1450 C   0  0  0  0  0  0  0  0  0  0  0  0
   -1.3520   22.0900  -28.4990 C   0  0  0  0  0  0  0  0  0  0  0  0
   -1.4860   23.2590  -29.2480 C   0  0  0  0  0  0  0  0  0  0  0  0
   -1.7950   23.1420  -30.6430 N   0  0  0  0  0  0  0  0  0  0  0  0
   -2.6800   22.1710  -31.2180 C   0  0  0  0  0  0  0  0  0  0  0  0
   -2.4250   20.9410  -31.1260 O   0  0  0  0  0  0  0  0  0  0  0  0
   -3.8750   22.5890  -31.8830 N   0  0  0  0  0  0  0  0  0  0  0  0
   -4.9250   23.3300  -31.2530 C   0  0  0  0  0  0  0  0  0  0  0  0
   -6.1720   22.7140  -31.0870 C   0  0  0  0  0  0  0  0  0  0  0  0
   -7.2370   23.4130  -30.5130 C   0  0  0  0  0  0  0  0  0  0  0  0
   -7.0600   24.7320  -30.0910 C   0  0  0  0  0  0  0  0  0  0  0  0
   -5.8120   25.3470  -30.2220 C   0  0  0  0  0  0  0  0  0  0  0  0
   -4.7330   24.6490  -30.7800 C   0  0  0  0  0  0  0  0  0  0  0  0
   -3.4860   25.2760  -30.8190 O   0  0  0  0  0  0  0  0  0  0  0  0
   -1.3780   24.5100  -28.6110 C   0  0  0  0  0  0  0  0  0  0  0  0
   -1.6070   25.6690  -29.3450 O   0  0  0  0  0  0  0  0  0  0  0  0
   -1.0690   24.5870  -27.2330 C   0  0  0  0  0  0  0  0  0  0  0  0
   -0.9000   26.1730  -26.4370 S   0  0  0  0  0  0  0  0  0  0  0  0
   -0.8060   27.2830  -27.4460 O   0  0  0  0  0  0  0  0  0  0  0  0
   -2.1120   26.4260  -25.5840 O   0  0  0  0  0  0  0  0  0  0  0  0
    0.5310   26.1750  -25.4360 N   0  0  0  0  0  0  0  0  0  0  0  0
    1.5120   27.1440  -25.9630 C   0  0  0  0  0  0  0  0  0  0  0  0
    2.5190   27.5440  -24.8730 C   0  0  0  0  0  0  0  0  0  0  0  0
    1.9280   28.1470  -23.7260 O   0  0  0  0  0  0  0  0  0  0  0  0
    0.5510   27.8390  -23.5620 C   0  0  0  0  0  0  0  0  0  0  0  0
    0.1910   26.4120  -24.0150 C   0  0  0  0  0  0  0  0  0  0  0  0
   -1.4228   23.3823  -24.4377 H   0  0  0  0  0  0  0  0  0  0  0  0
    0.0955   22.4968  -24.8085 H   0  0  0  0  0  0  0  0  0  0  0  0
    0.0805   24.2931  -24.8085 H   0  0  0  0  0  0  0  0  0  0  0  0
   -0.9264   21.2186  -26.5705 H   0  0  0  0  0  0  0  0  0  0  0  0
   -1.4958   21.1126  -28.9828 H   0  0  0  0  0  0  0  0  0  0  0  0
   -6.3139   21.6724  -31.4109 H   0  0  0  0  0  0  0  0  0  0  0  0
   -8.2151   22.9240  -30.3936 H   0  0  0  0  0  0  0  0  0  0  0  0
   -7.9035   25.2875  -29.6551 H   0  0  0  0  0  0  0  0  0  0  0  0
   -5.6760   26.3852  -29.8850 H   0  0  0  0  0  0  0  0  0  0  0  0
   -2.6160   24.7620  -30.8380 H   0  0  0  0  0  0  0  0  0  0  0  0
    2.0533   26.6882  -26.8051 H   0  0  0  0  0  0  0  0  0  0  0  0
    0.9757   28.0445  -26.2970 H   0  0  0  0  0  0  0  0  0  0  0  0
    3.0551   26.6395  -24.5498 H   0  0  0  0  0  0  0  0  0  0  0  0
    3.1851   28.2974  -25.3187 H   0  0  0  0  0  0  0  0  0  0  0  0
    0.2937   27.9434  -22.4976 H   0  0  0  0  0  0  0  0  0  0  0  0
   -0.0178   28.5363  -24.1947 H   0  0  0  0  0  0  0  0  0  0  0  0
    0.7443   25.6926  -23.3934 H   0  0  0  0  0  0  0  0  0  0  0  0
   -0.8958   26.2854  -23.9017 H   0  0  0  0  0  0  0  0  0  0  0  0
  1  2  1  0
  2  3  2  0
  3  4  1  0
  4  5  2  0
  5  6  1  0
  6  7  1  0
  7  8  2  0
  7  9  1  0
  9 10  1  0
 10 11  2  0
 11 12  1  0
 12 13  2  0
 13 14  1  0
 14 15  2  0
 15 16  1  0
  5 17  1  0
 17 18  1  0
 17 19  2  0
 19 20  1  0
 20 21  2  0
 20 22  2  0
 20 23  1  0
 23 24  1  0
 24 25  1  0
 25 26  1  0
 26 27  1  0
 27 28  1  0
 19  2  1  0
 28 23  1  0
 15 10  1  0
  1 29  1  0
  1 30  1  0
  1 31  1  0
  3 32  1  0
  4 33  1  0
 11 34  1  0
 12 35  1  0
 13 36  1  0
 14 37  1  0
 16 38  1  0
 24 39  1  0
 24 40  1  0
 25 41  1  0
 25 42  1  0
 27 43  1  0
 27 44  1  0
 28 45  1  0
 28 46  1  0
M  CHG  3   6  -1   9  -1  18  -1
M  END
>  <UniqueID>  (40) 
38

>  <SMILES>  (40) 
Cc1ccc([N-]C(=O)[N-]c2ccccc2O)c([O-])c1S(=O)(=O)N1CCOCC1

>  <Energy>  (40) 
74.86168115309533

>  <Genealogy>  (40) 
Cc1ccc([N-]C(=O)[N-]c2ccccc2O)c([O-])c1S(=O)(=O)N1CCOCC1 (protonated)
Cc1ccc([N-]C(=O)[N-]c2ccccc2O)c([O-])c1S(=O)(=O)N1CCOCC1 (3D coordinates assigned)
Cc1ccc([N-]C(=O)[N-]c2ccccc2O)c([O-])c1S(=O)(=O)N1CCOCC1 (nonaromatic ring conformer: 74.86168115309533 kcal/mol)

>  <smiles>  (40) 
Cc1ccc(NC(=O)Nc2ccccc2O)c(O)c1S(=O)(=O)N1CCOCC1

>  <score_type>  (40) 
oracle

>  <origin>  (40) 
adgpu

>  <m_score__min__energy>  (40) 
-14.25

>  <m_primary>  (40) 
energy

$$$$
40:0
     RDKit          3D

 60 64  0  0  0  0  0  0  0  0999 V2000
    0.1590   23.9580  -25.9270 C   0  0  0  0  0  0  0  0  0  0  0  0
   -0.8390   24.3000  -26.9870 C   0  0  0  0  0  0  0  0  0  0  0  0
   -0.7540   25.5060  -27.6860 C   0  0  0  0  0  0  0  0  0  0  0  0
   -1.6700   25.7850  -28.6500 N   0  0  0  0  0  0  0  0  0  0  0  0
   -2.6680   24.9170  -28.9690 C   0  0  0  0  0  0  0  0  0  0  0  0
   -3.5150   25.2640  -29.8980 N   0  0  0  0  0  0  0  0  0  0  0  0
   -4.5950   24.5010  -30.4650 C   0  0  0  0  0  0  0  0  0  0  0  0
   -5.7760   24.9420  -30.4240 O   0  0  0  0  0  0  0  0  0  0  0  0
   -4.3310   23.1580  -31.0340 C   0  0  0  0  0  0  0  0  0  0  0  0
   -3.0270   22.7850  -31.4000 C   0  0  0  0  0  0  0  0  0  0  0  0
   -2.7750   21.5310  -31.9830 C   0  0  0  0  0  0  0  0  0  0  0  0
   -1.4850   21.1360  -32.3690 O   0  0  0  0  0  0  0  0  0  0  0  0
   -1.1930   19.9720  -33.0980 C   0  0  0  0  0  0  0  0  0  0  0  0
   -1.6760   18.7470  -32.6220 C   0  0  0  0  0  0  0  0  0  0  0  0
   -1.3810   17.5610  -33.2960 C   0  0  0  0  0  0  0  0  0  0  0  0
   -0.6130   17.5860  -34.4650 C   0  0  0  0  0  0  0  0  0  0  0  0
   -0.2390   16.0780  -35.2950 S   0  0  0  0  0  0  0  0  0  0  0  0
    1.2100   16.0870  -35.6880 O   0  0  0  0  0  0  0  0  0  0  0  0
   -1.0770   15.9250  -36.5350 O   0  0  0  0  0  0  0  0  0  0  0  0
   -0.5330   14.7340  -34.2390 N   0  0  0  0  0  0  0  0  0  0  0  0
   -1.7150   14.3430  -33.8670 C   0  0  0  0  0  0  0  0  0  0  0  0
   -2.9310   14.8990  -34.2200 C   0  0  0  0  0  0  0  0  0  0  0  0
   -3.8510   14.1060  -33.5570 C   0  0  0  0  0  0  0  0  0  0  0  0
   -3.2040   13.1790  -32.8830 O   0  0  0  0  0  0  0  0  0  0  0  0
   -1.9200   13.2980  -33.0510 N   0  0  0  0  0  0  0  0  0  0  0  0
   -0.1560   18.8120  -34.9690 C   0  0  0  0  0  0  0  0  0  0  0  0
   -0.4520   20.0070  -34.2980 C   0  0  0  0  0  0  0  0  0  0  0  0
   -0.0300   21.2590  -34.8780 C   0  0  0  0  0  0  0  0  0  0  0  0
    0.3070   22.2640  -35.3420 N   0  0  0  0  0  0  0  0  0  0  0  0
   -3.8310   20.6340  -32.1650 C   0  0  0  0  0  0  0  0  0  0  0  0
   -5.1430   20.9810  -31.7960 C   0  0  0  0  0  0  0  0  0  0  0  0
   -6.2630   20.0290  -32.0130 C   0  0  0  0  0  0  0  0  0  0  0  0
   -7.5650   20.3460  -31.5800 C   0  0  0  0  0  0  0  0  0  0  0  0
   -8.6190   19.4520  -31.7860 C   0  0  0  0  0  0  0  0  0  0  0  0
   -8.3900   18.2330  -32.4280 C   0  0  0  0  0  0  0  0  0  0  0  0
   -7.1030   17.9030  -32.8650 C   0  0  0  0  0  0  0  0  0  0  0  0
   -6.8680   16.6460  -33.5270 C   0  0  0  0  0  0  0  0  0  0  0  0
   -6.6780   15.6360  -34.0600 N   0  0  0  0  0  0  0  0  0  0  0  0
   -6.0430   18.7970  -32.6580 C   0  0  0  0  0  0  0  0  0  0  0  0
   -5.3820   22.2470  -31.2310 C   0  0  0  0  0  0  0  0  0  0  0  0
   -2.7580   23.7060  -28.2520 C   0  0  0  0  0  0  0  0  0  0  0  0
   -1.8420   23.4320  -27.2860 N   0  0  0  0  0  0  0  0  0  0  0  0
   -0.2917   24.1124  -24.9355 H   0  0  0  0  0  0  0  0  0  0  0  0
    0.4602   22.9054  -26.0329 H   0  0  0  0  0  0  0  0  0  0  0  0
    1.0425   24.6046  -26.0329 H   0  0  0  0  0  0  0  0  0  0  0  0
    0.0477   26.2239  -27.4581 H   0  0  0  0  0  0  0  0  0  0  0  0
   -2.1936   23.4822  -31.2284 H   0  0  0  0  0  0  0  0  0  0  0  0
   -2.2919   18.7192  -31.7110 H   0  0  0  0  0  0  0  0  0  0  0  0
   -1.7540   16.6024  -32.9063 H   0  0  0  0  0  0  0  0  0  0  0  0
   -3.1213   15.7644  -34.8718 H   0  0  0  0  0  0  0  0  0  0  0  0
   -4.9435   14.2300  -33.5882 H   0  0  0  0  0  0  0  0  0  0  0  0
   -1.1970   12.6800  -32.6200 H   0  0  0  0  0  0  0  0  0  0  0  0
    0.4374   18.8364  -35.8949 H   0  0  0  0  0  0  0  0  0  0  0  0
   -3.6336   19.6442  -32.6023 H   0  0  0  0  0  0  0  0  0  0  0  0
   -7.7538   21.3051  -31.0756 H   0  0  0  0  0  0  0  0  0  0  0  0
   -9.6316   19.7090  -31.4417 H   0  0  0  0  0  0  0  0  0  0  0  0
   -9.2222   17.5321  -32.5900 H   0  0  0  0  0  0  0  0  0  0  0  0
   -5.0319   18.5339  -33.0021 H   0  0  0  0  0  0  0  0  0  0  0  0
   -6.4051   22.5272  -30.9397 H   0  0  0  0  0  0  0  0  0  0  0  0
   -3.5627   22.9892  -28.4727 H   0  0  0  0  0  0  0  0  0  0  0  0
  1  2  1  0
  2  3  2  0
  3  4  1  0
  4  5  1  0
  5  6  2  3
  6  7  1  0
  7  8  2  0
  7  9  1  0
  9 10  2  0
 10 11  1  0
 11 12  1  0
 12 13  1  0
 13 14  2  0
 14 15  1  0
 15 16  2  0
 16 17  1  0
 17 18  2  0
 17 19  2  0
 17 20  1  0
 20 21  2  3
 21 22  1  0
 22 23  2  0
 23 24  1  0
 24 25  1  0
 16 26  1  0
 26 27  2  0
 27 28  1  0
 28 29  3  0
 11 30  2  0
 30 31  1  0
 31 32  1  0
 32 33  2  0
 33 34  1  0
 34 35  2  0
 35 36  1  0
 36 37  1  0
 37 38  3  0
 36 39  2  0
 31 40  2  0
  5 41  1  0
 41 42  2  0
 42  2  1  0
 40  9  1  0
 27 13  1  0
 39 32  1  0
 25 21  1  0
  1 43  1  0
  1 44  1  0
  1 45  1  0
  3 46  1  0
 10 47  1  0
 14 48  1  0
 15 49  1  0
 22 50  1  0
 23 51  1  0
 25 52  1  0
 26 53  1  0
 30 54  1  0
 33 55  1  0
 34 56  1  0
 35 57  1  0
 39 58  1  0
 40 59  1  0
 41 60  1  0
M  CHG  1   4  -1
M  END
>  <UniqueID>  (41) 
39

>  <SMILES>  (41) 
Cc1c[n-]c(=NC(=O)c2cc(Oc3ccc(S(=O)(=O)N=c4cco[nH]4)cc3C#N)cc(-c3cccc(C#N)c3)c2)cn1

>  <Energy>  (41) 
122.87005210321057

>  <Genealogy>  (41) 
Cc1c[n-]c(=NC(=O)c2cc(Oc3ccc(S(=O)(=O)N=c4cco[nH]4)cc3C#N)cc(-c3cccc(C#N)c3)c2)cn1 (protonated)
Cc1c[n-]c(=NC(=O)c2cc(Oc3ccc(S(=O)(=O)N=c4cco[nH]4)cc3C#N)cc(-c3cccc(C#N)c3)c2)cn1 (3D coordinates assigned)
Cc1c[n-]c(=NC(=O)c2cc(Oc3ccc(S(=O)(=O)N=c4cco[nH]4)cc3C#N)cc(-c3cccc(C#N)c3)c2)cn1 (optimized conformer: 122.87005210321057 kcal/mol)

>  <smiles>  (41) 
Cc1c[nH]c(=NC(=O)c2cc(Oc3ccc(S(=O)(=O)N=c4cco[nH]4)cc3C#N)cc(-c3cccc(C#N)c3)c2)cn1

>  <score_type>  (41) 
oracle

>  <origin>  (41) 
adgpu

>  <m_score__min__energy>  (41) 
-12.18

>  <m_primary>  (41) 
energy

$$$$
41:0
     RDKit          3D

 41 44  0  0  0  0  0  0  0  0999 V2000
   -6.0700   13.2790  -34.9820 C   0  0  0  0  0  0  0  0  0  0  0  0
   -5.8630   14.5410  -34.1990 C   0  0  0  0  0  0  0  0  0  0  0  0
   -4.6420   14.7790  -33.5510 C   0  0  0  0  0  0  0  0  0  0  0  0
   -4.4380   15.9690  -32.8490 C   0  0  0  0  0  0  0  0  0  0  0  0
   -5.4380   16.9520  -32.8050 C   0  0  0  0  0  0  0  0  0  0  0  0
   -6.6580   16.7190  -33.4660 C   0  0  0  0  0  0  0  0  0  0  0  0
   -6.8640   15.5230  -34.1640 C   0  0  0  0  0  0  0  0  0  0  0  0
   -7.6840   17.7090  -33.4550 N   0  0  0  0  0  0  0  0  0  0  0  0
   -7.4530   18.9850  -32.8690 C   0  0  0  0  0  0  0  0  0  0  0  0
   -8.3500   19.8670  -32.9400 O   0  0  0  0  0  0  0  0  0  0  0  0
   -6.1860   19.2700  -32.2480 N   0  0  0  0  0  0  0  0  0  0  0  0
   -5.9260   20.5740  -31.6980 C   0  0  0  0  0  0  0  0  0  0  0  0
   -6.9840   21.3590  -31.2160 C   0  0  0  0  0  0  0  0  0  0  0  0
   -6.7370   22.6290  -30.6890 C   0  0  0  0  0  0  0  0  0  0  0  0
   -5.4290   23.1330  -30.6470 C   0  0  0  0  0  0  0  0  0  0  0  0
   -5.1230   24.7300  -29.9730 S   0  0  0  0  0  0  0  0  0  0  0  0
   -4.2620   25.5090  -30.9280 O   0  0  0  0  0  0  0  0  0  0  0  0
   -6.4250   25.4470  -29.7580 O   0  0  0  0  0  0  0  0  0  0  0  0
   -4.3100   24.5600  -28.4500 N   0  0  0  0  0  0  0  0  0  0  0  0
   -3.0230   24.6520  -28.3200 C   0  0  0  0  0  0  0  0  0  0  0  0
   -2.1750   24.8890  -29.3440 N   0  0  0  0  0  0  0  0  0  0  0  0
   -0.8850   24.9340  -28.9170 C   0  0  0  0  0  0  0  0  0  0  0  0
   -0.7080   24.7320  -27.5520 C   0  0  0  0  0  0  0  0  0  0  0  0
   -2.2220   24.4880  -26.8560 S   0  0  0  0  0  0  0  0  0  0  0  0
   -4.3700   22.3500  -31.1260 C   0  0  0  0  0  0  0  0  0  0  0  0
   -4.6180   21.0790  -31.6520 C   0  0  0  0  0  0  0  0  0  0  0  0
   -5.2190   18.1950  -31.9730 C   0  0  0  0  0  0  0  0  0  0  0  0
   -6.2083   12.4360  -34.2890 H   0  0  0  0  0  0  0  0  0  0  0  0
   -6.9631   13.3830  -35.6157 H   0  0  0  0  0  0  0  0  0  0  0  0
   -5.1905   13.0922  -35.6157 H   0  0  0  0  0  0  0  0  0  0  0  0
   -3.8420   14.0254  -33.5959 H   0  0  0  0  0  0  0  0  0  0  0  0
   -3.4850   16.1370  -32.3260 H   0  0  0  0  0  0  0  0  0  0  0  0
   -7.8161   15.3524  -34.6879 H   0  0  0  0  0  0  0  0  0  0  0  0
   -8.0132   20.9726  -31.2532 H   0  0  0  0  0  0  0  0  0  0  0  0
   -7.5709   23.2354  -30.3059 H   0  0  0  0  0  0  0  0  0  0  0  0
   -0.0429   25.1167  -29.6008 H   0  0  0  0  0  0  0  0  0  0  0  0
    0.2545   24.7317  -27.0194 H   0  0  0  0  0  0  0  0  0  0  0  0
   -3.3409   22.7367  -31.0879 H   0  0  0  0  0  0  0  0  0  0  0  0
   -3.7833   20.4716  -32.0318 H   0  0  0  0  0  0  0  0  0  0  0  0
   -4.2080   18.5766  -32.1785 H   0  0  0  0  0  0  0  0  0  0  0  0
   -5.3525   17.9045  -30.9205 H   0  0  0  0  0  0  0  0  0  0  0  0
  1  2  1  0
  2  3  2  0
  3  4  1  0
  4  5  2  0
  5  6  1  0
  6  7  2  0
  6  8  1  0
  8  9  1  0
  9 10  2  0
  9 11  1  0
 11 12  1  0
 12 13  2  0
 13 14  1  0
 14 15  2  0
 15 16  1  0
 16 17  2  0
 16 18  2  0
 16 19  1  0
 19 20  2  3
 20 21  1  0
 21 22  1  0
 22 23  2  0
 23 24  1  0
 15 25  1  0
 25 26  2  0
 11 27  1  0
  7  2  1  0
 26 12  1  0
 27  5  1  0
 24 20  1  0
  1 28  1  0
  1 29  1  0
  1 30  1  0
  3 31  1  0
  4 32  1  0
  7 33  1  0
 13 34  1  0
 14 35  1  0
 22 36  1  0
 23 37  1  0
 25 38  1  0
 26 39  1  0
 27 40  1  0
 27 41  1  0
M  CHG  2   8  -1  21  -1
M  END
>  <UniqueID>  (42) 
40

>  <SMILES>  (42) 
Cc1ccc2c(c1)[N-]C(=O)N(c1ccc(S(=O)(=O)N=c3[n-]ccs3)cc1)C2

>  <Energy>  (42) 
86.1360935117388

>  <Genealogy>  (42) 
Cc1ccc2c(c1)[N-]C(=O)N(c1ccc(S(=O)(=O)N=c3[n-]ccs3)cc1)C2 (protonated)
Cc1ccc2c(c1)[N-]C(=O)N(c1ccc(S(=O)(=O)N=c3[n-]ccs3)cc1)C2 (3D coordinates assigned)
Cc1ccc2c(c1)[N-]C(=O)N(c1ccc(S(=O)(=O)N=c3[n-]ccs3)cc1)C2 (nonaromatic ring conformer: 86.1360935117388 kcal/mol)

>  <smiles>  (42) 
Cc1ccc2c(c1)NC(=O)N(c1ccc(S(=O)(=O)N=c3[nH]ccs3)cc1)C2

>  <score_type>  (42) 
oracle

>  <origin>  (42) 
adgpu

>  <m_score__min__energy>  (42) 
-10.19

>  <m_primary>  (42) 
energy

$$$$
42:0
     RDKit          3D

 47 49  0  0  0  0  0  0  0  0999 V2000
   -3.3180   21.1310  -33.4180 C   0  0  0  0  0  0  0  0  0  0  0  0
   -4.3060   21.1410  -32.2570 C   0  0  0  0  0  0  0  0  0  0  0  0
   -4.3580   22.5030  -31.6160 C   0  0  0  0  0  0  0  0  0  0  0  0
   -5.4560   23.3490  -31.5580 C   0  0  0  0  0  0  0  0  0  0  0  0
   -6.8130   23.1580  -32.1910 C   0  0  0  0  0  0  0  0  0  0  0  0
   -7.8090   22.6720  -31.2220 N   0  0  0  0  0  0  0  0  0  0  0  0
   -8.6550   21.6090  -31.7880 C   0  0  0  0  0  0  0  0  0  0  0  0
   -7.8120   20.4620  -32.2520 C   0  0  0  0  0  0  0  0  0  0  0  0
   -7.6450   19.2620  -31.5900 C   0  0  0  0  0  0  0  0  0  0  0  0
   -6.8730   18.4840  -32.3620 N   0  0  0  0  0  0  0  0  0  0  0  0
   -6.6290   19.1970  -33.4770 C   0  0  0  0  0  0  0  0  0  0  0  0
   -7.1780   20.4300  -33.4460 N   0  0  0  0  0  0  0  0  0  0  0  0
   -5.7610   18.6880  -34.5870 C   0  0  0  0  0  0  0  0  0  0  0  0
   -5.6470   17.1560  -34.5210 C   0  0  0  0  0  0  0  0  0  0  0  0
   -5.3660   16.6750  -33.0880 C   0  0  0  0  0  0  0  0  0  0  0  0
   -6.5020   17.0880  -32.1380 C   0  0  0  0  0  0  0  0  0  0  0  0
   -5.0130   24.4390  -30.8200 C   0  0  0  0  0  0  0  0  0  0  0  0
   -5.7800   25.6850  -30.5140 C   0  0  0  0  0  0  0  0  0  0  0  0
   -3.7270   24.2530  -30.4620 N   0  0  0  0  0  0  0  0  0  0  0  0
   -3.3450   23.0760  -30.9310 N   0  0  0  0  0  0  0  0  0  0  0  0
   -2.0010   22.5410  -30.7450 C   0  0  0  0  0  0  0  0  0  0  0  0
   -2.2906   21.1206  -33.0251 H   0  0  0  0  0  0  0  0  0  0  0  0
   -3.4843   20.2345  -34.0333 H   0  0  0  0  0  0  0  0  0  0  0  0
   -3.4662   22.0307  -34.0333 H   0  0  0  0  0  0  0  0  0  0  0  0
   -5.3066   20.8795  -32.6317 H   0  0  0  0  0  0  0  0  0  0  0  0
   -3.9772   20.4080  -31.5056 H   0  0  0  0  0  0  0  0  0  0  0  0
   -7.1539   24.1213  -32.5981 H   0  0  0  0  0  0  0  0  0  0  0  0
   -6.7147   22.4034  -32.9853 H   0  0  0  0  0  0  0  0  0  0  0  0
   -7.2940   22.2880  -30.3950 H   0  0  0  0  0  0  0  0  0  0  0  0
   -8.4060   23.4660  -30.8950 H   0  0  0  0  0  0  0  0  0  0  0  0
   -9.3561   21.2551  -31.0178 H   0  0  0  0  0  0  0  0  0  0  0  0
   -9.2099   22.0142  -32.6470 H   0  0  0  0  0  0  0  0  0  0  0  0
   -8.0673   18.9939  -30.6103 H   0  0  0  0  0  0  0  0  0  0  0  0
   -6.2013   18.9771  -35.5527 H   0  0  0  0  0  0  0  0  0  0  0  0
   -4.7568   19.1247  -34.4827 H   0  0  0  0  0  0  0  0  0  0  0  0
   -6.5912   16.7117  -34.8689 H   0  0  0  0  0  0  0  0  0  0  0  0
   -4.8090   16.8436  -35.1614 H   0  0  0  0  0  0  0  0  0  0  0  0
   -5.2765   15.5786  -33.0872 H   0  0  0  0  0  0  0  0  0  0  0  0
   -4.4307   17.1371  -32.7392 H   0  0  0  0  0  0  0  0  0  0  0  0
   -7.3772   16.4470  -32.3197 H   0  0  0  0  0  0  0  0  0  0  0  0
   -6.1576   16.9731  -31.0996 H   0  0  0  0  0  0  0  0  0  0  0  0
   -5.8568   25.8098  -29.4238 H   0  0  0  0  0  0  0  0  0  0  0  0
   -5.2589   26.5519  -30.9465 H   0  0  0  0  0  0  0  0  0  0  0  0
   -6.7886   25.6102  -30.9465 H   0  0  0  0  0  0  0  0  0  0  0  0
   -1.7860   22.4554  -29.6696 H   0  0  0  0  0  0  0  0  0  0  0  0
   -1.9338   21.5476  -31.2126 H   0  0  0  0  0  0  0  0  0  0  0  0
   -1.2695   23.2165  -31.2126 H   0  0  0  0  0  0  0  0  0  0  0  0
  1  2  1  0
  2  3  1  0
  3  4  2  0
  4  5  1  0
  5  6  1  0
  6  7  1  0
  7  8  1  0
  8  9  2  0
  9 10  1  0
 10 11  1  0
 11 12  2  0
 11 13  1  0
 13 14  1  0
 14 15  1  0
 15 16  1  0
  4 17  1  0
 17 18  1  0
 17 19  2  0
 19 20  1  0
 20 21  1  0
 20  3  1  0
 12  8  1  0
 16 10  1  0
  1 22  1  0
  1 23  1  0
  1 24  1  0
  2 25  1  0
  2 26  1  0
  5 27  1  0
  5 28  1  0
  6 29  1  0
  6 30  1  0
  7 31  1  0
  7 32  1  0
  9 33  1  0
 13 34  1  0
 13 35  1  0
 14 36  1  0
 14 37  1  0
 15 38  1  0
 15 39  1  0
 16 40  1  0
 16 41  1  0
 18 42  1  0
 18 43  1  0
 18 44  1  0
 21 45  1  0
 21 46  1  0
 21 47  1  0
M  CHG  1   6   1
M  END
>  <UniqueID>  (43) 
41

>  <SMILES>  (43) 
CCc1c(C[NH2+]Cc2cn3c(n2)CCCC3)c(C)nn1C

>  <Energy>  (43) 
96.95898123600615

>  <Genealogy>  (43) 
CCc1c(C[NH2+]Cc2cn3c(n2)CCCC3)c(C)nn1C (protonated)
CCc1c(C[NH2+]Cc2cn3c(n2)CCCC3)c(C)nn1C (3D coordinates assigned)
CCc1c(C[NH2+]Cc2cn3c(n2)CCCC3)c(C)nn1C (nonaromatic ring conformer: 96.95898123600615 kcal/mol)

>  <smiles>  (43) 
CCc1c(CNCc2cn3c(n2)CCCC3)c(C)nn1C

>  <score_type>  (43) 
oracle

>  <origin>  (43) 
adgpu

>  <m_score__min__energy>  (43) 
-7.1500000000000004

>  <m_primary>  (43) 
energy

$$$$
43:0
     RDKit          3D

 52 55  0  0  0  0  0  0  0  0999 V2000
   -5.6870   16.2820  -31.4250 C   0  0  0  0  0  0  0  0  0  0  0  0
   -5.6980   16.2580  -32.8980 N   0  0  0  0  0  0  0  0  0  0  0  0
   -6.8410   17.0290  -33.4550 C   0  0  0  0  0  0  0  0  0  0  0  0
   -6.4340   18.3330  -34.1650 C   0  0  0  0  0  0  0  0  0  0  0  0
   -5.2960   18.9590  -33.4790 N   0  0  0  0  0  0  0  0  0  0  0  0
   -5.3440   20.3480  -33.0740 C   0  0  0  0  0  0  0  0  0  0  0  0
   -6.5250   20.9260  -32.5740 C   0  0  0  0  0  0  0  0  0  0  0  0
   -6.5340   22.2710  -32.2010 C   0  0  0  0  0  0  0  0  0  0  0  0
   -5.3650   23.0390  -32.3110 C   0  0  0  0  0  0  0  0  0  0  0  0
   -5.3300   24.4310  -31.9670 N   0  0  0  0  0  0  0  0  0  0  0  0
   -5.1570   24.9700  -30.6520 C   0  0  0  0  0  0  0  0  0  0  0  0
   -6.1710   25.1610  -29.9320 O   0  0  0  0  0  0  0  0  0  0  0  0
   -3.8500   25.3000  -30.1640 N   0  0  0  0  0  0  0  0  0  0  0  0
   -3.1090   24.5480  -29.1950 C   0  0  0  0  0  0  0  0  0  0  0  0
   -3.6480   23.3450  -28.7340 C   0  0  0  0  0  0  0  0  0  0  0  0
   -2.9540   22.5670  -27.8100 C   0  0  0  0  0  0  0  0  0  0  0  0
   -1.7050   22.9780  -27.3340 C   0  0  0  0  0  0  0  0  0  0  0  0
   -0.8770   21.9140  -26.2010 Cl  0  0  0  0  0  0  0  0  0  0  0  0
   -1.1350   24.1870  -27.7920 C   0  0  0  0  0  0  0  0  0  0  0  0
    0.4620   24.7080  -27.2150 S   0  0  0  0  0  0  0  0  0  0  0  0
    1.4780   24.5390  -28.3100 O   0  0  0  0  0  0  0  0  0  0  0  0
    0.9030   23.8710  -26.0460 O   0  0  0  0  0  0  0  0  0  0  0  0
    0.3620   26.4390  -26.7620 C   0  0  0  0  0  0  0  0  0  0  0  0
    0.1770   26.7180  -25.2800 C   0  0  0  0  0  0  0  0  0  0  0  0
   -0.9960   26.8710  -26.2350 C   0  0  0  0  0  0  0  0  0  0  0  0
   -1.8300   24.9490  -28.7580 C   0  0  0  0  0  0  0  0  0  0  0  0
   -1.2380   26.0760  -29.3180 O   0  0  0  0  0  0  0  0  0  0  0  0
   -4.2180   22.4380  -32.8350 C   0  0  0  0  0  0  0  0  0  0  0  0
   -4.2320   21.1270  -33.1910 N   0  0  0  0  0  0  0  0  0  0  0  0
   -4.0960   18.1430  -33.2450 C   0  0  0  0  0  0  0  0  0  0  0  0
   -4.3890   16.6500  -33.4630 C   0  0  0  0  0  0  0  0  0  0  0  0
   -6.1163   15.3453  -31.0398 H   0  0  0  0  0  0  0  0  0  0  0  0
   -4.6518   16.3851  -31.0677 H   0  0  0  0  0  0  0  0  0  0  0  0
   -6.2847   17.1335  -31.0677 H   0  0  0  0  0  0  0  0  0  0  0  0
   -7.3674   16.3908  -34.1800 H   0  0  0  0  0  0  0  0  0  0  0  0
   -7.4746   17.3165  -32.6030 H   0  0  0  0  0  0  0  0  0  0  0  0
   -6.1506   18.1064  -35.2034 H   0  0  0  0  0  0  0  0  0  0  0  0
   -7.2861   19.0284  -34.1475 H   0  0  0  0  0  0  0  0  0  0  0  0
   -7.4381   20.3202  -32.4773 H   0  0  0  0  0  0  0  0  0  0  0  0
   -7.4587   22.7294  -31.8204 H   0  0  0  0  0  0  0  0  0  0  0  0
   -4.6282   23.0091  -29.1034 H   0  0  0  0  0  0  0  0  0  0  0  0
   -3.3914   21.6231  -27.4525 H   0  0  0  0  0  0  0  0  0  0  0  0
    1.0562   26.7992  -27.5356 H   0  0  0  0  0  0  0  0  0  0  0  0
    0.1938   25.8884  -24.5578 H   0  0  0  0  0  0  0  0  0  0  0  0
    0.6705   27.3691  -24.5434 H   0  0  0  0  0  0  0  0  0  0  0  0
   -1.8280   26.1521  -26.2039 H   0  0  0  0  0  0  0  0  0  0  0  0
   -1.7029   27.6786  -26.4758 H   0  0  0  0  0  0  0  0  0  0  0  0
   -3.2988   23.0292  -32.9600 H   0  0  0  0  0  0  0  0  0  0  0  0
   -3.3055   18.4591  -33.9415 H   0  0  0  0  0  0  0  0  0  0  0  0
   -3.7743   18.2867  -32.2029 H   0  0  0  0  0  0  0  0  0  0  0  0
   -4.3909   16.4417  -34.5431 H   0  0  0  0  0  0  0  0  0  0  0  0
   -3.6080   16.0702  -32.9493 H   0  0  0  0  0  0  0  0  0  0  0  0
  1  2  1  0
  2  3  1  0
  3  4  1  0
  4  5  1  0
  5  6  1  0
  6  7  2  0
  7  8  1  0
  8  9  2  0
  9 10  1  0
 10 11  1  0
 11 12  2  0
 11 13  1  0
 13 14  1  0
 14 15  2  0
 15 16  1  0
 16 17  2  0
 17 18  1  0
 17 19  1  0
 19 20  1  0
 20 21  2  0
 20 22  2  0
 20 23  1  0
 23 24  1  0
 24 25  1  0
 19 26  2  0
 26 27  1  0
  9 28  1  0
 28 29  2  0
  5 30  1  0
 30 31  1  0
 31  2  1  0
 29  6  1  0
 26 14  1  0
 25 23  1  0
  1 32  1  0
  1 33  1  0
  1 34  1  0
  3 35  1  0
  3 36  1  0
  4 37  1  0
  4 38  1  0
  7 39  1  0
  8 40  1  0
 15 41  1  0
 16 42  1  0
 23 43  1  0
 24 44  1  0
 24 45  1  0
 25 46  1  0
 25 47  1  0
 28 48  1  0
 30 49  1  0
 30 50  1  0
 31 51  1  0
 31 52  1  0
M  CHG  3  10  -1  13  -1  27  -1
M  END
>  <UniqueID>  (44) 
42

>  <SMILES>  (44) 
CN1CCN(c2ccc([N-]C(=O)[N-]c3ccc(Cl)c(S(=O)(=O)C4CC4)c3[O-])cn2)CC1

>  <Energy>  (44) 
339.92386974137156

>  <Genealogy>  (44) 
CN1CCN(c2ccc([N-]C(=O)[N-]c3ccc(Cl)c(S(=O)(=O)C4CC4)c3[O-])cn2)CC1 (protonated)
CN1CCN(c2ccc([N-]C(=O)[N-]c3ccc(Cl)c(S(=O)(=O)C4CC4)c3[O-])cn2)CC1 (3D coordinates assigned)
CN1CCN(c2ccc([N-]C(=O)[N-]c3ccc(Cl)c(S(=O)(=O)C4CC4)c3[O-])cn2)CC1 (nonaromatic ring conformer: 339.92386974137156 kcal/mol)

>  <smiles>  (44) 
CN1CCN(c2ccc(NC(=O)Nc3ccc(Cl)c(S(=O)(=O)C4CC4)c3O)cn2)CC1

>  <score_type>  (44) 
oracle

>  <origin>  (44) 
adgpu

>  <m_score__min__energy>  (44) 
-15.57

>  <m_primary>  (44) 
energy

$$$$
44:0
     RDKit          3D

 30 31  0  0  0  0  0  0  0  0999 V2000
   -6.6850   16.7720  -33.1610 C   0  0  0  0  0  0  0  0  0  0  0  0
   -7.0960   18.1340  -32.7980 N   0  0  0  0  0  0  0  0  0  0  0  0
   -8.3650   18.3530  -32.3390 C   0  0  0  0  0  0  0  0  0  0  0  0
   -8.7820   19.6350  -31.9840 C   0  0  0  0  0  0  0  0  0  0  0  0
   -7.8990   20.7080  -32.1000 C   0  0  0  0  0  0  0  0  0  0  0  0
   -8.4710   22.3590  -31.6550 S   0  0  0  0  0  0  0  0  0  0  0  0
   -7.6740   22.3750  -30.0080 C   0  0  0  0  0  0  0  0  0  0  0  0
   -6.4670   23.2720  -30.0010 C   0  0  0  0  0  0  0  0  0  0  0  0
   -6.5380   24.5670  -30.5400 C   0  0  0  0  0  0  0  0  0  0  0  0
   -5.4010   25.3810  -30.5700 C   0  0  0  0  0  0  0  0  0  0  0  0
   -4.1890   24.9090  -30.0600 C   0  0  0  0  0  0  0  0  0  0  0  0
   -4.1100   23.6220  -29.5200 C   0  0  0  0  0  0  0  0  0  0  0  0
   -5.2440   22.8030  -29.4930 C   0  0  0  0  0  0  0  0  0  0  0  0
   -6.5870   20.4770  -32.5470 C   0  0  0  0  0  0  0  0  0  0  0  0
   -5.6380   21.5630  -32.6420 C   0  0  0  0  0  0  0  0  0  0  0  0
   -4.8780   22.4330  -32.7200 N   0  0  0  0  0  0  0  0  0  0  0  0
   -6.2020   19.1700  -32.8990 C   0  0  0  0  0  0  0  0  0  0  0  0
   -5.0260   18.9540  -33.3070 O   0  0  0  0  0  0  0  0  0  0  0  0
   -6.5083   16.1864  -32.2468 H   0  0  0  0  0  0  0  0  0  0  0  0
   -7.4792   16.2951  -33.7541 H   0  0  0  0  0  0  0  0  0  0  0  0
   -5.7595   16.8141  -33.7541 H   0  0  0  0  0  0  0  0  0  0  0  0
   -9.0644   17.5088  -32.2489 H   0  0  0  0  0  0  0  0  0  0  0  0
   -9.8045   19.7996  -31.6135 H   0  0  0  0  0  0  0  0  0  0  0  0
   -8.3965   22.7386  -29.2625 H   0  0  0  0  0  0  0  0  0  0  0  0
   -7.3511   21.3518  -29.7654 H   0  0  0  0  0  0  0  0  0  0  0  0
   -7.4914   24.9425  -30.9401 H   0  0  0  0  0  0  0  0  0  0  0  0
   -5.4611   26.3936  -30.9955 H   0  0  0  0  0  0  0  0  0  0  0  0
   -3.2959   25.5508  -30.0834 H   0  0  0  0  0  0  0  0  0  0  0  0
   -3.1557   23.2530  -29.1161 H   0  0  0  0  0  0  0  0  0  0  0  0
   -5.1778   21.7886  -29.0727 H   0  0  0  0  0  0  0  0  0  0  0  0
  1  2  1  0
  2  3  1  0
  3  4  2  0
  4  5  1  0
  5  6  1  0
  6  7  1  0
  7  8  1  0
  8  9  2  0
  9 10  1  0
 10 11  2  0
 11 12  1  0
 12 13  2  0
  5 14  2  0
 14 15  1  0
 15 16  3  0
 14 17  1  0
 17 18  2  0
 17  2  1  0
 13  8  1  0
  1 19  1  0
  1 20  1  0
  1 21  1  0
  3 22  1  0
  4 23  1  0
  7 24  1  0
  7 25  1  0
  9 26  1  0
 10 27  1  0
 11 28  1  0
 12 29  1  0
 13 30  1  0
M  END
>  <UniqueID>  (45) 
43

>  <SMILES>  (45) 
Cn1ccc(SCc2ccccc2)c(C#N)c1=O

>  <Energy>  (45) 
27.76519134792111

>  <Genealogy>  (45) 
Cn1ccc(SCc2ccccc2)c(C#N)c1=O (3D coordinates assigned)
Cn1ccc(SCc2ccccc2)c(C#N)c1=O (optimized conformer: 27.76519134792111 kcal/mol)

>  <smiles>  (45) 
Cn1ccc(SCc2ccccc2)c(C#N)c1=O

>  <score_type>  (45) 
oracle

>  <origin>  (45) 
adgpu

>  <m_score__min__energy>  (45) 
-7.2000000000000002

>  <m_primary>  (45) 
energy

$$$$
45:0
     RDKit          3D

 54 57  0  0  0  0  0  0  0  0999 V2000
   -4.9923   23.9957  -28.5218 H   0  0  0  0  0  0  0  0  0  0  0  0
   -4.2630   23.7710  -29.3140 C   0  0  0  0  0  0  0  0  0  0  0  0
   -3.5340   24.9120  -29.8990 C   0  0  0  0  0  0  0  0  0  0  0  0
   -4.0160   25.5800  -30.8530 O   0  0  0  0  0  0  0  0  0  0  0  0
   -2.3220   25.2990  -29.3410 O   0  0  0  0  0  0  0  0  0  0  0  0
   -4.1160   22.4830  -29.6620 C   0  0  0  0  0  0  0  0  0  0  0  0
   -4.8394   21.7662  -29.2461 H   0  0  0  0  0  0  0  0  0  0  0  0
   -3.0680   21.9410  -30.5550 C   0  0  0  0  0  0  0  0  0  0  0  0
   -1.8710   21.4100  -30.0420 C   0  0  0  0  0  0  0  0  0  0  0  0
   -1.6765   21.4441  -28.9599 H   0  0  0  0  0  0  0  0  0  0  0  0
   -0.9270   20.8390  -30.9010 C   0  0  0  0  0  0  0  0  0  0  0  0
    0.0135   20.4401  -30.4930 H   0  0  0  0  0  0  0  0  0  0  0  0
   -1.1740   20.7720  -32.2850 C   0  0  0  0  0  0  0  0  0  0  0  0
   -0.2490   20.1530  -33.1880 N   0  0  0  0  0  0  0  0  0  0  0  0
   -0.5480   19.0970  -34.1100 C   0  0  0  0  0  0  0  0  0  0  0  0
   -0.5900   19.3410  -35.3450 O   0  0  0  0  0  0  0  0  0  0  0  0
   -0.8440   17.7320  -33.6010 C   0  0  0  0  0  0  0  0  0  0  0  0
    0.2000   16.9730  -33.0340 C   0  0  0  0  0  0  0  0  0  0  0  0
    1.2104   17.4028  -32.9679 H   0  0  0  0  0  0  0  0  0  0  0  0
   -0.0330   15.6840  -32.5560 C   0  0  0  0  0  0  0  0  0  0  0  0
    0.7909   15.1065  -32.1114 H   0  0  0  0  0  0  0  0  0  0  0  0
   -1.3060   15.1260  -32.6400 C   0  0  0  0  0  0  0  0  0  0  0  0
   -1.4839   14.1054  -32.2702 H   0  0  0  0  0  0  0  0  0  0  0  0
   -2.3550   15.8590  -33.1920 C   0  0  0  0  0  0  0  0  0  0  0  0
   -3.3554   15.4077  -33.2664 H   0  0  0  0  0  0  0  0  0  0  0  0
   -2.1460   17.1710  -33.6550 C   0  0  0  0  0  0  0  0  0  0  0  0
   -3.2380   17.9280  -34.2010 N   0  0  0  0  0  0  0  0  0  0  0  0
   -4.6210   17.5420  -34.2120 C   0  0  0  0  0  0  0  0  0  0  0  0
   -4.9360   16.4480  -34.7530 O   0  0  0  0  0  0  0  0  0  0  0  0
   -5.6860   18.4140  -33.6640 C   0  0  0  0  0  0  0  0  0  0  0  0
   -5.5340   19.8110  -33.6370 C   0  0  0  0  0  0  0  0  0  0  0  0
   -4.6168   20.2686  -34.0362 H   0  0  0  0  0  0  0  0  0  0  0  0
   -6.5410   20.6230  -33.1060 C   0  0  0  0  0  0  0  0  0  0  0  0
   -6.3970   21.7125  -33.0596 H   0  0  0  0  0  0  0  0  0  0  0  0
   -7.7290   20.0590  -32.6340 C   0  0  0  0  0  0  0  0  0  0  0  0
   -8.7200   20.9170  -32.0560 N   0  0  0  0  0  0  0  0  0  0  0  0
   -8.4770   22.0580  -31.2230 C   0  0  0  0  0  0  0  0  0  0  0  0
   -8.6250   21.9340  -29.9780 O   0  0  0  0  0  0  0  0  0  0  0  0
   -7.9730   23.3540  -31.8080 C   0  0  0  0  0  0  0  0  0  0  0  0
   -8.8484   23.5151  -32.4543 H   0  0  0  0  0  0  0  0  0  0  0  0
   -6.4670   23.4850  -32.0100 C   0  0  0  0  0  0  0  0  0  0  0  0
   -5.8097   22.6235  -31.8206 H   0  0  0  0  0  0  0  0  0  0  0  0
   -5.8181   23.7974  -32.8414 H   0  0  0  0  0  0  0  0  0  0  0  0
   -7.1420   24.1950  -30.8490 C   0  0  0  0  0  0  0  0  0  0  0  0
   -6.9725   23.8477  -29.8191 H   0  0  0  0  0  0  0  0  0  0  0  0
   -7.1829   25.2348  -30.4924 H   0  0  0  0  0  0  0  0  0  0  0  0
   -7.8910   18.6630  -32.6680 C   0  0  0  0  0  0  0  0  0  0  0  0
   -8.8162   18.2094  -32.2831 H   0  0  0  0  0  0  0  0  0  0  0  0
   -6.8810   17.8490  -33.1890 C   0  0  0  0  0  0  0  0  0  0  0  0
   -7.0230   16.7589  -33.2272 H   0  0  0  0  0  0  0  0  0  0  0  0
   -2.3900   21.2510  -32.7860 C   0  0  0  0  0  0  0  0  0  0  0  0
   -2.6069   21.1705  -33.8614 H   0  0  0  0  0  0  0  0  0  0  0  0
   -3.3310   21.8310  -31.9300 C   0  0  0  0  0  0  0  0  0  0  0  0
   -4.2831   22.2034  -32.3360 H   0  0  0  0  0  0  0  0  0  0  0  0
  1  2  1  0
  2  3  1  0
  3  4  2  0
  3  5  1  0
  2  6  2  0
  6  7  1  0
  6  8  1  0
  8  9  2  0
  9 10  1  0
  9 11  1  0
 11 12  1  0
 11 13  2  0
 13 14  1  0
 14 15  1  0
 15 16  2  0
 15 17  1  0
 17 18  2  0
 18 19  1  0
 18 20  1  0
 20 21  1  0
 20 22  2  0
 22 23  1  0
 22 24  1  0
 24 25  1  0
 24 26  2  0
 26 27  1  0
 27 28  1  0
 28 29  2  0
 28 30  1  0
 30 31  2  0
 31 32  1  0
 31 33  1  0
 33 34  1  0
 33 35  2  0
 35 36  1  0
 36 37  1  0
 37 38  2  0
 37 39  1  0
 39 40  1  0
 39 41  1  0
 41 42  1  0
 41 43  1  0
 41 44  1  0
 44 45  1  0
 44 46  1  0
 35 47  1  0
 47 48  1  0
 47 49  2  0
 49 50  1  0
 13 51  1  0
 51 52  1  0
 51 53  2  0
 53 54  1  0
 53  8  1  0
 26 17  1  0
 49 30  1  0
 44 39  1  0
M  CHG  4   5  -1  14  -1  27  -1  36  -1
M  END
>  <UniqueID>  (46) 
44

>  <SMILES>  (46) 
O=C([O-])/C=C\c1ccc([N-]C(=O)c2ccccc2[N-]C(=O)c2ccc([N-]C(=O)C3CC3)cc2)cc1

>  <Energy>  (46) 
348.0525200765847

>  <Genealogy>  (46) 
O=C([O-])C=Cc1ccc([N-]C(=O)c2ccccc2[N-]C(=O)c2ccc([N-]C(=O)C3CC3)cc2)cc1 (protonated)
O=C([O-])/C=C\c1ccc([N-]C(=O)c2ccccc2[N-]C(=O)c2ccc([N-]C(=O)C3CC3)cc2)cc1 (cis-trans isomerization)
O=C([O-])/C=C\c1ccc([N-]C(=O)c2ccccc2[N-]C(=O)c2ccc([N-]C(=O)C3CC3)cc2)cc1 (3D coordinates assigned)
O=C([O-])/C=C\c1ccc([N-]C(=O)c2ccccc2[N-]C(=O)c2ccc([N-]C(=O)C3CC3)cc2)cc1 (nonaromatic ring conformer: 348.0525200765847 kcal/mol)

>  <smiles>  (46) 
O=C(O)C=Cc1ccc(NC(=O)c2ccccc2NC(=O)c2ccc(NC(=O)C3CC3)cc2)cc1

>  <score_type>  (46) 
oracle

>  <origin>  (46) 
adgpu

>  <m_score__min__energy>  (46) 
-13.31

>  <m_primary>  (46) 
energy

$$$$
46:0
     RDKit          3D

 28 30  0  0  0  0  0  0  0  0999 V2000
   -7.0660   20.9580  -32.2150 C   0  0  0  0  0  0  0  0  0  0  0  0
   -6.1840   22.0770  -31.7330 C   0  0  0  0  0  0  0  0  0  0  0  0
   -5.0460   21.7690  -30.9510 C   0  0  0  0  0  0  0  0  0  0  0  0
   -4.2440   22.8180  -30.5170 C   0  0  0  0  0  0  0  0  0  0  0  0
   -3.1320   22.7450  -29.7730 N   0  0  0  0  0  0  0  0  0  0  0  0
   -2.7680   24.0510  -29.6510 C   0  0  0  0  0  0  0  0  0  0  0  0
   -1.5710   24.4850  -28.8980 C   0  0  0  0  0  0  0  0  0  0  0  0
   -1.5720   25.7000  -28.1920 C   0  0  0  0  0  0  0  0  0  0  0  0
   -0.4300   26.0920  -27.4880 C   0  0  0  0  0  0  0  0  0  0  0  0
    0.6750   25.3010  -27.4860 N   0  0  0  0  0  0  0  0  0  0  0  0
    0.7070   24.1210  -28.1590 C   0  0  0  0  0  0  0  0  0  0  0  0
   -0.4120   23.6910  -28.8760 C   0  0  0  0  0  0  0  0  0  0  0  0
   -3.6000   24.9220  -30.2840 N   0  0  0  0  0  0  0  0  0  0  0  0
   -4.5220   24.1110  -30.8210 C   0  0  0  0  0  0  0  0  0  0  0  0
   -5.6260   24.4680  -31.5860 C   0  0  0  0  0  0  0  0  0  0  0  0
   -6.4750   23.4400  -32.0540 C   0  0  0  0  0  0  0  0  0  0  0  0
   -7.6180   23.7940  -32.8450 N   0  0  0  0  0  0  0  0  0  0  0  0
   -7.4867   20.4242  -31.3501 H   0  0  0  0  0  0  0  0  0  0  0  0
   -7.8835   21.3717  -32.8237 H   0  0  0  0  0  0  0  0  0  0  0  0
   -6.4728   20.2597  -32.8237 H   0  0  0  0  0  0  0  0  0  0  0  0
   -4.8025   20.7277  -30.6934 H   0  0  0  0  0  0  0  0  0  0  0  0
   -2.4671   26.3394  -28.1934 H   0  0  0  0  0  0  0  0  0  0  0  0
   -0.4257   27.0426  -26.9345 H   0  0  0  0  0  0  0  0  0  0  0  0
    1.6166   23.5027  -28.1391 H   0  0  0  0  0  0  0  0  0  0  0  0
   -0.3860   22.7356  -29.4206 H   0  0  0  0  0  0  0  0  0  0  0  0
   -5.8333   25.5225  -31.8208 H   0  0  0  0  0  0  0  0  0  0  0  0
   -7.5560   23.8090  -33.8880 H   0  0  0  0  0  0  0  0  0  0  0  0
   -8.5340   24.0460  -32.4160 H   0  0  0  0  0  0  0  0  0  0  0  0
  1  2  1  0
  2  3  2  0
  3  4  1  0
  4  5  1  0
  5  6  1  0
  6  7  1  0
  7  8  2  0
  8  9  1  0
  9 10  2  0
 10 11  1  0
 11 12  2  0
  6 13  2  0
 13 14  1  0
 14 15  1  0
 15 16  2  0
 16 17  1  0
 16  2  1  0
 14  4  2  0
 12  7  1  0
  1 18  1  0
  1 19  1  0
  1 20  1  0
  3 21  1  0
  8 22  1  0
  9 23  1  0
 11 24  1  0
 12 25  1  0
 15 26  1  0
 17 27  1  0
 17 28  1  0
M  CHG  1   5  -1
M  END
>  <UniqueID>  (47) 
45

>  <SMILES>  (47) 
Cc1cc2[n-]c(-c3ccncc3)nc2cc1N

>  <Energy>  (47) 
66.6967486434644

>  <Genealogy>  (47) 
Cc1cc2[n-]c(-c3ccncc3)nc2cc1N (protonated)
Cc1cc2[n-]c(-c3ccncc3)nc2cc1N (3D coordinates assigned)
Cc1cc2[n-]c(-c3ccncc3)nc2cc1N (optimized conformer: 66.6967486434644 kcal/mol)

>  <smiles>  (47) 
Cc1cc2[nH]c(-c3ccncc3)nc2cc1N

>  <score_type>  (47) 
oracle

>  <origin>  (47) 
adgpu

>  <m_score__min__energy>  (47) 
-7.3899999999999997

>  <m_primary>  (47) 
energy

$$$$
47:0
     RDKit          3D

 42 44  0  0  0  0  0  0  0  0999 V2000
   -1.9580   25.2980  -29.3500 N   0  0  0  0  0  0  0  0  0  0  0  0
   -2.9160   23.8760  -29.5970 S   0  0  0  0  0  0  0  0  0  0  0  0
   -3.1040   23.6470  -31.0730 O   0  0  0  0  0  0  0  0  0  0  0  0
   -4.2560   24.0960  -28.9530 O   0  0  0  0  0  0  0  0  0  0  0  0
   -2.1290   22.4650  -28.8740 C   0  0  0  0  0  0  0  0  0  0  0  0
   -2.4760   22.0760  -27.5700 C   0  0  0  0  0  0  0  0  0  0  0  0
   -1.8880   20.9550  -26.9830 C   0  0  0  0  0  0  0  0  0  0  0  0
   -0.9520   20.2080  -27.6970 C   0  0  0  0  0  0  0  0  0  0  0  0
   -0.5810   20.5950  -28.9860 C   0  0  0  0  0  0  0  0  0  0  0  0
   -1.1640   21.7260  -29.5890 C   0  0  0  0  0  0  0  0  0  0  0  0
   -0.7790   22.1510  -30.9050 N   0  0  0  0  0  0  0  0  0  0  0  0
   -0.6260   21.1080  -32.2800 S   0  0  0  0  0  0  0  0  0  0  0  0
   -0.1900   21.9200  -33.4690 O   0  0  0  0  0  0  0  0  0  0  0  0
    0.4130   20.0610  -32.0000 O   0  0  0  0  0  0  0  0  0  0  0  0
   -2.1570   20.3290  -32.6190 C   0  0  0  0  0  0  0  0  0  0  0  0
   -2.3450   19.2460  -33.4610 C   0  0  0  0  0  0  0  0  0  0  0  0
   -3.6720   18.7960  -33.4900 C   0  0  0  0  0  0  0  0  0  0  0  0
   -4.5300   19.5280  -32.6660 C   0  0  0  0  0  0  0  0  0  0  0  0
   -5.9820   19.2830  -32.4640 C   0  0  0  0  0  0  0  0  0  0  0  0
   -6.5100   17.9810  -32.5510 C   0  0  0  0  0  0  0  0  0  0  0  0
   -7.8720   17.7540  -32.3460 C   0  0  0  0  0  0  0  0  0  0  0  0
   -8.7250   18.8200  -32.0560 C   0  0  0  0  0  0  0  0  0  0  0  0
   -8.2190   20.1230  -31.9730 C   0  0  0  0  0  0  0  0  0  0  0  0
   -9.3140   21.4600  -31.6380 S   0  0  0  0  0  0  0  0  0  0  0  0
   -8.6290   22.9300  -32.2370 N   0  0  0  0  0  0  0  0  0  0  0  0
   -9.5350   21.5870  -30.1590 O   0  0  0  0  0  0  0  0  0  0  0  0
  -10.6380   21.2100  -32.3080 O   0  0  0  0  0  0  0  0  0  0  0  0
   -6.8530   20.3520  -32.1820 C   0  0  0  0  0  0  0  0  0  0  0  0
   -3.6230   20.7280  -31.8980 S   0  0  0  0  0  0  0  0  0  0  0  0
   -2.5850   26.0330  -28.9500 H   0  0  0  0  0  0  0  0  0  0  0  0
   -3.2181   22.6603  -27.0062 H   0  0  0  0  0  0  0  0  0  0  0  0
   -2.1623   20.6612  -25.9591 H   0  0  0  0  0  0  0  0  0  0  0  0
   -0.5046   19.3113  -27.2434 H   0  0  0  0  0  0  0  0  0  0  0  0
    0.1729   20.0117  -29.5350 H   0  0  0  0  0  0  0  0  0  0  0  0
   -1.5358   18.7860  -34.0471 H   0  0  0  0  0  0  0  0  0  0  0  0
   -4.0063   17.9465  -34.1037 H   0  0  0  0  0  0  0  0  0  0  0  0
   -5.8444   17.1363  -32.7822 H   0  0  0  0  0  0  0  0  0  0  0  0
   -8.2741   16.7323  -32.4132 H   0  0  0  0  0  0  0  0  0  0  0  0
   -9.7971   18.6361  -31.8923 H   0  0  0  0  0  0  0  0  0  0  0  0
   -8.5230   23.5670  -31.4140 H   0  0  0  0  0  0  0  0  0  0  0  0
   -7.6660   22.7050  -32.5650 H   0  0  0  0  0  0  0  0  0  0  0  0
   -6.4573   21.3768  -32.1252 H   0  0  0  0  0  0  0  0  0  0  0  0
  1  2  1  0
  2  3  2  0
  2  4  2  0
  2  5  1  0
  5  6  2  0
  6  7  1  0
  7  8  2  0
  8  9  1  0
  9 10  2  0
 10 11  1  0
 11 12  1  0
 12 13  2  0
 12 14  2  0
 12 15  1  0
 15 16  2  0
 16 17  1  0
 17 18  2  0
 18 19  1  0
 19 20  2  0
 20 21  1  0
 21 22  2  0
 22 23  1  0
 23 24  1  0
 24 25  1  0
 24 26  2  0
 24 27  2  0
 23 28  2  0
 18 29  1  0
 10  5  1  0
 29 15  1  0
 28 19  1  0
  1 30  1  0
  6 31  1  0
  7 32  1  0
  8 33  1  0
  9 34  1  0
 16 35  1  0
 17 36  1  0
 20 37  1  0
 21 38  1  0
 22 39  1  0
 25 40  1  0
 25 41  1  0
 28 42  1  0
M  CHG  2   1  -1  11  -1
M  END
>  <UniqueID>  (48) 
46

>  <SMILES>  (48) 
[NH-]S(=O)(=O)c1ccccc1[N-]S(=O)(=O)c1ccc(-c2cccc(S(N)(=O)=O)c2)s1

>  <Energy>  (48) 
76.9769200119118

>  <Genealogy>  (48) 
[NH-]S(=O)(=O)c1ccccc1[N-]S(=O)(=O)c1ccc(-c2cccc(S(N)(=O)=O)c2)s1 (protonated)
[NH-]S(=O)(=O)c1ccccc1[N-]S(=O)(=O)c1ccc(-c2cccc(S(N)(=O)=O)c2)s1 (3D coordinates assigned)
[NH-]S(=O)(=O)c1ccccc1[N-]S(=O)(=O)c1ccc(-c2cccc(S(N)(=O)=O)c2)s1 (optimized conformer: 76.9769200119118 kcal/mol)

>  <smiles>  (48) 
NS(=O)(=O)c1cccc(-c2ccc(S(=O)(=O)Nc3ccccc3S(N)(=O)=O)s2)c1

>  <score_type>  (48) 
oracle

>  <origin>  (48) 
adgpu

>  <m_score__min__energy>  (48) 
-14.08

>  <m_primary>  (48) 
energy

$$$$
