0:0
     RDKit          3D

 59 62  0  0  0  0  0  0  0  0999 V2000
   -9.4470   20.5830  -32.0580 C   0  0  0  0  0  0  0  0  0  0  0  0
   -8.1490   20.9070  -32.5470 O   0  0  0  0  0  0  0  0  0  0  0  0
   -7.3580   21.9690  -32.0800 C   0  0  0  0  0  0  0  0  0  0  0  0
   -7.9430   23.1430  -31.5670 C   0  0  0  0  0  0  0  0  0  0  0  0
   -7.1500   24.1930  -31.1060 C   0  0  0  0  0  0  0  0  0  0  0  0
   -5.7510   24.0830  -31.1170 C   0  0  0  0  0  0  0  0  0  0  0  0
   -4.9050   25.2130  -30.6630 C   0  0  0  0  0  0  0  0  0  0  0  0
   -5.4140   26.3550  -30.4960 O   0  0  0  0  0  0  0  0  0  0  0  0
   -3.5040   25.0130  -30.4360 N   0  0  0  0  0  0  0  0  0  0  0  0
   -2.9120   24.2760  -29.3560 C   0  0  0  0  0  0  0  0  0  0  0  0
   -3.7280   23.4320  -28.5940 C   0  0  0  0  0  0  0  0  0  0  0  0
   -3.2010   22.7340  -27.5030 C   0  0  0  0  0  0  0  0  0  0  0  0
   -1.8580   22.8920  -27.1530 C   0  0  0  0  0  0  0  0  0  0  0  0
   -1.0350   23.7540  -27.8910 C   0  0  0  0  0  0  0  0  0  0  0  0
    0.6480   23.9990  -27.4170 S   0  0  0  0  0  0  0  0  0  0  0  0
    1.4160   24.5470  -28.5890 O   0  0  0  0  0  0  0  0  0  0  0  0
    1.2540   22.6730  -27.0440 O   0  0  0  0  0  0  0  0  0  0  0  0
    0.7960   25.1000  -26.0610 N   0  0  0  0  0  0  0  0  0  0  0  0
    0.5790   24.4050  -24.7870 C   0  0  0  0  0  0  0  0  0  0  0  0
   -0.8630   24.6350  -24.3550 C   0  0  0  0  0  0  0  0  0  0  0  0
   -1.3700   25.7840  -25.2060 C   0  0  0  0  0  0  0  0  0  0  0  0
   -0.2150   26.1620  -26.1250 C   0  0  0  0  0  0  0  0  0  0  0  0
   -1.5630   24.4400  -28.9950 C   0  0  0  0  0  0  0  0  0  0  0  0
   -5.1660   22.9030  -31.6020 C   0  0  0  0  0  0  0  0  0  0  0  0
   -5.9510   21.8600  -32.1200 C   0  0  0  0  0  0  0  0  0  0  0  0
   -5.1500   20.4190  -32.7980 S   0  0  0  0  0  0  0  0  0  0  0  0
   -4.1160   20.8670  -33.7950 O   0  0  0  0  0  0  0  0  0  0  0  0
   -4.4460   19.6640  -31.7050 O   0  0  0  0  0  0  0  0  0  0  0  0
   -6.2600   19.2890  -33.5520 N   0  0  0  0  0  0  0  0  0  0  0  0
   -6.8100   18.3100  -32.6080 C   0  0  0  0  0  0  0  0  0  0  0  0
   -6.7560   16.9440  -33.2730 C   0  0  0  0  0  0  0  0  0  0  0  0
   -5.6980   17.0740  -34.3430 C   0  0  0  0  0  0  0  0  0  0  0  0
   -5.6530   18.5570  -34.6720 C   0  0  0  0  0  0  0  0  0  0  0  0
   -9.4357   20.5858  -30.9581 H   0  0  0  0  0  0  0  0  0  0  0  0
  -10.1714   21.3279  -32.4191 H   0  0  0  0  0  0  0  0  0  0  0  0
   -9.7363   19.5851  -32.4191 H   0  0  0  0  0  0  0  0  0  0  0  0
   -9.0387   23.2326  -31.5296 H   0  0  0  0  0  0  0  0  0  0  0  0
   -7.6235   25.1126  -30.7316 H   0  0  0  0  0  0  0  0  0  0  0  0
   -4.7904   23.3171  -28.8550 H   0  0  0  0  0  0  0  0  0  0  0  0
   -3.8449   22.0595  -26.9195 H   0  0  0  0  0  0  0  0  0  0  0  0
   -1.4453   22.3388  -26.2964 H   0  0  0  0  0  0  0  0  0  0  0  0
    0.7613   23.3278  -24.9154 H   0  0  0  0  0  0  0  0  0  0  0  0
    1.2693   24.7914  -24.0227 H   0  0  0  0  0  0  0  0  0  0  0  0
   -1.4650   23.7317  -24.5328 H   0  0  0  0  0  0  0  0  0  0  0  0
   -0.9328   24.8642  -23.2814 H   0  0  0  0  0  0  0  0  0  0  0  0
   -2.2418   25.4670  -25.7972 H   0  0  0  0  0  0  0  0  0  0  0  0
   -1.6900   26.6353  -24.5872 H   0  0  0  0  0  0  0  0  0  0  0  0
   -0.5804   26.2651  -27.1574 H   0  0  0  0  0  0  0  0  0  0  0  0
    0.2228   27.1196  -25.8067 H   0  0  0  0  0  0  0  0  0  0  0  0
   -0.9177   25.1103  -29.5818 H   0  0  0  0  0  0  0  0  0  0  0  0
   -4.0718   22.7930  -31.5759 H   0  0  0  0  0  0  0  0  0  0  0  0
   -6.2105   18.3014  -31.6858 H   0  0  0  0  0  0  0  0  0  0  0  0
   -7.8462   18.5692  -32.3450 H   0  0  0  0  0  0  0  0  0  0  0  0
   -6.4759   16.1695  -32.5439 H   0  0  0  0  0  0  0  0  0  0  0  0
   -7.7303   16.6468  -33.6881 H   0  0  0  0  0  0  0  0  0  0  0  0
   -4.7229   16.7316  -33.9664 H   0  0  0  0  0  0  0  0  0  0  0  0
   -5.9265   16.4609  -35.2273 H   0  0  0  0  0  0  0  0  0  0  0  0
   -4.6095   18.8782  -34.8061 H   0  0  0  0  0  0  0  0  0  0  0  0
   -6.2027   18.7588  -35.6032 H   0  0  0  0  0  0  0  0  0  0  0  0
  1  2  1  0
  2  3  1  0
  3  4  2  0
  4  5  1  0
  5  6  2  0
  6  7  1  0
  7  8  2  0
  7  9  1  0
  9 10  1  0
 10 11  2  0
 11 12  1  0
 12 13  2  0
 13 14  1  0
 14 15  1  0
 15 16  2  0
 15 17  2  0
 15 18  1  0
 18 19  1  0
 19 20  1  0
 20 21  1  0
 21 22  1  0
 14 23  2  0
  6 24  1  0
 24 25  2  0
 25 26  1  0
 26 27  2  0
 26 28  2  0
 26 29  1  0
 29 30  1  0
 30 31  1  0
 31 32  1  0
 32 33  1  0
 25  3  1  0
 33 29  1  0
 23 10  1  0
 22 18  1  0
  1 34  1  0
  1 35  1  0
  1 36  1  0
  4 37  1  0
  5 38  1  0
 11 39  1  0
 12 40  1  0
 13 41  1  0
 19 42  1  0
 19 43  1  0
 20 44  1  0
 20 45  1  0
 21 46  1  0
 21 47  1  0
 22 48  1  0
 22 49  1  0
 23 50  1  0
 24 51  1  0
 30 52  1  0
 30 53  1  0
 31 54  1  0
 31 55  1  0
 32 56  1  0
 32 57  1  0
 33 58  1  0
 33 59  1  0
M  CHG  1   9  -1
M  END
>  <UniqueID>  (1) 
1

>  <SMILES>  (1) 
COc1ccc(C(=O)[N-]c2cccc(S(=O)(=O)N3CCCC3)c2)cc1S(=O)(=O)N1CCCC1

>  <Energy>  (1) 
69.28275037215126

>  <Genealogy>  (1) 
COc1ccc(C(=O)[N-]c2cccc(S(=O)(=O)N3CCCC3)c2)cc1S(=O)(=O)N1CCCC1 (protonated)
COc1ccc(C(=O)[N-]c2cccc(S(=O)(=O)N3CCCC3)c2)cc1S(=O)(=O)N1CCCC1 (3D coordinates assigned)
COc1ccc(C(=O)[N-]c2cccc(S(=O)(=O)N3CCCC3)c2)cc1S(=O)(=O)N1CCCC1 (nonaromatic ring conformer: 69.28275037215126 kcal/mol)

>  <smiles>  (1) 
COc1ccc(C(=O)Nc2cccc(S(=O)(=O)N3CCCC3)c2)cc1S(=O)(=O)N1CCCC1

>  <score_type>  (1) 
oracle

>  <origin>  (1) 
adgpu

>  <m_score__min__energy>  (1) 
-12.6

>  <m_primary>  (1) 
energy

$$$$
1:0
     RDKit          3D

 42 43  0  0  0  0  0  0  0  0999 V2000
   -3.0950   19.1210  -26.3840 C   0  0  0  0  0  0  0  0  0  0  0  0
   -1.6070   19.1290  -27.4300 S   0  0  0  0  0  0  0  0  0  0  0  0
   -1.8500   20.8190  -27.9610 C   0  0  0  0  0  0  0  0  0  0  0  0
   -1.0020   21.3750  -28.8600 N   0  0  0  0  0  0  0  0  0  0  0  0
   -1.1710   22.6540  -29.2790 C   0  0  0  0  0  0  0  0  0  0  0  0
   -2.2360   23.4300  -28.7940 C   0  0  0  0  0  0  0  0  0  0  0  0
   -2.4040   24.8150  -29.3040 C   0  0  0  0  0  0  0  0  0  0  0  0
   -1.5730   25.7010  -28.9660 O   0  0  0  0  0  0  0  0  0  0  0  0
   -3.5000   25.1490  -30.1650 N   0  0  0  0  0  0  0  0  0  0  0  0
   -4.5960   24.2970  -30.5340 C   0  0  0  0  0  0  0  0  0  0  0  0
   -5.8960   24.6990  -30.2060 C   0  0  0  0  0  0  0  0  0  0  0  0
   -6.9910   23.8920  -30.5270 C   0  0  0  0  0  0  0  0  0  0  0  0
   -6.8020   22.6550  -31.1700 C   0  0  0  0  0  0  0  0  0  0  0  0
   -7.9620   21.8000  -31.5140 C   0  0  0  0  0  0  0  0  0  0  0  0
   -9.0920   22.0340  -31.0050 O   0  0  0  0  0  0  0  0  0  0  0  0
   -7.8050   20.7050  -32.4230 N   0  0  0  0  0  0  0  0  0  0  0  0
   -7.5650   19.3250  -32.0080 C   0  0  0  0  0  0  0  0  0  0  0  0
   -6.8230   18.5900  -33.1230 C   0  0  0  0  0  0  0  0  0  0  0  0
   -8.8920   18.6290  -31.6950 C   0  0  0  0  0  0  0  0  0  0  0  0
   -5.4930   22.2420  -31.4750 C   0  0  0  0  0  0  0  0  0  0  0  0
   -4.3990   23.0510  -31.1530 C   0  0  0  0  0  0  0  0  0  0  0  0
   -3.0950   22.8340  -27.8370 C   0  0  0  0  0  0  0  0  0  0  0  0
   -4.2360   23.5700  -27.1970 C   0  0  0  0  0  0  0  0  0  0  0  0
   -2.8790   21.5460  -27.4590 N   0  0  0  0  0  0  0  0  0  0  0  0
   -2.7986   19.1226  -25.3247 H   0  0  0  0  0  0  0  0  0  0  0  0
   -3.6980   20.0159  -26.5974 H   0  0  0  0  0  0  0  0  0  0  0  0
   -3.6883   18.2197  -26.5974 H   0  0  0  0  0  0  0  0  0  0  0  0
   -0.4674   23.0871  -30.0052 H   0  0  0  0  0  0  0  0  0  0  0  0
   -6.0571   25.6578  -29.6914 H   0  0  0  0  0  0  0  0  0  0  0  0
   -8.0082   24.2265  -30.2750 H   0  0  0  0  0  0  0  0  0  0  0  0
   -6.9503   19.3150  -31.0958 H   0  0  0  0  0  0  0  0  0  0  0  0
   -6.1072   17.8809  -32.6816 H   0  0  0  0  0  0  0  0  0  0  0  0
   -7.5459   18.0418  -33.7451 H   0  0  0  0  0  0  0  0  0  0  0  0
   -6.2817   19.3180  -33.7451 H   0  0  0  0  0  0  0  0  0  0  0  0
   -9.0221   18.5608  -30.6048 H   0  0  0  0  0  0  0  0  0  0  0  0
   -9.7209   19.2084  -32.1276 H   0  0  0  0  0  0  0  0  0  0  0  0
   -8.8866   17.6177  -32.1276 H   0  0  0  0  0  0  0  0  0  0  0  0
   -5.3282   21.2742  -31.9712 H   0  0  0  0  0  0  0  0  0  0  0  0
   -3.3792   22.7104  -31.3854 H   0  0  0  0  0  0  0  0  0  0  0  0
   -4.1431   23.5101  -26.1026 H   0  0  0  0  0  0  0  0  0  0  0  0
   -4.2137   24.6244  -27.5097 H   0  0  0  0  0  0  0  0  0  0  0  0
   -5.1874   23.1149  -27.5097 H   0  0  0  0  0  0  0  0  0  0  0  0
  1  2  1  0
  2  3  1  0
  3  4  2  0
  4  5  1  0
  5  6  2  0
  6  7  1  0
  7  8  2  0
  7  9  1  0
  9 10  1  0
 10 11  2  0
 11 12  1  0
 12 13  2  0
 13 14  1  0
 14 15  2  0
 14 16  1  0
 16 17  1  0
 17 18  1  0
 17 19  1  0
 13 20  1  0
 20 21  2  0
  6 22  1  0
 22 23  1  0
 22 24  2  0
 24  3  1  0
 21 10  1  0
  1 25  1  0
  1 26  1  0
  1 27  1  0
  5 28  1  0
 11 29  1  0
 12 30  1  0
 17 31  1  0
 18 32  1  0
 18 33  1  0
 18 34  1  0
 19 35  1  0
 19 36  1  0
 19 37  1  0
 20 38  1  0
 21 39  1  0
 23 40  1  0
 23 41  1  0
 23 42  1  0
M  CHG  2   9  -1  16  -1
M  END
>  <UniqueID>  (2) 
2

>  <SMILES>  (2) 
CSc1ncc(C(=O)[N-]c2ccc(C(=O)[N-]C(C)C)cc2)c(C)n1

>  <Energy>  (2) 
40.48888622088969

>  <Genealogy>  (2) 
CSc1ncc(C(=O)[N-]c2ccc(C(=O)[N-]C(C)C)cc2)c(C)n1 (protonated)
CSc1ncc(C(=O)[N-]c2ccc(C(=O)[N-]C(C)C)cc2)c(C)n1 (3D coordinates assigned)
CSc1ncc(C(=O)[N-]c2ccc(C(=O)[N-]C(C)C)cc2)c(C)n1 (optimized conformer: 40.48888622088969 kcal/mol)

>  <smiles>  (2) 
CSc1ncc(C(=O)Nc2ccc(C(=O)NC(C)C)cc2)c(C)n1

>  <score_type>  (2) 
oracle

>  <origin>  (2) 
adgpu

>  <m_score__min__energy>  (2) 
-9.8300000000000001

>  <m_primary>  (2) 
energy

$$$$
2:0
     RDKit          3D

 49 51  0  0  0  0  0  0  0  0999 V2000
   -6.2630   16.0580  -33.8340 C   0  0  0  0  0  0  0  0  0  0  0  0
   -5.7850   17.4370  -33.9850 N   0  0  0  0  0  0  0  0  0  0  0  0
   -4.5390   17.6790  -34.7220 C   0  0  0  0  0  0  0  0  0  0  0  0
   -6.5290   18.5430  -33.4110 C   0  0  0  0  0  0  0  0  0  0  0  0
   -7.7380   18.3200  -32.7190 C   0  0  0  0  0  0  0  0  0  0  0  0
   -8.4500   19.3860  -32.1620 C   0  0  0  0  0  0  0  0  0  0  0  0
   -7.9740   20.6940  -32.2850 C   0  0  0  0  0  0  0  0  0  0  0  0
   -8.8690   22.0210  -31.5520 S   0  0  0  0  0  0  0  0  0  0  0  0
   -8.9910   23.1790  -32.5020 O   0  0  0  0  0  0  0  0  0  0  0  0
  -10.2470   21.5370  -31.1970 O   0  0  0  0  0  0  0  0  0  0  0  0
   -8.0580   22.5490  -30.1120 N   0  0  0  0  0  0  0  0  0  0  0  0
   -6.8100   23.2660  -30.1140 C   0  0  0  0  0  0  0  0  0  0  0  0
   -6.7620   24.6720  -30.1390 C   0  0  0  0  0  0  0  0  0  0  0  0
   -5.5340   25.3370  -30.1420 C   0  0  0  0  0  0  0  0  0  0  0  0
   -4.3390   24.6140  -30.1140 C   0  0  0  0  0  0  0  0  0  0  0  0
   -3.1280   25.2950  -30.0860 O   0  0  0  0  0  0  0  0  0  0  0  0
   -4.3690   23.2100  -30.0940 C   0  0  0  0  0  0  0  0  0  0  0  0
   -3.1450   22.4550  -30.0650 N   0  0  0  0  0  0  0  0  0  0  0  0
   -2.2520   22.5580  -28.9050 C   0  0  0  0  0  0  0  0  0  0  0  0
   -0.8940   21.9140  -29.2130 C   0  0  0  0  0  0  0  0  0  0  0  0
   -0.4770   22.2300  -30.5850 N   0  0  0  0  0  0  0  0  0  0  0  0
   -1.3750   21.6370  -31.5960 C   0  0  0  0  0  0  0  0  0  0  0  0
   -2.8400   21.4930  -31.1270 C   0  0  0  0  0  0  0  0  0  0  0  0
   -5.6060   22.5460  -30.0850 C   0  0  0  0  0  0  0  0  0  0  0  0
   -6.7810   20.9330  -32.9760 C   0  0  0  0  0  0  0  0  0  0  0  0
   -6.0650   19.8690  -33.5330 C   0  0  0  0  0  0  0  0  0  0  0  0
   -6.3475   15.8142  -32.7647 H   0  0  0  0  0  0  0  0  0  0  0  0
   -7.2485   15.9571  -34.3121 H   0  0  0  0  0  0  0  0  0  0  0  0
   -5.5513   15.3688  -34.3121 H   0  0  0  0  0  0  0  0  0  0  0  0
   -3.7165   17.8387  -34.0092 H   0  0  0  0  0  0  0  0  0  0  0  0
   -4.3121   16.8081  -35.3545 H   0  0  0  0  0  0  0  0  0  0  0  0
   -4.6546   18.5715  -35.3545 H   0  0  0  0  0  0  0  0  0  0  0  0
   -8.1248   17.2953  -32.6166 H   0  0  0  0  0  0  0  0  0  0  0  0
   -9.3901   19.1943  -31.6239 H   0  0  0  0  0  0  0  0  0  0  0  0
   -8.4600   22.2360  -29.2000 H   0  0  0  0  0  0  0  0  0  0  0  0
   -7.6973   25.2508  -30.1563 H   0  0  0  0  0  0  0  0  0  0  0  0
   -5.5075   26.4364  -30.1666 H   0  0  0  0  0  0  0  0  0  0  0  0
   -2.1015   23.6191  -28.6572 H   0  0  0  0  0  0  0  0  0  0  0  0
   -2.7108   22.0313  -28.0552 H   0  0  0  0  0  0  0  0  0  0  0  0
   -0.1423   22.2986  -28.5080 H   0  0  0  0  0  0  0  0  0  0  0  0
   -0.9852   20.8226  -29.1102 H   0  0  0  0  0  0  0  0  0  0  0  0
   -0.4770   23.2710  -30.7010 H   0  0  0  0  0  0  0  0  0  0  0  0
   -1.3594   22.2769  -32.4906 H   0  0  0  0  0  0  0  0  0  0  0  0
   -1.0031   20.6212  -31.7957 H   0  0  0  0  0  0  0  0  0  0  0  0
   -3.5108   21.6733  -31.9800 H   0  0  0  0  0  0  0  0  0  0  0  0
   -2.9850   20.4763  -30.7330 H   0  0  0  0  0  0  0  0  0  0  0  0
   -5.6316   21.4467  -30.0548 H   0  0  0  0  0  0  0  0  0  0  0  0
   -6.4052   21.9614  -33.0814 H   0  0  0  0  0  0  0  0  0  0  0  0
   -5.1279   20.0688  -34.0732 H   0  0  0  0  0  0  0  0  0  0  0  0
  1  2  1  0
  2  3  1  0
  2  4  1  0
  4  5  2  0
  5  6  1  0
  6  7  2  0
  7  8  1  0
  8  9  2  0
  8 10  2  0
  8 11  1  0
 11 12  1  0
 12 13  2  0
 13 14  1  0
 14 15  2  0
 15 16  1  0
 15 17  1  0
 17 18  1  0
 18 19  1  0
 19 20  1  0
 20 21  1  0
 21 22  1  0
 22 23  1  0
 17 24  2  0
  7 25  1  0
 25 26  2  0
 26  4  1  0
 24 12  1  0
 23 18  1  0
  1 27  1  0
  1 28  1  0
  1 29  1  0
  3 30  1  0
  3 31  1  0
  3 32  1  0
  5 33  1  0
  6 34  1  0
 11 35  1  0
 13 36  1  0
 14 37  1  0
 19 38  1  0
 19 39  1  0
 20 40  1  0
 20 41  1  0
 21 42  1  0
 22 43  1  0
 22 44  1  0
 23 45  1  0
 23 46  1  0
 24 47  1  0
 25 48  1  0
 26 49  1  0
M  CHG  1  16  -1
M  END
>  <UniqueID>  (3) 
3

>  <SMILES>  (3) 
CN(C)c1ccc(S(=O)(=O)Nc2ccc([O-])c(N3CCNCC3)c2)cc1

>  <Energy>  (3) 
63.33937986929409

>  <Genealogy>  (3) 
CN(C)c1ccc(S(=O)(=O)Nc2ccc([O-])c(N3CCNCC3)c2)cc1 (protonated)
CN(C)c1ccc(S(=O)(=O)Nc2ccc([O-])c(N3CCNCC3)c2)cc1 (3D coordinates assigned)
CN(C)c1ccc(S(=O)(=O)Nc2ccc([O-])c(N3CCNCC3)c2)cc1 (nonaromatic ring conformer: 63.33937986929409 kcal/mol)

>  <smiles>  (3) 
CN(C)c1ccc(S(=O)(=O)Nc2ccc(O)c(N3CCNCC3)c2)cc1

>  <score_type>  (3) 
oracle

>  <origin>  (3) 
adgpu

>  <m_score__min__energy>  (3) 
-11.93

>  <m_primary>  (3) 
energy

$$$$
3:0
     RDKit          3D

 34 36  0  0  0  0  0  0  0  0999 V2000
   -4.5300   18.2740  -32.5690 C   0  0  0  0  0  0  0  0  0  0  0  0
   -4.5820   19.1260  -33.7690 N   0  0  0  0  0  0  0  0  0  0  0  0
   -3.9600   20.4410  -33.5110 C   0  0  0  0  0  0  0  0  0  0  0  0
   -4.3870   20.9390  -32.1300 C   0  0  0  0  0  0  0  0  0  0  0  0
   -5.7490   21.4930  -32.1580 N   0  0  0  0  0  0  0  0  0  0  0  0
   -5.9740   22.9140  -32.1300 C   0  0  0  0  0  0  0  0  0  0  0  0
   -6.9570   23.3950  -32.7560 O   0  0  0  0  0  0  0  0  0  0  0  0
   -5.1010   23.8280  -31.3700 C   0  0  0  0  0  0  0  0  0  0  0  0
   -5.2880   25.1780  -31.1740 C   0  0  0  0  0  0  0  0  0  0  0  0
   -4.2490   25.6630  -30.4710 N   0  0  0  0  0  0  0  0  0  0  0  0
   -3.4580   24.5890  -30.2670 C   0  0  0  0  0  0  0  0  0  0  0  0
   -3.9390   23.4510  -30.8080 N   0  0  0  0  0  0  0  0  0  0  0  0
   -6.8840   20.6130  -32.1830 C   0  0  0  0  0  0  0  0  0  0  0  0
   -7.9120   20.8220  -31.2480 C   0  0  0  0  0  0  0  0  0  0  0  0
   -9.0290   19.9870  -31.2220 C   0  0  0  0  0  0  0  0  0  0  0  0
   -9.1360   18.9380  -32.1320 C   0  0  0  0  0  0  0  0  0  0  0  0
   -8.1290   18.7220  -33.0730 C   0  0  0  0  0  0  0  0  0  0  0  0
   -6.9890   19.5470  -33.1160 C   0  0  0  0  0  0  0  0  0  0  0  0
   -5.9810   19.2670  -34.2230 C   0  0  0  0  0  0  0  0  0  0  0  0
   -4.5685   18.9054  -31.6691 H   0  0  0  0  0  0  0  0  0  0  0  0
   -5.3878   17.5854  -32.5708 H   0  0  0  0  0  0  0  0  0  0  0  0
   -3.5948   17.6948  -32.5708 H   0  0  0  0  0  0  0  0  0  0  0  0
   -2.8649   20.3424  -33.5438 H   0  0  0  0  0  0  0  0  0  0  0  0
   -4.2842   21.1592  -34.2785 H   0  0  0  0  0  0  0  0  0  0  0  0
   -4.3568   20.0984  -31.4211 H   0  0  0  0  0  0  0  0  0  0  0  0
   -3.6950   21.7357  -31.8196 H   0  0  0  0  0  0  0  0  0  0  0  0
   -6.1467   25.7640  -31.5336 H   0  0  0  0  0  0  0  0  0  0  0  0
   -2.5098   24.6371  -29.7115 H   0  0  0  0  0  0  0  0  0  0  0  0
   -7.8351   21.6518  -30.5300 H   0  0  0  0  0  0  0  0  0  0  0  0
   -9.8255   20.1570  -30.4827 H   0  0  0  0  0  0  0  0  0  0  0  0
  -10.0162   18.2786  -32.1087 H   0  0  0  0  0  0  0  0  0  0  0  0
   -8.2271   17.8951  -33.7918 H   0  0  0  0  0  0  0  0  0  0  0  0
   -6.2738   18.3322  -34.7234 H   0  0  0  0  0  0  0  0  0  0  0  0
   -6.0027   20.1423  -34.8888 H   0  0  0  0  0  0  0  0  0  0  0  0
  1  2  1  0
  2  3  1  0
  3  4  1  0
  4  5  1  0
  5  6  1  0
  6  7  2  0
  6  8  1  0
  8  9  2  0
  9 10  1  0
 10 11  1  0
 11 12  2  0
  5 13  1  0
 13 14  2  0
 14 15  1  0
 15 16  2  0
 16 17  1  0
 17 18  2  0
 18 19  1  0
 19  2  1  0
 12  8  1  0
 18 13  1  0
  1 20  1  0
  1 21  1  0
  1 22  1  0
  3 23  1  0
  3 24  1  0
  4 25  1  0
  4 26  1  0
  9 27  1  0
 11 28  1  0
 14 29  1  0
 15 30  1  0
 16 31  1  0
 17 32  1  0
 19 33  1  0
 19 34  1  0
M  CHG  1  10  -1
M  END
>  <UniqueID>  (4) 
4

>  <SMILES>  (4) 
CN1CCN(C(=O)c2c[n-]cn2)c2ccccc2C1

>  <Energy>  (4) 
82.44117573012919

>  <Genealogy>  (4) 
CN1CCN(C(=O)c2c[n-]cn2)c2ccccc2C1 (protonated)
CN1CCN(C(=O)c2c[n-]cn2)c2ccccc2C1 (3D coordinates assigned)
CN1CCN(C(=O)c2c[n-]cn2)c2ccccc2C1 (nonaromatic ring conformer: 82.44117573012919 kcal/mol)

>  <smiles>  (4) 
CN1CCN(C(=O)c2c[nH]cn2)c2ccccc2C1

>  <score_type>  (4) 
oracle

>  <origin>  (4) 
adgpu

>  <m_score__min__energy>  (4) 
-6.8300000000000001

>  <m_primary>  (4) 
energy

$$$$
4:0
     RDKit          3D

 44 46  0  0  0  0  0  0  0  0999 V2000
   -2.5000   24.4710  -28.7330 C   0  0  0  0  0  0  0  0  0  0  0  0
   -3.1480   24.9270  -29.9170 O   0  0  0  0  0  0  0  0  0  0  0  0
   -4.2950   24.3430  -30.4730 C   0  0  0  0  0  0  0  0  0  0  0  0
   -5.5680   24.9330  -30.3370 C   0  0  0  0  0  0  0  0  0  0  0  0
   -6.6900   24.3340  -30.9120 C   0  0  0  0  0  0  0  0  0  0  0  0
   -6.5620   23.1380  -31.6350 C   0  0  0  0  0  0  0  0  0  0  0  0
   -7.7020   22.4680  -32.1910 N   0  0  0  0  0  0  0  0  0  0  0  0
   -8.4520   21.4260  -31.5520 C   0  0  0  0  0  0  0  0  0  0  0  0
   -9.3060   21.7370  -30.6820 O   0  0  0  0  0  0  0  0  0  0  0  0
   -8.2550   20.0030  -31.8870 C   0  0  0  0  0  0  0  0  0  0  0  0
   -9.0620   18.9570  -31.4710 C   0  0  0  0  0  0  0  0  0  0  0  0
   -8.6160   17.8240  -31.9710 O   0  0  0  0  0  0  0  0  0  0  0  0
   -7.5630   18.0850  -32.7090 C   0  0  0  0  0  0  0  0  0  0  0  0
   -7.2770   19.4310  -32.6840 C   0  0  0  0  0  0  0  0  0  0  0  0
   -6.2820   20.0760  -33.6070 C   0  0  0  0  0  0  0  0  0  0  0  0
   -5.2520   19.0400  -34.0920 C   0  0  0  0  0  0  0  0  0  0  0  0
   -5.9400   17.7500  -34.5820 C   0  0  0  0  0  0  0  0  0  0  0  0
   -6.7510   17.0730  -33.4600 C   0  0  0  0  0  0  0  0  0  0  0  0
   -5.2950   22.5740  -31.8100 C   0  0  0  0  0  0  0  0  0  0  0  0
   -4.1680   23.1440  -31.2030 C   0  0  0  0  0  0  0  0  0  0  0  0
   -2.9040   22.4800  -31.3230 N   0  0  0  0  0  0  0  0  0  0  0  0
   -2.6670   21.1880  -32.4550 S   0  0  0  0  0  0  0  0  0  0  0  0
   -0.9280   20.8600  -32.6660 C   0  0  0  0  0  0  0  0  0  0  0  0
   -3.3220   19.9460  -31.9220 O   0  0  0  0  0  0  0  0  0  0  0  0
   -3.2880   21.5440  -33.7760 O   0  0  0  0  0  0  0  0  0  0  0  0
   -3.0381   24.8497  -27.8515 H   0  0  0  0  0  0  0  0  0  0  0  0
   -2.4977   23.3711  -28.7167 H   0  0  0  0  0  0  0  0  0  0  0  0
   -1.4639   24.8401  -28.7167 H   0  0  0  0  0  0  0  0  0  0  0  0
   -5.6779   25.8716  -29.7740 H   0  0  0  0  0  0  0  0  0  0  0  0
   -7.6791   24.8016  -30.7979 H   0  0  0  0  0  0  0  0  0  0  0  0
   -9.9433   19.0580  -30.8205 H   0  0  0  0  0  0  0  0  0  0  0  0
   -6.8114   20.4950  -34.4754 H   0  0  0  0  0  0  0  0  0  0  0  0
   -5.7565   20.8752  -33.0638 H   0  0  0  0  0  0  0  0  0  0  0  0
   -4.6716   19.4729  -34.9201 H   0  0  0  0  0  0  0  0  0  0  0  0
   -4.5953   18.7831  -33.2478 H   0  0  0  0  0  0  0  0  0  0  0  0
   -6.6188   18.0010  -35.4104 H   0  0  0  0  0  0  0  0  0  0  0  0
   -5.1585   17.0489  -34.9102 H   0  0  0  0  0  0  0  0  0  0  0  0
   -7.4255   16.3253  -33.9027 H   0  0  0  0  0  0  0  0  0  0  0  0
   -6.0527   16.5902  -32.7606 H   0  0  0  0  0  0  0  0  0  0  0  0
   -5.1815   21.6731  -32.4309 H   0  0  0  0  0  0  0  0  0  0  0  0
   -2.0480   22.9810  -30.9960 H   0  0  0  0  0  0  0  0  0  0  0  0
   -0.4496   20.7698  -31.6796 H   0  0  0  0  0  0  0  0  0  0  0  0
   -0.7970   19.9213  -33.2243 H   0  0  0  0  0  0  0  0  0  0  0  0
   -0.4641   21.6865  -33.2243 H   0  0  0  0  0  0  0  0  0  0  0  0
  1  2  1  0
  2  3  1  0
  3  4  2  0
  4  5  1  0
  5  6  2  0
  6  7  1  0
  7  8  1  0
  8  9  2  0
  8 10  1  0
 10 11  2  0
 11 12  1  0
 12 13  1  0
 13 14  2  0
 14 15  1  0
 15 16  1  0
 16 17  1  0
 17 18  1  0
  6 19  1  0
 19 20  2  0
 20 21  1  0
 21 22  1  0
 22 23  1  0
 22 24  2  0
 22 25  2  0
 20  3  1  0
 14 10  1  0
 18 13  1  0
  1 26  1  0
  1 27  1  0
  1 28  1  0
  4 29  1  0
  5 30  1  0
 11 31  1  0
 15 32  1  0
 15 33  1  0
 16 34  1  0
 16 35  1  0
 17 36  1  0
 17 37  1  0
 18 38  1  0
 18 39  1  0
 19 40  1  0
 21 41  1  0
 23 42  1  0
 23 43  1  0
 23 44  1  0
M  CHG  1   7  -1
M  END
>  <UniqueID>  (5) 
5

>  <SMILES>  (5) 
COc1ccc([N-]C(=O)c2coc3c2CCCC3)cc1NS(C)(=O)=O

>  <Energy>  (5) 
78.10358163475172

>  <Genealogy>  (5) 
COc1ccc([N-]C(=O)c2coc3c2CCCC3)cc1NS(C)(=O)=O (protonated)
COc1ccc([N-]C(=O)c2coc3c2CCCC3)cc1NS(C)(=O)=O (3D coordinates assigned)
COc1ccc([N-]C(=O)c2coc3c2CCCC3)cc1NS(C)(=O)=O (nonaromatic ring conformer: 78.10358163475172 kcal/mol)

>  <smiles>  (5) 
COc1ccc(NC(=O)c2coc3c2CCCC3)cc1NS(C)(=O)=O

>  <score_type>  (5) 
oracle

>  <origin>  (5) 
adgpu

>  <m_score__min__energy>  (5) 
-9.1999999999999993

>  <m_primary>  (5) 
energy

$$$$
5:0
     RDKit          3D

 52 55  0  0  0  0  0  0  0  0999 V2000
    4.2360   23.6630  -36.6384 H   0  0  0  0  0  0  0  0  0  0  0  0
    3.1570   23.5000  -36.5000 C   0  0  0  0  0  0  0  0  0  0  0  0
    2.2040   24.3170  -36.8870 O   0  0  0  0  0  0  0  0  0  0  0  0
    1.0260   23.8510  -36.5850 N   0  0  0  0  0  0  0  0  0  0  0  0
    1.2300   22.6720  -35.9750 C   0  0  0  0  0  0  0  0  0  0  0  0
    0.2580   21.9290  -35.5380 N   0  0  0  0  0  0  0  0  0  0  0  0
    0.4670   20.4120  -34.7220 S   0  0  0  0  0  0  0  0  0  0  0  0
    1.9080   19.9980  -34.8190 O   0  0  0  0  0  0  0  0  0  0  0  0
   -0.3750   19.3650  -35.3970 O   0  0  0  0  0  0  0  0  0  0  0  0
    0.0330   20.5630  -33.0220 C   0  0  0  0  0  0  0  0  0  0  0  0
    0.8720   20.0520  -32.0230 C   0  0  0  0  0  0  0  0  0  0  0  0
    1.8087   19.5466  -32.3008 H   0  0  0  0  0  0  0  0  0  0  0  0
    0.5250   20.1810  -30.6760 C   0  0  0  0  0  0  0  0  0  0  0  0
    1.1859   19.7701  -29.8985 H   0  0  0  0  0  0  0  0  0  0  0  0
   -0.6640   20.8330  -30.3100 C   0  0  0  0  0  0  0  0  0  0  0  0
   -1.0350   20.9770  -28.9310 N   0  0  0  0  0  0  0  0  0  0  0  0
   -0.7820   20.2040  -28.2750 H   0  0  0  0  0  0  0  0  0  0  0  0
   -1.2850   22.2880  -28.3330 C   0  0  0  0  0  0  0  0  0  0  0  0
   -0.4745   22.9786  -28.6090 H   0  0  0  0  0  0  0  0  0  0  0  0
   -1.3247   22.1925  -27.2379 H   0  0  0  0  0  0  0  0  0  0  0  0
   -2.5940   22.8220  -28.8400 C   0  0  0  0  0  0  0  0  0  0  0  0
   -3.8020   22.2680  -28.3920 C   0  0  0  0  0  0  0  0  0  0  0  0
   -3.7904   21.3659  -27.7627 H   0  0  0  0  0  0  0  0  0  0  0  0
   -5.0190   22.8560  -28.7410 C   0  0  0  0  0  0  0  0  0  0  0  0
   -5.9625   22.3988  -28.4081 H   0  0  0  0  0  0  0  0  0  0  0  0
   -5.0460   24.0270  -29.5140 C   0  0  0  0  0  0  0  0  0  0  0  0
   -6.3390   24.7050  -29.7500 C   0  0  0  0  0  0  0  0  0  0  0  0
   -6.6470   25.7050  -29.0500 O   0  0  0  0  0  0  0  0  0  0  0  0
   -7.2480   24.2680  -30.7720 N   0  0  0  0  0  0  0  0  0  0  0  0
   -7.2900   22.9570  -31.3560 C   0  0  0  0  0  0  0  0  0  0  0  0
   -8.4230   22.1680  -31.1200 C   0  0  0  0  0  0  0  0  0  0  0  0
   -9.2691   22.5847  -30.5539 H   0  0  0  0  0  0  0  0  0  0  0  0
   -8.4880   20.8570  -31.5970 C   0  0  0  0  0  0  0  0  0  0  0  0
   -9.3828   20.2464  -31.4061 H   0  0  0  0  0  0  0  0  0  0  0  0
   -7.4180   20.3210  -32.3160 C   0  0  0  0  0  0  0  0  0  0  0  0
   -7.4559   19.2777  -32.6627 H   0  0  0  0  0  0  0  0  0  0  0  0
   -6.3000   21.1090  -32.5950 C   0  0  0  0  0  0  0  0  0  0  0  0
   -5.4632   20.6850  -33.1695 H   0  0  0  0  0  0  0  0  0  0  0  0
   -6.2350   22.4390  -32.1480 C   0  0  0  0  0  0  0  0  0  0  0  0
   -5.1370   23.2580  -32.5640 N   0  0  0  0  0  0  0  0  0  0  0  0
   -4.6980   23.1190  -33.5020 H   0  0  0  0  0  0  0  0  0  0  0  0
   -4.8120   24.0680  -31.9930 H   0  0  0  0  0  0  0  0  0  0  0  0
   -3.8370   24.5580  -30.0040 C   0  0  0  0  0  0  0  0  0  0  0  0
   -3.8320   25.6710  -30.8380 O   0  0  0  0  0  0  0  0  0  0  0  0
   -2.6200   23.9620  -29.6570 C   0  0  0  0  0  0  0  0  0  0  0  0
   -1.6769   24.3902  -30.0273 H   0  0  0  0  0  0  0  0  0  0  0  0
   -1.4950   21.3570  -31.3130 C   0  0  0  0  0  0  0  0  0  0  0  0
   -2.4201   21.8841  -31.0365 H   0  0  0  0  0  0  0  0  0  0  0  0
   -1.1540   21.2130  -32.6600 C   0  0  0  0  0  0  0  0  0  0  0  0
   -1.8201   21.6115  -33.4394 H   0  0  0  0  0  0  0  0  0  0  0  0
    2.5820   22.4050  -35.8920 C   0  0  0  0  0  0  0  0  0  0  0  0
    3.0797   21.5302  -35.4481 H   0  0  0  0  0  0  0  0  0  0  0  0
  1  2  1  0
  2  3  1  0
  3  4  1  0
  4  5  1  0
  5  6  2  0
  6  7  1  0
  7  8  2  0
  7  9  2  0
  7 10  1  0
 10 11  2  0
 11 12  1  0
 11 13  1  0
 13 14  1  0
 13 15  2  0
 15 16  1  0
 16 17  1  0
 16 18  1  0
 18 19  1  0
 18 20  1  0
 18 21  1  0
 21 22  2  0
 22 23  1  0
 22 24  1  0
 24 25  1  0
 24 26  2  0
 26 27  1  0
 27 28  2  0
 27 29  1  0
 29 30  1  0
 30 31  2  0
 31 32  1  0
 31 33  1  0
 33 34  1  0
 33 35  2  0
 35 36  1  0
 35 37  1  0
 37 38  1  0
 37 39  2  0
 39 40  1  0
 40 41  1  0
 40 42  1  0
 26 43  1  0
 43 44  1  0
 43 45  2  0
 45 46  1  0
 15 47  1  0
 47 48  1  0
 47 49  2  0
 49 50  1  0
  5 51  1  0
 51 52  1  0
 51  2  2  0
 49 10  1  0
 45 21  1  0
 39 30  1  0
M  CHG  3   4  -1  29  -1  44  -1
M  END
>  <UniqueID>  (6) 
6

>  <SMILES>  (6) 
Nc1ccccc1[N-]C(=O)c1ccc(CNc2ccc(S(=O)(=O)/N=c3\cco[n-]3)cc2)cc1[O-]

>  <Energy>  (6) 
99.16986719344602

>  <Genealogy>  (6) 
Nc1ccccc1[N-]C(=O)c1ccc(CNc2ccc(S(=O)(=O)N=c3cco[n-]3)cc2)cc1[O-] (protonated)
Nc1ccccc1[N-]C(=O)c1ccc(CNc2ccc(S(=O)(=O)/N=c3\cco[n-]3)cc2)cc1[O-] (cis-trans isomerization)
Nc1ccccc1[N-]C(=O)c1ccc(CNc2ccc(S(=O)(=O)/N=c3\cco[n-]3)cc2)cc1[O-] (3D coordinates assigned)
Nc1ccccc1[N-]C(=O)c1ccc(CNc2ccc(S(=O)(=O)/N=c3\cco[n-]3)cc2)cc1[O-] (optimized conformer: 99.16986719344602 kcal/mol)

>  <smiles>  (6) 
Nc1ccccc1NC(=O)c1ccc(CNc2ccc(S(=O)(=O)N=c3cco[nH]3)cc2)cc1O

>  <score_type>  (6) 
oracle

>  <origin>  (6) 
adgpu

>  <m_score__min__energy>  (6) 
-14.199999999999999

>  <m_primary>  (6) 
energy

$$$$
6:0
     RDKit          3D

 46 48  0  0  0  0  0  0  0  0999 V2000
   -0.5980   19.4360  -31.6590 N   0  0  0  0  0  0  0  0  0  0  0  0
   -1.1290   20.6550  -31.1230 C   0  0  0  0  0  0  0  0  0  0  0  0
   -0.5910   21.1750  -29.9350 C   0  0  0  0  0  0  0  0  0  0  0  0
   -1.0880   22.3630  -29.3930 C   0  0  0  0  0  0  0  0  0  0  0  0
   -2.1290   23.0470  -30.0320 C   0  0  0  0  0  0  0  0  0  0  0  0
   -2.7860   24.5300  -29.3480 S   0  0  0  0  0  0  0  0  0  0  0  0
   -1.6500   25.4720  -29.0660 O   0  0  0  0  0  0  0  0  0  0  0  0
   -3.5150   24.2540  -28.0630 O   0  0  0  0  0  0  0  0  0  0  0  0
   -3.8740   25.2730  -30.4750 N   0  0  0  0  0  0  0  0  0  0  0  0
   -5.2870   25.0410  -30.5260 C   0  0  0  0  0  0  0  0  0  0  0  0
   -6.0570   26.0270  -30.3940 O   0  0  0  0  0  0  0  0  0  0  0  0
   -5.8550   23.6690  -30.8080 C   0  0  0  0  0  0  0  0  0  0  0  0
   -6.7610   23.6160  -32.0490 C   0  0  0  0  0  0  0  0  0  0  0  0
   -7.7840   22.5110  -31.9730 C   0  0  0  0  0  0  0  0  0  0  0  0
   -9.1130   22.7450  -32.0120 N   0  0  0  0  0  0  0  0  0  0  0  0
   -9.6720   21.5180  -31.9720 C   0  0  0  0  0  0  0  0  0  0  0  0
   -8.6840   20.5630  -31.9250 C   0  0  0  0  0  0  0  0  0  0  0  0
   -7.4940   21.1890  -31.9380 N   0  0  0  0  0  0  0  0  0  0  0  0
   -6.1830   20.5390  -31.8660 C   0  0  0  0  0  0  0  0  0  0  0  0
   -6.1690   19.2880  -32.7050 C   0  0  0  0  0  0  0  0  0  0  0  0
   -5.8390   19.3430  -34.0700 C   0  0  0  0  0  0  0  0  0  0  0  0
   -5.8030   18.1710  -34.8330 C   0  0  0  0  0  0  0  0  0  0  0  0
   -6.1050   16.9400  -34.2440 C   0  0  0  0  0  0  0  0  0  0  0  0
   -6.4470   16.8790  -32.8910 C   0  0  0  0  0  0  0  0  0  0  0  0
   -6.4820   18.0470  -32.1230 C   0  0  0  0  0  0  0  0  0  0  0  0
   -2.6710   22.5320  -31.2160 C   0  0  0  0  0  0  0  0  0  0  0  0
   -2.1800   21.3430  -31.7650 C   0  0  0  0  0  0  0  0  0  0  0  0
   -2.9070   20.7450  -33.2520 Cl  0  0  0  0  0  0  0  0  0  0  0  0
    0.4090   19.3390  -31.9180 H   0  0  0  0  0  0  0  0  0  0  0  0
   -1.2130   18.6030  -31.7890 H   0  0  0  0  0  0  0  0  0  0  0  0
    0.2274   20.6434  -29.4274 H   0  0  0  0  0  0  0  0  0  0  0  0
   -0.6601   22.7620  -28.4615 H   0  0  0  0  0  0  0  0  0  0  0  0
   -5.0180   22.9715  -30.9595 H   0  0  0  0  0  0  0  0  0  0  0  0
   -6.4787   23.3965  -29.9439 H   0  0  0  0  0  0  0  0  0  0  0  0
   -7.2872   24.5775  -32.1424 H   0  0  0  0  0  0  0  0  0  0  0  0
   -6.1205   23.4178  -32.9210 H   0  0  0  0  0  0  0  0  0  0  0  0
  -10.7527   21.3129  -31.9763 H   0  0  0  0  0  0  0  0  0  0  0  0
   -8.8401   19.4749  -31.8839 H   0  0  0  0  0  0  0  0  0  0  0  0
   -5.4140   21.2325  -32.2369 H   0  0  0  0  0  0  0  0  0  0  0  0
   -5.9763   20.2688  -30.8199 H   0  0  0  0  0  0  0  0  0  0  0  0
   -5.6083   20.3105  -34.5398 H   0  0  0  0  0  0  0  0  0  0  0  0
   -5.5364   18.2184  -35.8991 H   0  0  0  0  0  0  0  0  0  0  0  0
   -6.0734   16.0196  -34.8456 H   0  0  0  0  0  0  0  0  0  0  0  0
   -6.6892   15.9106  -32.4290 H   0  0  0  0  0  0  0  0  0  0  0  0
   -6.7556   17.9947  -31.0589 H   0  0  0  0  0  0  0  0  0  0  0  0
   -3.4901   23.0672  -31.7187 H   0  0  0  0  0  0  0  0  0  0  0  0
  1  2  1  0
  2  3  2  0
  3  4  1  0
  4  5  2  0
  5  6  1  0
  6  7  2  0
  6  8  2  0
  6  9  1  0
  9 10  1  0
 10 11  2  0
 10 12  1  0
 12 13  1  0
 13 14  1  0
 14 15  2  0
 15 16  1  0
 16 17  2  0
 17 18  1  0
 18 19  1  0
 19 20  1  0
 20 21  2  0
 21 22  1  0
 22 23  2  0
 23 24  1  0
 24 25  2  0
  5 26  1  0
 26 27  2  0
 27 28  1  0
 27  2  1  0
 18 14  1  0
 25 20  1  0
  1 29  1  0
  1 30  1  0
  3 31  1  0
  4 32  1  0
 12 33  1  0
 12 34  1  0
 13 35  1  0
 13 36  1  0
 16 37  1  0
 17 38  1  0
 19 39  1  0
 19 40  1  0
 21 41  1  0
 22 42  1  0
 23 43  1  0
 24 44  1  0
 25 45  1  0
 26 46  1  0
M  CHG  1   9  -1
M  END
>  <UniqueID>  (7) 
7

>  <SMILES>  (7) 
Nc1ccc(S(=O)(=O)[N-]C(=O)CCc2nccn2Cc2ccccc2)cc1Cl

>  <Energy>  (7) 
76.1515030809983

>  <Genealogy>  (7) 
Nc1ccc(S(=O)(=O)[N-]C(=O)CCc2nccn2Cc2ccccc2)cc1Cl (protonated)
Nc1ccc(S(=O)(=O)[N-]C(=O)CCc2nccn2Cc2ccccc2)cc1Cl (3D coordinates assigned)
Nc1ccc(S(=O)(=O)[N-]C(=O)CCc2nccn2Cc2ccccc2)cc1Cl (optimized conformer: 76.1515030809983 kcal/mol)

>  <smiles>  (7) 
Nc1ccc(S(=O)(=O)NC(=O)CCc2nccn2Cc2ccccc2)cc1Cl

>  <score_type>  (7) 
oracle

>  <origin>  (7) 
adgpu

>  <m_score__min__energy>  (7) 
-11.289999999999999

>  <m_primary>  (7) 
energy

$$$$
7:0
     RDKit          3D

 47 50  0  0  0  0  0  0  0  0999 V2000
   -5.0970   22.1910  -32.3650 O   0  0  0  0  0  0  0  0  0  0  0  0
   -3.9470   22.1510  -31.8500 C   0  0  0  0  0  0  0  0  0  0  0  0
   -3.0130   21.1330  -32.2460 N   0  0  0  0  0  0  0  0  0  0  0  0
   -3.3910   19.9220  -32.9220 C   0  0  0  0  0  0  0  0  0  0  0  0
   -2.5500   19.3970  -33.9170 C   0  0  0  0  0  0  0  0  0  0  0  0
   -2.8820   18.2070  -34.5690 C   0  0  0  0  0  0  0  0  0  0  0  0
   -4.0500   17.5220  -34.2270 C   0  0  0  0  0  0  0  0  0  0  0  0
   -4.8920   18.0250  -33.2260 C   0  0  0  0  0  0  0  0  0  0  0  0
   -6.3410   17.1420  -32.7550 S   0  0  0  0  0  0  0  0  0  0  0  0
   -6.5910   16.0410  -33.7490 O   0  0  0  0  0  0  0  0  0  0  0  0
   -6.1440   16.5250  -31.3980 O   0  0  0  0  0  0  0  0  0  0  0  0
   -7.7030   18.2340  -32.7420 N   0  0  0  0  0  0  0  0  0  0  0  0
   -7.3530   19.5230  -33.3370 C   0  0  0  0  0  0  0  0  0  0  0  0
   -8.2740   20.5540  -32.7030 C   0  0  0  0  0  0  0  0  0  0  0  0
   -8.7740   19.9130  -31.4180 C   0  0  0  0  0  0  0  0  0  0  0  0
   -8.1290   18.5360  -31.3770 C   0  0  0  0  0  0  0  0  0  0  0  0
   -4.5540   19.2140  -32.5660 C   0  0  0  0  0  0  0  0  0  0  0  0
   -3.5670   23.1870  -30.8750 C   0  0  0  0  0  0  0  0  0  0  0  0
   -2.7500   23.0270  -29.7740 C   0  0  0  0  0  0  0  0  0  0  0  0
   -2.7200   24.2810  -29.1920 C   0  0  0  0  0  0  0  0  0  0  0  0
   -1.9590   24.6960  -27.9890 C   0  0  0  0  0  0  0  0  0  0  0  0
   -1.9110   23.8310  -26.8800 C   0  0  0  0  0  0  0  0  0  0  0  0
   -1.2130   24.1910  -25.7240 C   0  0  0  0  0  0  0  0  0  0  0  0
   -0.5490   25.4160  -25.6610 C   0  0  0  0  0  0  0  0  0  0  0  0
   -0.5730   26.2800  -26.7560 C   0  0  0  0  0  0  0  0  0  0  0  0
   -1.2640   25.9260  -27.9210 C   0  0  0  0  0  0  0  0  0  0  0  0
   -1.2280   26.7930  -29.0080 O   0  0  0  0  0  0  0  0  0  0  0  0
   -3.4740   25.1290  -29.9220 N   0  0  0  0  0  0  0  0  0  0  0  0
   -3.9940   24.4620  -30.9410 N   0  0  0  0  0  0  0  0  0  0  0  0
   -1.9920   21.3250  -32.1270 H   0  0  0  0  0  0  0  0  0  0  0  0
   -1.6237   19.9265  -34.1846 H   0  0  0  0  0  0  0  0  0  0  0  0
   -2.2219   17.8086  -35.3536 H   0  0  0  0  0  0  0  0  0  0  0  0
   -4.3094   16.5864  -34.7440 H   0  0  0  0  0  0  0  0  0  0  0  0
   -6.3025   19.7683  -33.1221 H   0  0  0  0  0  0  0  0  0  0  0  0
   -7.4711   19.5022  -34.4304 H   0  0  0  0  0  0  0  0  0  0  0  0
   -7.7216   21.4792  -32.4819 H   0  0  0  0  0  0  0  0  0  0  0  0
   -9.1026   20.8288  -33.3723 H   0  0  0  0  0  0  0  0  0  0  0  0
   -8.4664   20.5084  -30.5457 H   0  0  0  0  0  0  0  0  0  0  0  0
   -9.8720   19.8518  -31.3913 H   0  0  0  0  0  0  0  0  0  0  0  0
   -7.2610   18.5434  -30.7013 H   0  0  0  0  0  0  0  0  0  0  0  0
   -8.8342   17.7784  -31.0046 H   0  0  0  0  0  0  0  0  0  0  0  0
   -5.2023   19.5967  -31.7640 H   0  0  0  0  0  0  0  0  0  0  0  0
   -2.2401   22.1124  -29.4371 H   0  0  0  0  0  0  0  0  0  0  0  0
   -2.4284   22.8612  -26.9235 H   0  0  0  0  0  0  0  0  0  0  0  0
   -1.1872   23.5073  -24.8626 H   0  0  0  0  0  0  0  0  0  0  0  0
   -0.0063   25.7009  -24.7476 H   0  0  0  0  0  0  0  0  0  0  0  0
   -0.0463   27.2443  -26.7038 H   0  0  0  0  0  0  0  0  0  0  0  0
  1  2  2  0
  2  3  1  0
  3  4  1  0
  4  5  2  0
  5  6  1  0
  6  7  2  0
  7  8  1  0
  8  9  1  0
  9 10  2  0
  9 11  2  0
  9 12  1  0
 12 13  1  0
 13 14  1  0
 14 15  1  0
 15 16  1  0
  8 17  2  0
  2 18  1  0
 18 19  1  0
 19 20  2  0
 20 21  1  0
 21 22  2  0
 22 23  1  0
 23 24  2  0
 24 25  1  0
 25 26  2  0
 26 27  1  0
 20 28  1  0
 28 29  1  0
 17  4  1  0
 29 18  2  0
 16 12  1  0
 26 21  1  0
  3 30  1  0
  5 31  1  0
  6 32  1  0
  7 33  1  0
 13 34  1  0
 13 35  1  0
 14 36  1  0
 14 37  1  0
 15 38  1  0
 15 39  1  0
 16 40  1  0
 16 41  1  0
 17 42  1  0
 19 43  1  0
 22 44  1  0
 23 45  1  0
 24 46  1  0
 25 47  1  0
M  CHG  2  27  -1  28  -1
M  END
>  <UniqueID>  (8) 
8

>  <SMILES>  (8) 
O=C(Nc1cccc(S(=O)(=O)N2CCCC2)c1)c1cc(-c2ccccc2[O-])[n-]n1

>  <Energy>  (8) 
87.37809200671785

>  <Genealogy>  (8) 
O=C(Nc1cccc(S(=O)(=O)N2CCCC2)c1)c1cc(-c2ccccc2[O-])[n-]n1 (protonated)
O=C(Nc1cccc(S(=O)(=O)N2CCCC2)c1)c1cc(-c2ccccc2[O-])[n-]n1 (3D coordinates assigned)
O=C(Nc1cccc(S(=O)(=O)N2CCCC2)c1)c1cc(-c2ccccc2[O-])[n-]n1 (nonaromatic ring conformer: 87.37809200671785 kcal/mol)

>  <smiles>  (8) 
O=C(Nc1cccc(S(=O)(=O)N2CCCC2)c1)c1cc(-c2ccccc2O)[nH]n1

>  <score_type>  (8) 
oracle

>  <origin>  (8) 
adgpu

>  <m_score__min__energy>  (8) 
-14.43

>  <m_primary>  (8) 
energy

$$$$
8:0
     RDKit          3D

 56 60  0  0  0  0  0  0  0  0999 V2000
   -8.2130   22.2800  -30.0740 C   0  0  0  0  0  0  0  0  0  0  0  0
   -6.9730   23.0900  -30.3090 C   0  0  0  0  0  0  0  0  0  0  0  0
   -7.0650   24.4700  -30.5470 C   0  0  0  0  0  0  0  0  0  0  0  0
   -5.9070   25.2310  -30.7280 C   0  0  0  0  0  0  0  0  0  0  0  0
   -4.6480   24.6260  -30.6620 C   0  0  0  0  0  0  0  0  0  0  0  0
   -3.5060   25.3980  -30.8430 O   0  0  0  0  0  0  0  0  0  0  0  0
   -4.5460   23.2460  -30.4140 C   0  0  0  0  0  0  0  0  0  0  0  0
   -3.2190   22.5910  -30.3320 C   0  0  0  0  0  0  0  0  0  0  0  0
   -2.8100   21.7470  -31.3920 C   0  0  0  0  0  0  0  0  0  0  0  0
   -3.8460   21.4420  -32.8040 S   0  0  0  0  0  0  0  0  0  0  0  0
   -3.0710   20.6880  -33.8470 O   0  0  0  0  0  0  0  0  0  0  0  0
   -4.2960   22.7520  -33.3870 O   0  0  0  0  0  0  0  0  0  0  0  0
   -5.2710   20.4940  -32.3780 C   0  0  0  0  0  0  0  0  0  0  0  0
   -5.1290   19.2900  -31.6820 C   0  0  0  0  0  0  0  0  0  0  0  0
   -6.2560   18.5470  -31.3260 C   0  0  0  0  0  0  0  0  0  0  0  0
   -7.5440   18.9970  -31.6580 C   0  0  0  0  0  0  0  0  0  0  0  0
   -8.7400   18.1760  -31.2530 C   0  0  0  0  0  0  0  0  0  0  0  0
   -7.6940   20.2260  -32.3460 C   0  0  0  0  0  0  0  0  0  0  0  0
   -9.0560   20.7530  -32.7150 C   0  0  0  0  0  0  0  0  0  0  0  0
   -6.5500   20.9610  -32.7040 C   0  0  0  0  0  0  0  0  0  0  0  0
   -1.5580   21.1330  -31.3200 C   0  0  0  0  0  0  0  0  0  0  0  0
   -0.7490   21.3460  -30.2590 N   0  0  0  0  0  0  0  0  0  0  0  0
   -1.0900   22.1440  -29.2150 C   0  0  0  0  0  0  0  0  0  0  0  0
   -2.3500   22.7960  -29.2150 C   0  0  0  0  0  0  0  0  0  0  0  0
   -2.6770   23.6130  -28.1020 C   0  0  0  0  0  0  0  0  0  0  0  0
   -3.7870   24.2100  -28.0380 O   0  0  0  0  0  0  0  0  0  0  0  0
   -1.7610   23.7670  -27.0470 C   0  0  0  0  0  0  0  0  0  0  0  0
   -2.0620   24.5780  -25.9320 C   0  0  0  0  0  0  0  0  0  0  0  0
   -1.1430   24.7210  -24.8920 C   0  0  0  0  0  0  0  0  0  0  0  0
    0.0830   24.0620  -24.9470 C   0  0  0  0  0  0  0  0  0  0  0  0
    0.3980   23.2560  -26.0420 C   0  0  0  0  0  0  0  0  0  0  0  0
   -0.5170   23.0970  -27.1040 C   0  0  0  0  0  0  0  0  0  0  0  0
   -0.2110   22.3060  -28.1770 N   0  0  0  0  0  0  0  0  0  0  0  0
    1.0150   21.6600  -28.2010 O   0  0  0  0  0  0  0  0  0  0  0  0
   -5.7090   22.4860  -30.2250 C   0  0  0  0  0  0  0  0  0  0  0  0
   -8.3801   22.1708  -28.9923 H   0  0  0  0  0  0  0  0  0  0  0  0
   -9.0754   22.7894  -30.5287 H   0  0  0  0  0  0  0  0  0  0  0  0
   -8.0930   21.2856  -30.5287 H   0  0  0  0  0  0  0  0  0  0  0  0
   -8.0517   24.9542  -30.5912 H   0  0  0  0  0  0  0  0  0  0  0  0
   -5.9862   26.3106  -30.9232 H   0  0  0  0  0  0  0  0  0  0  0  0
   -4.1259   18.9268  -31.4139 H   0  0  0  0  0  0  0  0  0  0  0  0
   -6.1338   17.5999  -30.7801 H   0  0  0  0  0  0  0  0  0  0  0  0
   -8.8012   18.1340  -30.1555 H   0  0  0  0  0  0  0  0  0  0  0  0
   -9.6544   18.6377  -31.6539 H   0  0  0  0  0  0  0  0  0  0  0  0
   -8.6378   17.1567  -31.6539 H   0  0  0  0  0  0  0  0  0  0  0  0
   -9.6245   20.9730  -31.7993 H   0  0  0  0  0  0  0  0  0  0  0  0
   -8.9450   21.6731  -33.3076 H   0  0  0  0  0  0  0  0  0  0  0  0
   -9.5932   19.9978  -33.3076 H   0  0  0  0  0  0  0  0  0  0  0  0
   -6.6610   21.9121  -33.2454 H   0  0  0  0  0  0  0  0  0  0  0  0
   -1.2276   20.4705  -32.1336 H   0  0  0  0  0  0  0  0  0  0  0  0
   -3.0283   25.1013  -25.8825 H   0  0  0  0  0  0  0  0  0  0  0  0
   -1.3870   25.3553  -24.0271 H   0  0  0  0  0  0  0  0  0  0  0  0
    0.8049   24.1772  -24.1251 H   0  0  0  0  0  0  0  0  0  0  0  0
    1.3688   22.7399  -26.0773 H   0  0  0  0  0  0  0  0  0  0  0  0
    1.2670   20.9860  -28.9140 H   0  0  0  0  0  0  0  0  0  0  0  0
   -5.6302   21.4102  -30.0096 H   0  0  0  0  0  0  0  0  0  0  0  0
  1  2  1  0
  2  3  2  0
  3  4  1  0
  4  5  2  0
  5  6  1  0
  5  7  1  0
  7  8  1  0
  8  9  1  0
  9 10  1  0
 10 11  2  0
 10 12  2  0
 10 13  1  0
 13 14  2  0
 14 15  1  0
 15 16  2  0
 16 17  1  0
 16 18  1  0
 18 19  1  0
 18 20  2  0
  9 21  2  0
 21 22  1  0
 22 23  2  0
 23 24  1  0
 24 25  1  0
 25 26  2  0
 25 27  1  0
 27 28  2  0
 28 29  1  0
 29 30  2  0
 30 31  1  0
 31 32  2  0
 32 33  1  0
 33 34  1  0
  7 35  2  0
 35  2  1  0
 24  8  2  0
 32 27  1  0
 20 13  1  0
 33 23  1  0
  1 36  1  0
  1 37  1  0
  1 38  1  0
  3 39  1  0
  4 40  1  0
 14 41  1  0
 15 42  1  0
 17 43  1  0
 17 44  1  0
 17 45  1  0
 19 46  1  0
 19 47  1  0
 19 48  1  0
 20 49  1  0
 21 50  1  0
 28 51  1  0
 29 52  1  0
 30 53  1  0
 31 54  1  0
 34 55  1  0
 35 56  1  0
M  CHG  1   6  -1
M  END
>  <UniqueID>  (9) 
9

>  <SMILES>  (9) 
Cc1ccc([O-])c(-c2c(S(=O)(=O)c3ccc(C)c(C)c3)cnc3c2c(=O)c2ccccc2n3O)c1

>  <Energy>  (9) 
89.5126338310718

>  <Genealogy>  (9) 
Cc1ccc([O-])c(-c2c(S(=O)(=O)c3ccc(C)c(C)c3)cnc3c2c(=O)c2ccccc2n3O)c1 (protonated)
Cc1ccc([O-])c(-c2c(S(=O)(=O)c3ccc(C)c(C)c3)cnc3c2c(=O)c2ccccc2n3O)c1 (3D coordinates assigned)
Cc1ccc([O-])c(-c2c(S(=O)(=O)c3ccc(C)c(C)c3)cnc3c2c(=O)c2ccccc2n3O)c1 (optimized conformer: 89.5126338310718 kcal/mol)

>  <smiles>  (9) 
Cc1ccc(O)c(-c2c(S(=O)(=O)c3ccc(C)c(C)c3)cnc3c2c(=O)c2ccccc2n3O)c1

>  <score_type>  (9) 
oracle

>  <origin>  (9) 
adgpu

>  <m_score__min__energy>  (9) 
-13.220000000000001

>  <m_primary>  (9) 
energy

$$$$
9:0
     RDKit          3D

 50 53  0  0  0  0  0  0  0  0999 V2000
   -5.7500   16.2260  -32.2330 O   0  0  0  0  0  0  0  0  0  0  0  0
   -6.2460   17.0720  -33.3710 S   0  0  0  0  0  0  0  0  0  0  0  0
   -7.2570   16.2760  -34.1610 O   0  0  0  0  0  0  0  0  0  0  0  0
   -4.9080   17.5100  -34.3890 N   0  0  0  0  0  0  0  0  0  0  0  0
   -3.6690   18.0210  -33.8870 C   0  0  0  0  0  0  0  0  0  0  0  0
   -3.3050   19.3640  -34.0620 C   0  0  0  0  0  0  0  0  0  0  0  0
   -2.1150   19.8620  -33.5090 C   0  0  0  0  0  0  0  0  0  0  0  0
   -1.2430   18.9860  -32.8140 C   0  0  0  0  0  0  0  0  0  0  0  0
   -1.5910   17.6350  -32.6860 C   0  0  0  0  0  0  0  0  0  0  0  0
   -2.7980   17.1560  -33.2190 C   0  0  0  0  0  0  0  0  0  0  0  0
   -3.1390   15.8150  -33.0760 O   0  0  0  0  0  0  0  0  0  0  0  0
    0.0440   19.5020  -32.2020 C   0  0  0  0  0  0  0  0  0  0  0  0
    1.1170   19.9670  -33.2210 C   0  0  0  0  0  0  0  0  0  0  0  0
    0.8710   21.3310  -33.8940 C   0  0  0  0  0  0  0  0  0  0  0  0
   -0.4830   21.4300  -34.6320 C   0  0  0  0  0  0  0  0  0  0  0  0
   -1.7270   21.3010  -33.7350 C   0  0  0  0  0  0  0  0  0  0  0  0
   -6.9770   18.5420  -32.7170 C   0  0  0  0  0  0  0  0  0  0  0  0
   -8.3210   18.5210  -32.3150 C   0  0  0  0  0  0  0  0  0  0  0  0
   -8.8840   19.6440  -31.6980 C   0  0  0  0  0  0  0  0  0  0  0  0
   -8.1010   20.7810  -31.4530 C   0  0  0  0  0  0  0  0  0  0  0  0
   -6.7490   20.8100  -31.8400 C   0  0  0  0  0  0  0  0  0  0  0  0
   -5.8970   21.9770  -31.5020 C   0  0  0  0  0  0  0  0  0  0  0  0
   -4.4990   21.8420  -31.4180 C   0  0  0  0  0  0  0  0  0  0  0  0
   -3.7010   22.9430  -31.0790 C   0  0  0  0  0  0  0  0  0  0  0  0
   -4.2920   24.1830  -30.8130 C   0  0  0  0  0  0  0  0  0  0  0  0
   -3.5000   25.2730  -30.4680 O   0  0  0  0  0  0  0  0  0  0  0  0
   -5.6810   24.3250  -30.8920 C   0  0  0  0  0  0  0  0  0  0  0  0
   -6.4810   23.2290  -31.2370 C   0  0  0  0  0  0  0  0  0  0  0  0
   -6.2010   19.6930  -32.4960 C   0  0  0  0  0  0  0  0  0  0  0  0
   -3.9592   20.0343  -34.6389 H   0  0  0  0  0  0  0  0  0  0  0  0
   -0.9130   16.9441  -32.1636 H   0  0  0  0  0  0  0  0  0  0  0  0
   -4.0580   15.4740  -33.3300 H   0  0  0  0  0  0  0  0  0  0  0  0
   -0.2047   20.3564  -31.5553 H   0  0  0  0  0  0  0  0  0  0  0  0
    0.4856   18.6544  -31.6575 H   0  0  0  0  0  0  0  0  0  0  0  0
    2.0800   20.0226  -32.6923 H   0  0  0  0  0  0  0  0  0  0  0  0
    1.0891   19.2280  -34.0353 H   0  0  0  0  0  0  0  0  0  0  0  0
    0.9004   22.1103  -33.1182 H   0  0  0  0  0  0  0  0  0  0  0  0
    1.6578   21.4596  -34.6519 H   0  0  0  0  0  0  0  0  0  0  0  0
   -0.5259   22.4071  -35.1355 H   0  0  0  0  0  0  0  0  0  0  0  0
   -0.5164   20.5773  -35.3261 H   0  0  0  0  0  0  0  0  0  0  0  0
   -1.5131   21.7679  -32.7622 H   0  0  0  0  0  0  0  0  0  0  0  0
   -2.5644   21.8025  -34.2422 H   0  0  0  0  0  0  0  0  0  0  0  0
   -8.9320   17.6222  -32.4847 H   0  0  0  0  0  0  0  0  0  0  0  0
   -9.9440   19.6346  -31.4044 H   0  0  0  0  0  0  0  0  0  0  0  0
   -8.5464   21.6551  -30.9554 H   0  0  0  0  0  0  0  0  0  0  0  0
   -4.0301   20.8675  -31.6194 H   0  0  0  0  0  0  0  0  0  0  0  0
   -2.6081   22.8321  -31.0219 H   0  0  0  0  0  0  0  0  0  0  0  0
   -6.1459   25.2997  -30.6827 H   0  0  0  0  0  0  0  0  0  0  0  0
   -7.5727   23.3476  -31.3012 H   0  0  0  0  0  0  0  0  0  0  0  0
   -5.1562   19.7204  -32.8390 H   0  0  0  0  0  0  0  0  0  0  0  0
  1  2  2  0
  2  3  2  0
  2  4  1  0
  4  5  1  0
  5  6  2  0
  6  7  1  0
  7  8  2  0
  8  9  1  0
  9 10  2  0
 10 11  1  0
  8 12  1  0
 12 13  1  0
 13 14  1  0
 14 15  1  0
 15 16  1  0
  2 17  1  0
 17 18  2  0
 18 19  1  0
 19 20  2  0
 20 21  1  0
 21 22  1  0
 22 23  2  0
 23 24  1  0
 24 25  2  0
 25 26  1  0
 25 27  1  0
 27 28  2  0
 21 29  2  0
 10  5  1  0
 29 17  1  0
 16  7  1  0
 28 22  1  0
  6 30  1  0
  9 31  1  0
 11 32  1  0
 12 33  1  0
 12 34  1  0
 13 35  1  0
 13 36  1  0
 14 37  1  0
 14 38  1  0
 15 39  1  0
 15 40  1  0
 16 41  1  0
 16 42  1  0
 18 43  1  0
 19 44  1  0
 20 45  1  0
 23 46  1  0
 24 47  1  0
 27 48  1  0
 28 49  1  0
 29 50  1  0
M  CHG  2   4  -1  26  -1
M  END
>  <UniqueID>  (10) 
10

>  <SMILES>  (10) 
O=S(=O)([N-]c1cc2c(cc1O)CCCCC2)c1cccc(-c2ccc([O-])cc2)c1

>  <Energy>  (10) 
69.4540823786585

>  <Genealogy>  (10) 
O=S(=O)([N-]c1cc2c(cc1O)CCCCC2)c1cccc(-c2ccc([O-])cc2)c1 (protonated)
O=S(=O)([N-]c1cc2c(cc1O)CCCCC2)c1cccc(-c2ccc([O-])cc2)c1 (3D coordinates assigned)
O=S(=O)([N-]c1cc2c(cc1O)CCCCC2)c1cccc(-c2ccc([O-])cc2)c1 (nonaromatic ring conformer: 69.4540823786585 kcal/mol)

>  <smiles>  (10) 
O=S(=O)(Nc1cc2c(cc1O)CCCCC2)c1cccc(-c2ccc(O)cc2)c1

>  <score_type>  (10) 
oracle

>  <origin>  (10) 
adgpu

>  <m_score__min__energy>  (10) 
-10.25

>  <m_primary>  (10) 
energy

$$$$
10:0
     RDKit          3D

 40 42  0  0  0  0  0  0  0  0999 V2000
   -3.7950   22.1200  -33.4920 N   0  0  0  0  0  0  0  0  0  0  0  0
   -4.7270   20.9340  -32.6480 S   0  0  0  0  0  0  0  0  0  0  0  0
   -4.9080   19.7230  -33.5180 O   0  0  0  0  0  0  0  0  0  0  0  0
   -3.9910   20.5320  -31.4000 O   0  0  0  0  0  0  0  0  0  0  0  0
   -6.3100   21.6070  -32.2420 C   0  0  0  0  0  0  0  0  0  0  0  0
   -7.4440   20.7790  -32.2600 C   0  0  0  0  0  0  0  0  0  0  0  0
   -8.7000   21.2960  -31.9370 C   0  0  0  0  0  0  0  0  0  0  0  0
   -8.8350   22.6390  -31.5850 C   0  0  0  0  0  0  0  0  0  0  0  0
   -7.7150   23.4730  -31.5640 C   0  0  0  0  0  0  0  0  0  0  0  0
   -6.4460   22.9710  -31.9110 C   0  0  0  0  0  0  0  0  0  0  0  0
   -5.2770   23.8070  -31.8720 N   0  0  0  0  0  0  0  0  0  0  0  0
   -5.0650   24.9380  -31.0200 C   0  0  0  0  0  0  0  0  0  0  0  0
   -6.0010   25.7470  -30.7810 O   0  0  0  0  0  0  0  0  0  0  0  0
   -3.7680   25.1330  -30.4440 N   0  0  0  0  0  0  0  0  0  0  0  0
   -3.0860   24.2430  -29.5480 C   0  0  0  0  0  0  0  0  0  0  0  0
   -3.4990   22.9140  -29.3740 C   0  0  0  0  0  0  0  0  0  0  0  0
   -2.8190   22.0750  -28.4930 C   0  0  0  0  0  0  0  0  0  0  0  0
   -1.7350   22.5530  -27.7510 C   0  0  0  0  0  0  0  0  0  0  0  0
   -0.9070   21.4090  -26.6980 Cl  0  0  0  0  0  0  0  0  0  0  0  0
   -1.3340   23.9030  -27.8720 C   0  0  0  0  0  0  0  0  0  0  0  0
    0.0300   24.5380  -26.9270 S   0  0  0  0  0  0  0  0  0  0  0  0
    1.2250   24.7380  -27.8180 O   0  0  0  0  0  0  0  0  0  0  0  0
    0.4240   23.5630  -25.8510 O   0  0  0  0  0  0  0  0  0  0  0  0
   -0.4760   26.0690  -26.1480 C   0  0  0  0  0  0  0  0  0  0  0  0
   -1.9220   26.0780  -25.6830 C   0  0  0  0  0  0  0  0  0  0  0  0
   -0.7980   25.9860  -24.6630 C   0  0  0  0  0  0  0  0  0  0  0  0
   -2.0140   24.7360  -28.7890 C   0  0  0  0  0  0  0  0  0  0  0  0
   -1.6190   26.0580  -28.9690 O   0  0  0  0  0  0  0  0  0  0  0  0
   -4.4360   22.9160  -33.7060 H   0  0  0  0  0  0  0  0  0  0  0  0
   -7.3422   19.7175  -32.5300 H   0  0  0  0  0  0  0  0  0  0  0  0
   -9.5849   20.6430  -31.9601 H   0  0  0  0  0  0  0  0  0  0  0  0
   -9.8247   23.0416  -31.3237 H   0  0  0  0  0  0  0  0  0  0  0  0
   -7.8248   24.5285  -31.2746 H   0  0  0  0  0  0  0  0  0  0  0  0
   -4.3641   22.5319  -29.9358 H   0  0  0  0  0  0  0  0  0  0  0  0
   -3.1379   21.0282  -28.3806 H   0  0  0  0  0  0  0  0  0  0  0  0
    0.1616   26.7230  -26.7610 H   0  0  0  0  0  0  0  0  0  0  0  0
   -2.5191   26.9985  -25.7616 H   0  0  0  0  0  0  0  0  0  0  0  0
   -2.8156   25.4785  -25.9111 H   0  0  0  0  0  0  0  0  0  0  0  0
   -0.5813   26.8400  -24.0044 H   0  0  0  0  0  0  0  0  0  0  0  0
   -0.5410   25.2930  -23.8483 H   0  0  0  0  0  0  0  0  0  0  0  0
  1  2  1  0
  2  3  2  0
  2  4  2  0
  2  5  1  0
  5  6  2  0
  6  7  1  0
  7  8  2  0
  8  9  1  0
  9 10  2  0
 10 11  1  0
 11 12  1  0
 12 13  2  0
 12 14  1  0
 14 15  1  0
 15 16  2  0
 16 17  1  0
 17 18  2  0
 18 19  1  0
 18 20  1  0
 20 21  1  0
 21 22  2  0
 21 23  2  0
 21 24  1  0
 24 25  1  0
 25 26  1  0
 20 27  2  0
 27 28  1  0
 10  5  1  0
 27 15  1  0
 26 24  1  0
  1 29  1  0
  6 30  1  0
  7 31  1  0
  8 32  1  0
  9 33  1  0
 16 34  1  0
 17 35  1  0
 24 36  1  0
 25 37  1  0
 25 38  1  0
 26 39  1  0
 26 40  1  0
M  CHG  4   1  -1  11  -1  14  -1  28  -1
M  END
>  <UniqueID>  (11) 
11

>  <SMILES>  (11) 
[NH-]S(=O)(=O)c1ccccc1[N-]C(=O)[N-]c1ccc(Cl)c(S(=O)(=O)C2CC2)c1[O-]

>  <Energy>  (11) 
316.08591634305816

>  <Genealogy>  (11) 
[NH-]S(=O)(=O)c1ccccc1[N-]C(=O)[N-]c1ccc(Cl)c(S(=O)(=O)C2CC2)c1[O-] (protonated)
[NH-]S(=O)(=O)c1ccccc1[N-]C(=O)[N-]c1ccc(Cl)c(S(=O)(=O)C2CC2)c1[O-] (3D coordinates assigned)
[NH-]S(=O)(=O)c1ccccc1[N-]C(=O)[N-]c1ccc(Cl)c(S(=O)(=O)C2CC2)c1[O-] (nonaromatic ring conformer: 316.08591634305816 kcal/mol)

>  <smiles>  (11) 
NS(=O)(=O)c1ccccc1NC(=O)Nc1ccc(Cl)c(S(=O)(=O)C2CC2)c1O

>  <score_type>  (11) 
oracle

>  <origin>  (11) 
adgpu

>  <m_score__min__energy>  (11) 
-14.93

>  <m_primary>  (11) 
energy

$$$$
11:0
     RDKit          3D

 28 29  0  0  0  0  0  0  0  0999 V2000
   -8.9570   21.9030  -31.6860 C   0  0  0  0  0  0  0  0  0  0  0  0
   -7.4750   22.1100  -31.7820 C   0  0  0  0  0  0  0  0  0  0  0  0
   -6.7050   21.3160  -32.6460 C   0  0  0  0  0  0  0  0  0  0  0  0
   -5.3190   21.4860  -32.7080 C   0  0  0  0  0  0  0  0  0  0  0  0
   -4.6920   22.4400  -31.9010 C   0  0  0  0  0  0  0  0  0  0  0  0
   -5.4490   23.2260  -31.0230 C   0  0  0  0  0  0  0  0  0  0  0  0
   -4.6760   24.4310  -29.9970 S   0  0  0  0  0  0  0  0  0  0  0  0
   -4.1550   25.5440  -30.8630 O   0  0  0  0  0  0  0  0  0  0  0  0
   -5.6640   25.0070  -29.0200 O   0  0  0  0  0  0  0  0  0  0  0  0
   -3.3630   23.6710  -29.0980 C   0  0  0  0  0  0  0  0  0  0  0  0
   -3.5140   22.3710  -28.5920 C   0  0  0  0  0  0  0  0  0  0  0  0
   -2.4800   21.7720  -27.8650 C   0  0  0  0  0  0  0  0  0  0  0  0
   -2.6760   20.1460  -27.2360 Cl  0  0  0  0  0  0  0  0  0  0  0  0
   -1.2890   22.4700  -27.6380 C   0  0  0  0  0  0  0  0  0  0  0  0
   -1.1340   23.7660  -28.1340 C   0  0  0  0  0  0  0  0  0  0  0  0
   -2.1660   24.3710  -28.8610 C   0  0  0  0  0  0  0  0  0  0  0  0
   -1.9950   25.6650  -29.3410 O   0  0  0  0  0  0  0  0  0  0  0  0
   -6.8390   23.0540  -30.9600 C   0  0  0  0  0  0  0  0  0  0  0  0
   -9.2536   21.8616  -30.6276 H   0  0  0  0  0  0  0  0  0  0  0  0
   -9.4765   22.7373  -32.1800 H   0  0  0  0  0  0  0  0  0  0  0  0
   -9.2280   20.9583  -32.1800 H   0  0  0  0  0  0  0  0  0  0  0  0
   -7.1935   20.5580  -33.2760 H   0  0  0  0  0  0  0  0  0  0  0  0
   -4.7203   20.8679  -33.3932 H   0  0  0  0  0  0  0  0  0  0  0  0
   -3.6015   22.5736  -31.9557 H   0  0  0  0  0  0  0  0  0  0  0  0
   -4.4499   21.8204  -28.7679 H   0  0  0  0  0  0  0  0  0  0  0  0
   -0.4747   21.9979  -27.0688 H   0  0  0  0  0  0  0  0  0  0  0  0
   -0.1974   24.3137  -27.9528 H   0  0  0  0  0  0  0  0  0  0  0  0
   -7.4344   23.6618  -30.2629 H   0  0  0  0  0  0  0  0  0  0  0  0
  1  2  1  0
  2  3  2  0
  3  4  1  0
  4  5  2  0
  5  6  1  0
  6  7  1  0
  7  8  2  0
  7  9  2  0
  7 10  1  0
 10 11  2  0
 11 12  1  0
 12 13  1  0
 12 14  2  0
 14 15  1  0
 15 16  2  0
 16 17  1  0
  6 18  2  0
 18  2  1  0
 16 10  1  0
  1 19  1  0
  1 20  1  0
  1 21  1  0
  3 22  1  0
  4 23  1  0
  5 24  1  0
 11 25  1  0
 14 26  1  0
 15 27  1  0
 18 28  1  0
M  CHG  1  17  -1
M  END
>  <UniqueID>  (12) 
12

>  <SMILES>  (12) 
Cc1cccc(S(=O)(=O)c2cc(Cl)ccc2[O-])c1

>  <Energy>  (12) 
30.40438992626345

>  <Genealogy>  (12) 
Cc1cccc(S(=O)(=O)c2cc(Cl)ccc2[O-])c1 (protonated)
Cc1cccc(S(=O)(=O)c2cc(Cl)ccc2[O-])c1 (3D coordinates assigned)
Cc1cccc(S(=O)(=O)c2cc(Cl)ccc2[O-])c1 (optimized conformer: 30.40438992626345 kcal/mol)

>  <smiles>  (12) 
Cc1cccc(S(=O)(=O)c2cc(Cl)ccc2O)c1

>  <score_type>  (12) 
oracle

>  <origin>  (12) 
adgpu

>  <m_score__min__energy>  (12) 
-11.210000000000001

>  <m_primary>  (12) 
energy

$$$$
12:0
     RDKit          3D

 53 55  0  0  0  0  0  0  0  0999 V2000
   -0.4470   27.1880  -23.7320 C   0  0  0  0  0  0  0  0  0  0  0  0
   -0.8510   27.5480  -25.1310 C   0  0  0  0  0  0  0  0  0  0  0  0
   -0.8100   28.7600  -25.4740 O   0  0  0  0  0  0  0  0  0  0  0  0
   -1.2950   26.5190  -26.1110 C   0  0  0  0  0  0  0  0  0  0  0  0
   -2.3810   25.6790  -25.8070 C   0  0  0  0  0  0  0  0  0  0  0  0
   -2.8100   24.7080  -26.7160 C   0  0  0  0  0  0  0  0  0  0  0  0
   -2.1640   24.5530  -27.9520 C   0  0  0  0  0  0  0  0  0  0  0  0
   -2.6070   23.5510  -28.8900 N   0  0  0  0  0  0  0  0  0  0  0  0
   -4.0330   23.1900  -28.9230 C   0  0  0  0  0  0  0  0  0  0  0  0
   -4.3070   22.1160  -29.9720 C   0  0  0  0  0  0  0  0  0  0  0  0
   -3.5530   22.4510  -31.1860 N   0  0  0  0  0  0  0  0  0  0  0  0
   -4.1200   21.5430  -32.5770 S   0  0  0  0  0  0  0  0  0  0  0  0
   -3.7740   22.3110  -33.8210 O   0  0  0  0  0  0  0  0  0  0  0  0
   -3.3900   20.2290  -32.6720 O   0  0  0  0  0  0  0  0  0  0  0  0
   -5.8790   21.2000  -32.4980 C   0  0  0  0  0  0  0  0  0  0  0  0
   -6.4290   19.9010  -32.6340 C   0  0  0  0  0  0  0  0  0  0  0  0
   -5.5470   18.7260  -33.0140 C   0  0  0  0  0  0  0  0  0  0  0  0
   -7.7710   19.7080  -32.3830 N   0  0  0  0  0  0  0  0  0  0  0  0
   -8.3420   18.3450  -32.3450 C   0  0  0  0  0  0  0  0  0  0  0  0
   -8.6030   20.7860  -32.2020 C   0  0  0  0  0  0  0  0  0  0  0  0
   -9.8440   20.6020  -32.0450 O   0  0  0  0  0  0  0  0  0  0  0  0
   -8.1060   22.0600  -32.1930 N   0  0  0  0  0  0  0  0  0  0  0  0
   -9.0150   23.2020  -31.9820 C   0  0  0  0  0  0  0  0  0  0  0  0
   -6.7590   22.2710  -32.2830 C   0  0  0  0  0  0  0  0  0  0  0  0
   -6.2990   23.4430  -32.1800 O   0  0  0  0  0  0  0  0  0  0  0  0
   -2.1050   22.2510  -30.9780 C   0  0  0  0  0  0  0  0  0  0  0  0
   -1.6160   22.7170  -29.5880 C   0  0  0  0  0  0  0  0  0  0  0  0
   -1.0800   25.3920  -28.2610 C   0  0  0  0  0  0  0  0  0  0  0  0
   -0.6500   26.3630  -27.3530 C   0  0  0  0  0  0  0  0  0  0  0  0
   -1.0704   27.7435  -23.0159 H   0  0  0  0  0  0  0  0  0  0  0  0
   -0.5847   26.1077  -23.5771 H   0  0  0  0  0  0  0  0  0  0  0  0
    0.6103   27.4488  -23.5771 H   0  0  0  0  0  0  0  0  0  0  0  0
   -2.8988   25.7874  -24.8426 H   0  0  0  0  0  0  0  0  0  0  0  0
   -3.6612   24.0598  -26.4604 H   0  0  0  0  0  0  0  0  0  0  0  0
   -4.3297   22.8097  -27.9344 H   0  0  0  0  0  0  0  0  0  0  0  0
   -4.6132   24.0874  -29.1839 H   0  0  0  0  0  0  0  0  0  0  0  0
   -3.9839   21.1353  -29.5928 H   0  0  0  0  0  0  0  0  0  0  0  0
   -5.3831   22.0719  -30.1956 H   0  0  0  0  0  0  0  0  0  0  0  0
   -5.1780   18.2344  -32.1018 H   0  0  0  0  0  0  0  0  0  0  0  0
   -6.1301   18.0068  -33.6078 H   0  0  0  0  0  0  0  0  0  0  0  0
   -4.6935   19.0851  -33.6078 H   0  0  0  0  0  0  0  0  0  0  0  0
   -8.4733   18.0315  -31.2988 H   0  0  0  0  0  0  0  0  0  0  0  0
   -9.3172   18.3417  -32.8540 H   0  0  0  0  0  0  0  0  0  0  0  0
   -7.6604   17.6476  -32.8540 H   0  0  0  0  0  0  0  0  0  0  0  0
   -9.1486   23.3698  -30.9031 H   0  0  0  0  0  0  0  0  0  0  0  0
   -8.5845   24.1033  -32.4428 H   0  0  0  0  0  0  0  0  0  0  0  0
   -9.9899   22.9846  -32.4428 H   0  0  0  0  0  0  0  0  0  0  0  0
   -1.8818   21.1792  -31.0852 H   0  0  0  0  0  0  0  0  0  0  0  0
   -1.5811   22.8611  -31.7286 H   0  0  0  0  0  0  0  0  0  0  0  0
   -1.4062   21.8297  -28.9726 H   0  0  0  0  0  0  0  0  0  0  0  0
   -0.7140   23.3280  -29.7397 H   0  0  0  0  0  0  0  0  0  0  0  0
   -0.5650   25.2833  -29.2269 H   0  0  0  0  0  0  0  0  0  0  0  0
    0.2002   27.0116  -27.6107 H   0  0  0  0  0  0  0  0  0  0  0  0
  1  2  1  0
  2  3  2  0
  2  4  1  0
  4  5  2  0
  5  6  1  0
  6  7  2  0
  7  8  1  0
  8  9  1  0
  9 10  1  0
 10 11  1  0
 11 12  1  0
 12 13  2  0
 12 14  2  0
 12 15  1  0
 15 16  2  0
 16 17  1  0
 16 18  1  0
 18 19  1  0
 18 20  1  0
 20 21  2  0
 20 22  1  0
 22 23  1  0
 22 24  1  0
 24 25  2  0
 11 26  1  0
 26 27  1  0
  7 28  1  0
 28 29  2  0
 29  4  1  0
 27  8  1  0
 24 15  1  0
  1 30  1  0
  1 31  1  0
  1 32  1  0
  5 33  1  0
  6 34  1  0
  9 35  1  0
  9 36  1  0
 10 37  1  0
 10 38  1  0
 17 39  1  0
 17 40  1  0
 17 41  1  0
 19 42  1  0
 19 43  1  0
 19 44  1  0
 23 45  1  0
 23 46  1  0
 23 47  1  0
 26 48  1  0
 26 49  1  0
 27 50  1  0
 27 51  1  0
 28 52  1  0
 29 53  1  0
M  END
>  <UniqueID>  (13) 
13

>  <SMILES>  (13) 
CC(=O)c1ccc(N2CCN(S(=O)(=O)c3c(C)n(C)c(=O)n(C)c3=O)CC2)cc1

>  <Energy>  (13) 
80.07872097756866

>  <Genealogy>  (13) 
CC(=O)c1ccc(N2CCN(S(=O)(=O)c3c(C)n(C)c(=O)n(C)c3=O)CC2)cc1 (3D coordinates assigned)
CC(=O)c1ccc(N2CCN(S(=O)(=O)c3c(C)n(C)c(=O)n(C)c3=O)CC2)cc1 (nonaromatic ring conformer: 80.07872097756866 kcal/mol)

>  <smiles>  (13) 
CC(=O)c1ccc(N2CCN(S(=O)(=O)c3c(C)n(C)c(=O)n(C)c3=O)CC2)cc1

>  <score_type>  (13) 
oracle

>  <origin>  (13) 
adgpu

>  <m_score__min__energy>  (13) 
-8.9299999999999997

>  <m_primary>  (13) 
energy

$$$$
13:0
     RDKit          3D

 31 33  0  0  0  0  0  0  0  0999 V2000
    1.4389   18.3280  -31.1422 H   0  0  0  0  0  0  0  0  0  0  0  0
    1.0860   18.6670  -30.1570 C   0  0  0  0  0  0  0  0  0  0  0  0
    1.6370   17.9720  -28.9670 C   0  0  0  0  0  0  0  0  0  0  0  0
    1.1300   16.7820  -28.5380 N   0  0  0  0  0  0  0  0  0  0  0  0
    1.6220   16.1290  -27.4500 C   0  0  0  0  0  0  0  0  0  0  0  0
    1.0230   14.8250  -27.0310 C   0  0  0  0  0  0  0  0  0  0  0  0
    0.9974   14.7693  -25.9327 H   0  0  0  0  0  0  0  0  0  0  0  0
   -0.0007   14.7480  -27.4260 H   0  0  0  0  0  0  0  0  0  0  0  0
    1.6316   13.9982  -27.4260 H   0  0  0  0  0  0  0  0  0  0  0  0
    2.6880   16.6830  -26.7330 C   0  0  0  0  0  0  0  0  0  0  0  0
    3.0950   16.1644  -25.8524 H   0  0  0  0  0  0  0  0  0  0  0  0
    3.2290   17.9000  -27.1470 C   0  0  0  0  0  0  0  0  0  0  0  0
    4.0673   18.3469  -26.5924 H   0  0  0  0  0  0  0  0  0  0  0  0
    2.7060   18.5500  -28.2650 C   0  0  0  0  0  0  0  0  0  0  0  0
    3.1292   19.5104  -28.5946 H   0  0  0  0  0  0  0  0  0  0  0  0
    0.1950   19.6730  -30.1400 C   0  0  0  0  0  0  0  0  0  0  0  0
   -0.5090   20.3970  -28.7870 S   0  0  0  0  0  0  0  0  0  0  0  0
   -1.4390   21.4850  -29.6740 C   0  0  0  0  0  0  0  0  0  0  0  0
   -2.2490   22.3940  -29.1080 C   0  0  0  0  0  0  0  0  0  0  0  0
   -2.2260   22.4780  -28.0115 H   0  0  0  0  0  0  0  0  0  0  0  0
   -3.1660   23.2880  -29.8360 C   0  0  0  0  0  0  0  0  0  0  0  0
   -4.6500   22.8560  -30.5160 S   0  0  0  0  0  0  0  0  0  0  0  0
   -5.0470   24.4480  -30.8740 C   0  0  0  0  0  0  0  0  0  0  0  0
   -6.1100   24.8030  -31.4490 O   0  0  0  0  0  0  0  0  0  0  0  0
   -4.1050   25.3220  -30.4670 N   0  0  0  0  0  0  0  0  0  0  0  0
   -3.0660   24.6780  -29.8730 C   0  0  0  0  0  0  0  0  0  0  0  0
   -1.9860   25.3710  -29.3410 O   0  0  0  0  0  0  0  0  0  0  0  0
   -1.1490   21.2660  -31.0280 C   0  0  0  0  0  0  0  0  0  0  0  0
   -1.6200   21.9580  -31.9670 O   0  0  0  0  0  0  0  0  0  0  0  0
   -0.2620   20.2620  -31.2710 N   0  0  0  0  0  0  0  0  0  0  0  0
    0.0450   19.9950  -32.2350 H   0  0  0  0  0  0  0  0  0  0  0  0
  1  2  1  0
  2  3  1  0
  3  4  2  0
  4  5  1  0
  5  6  1  0
  6  7  1  0
  6  8  1  0
  6  9  1  0
  5 10  2  0
 10 11  1  0
 10 12  1  0
 12 13  1  0
 12 14  2  0
 14 15  1  0
  2 16  2  3
 16 17  1  0
 17 18  1  0
 18 19  2  0
 19 20  1  0
 19 21  1  0
 21 22  1  0
 22 23  1  0
 23 24  2  0
 23 25  1  0
 25 26  1  0
 26 27  1  0
 18 28  1  0
 28 29  2  0
 28 30  1  0
 30 31  1  0
 14  3  1  0
 30 16  1  0
 26 21  2  0
M  CHG  2  25  -1  27  -1
M  END
>  <UniqueID>  (14) 
14

>  <SMILES>  (14) 
Cc1cccc(C=c2[nH]c(=O)/c(=C\c3sc(=O)[n-]c3[O-])s2)n1

>  <Energy>  (14) 
105.29771816070262

>  <Genealogy>  (14) 
Cc1cccc(C=c2[nH]c(=O)c(=Cc3sc(=O)[n-]c3[O-])s2)n1 (protonated)
Cc1cccc(C=c2[nH]c(=O)/c(=C\c3sc(=O)[n-]c3[O-])s2)n1 (cis-trans isomerization)
Cc1cccc(C=c2[nH]c(=O)/c(=C\c3sc(=O)[n-]c3[O-])s2)n1 (3D coordinates assigned)
Cc1cccc(C=c2[nH]c(=O)/c(=C\c3sc(=O)[n-]c3[O-])s2)n1 (optimized conformer: 105.29771816070262 kcal/mol)

>  <smiles>  (14) 
Cc1cccc(C=c2[nH]c(=O)c(=Cc3sc(=O)[nH]c3O)s2)n1

>  <score_type>  (14) 
oracle

>  <origin>  (14) 
adgpu

>  <m_score__min__energy>  (14) 
-12.369999999999999

>  <m_primary>  (14) 
energy

$$$$
14:0
     RDKit          3D

 46 48  0  0  0  0  0  0  0  0999 V2000
   -0.5520   22.2560  -28.6410 C   0  0  0  0  0  0  0  0  0  0  0  0
   -1.6980   22.6090  -27.2720 S   0  0  0  0  0  0  0  0  0  0  0  0
   -1.1100   24.2950  -27.0550 C   0  0  0  0  0  0  0  0  0  0  0  0
   -0.4190   24.6200  -25.8810 C   0  0  0  0  0  0  0  0  0  0  0  0
    0.0400   25.9230  -25.6700 C   0  0  0  0  0  0  0  0  0  0  0  0
   -0.1840   26.9070  -26.6340 C   0  0  0  0  0  0  0  0  0  0  0  0
   -0.8700   26.5920  -27.8090 C   0  0  0  0  0  0  0  0  0  0  0  0
   -1.3500   25.2880  -28.0290 C   0  0  0  0  0  0  0  0  0  0  0  0
   -2.0340   24.9600  -29.2510 N   0  0  0  0  0  0  0  0  0  0  0  0
   -3.4390   24.6890  -29.3250 C   0  0  0  0  0  0  0  0  0  0  0  0
   -4.1140   24.5320  -28.2700 O   0  0  0  0  0  0  0  0  0  0  0  0
   -4.0490   24.5100  -30.6090 N   0  0  0  0  0  0  0  0  0  0  0  0
   -5.0770   23.5650  -30.9410 C   0  0  0  0  0  0  0  0  0  0  0  0
   -6.3930   23.9660  -31.2370 C   0  0  0  0  0  0  0  0  0  0  0  0
   -7.3600   23.0140  -31.5760 C   0  0  0  0  0  0  0  0  0  0  0  0
   -7.0260   21.6540  -31.6300 C   0  0  0  0  0  0  0  0  0  0  0  0
   -8.2480   20.4540  -32.0640 S   0  0  0  0  0  0  0  0  0  0  0  0
   -9.4100   21.1510  -32.7150 O   0  0  0  0  0  0  0  0  0  0  0  0
   -8.7480   19.7900  -30.8110 O   0  0  0  0  0  0  0  0  0  0  0  0
   -7.6400   19.2290  -33.1520 N   0  0  0  0  0  0  0  0  0  0  0  0
   -7.2470   18.0120  -32.4440 C   0  0  0  0  0  0  0  0  0  0  0  0
   -6.2060   17.3270  -33.3160 C   0  0  0  0  0  0  0  0  0  0  0  0
   -5.6810   18.4110  -34.2450 C   0  0  0  0  0  0  0  0  0  0  0  0
   -6.4440   19.6720  -33.8650 C   0  0  0  0  0  0  0  0  0  0  0  0
   -5.7070   21.2580  -31.3690 C   0  0  0  0  0  0  0  0  0  0  0  0
   -4.7400   22.2100  -31.0310 C   0  0  0  0  0  0  0  0  0  0  0  0
    0.4245   21.9552  -28.2335 H   0  0  0  0  0  0  0  0  0  0  0  0
   -0.9583   21.4414  -29.2585 H   0  0  0  0  0  0  0  0  0  0  0  0
   -0.4295   23.1581  -29.2585 H   0  0  0  0  0  0  0  0  0  0  0  0
   -0.2366   23.8458  -25.1212 H   0  0  0  0  0  0  0  0  0  0  0  0
    0.5780   26.1731  -24.7438 H   0  0  0  0  0  0  0  0  0  0  0  0
    0.1801   27.9317  -26.4682 H   0  0  0  0  0  0  0  0  0  0  0  0
   -1.0364   27.3699  -28.5687 H   0  0  0  0  0  0  0  0  0  0  0  0
   -1.4770   24.8570  -30.1280 H   0  0  0  0  0  0  0  0  0  0  0  0
   -6.6622   25.0320  -31.2016 H   0  0  0  0  0  0  0  0  0  0  0  0
   -8.3879   23.3344  -31.8014 H   0  0  0  0  0  0  0  0  0  0  0  0
   -6.8162   18.2641  -31.4637 H   0  0  0  0  0  0  0  0  0  0  0  0
   -8.1123   17.3567  -32.2655 H   0  0  0  0  0  0  0  0  0  0  0  0
   -5.3914   16.9227  -32.6972 H   0  0  0  0  0  0  0  0  0  0  0  0
   -6.6328   16.4809  -33.8745 H   0  0  0  0  0  0  0  0  0  0  0  0
   -4.6006   18.5552  -34.0966 H   0  0  0  0  0  0  0  0  0  0  0  0
   -5.8253   18.1484  -35.3034 H   0  0  0  0  0  0  0  0  0  0  0  0
   -5.8268   20.3090  -33.2144 H   0  0  0  0  0  0  0  0  0  0  0  0
   -6.7053   20.2642  -34.7544 H   0  0  0  0  0  0  0  0  0  0  0  0
   -5.4316   20.1948  -31.4302 H   0  0  0  0  0  0  0  0  0  0  0  0
   -3.7058   21.8909  -30.8343 H   0  0  0  0  0  0  0  0  0  0  0  0
  1  2  1  0
  2  3  1  0
  3  4  2  0
  4  5  1  0
  5  6  2  0
  6  7  1  0
  7  8  2  0
  8  9  1  0
  9 10  1  0
 10 11  2  0
 10 12  1  0
 12 13  1  0
 13 14  2  0
 14 15  1  0
 15 16  2  0
 16 17  1  0
 17 18  2  0
 17 19  2  0
 17 20  1  0
 20 21  1  0
 21 22  1  0
 22 23  1  0
 23 24  1  0
 16 25  1  0
 25 26  2  0
  8  3  1  0
 26 13  1  0
 24 20  1  0
  1 27  1  0
  1 28  1  0
  1 29  1  0
  4 30  1  0
  5 31  1  0
  6 32  1  0
  7 33  1  0
  9 34  1  0
 14 35  1  0
 15 36  1  0
 21 37  1  0
 21 38  1  0
 22 39  1  0
 22 40  1  0
 23 41  1  0
 23 42  1  0
 24 43  1  0
 24 44  1  0
 25 45  1  0
 26 46  1  0
M  CHG  1  12  -1
M  END
>  <UniqueID>  (15) 
15

>  <SMILES>  (15) 
CSc1ccccc1NC(=O)[N-]c1ccc(S(=O)(=O)N2CCCC2)cc1

>  <Energy>  (15) 
51.3949309391364

>  <Genealogy>  (15) 
CSc1ccccc1NC(=O)[N-]c1ccc(S(=O)(=O)N2CCCC2)cc1 (protonated)
CSc1ccccc1NC(=O)[N-]c1ccc(S(=O)(=O)N2CCCC2)cc1 (3D coordinates assigned)
CSc1ccccc1NC(=O)[N-]c1ccc(S(=O)(=O)N2CCCC2)cc1 (nonaromatic ring conformer: 51.3949309391364 kcal/mol)

>  <smiles>  (15) 
CSc1ccccc1NC(=O)Nc1ccc(S(=O)(=O)N2CCCC2)cc1

>  <score_type>  (15) 
oracle

>  <origin>  (15) 
adgpu

>  <m_score__min__energy>  (15) 
-11.09

>  <m_primary>  (15) 
energy

$$$$
15:0
     RDKit          3D

 39 41  0  0  0  0  0  0  0  0999 V2000
   -4.6840   17.1850  -34.4420 C   0  0  0  0  0  0  0  0  0  0  0  0
   -4.7150   18.5670  -33.8760 C   0  0  0  0  0  0  0  0  0  0  0  0
   -3.6910   19.4350  -33.9670 N   0  0  0  0  0  0  0  0  0  0  0  0
   -4.0840   20.5490  -33.4220 O   0  0  0  0  0  0  0  0  0  0  0  0
   -5.3190   20.4600  -32.9780 C   0  0  0  0  0  0  0  0  0  0  0  0
   -6.0250   21.5780  -32.3160 C   0  0  0  0  0  0  0  0  0  0  0  0
   -7.4210   21.7150  -32.3890 C   0  0  0  0  0  0  0  0  0  0  0  0
   -8.0600   22.7790  -31.7470 C   0  0  0  0  0  0  0  0  0  0  0  0
   -7.3160   23.7110  -31.0210 C   0  0  0  0  0  0  0  0  0  0  0  0
   -5.9250   23.5770  -30.9260 C   0  0  0  0  0  0  0  0  0  0  0  0
   -4.9850   24.7530  -30.0130 S   0  0  0  0  0  0  0  0  0  0  0  0
   -3.8990   25.3410  -30.8710 O   0  0  0  0  0  0  0  0  0  0  0  0
   -5.8970   25.8530  -29.5510 O   0  0  0  0  0  0  0  0  0  0  0  0
   -4.2640   24.0010  -28.6260 N   0  0  0  0  0  0  0  0  0  0  0  0
   -2.9390   23.4510  -28.5710 C   0  0  0  0  0  0  0  0  0  0  0  0
   -2.7150   22.0890  -28.2970 C   0  0  0  0  0  0  0  0  0  0  0  0
   -1.4130   21.5830  -28.2410 C   0  0  0  0  0  0  0  0  0  0  0  0
   -0.3250   22.4270  -28.4590 C   0  0  0  0  0  0  0  0  0  0  0  0
   -0.5340   23.7790  -28.7360 C   0  0  0  0  0  0  0  0  0  0  0  0
   -1.8330   24.2980  -28.7940 C   0  0  0  0  0  0  0  0  0  0  0  0
   -2.0020   25.6550  -29.0710 O   0  0  0  0  0  0  0  0  0  0  0  0
   -5.2860   22.5030  -31.5600 C   0  0  0  0  0  0  0  0  0  0  0  0
   -5.7910   19.1890  -33.2700 C   0  0  0  0  0  0  0  0  0  0  0  0
   -7.1530   18.6110  -33.0310 C   0  0  0  0  0  0  0  0  0  0  0  0
   -4.6676   16.4529  -33.6212 H   0  0  0  0  0  0  0  0  0  0  0  0
   -5.5787   17.0221  -35.0608 H   0  0  0  0  0  0  0  0  0  0  0  0
   -3.7829   17.0623  -35.0608 H   0  0  0  0  0  0  0  0  0  0  0  0
   -8.0141   20.9811  -32.9543 H   0  0  0  0  0  0  0  0  0  0  0  0
   -9.1531   22.8826  -31.8139 H   0  0  0  0  0  0  0  0  0  0  0  0
   -7.8225   24.5511  -30.5233 H   0  0  0  0  0  0  0  0  0  0  0  0
   -3.5698   21.4182  -28.1258 H   0  0  0  0  0  0  0  0  0  0  0  0
   -1.2467   20.5174  -28.0246 H   0  0  0  0  0  0  0  0  0  0  0  0
    0.6987   22.0272  -28.4127 H   0  0  0  0  0  0  0  0  0  0  0  0
    0.3273   24.4408  -28.9098 H   0  0  0  0  0  0  0  0  0  0  0  0
   -2.8940   26.0460  -29.3480 H   0  0  0  0  0  0  0  0  0  0  0  0
   -4.1967   22.3833  -31.4649 H   0  0  0  0  0  0  0  0  0  0  0  0
   -7.3340   18.5342  -31.9487 H   0  0  0  0  0  0  0  0  0  0  0  0
   -7.9132   19.2641  -33.4844 H   0  0  0  0  0  0  0  0  0  0  0  0
   -7.2115   17.6105  -33.4844 H   0  0  0  0  0  0  0  0  0  0  0  0
  1  2  1  0
  2  3  2  0
  3  4  1  0
  4  5  1  0
  5  6  1  0
  6  7  2  0
  7  8  1  0
  8  9  2  0
  9 10  1  0
 10 11  1  0
 11 12  2  0
 11 13  2  0
 11 14  1  0
 14 15  1  0
 15 16  2  0
 16 17  1  0
 17 18  2  0
 18 19  1  0
 19 20  2  0
 20 21  1  0
 10 22  2  0
  5 23  2  0
 23 24  1  0
 23  2  1  0
 22  6  1  0
 20 15  1  0
  1 25  1  0
  1 26  1  0
  1 27  1  0
  7 28  1  0
  8 29  1  0
  9 30  1  0
 16 31  1  0
 17 32  1  0
 18 33  1  0
 19 34  1  0
 21 35  1  0
 22 36  1  0
 24 37  1  0
 24 38  1  0
 24 39  1  0
M  CHG  1  14  -1
M  END
>  <UniqueID>  (16) 
16

>  <SMILES>  (16) 
Cc1noc(-c2cccc(S(=O)(=O)[N-]c3ccccc3O)c2)c1C

>  <Energy>  (16) 
77.16396547790207

>  <Genealogy>  (16) 
Cc1noc(-c2cccc(S(=O)(=O)[N-]c3ccccc3O)c2)c1C (protonated)
Cc1noc(-c2cccc(S(=O)(=O)[N-]c3ccccc3O)c2)c1C (3D coordinates assigned)
Cc1noc(-c2cccc(S(=O)(=O)[N-]c3ccccc3O)c2)c1C (optimized conformer: 77.16396547790207 kcal/mol)

>  <smiles>  (16) 
Cc1noc(-c2cccc(S(=O)(=O)Nc3ccccc3O)c2)c1C

>  <score_type>  (16) 
oracle

>  <origin>  (16) 
adgpu

>  <m_score__min__energy>  (16) 
-10.949999999999999

>  <m_primary>  (16) 
energy

$$$$
16:0
     RDKit          3D

 58 61  0  0  0  0  0  0  0  0999 V2000
   -2.1530   24.5820  -26.6990 C   0  0  0  0  0  0  0  0  0  0  0  0
   -1.8100   23.5490  -27.7360 C   0  0  0  0  0  0  0  0  0  0  0  0
   -1.1550   22.3720  -27.3470 C   0  0  0  0  0  0  0  0  0  0  0  0
   -0.8420   21.3870  -28.2870 C   0  0  0  0  0  0  0  0  0  0  0  0
   -1.1590   21.5700  -29.6340 C   0  0  0  0  0  0  0  0  0  0  0  0
   -0.7070   20.3470  -30.8230 S   0  0  0  0  0  0  0  0  0  0  0  0
    0.6180   20.7240  -31.4270 O   0  0  0  0  0  0  0  0  0  0  0  0
   -0.5340   19.0220  -30.1320 O   0  0  0  0  0  0  0  0  0  0  0  0
   -1.9040   20.1600  -32.0880 N   0  0  0  0  0  0  0  0  0  0  0  0
   -1.7860   18.8610  -32.7600 C   0  0  0  0  0  0  0  0  0  0  0  0
   -1.1460   19.0760  -34.1290 C   0  0  0  0  0  0  0  0  0  0  0  0
   -0.9530   20.5710  -34.2670 C   0  0  0  0  0  0  0  0  0  0  0  0
   -1.7420   21.1830  -33.1250 C   0  0  0  0  0  0  0  0  0  0  0  0
   -1.8060   22.7460  -30.0360 C   0  0  0  0  0  0  0  0  0  0  0  0
   -2.1270   23.7390  -29.1010 C   0  0  0  0  0  0  0  0  0  0  0  0
   -2.7900   24.9260  -29.5550 N   0  0  0  0  0  0  0  0  0  0  0  0
   -3.9030   24.9140  -30.4540 C   0  0  0  0  0  0  0  0  0  0  0  0
   -4.6840   25.8960  -30.4790 O   0  0  0  0  0  0  0  0  0  0  0  0
   -4.1670   23.7880  -31.2980 N   0  0  0  0  0  0  0  0  0  0  0  0
   -5.4550   23.1660  -31.3830 C   0  0  0  0  0  0  0  0  0  0  0  0
   -6.5940   23.9490  -31.1950 C   0  0  0  0  0  0  0  0  0  0  0  0
   -7.8620   23.3990  -31.3680 C   0  0  0  0  0  0  0  0  0  0  0  0
   -8.0200   22.0440  -31.7060 C   0  0  0  0  0  0  0  0  0  0  0  0
   -9.4180   21.5190  -31.9030 C   0  0  0  0  0  0  0  0  0  0  0  0
   -6.8710   21.2120  -31.8080 C   0  0  0  0  0  0  0  0  0  0  0  0
   -6.9910   19.4580  -32.1000 S   0  0  0  0  0  0  0  0  0  0  0  0
   -6.0430   18.7310  -31.1860 O   0  0  0  0  0  0  0  0  0  0  0  0
   -8.3770   18.9500  -31.8010 O   0  0  0  0  0  0  0  0  0  0  0  0
   -6.5220   19.1210  -33.7970 C   0  0  0  0  0  0  0  0  0  0  0  0
   -6.0420   17.7090  -34.0970 C   0  0  0  0  0  0  0  0  0  0  0  0
   -5.0370   18.8430  -33.9680 C   0  0  0  0  0  0  0  0  0  0  0  0
   -5.5870   21.7900  -31.6720 C   0  0  0  0  0  0  0  0  0  0  0  0
   -4.4570   20.9790  -31.8090 O   0  0  0  0  0  0  0  0  0  0  0  0
   -2.0112   24.1550  -25.6952 H   0  0  0  0  0  0  0  0  0  0  0  0
   -1.4970   25.4564  -26.8215 H   0  0  0  0  0  0  0  0  0  0  0  0
   -3.2018   24.8904  -26.8215 H   0  0  0  0  0  0  0  0  0  0  0  0
   -0.8849   22.2226  -26.2912 H   0  0  0  0  0  0  0  0  0  0  0  0
   -0.3427   20.4617  -27.9637 H   0  0  0  0  0  0  0  0  0  0  0  0
   -1.1567   18.1886  -32.1584 H   0  0  0  0  0  0  0  0  0  0  0  0
   -2.7813   18.4077  -32.8780 H   0  0  0  0  0  0  0  0  0  0  0  0
   -0.1769   18.5585  -34.1838 H   0  0  0  0  0  0  0  0  0  0  0  0
   -1.7755   18.6740  -34.9365 H   0  0  0  0  0  0  0  0  0  0  0  0
    0.1124   20.8315  -34.1825 H   0  0  0  0  0  0  0  0  0  0  0  0
   -1.2940   20.9402  -35.2455 H   0  0  0  0  0  0  0  0  0  0  0  0
   -1.1975   22.0467  -32.7157 H   0  0  0  0  0  0  0  0  0  0  0  0
   -2.7248   21.5266  -33.4801 H   0  0  0  0  0  0  0  0  0  0  0  0
   -2.0643   22.8910  -31.0954 H   0  0  0  0  0  0  0  0  0  0  0  0
   -6.4903   25.0060  -30.9087 H   0  0  0  0  0  0  0  0  0  0  0  0
   -8.7512   24.0334  -31.2384 H   0  0  0  0  0  0  0  0  0  0  0  0
   -9.8853   21.3435  -30.9228 H   0  0  0  0  0  0  0  0  0  0  0  0
  -10.0106   22.2559  -32.4650 H   0  0  0  0  0  0  0  0  0  0  0  0
   -9.3791   20.5742  -32.4650 H   0  0  0  0  0  0  0  0  0  0  0  0
   -7.2663   19.7876  -34.2570 H   0  0  0  0  0  0  0  0  0  0  0  0
   -6.0977   16.9324  -33.3200 H   0  0  0  0  0  0  0  0  0  0  0  0
   -6.2712   16.9563  -34.8657 H   0  0  0  0  0  0  0  0  0  0  0  0
   -4.3656   18.8865  -33.0977 H   0  0  0  0  0  0  0  0  0  0  0  0
   -4.2379   19.2501  -34.6049 H   0  0  0  0  0  0  0  0  0  0  0  0
   -3.5190   21.2960  -31.6030 H   0  0  0  0  0  0  0  0  0  0  0  0
  1  2  1  0
  2  3  2  0
  3  4  1  0
  4  5  2  0
  5  6  1  0
  6  7  2  0
  6  8  2  0
  6  9  1  0
  9 10  1  0
 10 11  1  0
 11 12  1  0
 12 13  1  0
  5 14  1  0
 14 15  2  0
 15 16  1  0
 16 17  1  0
 17 18  2  0
 17 19  1  0
 19 20  1  0
 20 21  2  0
 21 22  1  0
 22 23  2  0
 23 24  1  0
 23 25  1  0
 25 26  1  0
 26 27  2  0
 26 28  2  0
 26 29  1  0
 29 30  1  0
 30 31  1  0
 25 32  2  0
 32 33  1  0
 15  2  1  0
 32 20  1  0
 13  9  1  0
 31 29  1  0
  1 34  1  0
  1 35  1  0
  1 36  1  0
  3 37  1  0
  4 38  1  0
 10 39  1  0
 10 40  1  0
 11 41  1  0
 11 42  1  0
 12 43  1  0
 12 44  1  0
 13 45  1  0
 13 46  1  0
 14 47  1  0
 21 48  1  0
 22 49  1  0
 24 50  1  0
 24 51  1  0
 24 52  1  0
 29 53  1  0
 30 54  1  0
 30 55  1  0
 31 56  1  0
 31 57  1  0
 33 58  1  0
M  CHG  2  16  -1  19  -1
M  END
>  <UniqueID>  (17) 
17

>  <SMILES>  (17) 
Cc1ccc(S(=O)(=O)N2CCCC2)cc1[N-]C(=O)[N-]c1ccc(C)c(S(=O)(=O)C2CC2)c1O

>  <Energy>  (17) 
336.9629687862978

>  <Genealogy>  (17) 
Cc1ccc(S(=O)(=O)N2CCCC2)cc1[N-]C(=O)[N-]c1ccc(C)c(S(=O)(=O)C2CC2)c1O (protonated)
Cc1ccc(S(=O)(=O)N2CCCC2)cc1[N-]C(=O)[N-]c1ccc(C)c(S(=O)(=O)C2CC2)c1O (3D coordinates assigned)
Cc1ccc(S(=O)(=O)N2CCCC2)cc1[N-]C(=O)[N-]c1ccc(C)c(S(=O)(=O)C2CC2)c1O (nonaromatic ring conformer: 336.9629687862978 kcal/mol)

>  <smiles>  (17) 
Cc1ccc(S(=O)(=O)N2CCCC2)cc1NC(=O)Nc1ccc(C)c(S(=O)(=O)C2CC2)c1O

>  <score_type>  (17) 
oracle

>  <origin>  (17) 
adgpu

>  <m_score__min__energy>  (17) 
-12.85

>  <m_primary>  (17) 
energy

$$$$
17:0
     RDKit          3D

 49 51  0  0  0  0  0  0  0  0999 V2000
   -7.5220   18.6980  -31.9520 C   0  0  0  0  0  0  0  0  0  0  0  0
   -7.7940   19.9170  -32.7240 N   0  0  0  0  0  0  0  0  0  0  0  0
   -6.6100   20.4600  -33.4230 C   0  0  0  0  0  0  0  0  0  0  0  0
   -5.3620   20.4880  -32.5790 C   0  0  0  0  0  0  0  0  0  0  0  0
   -4.9670   19.4330  -32.0150 O   0  0  0  0  0  0  0  0  0  0  0  0
   -4.6700   21.7290  -32.3660 N   0  0  0  0  0  0  0  0  0  0  0  0
   -3.3510   21.8240  -31.8050 C   0  0  0  0  0  0  0  0  0  0  0  0
   -2.3710   20.9020  -32.1980 C   0  0  0  0  0  0  0  0  0  0  0  0
   -1.0920   20.9500  -31.6390 C   0  0  0  0  0  0  0  0  0  0  0  0
   -0.7870   21.9080  -30.6690 C   0  0  0  0  0  0  0  0  0  0  0  0
   -1.7630   22.8220  -30.2500 C   0  0  0  0  0  0  0  0  0  0  0  0
   -1.4070   23.9890  -28.9790 S   0  0  0  0  0  0  0  0  0  0  0  0
    0.0790   24.1980  -28.8750 O   0  0  0  0  0  0  0  0  0  0  0  0
   -2.0500   25.2990  -29.3410 O   0  0  0  0  0  0  0  0  0  0  0  0
   -2.0460   23.4210  -27.4510 N   0  0  0  0  0  0  0  0  0  0  0  0
   -1.8260   24.4120  -26.3930 C   0  0  0  0  0  0  0  0  0  0  0  0
   -3.0650   25.2910  -26.3030 C   0  0  0  0  0  0  0  0  0  0  0  0
   -4.1510   24.5430  -27.0510 C   0  0  0  0  0  0  0  0  0  0  0  0
   -3.5010   23.2560  -27.5350 C   0  0  0  0  0  0  0  0  0  0  0  0
   -3.0450   22.7770  -30.8170 C   0  0  0  0  0  0  0  0  0  0  0  0
   -8.6360   21.1100  -31.7620 S   0  0  0  0  0  0  0  0  0  0  0  0
   -9.1340   20.4580  -30.5030 O   0  0  0  0  0  0  0  0  0  0  0  0
   -9.8300   21.6180  -32.5230 O   0  0  0  0  0  0  0  0  0  0  0  0
   -7.6290   22.4790  -31.3090 C   0  0  0  0  0  0  0  0  0  0  0  0
   -6.9700   22.6310  -30.0980 C   0  0  0  0  0  0  0  0  0  0  0  0
   -6.1310   23.7500  -30.0670 C   0  0  0  0  0  0  0  0  0  0  0  0
   -6.1100   24.4620  -31.2590 C   0  0  0  0  0  0  0  0  0  0  0  0
   -7.1400   23.7030  -32.3500 S   0  0  0  0  0  0  0  0  0  0  0  0
   -7.5728   18.9258  -30.8770 H   0  0  0  0  0  0  0  0  0  0  0  0
   -8.2713   17.9319  -32.2003 H   0  0  0  0  0  0  0  0  0  0  0  0
   -6.5181   18.3231  -32.2003 H   0  0  0  0  0  0  0  0  0  0  0  0
   -6.4151   19.8376  -34.3088 H   0  0  0  0  0  0  0  0  0  0  0  0
   -6.8432   21.5032  -33.6827 H   0  0  0  0  0  0  0  0  0  0  0  0
   -5.1870   22.6170  -32.5600 H   0  0  0  0  0  0  0  0  0  0  0  0
   -2.6106   20.1365  -32.9508 H   0  0  0  0  0  0  0  0  0  0  0  0
   -0.3237   20.2325  -31.9629 H   0  0  0  0  0  0  0  0  0  0  0  0
    0.2222   21.9449  -30.2329 H   0  0  0  0  0  0  0  0  0  0  0  0
   -1.6605   23.9016  -25.4327 H   0  0  0  0  0  0  0  0  0  0  0  0
   -0.9409   25.0236  -26.6220 H   0  0  0  0  0  0  0  0  0  0  0  0
   -3.3549   25.4394  -25.2523 H   0  0  0  0  0  0  0  0  0  0  0  0
   -2.8884   26.2884  -26.7320 H   0  0  0  0  0  0  0  0  0  0  0  0
   -4.9943   24.3191  -26.3812 H   0  0  0  0  0  0  0  0  0  0  0  0
   -4.5526   25.1356  -27.8862 H   0  0  0  0  0  0  0  0  0  0  0  0
   -3.8183   22.4161  -26.8995 H   0  0  0  0  0  0  0  0  0  0  0  0
   -3.8013   23.0438  -28.5717 H   0  0  0  0  0  0  0  0  0  0  0  0
   -3.8147   23.4904  -30.4874 H   0  0  0  0  0  0  0  0  0  0  0  0
   -7.0943   21.9424  -29.2492 H   0  0  0  0  0  0  0  0  0  0  0  0
   -5.5439   24.0384  -29.1826 H   0  0  0  0  0  0  0  0  0  0  0  0
   -5.5196   25.3689  -31.4561 H   0  0  0  0  0  0  0  0  0  0  0  0
  1  2  1  0
  2  3  1  0
  3  4  1  0
  4  5  2  0
  4  6  1  0
  6  7  1  0
  7  8  2  0
  8  9  1  0
  9 10  2  0
 10 11  1  0
 11 12  1  0
 12 13  2  0
 12 14  2  0
 12 15  1  0
 15 16  1  0
 16 17  1  0
 17 18  1  0
 18 19  1  0
 11 20  2  0
  2 21  1  0
 21 22  2  0
 21 23  2  0
 21 24  1  0
 24 25  2  0
 25 26  1  0
 26 27  2  0
 27 28  1  0
 20  7  1  0
 28 24  1  0
 19 15  1  0
  1 29  1  0
  1 30  1  0
  1 31  1  0
  3 32  1  0
  3 33  1  0
  6 34  1  0
  8 35  1  0
  9 36  1  0
 10 37  1  0
 16 38  1  0
 16 39  1  0
 17 40  1  0
 17 41  1  0
 18 42  1  0
 18 43  1  0
 19 44  1  0
 19 45  1  0
 20 46  1  0
 25 47  1  0
 26 48  1  0
 27 49  1  0
M  END
>  <UniqueID>  (18) 
18

>  <SMILES>  (18) 
CN(CC(=O)Nc1cccc(S(=O)(=O)N2CCCC2)c1)S(=O)(=O)c1cccs1

>  <Energy>  (18) 
77.90028881029163

>  <Genealogy>  (18) 
CN(CC(=O)Nc1cccc(S(=O)(=O)N2CCCC2)c1)S(=O)(=O)c1cccs1 (3D coordinates assigned)
CN(CC(=O)Nc1cccc(S(=O)(=O)N2CCCC2)c1)S(=O)(=O)c1cccs1 (nonaromatic ring conformer: 77.90028881029163 kcal/mol)

>  <smiles>  (18) 
CN(CC(=O)Nc1cccc(S(=O)(=O)N2CCCC2)c1)S(=O)(=O)c1cccs1

>  <score_type>  (18) 
oracle

>  <origin>  (18) 
adgpu

>  <m_score__min__energy>  (18) 
-10.359999999999999

>  <m_primary>  (18) 
energy

$$$$
18:0
     RDKit          3D

 47 49  0  0  0  0  0  0  0  0999 V2000
   -5.6680   19.2380  -33.8270 C   0  0  0  0  0  0  0  0  0  0  0  0
   -5.1060   20.6340  -32.8020 S   0  0  0  0  0  0  0  0  0  0  0  0
   -6.7750   21.2080  -32.4560 C   0  0  0  0  0  0  0  0  0  0  0  0
   -7.8240   20.2800  -32.4340 C   0  0  0  0  0  0  0  0  0  0  0  0
   -9.1280   20.6990  -32.1630 C   0  0  0  0  0  0  0  0  0  0  0  0
   -9.3900   22.0460  -31.9020 C   0  0  0  0  0  0  0  0  0  0  0  0
   -8.3480   22.9780  -31.9200 C   0  0  0  0  0  0  0  0  0  0  0  0
   -7.0340   22.5700  -32.2150 C   0  0  0  0  0  0  0  0  0  0  0  0
   -5.9410   23.5030  -32.2190 N   0  0  0  0  0  0  0  0  0  0  0  0
   -5.0390   23.7640  -31.1360 C   0  0  0  0  0  0  0  0  0  0  0  0
   -4.5750   24.9220  -30.9560 O   0  0  0  0  0  0  0  0  0  0  0  0
   -4.6650   22.6860  -30.2680 N   0  0  0  0  0  0  0  0  0  0  0  0
   -3.6030   22.7580  -29.3000 C   0  0  0  0  0  0  0  0  0  0  0  0
   -3.1930   21.5890  -28.6420 C   0  0  0  0  0  0  0  0  0  0  0  0
   -2.1510   21.6290  -27.7130 C   0  0  0  0  0  0  0  0  0  0  0  0
   -1.4950   22.8330  -27.4470 C   0  0  0  0  0  0  0  0  0  0  0  0
   -1.8700   24.0030  -28.1200 C   0  0  0  0  0  0  0  0  0  0  0  0
   -1.0110   25.5180  -27.8150 S   0  0  0  0  0  0  0  0  0  0  0  0
   -1.2340   26.4530  -28.9710 O   0  0  0  0  0  0  0  0  0  0  0  0
    0.4640   25.2400  -27.7210 O   0  0  0  0  0  0  0  0  0  0  0  0
   -1.5550   26.2830  -26.3400 N   0  0  0  0  0  0  0  0  0  0  0  0
   -0.7120   27.4520  -26.0230 C   0  0  0  0  0  0  0  0  0  0  0  0
   -0.8310   27.8160  -24.5340 C   0  0  0  0  0  0  0  0  0  0  0  0
   -0.4290   26.7780  -23.6480 O   0  0  0  0  0  0  0  0  0  0  0  0
   -0.4970   25.4780  -24.2180 C   0  0  0  0  0  0  0  0  0  0  0  0
   -1.6510   25.3160  -25.2250 C   0  0  0  0  0  0  0  0  0  0  0  0
   -2.9240   23.9630  -29.0440 C   0  0  0  0  0  0  0  0  0  0  0  0
   -5.9992   18.4153  -33.1763 H   0  0  0  0  0  0  0  0  0  0  0  0
   -6.5053   19.5631  -34.4620 H   0  0  0  0  0  0  0  0  0  0  0  0
   -4.8390   18.8923  -34.4620 H   0  0  0  0  0  0  0  0  0  0  0  0
   -7.6197   19.2172  -32.6309 H   0  0  0  0  0  0  0  0  0  0  0  0
   -9.9497   19.9677  -32.1550 H   0  0  0  0  0  0  0  0  0  0  0  0
  -10.4168   22.3737  -31.6822 H   0  0  0  0  0  0  0  0  0  0  0  0
   -8.5565   24.0359  -31.7024 H   0  0  0  0  0  0  0  0  0  0  0  0
   -5.2570   21.8260  -30.2880 H   0  0  0  0  0  0  0  0  0  0  0  0
   -3.6954   20.6348  -28.8591 H   0  0  0  0  0  0  0  0  0  0  0  0
   -1.8464   20.7106  -27.1898 H   0  0  0  0  0  0  0  0  0  0  0  0
   -0.6816   22.8626  -26.7070 H   0  0  0  0  0  0  0  0  0  0  0  0
    0.3369   27.2150  -26.2547 H   0  0  0  0  0  0  0  0  0  0  0  0
   -1.0504   28.3076  -26.6258 H   0  0  0  0  0  0  0  0  0  0  0  0
   -0.2008   28.6970  -24.3424 H   0  0  0  0  0  0  0  0  0  0  0  0
   -1.8968   28.0050  -24.3380 H   0  0  0  0  0  0  0  0  0  0  0  0
    0.4511   25.2740  -24.7371 H   0  0  0  0  0  0  0  0  0  0  0  0
   -0.6790   24.7701  -23.3960 H   0  0  0  0  0  0  0  0  0  0  0  0
   -1.6226   24.2962  -25.6363 H   0  0  0  0  0  0  0  0  0  0  0  0
   -2.5948   25.5049  -24.6925 H   0  0  0  0  0  0  0  0  0  0  0  0
   -3.2220   24.8806  -29.5725 H   0  0  0  0  0  0  0  0  0  0  0  0
  1  2  1  0
  2  3  1  0
  3  4  2  0
  4  5  1  0
  5  6  2  0
  6  7  1  0
  7  8  2  0
  8  9  1  0
  9 10  1  0
 10 11  2  0
 10 12  1  0
 12 13  1  0
 13 14  2  0
 14 15  1  0
 15 16  2  0
 16 17  1  0
 17 18  1  0
 18 19  2  0
 18 20  2  0
 18 21  1  0
 21 22  1  0
 22 23  1  0
 23 24  1  0
 24 25  1  0
 25 26  1  0
 17 27  2  0
  8  3  1  0
 27 13  1  0
 26 21  1  0
  1 28  1  0
  1 29  1  0
  1 30  1  0
  4 31  1  0
  5 32  1  0
  6 33  1  0
  7 34  1  0
 12 35  1  0
 14 36  1  0
 15 37  1  0
 16 38  1  0
 22 39  1  0
 22 40  1  0
 23 41  1  0
 23 42  1  0
 25 43  1  0
 25 44  1  0
 26 45  1  0
 26 46  1  0
 27 47  1  0
M  CHG  1   9  -1
M  END
>  <UniqueID>  (19) 
19

>  <SMILES>  (19) 
CSc1ccccc1[N-]C(=O)Nc1cccc(S(=O)(=O)N2CCOCC2)c1

>  <Energy>  (19) 
62.73874840244261

>  <Genealogy>  (19) 
CSc1ccccc1[N-]C(=O)Nc1cccc(S(=O)(=O)N2CCOCC2)c1 (protonated)
CSc1ccccc1[N-]C(=O)Nc1cccc(S(=O)(=O)N2CCOCC2)c1 (3D coordinates assigned)
CSc1ccccc1[N-]C(=O)Nc1cccc(S(=O)(=O)N2CCOCC2)c1 (nonaromatic ring conformer: 62.73874840244261 kcal/mol)

>  <smiles>  (19) 
CSc1ccccc1NC(=O)Nc1cccc(S(=O)(=O)N2CCOCC2)c1

>  <score_type>  (19) 
oracle

>  <origin>  (19) 
adgpu

>  <m_score__min__energy>  (19) 
-10.51

>  <m_primary>  (19) 
energy

$$$$
19:0
     RDKit          3D

 41 43  0  0  0  0  0  0  0  0999 V2000
   -1.2110   22.0860  -26.2720 C   0  0  0  0  0  0  0  0  0  0  0  0
   -1.8290   22.9380  -27.3520 C   0  0  0  0  0  0  0  0  0  0  0  0
   -3.0790   22.5620  -27.8640 C   0  0  0  0  0  0  0  0  0  0  0  0
   -3.6980   23.3150  -28.8580 C   0  0  0  0  0  0  0  0  0  0  0  0
   -3.0720   24.4580  -29.3740 C   0  0  0  0  0  0  0  0  0  0  0  0
   -3.7070   25.2750  -30.3690 N   0  0  0  0  0  0  0  0  0  0  0  0
   -5.0310   25.1010  -30.8890 C   0  0  0  0  0  0  0  0  0  0  0  0
   -5.9760   25.7530  -30.3750 O   0  0  0  0  0  0  0  0  0  0  0  0
   -5.2720   24.2010  -31.9790 N   0  0  0  0  0  0  0  0  0  0  0  0
   -6.2280   23.1320  -32.0170 C   0  0  0  0  0  0  0  0  0  0  0  0
   -7.5750   23.4290  -31.7750 C   0  0  0  0  0  0  0  0  0  0  0  0
   -8.5380   22.4140  -31.7830 C   0  0  0  0  0  0  0  0  0  0  0  0
   -8.1550   21.0900  -32.0170 C   0  0  0  0  0  0  0  0  0  0  0  0
   -9.1120   20.0820  -32.0240 O   0  0  0  0  0  0  0  0  0  0  0  0
   -6.8100   20.7800  -32.2350 C   0  0  0  0  0  0  0  0  0  0  0  0
   -5.8460   21.7930  -32.2290 C   0  0  0  0  0  0  0  0  0  0  0  0
   -1.8300   24.8560  -28.8600 C   0  0  0  0  0  0  0  0  0  0  0  0
   -1.2520   26.0240  -29.3460 O   0  0  0  0  0  0  0  0  0  0  0  0
   -1.1780   24.0870  -27.8700 C   0  0  0  0  0  0  0  0  0  0  0  0
    0.4110   24.5940  -27.2490 S   0  0  0  0  0  0  0  0  0  0  0  0
    0.8210   23.6790  -26.1290 O   0  0  0  0  0  0  0  0  0  0  0  0
    1.4660   24.5280  -28.3180 O   0  0  0  0  0  0  0  0  0  0  0  0
    0.3010   26.2210  -26.6660 N   0  0  0  0  0  0  0  0  0  0  0  0
    1.3670   27.2060  -26.7290 C   0  0  0  0  0  0  0  0  0  0  0  0
    0.8370   28.4300  -25.9410 C   0  0  0  0  0  0  0  0  0  0  0  0
   -0.4670   28.0490  -25.4050 N   0  0  0  0  0  0  0  0  0  0  0  0
   -0.7320   26.7430  -25.8620 C   0  0  0  0  0  0  0  0  0  0  0  0
   -1.7790   26.1080  -25.5690 O   0  0  0  0  0  0  0  0  0  0  0  0
   -1.4968   22.4801  -25.2856 H   0  0  0  0  0  0  0  0  0  0  0  0
   -1.5697   21.0509  -26.3713 H   0  0  0  0  0  0  0  0  0  0  0  0
   -0.1157   22.1056  -26.3713 H   0  0  0  0  0  0  0  0  0  0  0  0
   -3.5766   21.6611  -27.4756 H   0  0  0  0  0  0  0  0  0  0  0  0
   -4.6836   23.0113  -29.2405 H   0  0  0  0  0  0  0  0  0  0  0  0
   -7.8781   24.4677  -31.5772 H   0  0  0  0  0  0  0  0  0  0  0  0
   -9.5959   22.6577  -31.6053 H   0  0  0  0  0  0  0  0  0  0  0  0
   -6.5089   19.7369  -32.4117 H   0  0  0  0  0  0  0  0  0  0  0  0
   -4.7869   21.5435  -32.3902 H   0  0  0  0  0  0  0  0  0  0  0  0
    2.2825   26.8138  -26.2621 H   0  0  0  0  0  0  0  0  0  0  0  0
    1.6257   27.4657  -27.7661 H   0  0  0  0  0  0  0  0  0  0  0  0
    1.5259   28.6806  -25.1208 H   0  0  0  0  0  0  0  0  0  0  0  0
    0.7559   29.3145  -26.5899 H   0  0  0  0  0  0  0  0  0  0  0  0
  1  2  1  0
  2  3  2  0
  3  4  1  0
  4  5  2  0
  5  6  1  0
  6  7  1  0
  7  8  2  0
  7  9  1  0
  9 10  1  0
 10 11  2  0
 11 12  1  0
 12 13  2  0
 13 14  1  0
 13 15  1  0
 15 16  2  0
  5 17  1  0
 17 18  1  0
 17 19  2  0
 19 20  1  0
 20 21  2  0
 20 22  2  0
 20 23  1  0
 23 24  1  0
 24 25  1  0
 25 26  1  0
 26 27  1  0
 27 28  2  0
 19  2  1  0
 27 23  1  0
 16 10  1  0
  1 29  1  0
  1 30  1  0
  1 31  1  0
  3 32  1  0
  4 33  1  0
 11 34  1  0
 12 35  1  0
 15 36  1  0
 16 37  1  0
 24 38  1  0
 24 39  1  0
 25 40  1  0
 25 41  1  0
M  CHG  5   6  -1   9  -1  14  -1  18  -1  26  -1
M  END
>  <UniqueID>  (20) 
20

>  <SMILES>  (20) 
Cc1ccc([N-]C(=O)[N-]c2ccc([O-])cc2)c([O-])c1S(=O)(=O)N1CC[N-]C1=O

>  <Energy>  (20) 
68.50434411520101

>  <Genealogy>  (20) 
Cc1ccc([N-]C(=O)[N-]c2ccc([O-])cc2)c([O-])c1S(=O)(=O)N1CC[N-]C1=O (protonated)
Cc1ccc([N-]C(=O)[N-]c2ccc([O-])cc2)c([O-])c1S(=O)(=O)N1CC[N-]C1=O (3D coordinates assigned)
Cc1ccc([N-]C(=O)[N-]c2ccc([O-])cc2)c([O-])c1S(=O)(=O)N1CC[N-]C1=O (nonaromatic ring conformer: 68.50434411520101 kcal/mol)

>  <smiles>  (20) 
Cc1ccc(NC(=O)Nc2ccc(O)cc2)c(O)c1S(=O)(=O)N1CCNC1=O

>  <score_type>  (20) 
oracle

>  <origin>  (20) 
adgpu

>  <m_score__min__energy>  (20) 
-14.01

>  <m_primary>  (20) 
energy

$$$$
20:0
     RDKit          3D

 38 40  0  0  0  0  0  0  0  0999 V2000
   -2.5189   19.1912  -32.0715 H   0  0  0  0  0  0  0  0  0  0  0  0
   -2.3300   18.5540  -32.9480 C   0  0  0  0  0  0  0  0  0  0  0  0
   -3.2090   17.5700  -33.2750 N   0  0  0  0  0  0  0  0  0  0  0  0
   -3.0130   16.7570  -34.3540 C   0  0  0  0  0  0  0  0  0  0  0  0
   -3.8660   15.8230  -34.6480 N   0  0  0  0  0  0  0  0  0  0  0  0
   -5.3070   15.5090  -33.7350 S   0  0  0  0  0  0  0  0  0  0  0  0
   -4.9660   14.7340  -32.4920 O   0  0  0  0  0  0  0  0  0  0  0  0
   -6.2750   14.7130  -34.5650 O   0  0  0  0  0  0  0  0  0  0  0  0
   -6.0420   17.0440  -33.2870 C   0  0  0  0  0  0  0  0  0  0  0  0
   -6.6040   17.2120  -32.0140 C   0  0  0  0  0  0  0  0  0  0  0  0
   -6.5958   16.3781  -31.2967 H   0  0  0  0  0  0  0  0  0  0  0  0
   -7.1750   18.4360  -31.6530 C   0  0  0  0  0  0  0  0  0  0  0  0
   -7.6013   18.5654  -30.6473 H   0  0  0  0  0  0  0  0  0  0  0  0
   -7.2070   19.4980  -32.5650 C   0  0  0  0  0  0  0  0  0  0  0  0
   -7.7450   20.7620  -32.1490 N   0  0  0  0  0  0  0  0  0  0  0  0
   -7.0790   21.8270  -31.7990 C   0  0  0  0  0  0  0  0  0  0  0  0
   -7.7890   22.9320  -31.3180 C   0  0  0  0  0  0  0  0  0  0  0  0
   -8.8854   22.8904  -31.2389 H   0  0  0  0  0  0  0  0  0  0  0  0
   -7.1050   24.0860  -30.9390 C   0  0  0  0  0  0  0  0  0  0  0  0
   -7.6626   24.9510  -30.5506 H   0  0  0  0  0  0  0  0  0  0  0  0
   -5.7100   24.1480  -31.0510 C   0  0  0  0  0  0  0  0  0  0  0  0
   -4.9940   25.3330  -30.6620 N   0  0  0  0  0  0  0  0  0  0  0  0
   -5.5980   26.4100  -30.4710 O   0  0  0  0  0  0  0  0  0  0  0  0
   -3.6280   25.3010  -30.4940 O   0  0  0  0  0  0  0  0  0  0  0  0
   -5.0320   23.0280  -31.5600 C   0  0  0  0  0  0  0  0  0  0  0  0
   -3.9373   23.0552  -31.6640 H   0  0  0  0  0  0  0  0  0  0  0  0
   -5.7160   21.9090  -31.9260 N   0  0  0  0  0  0  0  0  0  0  0  0
   -5.1630   21.1280  -32.3420 H   0  0  0  0  0  0  0  0  0  0  0  0
   -6.6040   19.3440  -33.8240 C   0  0  0  0  0  0  0  0  0  0  0  0
   -6.5809   20.1888  -34.5281 H   0  0  0  0  0  0  0  0  0  0  0  0
   -6.0330   18.1200  -34.1850 C   0  0  0  0  0  0  0  0  0  0  0  0
   -5.5748   18.0010  -35.1779 H   0  0  0  0  0  0  0  0  0  0  0  0
   -1.8780   16.9330  -35.1540 C   0  0  0  0  0  0  0  0  0  0  0  0
   -1.7085   16.2849  -36.0265 H   0  0  0  0  0  0  0  0  0  0  0  0
   -0.9620   17.9390  -34.8350 C   0  0  0  0  0  0  0  0  0  0  0  0
   -0.0664   18.0869  -35.4564 H   0  0  0  0  0  0  0  0  0  0  0  0
   -1.1870   18.7560  -33.7250 C   0  0  0  0  0  0  0  0  0  0  0  0
   -0.4716   19.5502  -33.4653 H   0  0  0  0  0  0  0  0  0  0  0  0
  1  2  1  0
  2  3  1  0
  3  4  1  0
  4  5  2  0
  5  6  1  0
  6  7  2  0
  6  8  2  0
  6  9  1  0
  9 10  2  0
 10 11  1  0
 10 12  1  0
 12 13  1  0
 12 14  2  0
 14 15  1  0
 15 16  2  0
 16 17  1  0
 17 18  1  0
 17 19  2  0
 19 20  1  0
 19 21  1  0
 21 22  1  0
 22 23  2  0
 22 24  1  0
 21 25  2  0
 25 26  1  0
 25 27  1  0
 27 28  1  0
 14 29  1  0
 29 30  1  0
 29 31  2  0
 31 32  1  0
  4 33  1  0
 33 34  1  0
 33 35  2  0
 35 36  1  0
 35 37  1  0
 37 38  1  0
 37  2  2  0
 31  9  1  0
 27 16  1  0
M  CHG  3   3  -1  22   1  24  -1
M  END
>  <UniqueID>  (21) 
21

>  <SMILES>  (21) 
O=[N+]([O-])c1cc/c(=N/c2ccc(S(=O)(=O)/N=c3/cccc[n-]3)cc2)[nH]c1

>  <Energy>  (21) 
55.90023304210524

>  <Genealogy>  (21) 
O=[N+]([O-])c1ccc(=Nc2ccc(S(=O)(=O)N=c3cccc[n-]3)cc2)[nH]c1 (protonated)
O=[N+]([O-])c1cc/c(=N/c2ccc(S(=O)(=O)/N=c3/cccc[n-]3)cc2)[nH]c1 (cis-trans isomerization)
O=[N+]([O-])c1cc/c(=N/c2ccc(S(=O)(=O)/N=c3/cccc[n-]3)cc2)[nH]c1 (3D coordinates assigned)
O=[N+]([O-])c1cc/c(=N/c2ccc(S(=O)(=O)/N=c3/cccc[n-]3)cc2)[nH]c1 (optimized conformer: 55.90023304210524 kcal/mol)

>  <smiles>  (21) 
O=[N+]([O-])c1ccc(=Nc2ccc(S(=O)(=O)N=c3cccc[nH]3)cc2)[nH]c1

>  <score_type>  (21) 
oracle

>  <origin>  (21) 
adgpu

>  <m_score__min__energy>  (21) 
-9.7400000000000002

>  <m_primary>  (21) 
energy

$$$$
21:0
     RDKit          3D

 58 61  0  0  0  0  0  0  0  0999 V2000
   -4.7070   24.5690  -31.2200 O   0  0  0  0  0  0  0  0  0  0  0  0
   -4.5150   23.7620  -30.2690 C   0  0  0  0  0  0  0  0  0  0  0  0
   -5.5920   22.9220  -29.8190 N   0  0  0  0  0  0  0  0  0  0  0  0
   -6.7240   22.5700  -30.6320 C   0  0  0  0  0  0  0  0  0  0  0  0
   -7.5820   23.5520  -31.1600 C   0  0  0  0  0  0  0  0  0  0  0  0
   -8.6580   23.1850  -31.9710 C   0  0  0  0  0  0  0  0  0  0  0  0
   -8.8820   21.8400  -32.2760 C   0  0  0  0  0  0  0  0  0  0  0  0
   -8.0210   20.8540  -31.7790 C   0  0  0  0  0  0  0  0  0  0  0  0
   -8.2800   19.1580  -32.1890 S   0  0  0  0  0  0  0  0  0  0  0  0
   -8.0490   18.3220  -30.9600 O   0  0  0  0  0  0  0  0  0  0  0  0
   -9.7100   18.9650  -32.6110 O   0  0  0  0  0  0  0  0  0  0  0  0
   -7.2200   18.6030  -33.4700 N   0  0  0  0  0  0  0  0  0  0  0  0
   -6.2500   19.6330  -33.8860 C   0  0  0  0  0  0  0  0  0  0  0  0
   -5.0070   19.7020  -32.9670 C   0  0  0  0  0  0  0  0  0  0  0  0
   -4.9310   18.6320  -32.0450 O   0  0  0  0  0  0  0  0  0  0  0  0
   -5.1380   17.4110  -32.7150 C   0  0  0  0  0  0  0  0  0  0  0  0
   -6.6000   17.2930  -33.1760 C   0  0  0  0  0  0  0  0  0  0  0  0
   -6.9460   21.2220  -30.9570 C   0  0  0  0  0  0  0  0  0  0  0  0
   -3.1940   23.7280  -29.5960 C   0  0  0  0  0  0  0  0  0  0  0  0
   -2.6760   24.8880  -28.9940 C   0  0  0  0  0  0  0  0  0  0  0  0
   -1.4300   24.8650  -28.3600 C   0  0  0  0  0  0  0  0  0  0  0  0
   -0.6800   23.6820  -28.3200 C   0  0  0  0  0  0  0  0  0  0  0  0
    0.8850   23.6470  -27.5020 S   0  0  0  0  0  0  0  0  0  0  0  0
    1.3940   22.2330  -27.4680 O   0  0  0  0  0  0  0  0  0  0  0  0
    1.8680   24.4760  -28.2800 O   0  0  0  0  0  0  0  0  0  0  0  0
    0.7740   24.2650  -25.8710 N   0  0  0  0  0  0  0  0  0  0  0  0
   -0.4620   23.7870  -25.2220 C   0  0  0  0  0  0  0  0  0  0  0  0
   -0.8280   24.6840  -24.0280 C   0  0  0  0  0  0  0  0  0  0  0  0
   -1.0520   26.0470  -24.3720 O   0  0  0  0  0  0  0  0  0  0  0  0
   -0.4260   26.4440  -25.5840 C   0  0  0  0  0  0  0  0  0  0  0  0
    0.9180   25.7370  -25.8320 C   0  0  0  0  0  0  0  0  0  0  0  0
   -1.1820   22.5290  -28.9350 C   0  0  0  0  0  0  0  0  0  0  0  0
   -2.4280   22.5490  -29.5680 C   0  0  0  0  0  0  0  0  0  0  0  0
   -5.6040   22.6360  -28.8140 H   0  0  0  0  0  0  0  0  0  0  0  0
   -7.4045   24.6136  -30.9330 H   0  0  0  0  0  0  0  0  0  0  0  0
   -9.3314   23.9573  -32.3710 H   0  0  0  0  0  0  0  0  0  0  0  0
   -9.7363   21.5552  -32.9077 H   0  0  0  0  0  0  0  0  0  0  0  0
   -5.9166   19.4070  -34.9096 H   0  0  0  0  0  0  0  0  0  0  0  0
   -6.7583   20.6066  -33.8242 H   0  0  0  0  0  0  0  0  0  0  0  0
   -4.1057   19.6840  -33.5973 H   0  0  0  0  0  0  0  0  0  0  0  0
   -5.0863   20.6302  -32.3821 H   0  0  0  0  0  0  0  0  0  0  0  0
   -4.4764   17.3625  -33.5924 H   0  0  0  0  0  0  0  0  0  0  0  0
   -4.9136   16.5836  -32.0258 H   0  0  0  0  0  0  0  0  0  0  0  0
   -6.6318   16.6776  -34.0872 H   0  0  0  0  0  0  0  0  0  0  0  0
   -7.1691   16.8367  -32.3527 H   0  0  0  0  0  0  0  0  0  0  0  0
   -6.2708   20.4480  -30.5634 H   0  0  0  0  0  0  0  0  0  0  0  0
   -3.2562   25.8222  -29.0220 H   0  0  0  0  0  0  0  0  0  0  0  0
   -1.0370   25.7790  -27.8908 H   0  0  0  0  0  0  0  0  0  0  0  0
   -1.2841   23.8045  -25.9527 H   0  0  0  0  0  0  0  0  0  0  0  0
   -0.2980   22.7619  -24.8583 H   0  0  0  0  0  0  0  0  0  0  0  0
   -1.7454   24.2887  -23.5675 H   0  0  0  0  0  0  0  0  0  0  0  0
    0.0326   24.6671  -23.3431 H   0  0  0  0  0  0  0  0  0  0  0  0
   -1.1027   26.2115  -26.4195 H   0  0  0  0  0  0  0  0  0  0  0  0
   -0.2192   27.5217  -25.5073 H   0  0  0  0  0  0  0  0  0  0  0  0
    1.3263   26.0790  -26.7944 H   0  0  0  0  0  0  0  0  0  0  0  0
    1.5919   25.9894  -25.0001 H   0  0  0  0  0  0  0  0  0  0  0  0
   -0.5918   21.6009  -28.9200 H   0  0  0  0  0  0  0  0  0  0  0  0
   -2.8120   21.6365  -30.0474 H   0  0  0  0  0  0  0  0  0  0  0  0
  1  2  2  0
  2  3  1  0
  3  4  1  0
  4  5  2  0
  5  6  1  0
  6  7  2  0
  7  8  1  0
  8  9  1  0
  9 10  2  0
  9 11  2  0
  9 12  1  0
 12 13  1  0
 13 14  1  0
 14 15  1  0
 15 16  1  0
 16 17  1  0
  8 18  2  0
  2 19  1  0
 19 20  2  0
 20 21  1  0
 21 22  2  0
 22 23  1  0
 23 24  2  0
 23 25  2  0
 23 26  1  0
 26 27  1  0
 27 28  1  0
 28 29  1  0
 29 30  1  0
 30 31  1  0
 22 32  1  0
 32 33  2  0
 18  4  1  0
 33 19  1  0
 17 12  1  0
 31 26  1  0
  3 34  1  0
  5 35  1  0
  6 36  1  0
  7 37  1  0
 13 38  1  0
 13 39  1  0
 14 40  1  0
 14 41  1  0
 16 42  1  0
 16 43  1  0
 17 44  1  0
 17 45  1  0
 18 46  1  0
 20 47  1  0
 21 48  1  0
 27 49  1  0
 27 50  1  0
 28 51  1  0
 28 52  1  0
 30 53  1  0
 30 54  1  0
 31 55  1  0
 31 56  1  0
 32 57  1  0
 33 58  1  0
M  END
>  <UniqueID>  (22) 
22

>  <SMILES>  (22) 
O=C(Nc1cccc(S(=O)(=O)N2CCOCC2)c1)c1ccc(S(=O)(=O)N2CCOCC2)cc1

>  <Energy>  (22) 
87.98835356461491

>  <Genealogy>  (22) 
O=C(Nc1cccc(S(=O)(=O)N2CCOCC2)c1)c1ccc(S(=O)(=O)N2CCOCC2)cc1 (3D coordinates assigned)
O=C(Nc1cccc(S(=O)(=O)N2CCOCC2)c1)c1ccc(S(=O)(=O)N2CCOCC2)cc1 (nonaromatic ring conformer: 87.98835356461491 kcal/mol)

>  <smiles>  (22) 
O=C(Nc1cccc(S(=O)(=O)N2CCOCC2)c1)c1ccc(S(=O)(=O)N2CCOCC2)cc1

>  <score_type>  (22) 
oracle

>  <origin>  (22) 
adgpu

>  <m_score__min__energy>  (22) 
-10.130000000000001

>  <m_primary>  (22) 
energy

$$$$
22:0
     RDKit          3D

 57 60  0  0  0  0  0  0  0  0999 V2000
   -2.6560   20.9880  -33.0000 O   0  0  0  0  0  0  0  0  0  0  0  0
   -3.3110   21.8110  -32.3020 C   0  0  0  0  0  0  0  0  0  0  0  0
   -2.6300   22.9220  -31.7100 N   0  0  0  0  0  0  0  0  0  0  0  0
   -2.4270   23.1070  -30.3000 C   0  0  0  0  0  0  0  0  0  0  0  0
   -1.8670   22.0590  -29.5560 C   0  0  0  0  0  0  0  0  0  0  0  0
   -1.6780   22.1860  -28.1710 C   0  0  0  0  0  0  0  0  0  0  0  0
   -0.9560   20.8790  -27.2310 S   0  0  0  0  0  0  0  0  0  0  0  0
    0.5300   21.0900  -27.1130 O   0  0  0  0  0  0  0  0  0  0  0  0
   -1.5510   20.9040  -25.8520 O   0  0  0  0  0  0  0  0  0  0  0  0
   -1.3030   19.3490  -28.0060 N   0  0  0  0  0  0  0  0  0  0  0  0
   -0.9050   18.2340  -27.1450 C   0  0  0  0  0  0  0  0  0  0  0  0
    0.5160   17.8300  -27.5210 C   0  0  0  0  0  0  0  0  0  0  0  0
    0.7630   18.4320  -28.8930 C   0  0  0  0  0  0  0  0  0  0  0  0
   -0.5060   19.2050  -29.2360 C   0  0  0  0  0  0  0  0  0  0  0  0
   -2.0780   23.3630  -27.5250 C   0  0  0  0  0  0  0  0  0  0  0  0
   -2.6580   24.4030  -28.2570 C   0  0  0  0  0  0  0  0  0  0  0  0
   -2.8490   24.2750  -29.6360 C   0  0  0  0  0  0  0  0  0  0  0  0
   -3.4880   25.2980  -30.3250 O   0  0  0  0  0  0  0  0  0  0  0  0
   -4.7700   21.6010  -32.0870 C   0  0  0  0  0  0  0  0  0  0  0  0
   -5.2880   20.2880  -32.0990 C   0  0  0  0  0  0  0  0  0  0  0  0
   -6.6590   20.0510  -31.9530 C   0  0  0  0  0  0  0  0  0  0  0  0
   -7.2670   18.3990  -32.0030 S   0  0  0  0  0  0  0  0  0  0  0  0
   -6.5260   17.5530  -31.0050 O   0  0  0  0  0  0  0  0  0  0  0  0
   -8.7210   18.4200  -31.6200 O   0  0  0  0  0  0  0  0  0  0  0  0
   -7.0930   17.7550  -33.6230 N   0  0  0  0  0  0  0  0  0  0  0  0
   -6.1060   18.5020  -34.4270 C   0  0  0  0  0  0  0  0  0  0  0  0
   -4.6610   18.0490  -34.1470 C   0  0  0  0  0  0  0  0  0  0  0  0
   -4.5220   16.6510  -34.3130 O   0  0  0  0  0  0  0  0  0  0  0  0
   -5.3440   15.9820  -33.3750 C   0  0  0  0  0  0  0  0  0  0  0  0
   -6.8290   16.3040  -33.6230 C   0  0  0  0  0  0  0  0  0  0  0  0
   -7.5320   21.1280  -31.7710 C   0  0  0  0  0  0  0  0  0  0  0  0
   -7.0370   22.4330  -31.7420 C   0  0  0  0  0  0  0  0  0  0  0  0
   -5.6650   22.6820  -31.9000 C   0  0  0  0  0  0  0  0  0  0  0  0
   -5.2040   24.0020  -31.8720 O   0  0  0  0  0  0  0  0  0  0  0  0
   -1.5728   21.1280  -30.0627 H   0  0  0  0  0  0  0  0  0  0  0  0
   -0.9373   18.5468  -26.0909 H   0  0  0  0  0  0  0  0  0  0  0  0
   -1.5911   17.3847  -27.2792 H   0  0  0  0  0  0  0  0  0  0  0  0
    1.2348   18.2305  -26.7910 H   0  0  0  0  0  0  0  0  0  0  0  0
    0.6397   16.7370  -27.5282 H   0  0  0  0  0  0  0  0  0  0  0  0
    1.6294   19.1092  -28.8649 H   0  0  0  0  0  0  0  0  0  0  0  0
    0.9838   17.6584  -29.6432 H   0  0  0  0  0  0  0  0  0  0  0  0
   -0.2425   20.1986  -29.6276 H   0  0  0  0  0  0  0  0  0  0  0  0
   -1.0834   18.6672  -30.0024 H   0  0  0  0  0  0  0  0  0  0  0  0
   -1.9353   23.4690  -26.4394 H   0  0  0  0  0  0  0  0  0  0  0  0
   -2.9657   25.3269  -27.7454 H   0  0  0  0  0  0  0  0  0  0  0  0
   -4.6024   19.4371  -32.2252 H   0  0  0  0  0  0  0  0  0  0  0  0
   -6.3259   18.3440  -35.4931 H   0  0  0  0  0  0  0  0  0  0  0  0
   -6.1844   19.5646  -34.1538 H   0  0  0  0  0  0  0  0  0  0  0  0
   -3.9825   18.5624  -34.8443 H   0  0  0  0  0  0  0  0  0  0  0  0
   -4.4119   18.3027  -33.1060 H   0  0  0  0  0  0  0  0  0  0  0  0
   -5.1895   14.8970  -33.4691 H   0  0  0  0  0  0  0  0  0  0  0  0
   -5.0735   16.3206  -32.3640 H   0  0  0  0  0  0  0  0  0  0  0  0
   -7.1227   15.8907  -34.5992 H   0  0  0  0  0  0  0  0  0  0  0  0
   -7.4125   15.8551  -32.8057 H   0  0  0  0  0  0  0  0  0  0  0  0
   -8.6103   20.9467  -31.6505 H   0  0  0  0  0  0  0  0  0  0  0  0
   -7.7295   23.2747  -31.5938 H   0  0  0  0  0  0  0  0  0  0  0  0
   -4.2620   24.2310  -31.5820 H   0  0  0  0  0  0  0  0  0  0  0  0
  1  2  2  0
  2  3  1  0
  3  4  1  0
  4  5  2  0
  5  6  1  0
  6  7  1  0
  7  8  2  0
  7  9  2  0
  7 10  1  0
 10 11  1  0
 11 12  1  0
 12 13  1  0
 13 14  1  0
  6 15  2  0
 15 16  1  0
 16 17  2  0
 17 18  1  0
  2 19  1  0
 19 20  2  0
 20 21  1  0
 21 22  1  0
 22 23  2  0
 22 24  2  0
 22 25  1  0
 25 26  1  0
 26 27  1  0
 27 28  1  0
 28 29  1  0
 29 30  1  0
 21 31  2  0
 31 32  1  0
 32 33  2  0
 33 34  1  0
 17  4  1  0
 33 19  1  0
 14 10  1  0
 30 25  1  0
  5 35  1  0
 11 36  1  0
 11 37  1  0
 12 38  1  0
 12 39  1  0
 13 40  1  0
 13 41  1  0
 14 42  1  0
 14 43  1  0
 15 44  1  0
 16 45  1  0
 20 46  1  0
 26 47  1  0
 26 48  1  0
 27 49  1  0
 27 50  1  0
 29 51  1  0
 29 52  1  0
 30 53  1  0
 30 54  1  0
 31 55  1  0
 32 56  1  0
 34 57  1  0
M  CHG  2   3  -1  18  -1
M  END
>  <UniqueID>  (23) 
23

>  <SMILES>  (23) 
O=C([N-]c1cc(S(=O)(=O)N2CCCC2)ccc1[O-])c1cc(S(=O)(=O)N2CCOCC2)ccc1O

>  <Energy>  (23) 
73.73579285896957

>  <Genealogy>  (23) 
O=C([N-]c1cc(S(=O)(=O)N2CCCC2)ccc1[O-])c1cc(S(=O)(=O)N2CCOCC2)ccc1O (protonated)
O=C([N-]c1cc(S(=O)(=O)N2CCCC2)ccc1[O-])c1cc(S(=O)(=O)N2CCOCC2)ccc1O (3D coordinates assigned)
O=C([N-]c1cc(S(=O)(=O)N2CCCC2)ccc1[O-])c1cc(S(=O)(=O)N2CCOCC2)ccc1O (nonaromatic ring conformer: 73.73579285896957 kcal/mol)

>  <smiles>  (23) 
O=C(Nc1cc(S(=O)(=O)N2CCCC2)ccc1O)c1cc(S(=O)(=O)N2CCOCC2)ccc1O

>  <score_type>  (23) 
oracle

>  <origin>  (23) 
adgpu

>  <m_score__min__energy>  (23) 
-14.09

>  <m_primary>  (23) 
energy

$$$$
23:0
     RDKit          3D

 43 46  0  0  0  0  0  0  0  0999 V2000
   -4.9940   25.6240  -31.2270 O   0  0  0  0  0  0  0  0  0  0  0  0
   -5.7180   24.9130  -30.1180 S   0  0  0  0  0  0  0  0  0  0  0  0
   -6.9180   25.7220  -29.7130 O   0  0  0  0  0  0  0  0  0  0  0  0
   -4.6500   24.7490  -28.7630 N   0  0  0  0  0  0  0  0  0  0  0  0
   -3.4800   23.9250  -28.8070 C   0  0  0  0  0  0  0  0  0  0  0  0
   -3.3990   22.5610  -28.5970 C   0  0  0  0  0  0  0  0  0  0  0  0
   -2.1410   22.1830  -28.7120 O   0  0  0  0  0  0  0  0  0  0  0  0
   -1.3930   23.2330  -28.9870 C   0  0  0  0  0  0  0  0  0  0  0  0
   -2.1980   24.3480  -29.0540 C   0  0  0  0  0  0  0  0  0  0  0  0
   -1.7870   25.6490  -29.3180 O   0  0  0  0  0  0  0  0  0  0  0  0
   -6.2490   23.3200  -30.6440 C   0  0  0  0  0  0  0  0  0  0  0  0
   -7.5720   22.9070  -30.4310 C   0  0  0  0  0  0  0  0  0  0  0  0
   -8.0000   21.6580  -30.8900 C   0  0  0  0  0  0  0  0  0  0  0  0
   -7.1070   20.8110  -31.5610 C   0  0  0  0  0  0  0  0  0  0  0  0
   -7.6420   19.2640  -32.2080 S   0  0  0  0  0  0  0  0  0  0  0  0
   -7.8900   18.3150  -31.0690 O   0  0  0  0  0  0  0  0  0  0  0  0
   -8.9140   19.4180  -32.9930 O   0  0  0  0  0  0  0  0  0  0  0  0
   -6.4030   18.6310  -33.2410 N   0  0  0  0  0  0  0  0  0  0  0  0
   -6.1130   19.1350  -34.5820 C   0  0  0  0  0  0  0  0  0  0  0  0
   -5.1260   18.1190  -35.2110 C   0  0  0  0  0  0  0  0  0  0  0  0
   -4.9890   17.0730  -34.1610 C   0  0  0  0  0  0  0  0  0  0  0  0
   -4.2240   15.9050  -34.1990 C   0  0  0  0  0  0  0  0  0  0  0  0
   -4.2270   15.0640  -33.0730 C   0  0  0  0  0  0  0  0  0  0  0  0
   -4.9890   15.4030  -31.9380 C   0  0  0  0  0  0  0  0  0  0  0  0
   -5.7500   16.5830  -31.9220 C   0  0  0  0  0  0  0  0  0  0  0  0
   -5.7270   17.4020  -33.0570 C   0  0  0  0  0  0  0  0  0  0  0  0
   -5.7830   21.2190  -31.7630 C   0  0  0  0  0  0  0  0  0  0  0  0
   -5.3550   22.4670  -31.3030 C   0  0  0  0  0  0  0  0  0  0  0  0
   -4.9030   25.2320  -27.8700 H   0  0  0  0  0  0  0  0  0  0  0  0
   -4.2471   21.8981  -28.3705 H   0  0  0  0  0  0  0  0  0  0  0  0
   -0.3035   23.2205  -29.1383 H   0  0  0  0  0  0  0  0  0  0  0  0
   -8.2746   23.5674  -29.9015 H   0  0  0  0  0  0  0  0  0  0  0  0
   -9.0396   21.3391  -30.7243 H   0  0  0  0  0  0  0  0  0  0  0  0
   -7.0359   19.1915  -35.1778 H   0  0  0  0  0  0  0  0  0  0  0  0
   -5.6854   20.1480  -34.5500 H   0  0  0  0  0  0  0  0  0  0  0  0
   -5.5372   17.6938  -36.1384 H   0  0  0  0  0  0  0  0  0  0  0  0
   -4.1643   18.5731  -35.4918 H   0  0  0  0  0  0  0  0  0  0  0  0
   -3.6324   15.6491  -35.0904 H   0  0  0  0  0  0  0  0  0  0  0  0
   -3.6326   14.1384  -33.0781 H   0  0  0  0  0  0  0  0  0  0  0  0
   -4.9880   14.7403  -31.0600 H   0  0  0  0  0  0  0  0  0  0  0  0
   -6.3486   16.8566  -31.0406 H   0  0  0  0  0  0  0  0  0  0  0  0
   -5.0780   20.5554  -32.2851 H   0  0  0  0  0  0  0  0  0  0  0  0
   -4.3122   22.7806  -31.4590 H   0  0  0  0  0  0  0  0  0  0  0  0
  1  2  2  0
  2  3  2  0
  2  4  1  0
  4  5  1  0
  5  6  2  0
  6  7  1  0
  7  8  1  0
  8  9  2  0
  9 10  1  0
  2 11  1  0
 11 12  2  0
 12 13  1  0
 13 14  2  0
 14 15  1  0
 15 16  2  0
 15 17  2  0
 15 18  1  0
 18 19  1  0
 19 20  1  0
 20 21  1  0
 21 22  2  0
 22 23  1  0
 23 24  2  0
 24 25  1  0
 25 26  2  0
 14 27  1  0
 27 28  2  0
  9  5  1  0
 28 11  1  0
 26 18  1  0
 26 21  1  0
  4 29  1  0
  6 30  1  0
  8 31  1  0
 12 32  1  0
 13 33  1  0
 19 34  1  0
 19 35  1  0
 20 36  1  0
 20 37  1  0
 22 38  1  0
 23 39  1  0
 24 40  1  0
 25 41  1  0
 27 42  1  0
 28 43  1  0
M  CHG  1  10  -1
M  END
>  <UniqueID>  (24) 
24

>  <SMILES>  (24) 
O=S(=O)(Nc1cocc1[O-])c1ccc(S(=O)(=O)N2CCc3ccccc32)cc1

>  <Energy>  (24) 
92.30141444311897

>  <Genealogy>  (24) 
O=S(=O)(Nc1cocc1[O-])c1ccc(S(=O)(=O)N2CCc3ccccc32)cc1 (protonated)
O=S(=O)(Nc1cocc1[O-])c1ccc(S(=O)(=O)N2CCc3ccccc32)cc1 (3D coordinates assigned)
O=S(=O)(Nc1cocc1[O-])c1ccc(S(=O)(=O)N2CCc3ccccc32)cc1 (nonaromatic ring conformer: 92.30141444311897 kcal/mol)

>  <smiles>  (24) 
O=S(=O)(Nc1cocc1O)c1ccc(S(=O)(=O)N2CCc3ccccc32)cc1

>  <score_type>  (24) 
oracle

>  <origin>  (24) 
adgpu

>  <m_score__min__energy>  (24) 
-13.380000000000001

>  <m_primary>  (24) 
energy

$$$$
24:0
     RDKit          3D

 60 63  0  0  0  0  0  0  0  0999 V2000
   -4.7330   23.2010  -32.0290 O   0  0  0  0  0  0  0  0  0  0  0  0
   -3.6640   22.6770  -31.6170 C   0  0  0  0  0  0  0  0  0  0  0  0
   -2.8610   21.9320  -32.5400 N   0  0  0  0  0  0  0  0  0  0  0  0
   -3.1450   20.6020  -32.9920 C   0  0  0  0  0  0  0  0  0  0  0  0
   -4.3340   19.9940  -32.5730 C   0  0  0  0  0  0  0  0  0  0  0  0
   -4.6330   18.6750  -32.9400 C   0  0  0  0  0  0  0  0  0  0  0  0
   -6.1350   17.9380  -32.3830 S   0  0  0  0  0  0  0  0  0  0  0  0
   -6.1100   16.4890  -32.7780 O   0  0  0  0  0  0  0  0  0  0  0  0
   -6.1960   18.0370  -30.8840 O   0  0  0  0  0  0  0  0  0  0  0  0
   -7.5270   18.7230  -33.1080 N   0  0  0  0  0  0  0  0  0  0  0  0
   -8.7390   18.6030  -32.2750 C   0  0  0  0  0  0  0  0  0  0  0  0
   -8.7670   19.6470  -31.1510 C   0  0  0  0  0  0  0  0  0  0  0  0
   -8.6660   20.9500  -31.6850 O   0  0  0  0  0  0  0  0  0  0  0  0
   -7.4120   21.1030  -32.3150 C   0  0  0  0  0  0  0  0  0  0  0  0
   -7.2570   20.1230  -33.4920 C   0  0  0  0  0  0  0  0  0  0  0  0
   -3.7140   17.9480  -33.7050 C   0  0  0  0  0  0  0  0  0  0  0  0
   -2.5270   18.5460  -34.1310 C   0  0  0  0  0  0  0  0  0  0  0  0
   -2.2220   19.8620  -33.7680 C   0  0  0  0  0  0  0  0  0  0  0  0
   -0.9860   20.3820  -34.1550 O   0  0  0  0  0  0  0  0  0  0  0  0
   -3.2430   22.8850  -30.2150 C   0  0  0  0  0  0  0  0  0  0  0  0
   -2.8830   21.7800  -29.4230 C   0  0  0  0  0  0  0  0  0  0  0  0
   -2.3790   21.9650  -28.1280 C   0  0  0  0  0  0  0  0  0  0  0  0
   -1.8460   20.5770  -27.1740 S   0  0  0  0  0  0  0  0  0  0  0  0
   -1.5540   21.0260  -25.7690 O   0  0  0  0  0  0  0  0  0  0  0  0
   -2.9550   19.5640  -27.1160 O   0  0  0  0  0  0  0  0  0  0  0  0
   -0.4110   19.8420  -27.8450 N   0  0  0  0  0  0  0  0  0  0  0  0
   -0.0680   20.4220  -29.1670 C   0  0  0  0  0  0  0  0  0  0  0  0
   -0.4390   19.5000  -30.3380 C   0  0  0  0  0  0  0  0  0  0  0  0
    0.2630   18.1370  -30.2190 C   0  0  0  0  0  0  0  0  0  0  0  0
    0.5000   17.7160  -28.7580 C   0  0  0  0  0  0  0  0  0  0  0  0
   -0.5260   18.3670  -27.8250 C   0  0  0  0  0  0  0  0  0  0  0  0
   -2.2560   23.2620  -27.6130 C   0  0  0  0  0  0  0  0  0  0  0  0
   -2.6340   24.3640  -28.3830 C   0  0  0  0  0  0  0  0  0  0  0  0
   -3.1170   24.1830  -29.6820 C   0  0  0  0  0  0  0  0  0  0  0  0
   -3.4740   25.2980  -30.4340 O   0  0  0  0  0  0  0  0  0  0  0  0
   -5.0421   20.5582  -31.9483 H   0  0  0  0  0  0  0  0  0  0  0  0
   -9.6241   18.7435  -32.9128 H   0  0  0  0  0  0  0  0  0  0  0  0
   -8.7373   17.6048  -31.8129 H   0  0  0  0  0  0  0  0  0  0  0  0
   -9.7119   19.5556  -30.5953 H   0  0  0  0  0  0  0  0  0  0  0  0
   -7.9140   19.4702  -30.4794 H   0  0  0  0  0  0  0  0  0  0  0  0
   -7.3228   22.1327  -32.6914 H   0  0  0  0  0  0  0  0  0  0  0  0
   -6.6237   20.8897  -31.5781 H   0  0  0  0  0  0  0  0  0  0  0  0
   -7.9616   20.4122  -34.2857 H   0  0  0  0  0  0  0  0  0  0  0  0
   -6.2131   20.1779  -33.8344 H   0  0  0  0  0  0  0  0  0  0  0  0
   -3.9277   16.9023  -33.9713 H   0  0  0  0  0  0  0  0  0  0  0  0
   -1.8248   17.9771  -34.7581 H   0  0  0  0  0  0  0  0  0  0  0  0
   -0.7390   21.3560  -34.0510 H   0  0  0  0  0  0  0  0  0  0  0  0
   -2.9979   20.7618  -29.8231 H   0  0  0  0  0  0  0  0  0  0  0  0
   -0.6084   21.3729  -29.2841 H   0  0  0  0  0  0  0  0  0  0  0  0
    1.0223   20.5653  -29.1920 H   0  0  0  0  0  0  0  0  0  0  0  0
   -1.5278   19.3435  -30.3400 H   0  0  0  0  0  0  0  0  0  0  0  0
   -0.1133   19.9782  -31.2735 H   0  0  0  0  0  0  0  0  0  0  0  0
   -0.3624   17.3753  -30.7076 H   0  0  0  0  0  0  0  0  0  0  0  0
    1.2470   18.2270  -30.7024 H   0  0  0  0  0  0  0  0  0  0  0  0
    0.4134   16.6222  -28.6804 H   0  0  0  0  0  0  0  0  0  0  0  0
    1.5054   18.0456  -28.4573 H   0  0  0  0  0  0  0  0  0  0  0  0
   -1.5375   18.0820  -28.1501 H   0  0  0  0  0  0  0  0  0  0  0  0
   -0.3338   18.0176  -26.7998 H   0  0  0  0  0  0  0  0  0  0  0  0
   -1.8600   23.4130  -26.5979 H   0  0  0  0  0  0  0  0  0  0  0  0
   -2.5513   25.3784  -27.9656 H   0  0  0  0  0  0  0  0  0  0  0  0
  1  2  2  0
  2  3  1  0
  3  4  1  0
  4  5  2  0
  5  6  1  0
  6  7  1  0
  7  8  2  0
  7  9  2  0
  7 10  1  0
 10 11  1  0
 11 12  1  0
 12 13  1  0
 13 14  1  0
 14 15  1  0
  6 16  2  0
 16 17  1  0
 17 18  2  0
 18 19  1  0
  2 20  1  0
 20 21  2  0
 21 22  1  0
 22 23  1  0
 23 24  2  0
 23 25  2  0
 23 26  1  0
 26 27  1  0
 27 28  1  0
 28 29  1  0
 29 30  1  0
 30 31  1  0
 22 32  2  0
 32 33  1  0
 33 34  2  0
 34 35  1  0
 18  4  1  0
 34 20  1  0
 15 10  1  0
 31 26  1  0
  5 36  1  0
 11 37  1  0
 11 38  1  0
 12 39  1  0
 12 40  1  0
 14 41  1  0
 14 42  1  0
 15 43  1  0
 15 44  1  0
 16 45  1  0
 17 46  1  0
 19 47  1  0
 21 48  1  0
 27 49  1  0
 27 50  1  0
 28 51  1  0
 28 52  1  0
 29 53  1  0
 29 54  1  0
 30 55  1  0
 30 56  1  0
 31 57  1  0
 31 58  1  0
 32 59  1  0
 33 60  1  0
M  CHG  2   3  -1  35  -1
M  END
>  <UniqueID>  (25) 
25

>  <SMILES>  (25) 
O=C([N-]c1cc(S(=O)(=O)N2CCOCC2)ccc1O)c1cc(S(=O)(=O)N2CCCCC2)ccc1[O-]

>  <Energy>  (25) 
79.19724373004594

>  <Genealogy>  (25) 
O=C([N-]c1cc(S(=O)(=O)N2CCOCC2)ccc1O)c1cc(S(=O)(=O)N2CCCCC2)ccc1[O-] (protonated)
O=C([N-]c1cc(S(=O)(=O)N2CCOCC2)ccc1O)c1cc(S(=O)(=O)N2CCCCC2)ccc1[O-] (3D coordinates assigned)
O=C([N-]c1cc(S(=O)(=O)N2CCOCC2)ccc1O)c1cc(S(=O)(=O)N2CCCCC2)ccc1[O-] (nonaromatic ring conformer: 79.19724373004594 kcal/mol)

>  <smiles>  (25) 
O=C(Nc1cc(S(=O)(=O)N2CCOCC2)ccc1O)c1cc(S(=O)(=O)N2CCCCC2)ccc1O

>  <score_type>  (25) 
oracle

>  <origin>  (25) 
adgpu

>  <m_score__min__energy>  (25) 
-14.43

>  <m_primary>  (25) 
energy

$$$$
25:0
     RDKit          3D

 49 52  0  0  0  0  0  0  0  0999 V2000
   -7.9480   18.6840  -32.2900 C   0  0  0  0  0  0  0  0  0  0  0  0
   -7.8210   20.1510  -31.9950 C   0  0  0  0  0  0  0  0  0  0  0  0
   -8.9680   20.9470  -31.8420 C   0  0  0  0  0  0  0  0  0  0  0  0
   -8.8490   22.3200  -31.6060 C   0  0  0  0  0  0  0  0  0  0  0  0
   -7.5850   22.9120  -31.5340 C   0  0  0  0  0  0  0  0  0  0  0  0
   -6.4320   22.1310  -31.7010 C   0  0  0  0  0  0  0  0  0  0  0  0
   -4.8490   22.8990  -31.6340 S   0  0  0  0  0  0  0  0  0  0  0  0
   -4.1670   22.6730  -32.9530 O   0  0  0  0  0  0  0  0  0  0  0  0
   -4.9920   24.3800  -31.4240 O   0  0  0  0  0  0  0  0  0  0  0  0
   -3.9540   22.2220  -30.2610 C   0  0  0  0  0  0  0  0  0  0  0  0
   -4.3030   22.6760  -28.9820 C   0  0  0  0  0  0  0  0  0  0  0  0
   -3.6720   22.2010  -27.8800 N   0  0  0  0  0  0  0  0  0  0  0  0
   -2.6790   21.2780  -27.9630 C   0  0  0  0  0  0  0  0  0  0  0  0
   -2.0650   20.8170  -26.7950 C   0  0  0  0  0  0  0  0  0  0  0  0
   -1.0440   19.8680  -26.8650 C   0  0  0  0  0  0  0  0  0  0  0  0
   -0.6120   19.3820  -28.1080 C   0  0  0  0  0  0  0  0  0  0  0  0
    0.4620   18.3370  -28.1780 C   0  0  0  0  0  0  0  0  0  0  0  0
   -1.2380   19.8300  -29.2830 C   0  0  0  0  0  0  0  0  0  0  0  0
   -2.2750   20.7840  -29.2230 C   0  0  0  0  0  0  0  0  0  0  0  0
   -2.9230   21.2590  -30.3870 C   0  0  0  0  0  0  0  0  0  0  0  0
   -2.5300   20.7540  -31.6720 N   0  0  0  0  0  0  0  0  0  0  0  0
   -3.3590   19.7220  -32.3110 C   0  0  0  0  0  0  0  0  0  0  0  0
   -3.1720   19.7090  -33.8330 C   0  0  0  0  0  0  0  0  0  0  0  0
   -1.8080   19.8300  -34.1760 O   0  0  0  0  0  0  0  0  0  0  0  0
   -1.3610   21.1260  -33.8310 C   0  0  0  0  0  0  0  0  0  0  0  0
   -1.3250   21.3070  -32.3100 C   0  0  0  0  0  0  0  0  0  0  0  0
   -6.5530   20.7530  -31.9400 C   0  0  0  0  0  0  0  0  0  0  0  0
   -7.9966   18.1229  -31.3451 H   0  0  0  0  0  0  0  0  0  0  0  0
   -8.8650   18.5048  -32.8705 H   0  0  0  0  0  0  0  0  0  0  0  0
   -7.0754   18.3498  -32.8705 H   0  0  0  0  0  0  0  0  0  0  0  0
   -9.9654   20.4878  -31.9082 H   0  0  0  0  0  0  0  0  0  0  0  0
   -9.7517   22.9352  -31.4768 H   0  0  0  0  0  0  0  0  0  0  0  0
   -7.4943   23.9920  -31.3461 H   0  0  0  0  0  0  0  0  0  0  0  0
   -5.0989   23.4272  -28.8707 H   0  0  0  0  0  0  0  0  0  0  0  0
   -2.3877   21.2036  -25.8170 H   0  0  0  0  0  0  0  0  0  0  0  0
   -0.5756   19.4992  -25.9406 H   0  0  0  0  0  0  0  0  0  0  0  0
    0.7592   18.0478  -27.1591 H   0  0  0  0  0  0  0  0  0  0  0  0
    0.0808   17.4547  -28.7131 H   0  0  0  0  0  0  0  0  0  0  0  0
    1.3335   18.7422  -28.7131 H   0  0  0  0  0  0  0  0  0  0  0  0
   -0.9169   19.4336  -30.2576 H   0  0  0  0  0  0  0  0  0  0  0  0
   -3.0770   18.7379  -31.9084 H   0  0  0  0  0  0  0  0  0  0  0  0
   -4.4141   19.9470  -32.0963 H   0  0  0  0  0  0  0  0  0  0  0  0
   -3.5615   18.7622  -34.2352 H   0  0  0  0  0  0  0  0  0  0  0  0
   -3.7180   20.5628  -34.2606 H   0  0  0  0  0  0  0  0  0  0  0  0
   -0.3493   21.2772  -34.2354 H   0  0  0  0  0  0  0  0  0  0  0  0
   -2.0593   21.8624  -34.2554 H   0  0  0  0  0  0  0  0  0  0  0  0
   -0.4399   20.7910  -31.9096 H   0  0  0  0  0  0  0  0  0  0  0  0
   -1.2827   22.3843  -32.0918 H   0  0  0  0  0  0  0  0  0  0  0  0
   -5.6502   20.1415  -32.0850 H   0  0  0  0  0  0  0  0  0  0  0  0
  1  2  1  0
  2  3  2  0
  3  4  1  0
  4  5  2  0
  5  6  1  0
  6  7  1  0
  7  8  2  0
  7  9  2  0
  7 10  1  0
 10 11  2  0
 11 12  1  0
 12 13  2  0
 13 14  1  0
 14 15  2  0
 15 16  1  0
 16 17  1  0
 16 18  2  0
 18 19  1  0
 19 20  2  0
 20 21  1  0
 21 22  1  0
 22 23  1  0
 23 24  1  0
 24 25  1  0
 25 26  1  0
  6 27  2  0
 27  2  1  0
 20 10  1  0
 26 21  1  0
 19 13  1  0
  1 28  1  0
  1 29  1  0
  1 30  1  0
  3 31  1  0
  4 32  1  0
  5 33  1  0
 11 34  1  0
 14 35  1  0
 15 36  1  0
 17 37  1  0
 17 38  1  0
 17 39  1  0
 18 40  1  0
 22 41  1  0
 22 42  1  0
 23 43  1  0
 23 44  1  0
 25 45  1  0
 25 46  1  0
 26 47  1  0
 26 48  1  0
 27 49  1  0
M  END
>  <UniqueID>  (26) 
26

>  <SMILES>  (26) 
Cc1cccc(S(=O)(=O)c2cnc3ccc(C)cc3c2N2CCOCC2)c1

>  <Energy>  (26) 
66.3966340516411

>  <Genealogy>  (26) 
Cc1cccc(S(=O)(=O)c2cnc3ccc(C)cc3c2N2CCOCC2)c1 (3D coordinates assigned)
Cc1cccc(S(=O)(=O)c2cnc3ccc(C)cc3c2N2CCOCC2)c1 (nonaromatic ring conformer: 66.3966340516411 kcal/mol)

>  <smiles>  (26) 
Cc1cccc(S(=O)(=O)c2cnc3ccc(C)cc3c2N2CCOCC2)c1

>  <score_type>  (26) 
oracle

>  <origin>  (26) 
adgpu

>  <m_score__min__energy>  (26) 
-9.3699999999999992

>  <m_primary>  (26) 
energy

$$$$
26:0
     RDKit          3D

 45 46  0  0  0  0  0  0  0  0999 V2000
   -9.3960   20.0570  -32.1060 C   0  0  0  0  0  0  0  0  0  0  0  0
   -8.4300   21.0970  -32.2190 O   0  0  0  0  0  0  0  0  0  0  0  0
   -7.1020   20.9120  -32.6370 C   0  0  0  0  0  0  0  0  0  0  0  0
   -6.7120   19.7800  -33.3780 C   0  0  0  0  0  0  0  0  0  0  0  0
   -5.3860   19.6170  -33.7840 C   0  0  0  0  0  0  0  0  0  0  0  0
   -4.4230   20.5880  -33.4700 C   0  0  0  0  0  0  0  0  0  0  0  0
   -3.0450   20.4290  -33.8500 N   0  0  0  0  0  0  0  0  0  0  0  0
   -2.2870   19.2270  -33.6470 C   0  0  0  0  0  0  0  0  0  0  0  0
   -2.8610   18.1500  -33.3260 O   0  0  0  0  0  0  0  0  0  0  0  0
   -0.8010   19.2420  -33.8180 C   0  0  0  0  0  0  0  0  0  0  0  0
   -0.1370   20.8020  -33.2670 S   0  0  0  0  0  0  0  0  0  0  0  0
   -0.5340   21.8910  -34.2240 O   0  0  0  0  0  0  0  0  0  0  0  0
    1.3640   20.7300  -33.2130 O   0  0  0  0  0  0  0  0  0  0  0  0
   -0.7670   21.1600  -31.6620 C   0  0  0  0  0  0  0  0  0  0  0  0
   -0.1970   20.5550  -30.5330 C   0  0  0  0  0  0  0  0  0  0  0  0
   -0.7080   20.8270  -29.2590 C   0  0  0  0  0  0  0  0  0  0  0  0
   -1.7900   21.6990  -29.1100 C   0  0  0  0  0  0  0  0  0  0  0  0
   -2.3660   22.2970  -30.2330 C   0  0  0  0  0  0  0  0  0  0  0  0
   -1.8580   22.0280  -31.5080 C   0  0  0  0  0  0  0  0  0  0  0  0
   -4.8010   21.7030  -32.7120 C   0  0  0  0  0  0  0  0  0  0  0  0
   -6.1330   21.8810  -32.3030 C   0  0  0  0  0  0  0  0  0  0  0  0
   -6.4830   23.0980  -31.4820 C   0  0  0  0  0  0  0  0  0  0  0  0
   -5.5040   24.1190  -31.6640 O   0  0  0  0  0  0  0  0  0  0  0  0
   -5.0590   24.9510  -30.6310 C   0  0  0  0  0  0  0  0  0  0  0  0
   -6.0290   25.4350  -29.6080 C   0  0  0  0  0  0  0  0  0  0  0  0
   -3.8410   25.2620  -30.5300 O   0  0  0  0  0  0  0  0  0  0  0  0
   -9.5887   19.8495  -31.0431 H   0  0  0  0  0  0  0  0  0  0  0  0
  -10.3308   20.3703  -32.5938 H   0  0  0  0  0  0  0  0  0  0  0  0
   -9.0147   19.1478  -32.5938 H   0  0  0  0  0  0  0  0  0  0  0  0
   -7.4594   19.0165  -33.6396 H   0  0  0  0  0  0  0  0  0  0  0  0
   -5.0946   18.7221  -34.3534 H   0  0  0  0  0  0  0  0  0  0  0  0
   -2.5850   21.2130  -34.3650 H   0  0  0  0  0  0  0  0  0  0  0  0
   -0.3582   18.4282  -33.2249 H   0  0  0  0  0  0  0  0  0  0  0  0
   -0.5595   19.1035  -34.8822 H   0  0  0  0  0  0  0  0  0  0  0  0
    0.6526   19.8659  -30.6487 H   0  0  0  0  0  0  0  0  0  0  0  0
   -0.2576   20.3540  -28.3739 H   0  0  0  0  0  0  0  0  0  0  0  0
   -2.1882   21.9145  -28.1075 H   0  0  0  0  0  0  0  0  0  0  0  0
   -3.2200   22.9802  -30.1146 H   0  0  0  0  0  0  0  0  0  0  0  0
   -2.3148   22.4979  -32.3915 H   0  0  0  0  0  0  0  0  0  0  0  0
   -4.0438   22.4505  -32.4327 H   0  0  0  0  0  0  0  0  0  0  0  0
   -7.4658   23.4778  -31.7978 H   0  0  0  0  0  0  0  0  0  0  0  0
   -6.5106   22.8155  -30.4192 H   0  0  0  0  0  0  0  0  0  0  0  0
   -5.6307   25.2363  -28.6021 H   0  0  0  0  0  0  0  0  0  0  0  0
   -6.1851   26.5166  -29.7335 H   0  0  0  0  0  0  0  0  0  0  0  0
   -6.9871   24.9093  -29.7335 H   0  0  0  0  0  0  0  0  0  0  0  0
  1  2  1  0
  2  3  1  0
  3  4  2  0
  4  5  1  0
  5  6  2  0
  6  7  1  0
  7  8  1  0
  8  9  2  0
  8 10  1  0
 10 11  1  0
 11 12  2  0
 11 13  2  0
 11 14  1  0
 14 15  2  0
 15 16  1  0
 16 17  2  0
 17 18  1  0
 18 19  2  0
  6 20  1  0
 20 21  2  0
 21 22  1  0
 22 23  1  0
 23 24  1  0
 24 25  1  0
 24 26  2  0
 21  3  1  0
 19 14  1  0
  1 27  1  0
  1 28  1  0
  1 29  1  0
  4 30  1  0
  5 31  1  0
  7 32  1  0
 10 33  1  0
 10 34  1  0
 15 35  1  0
 16 36  1  0
 17 37  1  0
 18 38  1  0
 19 39  1  0
 20 40  1  0
 22 41  1  0
 22 42  1  0
 25 43  1  0
 25 44  1  0
 25 45  1  0
M  END
>  <UniqueID>  (27) 
27

>  <SMILES>  (27) 
COc1ccc(NC(=O)CS(=O)(=O)c2ccccc2)cc1COC(C)=O

>  <Energy>  (27) 
41.000399537520956

>  <Genealogy>  (27) 
COc1ccc(NC(=O)CS(=O)(=O)c2ccccc2)cc1COC(C)=O (3D coordinates assigned)
COc1ccc(NC(=O)CS(=O)(=O)c2ccccc2)cc1COC(C)=O (optimized conformer: 41.000399537520956 kcal/mol)

>  <smiles>  (27) 
COc1ccc(NC(=O)CS(=O)(=O)c2ccccc2)cc1COC(C)=O

>  <score_type>  (27) 
oracle

>  <origin>  (27) 
adgpu

>  <m_score__min__energy>  (27) 
-8.6999999999999993

>  <m_primary>  (27) 
energy

$$$$
27:0
     RDKit          3D

 38 40  0  0  0  0  0  0  0  0999 V2000
   -3.5020   20.6620  -29.1940 O   0  0  0  0  0  0  0  0  0  0  0  0
   -3.6850   21.8640  -29.5290 C   0  0  0  0  0  0  0  0  0  0  0  0
   -3.8950   22.8980  -28.4680 C   0  0  0  0  0  0  0  0  0  0  0  0
   -2.7560   23.8690  -28.4690 C   0  0  0  0  0  0  0  0  0  0  0  0
   -1.4120   23.7840  -27.4550 S   0  0  0  0  0  0  0  0  0  0  0  0
   -0.6790   25.1110  -28.1810 C   0  0  0  0  0  0  0  0  0  0  0  0
    0.4360   25.5830  -27.8350 O   0  0  0  0  0  0  0  0  0  0  0  0
   -1.4140   25.6240  -29.1910 N   0  0  0  0  0  0  0  0  0  0  0  0
   -2.5690   24.9280  -29.3560 C   0  0  0  0  0  0  0  0  0  0  0  0
   -3.4840   25.2590  -30.3450 O   0  0  0  0  0  0  0  0  0  0  0  0
   -3.6330   22.2470  -30.9090 N   0  0  0  0  0  0  0  0  0  0  0  0
   -3.3750   21.3010  -31.9520 C   0  0  0  0  0  0  0  0  0  0  0  0
   -2.0620   20.8550  -32.1490 C   0  0  0  0  0  0  0  0  0  0  0  0
   -1.7690   19.9420  -33.1620 C   0  0  0  0  0  0  0  0  0  0  0  0
   -2.7830   19.4780  -33.9990 C   0  0  0  0  0  0  0  0  0  0  0  0
   -4.0940   19.9310  -33.8290 C   0  0  0  0  0  0  0  0  0  0  0  0
   -4.4080   20.8450  -32.8060 C   0  0  0  0  0  0  0  0  0  0  0  0
   -5.8180   21.3810  -32.7040 C   0  0  0  0  0  0  0  0  0  0  0  0
   -6.7910   20.2710  -32.4060 C   0  0  0  0  0  0  0  0  0  0  0  0
   -8.1650   20.4390  -32.6570 C   0  0  0  0  0  0  0  0  0  0  0  0
   -9.0590   19.3960  -32.3970 C   0  0  0  0  0  0  0  0  0  0  0  0
   -8.5920   18.1820  -31.8820 C   0  0  0  0  0  0  0  0  0  0  0  0
   -7.2280   18.0110  -31.6260 C   0  0  0  0  0  0  0  0  0  0  0  0
   -6.3300   19.0490  -31.8870 C   0  0  0  0  0  0  0  0  0  0  0  0
   -4.8336   23.4368  -28.6648 H   0  0  0  0  0  0  0  0  0  0  0  0
   -3.9481   22.4038  -27.4867 H   0  0  0  0  0  0  0  0  0  0  0  0
   -3.6030   23.2640  -31.1490 H   0  0  0  0  0  0  0  0  0  0  0  0
   -1.2558   21.2275  -31.5000 H   0  0  0  0  0  0  0  0  0  0  0  0
   -0.7369   19.5877  -33.3007 H   0  0  0  0  0  0  0  0  0  0  0  0
   -2.5507   18.7544  -34.7942 H   0  0  0  0  0  0  0  0  0  0  0  0
   -4.8871   19.5702  -34.5004 H   0  0  0  0  0  0  0  0  0  0  0  0
   -5.8630   22.1266  -31.8965 H   0  0  0  0  0  0  0  0  0  0  0  0
   -6.0910   21.8411  -33.6651 H   0  0  0  0  0  0  0  0  0  0  0  0
   -8.5368   21.3931  -33.0587 H   0  0  0  0  0  0  0  0  0  0  0  0
  -10.1321   19.5303  -32.5979 H   0  0  0  0  0  0  0  0  0  0  0  0
   -9.2972   17.3627  -31.6786 H   0  0  0  0  0  0  0  0  0  0  0  0
   -6.8613   17.0574  -31.2183 H   0  0  0  0  0  0  0  0  0  0  0  0
   -5.2577   18.9092  -31.6854 H   0  0  0  0  0  0  0  0  0  0  0  0
  1  2  2  0
  2  3  1  0
  3  4  1  0
  4  5  1  0
  5  6  1  0
  6  7  2  0
  6  8  1  0
  8  9  1  0
  9 10  1  0
  2 11  1  0
 11 12  1  0
 12 13  2  0
 13 14  1  0
 14 15  2  0
 15 16  1  0
 16 17  2  0
 17 18  1  0
 18 19  1  0
 19 20  2  0
 20 21  1  0
 21 22  2  0
 22 23  1  0
 23 24  2  0
  9  4  2  0
 17 12  1  0
 24 19  1  0
  3 25  1  0
  3 26  1  0
 11 27  1  0
 13 28  1  0
 14 29  1  0
 15 30  1  0
 16 31  1  0
 18 32  1  0
 18 33  1  0
 20 34  1  0
 21 35  1  0
 22 36  1  0
 23 37  1  0
 24 38  1  0
M  CHG  2   8  -1  10  -1
M  END
>  <UniqueID>  (28) 
28

>  <SMILES>  (28) 
O=C(Cc1sc(=O)[n-]c1[O-])Nc1ccccc1Cc1ccccc1

>  <Energy>  (28) 
73.81649956737712

>  <Genealogy>  (28) 
O=C(Cc1sc(=O)[n-]c1[O-])Nc1ccccc1Cc1ccccc1 (protonated)
O=C(Cc1sc(=O)[n-]c1[O-])Nc1ccccc1Cc1ccccc1 (3D coordinates assigned)
O=C(Cc1sc(=O)[n-]c1[O-])Nc1ccccc1Cc1ccccc1 (optimized conformer: 73.81649956737712 kcal/mol)

>  <smiles>  (28) 
O=C(Cc1sc(=O)[nH]c1O)Nc1ccccc1Cc1ccccc1

>  <score_type>  (28) 
oracle

>  <origin>  (28) 
adgpu

>  <m_score__min__energy>  (28) 
-12.98

>  <m_primary>  (28) 
energy

$$$$
28:0
     RDKit          3D

 52 54  0  0  0  0  0  0  0  0999 V2000
   -8.1110   18.6390  -32.2720 C   0  0  0  0  0  0  0  0  0  0  0  0
   -8.7730   19.8430  -31.6090 C   0  0  0  0  0  0  0  0  0  0  0  0
   -7.8930   21.0610  -31.7170 C   0  0  0  0  0  0  0  0  0  0  0  0
   -6.6090   20.9620  -32.2750 C   0  0  0  0  0  0  0  0  0  0  0  0
   -5.7820   22.0870  -32.3430 C   0  0  0  0  0  0  0  0  0  0  0  0
   -6.2140   23.3170  -31.8290 C   0  0  0  0  0  0  0  0  0  0  0  0
   -5.3410   24.4510  -31.9250 N   0  0  0  0  0  0  0  0  0  0  0  0
   -4.9220   25.2810  -30.8370 C   0  0  0  0  0  0  0  0  0  0  0  0
   -5.7620   26.0470  -30.2970 O   0  0  0  0  0  0  0  0  0  0  0  0
   -3.5640   25.2440  -30.3760 N   0  0  0  0  0  0  0  0  0  0  0  0
   -2.9880   24.2970  -29.4610 C   0  0  0  0  0  0  0  0  0  0  0  0
   -3.6550   23.1130  -29.1290 C   0  0  0  0  0  0  0  0  0  0  0  0
   -3.0890   22.2100  -28.2380 C   0  0  0  0  0  0  0  0  0  0  0  0
   -1.8500   22.4710  -27.6330 C   0  0  0  0  0  0  0  0  0  0  0  0
   -1.2840   21.4180  -26.7160 C   0  0  0  0  0  0  0  0  0  0  0  0
   -1.1720   23.6880  -27.9240 C   0  0  0  0  0  0  0  0  0  0  0  0
    0.4070   24.1140  -27.1880 S   0  0  0  0  0  0  0  0  0  0  0  0
    1.1870   22.8730  -26.8510 O   0  0  0  0  0  0  0  0  0  0  0  0
    1.2220   24.8610  -28.2070 O   0  0  0  0  0  0  0  0  0  0  0  0
    0.2620   25.1300  -25.7650 N   0  0  0  0  0  0  0  0  0  0  0  0
   -0.9910   24.9110  -25.0130 C   0  0  0  0  0  0  0  0  0  0  0  0
   -1.9930   26.0570  -25.2350 C   0  0  0  0  0  0  0  0  0  0  0  0
   -1.4900   27.3270  -24.8400 O   0  0  0  0  0  0  0  0  0  0  0  0
   -0.0800   27.4580  -24.9900 C   0  0  0  0  0  0  0  0  0  0  0  0
    0.5090   26.5500  -26.0810 C   0  0  0  0  0  0  0  0  0  0  0  0
   -1.7590   24.5960  -28.8410 C   0  0  0  0  0  0  0  0  0  0  0  0
   -1.1110   25.8010  -29.1270 O   0  0  0  0  0  0  0  0  0  0  0  0
   -7.5050   23.4190  -31.2850 C   0  0  0  0  0  0  0  0  0  0  0  0
   -8.3350   22.2960  -31.2210 C   0  0  0  0  0  0  0  0  0  0  0  0
   -7.7347   17.9547  -31.4973 H   0  0  0  0  0  0  0  0  0  0  0  0
   -8.8475   18.1144  -32.8984 H   0  0  0  0  0  0  0  0  0  0  0  0
   -7.2734   18.9798  -32.8984 H   0  0  0  0  0  0  0  0  0  0  0  0
   -9.7332   20.0461  -32.1057 H   0  0  0  0  0  0  0  0  0  0  0  0
   -8.9342   19.6164  -30.5447 H   0  0  0  0  0  0  0  0  0  0  0  0
   -6.2521   19.9955  -32.6603 H   0  0  0  0  0  0  0  0  0  0  0  0
   -4.7860   22.0062  -32.8028 H   0  0  0  0  0  0  0  0  0  0  0  0
   -4.6357   22.8953  -29.5772 H   0  0  0  0  0  0  0  0  0  0  0  0
   -3.6202   21.2759  -28.0030 H   0  0  0  0  0  0  0  0  0  0  0  0
   -1.4451   21.7177  -25.6700 H   0  0  0  0  0  0  0  0  0  0  0  0
   -1.7879   20.4585  -26.9043 H   0  0  0  0  0  0  0  0  0  0  0  0
   -0.2057   21.3090  -26.9043 H   0  0  0  0  0  0  0  0  0  0  0  0
   -1.4477   23.9678  -25.3474 H   0  0  0  0  0  0  0  0  0  0  0  0
   -0.7463   24.8710  -23.9413 H   0  0  0  0  0  0  0  0  0  0  0  0
   -2.2449   26.0984  -26.3050 H   0  0  0  0  0  0  0  0  0  0  0  0
   -2.8735   25.8461  -24.6103 H   0  0  0  0  0  0  0  0  0  0  0  0
    0.1468   28.5031  -25.2474 H   0  0  0  0  0  0  0  0  0  0  0  0
    0.3758   27.1540  -24.0361 H   0  0  0  0  0  0  0  0  0  0  0  0
    0.0392   26.7926  -27.0456 H   0  0  0  0  0  0  0  0  0  0  0  0
    1.5949   26.7177  -26.1334 H   0  0  0  0  0  0  0  0  0  0  0  0
   -0.1130   25.9290  -29.0200 H   0  0  0  0  0  0  0  0  0  0  0  0
   -7.8647   24.3875  -30.9074 H   0  0  0  0  0  0  0  0  0  0  0  0
   -9.3390   22.3814  -30.7797 H   0  0  0  0  0  0  0  0  0  0  0  0
  1  2  1  0
  2  3  1  0
  3  4  2  0
  4  5  1  0
  5  6  2  0
  6  7  1  0
  7  8  1  0
  8  9  2  0
  8 10  1  0
 10 11  1  0
 11 12  2  0
 12 13  1  0
 13 14  2  0
 14 15  1  0
 14 16  1  0
 16 17  1  0
 17 18  2  0
 17 19  2  0
 17 20  1  0
 20 21  1  0
 21 22  1  0
 22 23  1  0
 23 24  1  0
 24 25  1  0
 16 26  2  0
 26 27  1  0
  6 28  1  0
 28 29  2  0
 29  3  1  0
 26 11  1  0
 25 20  1  0
  1 30  1  0
  1 31  1  0
  1 32  1  0
  2 33  1  0
  2 34  1  0
  4 35  1  0
  5 36  1  0
 12 37  1  0
 13 38  1  0
 15 39  1  0
 15 40  1  0
 15 41  1  0
 21 42  1  0
 21 43  1  0
 22 44  1  0
 22 45  1  0
 24 46  1  0
 24 47  1  0
 25 48  1  0
 25 49  1  0
 27 50  1  0
 28 51  1  0
 29 52  1  0
M  CHG  2   7  -1  10  -1
M  END
>  <UniqueID>  (29) 
29

>  <SMILES>  (29) 
CCc1ccc([N-]C(=O)[N-]c2ccc(C)c(S(=O)(=O)N3CCOCC3)c2O)cc1

>  <Energy>  (29) 
76.14729500640229

>  <Genealogy>  (29) 
CCc1ccc([N-]C(=O)[N-]c2ccc(C)c(S(=O)(=O)N3CCOCC3)c2O)cc1 (protonated)
CCc1ccc([N-]C(=O)[N-]c2ccc(C)c(S(=O)(=O)N3CCOCC3)c2O)cc1 (3D coordinates assigned)
CCc1ccc([N-]C(=O)[N-]c2ccc(C)c(S(=O)(=O)N3CCOCC3)c2O)cc1 (nonaromatic ring conformer: 76.14729500640229 kcal/mol)

>  <smiles>  (29) 
CCc1ccc(NC(=O)Nc2ccc(C)c(S(=O)(=O)N3CCOCC3)c2O)cc1

>  <score_type>  (29) 
oracle

>  <origin>  (29) 
adgpu

>  <m_score__min__energy>  (29) 
-12.84

>  <m_primary>  (29) 
energy

$$$$
29:0
     RDKit          3D

 37 38  0  0  0  0  0  0  0  0999 V2000
   -6.8760   24.8830  -30.1940 C   0  0  0  0  0  0  0  0  0  0  0  0
   -6.6450   23.4570  -30.6220 C   0  0  0  0  0  0  0  0  0  0  0  0
   -7.7380   22.6960  -31.0670 C   0  0  0  0  0  0  0  0  0  0  0  0
   -7.5690   21.3700  -31.4730 C   0  0  0  0  0  0  0  0  0  0  0  0
   -8.9740   20.4540  -32.0000 Cl  0  0  0  0  0  0  0  0  0  0  0  0
   -6.2990   20.7800  -31.4480 C   0  0  0  0  0  0  0  0  0  0  0  0
   -6.1580   19.4070  -31.8440 N   0  0  0  0  0  0  0  0  0  0  0  0
   -5.5950   18.8620  -33.3910 S   0  0  0  0  0  0  0  0  0  0  0  0
   -6.4930   19.4170  -34.4620 O   0  0  0  0  0  0  0  0  0  0  0  0
   -5.6470   17.3610  -33.4360 O   0  0  0  0  0  0  0  0  0  0  0  0
   -3.9310   19.3820  -33.6410 C   0  0  0  0  0  0  0  0  0  0  0  0
   -2.9390   18.4530  -33.9910 C   0  0  0  0  0  0  0  0  0  0  0  0
   -1.6320   18.8810  -34.2350 C   0  0  0  0  0  0  0  0  0  0  0  0
   -1.3010   20.2390  -34.1240 C   0  0  0  0  0  0  0  0  0  0  0  0
    0.3390   20.7810  -34.4620 S   0  0  0  0  0  0  0  0  0  0  0  0
    0.3030   22.4180  -35.0130 N   0  0  0  0  0  0  0  0  0  0  0  0
    1.1720   20.6910  -33.2150 O   0  0  0  0  0  0  0  0  0  0  0  0
    0.9570   19.9080  -35.5180 O   0  0  0  0  0  0  0  0  0  0  0  0
   -2.2910   21.1660  -33.7730 C   0  0  0  0  0  0  0  0  0  0  0  0
   -3.6000   20.7370  -33.5290 C   0  0  0  0  0  0  0  0  0  0  0  0
   -5.1960   21.5460  -31.0300 C   0  0  0  0  0  0  0  0  0  0  0  0
   -5.3540   22.8770  -30.6160 C   0  0  0  0  0  0  0  0  0  0  0  0
   -3.9280   23.7790  -30.0720 S   0  0  0  0  0  0  0  0  0  0  0  0
   -3.8540   25.3320  -30.8300 N   0  0  0  0  0  0  0  0  0  0  0  0
   -3.9850   23.9780  -28.5840 O   0  0  0  0  0  0  0  0  0  0  0  0
   -2.6870   23.0110  -30.4310 O   0  0  0  0  0  0  0  0  0  0  0  0
   -6.8851   24.9392  -29.0955 H   0  0  0  0  0  0  0  0  0  0  0  0
   -6.0692   25.5191  -30.5870 H   0  0  0  0  0  0  0  0  0  0  0  0
   -7.8424   25.2318  -30.5870 H   0  0  0  0  0  0  0  0  0  0  0  0
   -8.7397   23.1496  -31.0963 H   0  0  0  0  0  0  0  0  0  0  0  0
   -3.1913   17.3855  -34.0734 H   0  0  0  0  0  0  0  0  0  0  0  0
   -0.8594   18.1499  -34.5153 H   0  0  0  0  0  0  0  0  0  0  0  0
   -0.5300   22.5110  -35.6370 H   0  0  0  0  0  0  0  0  0  0  0  0
   -2.0386   22.2333  -33.6891 H   0  0  0  0  0  0  0  0  0  0  0  0
   -4.3724   21.4680  -33.2479 H   0  0  0  0  0  0  0  0  0  0  0  0
   -4.1931   21.0941  -31.0277 H   0  0  0  0  0  0  0  0  0  0  0  0
   -3.9470   26.0480  -30.0740 H   0  0  0  0  0  0  0  0  0  0  0  0
  1  2  1  0
  2  3  2  0
  3  4  1  0
  4  5  1  0
  4  6  2  0
  6  7  1  0
  7  8  1  0
  8  9  2  0
  8 10  2  0
  8 11  1  0
 11 12  2  0
 12 13  1  0
 13 14  2  0
 14 15  1  0
 15 16  1  0
 15 17  2  0
 15 18  2  0
 14 19  1  0
 19 20  2  0
  6 21  1  0
 21 22  2  0
 22 23  1  0
 23 24  1  0
 23 25  2  0
 23 26  2  0
 22  2  1  0
 20 11  1  0
  1 27  1  0
  1 28  1  0
  1 29  1  0
  3 30  1  0
 12 31  1  0
 13 32  1  0
 16 33  1  0
 19 34  1  0
 20 35  1  0
 21 36  1  0
 24 37  1  0
M  CHG  3   7  -1  16  -1  24  -1
M  END
>  <UniqueID>  (30) 
30

>  <SMILES>  (30) 
Cc1cc(Cl)c([N-]S(=O)(=O)c2ccc(S([NH-])(=O)=O)cc2)cc1S([NH-])(=O)=O

>  <Energy>  (30) 
41.262843487698824

>  <Genealogy>  (30) 
Cc1cc(Cl)c([N-]S(=O)(=O)c2ccc(S([NH-])(=O)=O)cc2)cc1S([NH-])(=O)=O (protonated)
Cc1cc(Cl)c([N-]S(=O)(=O)c2ccc(S([NH-])(=O)=O)cc2)cc1S([NH-])(=O)=O (3D coordinates assigned)
Cc1cc(Cl)c([N-]S(=O)(=O)c2ccc(S([NH-])(=O)=O)cc2)cc1S([NH-])(=O)=O (optimized conformer: 41.262843487698824 kcal/mol)

>  <smiles>  (30) 
Cc1cc(Cl)c(NS(=O)(=O)c2ccc(S(N)(=O)=O)cc2)cc1S(N)(=O)=O

>  <score_type>  (30) 
oracle

>  <origin>  (30) 
adgpu

>  <m_score__min__energy>  (30) 
-11.84

>  <m_primary>  (30) 
energy

$$$$
30:0
     RDKit          3D

 45 48  0  0  0  0  0  0  0  0999 V2000
   -4.6460   25.0710  -30.9630 N   0  0  0  0  0  0  0  0  0  0  0  0
   -5.4320   24.0730  -31.2080 C   0  0  0  0  0  0  0  0  0  0  0  0
   -6.7360   24.2340  -31.5560 N   0  0  0  0  0  0  0  0  0  0  0  0
   -7.1560   22.9630  -31.7090 C   0  0  0  0  0  0  0  0  0  0  0  0
   -8.4270   22.5280  -32.0710 C   0  0  0  0  0  0  0  0  0  0  0  0
   -8.6410   21.1410  -32.1750 C   0  0  0  0  0  0  0  0  0  0  0  0
   -7.5910   20.2250  -31.9130 C   0  0  0  0  0  0  0  0  0  0  0  0
   -7.8760   18.4870  -32.0320 S   0  0  0  0  0  0  0  0  0  0  0  0
   -7.2300   17.7990  -30.8620 O   0  0  0  0  0  0  0  0  0  0  0  0
   -9.3540   18.2230  -31.9690 O   0  0  0  0  0  0  0  0  0  0  0  0
   -7.2270   17.8280  -33.5170 N   0  0  0  0  0  0  0  0  0  0  0  0
   -6.1770   18.7110  -34.0590 C   0  0  0  0  0  0  0  0  0  0  0  0
   -5.2650   17.9390  -35.0250 C   0  0  0  0  0  0  0  0  0  0  0  0
   -4.5910   16.8360  -34.4290 O   0  0  0  0  0  0  0  0  0  0  0  0
   -5.2410   16.3220  -33.2740 C   0  0  0  0  0  0  0  0  0  0  0  0
   -6.7760   16.4290  -33.3420 C   0  0  0  0  0  0  0  0  0  0  0  0
   -6.3140   20.7050  -31.5530 C   0  0  0  0  0  0  0  0  0  0  0  0
   -6.1390   22.0850  -31.4600 C   0  0  0  0  0  0  0  0  0  0  0  0
   -5.0360   22.7780  -31.1410 N   0  0  0  0  0  0  0  0  0  0  0  0
   -3.4670   22.1430  -30.7480 S   0  0  0  0  0  0  0  0  0  0  0  0
   -3.5780   20.7160  -30.2910 O   0  0  0  0  0  0  0  0  0  0  0  0
   -2.6020   22.2000  -31.9760 O   0  0  0  0  0  0  0  0  0  0  0  0
   -2.7580   23.0990  -29.4510 C   0  0  0  0  0  0  0  0  0  0  0  0
   -2.6340   22.5670  -28.1590 C   0  0  0  0  0  0  0  0  0  0  0  0
   -2.0480   23.3270  -27.1410 C   0  0  0  0  0  0  0  0  0  0  0  0
   -1.5840   24.6190  -27.4090 C   0  0  0  0  0  0  0  0  0  0  0  0
   -1.0150   25.3490  -26.4180 F   0  0  0  0  0  0  0  0  0  0  0  0
   -1.7090   25.1550  -28.6960 C   0  0  0  0  0  0  0  0  0  0  0  0
   -1.2510   26.4380  -28.9640 O   0  0  0  0  0  0  0  0  0  0  0  0
   -2.2970   24.3970  -29.7140 C   0  0  0  0  0  0  0  0  0  0  0  0
   -4.9860   26.0560  -31.0240 H   0  0  0  0  0  0  0  0  0  0  0  0
   -9.2377   23.2445  -32.2693 H   0  0  0  0  0  0  0  0  0  0  0  0
   -9.6334   20.7635  -32.4626 H   0  0  0  0  0  0  0  0  0  0  0  0
   -6.6494   19.5458  -34.5975 H   0  0  0  0  0  0  0  0  0  0  0  0
   -5.5686   19.0910  -33.2251 H   0  0  0  0  0  0  0  0  0  0  0  0
   -5.8809   17.5608  -35.8542 H   0  0  0  0  0  0  0  0  0  0  0  0
   -4.4887   18.6426  -35.3602 H   0  0  0  0  0  0  0  0  0  0  0  0
   -4.9693   15.2619  -33.1628 H   0  0  0  0  0  0  0  0  0  0  0  0
   -4.9094   16.9263  -32.4168 H   0  0  0  0  0  0  0  0  0  0  0  0
   -7.1364   15.8307  -34.1918 H   0  0  0  0  0  0  0  0  0  0  0  0
   -7.1851   16.0565  -32.3913 H   0  0  0  0  0  0  0  0  0  0  0  0
   -5.4832   20.0126  -31.3522 H   0  0  0  0  0  0  0  0  0  0  0  0
   -2.9979   21.5510  -27.9460 H   0  0  0  0  0  0  0  0  0  0  0  0
   -1.9520   22.9079  -26.1285 H   0  0  0  0  0  0  0  0  0  0  0  0
   -2.3981   24.8205  -30.7242 H   0  0  0  0  0  0  0  0  0  0  0  0
  1  2  2  3
  2  3  1  0
  3  4  1  0
  4  5  2  0
  5  6  1  0
  6  7  2  0
  7  8  1  0
  8  9  2  0
  8 10  2  0
  8 11  1  0
 11 12  1  0
 12 13  1  0
 13 14  1  0
 14 15  1  0
 15 16  1  0
  7 17  1  0
 17 18  2  0
 18 19  1  0
 19 20  1  0
 20 21  2  0
 20 22  2  0
 20 23  1  0
 23 24  2  0
 24 25  1  0
 25 26  2  0
 26 27  1  0
 26 28  1  0
 28 29  1  0
 28 30  2  0
 19  2  1  0
 30 23  1  0
 18  4  1  0
 16 11  1  0
  1 31  1  0
  5 32  1  0
  6 33  1  0
 12 34  1  0
 12 35  1  0
 13 36  1  0
 13 37  1  0
 15 38  1  0
 15 39  1  0
 16 40  1  0
 16 41  1  0
 17 42  1  0
 24 43  1  0
 25 44  1  0
 30 45  1  0
M  CHG  2   3  -1  29  -1
M  END
>  <UniqueID>  (31) 
31

>  <SMILES>  (31) 
N=c1[n-]c2ccc(S(=O)(=O)N3CCOCC3)cc2n1S(=O)(=O)c1ccc(F)c([O-])c1

>  <Energy>  (31) 
99.81285840900652

>  <Genealogy>  (31) 
N=c1[n-]c2ccc(S(=O)(=O)N3CCOCC3)cc2n1S(=O)(=O)c1ccc(F)c([O-])c1 (protonated)
N=c1[n-]c2ccc(S(=O)(=O)N3CCOCC3)cc2n1S(=O)(=O)c1ccc(F)c([O-])c1 (3D coordinates assigned)
N=c1[n-]c2ccc(S(=O)(=O)N3CCOCC3)cc2n1S(=O)(=O)c1ccc(F)c([O-])c1 (nonaromatic ring conformer: 99.81285840900652 kcal/mol)

>  <smiles>  (31) 
N=c1[nH]c2ccc(S(=O)(=O)N3CCOCC3)cc2n1S(=O)(=O)c1ccc(F)c(O)c1

>  <score_type>  (31) 
oracle

>  <origin>  (31) 
adgpu

>  <m_score__min__energy>  (31) 
-13.369999999999999

>  <m_primary>  (31) 
energy

$$$$
31:0
     RDKit          3D

 54 56  0  0  0  0  0  0  0  0999 V2000
   -7.7340   18.0890  -32.6410 C   0  0  0  0  0  0  0  0  0  0  0  0
   -7.4530   19.4830  -33.0090 N   0  0  0  0  0  0  0  0  0  0  0  0
   -6.0150   19.7670  -32.8980 C   0  0  0  0  0  0  0  0  0  0  0  0
   -8.3580   20.5630  -31.9780 S   0  0  0  0  0  0  0  0  0  0  0  0
   -9.5770   21.0590  -32.7040 O   0  0  0  0  0  0  0  0  0  0  0  0
   -8.8030   19.8380  -30.7370 O   0  0  0  0  0  0  0  0  0  0  0  0
   -7.3620   21.9480  -31.5360 C   0  0  0  0  0  0  0  0  0  0  0  0
   -7.1650   22.2860  -30.1910 C   0  0  0  0  0  0  0  0  0  0  0  0
   -6.3620   23.3770  -29.8500 C   0  0  0  0  0  0  0  0  0  0  0  0
   -5.7490   24.1500  -30.8510 C   0  0  0  0  0  0  0  0  0  0  0  0
   -4.9020   25.3140  -30.5030 C   0  0  0  0  0  0  0  0  0  0  0  0
   -5.4510   26.4130  -30.2210 O   0  0  0  0  0  0  0  0  0  0  0  0
   -3.4690   25.2390  -30.4850 N   0  0  0  0  0  0  0  0  0  0  0  0
   -2.6860   24.3880  -29.6350 C   0  0  0  0  0  0  0  0  0  0  0  0
   -2.9900   23.0210  -29.6090 C   0  0  0  0  0  0  0  0  0  0  0  0
   -2.3050   22.1520  -28.7500 C   0  0  0  0  0  0  0  0  0  0  0  0
   -2.7270   20.4350  -28.6990 S   0  0  0  0  0  0  0  0  0  0  0  0
   -3.4320   20.1440  -27.4030 O   0  0  0  0  0  0  0  0  0  0  0  0
   -3.6780   20.1310  -29.8220 O   0  0  0  0  0  0  0  0  0  0  0  0
   -1.3330   19.3890  -28.8340 N   0  0  0  0  0  0  0  0  0  0  0  0
   -0.6170   19.2610  -27.5660 C   0  0  0  0  0  0  0  0  0  0  0  0
    0.8190   18.9070  -27.9200 C   0  0  0  0  0  0  0  0  0  0  0  0
    0.9910   19.3220  -29.3740 C   0  0  0  0  0  0  0  0  0  0  0  0
   -0.3520   19.9020  -29.7880 C   0  0  0  0  0  0  0  0  0  0  0  0
   -1.3050   22.6580  -27.9110 C   0  0  0  0  0  0  0  0  0  0  0  0
   -0.9680   24.0110  -27.9560 C   0  0  0  0  0  0  0  0  0  0  0  0
   -1.6350   24.8840  -28.8280 C   0  0  0  0  0  0  0  0  0  0  0  0
   -1.1960   26.2450  -28.9190 N   0  0  0  0  0  0  0  0  0  0  0  0
   -5.9290   23.7910  -32.1970 C   0  0  0  0  0  0  0  0  0  0  0  0
   -6.7330   22.7000  -32.5360 C   0  0  0  0  0  0  0  0  0  0  0  0
   -7.7528   17.9957  -31.5451 H   0  0  0  0  0  0  0  0  0  0  0  0
   -8.7103   17.7912  -33.0511 H   0  0  0  0  0  0  0  0  0  0  0  0
   -6.9494   17.4362  -33.0511 H   0  0  0  0  0  0  0  0  0  0  0  0
   -7.7550   19.6410  -33.9980 H   0  0  0  0  0  0  0  0  0  0  0  0
   -5.7331   19.8227  -31.8362 H   0  0  0  0  0  0  0  0  0  0  0  0
   -5.4439   18.9643  -33.3874 H   0  0  0  0  0  0  0  0  0  0  0  0
   -5.7919   20.7266  -33.3874 H   0  0  0  0  0  0  0  0  0  0  0  0
   -7.6444   21.6901  -29.4004 H   0  0  0  0  0  0  0  0  0  0  0  0
   -6.2085   23.6328  -28.7912 H   0  0  0  0  0  0  0  0  0  0  0  0
   -3.7751   22.6256  -30.2702 H   0  0  0  0  0  0  0  0  0  0  0  0
   -0.6496   20.2111  -27.0127 H   0  0  0  0  0  0  0  0  0  0  0  0
   -1.0723   18.4909  -26.9260 H   0  0  0  0  0  0  0  0  0  0  0  0
    1.5209   19.4581  -27.2769 H   0  0  0  0  0  0  0  0  0  0  0  0
    1.0244   17.8364  -27.7732 H   0  0  0  0  0  0  0  0  0  0  0  0
    1.7830   20.0797  -29.4672 H   0  0  0  0  0  0  0  0  0  0  0  0
    1.2848   18.4741  -30.0102 H   0  0  0  0  0  0  0  0  0  0  0  0
   -0.3207   21.0008  -29.7481 H   0  0  0  0  0  0  0  0  0  0  0  0
   -0.6098   19.6164  -30.8185 H   0  0  0  0  0  0  0  0  0  0  0  0
   -0.7830   21.9862  -27.2137 H   0  0  0  0  0  0  0  0  0  0  0  0
   -0.1721   24.3966  -27.3018 H   0  0  0  0  0  0  0  0  0  0  0  0
   -0.7090   26.6990  -28.1140 H   0  0  0  0  0  0  0  0  0  0  0  0
   -1.2540   26.7830  -29.8110 H   0  0  0  0  0  0  0  0  0  0  0  0
   -5.4340   24.3723  -32.9888 H   0  0  0  0  0  0  0  0  0  0  0  0
   -6.8726   22.4304  -33.5933 H   0  0  0  0  0  0  0  0  0  0  0  0
  1  2  1  0
  2  3  1  0
  2  4  1  0
  4  5  2  0
  4  6  2  0
  4  7  1  0
  7  8  2  0
  8  9  1  0
  9 10  2  0
 10 11  1  0
 11 12  2  0
 11 13  1  0
 13 14  1  0
 14 15  2  0
 15 16  1  0
 16 17  1  0
 17 18  2  0
 17 19  2  0
 17 20  1  0
 20 21  1  0
 21 22  1  0
 22 23  1  0
 23 24  1  0
 16 25  2  0
 25 26  1  0
 26 27  2  0
 27 28  1  0
 10 29  1  0
 29 30  2  0
 30  7  1  0
 27 14  1  0
 24 20  1  0
  1 31  1  0
  1 32  1  0
  1 33  1  0
  2 34  1  0
  3 35  1  0
  3 36  1  0
  3 37  1  0
  8 38  1  0
  9 39  1  0
 15 40  1  0
 21 41  1  0
 21 42  1  0
 22 43  1  0
 22 44  1  0
 23 45  1  0
 23 46  1  0
 24 47  1  0
 24 48  1  0
 25 49  1  0
 26 50  1  0
 28 51  1  0
 28 52  1  0
 29 53  1  0
 30 54  1  0
M  CHG  2   2   1  13  -1
M  END
>  <UniqueID>  (32) 
32

>  <SMILES>  (32) 
C[NH+](C)S(=O)(=O)c1ccc(C(=O)[N-]c2cc(S(=O)(=O)N3CCCC3)ccc2N)cc1

>  <Energy>  (32) 
62.38804656771375

>  <Genealogy>  (32) 
C[NH+](C)S(=O)(=O)c1ccc(C(=O)[N-]c2cc(S(=O)(=O)N3CCCC3)ccc2N)cc1 (protonated)
C[NH+](C)S(=O)(=O)c1ccc(C(=O)[N-]c2cc(S(=O)(=O)N3CCCC3)ccc2N)cc1 (3D coordinates assigned)
C[NH+](C)S(=O)(=O)c1ccc(C(=O)[N-]c2cc(S(=O)(=O)N3CCCC3)ccc2N)cc1 (nonaromatic ring conformer: 62.38804656771375 kcal/mol)

>  <smiles>  (32) 
CN(C)S(=O)(=O)c1ccc(C(=O)Nc2cc(S(=O)(=O)N3CCCC3)ccc2N)cc1

>  <score_type>  (32) 
oracle

>  <origin>  (32) 
adgpu

>  <m_score__min__energy>  (32) 
-12.17

>  <m_primary>  (32) 
energy

$$$$
32:0
     RDKit          3D

 44 46  0  0  0  0  0  0  0  0999 V2000
   -4.2520   25.5720  -30.7590 O   0  0  0  0  0  0  0  0  0  0  0  0
   -4.1890   24.3530  -30.4390 C   0  0  0  0  0  0  0  0  0  0  0  0
   -5.2970   23.4520  -30.8290 C   0  0  0  0  0  0  0  0  0  0  0  0
   -6.3710   23.2340  -29.9500 C   0  0  0  0  0  0  0  0  0  0  0  0
   -7.4150   22.3760  -30.3080 C   0  0  0  0  0  0  0  0  0  0  0  0
   -7.3950   21.7170  -31.5430 C   0  0  0  0  0  0  0  0  0  0  0  0
   -8.7020   20.6150  -31.9700 S   0  0  0  0  0  0  0  0  0  0  0  0
  -10.0110   21.2170  -31.5430 O   0  0  0  0  0  0  0  0  0  0  0  0
   -8.7390   20.4080  -33.4590 O   0  0  0  0  0  0  0  0  0  0  0  0
   -8.4900   19.0860  -31.1720 N   0  0  0  0  0  0  0  0  0  0  0  0
   -8.1010   18.0670  -32.1480 C   0  0  0  0  0  0  0  0  0  0  0  0
   -6.7390   18.3870  -32.6980 C   0  0  0  0  0  0  0  0  0  0  0  0
   -5.7030   18.7970  -31.8480 C   0  0  0  0  0  0  0  0  0  0  0  0
   -4.4340   19.0570  -32.3680 C   0  0  0  0  0  0  0  0  0  0  0  0
   -4.2100   18.8930  -33.7360 C   0  0  0  0  0  0  0  0  0  0  0  0
   -5.2200   18.4790  -34.5480 N   0  0  0  0  0  0  0  0  0  0  0  0
   -6.4650   18.2210  -34.0650 C   0  0  0  0  0  0  0  0  0  0  0  0
   -6.3140   21.9100  -32.4120 C   0  0  0  0  0  0  0  0  0  0  0  0
   -5.2690   22.7680  -32.0570 C   0  0  0  0  0  0  0  0  0  0  0  0
   -3.0390   23.8710  -29.7160 N   0  0  0  0  0  0  0  0  0  0  0  0
   -2.4260   24.6860  -28.6630 C   0  0  0  0  0  0  0  0  0  0  0  0
   -0.9000   24.5700  -28.7490 C   0  0  0  0  0  0  0  0  0  0  0  0
   -0.4980   23.2130  -28.7580 O   0  0  0  0  0  0  0  0  0  0  0  0
   -0.9710   22.5780  -29.9310 C   0  0  0  0  0  0  0  0  0  0  0  0
   -2.5020   22.5240  -29.9380 C   0  0  0  0  0  0  0  0  0  0  0  0
   -6.3906   23.7415  -28.9742 H   0  0  0  0  0  0  0  0  0  0  0  0
   -8.2557   22.2180  -29.6164 H   0  0  0  0  0  0  0  0  0  0  0  0
   -7.7010   19.2070  -30.4960 H   0  0  0  0  0  0  0  0  0  0  0  0
   -8.0757   17.0823  -31.6584 H   0  0  0  0  0  0  0  0  0  0  0  0
   -8.8318   18.0517  -32.9700 H   0  0  0  0  0  0  0  0  0  0  0  0
   -5.8900   18.9140  -30.7703 H   0  0  0  0  0  0  0  0  0  0  0  0
   -3.6193   19.3875  -31.7069 H   0  0  0  0  0  0  0  0  0  0  0  0
   -3.2153   19.0988  -34.1581 H   0  0  0  0  0  0  0  0  0  0  0  0
   -7.2588   17.8816  -34.7467 H   0  0  0  0  0  0  0  0  0  0  0  0
   -6.2870   21.3843  -33.3779 H   0  0  0  0  0  0  0  0  0  0  0  0
   -4.4201   22.9088  -32.7422 H   0  0  0  0  0  0  0  0  0  0  0  0
   -2.7216   25.7373  -28.7944 H   0  0  0  0  0  0  0  0  0  0  0  0
   -2.7656   24.3294  -27.6794 H   0  0  0  0  0  0  0  0  0  0  0  0
   -0.5532   25.0548  -29.6735 H   0  0  0  0  0  0  0  0  0  0  0  0
   -0.4593   25.0621  -27.8695 H   0  0  0  0  0  0  0  0  0  0  0  0
   -0.6256   23.1409  -30.8106 H   0  0  0  0  0  0  0  0  0  0  0  0
   -0.5808   21.5499  -29.9583 H   0  0  0  0  0  0  0  0  0  0  0  0
   -2.8513   22.1455  -30.9100 H   0  0  0  0  0  0  0  0  0  0  0  0
   -2.8493   21.8539  -29.1377 H   0  0  0  0  0  0  0  0  0  0  0  0
  1  2  2  0
  2  3  1  0
  3  4  2  0
  4  5  1  0
  5  6  2  0
  6  7  1  0
  7  8  2  0
  7  9  2  0
  7 10  1  0
 10 11  1  0
 11 12  1  0
 12 13  2  0
 13 14  1  0
 14 15  2  0
 15 16  1  0
 16 17  2  0
  6 18  1  0
 18 19  2  0
  2 20  1  0
 20 21  1  0
 21 22  1  0
 22 23  1  0
 23 24  1  0
 24 25  1  0
 19  3  1  0
 25 20  1  0
 17 12  1  0
  4 26  1  0
  5 27  1  0
 10 28  1  0
 11 29  1  0
 11 30  1  0
 13 31  1  0
 14 32  1  0
 15 33  1  0
 17 34  1  0
 18 35  1  0
 19 36  1  0
 21 37  1  0
 21 38  1  0
 22 39  1  0
 22 40  1  0
 24 41  1  0
 24 42  1  0
 25 43  1  0
 25 44  1  0
M  END
>  <UniqueID>  (33) 
33

>  <SMILES>  (33) 
O=C(c1ccc(S(=O)(=O)NCc2cccnc2)cc1)N1CCOCC1

>  <Energy>  (33) 
49.86608014366045

>  <Genealogy>  (33) 
O=C(c1ccc(S(=O)(=O)NCc2cccnc2)cc1)N1CCOCC1 (3D coordinates assigned)
O=C(c1ccc(S(=O)(=O)NCc2cccnc2)cc1)N1CCOCC1 (nonaromatic ring conformer: 49.86608014366045 kcal/mol)

>  <smiles>  (33) 
O=C(c1ccc(S(=O)(=O)NCc2cccnc2)cc1)N1CCOCC1

>  <score_type>  (33) 
oracle

>  <origin>  (33) 
adgpu

>  <m_score__min__energy>  (33) 
-9.7899999999999991

>  <m_primary>  (33) 
energy

$$$$
33:0
     RDKit          3D

 49 51  0  0  0  0  0  0  0  0999 V2000
   -5.9190   19.0720  -33.6720 C   0  0  0  0  0  0  0  0  0  0  0  0
   -5.2290   18.9520  -31.9960 S   0  0  0  0  0  0  0  0  0  0  0  0
   -5.5290   20.6830  -31.6230 C   0  0  0  0  0  0  0  0  0  0  0  0
   -6.7560   21.2340  -31.6720 N   0  0  0  0  0  0  0  0  0  0  0  0
   -6.6060   22.5490  -31.4250 C   0  0  0  0  0  0  0  0  0  0  0  0
   -7.7370   23.5260  -31.4530 C   0  0  0  0  0  0  0  0  0  0  0  0
   -5.2670   22.8510  -31.2150 C   0  0  0  0  0  0  0  0  0  0  0  0
   -4.7020   24.1950  -30.9880 C   0  0  0  0  0  0  0  0  0  0  0  0
   -5.3490   25.2110  -31.3620 O   0  0  0  0  0  0  0  0  0  0  0  0
   -3.4110   24.3380  -30.3820 N   0  0  0  0  0  0  0  0  0  0  0  0
   -3.1570   24.5570  -28.9830 C   0  0  0  0  0  0  0  0  0  0  0  0
   -4.0540   24.0110  -28.0500 C   0  0  0  0  0  0  0  0  0  0  0  0
   -3.8630   24.2080  -26.6790 C   0  0  0  0  0  0  0  0  0  0  0  0
   -2.7770   24.9610  -26.2240 C   0  0  0  0  0  0  0  0  0  0  0  0
   -1.8930   25.5380  -27.1430 C   0  0  0  0  0  0  0  0  0  0  0  0
   -2.0880   25.3600  -28.5190 C   0  0  0  0  0  0  0  0  0  0  0  0
   -1.2330   26.0000  -29.4070 O   0  0  0  0  0  0  0  0  0  0  0  0
   -4.5760   21.6490  -31.3320 C   0  0  0  0  0  0  0  0  0  0  0  0
   -2.8200   21.4450  -31.3060 S   0  0  0  0  0  0  0  0  0  0  0  0
   -2.4680   20.2310  -32.1180 O   0  0  0  0  0  0  0  0  0  0  0  0
   -2.1260   22.6400  -31.8950 O   0  0  0  0  0  0  0  0  0  0  0  0
   -2.2860   21.2590  -29.6390 C   0  0  0  0  0  0  0  0  0  0  0  0
   -1.2480   22.0610  -29.1480 C   0  0  0  0  0  0  0  0  0  0  0  0
   -0.8320   21.9480  -27.8140 C   0  0  0  0  0  0  0  0  0  0  0  0
    0.2480   22.8450  -27.2870 C   0  0  0  0  0  0  0  0  0  0  0  0
   -1.4850   21.0440  -26.9610 C   0  0  0  0  0  0  0  0  0  0  0  0
   -2.5060   20.2140  -27.4520 C   0  0  0  0  0  0  0  0  0  0  0  0
   -3.2220   19.2680  -26.5300 C   0  0  0  0  0  0  0  0  0  0  0  0
   -2.9030   20.3250  -28.7930 C   0  0  0  0  0  0  0  0  0  0  0  0
   -7.0010   19.2602  -33.6104 H   0  0  0  0  0  0  0  0  0  0  0  0
   -5.4330   19.8991  -34.2103 H   0  0  0  0  0  0  0  0  0  0  0  0
   -5.7408   18.1294  -34.2103 H   0  0  0  0  0  0  0  0  0  0  0  0
   -7.6490   20.7390  -31.8990 H   0  0  0  0  0  0  0  0  0  0  0  0
   -8.0291   23.7783  -30.4230 H   0  0  0  0  0  0  0  0  0  0  0  0
   -7.4200   24.4390  -31.9783 H   0  0  0  0  0  0  0  0  0  0  0  0
   -8.5942   23.0796  -31.9783 H   0  0  0  0  0  0  0  0  0  0  0  0
   -4.9147   23.4230  -28.4013 H   0  0  0  0  0  0  0  0  0  0  0  0
   -4.5683   23.7698  -25.9576 H   0  0  0  0  0  0  0  0  0  0  0  0
   -2.6172   25.1000  -25.1446 H   0  0  0  0  0  0  0  0  0  0  0  0
   -1.0413   26.1340  -26.7833 H   0  0  0  0  0  0  0  0  0  0  0  0
   -0.7556   22.7849  -29.8140 H   0  0  0  0  0  0  0  0  0  0  0  0
    0.2317   22.8315  -26.1872 H   0  0  0  0  0  0  0  0  0  0  0  0
    1.2261   22.4898  -27.6436 H   0  0  0  0  0  0  0  0  0  0  0  0
    0.0784   23.8717  -27.6436 H   0  0  0  0  0  0  0  0  0  0  0  0
   -1.1951   20.9855  -25.9015 H   0  0  0  0  0  0  0  0  0  0  0  0
   -3.0127   19.5446  -25.4861 H   0  0  0  0  0  0  0  0  0  0  0  0
   -4.3049   19.3255  -26.7144 H   0  0  0  0  0  0  0  0  0  0  0  0
   -2.8726   18.2414  -26.7144 H   0  0  0  0  0  0  0  0  0  0  0  0
   -3.7016   19.6769  -29.1830 H   0  0  0  0  0  0  0  0  0  0  0  0
  1  2  1  0
  2  3  1  0
  3  4  1  0
  4  5  1  0
  5  6  1  0
  5  7  2  0
  7  8  1  0
  8  9  2  0
  8 10  1  0
 10 11  1  0
 11 12  2  0
 12 13  1  0
 13 14  2  0
 14 15  1  0
 15 16  2  0
 16 17  1  0
  7 18  1  0
 18 19  1  0
 19 20  2  0
 19 21  2  0
 19 22  1  0
 22 23  2  0
 23 24  1  0
 24 25  1  0
 24 26  2  0
 26 27  1  0
 27 28  1  0
 27 29  2  0
 18  3  2  0
 29 22  1  0
 16 11  1  0
  1 30  1  0
  1 31  1  0
  1 32  1  0
  4 33  1  0
  6 34  1  0
  6 35  1  0
  6 36  1  0
 12 37  1  0
 13 38  1  0
 14 39  1  0
 15 40  1  0
 23 41  1  0
 25 42  1  0
 25 43  1  0
 25 44  1  0
 26 45  1  0
 28 46  1  0
 28 47  1  0
 28 48  1  0
 29 49  1  0
M  CHG  2  10  -1  17  -1
M  END
>  <UniqueID>  (34) 
34

>  <SMILES>  (34) 
CSc1[nH]c(C)c(C(=O)[N-]c2ccccc2[O-])c1S(=O)(=O)c1cc(C)cc(C)c1

>  <Energy>  (34) 
78.95092132034586

>  <Genealogy>  (34) 
CSc1[nH]c(C)c(C(=O)[N-]c2ccccc2[O-])c1S(=O)(=O)c1cc(C)cc(C)c1 (protonated)
CSc1[nH]c(C)c(C(=O)[N-]c2ccccc2[O-])c1S(=O)(=O)c1cc(C)cc(C)c1 (3D coordinates assigned)
CSc1[nH]c(C)c(C(=O)[N-]c2ccccc2[O-])c1S(=O)(=O)c1cc(C)cc(C)c1 (optimized conformer: 78.95092132034586 kcal/mol)

>  <smiles>  (34) 
CSc1[nH]c(C)c(C(=O)Nc2ccccc2O)c1S(=O)(=O)c1cc(C)cc(C)c1

>  <score_type>  (34) 
oracle

>  <origin>  (34) 
adgpu

>  <m_score__min__energy>  (34) 
-13.460000000000001

>  <m_primary>  (34) 
energy

$$$$
34:0
     RDKit          3D

 46 48  0  0  1  0  0  0  0  0999 V2000
   -0.1110   23.1070  -24.2170 C   0  0  0  0  0  0  0  0  0  0  0  0
    0.4720   23.2970  -25.4700 O   0  0  0  0  0  0  0  0  0  0  0  0
   -0.2630   23.1060  -26.6120 C   0  0  0  0  0  0  0  0  0  0  0  0
   -0.3450   24.1120  -27.5520 C   0  0  0  0  0  0  0  0  0  0  0  0
   -1.0970   23.9000  -28.7050 C   0  0  0  0  0  0  0  0  0  0  0  0
   -1.7690   22.7430  -28.9680 C   0  0  0  0  0  0  0  0  0  0  0  0
   -2.5580   22.4570  -30.1410 C   0  0  0  0  0  0  0  0  0  0  0  0
   -2.2720   21.3800  -30.9880 C   0  0  0  0  0  0  0  0  0  0  0  0
   -3.1860   21.3640  -32.0190 C   0  0  0  0  0  0  0  0  0  0  0  0
   -3.2010   20.3850  -33.1010 C   0  0  0  0  0  0  0  0  0  0  0  0
   -2.3220   20.5610  -34.1740 O   0  0  0  0  0  0  0  0  0  0  0  0
   -3.9730   19.3760  -33.1220 N   0  0  0  0  0  0  0  0  0  0  0  0
   -3.9210   18.5050  -34.1820 O   0  0  0  0  0  0  0  0  0  0  0  0
   -4.0300   22.4120  -31.8210 N   0  0  0  0  0  0  0  0  0  0  0  0
   -5.1360   22.7080  -32.7110 C   0  0  0  0  0  0  0  0  0  0  0  0
   -6.3920   22.0640  -32.2880 C   0  0  0  0  0  0  0  0  0  0  0  0
   -6.6750   20.7960  -32.8110 C   0  0  0  0  0  0  0  0  0  0  0  0
   -7.8400   20.1360  -32.4650 C   0  0  0  0  0  0  0  0  0  0  0  0
   -8.7680   20.7080  -31.5850 C   0  0  0  0  0  0  0  0  0  0  0  0
   -8.4640   21.9560  -31.0850 C   0  0  0  0  0  0  0  0  0  0  0  0
   -7.3060   22.6220  -31.4260 C   0  0  0  0  0  0  0  0  0  0  0  0
   -3.6540   23.0740  -30.6890 C   0  0  0  0  0  0  0  0  0  0  0  0
   -4.3690   24.2690  -30.1820 C   0  0  0  0  0  0  0  0  0  0  0  0
   -3.8730   25.4520  -30.6850 O   0  0  0  0  0  0  0  0  0  0  0  0
   -1.6780   21.7340  -28.0090 C   0  0  0  0  0  0  0  0  0  0  0  0
   -0.9350   21.9290  -26.8590 C   0  0  0  0  0  0  0  0  0  0  0  0
    0.6214   23.3457  -23.4318 H   0  0  0  0  0  0  0  0  0  0  0  0
   -0.9854   23.7667  -24.1156 H   0  0  0  0  0  0  0  0  0  0  0  0
   -0.4288   22.0588  -24.1156 H   0  0  0  0  0  0  0  0  0  0  0  0
    0.1759   25.0678  -27.3934 H   0  0  0  0  0  0  0  0  0  0  0  0
   -1.1519   24.7118  -29.4453 H   0  0  0  0  0  0  0  0  0  0  0  0
   -1.4498   20.6619  -30.8524 H   0  0  0  0  0  0  0  0  0  0  0  0
   -2.2180   21.4570  -34.6400 H   0  0  0  0  0  0  0  0  0  0  0  0
   -3.2540   18.5770  -34.9350 H   0  0  0  0  0  0  0  0  0  0  0  0
   -5.2886   23.7971  -32.7331 H   0  0  0  0  0  0  0  0  0  0  0  0
   -4.8781   22.3141  -33.7052 H   0  0  0  0  0  0  0  0  0  0  0  0
   -5.9643   20.3208  -33.5032 H   0  0  0  0  0  0  0  0  0  0  0  0
   -8.0422   19.1415  -32.8894 H   0  0  0  0  0  0  0  0  0  0  0  0
   -9.6952   20.1859  -31.3063 H   0  0  0  0  0  0  0  0  0  0  0  0
   -9.1689   22.4367  -30.3907 H   0  0  0  0  0  0  0  0  0  0  0  0
   -7.1100   23.6174  -31.0008 H   0  0  0  0  0  0  0  0  0  0  0  0
   -5.4295   24.1871  -30.4625 H   0  0  0  0  0  0  0  0  0  0  0  0
   -4.2311   24.2942  -29.0910 H   0  0  0  0  0  0  0  0  0  0  0  0
   -4.1420   25.6630  -31.6120 H   0  0  0  0  0  0  0  0  0  0  0  0
   -2.1997   20.7788  -28.1683 H   0  0  0  0  0  0  0  0  0  0  0  0
   -0.8788   21.1183  -26.1177 H   0  0  0  0  0  0  0  0  0  0  0  0
  1  2  1  0
  2  3  1  0
  3  4  2  0
  4  5  1  0
  5  6  2  0
  6  7  1  0
  7  8  1  0
  8  9  2  0
  9 10  1  0
 10 11  1  0
 10 12  2  0
 12 13  1  0
  9 14  1  0
 14 15  1  0
 15 16  1  0
 16 17  2  0
 17 18  1  0
 18 19  2  0
 19 20  1  0
 20 21  2  0
 14 22  1  0
 22 23  1  0
 23 24  1  0
  6 25  1  0
 25 26  2  0
 26  3  1  0
 22  7  2  0
 21 16  1  0
  1 27  1  0
  1 28  1  0
  1 29  1  0
  4 30  1  0
  5 31  1  0
  8 32  1  0
 11 33  1  0
 13 34  1  0
 15 35  1  0
 15 36  1  0
 17 37  1  0
 18 38  1  0
 19 39  1  0
 20 40  1  0
 21 41  1  0
 23 42  1  0
 23 43  1  0
 24 44  1  0
 25 45  1  0
 26 46  1  0
M  END
>  <smiles>  (35) 
COc1ccc(-c2cc(C(O)=NO)n(Cc3ccccc3)c2CO)cc1

>  <score_type>  (35) 
oracle

>  <origin>  (35) 
adgpu

>  <m_score__min__energy>  (35) 
-8.6500000000000004

>  <m_primary>  (35) 
energy

$$$$
35:0
     RDKit          3D

 30 32  0  0  0  0  0  0  0  0999 V2000
   -6.9920   24.1710  -32.4400 O   0  0  0  0  0  0  0  0  0  0  0  0
   -6.5730   23.6150  -31.3920 C   0  0  0  0  0  0  0  0  0  0  0  0
   -7.3860   22.6130  -30.7680 N   0  0  0  0  0  0  0  0  0  0  0  0
   -7.9800   21.4820  -31.4200 C   0  0  0  0  0  0  0  0  0  0  0  0
   -7.2010   20.3460  -31.6630 C   0  0  0  0  0  0  0  0  0  0  0  0
   -7.7680   19.2290  -32.2800 C   0  0  0  0  0  0  0  0  0  0  0  0
   -9.1180   19.2550  -32.6340 C   0  0  0  0  0  0  0  0  0  0  0  0
   -9.8700   20.3560  -32.3690 N   0  0  0  0  0  0  0  0  0  0  0  0
   -9.3400   21.4560  -31.7720 C   0  0  0  0  0  0  0  0  0  0  0  0
   -5.2930   24.0580  -30.8100 C   0  0  0  0  0  0  0  0  0  0  0  0
   -4.5940   23.4480  -29.7860 C   0  0  0  0  0  0  0  0  0  0  0  0
   -3.4910   24.2620  -29.6000 C   0  0  0  0  0  0  0  0  0  0  0  0
   -2.3740   24.0580  -28.6460 C   0  0  0  0  0  0  0  0  0  0  0  0
   -2.3670   22.9010  -27.8440 C   0  0  0  0  0  0  0  0  0  0  0  0
   -1.3390   22.6780  -26.9240 C   0  0  0  0  0  0  0  0  0  0  0  0
   -0.3020   23.6030  -26.7960 C   0  0  0  0  0  0  0  0  0  0  0  0
   -0.2860   24.7480  -27.5930 C   0  0  0  0  0  0  0  0  0  0  0  0
   -1.3080   24.9780  -28.5220 C   0  0  0  0  0  0  0  0  0  0  0  0
   -1.2320   26.1070  -29.3280 O   0  0  0  0  0  0  0  0  0  0  0  0
   -3.5460   25.2910  -30.4700 N   0  0  0  0  0  0  0  0  0  0  0  0
   -4.6460   25.1730  -31.1980 N   0  0  0  0  0  0  0  0  0  0  0  0
   -6.1414   20.3325  -31.3680 H   0  0  0  0  0  0  0  0  0  0  0  0
   -7.1570   18.3376  -32.4850 H   0  0  0  0  0  0  0  0  0  0  0  0
   -9.5736   18.3840  -33.1277 H   0  0  0  0  0  0  0  0  0  0  0  0
   -9.9774   22.3280  -31.5639 H   0  0  0  0  0  0  0  0  0  0  0  0
   -4.8546   22.5272  -29.2436 H   0  0  0  0  0  0  0  0  0  0  0  0
   -3.1787   22.1652  -27.9425 H   0  0  0  0  0  0  0  0  0  0  0  0
   -1.3473   21.7722  -26.2999 H   0  0  0  0  0  0  0  0  0  0  0  0
    0.5029   23.4294  -26.0666 H   0  0  0  0  0  0  0  0  0  0  0  0
    0.5340   25.4740  -27.4910 H   0  0  0  0  0  0  0  0  0  0  0  0
  1  2  2  0
  2  3  1  0
  3  4  1  0
  4  5  2  0
  5  6  1  0
  6  7  2  0
  7  8  1  0
  8  9  2  0
  2 10  1  0
 10 11  1  0
 11 12  2  0
 12 13  1  0
 13 14  2  0
 14 15  1  0
 15 16  2  0
 16 17  1  0
 17 18  2  0
 18 19  1  0
 12 20  1  0
 20 21  1  0
  9  4  1  0
 21 10  2  0
 18 13  1  0
  5 22  1  0
  6 23  1  0
  7 24  1  0
  9 25  1  0
 11 26  1  0
 14 27  1  0
 15 28  1  0
 16 29  1  0
 17 30  1  0
M  CHG  3   3  -1  19  -1  20  -1
M  END
>  <UniqueID>  (36) 
35

>  <SMILES>  (36) 
O=C([N-]c1cccnc1)c1cc(-c2ccccc2[O-])[n-]n1

>  <Energy>  (36) 
72.28075330240506

>  <Genealogy>  (36) 
O=C([N-]c1cccnc1)c1cc(-c2ccccc2[O-])[n-]n1 (protonated)
O=C([N-]c1cccnc1)c1cc(-c2ccccc2[O-])[n-]n1 (3D coordinates assigned)
O=C([N-]c1cccnc1)c1cc(-c2ccccc2[O-])[n-]n1 (optimized conformer: 72.28075330240506 kcal/mol)

>  <smiles>  (36) 
O=C(Nc1cccnc1)c1cc(-c2ccccc2O)[nH]n1

>  <score_type>  (36) 
oracle

>  <origin>  (36) 
adgpu

>  <m_score__min__energy>  (36) 
-13.039999999999999

>  <m_primary>  (36) 
energy

$$$$
36:0
     RDKit          3D

 61 64  0  0  0  0  0  0  0  0999 V2000
   -9.8560   20.4080  -32.3440 C   0  0  0  0  0  0  0  0  0  0  0  0
   -8.5120   20.9970  -31.9950 C   0  0  0  0  0  0  0  0  0  0  0  0
   -8.4370   22.3870  -31.8110 C   0  0  0  0  0  0  0  0  0  0  0  0
   -7.2240   23.0060  -31.5270 C   0  0  0  0  0  0  0  0  0  0  0  0
   -6.0500   22.2580  -31.4550 C   0  0  0  0  0  0  0  0  0  0  0  0
   -4.8180   22.9290  -31.1530 N   0  0  0  0  0  0  0  0  0  0  0  0
   -4.7410   24.3340  -30.8600 C   0  0  0  0  0  0  0  0  0  0  0  0
   -5.7500   25.0730  -31.0130 O   0  0  0  0  0  0  0  0  0  0  0  0
   -3.5110   24.9260  -30.4260 N   0  0  0  0  0  0  0  0  0  0  0  0
   -2.7360   24.4980  -29.2970 C   0  0  0  0  0  0  0  0  0  0  0  0
   -3.1320   23.4050  -28.5070 C   0  0  0  0  0  0  0  0  0  0  0  0
   -2.3730   23.0280  -27.3950 C   0  0  0  0  0  0  0  0  0  0  0  0
   -1.2240   23.7520  -27.0430 C   0  0  0  0  0  0  0  0  0  0  0  0
   -0.2580   23.2670  -25.6430 S   0  0  0  0  0  0  0  0  0  0  0  0
   -0.8690   22.0380  -25.0280 O   0  0  0  0  0  0  0  0  0  0  0  0
    1.1310   22.9150  -26.1030 O   0  0  0  0  0  0  0  0  0  0  0  0
   -0.1590   24.5190  -24.4260 N   0  0  0  0  0  0  0  0  0  0  0  0
    1.1140   25.2410  -24.4890 C   0  0  0  0  0  0  0  0  0  0  0  0
    0.8260   26.6610  -24.0530 C   0  0  0  0  0  0  0  0  0  0  0  0
   -0.5950   26.8990  -24.5120 C   0  0  0  0  0  0  0  0  0  0  0  0
   -1.2320   25.5160  -24.5560 C   0  0  0  0  0  0  0  0  0  0  0  0
   -0.8380   24.8500  -27.8250 C   0  0  0  0  0  0  0  0  0  0  0  0
   -1.5990   25.2290  -28.9360 C   0  0  0  0  0  0  0  0  0  0  0  0
   -6.1020   20.8620  -31.6140 C   0  0  0  0  0  0  0  0  0  0  0  0
   -4.9330   20.1230  -31.4740 O   0  0  0  0  0  0  0  0  0  0  0  0
   -7.3270   20.2120  -31.8890 C   0  0  0  0  0  0  0  0  0  0  0  0
   -7.3390   18.4310  -32.0660 S   0  0  0  0  0  0  0  0  0  0  0  0
   -6.5990   17.7770  -30.9340 O   0  0  0  0  0  0  0  0  0  0  0  0
   -8.7590   17.9420  -31.9890 O   0  0  0  0  0  0  0  0  0  0  0  0
   -6.6200   17.9040  -33.5770 N   0  0  0  0  0  0  0  0  0  0  0  0
   -5.8260   16.6760  -33.3870 C   0  0  0  0  0  0  0  0  0  0  0  0
   -4.8550   16.4750  -34.5620 C   0  0  0  0  0  0  0  0  0  0  0  0
   -3.9150   17.5330  -34.7220 O   0  0  0  0  0  0  0  0  0  0  0  0
   -4.3470   18.7710  -34.1720 C   0  0  0  0  0  0  0  0  0  0  0  0
   -5.8700   18.9790  -34.2640 C   0  0  0  0  0  0  0  0  0  0  0  0
  -10.4025   20.1685  -31.4199 H   0  0  0  0  0  0  0  0  0  0  0  0
  -10.4333   21.1356  -32.9333 H   0  0  0  0  0  0  0  0  0  0  0  0
   -9.7123   19.4904  -32.9333 H   0  0  0  0  0  0  0  0  0  0  0  0
   -9.3501   22.9949  -31.8926 H   0  0  0  0  0  0  0  0  0  0  0  0
   -7.1911   24.0925  -31.3582 H   0  0  0  0  0  0  0  0  0  0  0  0
   -3.9690   22.3360  -31.0170 H   0  0  0  0  0  0  0  0  0  0  0  0
   -4.0425   22.8441  -28.7646 H   0  0  0  0  0  0  0  0  0  0  0  0
   -2.6783   22.1594  -26.7931 H   0  0  0  0  0  0  0  0  0  0  0  0
    1.8474   24.7774  -23.8128 H   0  0  0  0  0  0  0  0  0  0  0  0
    1.5356   25.2150  -25.5047 H   0  0  0  0  0  0  0  0  0  0  0  0
    0.9064   26.7592  -22.9603 H   0  0  0  0  0  0  0  0  0  0  0  0
    1.5362   27.3875  -24.4747 H   0  0  0  0  0  0  0  0  0  0  0  0
   -1.1275   27.5475  -23.8007 H   0  0  0  0  0  0  0  0  0  0  0  0
   -0.6347   27.4034  -25.4887 H   0  0  0  0  0  0  0  0  0  0  0  0
   -1.9459   25.4069  -23.7263 H   0  0  0  0  0  0  0  0  0  0  0  0
   -1.7739   25.3740  -25.5027 H   0  0  0  0  0  0  0  0  0  0  0  0
    0.0680   25.4164  -27.5635 H   0  0  0  0  0  0  0  0  0  0  0  0
   -1.3018   26.1065  -29.5290 H   0  0  0  0  0  0  0  0  0  0  0  0
   -5.2514   16.7575  -32.4525 H   0  0  0  0  0  0  0  0  0  0  0  0
   -6.5088   15.8149  -33.3387 H   0  0  0  0  0  0  0  0  0  0  0  0
   -4.2993   15.5403  -34.3960 H   0  0  0  0  0  0  0  0  0  0  0  0
   -5.4637   16.4478  -35.4778 H   0  0  0  0  0  0  0  0  0  0  0  0
   -4.0533   18.8039  -33.1124 H   0  0  0  0  0  0  0  0  0  0  0  0
   -3.8724   19.5717  -34.7583 H   0  0  0  0  0  0  0  0  0  0  0  0
   -6.1253   19.9427  -33.7992 H   0  0  0  0  0  0  0  0  0  0  0  0
   -6.1510   18.9625  -35.3274 H   0  0  0  0  0  0  0  0  0  0  0  0
  1  2  1  0
  2  3  2  0
  3  4  1  0
  4  5  2  0
  5  6  1  0
  6  7  1  0
  7  8  2  0
  7  9  1  0
  9 10  1  0
 10 11  2  0
 11 12  1  0
 12 13  2  0
 13 14  1  0
 14 15  2  0
 14 16  2  0
 14 17  1  0
 17 18  1  0
 18 19  1  0
 19 20  1  0
 20 21  1  0
 13 22  1  0
 22 23  2  0
  5 24  1  0
 24 25  1  0
 24 26  2  0
 26 27  1  0
 27 28  2  0
 27 29  2  0
 27 30  1  0
 30 31  1  0
 31 32  1  0
 32 33  1  0
 33 34  1  0
 34 35  1  0
 26  2  1  0
 35 30  1  0
 23 10  1  0
 21 17  1  0
  1 36  1  0
  1 37  1  0
  1 38  1  0
  3 39  1  0
  4 40  1  0
  6 41  1  0
 11 42  1  0
 12 43  1  0
 18 44  1  0
 18 45  1  0
 19 46  1  0
 19 47  1  0
 20 48  1  0
 20 49  1  0
 21 50  1  0
 21 51  1  0
 22 52  1  0
 23 53  1  0
 31 54  1  0
 31 55  1  0
 32 56  1  0
 32 57  1  0
 34 58  1  0
 34 59  1  0
 35 60  1  0
 35 61  1  0
M  CHG  2   9  -1  25  -1
M  END
>  <UniqueID>  (37) 
36

>  <SMILES>  (37) 
Cc1ccc(NC(=O)[N-]c2ccc(S(=O)(=O)N3CCCC3)cc2)c([O-])c1S(=O)(=O)N1CCOCC1

>  <Energy>  (37) 
91.85667285452652

>  <Genealogy>  (37) 
Cc1ccc(NC(=O)[N-]c2ccc(S(=O)(=O)N3CCCC3)cc2)c([O-])c1S(=O)(=O)N1CCOCC1 (protonated)
Cc1ccc(NC(=O)[N-]c2ccc(S(=O)(=O)N3CCCC3)cc2)c([O-])c1S(=O)(=O)N1CCOCC1 (3D coordinates assigned)
Cc1ccc(NC(=O)[N-]c2ccc(S(=O)(=O)N3CCCC3)cc2)c([O-])c1S(=O)(=O)N1CCOCC1 (nonaromatic ring conformer: 91.85667285452652 kcal/mol)

>  <smiles>  (37) 
Cc1ccc(NC(=O)Nc2ccc(S(=O)(=O)N3CCCC3)cc2)c(O)c1S(=O)(=O)N1CCOCC1

>  <score_type>  (37) 
oracle

>  <origin>  (37) 
adgpu

>  <m_score__min__energy>  (37) 
-13.83

>  <m_primary>  (37) 
energy

$$$$
37:0
     RDKit          3D

 45 48  0  0  0  0  0  0  0  0999 V2000
   -2.5302   11.7647  -30.3303 H   0  0  0  0  0  0  0  0  0  0  0  0
   -2.5470   12.5600  -31.0900 C   0  0  0  0  0  0  0  0  0  0  0  0
   -3.7350   13.0290  -31.5560 N   0  0  0  0  0  0  0  0  0  0  0  0
   -3.8110   14.0110  -32.4970 C   0  0  0  0  0  0  0  0  0  0  0  0
   -4.9890   14.4020  -32.8890 N   0  0  0  0  0  0  0  0  0  0  0  0
   -5.3310   15.6330  -34.0680 S   0  0  0  0  0  0  0  0  0  0  0  0
   -6.8050   15.6390  -34.3620 O   0  0  0  0  0  0  0  0  0  0  0  0
   -4.5550   15.3710  -35.3280 O   0  0  0  0  0  0  0  0  0  0  0  0
   -4.8540   17.1990  -33.4200 C   0  0  0  0  0  0  0  0  0  0  0  0
   -3.6030   17.7390  -33.7420 C   0  0  0  0  0  0  0  0  0  0  0  0
   -2.9165   17.1799  -34.3948 H   0  0  0  0  0  0  0  0  0  0  0  0
   -3.2230   18.9860  -33.2370 C   0  0  0  0  0  0  0  0  0  0  0  0
   -2.2321   19.3956  -33.4828 H   0  0  0  0  0  0  0  0  0  0  0  0
   -4.0960   19.7190  -32.4190 C   0  0  0  0  0  0  0  0  0  0  0  0
   -3.6740   20.9900  -31.8960 N   0  0  0  0  0  0  0  0  0  0  0  0
   -2.6470   21.1650  -31.8180 H   0  0  0  0  0  0  0  0  0  0  0  0
   -4.5720   22.0750  -31.6090 C   0  0  0  0  0  0  0  0  0  0  0  0
   -5.7340   22.0840  -32.0990 O   0  0  0  0  0  0  0  0  0  0  0  0
   -4.1410   23.2120  -30.7780 C   0  0  0  0  0  0  0  0  0  0  0  0
   -4.3770   24.4990  -31.0990 N   0  0  0  0  0  0  0  0  0  0  0  0
   -3.8610   25.2660  -30.1510 N   0  0  0  0  0  0  0  0  0  0  0  0
   -3.3010   24.4760  -29.2130 C   0  0  0  0  0  0  0  0  0  0  0  0
   -2.5980   24.9990  -28.0170 C   0  0  0  0  0  0  0  0  0  0  0  0
   -2.9860   24.5390  -26.7440 C   0  0  0  0  0  0  0  0  0  0  0  0
   -3.7930   23.7968  -26.6553 H   0  0  0  0  0  0  0  0  0  0  0  0
   -2.3550   25.0170  -25.5920 C   0  0  0  0  0  0  0  0  0  0  0  0
   -2.6711   24.6546  -24.6027 H   0  0  0  0  0  0  0  0  0  0  0  0
   -1.3260   25.9520  -25.6940 C   0  0  0  0  0  0  0  0  0  0  0  0
   -0.8360   26.3315  -24.7852 H   0  0  0  0  0  0  0  0  0  0  0  0
   -0.9170   26.4070  -26.9490 C   0  0  0  0  0  0  0  0  0  0  0  0
   -0.1027   27.1425  -27.0260 H   0  0  0  0  0  0  0  0  0  0  0  0
   -1.5390   25.9310  -28.1110 C   0  0  0  0  0  0  0  0  0  0  0  0
   -1.0760   26.3740  -29.3430 O   0  0  0  0  0  0  0  0  0  0  0  0
   -3.4540   23.1500  -29.5810 C   0  0  0  0  0  0  0  0  0  0  0  0
   -3.1084   22.2542  -29.0443 H   0  0  0  0  0  0  0  0  0  0  0  0
   -5.3470   19.1660  -32.0870 C   0  0  0  0  0  0  0  0  0  0  0  0
   -6.0316   19.7189  -31.4270 H   0  0  0  0  0  0  0  0  0  0  0  0
   -5.7240   17.9190  -32.5910 C   0  0  0  0  0  0  0  0  0  0  0  0
   -6.7087   17.5004  -32.3358 H   0  0  0  0  0  0  0  0  0  0  0  0
   -2.6180   14.5620  -33.0070 C   0  0  0  0  0  0  0  0  0  0  0  0
   -2.6549   15.3559  -33.7675 H   0  0  0  0  0  0  0  0  0  0  0  0
   -1.3880   14.0920  -32.5390 C   0  0  0  0  0  0  0  0  0  0  0  0
   -0.4513   14.5149  -32.9312 H   0  0  0  0  0  0  0  0  0  0  0  0
   -1.3500   13.0860  -31.5740 C   0  0  0  0  0  0  0  0  0  0  0  0
   -0.3861   12.7116  -31.1988 H   0  0  0  0  0  0  0  0  0  0  0  0
  1  2  1  0
  2  3  1  0
  3  4  1  0
  4  5  2  0
  5  6  1  0
  6  7  2  0
  6  8  2  0
  6  9  1  0
  9 10  2  0
 10 11  1  0
 10 12  1  0
 12 13  1  0
 12 14  2  0
 14 15  1  0
 15 16  1  0
 15 17  1  0
 17 18  2  0
 17 19  1  0
 19 20  2  0
 20 21  1  0
 21 22  1  0
 22 23  1  0
 23 24  2  0
 24 25  1  0
 24 26  1  0
 26 27  1  0
 26 28  2  0
 28 29  1  0
 28 30  1  0
 30 31  1  0
 30 32  2  0
 32 33  1  0
 22 34  2  0
 34 35  1  0
 14 36  1  0
 36 37  1  0
 36 38  2  0
 38 39  1  0
  4 40  1  0
 40 41  1  0
 40 42  2  0
 42 43  1  0
 42 44  1  0
 44 45  1  0
 44  2  2  0
 38  9  1  0
 34 19  1  0
 32 23  1  0
M  CHG  3   3  -1  21  -1  33  -1
M  END
>  <UniqueID>  (38) 
37

>  <SMILES>  (38) 
O=C(Nc1ccc(S(=O)(=O)/N=c2\cccc[n-]2)cc1)c1cc(-c2ccccc2[O-])[n-]n1

>  <Energy>  (38) 
93.64233310707955

>  <Genealogy>  (38) 
O=C(Nc1ccc(S(=O)(=O)N=c2cccc[n-]2)cc1)c1cc(-c2ccccc2[O-])[n-]n1 (protonated)
O=C(Nc1ccc(S(=O)(=O)/N=c2\cccc[n-]2)cc1)c1cc(-c2ccccc2[O-])[n-]n1 (cis-trans isomerization)
O=C(Nc1ccc(S(=O)(=O)/N=c2\cccc[n-]2)cc1)c1cc(-c2ccccc2[O-])[n-]n1 (3D coordinates assigned)
O=C(Nc1ccc(S(=O)(=O)/N=c2\cccc[n-]2)cc1)c1cc(-c2ccccc2[O-])[n-]n1 (optimized conformer: 93.64233310707955 kcal/mol)

>  <smiles>  (38) 
O=C(Nc1ccc(S(=O)(=O)N=c2cccc[nH]2)cc1)c1cc(-c2ccccc2O)[nH]n1

>  <score_type>  (38) 
oracle

>  <origin>  (38) 
adgpu

>  <m_score__min__energy>  (38) 
-12.18

>  <m_primary>  (38) 
energy

$$$$
38:0
     RDKit          3D

 57 61  0  0  0  0  0  0  0  0999 V2000
   -2.9560   24.1161  -29.3900 H   0  0  0  0  0  0  0  0  0  0  0  0
   -1.9100   23.9820  -29.0770 C   0  0  0  0  0  0  0  0  0  0  0  0
   -1.1500   23.1520  -29.7250 N   0  0  0  0  0  0  0  0  0  0  0  0
   -1.5840   22.3660  -30.8410 C   0  0  0  0  0  0  0  0  0  0  0  0
   -2.8960   22.0560  -31.0120 N   0  0  0  0  0  0  0  0  0  0  0  0
   -3.2960   21.3080  -32.0740 C   0  0  0  0  0  0  0  0  0  0  0  0
   -4.6890   20.9700  -32.2410 N   0  0  0  0  0  0  0  0  0  0  0  0
   -5.6950   22.0360  -32.0720 C   0  0  0  0  0  0  0  0  0  0  0  0
   -5.5685   22.7662  -32.8849 H   0  0  0  0  0  0  0  0  0  0  0  0
   -5.5296   22.4827  -31.0805 H   0  0  0  0  0  0  0  0  0  0  0  0
   -7.1190   21.5310  -32.1000 C   0  0  0  0  0  0  0  0  0  0  0  0
   -8.1520   22.3380  -31.5930 C   0  0  0  0  0  0  0  0  0  0  0  0
   -7.9130   23.3135  -31.1444 H   0  0  0  0  0  0  0  0  0  0  0  0
   -9.4820   21.9090  -31.6550 C   0  0  0  0  0  0  0  0  0  0  0  0
  -10.2832   22.5410  -31.2443 H   0  0  0  0  0  0  0  0  0  0  0  0
   -9.7930   20.6790  -32.2380 C   0  0  0  0  0  0  0  0  0  0  0  0
  -10.8394   20.3434  -32.2877 H   0  0  0  0  0  0  0  0  0  0  0  0
   -8.7750   19.8730  -32.7590 C   0  0  0  0  0  0  0  0  0  0  0  0
   -9.0242   18.9100  -33.2287 H   0  0  0  0  0  0  0  0  0  0  0  0
   -7.4350   20.2900  -32.6840 C   0  0  0  0  0  0  0  0  0  0  0  0
   -6.3410   19.4480  -33.2690 C   0  0  0  0  0  0  0  0  0  0  0  0
   -6.1217   19.7939  -34.2899 H   0  0  0  0  0  0  0  0  0  0  0  0
   -6.6676   18.3979  -33.2924 H   0  0  0  0  0  0  0  0  0  0  0  0
   -5.0810   19.5610  -32.4160 C   0  0  0  0  0  0  0  0  0  0  0  0
   -4.2618   19.0180  -32.9100 H   0  0  0  0  0  0  0  0  0  0  0  0
   -5.2870   19.1281  -31.4260 H   0  0  0  0  0  0  0  0  0  0  0  0
   -2.3680   20.8700  -32.9640 N   0  0  0  0  0  0  0  0  0  0  0  0
   -1.0510   21.1700  -32.8040 C   0  0  0  0  0  0  0  0  0  0  0  0
   -0.0700   20.6980  -33.7500 N   0  0  0  0  0  0  0  0  0  0  0  0
    0.9210   19.6800  -33.3800 C   0  0  0  0  0  0  0  0  0  0  0  0
    0.6152   18.7075  -33.7932 H   0  0  0  0  0  0  0  0  0  0  0  0
    0.9817   19.6183  -32.2834 H   0  0  0  0  0  0  0  0  0  0  0  0
    2.3020   20.0590  -33.9400 C   0  0  0  0  0  0  0  0  0  0  0  0
    2.9539   19.1752  -33.8779 H   0  0  0  0  0  0  0  0  0  0  0  0
    2.6681   20.9017  -33.3352 H   0  0  0  0  0  0  0  0  0  0  0  0
    2.2800   20.5250  -35.3550 N   0  0  0  0  0  0  0  0  0  0  0  0
    2.9050   21.8540  -35.5000 C   0  0  0  0  0  0  0  0  0  0  0  0
    3.1036   22.2764  -34.5040 H   0  0  0  0  0  0  0  0  0  0  0  0
    3.8514   21.7559  -36.0521 H   0  0  0  0  0  0  0  0  0  0  0  0
    2.2258   22.5203  -36.0521 H   0  0  0  0  0  0  0  0  0  0  0  0
    0.9480   20.4760  -35.9980 C   0  0  0  0  0  0  0  0  0  0  0  0
    0.6672   19.4237  -36.1523 H   0  0  0  0  0  0  0  0  0  0  0  0
    1.0134   21.0161  -36.9541 H   0  0  0  0  0  0  0  0  0  0  0  0
   -0.1310   21.1560  -35.1440 C   0  0  0  0  0  0  0  0  0  0  0  0
   -1.1212   20.9152  -35.5580 H   0  0  0  0  0  0  0  0  0  0  0  0
    0.0426   22.2421  -35.1623 H   0  0  0  0  0  0  0  0  0  0  0  0
   -0.6680   21.9200  -31.7360 N   0  0  0  0  0  0  0  0  0  0  0  0
   -1.3930   24.7460  -27.9300 C   0  0  0  0  0  0  0  0  0  0  0  0
   -0.1420   25.2810  -28.0070 N   0  0  0  0  0  0  0  0  0  0  0  0
    0.3950   26.0070  -26.9890 C   0  0  0  0  0  0  0  0  0  0  0  0
    1.4086   26.4229  -27.0866 H   0  0  0  0  0  0  0  0  0  0  0  0
   -0.3380   26.2250  -25.8210 C   0  0  0  0  0  0  0  0  0  0  0  0
    0.0917   26.8116  -24.9956 H   0  0  0  0  0  0  0  0  0  0  0  0
   -1.6220   25.6900  -25.7130 C   0  0  0  0  0  0  0  0  0  0  0  0
   -2.2111   25.8528  -24.7984 H   0  0  0  0  0  0  0  0  0  0  0  0
   -2.1590   24.9470  -26.7680 C   0  0  0  0  0  0  0  0  0  0  0  0
   -3.1712   24.5235  -26.6901 H   0  0  0  0  0  0  0  0  0  0  0  0
  1  2  1  0
  2  3  2  0
  3  4  1  0
  4  5  2  0
  5  6  1  0
  6  7  1  0
  7  8  1  0
  8  9  1  0
  8 10  1  0
  8 11  1  0
 11 12  2  0
 12 13  1  0
 12 14  1  0
 14 15  1  0
 14 16  2  0
 16 17  1  0
 16 18  1  0
 18 19  1  0
 18 20  2  0
 20 21  1  0
 21 22  1  0
 21 23  1  0
 21 24  1  0
 24 25  1  0
 24 26  1  0
  6 27  2  0
 27 28  1  0
 28 29  1  0
 29 30  1  0
 30 31  1  0
 30 32  1  0
 30 33  1  0
 33 34  1  0
 33 35  1  0
 33 36  1  0
 36 37  1  0
 37 38  1  0
 37 39  1  0
 37 40  1  0
 36 41  1  0
 41 42  1  0
 41 43  1  0
 41 44  1  0
 44 45  1  0
 44 46  1  0
 28 47  2  0
  2 48  1  0
 48 49  2  0
 49 50  1  0
 50 51  1  0
 50 52  2  0
 52 53  1  0
 52 54  1  0
 54 55  1  0
 54 56  2  0
 56 57  1  0
 47  4  1  0
 56 48  1  0
 24  7  1  0
 44 29  1  0
 20 11  1  0
M  END
>  <UniqueID>  (39) 
38

>  <SMILES>  (39) 
CN1CCN(c2nc(/N=C/c3ccccn3)nc(N3CCc4ccccc4C3)n2)CC1

>  <Energy>  (39) 
72.20539227072048

>  <Genealogy>  (39) 
CN1CCN(c2nc(/N=C/c3ccccn3)nc(N3CCc4ccccc4C3)n2)CC1 (cis-trans isomerization)
CN1CCN(c2nc(/N=C/c3ccccn3)nc(N3CCc4ccccc4C3)n2)CC1 (3D coordinates assigned)
CN1CCN(c2nc(/N=C/c3ccccn3)nc(N3CCc4ccccc4C3)n2)CC1 (nonaromatic ring conformer: 72.20539227072048 kcal/mol)

>  <smiles>  (39) 
CN1CCN(c2nc(N=Cc3ccccn3)nc(N3CCc4ccccc4C3)n2)CC1

>  <score_type>  (39) 
oracle

>  <origin>  (39) 
adgpu

>  <m_score__min__energy>  (39) 
-8.8399999999999999

>  <m_primary>  (39) 
energy

$$$$
39:0
     RDKit          3D

 45 48  0  0  0  0  0  0  0  0999 V2000
    0.5900   21.1370  -34.0380 C   0  0  0  0  0  0  0  0  0  0  0  0
   -0.0520   20.7980  -32.3690 S   0  0  0  0  0  0  0  0  0  0  0  0
   -1.4350   19.8270  -32.9690 C   0  0  0  0  0  0  0  0  0  0  0  0
   -1.3210   18.4350  -33.0770 C   0  0  0  0  0  0  0  0  0  0  0  0
   -2.4000   17.6780  -33.5400 C   0  0  0  0  0  0  0  0  0  0  0  0
   -3.6000   18.3050  -33.8990 C   0  0  0  0  0  0  0  0  0  0  0  0
   -4.9610   17.3330  -34.4470 S   0  0  0  0  0  0  0  0  0  0  0  0
   -5.6970   18.0170  -35.5650 O   0  0  0  0  0  0  0  0  0  0  0  0
   -4.4430   16.0130  -34.9420 O   0  0  0  0  0  0  0  0  0  0  0  0
   -6.0530   17.0650  -33.1260 N   0  0  0  0  0  0  0  0  0  0  0  0
   -6.9020   18.0880  -32.5780 C   0  0  0  0  0  0  0  0  0  0  0  0
   -8.2600   17.8530  -32.3070 C   0  0  0  0  0  0  0  0  0  0  0  0
   -9.0640   18.8730  -31.7970 C   0  0  0  0  0  0  0  0  0  0  0  0
   -8.5240   20.1350  -31.5430 C   0  0  0  0  0  0  0  0  0  0  0  0
   -7.1620   20.3890  -31.7840 C   0  0  0  0  0  0  0  0  0  0  0  0
   -6.6070   21.7410  -31.5170 C   0  0  0  0  0  0  0  0  0  0  0  0
   -7.4050   22.9130  -31.6180 C   0  0  0  0  0  0  0  0  0  0  0  0
   -6.8440   24.1740  -31.3560 C   0  0  0  0  0  0  0  0  0  0  0  0
   -5.5020   24.2060  -31.0090 C   0  0  0  0  0  0  0  0  0  0  0  0
   -4.7440   25.2820  -30.7270 N   0  0  0  0  0  0  0  0  0  0  0  0
   -3.5220   24.8160  -30.4680 N   0  0  0  0  0  0  0  0  0  0  0  0
   -3.5650   23.4690  -30.5890 C   0  0  0  0  0  0  0  0  0  0  0  0
   -2.3880   22.5620  -30.4340 C   0  0  0  0  0  0  0  0  0  0  0  0
   -4.7970   23.0800  -30.9350 N   0  0  0  0  0  0  0  0  0  0  0  0
   -5.2890   21.8680  -31.1760 N   0  0  0  0  0  0  0  0  0  0  0  0
   -6.3600   19.3560  -32.3080 C   0  0  0  0  0  0  0  0  0  0  0  0
   -3.7100   19.7010  -33.7990 C   0  0  0  0  0  0  0  0  0  0  0  0
   -2.6300   20.4580  -33.3360 C   0  0  0  0  0  0  0  0  0  0  0  0
    1.5603   21.6494  -33.9605 H   0  0  0  0  0  0  0  0  0  0  0  0
    0.7182   20.1890  -34.5811 H   0  0  0  0  0  0  0  0  0  0  0  0
   -0.1205   21.7775  -34.5811 H   0  0  0  0  0  0  0  0  0  0  0  0
   -0.3808   17.9374  -32.7969 H   0  0  0  0  0  0  0  0  0  0  0  0
   -2.3068   16.5851  -33.6230 H   0  0  0  0  0  0  0  0  0  0  0  0
   -5.9810   16.1460  -32.6330 H   0  0  0  0  0  0  0  0  0  0  0  0
   -8.6920   16.8595  -32.4978 H   0  0  0  0  0  0  0  0  0  0  0  0
  -10.1281   18.6818  -31.5942 H   0  0  0  0  0  0  0  0  0  0  0  0
   -9.1682   20.9362  -31.1517 H   0  0  0  0  0  0  0  0  0  0  0  0
   -8.4646   22.8323  -31.9021 H   0  0  0  0  0  0  0  0  0  0  0  0
   -7.4424   25.0945  -31.4231 H   0  0  0  0  0  0  0  0  0  0  0  0
   -2.1844   22.4051  -29.3645 H   0  0  0  0  0  0  0  0  0  0  0  0
   -2.6047   21.5951  -30.9117 H   0  0  0  0  0  0  0  0  0  0  0  0
   -1.5083   23.0180  -30.9117 H   0  0  0  0  0  0  0  0  0  0  0  0
   -5.2950   19.5447  -32.5085 H   0  0  0  0  0  0  0  0  0  0  0  0
   -4.6476   20.1999  -34.0855 H   0  0  0  0  0  0  0  0  0  0  0  0
   -2.7190   21.5517  -33.2598 H   0  0  0  0  0  0  0  0  0  0  0  0
  1  2  1  0
  2  3  1  0
  3  4  2  0
  4  5  1  0
  5  6  2  0
  6  7  1  0
  7  8  2  0
  7  9  2  0
  7 10  1  0
 10 11  1  0
 11 12  2  0
 12 13  1  0
 13 14  2  0
 14 15  1  0
 15 16  1  0
 16 17  1  0
 17 18  2  0
 18 19  1  0
 19 20  2  0
 20 21  1  0
 21 22  2  0
 22 23  1  0
 22 24  1  0
 24 25  1  0
 15 26  2  0
  6 27  1  0
 27 28  2  0
 28  3  1  0
 26 11  1  0
 25 16  2  0
 24 19  1  0
  1 29  1  0
  1 30  1  0
  1 31  1  0
  4 32  1  0
  5 33  1  0
 10 34  1  0
 12 35  1  0
 13 36  1  0
 14 37  1  0
 17 38  1  0
 18 39  1  0
 23 40  1  0
 23 41  1  0
 23 42  1  0
 26 43  1  0
 27 44  1  0
 28 45  1  0
M  END
>  <UniqueID>  (40) 
39

>  <SMILES>  (40) 
CSc1ccc(S(=O)(=O)Nc2cccc(-c3ccc4nnc(C)n4n3)c2)cc1

>  <Energy>  (40) 
93.64898868482166

>  <Genealogy>  (40) 
CSc1ccc(S(=O)(=O)Nc2cccc(-c3ccc4nnc(C)n4n3)c2)cc1 (3D coordinates assigned)
CSc1ccc(S(=O)(=O)Nc2cccc(-c3ccc4nnc(C)n4n3)c2)cc1 (optimized conformer: 93.64898868482166 kcal/mol)

>  <smiles>  (40) 
CSc1ccc(S(=O)(=O)Nc2cccc(-c3ccc4nnc(C)n4n3)c2)cc1

>  <score_type>  (40) 
oracle

>  <origin>  (40) 
adgpu

>  <m_score__min__energy>  (40) 
-10.550000000000001

>  <m_primary>  (40) 
energy

$$$$
40:0
     RDKit          3D

 43 45  0  0  0  0  0  0  0  0999 V2000
   -4.6770   26.0600  -30.2690 O   0  0  0  0  0  0  0  0  0  0  0  0
   -4.5130   24.8340  -30.5020 C   0  0  0  0  0  0  0  0  0  0  0  0
   -5.0850   24.2770  -31.6940 N   0  0  0  0  0  0  0  0  0  0  0  0
   -5.5790   22.9380  -31.8460 C   0  0  0  0  0  0  0  0  0  0  0  0
   -6.9520   22.7020  -31.6990 C   0  0  0  0  0  0  0  0  0  0  0  0
   -7.4630   21.4070  -31.8260 C   0  0  0  0  0  0  0  0  0  0  0  0
   -6.6080   20.3360  -32.1190 C   0  0  0  0  0  0  0  0  0  0  0  0
   -7.2500   18.6970  -32.2410 S   0  0  0  0  0  0  0  0  0  0  0  0
   -8.6510   18.7490  -32.7840 O   0  0  0  0  0  0  0  0  0  0  0  0
   -7.3060   18.0850  -30.8690 O   0  0  0  0  0  0  0  0  0  0  0  0
   -6.2600   17.6990  -33.2790 N   0  0  0  0  0  0  0  0  0  0  0  0
   -5.9070   18.4350  -34.5110 C   0  0  0  0  0  0  0  0  0  0  0  0
   -4.8030   17.7250  -35.3270 C   0  0  0  0  0  0  0  0  0  0  0  0
   -4.6180   16.2710  -34.8850 C   0  0  0  0  0  0  0  0  0  0  0  0
   -4.3060   16.1850  -33.3800 C   0  0  0  0  0  0  0  0  0  0  0  0
   -5.0520   17.2580  -32.5640 C   0  0  0  0  0  0  0  0  0  0  0  0
   -5.2400   20.5760  -32.3040 C   0  0  0  0  0  0  0  0  0  0  0  0
   -4.7270   21.8690  -32.1740 C   0  0  0  0  0  0  0  0  0  0  0  0
   -3.7640   24.0070  -29.5270 C   0  0  0  0  0  0  0  0  0  0  0  0
   -4.2640   22.7440  -29.1650 C   0  0  0  0  0  0  0  0  0  0  0  0
   -3.5890   21.9560  -28.2300 C   0  0  0  0  0  0  0  0  0  0  0  0
   -2.4020   22.4140  -27.6550 C   0  0  0  0  0  0  0  0  0  0  0  0
   -1.8820   23.6570  -28.0220 C   0  0  0  0  0  0  0  0  0  0  0  0
   -2.5490   24.4510  -28.9620 C   0  0  0  0  0  0  0  0  0  0  0  0
   -1.9850   25.6640  -29.3420 O   0  0  0  0  0  0  0  0  0  0  0  0
   -7.6313   23.5397  -31.4826 H   0  0  0  0  0  0  0  0  0  0  0  0
   -8.5405   21.2280  -31.6954 H   0  0  0  0  0  0  0  0  0  0  0  0
   -6.8063   18.5258  -35.1380 H   0  0  0  0  0  0  0  0  0  0  0  0
   -5.5214   19.4212  -34.2131 H   0  0  0  0  0  0  0  0  0  0  0  0
   -5.0802   17.7414  -36.3914 H   0  0  0  0  0  0  0  0  0  0  0  0
   -3.8556   18.2578  -35.1579 H   0  0  0  0  0  0  0  0  0  0  0  0
   -5.5422   15.7119  -35.0929 H   0  0  0  0  0  0  0  0  0  0  0  0
   -3.7726   15.8412  -35.4423 H   0  0  0  0  0  0  0  0  0  0  0  0
   -4.6041   15.1916  -33.0135 H   0  0  0  0  0  0  0  0  0  0  0  0
   -3.2269   16.3548  -33.2506 H   0  0  0  0  0  0  0  0  0  0  0  0
   -5.3410   16.8366  -31.5899 H   0  0  0  0  0  0  0  0  0  0  0  0
   -4.3873   18.1225  -32.4198 H   0  0  0  0  0  0  0  0  0  0  0  0
   -4.5667   19.7424  -32.5528 H   0  0  0  0  0  0  0  0  0  0  0  0
   -3.6533   22.0511  -32.3288 H   0  0  0  0  0  0  0  0  0  0  0  0
   -5.1937   22.3736  -29.6215 H   0  0  0  0  0  0  0  0  0  0  0  0
   -3.9932   20.9731  -27.9462 H   0  0  0  0  0  0  0  0  0  0  0  0
   -1.8762   21.7955  -26.9127 H   0  0  0  0  0  0  0  0  0  0  0  0
   -0.9444   24.0135  -27.5705 H   0  0  0  0  0  0  0  0  0  0  0  0
  1  2  2  0
  2  3  1  0
  3  4  1  0
  4  5  2  0
  5  6  1  0
  6  7  2  0
  7  8  1  0
  8  9  2  0
  8 10  2  0
  8 11  1  0
 11 12  1  0
 12 13  1  0
 13 14  1  0
 14 15  1  0
 15 16  1  0
  7 17  1  0
 17 18  2  0
  2 19  1  0
 19 20  2  0
 20 21  1  0
 21 22  2  0
 22 23  1  0
 23 24  2  0
 24 25  1  0
 18  4  1  0
 24 19  1  0
 16 11  1  0
  5 26  1  0
  6 27  1  0
 12 28  1  0
 12 29  1  0
 13 30  1  0
 13 31  1  0
 14 32  1  0
 14 33  1  0
 15 34  1  0
 15 35  1  0
 16 36  1  0
 16 37  1  0
 17 38  1  0
 18 39  1  0
 20 40  1  0
 21 41  1  0
 22 42  1  0
 23 43  1  0
M  CHG  2   3  -1  25  -1
M  END
>  <UniqueID>  (41) 
40

>  <SMILES>  (41) 
O=C([N-]c1ccc(S(=O)(=O)N2CCCCC2)cc1)c1ccccc1[O-]

>  <Energy>  (41) 
55.01964511682419

>  <Genealogy>  (41) 
O=C([N-]c1ccc(S(=O)(=O)N2CCCCC2)cc1)c1ccccc1[O-] (protonated)
O=C([N-]c1ccc(S(=O)(=O)N2CCCCC2)cc1)c1ccccc1[O-] (3D coordinates assigned)
O=C([N-]c1ccc(S(=O)(=O)N2CCCCC2)cc1)c1ccccc1[O-] (nonaromatic ring conformer: 55.01964511682419 kcal/mol)

>  <smiles>  (41) 
O=C(Nc1ccc(S(=O)(=O)N2CCCCC2)cc1)c1ccccc1O

>  <score_type>  (41) 
oracle

>  <origin>  (41) 
adgpu

>  <m_score__min__energy>  (41) 
-13.720000000000001

>  <m_primary>  (41) 
energy

$$$$
41:0
     RDKit          3D

 60 64  0  0  1  0  0  0  0  0999 V2000
    1.4360   24.5120  -24.5520 C   0  0  0  0  0  0  0  0  0  0  0  0
    0.0260   24.3820  -24.5330 O   0  0  0  0  0  0  0  0  0  0  0  0
   -0.6230   23.9370  -25.6750 C   0  0  0  0  0  0  0  0  0  0  0  0
   -0.2090   22.8230  -26.3790 C   0  0  0  0  0  0  0  0  0  0  0  0
   -0.8460   22.3680  -27.5170 C   0  0  0  0  0  0  0  0  0  0  0  0
   -1.9360   23.0670  -27.9520 C   0  0  0  0  0  0  0  0  0  0  0  0
   -2.3760   24.1840  -27.2680 C   0  0  0  0  0  0  0  0  0  0  0  0
   -1.7290   24.6270  -26.1330 C   0  0  0  0  0  0  0  0  0  0  0  0
   -2.1350   25.7430  -25.4170 O   0  0  0  0  0  0  0  0  0  0  0  0
   -1.2850   26.8860  -25.2830 C   0  0  0  0  0  0  0  0  0  0  0  0
   -2.7220   22.6890  -29.1670 C   0  0  0  0  0  0  0  0  0  0  0  0
   -2.1870   21.4430  -29.7380 N   0  0  0  0  0  0  0  0  0  0  0  0
   -2.2280   21.2450  -31.1380 C   0  0  0  0  0  0  0  0  0  0  0  0
   -3.3410   20.8530  -31.8420 C   0  0  0  0  0  0  0  0  0  0  0  0
   -3.2670   20.6940  -33.1990 C   0  0  0  0  0  0  0  0  0  0  0  0
   -4.2990   20.3330  -33.8430 N   0  0  0  0  0  0  0  0  0  0  0  0
   -5.5730   20.0680  -33.2680 C   0  0  0  0  0  0  0  0  0  0  0  0
   -6.1550   18.8130  -33.2890 C   0  0  0  0  0  0  0  0  0  0  0  0
   -7.3900   18.6680  -32.7050 C   0  0  0  0  0  0  0  0  0  0  0  0
   -8.0570   19.7180  -32.1090 C   0  0  0  0  0  0  0  0  0  0  0  0
   -7.4510   20.9660  -32.1020 C   0  0  0  0  0  0  0  0  0  0  0  0
   -8.2410   22.3590  -31.3580 S   0  0  0  0  0  0  0  0  0  0  0  0
   -9.1430   23.0490  -32.3360 O   0  0  0  0  0  0  0  0  0  0  0  0
   -9.0270   21.8900  -30.1660 O   0  0  0  0  0  0  0  0  0  0  0  0
   -7.0090   23.4200  -30.7910 N   0  0  0  0  0  0  0  0  0  0  0  0
   -6.3160   23.2610  -29.6400 C   0  0  0  0  0  0  0  0  0  0  0  0
   -5.4060   24.2740  -29.4730 C   0  0  0  0  0  0  0  0  0  0  0  0
   -5.5380   25.1010  -30.5690 C   0  0  0  0  0  0  0  0  0  0  0  0
   -6.5260   24.5450  -31.3500 C   0  0  0  0  0  0  0  0  0  0  0  0
   -6.2120   21.1560  -32.6770 C   0  0  0  0  0  0  0  0  0  0  0  0
   -2.1160   20.9120  -33.8870 N   0  0  0  0  0  0  0  0  0  0  0  0
   -1.0450   21.2940  -33.1780 C   0  0  0  0  0  0  0  0  0  0  0  0
   -1.1020   21.4530  -31.8630 N   0  0  0  0  0  0  0  0  0  0  0  0
   -1.6510   20.4980  -28.7850 C   0  0  0  0  0  0  0  0  0  0  0  0
   -0.3630   21.1480  -28.2590 C   0  0  0  0  0  0  0  0  0  0  0  0
    1.8149   24.5469  -23.5199 H   0  0  0  0  0  0  0  0  0  0  0  0
    1.8766   23.6507  -25.0754 H   0  0  0  0  0  0  0  0  0  0  0  0
    1.7117   25.4394  -25.0754 H   0  0  0  0  0  0  0  0  0  0  0  0
    0.6707   22.2715  -26.0157 H   0  0  0  0  0  0  0  0  0  0  0  0
   -3.2578   24.7297  -27.6350 H   0  0  0  0  0  0  0  0  0  0  0  0
   -1.1251   27.1010  -24.2161 H   0  0  0  0  0  0  0  0  0  0  0  0
   -0.3175   26.6819  -25.7649 H   0  0  0  0  0  0  0  0  0  0  0  0
   -1.7589   27.7539  -25.7649 H   0  0  0  0  0  0  0  0  0  0  0  0
   -3.7758   22.5404  -28.8888 H   0  0  0  0  0  0  0  0  0  0  0  0
   -2.6461   23.4931  -29.9138 H   0  0  0  0  0  0  0  0  0  0  0  0
   -4.2891   20.6675  -31.3160 H   0  0  0  0  0  0  0  0  0  0  0  0
   -5.6452   17.9587  -33.7583 H   0  0  0  0  0  0  0  0  0  0  0  0
   -7.8654   17.6761  -32.7130 H   0  0  0  0  0  0  0  0  0  0  0  0
   -9.0457   19.5694  -31.6503 H   0  0  0  0  0  0  0  0  0  0  0  0
   -6.4625   22.4311  -28.9331 H   0  0  0  0  0  0  0  0  0  0  0  0
   -4.7090   24.4015  -28.6316 H   0  0  0  0  0  0  0  0  0  0  0  0
   -4.9689   26.0191  -30.7769 H   0  0  0  0  0  0  0  0  0  0  0  0
   -6.8747   24.9649  -32.3050 H   0  0  0  0  0  0  0  0  0  0  0  0
   -5.7370   22.1481  -32.6692 H   0  0  0  0  0  0  0  0  0  0  0  0
   -2.0960   20.7800  -34.9300 H   0  0  0  0  0  0  0  0  0  0  0  0
   -0.0949   21.4803  -33.7000 H   0  0  0  0  0  0  0  0  0  0  0  0
   -2.3633   20.3319  -27.9633 H   0  0  0  0  0  0  0  0  0  0  0  0
   -1.4604   19.5154  -29.2412 H   0  0  0  0  0  0  0  0  0  0  0  0
    0.1713   20.4650  -27.5822 H   0  0  0  0  0  0  0  0  0  0  0  0
    0.3453   21.3950  -29.0636 H   0  0  0  0  0  0  0  0  0  0  0  0
  1  2  1  0
  2  3  1  0
  3  4  2  0
  4  5  1  0
  5  6  2  0
  6  7  1  0
  7  8  2  0
  8  9  1  0
  9 10  1  0
  6 11  1  0
 11 12  1  0
 12 13  1  0
 13 14  2  0
 14 15  1  0
 15 16  2  0
 16 17  1  0
 17 18  2  0
 18 19  1  0
 19 20  2  0
 20 21  1  0
 21 22  1  0
 22 23  2  0
 22 24  2  0
 22 25  1  0
 25 26  1  0
 26 27  2  0
 27 28  1  0
 28 29  2  0
 21 30  2  0
 15 31  1  0
 31 32  1  0
 32 33  2  0
 12 34  1  0
 34 35  1  0
  8  3  1  0
 33 13  1  0
 35  5  1  0
 30 17  1  0
 29 25  1  0
  1 36  1  0
  1 37  1  0
  1 38  1  0
  4 39  1  0
  7 40  1  0
 10 41  1  0
 10 42  1  0
 10 43  1  0
 11 44  1  0
 11 45  1  0
 14 46  1  0
 18 47  1  0
 19 48  1  0
 20 49  1  0
 26 50  1  0
 27 51  1  0
 28 52  1  0
 29 53  1  0
 30 54  1  0
 31 55  1  0
 32 56  1  0
 34 57  1  0
 34 58  1  0
 35 59  1  0
 35 60  1  0
M  END
>  <smiles>  (42) 
COc1cc2c(cc1OC)CN(c1cc(=Nc3cccc(S(=O)(=O)n4cccc4)c3)[nH]cn1)CC2

>  <score_type>  (42) 
oracle

>  <origin>  (42) 
adgpu

>  <m_score__min__energy>  (42) 
-9.5299999999999994

>  <m_primary>  (42) 
energy

$$$$
42:0
     RDKit          3D

 34 36  0  0  0  0  0  0  0  0999 V2000
   -2.7760   24.5430  -28.4200 C   0  0  0  0  0  0  0  0  0  0  0  0
   -3.1820   24.9710  -29.7140 O   0  0  0  0  0  0  0  0  0  0  0  0
   -4.1050   24.2370  -30.4630 C   0  0  0  0  0  0  0  0  0  0  0  0
   -5.4510   24.6400  -30.5010 C   0  0  0  0  0  0  0  0  0  0  0  0
   -5.8940   25.7460  -29.7770 O   0  0  0  0  0  0  0  0  0  0  0  0
   -6.3730   23.9250  -31.2670 C   0  0  0  0  0  0  0  0  0  0  0  0
   -5.9790   22.7990  -32.0070 C   0  0  0  0  0  0  0  0  0  0  0  0
   -6.9130   22.0710  -32.7640 O   0  0  0  0  0  0  0  0  0  0  0  0
   -7.3720   20.7790  -32.4670 C   0  0  0  0  0  0  0  0  0  0  0  0
   -6.8610   19.7000  -33.1980 C   0  0  0  0  0  0  0  0  0  0  0  0
   -7.3050   18.3980  -32.9410 C   0  0  0  0  0  0  0  0  0  0  0  0
   -8.2720   18.1700  -31.9590 C   0  0  0  0  0  0  0  0  0  0  0  0
   -8.8020   19.2430  -31.2380 C   0  0  0  0  0  0  0  0  0  0  0  0
   -8.3600   20.5450  -31.4920 C   0  0  0  0  0  0  0  0  0  0  0  0
   -4.6410   22.3640  -31.9460 C   0  0  0  0  0  0  0  0  0  0  0  0
   -4.2210   21.2210  -32.6540 C   0  0  0  0  0  0  0  0  0  0  0  0
   -2.8910   20.8000  -32.5920 C   0  0  0  0  0  0  0  0  0  0  0  0
   -1.9650   21.5100  -31.8280 C   0  0  0  0  0  0  0  0  0  0  0  0
   -2.3600   22.6460  -31.1210 C   0  0  0  0  0  0  0  0  0  0  0  0
   -3.6960   23.0880  -31.1710 C   0  0  0  0  0  0  0  0  0  0  0  0
   -3.3208   25.1173  -27.6562 H   0  0  0  0  0  0  0  0  0  0  0  0
   -2.9982   23.4722  -28.3015 H   0  0  0  0  0  0  0  0  0  0  0  0
   -1.6950   24.7084  -28.3015 H   0  0  0  0  0  0  0  0  0  0  0  0
   -5.3610   26.1420  -29.0110 H   0  0  0  0  0  0  0  0  0  0  0  0
   -7.4240   24.2486  -31.2912 H   0  0  0  0  0  0  0  0  0  0  0  0
   -6.1064   19.8765  -33.9786 H   0  0  0  0  0  0  0  0  0  0  0  0
   -6.8923   17.5536  -33.5126 H   0  0  0  0  0  0  0  0  0  0  0  0
   -8.6162   17.1457  -31.7534 H   0  0  0  0  0  0  0  0  0  0  0  0
   -9.5681   19.0632  -30.4694 H   0  0  0  0  0  0  0  0  0  0  0  0
   -8.7854   21.3885  -30.9285 H   0  0  0  0  0  0  0  0  0  0  0  0
   -4.9453   20.6565  -33.2596 H   0  0  0  0  0  0  0  0  0  0  0  0
   -2.5726   19.9055  -33.1475 H   0  0  0  0  0  0  0  0  0  0  0  0
   -0.9189   21.1729  -31.7827 H   0  0  0  0  0  0  0  0  0  0  0  0
   -1.6232   23.1999  -30.5207 H   0  0  0  0  0  0  0  0  0  0  0  0
  1  2  1  0
  2  3  1  0
  3  4  2  0
  4  5  1  0
  4  6  1  0
  6  7  2  0
  7  8  1  0
  8  9  1  0
  9 10  2  0
 10 11  1  0
 11 12  2  0
 12 13  1  0
 13 14  2  0
  7 15  1  0
 15 16  2  0
 16 17  1  0
 17 18  2  0
 18 19  1  0
 19 20  2  0
 20  3  1  0
 14  9  1  0
 20 15  1  0
  1 21  1  0
  1 22  1  0
  1 23  1  0
  5 24  1  0
  6 25  1  0
 10 26  1  0
 11 27  1  0
 12 28  1  0
 13 29  1  0
 14 30  1  0
 16 31  1  0
 17 32  1  0
 18 33  1  0
 19 34  1  0
M  END
>  <UniqueID>  (43) 
41

>  <SMILES>  (43) 
COc1c(O)cc(Oc2ccccc2)c2ccccc12

>  <Energy>  (43) 
53.98092633509875

>  <Genealogy>  (43) 
COc1c(O)cc(Oc2ccccc2)c2ccccc12 (3D coordinates assigned)
COc1c(O)cc(Oc2ccccc2)c2ccccc12 (optimized conformer: 53.98092633509875 kcal/mol)

>  <smiles>  (43) 
COc1c(O)cc(Oc2ccccc2)c2ccccc12

>  <score_type>  (43) 
oracle

>  <origin>  (43) 
adgpu

>  <m_score__min__energy>  (43) 
-7.7000000000000002

>  <m_primary>  (43) 
energy

$$$$
43:0
     RDKit          3D

 54 57  0  0  0  0  0  0  0  0999 V2000
   -2.3080   19.3540  -26.6980 C   0  0  0  0  0  0  0  0  0  0  0  0
   -0.8780   19.8700  -26.8200 C   0  0  0  0  0  0  0  0  0  0  0  0
   -0.7670   20.8670  -27.9420 C   0  0  0  0  0  0  0  0  0  0  0  0
   -1.0690   20.4870  -29.2600 C   0  0  0  0  0  0  0  0  0  0  0  0
   -0.9400   21.4050  -30.3030 C   0  0  0  0  0  0  0  0  0  0  0  0
   -0.4920   22.7040  -30.0470 C   0  0  0  0  0  0  0  0  0  0  0  0
   -0.1570   23.0900  -28.7370 C   0  0  0  0  0  0  0  0  0  0  0  0
    0.2880   24.4190  -28.4280 N   0  0  0  0  0  0  0  0  0  0  0  0
   -0.5450   25.5760  -28.2720 C   0  0  0  0  0  0  0  0  0  0  0  0
   -0.2190   26.4930  -27.4730 O   0  0  0  0  0  0  0  0  0  0  0  0
   -1.8110   25.6550  -28.9350 N   0  0  0  0  0  0  0  0  0  0  0  0
   -2.8890   24.7150  -28.8220 C   0  0  0  0  0  0  0  0  0  0  0  0
   -2.9290   23.7590  -27.7920 C   0  0  0  0  0  0  0  0  0  0  0  0
   -3.9840   22.8470  -27.7190 C   0  0  0  0  0  0  0  0  0  0  0  0
   -4.9950   22.8650  -28.6800 C   0  0  0  0  0  0  0  0  0  0  0  0
   -4.9530   23.7890  -29.7340 C   0  0  0  0  0  0  0  0  0  0  0  0
   -6.2060   23.7710  -30.9780 S   0  0  0  0  0  0  0  0  0  0  0  0
   -5.9260   24.8680  -31.9650 O   0  0  0  0  0  0  0  0  0  0  0  0
   -7.5610   24.0060  -30.3720 O   0  0  0  0  0  0  0  0  0  0  0  0
   -6.2050   22.2310  -31.7820 N   0  0  0  0  0  0  0  0  0  0  0  0
   -7.3580   21.4370  -31.9980 C   0  0  0  0  0  0  0  0  0  0  0  0
   -8.6930   21.8520  -31.9450 C   0  0  0  0  0  0  0  0  0  0  0  0
   -9.6980   20.9010  -32.1810 C   0  0  0  0  0  0  0  0  0  0  0  0
   -9.3550   19.5630  -32.4630 C   0  0  0  0  0  0  0  0  0  0  0  0
   -8.0070   19.1750  -32.5130 C   0  0  0  0  0  0  0  0  0  0  0  0
   -7.0270   20.1400  -32.2800 C   0  0  0  0  0  0  0  0  0  0  0  0
   -5.5480   19.9610  -32.2650 C   0  0  0  0  0  0  0  0  0  0  0  0
   -5.0160   21.3910  -31.9510 C   0  0  1  0  0  0  0  0  0  0  0  0
   -4.1410   21.9300  -33.0850 C   0  0  0  0  0  0  0  0  0  0  0  0
   -3.8930   24.7100  -29.8050 C   0  0  0  0  0  0  0  0  0  0  0  0
   -3.8350   25.6300  -30.8460 O   0  0  0  0  0  0  0  0  0  0  0  0
   -0.3130   22.1710  -27.6900 C   0  0  0  0  0  0  0  0  0  0  0  0
   -2.5738   19.2581  -25.6349 H   0  0  0  0  0  0  0  0  0  0  0  0
   -2.9957   20.0607  -27.1856 H   0  0  0  0  0  0  0  0  0  0  0  0
   -2.3860   18.3710  -27.1856 H   0  0  0  0  0  0  0  0  0  0  0  0
   -0.5870   20.3544  -25.8762 H   0  0  0  0  0  0  0  0  0  0  0  0
   -0.2123   19.0208  -27.0338 H   0  0  0  0  0  0  0  0  0  0  0  0
   -1.4084   19.4621  -29.4708 H   0  0  0  0  0  0  0  0  0  0  0  0
   -1.1919   21.1051  -31.3309 H   0  0  0  0  0  0  0  0  0  0  0  0
   -0.4013   23.4259  -30.8720 H   0  0  0  0  0  0  0  0  0  0  0  0
   -2.1261   23.7293  -27.0407 H   0  0  0  0  0  0  0  0  0  0  0  0
   -4.0179   22.1121  -26.9012 H   0  0  0  0  0  0  0  0  0  0  0  0
   -5.8290   22.1511  -28.6107 H   0  0  0  0  0  0  0  0  0  0  0  0
   -8.9490   22.8987  -31.7236 H   0  0  0  0  0  0  0  0  0  0  0  0
  -10.7559   21.2005  -32.1458 H   0  0  0  0  0  0  0  0  0  0  0  0
  -10.1463   18.8207  -32.6444 H   0  0  0  0  0  0  0  0  0  0  0  0
   -7.7295   18.1331  -32.7311 H   0  0  0  0  0  0  0  0  0  0  0  0
   -5.2455   19.2479  -31.4840 H   0  0  0  0  0  0  0  0  0  0  0  0
   -5.1546   19.5532  -33.2079 H   0  0  0  0  0  0  0  0  0  0  0  0
   -4.3838   21.3830  -31.0509 H   0  0  0  0  0  0  0  0  0  0  0  0
   -3.2771   22.4622  -32.6603 H   0  0  0  0  0  0  0  0  0  0  0  0
   -3.7874   21.0929  -33.7049 H   0  0  0  0  0  0  0  0  0  0  0  0
   -4.7296   22.6223  -33.7049 H   0  0  0  0  0  0  0  0  0  0  0  0
   -0.0770   22.4752  -26.6596 H   0  0  0  0  0  0  0  0  0  0  0  0
  1  2  1  0
  2  3  1  0
  3  4  2  0
  4  5  1  0
  5  6  2  0
  6  7  1  0
  7  8  1  0
  8  9  1  0
  9 10  2  0
  9 11  1  0
 11 12  1  0
 12 13  2  0
 13 14  1  0
 14 15  2  0
 15 16  1  0
 16 17  1  0
 17 18  2  0
 17 19  2  0
 17 20  1  0
 20 21  1  0
 21 22  2  0
 22 23  1  0
 23 24  2  0
 24 25  1  0
 25 26  2  0
 26 27  1  0
 27 28  1  0
 28 29  1  0
 16 30  2  0
 30 31  1  0
  7 32  2  0
 32  3  1  0
 30 12  1  0
 28 20  1  0
 26 21  1  0
  1 33  1  0
  1 34  1  0
  1 35  1  0
  2 36  1  0
  2 37  1  0
  4 38  1  0
  5 39  1  0
  6 40  1  0
 13 41  1  0
 14 42  1  0
 15 43  1  0
 22 44  1  0
 23 45  1  0
 24 46  1  0
 25 47  1  0
 27 48  1  0
 27 49  1  0
 28 50  1  1
 29 51  1  0
 29 52  1  0
 29 53  1  0
 32 54  1  0
M  CHG  3   8  -1  11  -1  31  -1
M  END
>  <UniqueID>  (44) 
42

>  <SMILES>  (44) 
CCc1cccc([N-]C(=O)[N-]c2cccc(S(=O)(=O)N3c4ccccc4C[C@H]3C)c2[O-])c1

>  <Energy>  (44) 
75.75821223213964

>  <Genealogy>  (44) 
CCc1cccc([N-]C(=O)[N-]c2cccc(S(=O)(=O)N3c4ccccc4CC3C)c2[O-])c1 (protonated)
CCc1cccc([N-]C(=O)[N-]c2cccc(S(=O)(=O)N3c4ccccc4C[C@H]3C)c2[O-])c1 (chirality)
CCc1cccc([N-]C(=O)[N-]c2cccc(S(=O)(=O)N3c4ccccc4C[C@H]3C)c2[O-])c1 (3D coordinates assigned)
CCc1cccc([N-]C(=O)[N-]c2cccc(S(=O)(=O)N3c4ccccc4C[C@H]3C)c2[O-])c1 (nonaromatic ring conformer: 75.75821223213964 kcal/mol)

>  <smiles>  (44) 
CCc1cccc(NC(=O)Nc2cccc(S(=O)(=O)N3c4ccccc4CC3C)c2O)c1

>  <score_type>  (44) 
oracle

>  <origin>  (44) 
adgpu

>  <m_score__min__energy>  (44) 
-16.329999999999998

>  <m_primary>  (44) 
energy

$$$$
44:0
     RDKit          3D

 41 42  0  0  0  0  0  0  0  0999 V2000
   -1.7780   22.3140  -27.4170 C   0  0  0  0  0  0  0  0  0  0  0  0
   -1.9380   23.8220  -27.2640 C   0  0  0  0  0  0  0  0  0  0  0  0
   -1.3320   24.5370  -28.4300 C   0  0  0  0  0  0  0  0  0  0  0  0
   -0.0810   24.5410  -28.5810 O   0  0  0  0  0  0  0  0  0  0  0  0
   -2.1760   25.2460  -29.3410 N   0  0  0  0  0  0  0  0  0  0  0  0
   -3.6860   24.6100  -29.8990 S   0  0  0  0  0  0  0  0  0  0  0  0
   -4.4020   25.6480  -30.7180 O   0  0  0  0  0  0  0  0  0  0  0  0
   -4.5440   24.2700  -28.7130 O   0  0  0  0  0  0  0  0  0  0  0  0
   -3.4080   23.1600  -30.8570 C   0  0  0  0  0  0  0  0  0  0  0  0
   -2.1750   22.4960  -30.7890 C   0  0  0  0  0  0  0  0  0  0  0  0
   -1.9460   21.3560  -31.5660 C   0  0  0  0  0  0  0  0  0  0  0  0
   -2.9430   20.8790  -32.4280 C   0  0  0  0  0  0  0  0  0  0  0  0
   -2.6470   19.4950  -33.4750 S   0  0  0  0  0  0  0  0  0  0  0  0
   -2.0440   18.3890  -32.6560 O   0  0  0  0  0  0  0  0  0  0  0  0
   -1.6840   19.8600  -34.5730 O   0  0  0  0  0  0  0  0  0  0  0  0
   -4.1550   18.9450  -34.1550 N   0  0  0  0  0  0  0  0  0  0  0  0
   -4.8420   18.0120  -33.2590 C   0  0  0  0  0  0  0  0  0  0  0  0
   -6.2110   18.5160  -32.8810 C   0  0  0  0  0  0  0  0  0  0  0  0
   -6.6910   19.7300  -33.4010 C   0  0  0  0  0  0  0  0  0  0  0  0
   -7.9480   20.2110  -33.0210 C   0  0  0  0  0  0  0  0  0  0  0  0
   -8.7360   19.4830  -32.1260 C   0  0  0  0  0  0  0  0  0  0  0  0
   -8.2690   18.2700  -31.6120 C   0  0  0  0  0  0  0  0  0  0  0  0
   -7.0140   17.7840  -31.9900 C   0  0  0  0  0  0  0  0  0  0  0  0
   -4.1760   21.5410  -32.4930 C   0  0  0  0  0  0  0  0  0  0  0  0
   -4.4070   22.6760  -31.7120 C   0  0  0  0  0  0  0  0  0  0  0  0
   -1.7285   21.8477  -26.4220 H   0  0  0  0  0  0  0  0  0  0  0  0
   -2.6381   21.9082  -27.9697 H   0  0  0  0  0  0  0  0  0  0  0  0
   -0.8519   22.0977  -27.9697 H   0  0  0  0  0  0  0  0  0  0  0  0
   -3.0086   24.0679  -27.2059 H   0  0  0  0  0  0  0  0  0  0  0  0
   -1.4236   24.1417  -26.3457 H   0  0  0  0  0  0  0  0  0  0  0  0
   -1.3853   22.8729  -30.1224 H   0  0  0  0  0  0  0  0  0  0  0  0
   -0.9809   20.8323  -31.5005 H   0  0  0  0  0  0  0  0  0  0  0  0
   -4.9458   17.0410  -33.7654 H   0  0  0  0  0  0  0  0  0  0  0  0
   -4.2450   17.9127  -32.3404 H   0  0  0  0  0  0  0  0  0  0  0  0
   -6.0758   20.3041  -34.1095 H   0  0  0  0  0  0  0  0  0  0  0  0
   -8.3169   21.1642  -33.4275 H   0  0  0  0  0  0  0  0  0  0  0  0
   -9.7233   19.8642  -31.8260 H   0  0  0  0  0  0  0  0  0  0  0  0
   -8.8904   17.6965  -30.9085 H   0  0  0  0  0  0  0  0  0  0  0  0
   -6.6538   16.8253  -31.5886 H   0  0  0  0  0  0  0  0  0  0  0  0
   -4.9650   21.1657  -33.1614 H   0  0  0  0  0  0  0  0  0  0  0  0
   -5.3769   23.1918  -31.7685 H   0  0  0  0  0  0  0  0  0  0  0  0
  1  2  1  0
  2  3  1  0
  3  4  2  0
  3  5  1  0
  5  6  1  0
  6  7  2  0
  6  8  2  0
  6  9  1  0
  9 10  2  0
 10 11  1  0
 11 12  2  0
 12 13  1  0
 13 14  2  0
 13 15  2  0
 13 16  1  0
 16 17  1  0
 17 18  1  0
 18 19  2  0
 19 20  1  0
 20 21  2  0
 21 22  1  0
 22 23  2  0
 12 24  1  0
 24 25  2  0
 25  9  1  0
 23 18  1  0
  1 26  1  0
  1 27  1  0
  1 28  1  0
  2 29  1  0
  2 30  1  0
 10 31  1  0
 11 32  1  0
 17 33  1  0
 17 34  1  0
 19 35  1  0
 20 36  1  0
 21 37  1  0
 22 38  1  0
 23 39  1  0
 24 40  1  0
 25 41  1  0
M  CHG  2   5  -1  16  -1
M  END
>  <UniqueID>  (45) 
43

>  <SMILES>  (45) 
CCC(=O)[N-]S(=O)(=O)c1ccc(S(=O)(=O)[N-]Cc2ccccc2)cc1

>  <Energy>  (45) 
32.94878359719906

>  <Genealogy>  (45) 
CCC(=O)[N-]S(=O)(=O)c1ccc(S(=O)(=O)[N-]Cc2ccccc2)cc1 (protonated)
CCC(=O)[N-]S(=O)(=O)c1ccc(S(=O)(=O)[N-]Cc2ccccc2)cc1 (3D coordinates assigned)
CCC(=O)[N-]S(=O)(=O)c1ccc(S(=O)(=O)[N-]Cc2ccccc2)cc1 (optimized conformer: 32.94878359719906 kcal/mol)

>  <smiles>  (45) 
CCC(=O)NS(=O)(=O)c1ccc(S(=O)(=O)NCc2ccccc2)cc1

>  <score_type>  (45) 
oracle

>  <origin>  (45) 
adgpu

>  <m_score__min__energy>  (45) 
-10.220000000000001

>  <m_primary>  (45) 
energy

$$$$
45:0
     RDKit          3D

 59 62  0  0  0  0  0  0  0  0999 V2000
    2.5950   26.7150  -26.8170 C   0  0  0  0  0  0  0  0  0  0  0  0
    1.6000   25.8760  -27.4000 O   0  0  0  0  0  0  0  0  0  0  0  0
    0.2660   25.7880  -26.9710 C   0  0  0  0  0  0  0  0  0  0  0  0
   -0.1280   26.3310  -25.7340 C   0  0  0  0  0  0  0  0  0  0  0  0
   -1.4520   26.2440  -25.3080 C   0  0  0  0  0  0  0  0  0  0  0  0
   -2.4060   25.6210  -26.1070 C   0  0  0  0  0  0  0  0  0  0  0  0
   -2.0450   25.0760  -27.3460 C   0  0  0  0  0  0  0  0  0  0  0  0
   -3.0890   24.3710  -28.1790 C   0  0  0  0  0  0  0  0  0  0  0  0
   -3.1090   24.9340  -29.5230 N   0  0  0  0  0  0  0  0  0  0  0  0
   -4.0760   24.5630  -30.5100 C   0  0  0  0  0  0  0  0  0  0  0  0
   -5.1060   25.2680  -30.6930 O   0  0  0  0  0  0  0  0  0  0  0  0
   -3.8980   23.3140  -31.2560 C   0  0  0  0  0  0  0  0  0  0  0  0
   -2.6880   22.7450  -31.4450 N   0  0  0  0  0  0  0  0  0  0  0  0
   -2.9660   21.5570  -32.0160 C   0  0  0  0  0  0  0  0  0  0  0  0
   -1.7790   20.2650  -32.1000 S   0  0  0  0  0  0  0  0  0  0  0  0
   -0.6670   20.6670  -33.0260 O   0  0  0  0  0  0  0  0  0  0  0  0
   -2.3910   18.9950  -32.6180 O   0  0  0  0  0  0  0  0  0  0  0  0
   -1.1370   20.0400  -30.4790 C   0  0  0  0  0  0  0  0  0  0  0  0
    0.1180   19.4440  -30.2840 C   0  0  0  0  0  0  0  0  0  0  0  0
    0.5800   19.1920  -28.9890 C   0  0  0  0  0  0  0  0  0  0  0  0
   -0.2090   19.5320  -27.8830 C   0  0  0  0  0  0  0  0  0  0  0  0
   -1.4740   20.1130  -28.0670 C   0  0  0  0  0  0  0  0  0  0  0  0
   -2.3260   20.4900  -26.8930 C   0  0  0  0  0  0  0  0  0  0  0  0
   -1.9300   20.3710  -29.3700 C   0  0  0  0  0  0  0  0  0  0  0  0
   -4.3380   21.4190  -32.1370 C   0  0  0  0  0  0  0  0  0  0  0  0
   -5.0890   20.2170  -32.5400 C   0  0  0  0  0  0  0  0  0  0  0  0
   -4.9820   19.7330  -33.8520 C   0  0  0  0  0  0  0  0  0  0  0  0
   -5.6960   18.5950  -34.2430 C   0  0  0  0  0  0  0  0  0  0  0  0
   -6.5090   17.9290  -33.3210 C   0  0  0  0  0  0  0  0  0  0  0  0
   -7.2000   16.8260  -33.7000 F   0  0  0  0  0  0  0  0  0  0  0  0
   -6.6030   18.3960  -32.0070 C   0  0  0  0  0  0  0  0  0  0  0  0
   -5.8920   19.5330  -31.6140 C   0  0  0  0  0  0  0  0  0  0  0  0
   -4.9180   22.5300  -31.6560 N   0  0  0  0  0  0  0  0  0  0  0  0
   -0.7040   25.1460  -27.7880 C   0  0  0  0  0  0  0  0  0  0  0  0
   -0.4030   24.5560  -29.0300 O   0  0  0  0  0  0  0  0  0  0  0  0
   -0.2030   23.1710  -29.2860 C   0  0  0  0  0  0  0  0  0  0  0  0
    2.5267   26.6574  -25.7206 H   0  0  0  0  0  0  0  0  0  0  0  0
    3.5919   26.3807  -27.1403 H   0  0  0  0  0  0  0  0  0  0  0  0
    2.4339   27.7540  -27.1403 H   0  0  0  0  0  0  0  0  0  0  0  0
    0.6171   26.8295  -25.0965 H   0  0  0  0  0  0  0  0  0  0  0  0
   -1.7441   26.6694  -24.3365 H   0  0  0  0  0  0  0  0  0  0  0  0
   -3.4491   25.5562  -25.7638 H   0  0  0  0  0  0  0  0  0  0  0  0
   -2.8488   23.2990  -28.2354 H   0  0  0  0  0  0  0  0  0  0  0  0
   -4.0768   24.5048  -27.7138 H   0  0  0  0  0  0  0  0  0  0  0  0
    0.7391   19.1747  -31.1510 H   0  0  0  0  0  0  0  0  0  0  0  0
    1.5649   18.7259  -28.8384 H   0  0  0  0  0  0  0  0  0  0  0  0
    0.1640   19.3430  -26.8656 H   0  0  0  0  0  0  0  0  0  0  0  0
   -1.7915   20.2535  -25.9611 H   0  0  0  0  0  0  0  0  0  0  0  0
   -2.5425   21.5679  -26.9281 H   0  0  0  0  0  0  0  0  0  0  0  0
   -3.2693   19.9253  -26.9281 H   0  0  0  0  0  0  0  0  0  0  0  0
   -2.9154   20.8356  -29.5221 H   0  0  0  0  0  0  0  0  0  0  0  0
   -4.3347   20.2497  -34.5759 H   0  0  0  0  0  0  0  0  0  0  0  0
   -5.6177   18.2244  -35.2757 H   0  0  0  0  0  0  0  0  0  0  0  0
   -7.2380   17.8674  -31.2807 H   0  0  0  0  0  0  0  0  0  0  0  0
   -5.9618   19.8927  -30.5768 H   0  0  0  0  0  0  0  0  0  0  0  0
   -5.9430   22.7150  -31.5510 H   0  0  0  0  0  0  0  0  0  0  0  0
   -0.1248   22.6293  -28.3318 H   0  0  0  0  0  0  0  0  0  0  0  0
   -1.0537   22.7780  -29.8621 H   0  0  0  0  0  0  0  0  0  0  0  0
    0.7241   23.0347  -29.8621 H   0  0  0  0  0  0  0  0  0  0  0  0
  1  2  1  0
  2  3  1  0
  3  4  2  0
  4  5  1  0
  5  6  2  0
  6  7  1  0
  7  8  1  0
  8  9  1  0
  9 10  1  0
 10 11  2  0
 10 12  1  0
 12 13  2  0
 13 14  1  0
 14 15  1  0
 15 16  2  0
 15 17  2  0
 15 18  1  0
 18 19  2  0
 19 20  1  0
 20 21  2  0
 21 22  1  0
 22 23  1  0
 22 24  2  0
 14 25  2  0
 25 26  1  0
 26 27  2  0
 27 28  1  0
 28 29  2  0
 29 30  1  0
 29 31  1  0
 31 32  2  0
 25 33  1  0
  7 34  2  0
 34 35  1  0
 35 36  1  0
 34  3  1  0
 33 12  1  0
 24 18  1  0
 32 26  1  0
  1 37  1  0
  1 38  1  0
  1 39  1  0
  4 40  1  0
  5 41  1  0
  6 42  1  0
  8 43  1  0
  8 44  1  0
 19 45  1  0
 20 46  1  0
 21 47  1  0
 23 48  1  0
 23 49  1  0
 23 50  1  0
 24 51  1  0
 27 52  1  0
 28 53  1  0
 31 54  1  0
 32 55  1  0
 33 56  1  0
 36 57  1  0
 36 58  1  0
 36 59  1  0
M  CHG  1   9  -1
M  END
>  <UniqueID>  (46) 
44

>  <SMILES>  (46) 
COc1cccc(C[N-]C(=O)c2nc(S(=O)(=O)c3cccc(C)c3)c(-c3ccc(F)cc3)[nH]2)c1OC

>  <Energy>  (46) 
96.5078101803708

>  <Genealogy>  (46) 
COc1cccc(C[N-]C(=O)c2nc(S(=O)(=O)c3cccc(C)c3)c(-c3ccc(F)cc3)[nH]2)c1OC (protonated)
COc1cccc(C[N-]C(=O)c2nc(S(=O)(=O)c3cccc(C)c3)c(-c3ccc(F)cc3)[nH]2)c1OC (3D coordinates assigned)
COc1cccc(C[N-]C(=O)c2nc(S(=O)(=O)c3cccc(C)c3)c(-c3ccc(F)cc3)[nH]2)c1OC (optimized conformer: 96.5078101803708 kcal/mol)

>  <smiles>  (46) 
COc1cccc(CNC(=O)c2nc(S(=O)(=O)c3cccc(C)c3)c(-c3ccc(F)cc3)[nH]2)c1OC

>  <score_type>  (46) 
oracle

>  <origin>  (46) 
adgpu

>  <m_score__min__energy>  (46) 
-10.539999999999999

>  <m_primary>  (46) 
energy

$$$$
46:0
     RDKit          3D

 55 57  0  0  0  0  0  0  0  0999 V2000
    0.7250   19.3290  -32.8850 C   0  0  0  0  0  0  0  0  0  0  0  0
    0.8670   20.5000  -33.8320 C   0  0  0  0  0  0  0  0  0  0  0  0
   -0.2610   21.2480  -34.2510 C   0  0  0  0  0  0  0  0  0  0  0  0
   -1.6180   20.9960  -33.7240 C   0  0  0  0  0  0  0  0  0  0  0  0
   -2.3240   19.8490  -34.1040 C   0  0  0  0  0  0  0  0  0  0  0  0
   -3.6110   19.6250  -33.6160 C   0  0  0  0  0  0  0  0  0  0  0  0
   -4.2170   20.5470  -32.7500 C   0  0  0  0  0  0  0  0  0  0  0  0
   -5.5310   20.2530  -32.2610 N   0  0  0  0  0  0  0  0  0  0  0  0
   -5.7610   18.9810  -31.5700 C   0  0  0  0  0  0  0  0  0  0  0  0
   -7.1580   18.4400  -31.8980 C   0  0  0  0  0  0  0  0  0  0  0  0
   -8.2240   19.4240  -31.5930 N   0  0  0  0  0  0  0  0  0  0  0  0
   -9.4820   19.0160  -32.2410 C   0  0  0  0  0  0  0  0  0  0  0  0
   -7.8830   20.8330  -31.9300 C   0  0  0  0  0  0  0  0  0  0  0  0
   -6.6700   20.9520  -32.8590 C   0  0  0  0  0  0  0  0  0  0  0  0
   -3.5120   21.7150  -32.3620 C   0  0  0  0  0  0  0  0  0  0  0  0
   -4.2190   22.9690  -31.3130 S   0  0  0  0  0  0  0  0  0  0  0  0
   -3.1640   23.9310  -30.8490 O   0  0  0  0  0  0  0  0  0  0  0  0
   -5.2220   23.7480  -32.1210 O   0  0  0  0  0  0  0  0  0  0  0  0
   -5.0000   22.3060  -29.8930 N   0  0  0  0  0  0  0  0  0  0  0  0
   -4.1920   22.5450  -28.6840 C   0  0  0  0  0  0  0  0  0  0  0  0
   -6.3460   22.8780  -29.7300 C   0  0  0  0  0  0  0  0  0  0  0  0
   -2.1990   21.8990  -32.8240 C   0  0  0  0  0  0  0  0  0  0  0  0
   -0.1110   22.2340  -35.1690 N   0  0  0  0  0  0  0  0  0  0  0  0
    1.0900   22.5760  -35.6930 C   0  0  0  0  0  0  0  0  0  0  0  0
    1.1340   23.5090  -36.5420 O   0  0  0  0  0  0  0  0  0  0  0  0
    2.2650   21.9080  -35.2820 C   0  0  0  0  0  0  0  0  0  0  0  0
    3.5990   22.2720  -35.8520 C   0  0  0  0  0  0  0  0  0  0  0  0
    4.6060   22.4100  -35.0980 O   0  0  0  0  0  0  0  0  0  0  0  0
    3.7710   22.4690  -37.2150 O   0  0  0  0  0  0  0  0  0  0  0  0
    2.1420   20.8700  -34.3260 C   0  0  0  0  0  0  0  0  0  0  0  0
    3.2950   20.2180  -33.8780 O   0  0  0  0  0  0  0  0  0  0  0  0
    0.7687   19.6897  -31.8467 H   0  0  0  0  0  0  0  0  0  0  0  0
   -0.2401   18.8310  -33.0598 H   0  0  0  0  0  0  0  0  0  0  0  0
    1.5431   18.6148  -33.0598 H   0  0  0  0  0  0  0  0  0  0  0  0
   -1.8627   19.1225  -34.7891 H   0  0  0  0  0  0  0  0  0  0  0  0
   -4.1560   18.7168  -33.9130 H   0  0  0  0  0  0  0  0  0  0  0  0
   -5.0044   18.2509  -31.8932 H   0  0  0  0  0  0  0  0  0  0  0  0
   -5.6876   19.1458  -30.4849 H   0  0  0  0  0  0  0  0  0  0  0  0
   -7.1999   18.1926  -32.9690 H   0  0  0  0  0  0  0  0  0  0  0  0
   -7.3309   17.5500  -31.2751 H   0  0  0  0  0  0  0  0  0  0  0  0
  -10.2293   18.7736  -31.4710 H   0  0  0  0  0  0  0  0  0  0  0  0
   -9.8553   19.8391  -32.8680 H   0  0  0  0  0  0  0  0  0  0  0  0
   -9.3011   18.1305  -32.8680 H   0  0  0  0  0  0  0  0  0  0  0  0
   -8.7501   21.2942  -32.4255 H   0  0  0  0  0  0  0  0  0  0  0  0
   -7.6271   21.3426  -30.9894 H   0  0  0  0  0  0  0  0  0  0  0  0
   -6.9078   20.5002  -33.8333 H   0  0  0  0  0  0  0  0  0  0  0  0
   -6.4175   22.0132  -33.0006 H   0  0  0  0  0  0  0  0  0  0  0  0
   -4.8069   22.3631  -27.7902 H   0  0  0  0  0  0  0  0  0  0  0  0
   -3.3283   21.8639  -28.6797 H   0  0  0  0  0  0  0  0  0  0  0  0
   -3.8378   23.5864  -28.6797 H   0  0  0  0  0  0  0  0  0  0  0  0
   -6.5757   22.9756  -28.6587 H   0  0  0  0  0  0  0  0  0  0  0  0
   -6.3830   23.8696  -30.2047 H   0  0  0  0  0  0  0  0  0  0  0  0
   -7.0855   22.2164  -30.2047 H   0  0  0  0  0  0  0  0  0  0  0  0
   -1.6179   22.7650  -32.4742 H   0  0  0  0  0  0  0  0  0  0  0  0
    4.2390   20.5340  -34.0750 H   0  0  0  0  0  0  0  0  0  0  0  0
  1  2  1  0
  2  3  2  0
  3  4  1  0
  4  5  2  0
  5  6  1  0
  6  7  2  0
  7  8  1  0
  8  9  1  0
  9 10  1  0
 10 11  1  0
 11 12  1  0
 11 13  1  0
 13 14  1  0
  7 15  1  0
 15 16  1  0
 16 17  2  0
 16 18  2  0
 16 19  1  0
 19 20  1  0
 19 21  1  0
 15 22  2  0
  3 23  1  0
 23 24  1  0
 24 25  2  0
 24 26  1  0
 26 27  1  0
 27 28  2  0
 27 29  1  0
 26 30  2  0
 30 31  1  0
 30  2  1  0
 22  4  1  0
 14  8  1  0
  1 32  1  0
  1 33  1  0
  1 34  1  0
  5 35  1  0
  6 36  1  0
  9 37  1  0
  9 38  1  0
 10 39  1  0
 10 40  1  0
 12 41  1  0
 12 42  1  0
 12 43  1  0
 13 44  1  0
 13 45  1  0
 14 46  1  0
 14 47  1  0
 20 48  1  0
 20 49  1  0
 20 50  1  0
 21 51  1  0
 21 52  1  0
 21 53  1  0
 22 54  1  0
 31 55  1  0
M  CHG  2  23  -1  29  -1
M  END
>  <UniqueID>  (47) 
45

>  <SMILES>  (47) 
Cc1c(-c2ccc(N3CCN(C)CC3)c(S(=O)(=O)N(C)C)c2)[n-]c(=O)c(C(=O)[O-])c1O

>  <Energy>  (47) 
83.81110546955014

>  <Genealogy>  (47) 
Cc1c(-c2ccc(N3CCN(C)CC3)c(S(=O)(=O)N(C)C)c2)[n-]c(=O)c(C(=O)[O-])c1O (protonated)
Cc1c(-c2ccc(N3CCN(C)CC3)c(S(=O)(=O)N(C)C)c2)[n-]c(=O)c(C(=O)[O-])c1O (3D coordinates assigned)
Cc1c(-c2ccc(N3CCN(C)CC3)c(S(=O)(=O)N(C)C)c2)[n-]c(=O)c(C(=O)[O-])c1O (nonaromatic ring conformer: 83.81110546955014 kcal/mol)

>  <smiles>  (47) 
Cc1c(-c2ccc(N3CCN(C)CC3)c(S(=O)(=O)N(C)C)c2)[nH]c(=O)c(C(=O)O)c1O

>  <score_type>  (47) 
oracle

>  <origin>  (47) 
adgpu

>  <m_score__min__energy>  (47) 
-10.609999999999999

>  <m_primary>  (47) 
energy

$$$$
47:0
     RDKit          3D

 42 44  0  0  0  0  0  0  0  0999 V2000
   -9.1330   18.1730  -31.7290 C   0  0  0  0  0  0  0  0  0  0  0  0
   -8.0960   19.2150  -32.0290 C   0  0  0  0  0  0  0  0  0  0  0  0
   -6.9300   18.8710  -32.7290 C   0  0  0  0  0  0  0  0  0  0  0  0
   -5.9770   19.8460  -33.0270 C   0  0  0  0  0  0  0  0  0  0  0  0
   -6.1860   21.1730  -32.6460 C   0  0  0  0  0  0  0  0  0  0  0  0
   -7.3630   21.5460  -31.9720 C   0  0  0  0  0  0  0  0  0  0  0  0
   -7.5730   22.9600  -31.5810 C   0  0  0  0  0  0  0  0  0  0  0  0
   -8.6400   23.5410  -31.9180 O   0  0  0  0  0  0  0  0  0  0  0  0
   -6.5890   23.6730  -30.8100 N   0  0  0  0  0  0  0  0  0  0  0  0
   -6.7300   25.0900  -30.4760 C   0  0  0  0  0  0  0  0  0  0  0  0
   -5.3720   25.7090  -30.1260 C   0  0  0  0  0  0  0  0  0  0  0  0
   -4.2710   24.9100  -30.6680 N   0  0  0  0  0  0  0  0  0  0  0  0
   -3.7560   23.8640  -30.0950 C   0  0  0  0  0  0  0  0  0  0  0  0
   -2.7260   23.2170  -30.6970 N   0  0  0  0  0  0  0  0  0  0  0  0
   -2.1590   22.1170  -30.1340 C   0  0  0  0  0  0  0  0  0  0  0  0
   -2.6330   21.6280  -28.9080 C   0  0  0  0  0  0  0  0  0  0  0  0
   -2.0280   20.4300  -28.2700 C   0  0  0  0  0  0  0  0  0  0  0  0
   -0.7800   19.9370  -28.6840 C   0  0  0  0  0  0  0  0  0  0  0  0
   -0.2480   18.8390  -28.0890 N   0  0  0  0  0  0  0  0  0  0  0  0
   -0.9030   18.2000  -27.0860 C   0  0  0  0  0  0  0  0  0  0  0  0
   -2.1100   18.6560  -26.6650 N   0  0  0  0  0  0  0  0  0  0  0  0
   -2.6830   19.7480  -27.2330 C   0  0  0  0  0  0  0  0  0  0  0  0
   -3.6990   22.3130  -28.3050 C   0  0  0  0  0  0  0  0  0  0  0  0
   -4.2360   23.4050  -28.9070 N   0  0  0  0  0  0  0  0  0  0  0  0
   -8.3140   20.5540  -31.6630 C   0  0  0  0  0  0  0  0  0  0  0  0
   -9.2401   18.0653  -30.6395 H   0  0  0  0  0  0  0  0  0  0  0  0
  -10.0962   18.4784  -32.1638 H   0  0  0  0  0  0  0  0  0  0  0  0
   -8.8230   17.2113  -32.1638 H   0  0  0  0  0  0  0  0  0  0  0  0
   -6.7664   17.8298  -33.0439 H   0  0  0  0  0  0  0  0  0  0  0  0
   -5.0580   19.5682  -33.5639 H   0  0  0  0  0  0  0  0  0  0  0  0
   -5.4241   21.9328  -32.8747 H   0  0  0  0  0  0  0  0  0  0  0  0
   -5.7480   23.1730  -30.4460 H   0  0  0  0  0  0  0  0  0  0  0  0
   -7.1564   25.6224  -31.3390 H   0  0  0  0  0  0  0  0  0  0  0  0
   -7.3922   25.1802  -29.6023 H   0  0  0  0  0  0  0  0  0  0  0  0
   -5.3207   26.7236  -30.5477 H   0  0  0  0  0  0  0  0  0  0  0  0
   -5.2746   25.7392  -29.0307 H   0  0  0  0  0  0  0  0  0  0  0  0
   -1.3258   21.6090  -30.6417 H   0  0  0  0  0  0  0  0  0  0  0  0
   -0.2318   20.4421  -29.4929 H   0  0  0  0  0  0  0  0  0  0  0  0
   -0.4554   17.3126  -26.6146 H   0  0  0  0  0  0  0  0  0  0  0  0
   -3.6636   20.0992  -26.8793 H   0  0  0  0  0  0  0  0  0  0  0  0
   -4.1006   21.9643  -27.3421 H   0  0  0  0  0  0  0  0  0  0  0  0
   -9.2359   20.8301  -31.1302 H   0  0  0  0  0  0  0  0  0  0  0  0
  1  2  1  0
  2  3  2  0
  3  4  1  0
  4  5  2  0
  5  6  1  0
  6  7  1  0
  7  8  2  0
  7  9  1  0
  9 10  1  0
 10 11  1  0
 11 12  1  0
 12 13  2  3
 13 14  1  0
 14 15  2  0
 15 16  1  0
 16 17  1  0
 17 18  2  0
 18 19  1  0
 19 20  2  0
 20 21  1  0
 21 22  2  0
 16 23  2  0
 23 24  1  0
  6 25  2  0
 25  2  1  0
 24 13  1  0
 22 17  1  0
  1 26  1  0
  1 27  1  0
  1 28  1  0
  3 29  1  0
  4 30  1  0
  5 31  1  0
  9 32  1  0
 10 33  1  0
 10 34  1  0
 11 35  1  0
 11 36  1  0
 15 37  1  0
 18 38  1  0
 20 39  1  0
 22 40  1  0
 23 41  1  0
 25 42  1  0
M  CHG  1  24  -1
M  END
>  <UniqueID>  (48) 
46

>  <SMILES>  (48) 
Cc1cccc(C(=O)NCCN=c2ncc(-c3cncnc3)c[n-]2)c1

>  <Energy>  (48) 
49.94996066520617

>  <Genealogy>  (48) 
Cc1cccc(C(=O)NCCN=c2ncc(-c3cncnc3)c[n-]2)c1 (protonated)
Cc1cccc(C(=O)NCCN=c2ncc(-c3cncnc3)c[n-]2)c1 (3D coordinates assigned)
Cc1cccc(C(=O)NCCN=c2ncc(-c3cncnc3)c[n-]2)c1 (optimized conformer: 49.94996066520617 kcal/mol)

>  <smiles>  (48) 
Cc1cccc(C(=O)NCCN=c2ncc(-c3cncnc3)c[nH]2)c1

>  <score_type>  (48) 
oracle

>  <origin>  (48) 
adgpu

>  <m_score__min__energy>  (48) 
-9.5500000000000007

>  <m_primary>  (48) 
energy

$$$$
