0:0
     RDKit          3D

 37 39  0  0  0  0  0  0  0  0999 V2000
    0.0710   20.8250  -29.3030 O   0  0  0  0  0  0  0  0  0  0  0  0
   -0.4640   21.6980  -30.0390 C   0  0  0  0  0  0  0  0  0  0  0  0
   -0.3780   23.0830  -29.6800 N   0  0  0  0  0  0  0  0  0  0  0  0
   -0.6890   23.6290  -28.3900 C   0  0  0  0  0  0  0  0  0  0  0  0
   -0.4570   22.8400  -27.2550 C   0  0  0  0  0  0  0  0  0  0  0  0
   -0.7540   23.3300  -25.9800 C   0  0  0  0  0  0  0  0  0  0  0  0
   -1.3020   24.6050  -25.8320 C   0  0  0  0  0  0  0  0  0  0  0  0
   -1.5690   25.3870  -26.9590 C   0  0  0  0  0  0  0  0  0  0  0  0
   -1.2800   24.9010  -28.2380 C   0  0  0  0  0  0  0  0  0  0  0  0
   -1.6170   25.6710  -29.3460 O   0  0  0  0  0  0  0  0  0  0  0  0
   -1.1960   21.2990  -31.2670 C   0  0  0  0  0  0  0  0  0  0  0  0
   -0.6710   20.2610  -32.0630 C   0  0  0  0  0  0  0  0  0  0  0  0
   -1.3530   19.8190  -33.1990 C   0  0  0  0  0  0  0  0  0  0  0  0
   -2.5630   20.4060  -33.5620 C   0  0  0  0  0  0  0  0  0  0  0  0
   -3.0940   21.4440  -32.7950 C   0  0  0  0  0  0  0  0  0  0  0  0
   -2.4260   21.8980  -31.6450 C   0  0  0  0  0  0  0  0  0  0  0  0
   -2.9510   23.0270  -30.9260 N   0  0  0  0  0  0  0  0  0  0  0  0
   -4.3590   23.3070  -30.7980 C   0  0  0  0  0  0  0  0  0  0  0  0
   -5.2980   22.2620  -30.7000 C   0  0  0  0  0  0  0  0  0  0  0  0
   -6.6590   22.5460  -30.5540 C   0  0  0  0  0  0  0  0  0  0  0  0
   -7.0950   23.8710  -30.4940 C   0  0  0  0  0  0  0  0  0  0  0  0
   -6.1720   24.9160  -30.5750 C   0  0  0  0  0  0  0  0  0  0  0  0
   -4.8070   24.6390  -30.7230 C   0  0  0  0  0  0  0  0  0  0  0  0
   -3.9050   25.6940  -30.8030 O   0  0  0  0  0  0  0  0  0  0  0  0
   -0.0386   21.8290  -27.3683 H   0  0  0  0  0  0  0  0  0  0  0  0
   -0.5557   22.7104  -25.0930 H   0  0  0  0  0  0  0  0  0  0  0  0
   -1.5239   24.9946  -24.8275 H   0  0  0  0  0  0  0  0  0  0  0  0
   -2.0081   26.3885  -26.8396 H   0  0  0  0  0  0  0  0  0  0  0  0
    0.2859   19.7941  -31.7867 H   0  0  0  0  0  0  0  0  0  0  0  0
   -0.9335   19.0052  -33.8086 H   0  0  0  0  0  0  0  0  0  0  0  0
   -3.1003   20.0511  -34.4538 H   0  0  0  0  0  0  0  0  0  0  0  0
   -4.0442   21.9111  -33.0934 H   0  0  0  0  0  0  0  0  0  0  0  0
   -2.2670   23.7020  -30.5160 H   0  0  0  0  0  0  0  0  0  0  0  0
   -4.9586   21.2164  -30.7386 H   0  0  0  0  0  0  0  0  0  0  0  0
   -7.3874   21.7245  -30.4863 H   0  0  0  0  0  0  0  0  0  0  0  0
   -8.1668   24.0921  -30.3828 H   0  0  0  0  0  0  0  0  0  0  0  0
   -6.5178   25.9589  -30.5225 H   0  0  0  0  0  0  0  0  0  0  0  0
  1  2  2  0
  2  3  1  0
  3  4  1  0
  4  5  2  0
  5  6  1  0
  6  7  2  0
  7  8  1  0
  8  9  2  0
  9 10  1  0
  2 11  1  0
 11 12  2  0
 12 13  1  0
 13 14  2  0
 14 15  1  0
 15 16  2  0
 16 17  1  0
 17 18  1  0
 18 19  2  0
 19 20  1  0
 20 21  2  0
 21 22  1  0
 22 23  2  0
 23 24  1  0
  9  4  1  0
 16 11  1  0
 23 18  1  0
  5 25  1  0
  6 26  1  0
  7 27  1  0
  8 28  1  0
 12 29  1  0
 13 30  1  0
 14 31  1  0
 15 32  1  0
 17 33  1  0
 19 34  1  0
 20 35  1  0
 21 36  1  0
 22 37  1  0
M  CHG  3   3  -1  10  -1  24  -1
M  END
>  <UniqueID>  (1) 
1

>  <SMILES>  (1) 
O=C([N-]c1ccccc1[O-])c1ccccc1Nc1ccccc1[O-]

>  <Energy>  (1) 
55.984274019848904

>  <Genealogy>  (1) 
O=C([N-]c1ccccc1[O-])c1ccccc1Nc1ccccc1[O-] (protonated)
O=C([N-]c1ccccc1[O-])c1ccccc1Nc1ccccc1[O-] (3D coordinates assigned)
O=C([N-]c1ccccc1[O-])c1ccccc1Nc1ccccc1[O-] (optimized conformer: 55.984274019848904 kcal/mol)

>  <smiles>  (1) 
O=C(Nc1ccccc1O)c1ccccc1Nc1ccccc1O

>  <score_type>  (1) 
oracle

>  <origin>  (1) 
adgpu

>  <m_score__min__energy>  (1) 
-13.66

>  <m_primary>  (1) 
energy

$$$$
1:0
     RDKit          3D

 60 63  0  0  0  0  0  0  0  0999 V2000
   -3.7120   24.6470  -27.5240 N   0  0  0  0  0  0  0  0  0  0  0  0
   -3.0990   23.6150  -28.3080 C   0  0  0  0  0  0  0  0  0  0  0  0
   -2.6150   22.4660  -27.6680 C   0  0  0  0  0  0  0  0  0  0  0  0
   -1.9760   21.4630  -28.3990 C   0  0  0  0  0  0  0  0  0  0  0  0
   -1.7950   21.6050  -29.7790 C   0  0  0  0  0  0  0  0  0  0  0  0
   -1.0840   20.2870  -30.7070 S   0  0  0  0  0  0  0  0  0  0  0  0
    0.2530   20.7110  -31.2470 O   0  0  0  0  0  0  0  0  0  0  0  0
   -0.8700   19.1190  -29.7850 O   0  0  0  0  0  0  0  0  0  0  0  0
   -2.1550   19.8040  -32.0110 N   0  0  0  0  0  0  0  0  0  0  0  0
   -1.6790   18.5650  -32.6740 C   0  0  0  0  0  0  0  0  0  0  0  0
   -0.8770   18.8520  -33.9590 C   0  0  0  0  0  0  0  0  0  0  0  0
   -0.1970   20.0830  -33.8560 O   0  0  0  0  0  0  0  0  0  0  0  0
   -1.1200   21.1590  -33.8530 C   0  0  0  0  0  0  0  0  0  0  0  0
   -2.3720   20.8950  -32.9830 C   0  0  0  0  0  0  0  0  0  0  0  0
   -2.2630   22.7550  -30.4260 C   0  0  0  0  0  0  0  0  0  0  0  0
   -2.9440   23.7460  -29.7080 C   0  0  0  0  0  0  0  0  0  0  0  0
   -3.5130   24.8440  -30.4330 N   0  0  0  0  0  0  0  0  0  0  0  0
   -4.9070   24.9740  -30.7450 C   0  0  0  0  0  0  0  0  0  0  0  0
   -5.4240   26.1230  -30.7460 O   0  0  0  0  0  0  0  0  0  0  0  0
   -5.7480   23.7990  -31.0680 C   0  0  0  0  0  0  0  0  0  0  0  0
   -5.4580   22.5350  -30.5250 C   0  0  0  0  0  0  0  0  0  0  0  0
   -6.2660   21.4350  -30.8240 C   0  0  0  0  0  0  0  0  0  0  0  0
   -7.3640   21.5790  -31.6800 C   0  0  0  0  0  0  0  0  0  0  0  0
   -8.3770   20.1950  -32.0810 S   0  0  0  0  0  0  0  0  0  0  0  0
   -8.6800   19.4090  -30.8340 O   0  0  0  0  0  0  0  0  0  0  0  0
   -9.6730   20.7010  -32.6520 O   0  0  0  0  0  0  0  0  0  0  0  0
   -7.5480   19.1960  -33.2570 N   0  0  0  0  0  0  0  0  0  0  0  0
   -6.3590   19.8760  -33.8200 C   0  0  0  0  0  0  0  0  0  0  0  0
   -5.0440   19.4250  -33.1560 C   0  0  0  0  0  0  0  0  0  0  0  0
   -5.2660   19.0950  -31.8030 O   0  0  0  0  0  0  0  0  0  0  0  0
   -6.0450   17.9150  -31.7090 C   0  0  0  0  0  0  0  0  0  0  0  0
   -7.2240   17.8670  -32.7110 C   0  0  0  0  0  0  0  0  0  0  0  0
   -7.6400   22.8290  -32.2480 C   0  0  0  0  0  0  0  0  0  0  0  0
   -6.8360   23.9320  -31.9460 C   0  0  0  0  0  0  0  0  0  0  0  0
   -4.3780   25.3210  -27.9630 H   0  0  0  0  0  0  0  0  0  0  0  0
   -3.5730   24.7090  -26.4920 H   0  0  0  0  0  0  0  0  0  0  0  0
   -2.7396   22.3536  -26.5809 H   0  0  0  0  0  0  0  0  0  0  0  0
   -1.6138   20.5584  -27.8886 H   0  0  0  0  0  0  0  0  0  0  0  0
   -3.0790   19.5960  -31.5630 H   0  0  0  0  0  0  0  0  0  0  0  0
   -1.0351   18.0147  -31.9721 H   0  0  0  0  0  0  0  0  0  0  0  0
   -2.5644   17.9772  -32.9577 H   0  0  0  0  0  0  0  0  0  0  0  0
   -0.1444   18.0465  -34.1152 H   0  0  0  0  0  0  0  0  0  0  0  0
   -1.5745   18.9025  -34.8081 H   0  0  0  0  0  0  0  0  0  0  0  0
   -0.6102   22.0541  -33.4671 H   0  0  0  0  0  0  0  0  0  0  0  0
   -1.4671   21.2907  -34.8884 H   0  0  0  0  0  0  0  0  0  0  0  0
   -2.6222   21.8146  -32.4336 H   0  0  0  0  0  0  0  0  0  0  0  0
   -3.1913   20.5936  -33.6522 H   0  0  0  0  0  0  0  0  0  0  0  0
   -2.0947   22.8810  -31.5057 H   0  0  0  0  0  0  0  0  0  0  0  0
   -4.5899   22.4113  -29.8609 H   0  0  0  0  0  0  0  0  0  0  0  0
   -6.0384   20.4524  -30.3851 H   0  0  0  0  0  0  0  0  0  0  0  0
   -6.3037   19.6541  -34.8960 H   0  0  0  0  0  0  0  0  0  0  0  0
   -6.4731   20.9537  -33.6313 H   0  0  0  0  0  0  0  0  0  0  0  0
   -4.6543   18.5429  -33.6853 H   0  0  0  0  0  0  0  0  0  0  0  0
   -4.3164   20.2483  -33.2084 H   0  0  0  0  0  0  0  0  0  0  0  0
   -5.3914   17.0511  -31.9000 H   0  0  0  0  0  0  0  0  0  0  0  0
   -6.4802   17.8964  -30.6989 H   0  0  0  0  0  0  0  0  0  0  0  0
   -6.9546   17.1990  -33.5424 H   0  0  0  0  0  0  0  0  0  0  0  0
   -8.1095   17.4999  -32.1714 H   0  0  0  0  0  0  0  0  0  0  0  0
   -8.4922   22.9433  -32.9340 H   0  0  0  0  0  0  0  0  0  0  0  0
   -7.0568   24.9099  -32.3987 H   0  0  0  0  0  0  0  0  0  0  0  0
  1  2  1  0
  2  3  2  0
  3  4  1  0
  4  5  2  0
  5  6  1  0
  6  7  2  0
  6  8  2  0
  6  9  1  0
  9 10  1  0
 10 11  1  0
 11 12  1  0
 12 13  1  0
 13 14  1  0
  5 15  1  0
 15 16  2  0
 16 17  1  0
 17 18  1  0
 18 19  2  0
 18 20  1  0
 20 21  2  0
 21 22  1  0
 22 23  2  0
 23 24  1  0
 24 25  2  0
 24 26  2  0
 24 27  1  0
 27 28  1  0
 28 29  1  0
 29 30  1  0
 30 31  1  0
 31 32  1  0
 23 33  1  0
 33 34  2  0
 16  2  1  0
 34 20  1  0
 14  9  1  0
 32 27  1  0
  1 35  1  0
  1 36  1  0
  3 37  1  0
  4 38  1  0
  9 39  1  0
 10 40  1  0
 10 41  1  0
 11 42  1  0
 11 43  1  0
 13 44  1  0
 13 45  1  0
 14 46  1  0
 14 47  1  0
 15 48  1  0
 21 49  1  0
 22 50  1  0
 28 51  1  0
 28 52  1  0
 29 53  1  0
 29 54  1  0
 31 55  1  0
 31 56  1  0
 32 57  1  0
 32 58  1  0
 33 59  1  0
 34 60  1  0
M  CHG  2   9   1  17  -1
M  END
>  <UniqueID>  (2) 
2

>  <SMILES>  (2) 
Nc1ccc(S(=O)(=O)[NH+]2CCOCC2)cc1[N-]C(=O)c1ccc(S(=O)(=O)N2CCOCC2)cc1

>  <Energy>  (2) 
91.68589688153557

>  <Genealogy>  (2) 
Nc1ccc(S(=O)(=O)[NH+]2CCOCC2)cc1[N-]C(=O)c1ccc(S(=O)(=O)N2CCOCC2)cc1 (protonated)
Nc1ccc(S(=O)(=O)[NH+]2CCOCC2)cc1[N-]C(=O)c1ccc(S(=O)(=O)N2CCOCC2)cc1 (3D coordinates assigned)
Nc1ccc(S(=O)(=O)[NH+]2CCOCC2)cc1[N-]C(=O)c1ccc(S(=O)(=O)N2CCOCC2)cc1 (nonaromatic ring conformer: 91.68589688153557 kcal/mol)

>  <smiles>  (2) 
Nc1ccc(S(=O)(=O)N2CCOCC2)cc1NC(=O)c1ccc(S(=O)(=O)N2CCOCC2)cc1

>  <score_type>  (2) 
oracle

>  <origin>  (2) 
adgpu

>  <m_score__min__energy>  (2) 
-11.16

>  <m_primary>  (2) 
energy

$$$$
2:0
     RDKit          3D

 34 35  0  0  0  0  0  0  0  0999 V2000
   -1.6940   24.8170  -26.2610 C   0  0  0  0  0  0  0  0  0  0  0  0
   -1.7990   23.6060  -27.1840 C   0  0  0  0  0  0  0  0  0  0  0  0
   -2.8260   23.8440  -28.2710 C   0  0  0  0  0  0  0  0  0  0  0  0
   -2.6350   24.8150  -29.2820 C   0  0  0  0  0  0  0  0  0  0  0  0
   -1.4980   25.6230  -29.3420 O   0  0  0  0  0  0  0  0  0  0  0  0
   -3.5810   24.9730  -30.2450 N   0  0  0  0  0  0  0  0  0  0  0  0
   -4.6990   24.2090  -30.2740 C   0  0  0  0  0  0  0  0  0  0  0  0
   -5.8920   24.4260  -31.5910 S   0  0  0  0  0  0  0  0  0  0  0  0
   -5.6750   22.7420  -32.2710 C   0  0  0  0  0  0  0  0  0  0  0  0
   -6.9520   21.9490  -32.1760 C   0  0  0  0  0  0  0  0  0  0  0  0
   -8.1770   22.5990  -31.9610 C   0  0  0  0  0  0  0  0  0  0  0  0
   -9.3500   21.8570  -31.8130 C   0  0  0  0  0  0  0  0  0  0  0  0
   -9.3130   20.4630  -31.8910 C   0  0  0  0  0  0  0  0  0  0  0  0
   -8.0990   19.7950  -32.1320 C   0  0  0  0  0  0  0  0  0  0  0  0
   -8.0490   18.2880  -32.1600 C   0  0  0  0  0  0  0  0  0  0  0  0
   -7.6170   17.8340  -33.3940 F   0  0  0  0  0  0  0  0  0  0  0  0
   -7.1780   17.8110  -31.1950 F   0  0  0  0  0  0  0  0  0  0  0  0
   -9.3140   17.7860  -31.9120 F   0  0  0  0  0  0  0  0  0  0  0  0
   -6.9170   20.5470  -32.2490 C   0  0  0  0  0  0  0  0  0  0  0  0
   -4.8980   23.2600  -29.3280 N   0  0  0  0  0  0  0  0  0  0  0  0
   -3.9930   23.0560  -28.3360 C   0  0  0  0  0  0  0  0  0  0  0  0
   -4.2120   22.1550  -27.4840 O   0  0  0  0  0  0  0  0  0  0  0  0
   -1.7230   24.4831  -25.2133 H   0  0  0  0  0  0  0  0  0  0  0  0
   -0.7469   25.3428  -26.4522 H   0  0  0  0  0  0  0  0  0  0  0  0
   -2.5365   25.4979  -26.4522 H   0  0  0  0  0  0  0  0  0  0  0  0
   -0.8192   23.4208  -27.6483 H   0  0  0  0  0  0  0  0  0  0  0  0
   -2.1120   22.7357  -26.5885 H   0  0  0  0  0  0  0  0  0  0  0  0
   -0.6420   25.3520  -29.8070 H   0  0  0  0  0  0  0  0  0  0  0  0
   -5.3766   22.8169  -33.3271 H   0  0  0  0  0  0  0  0  0  0  0  0
   -4.8997   22.2264  -31.6853 H   0  0  0  0  0  0  0  0  0  0  0  0
   -8.2130   23.6972  -31.9089 H   0  0  0  0  0  0  0  0  0  0  0  0
  -10.3058   22.3714  -31.6345 H   0  0  0  0  0  0  0  0  0  0  0  0
  -10.2394   19.8838  -31.7631 H   0  0  0  0  0  0  0  0  0  0  0  0
   -5.9563   20.0327  -32.3990 H   0  0  0  0  0  0  0  0  0  0  0  0
  1  2  1  0
  2  3  1  0
  3  4  2  0
  4  5  1  0
  4  6  1  0
  6  7  1  0
  7  8  1  0
  8  9  1  0
  9 10  1  0
 10 11  2  0
 11 12  1  0
 12 13  2  0
 13 14  1  0
 14 15  1  0
 15 16  1  0
 15 17  1  0
 15 18  1  0
 14 19  2  0
  7 20  2  0
 20 21  1  0
 21 22  2  0
 21  3  1  0
 19 10  1  0
  1 23  1  0
  1 24  1  0
  1 25  1  0
  2 26  1  0
  2 27  1  0
  5 28  1  0
  9 29  1  0
  9 30  1  0
 11 31  1  0
 12 32  1  0
 13 33  1  0
 19 34  1  0
M  CHG  1   6  -1
M  END
>  <UniqueID>  (3) 
3

>  <SMILES>  (3) 
CCc1c(O)[n-]c(SCc2cccc(C(F)(F)F)c2)nc1=O

>  <Energy>  (3) 
30.20106145904947

>  <Genealogy>  (3) 
CCc1c(O)[n-]c(SCc2cccc(C(F)(F)F)c2)nc1=O (protonated)
CCc1c(O)[n-]c(SCc2cccc(C(F)(F)F)c2)nc1=O (3D coordinates assigned)
CCc1c(O)[n-]c(SCc2cccc(C(F)(F)F)c2)nc1=O (optimized conformer: 30.20106145904947 kcal/mol)

>  <smiles>  (3) 
CCc1c(O)[nH]c(SCc2cccc(C(F)(F)F)c2)nc1=O

>  <score_type>  (3) 
oracle

>  <origin>  (3) 
adgpu

>  <m_score__min__energy>  (3) 
-9.1400000000000006

>  <m_primary>  (3) 
energy

$$$$
3:0
     RDKit          3D

 46 48  0  0  0  0  0  0  0  0999 V2000
   -4.2120   22.2260  -32.7540 C   0  0  0  0  0  0  0  0  0  0  0  0
   -3.3670   22.2860  -31.5250 C   0  0  0  0  0  0  0  0  0  0  0  0
   -2.8280   21.2000  -30.9320 N   0  0  0  0  0  0  0  0  0  0  0  0
   -2.2750   21.5950  -29.7950 N   0  0  0  0  0  0  0  0  0  0  0  0
   -1.7060   20.6760  -28.8170 C   0  0  0  0  0  0  0  0  0  0  0  0
   -2.4740   22.9200  -29.6220 C   0  0  0  0  0  0  0  0  0  0  0  0
   -2.1510   23.6820  -28.3730 C   0  0  0  0  0  0  0  0  0  0  0  0
   -3.1620   23.3900  -30.7210 C   0  0  0  0  0  0  0  0  0  0  0  0
   -3.8250   24.6480  -30.8250 N   0  0  0  0  0  0  0  0  0  0  0  0
   -5.3060   24.9330  -29.9750 S   0  0  0  0  0  0  0  0  0  0  0  0
   -5.0880   24.6800  -28.5100 O   0  0  0  0  0  0  0  0  0  0  0  0
   -5.7370   26.3600  -30.1630 O   0  0  0  0  0  0  0  0  0  0  0  0
   -6.5480   23.8420  -30.5850 C   0  0  0  0  0  0  0  0  0  0  0  0
   -6.8390   23.8130  -31.9550 C   0  0  0  0  0  0  0  0  0  0  0  0
   -7.7570   22.8890  -32.4610 C   0  0  0  0  0  0  0  0  0  0  0  0
   -8.4000   21.9820  -31.5980 C   0  0  0  0  0  0  0  0  0  0  0  0
   -9.3230   21.0260  -32.0530 O   0  0  0  0  0  0  0  0  0  0  0  0
   -9.1350   19.6120  -32.0100 C   0  0  0  0  0  0  0  0  0  0  0  0
   -7.7240   19.2460  -32.3900 C   0  0  0  0  0  0  0  0  0  0  0  0
   -7.0990   19.8550  -33.4910 C   0  0  0  0  0  0  0  0  0  0  0  0
   -5.8020   19.4840  -33.8590 C   0  0  0  0  0  0  0  0  0  0  0  0
   -5.1240   18.4980  -33.1360 C   0  0  0  0  0  0  0  0  0  0  0  0
   -5.7390   17.8840  -32.0430 C   0  0  0  0  0  0  0  0  0  0  0  0
   -7.0370   18.2530  -31.6710 C   0  0  0  0  0  0  0  0  0  0  0  0
   -8.1160   22.0260  -30.2280 C   0  0  0  0  0  0  0  0  0  0  0  0
   -7.1910   22.9440  -29.7230 C   0  0  0  0  0  0  0  0  0  0  0  0
   -5.2713   22.1508  -32.4673 H   0  0  0  0  0  0  0  0  0  0  0  0
   -4.0573   23.1374  -33.3502 H   0  0  0  0  0  0  0  0  0  0  0  0
   -3.9301   21.3456  -33.3502 H   0  0  0  0  0  0  0  0  0  0  0  0
   -1.9292   21.0364  -27.8020 H   0  0  0  0  0  0  0  0  0  0  0  0
   -2.1434   19.6762  -28.9555 H   0  0  0  0  0  0  0  0  0  0  0  0
   -0.6161   20.6218  -28.9555 H   0  0  0  0  0  0  0  0  0  0  0  0
   -2.4094   23.0725  -27.4945 H   0  0  0  0  0  0  0  0  0  0  0  0
   -1.0763   23.9159  -28.3538 H   0  0  0  0  0  0  0  0  0  0  0  0
   -2.7302   24.6170  -28.3538 H   0  0  0  0  0  0  0  0  0  0  0  0
   -6.3427   24.5207  -32.6354 H   0  0  0  0  0  0  0  0  0  0  0  0
   -7.9781   22.8704  -33.5384 H   0  0  0  0  0  0  0  0  0  0  0  0
   -9.3383   19.2524  -30.9905 H   0  0  0  0  0  0  0  0  0  0  0  0
   -9.8251   19.1435  -32.7272 H   0  0  0  0  0  0  0  0  0  0  0  0
   -7.6320   20.6267  -34.0658 H   0  0  0  0  0  0  0  0  0  0  0  0
   -5.3147   19.9683  -34.7181 H   0  0  0  0  0  0  0  0  0  0  0  0
   -4.1048   18.2055  -33.4285 H   0  0  0  0  0  0  0  0  0  0  0  0
   -5.2032   17.1100  -31.4740 H   0  0  0  0  0  0  0  0  0  0  0  0
   -7.5210   17.7640  -30.8128 H   0  0  0  0  0  0  0  0  0  0  0  0
   -8.6252   21.3321  -29.5430 H   0  0  0  0  0  0  0  0  0  0  0  0
   -6.9673   22.9615  -28.6461 H   0  0  0  0  0  0  0  0  0  0  0  0
  1  2  1  0
  2  3  2  0
  3  4  1  0
  4  5  1  0
  4  6  1  0
  6  7  1  0
  6  8  2  0
  8  9  1  0
  9 10  1  0
 10 11  2  0
 10 12  2  0
 10 13  1  0
 13 14  2  0
 14 15  1  0
 15 16  2  0
 16 17  1  0
 17 18  1  0
 18 19  1  0
 19 20  2  0
 20 21  1  0
 21 22  2  0
 22 23  1  0
 23 24  2  0
 16 25  1  0
 25 26  2  0
  8  2  1  0
 26 13  1  0
 24 19  1  0
  1 27  1  0
  1 28  1  0
  1 29  1  0
  5 30  1  0
  5 31  1  0
  5 32  1  0
  7 33  1  0
  7 34  1  0
  7 35  1  0
 14 36  1  0
 15 37  1  0
 18 38  1  0
 18 39  1  0
 20 40  1  0
 21 41  1  0
 22 42  1  0
 23 43  1  0
 24 44  1  0
 25 45  1  0
 26 46  1  0
M  CHG  1   9  -1
M  END
>  <UniqueID>  (4) 
4

>  <SMILES>  (4) 
Cc1nn(C)c(C)c1[N-]S(=O)(=O)c1ccc(OCc2ccccc2)cc1

>  <Energy>  (4) 
82.1483374942488

>  <Genealogy>  (4) 
Cc1nn(C)c(C)c1[N-]S(=O)(=O)c1ccc(OCc2ccccc2)cc1 (protonated)
Cc1nn(C)c(C)c1[N-]S(=O)(=O)c1ccc(OCc2ccccc2)cc1 (3D coordinates assigned)
Cc1nn(C)c(C)c1[N-]S(=O)(=O)c1ccc(OCc2ccccc2)cc1 (optimized conformer: 82.1483374942488 kcal/mol)

>  <smiles>  (4) 
Cc1nn(C)c(C)c1NS(=O)(=O)c1ccc(OCc2ccccc2)cc1

>  <score_type>  (4) 
oracle

>  <origin>  (4) 
adgpu

>  <m_score__min__energy>  (4) 
-10.210000000000001

>  <m_primary>  (4) 
energy

$$$$
4:0
     RDKit          3D

 47 51  0  0  0  0  0  0  0  0999 V2000
    3.4260   13.2750  -37.1890 C   0  0  0  0  0  0  0  0  0  0  0  0
    3.1200   14.4340  -36.3580 N   0  0  0  0  0  0  0  0  0  0  0  0
    2.2450   15.5040  -36.7380 C   0  0  0  0  0  0  0  0  0  0  0  0
    2.7500   16.5750  -37.1660 O   0  0  0  0  0  0  0  0  0  0  0  0
    0.7780   15.4070  -36.6060 C   0  0  0  0  0  0  0  0  0  0  0  0
    0.0250   14.5760  -37.4780 C   0  0  0  0  0  0  0  0  0  0  0  0
   -1.3750   14.4980  -37.3610 C   0  0  0  0  0  0  0  0  0  0  0  0
   -1.9860   15.2690  -36.3780 C   0  0  0  0  0  0  0  0  0  0  0  0
   -3.2940   15.3540  -36.0940 N   0  0  0  0  0  0  0  0  0  0  0  0
   -3.3250   16.2480  -35.0690 C   0  0  0  0  0  0  0  0  0  0  0  0
   -4.5780   16.6770  -34.3930 C   0  0  0  0  0  0  0  0  0  0  0  0
   -5.6390   15.7610  -34.2720 C   0  0  0  0  0  0  0  0  0  0  0  0
   -6.8250   16.1270  -33.6370 C   0  0  0  0  0  0  0  0  0  0  0  0
   -6.9780   17.4110  -33.1200 C   0  0  0  0  0  0  0  0  0  0  0  0
   -5.9440   18.3530  -33.2350 C   0  0  0  0  0  0  0  0  0  0  0  0
   -6.1400   19.7170  -32.6890 C   0  0  0  0  0  0  0  0  0  0  0  0
   -7.3780   20.3220  -32.4650 C   0  0  0  0  0  0  0  0  0  0  0  0
   -7.0820   21.5780  -31.9870 C   0  0  0  0  0  0  0  0  0  0  0  0
   -7.9190   22.6180  -31.5980 C   0  0  0  0  0  0  0  0  0  0  0  0
   -7.3230   23.8120  -31.1540 C   0  0  0  0  0  0  0  0  0  0  0  0
   -5.9090   23.9480  -31.1080 C   0  0  0  0  0  0  0  0  0  0  0  0
   -5.2920   25.2120  -30.6410 C   0  0  0  0  0  0  0  0  0  0  0  0
   -3.8780   25.3180  -30.4960 N   0  0  0  0  0  0  0  0  0  0  0  0
   -6.0150   26.2070  -30.3670 O   0  0  0  0  0  0  0  0  0  0  0  0
   -5.0940   22.8630  -31.5150 C   0  0  0  0  0  0  0  0  0  0  0  0
   -5.7190   21.6940  -31.9450 C   0  0  0  0  0  0  0  0  0  0  0  0
   -5.1300   20.5660  -32.3730 N   0  0  0  0  0  0  0  0  0  0  0  0
   -4.7320   17.9790  -33.8590 C   0  0  0  0  0  0  0  0  0  0  0  0
   -3.6800   18.8880  -33.9180 O   0  0  0  0  0  0  0  0  0  0  0  0
   -2.0990   16.7180  -34.7090 N   0  0  0  0  0  0  0  0  0  0  0  0
   -1.2750   16.0810  -35.5530 C   0  0  0  0  0  0  0  0  0  0  0  0
    0.1100   16.1880  -35.6360 C   0  0  0  0  0  0  0  0  0  0  0  0
    3.6538   12.4124  -36.5456 H   0  0  0  0  0  0  0  0  0  0  0  0
    2.5591   13.0400  -37.8241 H   0  0  0  0  0  0  0  0  0  0  0  0
    4.2959   13.4986  -37.8241 H   0  0  0  0  0  0  0  0  0  0  0  0
    0.5410   13.9883  -38.2515 H   0  0  0  0  0  0  0  0  0  0  0  0
   -1.9660   13.8494  -38.0244 H   0  0  0  0  0  0  0  0  0  0  0  0
   -5.5318   14.7461  -34.6824 H   0  0  0  0  0  0  0  0  0  0  0  0
   -7.6437   15.3982  -33.5439 H   0  0  0  0  0  0  0  0  0  0  0  0
   -7.9163   17.6890  -32.6177 H   0  0  0  0  0  0  0  0  0  0  0  0
   -8.3747   19.8884  -32.6341 H   0  0  0  0  0  0  0  0  0  0  0  0
   -9.0130   22.5102  -31.6363 H   0  0  0  0  0  0  0  0  0  0  0  0
   -7.9596   24.6516  -30.8382 H   0  0  0  0  0  0  0  0  0  0  0  0
   -3.4540   25.6760  -29.6100 H   0  0  0  0  0  0  0  0  0  0  0  0
   -3.9970   22.9412  -31.4922 H   0  0  0  0  0  0  0  0  0  0  0  0
   -4.1030   20.4020  -32.4770 H   0  0  0  0  0  0  0  0  0  0  0  0
    0.6677   16.8599  -34.9671 H   0  0  0  0  0  0  0  0  0  0  0  0
  1  2  1  0
  2  3  1  0
  3  4  2  0
  3  5  1  0
  5  6  2  0
  6  7  1  0
  7  8  2  0
  8  9  1  0
  9 10  1  0
 10 11  1  0
 11 12  2  0
 12 13  1  0
 13 14  2  0
 14 15  1  0
 15 16  1  0
 16 17  2  0
 17 18  1  0
 18 19  2  0
 19 20  1  0
 20 21  2  0
 21 22  1  0
 22 23  1  0
 22 24  2  0
 21 25  1  0
 25 26  2  0
 26 27  1  0
 15 28  2  0
 28 29  1  0
 10 30  2  0
 30 31  1  0
 31 32  2  0
 32  5  1  0
 31  8  1  0
 28 11  1  0
 27 16  1  0
 26 18  1  0
  1 33  1  0
  1 34  1  0
  1 35  1  0
  6 36  1  0
  7 37  1  0
 12 38  1  0
 13 39  1  0
 14 40  1  0
 17 41  1  0
 19 42  1  0
 20 43  1  0
 23 44  1  0
 25 45  1  0
 27 46  1  0
 32 47  1  0
M  CHG  4   2  -1   9  -1  23  -1  29  -1
M  END
>  <UniqueID>  (5) 
5

>  <SMILES>  (5) 
C[N-]C(=O)c1ccc2[n-]c(-c3cccc(-c4cc5ccc(C([NH-])=O)cc5[nH]4)c3[O-])nc2c1

>  <Energy>  (5) 
132.00352504432178

>  <Genealogy>  (5) 
C[N-]C(=O)c1ccc2[n-]c(-c3cccc(-c4cc5ccc(C([NH-])=O)cc5[nH]4)c3[O-])nc2c1 (protonated)
C[N-]C(=O)c1ccc2[n-]c(-c3cccc(-c4cc5ccc(C([NH-])=O)cc5[nH]4)c3[O-])nc2c1 (3D coordinates assigned)
C[N-]C(=O)c1ccc2[n-]c(-c3cccc(-c4cc5ccc(C([NH-])=O)cc5[nH]4)c3[O-])nc2c1 (optimized conformer: 132.00352504432178 kcal/mol)

>  <smiles>  (5) 
CNC(=O)c1ccc2[nH]c(-c3cccc(-c4cc5ccc(C(N)=O)cc5[nH]4)c3O)nc2c1

>  <score_type>  (5) 
oracle

>  <origin>  (5) 
adgpu

>  <m_score__min__energy>  (5) 
-10.529999999999999

>  <m_primary>  (5) 
energy

$$$$
5:0
     RDKit          3D

 50 52  0  0  1  0  0  0  0  0999 V2000
   -2.8650   15.5990  -33.1200 O   0  0  0  0  0  0  0  0  0  0  0  0
   -3.3510   16.7910  -33.8610 S   0  0  0  0  0  0  0  0  0  0  0  0
   -3.5250   16.4860  -35.3420 O   0  0  0  0  0  0  0  0  0  0  0  0
   -2.1600   18.0340  -33.7680 N   0  0  0  0  0  0  0  0  0  0  0  0
   -2.6920   19.3290  -34.1480 C   0  0  0  0  0  0  0  0  0  0  0  0
   -2.6200   20.1840  -32.9120 C   0  0  0  0  0  0  0  0  0  0  0  0
   -1.4260   20.6980  -32.4510 C   0  0  0  0  0  0  0  0  0  0  0  0
   -1.4870   21.4730  -31.2990 C   0  0  0  0  0  0  0  0  0  0  0  0
   -2.6970   21.7130  -30.6510 C   0  0  0  0  0  0  0  0  0  0  0  0
   -3.8810   21.1820  -31.1420 C   0  0  0  0  0  0  0  0  0  0  0  0
   -3.8250   20.4150  -32.2790 C   0  0  0  0  0  0  0  0  0  0  0  0
   -4.8780   17.3720  -33.2710 C   0  0  0  0  0  0  0  0  0  0  0  0
   -5.3400   16.9700  -32.0310 C   0  0  0  0  0  0  0  0  0  0  0  0
   -6.5420   17.3970  -31.5120 C   0  0  0  0  0  0  0  0  0  0  0  0
   -7.3510   18.2630  -32.2260 C   0  0  0  0  0  0  0  0  0  0  0  0
   -8.6010   18.7350  -31.7360 N   0  0  0  0  0  0  0  0  0  0  0  0
   -9.1420   20.0340  -32.1320 C   0  0  0  0  0  0  0  0  0  0  0  0
   -8.2590   21.1490  -31.7590 C   0  0  0  0  0  0  0  0  0  0  0  0
   -7.3080   21.7040  -32.5900 C   0  0  0  0  0  0  0  0  0  0  0  0
   -6.5070   22.7620  -32.1620 C   0  0  0  0  0  0  0  0  0  0  0  0
   -6.6510   23.2790  -30.8890 C   0  0  0  0  0  0  0  0  0  0  0  0
   -5.8120   24.3860  -30.4440 C   0  0  0  0  0  0  0  0  0  0  0  0
   -6.3110   25.2780  -29.5040 O   0  0  0  0  0  0  0  0  0  0  0  0
   -4.6250   24.5080  -30.9360 N   0  0  0  0  0  0  0  0  0  0  0  0
   -3.8870   25.5720  -30.4750 O   0  0  0  0  0  0  0  0  0  0  0  0
   -7.5990   22.7300  -30.0500 C   0  0  0  0  0  0  0  0  0  0  0  0
   -8.3890   21.6830  -30.4790 C   0  0  0  0  0  0  0  0  0  0  0  0
   -6.8860   18.6610  -33.4620 C   0  0  0  0  0  0  0  0  0  0  0  0
   -5.6860   18.2410  -33.9950 C   0  0  0  0  0  0  0  0  0  0  0  0
   -1.2810   17.8040  -34.2460 H   0  0  0  0  0  0  0  0  0  0  0  0
   -2.0866   19.7697  -34.9538 H   0  0  0  0  0  0  0  0  0  0  0  0
   -3.7229   19.2476  -34.5229 H   0  0  0  0  0  0  0  0  0  0  0  0
   -0.4747   20.5045  -32.9684 H   0  0  0  0  0  0  0  0  0  0  0  0
   -0.5617   21.9055  -30.8906 H   0  0  0  0  0  0  0  0  0  0  0  0
   -2.7137   22.3300  -29.7405 H   0  0  0  0  0  0  0  0  0  0  0  0
   -4.8383   21.3705  -30.6341 H   0  0  0  0  0  0  0  0  0  0  0  0
   -4.7484   19.9805  -32.6895 H   0  0  0  0  0  0  0  0  0  0  0  0
   -4.7226   16.2815  -31.4354 H   0  0  0  0  0  0  0  0  0  0  0  0
   -6.8621   17.0460  -30.5199 H   0  0  0  0  0  0  0  0  0  0  0  0
   -9.1390   18.1260  -31.0740 H   0  0  0  0  0  0  0  0  0  0  0  0
   -9.2780   20.0416  -33.2235 H   0  0  0  0  0  0  0  0  0  0  0  0
  -10.0972   20.1732  -31.6045 H   0  0  0  0  0  0  0  0  0  0  0  0
   -7.1795   21.3053  -33.6071 H   0  0  0  0  0  0  0  0  0  0  0  0
   -5.7552   23.1880  -32.8427 H   0  0  0  0  0  0  0  0  0  0  0  0
   -5.7080   26.0260  -29.1890 H   0  0  0  0  0  0  0  0  0  0  0  0
   -2.9440   25.6640  -30.8320 H   0  0  0  0  0  0  0  0  0  0  0  0
   -7.7258   23.1294  -29.0329 H   0  0  0  0  0  0  0  0  0  0  0  0
   -9.1389   21.2602  -29.7942 H   0  0  0  0  0  0  0  0  0  0  0  0
   -7.5058   19.3504  -34.0541 H   0  0  0  0  0  0  0  0  0  0  0  0
   -5.3695   18.5918  -34.9883 H   0  0  0  0  0  0  0  0  0  0  0  0
  1  2  2  0
  2  3  2  0
  2  4  1  0
  4  5  1  0
  5  6  1  0
  6  7  2  0
  7  8  1  0
  8  9  2  0
  9 10  1  0
 10 11  2  0
  2 12  1  0
 12 13  2  0
 13 14  1  0
 14 15  2  0
 15 16  1  0
 16 17  1  0
 17 18  1  0
 18 19  2  0
 19 20  1  0
 20 21  2  0
 21 22  1  0
 22 23  1  0
 22 24  2  0
 24 25  1  0
 21 26  1  0
 26 27  2  0
 15 28  1  0
 28 29  2  0
 11  6  1  0
 29 12  1  0
 27 18  1  0
  4 30  1  0
  5 31  1  0
  5 32  1  0
  7 33  1  0
  8 34  1  0
  9 35  1  0
 10 36  1  0
 11 37  1  0
 13 38  1  0
 14 39  1  0
 16 40  1  0
 17 41  1  0
 17 42  1  0
 19 43  1  0
 20 44  1  0
 23 45  1  0
 25 46  1  0
 26 47  1  0
 27 48  1  0
 28 49  1  0
 29 50  1  0
M  END
>  <smiles>  (6) 
O=S(=O)(NCc1ccccc1)c1ccc(NCc2ccc(C(O)=NO)cc2)cc1

>  <score_type>  (6) 
oracle

>  <origin>  (6) 
adgpu

>  <m_score__min__energy>  (6) 
-10.199999999999999

>  <m_primary>  (6) 
energy

$$$$
6:0
     RDKit          3D

 41 43  0  0  0  0  0  0  0  0999 V2000
   -5.1030   26.2100  -30.4850 O   0  0  0  0  0  0  0  0  0  0  0  0
   -4.6010   25.0540  -30.4900 C   0  0  0  0  0  0  0  0  0  0  0  0
   -3.1930   24.9160  -30.2550 N   0  0  0  0  0  0  0  0  0  0  0  0
   -2.5820   24.5510  -29.0080 C   0  0  0  0  0  0  0  0  0  0  0  0
   -3.0130   23.3870  -28.3560 C   0  0  0  0  0  0  0  0  0  0  0  0
   -3.9800   22.6130  -28.9100 F   0  0  0  0  0  0  0  0  0  0  0  0
   -2.4340   23.0040  -27.1410 C   0  0  0  0  0  0  0  0  0  0  0  0
   -1.4360   23.7890  -26.5620 C   0  0  0  0  0  0  0  0  0  0  0  0
   -1.0210   24.9660  -27.1890 C   0  0  0  0  0  0  0  0  0  0  0  0
   -1.5960   25.3560  -28.4030 C   0  0  0  0  0  0  0  0  0  0  0  0
   -1.2230   26.5360  -28.9570 F   0  0  0  0  0  0  0  0  0  0  0  0
   -5.4810   23.8790  -30.6900 C   0  0  0  0  0  0  0  0  0  0  0  0
   -6.7670   23.8370  -30.1220 C   0  0  0  0  0  0  0  0  0  0  0  0
   -7.5890   22.7240  -30.3160 C   0  0  0  0  0  0  0  0  0  0  0  0
   -7.1410   21.6460  -31.0820 C   0  0  0  0  0  0  0  0  0  0  0  0
   -5.8640   21.6750  -31.6590 C   0  0  0  0  0  0  0  0  0  0  0  0
   -5.2880   20.3040  -32.6090 S   0  0  0  0  0  0  0  0  0  0  0  0
   -4.1610   20.7570  -33.4960 O   0  0  0  0  0  0  0  0  0  0  0  0
   -4.7440   19.2610  -31.6730 O   0  0  0  0  0  0  0  0  0  0  0  0
   -6.5490   19.5910  -33.5950 N   0  0  0  0  0  0  0  0  0  0  0  0
   -6.0520   18.5020  -34.4640 C   0  0  0  0  0  0  0  0  0  0  0  0
   -6.3970   17.1030  -33.9270 C   0  0  0  0  0  0  0  0  0  0  0  0
   -6.4650   17.1200  -32.5200 O   0  0  0  0  0  0  0  0  0  0  0  0
   -7.6040   17.8490  -32.1070 C   0  0  0  0  0  0  0  0  0  0  0  0
   -7.7420   19.2210  -32.8090 C   0  0  0  0  0  0  0  0  0  0  0  0
   -5.0440   22.7970  -31.4730 C   0  0  0  0  0  0  0  0  0  0  0  0
   -2.7662   22.0821  -26.6412 H   0  0  0  0  0  0  0  0  0  0  0  0
   -0.9761   23.4807  -25.6115 H   0  0  0  0  0  0  0  0  0  0  0  0
   -0.2400   25.5878  -26.7270 H   0  0  0  0  0  0  0  0  0  0  0  0
   -7.1277   24.6852  -29.5216 H   0  0  0  0  0  0  0  0  0  0  0  0
   -8.5916   22.6969  -29.8642 H   0  0  0  0  0  0  0  0  0  0  0  0
   -7.7917   20.7720  -31.2330 H   0  0  0  0  0  0  0  0  0  0  0  0
   -6.5018   18.6159  -35.4613 H   0  0  0  0  0  0  0  0  0  0  0  0
   -4.9554   18.5813  -34.4980 H   0  0  0  0  0  0  0  0  0  0  0  0
   -7.3698   16.7886  -34.3331 H   0  0  0  0  0  0  0  0  0  0  0  0
   -5.6119   16.3979  -34.2378 H   0  0  0  0  0  0  0  0  0  0  0  0
   -8.5003   17.2515  -32.3297 H   0  0  0  0  0  0  0  0  0  0  0  0
   -7.4922   18.0444  -31.0303 H   0  0  0  0  0  0  0  0  0  0  0  0
   -8.6088   19.1828  -33.4851 H   0  0  0  0  0  0  0  0  0  0  0  0
   -7.8661   19.9808  -32.0233 H   0  0  0  0  0  0  0  0  0  0  0  0
   -4.0504   22.8306  -31.9439 H   0  0  0  0  0  0  0  0  0  0  0  0
  1  2  2  0
  2  3  1  0
  3  4  1  0
  4  5  2  0
  5  6  1  0
  5  7  1  0
  7  8  2  0
  8  9  1  0
  9 10  2  0
 10 11  1  0
  2 12  1  0
 12 13  2  0
 13 14  1  0
 14 15  2  0
 15 16  1  0
 16 17  1  0
 17 18  2  0
 17 19  2  0
 17 20  1  0
 20 21  1  0
 21 22  1  0
 22 23  1  0
 23 24  1  0
 24 25  1  0
 16 26  2  0
 10  4  1  0
 26 12  1  0
 25 20  1  0
  7 27  1  0
  8 28  1  0
  9 29  1  0
 13 30  1  0
 14 31  1  0
 15 32  1  0
 21 33  1  0
 21 34  1  0
 22 35  1  0
 22 36  1  0
 24 37  1  0
 24 38  1  0
 25 39  1  0
 25 40  1  0
 26 41  1  0
M  CHG  1   3  -1
M  END
>  <UniqueID>  (7) 
6

>  <SMILES>  (7) 
O=C([N-]c1c(F)cccc1F)c1cccc(S(=O)(=O)N2CCOCC2)c1

>  <Energy>  (7) 
60.679598002210604

>  <Genealogy>  (7) 
O=C([N-]c1c(F)cccc1F)c1cccc(S(=O)(=O)N2CCOCC2)c1 (protonated)
O=C([N-]c1c(F)cccc1F)c1cccc(S(=O)(=O)N2CCOCC2)c1 (3D coordinates assigned)
O=C([N-]c1c(F)cccc1F)c1cccc(S(=O)(=O)N2CCOCC2)c1 (nonaromatic ring conformer: 60.679598002210604 kcal/mol)

>  <smiles>  (7) 
O=C(Nc1c(F)cccc1F)c1cccc(S(=O)(=O)N2CCOCC2)c1

>  <score_type>  (7) 
oracle

>  <origin>  (7) 
adgpu

>  <m_score__min__energy>  (7) 
-10.75

>  <m_primary>  (7) 
energy

$$$$
7:0
     RDKit          3D

 40 42  0  0  0  0  0  0  0  0999 V2000
   -0.1263   23.6810  -25.8768 H   0  0  0  0  0  0  0  0  0  0  0  0
   -0.7600   23.8690  -26.7560 C   0  0  0  0  0  0  0  0  0  0  0  0
   -1.7270   22.9340  -27.1330 C   0  0  0  0  0  0  0  0  0  0  0  0
   -1.8606   22.0144  -26.5443 H   0  0  0  0  0  0  0  0  0  0  0  0
   -2.5250   23.1650  -28.2570 C   0  0  0  0  0  0  0  0  0  0  0  0
   -3.2971   22.4344  -28.5400 H   0  0  0  0  0  0  0  0  0  0  0  0
   -2.3450   24.3280  -29.0280 C   0  0  0  0  0  0  0  0  0  0  0  0
   -3.1810   24.6120  -30.1610 N   0  0  0  0  0  0  0  0  0  0  0  0
   -4.3950   24.1850  -30.3500 C   0  0  0  0  0  0  0  0  0  0  0  0
   -5.1230   24.5490  -31.4270 N   0  0  0  0  0  0  0  0  0  0  0  0
   -6.3270   23.9800  -31.4610 N   0  0  0  0  0  0  0  0  0  0  0  0
   -6.5560   23.1570  -30.4160 C   0  0  0  0  0  0  0  0  0  0  0  0
   -8.0970   22.2770  -30.1690 S   0  0  0  0  0  0  0  0  0  0  0  0
   -8.5700   22.2850  -31.9340 C   0  0  0  0  0  0  0  0  0  0  0  0
   -8.3466   23.2733  -32.3623 H   0  0  0  0  0  0  0  0  0  0  0  0
   -9.6455   22.0673  -32.0107 H   0  0  0  0  0  0  0  0  0  0  0  0
   -7.8140   21.2380  -32.6950 C   0  0  0  0  0  0  0  0  0  0  0  0
   -8.4140   20.1950  -33.0730 O   0  0  0  0  0  0  0  0  0  0  0  0
   -6.4200   21.4250  -32.9810 N   0  0  0  0  0  0  0  0  0  0  0  0
   -6.0340   22.3940  -32.9130 H   0  0  0  0  0  0  0  0  0  0  0  0
   -5.5280   20.3650  -33.3700 C   0  0  0  0  0  0  0  0  0  0  0  0
   -6.0290   19.1420  -33.8540 C   0  0  0  0  0  0  0  0  0  0  0  0
   -7.1145   19.0023  -33.9644 H   0  0  0  0  0  0  0  0  0  0  0  0
   -5.1590   18.1050  -34.1950 C   0  0  0  0  0  0  0  0  0  0  0  0
   -5.5600   17.1569  -34.5827 H   0  0  0  0  0  0  0  0  0  0  0  0
   -3.7830   18.2690  -34.0450 C   0  0  0  0  0  0  0  0  0  0  0  0
   -3.0994   17.4523  -34.3203 H   0  0  0  0  0  0  0  0  0  0  0  0
   -3.2710   19.4680  -33.5460 C   0  0  0  0  0  0  0  0  0  0  0  0
   -2.1846   19.5897  -33.4238 H   0  0  0  0  0  0  0  0  0  0  0  0
   -4.1370   20.5230  -33.1980 C   0  0  0  0  0  0  0  0  0  0  0  0
   -3.6540   21.7410  -32.6900 O   0  0  0  0  0  0  0  0  0  0  0  0
   -2.5780   21.8610  -31.7670 C   0  0  0  0  0  0  0  0  0  0  0  0
   -2.9694   21.8174  -30.7399 H   0  0  0  0  0  0  0  0  0  0  0  0
   -1.8668   21.0366  -31.9237 H   0  0  0  0  0  0  0  0  0  0  0  0
   -2.0659   22.8218  -31.9237 H   0  0  0  0  0  0  0  0  0  0  0  0
   -5.2340   23.0850  -29.3760 S   0  0  0  0  0  0  0  0  0  0  0  0
   -1.3940   25.2780  -28.6240 C   0  0  0  0  0  0  0  0  0  0  0  0
   -1.2310   26.4560  -29.3450 O   0  0  0  0  0  0  0  0  0  0  0  0
   -0.5980   25.0430  -27.4960 C   0  0  0  0  0  0  0  0  0  0  0  0
    0.1561   25.7840  -27.1921 H   0  0  0  0  0  0  0  0  0  0  0  0
  1  2  1  0
  2  3  2  0
  3  4  1  0
  3  5  1  0
  5  6  1  0
  5  7  2  0
  7  8  1  0
  8  9  2  0
  9 10  1  0
 10 11  1  0
 11 12  2  0
 12 13  1  0
 13 14  1  0
 14 15  1  0
 14 16  1  0
 14 17  1  0
 17 18  2  0
 17 19  1  0
 19 20  1  0
 19 21  1  0
 21 22  2  0
 22 23  1  0
 22 24  1  0
 24 25  1  0
 24 26  2  0
 26 27  1  0
 26 28  1  0
 28 29  1  0
 28 30  2  0
 30 31  1  0
 31 32  1  0
 32 33  1  0
 32 34  1  0
 32 35  1  0
 12 36  1  0
  7 37  1  0
 37 38  1  0
 37 39  2  0
 39 40  1  0
 39  2  1  0
 36  9  1  0
 30 21  1  0
M  CHG  2  10  -1  38  -1
M  END
>  <UniqueID>  (8) 
7

>  <SMILES>  (8) 
COc1ccccc1NC(=O)CSc1n[n-]/c(=N/c2ccccc2[O-])s1

>  <Energy>  (8) 
81.7904106673794

>  <Genealogy>  (8) 
COc1ccccc1NC(=O)CSc1n[n-]c(=Nc2ccccc2[O-])s1 (protonated)
COc1ccccc1NC(=O)CSc1n[n-]/c(=N/c2ccccc2[O-])s1 (cis-trans isomerization)
COc1ccccc1NC(=O)CSc1n[n-]/c(=N/c2ccccc2[O-])s1 (3D coordinates assigned)
COc1ccccc1NC(=O)CSc1n[n-]/c(=N/c2ccccc2[O-])s1 (optimized conformer: 81.7904106673794 kcal/mol)

>  <smiles>  (8) 
COc1ccccc1NC(=O)CSc1n[nH]c(=Nc2ccccc2O)s1

>  <score_type>  (8) 
oracle

>  <origin>  (8) 
adgpu

>  <m_score__min__energy>  (8) 
-12.41

>  <m_primary>  (8) 
energy

$$$$
8:0
     RDKit          3D

 50 52  0  0  0  0  0  0  0  0999 V2000
    2.2540   24.7060  -24.4340 C   0  0  0  0  0  0  0  0  0  0  0  0
    1.3550   23.6870  -24.8620 O   0  0  0  0  0  0  0  0  0  0  0  0
    0.2460   23.9040  -25.6950 C   0  0  0  0  0  0  0  0  0  0  0  0
    0.0900   23.2320  -26.9210 C   0  0  0  0  0  0  0  0  0  0  0  0
   -1.0250   23.4780  -27.7250 C   0  0  0  0  0  0  0  0  0  0  0  0
   -1.9960   24.4050  -27.3300 C   0  0  0  0  0  0  0  0  0  0  0  0
   -3.1440   24.6250  -28.1680 N   0  0  0  0  0  0  0  0  0  0  0  0
   -4.1800   23.6500  -28.3760 C   0  0  0  0  0  0  0  0  0  0  0  0
   -4.3440   22.7220  -27.5390 O   0  0  0  0  0  0  0  0  0  0  0  0
   -5.1060   23.7630  -29.5270 C   0  0  0  0  0  0  0  0  0  0  0  0
   -6.1580   22.8380  -29.6590 C   0  0  0  0  0  0  0  0  0  0  0  0
   -7.0550   22.9220  -30.7310 C   0  0  0  0  0  0  0  0  0  0  0  0
   -8.3580   21.7440  -30.8650 S   0  0  0  0  0  0  0  0  0  0  0  0
   -9.2860   21.9280  -29.6960 O   0  0  0  0  0  0  0  0  0  0  0  0
   -9.1290   21.9730  -32.1360 O   0  0  0  0  0  0  0  0  0  0  0  0
   -7.6710   20.1330  -30.8460 N   0  0  0  0  0  0  0  0  0  0  0  0
   -6.4540   20.0440  -31.6840 C   0  0  0  0  0  0  0  0  0  0  0  0
   -6.7260   19.4240  -33.0670 C   0  0  0  0  0  0  0  0  0  0  0  0
   -8.0220   19.7610  -33.5070 O   0  0  0  0  0  0  0  0  0  0  0  0
   -8.9950   19.1020  -32.7130 C   0  0  0  0  0  0  0  0  0  0  0  0
   -8.6720   19.1110  -31.2000 C   0  0  0  0  0  0  0  0  0  0  0  0
   -6.8980   23.9310  -31.6890 C   0  0  0  0  0  0  0  0  0  0  0  0
   -5.8490   24.8450  -31.5770 C   0  0  0  0  0  0  0  0  0  0  0  0
   -4.9480   24.7630  -30.5110 C   0  0  0  0  0  0  0  0  0  0  0  0
   -3.8880   25.6610  -30.4570 O   0  0  0  0  0  0  0  0  0  0  0  0
   -1.8560   25.0600  -26.0950 C   0  0  0  0  0  0  0  0  0  0  0  0
   -0.7340   24.8180  -25.2760 C   0  0  0  0  0  0  0  0  0  0  0  0
   -0.5580   25.4640  -24.0420 O   0  0  0  0  0  0  0  0  0  0  0  0
   -0.8370   26.8400  -23.8040 C   0  0  0  0  0  0  0  0  0  0  0  0
    2.2793   24.7346  -23.3347 H   0  0  0  0  0  0  0  0  0  0  0  0
    3.2619   24.4909  -24.8184 H   0  0  0  0  0  0  0  0  0  0  0  0
    1.9149   25.6793  -24.8184 H   0  0  0  0  0  0  0  0  0  0  0  0
    0.8510   22.5083  -27.2484 H   0  0  0  0  0  0  0  0  0  0  0  0
   -1.1410   22.9386  -28.6767 H   0  0  0  0  0  0  0  0  0  0  0  0
   -3.2890   25.5820  -28.5620 H   0  0  0  0  0  0  0  0  0  0  0  0
   -6.2772   22.0398  -28.9116 H   0  0  0  0  0  0  0  0  0  0  0  0
   -6.0504   21.0573  -31.8263 H   0  0  0  0  0  0  0  0  0  0  0  0
   -5.7398   19.3899  -31.1624 H   0  0  0  0  0  0  0  0  0  0  0  0
   -5.9874   19.8054  -33.7874 H   0  0  0  0  0  0  0  0  0  0  0  0
   -6.6470   18.3295  -32.9907 H   0  0  0  0  0  0  0  0  0  0  0  0
   -9.9633   19.6015  -32.8645 H   0  0  0  0  0  0  0  0  0  0  0  0
   -9.0116   18.0495  -33.0322 H   0  0  0  0  0  0  0  0  0  0  0  0
   -9.5979   19.3151  -30.6422 H   0  0  0  0  0  0  0  0  0  0  0  0
   -8.2538   18.1273  -30.9402 H   0  0  0  0  0  0  0  0  0  0  0  0
   -7.6022   24.0035  -32.5309 H   0  0  0  0  0  0  0  0  0  0  0  0
   -5.7303   25.6354  -32.3328 H   0  0  0  0  0  0  0  0  0  0  0  0
   -2.6293   25.7686  -25.7637 H   0  0  0  0  0  0  0  0  0  0  0  0
   -0.8744   27.0244  -22.7202 H   0  0  0  0  0  0  0  0  0  0  0  0
   -0.0458   27.4577  -24.2540 H   0  0  0  0  0  0  0  0  0  0  0  0
   -1.8063   27.1008  -24.2540 H   0  0  0  0  0  0  0  0  0  0  0  0
  1  2  1  0
  2  3  1  0
  3  4  2  0
  4  5  1  0
  5  6  2  0
  6  7  1  0
  7  8  1  0
  8  9  2  0
  8 10  1  0
 10 11  2  0
 11 12  1  0
 12 13  1  0
 13 14  2  0
 13 15  2  0
 13 16  1  0
 16 17  1  0
 17 18  1  0
 18 19  1  0
 19 20  1  0
 20 21  1  0
 12 22  2  0
 22 23  1  0
 23 24  2  0
 24 25  1  0
  6 26  1  0
 26 27  2  0
 27 28  1  0
 28 29  1  0
 27  3  1  0
 24 10  1  0
 21 16  1  0
  1 30  1  0
  1 31  1  0
  1 32  1  0
  4 33  1  0
  5 34  1  0
  7 35  1  0
 11 36  1  0
 17 37  1  0
 17 38  1  0
 18 39  1  0
 18 40  1  0
 20 41  1  0
 20 42  1  0
 21 43  1  0
 21 44  1  0
 22 45  1  0
 23 46  1  0
 26 47  1  0
 29 48  1  0
 29 49  1  0
 29 50  1  0
M  CHG  1  25  -1
M  END
>  <UniqueID>  (9) 
8

>  <SMILES>  (9) 
COc1ccc(NC(=O)c2cc(S(=O)(=O)N3CCOCC3)ccc2[O-])cc1OC

>  <Energy>  (9) 
68.55815057064947

>  <Genealogy>  (9) 
COc1ccc(NC(=O)c2cc(S(=O)(=O)N3CCOCC3)ccc2[O-])cc1OC (protonated)
COc1ccc(NC(=O)c2cc(S(=O)(=O)N3CCOCC3)ccc2[O-])cc1OC (3D coordinates assigned)
COc1ccc(NC(=O)c2cc(S(=O)(=O)N3CCOCC3)ccc2[O-])cc1OC (nonaromatic ring conformer: 68.55815057064947 kcal/mol)

>  <smiles>  (9) 
COc1ccc(NC(=O)c2cc(S(=O)(=O)N3CCOCC3)ccc2O)cc1OC

>  <score_type>  (9) 
oracle

>  <origin>  (9) 
adgpu

>  <m_score__min__energy>  (9) 
-10.960000000000001

>  <m_primary>  (9) 
energy

$$$$
9:0
     RDKit          3D

 40 41  0  0  0  0  0  0  0  0999 V2000
   -5.6080   16.6600  -34.1880 C   0  0  0  0  0  0  0  0  0  0  0  0
   -6.8860   17.0790  -33.4680 C   0  0  0  0  0  0  0  0  0  0  0  0
   -6.6680   18.2820  -32.6660 N   0  0  0  0  0  0  0  0  0  0  0  0
   -6.3910   19.5480  -33.2850 C   0  0  0  0  0  0  0  0  0  0  0  0
   -6.4830   19.6620  -34.5390 O   0  0  0  0  0  0  0  0  0  0  0  0
   -6.0190   20.7330  -32.4750 C   0  0  0  0  0  0  0  0  0  0  0  0
   -4.6980   21.2120  -32.4950 C   0  0  0  0  0  0  0  0  0  0  0  0
   -4.3360   22.3270  -31.7340 C   0  0  0  0  0  0  0  0  0  0  0  0
   -5.2860   22.9740  -30.9330 C   0  0  0  0  0  0  0  0  0  0  0  0
   -4.8280   24.3810  -29.9770 S   0  0  0  0  0  0  0  0  0  0  0  0
   -6.0650   25.1370  -29.5830 O   0  0  0  0  0  0  0  0  0  0  0  0
   -3.9500   25.2930  -30.7900 O   0  0  0  0  0  0  0  0  0  0  0  0
   -3.9550   23.8820  -28.5540 N   0  0  0  0  0  0  0  0  0  0  0  0
   -4.2390   24.5460  -27.2810 C   0  0  0  0  0  0  0  0  0  0  0  0
   -2.9670   22.8290  -28.6260 C   0  0  0  0  0  0  0  0  0  0  0  0
   -3.1290   21.6410  -27.8840 C   0  0  0  0  0  0  0  0  0  0  0  0
   -2.1740   20.6220  -27.9570 C   0  0  0  0  0  0  0  0  0  0  0  0
   -1.0490   20.7710  -28.7730 C   0  0  0  0  0  0  0  0  0  0  0  0
   -0.8780   21.9400  -29.5170 C   0  0  0  0  0  0  0  0  0  0  0  0
   -1.8300   22.9630  -29.4480 C   0  0  0  0  0  0  0  0  0  0  0  0
   -6.6000   22.4900  -30.8940 C   0  0  0  0  0  0  0  0  0  0  0  0
   -6.9650   21.3780  -31.6580 C   0  0  0  0  0  0  0  0  0  0  0  0
   -4.8357   16.4068  -33.4467 H   0  0  0  0  0  0  0  0  0  0  0  0
   -5.8132   15.7821  -34.8182 H   0  0  0  0  0  0  0  0  0  0  0  0
   -5.2536   17.4890  -34.8182 H   0  0  0  0  0  0  0  0  0  0  0  0
   -7.6687   17.2814  -34.2139 H   0  0  0  0  0  0  0  0  0  0  0  0
   -7.1929   16.2628  -32.7974 H   0  0  0  0  0  0  0  0  0  0  0  0
   -6.7570   18.2290  -31.6250 H   0  0  0  0  0  0  0  0  0  0  0  0
   -3.9431   20.7055  -33.1143 H   0  0  0  0  0  0  0  0  0  0  0  0
   -3.3009   22.6981  -31.7641 H   0  0  0  0  0  0  0  0  0  0  0  0
   -3.9554   23.8830  -26.4503 H   0  0  0  0  0  0  0  0  0  0  0  0
   -3.6617   25.4802  -27.2179 H   0  0  0  0  0  0  0  0  0  0  0  0
   -5.3133   24.7738  -27.2179 H   0  0  0  0  0  0  0  0  0  0  0  0
   -4.0137   21.5147  -27.2426 H   0  0  0  0  0  0  0  0  0  0  0  0
   -2.3085   19.7010  -27.3708 H   0  0  0  0  0  0  0  0  0  0  0  0
   -0.2992   19.9681  -28.8290 H   0  0  0  0  0  0  0  0  0  0  0  0
    0.0075   22.0570  -30.1591 H   0  0  0  0  0  0  0  0  0  0  0  0
   -1.6899   23.8794  -30.0402 H   0  0  0  0  0  0  0  0  0  0  0  0
   -7.3480   22.9874  -30.2591 H   0  0  0  0  0  0  0  0  0  0  0  0
   -7.9990   21.0047  -31.6201 H   0  0  0  0  0  0  0  0  0  0  0  0
  1  2  1  0
  2  3  1  0
  3  4  1  0
  4  5  2  0
  4  6  1  0
  6  7  2  0
  7  8  1  0
  8  9  2  0
  9 10  1  0
 10 11  2  0
 10 12  2  0
 10 13  1  0
 13 14  1  0
 13 15  1  0
 15 16  2  0
 16 17  1  0
 17 18  2  0
 18 19  1  0
 19 20  2  0
  9 21  1  0
 21 22  2  0
 22  6  1  0
 20 15  1  0
  1 23  1  0
  1 24  1  0
  1 25  1  0
  2 26  1  0
  2 27  1  0
  3 28  1  0
  7 29  1  0
  8 30  1  0
 14 31  1  0
 14 32  1  0
 14 33  1  0
 16 34  1  0
 17 35  1  0
 18 36  1  0
 19 37  1  0
 20 38  1  0
 21 39  1  0
 22 40  1  0
M  END
>  <UniqueID>  (10) 
9

>  <SMILES>  (10) 
CCNC(=O)c1ccc(S(=O)(=O)N(C)c2ccccc2)cc1

>  <Energy>  (10) 
41.97205675372855

>  <Genealogy>  (10) 
CCNC(=O)c1ccc(S(=O)(=O)N(C)c2ccccc2)cc1 (3D coordinates assigned)
CCNC(=O)c1ccc(S(=O)(=O)N(C)c2ccccc2)cc1 (optimized conformer: 41.97205675372855 kcal/mol)

>  <smiles>  (10) 
CCNC(=O)c1ccc(S(=O)(=O)N(C)c2ccccc2)cc1

>  <score_type>  (10) 
oracle

>  <origin>  (10) 
adgpu

>  <m_score__min__energy>  (10) 
-7.75

>  <m_primary>  (10) 
energy

$$$$
10:0
     RDKit          3D

 38 40  0  0  0  0  0  0  0  0999 V2000
   -5.7370   26.4320  -30.4880 O   0  0  0  0  0  0  0  0  0  0  0  0
   -5.1380   25.3490  -30.7230 C   0  0  0  0  0  0  0  0  0  0  0  0
   -3.7240   25.2770  -30.4940 N   0  0  0  0  0  0  0  0  0  0  0  0
   -3.0830   24.4530  -29.5110 C   0  0  0  0  0  0  0  0  0  0  0  0
   -3.7360   23.3010  -29.0760 C   0  0  0  0  0  0  0  0  0  0  0  0
   -3.1410   22.4670  -28.1340 C   0  0  0  0  0  0  0  0  0  0  0  0
   -1.8820   22.7710  -27.6060 C   0  0  0  0  0  0  0  0  0  0  0  0
   -1.2460   21.6560  -26.4010 Cl  0  0  0  0  0  0  0  0  0  0  0  0
   -1.2020   23.9450  -28.0220 C   0  0  0  0  0  0  0  0  0  0  0  0
    0.4130   24.3810  -27.3930 S   0  0  0  0  0  0  0  0  0  0  0  0
    1.3910   24.5480  -28.5230 O   0  0  0  0  0  0  0  0  0  0  0  0
    0.9270   23.2620  -26.5330 O   0  0  0  0  0  0  0  0  0  0  0  0
    0.3860   25.8540  -26.4460 N   0  0  0  0  0  0  0  0  0  0  0  0
    0.8410   25.6050  -25.0660 C   0  0  0  0  0  0  0  0  0  0  0  0
    0.4180   26.7610  -24.1450 C   0  0  0  0  0  0  0  0  0  0  0  0
   -0.9890   26.9680  -24.0800 O   0  0  0  0  0  0  0  0  0  0  0  0
   -1.6990   26.4290  -25.1860 C   0  0  0  0  0  0  0  0  0  0  0  0
   -0.9230   26.5410  -26.5090 C   0  0  0  0  0  0  0  0  0  0  0  0
   -1.8370   24.8010  -28.9530 C   0  0  0  0  0  0  0  0  0  0  0  0
   -1.2500   26.0130  -29.3030 O   0  0  0  0  0  0  0  0  0  0  0  0
   -5.9140   24.1830  -31.1830 C   0  0  0  0  0  0  0  0  0  0  0  0
   -7.2350   23.8820  -30.8620 C   0  0  0  0  0  0  0  0  0  0  0  0
   -7.7090   22.7260  -31.4930 C   0  0  0  0  0  0  0  0  0  0  0  0
   -6.7710   22.1130  -32.3120 C   0  0  0  0  0  0  0  0  0  0  0  0
   -5.3560   23.0170  -32.2600 S   0  0  0  0  0  0  0  0  0  0  0  0
   -4.7278   23.0494  -29.4798 H   0  0  0  0  0  0  0  0  0  0  0  0
   -3.6662   21.5595  -27.8013 H   0  0  0  0  0  0  0  0  0  0  0  0
    0.3944   24.6685  -24.7006 H   0  0  0  0  0  0  0  0  0  0  0  0
    1.9383   25.5280  -25.0607 H   0  0  0  0  0  0  0  0  0  0  0  0
    0.7825   26.5449  -23.1299 H   0  0  0  0  0  0  0  0  0  0  0  0
    0.8542   27.6784  -24.5670 H   0  0  0  0  0  0  0  0  0  0  0  0
   -1.9028   25.3664  -24.9878 H   0  0  0  0  0  0  0  0  0  0  0  0
   -2.6261   27.0105  -25.2975 H   0  0  0  0  0  0  0  0  0  0  0  0
   -1.5232   26.0879  -27.3118 H   0  0  0  0  0  0  0  0  0  0  0  0
   -0.7369   27.6076  -26.7035 H   0  0  0  0  0  0  0  0  0  0  0  0
   -7.8456   24.4922  -30.1801 H   0  0  0  0  0  0  0  0  0  0  0  0
   -8.7293   22.3396  -31.3529 H   0  0  0  0  0  0  0  0  0  0  0  0
   -6.9273   21.1933  -32.8949 H   0  0  0  0  0  0  0  0  0  0  0  0
  1  2  2  0
  2  3  1  0
  3  4  1  0
  4  5  2  0
  5  6  1  0
  6  7  2  0
  7  8  1  0
  7  9  1  0
  9 10  1  0
 10 11  2  0
 10 12  2  0
 10 13  1  0
 13 14  1  0
 14 15  1  0
 15 16  1  0
 16 17  1  0
 17 18  1  0
  9 19  2  0
 19 20  1  0
  2 21  1  0
 21 22  2  0
 22 23  1  0
 23 24  2  0
 24 25  1  0
 19  4  1  0
 25 21  1  0
 18 13  1  0
  5 26  1  0
  6 27  1  0
 14 28  1  0
 14 29  1  0
 15 30  1  0
 15 31  1  0
 17 32  1  0
 17 33  1  0
 18 34  1  0
 18 35  1  0
 22 36  1  0
 23 37  1  0
 24 38  1  0
M  CHG  2   3  -1  20  -1
M  END
>  <UniqueID>  (11) 
10

>  <SMILES>  (11) 
O=C([N-]c1ccc(Cl)c(S(=O)(=O)N2CCOCC2)c1[O-])c1cccs1

>  <Energy>  (11) 
86.55733218540892

>  <Genealogy>  (11) 
O=C([N-]c1ccc(Cl)c(S(=O)(=O)N2CCOCC2)c1[O-])c1cccs1 (protonated)
O=C([N-]c1ccc(Cl)c(S(=O)(=O)N2CCOCC2)c1[O-])c1cccs1 (3D coordinates assigned)
O=C([N-]c1ccc(Cl)c(S(=O)(=O)N2CCOCC2)c1[O-])c1cccs1 (nonaromatic ring conformer: 86.55733218540892 kcal/mol)

>  <smiles>  (11) 
O=C(Nc1ccc(Cl)c(S(=O)(=O)N2CCOCC2)c1O)c1cccs1

>  <score_type>  (11) 
oracle

>  <origin>  (11) 
adgpu

>  <m_score__min__energy>  (11) 
-13.640000000000001

>  <m_primary>  (11) 
energy

$$$$
11:0
     RDKit          3D

 38 40  0  0  0  0  0  0  0  0999 V2000
   -6.7780   17.3970  -33.7220 C   0  0  0  0  0  0  0  0  0  0  0  0
   -7.6400   18.2490  -32.9140 N   0  0  0  0  0  0  0  0  0  0  0  0
   -7.5520   19.5890  -32.8180 C   0  0  0  0  0  0  0  0  0  0  0  0
   -8.4920   20.0000  -31.9010 C   0  0  0  0  0  0  0  0  0  0  0  0
   -8.7910   21.6370  -31.3490 S   0  0  0  0  0  0  0  0  0  0  0  0
   -9.5590   22.3970  -32.3940 O   0  0  0  0  0  0  0  0  0  0  0  0
   -9.6110   21.5790  -30.0900 O   0  0  0  0  0  0  0  0  0  0  0  0
   -7.2540   22.4430  -31.0560 C   0  0  0  0  0  0  0  0  0  0  0  0
   -6.4010   22.7240  -32.1310 C   0  0  0  0  0  0  0  0  0  0  0  0
   -5.1750   23.3580  -31.9110 C   0  0  0  0  0  0  0  0  0  0  0  0
   -4.7820   23.7090  -30.6070 C   0  0  0  0  0  0  0  0  0  0  0  0
   -3.5430   24.3810  -30.3390 N   0  0  0  0  0  0  0  0  0  0  0  0
   -2.3410   23.7880  -29.8260 C   0  0  0  0  0  0  0  0  0  0  0  0
   -1.7700   22.8710  -30.4740 O   0  0  0  0  0  0  0  0  0  0  0  0
   -1.8070   24.2210  -28.5070 C   0  0  0  0  0  0  0  0  0  0  0  0
   -1.8240   23.3240  -27.4190 C   0  0  0  0  0  0  0  0  0  0  0  0
   -1.3290   23.7080  -26.1700 C   0  0  0  0  0  0  0  0  0  0  0  0
   -0.8110   24.9890  -25.9850 C   0  0  0  0  0  0  0  0  0  0  0  0
   -0.7860   25.8910  -27.0480 C   0  0  0  0  0  0  0  0  0  0  0  0
   -1.2790   25.5190  -28.3040 C   0  0  0  0  0  0  0  0  0  0  0  0
   -1.2350   26.4490  -29.3380 O   0  0  0  0  0  0  0  0  0  0  0  0
   -5.6510   23.4520  -29.5390 C   0  0  0  0  0  0  0  0  0  0  0  0
   -6.8760   22.8160  -29.7590 C   0  0  0  0  0  0  0  0  0  0  0  0
   -9.1120   18.8500  -31.4580 C   0  0  0  0  0  0  0  0  0  0  0  0
   -8.5680   17.7910  -32.0880 N   0  0  0  0  0  0  0  0  0  0  0  0
   -6.1519   16.7781  -33.0625 H   0  0  0  0  0  0  0  0  0  0  0  0
   -7.3970   16.7460  -34.3568 H   0  0  0  0  0  0  0  0  0  0  0  0
   -6.1342   18.0235  -34.3568 H   0  0  0  0  0  0  0  0  0  0  0  0
   -6.8561   20.2367  -33.3713 H   0  0  0  0  0  0  0  0  0  0  0  0
   -6.6974   22.4445  -33.1528 H   0  0  0  0  0  0  0  0  0  0  0  0
   -4.5146   23.5834  -32.7614 H   0  0  0  0  0  0  0  0  0  0  0  0
   -2.2313   22.3113  -27.5550 H   0  0  0  0  0  0  0  0  0  0  0  0
   -1.3481   22.9976  -25.3304 H   0  0  0  0  0  0  0  0  0  0  0  0
   -0.4220   25.2881  -25.0005 H   0  0  0  0  0  0  0  0  0  0  0  0
   -0.3764   26.9009  -26.8986 H   0  0  0  0  0  0  0  0  0  0  0  0
   -5.3673   23.7529  -28.5197 H   0  0  0  0  0  0  0  0  0  0  0  0
   -7.5455   22.6076  -28.9115 H   0  0  0  0  0  0  0  0  0  0  0  0
   -9.9191   18.8052  -30.7119 H   0  0  0  0  0  0  0  0  0  0  0  0
  1  2  1  0
  2  3  1  0
  3  4  2  0
  4  5  1  0
  5  6  2  0
  5  7  2  0
  5  8  1  0
  8  9  2  0
  9 10  1  0
 10 11  2  0
 11 12  1  0
 12 13  1  0
 13 14  2  0
 13 15  1  0
 15 16  2  0
 16 17  1  0
 17 18  2  0
 18 19  1  0
 19 20  2  0
 20 21  1  0
 11 22  1  0
 22 23  2  0
  4 24  1  0
 24 25  2  0
 25  2  1  0
 23  8  1  0
 20 15  1  0
  1 26  1  0
  1 27  1  0
  1 28  1  0
  3 29  1  0
  9 30  1  0
 10 31  1  0
 16 32  1  0
 17 33  1  0
 18 34  1  0
 19 35  1  0
 22 36  1  0
 23 37  1  0
 24 38  1  0
M  CHG  2  12  -1  21  -1
M  END
>  <UniqueID>  (12) 
11

>  <SMILES>  (12) 
Cn1cc(S(=O)(=O)c2ccc([N-]C(=O)c3ccccc3[O-])cc2)cn1

>  <Energy>  (12) 
77.86722661461825

>  <Genealogy>  (12) 
Cn1cc(S(=O)(=O)c2ccc([N-]C(=O)c3ccccc3[O-])cc2)cn1 (protonated)
Cn1cc(S(=O)(=O)c2ccc([N-]C(=O)c3ccccc3[O-])cc2)cn1 (3D coordinates assigned)
Cn1cc(S(=O)(=O)c2ccc([N-]C(=O)c3ccccc3[O-])cc2)cn1 (optimized conformer: 77.86722661461825 kcal/mol)

>  <smiles>  (12) 
Cn1cc(S(=O)(=O)c2ccc(NC(=O)c3ccccc3O)cc2)cn1

>  <score_type>  (12) 
oracle

>  <origin>  (12) 
adgpu

>  <m_score__min__energy>  (12) 
-13.16

>  <m_primary>  (12) 
energy

$$$$
12:0
     RDKit          3D

 43 45  0  0  0  0  0  0  0  0999 V2000
   -9.4870   21.5470  -30.8240 C   0  0  0  0  0  0  0  0  0  0  0  0
   -9.0650   21.0810  -32.1540 N   0  0  0  0  0  0  0  0  0  0  0  0
   -7.6120   21.3030  -32.3390 C   0  0  0  0  0  0  0  0  0  0  0  0
   -7.0380   20.3910  -33.4350 C   0  0  0  0  0  0  0  0  0  0  0  0
   -7.2280   18.9540  -33.1280 N   0  0  0  0  0  0  0  0  0  0  0  0
   -5.7500   18.2200  -32.5470 S   0  0  0  0  0  0  0  0  0  0  0  0
   -5.9370   17.7600  -31.1280 O   0  0  0  0  0  0  0  0  0  0  0  0
   -5.4350   17.0150  -33.3890 O   0  0  0  0  0  0  0  0  0  0  0  0
   -4.3950   19.3510  -32.6180 C   0  0  0  0  0  0  0  0  0  0  0  0
   -3.6250   19.4580  -33.7830 C   0  0  0  0  0  0  0  0  0  0  0  0
   -2.5660   20.3680  -33.8450 C   0  0  0  0  0  0  0  0  0  0  0  0
   -2.2800   21.1850  -32.7490 C   0  0  0  0  0  0  0  0  0  0  0  0
   -3.0540   21.1040  -31.5830 C   0  0  0  0  0  0  0  0  0  0  0  0
   -2.7420   21.9540  -30.4660 N   0  0  0  0  0  0  0  0  0  0  0  0
   -3.4310   23.1850  -30.1880 C   0  0  0  0  0  0  0  0  0  0  0  0
   -4.1200   23.7410  -31.0870 O   0  0  0  0  0  0  0  0  0  0  0  0
   -3.3140   23.8360  -28.8720 C   0  0  0  0  0  0  0  0  0  0  0  0
   -4.2630   23.8370  -27.8540 C   0  0  0  0  0  0  0  0  0  0  0  0
   -3.8630   24.5620  -26.7240 C   0  0  0  0  0  0  0  0  0  0  0  0
   -2.6050   25.1360  -26.8460 C   0  0  0  0  0  0  0  0  0  0  0  0
   -1.9930   24.7440  -28.3600 S   0  0  0  0  0  0  0  0  0  0  0  0
   -4.0960   20.1630  -31.5150 C   0  0  0  0  0  0  0  0  0  0  0  0
   -8.3410   18.6820  -32.1930 C   0  0  0  0  0  0  0  0  0  0  0  0
   -9.4890   19.6790  -32.3950 C   0  0  0  0  0  0  0  0  0  0  0  0
   -8.9628   20.9682  -30.0493 H   0  0  0  0  0  0  0  0  0  0  0  0
   -9.2411   22.6135  -30.7141 H   0  0  0  0  0  0  0  0  0  0  0  0
  -10.5726   21.4078  -30.7141 H   0  0  0  0  0  0  0  0  0  0  0  0
   -7.4440   22.3524  -32.6229 H   0  0  0  0  0  0  0  0  0  0  0  0
   -7.1035   21.0673  -31.3925 H   0  0  0  0  0  0  0  0  0  0  0  0
   -7.5427   20.6194  -34.3853 H   0  0  0  0  0  0  0  0  0  0  0  0
   -5.9564   20.5812  -33.4985 H   0  0  0  0  0  0  0  0  0  0  0  0
   -3.8545   18.8238  -34.6520 H   0  0  0  0  0  0  0  0  0  0  0  0
   -1.9570   20.4408  -34.7582 H   0  0  0  0  0  0  0  0  0  0  0  0
   -1.4425   21.8962  -32.8010 H   0  0  0  0  0  0  0  0  0  0  0  0
   -1.8960   21.7220  -29.8990 H   0  0  0  0  0  0  0  0  0  0  0  0
   -5.2310   23.3199  -27.9292 H   0  0  0  0  0  0  0  0  0  0  0  0
   -4.4873   24.6666  -25.8244 H   0  0  0  0  0  0  0  0  0  0  0  0
   -2.0965   25.7431  -26.0825 H   0  0  0  0  0  0  0  0  0  0  0  0
   -4.6814   20.0630  -30.5891 H   0  0  0  0  0  0  0  0  0  0  0  0
   -8.7157   17.6626  -32.3676 H   0  0  0  0  0  0  0  0  0  0  0  0
   -7.9658   18.7854  -31.1642 H   0  0  0  0  0  0  0  0  0  0  0  0
   -9.8550   19.5926  -33.4287 H   0  0  0  0  0  0  0  0  0  0  0  0
  -10.2782   19.4359  -31.6684 H   0  0  0  0  0  0  0  0  0  0  0  0
  1  2  1  0
  2  3  1  0
  3  4  1  0
  4  5  1  0
  5  6  1  0
  6  7  2  0
  6  8  2  0
  6  9  1  0
  9 10  2  0
 10 11  1  0
 11 12  2  0
 12 13  1  0
 13 14  1  0
 14 15  1  0
 15 16  2  0
 15 17  1  0
 17 18  2  0
 18 19  1  0
 19 20  2  0
 20 21  1  0
 13 22  2  0
  5 23  1  0
 23 24  1  0
 24  2  1  0
 22  9  1  0
 21 17  1  0
  1 25  1  0
  1 26  1  0
  1 27  1  0
  3 28  1  0
  3 29  1  0
  4 30  1  0
  4 31  1  0
 10 32  1  0
 11 33  1  0
 12 34  1  0
 14 35  1  0
 18 36  1  0
 19 37  1  0
 20 38  1  0
 22 39  1  0
 23 40  1  0
 23 41  1  0
 24 42  1  0
 24 43  1  0
M  END
>  <UniqueID>  (13) 
12

>  <SMILES>  (13) 
CN1CCN(S(=O)(=O)c2cccc(NC(=O)c3cccs3)c2)CC1

>  <Energy>  (13) 
82.03087675241159

>  <Genealogy>  (13) 
CN1CCN(S(=O)(=O)c2cccc(NC(=O)c3cccs3)c2)CC1 (3D coordinates assigned)
CN1CCN(S(=O)(=O)c2cccc(NC(=O)c3cccs3)c2)CC1 (nonaromatic ring conformer: 82.03087675241159 kcal/mol)

>  <smiles>  (13) 
CN1CCN(S(=O)(=O)c2cccc(NC(=O)c3cccs3)c2)CC1

>  <score_type>  (13) 
oracle

>  <origin>  (13) 
adgpu

>  <m_score__min__energy>  (13) 
-8.8399999999999999

>  <m_primary>  (13) 
energy

$$$$
13:0
     RDKit          3D

 41 44  0  0  0  0  0  0  0  0999 V2000
   -4.1260   25.3630  -30.6900 O   0  0  0  0  0  0  0  0  0  0  0  0
   -4.9420   24.7250  -29.9700 C   0  0  0  0  0  0  0  0  0  0  0  0
   -6.3610   24.5670  -30.4170 C   0  0  0  0  0  0  0  0  0  0  0  0
   -6.4410   24.1190  -31.8820 C   0  0  0  0  0  0  0  0  0  0  0  0
   -6.5450   22.6480  -31.9890 N   0  0  0  0  0  0  0  0  0  0  0  0
   -7.7870   22.0540  -31.9700 C   0  0  0  0  0  0  0  0  0  0  0  0
   -8.8370   22.7420  -31.8350 O   0  0  0  0  0  0  0  0  0  0  0  0
   -7.8790   20.6690  -32.1060 C   0  0  0  0  0  0  0  0  0  0  0  0
   -9.0110   19.8780  -32.1140 C   0  0  0  0  0  0  0  0  0  0  0  0
   -8.5600   18.5790  -32.2820 C   0  0  0  0  0  0  0  0  0  0  0  0
   -7.1780   18.6350  -32.3700 C   0  0  0  0  0  0  0  0  0  0  0  0
   -6.7770   19.9190  -32.2610 N   0  0  0  0  0  0  0  0  0  0  0  0
   -5.5300   20.4640  -32.2910 C   0  0  0  0  0  0  0  0  0  0  0  0
   -4.3680   19.6920  -32.4610 C   0  0  0  0  0  0  0  0  0  0  0  0
   -3.1210   20.3160  -32.4890 C   0  0  0  0  0  0  0  0  0  0  0  0
   -3.0420   21.7020  -32.3450 C   0  0  0  0  0  0  0  0  0  0  0  0
   -4.1720   22.4380  -32.1800 N   0  0  0  0  0  0  0  0  0  0  0  0
   -5.4120   21.8700  -32.1490 C   0  0  0  0  0  0  0  0  0  0  0  0
   -4.5020   24.0750  -28.7730 N   0  0  0  0  0  0  0  0  0  0  0  0
   -3.2210   23.4520  -28.6210 C   0  0  0  0  0  0  0  0  0  0  0  0
   -3.1750   22.1220  -28.1850 C   0  0  0  0  0  0  0  0  0  0  0  0
   -1.9530   21.4520  -28.0830 C   0  0  0  0  0  0  0  0  0  0  0  0
   -1.9130   19.7740  -27.5700 Cl  0  0  0  0  0  0  0  0  0  0  0  0
   -0.7650   22.1140  -28.4010 C   0  0  0  0  0  0  0  0  0  0  0  0
   -0.7960   23.4530  -28.8000 C   0  0  0  0  0  0  0  0  0  0  0  0
   -2.0140   24.1380  -28.8910 C   0  0  0  0  0  0  0  0  0  0  0  0
   -1.9900   25.4950  -29.2150 O   0  0  0  0  0  0  0  0  0  0  0  0
   -6.8532   23.8131  -29.7850 H   0  0  0  0  0  0  0  0  0  0  0  0
   -6.8628   25.5416  -30.3257 H   0  0  0  0  0  0  0  0  0  0  0  0
   -7.3263   24.5757  -32.3485 H   0  0  0  0  0  0  0  0  0  0  0  0
   -5.5219   24.4403  -32.3940 H   0  0  0  0  0  0  0  0  0  0  0  0
  -10.0543   20.2104  -32.0088 H   0  0  0  0  0  0  0  0  0  0  0  0
   -9.1819   17.6733  -32.3355 H   0  0  0  0  0  0  0  0  0  0  0  0
   -6.5130   17.7696  -32.5070 H   0  0  0  0  0  0  0  0  0  0  0  0
   -4.4417   18.6001  -32.5715 H   0  0  0  0  0  0  0  0  0  0  0  0
   -2.2063   19.7200  -32.6236 H   0  0  0  0  0  0  0  0  0  0  0  0
   -2.0615   22.2002  -32.3652 H   0  0  0  0  0  0  0  0  0  0  0  0
   -4.1072   21.6012  -27.9210 H   0  0  0  0  0  0  0  0  0  0  0  0
    0.1953   21.5813  -28.3374 H   0  0  0  0  0  0  0  0  0  0  0  0
    0.1425   23.9723  -29.0442 H   0  0  0  0  0  0  0  0  0  0  0  0
   -2.8320   26.0480  -29.3200 H   0  0  0  0  0  0  0  0  0  0  0  0
  1  2  2  0
  2  3  1  0
  3  4  1  0
  4  5  1  0
  5  6  1  0
  6  7  2  0
  6  8  1  0
  8  9  2  0
  9 10  1  0
 10 11  2  0
 11 12  1  0
 12 13  1  0
 13 14  2  0
 14 15  1  0
 15 16  2  0
 16 17  1  0
 17 18  2  0
  2 19  1  0
 19 20  1  0
 20 21  2  0
 21 22  1  0
 22 23  1  0
 22 24  2  0
 24 25  1  0
 25 26  2  0
 26 27  1  0
 18  5  1  0
 26 20  1  0
 12  8  1  0
 18 13  1  0
  3 28  1  0
  3 29  1  0
  4 30  1  0
  4 31  1  0
  9 32  1  0
 10 33  1  0
 11 34  1  0
 14 35  1  0
 15 36  1  0
 16 37  1  0
 21 38  1  0
 24 39  1  0
 25 40  1  0
 27 41  1  0
M  CHG  1  19  -1
M  END
>  <UniqueID>  (14) 
13

>  <SMILES>  (14) 
O=C(CCn1c(=O)c2cccn2c2cccnc21)[N-]c1cc(Cl)ccc1O

>  <Energy>  (14) 
87.8536868028515

>  <Genealogy>  (14) 
O=C(CCn1c(=O)c2cccn2c2cccnc21)[N-]c1cc(Cl)ccc1O (protonated)
O=C(CCn1c(=O)c2cccn2c2cccnc21)[N-]c1cc(Cl)ccc1O (3D coordinates assigned)
O=C(CCn1c(=O)c2cccn2c2cccnc21)[N-]c1cc(Cl)ccc1O (optimized conformer: 87.8536868028515 kcal/mol)

>  <smiles>  (14) 
O=C(CCn1c(=O)c2cccn2c2cccnc21)Nc1cc(Cl)ccc1O

>  <score_type>  (14) 
oracle

>  <origin>  (14) 
adgpu

>  <m_score__min__energy>  (14) 
-12.17

>  <m_primary>  (14) 
energy

$$$$
14:0
     RDKit          3D

 26 27  0  0  0  0  0  0  0  0999 V2000
    2.2820   18.0620  -27.9670 N   0  0  0  0  0  0  0  0  0  0  0  0
    1.1520   17.1390  -28.0320 C   0  0  0  0  0  0  0  0  0  0  0  0
   -0.1200   17.7970  -27.4920 C   0  0  0  0  0  0  0  0  0  0  0  0
   -0.1850   19.2460  -27.8690 C   0  0  0  0  0  0  0  0  0  0  0  0
   -1.2810   19.8970  -28.3950 C   0  0  0  0  0  0  0  0  0  0  0  0
   -0.8640   21.2120  -28.5100 C   0  0  0  0  0  0  0  0  0  0  0  0
   -1.6530   22.3580  -29.0240 C   0  0  0  0  0  0  0  0  0  0  0  0
   -2.8260   22.1590  -29.7780 C   0  0  0  0  0  0  0  0  0  0  0  0
   -3.5560   23.2510  -30.2540 C   0  0  0  0  0  0  0  0  0  0  0  0
   -3.1290   24.5540  -29.9860 C   0  0  0  0  0  0  0  0  0  0  0  0
   -3.8600   25.6350  -30.4630 O   0  0  0  0  0  0  0  0  0  0  0  0
   -1.9650   24.7660  -29.2380 C   0  0  0  0  0  0  0  0  0  0  0  0
   -1.5360   26.0600  -28.9680 O   0  0  0  0  0  0  0  0  0  0  0  0
   -1.2320   23.6740  -28.7600 C   0  0  0  0  0  0  0  0  0  0  0  0
    0.4050   21.3170  -28.0640 N   0  0  0  0  0  0  0  0  0  0  0  0
    0.8170   20.1220  -27.6690 N   0  0  0  0  0  0  0  0  0  0  0  0
    2.1540   18.7740  -28.7220 H   0  0  0  0  0  0  0  0  0  0  0  0
    2.2320   18.5780  -27.0590 H   0  0  0  0  0  0  0  0  0  0  0  0
    0.9882   16.8428  -29.0786 H   0  0  0  0  0  0  0  0  0  0  0  0
    1.3814   16.2573  -27.4156 H   0  0  0  0  0  0  0  0  0  0  0  0
   -0.9962   17.2786  -27.9085 H   0  0  0  0  0  0  0  0  0  0  0  0
   -0.1101   17.7236  -26.3945 H   0  0  0  0  0  0  0  0  0  0  0  0
   -2.2593   19.4705  -28.6613 H   0  0  0  0  0  0  0  0  0  0  0  0
   -3.1697   21.1366  -29.9936 H   0  0  0  0  0  0  0  0  0  0  0  0
   -4.4705   23.0842  -30.8421 H   0  0  0  0  0  0  0  0  0  0  0  0
   -0.3182   23.8463  -28.1724 H   0  0  0  0  0  0  0  0  0  0  0  0
  1  2  1  0
  2  3  1  0
  3  4  1  0
  4  5  2  0
  5  6  1  0
  6  7  1  0
  7  8  2  0
  8  9  1  0
  9 10  2  0
 10 11  1  0
 10 12  1  0
 12 13  1  0
 12 14  2  0
  6 15  2  0
 15 16  1  0
 16  4  1  0
 14  7  1  0
  1 17  1  0
  1 18  1  0
  2 19  1  0
  2 20  1  0
  3 21  1  0
  3 22  1  0
  5 23  1  0
  8 24  1  0
  9 25  1  0
 14 26  1  0
M  CHG  3  11  -1  13  -1  16  -1
M  END
>  <UniqueID>  (15) 
14

>  <SMILES>  (15) 
NCCc1cc(-c2ccc([O-])c([O-])c2)n[n-]1

>  <Energy>  (15) 
53.00117611718569

>  <Genealogy>  (15) 
NCCc1cc(-c2ccc([O-])c([O-])c2)n[n-]1 (protonated)
NCCc1cc(-c2ccc([O-])c([O-])c2)n[n-]1 (3D coordinates assigned)
NCCc1cc(-c2ccc([O-])c([O-])c2)n[n-]1 (optimized conformer: 53.00117611718569 kcal/mol)

>  <smiles>  (15) 
NCCc1cc(-c2ccc(O)c(O)c2)n[nH]1

>  <score_type>  (15) 
oracle

>  <origin>  (15) 
adgpu

>  <m_score__min__energy>  (15) 
-10.609999999999999

>  <m_primary>  (15) 
energy

$$$$
15:0
     RDKit          3D

 61 65  0  0  0  0  0  0  0  0999 V2000
    0.3800   17.2390  -34.8800 O   0  0  0  0  0  0  0  0  0  0  0  0
   -0.2710   17.9780  -34.0960 C   0  0  0  0  0  0  0  0  0  0  0  0
    0.4420   18.9480  -33.3170 N   0  0  0  0  0  0  0  0  0  0  0  0
   -0.1390   19.9300  -32.4470 C   0  0  0  0  0  0  0  0  0  0  0  0
   -1.0210   20.9130  -32.9280 C   0  0  0  0  0  0  0  0  0  0  0  0
   -1.5600   21.8630  -32.0570 C   0  0  0  0  0  0  0  0  0  0  0  0
   -1.2090   21.8600  -30.6970 C   0  0  0  0  0  0  0  0  0  0  0  0
   -1.7720   22.8310  -29.7930 N   0  0  0  0  0  0  0  0  0  0  0  0
   -3.2220   22.8860  -29.5610 C   0  0  0  0  0  0  0  0  0  0  0  0
   -3.7100   24.3490  -29.4400 C   0  0  0  0  0  0  0  0  0  0  0  0
   -2.6600   25.3000  -29.3430 O   0  0  0  0  0  0  0  0  0  0  0  0
   -1.6920   24.8640  -28.4120 C   0  0  0  0  0  0  0  0  0  0  0  0
   -0.8900   23.7100  -29.0180 C   0  0  0  0  0  0  0  0  0  0  0  0
   -0.3150   20.8870  -30.2240 C   0  0  0  0  0  0  0  0  0  0  0  0
    0.2210   19.9360  -31.0960 C   0  0  0  0  0  0  0  0  0  0  0  0
   -1.7340   17.7820  -33.9600 C   0  0  0  0  0  0  0  0  0  0  0  0
   -2.6410   18.6700  -34.5650 C   0  0  0  0  0  0  0  0  0  0  0  0
   -4.0180   18.4830  -34.4180 C   0  0  0  0  0  0  0  0  0  0  0  0
   -4.5100   17.4170  -33.6550 C   0  0  0  0  0  0  0  0  0  0  0  0
   -6.2480   17.2020  -33.4400 S   0  0  0  0  0  0  0  0  0  0  0  0
   -6.8140   16.4980  -34.6440 O   0  0  0  0  0  0  0  0  0  0  0  0
   -6.4930   16.3350  -32.2360 O   0  0  0  0  0  0  0  0  0  0  0  0
   -7.0570   18.7360  -33.2260 N   0  0  1  0  0  0  0  0  0  0  0  0
   -8.2370   18.5700  -32.3560 C   0  0  0  0  0  0  0  0  0  0  0  0
   -9.0670   19.8600  -32.3260 C   0  0  0  0  0  0  0  0  0  0  0  0
   -8.2050   21.0760  -32.1060 C   0  0  0  0  0  0  0  0  0  0  0  0
   -8.8110   22.2920  -31.7510 C   0  0  0  0  0  0  0  0  0  0  0  0
   -8.0370   23.4450  -31.5890 C   0  0  0  0  0  0  0  0  0  0  0  0
   -6.6560   23.3950  -31.7880 C   0  0  0  0  0  0  0  0  0  0  0  0
   -6.0430   22.1940  -32.1530 C   0  0  0  0  0  0  0  0  0  0  0  0
   -6.8110   21.0310  -32.3340 C   0  0  0  0  0  0  0  0  0  0  0  0
   -6.1230   19.7260  -32.6560 C   0  0  0  0  0  0  0  0  0  0  0  0
   -3.6110   16.5350  -33.0410 C   0  0  0  0  0  0  0  0  0  0  0  0
   -2.2330   16.7190  -33.1870 C   0  0  0  0  0  0  0  0  0  0  0  0
   -1.2880   20.9344  -33.9949 H   0  0  0  0  0  0  0  0  0  0  0  0
   -2.2634   22.6178  -32.4385 H   0  0  0  0  0  0  0  0  0  0  0  0
   -3.7394   22.4029  -30.4030 H   0  0  0  0  0  0  0  0  0  0  0  0
   -3.4459   22.3633  -28.6194 H   0  0  0  0  0  0  0  0  0  0  0  0
   -4.3124   24.5877  -30.3289 H   0  0  0  0  0  0  0  0  0  0  0  0
   -4.2887   24.4162  -28.5069 H   0  0  0  0  0  0  0  0  0  0  0  0
   -1.0138   25.6957  -28.1706 H   0  0  0  0  0  0  0  0  0  0  0  0
   -2.1920   24.5225  -27.4937 H   0  0  0  0  0  0  0  0  0  0  0  0
   -0.1108   24.1171  -29.6792 H   0  0  0  0  0  0  0  0  0  0  0  0
   -0.4283   23.1290  -28.2060 H   0  0  0  0  0  0  0  0  0  0  0  0
   -0.0346   20.8730  -29.1604 H   0  0  0  0  0  0  0  0  0  0  0  0
    0.9314   19.1866  -30.7169 H   0  0  0  0  0  0  0  0  0  0  0  0
   -2.2644   19.5168  -35.1575 H   0  0  0  0  0  0  0  0  0  0  0  0
   -4.7193   19.1770  -34.9044 H   0  0  0  0  0  0  0  0  0  0  0  0
   -7.3650   19.0590  -34.1740 H   0  0  0  0  0  0  0  0  0  0  0  0
   -8.8585   17.7483  -32.7415 H   0  0  0  0  0  0  0  0  0  0  0  0
   -7.8974   18.3411  -31.3351 H   0  0  0  0  0  0  0  0  0  0  0  0
   -9.5942   19.9664  -33.2855 H   0  0  0  0  0  0  0  0  0  0  0  0
   -9.7778   19.7894  -31.4895 H   0  0  0  0  0  0  0  0  0  0  0  0
   -9.8996   22.3376  -31.5997 H   0  0  0  0  0  0  0  0  0  0  0  0
   -8.5168   24.3930  -31.3043 H   0  0  0  0  0  0  0  0  0  0  0  0
   -6.0494   24.3032  -31.6571 H   0  0  0  0  0  0  0  0  0  0  0  0
   -4.9534   22.1584  -32.2995 H   0  0  0  0  0  0  0  0  0  0  0  0
   -5.3205   19.9174  -33.3835 H   0  0  0  0  0  0  0  0  0  0  0  0
   -5.7199   19.3136  -31.7193 H   0  0  0  0  0  0  0  0  0  0  0  0
   -3.9910   15.6945  -32.4417 H   0  0  0  0  0  0  0  0  0  0  0  0
   -1.5343   16.0273  -32.6937 H   0  0  0  0  0  0  0  0  0  0  0  0
  1  2  2  0
  2  3  1  0
  3  4  1  0
  4  5  2  0
  5  6  1  0
  6  7  2  0
  7  8  1  0
  8  9  1  0
  9 10  1  0
 10 11  1  0
 11 12  1  0
 12 13  1  0
  7 14  1  0
 14 15  2  0
  2 16  1  0
 16 17  2  0
 17 18  1  0
 18 19  2  0
 19 20  1  0
 20 21  2  0
 20 22  2  0
 20 23  1  0
 23 24  1  0
 24 25  1  0
 25 26  1  0
 26 27  2  0
 27 28  1  0
 28 29  2  0
 29 30  1  0
 30 31  2  0
 31 32  1  0
 19 33  1  0
 33 34  2  0
 15  4  1  0
 34 16  1  0
 13  8  1  0
 32 23  1  0
 31 26  1  0
  5 35  1  0
  6 36  1  0
  9 37  1  0
  9 38  1  0
 10 39  1  0
 10 40  1  0
 12 41  1  0
 12 42  1  0
 13 43  1  0
 13 44  1  0
 14 45  1  0
 15 46  1  0
 17 47  1  0
 18 48  1  0
 23 49  1  6
 24 50  1  0
 24 51  1  0
 25 52  1  0
 25 53  1  0
 27 54  1  0
 28 55  1  0
 29 56  1  0
 30 57  1  0
 32 58  1  0
 32 59  1  0
 33 60  1  0
 34 61  1  0
M  CHG  2   3  -1  23   1
M  END
>  <UniqueID>  (16) 
15

>  <SMILES>  (16) 
O=C([N-]c1ccc(N2CCOCC2)cc1)c1ccc(S(=O)(=O)[N@H+]2CCc3ccccc3C2)cc1

>  <Energy>  (16) 
84.10958514816228

>  <Genealogy>  (16) 
O=C([N-]c1ccc(N2CCOCC2)cc1)c1ccc(S(=O)(=O)[NH+]2CCc3ccccc3C2)cc1 (protonated)
O=C([N-]c1ccc(N2CCOCC2)cc1)c1ccc(S(=O)(=O)[N@H+]2CCc3ccccc3C2)cc1 (chirality)
O=C([N-]c1ccc(N2CCOCC2)cc1)c1ccc(S(=O)(=O)[N@H+]2CCc3ccccc3C2)cc1 (3D coordinates assigned)
O=C([N-]c1ccc(N2CCOCC2)cc1)c1ccc(S(=O)(=O)[N@H+]2CCc3ccccc3C2)cc1 (nonaromatic ring conformer: 84.10958514816228 kcal/mol)

>  <smiles>  (16) 
O=C(Nc1ccc(N2CCOCC2)cc1)c1ccc(S(=O)(=O)N2CCc3ccccc3C2)cc1

>  <score_type>  (16) 
oracle

>  <origin>  (16) 
adgpu

>  <m_score__min__energy>  (16) 
-12.74

>  <m_primary>  (16) 
energy

$$$$
16:0
     RDKit          3D

 44 46  0  0  0  0  0  0  0  0999 V2000
   -3.2500   18.8410  -25.6940 N   0  0  0  0  0  0  0  0  0  0  0  0
   -2.7470   19.6480  -26.7600 C   0  0  0  0  0  0  0  0  0  0  0  0
   -1.5160   19.3430  -27.3570 C   0  0  0  0  0  0  0  0  0  0  0  0
   -1.0300   20.1280  -28.4060 C   0  0  0  0  0  0  0  0  0  0  0  0
   -1.7680   21.2260  -28.8660 C   0  0  0  0  0  0  0  0  0  0  0  0
   -1.1600   22.1850  -30.2130 S   0  0  0  0  0  0  0  0  0  0  0  0
   -0.5230   23.4550  -29.7210 O   0  0  0  0  0  0  0  0  0  0  0  0
   -0.1340   21.3810  -30.9580 O   0  0  0  0  0  0  0  0  0  0  0  0
   -2.4630   22.5840  -31.2860 N   0  0  0  0  0  0  0  0  0  0  0  0
   -3.7340   23.1200  -30.8860 C   0  0  0  0  0  0  0  0  0  0  0  0
   -4.9440   22.5040  -31.2600 C   0  0  0  0  0  0  0  0  0  0  0  0
   -6.1730   23.0450  -30.8630 C   0  0  0  0  0  0  0  0  0  0  0  0
   -7.6840   22.2810  -31.3710 S   0  0  0  0  0  0  0  0  0  0  0  0
   -8.5060   21.9650  -30.1530 O   0  0  0  0  0  0  0  0  0  0  0  0
   -8.4600   23.2510  -32.2170 O   0  0  0  0  0  0  0  0  0  0  0  0
   -7.4310   20.8090  -32.2780 N   0  0  0  0  0  0  0  0  0  0  0  0
   -6.5080   19.9000  -31.6020 C   0  0  0  0  0  0  0  0  0  0  0  0
   -6.8310   18.5080  -32.1180 C   0  0  0  0  0  0  0  0  0  0  0  0
   -8.2590   18.5950  -32.6350 C   0  0  0  0  0  0  0  0  0  0  0  0
   -8.6670   20.0500  -32.4580 C   0  0  0  0  0  0  0  0  0  0  0  0
   -6.1970   24.2120  -30.0910 C   0  0  0  0  0  0  0  0  0  0  0  0
   -5.0030   24.8290  -29.7130 C   0  0  0  0  0  0  0  0  0  0  0  0
   -3.7720   24.2930  -30.1070 C   0  0  0  0  0  0  0  0  0  0  0  0
   -2.6010   24.9460  -29.7180 O   0  0  0  0  0  0  0  0  0  0  0  0
   -2.9960   21.5360  -28.2650 C   0  0  0  0  0  0  0  0  0  0  0  0
   -3.4850   20.7490  -27.2190 C   0  0  0  0  0  0  0  0  0  0  0  0
   -2.6170   18.2050  -25.1590 H   0  0  0  0  0  0  0  0  0  0  0  0
   -4.2630   18.8600  -25.4370 H   0  0  0  0  0  0  0  0  0  0  0  0
   -0.9308   18.4832  -26.9987 H   0  0  0  0  0  0  0  0  0  0  0  0
   -0.0643   19.8827  -28.8722 H   0  0  0  0  0  0  0  0  0  0  0  0
   -4.9234   21.5889  -31.8700 H   0  0  0  0  0  0  0  0  0  0  0  0
   -5.4677   20.1642  -31.8427 H   0  0  0  0  0  0  0  0  0  0  0  0
   -6.6166   19.9578  -30.5089 H   0  0  0  0  0  0  0  0  0  0  0  0
   -6.1433   18.2285  -32.9298 H   0  0  0  0  0  0  0  0  0  0  0  0
   -6.7237   17.7440  -31.3339 H   0  0  0  0  0  0  0  0  0  0  0  0
   -8.3016   18.3101  -33.6966 H   0  0  0  0  0  0  0  0  0  0  0  0
   -8.9315   17.9136  -32.0933 H   0  0  0  0  0  0  0  0  0  0  0  0
   -9.2045   20.4051  -33.3497 H   0  0  0  0  0  0  0  0  0  0  0  0
   -9.3382   20.1726  -31.5952 H   0  0  0  0  0  0  0  0  0  0  0  0
   -7.1597   24.6446  -29.7810 H   0  0  0  0  0  0  0  0  0  0  0  0
   -5.0302   25.7428  -29.1012 H   0  0  0  0  0  0  0  0  0  0  0  0
   -1.6810   24.5850  -29.9370 H   0  0  0  0  0  0  0  0  0  0  0  0
   -3.5763   22.4013  -28.6179 H   0  0  0  0  0  0  0  0  0  0  0  0
   -4.4515   20.9936  -26.7542 H   0  0  0  0  0  0  0  0  0  0  0  0
  1  2  1  0
  2  3  2  0
  3  4  1  0
  4  5  2  0
  5  6  1  0
  6  7  2  0
  6  8  2  0
  6  9  1  0
  9 10  1  0
 10 11  2  0
 11 12  1  0
 12 13  1  0
 13 14  2  0
 13 15  2  0
 13 16  1  0
 16 17  1  0
 17 18  1  0
 18 19  1  0
 19 20  1  0
 12 21  2  0
 21 22  1  0
 22 23  2  0
 23 24  1  0
  5 25  1  0
 25 26  2  0
 26  2  1  0
 23 10  1  0
 20 16  1  0
  1 27  1  0
  1 28  1  0
  3 29  1  0
  4 30  1  0
 11 31  1  0
 17 32  1  0
 17 33  1  0
 18 34  1  0
 18 35  1  0
 19 36  1  0
 19 37  1  0
 20 38  1  0
 20 39  1  0
 21 40  1  0
 22 41  1  0
 24 42  1  0
 25 43  1  0
 26 44  1  0
M  CHG  1   9  -1
M  END
>  <UniqueID>  (17) 
16

>  <SMILES>  (17) 
Nc1ccc(S(=O)(=O)[N-]c2cc(S(=O)(=O)N3CCCC3)ccc2O)cc1

>  <Energy>  (17) 
47.892164830537865

>  <Genealogy>  (17) 
Nc1ccc(S(=O)(=O)[N-]c2cc(S(=O)(=O)N3CCCC3)ccc2O)cc1 (protonated)
Nc1ccc(S(=O)(=O)[N-]c2cc(S(=O)(=O)N3CCCC3)ccc2O)cc1 (3D coordinates assigned)
Nc1ccc(S(=O)(=O)[N-]c2cc(S(=O)(=O)N3CCCC3)ccc2O)cc1 (nonaromatic ring conformer: 47.892164830537865 kcal/mol)

>  <smiles>  (17) 
Nc1ccc(S(=O)(=O)Nc2cc(S(=O)(=O)N3CCCC3)ccc2O)cc1

>  <score_type>  (17) 
oracle

>  <origin>  (17) 
adgpu

>  <m_score__min__energy>  (17) 
-10.460000000000001

>  <m_primary>  (17) 
energy

$$$$
17:0
     RDKit          3D

 32 34  0  0  0  0  0  0  0  0999 V2000
   -3.4790   25.2980  -30.4660 O   0  0  0  0  0  0  0  0  0  0  0  0
   -4.7750   24.7960  -30.4650 C   0  0  0  0  0  0  0  0  0  0  0  0
   -5.7950   25.5010  -29.8200 C   0  0  0  0  0  0  0  0  0  0  0  0
   -7.0950   24.9920  -29.8090 C   0  0  0  0  0  0  0  0  0  0  0  0
   -7.3810   23.7820  -30.4460 C   0  0  0  0  0  0  0  0  0  0  0  0
   -6.3670   23.0670  -31.1130 C   0  0  0  0  0  0  0  0  0  0  0  0
   -6.6900   21.7780  -31.7780 C   0  0  0  0  0  0  0  0  0  0  0  0
   -8.0070   21.2930  -31.8530 C   0  0  0  0  0  0  0  0  0  0  0  0
   -8.2530   20.0710  -32.4770 C   0  0  0  0  0  0  0  0  0  0  0  0
   -7.2000   19.3380  -33.0220 C   0  0  0  0  0  0  0  0  0  0  0  0
   -5.8900   19.8400  -32.9370 C   0  0  0  0  0  0  0  0  0  0  0  0
   -4.7280   19.0970  -33.4870 C   0  0  0  0  0  0  0  0  0  0  0  0
   -4.8860   17.8500  -34.1200 C   0  0  0  0  0  0  0  0  0  0  0  0
   -3.7790   17.1710  -34.6380 C   0  0  0  0  0  0  0  0  0  0  0  0
   -2.4990   17.7290  -34.5400 C   0  0  0  0  0  0  0  0  0  0  0  0
   -1.3950   17.0530  -35.0550 O   0  0  0  0  0  0  0  0  0  0  0  0
   -2.3310   18.9750  -33.9210 C   0  0  0  0  0  0  0  0  0  0  0  0
   -0.7350   19.6980  -33.7890 Cl  0  0  0  0  0  0  0  0  0  0  0  0
   -3.4390   19.6550  -33.4030 C   0  0  0  0  0  0  0  0  0  0  0  0
   -5.6810   21.0340  -32.3140 N   0  0  0  0  0  0  0  0  0  0  0  0
   -5.0560   23.5850  -31.1070 C   0  0  0  0  0  0  0  0  0  0  0  0
   -5.5737   26.4562  -29.3214 H   0  0  0  0  0  0  0  0  0  0  0  0
   -7.8963   25.5453  -29.2973 H   0  0  0  0  0  0  0  0  0  0  0  0
   -8.4064   23.3843  -30.4266 H   0  0  0  0  0  0  0  0  0  0  0  0
   -8.8368   21.8729  -31.4228 H   0  0  0  0  0  0  0  0  0  0  0  0
   -9.2808   19.6841  -32.5395 H   0  0  0  0  0  0  0  0  0  0  0  0
   -7.3929   18.3738  -33.5150 H   0  0  0  0  0  0  0  0  0  0  0  0
   -5.8885   17.4060  -34.2079 H   0  0  0  0  0  0  0  0  0  0  0  0
   -3.9145   16.1939  -35.1247 H   0  0  0  0  0  0  0  0  0  0  0  0
   -1.2620   16.9360  -36.0530 H   0  0  0  0  0  0  0  0  0  0  0  0
   -3.3008   20.6361  -32.9251 H   0  0  0  0  0  0  0  0  0  0  0  0
   -4.2484   23.0334  -31.6105 H   0  0  0  0  0  0  0  0  0  0  0  0
  1  2  1  0
  2  3  2  0
  3  4  1  0
  4  5  2  0
  5  6  1  0
  6  7  1  0
  7  8  2  0
  8  9  1  0
  9 10  2  0
 10 11  1  0
 11 12  1  0
 12 13  2  0
 13 14  1  0
 14 15  2  0
 15 16  1  0
 15 17  1  0
 17 18  1  0
 17 19  2  0
 11 20  2  0
  6 21  2  0
 21  2  1  0
 20  7  1  0
 19 12  1  0
  3 22  1  0
  4 23  1  0
  5 24  1  0
  8 25  1  0
  9 26  1  0
 10 27  1  0
 13 28  1  0
 14 29  1  0
 16 30  1  0
 19 31  1  0
 21 32  1  0
M  CHG  1   1  -1
M  END
>  <UniqueID>  (18) 
17

>  <SMILES>  (18) 
[O-]c1cccc(-c2cccc(-c3ccc(O)c(Cl)c3)n2)c1

>  <Energy>  (18) 
43.34129277016287

>  <Genealogy>  (18) 
[O-]c1cccc(-c2cccc(-c3ccc(O)c(Cl)c3)n2)c1 (protonated)
[O-]c1cccc(-c2cccc(-c3ccc(O)c(Cl)c3)n2)c1 (3D coordinates assigned)
[O-]c1cccc(-c2cccc(-c3ccc(O)c(Cl)c3)n2)c1 (optimized conformer: 43.34129277016287 kcal/mol)

>  <smiles>  (18) 
Oc1cccc(-c2cccc(-c3ccc(O)c(Cl)c3)n2)c1

>  <score_type>  (18) 
oracle

>  <origin>  (18) 
adgpu

>  <m_score__min__energy>  (18) 
-10.960000000000001

>  <m_primary>  (18) 
energy

$$$$
18:0
     RDKit          3D

 44 46  0  0  0  0  0  0  0  0999 V2000
   -3.0200   25.2880  -26.2480 C   0  0  0  0  0  0  0  0  0  0  0  0
   -2.1630   24.9480  -27.4620 C   0  0  0  0  0  0  0  0  0  0  0  0
   -3.0230   24.5690  -28.6230 C   0  0  0  0  0  0  0  0  0  0  0  0
   -3.7610   23.4440  -28.6770 N   0  0  0  0  0  0  0  0  0  0  0  0
   -4.3160   23.5500  -29.9040 C   0  0  0  0  0  0  0  0  0  0  0  0
   -5.2410   22.5480  -30.4790 C   0  0  0  0  0  0  0  0  0  0  0  0
   -4.7790   21.6010  -31.4090 C   0  0  0  0  0  0  0  0  0  0  0  0
   -5.6550   20.6560  -31.9510 C   0  0  0  0  0  0  0  0  0  0  0  0
   -7.0010   20.6410  -31.5680 C   0  0  0  0  0  0  0  0  0  0  0  0
   -8.0990   19.4560  -32.2760 S   0  0  0  0  0  0  0  0  0  0  0  0
   -8.8090   20.0570  -33.4580 O   0  0  0  0  0  0  0  0  0  0  0  0
   -9.1250   19.0740  -31.2450 O   0  0  0  0  0  0  0  0  0  0  0  0
   -7.2040   18.0410  -32.7710 N   0  0  0  0  0  0  0  0  0  0  0  0
   -6.4820   18.3070  -34.0390 C   0  0  0  0  0  0  0  0  0  0  0  0
   -5.1750   17.4950  -34.1790 C   0  0  0  0  0  0  0  0  0  0  0  0
   -5.2390   16.1880  -33.4980 N   0  0  0  0  0  0  0  0  0  0  0  0
   -6.0840   15.2270  -34.2260 C   0  0  0  0  0  0  0  0  0  0  0  0
   -5.5990   16.2930  -32.0610 C   0  0  0  0  0  0  0  0  0  0  0  0
   -6.2890   17.6220  -31.6960 C   0  0  0  0  0  0  0  0  0  0  0  0
   -7.4700   21.5850  -30.6460 C   0  0  0  0  0  0  0  0  0  0  0  0
   -6.5960   22.5330  -30.1030 C   0  0  0  0  0  0  0  0  0  0  0  0
   -3.9280   24.6690  -30.5490 N   0  0  0  0  0  0  0  0  0  0  0  0
   -3.1270   25.2710  -29.7240 O   0  0  0  0  0  0  0  0  0  0  0  0
   -2.4584   25.0652  -25.3288 H   0  0  0  0  0  0  0  0  0  0  0  0
   -3.2788   26.3569  -26.2696 H   0  0  0  0  0  0  0  0  0  0  0  0
   -3.9412   24.6872  -26.2696 H   0  0  0  0  0  0  0  0  0  0  0  0
   -1.5558   25.8243  -27.7327 H   0  0  0  0  0  0  0  0  0  0  0  0
   -1.5125   24.0975  -27.2099 H   0  0  0  0  0  0  0  0  0  0  0  0
   -3.7216   21.6034  -31.7123 H   0  0  0  0  0  0  0  0  0  0  0  0
   -5.2850   19.9214  -32.6813 H   0  0  0  0  0  0  0  0  0  0  0  0
   -7.9080   17.2820  -32.9250 H   0  0  0  0  0  0  0  0  0  0  0  0
   -7.1445   18.0501  -34.8787 H   0  0  0  0  0  0  0  0  0  0  0  0
   -6.2061   19.3718  -34.0401 H   0  0  0  0  0  0  0  0  0  0  0  0
   -4.9794   17.3252  -35.2481 H   0  0  0  0  0  0  0  0  0  0  0  0
   -4.3709   18.0768  -33.7048 H   0  0  0  0  0  0  0  0  0  0  0  0
   -6.6331   14.6025  -33.5059 H   0  0  0  0  0  0  0  0  0  0  0  0
   -6.7996   15.7733  -34.8580 H   0  0  0  0  0  0  0  0  0  0  0  0
   -5.4506   14.5871  -34.8580 H   0  0  0  0  0  0  0  0  0  0  0  0
   -6.2808   15.4666  -31.8115 H   0  0  0  0  0  0  0  0  0  0  0  0
   -4.6611   16.2472  -31.4881 H   0  0  0  0  0  0  0  0  0  0  0  0
   -6.8605   17.4894  -30.7655 H   0  0  0  0  0  0  0  0  0  0  0  0
   -5.5198   18.3968  -31.5618 H   0  0  0  0  0  0  0  0  0  0  0  0
   -8.5288   21.5811  -30.3478 H   0  0  0  0  0  0  0  0  0  0  0  0
   -6.9707   23.2706  -29.3781 H   0  0  0  0  0  0  0  0  0  0  0  0
  1  2  1  0
  2  3  1  0
  3  4  2  0
  4  5  1  0
  5  6  1  0
  6  7  2  0
  7  8  1  0
  8  9  2  0
  9 10  1  0
 10 11  2  0
 10 12  2  0
 10 13  1  0
 13 14  1  0
 14 15  1  0
 15 16  1  0
 16 17  1  0
 16 18  1  0
 18 19  1  0
  9 20  1  0
 20 21  2  0
  5 22  2  0
 22 23  1  0
 23  3  1  0
 21  6  1  0
 19 13  1  0
  1 24  1  0
  1 25  1  0
  1 26  1  0
  2 27  1  0
  2 28  1  0
  7 29  1  0
  8 30  1  0
 13 31  1  0
 14 32  1  0
 14 33  1  0
 15 34  1  0
 15 35  1  0
 17 36  1  0
 17 37  1  0
 17 38  1  0
 18 39  1  0
 18 40  1  0
 19 41  1  0
 19 42  1  0
 20 43  1  0
 21 44  1  0
M  CHG  1  13   1
M  END
>  <UniqueID>  (19) 
18

>  <SMILES>  (19) 
CCc1nc(-c2ccc(S(=O)(=O)[NH+]3CCN(C)CC3)cc2)no1

>  <Energy>  (19) 
84.0076052333559

>  <Genealogy>  (19) 
CCc1nc(-c2ccc(S(=O)(=O)[NH+]3CCN(C)CC3)cc2)no1 (protonated)
CCc1nc(-c2ccc(S(=O)(=O)[NH+]3CCN(C)CC3)cc2)no1 (3D coordinates assigned)
CCc1nc(-c2ccc(S(=O)(=O)[NH+]3CCN(C)CC3)cc2)no1 (nonaromatic ring conformer: 84.0076052333559 kcal/mol)

>  <smiles>  (19) 
CCc1nc(-c2ccc(S(=O)(=O)N3CCN(C)CC3)cc2)no1

>  <score_type>  (19) 
oracle

>  <origin>  (19) 
adgpu

>  <m_score__min__energy>  (19) 
-7.9800000000000004

>  <m_primary>  (19) 
energy

$$$$
19:0
     RDKit          3D

 37 38  0  0  0  0  0  0  0  0999 V2000
   -7.2350   19.5460  -32.8780 C   0  0  0  0  0  0  0  0  0  0  0  0
   -7.9680   20.6680  -32.2770 N   0  0  0  0  0  0  0  0  0  0  0  0
   -9.4110   20.5290  -32.0450 C   0  0  0  0  0  0  0  0  0  0  0  0
   -7.2760   21.8940  -31.9190 C   0  0  0  0  0  0  0  0  0  0  0  0
   -5.9570   22.1340  -32.3560 C   0  0  0  0  0  0  0  0  0  0  0  0
   -5.2920   23.3140  -32.0090 C   0  0  0  0  0  0  0  0  0  0  0  0
   -5.9270   24.2820  -31.2230 C   0  0  0  0  0  0  0  0  0  0  0  0
   -5.1950   25.5380  -30.8370 C   0  0  0  0  0  0  0  0  0  0  0  0
   -3.9260   25.2060  -30.1940 N   0  0  0  0  0  0  0  0  0  0  0  0
   -3.8250   24.2180  -29.1560 C   0  0  0  0  0  0  0  0  0  0  0  0
   -4.8370   23.5350  -28.8400 O   0  0  0  0  0  0  0  0  0  0  0  0
   -2.5370   23.9610  -28.4740 C   0  0  0  0  0  0  0  0  0  0  0  0
   -2.4020   22.8140  -27.6710 C   0  0  0  0  0  0  0  0  0  0  0  0
   -1.1940   22.5400  -27.0240 C   0  0  0  0  0  0  0  0  0  0  0  0
   -0.1120   23.4100  -27.1610 C   0  0  0  0  0  0  0  0  0  0  0  0
   -0.2390   24.5630  -27.9390 C   0  0  0  0  0  0  0  0  0  0  0  0
   -1.4450   24.8500  -28.5880 C   0  0  0  0  0  0  0  0  0  0  0  0
   -1.5550   26.0310  -29.3150 O   0  0  0  0  0  0  0  0  0  0  0  0
   -7.2370   24.0540  -30.7800 C   0  0  0  0  0  0  0  0  0  0  0  0
   -7.9050   22.8760  -31.1240 C   0  0  0  0  0  0  0  0  0  0  0  0
   -6.8199   18.9106  -32.0817 H   0  0  0  0  0  0  0  0  0  0  0  0
   -7.9200   18.9523  -33.5012 H   0  0  0  0  0  0  0  0  0  0  0  0
   -6.4162   19.9348  -33.5012 H   0  0  0  0  0  0  0  0  0  0  0  0
   -9.6083   20.5100  -30.9630 H   0  0  0  0  0  0  0  0  0  0  0  0
   -9.9391   21.3804  -32.4991 H   0  0  0  0  0  0  0  0  0  0  0  0
   -9.7668   19.5924  -32.4991 H   0  0  0  0  0  0  0  0  0  0  0  0
   -5.4452   21.3841  -32.9771 H   0  0  0  0  0  0  0  0  0  0  0  0
   -4.2620   23.4826  -32.3565 H   0  0  0  0  0  0  0  0  0  0  0  0
   -4.9995   26.1362  -31.7392 H   0  0  0  0  0  0  0  0  0  0  0  0
   -5.8147   26.1119  -30.1323 H   0  0  0  0  0  0  0  0  0  0  0  0
   -3.0590   25.6600  -30.5610 H   0  0  0  0  0  0  0  0  0  0  0  0
   -3.2534   22.1278  -27.5515 H   0  0  0  0  0  0  0  0  0  0  0  0
   -1.0960   21.6360  -26.4051 H   0  0  0  0  0  0  0  0  0  0  0  0
    0.8401   23.1881  -26.6568 H   0  0  0  0  0  0  0  0  0  0  0  0
    0.6142   25.2496  -28.0422 H   0  0  0  0  0  0  0  0  0  0  0  0
   -7.7424   24.8071  -30.1576 H   0  0  0  0  0  0  0  0  0  0  0  0
   -8.9338   22.7119  -30.7709 H   0  0  0  0  0  0  0  0  0  0  0  0
  1  2  1  0
  2  3  1  0
  2  4  1  0
  4  5  2  0
  5  6  1  0
  6  7  2  0
  7  8  1  0
  8  9  1  0
  9 10  1  0
 10 11  2  0
 10 12  1  0
 12 13  2  0
 13 14  1  0
 14 15  2  0
 15 16  1  0
 16 17  2  0
 17 18  1  0
  7 19  1  0
 19 20  2  0
 20  4  1  0
 17 12  1  0
  1 21  1  0
  1 22  1  0
  1 23  1  0
  3 24  1  0
  3 25  1  0
  3 26  1  0
  5 27  1  0
  6 28  1  0
  8 29  1  0
  8 30  1  0
  9 31  1  0
 13 32  1  0
 14 33  1  0
 15 34  1  0
 16 35  1  0
 19 36  1  0
 20 37  1  0
M  CHG  1  18  -1
M  END
>  <UniqueID>  (20) 
19

>  <SMILES>  (20) 
CN(C)c1ccc(CNC(=O)c2ccccc2[O-])cc1

>  <Energy>  (20) 
40.810253919233325

>  <Genealogy>  (20) 
CN(C)c1ccc(CNC(=O)c2ccccc2[O-])cc1 (protonated)
CN(C)c1ccc(CNC(=O)c2ccccc2[O-])cc1 (3D coordinates assigned)
CN(C)c1ccc(CNC(=O)c2ccccc2[O-])cc1 (optimized conformer: 40.810253919233325 kcal/mol)

>  <smiles>  (20) 
CN(C)c1ccc(CNC(=O)c2ccccc2O)cc1

>  <score_type>  (20) 
oracle

>  <origin>  (20) 
adgpu

>  <m_score__min__energy>  (20) 
-10.43

>  <m_primary>  (20) 
energy

$$$$
20:0
     RDKit          3D

 50 52  0  0  0  0  0  0  0  0999 V2000
   -0.6630   20.1760  -32.0400 N   0  0  0  0  0  0  0  0  0  0  0  0
   -1.4330   19.6440  -33.4920 S   0  0  0  0  0  0  0  0  0  0  0  0
   -1.0570   20.5610  -34.6230 O   0  0  0  0  0  0  0  0  0  0  0  0
   -0.9750   18.2520  -33.8270 O   0  0  0  0  0  0  0  0  0  0  0  0
   -3.1790   19.6590  -33.2680 C   0  0  0  0  0  0  0  0  0  0  0  0
   -3.9250   20.7950  -33.6060 C   0  0  0  0  0  0  0  0  0  0  0  0
   -5.3100   20.8110  -33.4140 C   0  0  0  0  0  0  0  0  0  0  0  0
   -5.9650   19.6860  -32.8870 C   0  0  0  0  0  0  0  0  0  0  0  0
   -7.4460   19.7180  -32.6460 C   0  0  0  0  0  0  0  0  0  0  0  0
   -7.6950   20.0430  -31.2440 N   0  0  0  0  0  0  0  0  0  0  0  0
   -8.2040   21.6970  -31.1030 S   0  0  0  0  0  0  0  0  0  0  0  0
   -9.0710   21.8430  -29.8850 O   0  0  0  0  0  0  0  0  0  0  0  0
   -9.0110   22.0880  -32.3100 O   0  0  0  0  0  0  0  0  0  0  0  0
   -6.8020   22.7520  -30.9420 C   0  0  0  0  0  0  0  0  0  0  0  0
   -6.9750   24.1400  -30.9040 C   0  0  0  0  0  0  0  0  0  0  0  0
   -5.8700   24.9810  -30.7590 C   0  0  0  0  0  0  0  0  0  0  0  0
   -4.5840   24.4430  -30.6440 C   0  0  0  0  0  0  0  0  0  0  0  0
   -3.5020   25.3040  -30.5060 O   0  0  0  0  0  0  0  0  0  0  0  0
   -4.4000   23.0480  -30.6700 C   0  0  0  0  0  0  0  0  0  0  0  0
   -2.7890   22.3270  -30.5240 S   0  0  0  0  0  0  0  0  0  0  0  0
   -2.2100   22.1420  -31.9000 O   0  0  0  0  0  0  0  0  0  0  0  0
   -2.8970   20.9700  -29.8880 O   0  0  0  0  0  0  0  0  0  0  0  0
   -1.7110   23.3250  -29.5800 N   0  0  0  0  0  0  0  0  0  0  0  0
   -2.3850   23.8080  -28.3660 C   0  0  0  0  0  0  0  0  0  0  0  0
   -1.4070   24.6370  -27.5070 C   0  0  0  0  0  0  0  0  0  0  0  0
   -0.1270   24.7260  -28.1050 O   0  0  0  0  0  0  0  0  0  0  0  0
    0.4020   23.4280  -28.2960 C   0  0  0  0  0  0  0  0  0  0  0  0
   -0.4960   22.5780  -29.2190 C   0  0  0  0  0  0  0  0  0  0  0  0
   -5.5160   22.2090  -30.8180 C   0  0  0  0  0  0  0  0  0  0  0  0
   -5.2120   18.5570  -32.5280 C   0  0  0  0  0  0  0  0  0  0  0  0
   -3.8270   18.5430  -32.7200 C   0  0  0  0  0  0  0  0  0  0  0  0
   -1.4050   20.2490  -31.3090 H   0  0  0  0  0  0  0  0  0  0  0  0
   -0.3150   21.1450  -32.2160 H   0  0  0  0  0  0  0  0  0  0  0  0
   -3.4195   21.6780  -34.0241 H   0  0  0  0  0  0  0  0  0  0  0  0
   -5.8890   21.7086  -33.6769 H   0  0  0  0  0  0  0  0  0  0  0  0
   -7.9074   20.4821  -33.2888 H   0  0  0  0  0  0  0  0  0  0  0  0
   -7.8812   18.7356  -32.8817 H   0  0  0  0  0  0  0  0  0  0  0  0
   -7.9841   24.5696  -30.9886 H   0  0  0  0  0  0  0  0  0  0  0  0
   -6.0114   26.0716  -30.7351 H   0  0  0  0  0  0  0  0  0  0  0  0
   -3.2408   24.4373  -28.6516 H   0  0  0  0  0  0  0  0  0  0  0  0
   -2.7327   22.9439  -27.7808 H   0  0  0  0  0  0  0  0  0  0  0  0
   -1.8136   25.6516  -27.3837 H   0  0  0  0  0  0  0  0  0  0  0  0
   -1.2958   24.1345  -26.5348 H   0  0  0  0  0  0  0  0  0  0  0  0
    1.4007   23.5128  -28.7492 H   0  0  0  0  0  0  0  0  0  0  0  0
    0.4558   22.9311  -27.3161 H   0  0  0  0  0  0  0  0  0  0  0  0
    0.0600   22.3258  -30.1340 H   0  0  0  0  0  0  0  0  0  0  0  0
   -0.7859   21.6591  -28.6883 H   0  0  0  0  0  0  0  0  0  0  0  0
   -5.3800   21.1176  -30.8368 H   0  0  0  0  0  0  0  0  0  0  0  0
   -5.7136   17.6796  -32.0938 H   0  0  0  0  0  0  0  0  0  0  0  0
   -3.2438   17.6533  -32.4401 H   0  0  0  0  0  0  0  0  0  0  0  0
  1  2  1  0
  2  3  2  0
  2  4  2  0
  2  5  1  0
  5  6  2  0
  6  7  1  0
  7  8  2  0
  8  9  1  0
  9 10  1  0
 10 11  1  0
 11 12  2  0
 11 13  2  0
 11 14  1  0
 14 15  2  0
 15 16  1  0
 16 17  2  0
 17 18  1  0
 17 19  1  0
 19 20  1  0
 20 21  2  0
 20 22  2  0
 20 23  1  0
 23 24  1  0
 24 25  1  0
 25 26  1  0
 26 27  1  0
 27 28  1  0
 19 29  2  0
  8 30  1  0
 30 31  2  0
 31  5  1  0
 29 14  1  0
 28 23  1  0
  1 32  1  0
  1 33  1  0
  6 34  1  0
  7 35  1  0
  9 36  1  0
  9 37  1  0
 15 38  1  0
 16 39  1  0
 24 40  1  0
 24 41  1  0
 25 42  1  0
 25 43  1  0
 27 44  1  0
 27 45  1  0
 28 46  1  0
 28 47  1  0
 29 48  1  0
 30 49  1  0
 31 50  1  0
M  CHG  2  10  -1  18  -1
M  END
>  <UniqueID>  (21) 
20

>  <SMILES>  (21) 
NS(=O)(=O)c1ccc(C[N-]S(=O)(=O)c2ccc([O-])c(S(=O)(=O)N3CCOCC3)c2)cc1

>  <Energy>  (21) 
55.53931947874958

>  <Genealogy>  (21) 
NS(=O)(=O)c1ccc(C[N-]S(=O)(=O)c2ccc([O-])c(S(=O)(=O)N3CCOCC3)c2)cc1 (protonated)
NS(=O)(=O)c1ccc(C[N-]S(=O)(=O)c2ccc([O-])c(S(=O)(=O)N3CCOCC3)c2)cc1 (3D coordinates assigned)
NS(=O)(=O)c1ccc(C[N-]S(=O)(=O)c2ccc([O-])c(S(=O)(=O)N3CCOCC3)c2)cc1 (nonaromatic ring conformer: 55.53931947874958 kcal/mol)

>  <smiles>  (21) 
NS(=O)(=O)c1ccc(CNS(=O)(=O)c2ccc(O)c(S(=O)(=O)N3CCOCC3)c2)cc1

>  <score_type>  (21) 
oracle

>  <origin>  (21) 
adgpu

>  <m_score__min__energy>  (21) 
-11.93

>  <m_primary>  (21) 
energy

$$$$
21:0
     RDKit          3D

 35 37  0  0  0  0  0  0  0  0999 V2000
   -0.8500   17.7740  -27.0960 O   0  0  0  0  0  0  0  0  0  0  0  0
    0.2520   18.1560  -27.5800 C   0  0  0  0  0  0  0  0  0  0  0  0
    0.4590   19.5510  -27.8770 N   0  0  0  0  0  0  0  0  0  0  0  0
   -0.5620   20.5540  -27.7570 C   0  0  0  0  0  0  0  0  0  0  0  0
   -1.8280   20.3890  -28.3460 C   0  0  0  0  0  0  0  0  0  0  0  0
   -2.7960   21.3920  -28.2360 C   0  0  0  0  0  0  0  0  0  0  0  0
   -2.5070   22.5850  -27.5560 C   0  0  0  0  0  0  0  0  0  0  0  0
   -3.5580   23.6490  -27.4040 C   0  0  0  0  0  0  0  0  0  0  0  0
   -4.0080   24.1250  -28.7500 C   0  0  0  0  0  0  0  0  0  0  0  0
   -5.4550   23.6940  -29.4980 S   0  0  0  0  0  0  0  0  0  0  0  0
   -5.0810   24.5470  -30.8970 C   0  0  0  0  0  0  0  0  0  0  0  0
   -5.8310   24.6200  -31.9040 O   0  0  0  0  0  0  0  0  0  0  0  0
   -3.8760   25.1500  -30.8330 N   0  0  0  0  0  0  0  0  0  0  0  0
   -3.2750   24.9090  -29.6390 C   0  0  0  0  0  0  0  0  0  0  0  0
   -2.0140   25.4140  -29.3410 O   0  0  0  0  0  0  0  0  0  0  0  0
   -1.2390   22.7560  -26.9790 C   0  0  0  0  0  0  0  0  0  0  0  0
   -0.2710   21.7540  -27.0910 C   0  0  0  0  0  0  0  0  0  0  0  0
    1.3140   17.1500  -27.8230 C   0  0  0  0  0  0  0  0  0  0  0  0
    2.2900   17.3920  -28.8080 C   0  0  0  0  0  0  0  0  0  0  0  0
    3.2980   16.4540  -29.0540 C   0  0  0  0  0  0  0  0  0  0  0  0
    3.3370   15.2620  -28.3290 C   0  0  0  0  0  0  0  0  0  0  0  0
    2.3650   15.0030  -27.3590 C   0  0  0  0  0  0  0  0  0  0  0  0
    1.3560   15.9380  -27.1070 C   0  0  0  0  0  0  0  0  0  0  0  0
    1.4120   19.8780  -28.1480 H   0  0  0  0  0  0  0  0  0  0  0  0
   -2.0584   19.4651  -28.8968 H   0  0  0  0  0  0  0  0  0  0  0  0
   -3.7894   21.2451  -28.6849 H   0  0  0  0  0  0  0  0  0  0  0  0
   -4.4186   23.2347  -26.8584 H   0  0  0  0  0  0  0  0  0  0  0  0
   -3.1334   24.4967  -26.8462 H   0  0  0  0  0  0  0  0  0  0  0  0
   -1.0058   23.6836  -26.4357 H   0  0  0  0  0  0  0  0  0  0  0  0
    0.7266   21.9075  -26.6536 H   0  0  0  0  0  0  0  0  0  0  0  0
    2.2598   18.3258  -29.3886 H   0  0  0  0  0  0  0  0  0  0  0  0
    4.0611   16.6561  -29.8200 H   0  0  0  0  0  0  0  0  0  0  0  0
    4.1324   14.5269  -28.5211 H   0  0  0  0  0  0  0  0  0  0  0  0
    2.3936   14.0609  -26.7919 H   0  0  0  0  0  0  0  0  0  0  0  0
    0.5911   15.7256  -26.3455 H   0  0  0  0  0  0  0  0  0  0  0  0
  1  2  2  0
  2  3  1  0
  3  4  1  0
  4  5  2  0
  5  6  1  0
  6  7  2  0
  7  8  1  0
  8  9  1  0
  9 10  1  0
 10 11  1  0
 11 12  2  0
 11 13  1  0
 13 14  1  0
 14 15  1  0
  7 16  1  0
 16 17  2  0
  2 18  1  0
 18 19  2  0
 19 20  1  0
 20 21  2  0
 21 22  1  0
 22 23  2  0
 17  4  1  0
 23 18  1  0
 14  9  2  0
  3 24  1  0
  5 25  1  0
  6 26  1  0
  8 27  1  0
  8 28  1  0
 16 29  1  0
 17 30  1  0
 19 31  1  0
 20 32  1  0
 21 33  1  0
 22 34  1  0
 23 35  1  0
M  CHG  2  13  -1  15  -1
M  END
>  <UniqueID>  (22) 
21

>  <SMILES>  (22) 
O=C(Nc1ccc(Cc2sc(=O)[n-]c2[O-])cc1)c1ccccc1

>  <Energy>  (22) 
73.8402093591173

>  <Genealogy>  (22) 
O=C(Nc1ccc(Cc2sc(=O)[n-]c2[O-])cc1)c1ccccc1 (protonated)
O=C(Nc1ccc(Cc2sc(=O)[n-]c2[O-])cc1)c1ccccc1 (3D coordinates assigned)
O=C(Nc1ccc(Cc2sc(=O)[n-]c2[O-])cc1)c1ccccc1 (optimized conformer: 73.8402093591173 kcal/mol)

>  <smiles>  (22) 
O=C(Nc1ccc(Cc2sc(=O)[nH]c2O)cc1)c1ccccc1

>  <score_type>  (22) 
oracle

>  <origin>  (22) 
adgpu

>  <m_score__min__energy>  (22) 
-11.41

>  <m_primary>  (22) 
energy

$$$$
22:0
     RDKit          3D

 41 43  0  0  0  0  0  0  0  0999 V2000
   -2.1610   23.6380  -30.0650 N   0  0  0  0  0  0  0  0  0  0  0  0
   -2.1100   24.2630  -28.7760 C   0  0  0  0  0  0  0  0  0  0  0  0
   -0.8690   24.6820  -28.2700 C   0  0  0  0  0  0  0  0  0  0  0  0
   -0.7780   25.2560  -27.0000 C   0  0  0  0  0  0  0  0  0  0  0  0
   -1.9240   25.4200  -26.2230 C   0  0  0  0  0  0  0  0  0  0  0  0
   -3.1660   25.0150  -26.7150 C   0  0  0  0  0  0  0  0  0  0  0  0
   -3.2750   24.4300  -27.9910 C   0  0  0  0  0  0  0  0  0  0  0  0
   -4.5690   24.0750  -28.5050 N   0  0  0  0  0  0  0  0  0  0  0  0
   -4.9420   24.2710  -29.8800 C   0  0  0  0  0  0  0  0  0  0  0  0
   -4.2730   25.0620  -30.6000 O   0  0  0  0  0  0  0  0  0  0  0  0
   -6.1260   23.5870  -30.4550 C   0  0  0  0  0  0  0  0  0  0  0  0
   -6.8890   22.6890  -29.6880 C   0  0  0  0  0  0  0  0  0  0  0  0
   -8.0000   22.0480  -30.2420 C   0  0  0  0  0  0  0  0  0  0  0  0
   -8.3630   22.2850  -31.5770 C   0  0  0  0  0  0  0  0  0  0  0  0
   -9.5730   21.6180  -32.1720 C   0  0  0  0  0  0  0  0  0  0  0  0
   -9.2010   20.3450  -32.7800 N   0  0  0  0  0  0  0  0  0  0  0  0
   -8.2300   19.4530  -32.2220 C   0  0  0  0  0  0  0  0  0  0  0  0
   -8.5630   18.6300  -31.3280 O   0  0  0  0  0  0  0  0  0  0  0  0
   -6.8390   19.4990  -32.6900 C   0  0  0  0  0  0  0  0  0  0  0  0
   -6.2990   18.7410  -33.7240 C   0  0  0  0  0  0  0  0  0  0  0  0
   -4.9410   18.9950  -33.9440 C   0  0  0  0  0  0  0  0  0  0  0  0
   -4.4180   19.9510  -33.0850 C   0  0  0  0  0  0  0  0  0  0  0  0
   -2.6140   20.5690  -33.0680 Br  0  0  0  0  0  0  0  0  0  0  0  0
   -5.6310   20.4830  -32.0510 S   0  0  0  0  0  0  0  0  0  0  0  0
   -7.6020   23.1750  -32.3480 C   0  0  0  0  0  0  0  0  0  0  0  0
   -6.4900   23.8160  -31.7940 C   0  0  0  0  0  0  0  0  0  0  0  0
   -1.6140   22.7780  -30.2870 H   0  0  0  0  0  0  0  0  0  0  0  0
   -2.7020   24.0760  -30.8440 H   0  0  0  0  0  0  0  0  0  0  0  0
    0.0387   24.5572  -28.8787 H   0  0  0  0  0  0  0  0  0  0  0  0
    0.1993   25.5792  -26.6122 H   0  0  0  0  0  0  0  0  0  0  0  0
   -1.8494   25.8689  -25.2215 H   0  0  0  0  0  0  0  0  0  0  0  0
   -4.0675   25.1541  -26.1003 H   0  0  0  0  0  0  0  0  0  0  0  0
   -5.2850   23.7070  -27.8390 H   0  0  0  0  0  0  0  0  0  0  0  0
   -6.6089   22.4895  -28.6431 H   0  0  0  0  0  0  0  0  0  0  0  0
   -8.5934   21.3539  -29.6287 H   0  0  0  0  0  0  0  0  0  0  0  0
  -10.3150   21.4389  -31.3800 H   0  0  0  0  0  0  0  0  0  0  0  0
   -9.9990   22.2735  -32.9458 H   0  0  0  0  0  0  0  0  0  0  0  0
   -6.8814   18.0147  -34.3099 H   0  0  0  0  0  0  0  0  0  0  0  0
   -4.3479   18.4882  -34.7194 H   0  0  0  0  0  0  0  0  0  0  0  0
   -7.8813   23.3699  -33.3940 H   0  0  0  0  0  0  0  0  0  0  0  0
   -5.8946   24.5054  -32.4107 H   0  0  0  0  0  0  0  0  0  0  0  0
  1  2  1  0
  2  3  2  0
  3  4  1  0
  4  5  2  0
  5  6  1  0
  6  7  2  0
  7  8  1  0
  8  9  1  0
  9 10  2  0
  9 11  1  0
 11 12  2  0
 12 13  1  0
 13 14  2  0
 14 15  1  0
 15 16  1  0
 16 17  1  0
 17 18  2  0
 17 19  1  0
 19 20  2  0
 20 21  1  0
 21 22  2  0
 22 23  1  0
 22 24  1  0
 14 25  1  0
 25 26  2  0
  7  2  1  0
 26 11  1  0
 24 19  1  0
  1 27  1  0
  1 28  1  0
  3 29  1  0
  4 30  1  0
  5 31  1  0
  6 32  1  0
  8 33  1  0
 12 34  1  0
 13 35  1  0
 15 36  1  0
 15 37  1  0
 20 38  1  0
 21 39  1  0
 25 40  1  0
 26 41  1  0
M  CHG  1  16  -1
M  END
>  <UniqueID>  (23) 
22

>  <SMILES>  (23) 
Nc1ccccc1NC(=O)c1ccc(C[N-]C(=O)c2ccc(Br)s2)cc1

>  <Energy>  (23) 
73.4098701200141

>  <Genealogy>  (23) 
Nc1ccccc1NC(=O)c1ccc(C[N-]C(=O)c2ccc(Br)s2)cc1 (protonated)
Nc1ccccc1NC(=O)c1ccc(C[N-]C(=O)c2ccc(Br)s2)cc1 (3D coordinates assigned)
Nc1ccccc1NC(=O)c1ccc(C[N-]C(=O)c2ccc(Br)s2)cc1 (optimized conformer: 73.4098701200141 kcal/mol)

>  <smiles>  (23) 
Nc1ccccc1NC(=O)c1ccc(CNC(=O)c2ccc(Br)s2)cc1

>  <score_type>  (23) 
oracle

>  <origin>  (23) 
adgpu

>  <m_score__min__energy>  (23) 
-10.08

>  <m_primary>  (23) 
energy

$$$$
23:0
     RDKit          3D

 41 43  0  0  0  0  0  0  0  0999 V2000
   -6.9180   16.4280  -33.3900 C   0  0  0  0  0  0  0  0  0  0  0  0
   -6.2650   17.7860  -33.3780 C   0  0  0  0  0  0  0  0  0  0  0  0
   -4.9510   17.9220  -33.8540 C   0  0  0  0  0  0  0  0  0  0  0  0
   -4.3190   19.1660  -33.8510 C   0  0  0  0  0  0  0  0  0  0  0  0
   -4.9910   20.3040  -33.3770 C   0  0  0  0  0  0  0  0  0  0  0  0
   -4.3570   21.5960  -33.3570 N   0  0  0  0  0  0  0  0  0  0  0  0
   -4.0090   22.3010  -32.1540 C   0  0  0  0  0  0  0  0  0  0  0  0
   -2.8360   22.0060  -31.5330 N   0  0  0  0  0  0  0  0  0  0  0  0
   -2.4540   22.6390  -30.3900 C   0  0  0  0  0  0  0  0  0  0  0  0
   -1.0170   22.2150  -29.7010 S   0  0  0  0  0  0  0  0  0  0  0  0
   -3.2680   23.5920  -29.8260 N   0  0  0  0  0  0  0  0  0  0  0  0
   -2.8780   24.2840  -28.6230 C   0  0  0  0  0  0  0  0  0  0  0  0
   -3.6930   24.2300  -27.4820 C   0  0  0  0  0  0  0  0  0  0  0  0
   -3.3170   24.9060  -26.3170 C   0  0  0  0  0  0  0  0  0  0  0  0
   -2.1270   25.6410  -26.2870 C   0  0  0  0  0  0  0  0  0  0  0  0
   -1.3130   25.7010  -27.4230 C   0  0  0  0  0  0  0  0  0  0  0  0
   -1.6870   25.0260  -28.5890 C   0  0  0  0  0  0  0  0  0  0  0  0
   -4.4740   23.8910  -30.4030 C   0  0  0  0  0  0  0  0  0  0  0  0
   -5.2340   24.7550  -29.8780 O   0  0  0  0  0  0  0  0  0  0  0  0
   -4.8750   23.2430  -31.5800 C   0  0  0  0  0  0  0  0  0  0  0  0
   -6.1750   23.5120  -32.1530 C   0  0  0  0  0  0  0  0  0  0  0  0
   -7.2160   23.7270  -32.6120 N   0  0  0  0  0  0  0  0  0  0  0  0
   -6.2940   20.1700  -32.8780 C   0  0  0  0  0  0  0  0  0  0  0  0
   -6.9400   18.9210  -32.8690 C   0  0  0  0  0  0  0  0  0  0  0  0
   -8.3470   18.8220  -32.3410 C   0  0  0  0  0  0  0  0  0  0  0  0
   -7.0805   16.0901  -32.3559 H   0  0  0  0  0  0  0  0  0  0  0  0
   -7.8845   16.4905  -33.9114 H   0  0  0  0  0  0  0  0  0  0  0  0
   -6.2657   15.7121  -33.9114 H   0  0  0  0  0  0  0  0  0  0  0  0
   -4.4148   17.0394  -34.2329 H   0  0  0  0  0  0  0  0  0  0  0  0
   -3.2875   19.2557  -34.2224 H   0  0  0  0  0  0  0  0  0  0  0  0
   -4.2400   22.1030  -34.2630 H   0  0  0  0  0  0  0  0  0  0  0  0
   -2.2120   21.2830  -31.9580 H   0  0  0  0  0  0  0  0  0  0  0  0
   -4.6301   23.6544  -27.5040 H   0  0  0  0  0  0  0  0  0  0  0  0
   -3.9572   24.8598  -25.4237 H   0  0  0  0  0  0  0  0  0  0  0  0
   -1.8314   26.1718  -25.3700 H   0  0  0  0  0  0  0  0  0  0  0  0
   -0.3778   26.2797  -27.3990 H   0  0  0  0  0  0  0  0  0  0  0  0
   -1.0464   25.0766  -29.4818 H   0  0  0  0  0  0  0  0  0  0  0  0
   -6.8187   21.0546  -32.4878 H   0  0  0  0  0  0  0  0  0  0  0  0
   -8.3269   18.8234  -31.2412 H   0  0  0  0  0  0  0  0  0  0  0  0
   -8.9339   19.6811  -32.6981 H   0  0  0  0  0  0  0  0  0  0  0  0
   -8.8079   17.8892  -32.6981 H   0  0  0  0  0  0  0  0  0  0  0  0
  1  2  1  0
  2  3  2  0
  3  4  1  0
  4  5  2  0
  5  6  1  0
  6  7  1  0
  7  8  1  0
  8  9  1  0
  9 10  2  0
  9 11  1  0
 11 12  1  0
 12 13  2  0
 13 14  1  0
 14 15  2  0
 15 16  1  0
 16 17  2  0
 11 18  1  0
 18 19  2  0
 18 20  1  0
 20 21  1  0
 21 22  3  0
  5 23  1  0
 23 24  2  0
 24 25  1  0
 24  2  1  0
 20  7  2  0
 17 12  1  0
  1 26  1  0
  1 27  1  0
  1 28  1  0
  3 29  1  0
  4 30  1  0
  6 31  1  0
  8 32  1  0
 13 33  1  0
 14 34  1  0
 15 35  1  0
 16 36  1  0
 17 37  1  0
 23 38  1  0
 25 39  1  0
 25 40  1  0
 25 41  1  0
M  END
>  <UniqueID>  (24) 
23

>  <SMILES>  (24) 
Cc1ccc(Nc2[nH]c(=S)n(-c3ccccc3)c(=O)c2C#N)cc1C

>  <Energy>  (24) 
63.702935065419865

>  <Genealogy>  (24) 
Cc1ccc(Nc2[nH]c(=S)n(-c3ccccc3)c(=O)c2C#N)cc1C (3D coordinates assigned)
Cc1ccc(Nc2[nH]c(=S)n(-c3ccccc3)c(=O)c2C#N)cc1C (optimized conformer: 63.702935065419865 kcal/mol)

>  <smiles>  (24) 
Cc1ccc(Nc2[nH]c(=S)n(-c3ccccc3)c(=O)c2C#N)cc1C

>  <score_type>  (24) 
oracle

>  <origin>  (24) 
adgpu

>  <m_score__min__energy>  (24) 
-8.7799999999999994

>  <m_primary>  (24) 
energy

$$$$
24:0
     RDKit          3D

 64 67  0  0  0  0  0  0  0  0999 V2000
   -8.3860   22.0940  -31.9390 C   0  0  0  0  0  0  0  0  0  0  0  0
   -7.1420   22.8560  -31.5550 C   0  0  0  0  0  0  0  0  0  0  0  0
   -7.2960   24.1500  -31.0340 C   0  0  0  0  0  0  0  0  0  0  0  0
   -6.1900   24.8980  -30.6430 C   0  0  0  0  0  0  0  0  0  0  0  0
   -4.8970   24.3690  -30.7580 C   0  0  0  0  0  0  0  0  0  0  0  0
   -3.7520   25.1550  -30.3940 N   0  0  0  0  0  0  0  0  0  0  0  0
   -2.8280   24.8230  -29.3470 C   0  0  0  0  0  0  0  0  0  0  0  0
   -1.9860   25.6780  -28.9730 O   0  0  0  0  0  0  0  0  0  0  0  0
   -2.8570   23.5260  -28.7330 N   0  0  0  0  0  0  0  0  0  0  0  0
   -2.0190   22.4240  -29.1080 C   0  0  0  0  0  0  0  0  0  0  0  0
   -2.4040   21.0940  -28.8550 C   0  0  0  0  0  0  0  0  0  0  0  0
   -1.6410   20.0350  -29.3590 C   0  0  0  0  0  0  0  0  0  0  0  0
   -0.4960   20.2890  -30.1260 C   0  0  0  0  0  0  0  0  0  0  0  0
    0.3900   18.9450  -30.8480 S   0  0  0  0  0  0  0  0  0  0  0  0
    1.0400   19.3960  -32.1260 O   0  0  0  0  0  0  0  0  0  0  0  0
   -0.5970   17.8580  -31.1790 O   0  0  0  0  0  0  0  0  0  0  0  0
    1.5860   18.3470  -29.7150 N   0  0  0  0  0  0  0  0  0  0  0  0
    1.8490   16.9040  -29.8860 C   0  0  0  0  0  0  0  0  0  0  0  0
    0.8200   16.0250  -29.1500 C   0  0  0  0  0  0  0  0  0  0  0  0
    0.7180   16.3950  -27.7880 O   0  0  0  0  0  0  0  0  0  0  0  0
    0.2530   17.7260  -27.6970 C   0  0  0  0  0  0  0  0  0  0  0  0
    1.2660   18.6960  -28.3170 C   0  0  0  0  0  0  0  0  0  0  0  0
   -0.0950   21.6160  -30.3510 C   0  0  0  0  0  0  0  0  0  0  0  0
   -0.8620   22.6750  -29.8540 C   0  0  0  0  0  0  0  0  0  0  0  0
   -4.7190   23.0780  -31.2960 C   0  0  0  0  0  0  0  0  0  0  0  0
   -3.4300   22.5630  -31.4660 O   0  0  0  0  0  0  0  0  0  0  0  0
   -5.8400   22.2940  -31.6620 C   0  0  0  0  0  0  0  0  0  0  0  0
   -5.5960   20.6270  -32.2570 S   0  0  0  0  0  0  0  0  0  0  0  0
   -6.1530   19.6310  -31.2770 O   0  0  0  0  0  0  0  0  0  0  0  0
   -6.3320   20.4370  -33.5550 O   0  0  0  0  0  0  0  0  0  0  0  0
   -3.8450   20.3020  -32.5020 C   0  0  0  0  0  0  0  0  0  0  0  0
   -3.5830   18.8020  -32.7730 C   0  0  0  0  0  0  0  0  0  0  0  0
   -2.2920   18.5670  -33.5880 C   0  0  0  0  0  0  0  0  0  0  0  0
   -1.3030   19.6230  -33.3540 N   0  0  0  0  0  0  0  0  0  0  0  0
   -1.7760   20.9350  -33.8440 C   0  0  0  0  0  0  0  0  0  0  0  0
   -3.2910   21.1660  -33.6440 C   0  0  0  0  0  0  0  0  0  0  0  0
   -8.9135   21.7709  -31.0294 H   0  0  0  0  0  0  0  0  0  0  0  0
   -9.0449   22.7436  -32.5338 H   0  0  0  0  0  0  0  0  0  0  0  0
   -8.1067   21.2118  -32.5338 H   0  0  0  0  0  0  0  0  0  0  0  0
   -8.3042   24.5784  -30.9335 H   0  0  0  0  0  0  0  0  0  0  0  0
   -6.3312   25.9120  -30.2407 H   0  0  0  0  0  0  0  0  0  0  0  0
   -3.3059   20.8869  -28.2603 H   0  0  0  0  0  0  0  0  0  0  0  0
   -1.9416   18.9973  -29.1520 H   0  0  0  0  0  0  0  0  0  0  0  0
    1.8146   16.6640  -30.9589 H   0  0  0  0  0  0  0  0  0  0  0  0
    2.8386   16.6915  -29.4553 H   0  0  0  0  0  0  0  0  0  0  0  0
   -0.1628   16.1439  -29.6295 H   0  0  0  0  0  0  0  0  0  0  0  0
    1.1516   14.9776  -29.2044 H   0  0  0  0  0  0  0  0  0  0  0  0
   -0.7040   17.8119  -28.2325 H   0  0  0  0  0  0  0  0  0  0  0  0
    0.1200   17.9831  -26.6358 H   0  0  0  0  0  0  0  0  0  0  0  0
    0.8449   19.7119  -28.2927 H   0  0  0  0  0  0  0  0  0  0  0  0
    2.1953   18.6347  -27.7316 H   0  0  0  0  0  0  0  0  0  0  0  0
    0.8239   21.8230  -30.9191 H   0  0  0  0  0  0  0  0  0  0  0  0
   -0.5535   23.7123  -30.0510 H   0  0  0  0  0  0  0  0  0  0  0  0
   -2.6120   22.9760  -31.0370 H   0  0  0  0  0  0  0  0  0  0  0  0
   -3.3188   20.5704  -31.5740 H   0  0  0  0  0  0  0  0  0  0  0  0
   -3.4922   18.2796  -31.8092 H   0  0  0  0  0  0  0  0  0  0  0  0
   -4.4270   18.4157  -33.3633 H   0  0  0  0  0  0  0  0  0  0  0  0
   -1.8569   17.6000  -33.2954 H   0  0  0  0  0  0  0  0  0  0  0  0
   -2.5549   18.5742  -34.6561 H   0  0  0  0  0  0  0  0  0  0  0  0
   -1.1130   19.6880  -32.3280 H   0  0  0  0  0  0  0  0  0  0  0  0
   -1.2307   21.7237  -33.3049 H   0  0  0  0  0  0  0  0  0  0  0  0
   -1.5885   20.9590  -34.9276 H   0  0  0  0  0  0  0  0  0  0  0  0
   -3.4628   22.2261  -33.4061 H   0  0  0  0  0  0  0  0  0  0  0  0
   -3.8090   20.8847  -34.5727 H   0  0  0  0  0  0  0  0  0  0  0  0
  1  2  1  0
  2  3  2  0
  3  4  1  0
  4  5  2  0
  5  6  1  0
  6  7  1  0
  7  8  2  0
  7  9  1  0
  9 10  1  0
 10 11  2  0
 11 12  1  0
 12 13  2  0
 13 14  1  0
 14 15  2  0
 14 16  2  0
 14 17  1  0
 17 18  1  0
 18 19  1  0
 19 20  1  0
 20 21  1  0
 21 22  1  0
 13 23  1  0
 23 24  2  0
  5 25  1  0
 25 26  1  0
 25 27  2  0
 27 28  1  0
 28 29  2  0
 28 30  2  0
 28 31  1  0
 31 32  1  0
 32 33  1  0
 33 34  1  0
 34 35  1  0
 35 36  1  0
 27  2  1  0
 36 31  1  0
 24 10  1  0
 22 17  1  0
  1 37  1  0
  1 38  1  0
  1 39  1  0
  3 40  1  0
  4 41  1  0
 11 42  1  0
 12 43  1  0
 18 44  1  0
 18 45  1  0
 19 46  1  0
 19 47  1  0
 21 48  1  0
 21 49  1  0
 22 50  1  0
 22 51  1  0
 23 52  1  0
 24 53  1  0
 26 54  1  0
 31 55  1  0
 32 56  1  0
 32 57  1  0
 33 58  1  0
 33 59  1  0
 34 60  1  0
 35 61  1  0
 35 62  1  0
 36 63  1  0
 36 64  1  0
M  CHG  2   6  -1   9  -1
M  END
>  <UniqueID>  (25) 
24

>  <SMILES>  (25) 
Cc1ccc([N-]C(=O)[N-]c2ccc(S(=O)(=O)N3CCOCC3)cc2)c(O)c1S(=O)(=O)C1CCNCC1

>  <Energy>  (25) 
86.18108019095563

>  <Genealogy>  (25) 
Cc1ccc([N-]C(=O)[N-]c2ccc(S(=O)(=O)N3CCOCC3)cc2)c(O)c1S(=O)(=O)C1CCNCC1 (protonated)
Cc1ccc([N-]C(=O)[N-]c2ccc(S(=O)(=O)N3CCOCC3)cc2)c(O)c1S(=O)(=O)C1CCNCC1 (3D coordinates assigned)
Cc1ccc([N-]C(=O)[N-]c2ccc(S(=O)(=O)N3CCOCC3)cc2)c(O)c1S(=O)(=O)C1CCNCC1 (nonaromatic ring conformer: 86.18108019095563 kcal/mol)

>  <smiles>  (25) 
Cc1ccc(NC(=O)Nc2ccc(S(=O)(=O)N3CCOCC3)cc2)c(O)c1S(=O)(=O)C1CCNCC1

>  <score_type>  (25) 
oracle

>  <origin>  (25) 
adgpu

>  <m_score__min__energy>  (25) 
-14.84

>  <m_primary>  (25) 
energy

$$$$
25:0
     RDKit          3D

 50 53  0  0  0  0  0  0  0  0999 V2000
   -4.2860   24.7440  -26.9260 N   0  0  0  0  0  0  0  0  0  0  0  0
   -2.7310   24.3910  -27.6030 S   0  0  0  0  0  0  0  0  0  0  0  0
   -1.8440   23.8250  -26.5240 O   0  0  0  0  0  0  0  0  0  0  0  0
   -2.1360   25.6690  -28.1260 O   0  0  0  0  0  0  0  0  0  0  0  0
   -2.8750   23.2130  -28.9170 C   0  0  0  0  0  0  0  0  0  0  0  0
   -2.4530   21.8890  -28.7060 C   0  0  0  0  0  0  0  0  0  0  0  0
   -2.5550   20.9420  -29.7300 C   0  0  0  0  0  0  0  0  0  0  0  0
   -3.0660   21.3070  -30.9770 C   0  0  0  0  0  0  0  0  0  0  0  0
   -3.4770   22.6210  -31.2030 C   0  0  0  0  0  0  0  0  0  0  0  0
   -3.4090   23.5780  -30.1740 C   0  0  0  0  0  0  0  0  0  0  0  0
   -3.8350   24.9240  -30.4300 N   0  0  0  0  0  0  0  0  0  0  0  0
   -5.5230   25.4230  -30.3570 S   0  0  0  0  0  0  0  0  0  0  0  0
   -5.7940   25.6260  -28.8690 O   0  0  0  0  0  0  0  0  0  0  0  0
   -6.5120   24.0060  -30.7940 C   0  0  0  0  0  0  0  0  0  0  0  0
   -6.8940   23.7810  -32.1260 C   0  0  0  0  0  0  0  0  0  0  0  0
   -7.7370   22.7100  -32.4430 C   0  0  0  0  0  0  0  0  0  0  0  0
   -8.2110   21.8620  -31.4330 C   0  0  0  0  0  0  0  0  0  0  0  0
   -9.0940   20.7880  -31.7810 N   0  0  0  0  0  0  0  0  0  0  0  0
   -8.7090   19.4130  -31.8880 C   0  0  0  0  0  0  0  0  0  0  0  0
   -9.3860   18.5390  -31.2800 O   0  0  0  0  0  0  0  0  0  0  0  0
   -7.5400   19.0210  -32.6310 N   0  0  0  0  0  0  0  0  0  0  0  0
   -7.2620   17.6280  -32.9970 C   0  0  0  0  0  0  0  0  0  0  0  0
   -5.8570   17.6770  -33.4700 C   0  0  0  0  0  0  0  0  0  0  0  0
   -5.0730   16.6210  -33.9380 C   0  0  0  0  0  0  0  0  0  0  0  0
   -3.7480   16.8870  -34.3200 C   0  0  0  0  0  0  0  0  0  0  0  0
   -3.2310   18.1950  -34.2260 C   0  0  0  0  0  0  0  0  0  0  0  0
   -4.0380   19.2420  -33.7490 C   0  0  0  0  0  0  0  0  0  0  0  0
   -5.3530   18.9550  -33.3760 C   0  0  0  0  0  0  0  0  0  0  0  0
   -6.3750   19.8880  -32.8420 C   0  0  0  0  0  0  0  0  0  0  0  0
   -7.7860   22.0600  -30.1070 C   0  0  0  0  0  0  0  0  0  0  0  0
   -6.9440   23.1300  -29.7900 C   0  0  0  0  0  0  0  0  0  0  0  0
   -4.9880   24.1820  -27.4590 H   0  0  0  0  0  0  0  0  0  0  0  0
   -4.4890   25.7480  -27.1280 H   0  0  0  0  0  0  0  0  0  0  0  0
   -2.0400   21.5959  -27.7295 H   0  0  0  0  0  0  0  0  0  0  0  0
   -2.2315   19.9058  -29.5523 H   0  0  0  0  0  0  0  0  0  0  0  0
   -3.1445   20.5596  -31.7802 H   0  0  0  0  0  0  0  0  0  0  0  0
   -3.8572   22.9110  -32.1936 H   0  0  0  0  0  0  0  0  0  0  0  0
   -3.1170   25.6730  -30.5070 H   0  0  0  0  0  0  0  0  0  0  0  0
   -6.5301   24.4476  -32.9217 H   0  0  0  0  0  0  0  0  0  0  0  0
   -8.0287   22.5331  -33.4888 H   0  0  0  0  0  0  0  0  0  0  0  0
   -7.3623   16.9636  -32.1261 H   0  0  0  0  0  0  0  0  0  0  0  0
   -7.9581   17.2326  -33.7514 H   0  0  0  0  0  0  0  0  0  0  0  0
   -5.4840   15.6029  -34.0061 H   0  0  0  0  0  0  0  0  0  0  0  0
   -3.1113   16.0717  -34.6939 H   0  0  0  0  0  0  0  0  0  0  0  0
   -2.1924   18.3969  -34.5270 H   0  0  0  0  0  0  0  0  0  0  0  0
   -3.6425   20.2655  -33.6711 H   0  0  0  0  0  0  0  0  0  0  0  0
   -6.0419   20.3389  -31.8956 H   0  0  0  0  0  0  0  0  0  0  0  0
   -6.5817   20.7336  -33.5145 H   0  0  0  0  0  0  0  0  0  0  0  0
   -8.1173   21.3705  -29.3166 H   0  0  0  0  0  0  0  0  0  0  0  0
   -6.6201   23.2843  -28.7501 H   0  0  0  0  0  0  0  0  0  0  0  0
  1  2  1  0
  2  3  2  0
  2  4  2  0
  2  5  1  0
  5  6  2  0
  6  7  1  0
  7  8  2  0
  8  9  1  0
  9 10  2  0
 10 11  1  0
 12 11  1  1
 12 13  2  0
 12 14  1  0
 14 15  2  0
 15 16  1  0
 16 17  2  0
 17 18  1  0
 18 19  1  0
 19 20  2  0
 19 21  1  0
 21 22  1  0
 22 23  1  0
 23 24  2  0
 24 25  1  0
 25 26  2  0
 26 27  1  0
 27 28  2  0
 28 29  1  0
 17 30  1  0
 30 31  2  0
 10  5  1  0
 31 14  1  0
 29 21  1  0
 28 23  1  0
  1 32  1  0
  1 33  1  0
  6 34  1  0
  7 35  1  0
  8 36  1  0
  9 37  1  0
 11 38  1  0
 15 39  1  0
 16 40  1  0
 22 41  1  0
 22 42  1  0
 24 43  1  0
 25 44  1  0
 26 45  1  0
 27 46  1  0
 29 47  1  0
 29 48  1  0
 30 49  1  0
 31 50  1  0
M  CHG  1  18  -1
M  END
>  <UniqueID>  (26) 
25

>  <SMILES>  (26) 
NS(=O)(=O)c1ccccc1N[S@](=O)c1ccc([N-]C(=O)N2Cc3ccccc3C2)cc1

>  <Energy>  (26) 
74.90030615920664

>  <Genealogy>  (26) 
NS(=O)(=O)c1ccccc1NS(=O)c1ccc([N-]C(=O)N2Cc3ccccc3C2)cc1 (protonated)
NS(=O)(=O)c1ccccc1N[S@](=O)c1ccc([N-]C(=O)N2Cc3ccccc3C2)cc1 (chirality)
NS(=O)(=O)c1ccccc1N[S@](=O)c1ccc([N-]C(=O)N2Cc3ccccc3C2)cc1 (3D coordinates assigned)
NS(=O)(=O)c1ccccc1N[S@](=O)c1ccc([N-]C(=O)N2Cc3ccccc3C2)cc1 (nonaromatic ring conformer: 74.90030615920664 kcal/mol)

>  <smiles>  (26) 
NS(=O)(=O)c1ccccc1NS(=O)c1ccc(NC(=O)N2Cc3ccccc3C2)cc1

>  <score_type>  (26) 
oracle

>  <origin>  (26) 
adgpu

>  <m_score__min__energy>  (26) 
-11.02

>  <m_primary>  (26) 
energy

$$$$
26:0
     RDKit          3D

 48 50  0  0  0  0  0  0  0  0999 V2000
    0.6560   21.7600  -35.7760 C   0  0  0  0  0  0  0  0  0  0  0  0
    0.3180   21.9120  -34.3990 O   0  0  0  0  0  0  0  0  0  0  0  0
   -0.7110   21.2070  -33.7540 C   0  0  0  0  0  0  0  0  0  0  0  0
   -1.3390   20.1660  -34.4470 C   0  0  0  0  0  0  0  0  0  0  0  0
   -2.3640   19.4230  -33.8520 C   0  0  0  0  0  0  0  0  0  0  0  0
   -2.9620   18.4010  -34.6050 O   0  0  0  0  0  0  0  0  0  0  0  0
   -3.0650   17.0430  -34.1840 C   0  0  0  0  0  0  0  0  0  0  0  0
   -2.7600   19.7240  -32.5330 C   0  0  0  0  0  0  0  0  0  0  0  0
   -2.1370   20.7620  -31.8200 C   0  0  0  0  0  0  0  0  0  0  0  0
   -2.5710   21.0820  -30.4370 C   0  0  0  0  0  0  0  0  0  0  0  0
   -2.8230   20.1430  -29.6350 O   0  0  0  0  0  0  0  0  0  0  0  0
   -2.7640   22.4330  -29.9930 N   0  0  0  0  0  0  0  0  0  0  0  0
   -3.9130   23.2450  -30.2720 C   0  0  0  0  0  0  0  0  0  0  0  0
   -5.1040   22.6210  -30.6560 C   0  0  0  0  0  0  0  0  0  0  0  0
   -6.2480   23.3790  -30.9610 C   0  0  0  0  0  0  0  0  0  0  0  0
   -7.4610   22.7550  -31.4150 N   0  0  0  0  0  0  0  0  0  0  0  0
   -7.5750   21.3730  -31.7990 C   0  0  0  0  0  0  0  0  0  0  0  0
   -8.5760   20.5460  -31.2600 C   0  0  0  0  0  0  0  0  0  0  0  0
   -8.6880   19.2160  -31.6720 C   0  0  0  0  0  0  0  0  0  0  0  0
   -7.8130   18.7010  -32.6340 C   0  0  0  0  0  0  0  0  0  0  0  0
   -6.8140   19.5160  -33.1850 C   0  0  0  0  0  0  0  0  0  0  0  0
   -5.9030   18.9780  -34.2480 C   0  0  0  0  0  0  0  0  0  0  0  0
   -6.7160   20.8570  -32.7830 C   0  0  0  0  0  0  0  0  0  0  0  0
   -6.1790   24.7750  -30.8900 C   0  0  0  0  0  0  0  0  0  0  0  0
   -5.0020   25.4050  -30.4830 C   0  0  0  0  0  0  0  0  0  0  0  0
   -3.8720   24.6480  -30.1620 C   0  0  0  0  0  0  0  0  0  0  0  0
   -2.7240   25.2980  -29.7190 O   0  0  0  0  0  0  0  0  0  0  0  0
   -1.1260   21.5120  -32.4450 C   0  0  0  0  0  0  0  0  0  0  0  0
    1.6563   21.3102  -35.8605 H   0  0  0  0  0  0  0  0  0  0  0  0
   -0.0821   21.1072  -36.2648 H   0  0  0  0  0  0  0  0  0  0  0  0
    0.6546   22.7454  -36.2648 H   0  0  0  0  0  0  0  0  0  0  0  0
   -1.0224   19.9288  -35.4734 H   0  0  0  0  0  0  0  0  0  0  0  0
   -3.0683   16.9991  -33.0849 H   0  0  0  0  0  0  0  0  0  0  0  0
   -3.9986   16.6089  -34.5711 H   0  0  0  0  0  0  0  0  0  0  0  0
   -2.2075   16.4731  -34.5711 H   0  0  0  0  0  0  0  0  0  0  0  0
   -3.5633   19.1415  -32.0582 H   0  0  0  0  0  0  0  0  0  0  0  0
   -5.1463   21.5237  -30.7202 H   0  0  0  0  0  0  0  0  0  0  0  0
   -8.3180   23.3520  -31.4830 H   0  0  0  0  0  0  0  0  0  0  0  0
   -9.2739   20.9479  -30.5107 H   0  0  0  0  0  0  0  0  0  0  0  0
   -9.4669   18.5715  -31.2384 H   0  0  0  0  0  0  0  0  0  0  0  0
   -7.9088   17.6545  -32.9589 H   0  0  0  0  0  0  0  0  0  0  0  0
   -5.0474   18.4727  -33.7763 H   0  0  0  0  0  0  0  0  0  0  0  0
   -6.4535   18.2600  -34.8737 H   0  0  0  0  0  0  0  0  0  0  0  0
   -5.5400   19.8067  -34.8737 H   0  0  0  0  0  0  0  0  0  0  0  0
   -5.9595   21.5099  -33.2428 H   0  0  0  0  0  0  0  0  0  0  0  0
   -7.0583   25.3797  -31.1567 H   0  0  0  0  0  0  0  0  0  0  0  0
   -4.9636   26.5022  -30.4146 H   0  0  0  0  0  0  0  0  0  0  0  0
   -0.6543   22.3462  -31.9049 H   0  0  0  0  0  0  0  0  0  0  0  0
  1  2  1  0
  2  3  1  0
  3  4  2  0
  4  5  1  0
  5  6  1  0
  6  7  1  0
  5  8  2  0
  8  9  1  0
  9 10  1  0
 10 11  2  0
 10 12  1  0
 12 13  1  0
 13 14  2  0
 14 15  1  0
 15 16  1  0
 16 17  1  0
 17 18  2  0
 18 19  1  0
 19 20  2  0
 20 21  1  0
 21 22  1  0
 21 23  2  0
 15 24  2  0
 24 25  1  0
 25 26  2  0
 26 27  1  0
  9 28  2  0
 28  3  1  0
 26 13  1  0
 23 17  1  0
  1 29  1  0
  1 30  1  0
  1 31  1  0
  4 32  1  0
  7 33  1  0
  7 34  1  0
  7 35  1  0
  8 36  1  0
 14 37  1  0
 16 38  1  0
 18 39  1  0
 19 40  1  0
 20 41  1  0
 22 42  1  0
 22 43  1  0
 22 44  1  0
 23 45  1  0
 24 46  1  0
 25 47  1  0
 28 48  1  0
M  CHG  2  12  -1  27  -1
M  END
>  <UniqueID>  (27) 
26

>  <SMILES>  (27) 
COc1cc(OC)cc(C(=O)[N-]c2cc(Nc3cccc(C)c3)ccc2[O-])c1

>  <Energy>  (27) 
61.83436658894027

>  <Genealogy>  (27) 
COc1cc(OC)cc(C(=O)[N-]c2cc(Nc3cccc(C)c3)ccc2[O-])c1 (protonated)
COc1cc(OC)cc(C(=O)[N-]c2cc(Nc3cccc(C)c3)ccc2[O-])c1 (3D coordinates assigned)
COc1cc(OC)cc(C(=O)[N-]c2cc(Nc3cccc(C)c3)ccc2[O-])c1 (optimized conformer: 61.83436658894027 kcal/mol)

>  <smiles>  (27) 
COc1cc(OC)cc(C(=O)Nc2cc(Nc3cccc(C)c3)ccc2O)c1

>  <score_type>  (27) 
oracle

>  <origin>  (27) 
adgpu

>  <m_score__min__energy>  (27) 
-13.039999999999999

>  <m_primary>  (27) 
energy

$$$$
27:0
     RDKit          3D

 62 66  0  0  0  0  0  0  0  0999 V2000
   -3.4500   23.4980  -28.7370 C   0  0  0  0  0  0  0  0  0  0  0  0
   -2.3120   23.2150  -27.8530 N   0  0  0  0  0  0  0  0  0  0  0  0
   -2.0290   24.1130  -26.7580 C   0  0  0  0  0  0  0  0  0  0  0  0
   -2.6480   25.2070  -26.6560 O   0  0  0  0  0  0  0  0  0  0  0  0
   -1.0150   23.7270  -25.7590 C   0  0  0  0  0  0  0  0  0  0  0  0
   -0.1650   24.5770  -25.1630 C   0  0  0  0  0  0  0  0  0  0  0  0
   -0.1470   26.0280  -25.3990 C   0  0  0  0  0  0  0  0  0  0  0  0
    0.5780   26.5650  -26.4720 C   0  0  0  0  0  0  0  0  0  0  0  0
    0.5450   27.9400  -26.7240 C   0  0  0  0  0  0  0  0  0  0  0  0
   -0.2350   28.7790  -25.9250 C   0  0  0  0  0  0  0  0  0  0  0  0
   -0.2790   30.1070  -26.1780 F   0  0  0  0  0  0  0  0  0  0  0  0
   -0.9850   28.2430  -24.8750 C   0  0  0  0  0  0  0  0  0  0  0  0
   -0.9420   26.8720  -24.6100 C   0  0  0  0  0  0  0  0  0  0  0  0
   -0.8740   21.9720  -25.4460 S   0  0  0  0  0  0  0  0  0  0  0  0
   -0.5460   21.6140  -27.1730 C   0  0  0  0  0  0  0  0  0  0  0  0
    0.4700   20.7140  -27.4990 C   0  0  0  0  0  0  0  0  0  0  0  0
    0.6760   20.3390  -28.8290 C   0  0  0  0  0  0  0  0  0  0  0  0
   -0.1130   20.8790  -29.8510 C   0  0  0  0  0  0  0  0  0  0  0  0
    0.0950   20.4490  -31.2550 C   0  0  0  0  0  0  0  0  0  0  0  0
    1.0090   19.6240  -31.5210 O   0  0  0  0  0  0  0  0  0  0  0  0
   -0.7440   20.9060  -32.3210 N   0  0  0  0  0  0  0  0  0  0  0  0
   -2.0180   20.3440  -32.6770 C   0  0  0  0  0  0  0  0  0  0  0  0
   -3.0500   20.3600  -31.7310 C   0  0  0  0  0  0  0  0  0  0  0  0
   -4.2860   19.7720  -32.0220 C   0  0  0  0  0  0  0  0  0  0  0  0
   -4.4990   19.1600  -33.2650 C   0  0  0  0  0  0  0  0  0  0  0  0
   -6.0320   18.3750  -33.6320 S   0  0  0  0  0  0  0  0  0  0  0  0
   -6.1160   17.0500  -32.9220 O   0  0  0  0  0  0  0  0  0  0  0  0
   -6.0890   18.1270  -35.1130 O   0  0  0  0  0  0  0  0  0  0  0  0
   -7.3520   19.4010  -33.1420 N   0  0  0  0  0  0  0  0  0  0  0  0
   -6.8980   20.7920  -32.9760 C   0  0  0  0  0  0  0  0  0  0  0  0
   -7.9980   21.6610  -32.3300 C   0  0  0  0  0  0  0  0  0  0  0  0
   -9.2300   20.9730  -32.2640 O   0  0  0  0  0  0  0  0  0  0  0  0
   -9.1080   19.8240  -31.4480 C   0  0  0  0  0  0  0  0  0  0  0  0
   -7.9470   18.9080  -31.8920 C   0  0  0  0  0  0  0  0  0  0  0  0
   -3.4710   19.1500  -34.2160 C   0  0  0  0  0  0  0  0  0  0  0  0
   -2.2380   19.7370  -33.9260 C   0  0  0  0  0  0  0  0  0  0  0  0
   -1.1200   21.8030  -29.5240 C   0  0  0  0  0  0  0  0  0  0  0  0
   -1.3470   22.1840  -28.1860 C   0  0  0  0  0  0  0  0  0  0  0  0
   -4.3400   23.7193  -28.1296 H   0  0  0  0  0  0  0  0  0  0  0  0
   -3.2145   24.3649  -29.3718 H   0  0  0  0  0  0  0  0  0  0  0  0
   -3.6480   22.6217  -29.3718 H   0  0  0  0  0  0  0  0  0  0  0  0
    0.5649   24.1617  -24.4525 H   0  0  0  0  0  0  0  0  0  0  0  0
    1.1743   25.9031  -27.1172 H   0  0  0  0  0  0  0  0  0  0  0  0
    1.1338   28.3612  -27.5522 H   0  0  0  0  0  0  0  0  0  0  0  0
   -1.6109   28.9022  -24.2555 H   0  0  0  0  0  0  0  0  0  0  0  0
   -1.5325   26.4539  -23.7814 H   0  0  0  0  0  0  0  0  0  0  0  0
    1.1102   20.2989  -26.7066 H   0  0  0  0  0  0  0  0  0  0  0  0
    1.4651   19.6131  -29.0750 H   0  0  0  0  0  0  0  0  0  0  0  0
   -2.8883   20.8376  -30.7534 H   0  0  0  0  0  0  0  0  0  0  0  0
   -5.0921   19.7901  -31.2738 H   0  0  0  0  0  0  0  0  0  0  0  0
   -8.0780   19.3680  -33.8910 H   0  0  0  0  0  0  0  0  0  0  0  0
   -6.0058   20.8046  -32.3327 H   0  0  0  0  0  0  0  0  0  0  0  0
   -6.6641   21.2045  -33.9685 H   0  0  0  0  0  0  0  0  0  0  0  0
   -7.6858   21.9334  -31.3110 H   0  0  0  0  0  0  0  0  0  0  0  0
   -8.1371   22.5587  -32.9504 H   0  0  0  0  0  0  0  0  0  0  0  0
   -8.9286   20.1444  -30.4111 H   0  0  0  0  0  0  0  0  0  0  0  0
  -10.0417   19.2491  -31.5361 H   0  0  0  0  0  0  0  0  0  0  0  0
   -7.1774   18.8923  -31.1062 H   0  0  0  0  0  0  0  0  0  0  0  0
   -8.3381   17.8937  -32.0598 H   0  0  0  0  0  0  0  0  0  0  0  0
   -3.6358   18.6776  -35.1956 H   0  0  0  0  0  0  0  0  0  0  0  0
   -1.4352   19.7246  -34.6779 H   0  0  0  0  0  0  0  0  0  0  0  0
   -1.7399   22.2351  -30.3234 H   0  0  0  0  0  0  0  0  0  0  0  0
  1  2  1  0
  2  3  1  0
  3  4  2  0
  3  5  1  0
  5  6  2  3
  6  7  1  0
  7  8  2  0
  8  9  1  0
  9 10  2  0
 10 11  1  0
 10 12  1  0
 12 13  2  0
  5 14  1  0
 14 15  1  0
 15 16  2  0
 16 17  1  0
 17 18  2  0
 18 19  1  0
 19 20  2  0
 19 21  1  0
 21 22  1  0
 22 23  2  0
 23 24  1  0
 24 25  2  0
 25 26  1  0
 26 27  2  0
 26 28  2  0
 26 29  1  0
 29 30  1  0
 30 31  1  0
 31 32  1  0
 32 33  1  0
 33 34  1  0
 25 35  1  0
 35 36  2  0
 18 37  1  0
 37 38  2  0
 38  2  1  0
 13  7  1  0
 38 15  1  0
 36 22  1  0
 34 29  1  0
  1 39  1  0
  1 40  1  0
  1 41  1  0
  6 42  1  0
  8 43  1  0
  9 44  1  0
 12 45  1  0
 13 46  1  0
 16 47  1  0
 17 48  1  0
 23 49  1  0
 24 50  1  0
 29 51  1  0
 30 52  1  0
 30 53  1  0
 31 54  1  0
 31 55  1  0
 33 56  1  0
 33 57  1  0
 34 58  1  0
 34 59  1  0
 35 60  1  0
 36 61  1  0
 37 62  1  0
M  CHG  2  21  -1  29   1
M  END
>  <UniqueID>  (28) 
27

>  <SMILES>  (28) 
CN1C(=O)C(=Cc2ccc(F)cc2)Sc2ccc(C(=O)[N-]c3ccc(S(=O)(=O)[NH+]4CCOCC4)cc3)cc21

>  <Energy>  (28) 
100.04816611062007

>  <Genealogy>  (28) 
CN1C(=O)C(=Cc2ccc(F)cc2)Sc2ccc(C(=O)[N-]c3ccc(S(=O)(=O)[NH+]4CCOCC4)cc3)cc21 (protonated)
CN1C(=O)C(=Cc2ccc(F)cc2)Sc2ccc(C(=O)[N-]c3ccc(S(=O)(=O)[NH+]4CCOCC4)cc3)cc21 (3D coordinates assigned)
CN1C(=O)C(=Cc2ccc(F)cc2)Sc2ccc(C(=O)[N-]c3ccc(S(=O)(=O)[NH+]4CCOCC4)cc3)cc21 (nonaromatic ring conformer: 100.04816611062007 kcal/mol)

>  <smiles>  (28) 
CN1C(=O)C(=Cc2ccc(F)cc2)Sc2ccc(C(=O)Nc3ccc(S(=O)(=O)N4CCOCC4)cc3)cc21

>  <score_type>  (28) 
oracle

>  <origin>  (28) 
adgpu

>  <m_score__min__energy>  (28) 
-11.42

>  <m_primary>  (28) 
energy

$$$$
28:0
     RDKit          3D

 38 40  0  0  0  0  0  0  0  0999 V2000
   -0.5949   24.6600  -25.1134 H   0  0  0  0  0  0  0  0  0  0  0  0
   -0.9900   24.4910  -26.1260 C   0  0  0  0  0  0  0  0  0  0  0  0
   -1.6230   23.2870  -26.4360 C   0  0  0  0  0  0  0  0  0  0  0  0
   -1.7246   22.5067  -25.6673 H   0  0  0  0  0  0  0  0  0  0  0  0
   -2.1280   23.0700  -27.7200 C   0  0  0  0  0  0  0  0  0  0  0  0
   -2.6171   22.1143  -27.9597 H   0  0  0  0  0  0  0  0  0  0  0  0
   -2.0160   24.0650  -28.7100 C   0  0  0  0  0  0  0  0  0  0  0  0
   -2.5610   23.8260  -30.0690 C   0  0  0  0  0  0  0  0  0  0  0  0
   -1.9600   23.0420  -30.8510 O   0  0  0  0  0  0  0  0  0  0  0  0
   -3.7940   24.4160  -30.5040 N   0  0  0  0  0  0  0  0  0  0  0  0
   -5.0290   23.7150  -30.7060 C   0  0  0  0  0  0  0  0  0  0  0  0
   -5.1700   22.8950  -31.8330 C   0  0  0  0  0  0  0  0  0  0  0  0
   -4.3509   22.8229  -32.5637 H   0  0  0  0  0  0  0  0  0  0  0  0
   -6.3470   22.1680  -32.0330 C   0  0  0  0  0  0  0  0  0  0  0  0
   -6.4444   21.5136  -32.9118 H   0  0  0  0  0  0  0  0  0  0  0  0
   -7.4030   22.2700  -31.1180 C   0  0  0  0  0  0  0  0  0  0  0  0
   -8.8420   21.2800  -31.3350 S   0  0  0  0  0  0  0  0  0  0  0  0
   -9.4020   21.5270  -32.7060 O   0  0  0  0  0  0  0  0  0  0  0  0
   -9.8880   21.6240  -30.3120 O   0  0  0  0  0  0  0  0  0  0  0  0
   -8.4250   19.6020  -31.1790 N   0  0  0  0  0  0  0  0  0  0  0  0
   -7.6990   18.9440  -32.0320 C   0  0  0  0  0  0  0  0  0  0  0  0
   -7.4120   17.6380  -31.8890 N   0  0  0  0  0  0  0  0  0  0  0  0
   -6.6890   17.3030  -32.9200 O   0  0  0  0  0  0  0  0  0  0  0  0
   -6.4940   18.3320  -33.7150 C   0  0  0  0  0  0  0  0  0  0  0  0
   -5.7380   18.2730  -34.9990 C   0  0  0  0  0  0  0  0  0  0  0  0
   -4.6618   18.1890  -34.7873 H   0  0  0  0  0  0  0  0  0  0  0  0
   -6.0671   17.3978  -35.5784 H   0  0  0  0  0  0  0  0  0  0  0  0
   -5.9274   19.1887  -35.5784 H   0  0  0  0  0  0  0  0  0  0  0  0
   -7.1300   19.4370  -33.1930 C   0  0  0  0  0  0  0  0  0  0  0  0
   -7.1745   20.4585  -33.5988 H   0  0  0  0  0  0  0  0  0  0  0  0
   -7.2840   23.1280  -30.0160 C   0  0  0  0  0  0  0  0  0  0  0  0
   -8.1205   23.2329  -29.3094 H   0  0  0  0  0  0  0  0  0  0  0  0
   -6.1060   23.8500  -29.8130 C   0  0  0  0  0  0  0  0  0  0  0  0
   -6.0206   24.5273  -28.9505 H   0  0  0  0  0  0  0  0  0  0  0  0
   -1.3660   25.2760  -28.3900 C   0  0  0  0  0  0  0  0  0  0  0  0
   -1.2360   26.2860  -29.3370 O   0  0  0  0  0  0  0  0  0  0  0  0
   -0.8580   25.4820  -27.1020 C   0  0  0  0  0  0  0  0  0  0  0  0
   -0.3528   26.4280  -26.8573 H   0  0  0  0  0  0  0  0  0  0  0  0
  1  2  1  0
  2  3  2  0
  3  4  1  0
  3  5  1  0
  5  6  1  0
  5  7  2  0
  7  8  1  0
  8  9  2  0
  8 10  1  0
 10 11  1  0
 11 12  2  0
 12 13  1  0
 12 14  1  0
 14 15  1  0
 14 16  2  0
 16 17  1  0
 17 18  2  0
 17 19  2  0
 17 20  1  0
 20 21  2  0
 21 22  1  0
 22 23  1  0
 23 24  1  0
 24 25  1  0
 25 26  1  0
 25 27  1  0
 25 28  1  0
 24 29  2  0
 29 30  1  0
 16 31  1  0
 31 32  1  0
 31 33  2  0
 33 34  1  0
  7 35  1  0
 35 36  1  0
 35 37  2  0
 37 38  1  0
 37  2  1  0
 33 11  1  0
 29 21  1  0
M  CHG  3  10  -1  22  -1  36  -1
M  END
>  <UniqueID>  (29) 
28

>  <SMILES>  (29) 
Cc1c/c(=N\S(=O)(=O)c2ccc([N-]C(=O)c3ccccc3[O-])cc2)[n-]o1

>  <Energy>  (29) 
80.80331315331183

>  <Genealogy>  (29) 
Cc1cc(=NS(=O)(=O)c2ccc([N-]C(=O)c3ccccc3[O-])cc2)[n-]o1 (protonated)
Cc1c/c(=N\S(=O)(=O)c2ccc([N-]C(=O)c3ccccc3[O-])cc2)[n-]o1 (cis-trans isomerization)
Cc1c/c(=N\S(=O)(=O)c2ccc([N-]C(=O)c3ccccc3[O-])cc2)[n-]o1 (3D coordinates assigned)
Cc1c/c(=N\S(=O)(=O)c2ccc([N-]C(=O)c3ccccc3[O-])cc2)[n-]o1 (optimized conformer: 80.80331315331183 kcal/mol)

>  <smiles>  (29) 
Cc1cc(=NS(=O)(=O)c2ccc(NC(=O)c3ccccc3O)cc2)[nH]o1

>  <score_type>  (29) 
oracle

>  <origin>  (29) 
adgpu

>  <m_score__min__energy>  (29) 
-12.720000000000001

>  <m_primary>  (29) 
energy

$$$$
29:0
     RDKit          3D

 28 30  0  0  0  0  0  0  0  0999 V2000
   -6.0070   24.5500  -31.9490 O   0  0  0  0  0  0  0  0  0  0  0  0
   -5.4170   23.4730  -31.6670 C   0  0  0  0  0  0  0  0  0  0  0  0
   -5.9220   22.2730  -32.1720 C   0  0  0  0  0  0  0  0  0  0  0  0
   -5.2710   21.0660  -31.8650 C   0  0  0  0  0  0  0  0  0  0  0  0
   -5.7610   19.7600  -32.3740 C   0  0  0  0  0  0  0  0  0  0  0  0
   -6.6480   18.9610  -31.6280 C   0  0  0  0  0  0  0  0  0  0  0  0
   -7.0850   17.7300  -32.1280 C   0  0  0  0  0  0  0  0  0  0  0  0
   -6.6400   17.2770  -33.3750 C   0  0  0  0  0  0  0  0  0  0  0  0
   -7.0740   16.0520  -33.8790 O   0  0  0  0  0  0  0  0  0  0  0  0
   -5.7480   18.0580  -34.1180 C   0  0  0  0  0  0  0  0  0  0  0  0
   -5.2970   17.6150  -35.3560 O   0  0  0  0  0  0  0  0  0  0  0  0
   -5.3080   19.2890  -33.6190 C   0  0  0  0  0  0  0  0  0  0  0  0
   -4.1750   21.0870  -31.1080 O   0  0  0  0  0  0  0  0  0  0  0  0
   -3.6580   22.2030  -30.6050 C   0  0  0  0  0  0  0  0  0  0  0  0
   -2.5060   22.1270  -29.8170 C   0  0  0  0  0  0  0  0  0  0  0  0
   -1.9440   23.2850  -29.2770 C   0  0  0  0  0  0  0  0  0  0  0  0
   -2.5310   24.5300  -29.5200 C   0  0  0  0  0  0  0  0  0  0  0  0
   -1.9630   25.6750  -28.9760 O   0  0  0  0  0  0  0  0  0  0  0  0
   -3.6860   24.6250  -30.3090 C   0  0  0  0  0  0  0  0  0  0  0  0
   -4.2450   25.8810  -30.5320 O   0  0  0  0  0  0  0  0  0  0  0  0
   -4.2620   23.4570  -30.8610 C   0  0  0  0  0  0  0  0  0  0  0  0
   -6.8218   22.2725  -32.8048 H   0  0  0  0  0  0  0  0  0  0  0  0
   -6.9999   19.3072  -30.6450 H   0  0  0  0  0  0  0  0  0  0  0  0
   -7.7813   17.1154  -31.5386 H   0  0  0  0  0  0  0  0  0  0  0  0
   -6.7430   15.6970  -34.7680 H   0  0  0  0  0  0  0  0  0  0  0  0
   -4.6012   19.8938  -34.2061 H   0  0  0  0  0  0  0  0  0  0  0  0
   -2.0401   21.1499  -29.6215 H   0  0  0  0  0  0  0  0  0  0  0  0
   -1.0368   23.2176  -28.6586 H   0  0  0  0  0  0  0  0  0  0  0  0
  1  2  2  0
  2  3  1  0
  3  4  2  0
  4  5  1  0
  5  6  2  0
  6  7  1  0
  7  8  2  0
  8  9  1  0
  8 10  1  0
 10 11  1  0
 10 12  2  0
  4 13  1  0
 13 14  1  0
 14 15  2  0
 15 16  1  0
 16 17  2  0
 17 18  1  0
 17 19  1  0
 19 20  1  0
 19 21  2  0
 21  2  1  0
 12  5  1  0
 21 14  1  0
  3 22  1  0
  6 23  1  0
  7 24  1  0
  9 25  1  0
 12 26  1  0
 15 27  1  0
 16 28  1  0
M  CHG  3  11  -1  18  -1  20  -1
M  END
>  <UniqueID>  (30) 
29

>  <SMILES>  (30) 
O=c1cc(-c2ccc(O)c([O-])c2)oc2ccc([O-])c([O-])c12

>  <Energy>  (30) 
41.775126422880724

>  <Genealogy>  (30) 
O=c1cc(-c2ccc(O)c([O-])c2)oc2ccc([O-])c([O-])c12 (protonated)
O=c1cc(-c2ccc(O)c([O-])c2)oc2ccc([O-])c([O-])c12 (3D coordinates assigned)
O=c1cc(-c2ccc(O)c([O-])c2)oc2ccc([O-])c([O-])c12 (optimized conformer: 41.775126422880724 kcal/mol)

>  <smiles>  (30) 
O=c1cc(-c2ccc(O)c(O)c2)oc2ccc(O)c(O)c12

>  <score_type>  (30) 
oracle

>  <origin>  (30) 
adgpu

>  <m_score__min__energy>  (30) 
-12.25

>  <m_primary>  (30) 
energy

$$$$
30:0
     RDKit          3D

 58 61  0  0  0  0  0  0  0  0999 V2000
   -2.7450   25.4370  -26.3450 C   0  0  0  0  0  0  0  0  0  0  0  0
   -2.8000   24.1420  -27.0980 C   0  0  0  0  0  0  0  0  0  0  0  0
   -3.7720   23.7580  -28.0110 C   0  0  0  0  0  0  0  0  0  0  0  0
   -4.8360   24.5370  -28.5590 N   0  0  0  0  0  0  0  0  0  0  0  0
   -4.9400   24.9010  -30.2510 S   0  0  0  0  0  0  0  0  0  0  0  0
   -3.5510   24.9860  -30.8200 O   0  0  0  0  0  0  0  0  0  0  0  0
   -5.6280   26.2230  -30.4320 O   0  0  0  0  0  0  0  0  0  0  0  0
   -5.8680   23.6630  -31.0950 C   0  0  0  0  0  0  0  0  0  0  0  0
   -7.2600   23.7910  -31.2060 C   0  0  0  0  0  0  0  0  0  0  0  0
   -8.0130   22.7860  -31.8190 C   0  0  0  0  0  0  0  0  0  0  0  0
   -7.3770   21.6550  -32.3390 C   0  0  0  0  0  0  0  0  0  0  0  0
   -5.9810   21.5290  -32.2540 C   0  0  0  0  0  0  0  0  0  0  0  0
   -5.1680   20.1180  -32.9340 S   0  0  0  0  0  0  0  0  0  0  0  0
   -5.2620   18.9740  -31.9640 O   0  0  0  0  0  0  0  0  0  0  0  0
   -5.8650   19.7090  -34.2040 O   0  0  0  0  0  0  0  0  0  0  0  0
   -3.4850   20.4520  -33.2670 N   0  0  0  0  0  0  0  0  0  0  0  0
   -2.8360   19.3360  -34.0000 C   0  0  0  0  0  0  0  0  0  0  0  0
   -1.8930   18.4990  -33.1210 C   0  0  0  0  0  0  0  0  0  0  0  0
   -0.8050   19.3730  -32.4680 C   0  0  0  0  0  0  0  0  0  0  0  0
   -1.2740   20.8160  -32.2120 C   0  0  0  0  0  0  0  0  0  0  0  0
   -2.7890   20.8640  -32.0290 C   0  0  0  0  0  0  0  0  0  0  0  0
   -5.2320   22.5330  -31.6260 C   0  0  0  0  0  0  0  0  0  0  0  0
   -3.4500   22.4730  -28.3630 C   0  0  0  0  0  0  0  0  0  0  0  0
   -4.0690   21.7580  -29.1940 O   0  0  0  0  0  0  0  0  0  0  0  0
   -2.3380   22.0950  -27.7050 N   0  0  0  0  0  0  0  0  0  0  0  0
   -1.6630   20.8370  -27.8630 C   0  0  0  0  0  0  0  0  0  0  0  0
   -0.6140   20.7060  -28.7840 C   0  0  0  0  0  0  0  0  0  0  0  0
    0.0870   19.4990  -28.8850 C   0  0  0  0  0  0  0  0  0  0  0  0
   -0.2470   18.4210  -28.0590 C   0  0  0  0  0  0  0  0  0  0  0  0
   -1.2870   18.5480  -27.1360 C   0  0  0  0  0  0  0  0  0  0  0  0
   -1.9890   19.7540  -27.0320 C   0  0  0  0  0  0  0  0  0  0  0  0
   -1.9350   23.1080  -26.9410 N   0  0  0  0  0  0  0  0  0  0  0  0
   -0.8590   23.0290  -25.9470 C   0  0  0  0  0  0  0  0  0  0  0  0
   -2.7537   25.2333  -25.2641 H   0  0  0  0  0  0  0  0  0  0  0  0
   -1.8232   25.9759  -26.6092 H   0  0  0  0  0  0  0  0  0  0  0  0
   -3.6178   26.0521  -26.6092 H   0  0  0  0  0  0  0  0  0  0  0  0
   -7.7612   24.6861  -30.8090 H   0  0  0  0  0  0  0  0  0  0  0  0
   -9.1061   22.8849  -31.8923 H   0  0  0  0  0  0  0  0  0  0  0  0
   -7.9715   20.8618  -32.8159 H   0  0  0  0  0  0  0  0  0  0  0  0
   -3.6211   18.6757  -34.3972 H   0  0  0  0  0  0  0  0  0  0  0  0
   -2.2262   19.7820  -34.7995 H   0  0  0  0  0  0  0  0  0  0  0  0
   -2.4812   18.0104  -32.3302 H   0  0  0  0  0  0  0  0  0  0  0  0
   -1.3984   17.7522  -33.7595 H   0  0  0  0  0  0  0  0  0  0  0  0
   -0.5203   18.9202  -31.5068 H   0  0  0  0  0  0  0  0  0  0  0  0
    0.0450   19.4195  -33.1646 H   0  0  0  0  0  0  0  0  0  0  0  0
   -0.7877   21.1982  -31.3024 H   0  0  0  0  0  0  0  0  0  0  0  0
   -1.0016   21.4365  -33.0785 H   0  0  0  0  0  0  0  0  0  0  0  0
   -3.0745   20.1845  -31.2125 H   0  0  0  0  0  0  0  0  0  0  0  0
   -3.0808   21.8973  -31.7898 H   0  0  0  0  0  0  0  0  0  0  0  0
   -4.1392   22.4336  -31.5495 H   0  0  0  0  0  0  0  0  0  0  0  0
   -0.3413   21.5543  -29.4290 H   0  0  0  0  0  0  0  0  0  0  0  0
    0.9028   19.3979  -29.6159 H   0  0  0  0  0  0  0  0  0  0  0  0
    0.3086   17.4748  -28.1363 H   0  0  0  0  0  0  0  0  0  0  0  0
   -1.5548   17.6990  -26.4899 H   0  0  0  0  0  0  0  0  0  0  0  0
   -2.8000   19.8537  -26.2956 H   0  0  0  0  0  0  0  0  0  0  0  0
   -1.2909   23.0607  -24.9358 H   0  0  0  0  0  0  0  0  0  0  0  0
   -0.3054   22.0878  -26.0799 H   0  0  0  0  0  0  0  0  0  0  0  0
   -0.1739   23.8793  -26.0799 H   0  0  0  0  0  0  0  0  0  0  0  0
  1  2  1  0
  2  3  2  0
  3  4  1  0
  4  5  1  0
  5  6  2  0
  5  7  2  0
  5  8  1  0
  8  9  2  0
  9 10  1  0
 10 11  2  0
 11 12  1  0
 12 13  1  0
 13 14  2  0
 13 15  2  0
 13 16  1  0
 16 17  1  0
 17 18  1  0
 18 19  1  0
 19 20  1  0
 20 21  1  0
 12 22  2  0
  3 23  1  0
 23 24  2  0
 23 25  1  0
 25 26  1  0
 26 27  2  0
 27 28  1  0
 28 29  2  0
 29 30  1  0
 30 31  2  0
 25 32  1  0
 32 33  1  0
 32  2  1  0
 22  8  1  0
 31 26  1  0
 21 16  1  0
  1 34  1  0
  1 35  1  0
  1 36  1  0
  9 37  1  0
 10 38  1  0
 11 39  1  0
 17 40  1  0
 17 41  1  0
 18 42  1  0
 18 43  1  0
 19 44  1  0
 19 45  1  0
 20 46  1  0
 20 47  1  0
 21 48  1  0
 21 49  1  0
 22 50  1  0
 27 51  1  0
 28 52  1  0
 29 53  1  0
 30 54  1  0
 31 55  1  0
 33 56  1  0
 33 57  1  0
 33 58  1  0
M  CHG  1   4  -1
M  END
>  <UniqueID>  (31) 
30

>  <SMILES>  (31) 
Cc1c([N-]S(=O)(=O)c2cccc(S(=O)(=O)N3CCCCC3)c2)c(=O)n(-c2ccccc2)n1C

>  <Energy>  (31) 
114.33748433400258

>  <Genealogy>  (31) 
Cc1c([N-]S(=O)(=O)c2cccc(S(=O)(=O)N3CCCCC3)c2)c(=O)n(-c2ccccc2)n1C (protonated)
Cc1c([N-]S(=O)(=O)c2cccc(S(=O)(=O)N3CCCCC3)c2)c(=O)n(-c2ccccc2)n1C (3D coordinates assigned)
Cc1c([N-]S(=O)(=O)c2cccc(S(=O)(=O)N3CCCCC3)c2)c(=O)n(-c2ccccc2)n1C (nonaromatic ring conformer: 114.33748433400258 kcal/mol)

>  <smiles>  (31) 
Cc1c(NS(=O)(=O)c2cccc(S(=O)(=O)N3CCCCC3)c2)c(=O)n(-c2ccccc2)n1C

>  <score_type>  (31) 
oracle

>  <origin>  (31) 
adgpu

>  <m_score__min__energy>  (31) 
-12.039999999999999

>  <m_primary>  (31) 
energy

$$$$
31:0
     RDKit          3D

 57 60  0  0  0  0  0  0  0  0999 V2000
    1.6970   18.9790  -27.8470 C   0  0  0  0  0  0  0  0  0  0  0  0
    0.2680   19.2680  -28.3230 C   0  0  2  0  0  0  0  0  0  0  0  0
    0.2950   20.1360  -29.6070 C   0  0  0  0  0  0  0  0  0  0  0  0
   -1.0120   20.9150  -29.7810 C   0  0  0  0  0  0  0  0  0  0  0  0
   -1.2260   21.9170  -28.6160 C   0  0  1  0  0  0  0  0  0  0  0  0
   -0.6180   21.4270  -27.2730 C   0  0  0  0  0  0  0  0  0  0  0  0
   -0.5860   19.8960  -27.1880 C   0  0  0  0  0  0  0  0  0  0  0  0
   -0.6410   23.2160  -28.9680 N   0  0  0  0  0  0  0  0  0  0  0  0
   -1.6970   24.1670  -29.0090 C   0  0  0  0  0  0  0  0  0  0  0  0
   -1.5180   25.3740  -29.3140 O   0  0  0  0  0  0  0  0  0  0  0  0
   -2.9630   23.6210  -28.6830 N   0  0  0  0  0  0  0  0  0  0  0  0
   -4.2710   24.2230  -28.9370 C   0  0  0  0  0  0  0  0  0  0  0  0
   -4.4530   24.5240  -30.4030 C   0  0  0  0  0  0  0  0  0  0  0  0
   -4.1390   25.6620  -30.8450 O   0  0  0  0  0  0  0  0  0  0  0  0
   -4.8030   23.4990  -31.3410 N   0  0  0  0  0  0  0  0  0  0  0  0
   -6.1040   22.9220  -31.5210 C   0  0  0  0  0  0  0  0  0  0  0  0
   -7.2420   23.7430  -31.5470 C   0  0  0  0  0  0  0  0  0  0  0  0
   -8.5080   23.1960  -31.7610 C   0  0  0  0  0  0  0  0  0  0  0  0
   -8.6480   21.8240  -31.9660 C   0  0  0  0  0  0  0  0  0  0  0  0
   -7.5230   21.0000  -31.9740 C   0  0  0  0  0  0  0  0  0  0  0  0
   -6.2410   21.5390  -31.7720 C   0  0  0  0  0  0  0  0  0  0  0  0
   -4.8400   20.4480  -31.8110 S   0  0  0  0  0  0  0  0  0  0  0  0
   -3.8850   20.8010  -30.7040 O   0  0  0  0  0  0  0  0  0  0  0  0
   -5.3170   19.0440  -31.5630 O   0  0  0  0  0  0  0  0  0  0  0  0
   -3.9950   20.4930  -33.3470 N   0  0  0  0  0  0  0  0  0  0  0  0
   -3.1610   19.3030  -33.5360 C   0  0  0  0  0  0  0  0  0  0  0  0
   -1.7400   19.6450  -33.1180 C   0  0  0  0  0  0  0  0  0  0  0  0
   -1.6830   21.1590  -33.0640 C   0  0  0  0  0  0  0  0  0  0  0  0
   -3.0840   21.6390  -33.4180 C   0  0  0  0  0  0  0  0  0  0  0  0
   -2.6920   22.2440  -28.4640 C   0  0  0  0  0  0  0  0  0  0  0  0
   -3.5870   21.4020  -28.1860 O   0  0  0  0  0  0  0  0  0  0  0  0
    1.7231   18.9737  -26.7473 H   0  0  0  0  0  0  0  0  0  0  0  0
    2.0184   17.9977  -28.2261 H   0  0  0  0  0  0  0  0  0  0  0  0
    2.3744   19.7583  -28.2261 H   0  0  0  0  0  0  0  0  0  0  0  0
   -0.2210   18.3178  -28.5837 H   0  0  0  0  0  0  0  0  0  0  0  0
    1.1304   20.8485  -29.5401 H   0  0  0  0  0  0  0  0  0  0  0  0
    0.4195   19.4697  -30.4734 H   0  0  0  0  0  0  0  0  0  0  0  0
   -0.9754   21.4702  -30.7299 H   0  0  0  0  0  0  0  0  0  0  0  0
   -1.8471   20.1991  -29.7831 H   0  0  0  0  0  0  0  0  0  0  0  0
    0.4095   21.8101  -27.1864 H   0  0  0  0  0  0  0  0  0  0  0  0
   -1.2498   21.8020  -26.4543 H   0  0  0  0  0  0  0  0  0  0  0  0
   -0.1580   19.6030  -26.2179 H   0  0  0  0  0  0  0  0  0  0  0  0
   -1.6171   19.5281  -27.2954 H   0  0  0  0  0  0  0  0  0  0  0  0
   -5.0570   23.5250  -28.6130 H   0  0  0  0  0  0  0  0  0  0  0  0
   -4.3371   25.1664  -28.3752 H   0  0  0  0  0  0  0  0  0  0  0  0
   -7.1351   24.8275  -31.3973 H   0  0  0  0  0  0  0  0  0  0  0  0
   -9.3948   23.8468  -31.7679 H   0  0  0  0  0  0  0  0  0  0  0  0
   -9.6471   21.3910  -32.1216 H   0  0  0  0  0  0  0  0  0  0  0  0
   -7.6401   19.9189  -32.1398 H   0  0  0  0  0  0  0  0  0  0  0  0
   -3.5430   18.4787  -32.9158 H   0  0  0  0  0  0  0  0  0  0  0  0
   -3.1810   18.9896  -34.5902 H   0  0  0  0  0  0  0  0  0  0  0  0
   -1.5172   19.2170  -32.1295 H   0  0  0  0  0  0  0  0  0  0  0  0
   -0.9997   19.2351  -33.8207 H   0  0  0  0  0  0  0  0  0  0  0  0
   -1.4061   21.4963  -32.0542 H   0  0  0  0  0  0  0  0  0  0  0  0
   -0.9297   21.5611  -33.7574 H   0  0  0  0  0  0  0  0  0  0  0  0
   -3.4034   22.4128  -32.7044 H   0  0  0  0  0  0  0  0  0  0  0  0
   -3.0929   22.0679  -34.4309 H   0  0  0  0  0  0  0  0  0  0  0  0
  1  2  1  0
  2  3  1  0
  3  4  1  0
  4  5  1  0
  5  6  1  0
  6  7  1  0
  5  8  1  6
  8  9  1  0
  9 10  2  0
  9 11  1  0
 11 12  1  0
 12 13  1  0
 13 14  2  0
 13 15  1  0
 15 16  1  0
 16 17  2  0
 17 18  1  0
 18 19  2  0
 19 20  1  0
 20 21  2  0
 21 22  1  0
 22 23  2  0
 22 24  2  0
 22 25  1  0
 25 26  1  0
 26 27  1  0
 27 28  1  0
 28 29  1  0
 11 30  1  0
 30 31  2  0
  7  2  1  0
 21 16  1  0
 29 25  1  0
 30  5  1  0
  1 32  1  0
  1 33  1  0
  1 34  1  0
  2 35  1  6
  3 36  1  0
  3 37  1  0
  4 38  1  0
  4 39  1  0
  6 40  1  0
  6 41  1  0
  7 42  1  0
  7 43  1  0
 12 44  1  0
 12 45  1  0
 17 46  1  0
 18 47  1  0
 19 48  1  0
 20 49  1  0
 26 50  1  0
 26 51  1  0
 27 52  1  0
 27 53  1  0
 28 54  1  0
 28 55  1  0
 29 56  1  0
 29 57  1  0
M  CHG  2   8  -1  15  -1
M  END
>  <UniqueID>  (32) 
31

>  <SMILES>  (32) 
CC1CCC2(CC1)[N-]C(=O)N(CC(=O)[N-]c1ccccc1S(=O)(=O)N1CCCC1)C2=O

>  <Energy>  (32) 
85.56255629803573

>  <Genealogy>  (32) 
CC1CCC2(CC1)[N-]C(=O)N(CC(=O)[N-]c1ccccc1S(=O)(=O)N1CCCC1)C2=O (protonated)
CC1CCC2(CC1)[N-]C(=O)N(CC(=O)[N-]c1ccccc1S(=O)(=O)N1CCCC1)C2=O (3D coordinates assigned)
CC1CCC2(CC1)[N-]C(=O)N(CC(=O)[N-]c1ccccc1S(=O)(=O)N1CCCC1)C2=O (nonaromatic ring conformer: 85.56255629803573 kcal/mol)

>  <smiles>  (32) 
CC1CCC2(CC1)NC(=O)N(CC(=O)Nc1ccccc1S(=O)(=O)N1CCCC1)C2=O

>  <score_type>  (32) 
oracle

>  <origin>  (32) 
adgpu

>  <m_score__min__energy>  (32) 
-12.43

>  <m_primary>  (32) 
energy

$$$$
32:0
     RDKit          3D

 46 49  0  0  0  0  0  0  0  0999 V2000
   -5.9450   21.0360  -32.6520 C   0  0  0  0  0  0  0  0  0  0  0  0
   -7.0310   20.0670  -32.2600 C   0  0  0  0  0  0  0  0  0  0  0  0
   -6.9600   18.7070  -32.6330 C   0  0  0  0  0  0  0  0  0  0  0  0
   -5.8180   18.1850  -33.3260 N   0  0  0  0  0  0  0  0  0  0  0  0
   -5.8170   18.1940  -34.7960 C   0  0  0  0  0  0  0  0  0  0  0  0
   -4.5090   17.6230  -35.3600 C   0  0  0  0  0  0  0  0  0  0  0  0
   -3.3130   18.1690  -34.5730 C   0  0  0  0  0  0  0  0  0  0  0  0
   -3.3820   17.8110  -33.0720 C   0  0  0  0  0  0  0  0  0  0  0  0
   -4.7930   17.4370  -32.5900 C   0  0  0  0  0  0  0  0  0  0  0  0
   -7.9970   17.8760  -32.3480 N   0  0  0  0  0  0  0  0  0  0  0  0
   -9.0930   18.3160  -31.6840 C   0  0  0  0  0  0  0  0  0  0  0  0
   -9.1650   19.6070  -31.2750 N   0  0  0  0  0  0  0  0  0  0  0  0
   -8.1630   20.4890  -31.5300 C   0  0  0  0  0  0  0  0  0  0  0  0
   -8.2860   21.8410  -31.0560 N   0  0  0  0  0  0  0  0  0  0  0  0
   -8.6430   22.9150  -31.9870 C   0  0  0  0  0  0  0  0  0  0  0  0
   -7.4840   23.7770  -32.2110 N   0  0  0  0  0  0  0  0  0  0  0  0
   -6.4500   23.9100  -31.2200 C   0  0  0  0  0  0  0  0  0  0  0  0
   -5.3780   24.7880  -31.4330 C   0  0  0  0  0  0  0  0  0  0  0  0
   -4.3690   24.9110  -30.4740 C   0  0  0  0  0  0  0  0  0  0  0  0
   -4.4250   24.1600  -29.2970 C   0  0  0  0  0  0  0  0  0  0  0  0
   -5.4890   23.2820  -29.0750 C   0  0  0  0  0  0  0  0  0  0  0  0
   -6.4980   23.1400  -30.0390 C   0  0  0  0  0  0  0  0  0  0  0  0
   -7.6710   22.2320  -29.7850 C   0  0  0  0  0  0  0  0  0  0  0  0
   -5.4796   21.4513  -31.7460 H   0  0  0  0  0  0  0  0  0  0  0  0
   -5.1835   20.5118  -33.2481 H   0  0  0  0  0  0  0  0  0  0  0  0
   -6.3794   21.8521  -33.2481 H   0  0  0  0  0  0  0  0  0  0  0  0
   -6.6585   17.5850  -35.1579 H   0  0  0  0  0  0  0  0  0  0  0  0
   -5.9139   19.2359  -35.1353 H   0  0  0  0  0  0  0  0  0  0  0  0
   -4.5267   16.5260  -35.2802 H   0  0  0  0  0  0  0  0  0  0  0  0
   -4.4118   17.9203  -36.4146 H   0  0  0  0  0  0  0  0  0  0  0  0
   -2.3896   17.7456  -34.9949 H   0  0  0  0  0  0  0  0  0  0  0  0
   -3.3291   19.2657  -34.6570 H   0  0  0  0  0  0  0  0  0  0  0  0
   -2.7143   16.9565  -32.8878 H   0  0  0  0  0  0  0  0  0  0  0  0
   -3.0789   18.7087  -32.5132 H   0  0  0  0  0  0  0  0  0  0  0  0
   -4.9524   16.3599  -32.7466 H   0  0  0  0  0  0  0  0  0  0  0  0
   -4.8757   17.6889  -31.5224 H   0  0  0  0  0  0  0  0  0  0  0  0
   -9.9243   17.6261  -31.4767 H   0  0  0  0  0  0  0  0  0  0  0  0
   -8.9642   22.4779  -32.9439 H   0  0  0  0  0  0  0  0  0  0  0  0
   -9.4632   23.5105  -31.5596 H   0  0  0  0  0  0  0  0  0  0  0  0
   -7.4700   24.3830  -33.0610 H   0  0  0  0  0  0  0  0  0  0  0  0
   -5.3310   25.3818  -32.3577 H   0  0  0  0  0  0  0  0  0  0  0  0
   -3.5292   25.6003  -30.6460 H   0  0  0  0  0  0  0  0  0  0  0  0
   -3.6298   24.2602  -28.5436 H   0  0  0  0  0  0  0  0  0  0  0  0
   -5.5355   22.7009  -28.1422 H   0  0  0  0  0  0  0  0  0  0  0  0
   -7.3268   21.3319  -29.2546 H   0  0  0  0  0  0  0  0  0  0  0  0
   -8.4139   22.7643  -29.1729 H   0  0  0  0  0  0  0  0  0  0  0  0
  1  2  1  0
  2  3  2  0
  3  4  1  0
  4  5  1  0
  5  6  1  0
  6  7  1  0
  7  8  1  0
  8  9  1  0
  3 10  1  0
 10 11  2  0
 11 12  1  0
 12 13  2  0
 13 14  1  0
 14 15  1  0
 15 16  1  0
 16 17  1  0
 17 18  2  0
 18 19  1  0
 19 20  2  0
 20 21  1  0
 21 22  2  0
 22 23  1  0
 13  2  1  0
 23 14  1  0
  9  4  1  0
 22 17  1  0
  1 24  1  0
  1 25  1  0
  1 26  1  0
  5 27  1  0
  5 28  1  0
  6 29  1  0
  6 30  1  0
  7 31  1  0
  7 32  1  0
  8 33  1  0
  8 34  1  0
  9 35  1  0
  9 36  1  0
 11 37  1  0
 15 38  1  0
 15 39  1  0
 16 40  1  0
 18 41  1  0
 19 42  1  0
 20 43  1  0
 21 44  1  0
 23 45  1  0
 23 46  1  0
M  END
>  <UniqueID>  (33) 
32

>  <SMILES>  (33) 
Cc1c(N2CCCCC2)ncnc1N1CNc2ccccc2C1

>  <Energy>  (33) 
62.42539784885905

>  <Genealogy>  (33) 
Cc1c(N2CCCCC2)ncnc1N1CNc2ccccc2C1 (3D coordinates assigned)
Cc1c(N2CCCCC2)ncnc1N1CNc2ccccc2C1 (nonaromatic ring conformer: 62.42539784885905 kcal/mol)

>  <smiles>  (33) 
Cc1c(N2CCCCC2)ncnc1N1CNc2ccccc2C1

>  <score_type>  (33) 
oracle

>  <origin>  (33) 
adgpu

>  <m_score__min__energy>  (33) 
-8.0199999999999996

>  <m_primary>  (33) 
energy

$$$$
33:0
     RDKit          3D

 37 39  0  0  0  0  0  0  0  0999 V2000
   -6.9410   17.6280  -32.4890 O   0  0  0  0  0  0  0  0  0  0  0  0
   -7.4890   18.8850  -32.2640 C   0  0  0  0  0  0  0  0  0  0  0  0
   -8.8720   19.0660  -32.3340 C   0  0  0  0  0  0  0  0  0  0  0  0
   -9.4250   20.3280  -32.1050 C   0  0  0  0  0  0  0  0  0  0  0  0
   -8.5950   21.4130  -31.8050 C   0  0  0  0  0  0  0  0  0  0  0  0
   -7.1990   21.2450  -31.7320 C   0  0  0  0  0  0  0  0  0  0  0  0
   -6.3160   22.3940  -31.4120 C   0  0  0  0  0  0  0  0  0  0  0  0
   -6.7860   23.7100  -31.5440 C   0  0  0  0  0  0  0  0  0  0  0  0
   -5.9600   24.7900  -31.2270 C   0  0  0  0  0  0  0  0  0  0  0  0
   -4.6490   24.5750  -30.7980 C   0  0  0  0  0  0  0  0  0  0  0  0
   -3.8660   25.6740  -30.4560 O   0  0  0  0  0  0  0  0  0  0  0  0
   -4.1400   23.2630  -30.7030 C   0  0  0  0  0  0  0  0  0  0  0  0
   -2.7020   23.0050  -30.2750 C   0  0  0  0  0  0  0  0  0  0  0  0
   -2.5130   22.7860  -28.8170 N   0  0  0  0  0  0  0  0  0  0  0  0
   -3.7530   22.8120  -28.0340 C   0  0  0  0  0  0  0  0  0  0  0  0
   -3.8640   24.1850  -27.3900 C   0  0  0  0  0  0  0  0  0  0  0  0
   -2.4550   24.7540  -27.4050 C   0  0  0  0  0  0  0  0  0  0  0  0
   -1.6080   23.7480  -28.1780 C   0  0  0  0  0  0  0  0  0  0  0  0
   -4.9970   22.1820  -30.9770 C   0  0  0  0  0  0  0  0  0  0  0  0
   -6.6540   19.9680  -31.9660 C   0  0  0  0  0  0  0  0  0  0  0  0
   -9.5264   18.2139  -32.5697 H   0  0  0  0  0  0  0  0  0  0  0  0
  -10.5145   20.4687  -32.1607 H   0  0  0  0  0  0  0  0  0  0  0  0
   -9.0359   22.4045  -31.6248 H   0  0  0  0  0  0  0  0  0  0  0  0
   -7.8111   23.8915  -31.8993 H   0  0  0  0  0  0  0  0  0  0  0  0
   -6.3446   25.8167  -31.3158 H   0  0  0  0  0  0  0  0  0  0  0  0
   -2.3432   22.1100  -30.8044 H   0  0  0  0  0  0  0  0  0  0  0  0
   -2.1372   23.9149  -30.5262 H   0  0  0  0  0  0  0  0  0  0  0  0
   -4.6160   22.6364  -28.6930 H   0  0  0  0  0  0  0  0  0  0  0  0
   -3.7398   22.0256  -27.2650 H   0  0  0  0  0  0  0  0  0  0  0  0
   -4.5444   24.8273  -27.9683 H   0  0  0  0  0  0  0  0  0  0  0  0
   -4.2701   24.1261  -26.3694 H   0  0  0  0  0  0  0  0  0  0  0  0
   -2.4423   25.7320  -27.9083 H   0  0  0  0  0  0  0  0  0  0  0  0
   -2.0702   24.9086  -26.3862 H   0  0  0  0  0  0  0  0  0  0  0  0
   -1.0166   24.2697  -28.9449 H   0  0  0  0  0  0  0  0  0  0  0  0
   -0.9180   23.2280  -27.4972 H   0  0  0  0  0  0  0  0  0  0  0  0
   -4.6285   21.1535  -30.8486 H   0  0  0  0  0  0  0  0  0  0  0  0
   -5.5651   19.8206  -31.9143 H   0  0  0  0  0  0  0  0  0  0  0  0
  1  2  1  0
  2  3  2  0
  3  4  1  0
  4  5  2  0
  5  6  1  0
  6  7  1  0
  7  8  2  0
  8  9  1  0
  9 10  2  0
 10 11  1  0
 10 12  1  0
 12 13  1  0
 13 14  1  0
 14 15  1  0
 15 16  1  0
 16 17  1  0
 17 18  1  0
 12 19  2  0
  6 20  2  0
 20  2  1  0
 19  7  1  0
 18 14  1  0
  3 21  1  0
  4 22  1  0
  5 23  1  0
  8 24  1  0
  9 25  1  0
 13 26  1  0
 13 27  1  0
 15 28  1  0
 15 29  1  0
 16 30  1  0
 16 31  1  0
 17 32  1  0
 17 33  1  0
 18 34  1  0
 18 35  1  0
 19 36  1  0
 20 37  1  0
M  CHG  2   1  -1  11  -1
M  END
>  <UniqueID>  (34) 
33

>  <SMILES>  (34) 
[O-]c1cccc(-c2ccc([O-])c(CN3CCCC3)c2)c1

>  <Energy>  (34) 
50.552219385872974

>  <Genealogy>  (34) 
[O-]c1cccc(-c2ccc([O-])c(CN3CCCC3)c2)c1 (protonated)
[O-]c1cccc(-c2ccc([O-])c(CN3CCCC3)c2)c1 (3D coordinates assigned)
[O-]c1cccc(-c2ccc([O-])c(CN3CCCC3)c2)c1 (nonaromatic ring conformer: 50.552219385872974 kcal/mol)

>  <smiles>  (34) 
Oc1cccc(-c2ccc(O)c(CN3CCCC3)c2)c1

>  <score_type>  (34) 
oracle

>  <origin>  (34) 
adgpu

>  <m_score__min__energy>  (34) 
-10.73

>  <m_primary>  (34) 
energy

$$$$
34:0
     RDKit          3D

 46 49  0  0  1  0  0  0  0  0999 V2000
   -0.2820   23.5420  -24.2330 N   0  0  0  0  0  0  0  0  0  0  0  0
   -0.3410   24.2640  -25.4540 C   0  0  0  0  0  0  0  0  0  0  0  0
    0.7690   24.9740  -25.8980 C   0  0  0  0  0  0  0  0  0  0  0  0
    0.6730   25.6700  -27.0990 C   0  0  0  0  0  0  0  0  0  0  0  0
   -0.4910   25.6660  -27.8450 C   0  0  0  0  0  0  0  0  0  0  0  0
   -1.5760   24.9710  -27.4100 C   0  0  0  0  0  0  0  0  0  0  0  0
   -2.8210   24.9000  -28.0990 N   0  0  0  0  0  0  0  0  0  0  0  0
   -3.0090   24.1180  -29.1120 C   0  0  0  0  0  0  0  0  0  0  0  0
   -2.0040   23.3360  -29.5470 N   0  0  0  0  0  0  0  0  0  0  0  0
   -2.2460   22.5390  -30.6050 C   0  0  0  0  0  0  0  0  0  0  0  0
   -3.4330   22.4930  -31.2350 N   0  0  0  0  0  0  0  0  0  0  0  0
   -4.4260   23.2690  -30.8020 C   0  0  0  0  0  0  0  0  0  0  0  0
   -5.6320   23.2280  -31.4370 C   0  0  0  0  0  0  0  0  0  0  0  0
   -5.9260   22.4000  -32.5560 N   0  0  0  0  0  0  0  0  0  0  0  0
   -5.8480   20.9700  -32.4760 C   0  0  0  0  0  0  0  0  0  0  0  0
   -5.5140   20.4860  -31.3880 O   0  0  0  0  0  0  0  0  0  0  0  0
   -6.1460   20.1920  -33.6020 N   0  0  0  0  0  0  0  0  0  0  0  0
   -6.1190   18.7810  -33.6860 C   0  0  0  0  0  0  0  0  0  0  0  0
   -5.1190   18.1980  -34.4470 C   0  0  0  0  0  0  0  0  0  0  0  0
   -5.0240   16.8310  -34.5780 C   0  0  0  0  0  0  0  0  0  0  0  0
   -5.9050   15.9820  -33.9690 C   0  0  0  0  0  0  0  0  0  0  0  0
   -5.7180   14.2550  -34.1840 Cl  0  0  0  0  0  0  0  0  0  0  0  0
   -6.9060   16.5410  -33.2070 C   0  0  0  0  0  0  0  0  0  0  0  0
   -6.9990   17.9290  -33.0780 C   0  0  0  0  0  0  0  0  0  0  0  0
   -6.6600   24.0360  -30.9820 C   0  0  0  0  0  0  0  0  0  0  0  0
   -6.4760   24.8810  -29.8970 C   0  0  0  0  0  0  0  0  0  0  0  0
   -5.2560   24.9230  -29.2540 C   0  0  0  0  0  0  0  0  0  0  0  0
   -4.2550   24.1160  -29.7200 C   0  0  0  0  0  0  0  0  0  0  0  0
   -1.5040   24.2680  -26.2110 C   0  0  0  0  0  0  0  0  0  0  0  0
   -0.8150   22.6400  -24.1260 H   0  0  0  0  0  0  0  0  0  0  0  0
    0.2630   23.8450  -23.4120 H   0  0  0  0  0  0  0  0  0  0  0  0
    1.7009   24.9852  -25.3137 H   0  0  0  0  0  0  0  0  0  0  0  0
    1.5429   26.2362  -27.4632 H   0  0  0  0  0  0  0  0  0  0  0  0
   -0.5395   26.2253  -28.7910 H   0  0  0  0  0  0  0  0  0  0  0  0
   -1.0840   23.3760  -29.0530 H   0  0  0  0  0  0  0  0  0  0  0  0
   -1.4335   21.8945  -30.9716 H   0  0  0  0  0  0  0  0  0  0  0  0
   -6.2020   22.8920  -33.4450 H   0  0  0  0  0  0  0  0  0  0  0  0
   -6.4210   20.7320  -34.4790 H   0  0  0  0  0  0  0  0  0  0  0  0
   -4.3860   18.8404  -34.9569 H   0  0  0  0  0  0  0  0  0  0  0  0
   -4.2143   16.4091  -35.1915 H   0  0  0  0  0  0  0  0  0  0  0  0
   -7.6348   15.8929  -32.6982 H   0  0  0  0  0  0  0  0  0  0  0  0
   -7.8091   18.3516  -32.4655 H   0  0  0  0  0  0  0  0  0  0  0  0
   -7.6364   24.0077  -31.4878 H   0  0  0  0  0  0  0  0  0  0  0  0
   -7.3030   25.5176  -29.5494 H   0  0  0  0  0  0  0  0  0  0  0  0
   -5.0932   25.5862  -28.3917 H   0  0  0  0  0  0  0  0  0  0  0  0
   -2.3821   23.7072  -25.8582 H   0  0  0  0  0  0  0  0  0  0  0  0
  1  2  1  0
  2  3  2  0
  3  4  1  0
  4  5  2  0
  5  6  1  0
  6  7  1  0
  7  8  2  0
  8  9  1  0
  9 10  1  0
 10 11  2  0
 11 12  1  0
 12 13  2  0
 13 14  1  0
 14 15  1  0
 15 16  2  0
 15 17  1  0
 17 18  1  0
 18 19  2  0
 19 20  1  0
 20 21  2  0
 21 22  1  0
 21 23  1  0
 23 24  2  0
 13 25  1  0
 25 26  2  0
 26 27  1  0
 27 28  2  0
  6 29  2  0
 29  2  1  0
 28  8  1  0
 28 12  1  0
 24 18  1  0
  1 30  1  0
  1 31  1  0
  3 32  1  0
  4 33  1  0
  5 34  1  0
  9 35  1  0
 10 36  1  0
 14 37  1  0
 17 38  1  0
 19 39  1  0
 20 40  1  0
 23 41  1  0
 24 42  1  0
 25 43  1  0
 26 44  1  0
 27 45  1  0
 29 46  1  0
M  END
>  <smiles>  (35) 
Nc1cccc(N=c2[nH]cnc3c(NC(=O)Nc4ccc(Cl)cc4)cccc23)c1

>  <score_type>  (35) 
oracle

>  <origin>  (35) 
adgpu

>  <m_score__min__energy>  (35) 
-9.1799999999999997

>  <m_primary>  (35) 
energy

$$$$
35:0
     RDKit          3D

 65 70  0  0  0  0  0  0  0  0999 V2000
    3.6750   29.4770  -23.0150 C   0  0  0  0  0  0  0  0  0  0  0  0
    2.7270   28.4680  -23.5140 N   0  0  0  0  0  0  0  0  0  0  0  0
    3.2790   27.1120  -23.3290 C   0  0  0  0  0  0  0  0  0  0  0  0
    2.3780   26.0650  -24.0100 C   0  0  0  0  0  0  0  0  0  0  0  0
    1.0430   26.6160  -24.2470 N   0  0  0  0  0  0  0  0  0  0  0  0
    0.3570   26.3410  -25.4750 C   0  0  0  0  0  0  0  0  0  0  0  0
   -0.1690   27.4040  -26.2500 C   0  0  0  0  0  0  0  0  0  0  0  0
   -0.8320   27.1370  -27.4650 C   0  0  0  0  0  0  0  0  0  0  0  0
   -0.9280   25.8080  -27.8720 C   0  0  0  0  0  0  0  0  0  0  0  0
   -1.5010   25.3290  -28.9860 N   0  0  0  0  0  0  0  0  0  0  0  0
   -1.2990   23.9880  -28.8720 C   0  0  0  0  0  0  0  0  0  0  0  0
   -1.7870   23.0110  -29.8700 C   0  0  0  0  0  0  0  0  0  0  0  0
   -0.9030   22.0760  -30.4370 C   0  0  0  0  0  0  0  0  0  0  0  0
   -1.3630   21.1360  -31.3640 C   0  0  0  0  0  0  0  0  0  0  0  0
   -2.7170   21.1040  -31.7280 C   0  0  0  0  0  0  0  0  0  0  0  0
   -3.2070   20.0670  -32.6580 C   0  0  0  0  0  0  0  0  0  0  0  0
   -2.3070   19.3670  -33.4770 C   0  0  0  0  0  0  0  0  0  0  0  0
   -2.7780   18.4410  -34.4090 C   0  0  0  0  0  0  0  0  0  0  0  0
   -4.1520   18.1970  -34.5300 C   0  0  0  0  0  0  0  0  0  0  0  0
   -4.6210   17.2860  -35.4790 O   0  0  0  0  0  0  0  0  0  0  0  0
   -5.0620   18.8760  -33.7060 C   0  0  0  0  0  0  0  0  0  0  0  0
   -6.4620   18.5610  -33.8070 N   0  0  0  0  0  0  0  0  0  0  0  0
   -7.4490   18.7460  -32.7820 C   0  0  0  0  0  0  0  0  0  0  0  0
   -7.8640   17.7350  -32.1570 O   0  0  0  0  0  0  0  0  0  0  0  0
   -7.9790   20.0890  -32.4370 C   0  0  0  0  0  0  0  0  0  0  0  0
   -9.3500   20.2580  -32.1740 C   0  0  0  0  0  0  0  0  0  0  0  0
   -9.8550   21.5170  -31.8270 C   0  0  0  0  0  0  0  0  0  0  0  0
   -8.9990   22.6190  -31.7510 C   0  0  0  0  0  0  0  0  0  0  0  0
   -7.6360   22.4660  -32.0260 C   0  0  0  0  0  0  0  0  0  0  0  0
   -7.1270   21.2100  -32.3710 C   0  0  0  0  0  0  0  0  0  0  0  0
   -4.5810   19.8060  -32.7650 C   0  0  0  0  0  0  0  0  0  0  0  0
   -3.6000   22.0430  -31.1730 C   0  0  0  0  0  0  0  0  0  0  0  0
   -3.1360   22.9940  -30.2580 C   0  0  0  0  0  0  0  0  0  0  0  0
   -0.6370   23.6170  -27.7420 N   0  0  0  0  0  0  0  0  0  0  0  0
   -0.4180   24.7880  -27.1300 C   0  0  0  0  0  0  0  0  0  0  0  0
    0.2340   25.0090  -25.9220 C   0  0  0  0  0  0  0  0  0  0  0  0
    0.4350   27.4970  -23.2480 C   0  0  0  0  0  0  0  0  0  0  0  0
    1.4320   28.5930  -22.8090 C   0  0  0  0  0  0  0  0  0  0  0  0
    3.6704   29.4721  -21.9150 H   0  0  0  0  0  0  0  0  0  0  0  0
    4.6862   29.2415  -23.3785 H   0  0  0  0  0  0  0  0  0  0  0  0
    3.3770   30.4715  -23.3785 H   0  0  0  0  0  0  0  0  0  0  0  0
    4.2848   27.0671  -23.7722 H   0  0  0  0  0  0  0  0  0  0  0  0
    3.3287   26.8921  -22.2524 H   0  0  0  0  0  0  0  0  0  0  0  0
    2.8252   25.7727  -24.9716 H   0  0  0  0  0  0  0  0  0  0  0  0
    2.2899   25.1883  -23.3515 H   0  0  0  0  0  0  0  0  0  0  0  0
   -0.0596   28.4418  -25.9022 H   0  0  0  0  0  0  0  0  0  0  0  0
   -1.2588   27.9499  -28.0709 H   0  0  0  0  0  0  0  0  0  0  0  0
    0.1586   22.0842  -30.1490 H   0  0  0  0  0  0  0  0  0  0  0  0
   -0.6593   20.4178  -31.8102 H   0  0  0  0  0  0  0  0  0  0  0  0
   -1.2262   19.5491  -33.3838 H   0  0  0  0  0  0  0  0  0  0  0  0
   -2.0672   17.9005  -35.0513 H   0  0  0  0  0  0  0  0  0  0  0  0
   -5.6100   17.0800  -35.5750 H   0  0  0  0  0  0  0  0  0  0  0  0
  -10.0299   19.3959  -32.2413 H   0  0  0  0  0  0  0  0  0  0  0  0
  -10.9273   21.6389  -31.6139 H   0  0  0  0  0  0  0  0  0  0  0  0
   -9.3970   23.6066  -31.4750 H   0  0  0  0  0  0  0  0  0  0  0  0
   -6.9636   23.3348  -31.9708 H   0  0  0  0  0  0  0  0  0  0  0  0
   -6.0555   21.0962  -32.5922 H   0  0  0  0  0  0  0  0  0  0  0  0
   -5.2888   20.3326  -32.1079 H   0  0  0  0  0  0  0  0  0  0  0  0
   -4.6621   22.0312  -31.4589 H   0  0  0  0  0  0  0  0  0  0  0  0
   -3.8336   23.7342  -29.8393 H   0  0  0  0  0  0  0  0  0  0  0  0
    0.6404   24.1726  -25.3344 H   0  0  0  0  0  0  0  0  0  0  0  0
   -0.4573   27.9727  -23.6810 H   0  0  0  0  0  0  0  0  0  0  0  0
    0.1581   26.8972  -22.3685 H   0  0  0  0  0  0  0  0  0  0  0  0
    0.9986   29.5792  -23.0315 H   0  0  0  0  0  0  0  0  0  0  0  0
    1.6158   28.4778  -21.7306 H   0  0  0  0  0  0  0  0  0  0  0  0
  1  2  1  0
  2  3  1  0
  3  4  1  0
  4  5  1  0
  5  6  1  0
  6  7  2  0
  7  8  1  0
  8  9  2  0
  9 10  1  0
 10 11  1  0
 11 12  1  0
 12 13  2  0
 13 14  1  0
 14 15  2  0
 15 16  1  0
 16 17  2  0
 17 18  1  0
 18 19  2  0
 19 20  1  0
 19 21  1  0
 21 22  1  0
 22 23  1  0
 23 24  2  0
 23 25  1  0
 25 26  2  0
 26 27  1  0
 27 28  2  0
 28 29  1  0
 29 30  2  0
 21 31  2  0
 15 32  1  0
 32 33  2  0
 11 34  2  0
 34 35  1  0
 35 36  2  0
  5 37  1  0
 37 38  1  0
 38  2  1  0
 36  6  1  0
 35  9  1  0
 33 12  1  0
 31 16  1  0
 30 25  1  0
  1 39  1  0
  1 40  1  0
  1 41  1  0
  3 42  1  0
  3 43  1  0
  4 44  1  0
  4 45  1  0
  7 46  1  0
  8 47  1  0
 13 48  1  0
 14 49  1  0
 17 50  1  0
 18 51  1  0
 20 52  1  0
 26 53  1  0
 27 54  1  0
 28 55  1  0
 29 56  1  0
 30 57  1  0
 31 58  1  0
 32 59  1  0
 33 60  1  0
 36 61  1  0
 37 62  1  0
 37 63  1  0
 38 64  1  0
 38 65  1  0
M  CHG  2  10  -1  22  -1
M  END
>  <UniqueID>  (36) 
34

>  <SMILES>  (36) 
CN1CCN(c2ccc3[n-]c(-c4ccc(-c5ccc(O)c([N-]C(=O)c6ccccc6)c5)cc4)nc3c2)CC1

>  <Energy>  (36) 
132.30092809688423

>  <Genealogy>  (36) 
CN1CCN(c2ccc3[n-]c(-c4ccc(-c5ccc(O)c([N-]C(=O)c6ccccc6)c5)cc4)nc3c2)CC1 (protonated)
CN1CCN(c2ccc3[n-]c(-c4ccc(-c5ccc(O)c([N-]C(=O)c6ccccc6)c5)cc4)nc3c2)CC1 (3D coordinates assigned)
CN1CCN(c2ccc3[n-]c(-c4ccc(-c5ccc(O)c([N-]C(=O)c6ccccc6)c5)cc4)nc3c2)CC1 (nonaromatic ring conformer: 132.30092809688423 kcal/mol)

>  <smiles>  (36) 
CN1CCN(c2ccc3[nH]c(-c4ccc(-c5ccc(O)c(NC(=O)c6ccccc6)c5)cc4)nc3c2)CC1

>  <score_type>  (36) 
oracle

>  <origin>  (36) 
adgpu

>  <m_score__min__energy>  (36) 
-10.289999999999999

>  <m_primary>  (36) 
energy

$$$$
36:0
     RDKit          3D

 45 47  0  0  0  0  0  0  0  0999 V2000
   -6.4440   11.8540  -35.6200 C   0  0  0  0  0  0  0  0  0  0  0  0
   -5.8360   13.0800  -35.0240 C   0  0  0  0  0  0  0  0  0  0  0  0
   -6.5150   14.0620  -34.3290 C   0  0  0  0  0  0  0  0  0  0  0  0
   -5.5260   14.9400  -33.9280 C   0  0  0  0  0  0  0  0  0  0  0  0
   -5.7570   16.1620  -33.1320 C   0  0  0  0  0  0  0  0  0  0  0  0
   -4.9820   16.4220  -32.1710 O   0  0  0  0  0  0  0  0  0  0  0  0
   -6.8900   17.0060  -33.3860 N   0  0  0  0  0  0  0  0  0  0  0  0
   -6.9530   18.3920  -33.0070 C   0  0  0  0  0  0  0  0  0  0  0  0
   -8.1900   18.9560  -32.6590 C   0  0  0  0  0  0  0  0  0  0  0  0
   -8.2790   20.3040  -32.3050 C   0  0  0  0  0  0  0  0  0  0  0  0
   -7.1350   21.1120  -32.3010 C   0  0  0  0  0  0  0  0  0  0  0  0
   -7.2430   22.8110  -31.8320 S   0  0  0  0  0  0  0  0  0  0  0  0
   -7.0890   23.6730  -33.0540 O   0  0  0  0  0  0  0  0  0  0  0  0
   -8.6020   23.0770  -31.2440 O   0  0  0  0  0  0  0  0  0  0  0  0
   -6.0120   23.2390  -30.6660 N   0  0  0  0  0  0  0  0  0  0  0  0
   -4.6670   23.0660  -31.2500 C   0  0  0  0  0  0  0  0  0  0  0  0
   -3.6290   23.8910  -30.4730 C   0  0  0  0  0  0  0  0  0  0  0  0
   -3.8860   25.2910  -30.4670 O   0  0  0  0  0  0  0  0  0  0  0  0
   -5.2490   25.6240  -30.6910 C   0  0  0  0  0  0  0  0  0  0  0  0
   -6.2320   24.5920  -30.1090 C   0  0  0  0  0  0  0  0  0  0  0  0
   -5.9020   20.5610  -32.6770 C   0  0  0  0  0  0  0  0  0  0  0  0
   -5.8110   19.2120  -33.0310 C   0  0  0  0  0  0  0  0  0  0  0  0
   -4.3290   14.4610  -34.3430 N   0  0  0  0  0  0  0  0  0  0  0  0
   -3.0060   15.0230  -34.0940 C   0  0  0  0  0  0  0  0  0  0  0  0
   -4.5130   13.3320  -35.0090 N   0  0  0  0  0  0  0  0  0  0  0  0
   -6.7773   11.1818  -34.8156 H   0  0  0  0  0  0  0  0  0  0  0  0
   -7.3060   12.1374  -36.2418 H   0  0  0  0  0  0  0  0  0  0  0  0
   -5.6967   11.3393  -36.2418 H   0  0  0  0  0  0  0  0  0  0  0  0
   -7.5962   14.1296  -34.1383 H   0  0  0  0  0  0  0  0  0  0  0  0
   -7.7540   16.5590  -33.7640 H   0  0  0  0  0  0  0  0  0  0  0  0
   -9.0958   18.3320  -32.6651 H   0  0  0  0  0  0  0  0  0  0  0  0
   -9.2530   20.7335  -32.0278 H   0  0  0  0  0  0  0  0  0  0  0  0
   -4.3886   22.0026  -31.2076 H   0  0  0  0  0  0  0  0  0  0  0  0
   -4.6865   23.4133  -32.2936 H   0  0  0  0  0  0  0  0  0  0  0  0
   -3.6163   23.5376  -29.4314 H   0  0  0  0  0  0  0  0  0  0  0  0
   -2.6644   23.7477  -30.9819 H   0  0  0  0  0  0  0  0  0  0  0  0
   -5.4510   26.5998  -30.2252 H   0  0  0  0  0  0  0  0  0  0  0  0
   -5.4046   25.6440  -31.7798 H   0  0  0  0  0  0  0  0  0  0  0  0
   -6.0998   24.5522  -29.0177 H   0  0  0  0  0  0  0  0  0  0  0  0
   -7.2516   24.9069  -30.3760 H   0  0  0  0  0  0  0  0  0  0  0  0
   -5.0020   21.1933  -32.6935 H   0  0  0  0  0  0  0  0  0  0  0  0
   -4.8405   18.7894  -33.3301 H   0  0  0  0  0  0  0  0  0  0  0  0
   -2.8364   15.0950  -33.0095 H   0  0  0  0  0  0  0  0  0  0  0  0
   -2.2409   14.3722  -34.5424 H   0  0  0  0  0  0  0  0  0  0  0  0
   -2.9432   16.0255  -34.5424 H   0  0  0  0  0  0  0  0  0  0  0  0
  1  2  1  0
  2  3  1  0
  3  4  2  0
  4  5  1  0
  5  6  2  0
  5  7  1  0
  7  8  1  0
  8  9  2  0
  9 10  1  0
 10 11  2  0
 11 12  1  0
 12 13  2  0
 12 14  2  0
 12 15  1  0
 15 16  1  0
 16 17  1  0
 17 18  1  0
 18 19  1  0
 19 20  1  0
 11 21  1  0
 21 22  2  0
  4 23  1  0
 23 24  1  0
 23 25  1  0
 25  2  2  0
 22  8  1  0
 20 15  1  0
  1 26  1  0
  1 27  1  0
  1 28  1  0
  3 29  1  0
  7 30  1  0
  9 31  1  0
 10 32  1  0
 16 33  1  0
 16 34  1  0
 17 35  1  0
 17 36  1  0
 19 37  1  0
 19 38  1  0
 20 39  1  0
 20 40  1  0
 21 41  1  0
 22 42  1  0
 24 43  1  0
 24 44  1  0
 24 45  1  0
M  END
>  <UniqueID>  (37) 
35

>  <SMILES>  (37) 
Cc1cc(C(=O)Nc2ccc(S(=O)(=O)N3CCOCC3)cc2)n(C)n1

>  <Energy>  (37) 
91.34804064942949

>  <Genealogy>  (37) 
Cc1cc(C(=O)Nc2ccc(S(=O)(=O)N3CCOCC3)cc2)n(C)n1 (3D coordinates assigned)
Cc1cc(C(=O)Nc2ccc(S(=O)(=O)N3CCOCC3)cc2)n(C)n1 (nonaromatic ring conformer: 91.34804064942949 kcal/mol)

>  <smiles>  (37) 
Cc1cc(C(=O)Nc2ccc(S(=O)(=O)N3CCOCC3)cc2)n(C)n1

>  <score_type>  (37) 
oracle

>  <origin>  (37) 
adgpu

>  <m_score__min__energy>  (37) 
-8.5500000000000007

>  <m_primary>  (37) 
energy

$$$$
37:0
     RDKit          3D

 43 44  0  0  0  0  0  0  0  0999 V2000
   -0.6230   27.0730  -26.7570 C   0  0  0  0  0  0  0  0  0  0  0  0
   -0.0290   26.0110  -25.9350 N   0  0  0  0  0  0  0  0  0  0  0  0
   -0.9120   25.6880  -24.8080 C   0  0  0  0  0  0  0  0  0  0  0  0
    0.2340   24.5860  -26.9100 S   0  0  0  0  0  0  0  0  0  0  0  0
    1.2280   24.8980  -27.9930 O   0  0  0  0  0  0  0  0  0  0  0  0
    0.8120   23.4940  -26.0520 O   0  0  0  0  0  0  0  0  0  0  0  0
   -1.2650   24.0150  -27.6440 C   0  0  0  0  0  0  0  0  0  0  0  0
   -1.9220   22.8890  -27.1370 C   0  0  0  0  0  0  0  0  0  0  0  0
   -3.0800   22.4610  -27.7050 N   0  0  0  0  0  0  0  0  0  0  0  0
   -3.6270   23.0900  -28.7780 C   0  0  0  0  0  0  0  0  0  0  0  0
   -2.9920   24.2110  -29.3380 C   0  0  0  0  0  0  0  0  0  0  0  0
   -3.5390   24.9260  -30.4550 N   0  0  0  0  0  0  0  0  0  0  0  0
   -4.9160   24.9770  -30.8500 C   0  0  0  0  0  0  0  0  0  0  0  0
   -5.5880   26.0260  -30.6450 O   0  0  0  0  0  0  0  0  0  0  0  0
   -5.5770   23.7860  -31.4450 C   0  0  0  0  0  0  0  0  0  0  0  0
   -6.9810   23.7190  -31.4940 C   0  0  0  0  0  0  0  0  0  0  0  0
   -7.6240   22.6090  -32.0480 C   0  0  0  0  0  0  0  0  0  0  0  0
   -6.8850   21.5370  -32.5650 C   0  0  0  0  0  0  0  0  0  0  0  0
   -7.5850   20.4120  -33.1290 N   0  0  0  0  0  0  0  0  0  0  0  0
   -8.5290   19.2800  -32.2130 S   0  0  0  0  0  0  0  0  0  0  0  0
   -7.5890   17.7990  -31.9090 C   0  0  0  0  0  0  0  0  0  0  0  0
   -8.8820   19.9010  -30.8910 O   0  0  0  0  0  0  0  0  0  0  0  0
   -9.8000   18.9550  -32.9460 O   0  0  0  0  0  0  0  0  0  0  0  0
   -5.4800   21.6030  -32.5280 C   0  0  0  0  0  0  0  0  0  0  0  0
   -4.8310   22.7110  -31.9740 C   0  0  0  0  0  0  0  0  0  0  0  0
   -3.4740   22.7230  -31.9680 F   0  0  0  0  0  0  0  0  0  0  0  0
   -1.8160   24.6810  -28.7460 C   0  0  0  0  0  0  0  0  0  0  0  0
   -1.0547   27.8448  -26.1029 H   0  0  0  0  0  0  0  0  0  0  0  0
    0.1542   27.5233  -27.3919 H   0  0  0  0  0  0  0  0  0  0  0  0
   -1.4135   26.6464  -27.3919 H   0  0  0  0  0  0  0  0  0  0  0  0
   -0.3847   25.8809  -23.8621 H   0  0  0  0  0  0  0  0  0  0  0  0
   -1.8151   26.3140  -24.8586 H   0  0  0  0  0  0  0  0  0  0  0  0
   -1.1980   24.6270  -24.8586 H   0  0  0  0  0  0  0  0  0  0  0  0
   -1.5004   22.3487  -26.2766 H   0  0  0  0  0  0  0  0  0  0  0  0
   -4.5692   22.7206  -29.2091 H   0  0  0  0  0  0  0  0  0  0  0  0
   -7.5795   24.5496  -31.0917 H   0  0  0  0  0  0  0  0  0  0  0  0
   -8.7231   22.5765  -32.0785 H   0  0  0  0  0  0  0  0  0  0  0  0
   -7.5890   20.2920  -34.1660 H   0  0  0  0  0  0  0  0  0  0  0  0
   -7.4903   17.6435  -30.8245 H   0  0  0  0  0  0  0  0  0  0  0  0
   -8.1062   16.9379  -32.3573 H   0  0  0  0  0  0  0  0  0  0  0  0
   -6.5896   17.9005  -32.3573 H   0  0  0  0  0  0  0  0  0  0  0  0
   -4.8855   20.7739  -32.9394 H   0  0  0  0  0  0  0  0  0  0  0  0
   -1.3213   25.5777  -29.1474 H   0  0  0  0  0  0  0  0  0  0  0  0
  1  2  1  0
  2  3  1  0
  2  4  1  0
  4  5  2  0
  4  6  2  0
  4  7  1  0
  7  8  2  0
  8  9  1  0
  9 10  2  0
 10 11  1  0
 11 12  1  0
 12 13  1  0
 13 14  2  0
 13 15  1  0
 15 16  2  0
 16 17  1  0
 17 18  2  0
 18 19  1  0
 19 20  1  0
 20 21  1  0
 20 22  2  0
 20 23  2  0
 18 24  1  0
 24 25  2  0
 25 26  1  0
 11 27  2  0
 27  7  1  0
 25 15  1  0
  1 28  1  0
  1 29  1  0
  1 30  1  0
  3 31  1  0
  3 32  1  0
  3 33  1  0
  8 34  1  0
 10 35  1  0
 16 36  1  0
 17 37  1  0
 19 38  1  0
 21 39  1  0
 21 40  1  0
 21 41  1  0
 24 42  1  0
 27 43  1  0
M  CHG  1  12  -1
M  END
>  <UniqueID>  (38) 
36

>  <SMILES>  (38) 
CN(C)S(=O)(=O)c1cncc([N-]C(=O)c2ccc(NS(C)(=O)=O)cc2F)c1

>  <Energy>  (38) 
46.0819380230472

>  <Genealogy>  (38) 
CN(C)S(=O)(=O)c1cncc([N-]C(=O)c2ccc(NS(C)(=O)=O)cc2F)c1 (protonated)
CN(C)S(=O)(=O)c1cncc([N-]C(=O)c2ccc(NS(C)(=O)=O)cc2F)c1 (3D coordinates assigned)
CN(C)S(=O)(=O)c1cncc([N-]C(=O)c2ccc(NS(C)(=O)=O)cc2F)c1 (optimized conformer: 46.0819380230472 kcal/mol)

>  <smiles>  (38) 
CN(C)S(=O)(=O)c1cncc(NC(=O)c2ccc(NS(C)(=O)=O)cc2F)c1

>  <score_type>  (38) 
oracle

>  <origin>  (38) 
adgpu

>  <m_score__min__energy>  (38) 
-10.470000000000001

>  <m_primary>  (38) 
energy

$$$$
38:0
     RDKit          3D

 32 32  0  0  0  0  0  0  0  0999 V2000
   -9.4890   21.3390  -31.9430 C   0  0  0  0  0  0  0  0  0  0  0  0
   -9.0980   20.0460  -32.6580 C   0  0  0  0  0  0  0  0  0  0  0  0
   -8.7250   18.9180  -31.6830 C   0  0  0  0  0  0  0  0  0  0  0  0
   -7.4860   18.1170  -32.1110 C   0  0  0  0  0  0  0  0  0  0  0  0
   -5.9160   18.9400  -31.6350 S   0  0  0  0  0  0  0  0  0  0  0  0
   -5.6080   19.7420  -33.2170 C   0  0  0  0  0  0  0  0  0  0  0  0
   -5.8310   18.8860  -34.5940 S   0  0  0  0  0  0  0  0  0  0  0  0
   -5.0080   21.0440  -33.2900 N   0  0  0  0  0  0  0  0  0  0  0  0
   -4.2440   21.6360  -32.1930 C   0  0  0  0  0  0  0  0  0  0  0  0
   -5.0360   22.7230  -31.5200 C   0  0  0  0  0  0  0  0  0  0  0  0
   -4.3810   23.6880  -30.7370 C   0  0  0  0  0  0  0  0  0  0  0  0
   -5.1120   24.6990  -30.1070 C   0  0  0  0  0  0  0  0  0  0  0  0
   -6.5010   24.7530  -30.2520 C   0  0  0  0  0  0  0  0  0  0  0  0
   -7.1610   23.7930  -31.0240 C   0  0  0  0  0  0  0  0  0  0  0  0
   -6.4330   22.7790  -31.6550 C   0  0  0  0  0  0  0  0  0  0  0  0
   -9.4424   21.1848  -30.8549 H   0  0  0  0  0  0  0  0  0  0  0  0
   -8.7933   22.1414  -32.2298 H   0  0  0  0  0  0  0  0  0  0  0  0
  -10.5127   21.6214  -32.2298 H   0  0  0  0  0  0  0  0  0  0  0  0
   -9.9474   19.7132  -33.2727 H   0  0  0  0  0  0  0  0  0  0  0  0
   -8.2109   20.2612  -33.2718 H   0  0  0  0  0  0  0  0  0  0  0  0
   -8.5274   19.3627  -30.6965 H   0  0  0  0  0  0  0  0  0  0  0  0
   -9.5715   18.2157  -31.6646 H   0  0  0  0  0  0  0  0  0  0  0  0
   -7.5240   17.1269  -31.6332 H   0  0  0  0  0  0  0  0  0  0  0  0
   -7.5022   18.0383  -33.2081 H   0  0  0  0  0  0  0  0  0  0  0  0
   -4.9750   21.5260  -34.2170 H   0  0  0  0  0  0  0  0  0  0  0  0
   -4.0048   20.8547  -31.4566 H   0  0  0  0  0  0  0  0  0  0  0  0
   -3.3199   22.0720  -32.6004 H   0  0  0  0  0  0  0  0  0  0  0  0
   -3.2881   23.6478  -30.6192 H   0  0  0  0  0  0  0  0  0  0  0  0
   -4.5936   25.4529  -29.4964 H   0  0  0  0  0  0  0  0  0  0  0  0
   -7.0748   25.5512  -29.7584 H   0  0  0  0  0  0  0  0  0  0  0  0
   -8.2545   23.8349  -31.1355 H   0  0  0  0  0  0  0  0  0  0  0  0
   -6.9562   22.0230  -32.2589 H   0  0  0  0  0  0  0  0  0  0  0  0
  1  2  1  0
  2  3  1  0
  3  4  1  0
  4  5  1  0
  5  6  1  0
  6  7  2  0
  6  8  1  0
  8  9  1  0
  9 10  1  0
 10 11  2  0
 11 12  1  0
 12 13  2  0
 13 14  1  0
 14 15  2  0
 15 10  1  0
  1 16  1  0
  1 17  1  0
  1 18  1  0
  2 19  1  0
  2 20  1  0
  3 21  1  0
  3 22  1  0
  4 23  1  0
  4 24  1  0
  8 25  1  0
  9 26  1  0
  9 27  1  0
 11 28  1  0
 12 29  1  0
 13 30  1  0
 14 31  1  0
 15 32  1  0
M  END
>  <UniqueID>  (39) 
37

>  <SMILES>  (39) 
CCCCSC(=S)NCc1ccccc1

>  <Energy>  (39) 
19.975819778622167

>  <Genealogy>  (39) 
CCCCSC(=S)NCc1ccccc1 (3D coordinates assigned)
CCCCSC(=S)NCc1ccccc1 (optimized conformer: 19.975819778622167 kcal/mol)

>  <smiles>  (39) 
CCCCSC(=S)NCc1ccccc1

>  <score_type>  (39) 
oracle

>  <origin>  (39) 
adgpu

>  <m_score__min__energy>  (39) 
-6.3099999999999996

>  <m_primary>  (39) 
energy

$$$$
39:0
     RDKit          3D

 31 33  0  0  0  0  0  0  0  0999 V2000
   -2.6270   20.8690  -27.6250 C   0  0  0  0  0  0  0  0  0  0  0  0
   -2.2790   22.2630  -28.0540 C   0  0  0  0  0  0  0  0  0  0  0  0
   -1.0980   22.8680  -27.6000 C   0  0  0  0  0  0  0  0  0  0  0  0
   -0.7570   24.1530  -28.0290 C   0  0  0  0  0  0  0  0  0  0  0  0
   -1.5810   24.8370  -28.9280 C   0  0  0  0  0  0  0  0  0  0  0  0
   -1.2260   26.1140  -29.3470 O   0  0  0  0  0  0  0  0  0  0  0  0
   -2.7550   24.2370  -29.4090 C   0  0  0  0  0  0  0  0  0  0  0  0
   -3.5660   24.9610  -30.3450 N   0  0  0  0  0  0  0  0  0  0  0  0
   -5.2970   24.8770  -30.4440 S   0  0  0  0  0  0  0  0  0  0  0  0
   -5.8030   26.0520  -31.2320 O   0  0  0  0  0  0  0  0  0  0  0  0
   -5.8710   24.9330  -29.0560 O   0  0  0  0  0  0  0  0  0  0  0  0
   -5.7810   23.3930  -31.2590 C   0  0  0  0  0  0  0  0  0  0  0  0
   -4.8200   22.6370  -31.9750 C   0  0  0  0  0  0  0  0  0  0  0  0
   -5.1860   21.4390  -32.6180 C   0  0  0  0  0  0  0  0  0  0  0  0
   -6.5140   21.0350  -32.5250 C   0  0  0  0  0  0  0  0  0  0  0  0
   -7.0820   19.9370  -33.0520 N   0  0  0  0  0  0  0  0  0  0  0  0
   -8.3680   20.0730  -32.6380 C   0  0  0  0  0  0  0  0  0  0  0  0
   -9.2670   19.2380  -32.9180 O   0  0  0  0  0  0  0  0  0  0  0  0
   -8.5940   21.1560  -31.9150 O   0  0  0  0  0  0  0  0  0  0  0  0
   -7.4400   21.7630  -31.8390 C   0  0  0  0  0  0  0  0  0  0  0  0
   -7.1200   22.9520  -31.1910 C   0  0  0  0  0  0  0  0  0  0  0  0
   -3.0980   22.9450  -28.9670 C   0  0  0  0  0  0  0  0  0  0  0  0
   -2.6402   20.8160  -26.5264 H   0  0  0  0  0  0  0  0  0  0  0  0
   -3.6194   20.6017  -28.0170 H   0  0  0  0  0  0  0  0  0  0  0  0
   -1.8766   20.1666  -28.0170 H   0  0  0  0  0  0  0  0  0  0  0  0
   -0.4383   22.3291  -26.9041 H   0  0  0  0  0  0  0  0  0  0  0  0
    0.1631   24.6284  -27.6582 H   0  0  0  0  0  0  0  0  0  0  0  0
   -3.7792   22.9890  -32.0290 H   0  0  0  0  0  0  0  0  0  0  0  0
   -4.4475   20.8432  -33.1745 H   0  0  0  0  0  0  0  0  0  0  0  0
   -7.8827   23.5272  -30.6457 H   0  0  0  0  0  0  0  0  0  0  0  0
   -4.0153   22.4663  -29.3403 H   0  0  0  0  0  0  0  0  0  0  0  0
  1  2  1  0
  2  3  2  0
  3  4  1  0
  4  5  2  0
  5  6  1  0
  5  7  1  0
  7  8  1  0
  8  9  1  0
  9 10  2  0
  9 11  2  0
  9 12  1  0
 12 13  2  0
 13 14  1  0
 14 15  2  0
 15 16  1  0
 16 17  1  0
 17 18  2  0
 17 19  1  0
 19 20  1  0
 20 21  2  0
  7 22  2  0
 22  2  1  0
 21 12  1  0
 20 15  1  0
  1 23  1  0
  1 24  1  0
  1 25  1  0
  3 26  1  0
  4 27  1  0
 13 28  1  0
 14 29  1  0
 21 30  1  0
 22 31  1  0
M  CHG  3   6  -1   8  -1  16  -1
M  END
>  <UniqueID>  (40) 
38

>  <SMILES>  (40) 
Cc1ccc([O-])c([N-]S(=O)(=O)c2ccc3[n-]c(=O)oc3c2)c1

>  <Energy>  (40) 
74.13751165344803

>  <Genealogy>  (40) 
Cc1ccc([O-])c([N-]S(=O)(=O)c2ccc3[n-]c(=O)oc3c2)c1 (protonated)
Cc1ccc([O-])c([N-]S(=O)(=O)c2ccc3[n-]c(=O)oc3c2)c1 (3D coordinates assigned)
Cc1ccc([O-])c([N-]S(=O)(=O)c2ccc3[n-]c(=O)oc3c2)c1 (optimized conformer: 74.13751165344803 kcal/mol)

>  <smiles>  (40) 
Cc1ccc(O)c(NS(=O)(=O)c2ccc3[nH]c(=O)oc3c2)c1

>  <score_type>  (40) 
oracle

>  <origin>  (40) 
adgpu

>  <m_score__min__energy>  (40) 
-12.720000000000001

>  <m_primary>  (40) 
energy

$$$$
40:0
     RDKit          3D

 54 57  0  0  0  0  0  0  0  0999 V2000
   -4.1130   15.8390  -32.7480 C   0  0  0  0  0  0  0  0  0  0  0  0
   -5.5600   16.0810  -32.6240 N   0  0  0  0  0  0  0  0  0  0  0  0
   -5.8150   17.1970  -31.6840 C   0  0  0  0  0  0  0  0  0  0  0  0
   -7.2040   17.8110  -31.9090 C   0  0  0  0  0  0  0  0  0  0  0  0
   -7.3540   18.3470  -33.2830 N   0  0  0  0  0  0  0  0  0  0  0  0
   -7.4200   19.8250  -33.3640 C   0  0  0  0  0  0  0  0  0  0  0  0
   -6.2760   20.5320  -32.6630 C   0  0  0  0  0  0  0  0  0  0  0  0
   -6.5120   21.3410  -31.5390 C   0  0  0  0  0  0  0  0  0  0  0  0
   -5.4520   21.9800  -30.8910 C   0  0  0  0  0  0  0  0  0  0  0  0
   -4.1380   21.8460  -31.3720 C   0  0  0  0  0  0  0  0  0  0  0  0
   -3.0260   22.4650  -30.7010 N   0  0  0  0  0  0  0  0  0  0  0  0
   -3.0500   23.8040  -30.1790 C   0  0  0  0  0  0  0  0  0  0  0  0
   -3.8980   24.6330  -30.6050 O   0  0  0  0  0  0  0  0  0  0  0  0
   -2.0630   24.2390  -29.1730 C   0  0  0  0  0  0  0  0  0  0  0  0
   -2.3390   24.9250  -28.0020 C   0  0  0  0  0  0  0  0  0  0  0  0
   -1.1180   25.1400  -27.3800 C   0  0  0  0  0  0  0  0  0  0  0  0
   -0.8870   25.8450  -26.0920 C   0  0  0  0  0  0  0  0  0  0  0  0
   -0.6950   25.1180  -24.9000 C   0  0  0  0  0  0  0  0  0  0  0  0
   -0.4820   25.7840  -23.6890 C   0  0  0  0  0  0  0  0  0  0  0  0
   -0.4560   27.1800  -23.6510 C   0  0  0  0  0  0  0  0  0  0  0  0
   -0.6430   27.9130  -24.8240 C   0  0  0  0  0  0  0  0  0  0  0  0
   -0.6150   29.2680  -24.7860 F   0  0  0  0  0  0  0  0  0  0  0  0
   -0.8580   27.2530  -26.0380 C   0  0  0  0  0  0  0  0  0  0  0  0
   -0.1550   24.5760  -28.2050 C   0  0  0  0  0  0  0  0  0  0  0  0
   -0.7370   24.0350  -29.2900 N   0  0  0  0  0  0  0  0  0  0  0  0
   -3.9030   21.0470  -32.4980 C   0  0  0  0  0  0  0  0  0  0  0  0
   -4.9630   20.4080  -33.1490 C   0  0  0  0  0  0  0  0  0  0  0  0
   -6.4520   17.7350  -34.2830 C   0  0  0  0  0  0  0  0  0  0  0  0
   -6.1950   16.2580  -33.9550 C   0  0  0  0  0  0  0  0  0  0  0  0
   -3.6665   15.7643  -31.7455 H   0  0  0  0  0  0  0  0  0  0  0  0
   -3.9439   14.9001  -33.2956 H   0  0  0  0  0  0  0  0  0  0  0  0
   -3.6476   16.6718  -33.2956 H   0  0  0  0  0  0  0  0  0  0  0  0
   -5.7537   16.8181  -30.6532 H   0  0  0  0  0  0  0  0  0  0  0  0
   -5.0589   17.9767  -31.8582 H   0  0  0  0  0  0  0  0  0  0  0  0
   -7.9667   17.0357  -31.7442 H   0  0  0  0  0  0  0  0  0  0  0  0
   -7.3275   18.6445  -31.2019 H   0  0  0  0  0  0  0  0  0  0  0  0
   -7.4073   20.1143  -34.4252 H   0  0  0  0  0  0  0  0  0  0  0  0
   -8.3447   20.1311  -32.8530 H   0  0  0  0  0  0  0  0  0  0  0  0
   -7.5386   21.4723  -31.1665 H   0  0  0  0  0  0  0  0  0  0  0  0
   -5.6470   22.5922  -29.9982 H   0  0  0  0  0  0  0  0  0  0  0  0
   -2.1230   21.9410  -30.6730 H   0  0  0  0  0  0  0  0  0  0  0  0
   -3.3290   25.2371  -27.6379 H   0  0  0  0  0  0  0  0  0  0  0  0
   -0.7128   24.0184  -24.9224 H   0  0  0  0  0  0  0  0  0  0  0  0
   -0.3346   25.2071  -22.7641 H   0  0  0  0  0  0  0  0  0  0  0  0
   -0.2882   27.7015  -22.6971 H   0  0  0  0  0  0  0  0  0  0  0  0
   -1.0057   27.8375  -26.9581 H   0  0  0  0  0  0  0  0  0  0  0  0
    0.9260   24.5721  -28.0013 H   0  0  0  0  0  0  0  0  0  0  0  0
   -0.2440   23.5540  -30.0740 H   0  0  0  0  0  0  0  0  0  0  0  0
   -2.8767   20.9211  -32.8732 H   0  0  0  0  0  0  0  0  0  0  0  0
   -4.7679   19.8042  -34.0475 H   0  0  0  0  0  0  0  0  0  0  0  0
   -6.9148   17.8080  -35.2782 H   0  0  0  0  0  0  0  0  0  0  0  0
   -5.4919   18.2716  -34.2663 H   0  0  0  0  0  0  0  0  0  0  0  0
   -7.1550   15.7210  -33.9637 H   0  0  0  0  0  0  0  0  0  0  0  0
   -5.5059   15.8586  -34.7137 H   0  0  0  0  0  0  0  0  0  0  0  0
  1  2  1  0
  2  3  1  0
  3  4  1  0
  4  5  1  0
  5  6  1  0
  6  7  1  0
  7  8  2  0
  8  9  1  0
  9 10  2  0
 10 11  1  0
 11 12  1  0
 12 13  2  0
 12 14  1  0
 14 15  2  0
 15 16  1  0
 16 17  1  0
 17 18  2  0
 18 19  1  0
 19 20  2  0
 20 21  1  0
 21 22  1  0
 21 23  2  0
 16 24  2  0
 24 25  1  0
 10 26  1  0
 26 27  2  0
  5 28  1  0
 28 29  1  0
 29  2  1  0
 27  7  1  0
 25 14  1  0
 23 17  1  0
  1 30  1  0
  1 31  1  0
  1 32  1  0
  3 33  1  0
  3 34  1  0
  4 35  1  0
  4 36  1  0
  6 37  1  0
  6 38  1  0
  8 39  1  0
  9 40  1  0
 11 41  1  0
 15 42  1  0
 18 43  1  0
 19 44  1  0
 20 45  1  0
 23 46  1  0
 24 47  1  0
 25 48  1  0
 26 49  1  0
 27 50  1  0
 28 51  1  0
 28 52  1  0
 29 53  1  0
 29 54  1  0
M  END
>  <UniqueID>  (41) 
39

>  <SMILES>  (41) 
CN1CCN(Cc2ccc(NC(=O)c3cc(-c4cccc(F)c4)c[nH]3)cc2)CC1

>  <Energy>  (41) 
102.83740067279872

>  <Genealogy>  (41) 
CN1CCN(Cc2ccc(NC(=O)c3cc(-c4cccc(F)c4)c[nH]3)cc2)CC1 (3D coordinates assigned)
CN1CCN(Cc2ccc(NC(=O)c3cc(-c4cccc(F)c4)c[nH]3)cc2)CC1 (nonaromatic ring conformer: 102.83740067279872 kcal/mol)

>  <smiles>  (41) 
CN1CCN(Cc2ccc(NC(=O)c3cc(-c4cccc(F)c4)c[nH]3)cc2)CC1

>  <score_type>  (41) 
oracle

>  <origin>  (41) 
adgpu

>  <m_score__min__energy>  (41) 
-9.1899999999999995

>  <m_primary>  (41) 
energy

$$$$
41:0
     RDKit          3D

 57 60  0  0  0  0  0  0  0  0999 V2000
    1.5060   28.4000  -22.7120 C   0  0  0  0  0  0  0  0  0  0  0  0
    0.8930   28.9460  -24.2900 S   0  0  0  0  0  0  0  0  0  0  0  0
    0.6530   30.4310  -24.2380 O   0  0  0  0  0  0  0  0  0  0  0  0
    1.9130   28.6260  -25.3480 O   0  0  0  0  0  0  0  0  0  0  0  0
   -0.5900   28.1170  -24.6390 N   0  0  0  0  0  0  0  0  0  0  0  0
   -0.7710   27.1730  -25.7030 C   0  0  0  0  0  0  0  0  0  0  0  0
   -1.2290   25.8880  -25.3900 C   0  0  0  0  0  0  0  0  0  0  0  0
   -1.4110   24.9310  -26.3940 C   0  0  0  0  0  0  0  0  0  0  0  0
   -1.1710   25.2640  -27.7400 C   0  0  0  0  0  0  0  0  0  0  0  0
   -1.3140   24.3100  -28.8070 N   0  0  0  0  0  0  0  0  0  0  0  0
   -2.3950   24.0230  -29.4790 C   0  0  0  0  0  0  0  0  0  0  0  0
   -3.5540   24.7120  -29.2750 N   0  0  0  0  0  0  0  0  0  0  0  0
   -4.6810   24.4320  -29.9780 C   0  0  0  0  0  0  0  0  0  0  0  0
   -5.8640   25.1390  -29.7390 C   0  0  0  0  0  0  0  0  0  0  0  0
   -7.0160   24.8280  -30.4670 C   0  0  0  0  0  0  0  0  0  0  0  0
   -6.9870   23.8200  -31.4380 C   0  0  0  0  0  0  0  0  0  0  0  0
   -5.8050   23.1140  -31.6840 C   0  0  0  0  0  0  0  0  0  0  0  0
   -4.6520   23.4160  -30.9520 C   0  0  0  0  0  0  0  0  0  0  0  0
   -3.4950   22.7430  -31.1730 N   0  0  0  0  0  0  0  0  0  0  0  0
   -2.3620   23.0150  -30.4640 C   0  0  0  0  0  0  0  0  0  0  0  0
   -1.2470   22.3910  -30.7220 N   0  0  0  0  0  0  0  0  0  0  0  0
   -1.0730   21.3220  -31.6660 C   0  0  0  0  0  0  0  0  0  0  0  0
   -0.9500   20.0120  -31.1870 C   0  0  0  0  0  0  0  0  0  0  0  0
   -0.7870   18.9470  -32.0760 C   0  0  0  0  0  0  0  0  0  0  0  0
   -0.7880   19.1760  -33.4600 C   0  0  0  0  0  0  0  0  0  0  0  0
   -0.5810   17.8400  -34.5940 S   0  0  0  0  0  0  0  0  0  0  0  0
   -1.9160   17.2470  -34.9540 O   0  0  0  0  0  0  0  0  0  0  0  0
    0.2450   16.7790  -33.9230 O   0  0  0  0  0  0  0  0  0  0  0  0
    0.2480   18.3680  -36.0350 N   0  0  0  0  0  0  0  0  0  0  0  0
    1.5770   17.7580  -36.1890 C   0  0  0  0  0  0  0  0  0  0  0  0
    1.5240   16.3100  -36.7000 C   0  0  0  0  0  0  0  0  0  0  0  0
    0.1960   15.8840  -36.8000 O   0  0  0  0  0  0  0  0  0  0  0  0
   -0.9390   20.4820  -33.9430 C   0  0  0  0  0  0  0  0  0  0  0  0
   -1.0900   21.5490  -33.0530 C   0  0  0  0  0  0  0  0  0  0  0  0
   -0.6930   26.5440  -28.0490 C   0  0  0  0  0  0  0  0  0  0  0  0
   -0.4960   27.4930  -27.0440 C   0  0  0  0  0  0  0  0  0  0  0  0
    0.9453   28.8994  -21.9081 H   0  0  0  0  0  0  0  0  0  0  0  0
    1.3785   27.3108  -22.6260 H   0  0  0  0  0  0  0  0  0  0  0  0
    2.5733   28.6522  -22.6260 H   0  0  0  0  0  0  0  0  0  0  0  0
   -1.4481   25.6279  -24.3439 H   0  0  0  0  0  0  0  0  0  0  0  0
   -1.7425   23.9157  -26.1307 H   0  0  0  0  0  0  0  0  0  0  0  0
   -5.8877   25.9362  -28.9815 H   0  0  0  0  0  0  0  0  0  0  0  0
   -7.9495   25.3777  -30.2761 H   0  0  0  0  0  0  0  0  0  0  0  0
   -7.8966   23.5825  -32.0092 H   0  0  0  0  0  0  0  0  0  0  0  0
   -5.7822   22.3247  -32.4498 H   0  0  0  0  0  0  0  0  0  0  0  0
   -0.9819   19.8205  -30.1043 H   0  0  0  0  0  0  0  0  0  0  0  0
   -0.6574   17.9253  -31.6895 H   0  0  0  0  0  0  0  0  0  0  0  0
   -0.3430   18.1520  -36.8700 H   0  0  0  0  0  0  0  0  0  0  0  0
    2.1570   18.3599  -36.9041 H   0  0  0  0  0  0  0  0  0  0  0  0
    2.0434   17.7358  -35.1930 H   0  0  0  0  0  0  0  0  0  0  0  0
    1.9989   16.2562  -37.6907 H   0  0  0  0  0  0  0  0  0  0  0  0
    2.0587   15.6589  -35.9928 H   0  0  0  0  0  0  0  0  0  0  0  0
   -0.2760   16.2650  -36.0140 H   0  0  0  0  0  0  0  0  0  0  0  0
   -0.9387   20.6686  -35.0270 H   0  0  0  0  0  0  0  0  0  0  0  0
   -1.2227   22.5703  -33.4395 H   0  0  0  0  0  0  0  0  0  0  0  0
   -0.4705   26.8042  -29.0944 H   0  0  0  0  0  0  0  0  0  0  0  0
   -0.1240   28.4954  -27.3026 H   0  0  0  0  0  0  0  0  0  0  0  0
  1  2  1  0
  2  3  2  0
  2  4  2  0
  2  5  1  0
  5  6  1  0
  6  7  2  0
  7  8  1  0
  8  9  2  0
  9 10  1  0
 10 11  2  3
 11 12  1  0
 12 13  1  0
 13 14  2  0
 14 15  1  0
 15 16  2  0
 16 17  1  0
 17 18  2  0
 18 19  1  0
 19 20  1  0
 20 21  2  3
 21 22  1  0
 22 23  2  0
 23 24  1  0
 24 25  2  0
 25 26  1  0
 26 27  2  0
 26 28  2  0
 26 29  1  0
 29 30  1  0
 30 31  1  0
 31 32  1  0
 25 33  1  0
 33 34  2  0
  9 35  1  0
 35 36  2  0
 36  6  1  0
 20 11  1  0
 34 22  1  0
 18 13  1  0
  1 37  1  0
  1 38  1  0
  1 39  1  0
  7 40  1  0
  8 41  1  0
 14 42  1  0
 15 43  1  0
 16 44  1  0
 17 45  1  0
 23 46  1  0
 24 47  1  0
 29 48  1  0
 30 49  1  0
 30 50  1  0
 31 51  1  0
 31 52  1  0
 32 53  1  0
 33 54  1  0
 34 55  1  0
 35 56  1  0
 36 57  1  0
M  CHG  3   5  -1  12  -1  19  -1
M  END
>  <UniqueID>  (42) 
40

>  <SMILES>  (42) 
CS(=O)(=O)[N-]c1ccc(N=c2[n-]c3ccccc3[n-]c2=Nc2ccc(S(=O)(=O)NCCO)cc2)cc1

>  <Energy>  (42) 
76.64481285442584

>  <Genealogy>  (42) 
CS(=O)(=O)[N-]c1ccc(N=c2[n-]c3ccccc3[n-]c2=Nc2ccc(S(=O)(=O)NCCO)cc2)cc1 (protonated)
CS(=O)(=O)[N-]c1ccc(N=c2[n-]c3ccccc3[n-]c2=Nc2ccc(S(=O)(=O)NCCO)cc2)cc1 (3D coordinates assigned)
CS(=O)(=O)[N-]c1ccc(N=c2[n-]c3ccccc3[n-]c2=Nc2ccc(S(=O)(=O)NCCO)cc2)cc1 (optimized conformer: 76.64481285442584 kcal/mol)

>  <smiles>  (42) 
CS(=O)(=O)Nc1ccc(N=c2[nH]c3ccccc3[nH]c2=Nc2ccc(S(=O)(=O)NCCO)cc2)cc1

>  <score_type>  (42) 
oracle

>  <origin>  (42) 
adgpu

>  <m_score__min__energy>  (42) 
-9.6500000000000004

>  <m_primary>  (42) 
energy

$$$$
42:0
     RDKit          3D

 63 67  0  0  0  0  0  0  0  0999 V2000
   -2.4160   22.4430  -29.6790 O   0  0  0  0  0  0  0  0  0  0  0  0
   -3.1410   22.4330  -30.7100 C   0  0  0  0  0  0  0  0  0  0  0  0
   -2.6450   21.8400  -31.9180 N   0  0  0  0  0  0  0  0  0  0  0  0
   -1.6380   20.8140  -31.9400 C   0  0  0  0  0  0  0  0  0  0  0  0
   -0.2870   21.1140  -31.6980 C   0  0  0  0  0  0  0  0  0  0  0  0
    0.6740   20.1010  -31.7070 C   0  0  0  0  0  0  0  0  0  0  0  0
    0.3020   18.7760  -31.9620 C   0  0  0  0  0  0  0  0  0  0  0  0
    1.5250   17.5050  -32.0370 S   0  0  0  0  0  0  0  0  0  0  0  0
    0.9750   16.3410  -32.8130 O   0  0  0  0  0  0  0  0  0  0  0  0
    2.7310   18.0210  -32.7700 O   0  0  0  0  0  0  0  0  0  0  0  0
    2.0180   16.9750  -30.4440 N   0  0  0  0  0  0  0  0  0  0  0  0
    0.9360   16.2680  -29.7190 C   0  0  0  0  0  0  0  0  0  0  0  0
    0.8200   16.6790  -28.2480 C   0  0  0  0  0  0  0  0  0  0  0  0
    0.6630   18.1920  -28.1530 C   0  0  0  0  0  0  0  0  0  0  0  0
    1.8050   18.9400  -28.8600 C   0  0  0  0  0  0  0  0  0  0  0  0
    2.7310   18.0300  -29.6920 C   0  0  0  0  0  0  0  0  0  0  0  0
   -1.0490   18.4690  -32.1750 C   0  0  0  0  0  0  0  0  0  0  0  0
   -2.0130   19.4820  -32.1570 C   0  0  0  0  0  0  0  0  0  0  0  0
   -4.4710   23.0860  -30.6700 C   0  0  0  0  0  0  0  0  0  0  0  0
   -5.6280   22.3040  -30.8350 C   0  0  0  0  0  0  0  0  0  0  0  0
   -6.8980   22.8940  -30.8320 C   0  0  0  0  0  0  0  0  0  0  0  0
   -8.3340   21.9110  -31.0990 S   0  0  0  0  0  0  0  0  0  0  0  0
   -9.0890   22.4320  -32.2900 O   0  0  0  0  0  0  0  0  0  0  0  0
   -9.2460   21.9720  -29.9050 O   0  0  0  0  0  0  0  0  0  0  0  0
   -7.8520   20.2720  -31.3950 N   0  0  0  0  0  0  0  0  0  0  0  0
   -8.6890   19.1250  -31.0540 C   0  0  0  0  0  0  0  0  0  0  0  0
   -8.0820   17.9140  -31.8010 C   0  0  0  0  0  0  0  0  0  0  0  0
   -6.9740   18.5200  -32.5900 C   0  0  0  0  0  0  0  0  0  0  0  0
   -6.1210   17.8890  -33.4970 C   0  0  0  0  0  0  0  0  0  0  0  0
   -5.1460   18.6610  -34.1480 C   0  0  0  0  0  0  0  0  0  0  0  0
   -5.0430   20.0390  -33.8830 C   0  0  0  0  0  0  0  0  0  0  0  0
   -5.9130   20.6520  -32.9680 C   0  0  0  0  0  0  0  0  0  0  0  0
   -6.8750   19.8590  -32.3340 C   0  0  0  0  0  0  0  0  0  0  0  0
   -7.0170   24.2770  -30.6710 C   0  0  0  0  0  0  0  0  0  0  0  0
   -5.8760   25.0640  -30.5140 C   0  0  0  0  0  0  0  0  0  0  0  0
   -4.6050   24.4800  -30.5210 C   0  0  0  0  0  0  0  0  0  0  0  0
   -3.4890   25.2990  -30.4140 O   0  0  0  0  0  0  0  0  0  0  0  0
   -2.9770   22.2310  -32.8280 H   0  0  0  0  0  0  0  0  0  0  0  0
    0.0155   22.1529  -31.5003 H   0  0  0  0  0  0  0  0  0  0  0  0
    1.7287   20.3455  -31.5127 H   0  0  0  0  0  0  0  0  0  0  0  0
   -0.0193   16.4868  -30.2186 H   0  0  0  0  0  0  0  0  0  0  0  0
    1.1791   15.1954  -29.7383 H   0  0  0  0  0  0  0  0  0  0  0  0
   -0.0575   16.1906  -27.7991 H   0  0  0  0  0  0  0  0  0  0  0  0
    1.7278   16.3704  -27.7089 H   0  0  0  0  0  0  0  0  0  0  0  0
   -0.2908   18.4791  -28.6196 H   0  0  0  0  0  0  0  0  0  0  0  0
    0.6869   18.4678  -27.0884 H   0  0  0  0  0  0  0  0  0  0  0  0
    1.3630   19.6905  -29.5319 H   0  0  0  0  0  0  0  0  0  0  0  0
    2.4262   19.3903  -28.0717 H   0  0  0  0  0  0  0  0  0  0  0  0
    3.2784   18.6576  -30.4107 H   0  0  0  0  0  0  0  0  0  0  0  0
    3.3985   17.5197  -28.9820 H   0  0  0  0  0  0  0  0  0  0  0  0
   -1.3521   17.4274  -32.3570 H   0  0  0  0  0  0  0  0  0  0  0  0
   -3.0724   19.2312  -32.3143 H   0  0  0  0  0  0  0  0  0  0  0  0
   -5.5344   21.2161  -30.9680 H   0  0  0  0  0  0  0  0  0  0  0  0
   -8.6736   18.9505  -29.9680 H   0  0  0  0  0  0  0  0  0  0  0  0
   -9.7370   19.2919  -31.3437 H   0  0  0  0  0  0  0  0  0  0  0  0
   -7.6978   17.1657  -31.0922 H   0  0  0  0  0  0  0  0  0  0  0  0
   -8.8145   17.3815  -32.4254 H   0  0  0  0  0  0  0  0  0  0  0  0
   -6.2108   16.8111  -33.6971 H   0  0  0  0  0  0  0  0  0  0  0  0
   -4.4610   18.1877  -34.8668 H   0  0  0  0  0  0  0  0  0  0  0  0
   -4.2767   20.6390  -34.3956 H   0  0  0  0  0  0  0  0  0  0  0  0
   -5.8401   21.7287  -32.7549 H   0  0  0  0  0  0  0  0  0  0  0  0
   -8.0121   24.7458  -30.6681 H   0  0  0  0  0  0  0  0  0  0  0  0
   -5.9765   26.1516  -30.3838 H   0  0  0  0  0  0  0  0  0  0  0  0
  1  2  2  0
  2  3  1  0
  3  4  1  0
  4  5  2  0
  5  6  1  0
  6  7  2  0
  7  8  1  0
  8  9  2  0
  8 10  2  0
  8 11  1  0
 11 12  1  0
 12 13  1  0
 13 14  1  0
 14 15  1  0
 15 16  1  0
  7 17  1  0
 17 18  2  0
  2 19  1  0
 19 20  2  0
 20 21  1  0
 21 22  1  0
 22 23  2  0
 22 24  2  0
 22 25  1  0
 25 26  1  0
 26 27  1  0
 27 28  1  0
 28 29  2  0
 29 30  1  0
 30 31  2  0
 31 32  1  0
 32 33  2  0
 21 34  2  0
 34 35  1  0
 35 36  2  0
 36 37  1  0
 18  4  1  0
 36 19  1  0
 16 11  1  0
 33 25  1  0
 33 28  1  0
  3 38  1  0
  5 39  1  0
  6 40  1  0
 12 41  1  0
 12 42  1  0
 13 43  1  0
 13 44  1  0
 14 45  1  0
 14 46  1  0
 15 47  1  0
 15 48  1  0
 16 49  1  0
 16 50  1  0
 17 51  1  0
 18 52  1  0
 20 53  1  0
 26 54  1  0
 26 55  1  0
 27 56  1  0
 27 57  1  0
 29 58  1  0
 30 59  1  0
 31 60  1  0
 32 61  1  0
 34 62  1  0
 35 63  1  0
M  CHG  1  37  -1
M  END
>  <UniqueID>  (43) 
41

>  <SMILES>  (43) 
O=C(Nc1ccc(S(=O)(=O)N2CCCCC2)cc1)c1cc(S(=O)(=O)N2CCc3ccccc32)ccc1[O-]

>  <Energy>  (43) 
98.36902898406272

>  <Genealogy>  (43) 
O=C(Nc1ccc(S(=O)(=O)N2CCCCC2)cc1)c1cc(S(=O)(=O)N2CCc3ccccc32)ccc1[O-] (protonated)
O=C(Nc1ccc(S(=O)(=O)N2CCCCC2)cc1)c1cc(S(=O)(=O)N2CCc3ccccc32)ccc1[O-] (3D coordinates assigned)
O=C(Nc1ccc(S(=O)(=O)N2CCCCC2)cc1)c1cc(S(=O)(=O)N2CCc3ccccc32)ccc1[O-] (nonaromatic ring conformer: 98.36902898406272 kcal/mol)

>  <smiles>  (43) 
O=C(Nc1ccc(S(=O)(=O)N2CCCCC2)cc1)c1cc(S(=O)(=O)N2CCc3ccccc32)ccc1O

>  <score_type>  (43) 
oracle

>  <origin>  (43) 
adgpu

>  <m_score__min__energy>  (43) 
-13.67

>  <m_primary>  (43) 
energy

$$$$
43:0
     RDKit          3D

 45 47  0  0  0  0  0  0  0  0999 V2000
   -4.2070   17.0820  -35.5910 N   0  0  0  0  0  0  0  0  0  0  0  0
   -4.9560   17.5670  -34.8540 C   0  0  0  0  0  0  0  0  0  0  0  0
   -5.9000   18.1600  -33.9400 C   0  0  0  0  0  0  0  0  0  0  0  0
   -6.1270   19.5430  -33.9610 C   0  0  0  0  0  0  0  0  0  0  0  0
   -7.0730   20.1100  -33.0980 C   0  0  0  0  0  0  0  0  0  0  0  0
   -7.8040   19.3040  -32.2130 C   0  0  0  0  0  0  0  0  0  0  0  0
   -8.7790   19.9290  -31.3640 N   0  0  0  0  0  0  0  0  0  0  0  0
   -9.0650   21.6380  -31.2320 S   0  0  0  0  0  0  0  0  0  0  0  0
  -10.0080   21.9100  -30.0910 O   0  0  0  0  0  0  0  0  0  0  0  0
   -9.7090   22.1050  -32.5110 O   0  0  0  0  0  0  0  0  0  0  0  0
   -7.5610   22.5260  -30.9960 C   0  0  0  0  0  0  0  0  0  0  0  0
   -6.9140   23.0890  -32.1050 C   0  0  0  0  0  0  0  0  0  0  0  0
   -5.7150   23.7910  -31.9410 C   0  0  0  0  0  0  0  0  0  0  0  0
   -5.1440   23.9280  -30.6650 C   0  0  0  0  0  0  0  0  0  0  0  0
   -3.9320   24.6670  -30.4600 N   0  0  0  0  0  0  0  0  0  0  0  0
   -2.9460   24.3890  -29.4590 C   0  0  0  0  0  0  0  0  0  0  0  0
   -2.9960   23.2920  -28.8410 O   0  0  0  0  0  0  0  0  0  0  0  0
   -1.8560   25.3000  -29.2300 N   0  0  0  0  0  0  0  0  0  0  0  0
   -0.9990   25.2420  -28.0780 C   0  0  0  0  0  0  0  0  0  0  0  0
    0.0560   24.3230  -28.0510 C   0  0  0  0  0  0  0  0  0  0  0  0
    0.9140   24.2620  -26.9540 C   0  0  0  0  0  0  0  0  0  0  0  0
    0.7460   25.1370  -25.8740 C   0  0  0  0  0  0  0  0  0  0  0  0
    1.8730   25.0110  -24.5240 Cl  0  0  0  0  0  0  0  0  0  0  0  0
   -0.2980   26.0900  -25.8900 C   0  0  0  0  0  0  0  0  0  0  0  0
   -0.4780   27.0590  -24.7390 C   0  0  0  0  0  0  0  0  0  0  0  0
   -1.0290   26.3970  -23.6530 F   0  0  0  0  0  0  0  0  0  0  0  0
   -1.3160   28.1080  -25.0740 F   0  0  0  0  0  0  0  0  0  0  0  0
    0.7490   27.5840  -24.3770 F   0  0  0  0  0  0  0  0  0  0  0  0
   -1.1640   26.1310  -27.0020 C   0  0  0  0  0  0  0  0  0  0  0  0
   -5.8080   23.3910  -29.5540 C   0  0  0  0  0  0  0  0  0  0  0  0
   -6.9990   22.6750  -29.7200 C   0  0  0  0  0  0  0  0  0  0  0  0
   -7.5580   17.9180  -32.1840 C   0  0  0  0  0  0  0  0  0  0  0  0
   -6.6150   17.3510  -33.0480 C   0  0  0  0  0  0  0  0  0  0  0  0
   -5.5623   20.1828  -34.6551 H   0  0  0  0  0  0  0  0  0  0  0  0
   -7.2442   21.1965  -33.1143 H   0  0  0  0  0  0  0  0  0  0  0  0
   -7.3509   22.9783  -33.1084 H   0  0  0  0  0  0  0  0  0  0  0  0
   -5.2175   24.2374  -32.8147 H   0  0  0  0  0  0  0  0  0  0  0  0
   -1.6010   25.9590  -30.0010 H   0  0  0  0  0  0  0  0  0  0  0  0
    0.2095   23.6433  -28.9022 H   0  0  0  0  0  0  0  0  0  0  0  0
    1.7278   23.5221  -26.9368 H   0  0  0  0  0  0  0  0  0  0  0  0
   -1.9796   26.8686  -27.0277 H   0  0  0  0  0  0  0  0  0  0  0  0
   -5.3909   23.5330  -28.5461 H   0  0  0  0  0  0  0  0  0  0  0  0
   -7.4959   22.2276  -28.8465 H   0  0  0  0  0  0  0  0  0  0  0  0
   -8.1095   17.2784  -31.4792 H   0  0  0  0  0  0  0  0  0  0  0  0
   -6.4345   16.2661  -33.0267 H   0  0  0  0  0  0  0  0  0  0  0  0
  1  2  3  0
  2  3  1  0
  3  4  2  0
  4  5  1  0
  5  6  2  0
  6  7  1  0
  7  8  1  0
  8  9  2  0
  8 10  2  0
  8 11  1  0
 11 12  2  0
 12 13  1  0
 13 14  2  0
 14 15  1  0
 15 16  1  0
 16 17  2  0
 16 18  1  0
 18 19  1  0
 19 20  2  0
 20 21  1  0
 21 22  2  0
 22 23  1  0
 22 24  1  0
 24 25  1  0
 25 26  1  0
 25 27  1  0
 25 28  1  0
 24 29  2  0
 14 30  1  0
 30 31  2  0
  6 32  1  0
 32 33  2  0
 33  3  1  0
 31 11  1  0
 29 19  1  0
  4 34  1  0
  5 35  1  0
 12 36  1  0
 13 37  1  0
 18 38  1  0
 20 39  1  0
 21 40  1  0
 29 41  1  0
 30 42  1  0
 31 43  1  0
 32 44  1  0
 33 45  1  0
M  CHG  2   7  -1  15  -1
M  END
>  <UniqueID>  (44) 
42

>  <SMILES>  (44) 
N#Cc1ccc([N-]S(=O)(=O)c2ccc([N-]C(=O)Nc3ccc(Cl)c(C(F)(F)F)c3)cc2)cc1

>  <Energy>  (44) 
60.680576880998785

>  <Genealogy>  (44) 
N#Cc1ccc([N-]S(=O)(=O)c2ccc([N-]C(=O)Nc3ccc(Cl)c(C(F)(F)F)c3)cc2)cc1 (protonated)
N#Cc1ccc([N-]S(=O)(=O)c2ccc([N-]C(=O)Nc3ccc(Cl)c(C(F)(F)F)c3)cc2)cc1 (3D coordinates assigned)
N#Cc1ccc([N-]S(=O)(=O)c2ccc([N-]C(=O)Nc3ccc(Cl)c(C(F)(F)F)c3)cc2)cc1 (optimized conformer: 60.680576880998785 kcal/mol)

>  <smiles>  (44) 
N#Cc1ccc(NS(=O)(=O)c2ccc(NC(=O)Nc3ccc(Cl)c(C(F)(F)F)c3)cc2)cc1

>  <score_type>  (44) 
oracle

>  <origin>  (44) 
adgpu

>  <m_score__min__energy>  (44) 
-11.65

>  <m_primary>  (44) 
energy

$$$$
44:0
     RDKit          3D

 50 52  0  0  0  0  0  0  0  0999 V2000
    1.8510   18.8940  -28.1180 C   0  0  0  0  0  0  0  0  0  0  0  0
    0.7270   19.8610  -27.8950 C   0  0  0  0  0  0  0  0  0  0  0  0
   -0.5550   19.3920  -27.5730 C   0  0  0  0  0  0  0  0  0  0  0  0
   -1.6180   20.2910  -27.3970 C   0  0  0  0  0  0  0  0  0  0  0  0
   -2.9950   19.7790  -27.0920 C   0  0  0  0  0  0  0  0  0  0  0  0
   -1.4010   21.6630  -27.5830 C   0  0  0  0  0  0  0  0  0  0  0  0
   -0.1260   22.1400  -27.9160 C   0  0  0  0  0  0  0  0  0  0  0  0
    0.1200   23.8680  -28.1700 S   0  0  0  0  0  0  0  0  0  0  0  0
    1.6040   24.1110  -28.2170 O   0  0  0  0  0  0  0  0  0  0  0  0
   -0.4900   24.2790  -29.4800 O   0  0  0  0  0  0  0  0  0  0  0  0
   -0.6150   24.8100  -26.8610 C   0  0  0  0  0  0  0  0  0  0  0  0
    0.2270   25.3370  -25.8660 C   0  0  0  0  0  0  0  0  0  0  0  0
   -0.2840   26.1600  -24.8620 C   0  0  0  0  0  0  0  0  0  0  0  0
   -1.6410   26.4690  -24.8360 C   0  0  0  0  0  0  0  0  0  0  0  0
   -2.4970   25.9380  -25.8010 C   0  0  0  0  0  0  0  0  0  0  0  0
   -2.0070   25.0890  -26.8100 C   0  0  0  0  0  0  0  0  0  0  0  0
   -2.9860   24.5100  -27.7560 C   0  0  0  0  0  0  0  0  0  0  0  0
   -3.7960   23.6340  -27.3470 O   0  0  0  0  0  0  0  0  0  0  0  0
   -2.9970   24.9120  -29.1320 N   0  0  0  0  0  0  0  0  0  0  0  0
   -3.9730   24.5200  -30.1150 C   0  0  0  0  0  0  0  0  0  0  0  0
   -5.1410   25.2790  -30.3000 C   0  0  0  0  0  0  0  0  0  0  0  0
   -6.1150   24.8700  -31.2070 C   0  0  0  0  0  0  0  0  0  0  0  0
   -5.9560   23.6840  -31.9190 C   0  0  0  0  0  0  0  0  0  0  0  0
   -4.8170   22.8850  -31.7300 C   0  0  0  0  0  0  0  0  0  0  0  0
   -4.7080   21.5910  -32.4970 C   0  0  0  0  0  0  0  0  0  0  0  0
   -3.7970   23.3190  -30.8430 C   0  0  0  0  0  0  0  0  0  0  0  0
   -2.5530   22.4890  -30.6190 C   0  0  0  0  0  0  0  0  0  0  0  0
    0.9330   21.2370  -28.0800 C   0  0  0  0  0  0  0  0  0  0  0  0
    2.2428   18.5569  -27.1470 H   0  0  0  0  0  0  0  0  0  0  0  0
    1.4817   18.0270  -28.6853 H   0  0  0  0  0  0  0  0  0  0  0  0
    2.6532   19.3887  -28.6853 H   0  0  0  0  0  0  0  0  0  0  0  0
   -0.7284   18.3119  -27.4576 H   0  0  0  0  0  0  0  0  0  0  0  0
   -3.1339   19.7274  -26.0020 H   0  0  0  0  0  0  0  0  0  0  0  0
   -3.7433   20.4590  -27.5252 H   0  0  0  0  0  0  0  0  0  0  0  0
   -3.1173   18.7753  -27.5252 H   0  0  0  0  0  0  0  0  0  0  0  0
   -2.2361   22.3695  -27.4670 H   0  0  0  0  0  0  0  0  0  0  0  0
    1.3006   25.0978  -25.8793 H   0  0  0  0  0  0  0  0  0  0  0  0
    0.3864   26.5653  -24.0898 H   0  0  0  0  0  0  0  0  0  0  0  0
   -2.0387   27.1324  -24.0539 H   0  0  0  0  0  0  0  0  0  0  0  0
   -3.5683   26.1862  -25.7726 H   0  0  0  0  0  0  0  0  0  0  0  0
   -5.2871   26.2042  -29.7233 H   0  0  0  0  0  0  0  0  0  0  0  0
   -7.0132   25.4859  -31.3616 H   0  0  0  0  0  0  0  0  0  0  0  0
   -6.7293   23.3704  -32.6357 H   0  0  0  0  0  0  0  0  0  0  0  0
   -4.6372   20.7508  -31.7905 H   0  0  0  0  0  0  0  0  0  0  0  0
   -5.5986   21.4638  -33.1300 H   0  0  0  0  0  0  0  0  0  0  0  0
   -3.8087   21.6146  -33.1300 H   0  0  0  0  0  0  0  0  0  0  0  0
   -2.3792   22.3730  -29.5390 H   0  0  0  0  0  0  0  0  0  0  0  0
   -2.6859   21.4980  -31.0775 H   0  0  0  0  0  0  0  0  0  0  0  0
   -1.6890   22.9922  -31.0775 H   0  0  0  0  0  0  0  0  0  0  0  0
    1.9311   21.6086  -28.3552 H   0  0  0  0  0  0  0  0  0  0  0  0
  1  2  1  0
  2  3  2  0
  3  4  1  0
  4  5  1  0
  4  6  2  0
  6  7  1  0
  7  8  1  0
  8  9  2  0
  8 10  2  0
  8 11  1  0
 11 12  2  0
 12 13  1  0
 13 14  2  0
 14 15  1  0
 15 16  2  0
 16 17  1  0
 17 18  2  0
 17 19  1  0
 19 20  1  0
 20 21  2  0
 21 22  1  0
 22 23  2  0
 23 24  1  0
 24 25  1  0
 24 26  2  0
 26 27  1  0
  7 28  2  0
 28  2  1  0
 16 11  1  0
 26 20  1  0
  1 29  1  0
  1 30  1  0
  1 31  1  0
  3 32  1  0
  5 33  1  0
  5 34  1  0
  5 35  1  0
  6 36  1  0
 12 37  1  0
 13 38  1  0
 14 39  1  0
 15 40  1  0
 21 41  1  0
 22 42  1  0
 23 43  1  0
 25 44  1  0
 25 45  1  0
 25 46  1  0
 27 47  1  0
 27 48  1  0
 27 49  1  0
 28 50  1  0
M  CHG  1  19  -1
M  END
>  <UniqueID>  (45) 
43

>  <SMILES>  (45) 
Cc1cc(C)cc(S(=O)(=O)c2ccccc2C(=O)[N-]c2cccc(C)c2C)c1

>  <Energy>  (45) 
64.79523620986511

>  <Genealogy>  (45) 
Cc1cc(C)cc(S(=O)(=O)c2ccccc2C(=O)[N-]c2cccc(C)c2C)c1 (protonated)
Cc1cc(C)cc(S(=O)(=O)c2ccccc2C(=O)[N-]c2cccc(C)c2C)c1 (3D coordinates assigned)
Cc1cc(C)cc(S(=O)(=O)c2ccccc2C(=O)[N-]c2cccc(C)c2C)c1 (optimized conformer: 64.79523620986511 kcal/mol)

>  <smiles>  (45) 
Cc1cc(C)cc(S(=O)(=O)c2ccccc2C(=O)Nc2cccc(C)c2C)c1

>  <score_type>  (45) 
oracle

>  <origin>  (45) 
adgpu

>  <m_score__min__energy>  (45) 
-10.949999999999999

>  <m_primary>  (45) 
energy

$$$$
45:0
     RDKit          3D

 57 59  0  0  0  0  0  0  0  0999 V2000
   -9.8560   20.3100  -32.3440 C   0  0  0  0  0  0  0  0  0  0  0  0
   -8.5480   21.0460  -32.2160 C   0  0  0  0  0  0  0  0  0  0  0  0
   -8.5830   22.4510  -32.1520 C   0  0  0  0  0  0  0  0  0  0  0  0
   -7.4120   23.1910  -31.9960 C   0  0  0  0  0  0  0  0  0  0  0  0
   -6.1780   22.5450  -31.8600 C   0  0  0  0  0  0  0  0  0  0  0  0
   -4.9860   23.3390  -31.7130 N   0  0  0  0  0  0  0  0  0  0  0  0
   -4.8910   24.5190  -30.9050 C   0  0  0  0  0  0  0  0  0  0  0  0
   -5.9170   25.2050  -30.6470 O   0  0  0  0  0  0  0  0  0  0  0  0
   -3.6140   24.9460  -30.4210 N   0  0  0  0  0  0  0  0  0  0  0  0
   -2.9280   24.2800  -29.3550 C   0  0  0  0  0  0  0  0  0  0  0  0
   -3.3250   22.9950  -28.9880 C   0  0  0  0  0  0  0  0  0  0  0  0
   -2.6430   22.3070  -27.9850 C   0  0  0  0  0  0  0  0  0  0  0  0
   -1.5600   22.9000  -27.3110 C   0  0  0  0  0  0  0  0  0  0  0  0
   -0.8530   22.0870  -26.2580 C   0  0  0  0  0  0  0  0  0  0  0  0
   -1.1840   24.2350  -27.6350 C   0  0  0  0  0  0  0  0  0  0  0  0
    0.1320   25.1160  -26.8130 S   0  0  0  0  0  0  0  0  0  0  0  0
    0.6780   24.2480  -25.7110 O   0  0  0  0  0  0  0  0  0  0  0  0
    1.2640   25.4650  -27.7400 O   0  0  0  0  0  0  0  0  0  0  0  0
   -0.5280   26.6230  -26.0940 C   0  0  0  0  0  0  0  0  0  0  0  0
   -1.8400   26.4140  -25.3370 C   0  0  0  0  0  0  0  0  0  0  0  0
   -1.1500   26.8020  -24.0340 C   0  0  0  0  0  0  0  0  0  0  0  0
    0.1590   27.0210  -24.7890 C   0  0  0  0  0  0  0  0  0  0  0  0
   -1.8840   24.9140  -28.6550 C   0  0  0  0  0  0  0  0  0  0  0  0
   -1.5640   26.2350  -28.9610 O   0  0  0  0  0  0  0  0  0  0  0  0
   -6.1310   21.1400  -31.9440 C   0  0  0  0  0  0  0  0  0  0  0  0
   -7.2930   20.3780  -32.1450 C   0  0  0  0  0  0  0  0  0  0  0  0
   -7.0910   18.6050  -32.2630 S   0  0  0  0  0  0  0  0  0  0  0  0
   -8.3800   17.8790  -31.9950 O   0  0  0  0  0  0  0  0  0  0  0  0
   -6.1060   18.1790  -31.2060 O   0  0  0  0  0  0  0  0  0  0  0  0
   -6.5450   18.0930  -33.8500 N   0  0  0  0  0  0  0  0  0  0  0  0
   -6.3980   16.6320  -33.9520 C   0  0  0  0  0  0  0  0  0  0  0  0
   -5.2930   18.7720  -34.2080 C   0  0  0  0  0  0  0  0  0  0  0  0
  -10.2512   20.0876  -31.3418 H   0  0  0  0  0  0  0  0  0  0  0  0
  -10.5764   20.9352  -32.8918 H   0  0  0  0  0  0  0  0  0  0  0  0
   -9.6956   19.3697  -32.8918 H   0  0  0  0  0  0  0  0  0  0  0  0
   -9.5483   22.9731  -32.2261 H   0  0  0  0  0  0  0  0  0  0  0  0
   -7.4582   24.2899  -31.9797 H   0  0  0  0  0  0  0  0  0  0  0  0
   -4.1020   22.9840  -32.1500 H   0  0  0  0  0  0  0  0  0  0  0  0
   -4.1804   22.5215  -29.4921 H   0  0  0  0  0  0  0  0  0  0  0  0
   -2.9560   21.2870  -27.7173 H   0  0  0  0  0  0  0  0  0  0  0  0
   -1.1566   22.4361  -25.2600 H   0  0  0  0  0  0  0  0  0  0  0  0
   -1.1208   21.0263  -26.3726 H   0  0  0  0  0  0  0  0  0  0  0  0
    0.2346   22.2050  -26.3726 H   0  0  0  0  0  0  0  0  0  0  0  0
   -0.4904   27.2849  -26.9718 H   0  0  0  0  0  0  0  0  0  0  0  0
   -2.6466   27.0982  -25.6390 H   0  0  0  0  0  0  0  0  0  0  0  0
   -2.3831   25.4608  -25.4170 H   0  0  0  0  0  0  0  0  0  0  0  0
   -1.5550   27.7110  -23.5652 H   0  0  0  0  0  0  0  0  0  0  0  0
   -1.1844   26.1285  -23.1650 H   0  0  0  0  0  0  0  0  0  0  0  0
    0.5200   28.0599  -24.7701 H   0  0  0  0  0  0  0  0  0  0  0  0
    1.0797   26.5126  -24.4667 H   0  0  0  0  0  0  0  0  0  0  0  0
   -5.1620   20.6280  -31.8500 H   0  0  0  0  0  0  0  0  0  0  0  0
   -6.3542   16.1965  -32.9428 H   0  0  0  0  0  0  0  0  0  0  0  0
   -7.2586   16.2139  -34.4947 H   0  0  0  0  0  0  0  0  0  0  0  0
   -5.4713   16.3937  -34.4947 H   0  0  0  0  0  0  0  0  0  0  0  0
   -4.7582   19.0621  -33.2916 H   0  0  0  0  0  0  0  0  0  0  0  0
   -4.6633   18.0918  -34.8003 H   0  0  0  0  0  0  0  0  0  0  0  0
   -5.5197   19.6708  -34.8003 H   0  0  0  0  0  0  0  0  0  0  0  0
  1  2  1  0
  2  3  2  0
  3  4  1  0
  4  5  2  0
  5  6  1  0
  6  7  1  0
  7  8  2  0
  7  9  1  0
  9 10  1  0
 10 11  2  0
 11 12  1  0
 12 13  2  0
 13 14  1  0
 13 15  1  0
 15 16  1  0
 16 17  2  0
 16 18  2  0
 16 19  1  0
 19 20  1  0
 20 21  1  0
 21 22  1  0
 15 23  2  0
 23 24  1  0
  5 25  1  0
 25 26  2  0
 26 27  1  0
 27 28  2  0
 27 29  2  0
 27 30  1  0
 30 31  1  0
 30 32  1  0
 26  2  1  0
 23 10  1  0
 22 19  1  0
  1 33  1  0
  1 34  1  0
  1 35  1  0
  3 36  1  0
  4 37  1  0
  6 38  1  0
 11 39  1  0
 12 40  1  0
 14 41  1  0
 14 42  1  0
 14 43  1  0
 19 44  1  0
 20 45  1  0
 20 46  1  0
 21 47  1  0
 21 48  1  0
 22 49  1  0
 22 50  1  0
 25 51  1  0
 31 52  1  0
 31 53  1  0
 31 54  1  0
 32 55  1  0
 32 56  1  0
 32 57  1  0
M  CHG  2   9  -1  24  -1
M  END
>  <UniqueID>  (46) 
44

>  <SMILES>  (46) 
Cc1ccc(NC(=O)[N-]c2ccc(C)c(S(=O)(=O)C3CCC3)c2[O-])cc1S(=O)(=O)N(C)C

>  <Energy>  (46) 
132.06990797002783

>  <Genealogy>  (46) 
Cc1ccc(NC(=O)[N-]c2ccc(C)c(S(=O)(=O)C3CCC3)c2[O-])cc1S(=O)(=O)N(C)C (protonated)
Cc1ccc(NC(=O)[N-]c2ccc(C)c(S(=O)(=O)C3CCC3)c2[O-])cc1S(=O)(=O)N(C)C (3D coordinates assigned)
Cc1ccc(NC(=O)[N-]c2ccc(C)c(S(=O)(=O)C3CCC3)c2[O-])cc1S(=O)(=O)N(C)C (nonaromatic ring conformer: 132.06990797002783 kcal/mol)

>  <smiles>  (46) 
Cc1ccc(NC(=O)Nc2ccc(C)c(S(=O)(=O)C3CCC3)c2O)cc1S(=O)(=O)N(C)C

>  <score_type>  (46) 
oracle

>  <origin>  (46) 
adgpu

>  <m_score__min__energy>  (46) 
-15.49

>  <m_primary>  (46) 
energy

$$$$
46:0
     RDKit          3D

 50 52  0  0  0  0  0  0  0  0999 V2000
   -4.4430   18.7240  -34.0060 C   0  0  0  0  0  0  0  0  0  0  0  0
   -4.3550   19.8930  -33.0770 C   0  0  0  0  0  0  0  0  0  0  0  0
   -3.2070   20.5530  -32.8290 N   0  0  0  0  0  0  0  0  0  0  0  0
   -3.4880   21.5000  -31.9440 N   0  0  0  0  0  0  0  0  0  0  0  0
   -4.8020   21.4030  -31.6680 C   0  0  0  0  0  0  0  0  0  0  0  0
   -5.6190   22.4060  -30.4220 S   0  0  0  0  0  0  0  0  0  0  0  0
   -5.4890   23.9200  -31.4290 C   0  0  0  0  0  0  0  0  0  0  0  0
   -4.9780   25.0810  -30.6210 C   0  0  0  0  0  0  0  0  0  0  0  0
   -5.7970   25.8920  -30.1120 O   0  0  0  0  0  0  0  0  0  0  0  0
   -3.5750   25.2880  -30.4080 N   0  0  0  0  0  0  0  0  0  0  0  0
   -2.7420   24.5430  -29.5070 C   0  0  0  0  0  0  0  0  0  0  0  0
   -1.9730   25.2300  -28.5600 C   0  0  0  0  0  0  0  0  0  0  0  0
   -1.1170   24.5280  -27.7050 C   0  0  0  0  0  0  0  0  0  0  0  0
   -1.0300   23.1360  -27.7860 C   0  0  0  0  0  0  0  0  0  0  0  0
   -1.8260   22.4340  -28.7010 C   0  0  0  0  0  0  0  0  0  0  0  0
   -1.6900   20.6840  -28.8490 S   0  0  0  0  0  0  0  0  0  0  0  0
   -3.0000   20.0470  -28.4770 O   0  0  0  0  0  0  0  0  0  0  0  0
   -0.6350   20.1940  -27.8950 O   0  0  0  0  0  0  0  0  0  0  0  0
   -1.2510   20.2460  -30.4830 N   0  0  0  0  0  0  0  0  0  0  0  0
   -0.4860   18.9910  -30.4870 C   0  0  0  0  0  0  0  0  0  0  0  0
   -0.4680   21.3300  -31.0930 C   0  0  0  0  0  0  0  0  0  0  0  0
   -2.7000   23.1380  -29.5400 C   0  0  0  0  0  0  0  0  0  0  0  0
   -5.3790   20.3980  -32.3560 N   0  0  0  0  0  0  0  0  0  0  0  0
   -6.7400   19.9430  -32.2830 C   0  0  0  0  0  0  0  0  0  0  0  0
   -7.0270   18.5910  -32.0360 C   0  0  0  0  0  0  0  0  0  0  0  0
   -8.3530   18.1550  -31.9480 C   0  0  0  0  0  0  0  0  0  0  0  0
   -9.4010   19.0660  -32.1060 C   0  0  0  0  0  0  0  0  0  0  0  0
   -9.1240   20.4140  -32.3510 C   0  0  0  0  0  0  0  0  0  0  0  0
   -7.8000   20.8520  -32.4390 C   0  0  0  0  0  0  0  0  0  0  0  0
   -4.5129   17.7951  -33.4209 H   0  0  0  0  0  0  0  0  0  0  0  0
   -5.3360   18.8260  -34.6401 H   0  0  0  0  0  0  0  0  0  0  0  0
   -3.5448   18.6912  -34.6401 H   0  0  0  0  0  0  0  0  0  0  0  0
   -4.7976   23.7347  -32.2643 H   0  0  0  0  0  0  0  0  0  0  0  0
   -6.4933   24.1741  -31.7988 H   0  0  0  0  0  0  0  0  0  0  0  0
   -2.0422   26.3255  -28.4881 H   0  0  0  0  0  0  0  0  0  0  0  0
   -0.5107   25.0734  -26.9668 H   0  0  0  0  0  0  0  0  0  0  0  0
   -0.3355   22.5902  -27.1304 H   0  0  0  0  0  0  0  0  0  0  0  0
   -2.1290   20.1110  -31.0350 H   0  0  0  0  0  0  0  0  0  0  0  0
   -0.2937   18.6755  -29.4509 H   0  0  0  0  0  0  0  0  0  0  0  0
   -1.0628   18.2116  -31.0065 H   0  0  0  0  0  0  0  0  0  0  0  0
    0.4710   19.1466  -31.0065 H   0  0  0  0  0  0  0  0  0  0  0  0
   -0.0206   21.9493  -30.3016 H   0  0  0  0  0  0  0  0  0  0  0  0
    0.3294   20.9001  -31.7170 H   0  0  0  0  0  0  0  0  0  0  0  0
   -1.1268   21.9519  -31.7170 H   0  0  0  0  0  0  0  0  0  0  0  0
   -3.3576   22.5878  -30.2290 H   0  0  0  0  0  0  0  0  0  0  0  0
   -6.2048   17.8710  -31.9111 H   0  0  0  0  0  0  0  0  0  0  0  0
   -8.5712   17.0944  -31.7543 H   0  0  0  0  0  0  0  0  0  0  0  0
  -10.4437   18.7223  -32.0376 H   0  0  0  0  0  0  0  0  0  0  0  0
   -9.9492   21.1308  -32.4747 H   0  0  0  0  0  0  0  0  0  0  0  0
   -7.5865   21.9138  -32.6314 H   0  0  0  0  0  0  0  0  0  0  0  0
  1  2  1  0
  2  3  2  0
  3  4  1  0
  4  5  2  0
  5  6  1  0
  6  7  1  0
  7  8  1  0
  8  9  2  0
  8 10  1  0
 10 11  1  0
 11 12  2  0
 12 13  1  0
 13 14  2  0
 14 15  1  0
 15 16  1  0
 16 17  2  0
 16 18  2  0
 16 19  1  0
 19 20  1  0
 19 21  1  0
 15 22  2  0
  5 23  1  0
 23 24  1  0
 24 25  2  0
 25 26  1  0
 26 27  2  0
 27 28  1  0
 28 29  2  0
 23  2  1  0
 29 24  1  0
 22 11  1  0
  1 30  1  0
  1 31  1  0
  1 32  1  0
  7 33  1  0
  7 34  1  0
 12 35  1  0
 13 36  1  0
 14 37  1  0
 19 38  1  0
 20 39  1  0
 20 40  1  0
 20 41  1  0
 21 42  1  0
 21 43  1  0
 21 44  1  0
 22 45  1  0
 25 46  1  0
 26 47  1  0
 27 48  1  0
 28 49  1  0
 29 50  1  0
M  CHG  2  10  -1  19   1
M  END
>  <UniqueID>  (47) 
45

>  <SMILES>  (47) 
Cc1nnc(SCC(=O)[N-]c2cccc(S(=O)(=O)[NH+](C)C)c2)n1-c1ccccc1

>  <Energy>  (47) 
85.57746736148597

>  <Genealogy>  (47) 
Cc1nnc(SCC(=O)[N-]c2cccc(S(=O)(=O)[NH+](C)C)c2)n1-c1ccccc1 (protonated)
Cc1nnc(SCC(=O)[N-]c2cccc(S(=O)(=O)[NH+](C)C)c2)n1-c1ccccc1 (3D coordinates assigned)
Cc1nnc(SCC(=O)[N-]c2cccc(S(=O)(=O)[NH+](C)C)c2)n1-c1ccccc1 (optimized conformer: 85.57746736148597 kcal/mol)

>  <smiles>  (47) 
Cc1nnc(SCC(=O)Nc2cccc(S(=O)(=O)N(C)C)c2)n1-c1ccccc1

>  <score_type>  (47) 
oracle

>  <origin>  (47) 
adgpu

>  <m_score__min__energy>  (47) 
-12.050000000000001

>  <m_primary>  (47) 
energy

$$$$
47:0
     RDKit          3D

 64 67  0  0  0  0  0  0  0  0999 V2000
   -7.0740   23.1010  -30.1320 C   0  0  0  0  0  0  0  0  0  0  0  0
   -8.2520   22.3050  -30.0720 O   0  0  0  0  0  0  0  0  0  0  0  0
   -8.7450   21.5960  -31.1720 C   0  0  0  0  0  0  0  0  0  0  0  0
   -9.8680   21.9000  -31.6630 O   0  0  0  0  0  0  0  0  0  0  0  0
   -7.9430   20.4970  -31.7620 C   0  0  0  0  0  0  0  0  0  0  0  0
   -8.3370   19.1560  -31.6150 C   0  0  0  0  0  0  0  0  0  0  0  0
   -7.5970   18.1270  -32.2110 C   0  0  0  0  0  0  0  0  0  0  0  0
   -6.4530   18.4230  -32.9510 C   0  0  0  0  0  0  0  0  0  0  0  0
   -6.0180   19.7530  -33.0740 C   0  0  0  0  0  0  0  0  0  0  0  0
   -4.8150   20.0100  -33.8130 N   0  0  0  0  0  0  0  0  0  0  0  0
   -3.2040   20.0990  -33.1670 S   0  0  0  0  0  0  0  0  0  0  0  0
   -2.8310   18.7320  -32.6660 O   0  0  0  0  0  0  0  0  0  0  0  0
   -2.2110   20.4920  -34.2190 O   0  0  0  0  0  0  0  0  0  0  0  0
   -3.1680   21.2450  -31.8270 C   0  0  0  0  0  0  0  0  0  0  0  0
   -2.3990   20.9670  -30.6900 C   0  0  0  0  0  0  0  0  0  0  0  0
   -2.2780   21.9160  -29.6700 C   0  0  0  0  0  0  0  0  0  0  0  0
   -2.9100   23.1640  -29.7830 C   0  0  0  0  0  0  0  0  0  0  0  0
   -2.7410   24.1920  -28.7980 N   0  0  0  0  0  0  0  0  0  0  0  0
   -1.2220   24.9060  -28.3530 S   0  0  0  0  0  0  0  0  0  0  0  0
   -0.1350   24.2500  -29.1520 O   0  0  0  0  0  0  0  0  0  0  0  0
   -1.2110   26.3700  -28.6850 O   0  0  0  0  0  0  0  0  0  0  0  0
   -0.9050   24.6170  -26.6350 C   0  0  0  0  0  0  0  0  0  0  0  0
   -1.2320   25.4110  -25.5400 C   0  0  0  0  0  0  0  0  0  0  0  0
   -1.9620   26.7140  -25.5420 C   0  0  0  0  0  0  0  0  0  0  0  0
   -0.8650   24.7910  -24.3990 N   0  0  0  0  0  0  0  0  0  0  0  0
   -0.3010   23.6200  -24.7420 C   0  0  0  0  0  0  0  0  0  0  0  0
    0.2620   22.6510  -23.7510 C   0  0  0  0  0  0  0  0  0  0  0  0
   -0.2990   23.4840  -26.1140 C   0  0  0  0  0  0  0  0  0  0  0  0
    0.2090   22.3370  -26.8760 C   0  0  0  0  0  0  0  0  0  0  0  0
    1.3150   22.4390  -27.4710 O   0  0  0  0  0  0  0  0  0  0  0  0
   -0.5390   21.1130  -26.9500 N   0  0  0  0  0  0  0  0  0  0  0  0
   -1.6090   20.7570  -26.0360 C   0  0  0  0  0  0  0  0  0  0  0  0
   -2.0280   19.3400  -26.4220 C   0  0  0  0  0  0  0  0  0  0  0  0
   -1.3920   19.0680  -27.7850 C   0  0  0  0  0  0  0  0  0  0  0  0
   -0.2690   20.0870  -27.9380 C   0  0  0  0  0  0  0  0  0  0  0  0
   -3.7350   23.4140  -30.8850 C   0  0  0  0  0  0  0  0  0  0  0  0
   -3.8530   22.4680  -31.9120 C   0  0  0  0  0  0  0  0  0  0  0  0
   -6.7770   20.7880  -32.4910 C   0  0  0  0  0  0  0  0  0  0  0  0
   -6.7342   23.3306  -29.1113 H   0  0  0  0  0  0  0  0  0  0  0  0
   -6.2857   22.5497  -30.6655 H   0  0  0  0  0  0  0  0  0  0  0  0
   -7.2914   24.0380  -30.6655 H   0  0  0  0  0  0  0  0  0  0  0  0
   -9.2341   18.9125  -31.0269 H   0  0  0  0  0  0  0  0  0  0  0  0
   -7.9195   17.0818  -32.0949 H   0  0  0  0  0  0  0  0  0  0  0  0
   -5.8902   17.6138  -33.4393 H   0  0  0  0  0  0  0  0  0  0  0  0
   -1.8876   19.9974  -30.5988 H   0  0  0  0  0  0  0  0  0  0  0  0
   -1.6840   21.6830  -28.7739 H   0  0  0  0  0  0  0  0  0  0  0  0
   -2.1419   27.0351  -24.5054 H   0  0  0  0  0  0  0  0  0  0  0  0
   -1.3573   27.4723  -26.0610 H   0  0  0  0  0  0  0  0  0  0  0  0
   -2.9244   26.5943  -26.0610 H   0  0  0  0  0  0  0  0  0  0  0  0
   -1.0070   25.1460  -23.4270 H   0  0  0  0  0  0  0  0  0  0  0  0
    0.0549   23.0075  -22.7312 H   0  0  0  0  0  0  0  0  0  0  0  0
   -0.2040   21.6653  -23.8966 H   0  0  0  0  0  0  0  0  0  0  0  0
    1.3491   22.5677  -23.8966 H   0  0  0  0  0  0  0  0  0  0  0  0
   -1.2495   20.7809  -24.9967 H   0  0  0  0  0  0  0  0  0  0  0  0
   -2.4510   21.4617  -26.1026 H   0  0  0  0  0  0  0  0  0  0  0  0
   -1.6613   18.6172  -25.6783 H   0  0  0  0  0  0  0  0  0  0  0  0
   -3.1228   19.2408  -26.4617 H   0  0  0  0  0  0  0  0  0  0  0  0
   -0.9874   18.0457  -27.8204 H   0  0  0  0  0  0  0  0  0  0  0  0
   -2.1286   19.1566  -28.5972 H   0  0  0  0  0  0  0  0  0  0  0  0
    0.7063   19.6158  -27.7461 H   0  0  0  0  0  0  0  0  0  0  0  0
   -0.2302   20.5014  -28.9562 H   0  0  0  0  0  0  0  0  0  0  0  0
   -4.2945   24.3591  -30.9456 H   0  0  0  0  0  0  0  0  0  0  0  0
   -4.4838   22.6839  -32.7870 H   0  0  0  0  0  0  0  0  0  0  0  0
   -6.4538   21.8330  -32.6077 H   0  0  0  0  0  0  0  0  0  0  0  0
  1  2  1  0
  2  3  1  0
  3  4  2  0
  3  5  1  0
  5  6  2  0
  6  7  1  0
  7  8  2  0
  8  9  1  0
  9 10  1  0
 10 11  1  0
 11 12  2  0
 11 13  2  0
 11 14  1  0
 14 15  2  0
 15 16  1  0
 16 17  2  0
 17 18  1  0
 18 19  1  0
 19 20  2  0
 19 21  2  0
 19 22  1  0
 22 23  2  0
 23 24  1  0
 23 25  1  0
 25 26  1  0
 26 27  1  0
 26 28  2  0
 28 29  1  0
 29 30  2  0
 29 31  1  0
 31 32  1  0
 32 33  1  0
 33 34  1  0
 34 35  1  0
 17 36  1  0
 36 37  2  0
  9 38  2  0
 38  5  1  0
 37 14  1  0
 28 22  1  0
 35 31  1  0
  1 39  1  0
  1 40  1  0
  1 41  1  0
  6 42  1  0
  7 43  1  0
  8 44  1  0
 15 45  1  0
 16 46  1  0
 24 47  1  0
 24 48  1  0
 24 49  1  0
 25 50  1  0
 27 51  1  0
 27 52  1  0
 27 53  1  0
 32 54  1  0
 32 55  1  0
 33 56  1  0
 33 57  1  0
 34 58  1  0
 34 59  1  0
 35 60  1  0
 35 61  1  0
 36 62  1  0
 37 63  1  0
 38 64  1  0
M  CHG  2  10  -1  18  -1
M  END
>  <UniqueID>  (48) 
46

>  <SMILES>  (48) 
COC(=O)c1cccc([N-]S(=O)(=O)c2ccc([N-]S(=O)(=O)c3c(C)[nH]c(C)c3C(=O)N3CCCC3)cc2)c1

>  <Energy>  (48) 
105.32099630922518

>  <Genealogy>  (48) 
COC(=O)c1cccc([N-]S(=O)(=O)c2ccc([N-]S(=O)(=O)c3c(C)[nH]c(C)c3C(=O)N3CCCC3)cc2)c1 (protonated)
COC(=O)c1cccc([N-]S(=O)(=O)c2ccc([N-]S(=O)(=O)c3c(C)[nH]c(C)c3C(=O)N3CCCC3)cc2)c1 (3D coordinates assigned)
COC(=O)c1cccc([N-]S(=O)(=O)c2ccc([N-]S(=O)(=O)c3c(C)[nH]c(C)c3C(=O)N3CCCC3)cc2)c1 (nonaromatic ring conformer: 105.32099630922518 kcal/mol)

>  <smiles>  (48) 
COC(=O)c1cccc(NS(=O)(=O)c2ccc(NS(=O)(=O)c3c(C)[nH]c(C)c3C(=O)N3CCCC3)cc2)c1

>  <score_type>  (48) 
oracle

>  <origin>  (48) 
adgpu

>  <m_score__min__energy>  (48) 
-12.06

>  <m_primary>  (48) 
energy

$$$$
48:0
     RDKit          3D

 57 60  0  0  0  0  0  0  0  0999 V2000
   -3.6220   25.1620  -30.6630 N   0  0  0  0  0  0  0  0  0  0  0  0
   -5.1390   25.2160  -29.8340 S   0  0  0  0  0  0  0  0  0  0  0  0
   -4.9380   24.8860  -28.3810 O   0  0  0  0  0  0  0  0  0  0  0  0
   -5.7090   26.6040  -29.9440 O   0  0  0  0  0  0  0  0  0  0  0  0
   -6.2390   24.0490  -30.5580 C   0  0  0  0  0  0  0  0  0  0  0  0
   -6.4710   24.0420  -31.9440 C   0  0  0  0  0  0  0  0  0  0  0  0
   -7.3540   23.1110  -32.5010 C   0  0  0  0  0  0  0  0  0  0  0  0
   -7.9880   22.1590  -31.6930 C   0  0  0  0  0  0  0  0  0  0  0  0
   -8.9180   21.2520  -32.2990 N   0  0  0  0  0  0  0  0  0  0  0  0
   -8.8500   19.5190  -32.1850 S   0  0  0  0  0  0  0  0  0  0  0  0
   -9.9450   18.9280  -33.0390 O   0  0  0  0  0  0  0  0  0  0  0  0
   -9.1000   19.1200  -30.7520 O   0  0  0  0  0  0  0  0  0  0  0  0
   -7.2760   18.8890  -32.6680 C   0  0  0  0  0  0  0  0  0  0  0  0
   -6.7600   17.7280  -32.0740 C   0  0  0  0  0  0  0  0  0  0  0  0
   -5.5000   17.2460  -32.4470 C   0  0  0  0  0  0  0  0  0  0  0  0
   -4.7290   17.9290  -33.3980 C   0  0  0  0  0  0  0  0  0  0  0  0
   -3.4240   17.4200  -33.7430 N   0  0  0  0  0  0  0  0  0  0  0  0
   -2.4370   18.1540  -34.5370 C   0  0  0  0  0  0  0  0  0  0  0  0
   -1.1990   18.4690  -33.6930 C   0  0  0  0  0  0  0  0  0  0  0  0
   -0.3070   19.3790  -34.4150 N   0  0  0  0  0  0  0  0  0  0  0  0
   -0.1650   20.9040  -33.5840 S   0  0  0  0  0  0  0  0  0  0  0  0
    0.1160   21.9870  -34.5860 O   0  0  0  0  0  0  0  0  0  0  0  0
    0.9780   20.8240  -32.6110 O   0  0  0  0  0  0  0  0  0  0  0  0
   -1.6650   21.2840  -32.7260 C   0  0  0  0  0  0  0  0  0  0  0  0
   -2.8470   21.4860  -33.4590 C   0  0  0  0  0  0  0  0  0  0  0  0
   -4.0520   21.7590  -32.8090 C   0  0  0  0  0  0  0  0  0  0  0  0
   -4.0920   21.8430  -31.4170 C   0  0  0  0  0  0  0  0  0  0  0  0
   -2.9190   21.6640  -30.6660 C   0  0  0  0  0  0  0  0  0  0  0  0
   -2.9330   21.7610  -29.2690 C   0  0  0  0  0  0  0  0  0  0  0  0
   -1.7490   21.5900  -28.5460 C   0  0  0  0  0  0  0  0  0  0  0  0
   -0.5620   21.3190  -29.2260 C   0  0  0  0  0  0  0  0  0  0  0  0
   -0.5620   21.2240  -30.5810 N   0  0  0  0  0  0  0  0  0  0  0  0
   -1.6970   21.3860  -31.3210 C   0  0  0  0  0  0  0  0  0  0  0  0
   -5.2540   19.0900  -33.9990 C   0  0  0  0  0  0  0  0  0  0  0  0
   -6.5210   19.5630  -33.6360 C   0  0  0  0  0  0  0  0  0  0  0  0
   -7.7410   22.1560  -30.3060 C   0  0  0  0  0  0  0  0  0  0  0  0
   -6.8770   23.1020  -29.7450 C   0  0  0  0  0  0  0  0  0  0  0  0
   -3.5300   26.0530  -31.2070 H   0  0  0  0  0  0  0  0  0  0  0  0
   -5.9581   24.7688  -32.5910 H   0  0  0  0  0  0  0  0  0  0  0  0
   -7.5521   23.1268  -33.5829 H   0  0  0  0  0  0  0  0  0  0  0  0
   -7.3475   17.1944  -31.3124 H   0  0  0  0  0  0  0  0  0  0  0  0
   -5.1116   16.3238  -31.9902 H   0  0  0  0  0  0  0  0  0  0  0  0
   -3.1210   16.5130  -33.3190 H   0  0  0  0  0  0  0  0  0  0  0  0
   -2.1400   17.5420  -35.4014 H   0  0  0  0  0  0  0  0  0  0  0  0
   -2.8855   19.0987  -34.8782 H   0  0  0  0  0  0  0  0  0  0  0  0
   -1.5134   18.9414  -32.7507 H   0  0  0  0  0  0  0  0  0  0  0  0
   -0.6611   17.5323  -33.4851 H   0  0  0  0  0  0  0  0  0  0  0  0
   -2.8224   21.4284  -34.5572 H   0  0  0  0  0  0  0  0  0  0  0  0
   -4.9709   21.9080  -33.3950 H   0  0  0  0  0  0  0  0  0  0  0  0
   -5.0443   22.0499  -30.9067 H   0  0  0  0  0  0  0  0  0  0  0  0
   -3.8748   21.9716  -28.7412 H   0  0  0  0  0  0  0  0  0  0  0  0
   -1.7535   21.6686  -27.4488 H   0  0  0  0  0  0  0  0  0  0  0  0
    0.3743   21.1822  -28.6651 H   0  0  0  0  0  0  0  0  0  0  0  0
   -4.6657   19.6276  -34.7572 H   0  0  0  0  0  0  0  0  0  0  0  0
   -6.9251   20.4680  -34.1133 H   0  0  0  0  0  0  0  0  0  0  0  0
   -8.2285   21.4083  -29.6631 H   0  0  0  0  0  0  0  0  0  0  0  0
   -6.6972   23.1029  -28.6598 H   0  0  0  0  0  0  0  0  0  0  0  0
  1  2  1  0
  2  3  2  0
  2  4  2  0
  2  5  1  0
  5  6  2  0
  6  7  1  0
  7  8  2  0
  8  9  1  0
  9 10  1  0
 10 11  2  0
 10 12  2  0
 10 13  1  0
 13 14  2  0
 14 15  1  0
 15 16  2  0
 16 17  1  0
 17 18  1  0
 18 19  1  0
 19 20  1  0
 20 21  1  0
 21 22  2  0
 21 23  2  0
 21 24  1  0
 24 25  2  0
 25 26  1  0
 26 27  2  0
 27 28  1  0
 28 29  2  0
 29 30  1  0
 30 31  2  0
 31 32  1  0
 32 33  2  0
 16 34  1  0
 34 35  2  0
  8 36  1  0
 36 37  2  0
 37  5  1  0
 35 13  1  0
 33 24  1  0
 33 28  1  0
  1 38  1  0
  6 39  1  0
  7 40  1  0
 14 41  1  0
 15 42  1  0
 17 43  1  0
 18 44  1  0
 18 45  1  0
 19 46  1  0
 19 47  1  0
 25 48  1  0
 26 49  1  0
 27 50  1  0
 29 51  1  0
 30 52  1  0
 31 53  1  0
 34 54  1  0
 35 55  1  0
 36 56  1  0
 37 57  1  0
M  CHG  3   1  -1   9  -1  20  -1
M  END
>  <UniqueID>  (49) 
47

>  <SMILES>  (49) 
[NH-]S(=O)(=O)c1ccc([N-]S(=O)(=O)c2ccc(NCC[N-]S(=O)(=O)c3cccc4cccnc34)cc2)cc1

>  <Energy>  (49) 
70.32111320909802

>  <Genealogy>  (49) 
[NH-]S(=O)(=O)c1ccc([N-]S(=O)(=O)c2ccc(NCC[N-]S(=O)(=O)c3cccc4cccnc34)cc2)cc1 (protonated)
[NH-]S(=O)(=O)c1ccc([N-]S(=O)(=O)c2ccc(NCC[N-]S(=O)(=O)c3cccc4cccnc34)cc2)cc1 (3D coordinates assigned)
[NH-]S(=O)(=O)c1ccc([N-]S(=O)(=O)c2ccc(NCC[N-]S(=O)(=O)c3cccc4cccnc34)cc2)cc1 (optimized conformer: 70.32111320909802 kcal/mol)

>  <smiles>  (49) 
NS(=O)(=O)c1ccc(NS(=O)(=O)c2ccc(NCCNS(=O)(=O)c3cccc4cccnc34)cc2)cc1

>  <score_type>  (49) 
oracle

>  <origin>  (49) 
adgpu

>  <m_score__min__energy>  (49) 
-12.99

>  <m_primary>  (49) 
energy

$$$$
49:0
     RDKit          3D

 50 53  0  0  0  0  0  0  0  0999 V2000
   -4.6120   22.9150  -28.7570 O   0  0  0  0  0  0  0  0  0  0  0  0
   -3.3890   22.6300  -28.8630 C   0  0  0  0  0  0  0  0  0  0  0  0
   -3.0210   21.3920  -29.4830 N   0  0  0  0  0  0  0  0  0  0  0  0
   -2.5640   21.2160  -30.8340 C   0  0  0  0  0  0  0  0  0  0  0  0
   -1.2960   21.6710  -31.2410 C   0  0  0  0  0  0  0  0  0  0  0  0
   -0.8840   21.5230  -32.5670 C   0  0  0  0  0  0  0  0  0  0  0  0
   -1.7270   20.9130  -33.4970 C   0  0  0  0  0  0  0  0  0  0  0  0
   -2.9730   20.4260  -33.0970 C   0  0  0  0  0  0  0  0  0  0  0  0
   -3.3850   20.5520  -31.7630 C   0  0  0  0  0  0  0  0  0  0  0  0
   -4.9770   19.8710  -31.2700 S   0  0  0  0  0  0  0  0  0  0  0  0
   -5.8530   21.4070  -31.6070 C   0  0  0  0  0  0  0  0  0  0  0  0
   -5.1130   22.5490  -31.9400 C   0  0  0  0  0  0  0  0  0  0  0  0
   -5.7620   23.7480  -32.2390 C   0  0  0  0  0  0  0  0  0  0  0  0
   -7.1560   23.8150  -32.2010 C   0  0  0  0  0  0  0  0  0  0  0  0
   -7.9030   22.6870  -31.8540 C   0  0  0  0  0  0  0  0  0  0  0  0
   -7.2590   21.4730  -31.5470 C   0  0  0  0  0  0  0  0  0  0  0  0
   -8.0000   20.3040  -31.1680 N   0  0  0  0  0  0  0  0  0  0  0  0
   -8.5550   19.0720  -32.2550 S   0  0  0  0  0  0  0  0  0  0  0  0
   -9.5220   19.6800  -33.2330 O   0  0  0  0  0  0  0  0  0  0  0  0
   -9.2620   18.0050  -31.4700 O   0  0  0  0  0  0  0  0  0  0  0  0
   -7.1900   18.3510  -33.1010 C   0  0  0  0  0  0  0  0  0  0  0  0
   -6.4400   19.1120  -34.0090 C   0  0  0  0  0  0  0  0  0  0  0  0
   -5.3570   18.5400  -34.6810 C   0  0  0  0  0  0  0  0  0  0  0  0
   -5.0170   17.2020  -34.4490 C   0  0  0  0  0  0  0  0  0  0  0  0
   -5.7570   16.4410  -33.5400 C   0  0  0  0  0  0  0  0  0  0  0  0
   -6.8410   17.0130  -32.8660 C   0  0  0  0  0  0  0  0  0  0  0  0
   -2.3790   23.6010  -28.3830 C   0  0  0  0  0  0  0  0  0  0  0  0
   -1.5370   23.2480  -27.3150 C   0  0  0  0  0  0  0  0  0  0  0  0
   -0.5610   24.1380  -26.8580 C   0  0  0  0  0  0  0  0  0  0  0  0
   -0.4230   25.3930  -27.4550 C   0  0  0  0  0  0  0  0  0  0  0  0
   -1.2700   25.7650  -28.5030 C   0  0  0  0  0  0  0  0  0  0  0  0
   -2.2520   24.8810  -28.9630 C   0  0  0  0  0  0  0  0  0  0  0  0
   -3.1080   25.2930  -29.9790 O   0  0  0  0  0  0  0  0  0  0  0  0
   -0.6253   22.1462  -30.5100 H   0  0  0  0  0  0  0  0  0  0  0  0
    0.1059   21.8875  -32.8788 H   0  0  0  0  0  0  0  0  0  0  0  0
   -1.4097   20.8158  -34.5457 H   0  0  0  0  0  0  0  0  0  0  0  0
   -3.6336   19.9418  -33.8312 H   0  0  0  0  0  0  0  0  0  0  0  0
   -4.0144   22.5005  -31.9660 H   0  0  0  0  0  0  0  0  0  0  0  0
   -5.1753   24.6398  -32.5045 H   0  0  0  0  0  0  0  0  0  0  0  0
   -7.6670   24.7581  -32.4448 H   0  0  0  0  0  0  0  0  0  0  0  0
   -9.0008   22.7473  -31.8203 H   0  0  0  0  0  0  0  0  0  0  0  0
   -6.7054   20.1635  -34.1929 H   0  0  0  0  0  0  0  0  0  0  0  0
   -4.7715   19.1409  -35.3924 H   0  0  0  0  0  0  0  0  0  0  0  0
   -4.1677   16.7498  -34.9820 H   0  0  0  0  0  0  0  0  0  0  0  0
   -5.4867   15.3910  -33.3543 H   0  0  0  0  0  0  0  0  0  0  0  0
   -7.4210   16.4122  -32.1501 H   0  0  0  0  0  0  0  0  0  0  0  0
   -1.6467   22.2643  -26.8352 H   0  0  0  0  0  0  0  0  0  0  0  0
    0.0994   23.8496  -26.0269 H   0  0  0  0  0  0  0  0  0  0  0  0
    0.3520   26.0886  -27.1006 H   0  0  0  0  0  0  0  0  0  0  0  0
   -1.1640   26.7564  -28.9677 H   0  0  0  0  0  0  0  0  0  0  0  0
  1  2  2  0
  2  3  1  0
  3  4  1  0
  4  5  2  0
  5  6  1  0
  6  7  2  0
  7  8  1  0
  8  9  2  0
  9 10  1  0
 10 11  1  0
 11 12  2  0
 12 13  1  0
 13 14  2  0
 14 15  1  0
 15 16  2  0
 16 17  1  0
 17 18  1  0
 18 19  2  0
 18 20  2  0
 18 21  1  0
 21 22  2  0
 22 23  1  0
 23 24  2  0
 24 25  1  0
 25 26  2  0
  2 27  1  0
 27 28  2  0
 28 29  1  0
 29 30  2  0
 30 31  1  0
 31 32  2  0
 32 33  1  0
  9  4  1  0
 16 11  1  0
 26 21  1  0
 32 27  1  0
  5 34  1  0
  6 35  1  0
  7 36  1  0
  8 37  1  0
 12 38  1  0
 13 39  1  0
 14 40  1  0
 15 41  1  0
 22 42  1  0
 23 43  1  0
 24 44  1  0
 25 45  1  0
 26 46  1  0
 28 47  1  0
 29 48  1  0
 30 49  1  0
 31 50  1  0
M  CHG  3   3  -1  17  -1  33  -1
M  END
>  <UniqueID>  (50) 
48

>  <SMILES>  (50) 
O=C([N-]c1ccccc1Sc1ccccc1[N-]S(=O)(=O)c1ccccc1)c1ccccc1[O-]

>  <Energy>  (50) 
60.661985321545075

>  <Genealogy>  (50) 
O=C([N-]c1ccccc1Sc1ccccc1[N-]S(=O)(=O)c1ccccc1)c1ccccc1[O-] (protonated)
O=C([N-]c1ccccc1Sc1ccccc1[N-]S(=O)(=O)c1ccccc1)c1ccccc1[O-] (3D coordinates assigned)
O=C([N-]c1ccccc1Sc1ccccc1[N-]S(=O)(=O)c1ccccc1)c1ccccc1[O-] (optimized conformer: 60.661985321545075 kcal/mol)

>  <smiles>  (50) 
O=C(Nc1ccccc1Sc1ccccc1NS(=O)(=O)c1ccccc1)c1ccccc1O

>  <score_type>  (50) 
oracle

>  <origin>  (50) 
adgpu

>  <m_score__min__energy>  (50) 
-14.08

>  <m_primary>  (50) 
energy

$$$$
