0:0
     RDKit          3D

 35 37  0  0  0  0  0  0  0  0999 V2000
    0.4190   24.5460  -28.5780 O   0  0  0  0  0  0  0  0  0  0  0  0
   -0.6790   25.0280  -28.1920 C   0  0  0  0  0  0  0  0  0  0  0  0
   -1.7840   25.0490  -29.1060 N   0  0  0  0  0  0  0  0  0  0  0  0
   -2.7960   24.0000  -29.2530 C   0  0  2  0  0  0  0  0  0  0  0  0
   -2.3110   22.9340  -30.2070 C   0  0  0  0  0  0  0  0  0  0  0  0
   -1.0300   22.3670  -30.0700 C   0  0  0  0  0  0  0  0  0  0  0  0
   -0.5790   21.4080  -30.9820 C   0  0  0  0  0  0  0  0  0  0  0  0
   -1.3960   21.0140  -32.0440 C   0  0  0  0  0  0  0  0  0  0  0  0
   -2.6620   21.5820  -32.2000 C   0  0  0  0  0  0  0  0  0  0  0  0
   -3.1180   22.5420  -31.2900 C   0  0  0  0  0  0  0  0  0  0  0  0
   -4.0980   24.5710  -29.7450 C   0  0  0  0  0  0  0  0  0  0  0  0
   -5.3660   24.1630  -29.3770 C   0  0  0  0  0  0  0  0  0  0  0  0
   -6.2330   24.9660  -30.0850 C   0  0  0  0  0  0  0  0  0  0  0  0
   -5.4450   25.8150  -30.8340 C   0  0  0  0  0  0  0  0  0  0  0  0
   -4.1780   25.5570  -30.6090 O   0  0  0  0  0  0  0  0  0  0  0  0
   -0.7730   25.5990  -26.8360 C   0  0  0  0  0  0  0  0  0  0  0  0
   -0.8510   26.9870  -26.6450 C   0  0  0  0  0  0  0  0  0  0  0  0
   -0.9200   27.5170  -25.3530 C   0  0  0  0  0  0  0  0  0  0  0  0
   -0.9200   26.6650  -24.2450 C   0  0  0  0  0  0  0  0  0  0  0  0
   -0.9860   27.1790  -22.9930 F   0  0  0  0  0  0  0  0  0  0  0  0
   -0.8620   25.2790  -24.4300 C   0  0  0  0  0  0  0  0  0  0  0  0
   -0.7960   24.7460  -25.7200 C   0  0  0  0  0  0  0  0  0  0  0  0
   -2.9648   23.5504  -28.2634 H   0  0  0  0  0  0  0  0  0  0  0  0
   -0.3796   22.6804  -29.2401 H   0  0  0  0  0  0  0  0  0  0  0  0
    0.4201   20.9635  -30.8630 H   0  0  0  0  0  0  0  0  0  0  0  0
   -1.0419   20.2558  -32.7580 H   0  0  0  0  0  0  0  0  0  0  0  0
   -3.3021   21.2741  -33.0400 H   0  0  0  0  0  0  0  0  0  0  0  0
   -4.1128   22.9924  -31.4223 H   0  0  0  0  0  0  0  0  0  0  0  0
   -5.6281   23.3644  -28.6674 H   0  0  0  0  0  0  0  0  0  0  0  0
   -7.3323   24.9362  -30.0584 H   0  0  0  0  0  0  0  0  0  0  0  0
   -5.8216   26.5910  -31.5167 H   0  0  0  0  0  0  0  0  0  0  0  0
   -0.8579   27.6604  -27.5148 H   0  0  0  0  0  0  0  0  0  0  0  0
   -0.9744   28.6061  -25.2083 H   0  0  0  0  0  0  0  0  0  0  0  0
   -0.8684   24.6080  -23.5584 H   0  0  0  0  0  0  0  0  0  0  0  0
   -0.7620   23.6557  -25.8620 H   0  0  0  0  0  0  0  0  0  0  0  0
  1  2  2  0
  2  3  1  0
  3  4  1  0
  4  5  1  0
  5  6  2  0
  6  7  1  0
  7  8  2  0
  8  9  1  0
  9 10  2  0
  4 11  1  0
 11 12  2  0
 12 13  1  0
 13 14  2  0
 14 15  1  0
  2 16  1  0
 16 17  2  0
 17 18  1  0
 18 19  2  0
 19 20  1  0
 19 21  1  0
 21 22  2  0
 10  5  1  0
 15 11  1  0
 22 16  1  0
  4 23  1  1
  6 24  1  0
  7 25  1  0
  8 26  1  0
  9 27  1  0
 10 28  1  0
 12 29  1  0
 13 30  1  0
 14 31  1  0
 17 32  1  0
 18 33  1  0
 21 34  1  0
 22 35  1  0
M  CHG  1   3  -1
M  END
>  <UniqueID>  (1) 
1

>  <SMILES>  (1) 
O=C([N-][C@H](c1ccccc1)c1ccco1)c1ccc(F)cc1

>  <Energy>  (1) 
66.36215715560138

>  <Genealogy>  (1) 
O=C([N-]C(c1ccccc1)c1ccco1)c1ccc(F)cc1 (protonated)
O=C([N-][C@H](c1ccccc1)c1ccco1)c1ccc(F)cc1 (chirality)
O=C([N-][C@H](c1ccccc1)c1ccco1)c1ccc(F)cc1 (3D coordinates assigned)
O=C([N-][C@H](c1ccccc1)c1ccco1)c1ccc(F)cc1 (optimized conformer: 66.36215715560138 kcal/mol)

>  <smiles>  (1) 
O=C(NC(c1ccccc1)c1ccco1)c1ccc(F)cc1

>  <score_type>  (1) 
oracle

>  <origin>  (1) 
adgpu

>  <m_score__min__energy>  (1) 
-9.3000000000000007

>  <m_primary>  (1) 
energy

$$$$
1:0
     RDKit          3D

 60 63  0  0  0  0  0  0  0  0999 V2000
   -5.7710   17.3860  -34.5020 C   0  0  0  0  0  0  0  0  0  0  0  0
   -4.9800   18.5490  -33.9810 C   0  0  0  0  0  0  0  0  0  0  0  0
   -5.6250   19.7230  -33.5590 C   0  0  0  0  0  0  0  0  0  0  0  0
   -4.8760   20.8040  -33.0870 C   0  0  0  0  0  0  0  0  0  0  0  0
   -3.4810   20.7260  -33.0350 C   0  0  0  0  0  0  0  0  0  0  0  0
   -2.7740   21.8070  -32.6180 F   0  0  0  0  0  0  0  0  0  0  0  0
   -2.8230   19.5510  -33.4470 C   0  0  0  0  0  0  0  0  0  0  0  0
   -1.3900   19.4610  -33.4420 N   0  0  0  0  0  0  0  0  0  0  0  0
   -0.5590   19.9380  -32.3720 C   0  0  0  0  0  0  0  0  0  0  0  0
    0.9700   20.4190  -32.7240 S   0  0  0  0  0  0  0  0  0  0  0  0
   -1.0790   20.0260  -31.0290 N   0  0  0  0  0  0  0  0  0  0  0  0
   -0.2860   20.2340  -29.8500 C   0  0  0  0  0  0  0  0  0  0  0  0
    0.2550   19.1550  -29.1320 C   0  0  0  0  0  0  0  0  0  0  0  0
    0.9680   19.3830  -27.9520 C   0  0  0  0  0  0  0  0  0  0  0  0
    1.1120   20.6820  -27.4580 C   0  0  0  0  0  0  0  0  0  0  0  0
    0.5310   21.7620  -28.1310 C   0  0  0  0  0  0  0  0  0  0  0  0
    0.6560   23.0490  -27.5820 O   0  0  0  0  0  0  0  0  0  0  0  0
   -0.4110   23.8440  -27.1320 C   0  0  0  0  0  0  0  0  0  0  0  0
   -0.1910   24.7440  -26.0840 C   0  0  0  0  0  0  0  0  0  0  0  0
   -1.2320   25.5520  -25.6180 C   0  0  0  0  0  0  0  0  0  0  0  0
   -2.5000   25.4760  -26.2050 C   0  0  0  0  0  0  0  0  0  0  0  0
   -2.7360   24.5830  -27.2590 C   0  0  0  0  0  0  0  0  0  0  0  0
   -4.0290   24.5370  -27.8810 N   0  0  0  0  0  0  0  0  0  0  0  0
   -4.2450   24.0090  -29.1990 C   0  0  0  0  0  0  0  0  0  0  0  0
   -3.2640   23.7860  -29.9590 O   0  0  0  0  0  0  0  0  0  0  0  0
   -5.5820   23.7520  -29.6550 N   0  0  0  0  0  0  0  0  0  0  0  0
   -5.8870   23.3280  -30.9950 C   0  0  0  0  0  0  0  0  0  0  0  0
   -5.0440   23.5120  -31.9160 O   0  0  0  0  0  0  0  0  0  0  0  0
   -7.1870   22.6940  -31.3210 C   0  0  0  0  0  0  0  0  0  0  0  0
   -8.2670   23.4560  -31.8050 C   0  0  0  0  0  0  0  0  0  0  0  0
   -9.4960   22.8460  -32.0820 C   0  0  0  0  0  0  0  0  0  0  0  0
   -9.6610   21.4750  -31.8750 C   0  0  0  0  0  0  0  0  0  0  0  0
   -8.6000   20.7110  -31.3870 C   0  0  0  0  0  0  0  0  0  0  0  0
   -7.3690   21.3140  -31.1090 C   0  0  0  0  0  0  0  0  0  0  0  0
   -1.7010   23.7330  -27.6810 C   0  0  0  0  0  0  0  0  0  0  0  0
   -0.1410   21.5340  -29.3460 C   0  0  0  0  0  0  0  0  0  0  0  0
   -3.5790   18.4760  -33.9380 C   0  0  0  0  0  0  0  0  0  0  0  0
   -6.1670   16.8038  -33.6568 H   0  0  0  0  0  0  0  0  0  0  0  0
   -6.6057   17.7557  -35.1156 H   0  0  0  0  0  0  0  0  0  0  0  0
   -5.1204   16.7455  -35.1156 H   0  0  0  0  0  0  0  0  0  0  0  0
   -6.7221   19.7916  -33.6001 H   0  0  0  0  0  0  0  0  0  0  0  0
   -5.3860   21.7203  -32.7549 H   0  0  0  0  0  0  0  0  0  0  0  0
   -0.9280   18.9770  -34.2440 H   0  0  0  0  0  0  0  0  0  0  0  0
   -2.1100   19.9460  -30.8870 H   0  0  0  0  0  0  0  0  0  0  0  0
    0.1171   18.1274  -29.4996 H   0  0  0  0  0  0  0  0  0  0  0  0
    1.4172   18.5374  -27.4105 H   0  0  0  0  0  0  0  0  0  0  0  0
    1.6850   20.8563  -26.5354 H   0  0  0  0  0  0  0  0  0  0  0  0
    0.8058   24.8162  -25.6245 H   0  0  0  0  0  0  0  0  0  0  0  0
   -1.0538   26.2502  -24.7868 H   0  0  0  0  0  0  0  0  0  0  0  0
   -3.3137   26.1189  -25.8382 H   0  0  0  0  0  0  0  0  0  0  0  0
   -4.8290   25.0150  -27.4070 H   0  0  0  0  0  0  0  0  0  0  0  0
   -6.3630   23.8920  -28.9770 H   0  0  0  0  0  0  0  0  0  0  0  0
   -8.1445   24.5372  -31.9665 H   0  0  0  0  0  0  0  0  0  0  0  0
  -10.3338   23.4481  -32.4636 H   0  0  0  0  0  0  0  0  0  0  0  0
  -10.6268   20.9974  -32.0965 H   0  0  0  0  0  0  0  0  0  0  0  0
   -8.7322   19.6317  -31.2205 H   0  0  0  0  0  0  0  0  0  0  0  0
   -6.5377   20.7062  -30.7223 H   0  0  0  0  0  0  0  0  0  0  0  0
   -1.9014   22.9719  -28.4495 H   0  0  0  0  0  0  0  0  0  0  0  0
   -0.5568   22.3845  -29.9061 H   0  0  0  0  0  0  0  0  0  0  0  0
   -3.0693   17.5679  -34.2924 H   0  0  0  0  0  0  0  0  0  0  0  0
  1  2  1  0
  2  3  2  0
  3  4  1  0
  4  5  2  0
  5  6  1  0
  5  7  1  0
  7  8  1  0
  8  9  1  0
  9 10  2  0
  9 11  1  0
 11 12  1  0
 12 13  2  0
 13 14  1  0
 14 15  2  0
 15 16  1  0
 16 17  1  0
 17 18  1  0
 18 19  2  0
 19 20  1  0
 20 21  2  0
 21 22  1  0
 22 23  1  0
 23 24  1  0
 24 25  2  0
 24 26  1  0
 26 27  1  0
 27 28  2  0
 27 29  1  0
 29 30  2  0
 30 31  1  0
 31 32  2  0
 32 33  1  0
 33 34  2  0
 22 35  2  0
 16 36  2  0
  7 37  2  0
 37  2  1  0
 36 12  1  0
 35 18  1  0
 34 29  1  0
  1 38  1  0
  1 39  1  0
  1 40  1  0
  3 41  1  0
  4 42  1  0
  8 43  1  0
 11 44  1  0
 13 45  1  0
 14 46  1  0
 15 47  1  0
 19 48  1  0
 20 49  1  0
 21 50  1  0
 23 51  1  0
 26 52  1  0
 30 53  1  0
 31 54  1  0
 32 55  1  0
 33 56  1  0
 34 57  1  0
 35 58  1  0
 36 59  1  0
 37 60  1  0
M  END
>  <UniqueID>  (2) 
2

>  <SMILES>  (2) 
Cc1ccc(F)c(NC(=S)Nc2cccc(Oc3cccc(NC(=O)NC(=O)c4ccccc4)c3)c2)c1

>  <Energy>  (2) 
84.27924569785067

>  <Genealogy>  (2) 
Cc1ccc(F)c(NC(=S)Nc2cccc(Oc3cccc(NC(=O)NC(=O)c4ccccc4)c3)c2)c1 (3D coordinates assigned)
Cc1ccc(F)c(NC(=S)Nc2cccc(Oc3cccc(NC(=O)NC(=O)c4ccccc4)c3)c2)c1 (optimized conformer: 84.27924569785067 kcal/mol)

>  <smiles>  (2) 
Cc1ccc(F)c(NC(=S)Nc2cccc(Oc3cccc(NC(=O)NC(=O)c4ccccc4)c3)c2)c1

>  <score_type>  (2) 
oracle

>  <origin>  (2) 
adgpu

>  <m_score__min__energy>  (2) 
-11.119999999999999

>  <m_primary>  (2) 
energy

$$$$
2:0
     RDKit          3D

 60 62  0  0  0  0  0  0  0  0999 V2000
   -4.5950   13.3150  -31.1640 C   0  0  0  0  0  0  0  0  0  0  0  0
   -2.9920   13.4840  -32.0080 S   0  0  0  0  0  0  0  0  0  0  0  0
   -3.3710   15.1140  -32.7480 C   0  0  0  0  0  0  0  0  0  0  0  0
   -4.4090   14.9740  -33.8760 C   0  0  0  0  0  0  0  0  0  0  0  0
   -5.8090   15.4740  -33.4830 C   0  0  0  0  0  0  0  0  0  0  0  0
   -5.8120   16.8970  -33.1390 N   0  0  0  0  0  0  0  0  0  0  0  0
   -5.7820   17.9120  -34.1540 C   0  0  0  0  0  0  0  0  0  0  0  0
   -5.7370   17.5740  -35.3690 O   0  0  0  0  0  0  0  0  0  0  0  0
   -5.7060   19.3880  -33.8060 C   0  0  1  0  0  0  0  0  0  0  0  0
   -6.9830   19.9180  -33.2020 C   0  0  0  0  0  0  0  0  0  0  0  0
   -8.1100   19.1910  -32.8620 C   0  0  0  0  0  0  0  0  0  0  0  0
   -8.9890   20.1000  -32.3120 C   0  0  0  0  0  0  0  0  0  0  0  0
   -8.3460   21.3200  -32.3440 C   0  0  0  0  0  0  0  0  0  0  0  0
   -7.1530   21.1790  -32.8770 O   0  0  0  0  0  0  0  0  0  0  0  0
   -4.5600   19.7140  -32.9300 N   0  0  0  0  0  0  0  0  0  0  0  0
   -4.7210   19.8370  -31.4940 C   0  0  0  0  0  0  0  0  0  0  0  0
   -5.3780   18.9710  -30.8570 O   0  0  0  0  0  0  0  0  0  0  0  0
   -4.1360   20.9670  -30.7470 C   0  0  0  0  0  0  0  0  0  0  0  0
   -3.1510   20.8580  -29.4100 S   0  0  0  0  0  0  0  0  0  0  0  0
   -2.8260   22.4610  -29.1380 N   0  0  0  0  0  0  0  0  0  0  0  0
   -3.4940   23.1430  -30.1070 C   0  0  0  0  0  0  0  0  0  0  0  0
   -3.4630   24.6200  -30.1010 C   0  0  0  0  0  0  0  0  0  0  0  0
   -2.4680   25.2980  -29.3360 N   0  0  0  0  0  0  0  0  0  0  0  0
   -4.3180   25.2960  -30.7310 O   0  0  0  0  0  0  0  0  0  0  0  0
   -4.2210   22.3310  -31.0320 C   0  0  0  0  0  0  0  0  0  0  0  0
   -4.9710   22.8380  -32.1440 N   0  0  0  0  0  0  0  0  0  0  0  0
   -3.2510   19.8340  -33.5230 C   0  0  0  0  0  0  0  0  0  0  0  0
   -2.6000   21.0770  -33.5610 C   0  0  0  0  0  0  0  0  0  0  0  0
   -1.3190   21.1860  -34.1100 C   0  0  0  0  0  0  0  0  0  0  0  0
   -0.6630   20.0540  -34.6070 C   0  0  0  0  0  0  0  0  0  0  0  0
    0.6500   20.1980  -35.1650 N   0  0  0  0  0  0  0  0  0  0  0  0
    1.3960   21.4190  -35.2610 C   0  0  0  0  0  0  0  0  0  0  0  0
    2.8950   21.4370  -35.2390 C   0  0  0  0  0  0  0  0  0  0  0  0
    0.7740   22.5100  -35.3350 O   0  0  0  0  0  0  0  0  0  0  0  0
   -1.3250   18.8150  -34.5990 C   0  0  0  0  0  0  0  0  0  0  0  0
   -2.6060   18.7060  -34.0540 C   0  0  0  0  0  0  0  0  0  0  0  0
   -4.4396   13.3314  -30.0752 H   0  0  0  0  0  0  0  0  0  0  0  0
   -5.2514   14.1489  -31.4533 H   0  0  0  0  0  0  0  0  0  0  0  0
   -5.0631   12.3625  -31.4533 H   0  0  0  0  0  0  0  0  0  0  0  0
   -3.7722   15.7792  -31.9692 H   0  0  0  0  0  0  0  0  0  0  0  0
   -2.4458   15.5333  -33.1702 H   0  0  0  0  0  0  0  0  0  0  0  0
   -4.0620   15.5549  -34.7433 H   0  0  0  0  0  0  0  0  0  0  0  0
   -4.4991   13.9015  -34.1031 H   0  0  0  0  0  0  0  0  0  0  0  0
   -6.4931   15.3127  -34.3291 H   0  0  0  0  0  0  0  0  0  0  0  0
   -6.1313   14.9113  -32.5945 H   0  0  0  0  0  0  0  0  0  0  0  0
   -5.8160   17.1780  -32.1350 H   0  0  0  0  0  0  0  0  0  0  0  0
   -5.5525   19.8939  -34.7706 H   0  0  0  0  0  0  0  0  0  0  0  0
   -8.2713   18.1119  -33.0015 H   0  0  0  0  0  0  0  0  0  0  0  0
   -9.9983   19.8940  -31.9260 H   0  0  0  0  0  0  0  0  0  0  0  0
   -8.7681   22.2678  -31.9786 H   0  0  0  0  0  0  0  0  0  0  0  0
   -1.6140   25.6870  -29.7910 H   0  0  0  0  0  0  0  0  0  0  0  0
   -5.3130   22.2200  -32.9080 H   0  0  0  0  0  0  0  0  0  0  0  0
   -5.2490   23.8440  -32.1840 H   0  0  0  0  0  0  0  0  0  0  0  0
   -3.1002   21.9695  -33.1569 H   0  0  0  0  0  0  0  0  0  0  0  0
   -0.8237   22.1673  -34.1516 H   0  0  0  0  0  0  0  0  0  0  0  0
    3.2464   21.4412  -34.1966 H   0  0  0  0  0  0  0  0  0  0  0  0
    3.2800   20.5434  -35.7521 H   0  0  0  0  0  0  0  0  0  0  0  0
    3.2584   22.3396  -35.7521 H   0  0  0  0  0  0  0  0  0  0  0  0
   -0.8326   17.9277  -35.0235 H   0  0  0  0  0  0  0  0  0  0  0  0
   -3.1129   17.7299  -34.0407 H   0  0  0  0  0  0  0  0  0  0  0  0
  1  2  1  0
  2  3  1  0
  3  4  1  0
  4  5  1  0
  5  6  1  0
  6  7  1  0
  7  8  2  0
  7  9  1  0
  9 10  1  0
 10 11  2  0
 11 12  1  0
 12 13  2  0
 13 14  1  0
  9 15  1  0
 15 16  1  0
 16 17  2  0
 16 18  1  0
 18 19  1  0
 19 20  1  0
 20 21  2  0
 21 22  1  0
 22 23  1  0
 22 24  2  0
 21 25  1  0
 25 26  1  0
 15 27  1  0
 27 28  2  0
 28 29  1  0
 29 30  2  0
 30 31  1  0
 31 32  1  0
 32 33  1  0
 32 34  2  0
 30 35  1  0
 35 36  2  0
 14 10  1  0
 25 18  2  0
 36 27  1  0
  1 37  1  0
  1 38  1  0
  1 39  1  0
  3 40  1  0
  3 41  1  0
  4 42  1  0
  4 43  1  0
  5 44  1  0
  5 45  1  0
  6 46  1  0
  9 47  1  6
 11 48  1  0
 12 49  1  0
 13 50  1  0
 23 51  1  0
 26 52  1  0
 26 53  1  0
 28 54  1  0
 29 55  1  0
 33 56  1  0
 33 57  1  0
 33 58  1  0
 35 59  1  0
 36 60  1  0
M  CHG  2  23  -1  31  -1
M  END
>  <UniqueID>  (3) 
3

>  <SMILES>  (3) 
CSCCCNC(=O)[C@@H](c1ccco1)N(C(=O)c1snc(C([NH-])=O)c1N)c1ccc([N-]C(C)=O)cc1

>  <Energy>  (3) 
126.38268007402965

>  <Genealogy>  (3) 
CSCCCNC(=O)C(c1ccco1)N(C(=O)c1snc(C([NH-])=O)c1N)c1ccc([N-]C(C)=O)cc1 (protonated)
CSCCCNC(=O)[C@@H](c1ccco1)N(C(=O)c1snc(C([NH-])=O)c1N)c1ccc([N-]C(C)=O)cc1 (chirality)
CSCCCNC(=O)[C@@H](c1ccco1)N(C(=O)c1snc(C([NH-])=O)c1N)c1ccc([N-]C(C)=O)cc1 (3D coordinates assigned)
CSCCCNC(=O)[C@@H](c1ccco1)N(C(=O)c1snc(C([NH-])=O)c1N)c1ccc([N-]C(C)=O)cc1 (optimized conformer: 126.38268007402965 kcal/mol)

>  <smiles>  (3) 
CSCCCNC(=O)C(c1ccco1)N(C(=O)c1snc(C(N)=O)c1N)c1ccc(NC(C)=O)cc1

>  <score_type>  (3) 
oracle

>  <origin>  (3) 
adgpu

>  <m_score__min__energy>  (3) 
-10.800000000000001

>  <m_primary>  (3) 
energy

$$$$
3:0
     RDKit          3D

 54 57  0  0  0  0  0  0  0  0999 V2000
    0.2540   22.6760  -23.7460 C   0  0  0  0  0  0  0  0  0  0  0  0
   -0.4470   23.3360  -24.8900 C   0  0  0  0  0  0  0  0  0  0  0  0
   -0.9110   24.4980  -24.7460 O   0  0  0  0  0  0  0  0  0  0  0  0
   -0.5530   22.6540  -26.1500 N   0  0  0  0  0  0  0  0  0  0  0  0
   -1.3470   23.1230  -27.2520 C   0  0  0  0  0  0  0  0  0  0  0  0
   -2.6360   22.6030  -27.4430 C   0  0  0  0  0  0  0  0  0  0  0  0
   -3.4320   23.0520  -28.5000 C   0  0  0  0  0  0  0  0  0  0  0  0
   -2.9510   24.0360  -29.3800 C   0  0  0  0  0  0  0  0  0  0  0  0
   -3.7480   24.5320  -30.4650 N   0  0  0  0  0  0  0  0  0  0  0  0
   -4.7320   23.7880  -31.1970 C   0  0  0  0  0  0  0  0  0  0  0  0
   -5.8600   24.3130  -31.3940 O   0  0  0  0  0  0  0  0  0  0  0  0
   -4.4410   22.4540  -31.7730 C   0  0  0  0  0  0  0  0  0  0  0  0
   -3.8730   22.3300  -33.0540 C   0  0  0  0  0  0  0  0  0  0  0  0
   -3.6120   21.0680  -33.5940 C   0  0  0  0  0  0  0  0  0  0  0  0
   -3.9230   19.9110  -32.8670 C   0  0  0  0  0  0  0  0  0  0  0  0
   -3.6290   18.3120  -33.5490 S   0  0  0  0  0  0  0  0  0  0  0  0
   -3.4130   17.3490  -32.4140 O   0  0  0  0  0  0  0  0  0  0  0  0
   -2.3850   18.3360  -34.3920 O   0  0  0  0  0  0  0  0  0  0  0  0
   -5.0050   17.7850  -34.4960 N   0  0  0  0  0  0  0  0  0  0  0  0
   -5.6270   16.5520  -33.9800 C   0  0  0  0  0  0  0  0  0  0  0  0
   -6.2810   16.7500  -32.6060 C   0  0  0  0  0  0  0  0  0  0  0  0
   -7.0730   18.0270  -32.5280 C   0  0  0  0  0  0  0  0  0  0  0  0
   -7.9430   18.2270  -31.4460 C   0  0  0  0  0  0  0  0  0  0  0  0
   -8.6460   19.4270  -31.3170 C   0  0  0  0  0  0  0  0  0  0  0  0
   -8.4810   20.4400  -32.2640 C   0  0  0  0  0  0  0  0  0  0  0  0
   -7.6100   20.2560  -33.3400 C   0  0  0  0  0  0  0  0  0  0  0  0
   -6.8860   19.0600  -33.4710 C   0  0  0  0  0  0  0  0  0  0  0  0
   -5.9910   18.8670  -34.6740 C   0  0  0  0  0  0  0  0  0  0  0  0
   -4.5030   20.0280  -31.5980 C   0  0  0  0  0  0  0  0  0  0  0  0
   -4.7650   21.2890  -31.0560 C   0  0  0  0  0  0  0  0  0  0  0  0
   -1.6850   24.5900  -29.1620 C   0  0  0  0  0  0  0  0  0  0  0  0
   -0.8860   24.1390  -28.1080 C   0  0  0  0  0  0  0  0  0  0  0  0
   -0.1518   23.0581  -22.7977 H   0  0  0  0  0  0  0  0  0  0  0  0
    0.0991   21.5883  -23.7994 H   0  0  0  0  0  0  0  0  0  0  0  0
    1.3304   22.8961  -23.7994 H   0  0  0  0  0  0  0  0  0  0  0  0
    0.0550   21.8170  -26.3020 H   0  0  0  0  0  0  0  0  0  0  0  0
   -3.0228   21.8362  -26.7556 H   0  0  0  0  0  0  0  0  0  0  0  0
   -4.4391   22.6335  -28.6437 H   0  0  0  0  0  0  0  0  0  0  0  0
   -3.6327   23.2328  -33.6346 H   0  0  0  0  0  0  0  0  0  0  0  0
   -3.1607   20.9823  -34.5935 H   0  0  0  0  0  0  0  0  0  0  0  0
   -6.3974   16.2215  -34.6923 H   0  0  0  0  0  0  0  0  0  0  0  0
   -4.8314   15.8012  -33.8647 H   0  0  0  0  0  0  0  0  0  0  0  0
   -6.9553   15.9033  -32.4101 H   0  0  0  0  0  0  0  0  0  0  0  0
   -5.4778   16.8064  -31.8565 H   0  0  0  0  0  0  0  0  0  0  0  0
   -8.0724   17.4341  -30.6946 H   0  0  0  0  0  0  0  0  0  0  0  0
   -9.3304   19.5743  -30.4685 H   0  0  0  0  0  0  0  0  0  0  0  0
   -9.0374   21.3834  -32.1623 H   0  0  0  0  0  0  0  0  0  0  0  0
   -7.4904   21.0525  -34.0892 H   0  0  0  0  0  0  0  0  0  0  0  0
   -6.6206   18.6269  -35.5434 H   0  0  0  0  0  0  0  0  0  0  0  0
   -5.4289   19.8017  -34.8169 H   0  0  0  0  0  0  0  0  0  0  0  0
   -4.7536   19.1230  -31.0251 H   0  0  0  0  0  0  0  0  0  0  0  0
   -5.2279   21.3707  -30.0615 H   0  0  0  0  0  0  0  0  0  0  0  0
   -1.3159   25.3863  -29.8250 H   0  0  0  0  0  0  0  0  0  0  0  0
    0.1084   24.5809  -27.9471 H   0  0  0  0  0  0  0  0  0  0  0  0
  1  2  1  0
  2  3  2  0
  2  4  1  0
  4  5  1  0
  5  6  2  0
  6  7  1  0
  7  8  2  0
  8  9  1  0
  9 10  1  0
 10 11  2  0
 10 12  1  0
 12 13  2  0
 13 14  1  0
 14 15  2  0
 15 16  1  0
 16 17  2  0
 16 18  2  0
 16 19  1  0
 19 20  1  0
 20 21  1  0
 21 22  1  0
 22 23  2  0
 23 24  1  0
 24 25  2  0
 25 26  1  0
 26 27  2  0
 27 28  1  0
 15 29  1  0
 29 30  2  0
  8 31  1  0
 31 32  2  0
 32  5  1  0
 30 12  1  0
 28 19  1  0
 27 22  1  0
  1 33  1  0
  1 34  1  0
  1 35  1  0
  4 36  1  0
  6 37  1  0
  7 38  1  0
 13 39  1  0
 14 40  1  0
 20 41  1  0
 20 42  1  0
 21 43  1  0
 21 44  1  0
 23 45  1  0
 24 46  1  0
 25 47  1  0
 26 48  1  0
 28 49  1  0
 28 50  1  0
 29 51  1  0
 30 52  1  0
 31 53  1  0
 32 54  1  0
M  CHG  1   9  -1
M  END
>  <UniqueID>  (4) 
4

>  <SMILES>  (4) 
CC(=O)Nc1ccc([N-]C(=O)c2ccc(S(=O)(=O)N3CCc4ccccc4C3)cc2)cc1

>  <Energy>  (4) 
70.72126143491256

>  <Genealogy>  (4) 
CC(=O)Nc1ccc([N-]C(=O)c2ccc(S(=O)(=O)N3CCc4ccccc4C3)cc2)cc1 (protonated)
CC(=O)Nc1ccc([N-]C(=O)c2ccc(S(=O)(=O)N3CCc4ccccc4C3)cc2)cc1 (3D coordinates assigned)
CC(=O)Nc1ccc([N-]C(=O)c2ccc(S(=O)(=O)N3CCc4ccccc4C3)cc2)cc1 (nonaromatic ring conformer: 70.72126143491256 kcal/mol)

>  <smiles>  (4) 
CC(=O)Nc1ccc(NC(=O)c2ccc(S(=O)(=O)N3CCc4ccccc4C3)cc2)cc1

>  <score_type>  (4) 
oracle

>  <origin>  (4) 
adgpu

>  <m_score__min__energy>  (4) 
-11.91

>  <m_primary>  (4) 
energy

$$$$
4:0
     RDKit          3D

 53 56  0  0  0  0  0  0  0  0999 V2000
   -4.1690   13.3510  -33.9520 C   0  0  0  0  0  0  0  0  0  0  0  0
   -4.6820   14.7450  -34.1580 C   0  0  0  0  0  0  0  0  0  0  0  0
   -3.8250   15.7520  -34.6250 C   0  0  0  0  0  0  0  0  0  0  0  0
   -4.2930   17.0600  -34.7820 C   0  0  0  0  0  0  0  0  0  0  0  0
   -5.6270   17.3790  -34.4750 C   0  0  0  0  0  0  0  0  0  0  0  0
   -6.1220   18.7240  -34.6000 N   0  0  0  0  0  0  0  0  0  0  0  0
   -5.7170   19.8200  -33.7630 C   0  0  0  0  0  0  0  0  0  0  0  0
   -4.3530   20.0490  -33.5400 C   0  0  0  0  0  0  0  0  0  0  0  0
   -3.9360   21.0910  -32.7070 C   0  0  0  0  0  0  0  0  0  0  0  0
   -4.8750   21.9200  -32.0690 C   0  0  0  0  0  0  0  0  0  0  0  0
   -4.4280   22.9890  -31.2110 N   0  0  0  0  0  0  0  0  0  0  0  0
   -3.4040   22.9560  -30.3310 C   0  0  0  0  0  0  0  0  0  0  0  0
   -3.3250   24.1890  -29.7120 C   0  0  0  0  0  0  0  0  0  0  0  0
   -2.3690   24.6350  -28.6820 C   0  0  0  0  0  0  0  0  0  0  0  0
   -1.6180   25.6170  -28.9290 O   0  0  0  0  0  0  0  0  0  0  0  0
   -2.2890   23.9730  -27.4100 N   0  0  0  0  0  0  0  0  0  0  0  0
   -1.3000   24.3390  -26.3980 C   0  0  0  0  0  0  0  0  0  0  0  0
   -0.3730   23.1580  -26.1040 C   0  0  0  0  0  0  0  0  0  0  0  0
   -0.7770   21.9520  -26.9080 C   0  0  0  0  0  0  0  0  0  0  0  0
   -0.2890   21.7720  -28.2110 C   0  0  0  0  0  0  0  0  0  0  0  0
   -0.6500   20.6290  -28.9280 C   0  0  0  0  0  0  0  0  0  0  0  0
   -1.4590   19.6950  -28.3620 N   0  0  0  0  0  0  0  0  0  0  0  0
   -1.9360   19.8380  -27.0980 C   0  0  0  0  0  0  0  0  0  0  0  0
   -1.6010   20.9660  -26.3450 C   0  0  0  0  0  0  0  0  0  0  0  0
   -4.3450   24.9360  -30.2690 C   0  0  0  0  0  0  0  0  0  0  0  0
   -5.0020   24.1850  -31.1730 N   0  0  0  0  0  0  0  0  0  0  0  0
   -6.2450   21.6690  -32.2730 C   0  0  0  0  0  0  0  0  0  0  0  0
   -6.6610   20.6260  -33.1060 C   0  0  0  0  0  0  0  0  0  0  0  0
   -6.4690   16.3790  -33.9680 C   0  0  0  0  0  0  0  0  0  0  0  0
   -6.0020   15.0710  -33.8110 C   0  0  0  0  0  0  0  0  0  0  0  0
   -4.0928   13.1439  -32.8744 H   0  0  0  0  0  0  0  0  0  0  0  0
   -4.8618   12.6331  -34.4153 H   0  0  0  0  0  0  0  0  0  0  0  0
   -3.1761   13.2535  -34.4153 H   0  0  0  0  0  0  0  0  0  0  0  0
   -2.7797   15.5116  -34.8689 H   0  0  0  0  0  0  0  0  0  0  0  0
   -3.6135   17.8438  -35.1478 H   0  0  0  0  0  0  0  0  0  0  0  0
   -6.8230   18.9170  -35.3510 H   0  0  0  0  0  0  0  0  0  0  0  0
   -3.6048   19.4041  -34.0240 H   0  0  0  0  0  0  0  0  0  0  0  0
   -2.8613   21.2642  -32.5489 H   0  0  0  0  0  0  0  0  0  0  0  0
   -2.7459   22.0955  -30.1398 H   0  0  0  0  0  0  0  0  0  0  0  0
   -2.9890   23.2400  -27.1610 H   0  0  0  0  0  0  0  0  0  0  0  0
   -0.7020   25.1859  -26.7657 H   0  0  0  0  0  0  0  0  0  0  0  0
   -1.8244   24.6190  -25.4725 H   0  0  0  0  0  0  0  0  0  0  0  0
    0.6592   23.4358  -26.3635 H   0  0  0  0  0  0  0  0  0  0  0  0
   -0.4441   22.9102  -25.0346 H   0  0  0  0  0  0  0  0  0  0  0  0
    0.3726   22.5249  -28.6643 H   0  0  0  0  0  0  0  0  0  0  0  0
   -0.2786   20.4844  -29.9533 H   0  0  0  0  0  0  0  0  0  0  0  0
   -2.5875   19.0638  -26.6665 H   0  0  0  0  0  0  0  0  0  0  0  0
   -1.9803   21.0802  -25.3188 H   0  0  0  0  0  0  0  0  0  0  0  0
   -4.5828   25.9793  -30.0142 H   0  0  0  0  0  0  0  0  0  0  0  0
   -6.9950   22.2991  -31.7725 H   0  0  0  0  0  0  0  0  0  0  0  0
   -7.7350   20.4354  -33.2478 H   0  0  0  0  0  0  0  0  0  0  0  0
   -7.5048   16.6257  -33.6918 H   0  0  0  0  0  0  0  0  0  0  0  0
   -6.6719   14.2941  -33.4139 H   0  0  0  0  0  0  0  0  0  0  0  0
  1  2  1  0
  2  3  2  0
  3  4  1  0
  4  5  2  0
  5  6  1  0
  6  7  1  0
  7  8  2  0
  8  9  1  0
  9 10  2  0
 10 11  1  0
 11 12  1  0
 12 13  2  0
 13 14  1  0
 14 15  2  0
 14 16  1  0
 16 17  1  0
 17 18  1  0
 18 19  1  0
 19 20  2  0
 20 21  1  0
 21 22  2  0
 22 23  1  0
 23 24  2  0
 13 25  1  0
 25 26  2  0
 10 27  1  0
 27 28  2  0
  5 29  1  0
 29 30  2  0
 30  2  1  0
 28  7  1  0
 26 11  1  0
 24 19  1  0
  1 31  1  0
  1 32  1  0
  1 33  1  0
  3 34  1  0
  4 35  1  0
  6 36  1  0
  8 37  1  0
  9 38  1  0
 12 39  1  0
 16 40  1  0
 17 41  1  0
 17 42  1  0
 18 43  1  0
 18 44  1  0
 20 45  1  0
 21 46  1  0
 23 47  1  0
 24 48  1  0
 25 49  1  0
 27 50  1  0
 28 51  1  0
 29 52  1  0
 30 53  1  0
M  END
>  <UniqueID>  (5) 
5

>  <SMILES>  (5) 
Cc1ccc(Nc2ccc(-n3cc(C(=O)NCCc4ccncc4)cn3)cc2)cc1

>  <Energy>  (5) 
90.48028216519764

>  <Genealogy>  (5) 
Cc1ccc(Nc2ccc(-n3cc(C(=O)NCCc4ccncc4)cn3)cc2)cc1 (3D coordinates assigned)
Cc1ccc(Nc2ccc(-n3cc(C(=O)NCCc4ccncc4)cn3)cc2)cc1 (optimized conformer: 90.48028216519764 kcal/mol)

>  <smiles>  (5) 
Cc1ccc(Nc2ccc(-n3cc(C(=O)NCCc4ccncc4)cn3)cc2)cc1

>  <score_type>  (5) 
oracle

>  <origin>  (5) 
adgpu

>  <m_score__min__energy>  (5) 
-8.9600000000000009

>  <m_primary>  (5) 
energy

$$$$
5:0
     RDKit          3D

 33 35  0  0  0  0  0  0  0  0999 V2000
   -1.1538   25.8875  -26.2580 H   0  0  0  0  0  0  0  0  0  0  0  0
   -1.5800   25.5170  -27.2020 C   0  0  0  0  0  0  0  0  0  0  0  0
   -1.2350   25.9150  -28.4080 O   0  0  0  0  0  0  0  0  0  0  0  0
   -1.9160   25.2940  -29.3260 N   0  0  0  0  0  0  0  0  0  0  0  0
   -2.7370   24.4480  -28.6770 C   0  0  0  0  0  0  0  0  0  0  0  0
   -3.6070   23.6670  -29.2470 N   0  0  0  0  0  0  0  0  0  0  0  0
   -3.8220   23.5010  -30.6580 C   0  0  0  0  0  0  0  0  0  0  0  0
   -4.6500   24.2590  -31.2300 O   0  0  0  0  0  0  0  0  0  0  0  0
   -3.1750   22.4270  -31.4470 C   0  0  0  0  0  0  0  0  0  0  0  0
   -1.8310   22.1100  -31.1860 C   0  0  0  0  0  0  0  0  0  0  0  0
   -1.2531   22.7240  -30.4796 H   0  0  0  0  0  0  0  0  0  0  0  0
   -1.2230   21.0220  -31.8160 C   0  0  0  0  0  0  0  0  0  0  0  0
   -0.1653   20.7937  -31.6182 H   0  0  0  0  0  0  0  0  0  0  0  0
   -1.9550   20.2240  -32.6960 C   0  0  0  0  0  0  0  0  0  0  0  0
   -1.4781   19.3592  -33.1803 H   0  0  0  0  0  0  0  0  0  0  0  0
   -3.2930   20.5230  -32.9620 C   0  0  0  0  0  0  0  0  0  0  0  0
   -3.8689   19.8825  -33.6462 H   0  0  0  0  0  0  0  0  0  0  0  0
   -3.9090   21.6320  -32.3650 C   0  0  0  0  0  0  0  0  0  0  0  0
   -5.2700   21.9350  -32.7180 N   0  0  0  0  0  0  0  0  0  0  0  0
   -5.4810   22.8870  -33.0950 H   0  0  0  0  0  0  0  0  0  0  0  0
   -6.3530   21.0000  -32.5850 C   0  0  0  0  0  0  0  0  0  0  0  0
   -6.1530   19.6720  -32.9900 C   0  0  0  0  0  0  0  0  0  0  0  0
   -5.1905   19.3748  -33.4318 H   0  0  0  0  0  0  0  0  0  0  0  0
   -7.1690   18.7230  -32.8360 C   0  0  0  0  0  0  0  0  0  0  0  0
   -6.8950   17.0590  -33.3160 Cl  0  0  0  0  0  0  0  0  0  0  0  0
   -8.4000   19.1000  -32.2950 C   0  0  0  0  0  0  0  0  0  0  0  0
   -9.1938   18.3505  -32.1600 H   0  0  0  0  0  0  0  0  0  0  0  0
   -8.6240   20.4290  -31.9250 C   0  0  0  0  0  0  0  0  0  0  0  0
   -9.6000   20.7249  -31.5128 H   0  0  0  0  0  0  0  0  0  0  0  0
   -7.6130   21.3860  -32.0760 C   0  0  0  0  0  0  0  0  0  0  0  0
   -7.9980   23.0640  -31.7130 Cl  0  0  0  0  0  0  0  0  0  0  0  0
   -2.5640   24.5590  -27.3180 C   0  0  0  0  0  0  0  0  0  0  0  0
   -3.0850   24.0147  -26.5166 H   0  0  0  0  0  0  0  0  0  0  0  0
  1  2  1  0
  2  3  1  0
  3  4  1  0
  4  5  1  0
  5  6  2  0
  6  7  1  0
  7  8  2  0
  7  9  1  0
  9 10  2  0
 10 11  1  0
 10 12  1  0
 12 13  1  0
 12 14  2  0
 14 15  1  0
 14 16  1  0
 16 17  1  0
 16 18  2  0
 18 19  1  0
 19 20  1  0
 19 21  1  0
 21 22  2  0
 22 23  1  0
 22 24  1  0
 24 25  1  0
 24 26  2  0
 26 27  1  0
 26 28  1  0
 28 29  1  0
 28 30  2  0
 30 31  1  0
  5 32  1  0
 32 33  1  0
 32  2  2  0
 18  9  1  0
 30 21  1  0
M  CHG  1   4  -1
M  END
>  <UniqueID>  (6) 
6

>  <SMILES>  (6) 
O=C(/N=c1/cco[n-]1)c1ccccc1Nc1cc(Cl)ccc1Cl

>  <Energy>  (6) 
84.09393820890533

>  <Genealogy>  (6) 
O=C(N=c1cco[n-]1)c1ccccc1Nc1cc(Cl)ccc1Cl (protonated)
O=C(/N=c1/cco[n-]1)c1ccccc1Nc1cc(Cl)ccc1Cl (cis-trans isomerization)
O=C(/N=c1/cco[n-]1)c1ccccc1Nc1cc(Cl)ccc1Cl (3D coordinates assigned)
O=C(/N=c1/cco[n-]1)c1ccccc1Nc1cc(Cl)ccc1Cl (optimized conformer: 84.09393820890533 kcal/mol)

>  <smiles>  (6) 
O=C(N=c1cco[nH]1)c1ccccc1Nc1cc(Cl)ccc1Cl

>  <score_type>  (6) 
oracle

>  <origin>  (6) 
adgpu

>  <m_score__min__energy>  (6) 
-10.699999999999999

>  <m_primary>  (6) 
energy

$$$$
6:0
     RDKit          3D

 42 44  0  0  0  0  0  0  0  0999 V2000
   -2.2700   24.1770  -29.3320 C   0  0  0  0  0  0  0  0  0  0  0  0
   -3.1870   24.9140  -30.1340 O   0  0  0  0  0  0  0  0  0  0  0  0
   -4.5230   24.5470  -30.3510 C   0  0  0  0  0  0  0  0  0  0  0  0
   -5.5280   25.4110  -29.9030 C   0  0  0  0  0  0  0  0  0  0  0  0
   -6.8740   25.0880  -30.0860 C   0  0  0  0  0  0  0  0  0  0  0  0
   -7.2290   23.8990  -30.7260 C   0  0  0  0  0  0  0  0  0  0  0  0
   -6.2390   23.0190  -31.1990 C   0  0  0  0  0  0  0  0  0  0  0  0
   -6.6360   21.7560  -31.8730 C   0  0  0  0  0  0  0  0  0  0  0  0
   -5.7030   20.9580  -32.5540 C   0  0  0  0  0  0  0  0  0  0  0  0
   -6.1370   19.7730  -33.1750 C   0  0  0  0  0  0  0  0  0  0  0  0
   -5.2150   18.9050  -33.8780 N   0  0  0  0  0  0  0  0  0  0  0  0
   -5.7140   17.8720  -34.7990 C   0  0  0  0  0  0  0  0  0  0  0  0
   -5.0110   16.5170  -34.5620 C   0  0  0  0  0  0  0  0  0  0  0  0
   -3.6810   16.6440  -33.9150 N   0  0  0  0  0  0  0  0  0  0  0  0
   -2.8420   15.4740  -34.2270 C   0  0  0  0  0  0  0  0  0  0  0  0
   -2.9950   17.8880  -34.3130 C   0  0  0  0  0  0  0  0  0  0  0  0
   -3.7610   19.1030  -33.7710 C   0  0  0  0  0  0  0  0  0  0  0  0
   -7.4550   19.4440  -33.1030 N   0  0  0  0  0  0  0  0  0  0  0  0
   -8.3520   20.2280  -32.4530 C   0  0  0  0  0  0  0  0  0  0  0  0
   -7.9410   21.3710  -31.8490 N   0  0  0  0  0  0  0  0  0  0  0  0
   -4.8840   23.3480  -30.9960 C   0  0  0  0  0  0  0  0  0  0  0  0
   -2.4892   24.3532  -28.2686 H   0  0  0  0  0  0  0  0  0  0  0  0
   -2.3688   23.1042  -29.5539 H   0  0  0  0  0  0  0  0  0  0  0  0
   -1.2435   24.5043  -29.5539 H   0  0  0  0  0  0  0  0  0  0  0  0
   -5.2557   26.3521  -29.4027 H   0  0  0  0  0  0  0  0  0  0  0  0
   -7.6564   25.7718  -29.7252 H   0  0  0  0  0  0  0  0  0  0  0  0
   -8.2915   23.6485  -30.8614 H   0  0  0  0  0  0  0  0  0  0  0  0
   -4.6452   21.2560  -32.6013 H   0  0  0  0  0  0  0  0  0  0  0  0
   -6.7956   17.7460  -34.6430 H   0  0  0  0  0  0  0  0  0  0  0  0
   -5.5027   18.1957  -35.8289 H   0  0  0  0  0  0  0  0  0  0  0  0
   -5.6539   15.8994  -33.9176 H   0  0  0  0  0  0  0  0  0  0  0  0
   -4.8477   16.0607  -35.5495 H   0  0  0  0  0  0  0  0  0  0  0  0
   -3.8180   16.6580  -32.8740 H   0  0  0  0  0  0  0  0  0  0  0  0
   -2.5052   15.0043  -33.2911 H   0  0  0  0  0  0  0  0  0  0  0  0
   -3.4271   14.7486  -34.8114 H   0  0  0  0  0  0  0  0  0  0  0  0
   -1.9673   15.7954  -34.8114 H   0  0  0  0  0  0  0  0  0  0  0  0
   -1.9739   17.8884  -33.9040 H   0  0  0  0  0  0  0  0  0  0  0  0
   -2.9556   17.9448  -35.4108 H   0  0  0  0  0  0  0  0  0  0  0  0
   -3.4958   19.2522  -32.7139 H   0  0  0  0  0  0  0  0  0  0  0  0
   -3.4842   19.9845  -34.3679 H   0  0  0  0  0  0  0  0  0  0  0  0
   -9.4121   19.9367  -32.4159 H   0  0  0  0  0  0  0  0  0  0  0  0
   -4.0993   22.6607  -31.3452 H   0  0  0  0  0  0  0  0  0  0  0  0
  1  2  1  0
  2  3  1  0
  3  4  2  0
  4  5  1  0
  5  6  2  0
  6  7  1  0
  7  8  1  0
  8  9  2  0
  9 10  1  0
 10 11  1  0
 11 12  1  0
 12 13  1  0
 13 14  1  0
 14 15  1  0
 14 16  1  0
 16 17  1  0
 10 18  2  0
 18 19  1  0
 19 20  2  0
  7 21  2  0
 21  3  1  0
 20  8  1  0
 17 11  1  0
  1 22  1  0
  1 23  1  0
  1 24  1  0
  4 25  1  0
  5 26  1  0
  6 27  1  0
  9 28  1  0
 12 29  1  0
 12 30  1  0
 13 31  1  0
 13 32  1  0
 14 33  1  0
 15 34  1  0
 15 35  1  0
 15 36  1  0
 16 37  1  0
 16 38  1  0
 17 39  1  0
 17 40  1  0
 19 41  1  0
 21 42  1  0
M  CHG  1  14   1
M  END
>  <UniqueID>  (7) 
7

>  <SMILES>  (7) 
COc1cccc(-c2cc(N3CC[NH+](C)CC3)ncn2)c1

>  <Energy>  (7) 
55.575569174881444

>  <Genealogy>  (7) 
COc1cccc(-c2cc(N3CC[NH+](C)CC3)ncn2)c1 (protonated)
COc1cccc(-c2cc(N3CC[NH+](C)CC3)ncn2)c1 (3D coordinates assigned)
COc1cccc(-c2cc(N3CC[NH+](C)CC3)ncn2)c1 (nonaromatic ring conformer: 55.575569174881444 kcal/mol)

>  <smiles>  (7) 
COc1cccc(-c2cc(N3CCN(C)CC3)ncn2)c1

>  <score_type>  (7) 
oracle

>  <origin>  (7) 
adgpu

>  <m_score__min__energy>  (7) 
-7.0700000000000003

>  <m_primary>  (7) 
energy

$$$$
7:0
     RDKit          3D

 31 32  0  0  0  0  0  0  0  0999 V2000
   -8.9790   21.4180  -31.7940 C   0  0  0  0  0  0  0  0  0  0  0  0
   -7.5430   21.8440  -31.8630 C   0  0  0  0  0  0  0  0  0  0  0  0
   -6.6020   21.0510  -32.5370 C   0  0  0  0  0  0  0  0  0  0  0  0
   -5.2570   21.4310  -32.5690 C   0  0  0  0  0  0  0  0  0  0  0  0
   -4.8420   22.5970  -31.9230 C   0  0  0  0  0  0  0  0  0  0  0  0
   -5.7700   23.3900  -31.2360 C   0  0  0  0  0  0  0  0  0  0  0  0
   -5.2520   24.8660  -30.4260 S   0  0  0  0  0  0  0  0  0  0  0  0
   -5.7720   26.0480  -31.1940 O   0  0  0  0  0  0  0  0  0  0  0  0
   -5.7910   24.9150  -29.0240 O   0  0  0  0  0  0  0  0  0  0  0  0
   -3.5210   24.9400  -30.3700 N   0  0  0  0  0  0  0  0  0  0  0  0
   -2.6900   24.2400  -29.4320 C   0  0  0  0  0  0  0  0  0  0  0  0
   -2.9880   22.9330  -29.0030 C   0  0  0  0  0  0  0  0  0  0  0  0
   -2.1470   22.2650  -28.0940 C   0  0  0  0  0  0  0  0  0  0  0  0
   -2.4540   20.9250  -27.6670 N   0  0  0  0  0  0  0  0  0  0  0  0
   -3.1130   20.1590  -28.3990 O   0  0  0  0  0  0  0  0  0  0  0  0
   -2.0290   20.4670  -26.4400 O   0  0  0  0  0  0  0  0  0  0  0  0
   -1.0030   22.9260  -27.6130 C   0  0  0  0  0  0  0  0  0  0  0  0
   -0.7080   24.2240  -28.0320 C   0  0  0  0  0  0  0  0  0  0  0  0
   -1.5450   24.8800  -28.9370 C   0  0  0  0  0  0  0  0  0  0  0  0
   -1.2350   26.1730  -29.3450 O   0  0  0  0  0  0  0  0  0  0  0  0
   -7.1170   23.0040  -31.1970 C   0  0  0  0  0  0  0  0  0  0  0  0
   -9.2844   21.3274  -30.7411 H   0  0  0  0  0  0  0  0  0  0  0  0
   -9.6085   22.1681  -32.2951 H   0  0  0  0  0  0  0  0  0  0  0  0
   -9.0976   20.4460  -32.2951 H   0  0  0  0  0  0  0  0  0  0  0  0
   -6.9234   20.1279  -33.0415 H   0  0  0  0  0  0  0  0  0  0  0  0
   -4.5239   20.8098  -33.1045 H   0  0  0  0  0  0  0  0  0  0  0  0
   -3.7832   22.8938  -31.9536 H   0  0  0  0  0  0  0  0  0  0  0  0
   -3.8885   22.4281  -29.3826 H   0  0  0  0  0  0  0  0  0  0  0  0
   -0.3362   22.4166  -26.9018 H   0  0  0  0  0  0  0  0  0  0  0  0
    0.1882   24.7329  -27.6475 H   0  0  0  0  0  0  0  0  0  0  0  0
   -7.8446   23.6137  -30.6412 H   0  0  0  0  0  0  0  0  0  0  0  0
  1  2  1  0
  2  3  2  0
  3  4  1  0
  4  5  2  0
  5  6  1  0
  6  7  1  0
  7  8  2  0
  7  9  2  0
  7 10  1  0
 10 11  1  0
 11 12  2  0
 12 13  1  0
 13 14  1  0
 14 15  2  0
 14 16  1  0
 13 17  2  0
 17 18  1  0
 18 19  2  0
 19 20  1  0
  6 21  2  0
 21  2  1  0
 19 11  1  0
  1 22  1  0
  1 23  1  0
  1 24  1  0
  3 25  1  0
  4 26  1  0
  5 27  1  0
 12 28  1  0
 17 29  1  0
 18 30  1  0
 21 31  1  0
M  CHG  4  10  -1  14   1  16  -1  20  -1
M  END
>  <UniqueID>  (8) 
8

>  <SMILES>  (8) 
Cc1cccc(S(=O)(=O)[N-]c2cc([N+](=O)[O-])ccc2[O-])c1

>  <Energy>  (8) 
35.14729686045719

>  <Genealogy>  (8) 
Cc1cccc(S(=O)(=O)[N-]c2cc([N+](=O)[O-])ccc2[O-])c1 (protonated)
Cc1cccc(S(=O)(=O)[N-]c2cc([N+](=O)[O-])ccc2[O-])c1 (3D coordinates assigned)
Cc1cccc(S(=O)(=O)[N-]c2cc([N+](=O)[O-])ccc2[O-])c1 (optimized conformer: 35.14729686045719 kcal/mol)

>  <smiles>  (8) 
Cc1cccc(S(=O)(=O)Nc2cc([N+](=O)[O-])ccc2O)c1

>  <score_type>  (8) 
oracle

>  <origin>  (8) 
adgpu

>  <m_score__min__energy>  (8) 
-12.220000000000001

>  <m_primary>  (8) 
energy

$$$$
8:0
     RDKit          3D

 36 37  0  0  0  0  0  0  0  0999 V2000
   -5.1040   22.6191  -28.2243 H   0  0  0  0  0  0  0  0  0  0  0  0
   -4.3140   23.3230  -28.5250 C   0  0  0  0  0  0  0  0  0  0  0  0
   -2.8760   23.6080  -27.7020 S   0  0  0  0  0  0  0  0  0  0  0  0
   -2.3270   24.7420  -28.8240 C   0  0  0  0  0  0  0  0  0  0  0  0
   -1.2190   25.4230  -28.7730 N   0  0  0  0  0  0  0  0  0  0  0  0
   -0.1430   25.3410  -27.8220 C   0  0  0  0  0  0  0  0  0  0  0  0
    0.9240   24.7710  -28.1720 O   0  0  0  0  0  0  0  0  0  0  0  0
   -0.2470   25.8610  -26.4200 C   0  0  0  0  0  0  0  0  0  0  0  0
   -0.0822   25.0370  -25.7101 H   0  0  0  0  0  0  0  0  0  0  0  0
    0.5131   26.6399  -26.2605 H   0  0  0  0  0  0  0  0  0  0  0  0
   -1.2483   26.2877  -26.2605 H   0  0  0  0  0  0  0  0  0  0  0  0
   -3.2260   24.9230  -29.8140 N   0  0  0  0  0  0  0  0  0  0  0  0
   -4.3270   24.1380  -29.6570 C   0  0  0  0  0  0  0  0  0  0  0  0
   -5.4370   24.1620  -30.6230 C   0  0  0  0  0  0  0  0  0  0  0  0
   -5.3720   24.9410  -31.6110 O   0  0  0  0  0  0  0  0  0  0  0  0
   -6.5970   23.3470  -30.3920 N   0  0  0  0  0  0  0  0  0  0  0  0
   -7.1190   22.4410  -31.1680 C   0  0  0  0  0  0  0  0  0  0  0  0
   -8.5270   21.6080  -30.7820 S   0  0  0  0  0  0  0  0  0  0  0  0
   -8.4250   20.7180  -32.2120 C   0  0  0  0  0  0  0  0  0  0  0  0
   -9.3660   19.6260  -32.6100 C   0  0  0  0  0  0  0  0  0  0  0  0
   -9.3483   19.5184  -33.7046 H   0  0  0  0  0  0  0  0  0  0  0  0
  -10.3752   19.8922  -32.2625 H   0  0  0  0  0  0  0  0  0  0  0  0
   -8.9690   18.2910  -31.9700 C   0  0  0  0  0  0  0  0  0  0  0  0
   -9.1367   17.4806  -32.6946 H   0  0  0  0  0  0  0  0  0  0  0  0
   -9.5834   18.1368  -31.0707 H   0  0  0  0  0  0  0  0  0  0  0  0
   -7.6040   18.2970  -31.5890 O   0  0  0  0  0  0  0  0  0  0  0  0
   -6.8410   17.4080  -32.3840 C   0  0  0  0  0  0  0  0  0  0  0  0
   -7.4868   16.5899  -32.7355 H   0  0  0  0  0  0  0  0  0  0  0  0
   -6.0168   17.0032  -31.7783 H   0  0  0  0  0  0  0  0  0  0  0  0
   -6.2590   18.1420  -33.5870 C   0  0  0  0  0  0  0  0  0  0  0  0
   -5.6106   18.9597  -33.2391 H   0  0  0  0  0  0  0  0  0  0  0  0
   -5.6695   17.4399  -34.1949 H   0  0  0  0  0  0  0  0  0  0  0  0
   -7.0770   18.5560  -34.1949 H   0  0  0  0  0  0  0  0  0  0  0  0
   -7.3240   21.0520  -32.9220 N   0  0  0  0  0  0  0  0  0  0  0  0
   -6.6020   22.0120  -32.3470 N   0  0  0  0  0  0  0  0  0  0  0  0
   -5.7140   22.3400  -32.7800 H   0  0  0  0  0  0  0  0  0  0  0  0
  1  2  1  0
  2  3  1  0
  3  4  1  0
  4  5  2  3
  5  6  1  0
  6  7  2  0
  6  8  1  0
  8  9  1  0
  8 10  1  0
  8 11  1  0
  4 12  1  0
 12 13  1  0
 13 14  1  0
 14 15  2  0
 14 16  1  0
 16 17  2  0
 17 18  1  0
 18 19  1  0
 19 20  1  0
 20 21  1  0
 20 22  1  0
 20 23  1  0
 23 24  1  0
 23 25  1  0
 23 26  1  0
 26 27  1  0
 27 28  1  0
 27 29  1  0
 27 30  1  0
 30 31  1  0
 30 32  1  0
 30 33  1  0
 19 34  2  0
 34 35  1  0
 35 36  1  0
 13  2  2  0
 35 17  1  0
M  CHG  1  12  -1
M  END
>  <UniqueID>  (9) 
9

>  <SMILES>  (9) 
CCOCCc1n[nH]/c(=N\C(=O)c2csc(=NC(C)=O)[n-]2)s1

>  <Energy>  (9) 
105.54077812088128

>  <Genealogy>  (9) 
CCOCCc1n[nH]c(=NC(=O)c2csc(=NC(C)=O)[n-]2)s1 (protonated)
CCOCCc1n[nH]/c(=N\C(=O)c2csc(=NC(C)=O)[n-]2)s1 (cis-trans isomerization)
CCOCCc1n[nH]/c(=N\C(=O)c2csc(=NC(C)=O)[n-]2)s1 (3D coordinates assigned)
CCOCCc1n[nH]/c(=N\C(=O)c2csc(=NC(C)=O)[n-]2)s1 (optimized conformer: 105.54077812088128 kcal/mol)

>  <smiles>  (9) 
CCOCCc1n[nH]c(=NC(=O)c2csc(=NC(C)=O)[nH]2)s1

>  <score_type>  (9) 
oracle

>  <origin>  (9) 
adgpu

>  <m_score__min__energy>  (9) 
-9.4900000000000002

>  <m_primary>  (9) 
energy

$$$$
9:0
     RDKit          3D

 40 42  0  0  0  0  0  0  0  0999 V2000
   -8.6480   18.5640  -32.3400 C   0  0  0  0  0  0  0  0  0  0  0  0
   -8.4170   20.0400  -32.1990 C   0  0  0  0  0  0  0  0  0  0  0  0
   -9.4870   20.8950  -31.9030 C   0  0  0  0  0  0  0  0  0  0  0  0
   -9.2810   22.2730  -31.8130 C   0  0  0  0  0  0  0  0  0  0  0  0
   -8.0070   22.8060  -32.0250 C   0  0  0  0  0  0  0  0  0  0  0  0
   -6.9250   21.9680  -32.3330 C   0  0  0  0  0  0  0  0  0  0  0  0
   -5.6250   22.5510  -32.5470 N   0  0  0  0  0  0  0  0  0  0  0  0
   -4.3770   22.0280  -31.9850 C   0  0  0  0  0  0  0  0  0  0  0  0
   -4.0780   22.6760  -30.6540 C   0  0  0  0  0  0  0  0  0  0  0  0
   -3.4330   21.9490  -29.6440 C   0  0  0  0  0  0  0  0  0  0  0  0
   -3.1630   22.5450  -28.4130 C   0  0  0  0  0  0  0  0  0  0  0  0
   -3.5410   23.8750  -28.1930 C   0  0  0  0  0  0  0  0  0  0  0  0
   -3.2170   24.5430  -26.8850 C   0  0  0  0  0  0  0  0  0  0  0  0
   -1.9610   25.2770  -27.0020 N   0  0  0  0  0  0  0  0  0  0  0  0
   -1.5250   26.2640  -26.2040 C   0  0  0  0  0  0  0  0  0  0  0  0
   -0.3380   26.7310  -26.7210 C   0  0  0  0  0  0  0  0  0  0  0  0
   -0.0360   26.0520  -27.8480 N   0  0  0  0  0  0  0  0  0  0  0  0
   -1.0520   25.1750  -27.9910 C   0  0  0  0  0  0  0  0  0  0  0  0
   -4.1410   24.5820  -29.1930 N   0  0  0  0  0  0  0  0  0  0  0  0
   -4.4170   24.0200  -30.4040 C   0  0  0  0  0  0  0  0  0  0  0  0
   -4.9740   24.7130  -31.2970 O   0  0  0  0  0  0  0  0  0  0  0  0
   -7.1430   20.5800  -32.4340 C   0  0  0  0  0  0  0  0  0  0  0  0
   -8.7195   18.1071  -31.3419 H   0  0  0  0  0  0  0  0  0  0  0  0
   -9.5843   18.3904  -32.8907 H   0  0  0  0  0  0  0  0  0  0  0  0
   -7.8096   18.1126  -32.8907 H   0  0  0  0  0  0  0  0  0  0  0  0
  -10.4924   20.4792  -31.7410 H   0  0  0  0  0  0  0  0  0  0  0  0
  -10.1228   22.9399  -31.5749 H   0  0  0  0  0  0  0  0  0  0  0  0
   -7.8511   23.8923  -31.9497 H   0  0  0  0  0  0  0  0  0  0  0  0
   -5.5630   23.4420  -33.0920 H   0  0  0  0  0  0  0  0  0  0  0  0
   -4.4719   20.9412  -31.8443 H   0  0  0  0  0  0  0  0  0  0  0  0
   -3.5547   22.2525  -32.6803 H   0  0  0  0  0  0  0  0  0  0  0  0
   -3.1388   20.9044  -29.8233 H   0  0  0  0  0  0  0  0  0  0  0  0
   -2.6567   21.9745  -27.6204 H   0  0  0  0  0  0  0  0  0  0  0  0
   -4.0249   25.2415  -26.6218 H   0  0  0  0  0  0  0  0  0  0  0  0
   -3.1185   23.7776  -26.1011 H   0  0  0  0  0  0  0  0  0  0  0  0
   -2.0270   26.6340  -25.2979 H   0  0  0  0  0  0  0  0  0  0  0  0
    0.2716   27.5349  -26.2827 H   0  0  0  0  0  0  0  0  0  0  0  0
   -1.1291   24.4578  -28.8215 H   0  0  0  0  0  0  0  0  0  0  0  0
   -4.3970   25.5830  -29.0310 H   0  0  0  0  0  0  0  0  0  0  0  0
   -6.3084   19.9143  -32.6991 H   0  0  0  0  0  0  0  0  0  0  0  0
  1  2  1  0
  2  3  2  0
  3  4  1  0
  4  5  2  0
  5  6  1  0
  6  7  1  0
  7  8  1  0
  8  9  1  0
  9 10  2  0
 10 11  1  0
 11 12  2  0
 12 13  1  0
 13 14  1  0
 14 15  1  0
 15 16  2  0
 16 17  1  0
 17 18  2  0
 12 19  1  0
 19 20  1  0
 20 21  2  0
  6 22  2  0
 22  2  1  0
 20  9  1  0
 18 14  1  0
  1 23  1  0
  1 24  1  0
  1 25  1  0
  3 26  1  0
  4 27  1  0
  5 28  1  0
  7 29  1  0
  8 30  1  0
  8 31  1  0
 10 32  1  0
 11 33  1  0
 13 34  1  0
 13 35  1  0
 15 36  1  0
 16 37  1  0
 18 38  1  0
 19 39  1  0
 22 40  1  0
M  END
>  <UniqueID>  (10) 
10

>  <SMILES>  (10) 
Cc1cccc(NCc2ccc(Cn3ccnc3)[nH]c2=O)c1

>  <Energy>  (10) 
69.01001321661379

>  <Genealogy>  (10) 
Cc1cccc(NCc2ccc(Cn3ccnc3)[nH]c2=O)c1 (3D coordinates assigned)
Cc1cccc(NCc2ccc(Cn3ccnc3)[nH]c2=O)c1 (optimized conformer: 69.01001321661379 kcal/mol)

>  <smiles>  (10) 
Cc1cccc(NCc2ccc(Cn3ccnc3)[nH]c2=O)c1

>  <score_type>  (10) 
oracle

>  <origin>  (10) 
adgpu

>  <m_score__min__energy>  (10) 
-8.2300000000000004

>  <m_primary>  (10) 
energy

$$$$
10:0
     RDKit          3D

 30 32  0  0  0  0  0  0  0  0999 V2000
   -3.8620   25.6710  -30.5330 O   0  0  0  0  0  0  0  0  0  0  0  0
   -4.1840   24.3240  -30.6430 C   0  0  0  0  0  0  0  0  0  0  0  0
   -5.3070   23.8230  -31.2640 C   0  0  0  0  0  0  0  0  0  0  0  0
   -5.3100   22.4760  -31.1640 N   0  0  0  0  0  0  0  0  0  0  0  0
   -6.3180   21.5920  -31.6910 C   0  0  0  0  0  0  0  0  0  0  0  0
   -5.9620   20.5550  -32.5720 C   0  0  0  0  0  0  0  0  0  0  0  0
   -6.9380   19.6920  -33.0810 C   0  0  0  0  0  0  0  0  0  0  0  0
   -8.2750   19.8510  -32.7110 C   0  0  0  0  0  0  0  0  0  0  0  0
   -8.6390   20.8720  -31.8300 C   0  0  0  0  0  0  0  0  0  0  0  0
   -7.6680   21.7380  -31.3190 C   0  0  0  0  0  0  0  0  0  0  0  0
   -4.1980   22.1350  -30.4720 C   0  0  0  0  0  0  0  0  0  0  0  0
   -3.8530   20.8260  -30.1510 O   0  0  0  0  0  0  0  0  0  0  0  0
   -3.4640   23.2600  -30.1310 C   0  0  0  0  0  0  0  0  0  0  0  0
   -2.1930   23.3160  -29.3720 C   0  0  0  0  0  0  0  0  0  0  0  0
   -1.3460   22.1940  -29.3210 C   0  0  0  0  0  0  0  0  0  0  0  0
   -0.1460   22.2460  -28.6040 C   0  0  0  0  0  0  0  0  0  0  0  0
    0.2210   23.4150  -27.9350 C   0  0  0  0  0  0  0  0  0  0  0  0
   -0.6110   24.5370  -27.9790 C   0  0  0  0  0  0  0  0  0  0  0  0
   -0.1460   26.0080  -27.1450 Cl  0  0  0  0  0  0  0  0  0  0  0  0
   -1.8140   24.4890  -28.6950 C   0  0  0  0  0  0  0  0  0  0  0  0
   -6.0802   24.4256  -31.7631 H   0  0  0  0  0  0  0  0  0  0  0  0
   -4.9094   20.4218  -32.8625 H   0  0  0  0  0  0  0  0  0  0  0  0
   -6.6519   18.8869  -33.7738 H   0  0  0  0  0  0  0  0  0  0  0  0
   -9.0415   19.1723  -33.1133 H   0  0  0  0  0  0  0  0  0  0  0  0
   -9.6923   20.9948  -31.5376 H   0  0  0  0  0  0  0  0  0  0  0  0
   -7.9602   22.5378  -30.6226 H   0  0  0  0  0  0  0  0  0  0  0  0
   -1.6289   21.2707  -29.8478 H   0  0  0  0  0  0  0  0  0  0  0  0
    0.5099   21.3637  -28.5672 H   0  0  0  0  0  0  0  0  0  0  0  0
    1.1657   23.4530  -27.3728 H   0  0  0  0  0  0  0  0  0  0  0  0
   -2.4662   25.3742  -28.7279 H   0  0  0  0  0  0  0  0  0  0  0  0
  1  2  1  0
  2  3  2  0
  3  4  1  0
  4  5  1  0
  5  6  2  0
  6  7  1  0
  7  8  2  0
  8  9  1  0
  9 10  2  0
  4 11  1  0
 11 12  1  0
 11 13  2  0
 13 14  1  0
 14 15  2  0
 15 16  1  0
 16 17  2  0
 17 18  1  0
 18 19  1  0
 18 20  2  0
 13  2  1  0
 20 14  1  0
 10  5  1  0
  3 21  1  0
  6 22  1  0
  7 23  1  0
  8 24  1  0
  9 25  1  0
 10 26  1  0
 15 27  1  0
 16 28  1  0
 17 29  1  0
 20 30  1  0
M  CHG  2   1  -1  12  -1
M  END
>  <UniqueID>  (11) 
11

>  <SMILES>  (11) 
[O-]c1cn(-c2ccccc2)c([O-])c1-c1cccc(Cl)c1

>  <Energy>  (11) 
71.07277059342844

>  <Genealogy>  (11) 
[O-]c1cn(-c2ccccc2)c([O-])c1-c1cccc(Cl)c1 (protonated)
[O-]c1cn(-c2ccccc2)c([O-])c1-c1cccc(Cl)c1 (3D coordinates assigned)
[O-]c1cn(-c2ccccc2)c([O-])c1-c1cccc(Cl)c1 (optimized conformer: 71.07277059342844 kcal/mol)

>  <smiles>  (11) 
Oc1cn(-c2ccccc2)c(O)c1-c1cccc(Cl)c1

>  <score_type>  (11) 
oracle

>  <origin>  (11) 
adgpu

>  <m_score__min__energy>  (11) 
-10.1

>  <m_primary>  (11) 
energy

$$$$
11:0
     RDKit          3D

 35 36  0  0  0  0  0  0  0  0999 V2000
   -8.6840   18.5520  -31.7670 C   0  0  0  0  0  0  0  0  0  0  0  0
   -8.2700   19.5760  -32.6670 O   0  0  0  0  0  0  0  0  0  0  0  0
   -7.7500   20.8190  -32.2700 C   0  0  0  0  0  0  0  0  0  0  0  0
   -8.5360   21.7850  -31.6160 C   0  0  0  0  0  0  0  0  0  0  0  0
   -7.9810   23.0110  -31.2340 C   0  0  0  0  0  0  0  0  0  0  0  0
   -6.6260   23.2840  -31.4870 C   0  0  0  0  0  0  0  0  0  0  0  0
   -6.0230   24.5380  -31.1320 N   0  0  0  0  0  0  0  0  0  0  0  0
   -4.8450   24.7220  -30.3380 C   0  0  0  0  0  0  0  0  0  0  0  0
   -3.8670   25.3760  -30.7900 O   0  0  0  0  0  0  0  0  0  0  0  0
   -4.8270   24.2280  -28.9930 N   0  0  0  0  0  0  0  0  0  0  0  0
   -3.6550   24.2380  -28.1580 C   0  0  0  0  0  0  0  0  0  0  0  0
   -3.6740   24.8940  -26.9130 C   0  0  0  0  0  0  0  0  0  0  0  0
   -2.5300   24.9250  -26.1120 C   0  0  0  0  0  0  0  0  0  0  0  0
   -1.3530   24.3130  -26.5470 C   0  0  0  0  0  0  0  0  0  0  0  0
   -1.3170   23.6710  -27.7860 C   0  0  0  0  0  0  0  0  0  0  0  0
   -2.4600   23.6310  -28.5970 C   0  0  0  0  0  0  0  0  0  0  0  0
   -2.3680   22.7740  -30.1760 S   0  0  0  0  0  0  0  0  0  0  0  0
   -3.3920   21.3780  -29.6160 C   0  0  0  0  0  0  0  0  0  0  0  0
   -5.8510   22.3330  -32.1590 C   0  0  0  0  0  0  0  0  0  0  0  0
   -6.4030   21.1050  -32.5420 C   0  0  0  0  0  0  0  0  0  0  0  0
   -5.3910   19.9300  -33.3680 Cl  0  0  0  0  0  0  0  0  0  0  0  0
   -8.5450   18.8958  -30.7314 H   0  0  0  0  0  0  0  0  0  0  0  0
   -9.7460   18.3214  -31.9374 H   0  0  0  0  0  0  0  0  0  0  0  0
   -8.0807   17.6482  -31.9374 H   0  0  0  0  0  0  0  0  0  0  0  0
   -9.5946   21.5749  -31.4034 H   0  0  0  0  0  0  0  0  0  0  0  0
   -8.6076   23.7641  -30.7337 H   0  0  0  0  0  0  0  0  0  0  0  0
   -5.7320   23.8970  -28.5890 H   0  0  0  0  0  0  0  0  0  0  0  0
   -4.5958   25.3855  -26.5684 H   0  0  0  0  0  0  0  0  0  0  0  0
   -2.5566   25.4326  -25.1365 H   0  0  0  0  0  0  0  0  0  0  0  0
   -0.4541   24.3367  -25.9135 H   0  0  0  0  0  0  0  0  0  0  0  0
   -0.3867   23.1938  -28.1280 H   0  0  0  0  0  0  0  0  0  0  0  0
   -3.4096   21.3541  -28.5164 H   0  0  0  0  0  0  0  0  0  0  0  0
   -4.4169   21.4992  -29.9965 H   0  0  0  0  0  0  0  0  0  0  0  0
   -2.9685   20.4368  -29.9965 H   0  0  0  0  0  0  0  0  0  0  0  0
   -4.7978   22.5522  -32.3887 H   0  0  0  0  0  0  0  0  0  0  0  0
  1  2  1  0
  2  3  1  0
  3  4  2  0
  4  5  1  0
  5  6  2  0
  6  7  1  0
  7  8  1  0
  8  9  2  0
  8 10  1  0
 10 11  1  0
 11 12  2  0
 12 13  1  0
 13 14  2  0
 14 15  1  0
 15 16  2  0
 16 17  1  0
 17 18  1  0
  6 19  1  0
 19 20  2  0
 20 21  1  0
 20  3  1  0
 16 11  1  0
  1 22  1  0
  1 23  1  0
  1 24  1  0
  4 25  1  0
  5 26  1  0
 10 27  1  0
 12 28  1  0
 13 29  1  0
 14 30  1  0
 15 31  1  0
 18 32  1  0
 18 33  1  0
 18 34  1  0
 19 35  1  0
M  CHG  1   7  -1
M  END
>  <UniqueID>  (12) 
12

>  <SMILES>  (12) 
COc1ccc([N-]C(=O)Nc2ccccc2SC)cc1Cl

>  <Energy>  (12) 
38.32493710270492

>  <Genealogy>  (12) 
COc1ccc([N-]C(=O)Nc2ccccc2SC)cc1Cl (protonated)
COc1ccc([N-]C(=O)Nc2ccccc2SC)cc1Cl (3D coordinates assigned)
COc1ccc([N-]C(=O)Nc2ccccc2SC)cc1Cl (optimized conformer: 38.32493710270492 kcal/mol)

>  <smiles>  (12) 
COc1ccc(NC(=O)Nc2ccccc2SC)cc1Cl

>  <score_type>  (12) 
oracle

>  <origin>  (12) 
adgpu

>  <m_score__min__energy>  (12) 
-8.6199999999999992

>  <m_primary>  (12) 
energy

$$$$
12:0
     RDKit          3D

 33 34  0  0  0  0  0  0  0  0999 V2000
   -1.2620   26.0450  -29.0150 N   0  0  0  0  0  0  0  0  0  0  0  0
   -1.8050   24.4790  -28.5210 S   0  0  0  0  0  0  0  0  0  0  0  0
   -0.6940   23.4860  -28.7020 O   0  0  0  0  0  0  0  0  0  0  0  0
   -2.1900   24.5390  -27.0700 O   0  0  0  0  0  0  0  0  0  0  0  0
   -3.1920   23.9890  -29.4870 C   0  0  0  0  0  0  0  0  0  0  0  0
   -3.0340   23.0680  -30.5310 C   0  0  0  0  0  0  0  0  0  0  0  0
   -4.1340   22.6850  -31.3050 C   0  0  0  0  0  0  0  0  0  0  0  0
   -5.4040   23.2320  -31.0540 C   0  0  0  0  0  0  0  0  0  0  0  0
   -6.5560   22.8340  -31.8180 N   0  0  0  0  0  0  0  0  0  0  0  0
   -7.8160   22.4660  -31.2290 C   0  0  0  0  0  0  0  0  0  0  0  0
   -7.8990   22.2590  -29.9880 O   0  0  0  0  0  0  0  0  0  0  0  0
   -8.9920   22.3020  -32.0310 N   0  0  0  0  0  0  0  0  0  0  0  0
   -9.6430   21.0300  -32.3270 C   0  0  0  0  0  0  0  0  0  0  0  0
   -8.6240   19.9340  -32.5010 C   0  0  0  0  0  0  0  0  0  0  0  0
   -7.4910   20.1340  -33.3040 C   0  0  0  0  0  0  0  0  0  0  0  0
   -6.5430   19.1170  -33.4410 C   0  0  0  0  0  0  0  0  0  0  0  0
   -6.7300   17.9110  -32.7630 C   0  0  0  0  0  0  0  0  0  0  0  0
   -7.8240   17.7370  -31.9750 N   0  0  0  0  0  0  0  0  0  0  0  0
   -8.7620   18.7110  -31.8260 C   0  0  0  0  0  0  0  0  0  0  0  0
   -5.5600   24.1380  -29.9940 C   0  0  0  0  0  0  0  0  0  0  0  0
   -4.4600   24.5230  -29.2230 C   0  0  0  0  0  0  0  0  0  0  0  0
   -1.2420   26.0460  -30.0600 H   0  0  0  0  0  0  0  0  0  0  0  0
   -2.0410   22.6446  -30.7426 H   0  0  0  0  0  0  0  0  0  0  0  0
   -4.0045   21.9517  -32.1146 H   0  0  0  0  0  0  0  0  0  0  0  0
   -6.4290   22.7180  -32.8450 H   0  0  0  0  0  0  0  0  0  0  0  0
  -10.3161   20.7679  -31.4974 H   0  0  0  0  0  0  0  0  0  0  0  0
  -10.2110   21.1346  -33.2632 H   0  0  0  0  0  0  0  0  0  0  0  0
   -7.3491   21.0919  -33.8259 H   0  0  0  0  0  0  0  0  0  0  0  0
   -5.6578   19.2650  -34.0770 H   0  0  0  0  0  0  0  0  0  0  0  0
   -5.9922   17.1017  -32.8664 H   0  0  0  0  0  0  0  0  0  0  0  0
   -9.6315   18.5396  -31.1744 H   0  0  0  0  0  0  0  0  0  0  0  0
   -6.5554   24.5482  -29.7683 H   0  0  0  0  0  0  0  0  0  0  0  0
   -4.5902   25.2479  -28.4059 H   0  0  0  0  0  0  0  0  0  0  0  0
  1  2  1  0
  2  3  2  0
  2  4  2  0
  2  5  1  0
  5  6  2  0
  6  7  1  0
  7  8  2  0
  8  9  1  0
  9 10  1  0
 10 11  2  0
 10 12  1  0
 12 13  1  0
 13 14  1  0
 14 15  2  0
 15 16  1  0
 16 17  2  0
 17 18  1  0
 18 19  2  0
  8 20  1  0
 20 21  2  0
 21  5  1  0
 19 14  1  0
  1 22  1  0
  6 23  1  0
  7 24  1  0
  9 25  1  0
 13 26  1  0
 13 27  1  0
 15 28  1  0
 16 29  1  0
 17 30  1  0
 19 31  1  0
 20 32  1  0
 21 33  1  0
M  CHG  2   1  -1  12  -1
M  END
>  <UniqueID>  (13) 
13

>  <SMILES>  (13) 
[NH-]S(=O)(=O)c1ccc(NC(=O)[N-]Cc2cccnc2)cc1

>  <Energy>  (13) 
35.87624155989975

>  <Genealogy>  (13) 
[NH-]S(=O)(=O)c1ccc(NC(=O)[N-]Cc2cccnc2)cc1 (protonated)
[NH-]S(=O)(=O)c1ccc(NC(=O)[N-]Cc2cccnc2)cc1 (3D coordinates assigned)
[NH-]S(=O)(=O)c1ccc(NC(=O)[N-]Cc2cccnc2)cc1 (optimized conformer: 35.87624155989975 kcal/mol)

>  <smiles>  (13) 
NS(=O)(=O)c1ccc(NC(=O)NCc2cccnc2)cc1

>  <score_type>  (13) 
oracle

>  <origin>  (13) 
adgpu

>  <m_score__min__energy>  (13) 
-9.7200000000000006

>  <m_primary>  (13) 
energy

$$$$
13:0
     RDKit          3D

 43 45  0  0  0  0  0  0  0  0999 V2000
   -3.5070   24.1800  -27.2610 C   0  0  0  0  0  0  0  0  0  0  0  0
   -2.3400   24.7160  -28.0800 C   0  0  0  0  0  0  0  0  0  0  0  0
   -2.7820   25.1650  -29.3610 O   0  0  0  0  0  0  0  0  0  0  0  0
   -3.8270   24.5980  -30.1090 C   0  0  0  0  0  0  0  0  0  0  0  0
   -5.0310   25.3030  -30.1990 C   0  0  0  0  0  0  0  0  0  0  0  0
   -6.1050   24.7880  -30.9320 C   0  0  0  0  0  0  0  0  0  0  0  0
   -5.9900   23.5590  -31.5980 C   0  0  0  0  0  0  0  0  0  0  0  0
   -7.1130   23.0630  -32.3490 N   0  0  0  0  0  0  0  0  0  0  0  0
   -8.2300   21.8760  -31.7520 S   0  0  0  0  0  0  0  0  0  0  0  0
   -9.5930   22.1480  -32.3200 O   0  0  0  0  0  0  0  0  0  0  0  0
   -8.2980   21.9750  -30.2530 O   0  0  0  0  0  0  0  0  0  0  0  0
   -7.7200   20.2650  -32.2490 C   0  0  0  0  0  0  0  0  0  0  0  0
   -8.3570   19.1380  -31.7180 C   0  0  0  0  0  0  0  0  0  0  0  0
   -7.9720   17.8550  -32.1170 C   0  0  0  0  0  0  0  0  0  0  0  0
   -6.9370   17.6830  -33.0550 C   0  0  0  0  0  0  0  0  0  0  0  0
   -6.5140   16.3360  -33.4980 C   0  0  0  0  0  0  0  0  0  0  0  0
   -5.3240   15.6890  -33.2110 C   0  0  0  0  0  0  0  0  0  0  0  0
   -5.4520   14.4780  -33.8560 C   0  0  0  0  0  0  0  0  0  0  0  0
   -4.4110   13.4110  -33.9300 C   0  0  0  0  0  0  0  0  0  0  0  0
   -6.6330   14.4240  -34.4990 N   0  0  0  0  0  0  0  0  0  0  0  0
   -7.2430   15.5480  -34.2570 O   0  0  0  0  0  0  0  0  0  0  0  0
   -6.2990   18.8190  -33.5800 C   0  0  0  0  0  0  0  0  0  0  0  0
   -6.6870   20.1010  -33.1790 C   0  0  0  0  0  0  0  0  0  0  0  0
   -4.7810   22.8460  -31.5050 C   0  0  0  0  0  0  0  0  0  0  0  0
   -3.7080   23.3610  -30.7730 C   0  0  0  0  0  0  0  0  0  0  0  0
   -3.2812   24.2837  -26.1894 H   0  0  0  0  0  0  0  0  0  0  0  0
   -4.4162   24.7508  -27.5010 H   0  0  0  0  0  0  0  0  0  0  0  0
   -3.6664   23.1184  -27.5010 H   0  0  0  0  0  0  0  0  0  0  0  0
   -1.8790   25.5577  -27.5424 H   0  0  0  0  0  0  0  0  0  0  0  0
   -1.6094   23.9063  -28.2236 H   0  0  0  0  0  0  0  0  0  0  0  0
   -5.1345   26.2718  -29.6885 H   0  0  0  0  0  0  0  0  0  0  0  0
   -7.0480   25.3517  -30.9867 H   0  0  0  0  0  0  0  0  0  0  0  0
   -7.2330   23.3650  -33.3420 H   0  0  0  0  0  0  0  0  0  0  0  0
   -9.1653   19.2625  -30.9824 H   0  0  0  0  0  0  0  0  0  0  0  0
   -8.4805   16.9753  -31.6957 H   0  0  0  0  0  0  0  0  0  0  0  0
   -4.4777   16.0547  -32.6109 H   0  0  0  0  0  0  0  0  0  0  0  0
   -4.1194   13.1121  -32.9124 H   0  0  0  0  0  0  0  0  0  0  0  0
   -4.8161   12.5401  -34.4661 H   0  0  0  0  0  0  0  0  0  0  0  0
   -3.5303   13.7945  -34.4661 H   0  0  0  0  0  0  0  0  0  0  0  0
   -5.4874   18.6990  -34.3127 H   0  0  0  0  0  0  0  0  0  0  0  0
   -6.1789   20.9832  -33.5956 H   0  0  0  0  0  0  0  0  0  0  0  0
   -4.6795   21.8754  -32.0125 H   0  0  0  0  0  0  0  0  0  0  0  0
   -2.7651   22.7975  -30.7148 H   0  0  0  0  0  0  0  0  0  0  0  0
  1  2  1  0
  2  3  1  0
  3  4  1  0
  4  5  2  0
  5  6  1  0
  6  7  2  0
  7  8  1  0
  8  9  1  0
  9 10  2  0
  9 11  2  0
  9 12  1  0
 12 13  2  0
 13 14  1  0
 14 15  2  0
 15 16  1  0
 16 17  2  0
 17 18  1  0
 18 19  1  0
 18 20  2  0
 20 21  1  0
 15 22  1  0
 22 23  2  0
  7 24  1  0
 24 25  2  0
 25  4  1  0
 23 12  1  0
 21 16  1  0
  1 26  1  0
  1 27  1  0
  1 28  1  0
  2 29  1  0
  2 30  1  0
  5 31  1  0
  6 32  1  0
  8 33  1  0
 13 34  1  0
 14 35  1  0
 17 36  1  0
 19 37  1  0
 19 38  1  0
 19 39  1  0
 22 40  1  0
 23 41  1  0
 24 42  1  0
 25 43  1  0
M  END
>  <UniqueID>  (14) 
14

>  <SMILES>  (14) 
CCOc1ccc(NS(=O)(=O)c2ccc(-c3cc(C)no3)cc2)cc1

>  <Energy>  (14) 
75.45590564736352

>  <Genealogy>  (14) 
CCOc1ccc(NS(=O)(=O)c2ccc(-c3cc(C)no3)cc2)cc1 (3D coordinates assigned)
CCOc1ccc(NS(=O)(=O)c2ccc(-c3cc(C)no3)cc2)cc1 (optimized conformer: 75.45590564736352 kcal/mol)

>  <smiles>  (14) 
CCOc1ccc(NS(=O)(=O)c2ccc(-c3cc(C)no3)cc2)cc1

>  <score_type>  (14) 
oracle

>  <origin>  (14) 
adgpu

>  <m_score__min__energy>  (14) 
-9.5999999999999996

>  <m_primary>  (14) 
energy

$$$$
14:0
     RDKit          3D

 45 48  0  0  0  0  0  0  0  0999 V2000
   -2.7145   20.5782  -31.0307 H   0  0  0  0  0  0  0  0  0  0  0  0
   -3.3080   20.1120  -31.8310 C   0  0  0  0  0  0  0  0  0  0  0  0
   -4.6410   19.7580  -31.5960 C   0  0  0  0  0  0  0  0  0  0  0  0
   -5.0920   19.9457  -30.6104 H   0  0  0  0  0  0  0  0  0  0  0  0
   -5.4070   19.1630  -32.6150 C   0  0  0  0  0  0  0  0  0  0  0  0
   -6.7720   18.7740  -32.3720 N   0  0  0  0  0  0  0  0  0  0  0  0
   -7.2140   17.4080  -32.6510 C   0  0  0  0  0  0  0  0  0  0  0  0
   -7.3857   16.8773  -31.7029 H   0  0  0  0  0  0  0  0  0  0  0  0
   -8.1489   17.4362  -33.2300 H   0  0  0  0  0  0  0  0  0  0  0  0
   -6.4398   16.8832  -33.2300 H   0  0  0  0  0  0  0  0  0  0  0  0
   -7.9720   20.0040  -32.1070 S   0  0  0  0  0  0  0  0  0  0  0  0
   -8.9310   19.5620  -31.0360 O   0  0  0  0  0  0  0  0  0  0  0  0
   -8.7520   20.2460  -33.3700 O   0  0  0  0  0  0  0  0  0  0  0  0
   -7.1750   21.5010  -31.6350 C   0  0  0  0  0  0  0  0  0  0  0  0
   -6.2970   22.1450  -32.5140 C   0  0  0  0  0  0  0  0  0  0  0  0
   -6.0760   21.6956  -33.4934 H   0  0  0  0  0  0  0  0  0  0  0  0
   -5.6990   23.3570  -32.1540 C   0  0  0  0  0  0  0  0  0  0  0  0
   -5.0113   23.8556  -32.8529 H   0  0  0  0  0  0  0  0  0  0  0  0
   -5.9710   23.9430  -30.9040 C   0  0  0  0  0  0  0  0  0  0  0  0
   -5.3500   25.2330  -30.5220 C   0  0  0  0  0  0  0  0  0  0  0  0
   -6.0740   26.2570  -30.3850 O   0  0  0  0  0  0  0  0  0  0  0  0
   -3.9310   25.3040  -30.2970 N   0  0  0  0  0  0  0  0  0  0  0  0
   -3.2100   24.5440  -29.5230 C   0  0  0  0  0  0  0  0  0  0  0  0
   -1.8710   24.7180  -29.4060 N   0  0  0  0  0  0  0  0  0  0  0  0
   -1.3400   23.8320  -28.5250 C   0  0  0  0  0  0  0  0  0  0  0  0
    0.0170   23.7590  -28.2020 C   0  0  0  0  0  0  0  0  0  0  0  0
    0.7414   24.4481  -28.6608 H   0  0  0  0  0  0  0  0  0  0  0  0
    0.4380   22.7850  -27.2770 C   0  0  0  0  0  0  0  0  0  0  0  0
    1.5026   22.7093  -27.0107 H   0  0  0  0  0  0  0  0  0  0  0  0
   -0.4930   21.9070  -26.6900 C   0  0  0  0  0  0  0  0  0  0  0  0
   -0.1519   21.1526  -25.9658 H   0  0  0  0  0  0  0  0  0  0  0  0
   -1.8550   21.9890  -27.0240 C   0  0  0  0  0  0  0  0  0  0  0  0
   -2.5902   21.3048  -26.5753 H   0  0  0  0  0  0  0  0  0  0  0  0
   -2.2470   22.9620  -27.9400 C   0  0  0  0  0  0  0  0  0  0  0  0
   -3.7840   23.2840  -28.5320 S   0  0  0  0  0  0  0  0  0  0  0  0
   -6.8580   23.2910  -30.0270 C   0  0  0  0  0  0  0  0  0  0  0  0
   -7.0792   23.7347  -29.0451 H   0  0  0  0  0  0  0  0  0  0  0  0
   -7.4600   22.0840  -30.3940 C   0  0  0  0  0  0  0  0  0  0  0  0
   -8.1607   21.5899  -29.7049 H   0  0  0  0  0  0  0  0  0  0  0  0
   -4.8170   18.9320  -33.8700 C   0  0  0  0  0  0  0  0  0  0  0  0
   -5.4081   18.4716  -34.6754 H   0  0  0  0  0  0  0  0  0  0  0  0
   -3.4830   19.2840  -34.1010 C   0  0  0  0  0  0  0  0  0  0  0  0
   -3.0276   19.0964  -35.0846 H   0  0  0  0  0  0  0  0  0  0  0  0
   -2.7280   19.8740  -33.0830 C   0  0  0  0  0  0  0  0  0  0  0  0
   -1.0520   20.3050  -33.3670 Cl  0  0  0  0  0  0  0  0  0  0  0  0
  1  2  1  0
  2  3  2  0
  3  4  1  0
  3  5  1  0
  5  6  1  0
  6  7  1  0
  7  8  1  0
  7  9  1  0
  7 10  1  0
  6 11  1  0
 11 12  2  0
 11 13  2  0
 11 14  1  0
 14 15  2  0
 15 16  1  0
 15 17  1  0
 17 18  1  0
 17 19  2  0
 19 20  1  0
 20 21  2  0
 20 22  1  0
 22 23  2  0
 23 24  1  0
 24 25  1  0
 25 26  2  0
 26 27  1  0
 26 28  1  0
 28 29  1  0
 28 30  2  0
 30 31  1  0
 30 32  1  0
 32 33  1  0
 32 34  2  0
 34 35  1  0
 19 36  1  0
 36 37  1  0
 36 38  2  0
 38 39  1  0
  5 40  2  0
 40 41  1  0
 40 42  1  0
 42 43  1  0
 42 44  2  0
 44 45  1  0
 44  2  1  0
 38 14  1  0
 35 23  1  0
 34 25  1  0
M  CHG  1  24  -1
M  END
>  <UniqueID>  (15) 
15

>  <SMILES>  (15) 
CN(c1ccc(Cl)cc1)S(=O)(=O)c1ccc(C(=O)/N=c2/[n-]c3ccccc3s2)cc1

>  <Energy>  (15) 
93.44471629346043

>  <Genealogy>  (15) 
CN(c1ccc(Cl)cc1)S(=O)(=O)c1ccc(C(=O)N=c2[n-]c3ccccc3s2)cc1 (protonated)
CN(c1ccc(Cl)cc1)S(=O)(=O)c1ccc(C(=O)/N=c2/[n-]c3ccccc3s2)cc1 (cis-trans isomerization)
CN(c1ccc(Cl)cc1)S(=O)(=O)c1ccc(C(=O)/N=c2/[n-]c3ccccc3s2)cc1 (3D coordinates assigned)
CN(c1ccc(Cl)cc1)S(=O)(=O)c1ccc(C(=O)/N=c2/[n-]c3ccccc3s2)cc1 (optimized conformer: 93.44471629346043 kcal/mol)

>  <smiles>  (15) 
CN(c1ccc(Cl)cc1)S(=O)(=O)c1ccc(C(=O)N=c2[nH]c3ccccc3s2)cc1

>  <score_type>  (15) 
oracle

>  <origin>  (15) 
adgpu

>  <m_score__min__energy>  (15) 
-11.49

>  <m_primary>  (15) 
energy

$$$$
15:0
     RDKit          3D

 53 56  0  0  0  0  0  0  0  0999 V2000
   -0.8920   26.4410  -23.9270 C   0  0  0  0  0  0  0  0  0  0  0  0
   -1.2450   26.0940  -25.3440 C   0  0  0  0  0  0  0  0  0  0  0  0
   -0.5020   26.6270  -26.4070 C   0  0  0  0  0  0  0  0  0  0  0  0
   -0.8540   26.3350  -27.7300 C   0  0  0  0  0  0  0  0  0  0  0  0
   -1.9500   25.5100  -28.0060 C   0  0  0  0  0  0  0  0  0  0  0  0
   -2.2800   25.2510  -29.3440 O   0  0  0  0  0  0  0  0  0  0  0  0
   -3.3800   24.4910  -29.7610 C   0  0  0  0  0  0  0  0  0  0  0  0
   -4.6030   25.1060  -30.0730 C   0  0  0  0  0  0  0  0  0  0  0  0
   -5.6790   24.3450  -30.5300 C   0  0  0  0  0  0  0  0  0  0  0  0
   -5.5590   22.9540  -30.6810 C   0  0  0  0  0  0  0  0  0  0  0  0
   -6.7050   22.1630  -31.1960 C   0  0  0  0  0  0  0  0  0  0  0  0
   -8.0100   22.6740  -31.2160 C   0  0  0  0  0  0  0  0  0  0  0  0
   -9.0450   21.8810  -31.7020 C   0  0  0  0  0  0  0  0  0  0  0  0
   -8.7670   20.5930  -32.1530 C   0  0  0  0  0  0  0  0  0  0  0  0
   -9.7050   19.8720  -32.5960 O   0  0  0  0  0  0  0  0  0  0  0  0
   -7.4840   20.1220  -32.1070 N   0  0  0  0  0  0  0  0  0  0  0  0
   -7.1640   18.7710  -32.5670 C   0  0  0  0  0  0  0  0  0  0  0  0
   -6.4960   20.8920  -31.6390 N   0  0  0  0  0  0  0  0  0  0  0  0
   -4.3450   22.3370  -30.3250 C   0  0  0  0  0  0  0  0  0  0  0  0
   -3.2580   23.0980  -29.8670 C   0  0  0  0  0  0  0  0  0  0  0  0
   -2.0030   22.4650  -29.5800 N   0  0  0  0  0  0  0  0  0  0  0  0
   -1.8130   21.4780  -28.1680 S   0  0  0  0  0  0  0  0  0  0  0  0
   -3.1340   21.3440  -27.4630 O   0  0  0  0  0  0  0  0  0  0  0  0
   -1.3320   20.1120  -28.5720 O   0  0  0  0  0  0  0  0  0  0  0  0
   -0.6640   22.2570  -27.0830 C   0  0  0  0  0  0  0  0  0  0  0  0
   -0.8580   22.1730  -25.6970 C   0  0  0  0  0  0  0  0  0  0  0  0
    0.0040   22.8410  -24.8230 C   0  0  0  0  0  0  0  0  0  0  0  0
    1.0640   23.6010  -25.3310 C   0  0  0  0  0  0  0  0  0  0  0  0
    1.8970   24.2520  -24.4830 F   0  0  0  0  0  0  0  0  0  0  0  0
    1.2580   23.6930  -26.7140 C   0  0  0  0  0  0  0  0  0  0  0  0
    0.3960   23.0250  -27.5890 C   0  0  0  0  0  0  0  0  0  0  0  0
   -2.7170   25.0040  -26.9400 C   0  0  0  0  0  0  0  0  0  0  0  0
   -2.3660   25.2950  -25.6180 C   0  0  0  0  0  0  0  0  0  0  0  0
   -1.5040   25.8394  -23.2388 H   0  0  0  0  0  0  0  0  0  0  0  0
    0.1730   26.2284  -23.7519 H   0  0  0  0  0  0  0  0  0  0  0  0
   -1.0863   27.5094  -23.7519 H   0  0  0  0  0  0  0  0  0  0  0  0
    0.3609   27.2772  -26.2005 H   0  0  0  0  0  0  0  0  0  0  0  0
   -0.2653   26.7568  -28.5580 H   0  0  0  0  0  0  0  0  0  0  0  0
   -4.7133   26.1942  -29.9564 H   0  0  0  0  0  0  0  0  0  0  0  0
   -6.6308   24.8393  -30.7745 H   0  0  0  0  0  0  0  0  0  0  0  0
   -8.2139   23.6915  -30.8512 H   0  0  0  0  0  0  0  0  0  0  0  0
  -10.0742   22.2682  -31.7297 H   0  0  0  0  0  0  0  0  0  0  0  0
   -7.0086   18.1149  -31.6979 H   0  0  0  0  0  0  0  0  0  0  0  0
   -7.9953   18.3840  -33.1746 H   0  0  0  0  0  0  0  0  0  0  0  0
   -6.2474   18.7980  -33.1746 H   0  0  0  0  0  0  0  0  0  0  0  0
   -4.2468   21.2444  -30.4067 H   0  0  0  0  0  0  0  0  0  0  0  0
   -1.3000   22.3490  -30.3440 H   0  0  0  0  0  0  0  0  0  0  0  0
   -1.6922   21.5788  -25.2958 H   0  0  0  0  0  0  0  0  0  0  0  0
   -0.1505   22.7695  -23.7362 H   0  0  0  0  0  0  0  0  0  0  0  0
    2.0899   24.2918  -27.1132 H   0  0  0  0  0  0  0  0  0  0  0  0
    0.5489   23.1015  -28.6756 H   0  0  0  0  0  0  0  0  0  0  0  0
   -3.5965   24.3768  -27.1476 H   0  0  0  0  0  0  0  0  0  0  0  0
   -2.9705   24.8963  -24.7900 H   0  0  0  0  0  0  0  0  0  0  0  0
  1  2  1  0
  2  3  2  0
  3  4  1  0
  4  5  2  0
  5  6  1  0
  6  7  1  0
  7  8  2  0
  8  9  1  0
  9 10  2  0
 10 11  1  0
 11 12  1  0
 12 13  2  0
 13 14  1  0
 14 15  2  0
 14 16  1  0
 16 17  1  0
 16 18  1  0
 10 19  1  0
 19 20  2  0
 20 21  1  0
 21 22  1  0
 22 23  2  0
 22 24  2  0
 22 25  1  0
 25 26  2  0
 26 27  1  0
 27 28  2  0
 28 29  1  0
 28 30  1  0
 30 31  2  0
  5 32  1  0
 32 33  2  0
 33  2  1  0
 20  7  1  0
 31 25  1  0
 18 11  2  0
  1 34  1  0
  1 35  1  0
  1 36  1  0
  3 37  1  0
  4 38  1  0
  8 39  1  0
  9 40  1  0
 12 41  1  0
 13 42  1  0
 17 43  1  0
 17 44  1  0
 17 45  1  0
 19 46  1  0
 21 47  1  0
 26 48  1  0
 27 49  1  0
 30 50  1  0
 31 51  1  0
 32 52  1  0
 33 53  1  0
M  END
>  <UniqueID>  (16) 
16

>  <SMILES>  (16) 
Cc1ccc(Oc2ccc(-c3ccc(=O)n(C)n3)cc2NS(=O)(=O)c2ccc(F)cc2)cc1

>  <Energy>  (16) 
70.48384434036842

>  <Genealogy>  (16) 
Cc1ccc(Oc2ccc(-c3ccc(=O)n(C)n3)cc2NS(=O)(=O)c2ccc(F)cc2)cc1 (3D coordinates assigned)
Cc1ccc(Oc2ccc(-c3ccc(=O)n(C)n3)cc2NS(=O)(=O)c2ccc(F)cc2)cc1 (optimized conformer: 70.48384434036842 kcal/mol)

>  <smiles>  (16) 
Cc1ccc(Oc2ccc(-c3ccc(=O)n(C)n3)cc2NS(=O)(=O)c2ccc(F)cc2)cc1

>  <score_type>  (16) 
oracle

>  <origin>  (16) 
adgpu

>  <m_score__min__energy>  (16) 
-10.130000000000001

>  <m_primary>  (16) 
energy

$$$$
16:0
     RDKit          3D

 52 54  0  0  0  0  0  0  0  0999 V2000
   -8.8410   21.9630  -30.9060 C   0  0  0  0  0  0  0  0  0  0  0  0
   -8.4880   23.0150  -31.9510 C   0  0  0  0  0  0  0  0  0  0  0  0
   -7.0780   22.9130  -32.3360 N   0  0  0  0  0  0  0  0  0  0  0  0
   -5.9880   23.4820  -31.5780 C   0  0  0  0  0  0  0  0  0  0  0  0
   -6.1800   24.6530  -30.8210 C   0  0  0  0  0  0  0  0  0  0  0  0
   -5.1390   25.1990  -30.0680 C   0  0  0  0  0  0  0  0  0  0  0  0
   -3.8850   24.5740  -30.0390 C   0  0  0  0  0  0  0  0  0  0  0  0
   -2.7820   25.1200  -29.3020 N   0  0  0  0  0  0  0  0  0  0  0  0
   -1.5710   24.4380  -28.9510 C   0  0  0  0  0  0  0  0  0  0  0  0
   -0.4590   24.9160  -29.3000 O   0  0  0  0  0  0  0  0  0  0  0  0
   -1.6400   23.1850  -28.1530 C   0  0  0  0  0  0  0  0  0  0  0  0
   -2.0490   22.0010  -28.7910 C   0  0  0  0  0  0  0  0  0  0  0  0
   -2.1070   20.7980  -28.0880 C   0  0  0  0  0  0  0  0  0  0  0  0
   -1.7600   20.7800  -26.7390 C   0  0  0  0  0  0  0  0  0  0  0  0
   -1.3760   21.9280  -26.1210 N   0  0  0  0  0  0  0  0  0  0  0  0
   -1.3080   23.1220  -26.7720 C   0  0  0  0  0  0  0  0  0  0  0  0
   -0.8770   24.3260  -25.9850 C   0  0  0  0  0  0  0  0  0  0  0  0
   -3.6760   23.4240  -30.8040 C   0  0  0  0  0  0  0  0  0  0  0  0
   -4.7120   22.8670  -31.5720 C   0  0  0  0  0  0  0  0  0  0  0  0
   -4.3710   21.4330  -32.5530 S   0  0  0  0  0  0  0  0  0  0  0  0
   -3.4720   20.5080  -31.7770 O   0  0  0  0  0  0  0  0  0  0  0  0
   -3.7040   21.8550  -33.8330 O   0  0  0  0  0  0  0  0  0  0  0  0
   -5.8470   20.6000  -32.9250 N   0  0  0  0  0  0  0  0  0  0  0  0
   -5.9590   19.2070  -33.2590 C   0  0  0  0  0  0  0  0  0  0  0  0
   -4.9750   18.5510  -34.0220 C   0  0  0  0  0  0  0  0  0  0  0  0
   -5.1010   17.1930  -34.3280 C   0  0  0  0  0  0  0  0  0  0  0  0
   -3.8640   16.3870  -35.2740 Cl  0  0  0  0  0  0  0  0  0  0  0  0
   -6.2100   16.4750  -33.8750 C   0  0  0  0  0  0  0  0  0  0  0  0
   -7.1960   17.1130  -33.1210 C   0  0  0  0  0  0  0  0  0  0  0  0
   -7.0800   18.4780  -32.8080 C   0  0  0  0  0  0  0  0  0  0  0  0
   -8.1460   19.1520  -31.9880 C   0  0  0  0  0  0  0  0  0  0  0  0
   -8.6997   22.3840  -29.8996 H   0  0  0  0  0  0  0  0  0  0  0  0
   -9.8905   21.6586  -31.0321 H   0  0  0  0  0  0  0  0  0  0  0  0
   -8.1875   21.0872  -31.0321 H   0  0  0  0  0  0  0  0  0  0  0  0
   -9.1167   22.8645  -32.8410 H   0  0  0  0  0  0  0  0  0  0  0  0
   -8.6651   24.0121  -31.5215 H   0  0  0  0  0  0  0  0  0  0  0  0
   -6.8730   22.4050  -33.2240 H   0  0  0  0  0  0  0  0  0  0  0  0
   -7.1640   25.1447  -30.8228 H   0  0  0  0  0  0  0  0  0  0  0  0
   -5.3037   26.1235  -29.4951 H   0  0  0  0  0  0  0  0  0  0  0  0
   -2.3260   22.0237  -29.8553 H   0  0  0  0  0  0  0  0  0  0  0  0
   -2.4233   19.8735  -28.5932 H   0  0  0  0  0  0  0  0  0  0  0  0
   -1.7968   19.8369  -26.1741 H   0  0  0  0  0  0  0  0  0  0  0  0
   -0.9550   24.1082  -24.9096 H   0  0  0  0  0  0  0  0  0  0  0  0
    0.1654   24.5732  -26.2344 H   0  0  0  0  0  0  0  0  0  0  0  0
   -1.5258   25.1786  -26.2344 H   0  0  0  0  0  0  0  0  0  0  0  0
   -2.6847   22.9472  -30.8050 H   0  0  0  0  0  0  0  0  0  0  0  0
   -4.0993   19.1118  -34.3806 H   0  0  0  0  0  0  0  0  0  0  0  0
   -6.3064   15.4053  -34.1128 H   0  0  0  0  0  0  0  0  0  0  0  0
   -8.0693   16.5439  -32.7696 H   0  0  0  0  0  0  0  0  0  0  0  0
   -7.9280   19.0142  -30.9187 H   0  0  0  0  0  0  0  0  0  0  0  0
   -8.1648   20.2265  -32.2229 H   0  0  0  0  0  0  0  0  0  0  0  0
   -9.1247   18.7082  -32.2229 H   0  0  0  0  0  0  0  0  0  0  0  0
  1  2  1  0
  2  3  1  0
  3  4  1  0
  4  5  2  0
  5  6  1  0
  6  7  2  0
  7  8  1  0
  8  9  1  0
  9 10  2  0
  9 11  1  0
 11 12  2  0
 12 13  1  0
 13 14  2  0
 14 15  1  0
 15 16  2  0
 16 17  1  0
  7 18  1  0
 18 19  2  0
 19 20  1  0
 20 21  2  0
 20 22  2  0
 20 23  1  0
 23 24  1  0
 24 25  2  0
 25 26  1  0
 26 27  1  0
 26 28  2  0
 28 29  1  0
 29 30  2  0
 30 31  1  0
 19  4  1  0
 30 24  1  0
 16 11  1  0
  1 32  1  0
  1 33  1  0
  1 34  1  0
  2 35  1  0
  2 36  1  0
  3 37  1  0
  5 38  1  0
  6 39  1  0
 12 40  1  0
 13 41  1  0
 14 42  1  0
 17 43  1  0
 17 44  1  0
 17 45  1  0
 18 46  1  0
 25 47  1  0
 28 48  1  0
 29 49  1  0
 31 50  1  0
 31 51  1  0
 31 52  1  0
M  CHG  2   8  -1  23  -1
M  END
>  <UniqueID>  (17) 
17

>  <SMILES>  (17) 
CCNc1ccc([N-]C(=O)c2cccnc2C)cc1S(=O)(=O)[N-]c1cc(Cl)ccc1C

>  <Energy>  (17) 
65.75394410790328

>  <Genealogy>  (17) 
CCNc1ccc([N-]C(=O)c2cccnc2C)cc1S(=O)(=O)[N-]c1cc(Cl)ccc1C (protonated)
CCNc1ccc([N-]C(=O)c2cccnc2C)cc1S(=O)(=O)[N-]c1cc(Cl)ccc1C (3D coordinates assigned)
CCNc1ccc([N-]C(=O)c2cccnc2C)cc1S(=O)(=O)[N-]c1cc(Cl)ccc1C (optimized conformer: 65.75394410790328 kcal/mol)

>  <smiles>  (17) 
CCNc1ccc(NC(=O)c2cccnc2C)cc1S(=O)(=O)Nc1cc(Cl)ccc1C

>  <score_type>  (17) 
oracle

>  <origin>  (17) 
adgpu

>  <m_score__min__energy>  (17) 
-11.539999999999999

>  <m_primary>  (17) 
energy

$$$$
17:0
     RDKit          3D

 34 36  0  0  0  0  0  0  0  0999 V2000
   -4.4750   25.0570  -30.8320 O   0  0  0  0  0  0  0  0  0  0  0  0
   -4.1920   24.2410  -29.9140 C   0  0  0  0  0  0  0  0  0  0  0  0
   -4.9890   23.0630  -29.7160 N   0  0  0  0  0  0  0  0  0  0  0  0
   -6.0660   22.6870  -30.5920 C   0  0  0  0  0  0  0  0  0  0  0  0
   -7.2560   23.4350  -30.6160 C   0  0  0  0  0  0  0  0  0  0  0  0
   -8.2950   23.0850  -31.4810 C   0  0  0  0  0  0  0  0  0  0  0  0
   -8.1560   21.9900  -32.3360 C   0  0  0  0  0  0  0  0  0  0  0  0
   -6.9750   21.2460  -32.3300 C   0  0  0  0  0  0  0  0  0  0  0  0
   -5.9260   21.5860  -31.4650 C   0  0  0  0  0  0  0  0  0  0  0  0
   -4.4350   20.5790  -31.4760 S   0  0  0  0  0  0  0  0  0  0  0  0
   -5.2110   19.2650  -32.4200 C   0  0  0  0  0  0  0  0  0  0  0  0
   -5.9900   18.3000  -31.7700 C   0  0  0  0  0  0  0  0  0  0  0  0
   -6.6010   17.2810  -32.5080 C   0  0  0  0  0  0  0  0  0  0  0  0
   -6.4310   17.2220  -33.8940 C   0  0  0  0  0  0  0  0  0  0  0  0
   -5.6450   18.1800  -34.5430 C   0  0  0  0  0  0  0  0  0  0  0  0
   -5.0340   19.1990  -33.8080 C   0  0  0  0  0  0  0  0  0  0  0  0
   -3.0620   24.5240  -29.0160 C   0  0  0  0  0  0  0  0  0  0  0  0
   -2.9050   24.0390  -27.7310 C   0  0  0  0  0  0  0  0  0  0  0  0
   -1.7120   24.5610  -27.2810 C   0  0  0  0  0  0  0  0  0  0  0  0
   -1.2150   25.3290  -28.3140 C   0  0  0  0  0  0  0  0  0  0  0  0
   -2.0420   25.2870  -29.3340 O   0  0  0  0  0  0  0  0  0  0  0  0
   -4.8440   22.5080  -28.8420 H   0  0  0  0  0  0  0  0  0  0  0  0
   -7.3696   24.3021  -29.9487 H   0  0  0  0  0  0  0  0  0  0  0  0
   -9.2246   23.6731  -31.4887 H   0  0  0  0  0  0  0  0  0  0  0  0
   -8.9769   21.7137  -33.0141 H   0  0  0  0  0  0  0  0  0  0  0  0
   -6.8669   20.3871  -33.0087 H   0  0  0  0  0  0  0  0  0  0  0  0
   -6.1215   18.3433  -30.6787 H   0  0  0  0  0  0  0  0  0  0  0  0
   -7.2159   16.5254  -31.9971 H   0  0  0  0  0  0  0  0  0  0  0  0
   -6.9151   16.4226  -34.4742 H   0  0  0  0  0  0  0  0  0  0  0  0
   -5.5078   18.1310  -35.6333 H   0  0  0  0  0  0  0  0  0  0  0  0
   -4.4137   19.9498  -34.3195 H   0  0  0  0  0  0  0  0  0  0  0  0
   -3.5894   23.3751  -27.1825 H   0  0  0  0  0  0  0  0  0  0  0  0
   -1.2490   24.3983  -26.2965 H   0  0  0  0  0  0  0  0  0  0  0  0
   -0.2698   25.8911  -28.2875 H   0  0  0  0  0  0  0  0  0  0  0  0
  1  2  2  0
  2  3  1  0
  3  4  1  0
  4  5  2  0
  5  6  1  0
  6  7  2  0
  7  8  1  0
  8  9  2  0
  9 10  1  0
 10 11  1  0
 11 12  2  0
 12 13  1  0
 13 14  2  0
 14 15  1  0
 15 16  2  0
  2 17  1  0
 17 18  2  0
 18 19  1  0
 19 20  2  0
 20 21  1  0
  9  4  1  0
 16 11  1  0
 21 17  1  0
  3 22  1  0
  5 23  1  0
  6 24  1  0
  7 25  1  0
  8 26  1  0
 12 27  1  0
 13 28  1  0
 14 29  1  0
 15 30  1  0
 16 31  1  0
 18 32  1  0
 19 33  1  0
 20 34  1  0
M  END
>  <UniqueID>  (18) 
18

>  <SMILES>  (18) 
O=C(Nc1ccccc1Sc1ccccc1)c1ccco1

>  <Energy>  (18) 
60.578446354634735

>  <Genealogy>  (18) 
O=C(Nc1ccccc1Sc1ccccc1)c1ccco1 (3D coordinates assigned)
O=C(Nc1ccccc1Sc1ccccc1)c1ccco1 (optimized conformer: 60.578446354634735 kcal/mol)

>  <smiles>  (18) 
O=C(Nc1ccccc1Sc1ccccc1)c1ccco1

>  <score_type>  (18) 
oracle

>  <origin>  (18) 
adgpu

>  <m_score__min__energy>  (18) 
-8.4600000000000009

>  <m_primary>  (18) 
energy

$$$$
18:0
     RDKit          3D

 33 34  0  0  0  0  0  0  0  0999 V2000
    0.7080   25.3470  -24.0980 N   0  0  0  0  0  0  0  0  0  0  0  0
   -0.1630   24.3220  -24.5840 C   0  0  0  0  0  0  0  0  0  0  0  0
   -0.5050   23.3410  -23.8020 N   0  0  0  0  0  0  0  0  0  0  0  0
   -0.7060   24.4330  -25.9110 N   0  0  0  0  0  0  0  0  0  0  0  0
   -1.0490   23.3030  -26.7290 C   0  0  0  0  0  0  0  0  0  0  0  0
   -0.5390   22.1750  -26.4850 O   0  0  0  0  0  0  0  0  0  0  0  0
   -1.9590   23.4550  -27.8920 C   0  0  0  0  0  0  0  0  0  0  0  0
   -1.5770   23.0160  -29.1730 C   0  0  0  0  0  0  0  0  0  0  0  0
   -2.4400   23.1700  -30.2620 C   0  0  0  0  0  0  0  0  0  0  0  0
   -3.6880   23.7790  -30.1000 C   0  0  0  0  0  0  0  0  0  0  0  0
   -4.5290   23.9000  -31.2150 O   0  0  0  0  0  0  0  0  0  0  0  0
   -5.6310   23.0780  -31.4960 C   0  0  0  0  0  0  0  0  0  0  0  0
   -6.8950   23.4670  -31.0340 C   0  0  0  0  0  0  0  0  0  0  0  0
   -8.0150   22.6660  -31.2800 C   0  0  0  0  0  0  0  0  0  0  0  0
   -7.8760   21.4640  -31.9780 C   0  0  0  0  0  0  0  0  0  0  0  0
   -6.6160   21.0580  -32.4260 C   0  0  0  0  0  0  0  0  0  0  0  0
   -5.4940   21.8570  -32.1810 C   0  0  0  0  0  0  0  0  0  0  0  0
   -4.0800   24.2100  -28.8210 C   0  0  0  0  0  0  0  0  0  0  0  0
   -3.2200   24.0570  -27.7300 C   0  0  0  0  0  0  0  0  0  0  0  0
    0.9750   26.1470  -24.7140 H   0  0  0  0  0  0  0  0  0  0  0  0
    1.0970   25.3080  -23.1300 H   0  0  0  0  0  0  0  0  0  0  0  0
   -0.1200   23.2750  -22.8320 H   0  0  0  0  0  0  0  0  0  0  0  0
   -1.1940   22.6170  -24.0990 H   0  0  0  0  0  0  0  0  0  0  0  0
   -0.7250   25.3830  -26.3440 H   0  0  0  0  0  0  0  0  0  0  0  0
   -0.5921   22.5482  -29.3187 H   0  0  0  0  0  0  0  0  0  0  0  0
   -2.1344   22.8088  -31.2551 H   0  0  0  0  0  0  0  0  0  0  0  0
   -7.0074   24.4075  -30.4747 H   0  0  0  0  0  0  0  0  0  0  0  0
   -9.0062   22.9829  -30.9235 H   0  0  0  0  0  0  0  0  0  0  0  0
   -8.7582   20.8371  -32.1750 H   0  0  0  0  0  0  0  0  0  0  0  0
   -6.5063   20.1093  -32.9718 H   0  0  0  0  0  0  0  0  0  0  0  0
   -4.5018   21.5295  -32.5250 H   0  0  0  0  0  0  0  0  0  0  0  0
   -5.0688   24.6701  -28.6779 H   0  0  0  0  0  0  0  0  0  0  0  0
   -3.5319   24.4104  -26.7361 H   0  0  0  0  0  0  0  0  0  0  0  0
  1  2  1  0
  2  3  2  0
  2  4  1  0
  4  5  1  0
  5  6  2  0
  5  7  1  0
  7  8  2  0
  8  9  1  0
  9 10  2  0
 10 11  1  0
 11 12  1  0
 12 13  2  0
 13 14  1  0
 14 15  2  0
 15 16  1  0
 16 17  2  0
 10 18  1  0
 18 19  2  0
 19  7  1  0
 17 12  1  0
  1 20  1  0
  1 21  1  0
  3 22  1  0
  3 23  1  0
  4 24  1  0
  8 25  1  0
  9 26  1  0
 13 27  1  0
 14 28  1  0
 15 29  1  0
 16 30  1  0
 17 31  1  0
 18 32  1  0
 19 33  1  0
M  CHG  1   3   1
M  END
>  <UniqueID>  (19) 
19

>  <SMILES>  (19) 
NC(=[NH2+])NC(=O)c1ccc(Oc2ccccc2)cc1

>  <Energy>  (19) 
42.68151850932001

>  <Genealogy>  (19) 
NC(=[NH2+])NC(=O)c1ccc(Oc2ccccc2)cc1 (protonated)
NC(=[NH2+])NC(=O)c1ccc(Oc2ccccc2)cc1 (3D coordinates assigned)
NC(=[NH2+])NC(=O)c1ccc(Oc2ccccc2)cc1 (optimized conformer: 42.68151850932001 kcal/mol)

>  <smiles>  (19) 
N=C(N)NC(=O)c1ccc(Oc2ccccc2)cc1

>  <score_type>  (19) 
oracle

>  <origin>  (19) 
adgpu

>  <m_score__min__energy>  (19) 
-7.1600000000000001

>  <m_primary>  (19) 
energy

$$$$
19:0
     RDKit          3D

 40 41  0  0  0  0  0  0  0  0999 V2000
   -6.4180   25.9760  -29.3910 C   0  0  0  0  0  0  0  0  0  0  0  0
   -5.3800   25.0690  -29.9660 C   0  0  0  0  0  0  0  0  0  0  0  0
   -4.5900   25.5110  -30.8440 O   0  0  0  0  0  0  0  0  0  0  0  0
   -5.2350   23.7360  -29.4560 N   0  0  0  0  0  0  0  0  0  0  0  0
   -4.3460   22.7600  -30.0270 C   0  0  0  0  0  0  0  0  0  0  0  0
   -4.8280   21.8110  -30.9450 C   0  0  0  0  0  0  0  0  0  0  0  0
   -3.9830   20.8190  -31.4560 C   0  0  0  0  0  0  0  0  0  0  0  0
   -4.6110   19.6240  -32.5840 S   0  0  0  0  0  0  0  0  0  0  0  0
   -4.3060   20.0470  -33.9960 O   0  0  0  0  0  0  0  0  0  0  0  0
   -3.9560   18.2930  -32.3440 O   0  0  0  0  0  0  0  0  0  0  0  0
   -6.3510   19.4860  -32.3600 C   0  0  0  0  0  0  0  0  0  0  0  0
   -7.1930   20.5520  -32.7110 C   0  0  0  0  0  0  0  0  0  0  0  0
   -8.5740   20.4490  -32.5130 C   0  0  0  0  0  0  0  0  0  0  0  0
   -9.1170   19.2860  -31.9600 C   0  0  0  0  0  0  0  0  0  0  0  0
   -8.2800   18.2250  -31.6010 C   0  0  0  0  0  0  0  0  0  0  0  0
   -6.8990   18.3250  -31.7990 C   0  0  0  0  0  0  0  0  0  0  0  0
   -2.6540   20.7540  -31.0280 C   0  0  0  0  0  0  0  0  0  0  0  0
   -2.1660   21.6830  -30.1070 C   0  0  0  0  0  0  0  0  0  0  0  0
   -3.0000   22.6910  -29.6020 C   0  0  0  0  0  0  0  0  0  0  0  0
   -2.4660   23.6550  -28.6780 N   0  0  0  0  0  0  0  0  0  0  0  0
   -3.1530   23.9380  -27.4180 C   0  0  0  0  0  0  0  0  0  0  0  0
   -1.2080   24.3340  -28.9880 C   0  0  0  0  0  0  0  0  0  0  0  0
   -6.3722   25.9360  -28.2927 H   0  0  0  0  0  0  0  0  0  0  0  0
   -6.2322   27.0064  -29.7284 H   0  0  0  0  0  0  0  0  0  0  0  0
   -7.4141   25.6537  -29.7284 H   0  0  0  0  0  0  0  0  0  0  0  0
   -5.7560   23.4850  -28.5860 H   0  0  0  0  0  0  0  0  0  0  0  0
   -5.8798   21.8483  -31.2650 H   0  0  0  0  0  0  0  0  0  0  0  0
   -6.7668   21.4697  -33.1423 H   0  0  0  0  0  0  0  0  0  0  0  0
   -9.2331   21.2841  -32.7928 H   0  0  0  0  0  0  0  0  0  0  0  0
  -10.2033   19.2053  -31.8071 H   0  0  0  0  0  0  0  0  0  0  0  0
   -8.7078   17.3113  -31.1627 H   0  0  0  0  0  0  0  0  0  0  0  0
   -6.2418   17.4904  -31.5137 H   0  0  0  0  0  0  0  0  0  0  0  0
   -1.9903   19.9683  -31.4181 H   0  0  0  0  0  0  0  0  0  0  0  0
   -1.1190   21.6238  -29.7749 H   0  0  0  0  0  0  0  0  0  0  0  0
   -2.4992   23.6687  -26.5754 H   0  0  0  0  0  0  0  0  0  0  0  0
   -3.3961   25.0095  -27.3656 H   0  0  0  0  0  0  0  0  0  0  0  0
   -4.0803   23.3486  -27.3656 H   0  0  0  0  0  0  0  0  0  0  0  0
   -0.6993   24.6086  -28.0522 H   0  0  0  0  0  0  0  0  0  0  0  0
   -0.5628   23.6616  -29.5725 H   0  0  0  0  0  0  0  0  0  0  0  0
   -1.4160   25.2424  -29.5725 H   0  0  0  0  0  0  0  0  0  0  0  0
  1  2  1  0
  2  3  2  0
  2  4  1  0
  4  5  1  0
  5  6  2  0
  6  7  1  0
  7  8  1  0
  8  9  2  0
  8 10  2  0
  8 11  1  0
 11 12  2  0
 12 13  1  0
 13 14  2  0
 14 15  1  0
 15 16  2  0
  7 17  2  0
 17 18  1  0
 18 19  2  0
 19 20  1  0
 20 21  1  0
 20 22  1  0
 19  5  1  0
 16 11  1  0
  1 23  1  0
  1 24  1  0
  1 25  1  0
  4 26  1  0
  6 27  1  0
 12 28  1  0
 13 29  1  0
 14 30  1  0
 15 31  1  0
 16 32  1  0
 17 33  1  0
 18 34  1  0
 21 35  1  0
 21 36  1  0
 21 37  1  0
 22 38  1  0
 22 39  1  0
 22 40  1  0
M  END
>  <UniqueID>  (20) 
20

>  <SMILES>  (20) 
CC(=O)Nc1cc(S(=O)(=O)c2ccccc2)ccc1N(C)C

>  <Energy>  (20) 
46.751167633034086

>  <Genealogy>  (20) 
CC(=O)Nc1cc(S(=O)(=O)c2ccccc2)ccc1N(C)C (3D coordinates assigned)
CC(=O)Nc1cc(S(=O)(=O)c2ccccc2)ccc1N(C)C (optimized conformer: 46.751167633034086 kcal/mol)

>  <smiles>  (20) 
CC(=O)Nc1cc(S(=O)(=O)c2ccccc2)ccc1N(C)C

>  <score_type>  (20) 
oracle

>  <origin>  (20) 
adgpu

>  <m_score__min__energy>  (20) 
-7.8600000000000003

>  <m_primary>  (20) 
energy

$$$$
20:0
     RDKit          3D

 34 34  0  0  0  0  0  0  0  0999 V2000
   -9.0900   21.1180  -31.9280 C   0  0  0  0  0  0  0  0  0  0  0  0
   -8.1250   22.0730  -31.2300 C   0  0  0  0  0  0  0  0  0  0  0  0
   -7.6770   23.2440  -32.1220 C   0  0  0  0  0  0  0  0  0  0  0  0
   -6.2580   23.7590  -31.7990 C   0  0  0  0  0  0  0  0  0  0  0  0
   -6.2050   24.4930  -30.4480 C   0  0  0  0  0  0  0  0  0  0  0  0
   -5.2620   25.7020  -30.4830 C   0  0  0  0  0  0  0  0  0  0  0  0
   -3.8780   25.2950  -30.7110 N   0  0  0  0  0  0  0  0  0  0  0  0
   -3.0590   24.6610  -29.7250 C   0  0  0  0  0  0  0  0  0  0  0  0
   -3.3810   23.5190  -29.3050 O   0  0  0  0  0  0  0  0  0  0  0  0
   -1.8630   25.3000  -29.2590 N   0  0  0  0  0  0  0  0  0  0  0  0
   -1.5810   25.6960  -27.9100 C   0  0  0  0  0  0  0  0  0  0  0  0
   -2.3300   25.2160  -26.8190 C   0  0  0  0  0  0  0  0  0  0  0  0
   -2.0450   25.6560  -25.5230 C   0  0  0  0  0  0  0  0  0  0  0  0
   -1.0220   26.5840  -25.3060 C   0  0  0  0  0  0  0  0  0  0  0  0
   -0.2910   27.0810  -26.3860 C   0  0  0  0  0  0  0  0  0  0  0  0
   -0.5740   26.6440  -27.6850 C   0  0  0  0  0  0  0  0  0  0  0  0
   -9.6588   20.5551  -31.1733 H   0  0  0  0  0  0  0  0  0  0  0  0
   -9.7850   21.6938  -32.5568 H   0  0  0  0  0  0  0  0  0  0  0  0
   -8.5215   20.4170  -32.5568 H   0  0  0  0  0  0  0  0  0  0  0  0
   -8.6229   22.4832  -30.3390 H   0  0  0  0  0  0  0  0  0  0  0  0
   -7.2245   21.4961  -30.9725 H   0  0  0  0  0  0  0  0  0  0  0  0
   -7.6956   22.9099  -33.1699 H   0  0  0  0  0  0  0  0  0  0  0  0
   -8.3723   24.0758  -31.9358 H   0  0  0  0  0  0  0  0  0  0  0  0
   -5.5685   22.9026  -31.7652 H   0  0  0  0  0  0  0  0  0  0  0  0
   -5.9683   24.4722  -32.5848 H   0  0  0  0  0  0  0  0  0  0  0  0
   -7.2172   24.8403  -30.1934 H   0  0  0  0  0  0  0  0  0  0  0  0
   -5.8229   23.7880  -29.6950 H   0  0  0  0  0  0  0  0  0  0  0  0
   -5.5747   26.3758  -31.2943 H   0  0  0  0  0  0  0  0  0  0  0  0
   -5.3162   26.2103  -29.5090 H   0  0  0  0  0  0  0  0  0  0  0  0
   -3.1417   24.4928  -26.9867 H   0  0  0  0  0  0  0  0  0  0  0  0
   -2.6267   25.2713  -24.6723 H   0  0  0  0  0  0  0  0  0  0  0  0
   -0.7934   26.9222  -24.2846 H   0  0  0  0  0  0  0  0  0  0  0  0
    0.5085   27.8171  -26.2160 H   0  0  0  0  0  0  0  0  0  0  0  0
   -0.0027   27.0470  -28.5342 H   0  0  0  0  0  0  0  0  0  0  0  0
  1  2  1  0
  2  3  1  0
  3  4  1  0
  4  5  1  0
  5  6  1  0
  6  7  1  0
  7  8  1  0
  8  9  2  0
  8 10  1  0
 10 11  1  0
 11 12  2  0
 12 13  1  0
 13 14  2  0
 14 15  1  0
 15 16  2  0
 16 11  1  0
  1 17  1  0
  1 18  1  0
  1 19  1  0
  2 20  1  0
  2 21  1  0
  3 22  1  0
  3 23  1  0
  4 24  1  0
  4 25  1  0
  5 26  1  0
  5 27  1  0
  6 28  1  0
  6 29  1  0
 12 30  1  0
 13 31  1  0
 14 32  1  0
 15 33  1  0
 16 34  1  0
M  CHG  2   7  -1  10  -1
M  END
>  <UniqueID>  (21) 
21

>  <SMILES>  (21) 
CCCCCC[N-]C(=O)[N-]c1ccccc1

>  <Energy>  (21) 
24.450255351109448

>  <Genealogy>  (21) 
CCCCCC[N-]C(=O)[N-]c1ccccc1 (protonated)
CCCCCC[N-]C(=O)[N-]c1ccccc1 (3D coordinates assigned)
CCCCCC[N-]C(=O)[N-]c1ccccc1 (optimized conformer: 24.450255351109448 kcal/mol)

>  <smiles>  (21) 
CCCCCCNC(=O)Nc1ccccc1

>  <score_type>  (21) 
oracle

>  <origin>  (21) 
adgpu

>  <m_score__min__energy>  (21) 
-9.2100000000000009

>  <m_primary>  (21) 
energy

$$$$
21:0
     RDKit          3D

 27 28  0  0  0  0  0  0  0  0999 V2000
   -5.6400   20.4980  -31.6690 O   0  0  0  0  0  0  0  0  0  0  0  0
   -6.3570   20.9350  -32.6100 C   0  0  0  0  0  0  0  0  0  0  0  0
   -6.7050   22.3230  -32.6750 N   0  0  0  0  0  0  0  0  0  0  0  0
   -6.3690   23.3360  -31.7140 C   0  0  0  0  0  0  0  0  0  0  0  0
   -7.3680   23.7930  -30.8440 C   0  0  0  0  0  0  0  0  0  0  0  0
   -7.0780   24.7640  -29.8810 C   0  0  0  0  0  0  0  0  0  0  0  0
   -5.7830   25.2740  -29.7680 C   0  0  0  0  0  0  0  0  0  0  0  0
   -4.7710   24.8050  -30.6130 C   0  0  0  0  0  0  0  0  0  0  0  0
   -3.4790   25.2990  -30.4870 O   0  0  0  0  0  0  0  0  0  0  0  0
   -5.0590   23.8350  -31.5800 C   0  0  0  0  0  0  0  0  0  0  0  0
   -6.8280   20.0510  -33.6370 N   0  0  0  0  0  0  0  0  0  0  0  0
   -6.3930   18.6890  -33.7960 C   0  0  0  0  0  0  0  0  0  0  0  0
   -5.4060   18.3900  -34.7480 C   0  0  0  0  0  0  0  0  0  0  0  0
   -4.9500   17.0770  -34.9080 C   0  0  0  0  0  0  0  0  0  0  0  0
   -5.4650   16.0560  -34.1060 C   0  0  0  0  0  0  0  0  0  0  0  0
   -6.4310   16.3460  -33.1390 C   0  0  0  0  0  0  0  0  0  0  0  0
   -6.8900   17.6570  -32.9770 C   0  0  0  0  0  0  0  0  0  0  0  0
   -8.3868   23.3851  -30.9193 H   0  0  0  0  0  0  0  0  0  0  0  0
   -7.8714   25.1269  -29.2111 H   0  0  0  0  0  0  0  0  0  0  0  0
   -5.5585   26.0440  -29.0152 H   0  0  0  0  0  0  0  0  0  0  0  0
   -4.2599   23.4614  -32.2371 H   0  0  0  0  0  0  0  0  0  0  0  0
   -7.6030   20.3950  -34.2470 H   0  0  0  0  0  0  0  0  0  0  0  0
   -4.9882   19.1934  -35.3725 H   0  0  0  0  0  0  0  0  0  0  0  0
   -4.1858   16.8488  -35.6655 H   0  0  0  0  0  0  0  0  0  0  0  0
   -5.1099   15.0230  -34.2357 H   0  0  0  0  0  0  0  0  0  0  0  0
   -6.8311   15.5418  -32.5041 H   0  0  0  0  0  0  0  0  0  0  0  0
   -7.6422   17.8829  -32.2068 H   0  0  0  0  0  0  0  0  0  0  0  0
  1  2  2  0
  2  3  1  0
  3  4  1  0
  4  5  2  0
  5  6  1  0
  6  7  2  0
  7  8  1  0
  8  9  1  0
  8 10  2  0
  2 11  1  0
 11 12  1  0
 12 13  2  0
 13 14  1  0
 14 15  2  0
 15 16  1  0
 16 17  2  0
 10  4  1  0
 17 12  1  0
  5 18  1  0
  6 19  1  0
  7 20  1  0
 10 21  1  0
 11 22  1  0
 13 23  1  0
 14 24  1  0
 15 25  1  0
 16 26  1  0
 17 27  1  0
M  CHG  2   3  -1   9  -1
M  END
>  <UniqueID>  (22) 
22

>  <SMILES>  (22) 
O=C([N-]c1cccc([O-])c1)Nc1ccccc1

>  <Energy>  (22) 
34.60366762707681

>  <Genealogy>  (22) 
O=C([N-]c1cccc([O-])c1)Nc1ccccc1 (protonated)
O=C([N-]c1cccc([O-])c1)Nc1ccccc1 (3D coordinates assigned)
O=C([N-]c1cccc([O-])c1)Nc1ccccc1 (optimized conformer: 34.60366762707681 kcal/mol)

>  <smiles>  (22) 
O=C(Nc1ccccc1)Nc1cccc(O)c1

>  <score_type>  (22) 
oracle

>  <origin>  (22) 
adgpu

>  <m_score__min__energy>  (22) 
-9.75

>  <m_primary>  (22) 
energy

$$$$
22:0
     RDKit          3D

 48 50  0  0  0  0  0  0  0  0999 V2000
   -6.4320   25.9800  -29.3030 C   0  0  0  0  0  0  0  0  0  0  0  0
   -6.0150   25.3860  -30.5270 O   0  0  0  0  0  0  0  0  0  0  0  0
   -6.4270   24.1210  -30.9730 C   0  0  0  0  0  0  0  0  0  0  0  0
   -6.9770   23.2330  -30.0420 C   0  0  0  0  0  0  0  0  0  0  0  0
   -7.4010   21.9610  -30.4360 C   0  0  0  0  0  0  0  0  0  0  0  0
   -7.2880   21.5560  -31.7760 C   0  0  0  0  0  0  0  0  0  0  0  0
   -7.7180   20.2430  -32.1840 N   0  0  0  0  0  0  0  0  0  0  0  0
   -9.1440   19.9110  -32.2120 C   0  0  0  0  0  0  0  0  0  0  0  0
   -6.5530   19.0170  -32.5960 S   0  0  0  0  0  0  0  0  0  0  0  0
   -6.6370   17.8750  -31.6210 O   0  0  0  0  0  0  0  0  0  0  0  0
   -6.8410   18.4990  -33.9770 O   0  0  0  0  0  0  0  0  0  0  0  0
   -4.9270   19.6890  -32.5140 C   0  0  0  0  0  0  0  0  0  0  0  0
   -4.0130   19.4150  -33.5360 C   0  0  0  0  0  0  0  0  0  0  0  0
   -2.7110   19.9140  -33.4670 C   0  0  0  0  0  0  0  0  0  0  0  0
   -2.3160   20.6920  -32.3760 C   0  0  0  0  0  0  0  0  0  0  0  0
   -3.2220   20.9850  -31.3420 C   0  0  0  0  0  0  0  0  0  0  0  0
   -2.7780   21.7980  -30.1840 C   0  0  0  0  0  0  0  0  0  0  0  0
   -1.8910   21.3320  -29.4170 O   0  0  0  0  0  0  0  0  0  0  0  0
   -3.3460   23.0950  -29.9200 N   0  0  0  0  0  0  0  0  0  0  0  0
   -2.9310   23.9450  -28.8380 C   0  0  0  0  0  0  0  0  0  0  0  0
   -3.7100   24.0870  -27.6760 C   0  0  0  0  0  0  0  0  0  0  0  0
   -3.2720   24.9030  -26.6280 C   0  0  0  0  0  0  0  0  0  0  0  0
   -2.0490   25.5710  -26.7240 C   0  0  0  0  0  0  0  0  0  0  0  0
   -1.6240   26.3620  -25.7070 F   0  0  0  0  0  0  0  0  0  0  0  0
   -1.2570   25.4160  -27.8650 C   0  0  0  0  0  0  0  0  0  0  0  0
   -1.6910   24.6000  -28.9130 C   0  0  0  0  0  0  0  0  0  0  0  0
   -4.5290   20.4650  -31.4140 C   0  0  0  0  0  0  0  0  0  0  0  0
   -6.7310   22.4460  -32.7100 C   0  0  0  0  0  0  0  0  0  0  0  0
   -6.3050   23.7170  -32.3160 C   0  0  0  0  0  0  0  0  0  0  0  0
   -6.0269   25.4029  -28.4587 H   0  0  0  0  0  0  0  0  0  0  0  0
   -6.0606   27.0142  -29.2521 H   0  0  0  0  0  0  0  0  0  0  0  0
   -7.5308   25.9821  -29.2521 H   0  0  0  0  0  0  0  0  0  0  0  0
   -7.0766   23.5390  -28.9901 H   0  0  0  0  0  0  0  0  0  0  0  0
   -7.8263   21.2721  -29.6913 H   0  0  0  0  0  0  0  0  0  0  0  0
   -9.5204   19.8234  -31.1821 H   0  0  0  0  0  0  0  0  0  0  0  0
   -9.6951   20.7049  -32.7375 H   0  0  0  0  0  0  0  0  0  0  0  0
   -9.2877   18.9554  -32.7375 H   0  0  0  0  0  0  0  0  0  0  0  0
   -4.3209   18.8041  -34.3974 H   0  0  0  0  0  0  0  0  0  0  0  0
   -1.9952   19.6943  -34.2728 H   0  0  0  0  0  0  0  0  0  0  0  0
   -1.2874   21.0785  -32.3257 H   0  0  0  0  0  0  0  0  0  0  0  0
   -4.1460   23.4290  -30.5000 H   0  0  0  0  0  0  0  0  0  0  0  0
   -4.6684   23.5538  -27.5909 H   0  0  0  0  0  0  0  0  0  0  0  0
   -3.8917   25.0190  -25.7266 H   0  0  0  0  0  0  0  0  0  0  0  0
   -0.2909   25.9369  -27.9381 H   0  0  0  0  0  0  0  0  0  0  0  0
   -1.0572   24.4698  -29.8026 H   0  0  0  0  0  0  0  0  0  0  0  0
   -5.2431   20.6684  -30.6024 H   0  0  0  0  0  0  0  0  0  0  0  0
   -6.6294   22.1391  -33.7614 H   0  0  0  0  0  0  0  0  0  0  0  0
   -5.8727   24.4045  -33.0579 H   0  0  0  0  0  0  0  0  0  0  0  0
  1  2  1  0
  2  3  1  0
  3  4  2  0
  4  5  1  0
  5  6  2  0
  6  7  1  0
  7  8  1  0
  7  9  1  0
  9 10  2  0
  9 11  2  0
  9 12  1  0
 12 13  2  0
 13 14  1  0
 14 15  2  0
 15 16  1  0
 16 17  1  0
 17 18  2  0
 17 19  1  0
 19 20  1  0
 20 21  2  0
 21 22  1  0
 22 23  2  0
 23 24  1  0
 23 25  1  0
 25 26  2  0
 16 27  2  0
  6 28  1  0
 28 29  2  0
 29  3  1  0
 27 12  1  0
 26 20  1  0
  1 30  1  0
  1 31  1  0
  1 32  1  0
  4 33  1  0
  5 34  1  0
  8 35  1  0
  8 36  1  0
  8 37  1  0
 13 38  1  0
 14 39  1  0
 15 40  1  0
 19 41  1  0
 21 42  1  0
 22 43  1  0
 25 44  1  0
 26 45  1  0
 27 46  1  0
 28 47  1  0
 29 48  1  0
M  END
>  <UniqueID>  (23) 
23

>  <SMILES>  (23) 
COc1ccc(N(C)S(=O)(=O)c2cccc(C(=O)Nc3ccc(F)cc3)c2)cc1

>  <Energy>  (23) 
61.49883545842489

>  <Genealogy>  (23) 
COc1ccc(N(C)S(=O)(=O)c2cccc(C(=O)Nc3ccc(F)cc3)c2)cc1 (3D coordinates assigned)
COc1ccc(N(C)S(=O)(=O)c2cccc(C(=O)Nc3ccc(F)cc3)c2)cc1 (optimized conformer: 61.49883545842489 kcal/mol)

>  <smiles>  (23) 
COc1ccc(N(C)S(=O)(=O)c2cccc(C(=O)Nc3ccc(F)cc3)c2)cc1

>  <score_type>  (23) 
oracle

>  <origin>  (23) 
adgpu

>  <m_score__min__energy>  (23) 
-9.1699999999999999

>  <m_primary>  (23) 
energy

$$$$
23:0
     RDKit          3D

 35 37  0  0  0  0  0  0  0  0999 V2000
   -3.0180   14.4748  -35.3962 H   0  0  0  0  0  0  0  0  0  0  0  0
   -3.9650   14.8340  -34.9670 C   0  0  0  0  0  0  0  0  0  0  0  0
   -4.9940   13.9670  -34.7760 N   0  0  0  0  0  0  0  0  0  0  0  0
   -6.1790   14.3750  -34.2520 C   0  0  0  0  0  0  0  0  0  0  0  0
   -6.9952   13.6512  -34.1107 H   0  0  0  0  0  0  0  0  0  0  0  0
   -6.3630   15.7130  -33.8920 C   0  0  0  0  0  0  0  0  0  0  0  0
   -7.3254   16.0445  -33.4750 H   0  0  0  0  0  0  0  0  0  0  0  0
   -5.3160   16.6330  -34.0640 C   0  0  0  0  0  0  0  0  0  0  0  0
   -5.5140   18.0540  -33.6870 C   0  0  0  0  0  0  0  0  0  0  0  0
   -6.4790   18.6890  -34.1960 O   0  0  0  0  0  0  0  0  0  0  0  0
   -4.6270   18.7150  -32.7650 N   0  0  0  0  0  0  0  0  0  0  0  0
   -3.7560   18.2280  -32.4560 H   0  0  0  0  0  0  0  0  0  0  0  0
   -4.8260   20.0540  -32.2840 C   0  0  0  0  0  0  0  0  0  0  0  0
   -6.0970   20.5120  -31.8900 C   0  0  0  0  0  0  0  0  0  0  0  0
   -6.9673   19.8435  -31.9657 H   0  0  0  0  0  0  0  0  0  0  0  0
   -6.2590   21.8120  -31.4030 C   0  0  0  0  0  0  0  0  0  0  0  0
   -7.2575   22.1649  -31.1056 H   0  0  0  0  0  0  0  0  0  0  0  0
   -5.1560   22.6670  -31.2920 C   0  0  0  0  0  0  0  0  0  0  0  0
   -5.3540   24.3100  -30.6900 S   0  0  0  0  0  0  0  0  0  0  0  0
   -6.1250   25.1450  -31.6750 O   0  0  0  0  0  0  0  0  0  0  0  0
   -6.1080   24.2660  -29.3920 O   0  0  0  0  0  0  0  0  0  0  0  0
   -3.8020   25.0380  -30.4230 N   0  0  0  0  0  0  0  0  0  0  0  0
   -2.9880   24.6970  -29.4710 C   0  0  0  0  0  0  0  0  0  0  0  0
   -1.7920   25.2950  -29.2980 N   0  0  0  0  0  0  0  0  0  0  0  0
   -1.1200   24.7740  -28.2370 C   0  0  0  0  0  0  0  0  0  0  0  0
   -0.1244   25.1324  -27.9365 H   0  0  0  0  0  0  0  0  0  0  0  0
   -1.7810   23.7560  -27.5590 C   0  0  0  0  0  0  0  0  0  0  0  0
   -1.4018   23.2130  -26.6807 H   0  0  0  0  0  0  0  0  0  0  0  0
   -3.2610   23.4990  -28.3150 S   0  0  0  0  0  0  0  0  0  0  0  0
   -3.8840   22.2050  -31.6540 C   0  0  0  0  0  0  0  0  0  0  0  0
   -3.0113   22.8673  -31.5554 H   0  0  0  0  0  0  0  0  0  0  0  0
   -3.7210   20.9050  -32.1400 C   0  0  0  0  0  0  0  0  0  0  0  0
   -2.7173   20.5463  -32.4119 H   0  0  0  0  0  0  0  0  0  0  0  0
   -4.1060   16.1800  -34.6200 C   0  0  0  0  0  0  0  0  0  0  0  0
   -3.2747   16.8822  -34.7809 H   0  0  0  0  0  0  0  0  0  0  0  0
  1  2  1  0
  2  3  2  0
  3  4  1  0
  4  5  1  0
  4  6  2  0
  6  7  1  0
  6  8  1  0
  8  9  1  0
  9 10  2  0
  9 11  1  0
 11 12  1  0
 11 13  1  0
 13 14  2  0
 14 15  1  0
 14 16  1  0
 16 17  1  0
 16 18  2  0
 18 19  1  0
 19 20  2  0
 19 21  2  0
 19 22  1  0
 22 23  2  0
 23 24  1  0
 24 25  1  0
 25 26  1  0
 25 27  2  0
 27 28  1  0
 27 29  1  0
 18 30  1  0
 30 31  1  0
 30 32  2  0
 32 33  1  0
  8 34  2  0
 34 35  1  0
 34  2  1  0
 32 13  1  0
 29 23  1  0
M  CHG  1  24  -1
M  END
>  <UniqueID>  (24) 
24

>  <SMILES>  (24) 
O=C(Nc1ccc(S(=O)(=O)/N=c2/[n-]ccs2)cc1)c1ccncc1

>  <Energy>  (24) 
78.96079883521301

>  <Genealogy>  (24) 
O=C(Nc1ccc(S(=O)(=O)N=c2[n-]ccs2)cc1)c1ccncc1 (protonated)
O=C(Nc1ccc(S(=O)(=O)/N=c2/[n-]ccs2)cc1)c1ccncc1 (cis-trans isomerization)
O=C(Nc1ccc(S(=O)(=O)/N=c2/[n-]ccs2)cc1)c1ccncc1 (3D coordinates assigned)
O=C(Nc1ccc(S(=O)(=O)/N=c2/[n-]ccs2)cc1)c1ccncc1 (optimized conformer: 78.96079883521301 kcal/mol)

>  <smiles>  (24) 
O=C(Nc1ccc(S(=O)(=O)N=c2[nH]ccs2)cc1)c1ccncc1

>  <score_type>  (24) 
oracle

>  <origin>  (24) 
adgpu

>  <m_score__min__energy>  (24) 
-9.1199999999999992

>  <m_primary>  (24) 
energy

$$$$
24:0
     RDKit          3D

 38 39  0  0  0  0  0  0  0  0999 V2000
   -9.0970   19.0170  -32.3730 C   0  0  0  0  0  0  0  0  0  0  0  0
   -7.8110   18.8950  -31.6250 C   0  0  0  0  0  0  0  0  0  0  0  0
   -6.6030   19.0600  -32.4560 C   0  0  0  0  0  0  0  0  0  0  0  0
   -6.0460   17.9940  -33.1030 N   0  0  0  0  0  0  0  0  0  0  0  0
   -4.9590   18.0930  -33.8620 C   0  0  0  0  0  0  0  0  0  0  0  0
   -4.4380   17.0670  -34.4720 N   0  0  0  0  0  0  0  0  0  0  0  0
   -4.3490   19.2670  -34.0290 N   0  0  0  0  0  0  0  0  0  0  0  0
   -4.8360   20.3650  -33.4250 C   0  0  0  0  0  0  0  0  0  0  0  0
   -4.2460   21.5180  -33.5810 N   0  0  0  0  0  0  0  0  0  0  0  0
   -5.9640   20.2650  -32.6370 C   0  0  0  0  0  0  0  0  0  0  0  0
   -6.4650   21.4750  -31.9960 C   0  0  0  0  0  0  0  0  0  0  0  0
   -7.6580   22.0780  -32.3400 C   0  0  0  0  0  0  0  0  0  0  0  0
   -8.0660   23.2340  -31.6840 C   0  0  0  0  0  0  0  0  0  0  0  0
   -7.2350   23.7430  -30.6870 C   0  0  0  0  0  0  0  0  0  0  0  0
   -6.0550   23.1690  -30.3290 C   0  0  0  0  0  0  0  0  0  0  0  0
   -5.1810   23.6550  -29.3220 N   0  0  0  0  0  0  0  0  0  0  0  0
   -3.6340   24.3060  -29.7330 S   0  0  0  0  0  0  0  0  0  0  0  0
   -2.6850   22.9150  -30.3620 C   0  0  0  0  0  0  0  0  0  0  0  0
   -2.9510   24.8930  -28.5410 O   0  0  0  0  0  0  0  0  0  0  0  0
   -3.8340   25.2990  -30.8320 O   0  0  0  0  0  0  0  0  0  0  0  0
   -5.6580   22.0110  -30.9950 C   0  0  0  0  0  0  0  0  0  0  0  0
   -9.9303   19.0960  -31.6593 H   0  0  0  0  0  0  0  0  0  0  0  0
   -9.0694   19.9166  -33.0055 H   0  0  0  0  0  0  0  0  0  0  0  0
   -9.2390   18.1283  -33.0055 H   0  0  0  0  0  0  0  0  0  0  0  0
   -7.7958   19.6650  -30.8396 H   0  0  0  0  0  0  0  0  0  0  0  0
   -7.7778   17.8713  -31.2237 H   0  0  0  0  0  0  0  0  0  0  0  0
   -6.5170   17.0850  -32.9750 H   0  0  0  0  0  0  0  0  0  0  0  0
   -4.9820   16.1700  -34.2870 H   0  0  0  0  0  0  0  0  0  0  0  0
   -3.4920   19.3620  -34.6220 H   0  0  0  0  0  0  0  0  0  0  0  0
   -3.4020   21.6310  -34.1600 H   0  0  0  0  0  0  0  0  0  0  0  0
   -8.2855   21.6443  -33.1326 H   0  0  0  0  0  0  0  0  0  0  0  0
   -9.0128   23.7304  -31.9430 H   0  0  0  0  0  0  0  0  0  0  0  0
   -7.5502   24.6569  -30.1623 H   0  0  0  0  0  0  0  0  0  0  0  0
   -5.4970   23.6090  -28.3460 H   0  0  0  0  0  0  0  0  0  0  0  0
   -2.2869   22.3315  -29.5188 H   0  0  0  0  0  0  0  0  0  0  0  0
   -3.3356   22.2750  -30.9761 H   0  0  0  0  0  0  0  0  0  0  0  0
   -1.8518   23.2873  -30.9761 H   0  0  0  0  0  0  0  0  0  0  0  0
   -4.7092   21.5211  -30.7308 H   0  0  0  0  0  0  0  0  0  0  0  0
  1  2  1  0
  2  3  1  0
  3  4  1  0
  4  5  1  0
  5  6  2  3
  5  7  1  0
  7  8  1  0
  8  9  2  3
  8 10  1  0
 10 11  1  0
 11 12  2  0
 12 13  1  0
 13 14  2  0
 14 15  1  0
 15 16  1  0
 16 17  1  0
 17 18  1  0
 17 19  2  0
 17 20  2  0
 15 21  2  0
 10  3  2  0
 21 11  1  0
  1 22  1  0
  1 23  1  0
  1 24  1  0
  2 25  1  0
  2 26  1  0
  4 27  1  0
  6 28  1  0
  7 29  1  0
  9 30  1  0
 12 31  1  0
 13 32  1  0
 14 33  1  0
 16 34  1  0
 18 35  1  0
 18 36  1  0
 18 37  1  0
 21 38  1  0
M  END
>  <smiles>  (25) 
CCc1[nH]c(=N)[nH]c(=N)c1-c1cccc(NS(C)(=O)=O)c1

>  <score_type>  (25) 
oracle

>  <origin>  (25) 
adgpu

>  <m_score__min__energy>  (25) 
-7.8700000000000001

>  <m_primary>  (25) 
energy

$$$$
25:0
     RDKit          3D

 45 47  0  0  0  0  0  0  0  0999 V2000
   -3.0870   19.3050  -26.8010 C   0  0  0  0  0  0  0  0  0  0  0  0
   -2.5990   20.3850  -27.7130 C   0  0  0  0  0  0  0  0  0  0  0  0
   -1.7060   20.0880  -28.7470 C   0  0  0  0  0  0  0  0  0  0  0  0
   -1.2750   21.1270  -29.5790 C   0  0  0  0  0  0  0  0  0  0  0  0
   -0.3150   20.8590  -30.6920 C   0  0  0  0  0  0  0  0  0  0  0  0
   -1.7220   22.3920  -29.3600 N   0  0  0  0  0  0  0  0  0  0  0  0
   -2.5900   22.6630  -28.3500 C   0  0  0  0  0  0  0  0  0  0  0  0
   -3.1760   24.3330  -28.1010 S   0  0  0  0  0  0  0  0  0  0  0  0
   -4.3780   24.1950  -29.4230 C   0  0  0  0  0  0  0  0  0  0  0  0
   -5.5800   24.9070  -29.3530 C   0  0  0  0  0  0  0  0  0  0  0  0
   -6.5200   24.7940  -30.3790 C   0  0  0  0  0  0  0  0  0  0  0  0
   -6.2650   23.9680  -31.4780 C   0  0  0  0  0  0  0  0  0  0  0  0
   -5.0570   23.2450  -31.5610 C   0  0  0  0  0  0  0  0  0  0  0  0
   -4.7540   22.3940  -32.6810 N   0  0  0  0  0  0  0  0  0  0  0  0
   -4.5360   20.6750  -32.5700 S   0  0  0  0  0  0  0  0  0  0  0  0
   -3.8620   20.1920  -33.8220 O   0  0  0  0  0  0  0  0  0  0  0  0
   -3.6510   20.3800  -31.3920 O   0  0  0  0  0  0  0  0  0  0  0  0
   -6.0990   19.8530  -32.4100 C   0  0  0  0  0  0  0  0  0  0  0  0
   -7.2520   20.6290  -32.2040 C   0  0  0  0  0  0  0  0  0  0  0  0
   -8.5010   20.0240  -32.0560 C   0  0  0  0  0  0  0  0  0  0  0  0
   -8.6160   18.6360  -32.1180 C   0  0  0  0  0  0  0  0  0  0  0  0
   -9.8300   18.0490  -31.9670 F   0  0  0  0  0  0  0  0  0  0  0  0
   -7.4840   17.8500  -32.3400 C   0  0  0  0  0  0  0  0  0  0  0  0
   -6.2200   18.4440  -32.5050 C   0  0  0  0  0  0  0  0  0  0  0  0
   -5.0270   17.5560  -32.7410 C   0  0  0  0  0  0  0  0  0  0  0  0
   -4.1180   23.3720  -30.5250 C   0  0  0  0  0  0  0  0  0  0  0  0
   -3.0210   21.6650  -27.5360 N   0  0  0  0  0  0  0  0  0  0  0  0
   -2.9462   19.6166  -25.7555 H   0  0  0  0  0  0  0  0  0  0  0  0
   -4.1553   19.1218  -26.9883 H   0  0  0  0  0  0  0  0  0  0  0  0
   -2.5184   18.3822  -26.9883 H   0  0  0  0  0  0  0  0  0  0  0  0
   -1.3498   19.0591  -28.9031 H   0  0  0  0  0  0  0  0  0  0  0  0
    0.6647   20.5855  -30.2733 H   0  0  0  0  0  0  0  0  0  0  0  0
   -0.6930   20.0320  -31.3111 H   0  0  0  0  0  0  0  0  0  0  0  0
   -0.2100   21.7622  -31.3111 H   0  0  0  0  0  0  0  0  0  0  0  0
   -5.7847   25.5563  -28.4890 H   0  0  0  0  0  0  0  0  0  0  0  0
   -7.4638   25.3563  -30.3227 H   0  0  0  0  0  0  0  0  0  0  0  0
   -7.0106   23.8817  -32.2821 H   0  0  0  0  0  0  0  0  0  0  0  0
   -4.6310   22.8250  -33.6260 H   0  0  0  0  0  0  0  0  0  0  0  0
   -7.1694   21.7250  -32.1589 H   0  0  0  0  0  0  0  0  0  0  0  0
   -9.3953   20.6427  -31.8903 H   0  0  0  0  0  0  0  0  0  0  0  0
   -7.5816   16.7553  -32.3863 H   0  0  0  0  0  0  0  0  0  0  0  0
   -4.6061   17.2427  -31.7742 H   0  0  0  0  0  0  0  0  0  0  0  0
   -5.3380   16.6678  -33.3106 H   0  0  0  0  0  0  0  0  0  0  0  0
   -4.2654   18.1088  -33.3106 H   0  0  0  0  0  0  0  0  0  0  0  0
   -3.1685   22.8193  -30.5799 H   0  0  0  0  0  0  0  0  0  0  0  0
  1  2  1  0
  2  3  2  0
  3  4  1  0
  4  5  1  0
  4  6  2  0
  6  7  1  0
  7  8  1  0
  8  9  1  0
  9 10  2  0
 10 11  1  0
 11 12  2  0
 12 13  1  0
 13 14  1  0
 14 15  1  0
 15 16  2  0
 15 17  2  0
 15 18  1  0
 18 19  2  0
 19 20  1  0
 20 21  2  0
 21 22  1  0
 21 23  1  0
 23 24  2  0
 24 25  1  0
 13 26  2  0
  7 27  2  0
 27  2  1  0
 26  9  1  0
 24 18  1  0
  1 28  1  0
  1 29  1  0
  1 30  1  0
  3 31  1  0
  5 32  1  0
  5 33  1  0
  5 34  1  0
 10 35  1  0
 11 36  1  0
 12 37  1  0
 14 38  1  0
 19 39  1  0
 20 40  1  0
 23 41  1  0
 25 42  1  0
 25 43  1  0
 25 44  1  0
 26 45  1  0
M  END
>  <UniqueID>  (26) 
25

>  <SMILES>  (26) 
Cc1cc(C)nc(Sc2cccc(NS(=O)(=O)c3ccc(F)cc3C)c2)n1

>  <Energy>  (26) 
45.438553885047405

>  <Genealogy>  (26) 
Cc1cc(C)nc(Sc2cccc(NS(=O)(=O)c3ccc(F)cc3C)c2)n1 (3D coordinates assigned)
Cc1cc(C)nc(Sc2cccc(NS(=O)(=O)c3ccc(F)cc3C)c2)n1 (optimized conformer: 45.438553885047405 kcal/mol)

>  <smiles>  (26) 
Cc1cc(C)nc(Sc2cccc(NS(=O)(=O)c3ccc(F)cc3C)c2)n1

>  <score_type>  (26) 
oracle

>  <origin>  (26) 
adgpu

>  <m_score__min__energy>  (26) 
-9.6099999999999994

>  <m_primary>  (26) 
energy

$$$$
26:0
     RDKit          3D

 62 66  0  0  0  0  0  0  0  0999 V2000
   -9.2883   21.1446  -31.8489 H   0  0  0  0  0  0  0  0  0  0  0  0
   -8.5720   21.8890  -31.4710 C   0  0  0  0  0  0  0  0  0  0  0  0
   -8.1500   21.8400  -30.1390 C   0  0  0  0  0  0  0  0  0  0  0  0
   -8.5325   21.0551  -29.4699 H   0  0  0  0  0  0  0  0  0  0  0  0
   -7.2430   22.7870  -29.6570 C   0  0  0  0  0  0  0  0  0  0  0  0
   -6.9138   22.7450  -28.6083 H   0  0  0  0  0  0  0  0  0  0  0  0
   -6.7490   23.7930  -30.5050 C   0  0  0  0  0  0  0  0  0  0  0  0
   -5.8210   24.8500  -29.9680 C   0  0  0  0  0  0  0  0  0  0  0  0
   -5.6214   24.6392  -28.9070 H   0  0  0  0  0  0  0  0  0  0  0  0
   -6.3116   25.8258  -30.0991 H   0  0  0  0  0  0  0  0  0  0  0  0
   -4.4820   24.8920  -30.7240 C   0  0  0  0  0  0  0  0  0  0  0  0
   -3.9413   25.8066  -30.4390 H   0  0  0  0  0  0  0  0  0  0  0  0
   -4.6989   24.8792  -31.8023 H   0  0  0  0  0  0  0  0  0  0  0  0
   -3.6310   23.7130  -30.4110 N   0  0  0  0  0  0  0  0  0  0  0  0
   -2.7720   23.7970  -29.3320 C   0  0  0  0  0  0  0  0  0  0  0  0
   -2.7280   24.9000  -28.6270 N   0  0  0  0  0  0  0  0  0  0  0  0
   -1.8280   25.2230  -27.5560 C   0  0  0  0  0  0  0  0  0  0  0  0
   -0.4650   25.4500  -27.8170 C   0  0  0  0  0  0  0  0  0  0  0  0
   -0.0763   25.3301  -28.8390 H   0  0  0  0  0  0  0  0  0  0  0  0
    0.3980   25.8270  -26.7850 C   0  0  0  0  0  0  0  0  0  0  0  0
    1.4666   25.9852  -26.9925 H   0  0  0  0  0  0  0  0  0  0  0  0
   -0.0940   26.0030  -25.4920 C   0  0  0  0  0  0  0  0  0  0  0  0
    0.5890   26.2920  -24.6796 H   0  0  0  0  0  0  0  0  0  0  0  0
   -1.4530   25.8130  -25.2260 C   0  0  0  0  0  0  0  0  0  0  0  0
   -1.8374   25.9639  -24.2065 H   0  0  0  0  0  0  0  0  0  0  0  0
   -2.3310   25.4300  -26.2550 C   0  0  0  0  0  0  0  0  0  0  0  0
   -3.7950   25.2470  -25.9680 C   0  0  0  0  0  0  0  0  0  0  0  0
   -3.9556   25.2269  -24.8800 H   0  0  0  0  0  0  0  0  0  0  0  0
   -4.3618   26.0813  -26.4070 H   0  0  0  0  0  0  0  0  0  0  0  0
   -4.1390   24.2989  -26.4070 H   0  0  0  0  0  0  0  0  0  0  0  0
   -1.9970   22.7250  -28.9880 N   0  0  0  0  0  0  0  0  0  0  0  0
   -1.4030   22.7470  -28.1300 H   0  0  0  0  0  0  0  0  0  0  0  0
   -1.9960   21.5820  -29.7110 C   0  0  0  0  0  0  0  0  0  0  0  0
   -1.2590   20.6250  -29.3500 O   0  0  0  0  0  0  0  0  0  0  0  0
   -2.8060   21.4740  -30.8450 C   0  0  0  0  0  0  0  0  0  0  0  0
   -2.7940   20.3040  -31.6300 C   0  0  0  0  0  0  0  0  0  0  0  0
   -2.1484   19.4622  -31.3391 H   0  0  0  0  0  0  0  0  0  0  0  0
   -3.5930   20.1980  -32.7760 C   0  0  0  0  0  0  0  0  0  0  0  0
   -3.5680   18.9670  -33.6070 C   0  0  0  0  0  0  0  0  0  0  0  0
   -4.7580   18.4360  -34.1350 C   0  0  0  0  0  0  0  0  0  0  0  0
   -5.7159   18.9375  -33.9327 H   0  0  0  0  0  0  0  0  0  0  0  0
   -4.7340   17.2760  -34.9150 C   0  0  0  0  0  0  0  0  0  0  0  0
   -5.6723   16.8703  -35.3212 H   0  0  0  0  0  0  0  0  0  0  0  0
   -3.5160   16.6250  -35.1830 C   0  0  0  0  0  0  0  0  0  0  0  0
   -3.4390   15.4610  -35.9600 O   0  0  0  0  0  0  0  0  0  0  0  0
   -3.4370   14.1380  -35.4300 C   0  0  0  0  0  0  0  0  0  0  0  0
   -3.4371   14.1833  -34.3309 H   0  0  0  0  0  0  0  0  0  0  0  0
   -4.3343   13.6034  -35.7750 H   0  0  0  0  0  0  0  0  0  0  0  0
   -2.5381   13.6062  -35.7750 H   0  0  0  0  0  0  0  0  0  0  0  0
   -2.3310   17.1520  -34.6570 C   0  0  0  0  0  0  0  0  0  0  0  0
   -1.3734   16.6505  -34.8608 H   0  0  0  0  0  0  0  0  0  0  0  0
   -2.3540   18.3100  -33.8750 C   0  0  0  0  0  0  0  0  0  0  0  0
   -1.4149   18.7108  -33.4658 H   0  0  0  0  0  0  0  0  0  0  0  0
   -4.4100   21.2770  -33.1310 C   0  0  0  0  0  0  0  0  0  0  0  0
   -5.0377   21.2100  -34.0318 H   0  0  0  0  0  0  0  0  0  0  0  0
   -4.4380   22.4370  -32.3560 C   0  0  0  0  0  0  0  0  0  0  0  0
   -5.0938   23.2682  -32.6544 H   0  0  0  0  0  0  0  0  0  0  0  0
   -3.6390   22.5670  -31.1920 C   0  0  0  0  0  0  0  0  0  0  0  0
   -7.1740   23.8340  -31.8430 C   0  0  0  0  0  0  0  0  0  0  0  0
   -6.7907   24.6151  -32.5160 H   0  0  0  0  0  0  0  0  0  0  0  0
   -8.0830   22.8850  -32.3230 C   0  0  0  0  0  0  0  0  0  0  0  0
   -8.4136   22.9220  -33.3715 H   0  0  0  0  0  0  0  0  0  0  0  0
  1  2  1  0
  2  3  2  0
  3  4  1  0
  3  5  1  0
  5  6  1  0
  5  7  2  0
  7  8  1  0
  8  9  1  0
  8 10  1  0
  8 11  1  0
 11 12  1  0
 11 13  1  0
 11 14  1  0
 14 15  1  0
 15 16  2  0
 16 17  1  0
 17 18  2  0
 18 19  1  0
 18 20  1  0
 20 21  1  0
 20 22  2  0
 22 23  1  0
 22 24  1  0
 24 25  1  0
 24 26  2  0
 26 27  1  0
 27 28  1  0
 27 29  1  0
 27 30  1  0
 15 31  1  0
 31 32  1  0
 31 33  1  0
 33 34  2  0
 33 35  1  0
 35 36  2  0
 36 37  1  0
 36 38  1  0
 38 39  1  0
 39 40  2  0
 40 41  1  0
 40 42  1  0
 42 43  1  0
 42 44  2  0
 44 45  1  0
 45 46  1  0
 46 47  1  0
 46 48  1  0
 46 49  1  0
 44 50  1  0
 50 51  1  0
 50 52  2  0
 52 53  1  0
 38 54  2  0
 54 55  1  0
 54 56  1  0
 56 57  1  0
 56 58  2  0
  7 59  1  0
 59 60  1  0
 59 61  2  0
 61 62  1  0
 61  2  1  0
 58 14  1  0
 26 17  1  0
 58 35  1  0
 52 39  1  0
M  END
>  <UniqueID>  (27) 
26

>  <SMILES>  (27) 
COc1ccc(-c2ccc3c(c2)c(=O)[nH]/c(=N\c2ccccc2C)n3CCc2ccccc2)cc1

>  <Energy>  (27) 
90.96145683505047

>  <Genealogy>  (27) 
COc1ccc(-c2ccc3c(c2)c(=O)[nH]/c(=N\c2ccccc2C)n3CCc2ccccc2)cc1 (cis-trans isomerization)
COc1ccc(-c2ccc3c(c2)c(=O)[nH]/c(=N\c2ccccc2C)n3CCc2ccccc2)cc1 (3D coordinates assigned)
COc1ccc(-c2ccc3c(c2)c(=O)[nH]/c(=N\c2ccccc2C)n3CCc2ccccc2)cc1 (optimized conformer: 90.96145683505047 kcal/mol)

>  <smiles>  (27) 
COc1ccc(-c2ccc3c(c2)c(=O)[nH]c(=Nc2ccccc2C)n3CCc2ccccc2)cc1

>  <score_type>  (27) 
oracle

>  <origin>  (27) 
adgpu

>  <m_score__min__energy>  (27) 
-9.9499999999999993

>  <m_primary>  (27) 
energy

$$$$
27:0
     RDKit          3D

 68 71  0  0  0  0  0  0  0  0999 V2000
    0.3510   28.2370  -37.6940 C   0  0  0  0  0  0  0  0  0  0  0  0
    1.4600   27.6760  -37.0000 O   0  0  0  0  0  0  0  0  0  0  0  0
    1.5410   26.3380  -36.5870 C   0  0  0  0  0  0  0  0  0  0  0  0
    2.7950   25.8230  -36.2420 C   0  0  0  0  0  0  0  0  0  0  0  0
    2.9280   24.4960  -35.8210 C   0  0  0  0  0  0  0  0  0  0  0  0
    1.8010   23.6630  -35.7370 C   0  0  0  0  0  0  0  0  0  0  0  0
    1.9380   22.2330  -35.2900 C   0  0  0  0  0  0  0  0  0  0  0  0
    0.9370   21.9120  -34.2740 N   0  0  0  0  0  0  0  0  0  0  0  0
   -0.2990   21.2510  -34.5980 C   0  0  0  0  0  0  0  0  0  0  0  0
   -0.5250   20.9090  -35.7910 O   0  0  0  0  0  0  0  0  0  0  0  0
   -1.3030   20.9340  -33.5520 C   0  0  0  0  0  0  0  0  0  0  0  0
   -1.8690   19.6510  -33.4410 C   0  0  0  0  0  0  0  0  0  0  0  0
   -2.8250   19.3940  -32.4560 C   0  0  0  0  0  0  0  0  0  0  0  0
   -3.3820   18.1130  -32.3550 O   0  0  0  0  0  0  0  0  0  0  0  0
   -4.6680   17.7620  -32.7890 C   0  0  0  0  0  0  0  0  0  0  0  0
   -4.8060   16.6930  -33.6790 C   0  0  0  0  0  0  0  0  0  0  0  0
   -6.0710   16.2990  -34.1190 C   0  0  0  0  0  0  0  0  0  0  0  0
   -7.2100   16.9820  -33.6860 C   0  0  0  0  0  0  0  0  0  0  0  0
   -7.0970   18.0880  -32.8220 C   0  0  0  0  0  0  0  0  0  0  0  0
   -8.2720   18.8190  -32.3970 N   0  0  0  0  0  0  0  0  0  0  0  0
   -8.6700   20.0490  -33.0900 C   0  0  0  0  0  0  0  0  0  0  0  0
   -9.0810   18.3340  -31.2730 C   0  0  0  0  0  0  0  0  0  0  0  0
   -5.8130   18.4750  -32.3860 C   0  0  0  0  0  0  0  0  0  0  0  0
   -3.1790   20.3800  -31.5870 N   0  0  0  0  0  0  0  0  0  0  0  0
   -2.6550   21.6310  -31.6530 C   0  0  0  0  0  0  0  0  0  0  0  0
   -3.0600   22.5800  -30.7030 O   0  0  0  0  0  0  0  0  0  0  0  0
   -4.2980   23.2410  -30.6900 C   0  0  0  0  0  0  0  0  0  0  0  0
   -5.5020   22.5560  -30.9390 C   0  0  0  0  0  0  0  0  0  0  0  0
   -6.7320   23.2380  -30.9110 C   0  0  0  0  0  0  0  0  0  0  0  0
   -8.0040   22.5190  -31.1770 C   0  0  0  0  0  0  0  0  0  0  0  0
   -8.9180   23.0240  -32.1580 N   0  0  0  0  0  0  0  0  0  0  0  0
   -8.3020   21.4360  -30.5220 N   0  0  0  0  0  0  0  0  0  0  0  0
   -6.7440   24.6110  -30.6110 C   0  0  0  0  0  0  0  0  0  0  0  0
   -5.5540   25.2860  -30.3400 C   0  0  0  0  0  0  0  0  0  0  0  0
   -4.3340   24.6030  -30.3720 C   0  0  0  0  0  0  0  0  0  0  0  0
   -3.1550   25.2870  -30.0930 O   0  0  0  0  0  0  0  0  0  0  0  0
   -1.6930   21.9240  -32.6330 C   0  0  0  0  0  0  0  0  0  0  0  0
    0.5420   24.1730  -36.0910 C   0  0  0  0  0  0  0  0  0  0  0  0
    0.4110   25.5010  -36.5100 C   0  0  0  0  0  0  0  0  0  0  0  0
   -0.3858   28.6097  -36.9673 H   0  0  0  0  0  0  0  0  0  0  0  0
    0.6963   29.0688  -38.3255 H   0  0  0  0  0  0  0  0  0  0  0  0
   -0.1145   27.4660  -38.3255 H   0  0  0  0  0  0  0  0  0  0  0  0
    3.6844   26.4675  -36.3024 H   0  0  0  0  0  0  0  0  0  0  0  0
    3.9202   24.1031  -35.5544 H   0  0  0  0  0  0  0  0  0  0  0  0
    1.7996   21.5690  -36.1560 H   0  0  0  0  0  0  0  0  0  0  0  0
    2.9395   22.0916  -34.8575 H   0  0  0  0  0  0  0  0  0  0  0  0
    1.1940   22.0820  -33.2780 H   0  0  0  0  0  0  0  0  0  0  0  0
   -1.5589   18.8510  -34.1294 H   0  0  0  0  0  0  0  0  0  0  0  0
   -3.9126   16.1590  -34.0348 H   0  0  0  0  0  0  0  0  0  0  0  0
   -6.1711   15.4480  -34.8088 H   0  0  0  0  0  0  0  0  0  0  0  0
   -8.2040   16.6529  -34.0230 H   0  0  0  0  0  0  0  0  0  0  0  0
   -8.9203   20.8226  -32.3492 H   0  0  0  0  0  0  0  0  0  0  0  0
   -7.8395   20.3999  -33.7203 H   0  0  0  0  0  0  0  0  0  0  0  0
   -9.5486   19.8469  -33.7203 H   0  0  0  0  0  0  0  0  0  0  0  0
   -8.6018   18.6213  -30.3255 H   0  0  0  0  0  0  0  0  0  0  0  0
  -10.0857   18.7789  -31.3255 H   0  0  0  0  0  0  0  0  0  0  0  0
   -9.1620   17.2382  -31.3255 H   0  0  0  0  0  0  0  0  0  0  0  0
   -5.7047   19.3455  -31.7223 H   0  0  0  0  0  0  0  0  0  0  0  0
   -5.4810   21.4781  -31.1574 H   0  0  0  0  0  0  0  0  0  0  0  0
   -8.7350   23.9270  -32.6480 H   0  0  0  0  0  0  0  0  0  0  0  0
   -9.8330   22.5530  -32.3280 H   0  0  0  0  0  0  0  0  0  0  0  0
   -7.6490   21.0170  -29.8210 H   0  0  0  0  0  0  0  0  0  0  0  0
   -9.2050   20.9400  -30.6950 H   0  0  0  0  0  0  0  0  0  0  0  0
   -7.6987   25.1571  -30.5898 H   0  0  0  0  0  0  0  0  0  0  0  0
   -5.5751   26.3593  -30.1003 H   0  0  0  0  0  0  0  0  0  0  0  0
   -1.2448   22.9274  -32.6817 H   0  0  0  0  0  0  0  0  0  0  0  0
   -0.3456   23.5253  -36.0386 H   0  0  0  0  0  0  0  0  0  0  0  0
   -0.5801   25.8938  -36.7809 H   0  0  0  0  0  0  0  0  0  0  0  0
  1  2  1  0
  2  3  1  0
  3  4  2  0
  4  5  1  0
  5  6  2  0
  6  7  1  0
  7  8  1  0
  8  9  1  0
  9 10  2  0
  9 11  1  0
 11 12  2  0
 12 13  1  0
 13 14  1  0
 14 15  1  0
 15 16  2  0
 16 17  1  0
 17 18  2  0
 18 19  1  0
 19 20  1  0
 20 21  1  0
 20 22  1  0
 19 23  2  0
 13 24  2  0
 24 25  1  0
 25 26  1  0
 26 27  1  0
 27 28  2  0
 28 29  1  0
 29 30  1  0
 30 31  1  0
 30 32  2  0
 29 33  2  0
 33 34  1  0
 34 35  2  0
 35 36  1  0
 25 37  2  0
  6 38  1  0
 38 39  2  0
 39  3  1  0
 37 11  1  0
 23 15  1  0
 35 27  1  0
  1 40  1  0
  1 41  1  0
  1 42  1  0
  4 43  1  0
  5 44  1  0
  7 45  1  0
  7 46  1  0
  8 47  1  0
 12 48  1  0
 16 49  1  0
 17 50  1  0
 18 51  1  0
 21 52  1  0
 21 53  1  0
 21 54  1  0
 22 55  1  0
 22 56  1  0
 22 57  1  0
 23 58  1  0
 28 59  1  0
 31 60  1  0
 31 61  1  0
 32 62  1  0
 32 63  1  0
 33 64  1  0
 34 65  1  0
 37 66  1  0
 38 67  1  0
 39 68  1  0
M  CHG  2  32   1  36  -1
M  END
>  <UniqueID>  (28) 
27

>  <SMILES>  (28) 
COc1ccc(CNC(=O)c2cc(Oc3cccc(N(C)C)c3)nc(Oc3cc(C(N)=[NH2+])ccc3[O-])c2)cc1

>  <Energy>  (28) 
86.86847546608172

>  <Genealogy>  (28) 
COc1ccc(CNC(=O)c2cc(Oc3cccc(N(C)C)c3)nc(Oc3cc(C(N)=[NH2+])ccc3[O-])c2)cc1 (protonated)
COc1ccc(CNC(=O)c2cc(Oc3cccc(N(C)C)c3)nc(Oc3cc(C(N)=[NH2+])ccc3[O-])c2)cc1 (3D coordinates assigned)
COc1ccc(CNC(=O)c2cc(Oc3cccc(N(C)C)c3)nc(Oc3cc(C(N)=[NH2+])ccc3[O-])c2)cc1 (optimized conformer: 86.86847546608172 kcal/mol)

>  <smiles>  (28) 
COc1ccc(CNC(=O)c2cc(Oc3cccc(N(C)C)c3)nc(Oc3cc(C(=N)N)ccc3O)c2)cc1

>  <score_type>  (28) 
oracle

>  <origin>  (28) 
adgpu

>  <m_score__min__energy>  (28) 
-14.08

>  <m_primary>  (28) 
energy

$$$$
28:0
     RDKit          3D

 25 26  0  0  0  0  0  0  0  0999 V2000
   -9.3500   18.1730  -31.2270 N   0  0  0  0  0  0  0  0  0  0  0  0
   -8.2690   18.5530  -32.0870 C   0  0  0  0  0  0  0  0  0  0  0  0
   -7.3580   17.5740  -32.5150 C   0  0  0  0  0  0  0  0  0  0  0  0
   -6.3060   17.9100  -33.3720 C   0  0  0  0  0  0  0  0  0  0  0  0
   -6.1570   19.2250  -33.8130 C   0  0  0  0  0  0  0  0  0  0  0  0
   -7.0530   20.2100  -33.3920 C   0  0  0  0  0  0  0  0  0  0  0  0
   -8.1050   19.8880  -32.5230 C   0  0  0  0  0  0  0  0  0  0  0  0
   -9.2110   21.2040  -31.9920 S   0  0  0  0  0  0  0  0  0  0  0  0
   -7.8630   22.2600  -31.4610 C   0  0  0  0  0  0  0  0  0  0  0  0
   -7.4310   22.2370  -30.1270 C   0  0  0  0  0  0  0  0  0  0  0  0
   -6.3770   23.0600  -29.7180 C   0  0  0  0  0  0  0  0  0  0  0  0
   -5.7540   23.9120  -30.6380 C   0  0  0  0  0  0  0  0  0  0  0  0
   -4.4320   24.9420  -30.1230 Cl  0  0  0  0  0  0  0  0  0  0  0  0
   -6.1890   23.9410  -31.9670 C   0  0  0  0  0  0  0  0  0  0  0  0
   -7.2440   23.1190  -32.3780 C   0  0  0  0  0  0  0  0  0  0  0  0
   -9.6600   18.8050  -30.4550 H   0  0  0  0  0  0  0  0  0  0  0  0
   -9.8360   17.2550  -31.3190 H   0  0  0  0  0  0  0  0  0  0  0  0
   -7.4730   16.5348  -32.1733 H   0  0  0  0  0  0  0  0  0  0  0  0
   -5.5951   17.1368  -33.6989 H   0  0  0  0  0  0  0  0  0  0  0  0
   -5.3329   19.4864  -34.4931 H   0  0  0  0  0  0  0  0  0  0  0  0
   -6.9326   21.2450  -33.7444 H   0  0  0  0  0  0  0  0  0  0  0  0
   -7.9216   21.5711  -29.4018 H   0  0  0  0  0  0  0  0  0  0  0  0
   -6.0369   23.0380  -28.6721 H   0  0  0  0  0  0  0  0  0  0  0  0
   -5.7010   24.6110  -32.6901 H   0  0  0  0  0  0  0  0  0  0  0  0
   -7.5877   23.1474  -33.4225 H   0  0  0  0  0  0  0  0  0  0  0  0
  1  2  1  0
  2  3  2  0
  3  4  1  0
  4  5  2  0
  5  6  1  0
  6  7  2  0
  7  8  1  0
  8  9  1  0
  9 10  2  0
 10 11  1  0
 11 12  2  0
 12 13  1  0
 12 14  1  0
 14 15  2  0
  7  2  1  0
 15  9  1  0
  1 16  1  0
  1 17  1  0
  3 18  1  0
  4 19  1  0
  5 20  1  0
  6 21  1  0
 10 22  1  0
 11 23  1  0
 14 24  1  0
 15 25  1  0
M  END
>  <UniqueID>  (29) 
28

>  <SMILES>  (29) 
Nc1ccccc1Sc1ccc(Cl)cc1

>  <Energy>  (29) 
21.542075111636738

>  <Genealogy>  (29) 
Nc1ccccc1Sc1ccc(Cl)cc1 (3D coordinates assigned)
Nc1ccccc1Sc1ccc(Cl)cc1 (optimized conformer: 21.542075111636738 kcal/mol)

>  <smiles>  (29) 
Nc1ccccc1Sc1ccc(Cl)cc1

>  <score_type>  (29) 
oracle

>  <origin>  (29) 
adgpu

>  <m_score__min__energy>  (29) 
-7.0899999999999999

>  <m_primary>  (29) 
energy

$$$$
29:0
     RDKit          3D

 46 48  0  0  0  0  0  0  0  0999 V2000
   -0.8500   18.4540  -27.4590 C   0  0  0  0  0  0  0  0  0  0  0  0
   -0.0810   19.6500  -27.3810 O   0  0  0  0  0  0  0  0  0  0  0  0
   -0.6230   20.9420  -27.4460 C   0  0  0  0  0  0  0  0  0  0  0  0
   -2.0070   21.1850  -27.3600 C   0  0  0  0  0  0  0  0  0  0  0  0
   -2.5040   22.4860  -27.4700 C   0  0  0  0  0  0  0  0  0  0  0  0
   -1.6290   23.5620  -27.6880 C   0  0  0  0  0  0  0  0  0  0  0  0
   -2.1720   24.9540  -27.8930 C   0  0  0  0  0  0  0  0  0  0  0  0
   -2.2880   25.2850  -29.3170 N   0  0  0  0  0  0  0  0  0  0  0  0
   -3.6020   24.4300  -30.0770 S   0  0  0  0  0  0  0  0  0  0  0  0
   -4.2840   25.3020  -31.0960 O   0  0  0  0  0  0  0  0  0  0  0  0
   -4.6090   24.0440  -29.0310 O   0  0  0  0  0  0  0  0  0  0  0  0
   -2.9830   22.9650  -30.8370 C   0  0  0  0  0  0  0  0  0  0  0  0
   -1.6450   22.5830  -30.6730 C   0  0  0  0  0  0  0  0  0  0  0  0
   -1.1840   21.3870  -31.2250 C   0  0  0  0  0  0  0  0  0  0  0  0
   -2.0490   20.5730  -31.9600 C   0  0  0  0  0  0  0  0  0  0  0  0
   -3.3900   20.9500  -32.1510 C   0  0  0  0  0  0  0  0  0  0  0  0
   -4.2940   20.1370  -33.0010 C   0  0  0  0  0  0  0  0  0  0  0  0
   -4.0080   18.9330  -33.2400 O   0  0  0  0  0  0  0  0  0  0  0  0
   -5.5300   20.6610  -33.5000 N   0  0  0  0  0  0  0  0  0  0  0  0
   -6.7680   20.6860  -32.7790 C   0  0  0  0  0  0  0  0  0  0  0  0
   -7.1530   21.8670  -32.1310 C   0  0  0  0  0  0  0  0  0  0  0  0
   -8.3300   21.9080  -31.3780 C   0  0  0  0  0  0  0  0  0  0  0  0
   -9.1170   20.7620  -31.2470 C   0  0  0  0  0  0  0  0  0  0  0  0
   -8.7290   19.5720  -31.8690 C   0  0  0  0  0  0  0  0  0  0  0  0
   -9.4750   18.4510  -31.7070 F   0  0  0  0  0  0  0  0  0  0  0  0
   -7.5640   19.5330  -32.6440 C   0  0  0  0  0  0  0  0  0  0  0  0
   -3.8490   22.1500  -31.5790 C   0  0  0  0  0  0  0  0  0  0  0  0
   -0.2470   23.3250  -27.7340 C   0  0  0  0  0  0  0  0  0  0  0  0
    0.2490   22.0230  -27.6120 C   0  0  0  0  0  0  0  0  0  0  0  0
   -1.0787   18.0983  -26.4435 H   0  0  0  0  0  0  0  0  0  0  0  0
   -1.7881   18.6557  -27.9969 H   0  0  0  0  0  0  0  0  0  0  0  0
   -0.2772   17.6842  -27.9969 H   0  0  0  0  0  0  0  0  0  0  0  0
   -2.7010   20.3457  -27.2053 H   0  0  0  0  0  0  0  0  0  0  0  0
   -3.5855   22.6681  -27.3854 H   0  0  0  0  0  0  0  0  0  0  0  0
   -3.1671   25.0207  -27.4290 H   0  0  0  0  0  0  0  0  0  0  0  0
   -1.4736   25.6669  -27.4303 H   0  0  0  0  0  0  0  0  0  0  0  0
   -0.9560   23.2276  -30.1076 H   0  0  0  0  0  0  0  0  0  0  0  0
   -0.1363   21.0844  -31.0808 H   0  0  0  0  0  0  0  0  0  0  0  0
   -1.6789   19.6315  -32.3919 H   0  0  0  0  0  0  0  0  0  0  0  0
   -6.5258   22.7667  -32.2152 H   0  0  0  0  0  0  0  0  0  0  0  0
   -8.6365   22.8440  -30.8881 H   0  0  0  0  0  0  0  0  0  0  0  0
  -10.0428   20.7958  -30.6540 H   0  0  0  0  0  0  0  0  0  0  0  0
   -7.2703   18.6004  -33.1480 H   0  0  0  0  0  0  0  0  0  0  0  0
   -4.8979   22.4520  -31.7152 H   0  0  0  0  0  0  0  0  0  0  0  0
    0.4491   24.1664  -27.8665 H   0  0  0  0  0  0  0  0  0  0  0  0
    1.3344   21.8476  -27.6469 H   0  0  0  0  0  0  0  0  0  0  0  0
  1  2  1  0
  2  3  1  0
  3  4  2  0
  4  5  1  0
  5  6  2  0
  6  7  1  0
  7  8  1  0
  8  9  1  0
  9 10  2  0
  9 11  2  0
  9 12  1  0
 12 13  2  0
 13 14  1  0
 14 15  2  0
 15 16  1  0
 16 17  1  0
 17 18  2  0
 17 19  1  0
 19 20  1  0
 20 21  2  0
 21 22  1  0
 22 23  2  0
 23 24  1  0
 24 25  1  0
 24 26  2  0
 16 27  2  0
  6 28  1  0
 28 29  2  0
 29  3  1  0
 27 12  1  0
 26 20  1  0
  1 30  1  0
  1 31  1  0
  1 32  1  0
  4 33  1  0
  5 34  1  0
  7 35  1  0
  7 36  1  0
 13 37  1  0
 14 38  1  0
 15 39  1  0
 21 40  1  0
 22 41  1  0
 23 42  1  0
 26 43  1  0
 27 44  1  0
 28 45  1  0
 29 46  1  0
M  CHG  2   8  -1  19  -1
M  END
>  <UniqueID>  (30) 
29

>  <SMILES>  (30) 
COc1ccc(C[N-]S(=O)(=O)c2cccc(C(=O)[N-]c3cccc(F)c3)c2)cc1

>  <Energy>  (30) 
49.25927118033943

>  <Genealogy>  (30) 
COc1ccc(C[N-]S(=O)(=O)c2cccc(C(=O)[N-]c3cccc(F)c3)c2)cc1 (protonated)
COc1ccc(C[N-]S(=O)(=O)c2cccc(C(=O)[N-]c3cccc(F)c3)c2)cc1 (3D coordinates assigned)
COc1ccc(C[N-]S(=O)(=O)c2cccc(C(=O)[N-]c3cccc(F)c3)c2)cc1 (optimized conformer: 49.25927118033943 kcal/mol)

>  <smiles>  (30) 
COc1ccc(CNS(=O)(=O)c2cccc(C(=O)Nc3cccc(F)c3)c2)cc1

>  <score_type>  (30) 
oracle

>  <origin>  (30) 
adgpu

>  <m_score__min__energy>  (30) 
-10.42

>  <m_primary>  (30) 
energy

$$$$
30:0
     RDKit          3D

 40 42  0  0  0  0  0  0  0  0999 V2000
   -0.8620   26.5120  -28.0670 C   0  0  0  0  0  0  0  0  0  0  0  0
   -1.4920   25.6230  -28.9830 O   0  0  0  0  0  0  0  0  0  0  0  0
   -1.4170   24.2230  -28.9160 C   0  0  0  0  0  0  0  0  0  0  0  0
   -0.2110   23.5610  -28.6060 C   0  0  0  0  0  0  0  0  0  0  0  0
   -0.1680   22.1680  -28.5240 C   0  0  0  0  0  0  0  0  0  0  0  0
   -1.3190   21.4170  -28.7570 C   0  0  0  0  0  0  0  0  0  0  0  0
   -2.5190   22.0570  -29.0700 C   0  0  0  0  0  0  0  0  0  0  0  0
   -2.5820   23.4580  -29.1500 C   0  0  0  0  0  0  0  0  0  0  0  0
   -3.9160   24.1150  -29.4130 C   0  0  0  0  0  0  0  0  0  0  0  0
   -4.1750   24.2030  -30.8620 N   0  0  0  0  0  0  0  0  0  0  0  0
   -5.5470   24.6360  -31.1710 C   0  0  0  0  0  0  0  0  0  0  0  0
   -6.4070   23.4750  -31.5710 C   0  0  0  0  0  0  0  0  0  0  0  0
   -7.7820   23.4560  -31.5990 C   0  0  0  0  0  0  0  0  0  0  0  0
   -8.1480   22.2530  -31.9640 O   0  0  0  0  0  0  0  0  0  0  0  0
   -7.0510   21.5530  -32.1620 C   0  0  0  0  0  0  0  0  0  0  0  0
   -7.0450   20.1260  -32.5380 C   0  0  0  0  0  0  0  0  0  0  0  0
   -7.9400   19.2310  -31.9290 C   0  0  0  0  0  0  0  0  0  0  0  0
   -7.9140   17.8730  -32.2610 C   0  0  0  0  0  0  0  0  0  0  0  0
   -6.9940   17.3980  -33.1990 C   0  0  0  0  0  0  0  0  0  0  0  0
   -6.0980   18.2810  -33.8080 C   0  0  0  0  0  0  0  0  0  0  0  0
   -4.9340   17.6810  -34.9770 Cl  0  0  0  0  0  0  0  0  0  0  0  0
   -6.1240   19.6410  -33.4830 C   0  0  0  0  0  0  0  0  0  0  0  0
   -5.9300   22.2750  -31.9480 N   0  0  0  0  0  0  0  0  0  0  0  0
   -1.0856   26.1965  -27.0372 H   0  0  0  0  0  0  0  0  0  0  0  0
    0.2260   26.4939  -28.2280 H   0  0  0  0  0  0  0  0  0  0  0  0
   -1.2396   27.5325  -28.2280 H   0  0  0  0  0  0  0  0  0  0  0  0
    0.7028   24.1467  -28.4274 H   0  0  0  0  0  0  0  0  0  0  0  0
    0.7764   21.6619  -28.2749 H   0  0  0  0  0  0  0  0  0  0  0  0
   -1.2814   20.3194  -28.6941 H   0  0  0  0  0  0  0  0  0  0  0  0
   -3.4235   21.4591  -29.2557 H   0  0  0  0  0  0  0  0  0  0  0  0
   -4.7112   23.5208  -28.9391 H   0  0  0  0  0  0  0  0  0  0  0  0
   -3.8992   25.1318  -28.9936 H   0  0  0  0  0  0  0  0  0  0  0  0
   -3.5300   24.9330  -31.2500 H   0  0  0  0  0  0  0  0  0  0  0  0
   -5.9813   25.1136  -30.2803 H   0  0  0  0  0  0  0  0  0  0  0  0
   -5.5067   25.3444  -32.0116 H   0  0  0  0  0  0  0  0  0  0  0  0
   -8.4505   24.2960  -31.3591 H   0  0  0  0  0  0  0  0  0  0  0  0
   -8.6643   19.5999  -31.1879 H   0  0  0  0  0  0  0  0  0  0  0  0
   -8.6192   17.1773  -31.7828 H   0  0  0  0  0  0  0  0  0  0  0  0
   -6.9748   16.3291  -33.4582 H   0  0  0  0  0  0  0  0  0  0  0  0
   -5.4211   20.3339  -33.9687 H   0  0  0  0  0  0  0  0  0  0  0  0
  1  2  1  0
  2  3  1  0
  3  4  2  0
  4  5  1  0
  5  6  2  0
  6  7  1  0
  7  8  2  0
  8  9  1  0
  9 10  1  0
 10 11  1  0
 11 12  1  0
 12 13  2  0
 13 14  1  0
 14 15  1  0
 15 16  1  0
 16 17  2  0
 17 18  1  0
 18 19  2  0
 19 20  1  0
 20 21  1  0
 20 22  2  0
 15 23  2  0
  8  3  1  0
 23 12  1  0
 22 16  1  0
  1 24  1  0
  1 25  1  0
  1 26  1  0
  4 27  1  0
  5 28  1  0
  6 29  1  0
  7 30  1  0
  9 31  1  0
  9 32  1  0
 10 33  1  0
 11 34  1  0
 11 35  1  0
 13 36  1  0
 17 37  1  0
 18 38  1  0
 19 39  1  0
 22 40  1  0
M  END
>  <UniqueID>  (31) 
30

>  <SMILES>  (31) 
COc1ccccc1CNCc1coc(-c2cccc(Cl)c2)n1

>  <Energy>  (31) 
66.92774736554045

>  <Genealogy>  (31) 
COc1ccccc1CNCc1coc(-c2cccc(Cl)c2)n1 (3D coordinates assigned)
COc1ccccc1CNCc1coc(-c2cccc(Cl)c2)n1 (optimized conformer: 66.92774736554045 kcal/mol)

>  <smiles>  (31) 
COc1ccccc1CNCc1coc(-c2cccc(Cl)c2)n1

>  <score_type>  (31) 
oracle

>  <origin>  (31) 
adgpu

>  <m_score__min__energy>  (31) 
-8.8800000000000008

>  <m_primary>  (31) 
energy

$$$$
31:0
     RDKit          3D

 44 45  0  0  0  0  0  0  0  0999 V2000
   -3.9610   21.8680  -33.4580 C   0  0  0  0  0  0  0  0  0  0  0  0
   -3.5490   21.8090  -31.9920 C   0  0  0  0  0  0  0  0  0  0  0  0
   -4.5880   22.3750  -31.1270 N   0  0  0  0  0  0  0  0  0  0  0  0
   -5.9710   22.1840  -31.4520 C   0  0  0  0  0  0  0  0  0  0  0  0
   -6.8250   23.2870  -31.5850 C   0  0  0  0  0  0  0  0  0  0  0  0
   -8.1720   23.0950  -31.8960 C   0  0  0  0  0  0  0  0  0  0  0  0
   -8.6730   21.8050  -32.0890 C   0  0  0  0  0  0  0  0  0  0  0  0
   -7.8220   20.6900  -31.9920 C   0  0  0  0  0  0  0  0  0  0  0  0
   -8.3670   19.2940  -32.1550 C   0  0  0  0  0  0  0  0  0  0  0  0
   -7.3910   18.4420  -32.6420 F   0  0  0  0  0  0  0  0  0  0  0  0
   -9.4310   19.2830  -33.0410 F   0  0  0  0  0  0  0  0  0  0  0  0
   -8.8000   18.8280  -30.9280 F   0  0  0  0  0  0  0  0  0  0  0  0
   -6.4720   20.8900  -31.6520 C   0  0  0  0  0  0  0  0  0  0  0  0
   -4.1570   23.6070  -29.9800 S   0  0  0  0  0  0  0  0  0  0  0  0
   -3.8710   24.8740  -30.7360 O   0  0  0  0  0  0  0  0  0  0  0  0
   -5.3010   23.8680  -29.0400 O   0  0  0  0  0  0  0  0  0  0  0  0
   -2.7460   23.0620  -29.0350 C   0  0  0  0  0  0  0  0  0  0  0  0
   -1.7540   23.9750  -28.6150 C   0  0  0  0  0  0  0  0  0  0  0  0
   -1.8590   25.3670  -28.9720 N   0  0  0  0  0  0  0  0  0  0  0  0
   -0.6920   23.5320  -27.8640 N   0  0  0  0  0  0  0  0  0  0  0  0
    0.3700   24.4770  -27.4680 C   0  0  0  0  0  0  0  0  0  0  0  0
   -0.6220   22.2200  -27.4670 C   0  0  0  0  0  0  0  0  0  0  0  0
    0.3460   21.8280  -26.7550 O   0  0  0  0  0  0  0  0  0  0  0  0
   -1.5900   21.3240  -27.8370 N   0  0  0  0  0  0  0  0  0  0  0  0
   -1.4750   19.9100  -27.4330 C   0  0  0  0  0  0  0  0  0  0  0  0
   -2.6220   21.7210  -28.6420 C   0  0  0  0  0  0  0  0  0  0  0  0
   -3.4740   20.8740  -29.0330 O   0  0  0  0  0  0  0  0  0  0  0  0
   -5.0477   22.0236  -33.5275 H   0  0  0  0  0  0  0  0  0  0  0  0
   -3.4390   22.7006  -33.9523 H   0  0  0  0  0  0  0  0  0  0  0  0
   -3.6937   20.9224  -33.9523 H   0  0  0  0  0  0  0  0  0  0  0  0
   -3.3786   20.7598  -31.7090 H   0  0  0  0  0  0  0  0  0  0  0  0
   -2.6295   22.3990  -31.8643 H   0  0  0  0  0  0  0  0  0  0  0  0
   -6.4334   24.3052  -31.4441 H   0  0  0  0  0  0  0  0  0  0  0  0
   -8.8418   23.9626  -31.9895 H   0  0  0  0  0  0  0  0  0  0  0  0
   -9.7392   21.6610  -32.3181 H   0  0  0  0  0  0  0  0  0  0  0  0
   -5.8034   20.0235  -31.5420 H   0  0  0  0  0  0  0  0  0  0  0  0
   -1.7910   26.1290  -28.2670 H   0  0  0  0  0  0  0  0  0  0  0  0
   -2.0000   25.6720  -29.9590 H   0  0  0  0  0  0  0  0  0  0  0  0
    0.4260   24.5268  -26.3706 H   0  0  0  0  0  0  0  0  0  0  0  0
    1.3349   24.1333  -27.8691 H   0  0  0  0  0  0  0  0  0  0  0  0
    0.1408   25.4753  -27.8691 H   0  0  0  0  0  0  0  0  0  0  0  0
   -1.4694   19.8416  -26.3351 H   0  0  0  0  0  0  0  0  0  0  0  0
   -2.3301   19.3442  -27.8313 H   0  0  0  0  0  0  0  0  0  0  0  0
   -0.5397   19.4898  -27.8313 H   0  0  0  0  0  0  0  0  0  0  0  0
  1  2  1  0
  2  3  1  0
  3  4  1  0
  4  5  2  0
  5  6  1  0
  6  7  2  0
  7  8  1  0
  8  9  1  0
  9 10  1  0
  9 11  1  0
  9 12  1  0
  8 13  2  0
  3 14  1  0
 14 15  2  0
 14 16  2  0
 14 17  1  0
 17 18  2  0
 18 19  1  0
 18 20  1  0
 20 21  1  0
 20 22  1  0
 22 23  2  0
 22 24  1  0
 24 25  1  0
 24 26  1  0
 26 27  2  0
 13  4  1  0
 26 17  1  0
  1 28  1  0
  1 29  1  0
  1 30  1  0
  2 31  1  0
  2 32  1  0
  5 33  1  0
  6 34  1  0
  7 35  1  0
 13 36  1  0
 19 37  1  0
 19 38  1  0
 21 39  1  0
 21 40  1  0
 21 41  1  0
 25 42  1  0
 25 43  1  0
 25 44  1  0
M  END
>  <UniqueID>  (32) 
31

>  <SMILES>  (32) 
CCN(c1cccc(C(F)(F)F)c1)S(=O)(=O)c1c(N)n(C)c(=O)n(C)c1=O

>  <Energy>  (32) 
60.923362626262126

>  <Genealogy>  (32) 
CCN(c1cccc(C(F)(F)F)c1)S(=O)(=O)c1c(N)n(C)c(=O)n(C)c1=O (3D coordinates assigned)
CCN(c1cccc(C(F)(F)F)c1)S(=O)(=O)c1c(N)n(C)c(=O)n(C)c1=O (optimized conformer: 60.923362626262126 kcal/mol)

>  <smiles>  (32) 
CCN(c1cccc(C(F)(F)F)c1)S(=O)(=O)c1c(N)n(C)c(=O)n(C)c1=O

>  <score_type>  (32) 
oracle

>  <origin>  (32) 
adgpu

>  <m_score__min__energy>  (32) 
-7.9199999999999999

>  <m_primary>  (32) 
energy

$$$$
32:0
     RDKit          3D

 41 43  0  0  0  0  0  0  0  0999 V2000
   -2.4030   25.4410  -26.0920 C   0  0  0  0  0  0  0  0  0  0  0  0
   -3.7740   24.5720  -26.9150 S   0  0  0  0  0  0  0  0  0  0  0  0
   -2.6840   23.5910  -27.9560 C   0  0  0  0  0  0  0  0  0  0  0  0
   -1.9390   22.5550  -27.3760 C   0  0  0  0  0  0  0  0  0  0  0  0
   -1.0900   21.7740  -28.1620 C   0  0  0  0  0  0  0  0  0  0  0  0
   -0.9700   22.0310  -29.5280 C   0  0  0  0  0  0  0  0  0  0  0  0
   -1.7020   23.0670  -30.1140 C   0  0  0  0  0  0  0  0  0  0  0  0
   -2.5680   23.8570  -29.3340 C   0  0  0  0  0  0  0  0  0  0  0  0
   -3.3400   24.9220  -29.9080 N   0  0  0  0  0  0  0  0  0  0  0  0
   -5.0280   24.8440  -30.2940 S   0  0  0  0  0  0  0  0  0  0  0  0
   -5.3670   25.9490  -31.2530 O   0  0  0  0  0  0  0  0  0  0  0  0
   -5.8350   25.0280  -29.0370 O   0  0  0  0  0  0  0  0  0  0  0  0
   -5.3910   23.2990  -31.0560 C   0  0  0  0  0  0  0  0  0  0  0  0
   -4.5130   22.7780  -32.0140 C   0  0  0  0  0  0  0  0  0  0  0  0
   -4.7810   21.5470  -32.6200 C   0  0  0  0  0  0  0  0  0  0  0  0
   -5.9390   20.8260  -32.2860 C   0  0  0  0  0  0  0  0  0  0  0  0
   -6.1790   19.5530  -32.9070 N   0  0  0  0  0  0  0  0  0  0  0  0
   -6.1650   18.2980  -32.2090 C   0  0  0  0  0  0  0  0  0  0  0  0
   -6.1590   18.2670  -30.9490 O   0  0  0  0  0  0  0  0  0  0  0  0
   -6.1980   17.0350  -32.9630 C   0  0  0  0  0  0  0  0  0  0  0  0
   -5.2110   16.0690  -32.9720 C   0  0  0  0  0  0  0  0  0  0  0  0
   -5.6720   15.0750  -33.8100 C   0  0  0  0  0  0  0  0  0  0  0  0
   -6.9070   15.4950  -34.2580 C   0  0  0  0  0  0  0  0  0  0  0  0
   -7.1940   16.6660  -33.7370 O   0  0  0  0  0  0  0  0  0  0  0  0
   -6.8060   21.3430  -31.3040 C   0  0  0  0  0  0  0  0  0  0  0  0
   -6.5370   22.5750  -30.7010 C   0  0  0  0  0  0  0  0  0  0  0  0
   -2.5229   25.3650  -25.0012 H   0  0  0  0  0  0  0  0  0  0  0  0
   -1.4479   24.9830  -26.3887 H   0  0  0  0  0  0  0  0  0  0  0  0
   -2.4095   26.5002  -26.3887 H   0  0  0  0  0  0  0  0  0  0  0  0
   -2.0237   22.3567  -26.2973 H   0  0  0  0  0  0  0  0  0  0  0  0
   -0.5153   20.9555  -27.7041 H   0  0  0  0  0  0  0  0  0  0  0  0
   -0.2977   21.4168  -30.1450 H   0  0  0  0  0  0  0  0  0  0  0  0
   -1.6011   23.2665  -31.1910 H   0  0  0  0  0  0  0  0  0  0  0  0
   -3.6086   23.3395  -32.2910 H   0  0  0  0  0  0  0  0  0  0  0  0
   -4.0799   21.1403  -33.3637 H   0  0  0  0  0  0  0  0  0  0  0  0
   -6.4650   19.5490  -33.9130 H   0  0  0  0  0  0  0  0  0  0  0  0
   -4.2567   16.0882  -32.4252 H   0  0  0  0  0  0  0  0  0  0  0  0
   -5.1586   14.1372  -34.0686 H   0  0  0  0  0  0  0  0  0  0  0  0
   -7.5543   14.9337  -34.9479 H   0  0  0  0  0  0  0  0  0  0  0  0
   -7.7002   20.7739  -31.0098 H   0  0  0  0  0  0  0  0  0  0  0  0
   -7.2273   22.9776  -29.9451 H   0  0  0  0  0  0  0  0  0  0  0  0
  1  2  1  0
  2  3  1  0
  3  4  2  0
  4  5  1  0
  5  6  2  0
  6  7  1  0
  7  8  2  0
  8  9  1  0
  9 10  1  0
 10 11  2  0
 10 12  2  0
 10 13  1  0
 13 14  2  0
 14 15  1  0
 15 16  2  0
 16 17  1  0
 17 18  1  0
 18 19  2  0
 18 20  1  0
 20 21  2  0
 21 22  1  0
 22 23  2  0
 23 24  1  0
 16 25  1  0
 25 26  2  0
  8  3  1  0
 26 13  1  0
 24 20  1  0
  1 27  1  0
  1 28  1  0
  1 29  1  0
  4 30  1  0
  5 31  1  0
  6 32  1  0
  7 33  1  0
 14 34  1  0
 15 35  1  0
 17 36  1  0
 21 37  1  0
 22 38  1  0
 23 39  1  0
 25 40  1  0
 26 41  1  0
M  CHG  1   9  -1
M  END
>  <UniqueID>  (33) 
32

>  <SMILES>  (33) 
CSc1ccccc1[N-]S(=O)(=O)c1ccc(NC(=O)c2ccco2)cc1

>  <Energy>  (33) 
71.2010045150103

>  <Genealogy>  (33) 
CSc1ccccc1[N-]S(=O)(=O)c1ccc(NC(=O)c2ccco2)cc1 (protonated)
CSc1ccccc1[N-]S(=O)(=O)c1ccc(NC(=O)c2ccco2)cc1 (3D coordinates assigned)
CSc1ccccc1[N-]S(=O)(=O)c1ccc(NC(=O)c2ccco2)cc1 (optimized conformer: 71.2010045150103 kcal/mol)

>  <smiles>  (33) 
CSc1ccccc1NS(=O)(=O)c1ccc(NC(=O)c2ccco2)cc1

>  <score_type>  (33) 
oracle

>  <origin>  (33) 
adgpu

>  <m_score__min__energy>  (33) 
-9.1600000000000001

>  <m_primary>  (33) 
energy

$$$$
33:0
     RDKit          3D

 55 57  0  0  0  0  0  0  0  0999 V2000
   -6.7650   17.9910  -33.4040 C   0  0  0  0  0  0  0  0  0  0  0  0
   -5.3210   17.8720  -33.8220 C   0  0  0  0  0  0  0  0  0  0  0  0
   -4.9480   16.8010  -34.6540 C   0  0  0  0  0  0  0  0  0  0  0  0
   -3.6140   16.6120  -35.0150 C   0  0  0  0  0  0  0  0  0  0  0  0
   -2.6330   17.4890  -34.5500 C   0  0  0  0  0  0  0  0  0  0  0  0
   -2.9870   18.5700  -33.7430 C   0  0  0  0  0  0  0  0  0  0  0  0
   -4.3290   18.7920  -33.3890 C   0  0  0  0  0  0  0  0  0  0  0  0
   -4.6570   19.9780  -32.5660 C   0  0  0  0  0  0  0  0  0  0  0  0
   -4.2100   20.0570  -31.3900 O   0  0  0  0  0  0  0  0  0  0  0  0
   -5.3980   21.0730  -33.1280 N   0  0  0  0  0  0  0  0  0  0  0  0
   -6.0100   22.1050  -32.3390 C   0  0  0  0  0  0  0  0  0  0  0  0
   -7.3570   21.9860  -31.9790 C   0  0  0  0  0  0  0  0  0  0  0  0
   -7.9680   22.9720  -31.2050 C   0  0  0  0  0  0  0  0  0  0  0  0
   -7.2360   24.0770  -30.7650 C   0  0  0  0  0  0  0  0  0  0  0  0
   -5.8740   24.2030  -31.0870 C   0  0  0  0  0  0  0  0  0  0  0  0
   -5.0880   25.3580  -30.5910 C   0  0  0  0  0  0  0  0  0  0  0  0
   -5.6710   26.4410  -30.3170 O   0  0  0  0  0  0  0  0  0  0  0  0
   -3.6590   25.2590  -30.4910 N   0  0  0  0  0  0  0  0  0  0  0  0
   -2.8880   24.4050  -29.6310 C   0  0  0  0  0  0  0  0  0  0  0  0
   -1.9870   25.0040  -28.7420 C   0  0  0  0  0  0  0  0  0  0  0  0
   -1.1880   24.2210  -27.9050 C   0  0  0  0  0  0  0  0  0  0  0  0
   -1.2750   22.8240  -27.9520 C   0  0  0  0  0  0  0  0  0  0  0  0
   -0.2570   21.8240  -26.9210 S   0  0  0  0  0  0  0  0  0  0  0  0
   -1.0220   21.5320  -25.6600 O   0  0  0  0  0  0  0  0  0  0  0  0
    0.9930   22.5700  -26.5390 O   0  0  0  0  0  0  0  0  0  0  0  0
    0.1650   20.3040  -27.6720 N   0  0  0  0  0  0  0  0  0  0  0  0
   -0.5710   19.1180  -27.1960 C   0  0  0  0  0  0  0  0  0  0  0  0
   -0.1040   17.7990  -27.8300 C   0  0  0  0  0  0  0  0  0  0  0  0
   -2.0900   19.3000  -27.2970 C   0  0  0  0  0  0  0  0  0  0  0  0
   -2.1690   22.2180  -28.8430 C   0  0  0  0  0  0  0  0  0  0  0  0
   -2.9600   23.0000  -29.6900 C   0  0  0  0  0  0  0  0  0  0  0  0
   -5.2670   23.2080  -31.8760 C   0  0  0  0  0  0  0  0  0  0  0  0
   -6.8296   17.9963  -32.3059 H   0  0  0  0  0  0  0  0  0  0  0  0
   -7.1856   18.9268  -33.8006 H   0  0  0  0  0  0  0  0  0  0  0  0
   -7.3331   17.1366  -33.8006 H   0  0  0  0  0  0  0  0  0  0  0  0
   -5.7159   16.1056  -35.0236 H   0  0  0  0  0  0  0  0  0  0  0  0
   -3.3350   15.7710  -35.6668 H   0  0  0  0  0  0  0  0  0  0  0  0
   -1.5791   17.3274  -34.8204 H   0  0  0  0  0  0  0  0  0  0  0  0
   -2.2077   19.2561  -33.3797 H   0  0  0  0  0  0  0  0  0  0  0  0
   -5.4040   21.1790  -34.1690 H   0  0  0  0  0  0  0  0  0  0  0  0
   -7.9365   21.1108  -32.3080 H   0  0  0  0  0  0  0  0  0  0  0  0
   -9.0315   22.8790  -30.9398 H   0  0  0  0  0  0  0  0  0  0  0  0
   -7.7290   24.8540  -30.1623 H   0  0  0  0  0  0  0  0  0  0  0  0
   -1.9076   26.1004  -28.7023 H   0  0  0  0  0  0  0  0  0  0  0  0
   -0.4882   24.7034  -27.2067 H   0  0  0  0  0  0  0  0  0  0  0  0
   -0.3209   19.0323  -26.1282 H   0  0  0  0  0  0  0  0  0  0  0  0
    0.1503   17.0807  -27.0367 H   0  0  0  0  0  0  0  0  0  0  0  0
   -0.9106   17.3861  -28.4537 H   0  0  0  0  0  0  0  0  0  0  0  0
    0.7827   17.9857  -28.4537 H   0  0  0  0  0  0  0  0  0  0  0  0
   -2.5211   19.3517  -26.2863 H   0  0  0  0  0  0  0  0  0  0  0  0
   -2.3125   20.2312  -27.8386 H   0  0  0  0  0  0  0  0  0  0  0  0
   -2.5262   18.4477  -27.8386 H   0  0  0  0  0  0  0  0  0  0  0  0
   -2.2494   21.1215  -28.8768 H   0  0  0  0  0  0  0  0  0  0  0  0
   -3.6412   22.5158  -30.4052 H   0  0  0  0  0  0  0  0  0  0  0  0
   -4.2010   23.2929  -32.1337 H   0  0  0  0  0  0  0  0  0  0  0  0
  1  2  1  0
  2  3  2  0
  3  4  1  0
  4  5  2  0
  5  6  1  0
  6  7  2  0
  7  8  1  0
  8  9  2  0
  8 10  1  0
 10 11  1  0
 11 12  2  0
 12 13  1  0
 13 14  2  0
 14 15  1  0
 15 16  1  0
 16 17  2  0
 16 18  1  0
 18 19  1  0
 19 20  2  0
 20 21  1  0
 21 22  2  0
 22 23  1  0
 23 24  2  0
 23 25  2  0
 23 26  1  0
 26 27  1  0
 27 28  1  0
 27 29  1  0
 22 30  1  0
 30 31  2  0
 15 32  2  0
  7  2  1  0
 32 11  1  0
 31 19  1  0
  1 33  1  0
  1 34  1  0
  1 35  1  0
  3 36  1  0
  4 37  1  0
  5 38  1  0
  6 39  1  0
 10 40  1  0
 12 41  1  0
 13 42  1  0
 14 43  1  0
 20 44  1  0
 21 45  1  0
 27 46  1  0
 28 47  1  0
 28 48  1  0
 28 49  1  0
 29 50  1  0
 29 51  1  0
 29 52  1  0
 30 53  1  0
 31 54  1  0
 32 55  1  0
M  CHG  2  18  -1  26  -1
M  END
>  <UniqueID>  (34) 
33

>  <SMILES>  (34) 
Cc1ccccc1C(=O)Nc1cccc(C(=O)[N-]c2ccc(S(=O)(=O)[N-]C(C)C)cc2)c1

>  <Energy>  (34) 
71.24334677472483

>  <Genealogy>  (34) 
Cc1ccccc1C(=O)Nc1cccc(C(=O)[N-]c2ccc(S(=O)(=O)[N-]C(C)C)cc2)c1 (protonated)
Cc1ccccc1C(=O)Nc1cccc(C(=O)[N-]c2ccc(S(=O)(=O)[N-]C(C)C)cc2)c1 (3D coordinates assigned)
Cc1ccccc1C(=O)Nc1cccc(C(=O)[N-]c2ccc(S(=O)(=O)[N-]C(C)C)cc2)c1 (optimized conformer: 71.24334677472483 kcal/mol)

>  <smiles>  (34) 
Cc1ccccc1C(=O)Nc1cccc(C(=O)Nc2ccc(S(=O)(=O)NC(C)C)cc2)c1

>  <score_type>  (34) 
oracle

>  <origin>  (34) 
adgpu

>  <m_score__min__energy>  (34) 
-11.779999999999999

>  <m_primary>  (34) 
energy

$$$$
34:0
     RDKit          3D

 52 54  0  0  0  0  0  0  0  0999 V2000
    0.1450   23.3270  -26.8620 C   0  0  0  0  0  0  0  0  0  0  0  0
    0.4450   24.6920  -27.4800 C   0  0  0  0  0  0  0  0  0  0  0  0
   -0.6940   25.6000  -27.3050 N   0  0  0  0  0  0  0  0  0  0  0  0
   -0.4810   27.0470  -27.2020 C   0  0  0  0  0  0  0  0  0  0  0  0
   -0.8060   27.5430  -25.7960 C   0  0  0  0  0  0  0  0  0  0  0  0
   -2.0220   25.0930  -27.5040 C   0  0  0  0  0  0  0  0  0  0  0  0
   -2.9470   25.0920  -26.4580 C   0  0  0  0  0  0  0  0  0  0  0  0
   -4.2180   24.5770  -26.6970 C   0  0  0  0  0  0  0  0  0  0  0  0
   -4.5280   24.0730  -27.9200 N   0  0  0  0  0  0  0  0  0  0  0  0
   -3.6150   24.0660  -28.9310 C   0  0  0  0  0  0  0  0  0  0  0  0
   -3.9560   23.5040  -30.2170 N   0  0  0  0  0  0  0  0  0  0  0  0
   -5.2680   23.8260  -30.7980 C   0  0  0  0  0  0  0  0  0  0  0  0
   -5.5100   23.0770  -32.1110 C   0  0  0  0  0  0  0  0  0  0  0  0
   -4.9840   21.7040  -32.0040 N   0  0  0  0  0  0  0  0  0  0  0  0
   -5.5080   20.8070  -33.0650 C   0  0  0  0  0  0  0  0  0  0  0  0
   -6.7720   20.0580  -32.6890 C   0  0  0  0  0  0  0  0  0  0  0  0
   -7.9420   20.7600  -32.3460 C   0  0  0  0  0  0  0  0  0  0  0  0
   -9.0990   20.0680  -31.9730 C   0  0  0  0  0  0  0  0  0  0  0  0
   -9.0980   18.6720  -31.9330 C   0  0  0  0  0  0  0  0  0  0  0  0
   -7.9370   17.9650  -32.2620 C   0  0  0  0  0  0  0  0  0  0  0  0
   -6.7770   18.6530  -32.6310 C   0  0  0  0  0  0  0  0  0  0  0  0
   -3.5080   21.7170  -31.9570 C   0  0  0  0  0  0  0  0  0  0  0  0
   -2.9300   22.7880  -30.9960 C   0  0  0  0  0  0  0  0  0  0  0  0
   -2.3730   24.5800  -28.7120 N   0  0  0  0  0  0  0  0  0  0  0  0
    0.1630   23.4091  -25.7652 H   0  0  0  0  0  0  0  0  0  0  0  0
   -0.8492   22.9874  -27.1880 H   0  0  0  0  0  0  0  0  0  0  0  0
    0.9052   22.6019  -27.1880 H   0  0  0  0  0  0  0  0  0  0  0  0
    1.3301   25.1239  -26.9901 H   0  0  0  0  0  0  0  0  0  0  0  0
    0.6316   24.5607  -28.5561 H   0  0  0  0  0  0  0  0  0  0  0  0
    0.5708   27.2740  -27.4305 H   0  0  0  0  0  0  0  0  0  0  0  0
   -1.1457   27.5534  -27.9173 H   0  0  0  0  0  0  0  0  0  0  0  0
   -0.3604   26.8629  -25.0551 H   0  0  0  0  0  0  0  0  0  0  0  0
   -0.3947   28.5541  -25.6597 H   0  0  0  0  0  0  0  0  0  0  0  0
   -1.8972   27.5696  -25.6597 H   0  0  0  0  0  0  0  0  0  0  0  0
   -2.6776   25.4889  -25.4681 H   0  0  0  0  0  0  0  0  0  0  0  0
   -4.9715   24.5781  -25.8956 H   0  0  0  0  0  0  0  0  0  0  0  0
   -6.0531   23.5474  -30.0797 H   0  0  0  0  0  0  0  0  0  0  0  0
   -5.2908   24.9048  -31.0116 H   0  0  0  0  0  0  0  0  0  0  0  0
   -6.5899   23.0398  -32.3171 H   0  0  0  0  0  0  0  0  0  0  0  0
   -4.9955   23.6014  -32.9297 H   0  0  0  0  0  0  0  0  0  0  0  0
   -5.3230   21.2960  -31.1000 H   0  0  0  0  0  0  0  0  0  0  0  0
   -5.7220   21.4166  -33.9553 H   0  0  0  0  0  0  0  0  0  0  0  0
   -4.7340   20.0453  -33.2405 H   0  0  0  0  0  0  0  0  0  0  0  0
   -7.9470   21.8597  -32.3713 H   0  0  0  0  0  0  0  0  0  0  0  0
  -10.0111   20.6242  -31.7108 H   0  0  0  0  0  0  0  0  0  0  0  0
  -10.0096   18.1290  -31.6430 H   0  0  0  0  0  0  0  0  0  0  0  0
   -7.9364   16.8655  -32.2304 H   0  0  0  0  0  0  0  0  0  0  0  0
   -5.8633   18.0921  -32.8773 H   0  0  0  0  0  0  0  0  0  0  0  0
   -3.1613   20.7274  -31.6247 H   0  0  0  0  0  0  0  0  0  0  0  0
   -3.1539   21.9646  -32.9686 H   0  0  0  0  0  0  0  0  0  0  0  0
   -2.2456   22.2902  -30.2933 H   0  0  0  0  0  0  0  0  0  0  0  0
   -2.4209   23.5372  -31.6202 H   0  0  0  0  0  0  0  0  0  0  0  0
  1  2  1  0
  2  3  1  0
  3  4  1  0
  4  5  1  0
  3  6  1  0
  6  7  2  0
  7  8  1  0
  8  9  2  0
  9 10  1  0
 10 11  1  0
 11 12  1  0
 12 13  1  0
 13 14  1  0
 14 15  1  0
 15 16  1  0
 16 17  2  0
 17 18  1  0
 18 19  2  0
 19 20  1  0
 20 21  2  0
 14 22  1  0
 22 23  1  0
 10 24  2  0
 24  6  1  0
 23 11  1  0
 21 16  1  0
  1 25  1  0
  1 26  1  0
  1 27  1  0
  2 28  1  0
  2 29  1  0
  4 30  1  0
  4 31  1  0
  5 32  1  0
  5 33  1  0
  5 34  1  0
  7 35  1  0
  8 36  1  0
 12 37  1  0
 12 38  1  0
 13 39  1  0
 13 40  1  0
 14 41  1  0
 15 42  1  0
 15 43  1  0
 17 44  1  0
 18 45  1  0
 19 46  1  0
 20 47  1  0
 21 48  1  0
 22 49  1  0
 22 50  1  0
 23 51  1  0
 23 52  1  0
M  CHG  1  14   1
M  END
>  <UniqueID>  (35) 
34

>  <SMILES>  (35) 
CCN(CC)c1ccnc(N2CC[NH+](Cc3ccccc3)CC2)n1

>  <Energy>  (35) 
62.04015290000934

>  <Genealogy>  (35) 
CCN(CC)c1ccnc(N2CC[NH+](Cc3ccccc3)CC2)n1 (protonated)
CCN(CC)c1ccnc(N2CC[NH+](Cc3ccccc3)CC2)n1 (3D coordinates assigned)
CCN(CC)c1ccnc(N2CC[NH+](Cc3ccccc3)CC2)n1 (nonaromatic ring conformer: 62.04015290000934 kcal/mol)

>  <smiles>  (35) 
CCN(CC)c1ccnc(N2CCN(Cc3ccccc3)CC2)n1

>  <score_type>  (35) 
oracle

>  <origin>  (35) 
adgpu

>  <m_score__min__energy>  (35) 
-6.5700000000000003

>  <m_primary>  (35) 
energy

$$$$
35:0
     RDKit          3D

 52 55  0  0  0  0  0  0  0  0999 V2000
    0.2740   24.9860  -27.3480 C   0  0  0  0  0  0  0  0  0  0  0  0
   -0.6780   24.2040  -28.2060 C   0  0  0  0  0  0  0  0  0  0  0  0
   -0.6160   22.8050  -28.2270 C   0  0  0  0  0  0  0  0  0  0  0  0
   -1.5340   22.0720  -28.9810 C   0  0  0  0  0  0  0  0  0  0  0  0
   -2.5330   22.7260  -29.7200 C   0  0  0  0  0  0  0  0  0  0  0  0
   -3.5020   21.9220  -30.5430 C   0  0  0  0  0  0  0  0  0  0  0  0
   -2.5990   24.1340  -29.7100 C   0  0  0  0  0  0  0  0  0  0  0  0
   -3.6010   24.7970  -30.5010 N   0  0  0  0  0  0  0  0  0  0  0  0
   -5.2440   25.0570  -30.0050 S   0  0  0  0  0  0  0  0  0  0  0  0
   -5.3350   24.9410  -28.5100 O   0  0  0  0  0  0  0  0  0  0  0  0
   -5.6730   26.4350  -30.4240 O   0  0  0  0  0  0  0  0  0  0  0  0
   -6.2760   23.8330  -30.7370 C   0  0  0  0  0  0  0  0  0  0  0  0
   -7.2360   23.1790  -29.9530 C   0  0  0  0  0  0  0  0  0  0  0  0
   -7.9720   22.1210  -30.4850 C   0  0  0  0  0  0  0  0  0  0  0  0
   -7.7550   21.7020  -31.8090 C   0  0  0  0  0  0  0  0  0  0  0  0
   -8.4360   20.5600  -32.3450 N   0  0  0  0  0  0  0  0  0  0  0  0
   -7.8250   19.2800  -32.5600 C   0  0  0  0  0  0  0  0  0  0  0  0
   -8.4710   18.2400  -32.2740 O   0  0  0  0  0  0  0  0  0  0  0  0
   -6.4770   19.1580  -33.1490 C   0  0  0  0  0  0  0  0  0  0  0  0
   -6.1170   18.4900  -34.3030 C   0  0  0  0  0  0  0  0  0  0  0  0
   -4.7930   18.6200  -34.4940 N   0  0  0  0  0  0  0  0  0  0  0  0
   -4.2990   19.3420  -33.4960 N   0  0  0  0  0  0  0  0  0  0  0  0
   -2.9020   19.6920  -33.3910 C   0  0  0  0  0  0  0  0  0  0  0  0
   -1.9070   18.7080  -33.2140 C   0  0  0  0  0  0  0  0  0  0  0  0
   -0.5600   19.0720  -33.1130 C   0  0  0  0  0  0  0  0  0  0  0  0
   -0.1880   20.4160  -33.1870 C   0  0  0  0  0  0  0  0  0  0  0  0
   -1.1630   21.4010  -33.3600 C   0  0  0  0  0  0  0  0  0  0  0  0
   -2.5110   21.0450  -33.4620 C   0  0  0  0  0  0  0  0  0  0  0  0
   -5.3010   19.6790  -32.6530 C   0  0  0  0  0  0  0  0  0  0  0  0
   -6.8480   22.4040  -32.6130 C   0  0  0  0  0  0  0  0  0  0  0  0
   -6.1020   23.4590  -32.0760 C   0  0  0  0  0  0  0  0  0  0  0  0
   -1.6790   24.8630  -28.9330 C   0  0  0  0  0  0  0  0  0  0  0  0
    0.0485   24.8008  -26.2874 H   0  0  0  0  0  0  0  0  0  0  0  0
    1.3056   24.6711  -27.5640 H   0  0  0  0  0  0  0  0  0  0  0  0
    0.1654   26.0591  -27.5640 H   0  0  0  0  0  0  0  0  0  0  0  0
    0.1588   22.2820  -27.6473 H   0  0  0  0  0  0  0  0  0  0  0  0
   -1.4744   20.9737  -28.9964 H   0  0  0  0  0  0  0  0  0  0  0  0
   -4.1749   21.3637  -29.8755 H   0  0  0  0  0  0  0  0  0  0  0  0
   -4.0934   22.5984  -31.1777 H   0  0  0  0  0  0  0  0  0  0  0  0
   -2.9464   21.2160  -31.1777 H   0  0  0  0  0  0  0  0  0  0  0  0
   -7.4093   23.5011  -28.9156 H   0  0  0  0  0  0  0  0  0  0  0  0
   -8.7256   21.6121  -29.8660 H   0  0  0  0  0  0  0  0  0  0  0  0
   -6.8048   17.9390  -34.9613 H   0  0  0  0  0  0  0  0  0  0  0  0
   -2.1921   17.6472  -33.1550 H   0  0  0  0  0  0  0  0  0  0  0  0
    0.2085   18.2972  -32.9749 H   0  0  0  0  0  0  0  0  0  0  0  0
    0.8722   20.6987  -33.1091 H   0  0  0  0  0  0  0  0  0  0  0  0
   -0.8694   22.4596  -33.4161 H   0  0  0  0  0  0  0  0  0  0  0  0
   -3.2728   21.8266  -33.5988 H   0  0  0  0  0  0  0  0  0  0  0  0
   -5.1958   20.2678  -31.7298 H   0  0  0  0  0  0  0  0  0  0  0  0
   -6.7218   22.1251  -33.6696 H   0  0  0  0  0  0  0  0  0  0  0  0
   -5.3776   23.9957  -32.7062 H   0  0  0  0  0  0  0  0  0  0  0  0
   -1.7463   25.9603  -28.8960 H   0  0  0  0  0  0  0  0  0  0  0  0
  1  2  1  0
  2  3  2  0
  3  4  1  0
  4  5  2  0
  5  6  1  0
  5  7  1  0
  7  8  1  0
  8  9  1  0
  9 10  2  0
  9 11  2  0
  9 12  1  0
 12 13  2  0
 13 14  1  0
 14 15  2  0
 15 16  1  0
 16 17  1  0
 17 18  2  0
 17 19  1  0
 19 20  1  0
 20 21  2  0
 21 22  1  0
 22 23  1  0
 23 24  2  0
 24 25  1  0
 25 26  2  0
 26 27  1  0
 27 28  2  0
 22 29  1  0
 15 30  1  0
 30 31  2  0
  7 32  2  0
 32  2  1  0
 31 12  1  0
 29 19  2  0
 28 23  1  0
  1 33  1  0
  1 34  1  0
  1 35  1  0
  3 36  1  0
  4 37  1  0
  6 38  1  0
  6 39  1  0
  6 40  1  0
 13 41  1  0
 14 42  1  0
 20 43  1  0
 24 44  1  0
 25 45  1  0
 26 46  1  0
 27 47  1  0
 28 48  1  0
 29 49  1  0
 30 50  1  0
 31 51  1  0
 32 52  1  0
M  CHG  2   8  -1  16  -1
M  END
>  <UniqueID>  (36) 
35

>  <SMILES>  (36) 
Cc1ccc(C)c([N-]S(=O)(=O)c2ccc([N-]C(=O)c3cnn(-c4ccccc4)c3)cc2)c1

>  <Energy>  (36) 
94.40335121236404

>  <Genealogy>  (36) 
Cc1ccc(C)c([N-]S(=O)(=O)c2ccc([N-]C(=O)c3cnn(-c4ccccc4)c3)cc2)c1 (protonated)
Cc1ccc(C)c([N-]S(=O)(=O)c2ccc([N-]C(=O)c3cnn(-c4ccccc4)c3)cc2)c1 (3D coordinates assigned)
Cc1ccc(C)c([N-]S(=O)(=O)c2ccc([N-]C(=O)c3cnn(-c4ccccc4)c3)cc2)c1 (optimized conformer: 94.40335121236404 kcal/mol)

>  <smiles>  (36) 
Cc1ccc(C)c(NS(=O)(=O)c2ccc(NC(=O)c3cnn(-c4ccccc4)c3)cc2)c1

>  <score_type>  (36) 
oracle

>  <origin>  (36) 
adgpu

>  <m_score__min__energy>  (36) 
-12.300000000000001

>  <m_primary>  (36) 
energy

$$$$
36:0
     RDKit          3D

 28 30  0  0  0  0  0  0  0  0999 V2000
   -4.3793   19.5275  -33.2456 H   0  0  0  0  0  0  0  0  0  0  0  0
   -5.0170   20.2220  -32.6790 C   0  0  0  0  0  0  0  0  0  0  0  0
   -4.5360   21.4880  -32.3330 C   0  0  0  0  0  0  0  0  0  0  0  0
   -3.5274   21.7965  -32.6452 H   0  0  0  0  0  0  0  0  0  0  0  0
   -5.3390   22.3670  -31.5870 C   0  0  0  0  0  0  0  0  0  0  0  0
   -4.8770   23.6850  -31.2730 N   0  0  0  0  0  0  0  0  0  0  0  0
   -3.9730   24.0050  -30.3920 C   0  0  0  0  0  0  0  0  0  0  0  0
   -3.3500   23.2010  -29.4440 C   0  0  0  0  0  0  0  0  0  0  0  0
   -3.5030   21.8750  -29.0260 C   0  0  0  0  0  0  0  0  0  0  0  0
   -4.2362   21.2129  -29.5098 H   0  0  0  0  0  0  0  0  0  0  0  0
   -2.6920   21.4060  -27.9660 C   0  0  0  0  0  0  0  0  0  0  0  0
   -2.8070   20.0440  -27.5160 N   0  0  0  0  0  0  0  0  0  0  0  0
   -1.9640   19.1870  -27.8560 O   0  0  0  0  0  0  0  0  0  0  0  0
   -3.8530   19.6590  -26.7090 O   0  0  0  0  0  0  0  0  0  0  0  0
   -1.7750   22.2960  -27.3430 C   0  0  0  0  0  0  0  0  0  0  0  0
   -1.1353   21.9316  -26.5257 H   0  0  0  0  0  0  0  0  0  0  0  0
   -1.6750   23.6340  -27.7570 C   0  0  0  0  0  0  0  0  0  0  0  0
   -0.9780   24.3284  -27.2651 H   0  0  0  0  0  0  0  0  0  0  0  0
   -2.4830   24.0550  -28.8070 C   0  0  0  0  0  0  0  0  0  0  0  0
   -2.5760   25.3000  -29.3070 N   0  0  0  0  0  0  0  0  0  0  0  0
   -3.4930   25.2610  -30.2670 N   0  0  0  0  0  0  0  0  0  0  0  0
   -3.7740   26.0870  -30.8390 H   0  0  0  0  0  0  0  0  0  0  0  0
   -6.6440   21.9910  -31.2460 C   0  0  0  0  0  0  0  0  0  0  0  0
   -7.2933   22.6940  -30.7035 H   0  0  0  0  0  0  0  0  0  0  0  0
   -7.1240   20.7250  -31.5930 C   0  0  0  0  0  0  0  0  0  0  0  0
   -8.1429   20.4258  -31.3062 H   0  0  0  0  0  0  0  0  0  0  0  0
   -6.3090   19.8380  -32.3050 C   0  0  0  0  0  0  0  0  0  0  0  0
   -6.7760   18.6110  -32.6440 F   0  0  0  0  0  0  0  0  0  0  0  0
  1  2  1  0
  2  3  2  0
  3  4  1  0
  3  5  1  0
  5  6  1  0
  6  7  2  0
  7  8  1  0
  8  9  2  0
  9 10  1  0
  9 11  1  0
 11 12  1  0
 12 13  2  0
 12 14  1  0
 11 15  2  0
 15 16  1  0
 15 17  1  0
 17 18  1  0
 17 19  2  0
 19 20  1  0
 20 21  1  0
 21 22  1  0
  5 23  2  0
 23 24  1  0
 23 25  1  0
 25 26  1  0
 25 27  2  0
 27 28  1  0
 27  2  1  0
 21  7  1  0
 19  8  1  0
M  CHG  3  12   1  14  -1  20  -1
M  END
>  <UniqueID>  (37) 
36

>  <SMILES>  (37) 
O=[N+]([O-])c1ccc2[n-][nH]/c(=N/c3ccc(F)cc3)c2c1

>  <Energy>  (37) 
82.34589460183035

>  <Genealogy>  (37) 
O=[N+]([O-])c1ccc2[n-][nH]c(=Nc3ccc(F)cc3)c2c1 (protonated)
O=[N+]([O-])c1ccc2[n-][nH]/c(=N/c3ccc(F)cc3)c2c1 (cis-trans isomerization)
O=[N+]([O-])c1ccc2[n-][nH]/c(=N/c3ccc(F)cc3)c2c1 (3D coordinates assigned)
O=[N+]([O-])c1ccc2[n-][nH]/c(=N/c3ccc(F)cc3)c2c1 (optimized conformer: 82.34589460183035 kcal/mol)

>  <smiles>  (37) 
O=[N+]([O-])c1ccc2[nH][nH]c(=Nc3ccc(F)cc3)c2c1

>  <score_type>  (37) 
oracle

>  <origin>  (37) 
adgpu

>  <m_score__min__energy>  (37) 
-8.4700000000000006

>  <m_primary>  (37) 
energy

$$$$
37:0
     RDKit          3D

 43 45  0  0  0  0  0  0  0  0999 V2000
   -1.8520   16.8680  -32.8020 C   0  0  0  0  0  0  0  0  0  0  0  0
   -1.6150   16.1690  -34.0720 N   0  0  0  0  0  0  0  0  0  0  0  0
   -2.1320   16.9660  -35.1910 C   0  0  0  0  0  0  0  0  0  0  0  0
   -2.3850   14.6010  -34.0410 S   0  0  0  0  0  0  0  0  0  0  0  0
   -2.0100   13.9000  -32.7650 O   0  0  0  0  0  0  0  0  0  0  0  0
   -1.8720   13.7660  -35.1800 O   0  0  0  0  0  0  0  0  0  0  0  0
   -4.1550   14.7360  -34.1180 C   0  0  0  0  0  0  0  0  0  0  0  0
   -4.7420   15.9660  -33.7810 C   0  0  0  0  0  0  0  0  0  0  0  0
   -6.1330   16.1390  -33.8160 C   0  0  0  0  0  0  0  0  0  0  0  0
   -6.6930   17.4230  -33.4890 N   0  0  0  0  0  0  0  0  0  0  0  0
   -6.0380   18.6740  -33.7580 C   0  0  0  0  0  0  0  0  0  0  0  0
   -5.0860   18.7270  -34.5830 O   0  0  0  0  0  0  0  0  0  0  0  0
   -6.4900   19.9180  -33.1120 C   0  0  0  0  0  0  0  0  0  0  0  0
   -5.6970   20.8760  -32.5110 C   0  0  0  0  0  0  0  0  0  0  0  0
   -6.6020   21.8310  -32.0850 C   0  0  0  0  0  0  0  0  0  0  0  0
   -6.3120   23.0950  -31.3700 C   0  0  0  0  0  0  0  0  0  0  0  0
   -7.3630   23.8050  -30.7630 C   0  0  0  0  0  0  0  0  0  0  0  0
   -7.1100   25.0000  -30.0820 C   0  0  0  0  0  0  0  0  0  0  0  0
   -5.8080   25.4980  -30.0010 C   0  0  0  0  0  0  0  0  0  0  0  0
   -4.7540   24.8020  -30.6000 C   0  0  0  0  0  0  0  0  0  0  0  0
   -3.4590   25.2980  -30.5180 O   0  0  0  0  0  0  0  0  0  0  0  0
   -5.0030   23.6050  -31.2820 C   0  0  0  0  0  0  0  0  0  0  0  0
   -7.8100   21.4380  -32.4230 O   0  0  0  0  0  0  0  0  0  0  0  0
   -7.7810   20.2950  -33.0440 N   0  0  0  0  0  0  0  0  0  0  0  0
   -6.9440   15.0710  -34.2280 C   0  0  0  0  0  0  0  0  0  0  0  0
   -6.3740   13.8440  -34.5670 C   0  0  0  0  0  0  0  0  0  0  0  0
   -4.9870   13.6630  -34.5120 C   0  0  0  0  0  0  0  0  0  0  0  0
   -4.3570   12.0840  -34.9690 Cl  0  0  0  0  0  0  0  0  0  0  0  0
   -1.6232   16.1933  -31.9639 H   0  0  0  0  0  0  0  0  0  0  0  0
   -1.2045   17.7555  -32.7455 H   0  0  0  0  0  0  0  0  0  0  0  0
   -2.9057   17.1787  -32.7455 H   0  0  0  0  0  0  0  0  0  0  0  0
   -2.6914   17.8284  -34.7993 H   0  0  0  0  0  0  0  0  0  0  0  0
   -1.2925   17.3222  -35.8061 H   0  0  0  0  0  0  0  0  0  0  0  0
   -2.7995   16.3447  -35.8061 H   0  0  0  0  0  0  0  0  0  0  0  0
   -4.0997   16.8083  -33.4844 H   0  0  0  0  0  0  0  0  0  0  0  0
   -7.6730   17.4470  -33.1260 H   0  0  0  0  0  0  0  0  0  0  0  0
   -4.6028   20.8787  -32.3978 H   0  0  0  0  0  0  0  0  0  0  0  0
   -8.3909   23.4180  -30.8242 H   0  0  0  0  0  0  0  0  0  0  0  0
   -7.9381   25.5486  -29.6094 H   0  0  0  0  0  0  0  0  0  0  0  0
   -5.6116   26.4386  -29.4655 H   0  0  0  0  0  0  0  0  0  0  0  0
   -4.1710   23.0599  -31.7518 H   0  0  0  0  0  0  0  0  0  0  0  0
   -8.0347   15.2019  -34.2840 H   0  0  0  0  0  0  0  0  0  0  0  0
   -7.0203   13.0109  -34.8805 H   0  0  0  0  0  0  0  0  0  0  0  0
  1  2  1  0
  2  3  1  0
  2  4  1  0
  4  5  2  0
  4  6  2  0
  4  7  1  0
  7  8  2  0
  8  9  1  0
  9 10  1  0
 10 11  1  0
 11 12  2  0
 11 13  1  0
 13 14  1  0
 14 15  2  0
 15 16  1  0
 16 17  2  0
 17 18  1  0
 18 19  2  0
 19 20  1  0
 20 21  1  0
 20 22  2  0
 15 23  1  0
 23 24  1  0
  9 25  2  0
 25 26  1  0
 26 27  2  0
 27 28  1  0
 27  7  1  0
 24 13  2  0
 22 16  1  0
  1 29  1  0
  1 30  1  0
  1 31  1  0
  3 32  1  0
  3 33  1  0
  3 34  1  0
  8 35  1  0
 10 36  1  0
 14 37  1  0
 17 38  1  0
 18 39  1  0
 19 40  1  0
 22 41  1  0
 25 42  1  0
 26 43  1  0
M  CHG  1  21  -1
M  END
>  <UniqueID>  (38) 
37

>  <SMILES>  (38) 
CN(C)S(=O)(=O)c1cc(NC(=O)c2cc(-c3cccc([O-])c3)on2)ccc1Cl

>  <Energy>  (38) 
79.98318814874882

>  <Genealogy>  (38) 
CN(C)S(=O)(=O)c1cc(NC(=O)c2cc(-c3cccc([O-])c3)on2)ccc1Cl (protonated)
CN(C)S(=O)(=O)c1cc(NC(=O)c2cc(-c3cccc([O-])c3)on2)ccc1Cl (3D coordinates assigned)
CN(C)S(=O)(=O)c1cc(NC(=O)c2cc(-c3cccc([O-])c3)on2)ccc1Cl (optimized conformer: 79.98318814874882 kcal/mol)

>  <smiles>  (38) 
CN(C)S(=O)(=O)c1cc(NC(=O)c2cc(-c3cccc(O)c3)on2)ccc1Cl

>  <score_type>  (38) 
oracle

>  <origin>  (38) 
adgpu

>  <m_score__min__energy>  (38) 
-10.789999999999999

>  <m_primary>  (38) 
energy

$$$$
38:0
     RDKit          3D

 32 33  0  0  0  0  0  0  0  0999 V2000
   -6.5310   25.7960  -29.3450 C   0  0  0  0  0  0  0  0  0  0  0  0
   -5.4400   24.9790  -29.9610 C   0  0  0  0  0  0  0  0  0  0  0  0
   -4.2180   25.4490  -30.2700 N   0  0  0  0  0  0  0  0  0  0  0  0
   -3.4960   24.4790  -30.8100 N   0  0  0  0  0  0  0  0  0  0  0  0
   -4.2590   23.3690  -30.8570 C   0  0  0  0  0  0  0  0  0  0  0  0
   -5.5070   23.6510  -30.3340 C   0  0  0  0  0  0  0  0  0  0  0  0
   -6.6470   22.6890  -30.1550 C   0  0  0  0  0  0  0  0  0  0  0  0
   -7.4900   22.5650  -31.4280 C   0  0  0  0  0  0  0  0  0  0  0  0
   -6.6280   22.5280  -32.6190 N   0  0  0  0  0  0  0  0  0  0  0  0
   -6.1120   21.1750  -32.8620 C   0  0  0  0  0  0  0  0  0  0  0  0
   -7.1490   20.1450  -32.5020 C   0  0  0  0  0  0  0  0  0  0  0  0
   -6.8410   19.1160  -31.6010 C   0  0  0  0  0  0  0  0  0  0  0  0
   -7.8120   18.1740  -31.2580 C   0  0  0  0  0  0  0  0  0  0  0  0
   -9.0870   18.2710  -31.8180 C   0  0  0  0  0  0  0  0  0  0  0  0
   -9.3740   19.2770  -32.6880 N   0  0  0  0  0  0  0  0  0  0  0  0
   -8.4450   20.2060  -33.0360 C   0  0  0  0  0  0  0  0  0  0  0  0
   -6.4566   25.7403  -28.2489 H   0  0  0  0  0  0  0  0  0  0  0  0
   -6.4310   26.8432  -29.6665 H   0  0  0  0  0  0  0  0  0  0  0  0
   -7.5077   25.4054  -29.6665 H   0  0  0  0  0  0  0  0  0  0  0  0
   -3.8710   26.4210  -30.1160 H   0  0  0  0  0  0  0  0  0  0  0  0
   -3.9390   22.3926  -31.2497 H   0  0  0  0  0  0  0  0  0  0  0  0
   -6.2411   21.6993  -29.8986 H   0  0  0  0  0  0  0  0  0  0  0  0
   -7.2941   23.0704  -29.3514 H   0  0  0  0  0  0  0  0  0  0  0  0
   -8.0814   21.6387  -31.3810 H   0  0  0  0  0  0  0  0  0  0  0  0
   -8.1551   23.4383  -31.4990 H   0  0  0  0  0  0  0  0  0  0  0  0
   -7.2160   22.7890  -33.4460 H   0  0  0  0  0  0  0  0  0  0  0  0
   -5.8528   21.0717  -33.9260 H   0  0  0  0  0  0  0  0  0  0  0  0
   -5.2200   21.0161  -32.2383 H   0  0  0  0  0  0  0  0  0  0  0  0
   -5.8335   19.0510  -31.1642 H   0  0  0  0  0  0  0  0  0  0  0  0
   -7.5750   17.3632  -30.5534 H   0  0  0  0  0  0  0  0  0  0  0  0
   -9.8601   17.5337  -31.5558 H   0  0  0  0  0  0  0  0  0  0  0  0
   -8.7103   21.0091  -33.7393 H   0  0  0  0  0  0  0  0  0  0  0  0
  1  2  1  0
  2  3  1  0
  3  4  1  0
  4  5  2  0
  5  6  1  0
  6  7  1  0
  7  8  1  0
  8  9  1  0
  9 10  1  0
 10 11  1  0
 11 12  2  0
 12 13  1  0
 13 14  2  0
 14 15  1  0
 15 16  2  0
  6  2  2  0
 16 11  1  0
  1 17  1  0
  1 18  1  0
  1 19  1  0
  3 20  1  0
  5 21  1  0
  7 22  1  0
  7 23  1  0
  8 24  1  0
  8 25  1  0
  9 26  1  0
 10 27  1  0
 10 28  1  0
 12 29  1  0
 13 30  1  0
 14 31  1  0
 16 32  1  0
M  END
>  <UniqueID>  (39) 
38

>  <SMILES>  (39) 
Cc1[nH]ncc1CCNCc1cccnc1

>  <Energy>  (39) 
57.329162154369904

>  <Genealogy>  (39) 
Cc1[nH]ncc1CCNCc1cccnc1 (3D coordinates assigned)
Cc1[nH]ncc1CCNCc1cccnc1 (optimized conformer: 57.329162154369904 kcal/mol)

>  <smiles>  (39) 
Cc1[nH]ncc1CCNCc1cccnc1

>  <score_type>  (39) 
oracle

>  <origin>  (39) 
adgpu

>  <m_score__min__energy>  (39) 
-6.9900000000000002

>  <m_primary>  (39) 
energy

$$$$
39:0
     RDKit          3D

 27 28  0  0  0  0  0  0  0  0999 V2000
   -6.9370   25.2980  -29.9050 C   0  0  0  0  0  0  0  0  0  0  0  0
   -5.7580   24.4350  -30.2690 C   0  0  0  0  0  0  0  0  0  0  0  0
   -4.6730   24.3420  -29.3810 C   0  0  0  0  0  0  0  0  0  0  0  0
   -3.5570   23.5470  -29.6870 C   0  0  0  0  0  0  0  0  0  0  0  0
   -2.4180   23.4460  -28.7410 C   0  0  0  0  0  0  0  0  0  0  0  0
   -2.2370   22.2700  -27.9910 C   0  0  0  0  0  0  0  0  0  0  0  0
   -1.1760   22.1620  -27.0890 C   0  0  0  0  0  0  0  0  0  0  0  0
   -0.2830   23.2230  -26.9260 C   0  0  0  0  0  0  0  0  0  0  0  0
   -0.4480   24.3940  -27.6700 C   0  0  0  0  0  0  0  0  0  0  0  0
   -1.5050   24.5100  -28.5790 C   0  0  0  0  0  0  0  0  0  0  0  0
   -1.6250   25.6740  -29.3300 O   0  0  0  0  0  0  0  0  0  0  0  0
   -3.5390   22.8290  -30.8910 C   0  0  0  0  0  0  0  0  0  0  0  0
   -4.6110   22.9140  -31.7810 C   0  0  0  0  0  0  0  0  0  0  0  0
   -5.7240   23.7130  -31.4850 C   0  0  0  0  0  0  0  0  0  0  0  0
   -6.8060   23.7740  -32.4260 N   0  0  0  0  0  0  0  0  0  0  0  0
   -7.0218   25.3601  -28.8100 H   0  0  0  0  0  0  0  0  0  0  0  0
   -6.7948   26.3069  -30.3195 H   0  0  0  0  0  0  0  0  0  0  0  0
   -7.8557   24.8575  -30.3195 H   0  0  0  0  0  0  0  0  0  0  0  0
   -4.6983   24.8997  -28.4332 H   0  0  0  0  0  0  0  0  0  0  0  0
   -2.9357   21.4296  -28.1156 H   0  0  0  0  0  0  0  0  0  0  0  0
   -1.0436   21.2389  -26.5056 H   0  0  0  0  0  0  0  0  0  0  0  0
    0.5497   23.1369  -26.2124 H   0  0  0  0  0  0  0  0  0  0  0  0
    0.2566   25.2287  -27.5404 H   0  0  0  0  0  0  0  0  0  0  0  0
   -2.6745   22.1945  -31.1359 H   0  0  0  0  0  0  0  0  0  0  0  0
   -4.5820   22.3484  -32.7240 H   0  0  0  0  0  0  0  0  0  0  0  0
   -7.7940   23.8340  -32.0930 H   0  0  0  0  0  0  0  0  0  0  0  0
   -6.6490   23.7570  -33.4560 H   0  0  0  0  0  0  0  0  0  0  0  0
  1  2  1  0
  2  3  2  0
  3  4  1  0
  4  5  1  0
  5  6  2  0
  6  7  1  0
  7  8  2  0
  8  9  1  0
  9 10  2  0
 10 11  1  0
  4 12  2  0
 12 13  1  0
 13 14  2  0
 14 15  1  0
 14  2  1  0
 10  5  1  0
  1 16  1  0
  1 17  1  0
  1 18  1  0
  3 19  1  0
  6 20  1  0
  7 21  1  0
  8 22  1  0
  9 23  1  0
 12 24  1  0
 13 25  1  0
 15 26  1  0
 15 27  1  0
M  CHG  1  11  -1
M  END
>  <UniqueID>  (40) 
39

>  <SMILES>  (40) 
Cc1cc(-c2ccccc2[O-])ccc1N

>  <Energy>  (40) 
34.40729525366361

>  <Genealogy>  (40) 
Cc1cc(-c2ccccc2[O-])ccc1N (protonated)
Cc1cc(-c2ccccc2[O-])ccc1N (3D coordinates assigned)
Cc1cc(-c2ccccc2[O-])ccc1N (optimized conformer: 34.40729525366361 kcal/mol)

>  <smiles>  (40) 
Cc1cc(-c2ccccc2O)ccc1N

>  <score_type>  (40) 
oracle

>  <origin>  (40) 
adgpu

>  <m_score__min__energy>  (40) 
-8.7699999999999996

>  <m_primary>  (40) 
energy

$$$$
40:0
     RDKit          3D

 36 38  0  0  0  0  0  0  0  0999 V2000
   -4.7390   13.3405  -33.6561 H   0  0  0  0  0  0  0  0  0  0  0  0
   -5.1790   14.3330  -33.4790 C   0  0  0  0  0  0  0  0  0  0  0  0
   -4.6430   15.1700  -32.4980 C   0  0  0  0  0  0  0  0  0  0  0  0
   -3.7817   14.8348  -31.9015 H   0  0  0  0  0  0  0  0  0  0  0  0
   -5.1990   16.4340  -32.2720 C   0  0  0  0  0  0  0  0  0  0  0  0
   -4.7710   17.0893  -31.4991 H   0  0  0  0  0  0  0  0  0  0  0  0
   -6.3030   16.8720  -33.0280 C   0  0  0  0  0  0  0  0  0  0  0  0
   -6.8860   18.2100  -32.7830 C   0  0  0  0  0  0  0  0  0  0  0  0
   -8.1810   18.5200  -33.0310 N   0  0  0  0  0  0  0  0  0  0  0  0
   -8.4920   19.7800  -32.7360 N   0  0  0  0  0  0  0  0  0  0  0  0
   -9.4550   20.1620  -32.8660 H   0  0  0  0  0  0  0  0  0  0  0  0
   -7.4550   20.4990  -32.2570 C   0  0  0  0  0  0  0  0  0  0  0  0
   -7.5810   21.7360  -31.8720 N   0  0  0  0  0  0  0  0  0  0  0  0
   -6.5320   22.5890  -31.3880 C   0  0  0  0  0  0  0  0  0  0  0  0
   -5.1800   22.3270  -31.6630 C   0  0  0  0  0  0  0  0  0  0  0  0
   -4.9028   21.4300  -32.2361 H   0  0  0  0  0  0  0  0  0  0  0  0
   -4.1840   23.1990  -31.2130 C   0  0  0  0  0  0  0  0  0  0  0  0
   -3.1267   22.9762  -31.4189 H   0  0  0  0  0  0  0  0  0  0  0  0
   -4.5290   24.3600  -30.4980 C   0  0  0  0  0  0  0  0  0  0  0  0
   -3.5460   25.2850  -30.0150 N   0  0  0  0  0  0  0  0  0  0  0  0
   -2.2040   24.8960  -28.9870 S   0  0  0  0  0  0  0  0  0  0  0  0
   -1.5020   23.6910  -29.5440 O   0  0  0  0  0  0  0  0  0  0  0  0
   -1.2350   26.0450  -28.9480 O   0  0  0  0  0  0  0  0  0  0  0  0
   -2.7800   24.5140  -27.3460 C   0  0  0  0  0  0  0  0  0  0  0  0
   -2.1021   24.9636  -26.6055 H   0  0  0  0  0  0  0  0  0  0  0  0
   -3.7933   24.9197  -27.2094 H   0  0  0  0  0  0  0  0  0  0  0  0
   -2.8005   23.4227  -27.2094 H   0  0  0  0  0  0  0  0  0  0  0  0
   -5.8810   24.6350  -30.2550 C   0  0  0  0  0  0  0  0  0  0  0  0
   -6.1622   25.5449  -29.7046 H   0  0  0  0  0  0  0  0  0  0  0  0
   -6.8750   23.7630  -30.7060 C   0  0  0  0  0  0  0  0  0  0  0  0
   -7.9337   24.0001  -30.5243 H   0  0  0  0  0  0  0  0  0  0  0  0
   -6.0610   19.5510  -32.1600 S   0  0  0  0  0  0  0  0  0  0  0  0
   -6.8340   16.0190  -34.0140 C   0  0  0  0  0  0  0  0  0  0  0  0
   -7.6951   16.3474  -34.6145 H   0  0  0  0  0  0  0  0  0  0  0  0
   -6.2740   14.7570  -34.2350 C   0  0  0  0  0  0  0  0  0  0  0  0
   -6.6970   14.0965  -35.0063 H   0  0  0  0  0  0  0  0  0  0  0  0
  1  2  1  0
  2  3  2  0
  3  4  1  0
  3  5  1  0
  5  6  1  0
  5  7  2  0
  7  8  1  0
  8  9  2  0
  9 10  1  0
 10 11  1  0
 10 12  1  0
 12 13  2  0
 13 14  1  0
 14 15  2  0
 15 16  1  0
 15 17  1  0
 17 18  1  0
 17 19  2  0
 19 20  1  0
 20 21  1  0
 21 22  2  0
 21 23  2  0
 21 24  1  0
 24 25  1  0
 24 26  1  0
 24 27  1  0
 19 28  1  0
 28 29  1  0
 28 30  2  0
 30 31  1  0
 12 32  1  0
  7 33  1  0
 33 34  1  0
 33 35  2  0
 35 36  1  0
 35  2  1  0
 32  8  1  0
 30 14  1  0
M  CHG  1  20  -1
M  END
>  <UniqueID>  (41) 
40

>  <SMILES>  (41) 
CS(=O)(=O)[N-]c1ccc(/N=c2/[nH]nc(-c3ccccc3)s2)cc1

>  <Energy>  (41) 
79.63076980089136

>  <Genealogy>  (41) 
CS(=O)(=O)[N-]c1ccc(N=c2[nH]nc(-c3ccccc3)s2)cc1 (protonated)
CS(=O)(=O)[N-]c1ccc(/N=c2/[nH]nc(-c3ccccc3)s2)cc1 (cis-trans isomerization)
CS(=O)(=O)[N-]c1ccc(/N=c2/[nH]nc(-c3ccccc3)s2)cc1 (3D coordinates assigned)
CS(=O)(=O)[N-]c1ccc(/N=c2/[nH]nc(-c3ccccc3)s2)cc1 (optimized conformer: 79.63076980089136 kcal/mol)

>  <smiles>  (41) 
CS(=O)(=O)Nc1ccc(N=c2[nH]nc(-c3ccccc3)s2)cc1

>  <score_type>  (41) 
oracle

>  <origin>  (41) 
adgpu

>  <m_score__min__energy>  (41) 
-10.279999999999999

>  <m_primary>  (41) 
energy

$$$$
41:0
     RDKit          3D

 68 72  0  0  0  0  0  0  0  0999 V2000
   -6.8590   15.9740  -34.2240 C   0  0  0  0  0  0  0  0  0  0  0  0
   -6.2490   17.2840  -33.8550 C   0  0  0  0  0  0  0  0  0  0  0  0
   -4.9070   17.4610  -33.9550 N   0  0  0  0  0  0  0  0  0  0  0  0
   -4.3210   18.6310  -33.5850 C   0  0  0  0  0  0  0  0  0  0  0  0
   -2.8590   18.7960  -33.7570 C   0  0  0  0  0  0  0  0  0  0  0  0
   -2.3800   20.0440  -34.1950 C   0  0  0  0  0  0  0  0  0  0  0  0
   -1.0030   20.2820  -34.3280 C   0  0  0  0  0  0  0  0  0  0  0  0
   -0.5100   21.5600  -34.7610 N   0  0  0  0  0  0  0  0  0  0  0  0
    0.8660   21.7960  -35.1040 C   0  0  0  0  0  0  0  0  0  0  0  0
    1.7360   20.9180  -34.8450 O   0  0  0  0  0  0  0  0  0  0  0  0
    1.2940   23.0900  -35.6890 C   0  0  0  0  0  0  0  0  0  0  0  0
    2.6560   23.3950  -35.8520 C   0  0  0  0  0  0  0  0  0  0  0  0
    3.0470   24.6140  -36.4170 C   0  0  0  0  0  0  0  0  0  0  0  0
    2.0840   25.5380  -36.8300 C   0  0  0  0  0  0  0  0  0  0  0  0
    0.7190   25.2510  -36.6730 C   0  0  0  0  0  0  0  0  0  0  0  0
   -0.3320   26.2310  -37.1320 C   0  0  0  0  0  0  0  0  0  0  0  0
   -0.0160   27.5910  -36.6410 N   0  0  0  0  0  0  0  0  0  0  0  0
    0.1220   27.6230  -35.1760 C   0  0  0  0  0  0  0  0  0  0  0  0
   -1.2200   28.0290  -34.5850 C   0  0  0  0  0  0  0  0  0  0  0  0
   -2.0030   28.6420  -35.7320 C   0  0  0  0  0  0  0  0  0  0  0  0
   -1.1010   28.5350  -36.9510 C   0  0  0  0  0  0  0  0  0  0  0  0
    0.3310   24.0320  -36.0920 C   0  0  0  0  0  0  0  0  0  0  0  0
   -0.0990   19.2710  -33.9880 C   0  0  0  0  0  0  0  0  0  0  0  0
   -0.5590   18.0150  -33.5880 C   0  0  0  0  0  0  0  0  0  0  0  0
   -1.9340   17.7500  -33.4990 C   0  0  0  0  0  0  0  0  0  0  0  0
   -2.3720   16.3580  -33.1230 C   0  0  0  0  0  0  0  0  0  0  0  0
   -5.1200   19.6790  -33.1100 C   0  0  0  0  0  0  0  0  0  0  0  0
   -6.5070   19.4820  -32.9820 C   0  0  0  0  0  0  0  0  0  0  0  0
   -7.3860   20.5060  -32.4520 N   0  0  0  0  0  0  0  0  0  0  0  0
   -6.8370   21.8710  -32.3180 C   0  0  0  0  0  0  0  0  0  0  0  0
   -7.8300   22.8540  -31.6920 C   0  0  0  0  0  0  0  0  0  0  0  0
   -9.1290   22.6390  -32.1980 O   0  0  0  0  0  0  0  0  0  0  0  0
   -9.6060   21.4120  -31.6960 C   0  0  0  0  0  0  0  0  0  0  0  0
   -8.8310   20.2330  -32.2910 C   0  0  0  0  0  0  0  0  0  0  0  0
   -7.0280   18.2810  -33.3620 N   0  0  0  0  0  0  0  0  0  0  0  0
   -7.1173   15.4193  -33.3099 H   0  0  0  0  0  0  0  0  0  0  0  0
   -7.7690   16.1474  -34.8171 H   0  0  0  0  0  0  0  0  0  0  0  0
   -6.1406   15.3891  -34.8171 H   0  0  0  0  0  0  0  0  0  0  0  0
   -3.0945   20.8447  -34.4367 H   0  0  0  0  0  0  0  0  0  0  0  0
   -1.1440   22.3870  -34.6570 H   0  0  0  0  0  0  0  0  0  0  0  0
    3.4200   22.6706  -35.5333 H   0  0  0  0  0  0  0  0  0  0  0  0
    4.1157   24.8454  -36.5363 H   0  0  0  0  0  0  0  0  0  0  0  0
    2.3961   26.4924  -37.2791 H   0  0  0  0  0  0  0  0  0  0  0  0
   -0.3637   26.2405  -38.2315 H   0  0  0  0  0  0  0  0  0  0  0  0
   -1.3083   25.9232  -36.7293 H   0  0  0  0  0  0  0  0  0  0  0  0
    0.4065   26.6269  -34.8062 H   0  0  0  0  0  0  0  0  0  0  0  0
    0.9016   28.3410  -34.8817 H   0  0  0  0  0  0  0  0  0  0  0  0
   -1.7467   27.1487  -34.1878 H   0  0  0  0  0  0  0  0  0  0  0  0
   -1.1000   28.7358  -33.7507 H   0  0  0  0  0  0  0  0  0  0  0  0
   -2.9383   28.0872  -35.8974 H   0  0  0  0  0  0  0  0  0  0  0  0
   -2.2791   29.6859  -35.5223 H   0  0  0  0  0  0  0  0  0  0  0  0
   -1.6799   28.1670  -37.8110 H   0  0  0  0  0  0  0  0  0  0  0  0
   -0.6848   29.5217  -37.2024 H   0  0  0  0  0  0  0  0  0  0  0  0
   -0.7375   23.8122  -35.9509 H   0  0  0  0  0  0  0  0  0  0  0  0
    0.9824   19.4666  -34.0360 H   0  0  0  0  0  0  0  0  0  0  0  0
    0.1645   17.2244  -33.3399 H   0  0  0  0  0  0  0  0  0  0  0  0
   -2.4009   16.2661  -32.0272 H   0  0  0  0  0  0  0  0  0  0  0  0
   -3.3741   16.1655  -33.5337 H   0  0  0  0  0  0  0  0  0  0  0  0
   -1.6607   15.6263  -33.5337 H   0  0  0  0  0  0  0  0  0  0  0  0
   -4.6681   20.6449  -32.8402 H   0  0  0  0  0  0  0  0  0  0  0  0
   -5.9392   21.8275  -31.6839 H   0  0  0  0  0  0  0  0  0  0  0  0
   -6.6062   22.2347  -33.3302 H   0  0  0  0  0  0  0  0  0  0  0  0
   -7.8392   22.7127  -30.6011 H   0  0  0  0  0  0  0  0  0  0  0  0
   -7.5182   23.8791  -31.9409 H   0  0  0  0  0  0  0  0  0  0  0  0
   -9.4904   21.4023  -30.6021 H   0  0  0  0  0  0  0  0  0  0  0  0
  -10.6652   21.3093  -31.9743 H   0  0  0  0  0  0  0  0  0  0  0  0
   -8.9506   19.3650  -31.6260 H   0  0  0  0  0  0  0  0  0  0  0  0
   -9.2415   20.0454  -33.2941 H   0  0  0  0  0  0  0  0  0  0  0  0
  1  2  1  0
  2  3  2  0
  3  4  1  0
  4  5  1  0
  5  6  2  0
  6  7  1  0
  7  8  1  0
  8  9  1  0
  9 10  2  0
  9 11  1  0
 11 12  2  0
 12 13  1  0
 13 14  2  0
 14 15  1  0
 15 16  1  0
 16 17  1  0
 17 18  1  0
 18 19  1  0
 19 20  1  0
 20 21  1  0
 15 22  2  0
  7 23  2  0
 23 24  1  0
 24 25  2  0
 25 26  1  0
  4 27  2  0
 27 28  1  0
 28 29  1  0
 29 30  1  0
 30 31  1  0
 31 32  1  0
 32 33  1  0
 33 34  1  0
 28 35  2  0
 35  2  1  0
 25  5  1  0
 34 29  1  0
 22 11  1  0
 21 17  1  0
  1 36  1  0
  1 37  1  0
  1 38  1  0
  6 39  1  0
  8 40  1  0
 12 41  1  0
 13 42  1  0
 14 43  1  0
 16 44  1  0
 16 45  1  0
 18 46  1  0
 18 47  1  0
 19 48  1  0
 19 49  1  0
 20 50  1  0
 20 51  1  0
 21 52  1  0
 21 53  1  0
 22 54  1  0
 23 55  1  0
 24 56  1  0
 26 57  1  0
 26 58  1  0
 26 59  1  0
 27 60  1  0
 30 61  1  0
 30 62  1  0
 31 63  1  0
 31 64  1  0
 33 65  1  0
 33 66  1  0
 34 67  1  0
 34 68  1  0
M  END
>  <UniqueID>  (42) 
41

>  <SMILES>  (42) 
Cc1nc(-c2cc(NC(=O)c3cccc(CN4CCCC4)c3)ccc2C)cc(N2CCOCC2)n1

>  <Energy>  (42) 
91.42074379903259

>  <Genealogy>  (42) 
Cc1nc(-c2cc(NC(=O)c3cccc(CN4CCCC4)c3)ccc2C)cc(N2CCOCC2)n1 (3D coordinates assigned)
Cc1nc(-c2cc(NC(=O)c3cccc(CN4CCCC4)c3)ccc2C)cc(N2CCOCC2)n1 (nonaromatic ring conformer: 91.42074379903259 kcal/mol)

>  <smiles>  (42) 
Cc1nc(-c2cc(NC(=O)c3cccc(CN4CCCC4)c3)ccc2C)cc(N2CCOCC2)n1

>  <score_type>  (42) 
oracle

>  <origin>  (42) 
adgpu

>  <m_score__min__energy>  (42) 
-10.630000000000001

>  <m_primary>  (42) 
energy

$$$$
42:0
     RDKit          3D

 51 54  0  0  0  0  0  0  0  0999 V2000
   -0.9410   17.0740  -34.2200 C   0  0  0  0  0  0  0  0  0  0  0  0
   -2.2740   17.1360  -34.9550 C   0  0  0  0  0  0  0  0  0  0  0  0
   -3.2320   18.0500  -34.2410 C   0  0  0  0  0  0  0  0  0  0  0  0
   -3.0090   19.3850  -33.9520 C   0  0  0  0  0  0  0  0  0  0  0  0
   -1.9030   20.1740  -34.4110 N   0  0  0  0  0  0  0  0  0  0  0  0
   -1.0200   20.9360  -33.5740 C   0  0  0  0  0  0  0  0  0  0  0  0
    0.0610   21.3580  -34.0650 O   0  0  0  0  0  0  0  0  0  0  0  0
   -1.3540   21.2650  -32.1660 C   0  0  0  0  0  0  0  0  0  0  0  0
   -0.7010   20.6020  -31.1150 C   0  0  0  0  0  0  0  0  0  0  0  0
   -1.0870   20.8260  -29.7910 C   0  0  0  0  0  0  0  0  0  0  0  0
   -2.1360   21.7040  -29.5040 C   0  0  0  0  0  0  0  0  0  0  0  0
   -2.7810   22.3970  -30.5390 C   0  0  0  0  0  0  0  0  0  0  0  0
   -3.9090   23.2430  -30.2580 N   0  0  0  0  0  0  0  0  0  0  0  0
   -3.8890   24.5490  -29.9200 C   0  0  0  0  0  0  0  0  0  0  0  0
   -2.7290   25.2840  -29.7080 O   0  0  0  0  0  0  0  0  0  0  0  0
   -5.1700   25.0500  -29.8000 C   0  0  0  0  0  0  0  0  0  0  0  0
   -6.0210   23.9990  -30.0850 C   0  0  0  0  0  0  0  0  0  0  0  0
   -5.2130   22.9130  -30.3670 C   0  0  0  0  0  0  0  0  0  0  0  0
   -5.6700   21.6560  -30.7500 O   0  0  0  0  0  0  0  0  0  0  0  0
   -2.3550   22.2050  -31.8620 C   0  0  0  0  0  0  0  0  0  0  0  0
   -4.1690   19.8140  -33.3370 C   0  0  0  0  0  0  0  0  0  0  0  0
   -4.4030   20.9820  -32.9260 O   0  0  0  0  0  0  0  0  0  0  0  0
   -5.0470   18.7940  -33.2760 N   0  0  0  0  0  0  0  0  0  0  0  0
   -6.4250   18.9110  -32.8900 C   0  0  0  0  0  0  0  0  0  0  0  0
   -6.9690   18.0360  -31.9380 C   0  0  0  0  0  0  0  0  0  0  0  0
   -8.2990   18.1830  -31.5270 C   0  0  0  0  0  0  0  0  0  0  0  0
   -9.0860   19.2100  -32.0550 C   0  0  0  0  0  0  0  0  0  0  0  0
   -8.5460   20.0930  -32.9940 C   0  0  0  0  0  0  0  0  0  0  0  0
   -7.2200   19.9470  -33.4100 C   0  0  0  0  0  0  0  0  0  0  0  0
   -4.4730   17.7150  -33.8060 N   0  0  0  0  0  0  0  0  0  0  0  0
   -5.1140   16.4060  -33.9560 C   0  0  0  0  0  0  0  0  0  0  0  0
   -1.1200   17.0823  -33.1347 H   0  0  0  0  0  0  0  0  0  0  0  0
   -0.4120   16.1503  -34.4973 H   0  0  0  0  0  0  0  0  0  0  0  0
   -0.3285   17.9446  -34.4973 H   0  0  0  0  0  0  0  0  0  0  0  0
   -2.1070   17.5131  -35.9748 H   0  0  0  0  0  0  0  0  0  0  0  0
   -2.7072   16.1254  -34.9884 H   0  0  0  0  0  0  0  0  0  0  0  0
    0.1189   19.9024  -31.3350 H   0  0  0  0  0  0  0  0  0  0  0  0
   -0.5640   20.3100  -28.9723 H   0  0  0  0  0  0  0  0  0  0  0  0
   -2.4570   21.8521  -28.4624 H   0  0  0  0  0  0  0  0  0  0  0  0
   -5.4555   26.0779  -29.5318 H   0  0  0  0  0  0  0  0  0  0  0  0
   -7.1208   24.0219  -30.0871 H   0  0  0  0  0  0  0  0  0  0  0  0
   -5.2550   21.1680  -31.5340 H   0  0  0  0  0  0  0  0  0  0  0  0
   -2.8091   22.7964  -32.6707 H   0  0  0  0  0  0  0  0  0  0  0  0
   -6.3490   17.2326  -31.5135 H   0  0  0  0  0  0  0  0  0  0  0  0
   -8.7252   17.4892  -30.7874 H   0  0  0  0  0  0  0  0  0  0  0  0
  -10.1312   19.3234  -31.7313 H   0  0  0  0  0  0  0  0  0  0  0  0
   -9.1652   20.9035  -33.4059 H   0  0  0  0  0  0  0  0  0  0  0  0
   -6.7968   20.6453  -34.1471 H   0  0  0  0  0  0  0  0  0  0  0  0
   -5.3211   15.9831  -32.9619 H   0  0  0  0  0  0  0  0  0  0  0  0
   -6.0577   16.5211  -34.5094 H   0  0  0  0  0  0  0  0  0  0  0  0
   -4.4444   15.7311  -34.5094 H   0  0  0  0  0  0  0  0  0  0  0  0
  1  2  1  0
  2  3  1  0
  3  4  2  0
  4  5  1  0
  5  6  1  0
  6  7  2  0
  6  8  1  0
  8  9  2  0
  9 10  1  0
 10 11  2  0
 11 12  1  0
 12 13  1  0
 13 14  1  0
 14 15  1  0
 14 16  2  0
 16 17  1  0
 17 18  2  0
 18 19  1  0
 12 20  2  0
  4 21  1  0
 21 22  2  0
 21 23  1  0
 23 24  1  0
 24 25  2  0
 25 26  1  0
 26 27  2  0
 27 28  1  0
 28 29  2  0
 23 30  1  0
 30 31  1  0
 30  3  1  0
 20  8  1  0
 29 24  1  0
 18 13  1  0
  1 32  1  0
  1 33  1  0
  1 34  1  0
  2 35  1  0
  2 36  1  0
  9 37  1  0
 10 38  1  0
 11 39  1  0
 16 40  1  0
 17 41  1  0
 19 42  1  0
 20 43  1  0
 25 44  1  0
 26 45  1  0
 27 46  1  0
 28 47  1  0
 29 48  1  0
 31 49  1  0
 31 50  1  0
 31 51  1  0
M  CHG  2   5  -1  15  -1
M  END
>  <UniqueID>  (43) 
42

>  <SMILES>  (43) 
CCc1c([N-]C(=O)c2cccc(-n3c([O-])ccc3O)c2)c(=O)n(-c2ccccc2)n1C

>  <Energy>  (43) 
131.18631297123798

>  <Genealogy>  (43) 
CCc1c([N-]C(=O)c2cccc(-n3c([O-])ccc3O)c2)c(=O)n(-c2ccccc2)n1C (protonated)
CCc1c([N-]C(=O)c2cccc(-n3c([O-])ccc3O)c2)c(=O)n(-c2ccccc2)n1C (3D coordinates assigned)
CCc1c([N-]C(=O)c2cccc(-n3c([O-])ccc3O)c2)c(=O)n(-c2ccccc2)n1C (optimized conformer: 131.18631297123798 kcal/mol)

>  <smiles>  (43) 
CCc1c(NC(=O)c2cccc(-n3c(O)ccc3O)c2)c(=O)n(-c2ccccc2)n1C

>  <score_type>  (43) 
oracle

>  <origin>  (43) 
adgpu

>  <m_score__min__energy>  (43) 
-12.01

>  <m_primary>  (43) 
energy

$$$$
43:0
     RDKit          3D

 29 30  0  0  0  0  0  0  0  0999 V2000
   -3.1760   21.3850  -32.7920 C   0  0  0  0  0  0  0  0  0  0  0  0
   -3.5230   22.6670  -32.2780 O   0  0  0  0  0  0  0  0  0  0  0  0
   -4.8200   23.0540  -31.9050 C   0  0  0  0  0  0  0  0  0  0  0  0
   -5.9540   22.3330  -32.3240 C   0  0  0  0  0  0  0  0  0  0  0  0
   -7.2270   22.7000  -31.8870 C   0  0  0  0  0  0  0  0  0  0  0  0
   -7.3880   23.7790  -31.0200 C   0  0  0  0  0  0  0  0  0  0  0  0
   -6.2730   24.5150  -30.5920 C   0  0  0  0  0  0  0  0  0  0  0  0
   -6.4620   25.6850  -29.6650 C   0  0  0  0  0  0  0  0  0  0  0  0
   -4.9880   24.1770  -31.0630 C   0  0  0  0  0  0  0  0  0  0  0  0
   -3.8590   24.9470  -30.6210 N   0  0  0  0  0  0  0  0  0  0  0  0
   -2.9370   24.5590  -29.5970 C   0  0  0  0  0  0  0  0  0  0  0  0
   -1.9460   25.2900  -29.3260 O   0  0  0  0  0  0  0  0  0  0  0  0
   -3.1650   23.3310  -28.8180 C   0  0  0  0  0  0  0  0  0  0  0  0
   -4.2500   23.1140  -28.0500 N   0  0  0  0  0  0  0  0  0  0  0  0
   -4.1600   21.9230  -27.4800 N   0  0  0  0  0  0  0  0  0  0  0  0
   -3.0050   21.3570  -27.8800 C   0  0  0  0  0  0  0  0  0  0  0  0
   -2.3450   22.2200  -28.7300 C   0  0  0  0  0  0  0  0  0  0  0  0
   -0.8010   21.9240  -29.5100 Cl  0  0  0  0  0  0  0  0  0  0  0  0
   -2.9889   20.6936  -31.9572 H   0  0  0  0  0  0  0  0  0  0  0  0
   -4.0025   21.0009  -33.4079 H   0  0  0  0  0  0  0  0  0  0  0  0
   -2.2686   21.4702  -33.4079 H   0  0  0  0  0  0  0  0  0  0  0  0
   -5.8356   21.4740  -33.0009 H   0  0  0  0  0  0  0  0  0  0  0  0
   -8.1072   22.1354  -32.2282 H   0  0  0  0  0  0  0  0  0  0  0  0
   -8.3936   24.0548  -30.6697 H   0  0  0  0  0  0  0  0  0  0  0  0
   -6.4062   25.3393  -28.6222 H   0  0  0  0  0  0  0  0  0  0  0  0
   -5.6724   26.4287  -29.8475 H   0  0  0  0  0  0  0  0  0  0  0  0
   -7.4457   26.1423  -29.8475 H   0  0  0  0  0  0  0  0  0  0  0  0
   -5.0520   23.7690  -27.9080 H   0  0  0  0  0  0  0  0  0  0  0  0
   -2.6447   20.3629  -27.5766 H   0  0  0  0  0  0  0  0  0  0  0  0
  1  2  1  0
  2  3  1  0
  3  4  2  0
  4  5  1  0
  5  6  2  0
  6  7  1  0
  7  8  1  0
  7  9  2  0
  9 10  1  0
 10 11  1  0
 11 12  2  0
 11 13  1  0
 13 14  1  0
 14 15  1  0
 15 16  2  0
 16 17  1  0
 17 18  1  0
  9  3  1  0
 17 13  2  0
  1 19  1  0
  1 20  1  0
  1 21  1  0
  4 22  1  0
  5 23  1  0
  6 24  1  0
  8 25  1  0
  8 26  1  0
  8 27  1  0
 14 28  1  0
 16 29  1  0
M  CHG  1  10  -1
M  END
>  <UniqueID>  (44) 
43

>  <SMILES>  (44) 
COc1cccc(C)c1[N-]C(=O)c1[nH]ncc1Cl

>  <Energy>  (44) 
64.34112286717566

>  <Genealogy>  (44) 
COc1cccc(C)c1[N-]C(=O)c1[nH]ncc1Cl (protonated)
COc1cccc(C)c1[N-]C(=O)c1[nH]ncc1Cl (3D coordinates assigned)
COc1cccc(C)c1[N-]C(=O)c1[nH]ncc1Cl (optimized conformer: 64.34112286717566 kcal/mol)

>  <smiles>  (44) 
COc1cccc(C)c1NC(=O)c1[nH]ncc1Cl

>  <score_type>  (44) 
oracle

>  <origin>  (44) 
adgpu

>  <m_score__min__energy>  (44) 
-7.8499999999999996

>  <m_primary>  (44) 
energy

$$$$
44:0
     RDKit          3D

 43 45  0  0  0  0  0  0  0  0999 V2000
   -7.7350   22.2400  -31.2900 C   0  0  0  0  0  0  0  0  0  0  0  0
   -6.5960   21.3500  -31.7260 C   0  0  0  0  0  0  0  0  0  0  0  0
   -6.8320   19.9990  -32.0720 C   0  0  0  0  0  0  0  0  0  0  0  0
   -8.4320   19.2690  -31.9610 Cl  0  0  0  0  0  0  0  0  0  0  0  0
   -5.7760   19.1940  -32.5110 C   0  0  0  0  0  0  0  0  0  0  0  0
   -4.4830   19.7090  -32.5950 C   0  0  0  0  0  0  0  0  0  0  0  0
   -4.2300   21.0280  -32.2220 C   0  0  0  0  0  0  0  0  0  0  0  0
   -5.2710   21.8530  -31.7710 C   0  0  0  0  0  0  0  0  0  0  0  0
   -4.9680   23.1860  -31.3330 N   0  0  0  0  0  0  0  0  0  0  0  0
   -5.4780   24.2890  -31.8530 N   0  0  0  0  0  0  0  0  0  0  0  0
   -4.9840   25.3320  -31.2000 N   0  0  0  0  0  0  0  0  0  0  0  0
   -4.1490   24.9230  -30.2520 N   0  0  0  0  0  0  0  0  0  0  0  0
   -4.1520   23.5820  -30.3410 C   0  0  0  0  0  0  0  0  0  0  0  0
   -3.1320   22.5030  -29.3290 S   0  0  0  0  0  0  0  0  0  0  0  0
   -1.5620   22.9970  -30.1210 C   0  0  0  0  0  0  0  0  0  0  0  0
   -0.8960   24.0920  -29.3500 C   0  0  0  0  0  0  0  0  0  0  0  0
    0.2820   23.9330  -28.9280 O   0  0  0  0  0  0  0  0  0  0  0  0
   -1.5930   25.3190  -29.1130 N   0  0  0  0  0  0  0  0  0  0  0  0
   -1.6110   26.0010  -27.8210 C   0  0  0  0  0  0  0  0  0  0  0  0
   -2.1880   25.0520  -26.7460 C   0  0  0  0  0  0  0  0  0  0  0  0
   -1.7120   25.3790  -25.3140 C   0  0  0  0  0  0  0  0  0  0  0  0
   -1.3300   26.8560  -25.1610 C   0  0  0  0  0  0  0  0  0  0  0  0
   -0.1800   27.2430  -26.1120 C   0  0  0  0  0  0  0  0  0  0  0  0
   -0.1920   26.4610  -27.4420 C   0  0  0  0  0  0  0  0  0  0  0  0
   -7.7756   22.2717  -30.1912 H   0  0  0  0  0  0  0  0  0  0  0  0
   -7.5766   23.2561  -31.6806 H   0  0  0  0  0  0  0  0  0  0  0  0
   -8.6826   21.8406  -31.6806 H   0  0  0  0  0  0  0  0  0  0  0  0
   -5.9667   18.1477  -32.7919 H   0  0  0  0  0  0  0  0  0  0  0  0
   -3.6612   19.0733  -32.9562 H   0  0  0  0  0  0  0  0  0  0  0  0
   -3.2059   21.4251  -32.2818 H   0  0  0  0  0  0  0  0  0  0  0  0
   -0.8906   22.1267  -30.1633 H   0  0  0  0  0  0  0  0  0  0  0  0
   -1.7803   23.3639  -31.1348 H   0  0  0  0  0  0  0  0  0  0  0  0
   -2.2511   26.8932  -27.8865 H   0  0  0  0  0  0  0  0  0  0  0  0
   -3.2854   25.1227  -26.7725 H   0  0  0  0  0  0  0  0  0  0  0  0
   -1.8285   24.0397  -26.9825 H   0  0  0  0  0  0  0  0  0  0  0  0
   -2.5229   25.1466  -24.6081 H   0  0  0  0  0  0  0  0  0  0  0  0
   -0.8182   24.7727  -25.1054 H   0  0  0  0  0  0  0  0  0  0  0  0
   -2.2079   27.4779  -25.3900 H   0  0  0  0  0  0  0  0  0  0  0  0
   -0.9931   27.0203  -24.1268 H   0  0  0  0  0  0  0  0  0  0  0  0
   -0.2616   28.3164  -26.3384 H   0  0  0  0  0  0  0  0  0  0  0  0
    0.7612   26.9953  -25.5994 H   0  0  0  0  0  0  0  0  0  0  0  0
    0.1971   27.1100  -28.2403 H   0  0  0  0  0  0  0  0  0  0  0  0
    0.4362   25.5665  -27.3187 H   0  0  0  0  0  0  0  0  0  0  0  0
  1  2  1  0
  2  3  2  0
  3  4  1  0
  3  5  1  0
  5  6  2  0
  6  7  1  0
  7  8  2  0
  8  9  1  0
  9 10  1  0
 10 11  2  0
 11 12  1  0
 12 13  2  0
 13 14  1  0
 14 15  1  0
 15 16  1  0
 16 17  2  0
 16 18  1  0
 18 19  1  0
 19 20  1  0
 20 21  1  0
 21 22  1  0
 22 23  1  0
 23 24  1  0
  8  2  1  0
 13  9  1  0
 24 19  1  0
  1 25  1  0
  1 26  1  0
  1 27  1  0
  5 28  1  0
  6 29  1  0
  7 30  1  0
 15 31  1  0
 15 32  1  0
 19 33  1  0
 20 34  1  0
 20 35  1  0
 21 36  1  0
 21 37  1  0
 22 38  1  0
 22 39  1  0
 23 40  1  0
 23 41  1  0
 24 42  1  0
 24 43  1  0
M  CHG  1  18  -1
M  END
>  <UniqueID>  (45) 
44

>  <SMILES>  (45) 
Cc1c(Cl)cccc1-n1nnnc1SCC(=O)[N-]C1CCCCC1

>  <Energy>  (45) 
86.45992141002417

>  <Genealogy>  (45) 
Cc1c(Cl)cccc1-n1nnnc1SCC(=O)[N-]C1CCCCC1 (protonated)
Cc1c(Cl)cccc1-n1nnnc1SCC(=O)[N-]C1CCCCC1 (3D coordinates assigned)
Cc1c(Cl)cccc1-n1nnnc1SCC(=O)[N-]C1CCCCC1 (nonaromatic ring conformer: 86.45992141002417 kcal/mol)

>  <smiles>  (45) 
Cc1c(Cl)cccc1-n1nnnc1SCC(=O)NC1CCCCC1

>  <score_type>  (45) 
oracle

>  <origin>  (45) 
adgpu

>  <m_score__min__energy>  (45) 
-11.470000000000001

>  <m_primary>  (45) 
energy

$$$$
45:0
     RDKit          3D

 26 27  0  0  0  0  0  0  0  0999 V2000
   -6.0690   17.4510  -34.1570 O   0  0  0  0  0  0  0  0  0  0  0  0
   -5.9130   18.6530  -33.8080 C   0  0  0  0  0  0  0  0  0  0  0  0
   -4.7490   19.3110  -34.1810 O   0  0  0  0  0  0  0  0  0  0  0  0
   -6.9410   19.3290  -32.9770 C   0  0  0  0  0  0  0  0  0  0  0  0
   -8.0950   18.6120  -32.6030 C   0  0  0  0  0  0  0  0  0  0  0  0
   -9.0610   19.1950  -31.7810 C   0  0  0  0  0  0  0  0  0  0  0  0
   -8.8970   20.5010  -31.3250 C   0  0  0  0  0  0  0  0  0  0  0  0
   -7.7680   21.2320  -31.6950 C   0  0  0  0  0  0  0  0  0  0  0  0
   -6.7800   20.6590  -32.5160 C   0  0  0  0  0  0  0  0  0  0  0  0
   -5.6760   21.4680  -32.9560 N   0  0  0  0  0  0  0  0  0  0  0  0
   -5.0370   22.4650  -32.1370 C   0  0  0  0  0  0  0  0  0  0  0  0
   -3.7370   22.2350  -31.6590 C   0  0  0  0  0  0  0  0  0  0  0  0
   -3.1030   23.1810  -30.8470 C   0  0  0  0  0  0  0  0  0  0  0  0
   -3.7680   24.3590  -30.4940 C   0  0  0  0  0  0  0  0  0  0  0  0
   -3.1360   25.2980  -29.6880 O   0  0  0  0  0  0  0  0  0  0  0  0
   -5.0690   24.5890  -30.9500 C   0  0  0  0  0  0  0  0  0  0  0  0
   -5.7050   23.6470  -31.7620 C   0  0  0  0  0  0  0  0  0  0  0  0
   -8.2361   17.5820  -32.9626 H   0  0  0  0  0  0  0  0  0  0  0  0
   -9.9542   18.6215  -31.4925 H   0  0  0  0  0  0  0  0  0  0  0  0
   -9.6576   20.9557  -30.6733 H   0  0  0  0  0  0  0  0  0  0  0  0
   -7.6492   22.2668  -31.3412 H   0  0  0  0  0  0  0  0  0  0  0  0
   -5.3620   21.3640  -33.9470 H   0  0  0  0  0  0  0  0  0  0  0  0
   -3.2137   21.3047  -31.9249 H   0  0  0  0  0  0  0  0  0  0  0  0
   -2.0802   22.9980  -30.4858 H   0  0  0  0  0  0  0  0  0  0  0  0
   -5.5934   25.5141  -30.6687 H   0  0  0  0  0  0  0  0  0  0  0  0
   -6.7324   23.8291  -32.1102 H   0  0  0  0  0  0  0  0  0  0  0  0
  1  2  2  0
  2  3  1  0
  2  4  1  0
  4  5  2  0
  5  6  1  0
  6  7  2  0
  7  8  1  0
  8  9  2  0
  9 10  1  0
 10 11  1  0
 11 12  2  0
 12 13  1  0
 13 14  2  0
 14 15  1  0
 14 16  1  0
 16 17  2  0
  9  4  1  0
 17 11  1  0
  5 18  1  0
  6 19  1  0
  7 20  1  0
  8 21  1  0
 10 22  1  0
 12 23  1  0
 13 24  1  0
 16 25  1  0
 17 26  1  0
M  CHG  2   3  -1  15  -1
M  END
>  <UniqueID>  (46) 
45

>  <SMILES>  (46) 
O=C([O-])c1ccccc1Nc1ccc([O-])cc1

>  <Energy>  (46) 
36.468778774602946

>  <Genealogy>  (46) 
O=C([O-])c1ccccc1Nc1ccc([O-])cc1 (protonated)
O=C([O-])c1ccccc1Nc1ccc([O-])cc1 (3D coordinates assigned)
O=C([O-])c1ccccc1Nc1ccc([O-])cc1 (optimized conformer: 36.468778774602946 kcal/mol)

>  <smiles>  (46) 
O=C(O)c1ccccc1Nc1ccc(O)cc1

>  <score_type>  (46) 
oracle

>  <origin>  (46) 
adgpu

>  <m_score__min__energy>  (46) 
-9.8300000000000001

>  <m_primary>  (46) 
energy

$$$$
46:0
     RDKit          3D

 62 67  0  0  0  0  0  0  0  0999 V2000
   -6.1570   20.0000  -34.1430 C   0  0  0  0  0  0  0  0  0  0  0  0
   -6.8230   20.8320  -33.0940 C   0  0  0  0  0  0  0  0  0  0  0  0
   -6.3840   22.0500  -32.7210 N   0  0  0  0  0  0  0  0  0  0  0  0
   -7.1950   22.4770  -31.7320 C   0  0  0  0  0  0  0  0  0  0  0  0
   -6.9510   23.7300  -30.9420 C   0  0  0  0  0  0  0  0  0  0  0  0
   -5.4770   23.9330  -30.7300 C   0  0  0  0  0  0  0  0  0  0  0  0
   -4.8090   25.1370  -30.5430 C   0  0  0  0  0  0  0  0  0  0  0  0
   -5.4110   26.3900  -30.5840 O   0  0  0  0  0  0  0  0  0  0  0  0
   -3.4890   24.9580  -30.3030 N   0  0  0  0  0  0  0  0  0  0  0  0
   -3.3280   23.6210  -30.3370 C   0  0  0  0  0  0  0  0  0  0  0  0
   -2.1390   22.9260  -30.1350 C   0  0  0  0  0  0  0  0  0  0  0  0
   -2.1630   21.5120  -30.1890 C   0  0  0  0  0  0  0  0  0  0  0  0
   -0.9320   20.7120  -29.9690 C   0  0  0  0  0  0  0  0  0  0  0  0
   -0.5240   20.2230  -28.7240 C   0  0  0  0  0  0  0  0  0  0  0  0
    0.9050   19.3680  -28.9460 S   0  0  0  0  0  0  0  0  0  0  0  0
    0.9570   19.6440  -30.6050 C   0  0  0  0  0  0  0  0  0  0  0  0
    1.9970   19.1500  -31.5360 C   0  0  0  0  0  0  0  0  0  0  0  0
    3.1540   18.5220  -31.0360 C   0  0  0  0  0  0  0  0  0  0  0  0
    4.1450   18.0620  -31.9100 C   0  0  0  0  0  0  0  0  0  0  0  0
    3.9890   18.2190  -33.2870 C   0  0  0  0  0  0  0  0  0  0  0  0
    2.8430   18.8340  -33.7950 C   0  0  0  0  0  0  0  0  0  0  0  0
    1.8510   19.2970  -32.9260 C   0  0  0  0  0  0  0  0  0  0  0  0
   -0.1090   20.3780  -31.0010 N   0  0  0  0  0  0  0  0  0  0  0  0
   -3.3890   20.8500  -30.4640 C   0  0  0  0  0  0  0  0  0  0  0  0
   -4.5730   21.5800  -30.6660 C   0  0  0  0  0  0  0  0  0  0  0  0
   -4.5040   22.9690  -30.5930 C   0  0  0  0  0  0  0  0  0  0  0  0
   -8.1860   21.5360  -31.4880 C   0  0  0  0  0  0  0  0  0  0  0  0
   -9.2790   21.6380  -30.4650 C   0  0  0  0  0  0  0  0  0  0  0  0
   -7.9330   20.4710  -32.3430 C   0  0  0  0  0  0  0  0  0  0  0  0
   -8.6170   19.1660  -32.3650 C   0  0  0  0  0  0  0  0  0  0  0  0
   -9.8220   19.1070  -32.7260 O   0  0  0  0  0  0  0  0  0  0  0  0
   -7.9500   17.9630  -31.9640 N   0  0  0  0  0  0  0  0  0  0  0  0
   -6.7720   17.4130  -32.5770 C   0  0  0  0  0  0  0  0  0  0  0  0
   -6.9150   16.5420  -33.6640 C   0  0  0  0  0  0  0  0  0  0  0  0
   -5.7880   15.9710  -34.2660 C   0  0  0  0  0  0  0  0  0  0  0  0
   -4.5100   16.2850  -33.7960 C   0  0  0  0  0  0  0  0  0  0  0  0
   -3.0970   15.5680  -34.5480 Cl  0  0  0  0  0  0  0  0  0  0  0  0
   -4.3560   17.1770  -32.7310 C   0  0  0  0  0  0  0  0  0  0  0  0
   -5.4810   17.7480  -32.1280 C   0  0  0  0  0  0  0  0  0  0  0  0
   -5.5391   19.2280  -33.6611 H   0  0  0  0  0  0  0  0  0  0  0  0
   -6.9222   19.5187  -34.7698 H   0  0  0  0  0  0  0  0  0  0  0  0
   -5.5198   20.6412  -34.7698 H   0  0  0  0  0  0  0  0  0  0  0  0
   -5.5490   22.5490  -33.0980 H   0  0  0  0  0  0  0  0  0  0  0  0
   -7.3608   24.5908  -31.4907 H   0  0  0  0  0  0  0  0  0  0  0  0
   -7.4444   23.6382  -29.9632 H   0  0  0  0  0  0  0  0  0  0  0  0
   -5.5430   26.9240  -29.7340 H   0  0  0  0  0  0  0  0  0  0  0  0
   -1.2004   23.4645  -29.9375 H   0  0  0  0  0  0  0  0  0  0  0  0
   -1.0467   20.3720  -27.7677 H   0  0  0  0  0  0  0  0  0  0  0  0
    3.2795   18.3922  -29.9509 H   0  0  0  0  0  0  0  0  0  0  0  0
    5.0476   17.5763  -31.5109 H   0  0  0  0  0  0  0  0  0  0  0  0
    4.7693   17.8581  -33.9733 H   0  0  0  0  0  0  0  0  0  0  0  0
    2.7206   18.9544  -34.8815 H   0  0  0  0  0  0  0  0  0  0  0  0
    0.9501   19.7796  -33.3328 H   0  0  0  0  0  0  0  0  0  0  0  0
   -3.4123   19.7517  -30.5196 H   0  0  0  0  0  0  0  0  0  0  0  0
   -5.5248   21.0699  -30.8753 H   0  0  0  0  0  0  0  0  0  0  0  0
   -8.8421   21.5972  -29.4563 H   0  0  0  0  0  0  0  0  0  0  0  0
   -9.8146   22.5900  -30.5944 H   0  0  0  0  0  0  0  0  0  0  0  0
   -9.9815   20.8015  -30.5944 H   0  0  0  0  0  0  0  0  0  0  0  0
   -7.9187   16.3053  -34.0469 H   0  0  0  0  0  0  0  0  0  0  0  0
   -5.9082   15.2749  -35.1092 H   0  0  0  0  0  0  0  0  0  0  0  0
   -3.3493   17.4300  -32.3670 H   0  0  0  0  0  0  0  0  0  0  0  0
   -5.3565   18.4614  -31.3000 H   0  0  0  0  0  0  0  0  0  0  0  0
  1  2  1  0
  2  3  1  0
  3  4  1  0
  4  5  1  0
  5  6  1  0
  6  7  2  0
  7  8  1  0
  7  9  1  0
  9 10  1  0
 10 11  2  0
 11 12  1  0
 12 13  1  0
 13 14  2  0
 14 15  1  0
 15 16  1  0
 16 17  1  0
 17 18  2  0
 18 19  1  0
 19 20  2  0
 20 21  1  0
 21 22  2  0
 16 23  2  0
 12 24  2  0
 24 25  1  0
 25 26  2  0
  4 27  2  0
 27 28  1  0
 27 29  1  0
 29 30  1  0
 30 31  2  0
 30 32  1  0
 32 33  1  0
 33 34  2  0
 34 35  1  0
 35 36  2  0
 36 37  1  0
 36 38  1  0
 38 39  2  0
 29  2  2  0
 39 33  1  0
 26  6  1  0
 26 10  1  0
 23 13  1  0
 22 17  1  0
  1 40  1  0
  1 41  1  0
  1 42  1  0
  3 43  1  0
  5 44  1  0
  5 45  1  0
  8 46  1  0
 11 47  1  0
 14 48  1  0
 18 49  1  0
 19 50  1  0
 20 51  1  0
 21 52  1  0
 22 53  1  0
 24 54  1  0
 25 55  1  0
 28 56  1  0
 28 57  1  0
 28 58  1  0
 34 59  1  0
 35 60  1  0
 38 61  1  0
 39 62  1  0
M  CHG  2   9  -1  32  -1
M  END
>  <UniqueID>  (47) 
46

>  <SMILES>  (47) 
Cc1[nH]c(Cc2c(O)[n-]c3cc(-c4csc(-c5ccccc5)n4)ccc23)c(C)c1C(=O)[N-]c1ccc(Cl)cc1

>  <Energy>  (47) 
158.41574836606986

>  <Genealogy>  (47) 
Cc1[nH]c(Cc2c(O)[n-]c3cc(-c4csc(-c5ccccc5)n4)ccc23)c(C)c1C(=O)[N-]c1ccc(Cl)cc1 (protonated)
Cc1[nH]c(Cc2c(O)[n-]c3cc(-c4csc(-c5ccccc5)n4)ccc23)c(C)c1C(=O)[N-]c1ccc(Cl)cc1 (3D coordinates assigned)
Cc1[nH]c(Cc2c(O)[n-]c3cc(-c4csc(-c5ccccc5)n4)ccc23)c(C)c1C(=O)[N-]c1ccc(Cl)cc1 (optimized conformer: 158.41574836606986 kcal/mol)

>  <smiles>  (47) 
Cc1[nH]c(Cc2c(O)[nH]c3cc(-c4csc(-c5ccccc5)n4)ccc23)c(C)c1C(=O)Nc1ccc(Cl)cc1

>  <score_type>  (47) 
oracle

>  <origin>  (47) 
adgpu

>  <m_score__min__energy>  (47) 
-12.48

>  <m_primary>  (47) 
energy

$$$$
47:0
     RDKit          3D

 53 56  0  0  0  0  0  0  0  0999 V2000
    1.2960   15.7920  -27.6350 C   0  0  0  0  0  0  0  0  0  0  0  0
    0.9500   17.0790  -27.1330 O   0  0  0  0  0  0  0  0  0  0  0  0
    0.1810   18.0220  -27.8330 C   0  0  0  0  0  0  0  0  0  0  0  0
   -0.9010   18.7020  -27.2430 C   0  0  0  0  0  0  0  0  0  0  0  0
   -1.6350   19.6330  -27.9820 C   0  0  0  0  0  0  0  0  0  0  0  0
   -1.3050   19.9010  -29.3200 C   0  0  0  0  0  0  0  0  0  0  0  0
   -2.0640   20.8640  -30.0840 N   0  0  0  0  0  0  0  0  0  0  0  0
   -1.9470   22.2750  -29.7960 C   0  0  0  0  0  0  0  0  0  0  0  0
   -0.7210   22.8160  -29.3660 C   0  0  0  0  0  0  0  0  0  0  0  0
   -0.6090   24.1820  -29.0890 C   0  0  0  0  0  0  0  0  0  0  0  0
   -1.7190   25.0200  -29.2370 C   0  0  0  0  0  0  0  0  0  0  0  0
   -1.6060   26.3770  -28.9600 O   0  0  0  0  0  0  0  0  0  0  0  0
   -2.9410   24.4920  -29.6630 C   0  0  0  0  0  0  0  0  0  0  0  0
   -3.0560   23.1270  -29.9410 C   0  0  0  0  0  0  0  0  0  0  0  0
   -2.9340   20.4190  -31.1470 C   0  0  0  0  0  0  0  0  0  0  0  0
   -4.3120   20.6860  -31.0990 C   0  0  0  0  0  0  0  0  0  0  0  0
   -5.1570   20.2340  -32.1160 C   0  0  0  0  0  0  0  0  0  0  0  0
   -4.6430   19.4900  -33.1910 C   0  0  0  0  0  0  0  0  0  0  0  0
   -5.5670   18.9670  -34.2760 C   0  0  0  0  0  0  0  0  0  0  0  0
   -6.4390   17.8410  -33.8570 N   0  0  0  0  0  0  0  0  0  0  0  0
   -7.6060   18.2510  -33.0680 C   0  0  0  0  0  0  0  0  0  0  0  0
   -7.3050   17.9660  -31.6030 C   0  0  0  0  0  0  0  0  0  0  0  0
   -6.1060   17.0340  -31.6010 C   0  0  0  0  0  0  0  0  0  0  0  0
   -5.7490   16.8150  -33.0660 C   0  0  0  0  0  0  0  0  0  0  0  0
   -3.2590   19.2600  -33.2610 C   0  0  0  0  0  0  0  0  0  0  0  0
   -2.4150   19.7120  -32.2440 C   0  0  0  0  0  0  0  0  0  0  0  0
   -0.2250   19.2200  -29.9060 C   0  0  0  0  0  0  0  0  0  0  0  0
    0.5090   18.2900  -29.1660 C   0  0  0  0  0  0  0  0  0  0  0  0
    1.4800   15.1076  -26.7937 H   0  0  0  0  0  0  0  0  0  0  0  0
    0.4703   15.4040  -28.2495 H   0  0  0  0  0  0  0  0  0  0  0  0
    2.2050   15.8703  -28.2495 H   0  0  0  0  0  0  0  0  0  0  0  0
   -1.1697   18.4995  -26.1957 H   0  0  0  0  0  0  0  0  0  0  0  0
   -2.4782   20.1602  -27.5118 H   0  0  0  0  0  0  0  0  0  0  0  0
    0.1543   22.1604  -29.2471 H   0  0  0  0  0  0  0  0  0  0  0  0
    0.3528   24.5979  -28.7544 H   0  0  0  0  0  0  0  0  0  0  0  0
   -3.8135   25.1516  -29.7797 H   0  0  0  0  0  0  0  0  0  0  0  0
   -4.0203   22.7167  -30.2754 H   0  0  0  0  0  0  0  0  0  0  0  0
   -4.7290   21.2549  -30.2549 H   0  0  0  0  0  0  0  0  0  0  0  0
   -6.2322   20.4624  -32.0745 H   0  0  0  0  0  0  0  0  0  0  0  0
   -6.2113   19.7951  -34.6062 H   0  0  0  0  0  0  0  0  0  0  0  0
   -4.9193   18.5781  -35.0755 H   0  0  0  0  0  0  0  0  0  0  0  0
   -7.7932   19.3258  -33.2087 H   0  0  0  0  0  0  0  0  0  0  0  0
   -8.4998   17.6966  -33.3901 H   0  0  0  0  0  0  0  0  0  0  0  0
   -7.0656   18.8994  -31.0725 H   0  0  0  0  0  0  0  0  0  0  0  0
   -8.1689   17.5156  -31.0922 H   0  0  0  0  0  0  0  0  0  0  0  0
   -5.2629   17.4954  -31.0660 H   0  0  0  0  0  0  0  0  0  0  0  0
   -6.3314   16.0849  -31.0926 H   0  0  0  0  0  0  0  0  0  0  0  0
   -4.6614   16.9060  -33.2032 H   0  0  0  0  0  0  0  0  0  0  0  0
   -6.0578   15.8100  -33.3894 H   0  0  0  0  0  0  0  0  0  0  0  0
   -2.8373   18.7206  -34.1220 H   0  0  0  0  0  0  0  0  0  0  0  0
   -1.3348   19.5126  -32.3027 H   0  0  0  0  0  0  0  0  0  0  0  0
    0.0442   19.4203  -30.9536 H   0  0  0  0  0  0  0  0  0  0  0  0
    1.3528   17.7635  -29.6360 H   0  0  0  0  0  0  0  0  0  0  0  0
  1  2  1  0
  2  3  1  0
  3  4  2  0
  4  5  1  0
  5  6  2  0
  6  7  1  0
  7  8  1  0
  8  9  2  0
  9 10  1  0
 10 11  2  0
 11 12  1  0
 11 13  1  0
 13 14  2  0
  7 15  1  0
 15 16  2  0
 16 17  1  0
 17 18  2  0
 18 19  1  0
 19 20  1  0
 20 21  1  0
 21 22  1  0
 22 23  1  0
 23 24  1  0
 18 25  1  0
 25 26  2  0
  6 27  1  0
 27 28  2  0
 28  3  1  0
 14  8  1  0
 26 15  1  0
 24 20  1  0
  1 29  1  0
  1 30  1  0
  1 31  1  0
  4 32  1  0
  5 33  1  0
  9 34  1  0
 10 35  1  0
 13 36  1  0
 14 37  1  0
 16 38  1  0
 17 39  1  0
 19 40  1  0
 19 41  1  0
 21 42  1  0
 21 43  1  0
 22 44  1  0
 22 45  1  0
 23 46  1  0
 23 47  1  0
 24 48  1  0
 24 49  1  0
 25 50  1  0
 26 51  1  0
 27 52  1  0
 28 53  1  0
M  CHG  1  12  -1
M  END
>  <UniqueID>  (48) 
47

>  <SMILES>  (48) 
COc1ccc(N(c2ccc([O-])cc2)c2ccc(CN3CCCC3)cc2)cc1

>  <Energy>  (48) 
73.03812234485437

>  <Genealogy>  (48) 
COc1ccc(N(c2ccc([O-])cc2)c2ccc(CN3CCCC3)cc2)cc1 (protonated)
COc1ccc(N(c2ccc([O-])cc2)c2ccc(CN3CCCC3)cc2)cc1 (3D coordinates assigned)
COc1ccc(N(c2ccc([O-])cc2)c2ccc(CN3CCCC3)cc2)cc1 (nonaromatic ring conformer: 73.03812234485437 kcal/mol)

>  <smiles>  (48) 
COc1ccc(N(c2ccc(O)cc2)c2ccc(CN3CCCC3)cc2)cc1

>  <score_type>  (48) 
oracle

>  <origin>  (48) 
adgpu

>  <m_score__min__energy>  (48) 
-9.8599999999999994

>  <m_primary>  (48) 
energy

$$$$
