0:0
     RDKit          3D

 42 44  0  0  0  0  0  0  0  0999 V2000
    1.9940   18.5450  -28.7020 H   0  0  0  0  0  0  0  0  0  0  0  0
    1.2130   18.0900  -28.1770 N   0  0  0  0  0  0  0  0  0  0  0  0
    0.1580   18.7530  -27.8260 C   0  0  0  0  0  0  0  0  0  0  0  0
    0.0430   20.0720  -28.1410 N   0  0  0  0  0  0  0  0  0  0  0  0
   -1.0470   20.8120  -27.7890 C   0  0  0  0  0  0  0  0  0  0  0  0
   -1.1120   22.2430  -28.1760 C   0  0  0  0  0  0  0  0  0  0  0  0
    0.0580   23.0180  -28.2270 C   0  0  0  0  0  0  0  0  0  0  0  0
    1.0255   22.5662  -27.9628 H   0  0  0  0  0  0  0  0  0  0  0  0
    0.0010   24.3230  -28.6010 N   0  0  0  0  0  0  0  0  0  0  0  0
   -1.1680   24.9250  -28.9450 C   0  0  0  0  0  0  0  0  0  0  0  0
   -1.1640   26.1340  -29.2940 O   0  0  0  0  0  0  0  0  0  0  0  0
   -2.3660   24.1980  -28.9180 C   0  0  0  0  0  0  0  0  0  0  0  0
   -3.5960   24.8400  -29.2930 N   0  0  0  0  0  0  0  0  0  0  0  0
   -4.3260   24.6400  -30.5130 C   0  0  0  0  0  0  0  0  0  0  0  0
   -4.6450   25.6500  -31.1960 O   0  0  0  0  0  0  0  0  0  0  0  0
   -4.6820   23.2890  -31.0070 C   0  0  0  0  0  0  0  0  0  0  0  0
   -3.6720   22.3820  -31.3620 C   0  0  0  0  0  0  0  0  0  0  0  0
   -2.6161   22.6634  -31.2355 H   0  0  0  0  0  0  0  0  0  0  0  0
   -3.9980   21.1240  -31.8750 C   0  0  0  0  0  0  0  0  0  0  0  0
   -3.1968   20.4246  -32.1559 H   0  0  0  0  0  0  0  0  0  0  0  0
   -5.3440   20.7450  -32.0350 C   0  0  0  0  0  0  0  0  0  0  0  0
   -5.7110   19.4980  -32.5630 O   0  0  0  0  0  0  0  0  0  0  0  0
   -6.1110   19.2810  -33.9120 C   0  0  0  0  0  0  0  0  0  0  0  0
   -7.0778   18.7565  -33.9279 H   0  0  0  0  0  0  0  0  0  0  0  0
   -6.2104   20.2489  -34.4252 H   0  0  0  0  0  0  0  0  0  0  0  0
   -5.3539   18.6700  -34.4252 H   0  0  0  0  0  0  0  0  0  0  0  0
   -6.3550   21.6430  -31.6530 C   0  0  0  0  0  0  0  0  0  0  0  0
   -8.0870   21.2000  -31.8430 S   0  0  0  0  0  0  0  0  0  0  0  0
   -8.6390   22.9290  -31.9700 C   0  0  0  0  0  0  0  0  0  0  0  0
   -8.7723   23.3464  -30.9610 H   0  0  0  0  0  0  0  0  0  0  0  0
   -7.8836   23.5161  -32.5129 H   0  0  0  0  0  0  0  0  0  0  0  0
   -9.5948   22.9698  -32.5129 H   0  0  0  0  0  0  0  0  0  0  0  0
   -6.0250   22.9000  -31.1350 C   0  0  0  0  0  0  0  0  0  0  0  0
   -6.8244   23.5893  -30.8254 H   0  0  0  0  0  0  0  0  0  0  0  0
   -2.3320   22.8610  -28.4890 C   0  0  0  0  0  0  0  0  0  0  0  0
   -3.2699   22.2936  -28.3977 H   0  0  0  0  0  0  0  0  0  0  0  0
   -2.1000   20.1900  -27.0930 C   0  0  0  0  0  0  0  0  0  0  0  0
   -2.9947   20.7652  -26.8126 H   0  0  0  0  0  0  0  0  0  0  0  0
   -2.0010   18.8380  -26.7610 C   0  0  0  0  0  0  0  0  0  0  0  0
   -2.8175   18.3451  -26.2130 H   0  0  0  0  0  0  0  0  0  0  0  0
   -0.8670   18.1120  -27.1240 C   0  0  0  0  0  0  0  0  0  0  0  0
   -0.7801   17.0474  -26.8610 H   0  0  0  0  0  0  0  0  0  0  0  0
  1  2  1  0
  2  3  2  0
  3  4  1  0
  4  5  1  0
  5  6  1  0
  6  7  2  0
  7  8  1  0
  7  9  1  0
  9 10  1  0
 10 11  2  0
 10 12  1  0
 12 13  1  0
 13 14  1  0
 14 15  2  0
 14 16  1  0
 16 17  2  0
 17 18  1  0
 17 19  1  0
 19 20  1  0
 19 21  2  0
 21 22  1  0
 22 23  1  0
 23 24  1  0
 23 25  1  0
 23 26  1  0
 21 27  1  0
 27 28  1  0
 28 29  1  0
 29 30  1  0
 29 31  1  0
 29 32  1  0
 27 33  2  0
 33 34  1  0
 12 35  2  0
 35 36  1  0
  5 37  2  0
 37 38  1  0
 37 39  1  0
 39 40  1  0
 39 41  2  0
 41 42  1  0
 41  3  1  0
 35  6  1  0
 33 16  1  0
M  CHG  3   4  -1   9  -1  13  -1
M  END
>  <UniqueID>  (1) 
1

>  <SMILES>  (1) 
[H]/N=c1/cccc(-c2c[n-]c(=O)c([N-]C(=O)c3ccc(OC)c(SC)c3)c2)[n-]1

>  <Energy>  (1) 
51.05536056699049

>  <Genealogy>  (1) 
COc1ccc(C(=O)[N-]c2cc(-c3cccc(=N)[n-]3)c[n-]c2=O)cc1SC (protonated)
[H]/N=c1/cccc(-c2c[n-]c(=O)c([N-]C(=O)c3ccc(OC)c(SC)c3)c2)[n-]1 (cis-trans isomerization)
[H]/N=c1/cccc(-c2c[n-]c(=O)c([N-]C(=O)c3ccc(OC)c(SC)c3)c2)[n-]1 (3D coordinates assigned)
[H]/N=c1/cccc(-c2c[n-]c(=O)c([N-]C(=O)c3ccc(OC)c(SC)c3)c2)[n-]1 (optimized conformer: 51.05536056699049 kcal/mol)

>  <smiles>  (1) 
COc1ccc(C(=O)Nc2cc(-c3cccc(=N)[nH]3)c[nH]c2=O)cc1SC

>  <score_type>  (1) 
oracle

>  <origin>  (1) 
adgpu

>  <m_score__min__energy>  (1) 
-11.470000000000001

>  <m_primary>  (1) 
energy

$$$$
1:0
     RDKit          3D

 42 44  0  0  0  0  0  0  0  0999 V2000
   -1.5580   18.5870  -27.2590 C   0  0  0  0  0  0  0  0  0  0  0  0
   -1.5930   20.0740  -27.5080 C   0  0  0  0  0  0  0  0  0  0  0  0
   -2.8170   20.7560  -27.4180 C   0  0  0  0  0  0  0  0  0  0  0  0
   -2.8810   22.1330  -27.6410 C   0  0  0  0  0  0  0  0  0  0  0  0
   -1.7220   22.8500  -27.9590 C   0  0  0  0  0  0  0  0  0  0  0  0
   -1.7950   24.5850  -28.2500 S   0  0  0  0  0  0  0  0  0  0  0  0
   -2.4450   25.2940  -27.0940 O   0  0  0  0  0  0  0  0  0  0  0  0
   -0.3990   25.1110  -28.4200 O   0  0  0  0  0  0  0  0  0  0  0  0
   -2.7020   24.9020  -29.6930 N   0  0  0  0  0  0  0  0  0  0  0  0
   -3.7250   24.0530  -30.2280 C   0  0  0  0  0  0  0  0  0  0  0  0
   -5.0560   24.4840  -30.1620 C   0  0  0  0  0  0  0  0  0  0  0  0
   -6.0860   23.6810  -30.6570 C   0  0  0  0  0  0  0  0  0  0  0  0
   -5.8020   22.4270  -31.2210 C   0  0  0  0  0  0  0  0  0  0  0  0
   -6.8680   21.5940  -31.7200 N   0  0  0  0  0  0  0  0  0  0  0  0
   -8.0640   21.5790  -31.0620 C   0  0  0  0  0  0  0  0  0  0  0  0
   -9.1160   20.7860  -31.5170 C   0  0  0  0  0  0  0  0  0  0  0  0
   -8.9180   20.0080  -32.6540 C   0  0  0  0  0  0  0  0  0  0  0  0
   -9.8510   19.2820  -33.0880 O   0  0  0  0  0  0  0  0  0  0  0  0
   -7.7160   20.0320  -33.2890 N   0  0  0  0  0  0  0  0  0  0  0  0
   -6.6950   20.8130  -32.8360 C   0  0  0  0  0  0  0  0  0  0  0  0
   -5.5910   20.8000  -33.4470 O   0  0  0  0  0  0  0  0  0  0  0  0
   -4.4660   22.0000  -31.3020 C   0  0  0  0  0  0  0  0  0  0  0  0
   -3.4350   22.8070  -30.8110 C   0  0  0  0  0  0  0  0  0  0  0  0
   -0.4960   22.1820  -28.0400 C   0  0  0  0  0  0  0  0  0  0  0  0
   -0.4150   20.7990  -27.8050 C   0  0  0  0  0  0  0  0  0  0  0  0
    0.9210   20.1110  -27.9180 C   0  0  0  0  0  0  0  0  0  0  0  0
   -1.5535   18.3967  -26.1756 H   0  0  0  0  0  0  0  0  0  0  0  0
   -2.4454   18.1187  -27.7099 H   0  0  0  0  0  0  0  0  0  0  0  0
   -0.6496   18.1610  -27.7099 H   0  0  0  0  0  0  0  0  0  0  0  0
   -3.7335   20.2007  -27.1697 H   0  0  0  0  0  0  0  0  0  0  0  0
   -3.8458   22.6560  -27.5664 H   0  0  0  0  0  0  0  0  0  0  0  0
   -5.2918   25.4620  -29.7171 H   0  0  0  0  0  0  0  0  0  0  0  0
   -7.1267   24.0334  -30.6046 H   0  0  0  0  0  0  0  0  0  0  0  0
   -8.1988   22.1991  -30.1635 H   0  0  0  0  0  0  0  0  0  0  0  0
  -10.0811   20.7752  -30.9893 H   0  0  0  0  0  0  0  0  0  0  0  0
   -7.5720   19.4410  -34.1420 H   0  0  0  0  0  0  0  0  0  0  0  0
   -4.2297   21.0255  -31.7542 H   0  0  0  0  0  0  0  0  0  0  0  0
   -2.3918   22.4652  -30.8813 H   0  0  0  0  0  0  0  0  0  0  0  0
    0.4149   22.7454  -28.2904 H   0  0  0  0  0  0  0  0  0  0  0  0
    1.3152   19.9080  -26.9113 H   0  0  0  0  0  0  0  0  0  0  0  0
    0.8003   19.1629  -28.4626 H   0  0  0  0  0  0  0  0  0  0  0  0
    1.6227   20.7599  -28.4626 H   0  0  0  0  0  0  0  0  0  0  0  0
  1  2  1  0
  2  3  2  0
  3  4  1  0
  4  5  2  0
  5  6  1  0
  6  7  2  0
  6  8  2  0
  6  9  1  0
  9 10  1  0
 10 11  2  0
 11 12  1  0
 12 13  2  0
 13 14  1  0
 14 15  1  0
 15 16  2  0
 16 17  1  0
 17 18  2  0
 17 19  1  0
 19 20  1  0
 20 21  2  0
 13 22  1  0
 22 23  2  0
  5 24  1  0
 24 25  2  0
 25 26  1  0
 25  2  1  0
 23 10  1  0
 20 14  1  0
  1 27  1  0
  1 28  1  0
  1 29  1  0
  3 30  1  0
  4 31  1  0
 11 32  1  0
 12 33  1  0
 15 34  1  0
 16 35  1  0
 19 36  1  0
 22 37  1  0
 23 38  1  0
 24 39  1  0
 26 40  1  0
 26 41  1  0
 26 42  1  0
M  CHG  1   9  -1
M  END
>  <UniqueID>  (2) 
2

>  <SMILES>  (2) 
Cc1ccc(S(=O)(=O)[N-]c2ccc(-n3ccc(=O)[nH]c3=O)cc2)cc1C

>  <Energy>  (2) 
56.59416531649852

>  <Genealogy>  (2) 
Cc1ccc(S(=O)(=O)[N-]c2ccc(-n3ccc(=O)[nH]c3=O)cc2)cc1C (protonated)
Cc1ccc(S(=O)(=O)[N-]c2ccc(-n3ccc(=O)[nH]c3=O)cc2)cc1C (3D coordinates assigned)
Cc1ccc(S(=O)(=O)[N-]c2ccc(-n3ccc(=O)[nH]c3=O)cc2)cc1C (optimized conformer: 56.59416531649852 kcal/mol)

>  <smiles>  (2) 
Cc1ccc(S(=O)(=O)Nc2ccc(-n3ccc(=O)[nH]c3=O)cc2)cc1C

>  <score_type>  (2) 
oracle

>  <origin>  (2) 
adgpu

>  <m_score__min__energy>  (2) 
-10.48

>  <m_primary>  (2) 
energy

$$$$
2:0
     RDKit          3D

 40 42  0  0  0  0  0  0  0  0999 V2000
    0.6420   26.0390  -26.4900 C   0  0  0  0  0  0  0  0  0  0  0  0
   -0.4500   25.5930  -27.4090 C   0  0  0  0  0  0  0  0  0  0  0  0
   -0.8830   26.2980  -28.4740 N   0  0  0  0  0  0  0  0  0  0  0  0
   -1.9010   25.6720  -28.9900 O   0  0  0  0  0  0  0  0  0  0  0  0
   -2.1540   24.5840  -28.2980 C   0  0  0  0  0  0  0  0  0  0  0  0
   -3.1280   23.7640  -28.5420 N   0  0  0  0  0  0  0  0  0  0  0  0
   -4.2430   24.0100  -29.8470 S   0  0  0  0  0  0  0  0  0  0  0  0
   -3.8860   25.2780  -30.5690 O   0  0  0  0  0  0  0  0  0  0  0  0
   -5.6310   24.1350  -29.2840 O   0  0  0  0  0  0  0  0  0  0  0  0
   -4.1530   22.6620  -30.9750 C   0  0  0  0  0  0  0  0  0  0  0  0
   -3.2930   21.5880  -30.7160 C   0  0  0  0  0  0  0  0  0  0  0  0
   -3.2370   20.5020  -31.5930 C   0  0  0  0  0  0  0  0  0  0  0  0
   -4.0420   20.4800  -32.7460 C   0  0  0  0  0  0  0  0  0  0  0  0
   -4.0380   19.3750  -33.6590 N   0  0  0  0  0  0  0  0  0  0  0  0
   -5.4140   18.3870  -34.0290 S   0  0  0  0  0  0  0  0  0  0  0  0
   -5.0820   16.9470  -33.7490 O   0  0  0  0  0  0  0  0  0  0  0  0
   -5.7570   18.5420  -35.4830 O   0  0  0  0  0  0  0  0  0  0  0  0
   -6.7880   18.8930  -33.0630 C   0  0  0  0  0  0  0  0  0  0  0  0
   -7.5390   20.0410  -33.2650 C   0  0  0  0  0  0  0  0  0  0  0  0
   -8.5500   20.2050  -32.3120 C   0  0  0  0  0  0  0  0  0  0  0  0
   -8.5920   19.1900  -31.3640 C   0  0  0  0  0  0  0  0  0  0  0  0
   -7.3680   18.0880  -31.7090 S   0  0  0  0  0  0  0  0  0  0  0  0
   -4.8830   21.5680  -33.0140 C   0  0  0  0  0  0  0  0  0  0  0  0
   -4.9390   22.6540  -32.1350 C   0  0  0  0  0  0  0  0  0  0  0  0
   -1.2430   24.4670  -27.2680 C   0  0  0  0  0  0  0  0  0  0  0  0
   -1.2320   23.4620  -26.1590 C   0  0  0  0  0  0  0  0  0  0  0  0
    0.3197   25.9074  -25.4465 H   0  0  0  0  0  0  0  0  0  0  0  0
    1.5444   25.4374  -26.6737 H   0  0  0  0  0  0  0  0  0  0  0  0
    0.8652   27.1003  -26.6737 H   0  0  0  0  0  0  0  0  0  0  0  0
   -0.4990   27.2020  -28.8270 H   0  0  0  0  0  0  0  0  0  0  0  0
   -2.6583   21.5993  -29.8176 H   0  0  0  0  0  0  0  0  0  0  0  0
   -2.5606   19.6608  -31.3809 H   0  0  0  0  0  0  0  0  0  0  0  0
   -7.3588   20.7483  -34.0879 H   0  0  0  0  0  0  0  0  0  0  0  0
   -9.2459   21.0569  -32.3131 H   0  0  0  0  0  0  0  0  0  0  0  0
   -9.3048   19.1189  -30.5292 H   0  0  0  0  0  0  0  0  0  0  0  0
   -5.5036   21.5679  -33.9222 H   0  0  0  0  0  0  0  0  0  0  0  0
   -5.6017   23.5041  -32.3546 H   0  0  0  0  0  0  0  0  0  0  0  0
   -1.2377   23.9842  -25.1909 H   0  0  0  0  0  0  0  0  0  0  0  0
   -2.1232   22.8217  -26.2355 H   0  0  0  0  0  0  0  0  0  0  0  0
   -0.3270   22.8414  -26.2355 H   0  0  0  0  0  0  0  0  0  0  0  0
  1  2  1  0
  2  3  1  0
  3  4  1  0
  4  5  1  0
  5  6  2  3
  6  7  1  0
  7  8  2  0
  7  9  2  0
  7 10  1  0
 10 11  2  0
 11 12  1  0
 12 13  2  0
 13 14  1  0
 14 15  1  0
 15 16  2  0
 15 17  2  0
 15 18  1  0
 18 19  2  0
 19 20  1  0
 20 21  2  0
 21 22  1  0
 13 23  1  0
 23 24  2  0
  5 25  1  0
 25 26  1  0
 25  2  2  0
 24 10  1  0
 22 18  1  0
  1 27  1  0
  1 28  1  0
  1 29  1  0
  3 30  1  0
 11 31  1  0
 12 32  1  0
 19 33  1  0
 20 34  1  0
 21 35  1  0
 23 36  1  0
 24 37  1  0
 26 38  1  0
 26 39  1  0
 26 40  1  0
M  CHG  1  14  -1
M  END
>  <UniqueID>  (3) 
3

>  <SMILES>  (3) 
Cc1[nH]oc(=NS(=O)(=O)c2ccc([N-]S(=O)(=O)c3cccs3)cc2)c1C

>  <Energy>  (3) 
103.36791637479242

>  <Genealogy>  (3) 
Cc1[nH]oc(=NS(=O)(=O)c2ccc([N-]S(=O)(=O)c3cccs3)cc2)c1C (protonated)
Cc1[nH]oc(=NS(=O)(=O)c2ccc([N-]S(=O)(=O)c3cccs3)cc2)c1C (3D coordinates assigned)
Cc1[nH]oc(=NS(=O)(=O)c2ccc([N-]S(=O)(=O)c3cccs3)cc2)c1C (optimized conformer: 103.36791637479242 kcal/mol)

>  <smiles>  (3) 
Cc1[nH]oc(=NS(=O)(=O)c2ccc(NS(=O)(=O)c3cccs3)cc2)c1C

>  <score_type>  (3) 
oracle

>  <origin>  (3) 
adgpu

>  <m_score__min__energy>  (3) 
-10.720000000000001

>  <m_primary>  (3) 
energy

$$$$
3:0
     RDKit          3D

 54 56  0  0  0  0  0  0  0  0999 V2000
   -0.5040   27.0750  -26.7770 C   0  0  0  0  0  0  0  0  0  0  0  0
   -0.1350   25.8910  -25.9900 N   0  0  0  0  0  0  0  0  0  0  0  0
   -1.1910   25.5880  -25.0150 C   0  0  0  0  0  0  0  0  0  0  0  0
    0.0750   24.5250  -27.0580 S   0  0  0  0  0  0  0  0  0  0  0  0
    0.6560   23.3600  -26.3040 O   0  0  0  0  0  0  0  0  0  0  0  0
    1.0200   24.8910  -28.1700 O   0  0  0  0  0  0  0  0  0  0  0  0
   -1.4740   24.0680  -27.7620 C   0  0  0  0  0  0  0  0  0  0  0  0
   -2.1500   22.9380  -27.2860 C   0  0  0  0  0  0  0  0  0  0  0  0
   -3.3660   22.5550  -27.8570 C   0  0  0  0  0  0  0  0  0  0  0  0
   -3.9160   23.3020  -28.9020 C   0  0  0  0  0  0  0  0  0  0  0  0
   -3.2570   24.4500  -29.3740 C   0  0  0  0  0  0  0  0  0  0  0  0
   -3.7750   25.2160  -30.4690 N   0  0  0  0  0  0  0  0  0  0  0  0
   -5.1570   25.3770  -30.8150 C   0  0  0  0  0  0  0  0  0  0  0  0
   -5.7470   26.4380  -30.4780 O   0  0  0  0  0  0  0  0  0  0  0  0
   -5.9310   24.3010  -31.5300 C   0  0  0  0  0  0  0  0  0  0  0  0
   -5.0780   23.1470  -31.8290 N   0  0  0  0  0  0  0  0  0  0  0  0
   -5.5990   21.8710  -32.2600 C   0  0  0  0  0  0  0  0  0  0  0  0
   -6.9900   21.6440  -32.3350 C   0  0  0  0  0  0  0  0  0  0  0  0
   -7.4890   20.4070  -32.7500 C   0  0  0  0  0  0  0  0  0  0  0  0
   -6.6140   19.3780  -33.0970 C   0  0  0  0  0  0  0  0  0  0  0  0
   -5.2360   19.5840  -33.0290 C   0  0  0  0  0  0  0  0  0  0  0  0
   -4.7200   20.8180  -32.6150 C   0  0  0  0  0  0  0  0  0  0  0  0
   -3.2960   20.9840  -32.5670 N   0  0  0  0  0  0  0  0  0  0  0  0
   -2.5110   20.9260  -33.8000 C   0  0  0  0  0  0  0  0  0  0  0  0
   -1.1200   20.3600  -33.4970 C   0  0  0  0  0  0  0  0  0  0  0  0
   -0.5180   21.0570  -32.4200 O   0  0  0  0  0  0  0  0  0  0  0  0
   -1.2540   20.8300  -31.2300 C   0  0  0  0  0  0  0  0  0  0  0  0
   -2.6550   21.4400  -31.3330 C   0  0  0  0  0  0  0  0  0  0  0  0
   -2.0240   24.8120  -28.8150 C   0  0  0  0  0  0  0  0  0  0  0  0
   -0.7615   27.9011  -26.0978 H   0  0  0  0  0  0  0  0  0  0  0  0
    0.3440   27.3725  -27.4113 H   0  0  0  0  0  0  0  0  0  0  0  0
   -1.3709   26.8381  -27.4113 H   0  0  0  0  0  0  0  0  0  0  0  0
   -0.7929   25.7022  -23.9959 H   0  0  0  0  0  0  0  0  0  0  0  0
   -2.0332   26.2807  -25.1594 H   0  0  0  0  0  0  0  0  0  0  0  0
   -1.5377   24.5541  -25.1594 H   0  0  0  0  0  0  0  0  0  0  0  0
   -1.7224   22.3503  -26.4603 H   0  0  0  0  0  0  0  0  0  0  0  0
   -3.8915   21.6638  -27.4833 H   0  0  0  0  0  0  0  0  0  0  0  0
   -4.8679   22.9904  -29.3567 H   0  0  0  0  0  0  0  0  0  0  0  0
   -6.7658   23.9749  -30.8922 H   0  0  0  0  0  0  0  0  0  0  0  0
   -6.3067   24.7126  -32.4784 H   0  0  0  0  0  0  0  0  0  0  0  0
   -4.0430   23.2660  -31.7480 H   0  0  0  0  0  0  0  0  0  0  0  0
   -7.6884   22.4495  -32.0639 H   0  0  0  0  0  0  0  0  0  0  0  0
   -8.5756   20.2440  -32.8033 H   0  0  0  0  0  0  0  0  0  0  0  0
   -7.0099   18.4052  -33.4239 H   0  0  0  0  0  0  0  0  0  0  0  0
   -4.5488   18.7699  -33.3030 H   0  0  0  0  0  0  0  0  0  0  0  0
   -3.0198   20.2769  -34.5278 H   0  0  0  0  0  0  0  0  0  0  0  0
   -2.4105   21.9388  -34.2173 H   0  0  0  0  0  0  0  0  0  0  0  0
   -1.2131   19.2966  -33.2316 H   0  0  0  0  0  0  0  0  0  0  0  0
   -0.4888   20.4772  -34.3903 H   0  0  0  0  0  0  0  0  0  0  0  0
   -1.3437   19.7465  -31.0625 H   0  0  0  0  0  0  0  0  0  0  0  0
   -0.7235   21.3042  -30.3911 H   0  0  0  0  0  0  0  0  0  0  0  0
   -3.2571   21.1237  -30.4685 H   0  0  0  0  0  0  0  0  0  0  0  0
   -2.5773   22.5372  -31.3439 H   0  0  0  0  0  0  0  0  0  0  0  0
   -1.4835   25.6868  -29.2056 H   0  0  0  0  0  0  0  0  0  0  0  0
  1  2  1  0
  2  3  1  0
  2  4  1  0
  4  5  2  0
  4  6  2  0
  4  7  1  0
  7  8  2  0
  8  9  1  0
  9 10  2  0
 10 11  1  0
 11 12  1  0
 12 13  1  0
 13 14  2  0
 13 15  1  0
 15 16  1  0
 16 17  1  0
 17 18  2  0
 18 19  1  0
 19 20  2  0
 20 21  1  0
 21 22  2  0
 22 23  1  0
 23 24  1  0
 24 25  1  0
 25 26  1  0
 26 27  1  0
 27 28  1  0
 11 29  2  0
 29  7  1  0
 22 17  1  0
 28 23  1  0
  1 30  1  0
  1 31  1  0
  1 32  1  0
  3 33  1  0
  3 34  1  0
  3 35  1  0
  8 36  1  0
  9 37  1  0
 10 38  1  0
 15 39  1  0
 15 40  1  0
 16 41  1  0
 18 42  1  0
 19 43  1  0
 20 44  1  0
 21 45  1  0
 24 46  1  0
 24 47  1  0
 25 48  1  0
 25 49  1  0
 27 50  1  0
 27 51  1  0
 28 52  1  0
 28 53  1  0
 29 54  1  0
M  CHG  1  12  -1
M  END
>  <UniqueID>  (4) 
4

>  <SMILES>  (4) 
CN(C)S(=O)(=O)c1cccc([N-]C(=O)CNc2ccccc2N2CCOCC2)c1

>  <Energy>  (4) 
64.8469526167226

>  <Genealogy>  (4) 
CN(C)S(=O)(=O)c1cccc([N-]C(=O)CNc2ccccc2N2CCOCC2)c1 (protonated)
CN(C)S(=O)(=O)c1cccc([N-]C(=O)CNc2ccccc2N2CCOCC2)c1 (3D coordinates assigned)
CN(C)S(=O)(=O)c1cccc([N-]C(=O)CNc2ccccc2N2CCOCC2)c1 (nonaromatic ring conformer: 64.8469526167226 kcal/mol)

>  <smiles>  (4) 
CN(C)S(=O)(=O)c1cccc(NC(=O)CNc2ccccc2N2CCOCC2)c1

>  <score_type>  (4) 
oracle

>  <origin>  (4) 
adgpu

>  <m_score__min__energy>  (4) 
-10.619999999999999

>  <m_primary>  (4) 
energy

$$$$
4:0
     RDKit          3D

 30 31  0  0  0  0  0  0  0  0999 V2000
   -7.0980   17.6400  -33.2610 C   0  0  0  0  0  0  0  0  0  0  0  0
   -7.2340   18.9620  -32.5660 C   0  0  0  0  0  0  0  0  0  0  0  0
   -6.2120   19.9200  -32.6620 C   0  0  0  0  0  0  0  0  0  0  0  0
   -6.3540   21.1670  -32.0470 C   0  0  0  0  0  0  0  0  0  0  0  0
   -7.5210   21.4750  -31.3310 C   0  0  0  0  0  0  0  0  0  0  0  0
   -7.6970   22.8320  -30.7100 C   0  0  0  0  0  0  0  0  0  0  0  0
   -6.6180   23.0880  -29.7580 N   0  0  0  0  0  0  0  0  0  0  0  0
   -5.4770   23.8950  -30.0820 C   0  0  0  0  0  0  0  0  0  0  0  0
   -4.1570   23.5110  -30.2810 C   0  0  0  0  0  0  0  0  0  0  0  0
   -3.5830   22.1350  -30.2000 C   0  0  0  0  0  0  0  0  0  0  0  0
   -3.4090   24.6120  -30.5210 N   0  0  0  0  0  0  0  0  0  0  0  0
   -4.2040   25.6710  -30.4670 N   0  0  0  0  0  0  0  0  0  0  0  0
   -5.4540   25.2630  -30.1910 C   0  0  0  0  0  0  0  0  0  0  0  0
   -6.4390   26.0370  -30.0640 O   0  0  0  0  0  0  0  0  0  0  0  0
   -8.5550   20.5290  -31.2630 C   0  0  0  0  0  0  0  0  0  0  0  0
   -8.4120   19.2810  -31.8770 C   0  0  0  0  0  0  0  0  0  0  0  0
   -7.0156   16.8387  -32.5119 H   0  0  0  0  0  0  0  0  0  0  0  0
   -7.9828   17.4639  -33.8904 H   0  0  0  0  0  0  0  0  0  0  0  0
   -6.1959   17.6477  -33.8904 H   0  0  0  0  0  0  0  0  0  0  0  0
   -5.2952   19.6880  -33.2239 H   0  0  0  0  0  0  0  0  0  0  0  0
   -5.5471   21.9106  -32.1246 H   0  0  0  0  0  0  0  0  0  0  0  0
   -7.6773   23.5990  -31.4982 H   0  0  0  0  0  0  0  0  0  0  0  0
   -8.6612   22.8658  -30.1817 H   0  0  0  0  0  0  0  0  0  0  0  0
   -6.8490   22.9700  -28.7460 H   0  0  0  0  0  0  0  0  0  0  0  0
   -3.4637   21.8490  -29.1445 H   0  0  0  0  0  0  0  0  0  0  0  0
   -4.2601   21.4253  -30.6979 H   0  0  0  0  0  0  0  0  0  0  0  0
   -2.6023   22.1169  -30.6979 H   0  0  0  0  0  0  0  0  0  0  0  0
   -3.8880   26.6560  -30.6100 H   0  0  0  0  0  0  0  0  0  0  0  0
   -9.4829   20.7704  -30.7239 H   0  0  0  0  0  0  0  0  0  0  0  0
   -9.2282   18.5458  -31.8190 H   0  0  0  0  0  0  0  0  0  0  0  0
  1  2  1  0
  2  3  2  0
  3  4  1  0
  4  5  2  0
  5  6  1  0
  6  7  1  0
  7  8  1  0
  8  9  2  0
  9 10  1  0
  9 11  1  0
 11 12  1  0
 12 13  1  0
 13 14  2  0
  5 15  1  0
 15 16  2  0
 16  2  1  0
 13  8  1  0
  1 17  1  0
  1 18  1  0
  1 19  1  0
  3 20  1  0
  4 21  1  0
  6 22  1  0
  6 23  1  0
  7 24  1  0
 10 25  1  0
 10 26  1  0
 10 27  1  0
 12 28  1  0
 15 29  1  0
 16 30  1  0
M  CHG  1  11  -1
M  END
>  <UniqueID>  (5) 
5

>  <SMILES>  (5) 
Cc1ccc(CNc2c(C)[n-][nH]c2=O)cc1

>  <Energy>  (5) 
62.64491659568704

>  <Genealogy>  (5) 
Cc1ccc(CNc2c(C)[n-][nH]c2=O)cc1 (protonated)
Cc1ccc(CNc2c(C)[n-][nH]c2=O)cc1 (3D coordinates assigned)
Cc1ccc(CNc2c(C)[n-][nH]c2=O)cc1 (optimized conformer: 62.64491659568704 kcal/mol)

>  <smiles>  (5) 
Cc1ccc(CNc2c(C)[nH][nH]c2=O)cc1

>  <score_type>  (5) 
oracle

>  <origin>  (5) 
adgpu

>  <m_score__min__energy>  (5) 
-8.7899999999999991

>  <m_primary>  (5) 
energy

$$$$
5:0
     RDKit          3D

 61 64  0  0  0  0  0  0  0  0999 V2000
   -8.5570   20.7890  -32.3130 C   0  0  0  0  0  0  0  0  0  0  0  0
   -7.5780   21.8930  -32.0150 C   0  0  0  0  0  0  0  0  0  0  0  0
   -8.0660   23.0560  -31.3980 C   0  0  0  0  0  0  0  0  0  0  0  0
   -7.2050   24.0890  -31.0300 C   0  0  0  0  0  0  0  0  0  0  0  0
   -5.8260   23.9750  -31.2460 C   0  0  0  0  0  0  0  0  0  0  0  0
   -4.9090   25.0660  -30.8400 C   0  0  0  0  0  0  0  0  0  0  0  0
   -5.3330   26.2530  -30.7730 O   0  0  0  0  0  0  0  0  0  0  0  0
   -3.5540   24.7680  -30.4760 N   0  0  0  0  0  0  0  0  0  0  0  0
   -3.1080   23.6590  -29.6820 C   0  0  0  0  0  0  0  0  0  0  0  0
   -2.3510   22.6070  -30.2300 C   0  0  0  0  0  0  0  0  0  0  0  0
   -1.9620   21.5300  -29.4300 C   0  0  0  0  0  0  0  0  0  0  0  0
   -2.3350   21.4800  -28.0800 C   0  0  0  0  0  0  0  0  0  0  0  0
   -1.8600   20.1090  -27.0720 S   0  0  0  0  0  0  0  0  0  0  0  0
   -1.3110   20.6180  -25.7670 O   0  0  0  0  0  0  0  0  0  0  0  0
   -3.0740   19.2760  -26.7710 O   0  0  0  0  0  0  0  0  0  0  0  0
   -0.6570   19.1180  -27.8590 N   0  0  0  0  0  0  0  0  0  0  0  0
   -0.4870   17.8440  -27.1300 C   0  0  0  0  0  0  0  0  0  0  0  0
    0.7690   17.0660  -27.5840 C   0  0  0  0  0  0  0  0  0  0  0  0
    1.2920   17.5730  -28.9310 C   0  0  0  0  0  0  0  0  0  0  0  0
    1.5950   19.0810  -28.8760 C   0  0  0  0  0  0  0  0  0  0  0  0
    0.6190   19.8430  -27.9590 C   0  0  0  0  0  0  0  0  0  0  0  0
   -3.1040   22.5180  -27.5370 C   0  0  0  0  0  0  0  0  0  0  0  0
   -3.4960   23.5940  -28.3370 C   0  0  0  0  0  0  0  0  0  0  0  0
   -5.3290   22.8130  -31.8560 C   0  0  0  0  0  0  0  0  0  0  0  0
   -6.1850   21.7800  -32.2780 C   0  0  0  0  0  0  0  0  0  0  0  0
   -5.4370   20.3760  -33.0900 S   0  0  0  0  0  0  0  0  0  0  0  0
   -6.3060   20.0050  -34.2590 O   0  0  0  0  0  0  0  0  0  0  0  0
   -4.0850   20.7290  -33.6400 O   0  0  0  0  0  0  0  0  0  0  0  0
   -5.2840   18.9670  -32.0530 N   0  0  0  0  0  0  0  0  0  0  0  0
   -6.5770   18.5450  -31.5130 C   0  0  0  0  0  0  0  0  0  0  0  0
   -7.1520   17.4950  -32.4480 C   0  0  0  0  0  0  0  0  0  0  0  0
   -5.9620   16.9550  -33.2180 C   0  0  0  0  0  0  0  0  0  0  0  0
   -4.7730   17.8060  -32.7870 C   0  0  0  0  0  0  0  0  0  0  0  0
   -8.9317   20.3665  -31.3690 H   0  0  0  0  0  0  0  0  0  0  0  0
   -9.3993   21.1928  -32.8939 H   0  0  0  0  0  0  0  0  0  0  0  0
   -8.0554   20.0010  -32.8939 H   0  0  0  0  0  0  0  0  0  0  0  0
   -9.1440   23.1536  -31.2020 H   0  0  0  0  0  0  0  0  0  0  0  0
   -7.6117   25.0000  -30.5667 H   0  0  0  0  0  0  0  0  0  0  0  0
   -2.0646   22.6328  -31.2918 H   0  0  0  0  0  0  0  0  0  0  0  0
   -1.3599   20.7170  -29.8618 H   0  0  0  0  0  0  0  0  0  0  0  0
   -0.3981   18.0615  -26.0554 H   0  0  0  0  0  0  0  0  0  0  0  0
   -1.3647   17.2165  -27.3440 H   0  0  0  0  0  0  0  0  0  0  0  0
    1.5573   17.1880  -26.8265 H   0  0  0  0  0  0  0  0  0  0  0  0
    0.4940   16.0072  -27.6990 H   0  0  0  0  0  0  0  0  0  0  0  0
    2.2144   17.0303  -29.1855 H   0  0  0  0  0  0  0  0  0  0  0  0
    0.5184   17.3998  -29.6936 H   0  0  0  0  0  0  0  0  0  0  0  0
    2.6183   19.2222  -28.4978 H   0  0  0  0  0  0  0  0  0  0  0  0
    1.4824   19.4831  -29.8937 H   0  0  0  0  0  0  0  0  0  0  0  0
    1.0620   19.9384  -26.9567 H   0  0  0  0  0  0  0  0  0  0  0  0
    0.4323   20.8402  -28.3842 H   0  0  0  0  0  0  0  0  0  0  0  0
   -3.3998   22.4854  -26.4780 H   0  0  0  0  0  0  0  0  0  0  0  0
   -4.1140   24.3964  -27.9079 H   0  0  0  0  0  0  0  0  0  0  0  0
   -4.2446   22.7077  -32.0076 H   0  0  0  0  0  0  0  0  0  0  0  0
   -6.4412   18.1173  -30.5087 H   0  0  0  0  0  0  0  0  0  0  0  0
   -7.2592   19.4044  -31.4353 H   0  0  0  0  0  0  0  0  0  0  0  0
   -7.6372   16.6916  -31.8743 H   0  0  0  0  0  0  0  0  0  0  0  0
   -7.9185   17.9145  -33.1162 H   0  0  0  0  0  0  0  0  0  0  0  0
   -5.7892   15.8983  -32.9658 H   0  0  0  0  0  0  0  0  0  0  0  0
   -6.1246   17.0044  -34.3048 H   0  0  0  0  0  0  0  0  0  0  0  0
   -4.1094   17.2169  -32.1369 H   0  0  0  0  0  0  0  0  0  0  0  0
   -4.2012   18.1343  -33.6675 H   0  0  0  0  0  0  0  0  0  0  0  0
  1  2  1  0
  2  3  2  0
  3  4  1  0
  4  5  2  0
  5  6  1  0
  6  7  2  0
  6  8  1  0
  8  9  1  0
  9 10  2  0
 10 11  1  0
 11 12  2  0
 12 13  1  0
 13 14  2  0
 13 15  2  0
 13 16  1  0
 16 17  1  0
 17 18  1  0
 18 19  1  0
 19 20  1  0
 20 21  1  0
 12 22  1  0
 22 23  2  0
  5 24  1  0
 24 25  2  0
 25 26  1  0
 26 27  2  0
 26 28  2  0
 26 29  1  0
 29 30  1  0
 30 31  1  0
 31 32  1  0
 32 33  1  0
 25  2  1  0
 33 29  1  0
 23  9  1  0
 21 16  1  0
  1 34  1  0
  1 35  1  0
  1 36  1  0
  3 37  1  0
  4 38  1  0
 10 39  1  0
 11 40  1  0
 17 41  1  0
 17 42  1  0
 18 43  1  0
 18 44  1  0
 19 45  1  0
 19 46  1  0
 20 47  1  0
 20 48  1  0
 21 49  1  0
 21 50  1  0
 22 51  1  0
 23 52  1  0
 24 53  1  0
 30 54  1  0
 30 55  1  0
 31 56  1  0
 31 57  1  0
 32 58  1  0
 32 59  1  0
 33 60  1  0
 33 61  1  0
M  CHG  1   8  -1
M  END
>  <UniqueID>  (6) 
6

>  <SMILES>  (6) 
Cc1ccc(C(=O)[N-]c2ccc(S(=O)(=O)N3CCCCC3)cc2)cc1S(=O)(=O)N1CCCC1

>  <Energy>  (6) 
73.87856314175392

>  <Genealogy>  (6) 
Cc1ccc(C(=O)[N-]c2ccc(S(=O)(=O)N3CCCCC3)cc2)cc1S(=O)(=O)N1CCCC1 (protonated)
Cc1ccc(C(=O)[N-]c2ccc(S(=O)(=O)N3CCCCC3)cc2)cc1S(=O)(=O)N1CCCC1 (3D coordinates assigned)
Cc1ccc(C(=O)[N-]c2ccc(S(=O)(=O)N3CCCCC3)cc2)cc1S(=O)(=O)N1CCCC1 (nonaromatic ring conformer: 73.87856314175392 kcal/mol)

>  <smiles>  (6) 
Cc1ccc(C(=O)Nc2ccc(S(=O)(=O)N3CCCCC3)cc2)cc1S(=O)(=O)N1CCCC1

>  <score_type>  (6) 
oracle

>  <origin>  (6) 
adgpu

>  <m_score__min__energy>  (6) 
-12.630000000000001

>  <m_primary>  (6) 
energy

$$$$
6:0
     RDKit          3D

 48 51  0  0  0  0  0  0  0  0999 V2000
   -9.5336   20.7790  -32.5167 H   0  0  0  0  0  0  0  0  0  0  0  0
   -8.7210   20.0380  -32.5440 C   0  0  0  0  0  0  0  0  0  0  0  0
   -7.5440   20.3410  -33.1560 N   0  0  0  0  0  0  0  0  0  0  0  0
   -6.5180   19.4500  -33.2290 C   0  0  0  0  0  0  0  0  0  0  0  0
   -5.2900   19.8580  -33.8480 N   0  0  0  0  0  0  0  0  0  0  0  0
   -4.2200   20.2840  -33.2400 C   0  0  0  0  0  0  0  0  0  0  0  0
   -3.9680   20.3320  -31.5730 S   0  0  0  0  0  0  0  0  0  0  0  0
   -2.3860   20.9150  -31.7160 C   0  0  0  0  0  0  0  0  0  0  0  0
   -1.4770   21.2270  -30.5830 C   0  0  0  0  0  0  0  0  0  0  0  0
   -0.6540   20.2260  -30.0350 C   0  0  0  0  0  0  0  0  0  0  0  0
   -0.6926   19.2050  -30.4425 H   0  0  0  0  0  0  0  0  0  0  0  0
    0.2110   20.5170  -28.9790 C   0  0  0  0  0  0  0  0  0  0  0  0
    0.8535   19.7271  -28.5627 H   0  0  0  0  0  0  0  0  0  0  0  0
    0.2630   21.8070  -28.4500 C   0  0  0  0  0  0  0  0  0  0  0  0
    0.9561   22.0336  -27.6265 H   0  0  0  0  0  0  0  0  0  0  0  0
   -0.5620   22.8130  -28.9620 C   0  0  0  0  0  0  0  0  0  0  0  0
   -0.4610   24.1370  -28.4210 N   0  0  0  0  0  0  0  0  0  0  0  0
   -1.4870   25.1380  -28.4420 C   0  0  0  0  0  0  0  0  0  0  0  0
   -1.2330   26.2570  -28.9610 O   0  0  0  0  0  0  0  0  0  0  0  0
   -2.8100   24.9340  -27.7570 C   0  0  0  0  0  0  0  0  0  0  0  0
   -3.1702   25.8968  -27.3655 H   0  0  0  0  0  0  0  0  0  0  0  0
   -2.6830   24.2200  -26.9299 H   0  0  0  0  0  0  0  0  0  0  0  0
   -3.8140   24.3860  -28.7340 C   0  0  0  0  0  0  0  0  0  0  0  0
   -4.0860   25.0770  -29.9250 C   0  0  0  0  0  0  0  0  0  0  0  0
   -3.5791   26.0311  -30.1319 H   0  0  0  0  0  0  0  0  0  0  0  0
   -4.9980   24.5590  -30.8500 C   0  0  0  0  0  0  0  0  0  0  0  0
   -5.2177   25.1149  -31.7734 H   0  0  0  0  0  0  0  0  0  0  0  0
   -5.6340   23.3320  -30.6040 C   0  0  0  0  0  0  0  0  0  0  0  0
   -6.6410   22.7960  -31.5780 C   0  0  0  0  0  0  0  0  0  0  0  0
   -7.4816   22.3486  -31.0274 H   0  0  0  0  0  0  0  0  0  0  0  0
   -7.0119   23.6160  -32.2104 H   0  0  0  0  0  0  0  0  0  0  0  0
   -6.1679   22.0304  -32.2104 H   0  0  0  0  0  0  0  0  0  0  0  0
   -5.3670   22.6440  -29.4110 C   0  0  0  0  0  0  0  0  0  0  0  0
   -5.8777   21.6925  -29.2017 H   0  0  0  0  0  0  0  0  0  0  0  0
   -4.4550   23.1620  -28.4870 C   0  0  0  0  0  0  0  0  0  0  0  0
   -4.2386   22.6077  -27.5618 H   0  0  0  0  0  0  0  0  0  0  0  0
   -1.4100   22.5280  -30.0470 C   0  0  0  0  0  0  0  0  0  0  0  0
   -2.0268   23.3286  -30.4813 H   0  0  0  0  0  0  0  0  0  0  0  0
   -2.1030   21.0460  -33.0800 C   0  0  0  0  0  0  0  0  0  0  0  0
   -1.1341   21.4097  -33.4528 H   0  0  0  0  0  0  0  0  0  0  0  0
   -3.1210   20.6880  -33.9090 N   0  0  0  0  0  0  0  0  0  0  0  0
   -3.0530   20.7270  -34.9510 H   0  0  0  0  0  0  0  0  0  0  0  0
   -6.6510   18.1930  -32.6130 C   0  0  0  0  0  0  0  0  0  0  0  0
   -5.8166   17.4763  -32.6281 H   0  0  0  0  0  0  0  0  0  0  0  0
   -7.8520   17.8630  -31.9820 C   0  0  0  0  0  0  0  0  0  0  0  0
   -7.9741   16.8768  -31.5104 H   0  0  0  0  0  0  0  0  0  0  0  0
   -8.8970   18.7870  -31.9510 C   0  0  0  0  0  0  0  0  0  0  0  0
   -9.8499   18.5320  -31.4641 H   0  0  0  0  0  0  0  0  0  0  0  0
  1  2  1  0
  2  3  2  0
  3  4  1  0
  4  5  1  0
  5  6  2  0
  6  7  1  0
  7  8  1  0
  8  9  1  0
  9 10  2  0
 10 11  1  0
 10 12  1  0
 12 13  1  0
 12 14  2  0
 14 15  1  0
 14 16  1  0
 16 17  1  0
 17 18  1  0
 18 19  2  0
 18 20  1  0
 20 21  1  0
 20 22  1  0
 20 23  1  0
 23 24  2  0
 24 25  1  0
 24 26  1  0
 26 27  1  0
 26 28  2  0
 28 29  1  0
 29 30  1  0
 29 31  1  0
 29 32  1  0
 28 33  1  0
 33 34  1  0
 33 35  2  0
 35 36  1  0
 16 37  2  0
 37 38  1  0
  8 39  2  0
 39 40  1  0
 39 41  1  0
 41 42  1  0
  4 43  2  0
 43 44  1  0
 43 45  1  0
 45 46  1  0
 45 47  2  0
 47 48  1  0
 47  2  1  0
 41  6  1  0
 37  9  1  0
 35 23  1  0
M  CHG  1  17  -1
M  END
>  <UniqueID>  (7) 
7

>  <SMILES>  (7) 
Cc1ccc(CC(=O)[N-]c2cccc(-c3c[nH]/c(=N/c4ccccn4)s3)c2)cc1

>  <Energy>  (7) 
95.90507154917037

>  <Genealogy>  (7) 
Cc1ccc(CC(=O)[N-]c2cccc(-c3c[nH]c(=Nc4ccccn4)s3)c2)cc1 (protonated)
Cc1ccc(CC(=O)[N-]c2cccc(-c3c[nH]/c(=N/c4ccccn4)s3)c2)cc1 (cis-trans isomerization)
Cc1ccc(CC(=O)[N-]c2cccc(-c3c[nH]/c(=N/c4ccccn4)s3)c2)cc1 (3D coordinates assigned)
Cc1ccc(CC(=O)[N-]c2cccc(-c3c[nH]/c(=N/c4ccccn4)s3)c2)cc1 (optimized conformer: 95.90507154917037 kcal/mol)

>  <smiles>  (7) 
Cc1ccc(CC(=O)Nc2cccc(-c3c[nH]c(=Nc4ccccn4)s3)c2)cc1

>  <score_type>  (7) 
oracle

>  <origin>  (7) 
adgpu

>  <m_score__min__energy>  (7) 
-11.06

>  <m_primary>  (7) 
energy

$$$$
7:0
     RDKit          3D

 41 43  0  0  0  0  0  0  0  0999 V2000
   -3.2150   23.7300  -28.2500 O   0  0  0  0  0  0  0  0  0  0  0  0
   -2.9050   24.5290  -29.1750 C   0  0  0  0  0  0  0  0  0  0  0  0
   -3.5030   24.4070  -30.4710 N   0  0  0  0  0  0  0  0  0  0  0  0
   -4.7750   23.8150  -30.7730 C   0  0  0  0  0  0  0  0  0  0  0  0
   -4.8930   22.6730  -31.5870 C   0  0  0  0  0  0  0  0  0  0  0  0
   -6.1530   22.1400  -31.8740 C   0  0  0  0  0  0  0  0  0  0  0  0
   -7.3080   22.7440  -31.3620 C   0  0  0  0  0  0  0  0  0  0  0  0
   -8.8960   22.0680  -31.7100 S   0  0  0  0  0  0  0  0  0  0  0  0
   -9.7840   23.0990  -32.3480 O   0  0  0  0  0  0  0  0  0  0  0  0
   -9.5220   21.6110  -30.4230 O   0  0  0  0  0  0  0  0  0  0  0  0
   -8.7450   20.7110  -32.7790 N   0  0  0  0  0  0  0  0  0  0  0  0
   -7.7410   19.6900  -32.6820 C   0  0  0  0  0  0  0  0  0  0  0  0
   -7.8070   18.7850  -31.6150 C   0  0  0  0  0  0  0  0  0  0  0  0
   -6.8460   17.7790  -31.4790 C   0  0  0  0  0  0  0  0  0  0  0  0
   -5.8110   17.6710  -32.4110 C   0  0  0  0  0  0  0  0  0  0  0  0
   -5.7370   18.5660  -33.4800 C   0  0  0  0  0  0  0  0  0  0  0  0
   -6.6980   19.5730  -33.6200 C   0  0  0  0  0  0  0  0  0  0  0  0
   -7.1950   23.8980  -30.5770 C   0  0  0  0  0  0  0  0  0  0  0  0
   -5.9350   24.4330  -30.2910 C   0  0  0  0  0  0  0  0  0  0  0  0
   -1.9570   25.5800  -28.9410 N   0  0  0  0  0  0  0  0  0  0  0  0
   -1.4410   25.9330  -27.6460 C   0  0  0  0  0  0  0  0  0  0  0  0
   -2.2170   25.6780  -26.5040 C   0  0  0  0  0  0  0  0  0  0  0  0
   -1.7290   25.9920  -25.2310 C   0  0  0  0  0  0  0  0  0  0  0  0
   -0.4550   26.5490  -25.0870 C   0  0  0  0  0  0  0  0  0  0  0  0
    0.1580   26.9390  -23.4890 Cl  0  0  0  0  0  0  0  0  0  0  0  0
    0.3350   26.7840  -26.2160 C   0  0  0  0  0  0  0  0  0  0  0  0
   -0.1510   26.4730  -27.4900 C   0  0  0  0  0  0  0  0  0  0  0  0
   -3.9904   22.1981  -31.9989 H   0  0  0  0  0  0  0  0  0  0  0  0
   -6.2376   21.2426  -32.5045 H   0  0  0  0  0  0  0  0  0  0  0  0
   -8.6205   18.8664  -30.8791 H   0  0  0  0  0  0  0  0  0  0  0  0
   -6.9048   17.0724  -30.6380 H   0  0  0  0  0  0  0  0  0  0  0  0
   -5.0539   16.8804  -32.3026 H   0  0  0  0  0  0  0  0  0  0  0  0
   -4.9217   18.4792  -34.2134 H   0  0  0  0  0  0  0  0  0  0  0  0
   -6.6384   20.2749  -34.4649 H   0  0  0  0  0  0  0  0  0  0  0  0
   -8.0997   24.3850  -30.1842 H   0  0  0  0  0  0  0  0  0  0  0  0
   -5.8548   25.3461  -29.6829 H   0  0  0  0  0  0  0  0  0  0  0  0
   -1.5500   26.0530  -29.7790 H   0  0  0  0  0  0  0  0  0  0  0  0
   -3.2152   25.2284  -26.6109 H   0  0  0  0  0  0  0  0  0  0  0  0
   -2.3485   25.8004  -24.3425 H   0  0  0  0  0  0  0  0  0  0  0  0
    1.3409   27.2144  -26.1022 H   0  0  0  0  0  0  0  0  0  0  0  0
    0.4783   26.6514  -28.3744 H   0  0  0  0  0  0  0  0  0  0  0  0
  1  2  2  0
  2  3  1  0
  3  4  1  0
  4  5  2  0
  5  6  1  0
  6  7  2  0
  7  8  1  0
  8  9  2  0
  8 10  2  0
  8 11  1  0
 11 12  1  0
 12 13  2  0
 13 14  1  0
 14 15  2  0
 15 16  1  0
 16 17  2  0
  7 18  1  0
 18 19  2  0
  2 20  1  0
 20 21  1  0
 21 22  2  0
 22 23  1  0
 23 24  2  0
 24 25  1  0
 24 26  1  0
 26 27  2  0
 19  4  1  0
 27 21  1  0
 17 12  1  0
  5 28  1  0
  6 29  1  0
 13 30  1  0
 14 31  1  0
 15 32  1  0
 16 33  1  0
 17 34  1  0
 18 35  1  0
 19 36  1  0
 20 37  1  0
 22 38  1  0
 23 39  1  0
 26 40  1  0
 27 41  1  0
M  CHG  2   3  -1  11  -1
M  END
>  <UniqueID>  (8) 
8

>  <SMILES>  (8) 
O=C([N-]c1ccc(S(=O)(=O)[N-]c2ccccc2)cc1)Nc1ccc(Cl)cc1

>  <Energy>  (8) 
53.498723895999454

>  <Genealogy>  (8) 
O=C([N-]c1ccc(S(=O)(=O)[N-]c2ccccc2)cc1)Nc1ccc(Cl)cc1 (protonated)
O=C([N-]c1ccc(S(=O)(=O)[N-]c2ccccc2)cc1)Nc1ccc(Cl)cc1 (3D coordinates assigned)
O=C([N-]c1ccc(S(=O)(=O)[N-]c2ccccc2)cc1)Nc1ccc(Cl)cc1 (optimized conformer: 53.498723895999454 kcal/mol)

>  <smiles>  (8) 
O=C(Nc1ccc(Cl)cc1)Nc1ccc(S(=O)(=O)Nc2ccccc2)cc1

>  <score_type>  (8) 
oracle

>  <origin>  (8) 
adgpu

>  <m_score__min__energy>  (8) 
-11.34

>  <m_primary>  (8) 
energy

$$$$
8:0
     RDKit          3D

 41 43  0  0  0  0  0  0  0  0999 V2000
    0.7320   19.9570  -31.5790 C   0  0  0  0  0  0  0  0  0  0  0  0
   -0.5900   20.6120  -31.8730 C   0  0  0  0  0  0  0  0  0  0  0  0
   -1.3100   20.2050  -33.0090 C   0  0  0  0  0  0  0  0  0  0  0  0
   -2.5880   20.7110  -33.2560 C   0  0  0  0  0  0  0  0  0  0  0  0
   -3.1750   21.5950  -32.3520 C   0  0  0  0  0  0  0  0  0  0  0  0
   -2.4750   22.0010  -31.2140 C   0  0  0  0  0  0  0  0  0  0  0  0
   -1.1600   21.5570  -30.9890 C   0  0  0  0  0  0  0  0  0  0  0  0
   -0.4270   21.9790  -29.8280 N   0  0  0  0  0  0  0  0  0  0  0  0
   -0.6280   23.1640  -29.0400 C   0  0  0  0  0  0  0  0  0  0  0  0
    0.0580   24.1860  -29.3100 O   0  0  0  0  0  0  0  0  0  0  0  0
   -1.6950   23.2770  -27.9860 C   0  0  0  0  0  0  0  0  0  0  0  0
   -2.6720   24.8060  -28.1900 S   0  0  0  0  0  0  0  0  0  0  0  0
   -4.0130   24.0150  -29.0970 C   0  0  0  0  0  0  0  0  0  0  0  0
   -4.4530   24.5430  -30.3130 C   0  0  0  0  0  0  0  0  0  0  0  0
   -3.8670   25.6890  -30.8400 O   0  0  0  0  0  0  0  0  0  0  0  0
   -5.4830   23.9120  -31.0070 C   0  0  0  0  0  0  0  0  0  0  0  0
   -6.0390   22.7330  -30.4810 C   0  0  0  0  0  0  0  0  0  0  0  0
   -7.0770   21.9700  -31.2130 C   0  0  0  0  0  0  0  0  0  0  0  0
   -8.4350   22.3400  -31.1690 C   0  0  0  0  0  0  0  0  0  0  0  0
   -9.3910   21.6060  -31.8780 C   0  0  0  0  0  0  0  0  0  0  0  0
   -9.0050   20.4940  -32.6320 C   0  0  0  0  0  0  0  0  0  0  0  0
   -7.6630   20.1150  -32.6770 C   0  0  0  0  0  0  0  0  0  0  0  0
   -6.7030   20.8440  -31.9670 C   0  0  0  0  0  0  0  0  0  0  0  0
   -5.6040   22.2690  -29.3100 O   0  0  0  0  0  0  0  0  0  0  0  0
   -4.6450   22.8610  -28.6050 C   0  0  0  0  0  0  0  0  0  0  0  0
   -4.3020   22.3690  -27.4970 O   0  0  0  0  0  0  0  0  0  0  0  0
    0.8726   19.8873  -30.4902 H   0  0  0  0  0  0  0  0  0  0  0  0
    0.7463   18.9476  -32.0159 H   0  0  0  0  0  0  0  0  0  0  0  0
    1.5438   20.5571  -32.0159 H   0  0  0  0  0  0  0  0  0  0  0  0
   -0.8639   19.4828  -33.7086 H   0  0  0  0  0  0  0  0  0  0  0  0
   -3.1317   20.4119  -34.1643 H   0  0  0  0  0  0  0  0  0  0  0  0
   -4.1914   21.9734  -32.5354 H   0  0  0  0  0  0  0  0  0  0  0  0
   -2.9559   22.6732  -30.4882 H   0  0  0  0  0  0  0  0  0  0  0  0
   -2.3672   22.4097  -28.0625 H   0  0  0  0  0  0  0  0  0  0  0  0
   -1.2071   23.3063  -27.0006 H   0  0  0  0  0  0  0  0  0  0  0  0
   -5.8560   24.3305  -31.9534 H   0  0  0  0  0  0  0  0  0  0  0  0
   -8.7455   23.2113  -30.5736 H   0  0  0  0  0  0  0  0  0  0  0  0
  -10.4492   21.9043  -31.8423 H   0  0  0  0  0  0  0  0  0  0  0  0
   -9.7586   19.9183  -33.1893 H   0  0  0  0  0  0  0  0  0  0  0  0
   -7.3591   19.2411  -33.2720 H   0  0  0  0  0  0  0  0  0  0  0  0
   -5.6481   20.5340  -31.9989 H   0  0  0  0  0  0  0  0  0  0  0  0
  1  2  1  0
  2  3  2  0
  3  4  1  0
  4  5  2  0
  5  6  1  0
  6  7  2  0
  7  8  1  0
  8  9  1  0
  9 10  2  0
  9 11  1  0
 11 12  1  0
 12 13  1  0
 13 14  2  0
 14 15  1  0
 14 16  1  0
 16 17  2  0
 17 18  1  0
 18 19  2  0
 19 20  1  0
 20 21  2  0
 21 22  1  0
 22 23  2  0
 17 24  1  0
 24 25  1  0
 25 26  2  0
  7  2  1  0
 25 13  1  0
 23 18  1  0
  1 27  1  0
  1 28  1  0
  1 29  1  0
  3 30  1  0
  4 31  1  0
  5 32  1  0
  6 33  1  0
 11 34  1  0
 11 35  1  0
 16 36  1  0
 19 37  1  0
 20 38  1  0
 21 39  1  0
 22 40  1  0
 23 41  1  0
M  CHG  2   8  -1  15  -1
M  END
>  <UniqueID>  (9) 
9

>  <SMILES>  (9) 
Cc1ccccc1[N-]C(=O)CSc1c([O-])cc(-c2ccccc2)oc1=O

>  <Energy>  (9) 
46.932160148076704

>  <Genealogy>  (9) 
Cc1ccccc1[N-]C(=O)CSc1c([O-])cc(-c2ccccc2)oc1=O (protonated)
Cc1ccccc1[N-]C(=O)CSc1c([O-])cc(-c2ccccc2)oc1=O (3D coordinates assigned)
Cc1ccccc1[N-]C(=O)CSc1c([O-])cc(-c2ccccc2)oc1=O (optimized conformer: 46.932160148076704 kcal/mol)

>  <smiles>  (9) 
Cc1ccccc1NC(=O)CSc1c(O)cc(-c2ccccc2)oc1=O

>  <score_type>  (9) 
oracle

>  <origin>  (9) 
adgpu

>  <m_score__min__energy>  (9) 
-11.529999999999999

>  <m_primary>  (9) 
energy

$$$$
9:0
     RDKit          3D

 38 40  0  0  0  0  0  0  0  0999 V2000
   -3.8890   25.4960  -30.8070 O   0  0  0  0  0  0  0  0  0  0  0  0
   -4.6410   24.3870  -30.1270 S   0  0  0  0  0  0  0  0  0  0  0  0
   -6.0880   24.7800  -30.0050 O   0  0  0  0  0  0  0  0  0  0  0  0
   -3.9830   24.1430  -28.5420 N   0  0  0  0  0  0  0  0  0  0  0  0
   -2.6970   23.5720  -28.2550 C   0  0  0  0  0  0  0  0  0  0  0  0
   -2.5700   22.3220  -27.6210 C   0  0  0  0  0  0  0  0  0  0  0  0
   -1.3070   21.7880  -27.3560 C   0  0  0  0  0  0  0  0  0  0  0  0
   -0.1590   22.4950  -27.7160 C   0  0  0  0  0  0  0  0  0  0  0  0
   -0.2720   23.7380  -28.3430 C   0  0  0  0  0  0  0  0  0  0  0  0
   -1.5330   24.2810  -28.6150 C   0  0  0  0  0  0  0  0  0  0  0  0
   -1.6050   25.5240  -29.2440 O   0  0  0  0  0  0  0  0  0  0  0  0
   -4.4700   22.9160  -31.0800 C   0  0  0  0  0  0  0  0  0  0  0  0
   -5.1700   22.7590  -32.2820 C   0  0  0  0  0  0  0  0  0  0  0  0
   -5.0390   21.5810  -33.0240 C   0  0  0  0  0  0  0  0  0  0  0  0
   -4.2020   20.5470  -32.5690 C   0  0  0  0  0  0  0  0  0  0  0  0
   -4.0410   19.3200  -33.2940 N   0  0  0  0  0  0  0  0  0  0  0  0
   -5.3350   18.2980  -33.8280 S   0  0  0  0  0  0  0  0  0  0  0  0
   -5.5380   18.4820  -35.3060 O   0  0  0  0  0  0  0  0  0  0  0  0
   -5.0130   16.8630  -33.5220 O   0  0  0  0  0  0  0  0  0  0  0  0
   -6.8050   18.7480  -32.9870 C   0  0  0  0  0  0  0  0  0  0  0  0
   -7.5930   19.8540  -33.2620 C   0  0  0  0  0  0  0  0  0  0  0  0
   -8.7000   19.9590  -32.4100 C   0  0  0  0  0  0  0  0  0  0  0  0
   -8.7760   18.9420  -31.4680 C   0  0  0  0  0  0  0  0  0  0  0  0
   -7.4680   17.9090  -31.6920 S   0  0  0  0  0  0  0  0  0  0  0  0
   -3.5000   20.7120  -31.3690 C   0  0  0  0  0  0  0  0  0  0  0  0
   -3.6330   21.8900  -30.6270 C   0  0  0  0  0  0  0  0  0  0  0  0
   -3.4715   21.7618  -27.3322 H   0  0  0  0  0  0  0  0  0  0  0  0
   -1.2171   20.8088  -26.8629 H   0  0  0  0  0  0  0  0  0  0  0  0
    0.8350   22.0733  -27.5060 H   0  0  0  0  0  0  0  0  0  0  0  0
    0.6349   24.2931  -28.6245 H   0  0  0  0  0  0  0  0  0  0  0  0
   -2.1350   25.6730  -30.0940 H   0  0  0  0  0  0  0  0  0  0  0  0
   -5.8253   23.5649  -32.6441 H   0  0  0  0  0  0  0  0  0  0  0  0
   -5.5928   21.4629  -33.9671 H   0  0  0  0  0  0  0  0  0  0  0  0
   -7.3727   20.5734  -34.0644 H   0  0  0  0  0  0  0  0  0  0  0  0
   -9.4392   20.7705  -32.4807 H   0  0  0  0  0  0  0  0  0  0  0  0
   -9.5596   18.8307  -30.7040 H   0  0  0  0  0  0  0  0  0  0  0  0
   -2.8396   19.9100  -31.0075 H   0  0  0  0  0  0  0  0  0  0  0  0
   -3.0782   22.0104  -29.6848 H   0  0  0  0  0  0  0  0  0  0  0  0
  1  2  2  0
  2  3  2  0
  2  4  1  0
  4  5  1  0
  5  6  2  0
  6  7  1  0
  7  8  2  0
  8  9  1  0
  9 10  2  0
 10 11  1  0
  2 12  1  0
 12 13  2  0
 13 14  1  0
 14 15  2  0
 15 16  1  0
 16 17  1  0
 17 18  2  0
 17 19  2  0
 17 20  1  0
 20 21  2  0
 21 22  1  0
 22 23  2  0
 23 24  1  0
 15 25  1  0
 25 26  2  0
 10  5  1  0
 26 12  1  0
 24 20  1  0
  6 27  1  0
  7 28  1  0
  8 29  1  0
  9 30  1  0
 11 31  1  0
 13 32  1  0
 14 33  1  0
 21 34  1  0
 22 35  1  0
 23 36  1  0
 25 37  1  0
 26 38  1  0
M  CHG  2   4  -1  16  -1
M  END
>  <UniqueID>  (10) 
10

>  <SMILES>  (10) 
O=S(=O)([N-]c1ccccc1O)c1ccc([N-]S(=O)(=O)c2cccs2)cc1

>  <Energy>  (10) 
74.1088713583706

>  <Genealogy>  (10) 
O=S(=O)([N-]c1ccccc1O)c1ccc([N-]S(=O)(=O)c2cccs2)cc1 (protonated)
O=S(=O)([N-]c1ccccc1O)c1ccc([N-]S(=O)(=O)c2cccs2)cc1 (3D coordinates assigned)
O=S(=O)([N-]c1ccccc1O)c1ccc([N-]S(=O)(=O)c2cccs2)cc1 (optimized conformer: 74.1088713583706 kcal/mol)

>  <smiles>  (10) 
O=S(=O)(Nc1ccccc1O)c1ccc(NS(=O)(=O)c2cccs2)cc1

>  <score_type>  (10) 
oracle

>  <origin>  (10) 
adgpu

>  <m_score__min__energy>  (10) 
-11.449999999999999

>  <m_primary>  (10) 
energy

$$$$
10:0
     RDKit          3D

 48 50  0  0  0  0  0  0  0  0999 V2000
   -8.7630   20.4210  -32.7720 C   0  0  0  0  0  0  0  0  0  0  0  0
   -7.8370   21.3360  -32.0140 C   0  0  0  0  0  0  0  0  0  0  0  0
   -8.3480   22.5610  -31.5590 C   0  0  0  0  0  0  0  0  0  0  0  0
   -7.5470   23.4480  -30.8480 C   0  0  0  0  0  0  0  0  0  0  0  0
   -6.2170   23.1260  -30.5540 C   0  0  0  0  0  0  0  0  0  0  0  0
   -5.3720   24.0510  -29.8520 N   0  0  0  0  0  0  0  0  0  0  0  0
   -4.0920   24.5190  -30.2880 C   0  0  0  0  0  0  0  0  0  0  0  0
   -4.0070   25.6470  -30.8420 O   0  0  0  0  0  0  0  0  0  0  0  0
   -2.9330   23.6830  -30.1770 N   0  0  0  0  0  0  0  0  0  0  0  0
   -1.8050   23.9810  -29.3460 C   0  0  0  0  0  0  0  0  0  0  0  0
   -1.6230   25.2970  -28.9110 C   0  0  0  0  0  0  0  0  0  0  0  0
   -0.5330   25.6110  -28.1000 C   0  0  0  0  0  0  0  0  0  0  0  0
    0.3580   24.6460  -27.7530 N   0  0  0  0  0  0  0  0  0  0  0  0
    0.2280   23.3630  -28.1830 C   0  0  0  0  0  0  0  0  0  0  0  0
    1.0910   22.5090  -27.8500 O   0  0  0  0  0  0  0  0  0  0  0  0
   -0.8540   22.9990  -29.0000 C   0  0  0  0  0  0  0  0  0  0  0  0
   -0.9460   21.2120  -29.7020 Br  0  0  0  0  0  0  0  0  0  0  0  0
   -5.6800   21.9070  -31.0140 C   0  0  0  0  0  0  0  0  0  0  0  0
   -4.3400   21.6000  -30.7660 O   0  0  0  0  0  0  0  0  0  0  0  0
   -6.4900   20.9890  -31.7230 C   0  0  0  0  0  0  0  0  0  0  0  0
   -5.7890   19.4450  -32.2770 S   0  0  0  0  0  0  0  0  0  0  0  0
   -5.9990   18.3720  -31.2430 O   0  0  0  0  0  0  0  0  0  0  0  0
   -6.4650   18.9920  -33.5400 O   0  0  0  0  0  0  0  0  0  0  0  0
   -4.0300   19.6480  -32.5730 C   0  0  0  0  0  0  0  0  0  0  0  0
   -3.4310   18.3890  -33.2430 C   0  0  0  0  0  0  0  0  0  0  0  0
   -2.1250   18.6670  -34.0170 C   0  0  0  0  0  0  0  0  0  0  0  0
   -1.3850   19.8940  -33.4770 C   0  0  0  0  0  0  0  0  0  0  0  0
   -2.2490   21.1670  -33.5800 C   0  0  0  0  0  0  0  0  0  0  0  0
   -3.7610   20.9020  -33.4200 C   0  0  0  0  0  0  0  0  0  0  0  0
   -9.3596   19.8315  -32.0603 H   0  0  0  0  0  0  0  0  0  0  0  0
   -9.4341   21.0205  -33.4046 H   0  0  0  0  0  0  0  0  0  0  0  0
   -8.1715   19.7428  -33.4046 H   0  0  0  0  0  0  0  0  0  0  0  0
   -9.3958   22.8231  -31.7674 H   0  0  0  0  0  0  0  0  0  0  0  0
   -7.9620   24.4104  -30.5140 H   0  0  0  0  0  0  0  0  0  0  0  0
   -2.3359   26.0807  -29.2069 H   0  0  0  0  0  0  0  0  0  0  0  0
   -0.3944   26.6414  -27.7407 H   0  0  0  0  0  0  0  0  0  0  0  0
   -3.6960   22.2530  -30.3360 H   0  0  0  0  0  0  0  0  0  0  0  0
   -3.5341   19.7799  -31.6000 H   0  0  0  0  0  0  0  0  0  0  0  0
   -3.2206   17.6448  -32.4607 H   0  0  0  0  0  0  0  0  0  0  0  0
   -4.1700   18.0282  -33.9735 H   0  0  0  0  0  0  0  0  0  0  0  0
   -1.4674   17.7895  -33.9298 H   0  0  0  0  0  0  0  0  0  0  0  0
   -2.3890   18.8655  -35.0663 H   0  0  0  0  0  0  0  0  0  0  0  0
   -1.1287   19.7207  -32.4214 H   0  0  0  0  0  0  0  0  0  0  0  0
   -0.4781   20.0431  -34.0814 H   0  0  0  0  0  0  0  0  0  0  0  0
   -1.9332   21.8664  -32.7919 H   0  0  0  0  0  0  0  0  0  0  0  0
   -2.0985   21.5783  -34.5891 H   0  0  0  0  0  0  0  0  0  0  0  0
   -4.2255   21.7702  -32.9296 H   0  0  0  0  0  0  0  0  0  0  0  0
   -4.1892   20.7396  -34.4201 H   0  0  0  0  0  0  0  0  0  0  0  0
  1  2  1  0
  2  3  2  0
  3  4  1  0
  4  5  2  0
  5  6  1  0
  6  7  1  0
  7  8  2  0
  7  9  1  0
  9 10  1  0
 10 11  1  0
 11 12  2  0
 12 13  1  0
 13 14  1  0
 14 15  2  0
 14 16  1  0
 16 17  1  0
  5 18  1  0
 18 19  1  0
 18 20  2  0
 20 21  1  0
 21 22  2  0
 21 23  2  0
 21 24  1  0
 24 25  1  0
 25 26  1  0
 26 27  1  0
 27 28  1  0
 28 29  1  0
 20  2  1  0
 29 24  1  0
 16 10  2  0
  1 30  1  0
  1 31  1  0
  1 32  1  0
  3 33  1  0
  4 34  1  0
 11 35  1  0
 12 36  1  0
 19 37  1  0
 24 38  1  0
 25 39  1  0
 25 40  1  0
 26 41  1  0
 26 42  1  0
 27 43  1  0
 27 44  1  0
 28 45  1  0
 28 46  1  0
 29 47  1  0
 29 48  1  0
M  CHG  3   6  -1   9  -1  13  -1
M  END
>  <UniqueID>  (11) 
11

>  <SMILES>  (11) 
Cc1ccc([N-]C(=O)[N-]c2cc[n-]c(=O)c2Br)c(O)c1S(=O)(=O)C1CCCCC1

>  <Energy>  (11) 
63.94846846418164

>  <Genealogy>  (11) 
Cc1ccc([N-]C(=O)[N-]c2cc[n-]c(=O)c2Br)c(O)c1S(=O)(=O)C1CCCCC1 (protonated)
Cc1ccc([N-]C(=O)[N-]c2cc[n-]c(=O)c2Br)c(O)c1S(=O)(=O)C1CCCCC1 (3D coordinates assigned)
Cc1ccc([N-]C(=O)[N-]c2cc[n-]c(=O)c2Br)c(O)c1S(=O)(=O)C1CCCCC1 (nonaromatic ring conformer: 63.94846846418164 kcal/mol)

>  <smiles>  (11) 
Cc1ccc(NC(=O)Nc2cc[nH]c(=O)c2Br)c(O)c1S(=O)(=O)C1CCCCC1

>  <score_type>  (11) 
oracle

>  <origin>  (11) 
adgpu

>  <m_score__min__energy>  (11) 
-12.529999999999999

>  <m_primary>  (11) 
energy

$$$$
11:0
     RDKit          3D

 48 50  0  0  0  0  0  0  0  0999 V2000
   -2.0006   20.3322  -34.5921 H   0  0  0  0  0  0  0  0  0  0  0  0
   -2.7330   19.9330  -33.8750 C   0  0  0  0  0  0  0  0  0  0  0  0
   -2.9790   20.5930  -32.7180 N   0  0  0  0  0  0  0  0  0  0  0  0
   -3.8890   20.1260  -31.8220 C   0  0  0  0  0  0  0  0  0  0  0  0
   -4.1020   20.7380  -30.6960 N   0  0  0  0  0  0  0  0  0  0  0  0
   -3.5080   21.9790  -30.2750 C   0  0  0  0  0  0  0  0  0  0  0  0
   -2.3690   21.9370  -29.4710 C   0  0  0  0  0  0  0  0  0  0  0  0
   -1.9473   20.9631  -29.1816 H   0  0  0  0  0  0  0  0  0  0  0  0
   -1.7490   23.1210  -29.0230 C   0  0  0  0  0  0  0  0  0  0  0  0
   -0.5870   23.0700  -28.2380 O   0  0  0  0  0  0  0  0  0  0  0  0
   -0.3270   22.0970  -27.2310 C   0  0  0  0  0  0  0  0  0  0  0  0
   -0.4494   22.5549  -26.2384 H   0  0  0  0  0  0  0  0  0  0  0  0
   -1.0331   21.2604  -27.3384 H   0  0  0  0  0  0  0  0  0  0  0  0
    0.7023   21.7241  -27.3384 H   0  0  0  0  0  0  0  0  0  0  0  0
   -2.3170   24.3740  -29.3740 C   0  0  0  0  0  0  0  0  0  0  0  0
   -1.7720   25.6140  -28.9850 O   0  0  0  0  0  0  0  0  0  0  0  0
   -1.2290   25.9360  -27.7130 C   0  0  0  0  0  0  0  0  0  0  0  0
   -1.8878   25.5453  -26.9235 H   0  0  0  0  0  0  0  0  0  0  0  0
   -0.2312   25.4835  -27.6151 H   0  0  0  0  0  0  0  0  0  0  0  0
   -1.1474   27.0286  -27.6151 H   0  0  0  0  0  0  0  0  0  0  0  0
   -3.4920   24.4130  -30.1430 C   0  0  0  0  0  0  0  0  0  0  0  0
   -4.0420   25.6690  -30.4470 O   0  0  0  0  0  0  0  0  0  0  0  0
   -5.4340   25.9550  -30.4910 C   0  0  0  0  0  0  0  0  0  0  0  0
   -5.8244   26.0352  -29.4658 H   0  0  0  0  0  0  0  0  0  0  0  0
   -5.5965   26.9053  -31.0206 H   0  0  0  0  0  0  0  0  0  0  0  0
   -5.9580   25.1458  -31.0206 H   0  0  0  0  0  0  0  0  0  0  0  0
   -4.0850   23.2170  -30.5860 C   0  0  0  0  0  0  0  0  0  0  0  0
   -5.0092   23.2541  -31.1814 H   0  0  0  0  0  0  0  0  0  0  0  0
   -4.5540   18.9710  -32.0830 N   0  0  0  0  0  0  0  0  0  0  0  0
   -4.3440   18.2590  -33.2240 C   0  0  0  0  0  0  0  0  0  0  0  0
   -5.0650   17.0200  -33.4420 N   0  0  0  0  0  0  0  0  0  0  0  0
   -4.3740   15.7260  -33.3780 C   0  0  0  0  0  0  0  0  0  0  0  0
   -4.2227   15.4427  -32.3259 H   0  0  0  0  0  0  0  0  0  0  0  0
   -4.9831   14.9599  -33.8801 H   0  0  0  0  0  0  0  0  0  0  0  0
   -3.3985   15.8060  -33.8801 H   0  0  0  0  0  0  0  0  0  0  0  0
   -6.4830   17.0420  -33.8260 C   0  0  0  0  0  0  0  0  0  0  0  0
   -6.5659   17.2305  -34.9066 H   0  0  0  0  0  0  0  0  0  0  0  0
   -6.9402   16.0715  -33.5830 H   0  0  0  0  0  0  0  0  0  0  0  0
   -7.1930   18.1230  -33.0780 C   0  0  0  0  0  0  0  0  0  0  0  0
   -7.1700   19.7560  -33.4810 S   0  0  0  0  0  0  0  0  0  0  0  0
   -8.2690   20.2470  -32.3020 C   0  0  0  0  0  0  0  0  0  0  0  0
   -8.6081   21.2786  -32.1267 H   0  0  0  0  0  0  0  0  0  0  0  0
   -8.6740   19.1230  -31.5880 C   0  0  0  0  0  0  0  0  0  0  0  0
   -9.3940   19.1655  -30.7575 H   0  0  0  0  0  0  0  0  0  0  0  0
   -8.0800   17.9340  -32.0250 C   0  0  0  0  0  0  0  0  0  0  0  0
   -8.2932   16.9506  -31.5807 H   0  0  0  0  0  0  0  0  0  0  0  0
   -3.4090   18.7480  -34.1550 C   0  0  0  0  0  0  0  0  0  0  0  0
   -3.2149   18.2023  -35.0902 H   0  0  0  0  0  0  0  0  0  0  0  0
  1  2  1  0
  2  3  1  0
  3  4  1  0
  4  5  2  0
  5  6  1  0
  6  7  2  0
  7  8  1  0
  7  9  1  0
  9 10  1  0
 10 11  1  0
 11 12  1  0
 11 13  1  0
 11 14  1  0
  9 15  2  0
 15 16  1  0
 16 17  1  0
 17 18  1  0
 17 19  1  0
 17 20  1  0
 15 21  1  0
 21 22  1  0
 22 23  1  0
 23 24  1  0
 23 25  1  0
 23 26  1  0
 21 27  2  0
 27 28  1  0
  4 29  1  0
 29 30  2  0
 30 31  1  0
 31 32  1  0
 32 33  1  0
 32 34  1  0
 32 35  1  0
 31 36  1  0
 36 37  1  0
 36 38  1  0
 36 39  1  0
 39 40  1  0
 40 41  1  0
 41 42  1  0
 41 43  2  0
 43 44  1  0
 43 45  1  0
 45 46  1  0
 30 47  1  0
 47 48  1  0
 47  2  2  0
 27  6  1  0
 45 39  2  0
M  CHG  1   3  -1
M  END
>  <UniqueID>  (12) 
12

>  <SMILES>  (12) 
COc1cc(/N=c2/nc(N(C)Cc3cccs3)cc[n-]2)cc(OC)c1OC

>  <Energy>  (12) 
83.58698117570819

>  <Genealogy>  (12) 
COc1cc(N=c2nc(N(C)Cc3cccs3)cc[n-]2)cc(OC)c1OC (protonated)
COc1cc(/N=c2/nc(N(C)Cc3cccs3)cc[n-]2)cc(OC)c1OC (cis-trans isomerization)
COc1cc(/N=c2/nc(N(C)Cc3cccs3)cc[n-]2)cc(OC)c1OC (3D coordinates assigned)
COc1cc(/N=c2/nc(N(C)Cc3cccs3)cc[n-]2)cc(OC)c1OC (optimized conformer: 83.58698117570819 kcal/mol)

>  <smiles>  (12) 
COc1cc(N=c2nc(N(C)Cc3cccs3)cc[nH]2)cc(OC)c1OC

>  <score_type>  (12) 
oracle

>  <origin>  (12) 
adgpu

>  <m_score__min__energy>  (12) 
-8.3100000000000005

>  <m_primary>  (12) 
energy

$$$$
12:0
     RDKit          3D

 24 25  0  0  0  0  0  0  0  0999 V2000
   -4.5639   21.2555  -29.7525 H   0  0  0  0  0  0  0  0  0  0  0  0
   -3.9560   22.1590  -29.5970 C   0  0  0  0  0  0  0  0  0  0  0  0
   -2.8540   22.1210  -28.7380 C   0  0  0  0  0  0  0  0  0  0  0  0
   -2.5999   21.1892  -28.2115 H   0  0  0  0  0  0  0  0  0  0  0  0
   -2.0740   23.2660  -28.5470 C   0  0  0  0  0  0  0  0  0  0  0  0
   -1.2174   23.2365  -27.8576 H   0  0  0  0  0  0  0  0  0  0  0  0
   -2.3810   24.4570  -29.2340 C   0  0  0  0  0  0  0  0  0  0  0  0
   -1.6230   25.6640  -29.0350 N   0  0  0  0  0  0  0  0  0  0  0  0
   -1.1450   26.1090  -27.9100 C   0  0  0  0  0  0  0  0  0  0  0  0
   -1.2480   25.3850  -26.7600 N   0  0  0  0  0  0  0  0  0  0  0  0
   -0.7300   25.8390  -25.5890 C   0  0  0  0  0  0  0  0  0  0  0  0
   -0.8560   25.0150  -24.3480 C   0  0  0  0  0  0  0  0  0  0  0  0
   -0.7568   25.6639  -23.4654 H   0  0  0  0  0  0  0  0  0  0  0  0
   -1.8398   24.5231  -24.3328 H   0  0  0  0  0  0  0  0  0  0  0  0
   -0.0641   24.2516  -24.3328 H   0  0  0  0  0  0  0  0  0  0  0  0
   -0.0600   27.0660  -25.5600 C   0  0  0  0  0  0  0  0  0  0  0  0
    0.3707   27.4506  -24.6238 H   0  0  0  0  0  0  0  0  0  0  0  0
    0.0490   27.7910  -26.7480 C   0  0  0  0  0  0  0  0  0  0  0  0
    0.6480   28.8980  -26.7610 O   0  0  0  0  0  0  0  0  0  0  0  0
   -0.4900   27.3000  -27.8940 N   0  0  0  0  0  0  0  0  0  0  0  0
   -3.5080   24.4930  -30.0710 C   0  0  0  0  0  0  0  0  0  0  0  0
   -3.8550   25.6690  -30.7280 O   0  0  0  0  0  0  0  0  0  0  0  0
   -4.2850   23.3450  -30.2580 C   0  0  0  0  0  0  0  0  0  0  0  0
   -5.1574   23.3761  -30.9273 H   0  0  0  0  0  0  0  0  0  0  0  0
  1  2  1  0
  2  3  2  0
  3  4  1  0
  3  5  1  0
  5  6  1  0
  5  7  2  0
  7  8  1  0
  8  9  2  0
  9 10  1  0
 10 11  1  0
 11 12  1  0
 12 13  1  0
 12 14  1  0
 12 15  1  0
 11 16  2  0
 16 17  1  0
 16 18  1  0
 18 19  2  0
 18 20  1  0
  7 21  1  0
 21 22  1  0
 21 23  2  0
 23 24  1  0
 23  2  1  0
 20  9  1  0
M  CHG  3  10  -1  20  -1  22  -1
M  END
>  <UniqueID>  (13) 
13

>  <SMILES>  (13) 
Cc1cc(=O)[n-]/c(=N/c2ccccc2[O-])[n-]1

>  <Energy>  (13) 
31.102432220893007

>  <Genealogy>  (13) 
Cc1cc(=O)[n-]c(=Nc2ccccc2[O-])[n-]1 (protonated)
Cc1cc(=O)[n-]/c(=N/c2ccccc2[O-])[n-]1 (cis-trans isomerization)
Cc1cc(=O)[n-]/c(=N/c2ccccc2[O-])[n-]1 (3D coordinates assigned)
Cc1cc(=O)[n-]/c(=N/c2ccccc2[O-])[n-]1 (optimized conformer: 31.102432220893007 kcal/mol)

>  <smiles>  (13) 
Cc1cc(=O)[nH]c(=Nc2ccccc2O)[nH]1

>  <score_type>  (13) 
oracle

>  <origin>  (13) 
adgpu

>  <m_score__min__energy>  (13) 
-10.07

>  <m_primary>  (13) 
energy

$$$$
13:0
     RDKit          3D

 44 46  0  0  0  0  0  0  0  0999 V2000
   -3.7200   24.4200  -30.8980 O   0  0  0  0  0  0  0  0  0  0  0  0
   -4.1910   24.5070  -29.7310 C   0  0  0  0  0  0  0  0  0  0  0  0
   -5.6130   24.5730  -29.5380 N   0  0  0  0  0  0  0  0  0  0  0  0
   -6.5460   24.7020  -30.6560 C   0  0  0  0  0  0  0  0  0  0  0  0
   -7.0330   23.3450  -31.0830 C   0  0  0  0  0  0  0  0  0  0  0  0
   -8.3810   23.1420  -31.4220 C   0  0  0  0  0  0  0  0  0  0  0  0
   -8.8330   21.8690  -31.7790 C   0  0  0  0  0  0  0  0  0  0  0  0
   -7.9480   20.7830  -31.7970 C   0  0  0  0  0  0  0  0  0  0  0  0
   -8.5310   19.1710  -32.2190 S   0  0  0  0  0  0  0  0  0  0  0  0
   -8.9580   18.4590  -30.9650 O   0  0  0  0  0  0  0  0  0  0  0  0
   -9.7310   19.2960  -33.1160 O   0  0  0  0  0  0  0  0  0  0  0  0
   -7.2970   18.2330  -33.0240 N   0  0  0  0  0  0  0  0  0  0  0  0
   -6.4740   19.1070  -33.8870 C   0  0  0  0  0  0  0  0  0  0  0  0
   -5.1980   18.3980  -34.3970 C   0  0  0  0  0  0  0  0  0  0  0  0
   -5.2790   16.8800  -34.2120 C   0  0  0  0  0  0  0  0  0  0  0  0
   -5.5410   16.5150  -32.7410 C   0  0  0  0  0  0  0  0  0  0  0  0
   -6.4610   17.5310  -32.0370 C   0  0  0  0  0  0  0  0  0  0  0  0
   -6.6020   20.9830  -31.4590 C   0  0  0  0  0  0  0  0  0  0  0  0
   -6.1480   22.2560  -31.1020 C   0  0  0  0  0  0  0  0  0  0  0  0
   -3.2600   24.5390  -28.5870 C   0  0  0  0  0  0  0  0  0  0  0  0
   -1.8680   24.5440  -28.6340 C   0  0  0  0  0  0  0  0  0  0  0  0
   -1.2710   24.5610  -27.3670 C   0  0  0  0  0  0  0  0  0  0  0  0
   -2.1810   24.5670  -26.3190 C   0  0  0  0  0  0  0  0  0  0  0  0
   -3.7300   24.5500  -26.9710 S   0  0  0  0  0  0  0  0  0  0  0  0
   -6.0130   24.5160  -28.5760 H   0  0  0  0  0  0  0  0  0  0  0  0
   -7.4045   25.3150  -30.3443 H   0  0  0  0  0  0  0  0  0  0  0  0
   -6.0304   25.1814  -31.5012 H   0  0  0  0  0  0  0  0  0  0  0  0
   -9.0834   23.9884  -31.4064 H   0  0  0  0  0  0  0  0  0  0  0  0
   -9.8891   21.7187  -32.0473 H   0  0  0  0  0  0  0  0  0  0  0  0
   -7.0766   19.4165  -34.7536 H   0  0  0  0  0  0  0  0  0  0  0  0
   -6.1594   19.9725  -33.2854 H   0  0  0  0  0  0  0  0  0  0  0  0
   -5.0706   18.6201  -35.4668 H   0  0  0  0  0  0  0  0  0  0  0  0
   -4.3435   18.7689  -33.8119 H   0  0  0  0  0  0  0  0  0  0  0  0
   -6.0981   16.4857  -34.8314 H   0  0  0  0  0  0  0  0  0  0  0  0
   -4.3181   16.4391  -34.5157 H   0  0  0  0  0  0  0  0  0  0  0  0
   -6.0155   15.5233  -32.7025 H   0  0  0  0  0  0  0  0  0  0  0  0
   -4.5737   16.5204  -32.2174 H   0  0  0  0  0  0  0  0  0  0  0  0
   -7.1094   17.0003  -31.3243 H   0  0  0  0  0  0  0  0  0  0  0  0
   -5.8402   18.2674  -31.5057 H   0  0  0  0  0  0  0  0  0  0  0  0
   -5.9010   20.1354  -31.4748 H   0  0  0  0  0  0  0  0  0  0  0  0
   -5.0915   22.4049  -30.8345 H   0  0  0  0  0  0  0  0  0  0  0  0
   -1.2946   24.5355  -29.5727 H   0  0  0  0  0  0  0  0  0  0  0  0
   -0.1814   24.5689  -27.2164 H   0  0  0  0  0  0  0  0  0  0  0  0
   -1.9317   24.5805  -25.2477 H   0  0  0  0  0  0  0  0  0  0  0  0
  1  2  2  0
  2  3  1  0
  3  4  1  0
  4  5  1  0
  5  6  2  0
  6  7  1  0
  7  8  2  0
  8  9  1  0
  9 10  2  0
  9 11  2  0
  9 12  1  0
 12 13  1  0
 13 14  1  0
 14 15  1  0
 15 16  1  0
 16 17  1  0
  8 18  1  0
 18 19  2  0
  2 20  1  0
 20 21  2  0
 21 22  1  0
 22 23  2  0
 23 24  1  0
 19  5  1  0
 24 20  1  0
 17 12  1  0
  3 25  1  0
  4 26  1  0
  4 27  1  0
  6 28  1  0
  7 29  1  0
 13 30  1  0
 13 31  1  0
 14 32  1  0
 14 33  1  0
 15 34  1  0
 15 35  1  0
 16 36  1  0
 16 37  1  0
 17 38  1  0
 17 39  1  0
 18 40  1  0
 19 41  1  0
 21 42  1  0
 22 43  1  0
 23 44  1  0
M  END
>  <UniqueID>  (14) 
14

>  <SMILES>  (14) 
O=C(NCc1ccc(S(=O)(=O)N2CCCCC2)cc1)c1cccs1

>  <Energy>  (14) 
70.50249851676973

>  <Genealogy>  (14) 
O=C(NCc1ccc(S(=O)(=O)N2CCCCC2)cc1)c1cccs1 (3D coordinates assigned)
O=C(NCc1ccc(S(=O)(=O)N2CCCCC2)cc1)c1cccs1 (nonaromatic ring conformer: 70.50249851676973 kcal/mol)

>  <smiles>  (14) 
O=C(NCc1ccc(S(=O)(=O)N2CCCCC2)cc1)c1cccs1

>  <score_type>  (14) 
oracle

>  <origin>  (14) 
adgpu

>  <m_score__min__energy>  (14) 
-10.119999999999999

>  <m_primary>  (14) 
energy

$$$$
14:0
     RDKit          3D

 61 63  0  0  0  0  0  0  0  0999 V2000
   -1.0130   16.9800  -32.7260 C   0  0  0  0  0  0  0  0  0  0  0  0
   -0.6600   17.0660  -34.2070 C   0  0  0  0  0  0  0  0  0  0  0  0
   -1.8030   17.4400  -34.9790 O   0  0  0  0  0  0  0  0  0  0  0  0
   -3.1470   17.3240  -34.5800 C   0  0  0  0  0  0  0  0  0  0  0  0
   -3.8360   16.0960  -34.6240 C   0  0  0  0  0  0  0  0  0  0  0  0
   -5.1540   16.0060  -34.1690 C   0  0  0  0  0  0  0  0  0  0  0  0
   -5.8030   17.1310  -33.6410 C   0  0  0  0  0  0  0  0  0  0  0  0
   -7.2340   17.0380  -33.1670 C   0  0  0  0  0  0  0  0  0  0  0  0
   -7.6390   18.2630  -32.4000 C   0  0  0  0  0  0  0  0  0  0  0  0
   -7.7200   18.2060  -31.1440 O   0  0  0  0  0  0  0  0  0  0  0  0
   -7.8990   19.4990  -33.0880 N   0  0  0  0  0  0  0  0  0  0  0  0
   -7.8080   20.7670  -32.4310 C   0  0  0  0  0  0  0  0  0  0  0  0
   -8.9590   21.4350  -31.9930 C   0  0  0  0  0  0  0  0  0  0  0  0
   -8.8510   22.6610  -31.3290 C   0  0  0  0  0  0  0  0  0  0  0  0
   -7.5910   23.2220  -31.0950 C   0  0  0  0  0  0  0  0  0  0  0  0
   -6.4350   22.5670  -31.5390 C   0  0  0  0  0  0  0  0  0  0  0  0
   -4.8370   23.2200  -31.1720 S   0  0  0  0  0  0  0  0  0  0  0  0
   -4.8890   24.7240  -31.2060 O   0  0  0  0  0  0  0  0  0  0  0  0
   -3.8740   22.7570  -32.2300 O   0  0  0  0  0  0  0  0  0  0  0  0
   -4.3140   22.6360  -29.6040 N   0  0  0  0  0  0  0  0  0  0  0  0
   -4.1720   23.7110  -28.5970 C   0  0  0  0  0  0  0  0  0  0  0  0
   -2.8840   24.5270  -28.7690 C   0  0  0  0  0  0  0  0  0  0  0  0
   -1.6600   23.6110  -28.8000 C   0  0  0  0  0  0  0  0  0  0  0  0
   -1.8170   22.5280  -29.8710 C   0  0  0  0  0  0  0  0  0  0  0  0
   -3.1300   21.7550  -29.6830 C   0  0  0  0  0  0  0  0  0  0  0  0
   -6.5470   21.3440  -32.2160 C   0  0  0  0  0  0  0  0  0  0  0  0
   -5.1120   18.3510  -33.5760 C   0  0  0  0  0  0  0  0  0  0  0  0
   -3.8090   18.4670  -34.0790 C   0  0  0  0  0  0  0  0  0  0  0  0
   -3.2100   19.7300  -34.0640 O   0  0  0  0  0  0  0  0  0  0  0  0
   -2.4860   20.2380  -32.9480 C   0  0  0  0  0  0  0  0  0  0  0  0
   -1.3660   21.1350  -33.4510 C   0  0  0  0  0  0  0  0  0  0  0  0
   -0.1193   17.1977  -32.1228 H   0  0  0  0  0  0  0  0  0  0  0  0
   -1.7998   17.7127  -32.4934 H   0  0  0  0  0  0  0  0  0  0  0  0
   -1.3746   15.9675  -32.4934 H   0  0  0  0  0  0  0  0  0  0  0  0
    0.1312   17.8174  -34.3464 H   0  0  0  0  0  0  0  0  0  0  0  0
   -0.3131   16.0784  -34.5453 H   0  0  0  0  0  0  0  0  0  0  0  0
   -3.3327   15.2014  -35.0195 H   0  0  0  0  0  0  0  0  0  0  0  0
   -5.6865   15.0451  -34.2255 H   0  0  0  0  0  0  0  0  0  0  0  0
   -7.8937   16.9286  -34.0404 H   0  0  0  0  0  0  0  0  0  0  0  0
   -7.3212   16.1679  -32.4997 H   0  0  0  0  0  0  0  0  0  0  0  0
   -7.8910   19.4960  -34.1360 H   0  0  0  0  0  0  0  0  0  0  0  0
   -9.9506   20.9938  -32.1719 H   0  0  0  0  0  0  0  0  0  0  0  0
   -9.7573   23.1845  -30.9905 H   0  0  0  0  0  0  0  0  0  0  0  0
   -7.5077   24.1800  -30.5609 H   0  0  0  0  0  0  0  0  0  0  0  0
   -5.0322   24.3908  -28.6862 H   0  0  0  0  0  0  0  0  0  0  0  0
   -4.1284   23.2317  -27.6079 H   0  0  0  0  0  0  0  0  0  0  0  0
   -2.9371   25.0898  -29.7127 H   0  0  0  0  0  0  0  0  0  0  0  0
   -2.7870   25.2158  -27.9169 H   0  0  0  0  0  0  0  0  0  0  0  0
   -0.7659   24.2116  -29.0231 H   0  0  0  0  0  0  0  0  0  0  0  0
   -1.5597   23.1240  -27.8188 H   0  0  0  0  0  0  0  0  0  0  0  0
   -1.8172   23.0013  -30.8640 H   0  0  0  0  0  0  0  0  0  0  0  0
   -0.9784   21.8218  -29.7810 H   0  0  0  0  0  0  0  0  0  0  0  0
   -3.2587   21.0708  -30.5346 H   0  0  0  0  0  0  0  0  0  0  0  0
   -3.0588   21.2140  -28.7279 H   0  0  0  0  0  0  0  0  0  0  0  0
   -5.6425   20.8348  -32.5801 H   0  0  0  0  0  0  0  0  0  0  0  0
   -5.5995   19.2276  -33.1244 H   0  0  0  0  0  0  0  0  0  0  0  0
   -3.1621   20.8186  -32.3032 H   0  0  0  0  0  0  0  0  0  0  0  0
   -2.0625   19.4041  -32.3690 H   0  0  0  0  0  0  0  0  0  0  0  0
   -0.8281   21.5658  -32.5936 H   0  0  0  0  0  0  0  0  0  0  0  0
   -0.6684   20.5430  -34.0616 H   0  0  0  0  0  0  0  0  0  0  0  0
   -1.7913   21.9451  -34.0616 H   0  0  0  0  0  0  0  0  0  0  0  0
  1  2  1  0
  2  3  1  0
  3  4  1  0
  4  5  2  0
  5  6  1  0
  6  7  2  0
  7  8  1  0
  8  9  1  0
  9 10  2  0
  9 11  1  0
 11 12  1  0
 12 13  2  0
 13 14  1  0
 14 15  2  0
 15 16  1  0
 16 17  1  0
 17 18  2  0
 17 19  2  0
 17 20  1  0
 20 21  1  0
 21 22  1  0
 22 23  1  0
 23 24  1  0
 24 25  1  0
 16 26  2  0
  7 27  1  0
 27 28  2  0
 28 29  1  0
 29 30  1  0
 30 31  1  0
 28  4  1  0
 26 12  1  0
 25 20  1  0
  1 32  1  0
  1 33  1  0
  1 34  1  0
  2 35  1  0
  2 36  1  0
  5 37  1  0
  6 38  1  0
  8 39  1  0
  8 40  1  0
 11 41  1  0
 13 42  1  0
 14 43  1  0
 15 44  1  0
 21 45  1  0
 21 46  1  0
 22 47  1  0
 22 48  1  0
 23 49  1  0
 23 50  1  0
 24 51  1  0
 24 52  1  0
 25 53  1  0
 25 54  1  0
 26 55  1  0
 27 56  1  0
 30 57  1  0
 30 58  1  0
 31 59  1  0
 31 60  1  0
 31 61  1  0
M  END
>  <UniqueID>  (15) 
15

>  <SMILES>  (15) 
CCOc1ccc(CC(=O)Nc2cccc(S(=O)(=O)N3CCCCC3)c2)cc1OCC

>  <Energy>  (15) 
62.33322215231807

>  <Genealogy>  (15) 
CCOc1ccc(CC(=O)Nc2cccc(S(=O)(=O)N3CCCCC3)c2)cc1OCC (3D coordinates assigned)
CCOc1ccc(CC(=O)Nc2cccc(S(=O)(=O)N3CCCCC3)c2)cc1OCC (nonaromatic ring conformer: 62.33322215231807 kcal/mol)

>  <smiles>  (15) 
CCOc1ccc(CC(=O)Nc2cccc(S(=O)(=O)N3CCCCC3)c2)cc1OCC

>  <score_type>  (15) 
oracle

>  <origin>  (15) 
adgpu

>  <m_score__min__energy>  (15) 
-10.06

>  <m_primary>  (15) 
energy

$$$$
15:0
     RDKit          3D

 49 52  0  0  0  0  0  0  0  0999 V2000
   -8.7330   18.6970  -31.3770 C   0  0  0  0  0  0  0  0  0  0  0  0
   -7.4950   18.3140  -32.1310 C   0  0  0  0  0  0  0  0  0  0  0  0
   -7.2300   18.8710  -33.3910 C   0  0  0  0  0  0  0  0  0  0  0  0
   -6.0530   18.5470  -34.0720 C   0  0  0  0  0  0  0  0  0  0  0  0
   -5.1230   17.6740  -33.4940 C   0  0  0  0  0  0  0  0  0  0  0  0
   -3.6210   17.2860  -34.3270 S   0  0  0  0  0  0  0  0  0  0  0  0
   -3.8670   17.0590  -35.7920 O   0  0  0  0  0  0  0  0  0  0  0  0
   -3.0460   16.0340  -33.7290 O   0  0  0  0  0  0  0  0  0  0  0  0
   -2.4870   18.5860  -34.1370 N   0  0  0  0  0  0  0  0  0  0  0  0
   -2.6780   19.6870  -33.2310 C   0  0  0  0  0  0  0  0  0  0  0  0
   -3.8690   20.4500  -33.3170 C   0  0  0  0  0  0  0  0  0  0  0  0
   -4.0960   21.5390  -32.4580 C   0  0  0  0  0  0  0  0  0  0  0  0
   -3.1120   21.8420  -31.5180 C   0  0  0  0  0  0  0  0  0  0  0  0
   -3.0330   22.8190  -30.5480 C   0  0  0  0  0  0  0  0  0  0  0  0
   -4.2360   24.0460  -30.1570 S   0  0  0  0  0  0  0  0  0  0  0  0
   -3.8930   25.3440  -30.8340 O   0  0  0  0  0  0  0  0  0  0  0  0
   -4.2500   24.2870  -28.6740 O   0  0  0  0  0  0  0  0  0  0  0  0
   -5.8150   23.4910  -30.6980 C   0  0  0  0  0  0  0  0  0  0  0  0
   -6.2960   23.8430  -31.9690 C   0  0  0  0  0  0  0  0  0  0  0  0
   -7.5650   23.4220  -32.3800 C   0  0  0  0  0  0  0  0  0  0  0  0
   -8.3590   22.6530  -31.5250 C   0  0  0  0  0  0  0  0  0  0  0  0
   -7.8860   22.3040  -30.2570 C   0  0  0  0  0  0  0  0  0  0  0  0
   -6.6170   22.7220  -29.8420 C   0  0  0  0  0  0  0  0  0  0  0  0
   -1.8220   22.5830  -29.8980 C   0  0  0  0  0  0  0  0  0  0  0  0
   -1.2680   23.3600  -28.7500 C   0  0  0  0  0  0  0  0  0  0  0  0
   -1.2030   21.5550  -30.4470 O   0  0  0  0  0  0  0  0  0  0  0  0
   -1.9640   21.1020  -31.4140 C   0  0  0  0  0  0  0  0  0  0  0  0
   -1.7110   20.0180  -32.2500 C   0  0  0  0  0  0  0  0  0  0  0  0
   -5.3790   17.1240  -32.2310 C   0  0  0  0  0  0  0  0  0  0  0  0
   -6.5550   17.4490  -31.5490 C   0  0  0  0  0  0  0  0  0  0  0  0
   -8.5375   18.6365  -30.2962 H   0  0  0  0  0  0  0  0  0  0  0  0
   -9.0195   19.7258  -31.6408 H   0  0  0  0  0  0  0  0  0  0  0  0
   -9.5503   18.0097  -31.6408 H   0  0  0  0  0  0  0  0  0  0  0  0
   -7.9517   19.5659  -33.8452 H   0  0  0  0  0  0  0  0  0  0  0  0
   -5.8568   18.9789  -35.0645 H   0  0  0  0  0  0  0  0  0  0  0  0
   -1.5830   18.5060  -34.6540 H   0  0  0  0  0  0  0  0  0  0  0  0
   -4.6280   20.1857  -34.0681 H   0  0  0  0  0  0  0  0  0  0  0  0
   -5.0196   22.1327  -32.5251 H   0  0  0  0  0  0  0  0  0  0  0  0
   -5.6741   24.4508  -32.6427 H   0  0  0  0  0  0  0  0  0  0  0  0
   -7.9385   23.6966  -33.3776 H   0  0  0  0  0  0  0  0  0  0  0  0
   -9.3565   22.3223  -31.8500 H   0  0  0  0  0  0  0  0  0  0  0  0
   -8.5124   21.6998  -29.5843 H   0  0  0  0  0  0  0  0  0  0  0  0
   -6.2477   22.4472  -28.8430 H   0  0  0  0  0  0  0  0  0  0  0  0
   -1.5949   22.9015  -27.8051 H   0  0  0  0  0  0  0  0  0  0  0  0
   -0.1691   23.3541  -28.7995 H   0  0  0  0  0  0  0  0  0  0  0  0
   -1.6317   24.3969  -28.7995 H   0  0  0  0  0  0  0  0  0  0  0  0
   -0.7843   19.4336  -32.1514 H   0  0  0  0  0  0  0  0  0  0  0  0
   -4.6528   16.4349  -31.7751 H   0  0  0  0  0  0  0  0  0  0  0  0
   -6.7447   17.0251  -30.5519 H   0  0  0  0  0  0  0  0  0  0  0  0
  1  2  1  0
  2  3  2  0
  3  4  1  0
  4  5  2  0
  5  6  1  0
  6  7  2  0
  6  8  2  0
  6  9  1  0
  9 10  1  0
 10 11  2  0
 11 12  1  0
 12 13  2  0
 13 14  1  0
 14 15  1  0
 15 16  2  0
 15 17  2  0
 15 18  1  0
 18 19  2  0
 19 20  1  0
 20 21  2  0
 21 22  1  0
 22 23  2  0
 14 24  2  0
 24 25  1  0
 24 26  1  0
 26 27  1  0
 27 28  2  0
  5 29  1  0
 29 30  2  0
 30  2  1  0
 28 10  1  0
 27 13  1  0
 23 18  1  0
  1 31  1  0
  1 32  1  0
  1 33  1  0
  3 34  1  0
  4 35  1  0
  9 36  1  0
 11 37  1  0
 12 38  1  0
 19 39  1  0
 20 40  1  0
 21 41  1  0
 22 42  1  0
 23 43  1  0
 25 44  1  0
 25 45  1  0
 25 46  1  0
 28 47  1  0
 29 48  1  0
 30 49  1  0
M  END
>  <UniqueID>  (16) 
16

>  <SMILES>  (16) 
Cc1ccc(S(=O)(=O)Nc2ccc3c(S(=O)(=O)c4ccccc4)c(C)oc3c2)cc1

>  <Energy>  (16) 
89.84361530656908

>  <Genealogy>  (16) 
Cc1ccc(S(=O)(=O)Nc2ccc3c(S(=O)(=O)c4ccccc4)c(C)oc3c2)cc1 (3D coordinates assigned)
Cc1ccc(S(=O)(=O)Nc2ccc3c(S(=O)(=O)c4ccccc4)c(C)oc3c2)cc1 (optimized conformer: 89.84361530656908 kcal/mol)

>  <smiles>  (16) 
Cc1ccc(S(=O)(=O)Nc2ccc3c(S(=O)(=O)c4ccccc4)c(C)oc3c2)cc1

>  <score_type>  (16) 
oracle

>  <origin>  (16) 
adgpu

>  <m_score__min__energy>  (16) 
-10.93

>  <m_primary>  (16) 
energy

$$$$
16:0
     RDKit          3D

 36 37  0  0  0  0  0  0  0  0999 V2000
   -5.6520   16.2700  -31.3500 N   0  0  0  0  0  0  0  0  0  0  0  0
   -6.3540   16.9280  -32.4040 C   0  0  0  0  0  0  0  0  0  0  0  0
   -6.9280   16.2340  -33.2850 O   0  0  0  0  0  0  0  0  0  0  0  0
   -6.4080   18.4090  -32.4640 C   0  0  0  0  0  0  0  0  0  0  0  0
   -7.6280   19.0870  -32.3010 C   0  0  0  0  0  0  0  0  0  0  0  0
   -7.6790   20.4830  -32.3680 C   0  0  0  0  0  0  0  0  0  0  0  0
   -6.5100   21.2300  -32.6000 C   0  0  0  0  0  0  0  0  0  0  0  0
   -6.5340   22.6670  -32.7090 N   0  0  0  0  0  0  0  0  0  0  0  0
   -7.4100   23.5390  -31.9210 C   0  0  0  0  0  0  0  0  0  0  0  0
   -6.6160   24.4380  -31.0220 C   0  0  0  0  0  0  0  0  0  0  0  0
   -7.2070   25.1060  -30.1310 O   0  0  0  0  0  0  0  0  0  0  0  0
   -5.1940   24.5190  -31.1610 N   0  0  0  0  0  0  0  0  0  0  0  0
   -4.3210   25.0580  -30.1290 C   0  0  0  0  0  0  0  0  0  0  0  0
   -3.3410   23.9990  -29.7110 C   0  0  0  0  0  0  0  0  0  0  0  0
   -3.7130   22.6430  -29.7370 C   0  0  0  0  0  0  0  0  0  0  0  0
   -2.7920   21.6520  -29.3830 C   0  0  0  0  0  0  0  0  0  0  0  0
   -1.4920   22.0040  -29.0090 C   0  0  0  0  0  0  0  0  0  0  0  0
   -1.1090   23.3470  -28.9930 C   0  0  0  0  0  0  0  0  0  0  0  0
   -2.0250   24.3450  -29.3460 C   0  0  0  0  0  0  0  0  0  0  0  0
   -1.6200   25.6760  -29.3350 O   0  0  0  0  0  0  0  0  0  0  0  0
   -5.2920   20.5520  -32.7500 C   0  0  0  0  0  0  0  0  0  0  0  0
   -5.2390   19.1570  -32.6850 C   0  0  0  0  0  0  0  0  0  0  0  0
   -6.1540   15.9360  -30.4980 H   0  0  0  0  0  0  0  0  0  0  0  0
   -8.5500   18.5153  -32.1193 H   0  0  0  0  0  0  0  0  0  0  0  0
   -8.6408   21.0008  -32.2383 H   0  0  0  0  0  0  0  0  0  0  0  0
   -5.9400   23.1210  -33.4380 H   0  0  0  0  0  0  0  0  0  0  0  0
   -8.0110   24.1561  -32.6051 H   0  0  0  0  0  0  0  0  0  0  0  0
   -8.0585   22.9073  -31.2962 H   0  0  0  0  0  0  0  0  0  0  0  0
   -3.7765   25.9280  -30.5247 H   0  0  0  0  0  0  0  0  0  0  0  0
   -4.9215   25.3700  -29.2618 H   0  0  0  0  0  0  0  0  0  0  0  0
   -4.7329   22.3606  -30.0371 H   0  0  0  0  0  0  0  0  0  0  0  0
   -3.0911   20.5936  -29.3989 H   0  0  0  0  0  0  0  0  0  0  0  0
   -0.7704   21.2230  -28.7272 H   0  0  0  0  0  0  0  0  0  0  0  0
   -0.0843   23.6214  -28.7021 H   0  0  0  0  0  0  0  0  0  0  0  0
   -4.3682   21.1242  -32.9207 H   0  0  0  0  0  0  0  0  0  0  0  0
   -4.2754   18.6408  -32.8077 H   0  0  0  0  0  0  0  0  0  0  0  0
  1  2  1  0
  2  3  2  0
  2  4  1  0
  4  5  2  0
  5  6  1  0
  6  7  2  0
  7  8  1  0
  8  9  1  0
  9 10  1  0
 10 11  2  0
 10 12  1  0
 12 13  1  0
 13 14  1  0
 14 15  2  0
 15 16  1  0
 16 17  2  0
 17 18  1  0
 18 19  2  0
 19 20  1  0
  7 21  1  0
 21 22  2  0
 22  4  1  0
 19 14  1  0
  1 23  1  0
  5 24  1  0
  6 25  1  0
  8 26  1  0
  9 27  1  0
  9 28  1  0
 13 29  1  0
 13 30  1  0
 15 31  1  0
 16 32  1  0
 17 33  1  0
 18 34  1  0
 21 35  1  0
 22 36  1  0
M  CHG  3   1  -1  12  -1  20  -1
M  END
>  <UniqueID>  (17) 
17

>  <SMILES>  (17) 
[NH-]C(=O)c1ccc(NCC(=O)[N-]Cc2ccccc2[O-])cc1

>  <Energy>  (17) 
32.41676733659654

>  <Genealogy>  (17) 
[NH-]C(=O)c1ccc(NCC(=O)[N-]Cc2ccccc2[O-])cc1 (protonated)
[NH-]C(=O)c1ccc(NCC(=O)[N-]Cc2ccccc2[O-])cc1 (3D coordinates assigned)
[NH-]C(=O)c1ccc(NCC(=O)[N-]Cc2ccccc2[O-])cc1 (optimized conformer: 32.41676733659654 kcal/mol)

>  <smiles>  (17) 
NC(=O)c1ccc(NCC(=O)NCc2ccccc2O)cc1

>  <score_type>  (17) 
oracle

>  <origin>  (17) 
adgpu

>  <m_score__min__energy>  (17) 
-11.6

>  <m_primary>  (17) 
energy

$$$$
17:0
     RDKit          3D

 48 51  0  0  0  0  0  0  0  0999 V2000
   -5.7970   22.8620  -32.6960 O   0  0  0  0  0  0  0  0  0  0  0  0
   -5.6490   22.6510  -31.4620 C   0  0  0  0  0  0  0  0  0  0  0  0
   -6.4110   21.6200  -30.8090 N   0  0  0  0  0  0  0  0  0  0  0  0
   -7.0820   20.5570  -31.5070 C   0  0  0  0  0  0  0  0  0  0  0  0
   -8.4590   20.3710  -31.3160 C   0  0  0  0  0  0  0  0  0  0  0  0
   -9.1290   19.3300  -31.9650 C   0  0  0  0  0  0  0  0  0  0  0  0
   -8.4270   18.4580  -32.8000 C   0  0  0  0  0  0  0  0  0  0  0  0
   -7.0480   18.6200  -32.9870 C   0  0  0  0  0  0  0  0  0  0  0  0
   -6.1710   17.4870  -34.0120 S   0  0  0  0  0  0  0  0  0  0  0  0
   -7.0460   16.2870  -34.2520 O   0  0  0  0  0  0  0  0  0  0  0  0
   -5.8650   18.1280  -35.3370 O   0  0  0  0  0  0  0  0  0  0  0  0
   -4.6940   17.0080  -33.2020 N   0  0  0  0  0  0  0  0  0  0  0  0
   -3.5780   17.9340  -33.4950 C   0  0  0  0  0  0  0  0  0  0  0  0
   -2.6320   17.4020  -34.5870 C   0  0  0  0  0  0  0  0  0  0  0  0
   -3.3500   16.6280  -35.5210 O   0  0  0  0  0  0  0  0  0  0  0  0
   -3.7890   15.4200  -34.9220 C   0  0  0  0  0  0  0  0  0  0  0  0
   -4.3460   15.6050  -33.4900 C   0  0  0  0  0  0  0  0  0  0  0  0
   -6.3750   19.6620  -32.3320 C   0  0  0  0  0  0  0  0  0  0  0  0
   -4.7210   23.5020  -30.6990 C   0  0  0  0  0  0  0  0  0  0  0  0
   -3.8840   23.1040  -29.6760 C   0  0  0  0  0  0  0  0  0  0  0  0
   -3.2230   24.2640  -29.3090 C   0  0  0  0  0  0  0  0  0  0  0  0
   -2.1920   24.4030  -28.2450 C   0  0  0  0  0  0  0  0  0  0  0  0
   -2.1650   23.5020  -27.1610 C   0  0  0  0  0  0  0  0  0  0  0  0
   -1.1980   23.6190  -26.1600 C   0  0  0  0  0  0  0  0  0  0  0  0
   -0.2440   24.6350  -26.2230 C   0  0  0  0  0  0  0  0  0  0  0  0
   -0.2550   25.5360  -27.2890 C   0  0  0  0  0  0  0  0  0  0  0  0
   -1.2200   25.4300  -28.2960 C   0  0  0  0  0  0  0  0  0  0  0  0
   -1.2050   26.3550  -29.3350 O   0  0  0  0  0  0  0  0  0  0  0  0
   -3.6540   25.2810  -30.0820 N   0  0  0  0  0  0  0  0  0  0  0  0
   -4.5620   24.8190  -30.9280 N   0  0  0  0  0  0  0  0  0  0  0  0
   -6.5740   21.7050  -29.7810 H   0  0  0  0  0  0  0  0  0  0  0  0
   -9.0151   21.0485  -30.6514 H   0  0  0  0  0  0  0  0  0  0  0  0
  -10.2110   19.1974  -31.8178 H   0  0  0  0  0  0  0  0  0  0  0  0
   -8.9580   17.6420  -33.3121 H   0  0  0  0  0  0  0  0  0  0  0  0
   -3.9969   18.8942  -33.8303 H   0  0  0  0  0  0  0  0  0  0  0  0
   -2.9893   18.0454  -32.5725 H   0  0  0  0  0  0  0  0  0  0  0  0
   -2.1613   18.2509  -35.1045 H   0  0  0  0  0  0  0  0  0  0  0  0
   -1.8614   16.7728  -34.1177 H   0  0  0  0  0  0  0  0  0  0  0  0
   -4.5819   14.9884  -35.5505 H   0  0  0  0  0  0  0  0  0  0  0  0
   -2.9116   14.7612  -34.8441 H   0  0  0  0  0  0  0  0  0  0  0  0
   -5.2490   14.9866  -33.3791 H   0  0  0  0  0  0  0  0  0  0  0  0
   -3.5612   15.3008  -32.7818 H   0  0  0  0  0  0  0  0  0  0  0  0
   -5.2893   19.7803  -32.4637 H   0  0  0  0  0  0  0  0  0  0  0  0
   -3.7686   22.0964  -29.2501 H   0  0  0  0  0  0  0  0  0  0  0  0
   -2.9136   22.6981  -27.1029 H   0  0  0  0  0  0  0  0  0  0  0  0
   -1.1886   22.9086  -25.3202 H   0  0  0  0  0  0  0  0  0  0  0  0
    0.5163   24.7260  -25.4332 H   0  0  0  0  0  0  0  0  0  0  0  0
    0.5000   26.3345  -27.3375 H   0  0  0  0  0  0  0  0  0  0  0  0
  1  2  2  0
  2  3  1  0
  3  4  1  0
  4  5  2  0
  5  6  1  0
  6  7  2  0
  7  8  1  0
  8  9  1  0
  9 10  2  0
  9 11  2  0
  9 12  1  0
 12 13  1  0
 13 14  1  0
 14 15  1  0
 15 16  1  0
 16 17  1  0
  8 18  2  0
  2 19  1  0
 19 20  1  0
 20 21  2  0
 21 22  1  0
 22 23  2  0
 23 24  1  0
 24 25  2  0
 25 26  1  0
 26 27  2  0
 27 28  1  0
 21 29  1  0
 29 30  1  0
 18  4  1  0
 30 19  2  0
 17 12  1  0
 27 22  1  0
  3 31  1  0
  5 32  1  0
  6 33  1  0
  7 34  1  0
 13 35  1  0
 13 36  1  0
 14 37  1  0
 14 38  1  0
 16 39  1  0
 16 40  1  0
 17 41  1  0
 17 42  1  0
 18 43  1  0
 20 44  1  0
 23 45  1  0
 24 46  1  0
 25 47  1  0
 26 48  1  0
M  CHG  2  28  -1  29  -1
M  END
>  <UniqueID>  (18) 
18

>  <SMILES>  (18) 
O=C(Nc1cccc(S(=O)(=O)N2CCOCC2)c1)c1cc(-c2ccccc2[O-])[n-]n1

>  <Energy>  (18) 
98.0908034542053

>  <Genealogy>  (18) 
O=C(Nc1cccc(S(=O)(=O)N2CCOCC2)c1)c1cc(-c2ccccc2[O-])[n-]n1 (protonated)
O=C(Nc1cccc(S(=O)(=O)N2CCOCC2)c1)c1cc(-c2ccccc2[O-])[n-]n1 (3D coordinates assigned)
O=C(Nc1cccc(S(=O)(=O)N2CCOCC2)c1)c1cc(-c2ccccc2[O-])[n-]n1 (nonaromatic ring conformer: 98.0908034542053 kcal/mol)

>  <smiles>  (18) 
O=C(Nc1cccc(S(=O)(=O)N2CCOCC2)c1)c1cc(-c2ccccc2O)[nH]n1

>  <score_type>  (18) 
oracle

>  <origin>  (18) 
adgpu

>  <m_score__min__energy>  (18) 
-14.890000000000001

>  <m_primary>  (18) 
energy

$$$$
18:0
     RDKit          3D

 46 48  0  0  0  0  0  0  0  0999 V2000
   -2.3910   25.0980  -26.7370 C   0  0  0  0  0  0  0  0  0  0  0  0
   -1.5910   25.6290  -28.2830 S   0  0  0  0  0  0  0  0  0  0  0  0
   -2.0000   24.1140  -29.1610 C   0  0  0  0  0  0  0  0  0  0  0  0
   -1.2600   22.9530  -28.8970 C   0  0  0  0  0  0  0  0  0  0  0  0
   -1.5500   21.7660  -29.5730 C   0  0  0  0  0  0  0  0  0  0  0  0
   -2.5690   21.7350  -30.5260 C   0  0  0  0  0  0  0  0  0  0  0  0
   -3.3070   22.8890  -30.8000 C   0  0  0  0  0  0  0  0  0  0  0  0
   -3.0420   24.0840  -30.1050 C   0  0  0  0  0  0  0  0  0  0  0  0
   -3.7860   25.2840  -30.3760 N   0  0  0  0  0  0  0  0  0  0  0  0
   -5.2140   25.4050  -30.4300 C   0  0  0  0  0  0  0  0  0  0  0  0
   -5.7370   26.5130  -30.1350 O   0  0  0  0  0  0  0  0  0  0  0  0
   -6.0890   24.2590  -30.7730 C   0  0  0  0  0  0  0  0  0  0  0  0
   -6.5400   23.3740  -29.7790 C   0  0  0  0  0  0  0  0  0  0  0  0
   -7.3470   22.2840  -30.1160 C   0  0  0  0  0  0  0  0  0  0  0  0
   -7.7260   22.0710  -31.4470 C   0  0  0  0  0  0  0  0  0  0  0  0
   -8.6920   20.6660  -31.8860 S   0  0  0  0  0  0  0  0  0  0  0  0
   -9.0800   19.9080  -30.6450 O   0  0  0  0  0  0  0  0  0  0  0  0
   -9.9470   21.1300  -32.5720 O   0  0  0  0  0  0  0  0  0  0  0  0
   -7.7780   19.6380  -32.9610 N   0  0  0  0  0  0  0  0  0  0  0  0
   -6.4070   20.1600  -33.1270 C   0  0  0  0  0  0  0  0  0  0  0  0
   -5.4770   19.1090  -33.7670 C   0  0  0  0  0  0  0  0  0  0  0  0
   -6.2230   18.0710  -34.3670 O   0  0  0  0  0  0  0  0  0  0  0  0
   -6.9190   17.3440  -33.3700 C   0  0  0  0  0  0  0  0  0  0  0  0
   -7.7540   18.2580  -32.4440 C   0  0  0  0  0  0  0  0  0  0  0  0
   -7.2920   22.9590  -32.4390 C   0  0  0  0  0  0  0  0  0  0  0  0
   -6.4860   24.0510  -32.1040 C   0  0  0  0  0  0  0  0  0  0  0  0
   -1.8182   25.4782  -25.8784 H   0  0  0  0  0  0  0  0  0  0  0  0
   -3.4159   25.4957  -26.6991 H   0  0  0  0  0  0  0  0  0  0  0  0
   -2.4225   23.9991  -26.6991 H   0  0  0  0  0  0  0  0  0  0  0  0
   -0.4483   22.9771  -28.1550 H   0  0  0  0  0  0  0  0  0  0  0  0
   -0.9746   20.8544  -29.3541 H   0  0  0  0  0  0  0  0  0  0  0  0
   -2.7914   20.8006  -31.0621 H   0  0  0  0  0  0  0  0  0  0  0  0
   -4.0992   22.8637  -31.5627 H   0  0  0  0  0  0  0  0  0  0  0  0
   -6.2561   23.5402  -28.7293 H   0  0  0  0  0  0  0  0  0  0  0  0
   -7.6859   21.5904  -29.3323 H   0  0  0  0  0  0  0  0  0  0  0  0
   -8.2640   19.6460  -33.8890 H   0  0  0  0  0  0  0  0  0  0  0  0
   -6.4389   21.0499  -33.7727 H   0  0  0  0  0  0  0  0  0  0  0  0
   -6.0105   20.4126  -32.1325 H   0  0  0  0  0  0  0  0  0  0  0  0
   -4.8575   19.5965  -34.5342 H   0  0  0  0  0  0  0  0  0  0  0  0
   -4.8441   18.6751  -32.9789 H   0  0  0  0  0  0  0  0  0  0  0  0
   -7.5946   16.6289  -33.8621 H   0  0  0  0  0  0  0  0  0  0  0  0
   -6.1711   16.8315  -32.7471 H   0  0  0  0  0  0  0  0  0  0  0  0
   -8.7835   17.8743  -32.3901 H   0  0  0  0  0  0  0  0  0  0  0  0
   -7.2964   18.2622  -31.4437 H   0  0  0  0  0  0  0  0  0  0  0  0
   -7.5865   22.7966  -33.4863 H   0  0  0  0  0  0  0  0  0  0  0  0
   -6.1609   24.7514  -32.8874 H   0  0  0  0  0  0  0  0  0  0  0  0
  1  2  1  0
  2  3  1  0
  3  4  2  0
  4  5  1  0
  5  6  2  0
  6  7  1  0
  7  8  2  0
  8  9  1  0
  9 10  1  0
 10 11  2  0
 10 12  1  0
 12 13  2  0
 13 14  1  0
 14 15  2  0
 15 16  1  0
 16 17  2  0
 16 18  2  0
 16 19  1  0
 19 20  1  0
 20 21  1  0
 21 22  1  0
 22 23  1  0
 23 24  1  0
 15 25  1  0
 25 26  2  0
  8  3  1  0
 26 12  1  0
 24 19  1  0
  1 27  1  0
  1 28  1  0
  1 29  1  0
  4 30  1  0
  5 31  1  0
  6 32  1  0
  7 33  1  0
 13 34  1  0
 14 35  1  0
 19 36  1  0
 20 37  1  0
 20 38  1  0
 21 39  1  0
 21 40  1  0
 23 41  1  0
 23 42  1  0
 24 43  1  0
 24 44  1  0
 25 45  1  0
 26 46  1  0
M  CHG  2   9  -1  19   1
M  END
>  <UniqueID>  (19) 
19

>  <SMILES>  (19) 
CSc1ccccc1[N-]C(=O)c1ccc(S(=O)(=O)[NH+]2CCOCC2)cc1

>  <Energy>  (19) 
56.81666693252369

>  <Genealogy>  (19) 
CSc1ccccc1[N-]C(=O)c1ccc(S(=O)(=O)[NH+]2CCOCC2)cc1 (protonated)
CSc1ccccc1[N-]C(=O)c1ccc(S(=O)(=O)[NH+]2CCOCC2)cc1 (3D coordinates assigned)
CSc1ccccc1[N-]C(=O)c1ccc(S(=O)(=O)[NH+]2CCOCC2)cc1 (nonaromatic ring conformer: 56.81666693252369 kcal/mol)

>  <smiles>  (19) 
CSc1ccccc1NC(=O)c1ccc(S(=O)(=O)N2CCOCC2)cc1

>  <score_type>  (19) 
oracle

>  <origin>  (19) 
adgpu

>  <m_score__min__energy>  (19) 
-11.119999999999999

>  <m_primary>  (19) 
energy

$$$$
19:0
     RDKit          3D

 66 69  0  0  0  0  0  0  0  0999 V2000
   -3.0380   17.7960  -33.5800 C   0  0  0  0  0  0  0  0  0  0  0  0
   -1.6490   17.8820  -32.9580 C   0  0  0  0  0  0  0  0  0  0  0  0
   -0.7680   18.7980  -33.7560 C   0  0  0  0  0  0  0  0  0  0  0  0
   -0.2150   18.4080  -34.9350 N   0  0  0  0  0  0  0  0  0  0  0  0
    0.4300   19.5110  -35.3510 C   0  0  0  0  0  0  0  0  0  0  0  0
    1.1830   19.6590  -36.5110 C   0  0  0  0  0  0  0  0  0  0  0  0
    1.7710   20.9130  -36.7560 C   0  0  0  0  0  0  0  0  0  0  0  0
    1.5690   21.9970  -35.8610 C   0  0  0  0  0  0  0  0  0  0  0  0
    2.1830   23.3170  -36.1170 C   0  0  0  0  0  0  0  0  0  0  0  0
    3.1010   23.7190  -35.3550 O   0  0  0  0  0  0  0  0  0  0  0  0
    1.7520   24.1780  -37.1790 N   0  0  0  0  0  0  0  0  0  0  0  0
    0.9330   25.3730  -37.0120 C   0  0  0  0  0  0  0  0  0  0  0  0
    0.8130   21.7980  -34.6830 C   0  0  0  0  0  0  0  0  0  0  0  0
    0.2590   20.5330  -34.4620 C   0  0  0  0  0  0  0  0  0  0  0  0
   -0.5030   20.1000  -33.4390 N   0  0  0  0  0  0  0  0  0  0  0  0
   -0.8980   20.8380  -32.2330 C   0  0  0  0  0  0  0  0  0  0  0  0
   -2.4000   20.9520  -32.1490 C   0  0  0  0  0  0  0  0  0  0  0  0
   -3.1300   21.5600  -33.1850 C   0  0  0  0  0  0  0  0  0  0  0  0
   -4.5250   21.6240  -33.1230 C   0  0  0  0  0  0  0  0  0  0  0  0
   -5.2090   21.0870  -32.0240 C   0  0  0  0  0  0  0  0  0  0  0  0
   -6.6830   21.1450  -31.9610 C   0  0  0  0  0  0  0  0  0  0  0  0
   -7.4190   20.2470  -32.7540 C   0  0  0  0  0  0  0  0  0  0  0  0
   -8.8140   20.2540  -32.7250 C   0  0  0  0  0  0  0  0  0  0  0  0
   -9.4920   21.1670  -31.9150 C   0  0  0  0  0  0  0  0  0  0  0  0
   -8.7770   22.0730  -31.1290 C   0  0  0  0  0  0  0  0  0  0  0  0
   -7.3710   22.0800  -31.1390 C   0  0  0  0  0  0  0  0  0  0  0  0
   -6.6510   23.1290  -30.3130 C   0  0  0  0  0  0  0  0  0  0  0  0
   -6.1290   24.3010  -31.1640 C   0  0  0  0  0  0  0  0  0  0  0  0
   -5.2840   25.3120  -30.3690 C   0  0  0  0  0  0  0  0  0  0  0  0
   -3.8640   25.1910  -30.7020 N   0  0  0  0  0  0  0  0  0  0  0  0
   -2.9190   24.6530  -29.3450 S   0  0  0  0  0  0  0  0  0  0  0  0
   -2.1070   23.1360  -29.7970 C   0  0  0  0  0  0  0  0  0  0  0  0
   -1.8810   25.6740  -28.9700 O   0  0  0  0  0  0  0  0  0  0  0  0
   -3.8260   24.4060  -28.1730 O   0  0  0  0  0  0  0  0  0  0  0  0
   -4.4800   20.5230  -30.9680 C   0  0  0  0  0  0  0  0  0  0  0  0
   -3.0880   20.4450  -31.0350 C   0  0  0  0  0  0  0  0  0  0  0  0
   -3.7945   17.7492  -32.7828 H   0  0  0  0  0  0  0  0  0  0  0  0
   -3.2164   18.6848  -34.2030 H   0  0  0  0  0  0  0  0  0  0  0  0
   -3.1054   16.8920  -34.2030 H   0  0  0  0  0  0  0  0  0  0  0  0
   -1.7359   18.2678  -31.9315 H   0  0  0  0  0  0  0  0  0  0  0  0
   -1.2012   16.8773  -32.9506 H   0  0  0  0  0  0  0  0  0  0  0  0
    1.3143   18.8229  -37.2136 H   0  0  0  0  0  0  0  0  0  0  0  0
    2.3944   21.0557  -37.6510 H   0  0  0  0  0  0  0  0  0  0  0  0
    0.7942   25.5755  -35.9397 H   0  0  0  0  0  0  0  0  0  0  0  0
    1.4344   26.2302  -37.4851 H   0  0  0  0  0  0  0  0  0  0  0  0
   -0.0473   25.2147  -37.4851 H   0  0  0  0  0  0  0  0  0  0  0  0
    0.6648   22.6146  -33.9611 H   0  0  0  0  0  0  0  0  0  0  0  0
   -0.5255   20.3059  -31.3452 H   0  0  0  0  0  0  0  0  0  0  0  0
   -0.4674   21.8492  -32.2788 H   0  0  0  0  0  0  0  0  0  0  0  0
   -2.6006   21.9877  -34.0492 H   0  0  0  0  0  0  0  0  0  0  0  0
   -5.0883   22.0979  -33.9404 H   0  0  0  0  0  0  0  0  0  0  0  0
   -6.8906   19.5329  -33.4027 H   0  0  0  0  0  0  0  0  0  0  0  0
   -9.3801   19.5396  -33.3408 H   0  0  0  0  0  0  0  0  0  0  0  0
  -10.5918   21.1726  -31.8960 H   0  0  0  0  0  0  0  0  0  0  0  0
   -9.3199   22.7893  -30.4948 H   0  0  0  0  0  0  0  0  0  0  0  0
   -7.3491   23.5243  -29.5604 H   0  0  0  0  0  0  0  0  0  0  0  0
   -5.7808   22.6443  -29.8463 H   0  0  0  0  0  0  0  0  0  0  0  0
   -5.5093   23.8923  -31.9758 H   0  0  0  0  0  0  0  0  0  0  0  0
   -7.0091   24.8425  -31.5411 H   0  0  0  0  0  0  0  0  0  0  0  0
   -5.6234   26.3305  -30.6086 H   0  0  0  0  0  0  0  0  0  0  0  0
   -5.4096   25.1042  -29.2961 H   0  0  0  0  0  0  0  0  0  0  0  0
   -1.8153   22.5910  -28.8871 H   0  0  0  0  0  0  0  0  0  0  0  0
   -2.7937   22.5156  -30.3917 H   0  0  0  0  0  0  0  0  0  0  0  0
   -1.2100   23.3633  -30.3917 H   0  0  0  0  0  0  0  0  0  0  0  0
   -5.0076   20.1399  -30.0820 H   0  0  0  0  0  0  0  0  0  0  0  0
   -2.5263   19.9833  -30.2096 H   0  0  0  0  0  0  0  0  0  0  0  0
  1  2  1  0
  2  3  1  0
  3  4  2  0
  4  5  1  0
  5  6  2  0
  6  7  1  0
  7  8  2  0
  8  9  1  0
  9 10  2  0
  9 11  1  0
 11 12  1  0
  8 13  1  0
 13 14  2  0
 14 15  1  0
 15 16  1  0
 16 17  1  0
 17 18  2  0
 18 19  1  0
 19 20  2  0
 20 21  1  0
 21 22  2  0
 22 23  1  0
 23 24  2  0
 24 25  1  0
 25 26  2  0
 26 27  1  0
 27 28  1  0
 28 29  1  0
 29 30  1  0
 30 31  1  0
 31 32  1  0
 31 33  2  0
 31 34  2  0
 20 35  1  0
 35 36  2  0
 15  3  1  0
 36 17  1  0
 14  5  1  0
 26 21  1  0
  1 37  1  0
  1 38  1  0
  1 39  1  0
  2 40  1  0
  2 41  1  0
  6 42  1  0
  7 43  1  0
 12 44  1  0
 12 45  1  0
 12 46  1  0
 13 47  1  0
 16 48  1  0
 16 49  1  0
 18 50  1  0
 19 51  1  0
 22 52  1  0
 23 53  1  0
 24 54  1  0
 25 55  1  0
 27 56  1  0
 27 57  1  0
 28 58  1  0
 28 59  1  0
 29 60  1  0
 29 61  1  0
 32 62  1  0
 32 63  1  0
 32 64  1  0
 35 65  1  0
 36 66  1  0
M  CHG  2  11  -1  30  -1
M  END
>  <UniqueID>  (20) 
20

>  <SMILES>  (20) 
CCc1nc2ccc(C(=O)[N-]C)cc2n1Cc1ccc(-c2ccccc2CCC[N-]S(C)(=O)=O)cc1

>  <Energy>  (20) 
104.02139242122146

>  <Genealogy>  (20) 
CCc1nc2ccc(C(=O)[N-]C)cc2n1Cc1ccc(-c2ccccc2CCC[N-]S(C)(=O)=O)cc1 (protonated)
CCc1nc2ccc(C(=O)[N-]C)cc2n1Cc1ccc(-c2ccccc2CCC[N-]S(C)(=O)=O)cc1 (3D coordinates assigned)
CCc1nc2ccc(C(=O)[N-]C)cc2n1Cc1ccc(-c2ccccc2CCC[N-]S(C)(=O)=O)cc1 (optimized conformer: 104.02139242122146 kcal/mol)

>  <smiles>  (20) 
CCc1nc2ccc(C(=O)NC)cc2n1Cc1ccc(-c2ccccc2CCCNS(C)(=O)=O)cc1

>  <score_type>  (20) 
oracle

>  <origin>  (20) 
adgpu

>  <m_score__min__energy>  (20) 
-13.06

>  <m_primary>  (20) 
energy

$$$$
20:0
     RDKit          3D

 47 50  0  0  0  0  0  0  0  0999 V2000
    4.1910   25.6200  -22.7080 C   0  0  0  0  0  0  0  0  0  0  0  0
    3.0830   25.6090  -23.7190 C   0  0  0  0  0  0  0  0  0  0  0  0
    2.9990   24.5740  -24.6630 C   0  0  0  0  0  0  0  0  0  0  0  0
    1.9880   24.5830  -25.6290 C   0  0  0  0  0  0  0  0  0  0  0  0
    1.0630   25.6340  -25.6720 C   0  0  0  0  0  0  0  0  0  0  0  0
   -0.2100   25.6380  -26.8870 S   0  0  0  0  0  0  0  0  0  0  0  0
   -1.5220   25.2960  -26.2370 O   0  0  0  0  0  0  0  0  0  0  0  0
   -0.2900   27.0010  -27.5140 O   0  0  0  0  0  0  0  0  0  0  0  0
    0.1450   24.4680  -28.0850 O   0  0  0  0  0  0  0  0  0  0  0  0
   -0.8050   23.6540  -28.7200 C   0  0  0  0  0  0  0  0  0  0  0  0
   -0.6990   22.2520  -28.7430 C   0  0  0  0  0  0  0  0  0  0  0  0
   -1.6680   21.4810  -29.3860 C   0  0  0  0  0  0  0  0  0  0  0  0
   -2.7540   22.0910  -30.0150 C   0  0  0  0  0  0  0  0  0  0  0  0
   -3.6650   21.3350  -30.6200 O   0  0  0  0  0  0  0  0  0  0  0  0
   -4.7340   21.8320  -31.2390 C   0  0  0  0  0  0  0  0  0  0  0  0
   -5.6870   20.8920  -31.8810 C   0  0  0  0  0  0  0  0  0  0  0  0
   -7.0410   20.9180  -31.5040 C   0  0  0  0  0  0  0  0  0  0  0  0
   -7.9580   20.0430  -32.0920 C   0  0  0  0  0  0  0  0  0  0  0  0
   -7.5390   19.1420  -33.0730 C   0  0  0  0  0  0  0  0  0  0  0  0
   -6.2000   19.1220  -33.4860 C   0  0  0  0  0  0  0  0  0  0  0  0
   -5.7450   18.1380  -34.5240 C   0  0  0  0  0  0  0  0  0  0  0  0
   -5.2760   19.9880  -32.8820 C   0  0  0  0  0  0  0  0  0  0  0  0
   -4.9230   23.2230  -31.2790 C   0  0  0  0  0  0  0  0  0  0  0  0
   -3.9950   24.0610  -30.6580 C   0  0  0  0  0  0  0  0  0  0  0  0
   -4.1730   25.3080  -30.7020 O   0  0  0  0  0  0  0  0  0  0  0  0
   -2.8810   23.5000  -30.0030 C   0  0  0  0  0  0  0  0  0  0  0  0
   -1.8950   24.2750  -29.3500 C   0  0  0  0  0  0  0  0  0  0  0  0
   -1.9830   25.6640  -29.3150 O   0  0  0  0  0  0  0  0  0  0  0  0
    1.1520   26.6740  -24.7390 C   0  0  0  0  0  0  0  0  0  0  0  0
    2.1630   26.6660  -23.7720 C   0  0  0  0  0  0  0  0  0  0  0  0
    3.7629   25.6157  -21.6947 H   0  0  0  0  0  0  0  0  0  0  0  0
    4.8203   24.7281  -22.8439 H   0  0  0  0  0  0  0  0  0  0  0  0
    4.8024   26.5243  -22.8439 H   0  0  0  0  0  0  0  0  0  0  0  0
    3.7308   23.7530  -24.6430 H   0  0  0  0  0  0  0  0  0  0  0  0
    1.9189   23.7619  -26.3577 H   0  0  0  0  0  0  0  0  0  0  0  0
    0.1531   21.7601  -28.2511 H   0  0  0  0  0  0  0  0  0  0  0  0
   -1.5752   20.3850  -29.3971 H   0  0  0  0  0  0  0  0  0  0  0  0
   -7.3812   21.6327  -30.7402 H   0  0  0  0  0  0  0  0  0  0  0  0
   -9.0130   20.0640  -31.7812 H   0  0  0  0  0  0  0  0  0  0  0  0
   -8.2621   18.4458  -33.5230 H   0  0  0  0  0  0  0  0  0  0  0  0
   -5.3328   17.2466  -34.0285 H   0  0  0  0  0  0  0  0  0  0  0  0
   -6.5996   17.8462  -35.1521 H   0  0  0  0  0  0  0  0  0  0  0  0
   -4.9691   18.6001  -35.1521 H   0  0  0  0  0  0  0  0  0  0  0  0
   -4.2210   19.9615  -33.1923 H   0  0  0  0  0  0  0  0  0  0  0  0
   -5.7956   23.6490  -31.7957 H   0  0  0  0  0  0  0  0  0  0  0  0
    0.4253   27.4993  -24.7663 H   0  0  0  0  0  0  0  0  0  0  0  0
    2.2366   27.4926  -23.0500 H   0  0  0  0  0  0  0  0  0  0  0  0
  1  2  1  0
  2  3  2  0
  3  4  1  0
  4  5  2  0
  5  6  1  0
  6  7  2  0
  6  8  2  0
  6  9  1  0
  9 10  1  0
 10 11  2  0
 11 12  1  0
 12 13  2  0
 13 14  1  0
 14 15  1  0
 15 16  1  0
 16 17  2  0
 17 18  1  0
 18 19  2  0
 19 20  1  0
 20 21  1  0
 20 22  2  0
 15 23  2  0
 23 24  1  0
 24 25  2  0
 24 26  1  0
 26 27  2  0
 27 28  1  0
  5 29  1  0
 29 30  2  0
 30  2  1  0
 27 10  1  0
 26 13  1  0
 22 16  1  0
  1 31  1  0
  1 32  1  0
  1 33  1  0
  3 34  1  0
  4 35  1  0
 11 36  1  0
 12 37  1  0
 17 38  1  0
 18 39  1  0
 19 40  1  0
 21 41  1  0
 21 42  1  0
 21 43  1  0
 22 44  1  0
 23 45  1  0
 29 46  1  0
 30 47  1  0
M  CHG  1  28  -1
M  END
>  <UniqueID>  (21) 
21

>  <SMILES>  (21) 
Cc1ccc(S(=O)(=O)Oc2ccc3oc(-c4cccc(C)c4)cc(=O)c3c2[O-])cc1

>  <Energy>  (21) 
61.605690354001865

>  <Genealogy>  (21) 
Cc1ccc(S(=O)(=O)Oc2ccc3oc(-c4cccc(C)c4)cc(=O)c3c2[O-])cc1 (protonated)
Cc1ccc(S(=O)(=O)Oc2ccc3oc(-c4cccc(C)c4)cc(=O)c3c2[O-])cc1 (3D coordinates assigned)
Cc1ccc(S(=O)(=O)Oc2ccc3oc(-c4cccc(C)c4)cc(=O)c3c2[O-])cc1 (optimized conformer: 61.605690354001865 kcal/mol)

>  <smiles>  (21) 
Cc1ccc(S(=O)(=O)Oc2ccc3oc(-c4cccc(C)c4)cc(=O)c3c2O)cc1

>  <score_type>  (21) 
oracle

>  <origin>  (21) 
adgpu

>  <m_score__min__energy>  (21) 
-13.48

>  <m_primary>  (21) 
energy

$$$$
21:0
     RDKit          3D

 45 47  0  0  0  0  0  0  0  0999 V2000
   -4.7710   13.8350  -33.9690 C   0  0  0  0  0  0  0  0  0  0  0  0
   -4.8470   15.3020  -33.8790 N   0  0  0  0  0  0  0  0  0  0  0  0
   -4.1100   15.9230  -34.9980 C   0  0  0  0  0  0  0  0  0  0  0  0
   -3.9910   17.4390  -34.7750 C   0  0  0  0  0  0  0  0  0  0  0  0
   -5.2090   17.9690  -34.1490 N   0  0  0  0  0  0  0  0  0  0  0  0
   -5.1830   19.2450  -33.4800 C   0  0  0  0  0  0  0  0  0  0  0  0
   -6.3730   19.8380  -33.0270 C   0  0  0  0  0  0  0  0  0  0  0  0
   -6.3470   21.0820  -32.3900 C   0  0  0  0  0  0  0  0  0  0  0  0
   -5.1330   21.7670  -32.2110 C   0  0  0  0  0  0  0  0  0  0  0  0
   -5.1180   23.0800  -31.5220 C   0  0  0  0  0  0  0  0  0  0  0  0
   -5.7300   24.0500  -32.0450 O   0  0  0  0  0  0  0  0  0  0  0  0
   -4.4070   23.2930  -30.2360 C   0  0  0  0  0  0  0  0  0  0  0  0
   -4.9670   22.8170  -29.0400 C   0  0  0  0  0  0  0  0  0  0  0  0
   -4.3140   23.0240  -27.8240 C   0  0  0  0  0  0  0  0  0  0  0  0
   -3.1010   23.7160  -27.7850 C   0  0  0  0  0  0  0  0  0  0  0  0
   -2.5290   24.2160  -28.9670 C   0  0  0  0  0  0  0  0  0  0  0  0
   -1.2470   24.9600  -28.9280 C   0  0  0  0  0  0  0  0  0  0  0  0
   -1.2350   26.3860  -28.9080 N   0  0  0  0  0  0  0  0  0  0  0  0
   -0.1510   24.3370  -28.9110 O   0  0  0  0  0  0  0  0  0  0  0  0
   -3.1940   24.0050  -30.1900 C   0  0  0  0  0  0  0  0  0  0  0  0
   -3.9420   21.1690  -32.6580 C   0  0  0  0  0  0  0  0  0  0  0  0
   -3.9690   19.9250  -33.2930 C   0  0  0  0  0  0  0  0  0  0  0  0
   -6.4580   17.2120  -34.2830 C   0  0  0  0  0  0  0  0  0  0  0  0
   -6.2650   15.7460  -33.8390 C   0  0  0  0  0  0  0  0  0  0  0  0
   -4.7488   13.4062  -32.9563 H   0  0  0  0  0  0  0  0  0  0  0  0
   -5.6506   13.4547  -34.5090 H   0  0  0  0  0  0  0  0  0  0  0  0
   -3.8568   13.5476  -34.5090 H   0  0  0  0  0  0  0  0  0  0  0  0
   -4.3850   15.5820  -32.9800 H   0  0  0  0  0  0  0  0  0  0  0  0
   -3.1032   15.4840  -35.0587 H   0  0  0  0  0  0  0  0  0  0  0  0
   -4.6558   15.7386  -35.9351 H   0  0  0  0  0  0  0  0  0  0  0  0
   -3.1310   17.6411  -34.1197 H   0  0  0  0  0  0  0  0  0  0  0  0
   -3.8521   17.9299  -35.7496 H   0  0  0  0  0  0  0  0  0  0  0  0
   -7.3320   19.3199  -33.1745 H   0  0  0  0  0  0  0  0  0  0  0  0
   -7.2842   21.5283  -32.0260 H   0  0  0  0  0  0  0  0  0  0  0  0
   -5.9256   22.2780  -29.0613 H   0  0  0  0  0  0  0  0  0  0  0  0
   -4.7562   22.6407  -26.8926 H   0  0  0  0  0  0  0  0  0  0  0  0
   -2.5905   23.8704  -26.8229 H   0  0  0  0  0  0  0  0  0  0  0  0
   -0.8610   26.9320  -29.7150 H   0  0  0  0  0  0  0  0  0  0  0  0
   -2.7605   24.4012  -31.1201 H   0  0  0  0  0  0  0  0  0  0  0  0
   -2.9820   21.6842  -32.5067 H   0  0  0  0  0  0  0  0  0  0  0  0
   -3.0310   19.4743  -33.6496 H   0  0  0  0  0  0  0  0  0  0  0  0
   -7.2313   17.6793  -33.6556 H   0  0  0  0  0  0  0  0  0  0  0  0
   -6.7627   17.2215  -35.3399 H   0  0  0  0  0  0  0  0  0  0  0  0
   -6.6347   15.6417  -32.8082 H   0  0  0  0  0  0  0  0  0  0  0  0
   -6.8243   15.1150  -34.5454 H   0  0  0  0  0  0  0  0  0  0  0  0
  1  2  1  0
  2  3  1  0
  3  4  1  0
  4  5  1  0
  5  6  1  0
  6  7  2  0
  7  8  1  0
  8  9  2  0
  9 10  1  0
 10 11  2  0
 10 12  1  0
 12 13  2  0
 13 14  1  0
 14 15  2  0
 15 16  1  0
 16 17  1  0
 17 18  1  0
 17 19  2  0
 16 20  2  0
  9 21  1  0
 21 22  2  0
  5 23  1  0
 23 24  1  0
 24  2  1  0
 22  6  1  0
 20 12  1  0
  1 25  1  0
  1 26  1  0
  1 27  1  0
  2 28  1  0
  3 29  1  0
  3 30  1  0
  4 31  1  0
  4 32  1  0
  7 33  1  0
  8 34  1  0
 13 35  1  0
 14 36  1  0
 15 37  1  0
 18 38  1  0
 20 39  1  0
 21 40  1  0
 22 41  1  0
 23 42  1  0
 23 43  1  0
 24 44  1  0
 24 45  1  0
M  CHG  2   2   1  18  -1
M  END
>  <UniqueID>  (22) 
22

>  <SMILES>  (22) 
C[NH+]1CCN(c2ccc(C(=O)c3cccc(C([NH-])=O)c3)cc2)CC1

>  <Energy>  (22) 
62.413578082410936

>  <Genealogy>  (22) 
C[NH+]1CCN(c2ccc(C(=O)c3cccc(C([NH-])=O)c3)cc2)CC1 (protonated)
C[NH+]1CCN(c2ccc(C(=O)c3cccc(C([NH-])=O)c3)cc2)CC1 (3D coordinates assigned)
C[NH+]1CCN(c2ccc(C(=O)c3cccc(C([NH-])=O)c3)cc2)CC1 (nonaromatic ring conformer: 62.413578082410936 kcal/mol)

>  <smiles>  (22) 
CN1CCN(c2ccc(C(=O)c3cccc(C(N)=O)c3)cc2)CC1

>  <score_type>  (22) 
oracle

>  <origin>  (22) 
adgpu

>  <m_score__min__energy>  (22) 
-10.16

>  <m_primary>  (22) 
energy

$$$$
22:0
     RDKit          3D

 52 54  0  0  0  0  0  0  0  0999 V2000
   -6.2420   14.6710  -34.1540 C   0  0  0  0  0  0  0  0  0  0  0  0
   -6.9610   15.8430  -34.5170 O   0  0  0  0  0  0  0  0  0  0  0  0
   -6.7340   17.0850  -33.9170 C   0  0  0  0  0  0  0  0  0  0  0  0
   -7.2400   17.3330  -32.6400 C   0  0  0  0  0  0  0  0  0  0  0  0
   -7.0130   18.5720  -32.0390 C   0  0  0  0  0  0  0  0  0  0  0  0
   -6.2800   19.5630  -32.7140 C   0  0  0  0  0  0  0  0  0  0  0  0
   -6.0270   20.8840  -32.0860 C   0  0  0  0  0  0  0  0  0  0  0  0
   -4.7310   21.4280  -32.0630 C   0  0  0  0  0  0  0  0  0  0  0  0
   -4.4920   22.6680  -31.4640 C   0  0  0  0  0  0  0  0  0  0  0  0
   -5.5440   23.3850  -30.8820 C   0  0  0  0  0  0  0  0  0  0  0  0
   -5.2130   24.9220  -30.0880 S   0  0  0  0  0  0  0  0  0  0  0  0
   -4.1930   25.6720  -30.8980 O   0  0  0  0  0  0  0  0  0  0  0  0
   -6.4620   25.7500  -29.9820 O   0  0  0  0  0  0  0  0  0  0  0  0
   -4.5850   24.6270  -28.5000 N   0  0  0  0  0  0  0  0  0  0  0  0
   -3.5710   23.6380  -28.2570 C   0  0  0  0  0  0  0  0  0  0  0  0
   -3.9460   22.3610  -27.8130 C   0  0  0  0  0  0  0  0  0  0  0  0
   -2.9830   21.3960  -27.5330 C   0  0  0  0  0  0  0  0  0  0  0  0
   -1.6320   21.6930  -27.6860 C   0  0  0  0  0  0  0  0  0  0  0  0
   -1.2200   22.9590  -28.1340 C   0  0  0  0  0  0  0  0  0  0  0  0
    0.2640   23.2200  -28.2800 C   0  0  0  0  0  0  0  0  0  0  0  0
    0.9410   23.5430  -26.9360 C   0  0  0  0  0  0  0  0  0  0  0  0
    0.8060   25.0140  -26.5310 C   0  0  0  0  0  0  0  0  0  0  0  0
    0.6200   25.8150  -27.6640 O   0  0  0  0  0  0  0  0  0  0  0  0
   -2.2000   23.9470  -28.4300 C   0  0  0  0  0  0  0  0  0  0  0  0
   -1.8170   25.2320  -28.9520 N   0  0  0  0  0  0  0  0  0  0  0  0
   -6.8390   22.8520  -30.9020 C   0  0  0  0  0  0  0  0  0  0  0  0
   -7.0800   21.6110  -31.4990 C   0  0  0  0  0  0  0  0  0  0  0  0
   -5.7890   19.2670  -33.9970 C   0  0  0  0  0  0  0  0  0  0  0  0
   -6.0260   18.0530  -34.5610 N   0  0  0  0  0  0  0  0  0  0  0  0
   -6.1950   14.5945  -33.0577 H   0  0  0  0  0  0  0  0  0  0  0  0
   -6.7530   13.7863  -34.5618 H   0  0  0  0  0  0  0  0  0  0  0  0
   -5.2218   14.7256  -34.5618 H   0  0  0  0  0  0  0  0  0  0  0  0
   -7.8135   16.5575  -32.1111 H   0  0  0  0  0  0  0  0  0  0  0  0
   -7.4094   18.7737  -31.0329 H   0  0  0  0  0  0  0  0  0  0  0  0
   -3.8983   20.8733  -32.5201 H   0  0  0  0  0  0  0  0  0  0  0  0
   -3.4730   23.0822  -31.4499 H   0  0  0  0  0  0  0  0  0  0  0  0
   -4.9030   25.2530  -27.7270 H   0  0  0  0  0  0  0  0  0  0  0  0
   -5.0116   22.1201  -27.6849 H   0  0  0  0  0  0  0  0  0  0  0  0
   -3.2902   20.3969  -27.1902 H   0  0  0  0  0  0  0  0  0  0  0  0
   -0.8776   20.9270  -27.4533 H   0  0  0  0  0  0  0  0  0  0  0  0
    0.7391   22.3250  -28.7081 H   0  0  0  0  0  0  0  0  0  0  0  0
    0.3864   24.0954  -28.9347 H   0  0  0  0  0  0  0  0  0  0  0  0
    0.4804   22.9213  -26.1541 H   0  0  0  0  0  0  0  0  0  0  0  0
    2.0145   23.3328  -27.0517 H   0  0  0  0  0  0  0  0  0  0  0  0
   -0.0584   25.1278  -25.8603 H   0  0  0  0  0  0  0  0  0  0  0  0
    1.7260   25.3294  -26.0170 H   0  0  0  0  0  0  0  0  0  0  0  0
    0.9590   26.7150  -27.4240 H   0  0  0  0  0  0  0  0  0  0  0  0
   -1.0770   25.8080  -28.4940 H   0  0  0  0  0  0  0  0  0  0  0  0
   -2.2910   25.6690  -29.7690 H   0  0  0  0  0  0  0  0  0  0  0  0
   -7.6692   23.4117  -30.4465 H   0  0  0  0  0  0  0  0  0  0  0  0
   -8.1001   21.1995  -31.5102 H   0  0  0  0  0  0  0  0  0  0  0  0
   -5.2094   20.0221  -34.5482 H   0  0  0  0  0  0  0  0  0  0  0  0
  1  2  1  0
  2  3  1  0
  3  4  2  0
  4  5  1  0
  5  6  2  0
  6  7  1  0
  7  8  2  0
  8  9  1  0
  9 10  2  0
 10 11  1  0
 11 12  2  0
 11 13  2  0
 11 14  1  0
 14 15  1  0
 15 16  2  0
 16 17  1  0
 17 18  2  0
 18 19  1  0
 19 20  1  0
 20 21  1  0
 21 22  1  0
 22 23  1  0
 19 24  2  0
 24 25  1  0
 10 26  1  0
 26 27  2  0
  6 28  1  0
 28 29  2  0
 29  3  1  0
 27  7  1  0
 24 15  1  0
  1 30  1  0
  1 31  1  0
  1 32  1  0
  4 33  1  0
  5 34  1  0
  8 35  1  0
  9 36  1  0
 14 37  1  0
 16 38  1  0
 17 39  1  0
 18 40  1  0
 20 41  1  0
 20 42  1  0
 21 43  1  0
 21 44  1  0
 22 45  1  0
 22 46  1  0
 23 47  1  0
 25 48  1  0
 25 49  1  0
 26 50  1  0
 27 51  1  0
 28 52  1  0
M  END
>  <UniqueID>  (23) 
23

>  <SMILES>  (23) 
COc1ccc(-c2ccc(S(=O)(=O)Nc3cccc(CCCO)c3N)cc2)cn1

>  <Energy>  (23) 
61.02829966825452

>  <Genealogy>  (23) 
COc1ccc(-c2ccc(S(=O)(=O)Nc3cccc(CCCO)c3N)cc2)cn1 (3D coordinates assigned)
COc1ccc(-c2ccc(S(=O)(=O)Nc3cccc(CCCO)c3N)cc2)cn1 (optimized conformer: 61.02829966825452 kcal/mol)

>  <smiles>  (23) 
COc1ccc(-c2ccc(S(=O)(=O)Nc3cccc(CCCO)c3N)cc2)cn1

>  <score_type>  (23) 
oracle

>  <origin>  (23) 
adgpu

>  <m_score__min__energy>  (23) 
-9.7599999999999998

>  <m_primary>  (23) 
energy

$$$$
23:0
     RDKit          3D

 37 38  0  0  0  0  0  0  0  0999 V2000
   -4.1860   25.6690  -30.8290 N   0  0  0  0  0  0  0  0  0  0  0  0
   -4.9970   24.1450  -30.8980 S   0  0  0  0  0  0  0  0  0  0  0  0
   -5.8790   24.0990  -32.1140 O   0  0  0  0  0  0  0  0  0  0  0  0
   -5.8560   23.9810  -29.6740 O   0  0  0  0  0  0  0  0  0  0  0  0
   -3.8090   22.8480  -30.9720 C   0  0  0  0  0  0  0  0  0  0  0  0
   -2.4430   23.1330  -30.8430 C   0  0  0  0  0  0  0  0  0  0  0  0
   -1.5000   22.1030  -30.9150 C   0  0  0  0  0  0  0  0  0  0  0  0
   -1.9130   20.7780  -31.1190 C   0  0  0  0  0  0  0  0  0  0  0  0
   -0.8900   19.6790  -31.2210 C   0  0  0  0  0  0  0  0  0  0  0  0
    0.1980   19.9120  -30.2790 N   0  0  0  0  0  0  0  0  0  0  0  0
    0.0620   19.7860  -28.8580 C   0  0  0  0  0  0  0  0  0  0  0  0
   -0.8110   19.0190  -28.3750 O   0  0  0  0  0  0  0  0  0  0  0  0
    0.9790   20.4910  -27.9410 C   0  0  0  0  0  0  0  0  0  0  0  0
    0.7990   21.7270  -27.4520 C   0  0  0  0  0  0  0  0  0  0  0  0
   -0.4350   22.5280  -27.5880 C   0  0  0  0  0  0  0  0  0  0  0  0
   -1.6390   22.0290  -27.0730 C   0  0  0  0  0  0  0  0  0  0  0  0
   -2.8250   22.7550  -27.2230 C   0  0  0  0  0  0  0  0  0  0  0  0
   -2.8250   23.9750  -27.9050 C   0  0  0  0  0  0  0  0  0  0  0  0
   -4.0210   24.6810  -28.0360 O   0  0  0  0  0  0  0  0  0  0  0  0
   -1.6270   24.4670  -28.4510 C   0  0  0  0  0  0  0  0  0  0  0  0
   -1.6100   25.6710  -29.1440 O   0  0  0  0  0  0  0  0  0  0  0  0
   -0.4410   23.7400  -28.3020 C   0  0  0  0  0  0  0  0  0  0  0  0
   -3.2800   20.4970  -31.2620 C   0  0  0  0  0  0  0  0  0  0  0  0
   -4.2230   21.5270  -31.1880 C   0  0  0  0  0  0  0  0  0  0  0  0
   -3.5830   25.6540  -29.9750 H   0  0  0  0  0  0  0  0  0  0  0  0
   -2.1116   24.1699  -30.6847 H   0  0  0  0  0  0  0  0  0  0  0  0
   -0.4293   22.3328  -30.8112 H   0  0  0  0  0  0  0  0  0  0  0  0
   -1.3684   18.7154  -30.9918 H   0  0  0  0  0  0  0  0  0  0  0  0
   -0.4820   19.6634  -32.2424 H   0  0  0  0  0  0  0  0  0  0  0  0
    1.8892   19.9562  -27.6317 H   0  0  0  0  0  0  0  0  0  0  0  0
    1.6385   22.1812  -26.9052 H   0  0  0  0  0  0  0  0  0  0  0  0
   -1.6514   21.0622  -26.5485 H   0  0  0  0  0  0  0  0  0  0  0  0
   -3.7629   22.3637  -26.8019 H   0  0  0  0  0  0  0  0  0  0  0  0
   -4.2480   25.2020  -28.8750 H   0  0  0  0  0  0  0  0  0  0  0  0
    0.4918   24.1182  -28.7456 H   0  0  0  0  0  0  0  0  0  0  0  0
   -3.6115   19.4622  -31.4330 H   0  0  0  0  0  0  0  0  0  0  0  0
   -5.2934   21.2993  -31.2997 H   0  0  0  0  0  0  0  0  0  0  0  0
  1  2  1  0
  2  3  2  0
  2  4  2  0
  2  5  1  0
  5  6  2  0
  6  7  1  0
  7  8  2  0
  8  9  1  0
  9 10  1  0
 10 11  1  0
 11 12  2  0
 11 13  1  0
 13 14  2  3
 14 15  1  0
 15 16  2  0
 16 17  1  0
 17 18  2  0
 18 19  1  0
 18 20  1  0
 20 21  1  0
 20 22  2  0
  8 23  1  0
 23 24  2  0
 24  5  1  0
 22 15  1  0
  1 25  1  0
  6 26  1  0
  7 27  1  0
  9 28  1  0
  9 29  1  0
 13 30  1  0
 14 31  1  0
 16 32  1  0
 17 33  1  0
 19 34  1  0
 22 35  1  0
 23 36  1  0
 24 37  1  0
M  CHG  3   1  -1  10  -1  21  -1
M  END
>  <UniqueID>  (24) 
24

>  <SMILES>  (24) 
[NH-]S(=O)(=O)c1ccc(C[N-]C(=O)C=Cc2ccc(O)c([O-])c2)cc1

>  <Energy>  (24) 
42.27776803631536

>  <Genealogy>  (24) 
[NH-]S(=O)(=O)c1ccc(C[N-]C(=O)C=Cc2ccc(O)c([O-])c2)cc1 (protonated)
[NH-]S(=O)(=O)c1ccc(C[N-]C(=O)C=Cc2ccc(O)c([O-])c2)cc1 (3D coordinates assigned)
[NH-]S(=O)(=O)c1ccc(C[N-]C(=O)C=Cc2ccc(O)c([O-])c2)cc1 (optimized conformer: 42.27776803631536 kcal/mol)

>  <smiles>  (24) 
NS(=O)(=O)c1ccc(CNC(=O)C=Cc2ccc(O)c(O)c2)cc1

>  <score_type>  (24) 
oracle

>  <origin>  (24) 
adgpu

>  <m_score__min__energy>  (24) 
-11.48

>  <m_primary>  (24) 
energy

$$$$
24:0
     RDKit          3D

 43 45  0  0  0  0  0  0  0  0999 V2000
   -4.2380   25.6650  -30.6970 O   0  0  0  0  0  0  0  0  0  0  0  0
   -3.9130   24.4660  -30.4790 C   0  0  0  0  0  0  0  0  0  0  0  0
   -2.7560   24.1780  -29.6820 N   0  0  0  0  0  0  0  0  0  0  0  0
   -2.4630   24.7170  -28.3850 C   0  0  0  0  0  0  0  0  0  0  0  0
   -1.3100   25.4970  -28.2250 C   0  0  0  0  0  0  0  0  0  0  0  0
   -1.0050   26.0610  -26.9830 C   0  0  0  0  0  0  0  0  0  0  0  0
   -1.8590   25.8630  -25.8940 C   0  0  0  0  0  0  0  0  0  0  0  0
   -1.5630   26.4120  -24.6910 F   0  0  0  0  0  0  0  0  0  0  0  0
   -3.0250   25.1070  -26.0510 C   0  0  0  0  0  0  0  0  0  0  0  0
   -3.3330   24.5410  -27.2930 C   0  0  0  0  0  0  0  0  0  0  0  0
   -4.7330   23.3900  -30.9880 N   0  0  0  0  0  0  0  0  0  0  0  0
   -5.9060   23.6820  -31.8310 C   0  0  0  0  0  0  0  0  0  0  0  0
   -6.8830   22.5320  -31.8100 C   0  0  0  0  0  0  0  0  0  0  0  0
   -6.7130   21.4390  -32.6770 C   0  0  0  0  0  0  0  0  0  0  0  0
   -7.5890   20.3510  -32.6200 C   0  0  0  0  0  0  0  0  0  0  0  0
   -8.6470   20.3500  -31.7060 C   0  0  0  0  0  0  0  0  0  0  0  0
   -8.8330   21.4400  -30.8520 C   0  0  0  0  0  0  0  0  0  0  0  0
   -7.9580   22.5300  -30.9040 C   0  0  0  0  0  0  0  0  0  0  0  0
   -4.3560   21.9850  -30.7560 C   0  0  0  0  0  0  0  0  0  0  0  0
   -3.1920   21.5870  -31.6290 C   0  0  0  0  0  0  0  0  0  0  0  0
   -3.3990   21.2200  -32.9700 C   0  0  0  0  0  0  0  0  0  0  0  0
   -2.3260   20.8020  -33.7610 C   0  0  0  0  0  0  0  0  0  0  0  0
   -1.0370   20.7570  -33.2260 C   0  0  0  0  0  0  0  0  0  0  0  0
   -0.8180   21.1350  -31.8980 C   0  0  0  0  0  0  0  0  0  0  0  0
   -1.8890   21.5510  -31.1030 C   0  0  0  0  0  0  0  0  0  0  0  0
   -0.6411   25.6664  -29.0817 H   0  0  0  0  0  0  0  0  0  0  0  0
   -0.0914   26.6617  -26.8622 H   0  0  0  0  0  0  0  0  0  0  0  0
   -3.7013   24.9570  -25.1965 H   0  0  0  0  0  0  0  0  0  0  0  0
   -4.2571   23.9572  -27.4161 H   0  0  0  0  0  0  0  0  0  0  0  0
   -6.4055   24.5861  -31.4526 H   0  0  0  0  0  0  0  0  0  0  0  0
   -5.5660   23.8359  -32.8658 H   0  0  0  0  0  0  0  0  0  0  0  0
   -5.8871   21.4396  -33.4036 H   0  0  0  0  0  0  0  0  0  0  0  0
   -7.4457   19.4945  -33.2952 H   0  0  0  0  0  0  0  0  0  0  0  0
   -9.3328   19.4912  -31.6593 H   0  0  0  0  0  0  0  0  0  0  0  0
   -9.6692   21.4410  -30.1373 H   0  0  0  0  0  0  0  0  0  0  0  0
   -8.1115   23.3886  -30.2337 H   0  0  0  0  0  0  0  0  0  0  0  0
   -4.0741   21.8577  -29.7004 H   0  0  0  0  0  0  0  0  0  0  0  0
   -5.2157   21.3455  -31.0048 H   0  0  0  0  0  0  0  0  0  0  0  0
   -4.4111   21.2621  -33.3988 H   0  0  0  0  0  0  0  0  0  0  0  0
   -2.4969   20.5078  -34.8071 H   0  0  0  0  0  0  0  0  0  0  0  0
   -0.1940   20.4242  -33.8494 H   0  0  0  0  0  0  0  0  0  0  0  0
    0.1985   21.1049  -31.4786 H   0  0  0  0  0  0  0  0  0  0  0  0
   -1.7116   21.8519  -30.0599 H   0  0  0  0  0  0  0  0  0  0  0  0
  1  2  2  0
  2  3  1  0
  3  4  1  0
  4  5  2  0
  5  6  1  0
  6  7  2  0
  7  8  1  0
  7  9  1  0
  9 10  2  0
  2 11  1  0
 11 12  1  0
 12 13  1  0
 13 14  2  0
 14 15  1  0
 15 16  2  0
 16 17  1  0
 17 18  2  0
 11 19  1  0
 19 20  1  0
 20 21  2  0
 21 22  1  0
 22 23  2  0
 23 24  1  0
 24 25  2  0
 10  4  1  0
 18 13  1  0
 25 20  1  0
  5 26  1  0
  6 27  1  0
  9 28  1  0
 10 29  1  0
 12 30  1  0
 12 31  1  0
 14 32  1  0
 15 33  1  0
 16 34  1  0
 17 35  1  0
 18 36  1  0
 19 37  1  0
 19 38  1  0
 21 39  1  0
 22 40  1  0
 23 41  1  0
 24 42  1  0
 25 43  1  0
M  CHG  1   3  -1
M  END
>  <UniqueID>  (25) 
25

>  <SMILES>  (25) 
O=C([N-]c1ccc(F)cc1)N(Cc1ccccc1)Cc1ccccc1

>  <Energy>  (25) 
45.07344139019445

>  <Genealogy>  (25) 
O=C([N-]c1ccc(F)cc1)N(Cc1ccccc1)Cc1ccccc1 (protonated)
O=C([N-]c1ccc(F)cc1)N(Cc1ccccc1)Cc1ccccc1 (3D coordinates assigned)
O=C([N-]c1ccc(F)cc1)N(Cc1ccccc1)Cc1ccccc1 (optimized conformer: 45.07344139019445 kcal/mol)

>  <smiles>  (25) 
O=C(Nc1ccc(F)cc1)N(Cc1ccccc1)Cc1ccccc1

>  <score_type>  (25) 
oracle

>  <origin>  (25) 
adgpu

>  <m_score__min__energy>  (25) 
-9.3000000000000007

>  <m_primary>  (25) 
energy

$$$$
25:0
     RDKit          3D

 47 49  0  0  0  0  0  0  0  0999 V2000
   -1.6340   20.8370  -26.9450 C   0  0  0  0  0  0  0  0  0  0  0  0
   -1.9390   22.1330  -27.6370 C   0  0  0  0  0  0  0  0  0  0  0  0
   -1.0720   23.2270  -27.5010 C   0  0  0  0  0  0  0  0  0  0  0  0
   -1.3380   24.4210  -28.1720 C   0  0  0  0  0  0  0  0  0  0  0  0
   -2.4600   24.5300  -28.9970 C   0  0  0  0  0  0  0  0  0  0  0  0
   -3.3280   23.4360  -29.1680 C   0  0  0  0  0  0  0  0  0  0  0  0
   -4.5200   23.5400  -30.0440 C   0  0  0  0  0  0  0  0  0  0  0  0
   -4.4250   24.1330  -31.1540 O   0  0  0  0  0  0  0  0  0  0  0  0
   -5.7920   23.0190  -29.6230 N   0  0  0  0  0  0  0  0  0  0  0  0
   -6.8700   22.7160  -30.5260 C   0  0  0  0  0  0  0  0  0  0  0  0
   -7.6260   23.7360  -31.1310 C   0  0  0  0  0  0  0  0  0  0  0  0
   -8.6580   23.4160  -32.0180 C   0  0  0  0  0  0  0  0  0  0  0  0
   -8.9350   22.0810  -32.3220 C   0  0  0  0  0  0  0  0  0  0  0  0
   -8.1700   21.0570  -31.7490 C   0  0  0  0  0  0  0  0  0  0  0  0
   -8.5360   19.3750  -32.1260 S   0  0  0  0  0  0  0  0  0  0  0  0
   -8.7380   18.6240  -30.8390 O   0  0  0  0  0  0  0  0  0  0  0  0
   -9.8050   19.2960  -32.9310 O   0  0  0  0  0  0  0  0  0  0  0  0
   -7.2150   18.6620  -33.0210 N   0  0  0  0  0  0  0  0  0  0  0  0
   -6.3700   17.8550  -32.1120 C   0  0  0  0  0  0  0  0  0  0  0  0
   -4.9860   17.5940  -32.7160 C   0  0  0  0  0  0  0  0  0  0  0  0
   -4.2240   18.9110  -32.9420 C   0  0  0  0  0  0  0  0  0  0  0  0
   -5.1620   20.1160  -33.1320 C   0  0  0  0  0  0  0  0  0  0  0  0
   -6.4800   19.6930  -33.7960 C   0  0  0  0  0  0  0  0  0  0  0  0
   -7.1390   21.3790  -30.8540 C   0  0  0  0  0  0  0  0  0  0  0  0
   -3.0560   22.2380  -28.4800 C   0  0  0  0  0  0  0  0  0  0  0  0
   -1.6690   20.9859  -25.8557 H   0  0  0  0  0  0  0  0  0  0  0  0
   -2.3789   20.0818  -27.2360 H   0  0  0  0  0  0  0  0  0  0  0  0
   -0.6304   20.4933  -27.2360 H   0  0  0  0  0  0  0  0  0  0  0  0
   -0.1796   23.1434  -26.8634 H   0  0  0  0  0  0  0  0  0  0  0  0
   -0.6615   25.2799  -28.0509 H   0  0  0  0  0  0  0  0  0  0  0  0
   -2.6663   25.4775  -29.5164 H   0  0  0  0  0  0  0  0  0  0  0  0
   -5.9870   22.9670  -28.5970 H   0  0  0  0  0  0  0  0  0  0  0  0
   -7.4044   24.7896  -30.9054 H   0  0  0  0  0  0  0  0  0  0  0  0
   -9.2539   24.2180  -32.4781 H   0  0  0  0  0  0  0  0  0  0  0  0
   -9.7549   21.8336  -33.0123 H   0  0  0  0  0  0  0  0  0  0  0  0
   -6.2492   18.3960  -31.1619 H   0  0  0  0  0  0  0  0  0  0  0  0
   -6.8645   16.8858  -31.9505 H   0  0  0  0  0  0  0  0  0  0  0  0
   -4.4083   16.9578  -32.0293 H   0  0  0  0  0  0  0  0  0  0  0  0
   -5.1168   17.0945  -33.6873 H   0  0  0  0  0  0  0  0  0  0  0  0
   -3.5813   19.0997  -32.0694 H   0  0  0  0  0  0  0  0  0  0  0  0
   -3.6357   18.7998  -33.8648 H   0  0  0  0  0  0  0  0  0  0  0  0
   -5.3811   20.5589  -32.1492 H   0  0  0  0  0  0  0  0  0  0  0  0
   -4.6622   20.8477  -33.7838 H   0  0  0  0  0  0  0  0  0  0  0  0
   -7.1224   20.5802  -33.8965 H   0  0  0  0  0  0  0  0  0  0  0  0
   -6.2302   19.2542  -34.7733 H   0  0  0  0  0  0  0  0  0  0  0  0
   -6.5360   20.5758  -30.4053 H   0  0  0  0  0  0  0  0  0  0  0  0
   -3.7264   21.3749  -28.6047 H   0  0  0  0  0  0  0  0  0  0  0  0
  1  2  1  0
  2  3  2  0
  3  4  1  0
  4  5  2  0
  5  6  1  0
  6  7  1  0
  7  8  2  0
  7  9  1  0
  9 10  1  0
 10 11  2  0
 11 12  1  0
 12 13  2  0
 13 14  1  0
 14 15  1  0
 15 16  2  0
 15 17  2  0
 15 18  1  0
 18 19  1  0
 19 20  1  0
 20 21  1  0
 21 22  1  0
 22 23  1  0
 14 24  2  0
  6 25  2  0
 25  2  1  0
 24 10  1  0
 23 18  1  0
  1 26  1  0
  1 27  1  0
  1 28  1  0
  3 29  1  0
  4 30  1  0
  5 31  1  0
  9 32  1  0
 11 33  1  0
 12 34  1  0
 13 35  1  0
 19 36  1  0
 19 37  1  0
 20 38  1  0
 20 39  1  0
 21 40  1  0
 21 41  1  0
 22 42  1  0
 22 43  1  0
 23 44  1  0
 23 45  1  0
 24 46  1  0
 25 47  1  0
M  END
>  <UniqueID>  (26) 
26

>  <SMILES>  (26) 
Cc1cccc(C(=O)Nc2cccc(S(=O)(=O)N3CCCCC3)c2)c1

>  <Energy>  (26) 
57.91518878201865

>  <Genealogy>  (26) 
Cc1cccc(C(=O)Nc2cccc(S(=O)(=O)N3CCCCC3)c2)c1 (3D coordinates assigned)
Cc1cccc(C(=O)Nc2cccc(S(=O)(=O)N3CCCCC3)c2)c1 (nonaromatic ring conformer: 57.91518878201865 kcal/mol)

>  <smiles>  (26) 
Cc1cccc(C(=O)Nc2cccc(S(=O)(=O)N3CCCCC3)c2)c1

>  <score_type>  (26) 
oracle

>  <origin>  (26) 
adgpu

>  <m_score__min__energy>  (26) 
-9.7200000000000006

>  <m_primary>  (26) 
energy

$$$$
26:0
     RDKit          3D

 30 31  0  0  0  0  0  0  0  0999 V2000
   -2.3460   19.7020  -26.7150 C   0  0  0  0  0  0  0  0  0  0  0  0
   -3.0850   20.4870  -27.6460 O   0  0  0  0  0  0  0  0  0  0  0  0
   -2.7240   21.7800  -28.0540 C   0  0  0  0  0  0  0  0  0  0  0  0
   -1.4840   22.3560  -27.7260 C   0  0  0  0  0  0  0  0  0  0  0  0
   -1.1700   23.6450  -28.1600 C   0  0  0  0  0  0  0  0  0  0  0  0
   -2.0870   24.3780  -28.9200 C   0  0  0  0  0  0  0  0  0  0  0  0
   -1.7520   25.6670  -29.3240 O   0  0  0  0  0  0  0  0  0  0  0  0
   -3.3370   23.8180  -29.2510 C   0  0  0  0  0  0  0  0  0  0  0  0
   -4.3230   24.5760  -30.0620 C   0  0  0  0  0  0  0  0  0  0  0  0
   -3.9190   25.4640  -30.8570 O   0  0  0  0  0  0  0  0  0  0  0  0
   -5.7260   24.2800  -30.0200 N   0  0  0  0  0  0  0  0  0  0  0  0
   -6.3780   23.1630  -30.6460 C   0  0  0  0  0  0  0  0  0  0  0  0
   -7.6140   22.6840  -30.1700 C   0  0  0  0  0  0  0  0  0  0  0  0
   -8.2420   21.6060  -30.8000 C   0  0  0  0  0  0  0  0  0  0  0  0
   -7.6550   21.0090  -31.9160 C   0  0  0  0  0  0  0  0  0  0  0  0
   -6.4410   21.4930  -32.4110 C   0  0  0  0  0  0  0  0  0  0  0  0
   -5.8010   22.5700  -31.7860 C   0  0  0  0  0  0  0  0  0  0  0  0
   -4.5920   23.0280  -32.3090 O   0  0  0  0  0  0  0  0  0  0  0  0
   -3.6380   22.5140  -28.8180 C   0  0  0  0  0  0  0  0  0  0  0  0
   -2.6204   19.9935  -25.6904 H   0  0  0  0  0  0  0  0  0  0  0  0
   -2.5774   18.6375  -26.8678 H   0  0  0  0  0  0  0  0  0  0  0  0
   -1.2695   19.8688  -26.8678 H   0  0  0  0  0  0  0  0  0  0  0  0
   -0.7583   21.7885  -27.1249 H   0  0  0  0  0  0  0  0  0  0  0  0
   -0.1959   24.0867  -27.9028 H   0  0  0  0  0  0  0  0  0  0  0  0
   -8.0871   23.1604  -29.2987 H   0  0  0  0  0  0  0  0  0  0  0  0
   -9.2006   21.2277  -30.4153 H   0  0  0  0  0  0  0  0  0  0  0  0
   -8.1480   20.1568  -32.4066 H   0  0  0  0  0  0  0  0  0  0  0  0
   -5.9858   21.0252  -33.2965 H   0  0  0  0  0  0  0  0  0  0  0  0
   -4.1360   23.8660  -31.9660 H   0  0  0  0  0  0  0  0  0  0  0  0
   -4.6062   22.0646  -29.0839 H   0  0  0  0  0  0  0  0  0  0  0  0
  1  2  1  0
  2  3  1  0
  3  4  2  0
  4  5  1  0
  5  6  2  0
  6  7  1  0
  6  8  1  0
  8  9  1  0
  9 10  2  0
  9 11  1  0
 11 12  1  0
 12 13  2  0
 13 14  1  0
 14 15  2  0
 15 16  1  0
 16 17  2  0
 17 18  1  0
  8 19  2  0
 19  3  1  0
 17 12  1  0
  1 20  1  0
  1 21  1  0
  1 22  1  0
  4 23  1  0
  5 24  1  0
 13 25  1  0
 14 26  1  0
 15 27  1  0
 16 28  1  0
 18 29  1  0
 19 30  1  0
M  CHG  2   7  -1  11  -1
M  END
>  <UniqueID>  (27) 
27

>  <SMILES>  (27) 
COc1ccc([O-])c(C(=O)[N-]c2ccccc2O)c1

>  <Energy>  (27) 
38.45765865459611

>  <Genealogy>  (27) 
COc1ccc([O-])c(C(=O)[N-]c2ccccc2O)c1 (protonated)
COc1ccc([O-])c(C(=O)[N-]c2ccccc2O)c1 (3D coordinates assigned)
COc1ccc([O-])c(C(=O)[N-]c2ccccc2O)c1 (optimized conformer: 38.45765865459611 kcal/mol)

>  <smiles>  (27) 
COc1ccc(O)c(C(=O)Nc2ccccc2O)c1

>  <score_type>  (27) 
oracle

>  <origin>  (27) 
adgpu

>  <m_score__min__energy>  (27) 
-10.300000000000001

>  <m_primary>  (27) 
energy

$$$$
27:0
     RDKit          3D

 27 29  0  0  0  0  0  0  0  0999 V2000
   -9.6170   20.6110  -32.7020 O   0  0  0  0  0  0  0  0  0  0  0  0
   -8.4860   21.2790  -32.2500 C   0  0  0  0  0  0  0  0  0  0  0  0
   -7.2270   20.6860  -32.3760 C   0  0  0  0  0  0  0  0  0  0  0  0
   -6.0860   21.3560  -31.9210 C   0  0  0  0  0  0  0  0  0  0  0  0
   -6.1970   22.6290  -31.3340 C   0  0  0  0  0  0  0  0  0  0  0  0
   -4.9940   23.3400  -30.8520 C   0  0  0  0  0  0  0  0  0  0  0  0
   -4.7540   24.6470  -31.0730 N   0  0  0  0  0  0  0  0  0  0  0  0
   -3.5970   24.9230  -30.4990 N   0  0  0  0  0  0  0  0  0  0  0  0
   -3.1550   23.7800  -29.9390 C   0  0  0  0  0  0  0  0  0  0  0  0
   -1.8820   23.6530  -29.1880 C   0  0  0  0  0  0  0  0  0  0  0  0
   -1.3620   22.3720  -28.9190 C   0  0  0  0  0  0  0  0  0  0  0  0
   -0.1650   22.2220  -28.2140 C   0  0  0  0  0  0  0  0  0  0  0  0
    0.5320   23.3470  -27.7680 C   0  0  0  0  0  0  0  0  0  0  0  0
    1.7220   23.1950  -27.0680 O   0  0  0  0  0  0  0  0  0  0  0  0
    0.0300   24.6240  -28.0270 C   0  0  0  0  0  0  0  0  0  0  0  0
   -1.1680   24.7860  -28.7310 C   0  0  0  0  0  0  0  0  0  0  0  0
   -1.6350   26.0740  -28.9690 O   0  0  0  0  0  0  0  0  0  0  0  0
   -4.0100   22.7560  -30.1390 N   0  0  0  0  0  0  0  0  0  0  0  0
   -7.4690   23.2180  -31.2110 C   0  0  0  0  0  0  0  0  0  0  0  0
   -8.6070   22.5440  -31.6680 C   0  0  0  0  0  0  0  0  0  0  0  0
   -7.1327   19.6903  -32.8339 H   0  0  0  0  0  0  0  0  0  0  0  0
   -5.0974   20.8846  -32.0230 H   0  0  0  0  0  0  0  0  0  0  0  0
   -1.9038   21.4804  -29.2675 H   0  0  0  0  0  0  0  0  0  0  0  0
    0.2292   21.2156  -28.0098 H   0  0  0  0  0  0  0  0  0  0  0  0
    0.5805   25.5089  -27.6750 H   0  0  0  0  0  0  0  0  0  0  0  0
   -7.5693   24.2132  -30.7533 H   0  0  0  0  0  0  0  0  0  0  0  0
   -9.5983   23.0104  -31.5691 H   0  0  0  0  0  0  0  0  0  0  0  0
  1  2  1  0
  2  3  2  0
  3  4  1  0
  4  5  2  0
  5  6  1  0
  6  7  2  0
  7  8  1  0
  8  9  1  0
  9 10  1  0
 10 11  2  0
 11 12  1  0
 12 13  2  0
 13 14  1  0
 13 15  1  0
 15 16  2  0
 16 17  1  0
  9 18  2  0
  5 19  1  0
 19 20  2  0
 20  2  1  0
 18  6  1  0
 16 10  1  0
  3 21  1  0
  4 22  1  0
 11 23  1  0
 12 24  1  0
 15 25  1  0
 19 26  1  0
 20 27  1  0
M  CHG  4   1  -1   8  -1  14  -1  17  -1
M  END
>  <UniqueID>  (28) 
28

>  <SMILES>  (28) 
[O-]c1ccc(-c2n[n-]c(-c3ccc([O-])cc3[O-])n2)cc1

>  <Energy>  (28) 
64.79672414292543

>  <Genealogy>  (28) 
[O-]c1ccc(-c2n[n-]c(-c3ccc([O-])cc3[O-])n2)cc1 (protonated)
[O-]c1ccc(-c2n[n-]c(-c3ccc([O-])cc3[O-])n2)cc1 (3D coordinates assigned)
[O-]c1ccc(-c2n[n-]c(-c3ccc([O-])cc3[O-])n2)cc1 (optimized conformer: 64.79672414292543 kcal/mol)

>  <smiles>  (28) 
Oc1ccc(-c2n[nH]c(-c3ccc(O)cc3O)n2)cc1

>  <score_type>  (28) 
oracle

>  <origin>  (28) 
adgpu

>  <m_score__min__energy>  (28) 
-11.699999999999999

>  <m_primary>  (28) 
energy

$$$$
28:0
     RDKit          3D

 61 64  0  0  0  0  0  0  0  0999 V2000
   -0.0500   26.9990  -23.5310 C   0  0  0  0  0  0  0  0  0  0  0  0
   -1.0760   26.1180  -24.1050 N   0  0  0  0  0  0  0  0  0  0  0  0
   -1.6290   26.7130  -25.3410 C   0  0  0  0  0  0  0  0  0  0  0  0
   -2.3620   25.6580  -26.1800 C   0  0  0  0  0  0  0  0  0  0  0  0
   -1.4790   24.5340  -26.5890 N   0  0  0  0  0  0  0  0  0  0  0  0
   -1.0250   24.6760  -28.2690 S   0  0  0  0  0  0  0  0  0  0  0  0
   -1.3280   26.0680  -28.7600 O   0  0  0  0  0  0  0  0  0  0  0  0
    0.4500   24.4230  -28.4230 O   0  0  0  0  0  0  0  0  0  0  0  0
   -1.9040   23.4890  -29.2320 C   0  0  0  0  0  0  0  0  0  0  0  0
   -1.5680   22.1330  -29.1510 C   0  0  0  0  0  0  0  0  0  0  0  0
   -2.2460   21.1940  -29.9350 C   0  0  0  0  0  0  0  0  0  0  0  0
   -3.2680   21.6040  -30.7980 C   0  0  0  0  0  0  0  0  0  0  0  0
   -3.6350   22.9520  -30.8620 C   0  0  0  0  0  0  0  0  0  0  0  0
   -4.6970   23.3580  -31.7380 N   0  0  0  0  0  0  0  0  0  0  0  0
   -6.0450   23.5990  -31.3090 C   0  0  0  0  0  0  0  0  0  0  0  0
   -6.3110   24.6570  -30.6790 O   0  0  0  0  0  0  0  0  0  0  0  0
   -7.1230   22.6410  -31.6220 C   0  0  0  0  0  0  0  0  0  0  0  0
   -8.4510   23.0760  -31.7570 C   0  0  0  0  0  0  0  0  0  0  0  0
   -9.4750   22.1470  -31.9630 C   0  0  0  0  0  0  0  0  0  0  0  0
   -9.1810   20.7830  -32.0510 C   0  0  0  0  0  0  0  0  0  0  0  0
   -7.8530   20.3400  -31.9480 C   0  0  0  0  0  0  0  0  0  0  0  0
   -7.4700   18.6230  -32.0700 S   0  0  0  0  0  0  0  0  0  0  0  0
   -6.4240   18.2920  -31.0390 O   0  0  0  0  0  0  0  0  0  0  0  0
   -8.7030   17.8170  -31.7690 O   0  0  0  0  0  0  0  0  0  0  0  0
   -6.8710   18.2770  -33.6780 N   0  0  0  0  0  0  0  0  0  0  0  0
   -6.0370   19.3740  -34.2030 C   0  0  0  0  0  0  0  0  0  0  0  0
   -4.6480   19.4230  -33.5220 C   0  0  0  0  0  0  0  0  0  0  0  0
   -4.3090   18.2220  -32.8440 O   0  0  0  0  0  0  0  0  0  0  0  0
   -4.6530   17.0990  -33.6360 C   0  0  0  0  0  0  0  0  0  0  0  0
   -6.1820   16.9700  -33.7450 C   0  0  0  0  0  0  0  0  0  0  0  0
   -6.8290   21.2720  -31.7380 C   0  0  0  0  0  0  0  0  0  0  0  0
   -2.9390   23.8940  -30.0840 C   0  0  0  0  0  0  0  0  0  0  0  0
   -0.2660   24.4080  -25.7570 C   0  0  0  0  0  0  0  0  0  0  0  0
   -0.5680   24.7350  -24.2860 C   0  0  0  0  0  0  0  0  0  0  0  0
   -0.1014   26.9549  -22.4331 H   0  0  0  0  0  0  0  0  0  0  0  0
    0.9449   26.6695  -23.8651 H   0  0  0  0  0  0  0  0  0  0  0  0
   -0.2253   28.0323  -23.8651 H   0  0  0  0  0  0  0  0  0  0  0  0
   -2.3354   27.5117  -25.0707 H   0  0  0  0  0  0  0  0  0  0  0  0
   -0.7978   27.1183  -25.9367 H   0  0  0  0  0  0  0  0  0  0  0  0
   -3.1948   25.2530  -25.5864 H   0  0  0  0  0  0  0  0  0  0  0  0
   -2.7174   26.1513  -27.0967 H   0  0  0  0  0  0  0  0  0  0  0  0
   -0.7692   21.8050  -28.4695 H   0  0  0  0  0  0  0  0  0  0  0  0
   -1.9749   20.1298  -29.8729 H   0  0  0  0  0  0  0  0  0  0  0  0
   -3.7841   20.8643  -31.4277 H   0  0  0  0  0  0  0  0  0  0  0  0
   -8.6860   24.1491  -31.7006 H   0  0  0  0  0  0  0  0  0  0  0  0
  -10.5159   22.4904  -32.0562 H   0  0  0  0  0  0  0  0  0  0  0  0
   -9.9921   20.0554  -32.2013 H   0  0  0  0  0  0  0  0  0  0  0  0
   -5.8975   19.2279  -35.2843 H   0  0  0  0  0  0  0  0  0  0  0  0
   -6.5521   20.3230  -33.9930 H   0  0  0  0  0  0  0  0  0  0  0  0
   -3.8879   19.6140  -34.2939 H   0  0  0  0  0  0  0  0  0  0  0  0
   -4.6846   20.2224  -32.7673 H   0  0  0  0  0  0  0  0  0  0  0  0
   -4.2265   17.2207  -34.6426 H   0  0  0  0  0  0  0  0  0  0  0  0
   -4.2504   16.1911  -33.1631 H   0  0  0  0  0  0  0  0  0  0  0  0
   -6.4273   16.4916  -34.7046 H   0  0  0  0  0  0  0  0  0  0  0  0
   -6.5265   16.3685  -32.8909 H   0  0  0  0  0  0  0  0  0  0  0  0
   -5.7863   20.9295  -31.6633 H   0  0  0  0  0  0  0  0  0  0  0  0
   -3.2099   24.9584  -30.1451 H   0  0  0  0  0  0  0  0  0  0  0  0
    0.1114   23.3771  -25.8258 H   0  0  0  0  0  0  0  0  0  0  0  0
    0.4865   25.1204  -26.1260 H   0  0  0  0  0  0  0  0  0  0  0  0
   -1.3262   24.0292  -23.9160 H   0  0  0  0  0  0  0  0  0  0  0  0
    0.3734   24.6479  -23.7236 H   0  0  0  0  0  0  0  0  0  0  0  0
  1  2  1  0
  2  3  1  0
  3  4  1  0
  4  5  1  0
  5  6  1  0
  6  7  2  0
  6  8  2  0
  6  9  1  0
  9 10  2  0
 10 11  1  0
 11 12  2  0
 12 13  1  0
 13 14  1  0
 14 15  1  0
 15 16  2  0
 15 17  1  0
 17 18  2  0
 18 19  1  0
 19 20  2  0
 20 21  1  0
 21 22  1  0
 22 23  2  0
 22 24  2  0
 22 25  1  0
 25 26  1  0
 26 27  1  0
 27 28  1  0
 28 29  1  0
 29 30  1  0
 21 31  2  0
 13 32  2  0
  5 33  1  0
 33 34  1  0
 34  2  1  0
 32  9  1  0
 31 17  1  0
 30 25  1  0
  1 35  1  0
  1 36  1  0
  1 37  1  0
  3 38  1  0
  3 39  1  0
  4 40  1  0
  4 41  1  0
 10 42  1  0
 11 43  1  0
 12 44  1  0
 18 45  1  0
 19 46  1  0
 20 47  1  0
 26 48  1  0
 26 49  1  0
 27 50  1  0
 27 51  1  0
 29 52  1  0
 29 53  1  0
 30 54  1  0
 30 55  1  0
 31 56  1  0
 32 57  1  0
 33 58  1  0
 33 59  1  0
 34 60  1  0
 34 61  1  0
M  CHG  1  14  -1
M  END
>  <UniqueID>  (29) 
29

>  <SMILES>  (29) 
CN1CCN(S(=O)(=O)c2cccc([N-]C(=O)c3cccc(S(=O)(=O)N4CCOCC4)c3)c2)CC1

>  <Energy>  (29) 
85.00560625985406

>  <Genealogy>  (29) 
CN1CCN(S(=O)(=O)c2cccc([N-]C(=O)c3cccc(S(=O)(=O)N4CCOCC4)c3)c2)CC1 (protonated)
CN1CCN(S(=O)(=O)c2cccc([N-]C(=O)c3cccc(S(=O)(=O)N4CCOCC4)c3)c2)CC1 (3D coordinates assigned)
CN1CCN(S(=O)(=O)c2cccc([N-]C(=O)c3cccc(S(=O)(=O)N4CCOCC4)c3)c2)CC1 (nonaromatic ring conformer: 85.00560625985406 kcal/mol)

>  <smiles>  (29) 
CN1CCN(S(=O)(=O)c2cccc(NC(=O)c3cccc(S(=O)(=O)N4CCOCC4)c3)c2)CC1

>  <score_type>  (29) 
oracle

>  <origin>  (29) 
adgpu

>  <m_score__min__energy>  (29) 
-12.73

>  <m_primary>  (29) 
energy

$$$$
29:0
     RDKit          3D

 49 52  0  0  0  0  0  0  0  0999 V2000
   -5.3195   24.4138  -31.2129 H   0  0  0  0  0  0  0  0  0  0  0  0
   -4.4240   23.7750  -31.2170 C   0  0  0  0  0  0  0  0  0  0  0  0
   -4.4060   22.6040  -31.9800 C   0  0  0  0  0  0  0  0  0  0  0  0
   -5.2953   22.3131  -32.5584 H   0  0  0  0  0  0  0  0  0  0  0  0
   -3.2530   21.7950  -32.0110 C   0  0  0  0  0  0  0  0  0  0  0  0
   -3.2000   20.5620  -32.7450 N   0  0  0  0  0  0  0  0  0  0  0  0
   -2.2540   20.1350  -33.5330 C   0  0  0  0  0  0  0  0  0  0  0  0
   -1.0900   20.8380  -33.6470 N   0  0  0  0  0  0  0  0  0  0  0  0
   -0.0520   20.3950  -34.3970 C   0  0  0  0  0  0  0  0  0  0  0  0
    1.1240   21.1450  -34.5000 C   0  0  0  0  0  0  0  0  0  0  0  0
    1.2037   22.1131  -33.9839 H   0  0  0  0  0  0  0  0  0  0  0  0
    2.2060   20.6650  -35.2620 C   0  0  0  0  0  0  0  0  0  0  0  0
    3.4540   21.4970  -35.4180 C   0  0  0  0  0  0  0  0  0  0  0  0
    3.8560   21.5280  -36.7420 F   0  0  0  0  0  0  0  0  0  0  0  0
    4.4660   20.9470  -34.6540 F   0  0  0  0  0  0  0  0  0  0  0  0
    3.2320   22.7980  -35.0030 F   0  0  0  0  0  0  0  0  0  0  0  0
    2.0710   19.4430  -35.9500 C   0  0  0  0  0  0  0  0  0  0  0  0
    2.8971   19.0752  -36.5763 H   0  0  0  0  0  0  0  0  0  0  0  0
    0.8950   18.6940  -35.8430 C   0  0  0  0  0  0  0  0  0  0  0  0
    0.8044   17.7332  -36.3709 H   0  0  0  0  0  0  0  0  0  0  0  0
   -0.1650   19.1670  -35.0650 C   0  0  0  0  0  0  0  0  0  0  0  0
   -1.3140   18.4540  -34.9550 N   0  0  0  0  0  0  0  0  0  0  0  0
   -2.3740   18.8930  -34.2220 C   0  0  0  0  0  0  0  0  0  0  0  0
   -3.4360   18.1320  -34.1820 N   0  0  0  0  0  0  0  0  0  0  0  0
   -4.7050   18.4090  -33.5760 C   0  0  0  0  0  0  0  0  0  0  0  0
   -5.5490   19.3680  -34.1420 C   0  0  0  0  0  0  0  0  0  0  0  0
   -5.2360   19.9058  -35.0491 H   0  0  0  0  0  0  0  0  0  0  0  0
   -6.7890   19.6470  -33.5610 C   0  0  0  0  0  0  0  0  0  0  0  0
   -7.4518   20.3916  -34.0260 H   0  0  0  0  0  0  0  0  0  0  0  0
   -7.2010   18.9850  -32.3850 C   0  0  0  0  0  0  0  0  0  0  0  0
   -8.4930   19.2650  -31.7860 N   0  0  0  0  0  0  0  0  0  0  0  0
   -8.8410   20.6290  -31.3710 C   0  0  0  0  0  0  0  0  0  0  0  0
   -8.8554   20.6856  -30.2726 H   0  0  0  0  0  0  0  0  0  0  0  0
   -8.0939   21.3339  -31.7647 H   0  0  0  0  0  0  0  0  0  0  0  0
   -9.8345   20.8898  -31.7647 H   0  0  0  0  0  0  0  0  0  0  0  0
   -9.4740   18.1910  -31.5900 C   0  0  0  0  0  0  0  0  0  0  0  0
   -9.6257   18.0250  -30.5132 H   0  0  0  0  0  0  0  0  0  0  0  0
  -10.4289   18.4773  -32.0549 H   0  0  0  0  0  0  0  0  0  0  0  0
   -9.1026   17.2658  -32.0549 H   0  0  0  0  0  0  0  0  0  0  0  0
   -6.3230   18.0450  -31.8050 C   0  0  0  0  0  0  0  0  0  0  0  0
   -6.6167   17.5249  -30.8813 H   0  0  0  0  0  0  0  0  0  0  0  0
   -5.0850   17.7670  -32.3900 C   0  0  0  0  0  0  0  0  0  0  0  0
   -4.4062   17.0415  -31.9178 H   0  0  0  0  0  0  0  0  0  0  0  0
   -2.1510   22.1490  -31.2210 C   0  0  0  0  0  0  0  0  0  0  0  0
   -1.2629   21.5002  -31.2015 H   0  0  0  0  0  0  0  0  0  0  0  0
   -2.1710   23.3190  -30.4580 C   0  0  0  0  0  0  0  0  0  0  0  0
   -1.2935   23.5978  -29.8561 H   0  0  0  0  0  0  0  0  0  0  0  0
   -3.3060   24.1360  -30.4590 C   0  0  0  0  0  0  0  0  0  0  0  0
   -3.3250   25.3000  -29.6990 O   0  0  0  0  0  0  0  0  0  0  0  0
  1  2  1  0
  2  3  2  0
  3  4  1  0
  3  5  1  0
  5  6  1  0
  6  7  2  0
  7  8  1  0
  8  9  1  0
  9 10  2  0
 10 11  1  0
 10 12  1  0
 12 13  1  0
 13 14  1  0
 13 15  1  0
 13 16  1  0
 12 17  2  0
 17 18  1  0
 17 19  1  0
 19 20  1  0
 19 21  2  0
 21 22  1  0
 22 23  1  0
 23 24  2  0
 24 25  1  0
 25 26  2  0
 26 27  1  0
 26 28  1  0
 28 29  1  0
 28 30  2  0
 30 31  1  0
 31 32  1  0
 32 33  1  0
 32 34  1  0
 32 35  1  0
 31 36  1  0
 36 37  1  0
 36 38  1  0
 36 39  1  0
 30 40  1  0
 40 41  1  0
 40 42  2  0
 42 43  1  0
  5 44  2  0
 44 45  1  0
 44 46  1  0
 46 47  1  0
 46 48  2  0
 48 49  1  0
 48  2  1  0
 23  7  1  0
 42 25  1  0
 21  9  1  0
M  CHG  3   8  -1  22  -1  49  -1
M  END
>  <UniqueID>  (30) 
30

>  <SMILES>  (30) 
CN(C)c1ccc(/N=c2/[n-]c3ccc(C(F)(F)F)cc3[n-]/c2=N\c2ccc([O-])cc2)cc1

>  <Energy>  (30) 
78.61558174859108

>  <Genealogy>  (30) 
CN(C)c1ccc(N=c2[n-]c3ccc(C(F)(F)F)cc3[n-]c2=Nc2ccc([O-])cc2)cc1 (protonated)
CN(C)c1ccc(/N=c2/[n-]c3ccc(C(F)(F)F)cc3[n-]/c2=N\c2ccc([O-])cc2)cc1 (cis-trans isomerization)
CN(C)c1ccc(/N=c2/[n-]c3ccc(C(F)(F)F)cc3[n-]/c2=N\c2ccc([O-])cc2)cc1 (3D coordinates assigned)
CN(C)c1ccc(/N=c2/[n-]c3ccc(C(F)(F)F)cc3[n-]/c2=N\c2ccc([O-])cc2)cc1 (optimized conformer: 78.61558174859108 kcal/mol)

>  <smiles>  (30) 
CN(C)c1ccc(N=c2[nH]c3ccc(C(F)(F)F)cc3[nH]c2=Nc2ccc(O)cc2)cc1

>  <score_type>  (30) 
oracle

>  <origin>  (30) 
adgpu

>  <m_score__min__energy>  (30) 
-9.9399999999999995

>  <m_primary>  (30) 
energy

$$$$
30:0
     RDKit          3D

 39 41  0  0  0  0  0  0  0  0999 V2000
   -5.8740   26.1030  -30.4740 O   0  0  0  0  0  0  0  0  0  0  0  0
   -5.1010   25.1320  -30.7000 C   0  0  0  0  0  0  0  0  0  0  0  0
   -3.6980   25.2590  -30.4330 N   0  0  0  0  0  0  0  0  0  0  0  0
   -2.9910   24.6140  -29.3660 C   0  0  0  0  0  0  0  0  0  0  0  0
   -3.5590   23.4770  -28.7770 C   0  0  0  0  0  0  0  0  0  0  0  0
   -2.9080   22.8210  -27.7280 C   0  0  0  0  0  0  0  0  0  0  0  0
   -1.6890   23.3080  -27.2480 C   0  0  0  0  0  0  0  0  0  0  0  0
   -1.1290   24.4600  -27.8060 C   0  0  0  0  0  0  0  0  0  0  0  0
   -1.7810   25.1260  -28.8530 C   0  0  0  0  0  0  0  0  0  0  0  0
   -1.2360   26.3070  -29.3440 O   0  0  0  0  0  0  0  0  0  0  0  0
   -5.6370   23.8810  -31.2860 C   0  0  0  0  0  0  0  0  0  0  0  0
   -4.7700   22.9320  -31.8610 C   0  0  0  0  0  0  0  0  0  0  0  0
   -5.2760   21.7530  -32.4160 C   0  0  0  0  0  0  0  0  0  0  0  0
   -6.6530   21.5010  -32.4020 C   0  0  0  0  0  0  0  0  0  0  0  0
   -7.2850   20.0190  -33.1110 S   0  0  0  0  0  0  0  0  0  0  0  0
   -8.7770   19.9750  -32.9340 O   0  0  0  0  0  0  0  0  0  0  0  0
   -6.9340   19.9970  -34.5730 O   0  0  0  0  0  0  0  0  0  0  0  0
   -6.5710   18.6580  -32.3050 N   0  0  0  0  0  0  0  0  0  0  0  0
   -5.7770   17.6060  -32.8750 C   0  0  0  0  0  0  0  0  0  0  0  0
   -5.3490   17.7690  -34.2010 C   0  0  0  0  0  0  0  0  0  0  0  0
   -4.5740   16.7910  -34.8290 C   0  0  0  0  0  0  0  0  0  0  0  0
   -4.2160   15.6340  -34.1380 C   0  0  0  0  0  0  0  0  0  0  0  0
   -4.6280   15.4560  -32.8150 C   0  0  0  0  0  0  0  0  0  0  0  0
   -5.4020   16.4320  -32.1760 C   0  0  0  0  0  0  0  0  0  0  0  0
   -5.7730   16.2140  -30.8560 O   0  0  0  0  0  0  0  0  0  0  0  0
   -7.5230   22.4440  -31.8400 C   0  0  0  0  0  0  0  0  0  0  0  0
   -7.0210   23.6240  -31.2850 C   0  0  0  0  0  0  0  0  0  0  0  0
   -4.5245   23.0974  -29.1426 H   0  0  0  0  0  0  0  0  0  0  0  0
   -3.3553   21.9213  -27.2803 H   0  0  0  0  0  0  0  0  0  0  0  0
   -1.1707   22.7845  -26.4312 H   0  0  0  0  0  0  0  0  0  0  0  0
   -0.1730   24.8457  -27.4223 H   0  0  0  0  0  0  0  0  0  0  0  0
   -3.6862   23.1199  -31.8735 H   0  0  0  0  0  0  0  0  0  0  0  0
   -4.5895   21.0204  -32.8655 H   0  0  0  0  0  0  0  0  0  0  0  0
   -5.6272   18.6787  -34.7534 H   0  0  0  0  0  0  0  0  0  0  0  0
   -4.2460   16.9337  -35.8692 H   0  0  0  0  0  0  0  0  0  0  0  0
   -3.6096   14.8620  -34.6342 H   0  0  0  0  0  0  0  0  0  0  0  0
   -4.3424   14.5431  -32.2719 H   0  0  0  0  0  0  0  0  0  0  0  0
   -8.6066   22.2547  -31.8355 H   0  0  0  0  0  0  0  0  0  0  0  0
   -7.7123   24.3574  -30.8441 H   0  0  0  0  0  0  0  0  0  0  0  0
  1  2  2  0
  2  3  1  0
  3  4  1  0
  4  5  2  0
  5  6  1  0
  6  7  2  0
  7  8  1  0
  8  9  2  0
  9 10  1  0
  2 11  1  0
 11 12  2  0
 12 13  1  0
 13 14  2  0
 14 15  1  0
 15 16  2  0
 15 17  2  0
 15 18  1  0
 18 19  1  0
 19 20  2  0
 20 21  1  0
 21 22  2  0
 22 23  1  0
 23 24  2  0
 24 25  1  0
 14 26  1  0
 26 27  2  0
  9  4  1  0
 27 11  1  0
 24 19  1  0
  5 28  1  0
  6 29  1  0
  7 30  1  0
  8 31  1  0
 12 32  1  0
 13 33  1  0
 20 34  1  0
 21 35  1  0
 22 36  1  0
 23 37  1  0
 26 38  1  0
 27 39  1  0
M  CHG  4   3  -1  10  -1  18  -1  25  -1
M  END
>  <UniqueID>  (31) 
31

>  <SMILES>  (31) 
O=C([N-]c1ccccc1[O-])c1ccc(S(=O)(=O)[N-]c2ccccc2[O-])cc1

>  <Energy>  (31) 
56.324141824159184

>  <Genealogy>  (31) 
O=C([N-]c1ccccc1[O-])c1ccc(S(=O)(=O)[N-]c2ccccc2[O-])cc1 (protonated)
O=C([N-]c1ccccc1[O-])c1ccc(S(=O)(=O)[N-]c2ccccc2[O-])cc1 (3D coordinates assigned)
O=C([N-]c1ccccc1[O-])c1ccc(S(=O)(=O)[N-]c2ccccc2[O-])cc1 (optimized conformer: 56.324141824159184 kcal/mol)

>  <smiles>  (31) 
O=C(Nc1ccccc1O)c1ccc(S(=O)(=O)Nc2ccccc2O)cc1

>  <score_type>  (31) 
oracle

>  <origin>  (31) 
adgpu

>  <m_score__min__energy>  (31) 
-14.380000000000001

>  <m_primary>  (31) 
energy

$$$$
31:0
     RDKit          3D

 31 33  0  0  0  0  0  0  0  0999 V2000
   -3.9700   25.3390  -30.9420 O   0  0  0  0  0  0  0  0  0  0  0  0
   -3.7160   24.9240  -29.7820 C   0  0  0  0  0  0  0  0  0  0  0  0
   -4.8420   24.4660  -28.8950 C   0  0  0  0  0  0  0  0  0  0  0  0
   -6.4350   25.1760  -29.4410 S   0  0  0  0  0  0  0  0  0  0  0  0
   -6.7080   23.9650  -30.7340 C   0  0  0  0  0  0  0  0  0  0  0  0
   -6.4690   24.1910  -32.0380 N   0  0  0  0  0  0  0  0  0  0  0  0
   -6.7900   23.0720  -32.6700 N   0  0  0  0  0  0  0  0  0  0  0  0
   -7.2110   22.2120  -31.7230 C   0  0  0  0  0  0  0  0  0  0  0  0
   -7.6680   20.8450  -31.9900 C   0  0  0  0  0  0  0  0  0  0  0  0
   -8.9170   20.3240  -31.6780 C   0  0  0  0  0  0  0  0  0  0  0  0
   -9.0620   18.9840  -32.0540 C   0  0  0  0  0  0  0  0  0  0  0  0
   -7.9320   18.4490  -32.6610 C   0  0  0  0  0  0  0  0  0  0  0  0
   -6.7510   19.6450  -32.7280 S   0  0  0  0  0  0  0  0  0  0  0  0
   -7.1620   22.7530  -30.5300 O   0  0  0  0  0  0  0  0  0  0  0  0
   -2.3540   24.9330  -29.3310 N   0  0  0  0  0  0  0  0  0  0  0  0
   -1.8790   25.4070  -28.0640 C   0  0  0  0  0  0  0  0  0  0  0  0
   -2.4710   24.9190  -26.8920 C   0  0  0  0  0  0  0  0  0  0  0  0
   -2.0520   25.3840  -25.6410 C   0  0  0  0  0  0  0  0  0  0  0  0
   -1.0500   26.3530  -25.5550 C   0  0  0  0  0  0  0  0  0  0  0  0
   -0.4720   26.8670  -26.7200 C   0  0  0  0  0  0  0  0  0  0  0  0
   -0.8900   26.4040  -27.9720 C   0  0  0  0  0  0  0  0  0  0  0  0
   -4.9057   23.3685  -28.9320 H   0  0  0  0  0  0  0  0  0  0  0  0
   -4.6401   24.8055  -27.8684 H   0  0  0  0  0  0  0  0  0  0  0  0
   -9.7108   20.9051  -31.1858 H   0  0  0  0  0  0  0  0  0  0  0  0
   -9.9838   18.4081  -31.8850 H   0  0  0  0  0  0  0  0  0  0  0  0
   -7.8277   17.4194  -33.0339 H   0  0  0  0  0  0  0  0  0  0  0  0
   -3.2701   24.1657  -26.9558 H   0  0  0  0  0  0  0  0  0  0  0  0
   -2.5120   24.9862  -24.7244 H   0  0  0  0  0  0  0  0  0  0  0  0
   -0.7153   26.7120  -24.5706 H   0  0  0  0  0  0  0  0  0  0  0  0
    0.3118   27.6358  -26.6518 H   0  0  0  0  0  0  0  0  0  0  0  0
   -0.4444   26.8204  -28.8874 H   0  0  0  0  0  0  0  0  0  0  0  0
  1  2  2  0
  2  3  1  0
  3  4  1  0
  4  5  1  0
  5  6  2  0
  6  7  1  0
  7  8  2  0
  8  9  1  0
  9 10  2  0
 10 11  1  0
 11 12  2  0
 12 13  1  0
  8 14  1  0
  2 15  1  0
 15 16  1  0
 16 17  2  0
 17 18  1  0
 18 19  2  0
 19 20  1  0
 20 21  2  0
 14  5  1  0
 21 16  1  0
 13  9  1  0
  3 22  1  0
  3 23  1  0
 10 24  1  0
 11 25  1  0
 12 26  1  0
 17 27  1  0
 18 28  1  0
 19 29  1  0
 20 30  1  0
 21 31  1  0
M  CHG  1  15  -1
M  END
>  <UniqueID>  (32) 
32

>  <SMILES>  (32) 
O=C(CSc1nnc(-c2cccs2)o1)[N-]c1ccccc1

>  <Energy>  (32) 
94.87382552105734

>  <Genealogy>  (32) 
O=C(CSc1nnc(-c2cccs2)o1)[N-]c1ccccc1 (protonated)
O=C(CSc1nnc(-c2cccs2)o1)[N-]c1ccccc1 (3D coordinates assigned)
O=C(CSc1nnc(-c2cccs2)o1)[N-]c1ccccc1 (optimized conformer: 94.87382552105734 kcal/mol)

>  <smiles>  (32) 
O=C(CSc1nnc(-c2cccs2)o1)Nc1ccccc1

>  <score_type>  (32) 
oracle

>  <origin>  (32) 
adgpu

>  <m_score__min__energy>  (32) 
-9.6899999999999995

>  <m_primary>  (32) 
energy

$$$$
32:0
     RDKit          3D

 31 33  0  0  0  0  0  0  0  0999 V2000
   -9.2840   19.9840  -32.6620 C   0  0  0  0  0  0  0  0  0  0  0  0
   -8.2240   20.9200  -32.1610 C   0  0  0  0  0  0  0  0  0  0  0  0
   -8.5040   21.8090  -31.1140 C   0  0  0  0  0  0  0  0  0  0  0  0
   -7.5080   22.6570  -30.6210 C   0  0  0  0  0  0  0  0  0  0  0  0
   -6.2100   22.6190  -31.1610 C   0  0  0  0  0  0  0  0  0  0  0  0
   -5.1550   23.5150  -30.6410 C   0  0  0  0  0  0  0  0  0  0  0  0
   -4.8140   24.6870  -31.2130 N   0  0  0  0  0  0  0  0  0  0  0  0
   -3.8650   25.1610  -30.4670 O   0  0  0  0  0  0  0  0  0  0  0  0
   -3.6210   24.3330  -29.4800 C   0  0  0  0  0  0  0  0  0  0  0  0
   -2.5990   24.5580  -28.4390 C   0  0  0  0  0  0  0  0  0  0  0  0
   -2.9740   24.7380  -27.0950 C   0  0  0  0  0  0  0  0  0  0  0  0
   -2.0010   24.9500  -26.1150 C   0  0  0  0  0  0  0  0  0  0  0  0
   -0.6490   24.9850  -26.4630 C   0  0  0  0  0  0  0  0  0  0  0  0
   -0.2630   24.8070  -27.7990 C   0  0  0  0  0  0  0  0  0  0  0  0
    1.0820   24.8390  -28.1590 O   0  0  0  0  0  0  0  0  0  0  0  0
   -1.2370   24.5940  -28.7810 C   0  0  0  0  0  0  0  0  0  0  0  0
   -4.4220   23.2510  -29.5380 N   0  0  0  0  0  0  0  0  0  0  0  0
   -5.9290   21.7140  -32.1990 C   0  0  0  0  0  0  0  0  0  0  0  0
   -6.9270   20.8670  -32.6910 C   0  0  0  0  0  0  0  0  0  0  0  0
   -9.8027   19.5260  -31.8069 H   0  0  0  0  0  0  0  0  0  0  0  0
  -10.0078   20.5431  -33.2732 H   0  0  0  0  0  0  0  0  0  0  0  0
   -8.8188   19.1966  -33.2732 H   0  0  0  0  0  0  0  0  0  0  0  0
   -9.5133   21.8395  -30.6778 H   0  0  0  0  0  0  0  0  0  0  0  0
   -7.7409   23.3581  -29.8060 H   0  0  0  0  0  0  0  0  0  0  0  0
   -4.0374   24.7117  -26.8147 H   0  0  0  0  0  0  0  0  0  0  0  0
   -2.3009   25.0898  -25.0659 H   0  0  0  0  0  0  0  0  0  0  0  0
    0.1137   25.1524  -25.6882 H   0  0  0  0  0  0  0  0  0  0  0  0
    1.8170   24.7070  -27.4730 H   0  0  0  0  0  0  0  0  0  0  0  0
   -0.9337   24.4537  -29.8290 H   0  0  0  0  0  0  0  0  0  0  0  0
   -4.9168   21.6717  -32.6274 H   0  0  0  0  0  0  0  0  0  0  0  0
   -6.6935   20.1561  -33.4973 H   0  0  0  0  0  0  0  0  0  0  0  0
  1  2  1  0
  2  3  2  0
  3  4  1  0
  4  5  2  0
  5  6  1  0
  6  7  2  0
  7  8  1  0
  8  9  1  0
  9 10  1  0
 10 11  2  0
 11 12  1  0
 12 13  2  0
 13 14  1  0
 14 15  1  0
 14 16  2  0
  9 17  2  0
  5 18  1  0
 18 19  2  0
 19  2  1  0
 17  6  1  0
 16 10  1  0
  1 20  1  0
  1 21  1  0
  1 22  1  0
  3 23  1  0
  4 24  1  0
 11 25  1  0
 12 26  1  0
 13 27  1  0
 15 28  1  0
 16 29  1  0
 18 30  1  0
 19 31  1  0
M  END
>  <UniqueID>  (33) 
33

>  <SMILES>  (33) 
Cc1ccc(-c2noc(-c3cccc(O)c3)n2)cc1

>  <Energy>  (33) 
66.1694685473925

>  <Genealogy>  (33) 
Cc1ccc(-c2noc(-c3cccc(O)c3)n2)cc1 (3D coordinates assigned)
Cc1ccc(-c2noc(-c3cccc(O)c3)n2)cc1 (optimized conformer: 66.1694685473925 kcal/mol)

>  <smiles>  (33) 
Cc1ccc(-c2noc(-c3cccc(O)c3)n2)cc1

>  <score_type>  (33) 
oracle

>  <origin>  (33) 
adgpu

>  <m_score__min__energy>  (33) 
-8.6300000000000008

>  <m_primary>  (33) 
energy

$$$$
33:0
     RDKit          3D

 52 56  0  0  0  0  0  0  0  0999 V2000
    3.7654   26.9605  -25.4945 H   0  0  0  0  0  0  0  0  0  0  0  0
    2.7080   26.6620  -25.5480 C   0  0  0  0  0  0  0  0  0  0  0  0
    2.1820   25.7950  -26.4340 N   0  0  0  0  0  0  0  0  0  0  0  0
    0.8720   25.7570  -26.1020 C   0  0  0  0  0  0  0  0  0  0  0  0
   -0.1300   24.9280  -26.8010 C   0  0  0  0  0  0  0  0  0  0  0  0
   -0.3130   23.5880  -26.4370 C   0  0  0  0  0  0  0  0  0  0  0  0
    0.2877   23.1581  -25.6219 H   0  0  0  0  0  0  0  0  0  0  0  0
   -1.2510   22.7920  -27.0990 C   0  0  0  0  0  0  0  0  0  0  0  0
   -1.4086   21.7541  -26.7705 H   0  0  0  0  0  0  0  0  0  0  0  0
   -2.0010   23.3000  -28.1850 C   0  0  0  0  0  0  0  0  0  0  0  0
   -2.9430   22.5290  -28.9400 C   0  0  0  0  0  0  0  0  0  0  0  0
   -2.9930   21.2190  -28.9540 N   0  0  0  0  0  0  0  0  0  0  0  0
   -2.0330   20.2540  -28.5020 C   0  0  0  0  0  0  0  0  0  0  0  0
   -2.2980   19.4460  -27.3850 C   0  0  0  0  0  0  0  0  0  0  0  0
   -3.2641   19.5276  -26.8655 H   0  0  0  0  0  0  0  0  0  0  0  0
   -1.3380   18.5390  -26.9320 C   0  0  0  0  0  0  0  0  0  0  0  0
   -1.5545   17.9021  -26.0617 H   0  0  0  0  0  0  0  0  0  0  0  0
   -0.1010   18.4360  -27.5800 C   0  0  0  0  0  0  0  0  0  0  0  0
    0.8280   17.4990  -27.1110 O   0  0  0  0  0  0  0  0  0  0  0  0
    1.0790   16.2590  -27.7170 C   0  0  0  0  0  0  0  0  0  0  0  0
    1.0080   16.0790  -29.1130 C   0  0  0  0  0  0  0  0  0  0  0  0
    0.7545   16.9291  -29.7634 H   0  0  0  0  0  0  0  0  0  0  0  0
    1.2590   14.8220  -29.6740 C   0  0  0  0  0  0  0  0  0  0  0  0
    1.2100   14.6874  -30.7646 H   0  0  0  0  0  0  0  0  0  0  0  0
    1.5720   13.7370  -28.8500 C   0  0  0  0  0  0  0  0  0  0  0  0
    1.7710   12.7497  -29.2923 H   0  0  0  0  0  0  0  0  0  0  0  0
    1.6320   13.9070  -27.4640 C   0  0  0  0  0  0  0  0  0  0  0  0
    1.8755   13.0522  -26.8159 H   0  0  0  0  0  0  0  0  0  0  0  0
    1.3830   15.1620  -26.9000 C   0  0  0  0  0  0  0  0  0  0  0  0
    1.4260   15.2889  -25.8082 H   0  0  0  0  0  0  0  0  0  0  0  0
    0.1910   19.2920  -28.6590 C   0  0  0  0  0  0  0  0  0  0  0  0
    1.7760   19.2930  -29.4220 Cl  0  0  0  0  0  0  0  0  0  0  0  0
   -0.7740   20.2020  -29.1090 C   0  0  0  0  0  0  0  0  0  0  0  0
   -0.5405   20.8791  -29.9439 H   0  0  0  0  0  0  0  0  0  0  0  0
   -3.8550   23.2170  -29.7690 C   0  0  0  0  0  0  0  0  0  0  0  0
   -4.8870   22.5120  -30.4970 C   0  0  0  0  0  0  0  0  0  0  0  0
   -5.7130   21.9470  -31.0800 N   0  0  0  0  0  0  0  0  0  0  0  0
   -3.7180   24.5900  -29.9710 C   0  0  0  0  0  0  0  0  0  0  0  0
   -4.4131   25.1162  -30.6418 H   0  0  0  0  0  0  0  0  0  0  0  0
   -2.7340   25.2790  -29.3460 N   0  0  0  0  0  0  0  0  0  0  0  0
   -1.8880   24.6870  -28.4670 C   0  0  0  0  0  0  0  0  0  0  0  0
   -0.9390   25.4760  -27.8060 C   0  0  0  0  0  0  0  0  0  0  0  0
   -0.8272   26.5360  -28.0779 H   0  0  0  0  0  0  0  0  0  0  0  0
    0.5860   26.5370  -25.0810 O   0  0  0  0  0  0  0  0  0  0  0  0
    1.7060   27.1130  -24.7210 C   0  0  0  0  0  0  0  0  0  0  0  0
    1.8470   28.0630  -23.5730 C   0  0  0  0  0  0  0  0  0  0  0  0
    2.8161   27.8939  -23.0808 H   0  0  0  0  0  0  0  0  0  0  0  0
    1.7891   29.0927  -23.9557 H   0  0  0  0  0  0  0  0  0  0  0  0
    0.7730   27.8600  -22.6020 N   0  0  0  0  0  0  0  0  0  0  0  0
   -0.0730   27.4720  -23.0790 H   0  0  0  0  0  0  0  0  0  0  0  0
    0.5260   28.7780  -22.1670 H   0  0  0  0  0  0  0  0  0  0  0  0
    1.0890   27.2030  -21.8510 H   0  0  0  0  0  0  0  0  0  0  0  0
  1  2  1  0
  2  3  1  0
  3  4  2  0
  4  5  1  0
  5  6  2  0
  6  7  1  0
  6  8  1  0
  8  9  1  0
  8 10  2  0
 10 11  1  0
 11 12  2  0
 12 13  1  0
 13 14  2  0
 14 15  1  0
 14 16  1  0
 16 17  1  0
 16 18  2  0
 18 19  1  0
 19 20  1  0
 20 21  2  0
 21 22  1  0
 21 23  1  0
 23 24  1  0
 23 25  2  0
 25 26  1  0
 25 27  1  0
 27 28  1  0
 27 29  2  0
 29 30  1  0
 18 31  1  0
 31 32  1  0
 31 33  2  0
 33 34  1  0
 11 35  1  0
 35 36  1  0
 36 37  3  0
 35 38  2  0
 38 39  1  0
 38 40  1  0
 40 41  1  0
 41 42  2  0
 42 43  1  0
  4 44  1  0
 44 45  1  0
 45 46  1  0
 46 47  1  0
 46 48  1  0
 46 49  1  0
 49 50  1  0
 49 51  1  0
 49 52  1  0
 45  2  2  0
 42  5  1  0
 41 10  1  0
 33 13  1  0
 29 20  1  0
M  CHG  2  40  -1  49   1
M  END
>  <UniqueID>  (34) 
34

>  <SMILES>  (34) 
N#Cc1c[n-]c2cc(-c3ncc(C[NH3+])o3)ccc2/c1=N\c1ccc(Oc2ccccc2)c(Cl)c1

>  <Energy>  (34) 
118.78474986453347

>  <Genealogy>  (34) 
N#Cc1c[n-]c2cc(-c3ncc(C[NH3+])o3)ccc2c1=Nc1ccc(Oc2ccccc2)c(Cl)c1 (protonated)
N#Cc1c[n-]c2cc(-c3ncc(C[NH3+])o3)ccc2/c1=N\c1ccc(Oc2ccccc2)c(Cl)c1 (cis-trans isomerization)
N#Cc1c[n-]c2cc(-c3ncc(C[NH3+])o3)ccc2/c1=N\c1ccc(Oc2ccccc2)c(Cl)c1 (3D coordinates assigned)
N#Cc1c[n-]c2cc(-c3ncc(C[NH3+])o3)ccc2/c1=N\c1ccc(Oc2ccccc2)c(Cl)c1 (optimized conformer: 118.78474986453347 kcal/mol)

>  <smiles>  (34) 
N#Cc1c[nH]c2cc(-c3ncc(CN)o3)ccc2c1=Nc1ccc(Oc2ccccc2)c(Cl)c1

>  <score_type>  (34) 
oracle

>  <origin>  (34) 
adgpu

>  <m_score__min__energy>  (34) 
-10.140000000000001

>  <m_primary>  (34) 
energy

$$$$
34:0
     RDKit          3D

 37 39  0  0  0  0  0  0  0  0999 V2000
   -9.6000   21.7290  -31.9310 C   0  0  0  0  0  0  0  0  0  0  0  0
   -8.3460   22.4050  -31.4640 C   0  0  0  0  0  0  0  0  0  0  0  0
   -7.8980   22.2290  -30.1450 C   0  0  0  0  0  0  0  0  0  0  0  0
   -6.7080   22.8270  -29.7200 C   0  0  0  0  0  0  0  0  0  0  0  0
   -5.9490   23.5990  -30.6080 C   0  0  0  0  0  0  0  0  0  0  0  0
   -4.4390   24.3250  -30.0640 S   0  0  0  0  0  0  0  0  0  0  0  0
   -4.5400   24.5310  -28.5780 O   0  0  0  0  0  0  0  0  0  0  0  0
   -4.2420   25.6600  -30.7270 O   0  0  0  0  0  0  0  0  0  0  0  0
   -3.0700   23.2720  -30.4530 C   0  0  0  0  0  0  0  0  0  0  0  0
   -3.0920   22.5380  -31.6500 C   0  0  0  0  0  0  0  0  0  0  0  0
   -2.0480   21.6660  -31.9690 C   0  0  0  0  0  0  0  0  0  0  0  0
   -0.9680   21.5200  -31.0970 C   0  0  0  0  0  0  0  0  0  0  0  0
    0.3400   20.4200  -31.4970 Cl  0  0  0  0  0  0  0  0  0  0  0  0
   -0.9240   22.2550  -29.9110 C   0  0  0  0  0  0  0  0  0  0  0  0
   -1.9620   23.1400  -29.5850 C   0  0  0  0  0  0  0  0  0  0  0  0
   -1.8680   23.9040  -28.3760 N   0  0  0  0  0  0  0  0  0  0  0  0
   -1.5270   25.2030  -28.2680 C   0  0  0  0  0  0  0  0  0  0  0  0
   -1.2480   26.0260  -29.3520 O   0  0  0  0  0  0  0  0  0  0  0  0
   -1.4720   25.5910  -26.9450 C   0  0  0  0  0  0  0  0  0  0  0  0
   -1.7820   24.4640  -26.2010 C   0  0  0  0  0  0  0  0  0  0  0  0
   -2.0100   23.4520  -27.1130 C   0  0  0  0  0  0  0  0  0  0  0  0
   -2.3480   22.1430  -26.7750 O   0  0  0  0  0  0  0  0  0  0  0  0
   -6.3820   23.7560  -31.9320 C   0  0  0  0  0  0  0  0  0  0  0  0
   -7.5720   23.1580  -32.3580 C   0  0  0  0  0  0  0  0  0  0  0  0
  -10.1911   21.4104  -31.0597 H   0  0  0  0  0  0  0  0  0  0  0  0
  -10.1907   22.4309  -32.5380 H   0  0  0  0  0  0  0  0  0  0  0  0
   -9.3383   20.8497  -32.5380 H   0  0  0  0  0  0  0  0  0  0  0  0
   -8.4855   21.6184  -29.4436 H   0  0  0  0  0  0  0  0  0  0  0  0
   -6.3664   22.6904  -28.6833 H   0  0  0  0  0  0  0  0  0  0  0  0
   -3.9389   22.6506  -32.3428 H   0  0  0  0  0  0  0  0  0  0  0  0
   -2.0772   21.0941  -32.9082 H   0  0  0  0  0  0  0  0  0  0  0  0
   -0.0697   22.1393  -29.2278 H   0  0  0  0  0  0  0  0  0  0  0  0
   -1.2308   26.5924  -26.5590 H   0  0  0  0  0  0  0  0  0  0  0  0
   -1.8357   24.3901  -25.1048 H   0  0  0  0  0  0  0  0  0  0  0  0
   -1.7110   21.5530  -26.2540 H   0  0  0  0  0  0  0  0  0  0  0  0
   -5.7840   24.3513  -32.6377 H   0  0  0  0  0  0  0  0  0  0  0  0
   -7.9026   23.2790  -33.4001 H   0  0  0  0  0  0  0  0  0  0  0  0
  1  2  1  0
  2  3  2  0
  3  4  1  0
  4  5  2  0
  5  6  1  0
  6  7  2  0
  6  8  2  0
  6  9  1  0
  9 10  2  0
 10 11  1  0
 11 12  2  0
 12 13  1  0
 12 14  1  0
 14 15  2  0
 15 16  1  0
 16 17  1  0
 17 18  1  0
 17 19  2  0
 19 20  1  0
 20 21  2  0
 21 22  1  0
  5 23  1  0
 23 24  2  0
 24  2  1  0
 15  9  1  0
 21 16  1  0
  1 25  1  0
  1 26  1  0
  1 27  1  0
  3 28  1  0
  4 29  1  0
 10 30  1  0
 11 31  1  0
 14 32  1  0
 19 33  1  0
 20 34  1  0
 22 35  1  0
 23 36  1  0
 24 37  1  0
M  CHG  1  18  -1
M  END
>  <UniqueID>  (35) 
35

>  <SMILES>  (35) 
Cc1ccc(S(=O)(=O)c2ccc(Cl)cc2-n2c([O-])ccc2O)cc1

>  <Energy>  (35) 
76.1033806907257

>  <Genealogy>  (35) 
Cc1ccc(S(=O)(=O)c2ccc(Cl)cc2-n2c([O-])ccc2O)cc1 (protonated)
Cc1ccc(S(=O)(=O)c2ccc(Cl)cc2-n2c([O-])ccc2O)cc1 (3D coordinates assigned)
Cc1ccc(S(=O)(=O)c2ccc(Cl)cc2-n2c([O-])ccc2O)cc1 (optimized conformer: 76.1033806907257 kcal/mol)

>  <smiles>  (35) 
Cc1ccc(S(=O)(=O)c2ccc(Cl)cc2-n2c(O)ccc2O)cc1

>  <score_type>  (35) 
oracle

>  <origin>  (35) 
adgpu

>  <m_score__min__energy>  (35) 
-11.140000000000001

>  <m_primary>  (35) 
energy

$$$$
35:0
     RDKit          3D

 26 27  0  0  0  0  0  0  0  0999 V2000
   -1.9700   20.9490  -31.4930 N   0  0  0  0  0  0  0  0  0  0  0  0
   -3.1000   21.8070  -31.3180 C   0  0  0  0  0  0  0  0  0  0  0  0
   -2.9250   23.1170  -30.8550 C   0  0  0  0  0  0  0  0  0  0  0  0
   -4.0290   23.9590  -30.6790 C   0  0  0  0  0  0  0  0  0  0  0  0
   -3.8440   25.2980  -30.2110 N   0  0  0  0  0  0  0  0  0  0  0  0
   -5.3170   23.4870  -30.9670 C   0  0  0  0  0  0  0  0  0  0  0  0
   -5.5100   22.1730  -31.4330 C   0  0  0  0  0  0  0  0  0  0  0  0
   -6.8760   21.6740  -31.7370 C   0  0  0  0  0  0  0  0  0  0  0  0
   -7.0580   20.4390  -32.3880 C   0  0  0  0  0  0  0  0  0  0  0  0
   -8.3450   19.9720  -32.6740 C   0  0  0  0  0  0  0  0  0  0  0  0
   -9.4610   20.7300  -32.3140 C   0  0  0  0  0  0  0  0  0  0  0  0
   -9.2940   21.9560  -31.6670 C   0  0  0  0  0  0  0  0  0  0  0  0
   -8.0090   22.4280  -31.3800 C   0  0  0  0  0  0  0  0  0  0  0  0
   -4.3900   21.3390  -31.6060 C   0  0  0  0  0  0  0  0  0  0  0  0
   -1.2640   21.1390  -32.2390 H   0  0  0  0  0  0  0  0  0  0  0  0
   -1.8300   20.1170  -30.8780 H   0  0  0  0  0  0  0  0  0  0  0  0
   -1.9140   23.4864  -30.6283 H   0  0  0  0  0  0  0  0  0  0  0  0
   -4.0520   25.5510  -29.2190 H   0  0  0  0  0  0  0  0  0  0  0  0
   -3.4970   26.0470  -30.8520 H   0  0  0  0  0  0  0  0  0  0  0  0
   -6.1843   24.1491  -30.8276 H   0  0  0  0  0  0  0  0  0  0  0  0
   -6.1824   19.8375  -32.6735 H   0  0  0  0  0  0  0  0  0  0  0  0
   -8.4782   19.0061  -33.1833 H   0  0  0  0  0  0  0  0  0  0  0  0
  -10.4723   20.3611  -32.5402 H   0  0  0  0  0  0  0  0  0  0  0  0
  -10.1741   22.5514  -31.3826 H   0  0  0  0  0  0  0  0  0  0  0  0
   -7.8833   23.3954  -30.8717 H   0  0  0  0  0  0  0  0  0  0  0  0
   -4.5277   20.3103  -31.9706 H   0  0  0  0  0  0  0  0  0  0  0  0
  1  2  1  0
  2  3  2  0
  3  4  1  0
  4  5  1  0
  4  6  2  0
  6  7  1  0
  7  8  1  0
  8  9  2  0
  9 10  1  0
 10 11  2  0
 11 12  1  0
 12 13  2  0
  7 14  2  0
 14  2  1  0
 13  8  1  0
  1 15  1  0
  1 16  1  0
  3 17  1  0
  5 18  1  0
  5 19  1  0
  6 20  1  0
  9 21  1  0
 10 22  1  0
 11 23  1  0
 12 24  1  0
 13 25  1  0
 14 26  1  0
M  END
>  <UniqueID>  (36) 
36

>  <SMILES>  (36) 
Nc1cc(N)cc(-c2ccccc2)c1

>  <Energy>  (36) 
29.987617964992435

>  <Genealogy>  (36) 
Nc1cc(N)cc(-c2ccccc2)c1 (3D coordinates assigned)
Nc1cc(N)cc(-c2ccccc2)c1 (optimized conformer: 29.987617964992435 kcal/mol)

>  <smiles>  (36) 
Nc1cc(N)cc(-c2ccccc2)c1

>  <score_type>  (36) 
oracle

>  <origin>  (36) 
adgpu

>  <m_score__min__energy>  (36) 
-6.1799999999999997

>  <m_primary>  (36) 
energy

$$$$
36:0
     RDKit          3D

 48 51  0  0  0  0  0  0  0  0999 V2000
    0.5960   18.7590  -27.9980 C   0  0  0  0  0  0  0  0  0  0  0  0
   -0.6950   19.4990  -27.8030 C   0  0  0  0  0  0  0  0  0  0  0  0
   -1.7560   18.9070  -27.1020 C   0  0  0  0  0  0  0  0  0  0  0  0
   -2.9590   19.5970  -26.9320 C   0  0  0  0  0  0  0  0  0  0  0  0
   -3.1150   20.8790  -27.4670 C   0  0  0  0  0  0  0  0  0  0  0  0
   -2.0710   21.4680  -28.1900 C   0  0  0  0  0  0  0  0  0  0  0  0
   -2.2090   22.8410  -28.7020 C   0  0  0  0  0  0  0  0  0  0  0  0
   -1.4170   23.9300  -28.3410 C   0  0  0  0  0  0  0  0  0  0  0  0
   -0.2800   23.9330  -27.3940 C   0  0  0  0  0  0  0  0  0  0  0  0
    0.7030   23.1750  -27.6060 O   0  0  0  0  0  0  0  0  0  0  0  0
   -0.2540   24.8220  -26.2190 C   0  0  0  0  0  0  0  0  0  0  0  0
   -1.3630   25.2680  -25.5220 C   0  0  0  0  0  0  0  0  0  0  0  0
   -0.8740   26.0500  -24.4970 C   0  0  0  0  0  0  0  0  0  0  0  0
    0.4990   26.0310  -24.6360 C   0  0  0  0  0  0  0  0  0  0  0  0
    1.4730   26.7200  -23.7410 C   0  0  0  0  0  0  0  0  0  0  0  0
    0.8400   25.2880  -25.6620 O   0  0  0  0  0  0  0  0  0  0  0  0
   -1.9350   25.0110  -29.0360 C   0  0  0  0  0  0  0  0  0  0  0  0
   -1.5150   26.3330  -28.9630 O   0  0  0  0  0  0  0  0  0  0  0  0
   -2.9900   24.5470  -29.7860 C   0  0  0  0  0  0  0  0  0  0  0  0
   -3.7840   25.3270  -30.6180 O   0  0  0  0  0  0  0  0  0  0  0  0
   -3.1590   23.2240  -29.5900 N   0  0  0  0  0  0  0  0  0  0  0  0
   -4.1990   22.3830  -30.1940 C   0  0  0  0  0  0  0  0  0  0  0  0
   -3.6470   21.6270  -31.3750 C   0  0  0  0  0  0  0  0  0  0  0  0
   -4.4700   20.7630  -32.1190 C   0  0  0  0  0  0  0  0  0  0  0  0
   -3.9660   20.1080  -33.2470 C   0  0  0  0  0  0  0  0  0  0  0  0
   -2.6370   20.3030  -33.6340 C   0  0  0  0  0  0  0  0  0  0  0  0
   -1.8100   21.1520  -32.8930 C   0  0  0  0  0  0  0  0  0  0  0  0
   -2.3110   21.8120  -31.7670 C   0  0  0  0  0  0  0  0  0  0  0  0
   -0.8650   20.7750  -28.3630 C   0  0  0  0  0  0  0  0  0  0  0  0
    1.0283   18.5112  -27.0173 H   0  0  0  0  0  0  0  0  0  0  0  0
    0.4063   17.8325  -28.5598 H   0  0  0  0  0  0  0  0  0  0  0  0
    1.2996   19.3909  -28.5598 H   0  0  0  0  0  0  0  0  0  0  0  0
   -1.6405   17.8958  -26.6846 H   0  0  0  0  0  0  0  0  0  0  0  0
   -3.7853   19.1303  -26.3758 H   0  0  0  0  0  0  0  0  0  0  0  0
   -4.0584   21.4251  -27.3198 H   0  0  0  0  0  0  0  0  0  0  0  0
   -2.4177   25.0447  -25.7406 H   0  0  0  0  0  0  0  0  0  0  0  0
   -1.4569   26.5789  -23.7285 H   0  0  0  0  0  0  0  0  0  0  0  0
    1.2044   26.5300  -22.6914 H   0  0  0  0  0  0  0  0  0  0  0  0
    2.4852   26.3359  -23.9358 H   0  0  0  0  0  0  0  0  0  0  0  0
    1.4478   27.8023  -23.9358 H   0  0  0  0  0  0  0  0  0  0  0  0
   -4.5653   21.6661  -29.4444 H   0  0  0  0  0  0  0  0  0  0  0  0
   -5.0222   23.0269  -30.5372 H   0  0  0  0  0  0  0  0  0  0  0  0
   -5.5141   20.6018  -31.8126 H   0  0  0  0  0  0  0  0  0  0  0  0
   -4.6158   19.4389  -33.8302 H   0  0  0  0  0  0  0  0  0  0  0  0
   -2.2418   19.7881  -34.5221 H   0  0  0  0  0  0  0  0  0  0  0  0
   -0.7632   21.3011  -33.1963 H   0  0  0  0  0  0  0  0  0  0  0  0
   -1.6566   22.4785  -31.1860 H   0  0  0  0  0  0  0  0  0  0  0  0
   -0.0482   21.2330  -28.9401 H   0  0  0  0  0  0  0  0  0  0  0  0
  1  2  1  0
  2  3  2  0
  3  4  1  0
  4  5  2  0
  5  6  1  0
  6  7  1  0
  7  8  2  0
  8  9  1  0
  9 10  2  0
  9 11  1  0
 11 12  2  0
 12 13  1  0
 13 14  2  0
 14 15  1  0
 14 16  1  0
  8 17  1  0
 17 18  1  0
 17 19  2  0
 19 20  1  0
 19 21  1  0
 21 22  1  0
 22 23  1  0
 23 24  2  0
 24 25  1  0
 25 26  2  0
 26 27  1  0
 27 28  2  0
  6 29  2  0
 29  2  1  0
 21  7  1  0
 28 23  1  0
 16 11  1  0
  1 30  1  0
  1 31  1  0
  1 32  1  0
  3 33  1  0
  4 34  1  0
  5 35  1  0
 12 36  1  0
 13 37  1  0
 15 38  1  0
 15 39  1  0
 15 40  1  0
 22 41  1  0
 22 42  1  0
 24 43  1  0
 25 44  1  0
 26 45  1  0
 27 46  1  0
 28 47  1  0
 29 48  1  0
M  CHG  2  18  -1  20  -1
M  END
>  <UniqueID>  (37) 
37

>  <SMILES>  (37) 
Cc1cccc(-c2c(C(=O)c3ccc(C)o3)c([O-])c([O-])n2Cc2ccccc2)c1

>  <Energy>  (37) 
111.83166376868057

>  <Genealogy>  (37) 
Cc1cccc(-c2c(C(=O)c3ccc(C)o3)c([O-])c([O-])n2Cc2ccccc2)c1 (protonated)
Cc1cccc(-c2c(C(=O)c3ccc(C)o3)c([O-])c([O-])n2Cc2ccccc2)c1 (3D coordinates assigned)
Cc1cccc(-c2c(C(=O)c3ccc(C)o3)c([O-])c([O-])n2Cc2ccccc2)c1 (optimized conformer: 111.83166376868057 kcal/mol)

>  <smiles>  (37) 
Cc1cccc(-c2c(C(=O)c3ccc(C)o3)c(O)c(O)n2Cc2ccccc2)c1

>  <score_type>  (37) 
oracle

>  <origin>  (37) 
adgpu

>  <m_score__min__energy>  (37) 
-14.66

>  <m_primary>  (37) 
energy

$$$$
37:0
     RDKit          3D

 50 54  0  0  0  0  0  0  0  0999 V2000
   -0.1460   23.0990  -24.5350 C   0  0  0  0  0  0  0  0  0  0  0  0
   -0.7150   23.8910  -25.6740 C   0  0  0  0  0  0  0  0  0  0  0  0
   -1.4330   25.0840  -25.4800 C   0  0  0  0  0  0  0  0  0  0  0  0
   -1.8760   25.6700  -26.6570 C   0  0  0  0  0  0  0  0  0  0  0  0
   -1.3920   24.7000  -27.9390 S   0  0  0  0  0  0  0  0  0  0  0  0
   -0.5990   23.5310  -27.0210 C   0  0  0  0  0  0  0  0  0  0  0  0
    0.0400   22.3160  -27.5720 C   0  0  0  0  0  0  0  0  0  0  0  0
    1.2920   22.1880  -27.5120 O   0  0  0  0  0  0  0  0  0  0  0  0
   -0.7340   21.2360  -28.1080 N   0  0  0  0  0  0  0  0  0  0  0  0
   -1.6120   21.3090  -29.2410 C   0  0  0  0  0  0  0  0  0  0  0  0
   -2.8160   22.0320  -29.1940 C   0  0  0  0  0  0  0  0  0  0  0  0
   -3.6410   22.1000  -30.3210 C   0  0  0  0  0  0  0  0  0  0  0  0
   -3.2680   21.4620  -31.5170 C   0  0  0  0  0  0  0  0  0  0  0  0
   -4.1470   21.5290  -32.7100 C   0  0  0  0  0  0  0  0  0  0  0  0
   -3.8650   22.3040  -33.6650 O   0  0  0  0  0  0  0  0  0  0  0  0
   -5.3300   20.7170  -32.7970 N   0  0  0  0  0  0  0  0  0  0  0  0
   -5.2330   19.3600  -33.2910 C   0  0  0  0  0  0  0  0  0  0  0  0
   -4.0220   18.8590  -33.8180 C   0  0  0  0  0  0  0  0  0  0  0  0
   -3.9390   17.5490  -34.2970 C   0  0  0  0  0  0  0  0  0  0  0  0
   -5.0560   16.7190  -34.2580 C   0  0  0  0  0  0  0  0  0  0  0  0
   -6.2600   17.1960  -33.7400 C   0  0  0  0  0  0  0  0  0  0  0  0
   -6.3620   18.5130  -33.2610 C   0  0  0  0  0  0  0  0  0  0  0  0
   -7.6760   18.9600  -32.6790 C   0  0  0  0  0  0  0  0  0  0  0  0
   -7.7490   20.4260  -32.3480 C   0  0  0  0  0  0  0  0  0  0  0  0
   -8.9850   20.9560  -31.9450 C   0  0  0  0  0  0  0  0  0  0  0  0
   -9.1010   22.3010  -31.5930 C   0  0  0  0  0  0  0  0  0  0  0  0
   -7.9820   23.1290  -31.6320 C   0  0  0  0  0  0  0  0  0  0  0  0
   -6.7430   22.6160  -32.0220 C   0  0  0  0  0  0  0  0  0  0  0  0
   -6.6070   21.2570  -32.3860 C   0  0  0  0  0  0  0  0  0  0  0  0
   -2.0500   20.7620  -31.5640 C   0  0  0  0  0  0  0  0  0  0  0  0
   -1.2270   20.6960  -30.4360 C   0  0  0  0  0  0  0  0  0  0  0  0
   -0.4665   23.5451  -23.5820 H   0  0  0  0  0  0  0  0  0  0  0  0
   -0.5065   22.0614  -24.5937 H   0  0  0  0  0  0  0  0  0  0  0  0
    0.9524   23.1095  -24.5937 H   0  0  0  0  0  0  0  0  0  0  0  0
   -1.6259   25.5136  -24.4859 H   0  0  0  0  0  0  0  0  0  0  0  0
   -2.4456   26.6077  -26.7364 H   0  0  0  0  0  0  0  0  0  0  0  0
   -3.1106   22.5463  -28.2673 H   0  0  0  0  0  0  0  0  0  0  0  0
   -4.5885   22.6566  -30.2714 H   0  0  0  0  0  0  0  0  0  0  0  0
   -3.1342   19.5075  -33.8517 H   0  0  0  0  0  0  0  0  0  0  0  0
   -2.9895   17.1729  -34.7056 H   0  0  0  0  0  0  0  0  0  0  0  0
   -4.9891   15.6879  -34.6354 H   0  0  0  0  0  0  0  0  0  0  0  0
   -7.1383   16.5346  -33.7061 H   0  0  0  0  0  0  0  0  0  0  0  0
   -8.4686   18.7330  -33.4072 H   0  0  0  0  0  0  0  0  0  0  0  0
   -7.7953   18.4198  -31.7283 H   0  0  0  0  0  0  0  0  0  0  0  0
   -9.8705   20.3045  -31.9064 H   0  0  0  0  0  0  0  0  0  0  0  0
  -10.0757   22.7072  -31.2849 H   0  0  0  0  0  0  0  0  0  0  0  0
   -8.0742   24.1895  -31.3550 H   0  0  0  0  0  0  0  0  0  0  0  0
   -5.8637   23.2765  -32.0462 H   0  0  0  0  0  0  0  0  0  0  0  0
   -1.7424   20.2628  -32.4947 H   0  0  0  0  0  0  0  0  0  0  0  0
   -0.2693   20.1575  -30.4896 H   0  0  0  0  0  0  0  0  0  0  0  0
  1  2  1  0
  2  3  1  0
  3  4  2  0
  4  5  1  0
  5  6  1  0
  6  7  1  0
  7  8  2  0
  7  9  1  0
  9 10  1  0
 10 11  2  0
 11 12  1  0
 12 13  2  0
 13 14  1  0
 14 15  2  0
 14 16  1  0
 16 17  1  0
 17 18  2  0
 18 19  1  0
 19 20  2  0
 20 21  1  0
 21 22  2  0
 22 23  1  0
 23 24  1  0
 24 25  2  0
 25 26  1  0
 26 27  2  0
 27 28  1  0
 28 29  2  0
 13 30  1  0
 30 31  2  0
  6  2  2  0
 31 10  1  0
 29 16  1  0
 22 17  1  0
 29 24  1  0
  1 32  1  0
  1 33  1  0
  1 34  1  0
  3 35  1  0
  4 36  1  0
 11 37  1  0
 12 38  1  0
 18 39  1  0
 19 40  1  0
 20 41  1  0
 21 42  1  0
 23 43  1  0
 23 44  1  0
 25 45  1  0
 26 46  1  0
 27 47  1  0
 28 48  1  0
 30 49  1  0
 31 50  1  0
M  CHG  1   9  -1
M  END
>  <UniqueID>  (38) 
38

>  <SMILES>  (38) 
Cc1ccsc1C(=O)[N-]c1ccc(C(=O)N2c3ccccc3Cc3ccccc32)cc1

>  <Energy>  (38) 
102.64799132881825

>  <Genealogy>  (38) 
Cc1ccsc1C(=O)[N-]c1ccc(C(=O)N2c3ccccc3Cc3ccccc32)cc1 (protonated)
Cc1ccsc1C(=O)[N-]c1ccc(C(=O)N2c3ccccc3Cc3ccccc32)cc1 (3D coordinates assigned)
Cc1ccsc1C(=O)[N-]c1ccc(C(=O)N2c3ccccc3Cc3ccccc32)cc1 (nonaromatic ring conformer: 102.64799132881825 kcal/mol)

>  <smiles>  (38) 
Cc1ccsc1C(=O)Nc1ccc(C(=O)N2c3ccccc3Cc3ccccc32)cc1

>  <score_type>  (38) 
oracle

>  <origin>  (38) 
adgpu

>  <m_score__min__energy>  (38) 
-10.710000000000001

>  <m_primary>  (38) 
energy

$$$$
38:0
     RDKit          3D

 41 43  0  0  0  0  0  0  0  0999 V2000
   -9.5140   22.0090  -31.5870 C   0  0  0  0  0  0  0  0  0  0  0  0
   -8.6640   20.7820  -31.2660 C   0  0  0  0  0  0  0  0  0  0  0  0
   -7.4770   20.7100  -32.1360 N   0  0  0  0  0  0  0  0  0  0  0  0
   -6.9000   21.9480  -32.6850 C   0  0  0  0  0  0  0  0  0  0  0  0
   -5.7030   22.3790  -31.8870 C   0  0  0  0  0  0  0  0  0  0  0  0
   -5.4880   23.7250  -31.5840 C   0  0  0  0  0  0  0  0  0  0  0  0
   -4.3790   24.0780  -30.8130 C   0  0  0  0  0  0  0  0  0  0  0  0
   -4.1900   25.2970  -30.5440 O   0  0  0  0  0  0  0  0  0  0  0  0
   -3.5170   23.1110  -30.3570 N   0  0  0  0  0  0  0  0  0  0  0  0
   -2.4230   23.4450  -29.5980 C   0  0  0  0  0  0  0  0  0  0  0  0
   -1.5490   22.4590  -29.1310 C   0  0  0  0  0  0  0  0  0  0  0  0
   -0.1550   22.9000  -28.1610 Cl  0  0  0  0  0  0  0  0  0  0  0  0
   -1.7920   21.1230  -29.4420 C   0  0  0  0  0  0  0  0  0  0  0  0
   -2.9010   20.7830  -30.2120 C   0  0  0  0  0  0  0  0  0  0  0  0
   -3.7600   21.7880  -30.6670 C   0  0  0  0  0  0  0  0  0  0  0  0
   -4.8390   21.4460  -31.4170 N   0  0  0  0  0  0  0  0  0  0  0  0
   -6.8990   19.4270  -32.4670 C   0  0  0  0  0  0  0  0  0  0  0  0
   -6.9860   18.3490  -31.5670 C   0  0  0  0  0  0  0  0  0  0  0  0
   -6.4310   17.1090  -31.8900 C   0  0  0  0  0  0  0  0  0  0  0  0
   -5.7780   16.9270  -33.1110 C   0  0  0  0  0  0  0  0  0  0  0  0
   -5.6620   17.9940  -34.0130 C   0  0  0  0  0  0  0  0  0  0  0  0
   -4.9900   17.7920  -35.3390 C   0  0  0  0  0  0  0  0  0  0  0  0
   -6.2370   19.2340  -33.6940 C   0  0  0  0  0  0  0  0  0  0  0  0
   -9.8423   22.4829  -30.6502 H   0  0  0  0  0  0  0  0  0  0  0  0
   -8.9178   22.7255  -32.1710 H   0  0  0  0  0  0  0  0  0  0  0  0
  -10.3943   21.7026  -32.1710 H   0  0  0  0  0  0  0  0  0  0  0  0
   -8.3367   20.8373  -30.2173 H   0  0  0  0  0  0  0  0  0  0  0  0
   -9.2743   19.8828  -31.4365 H   0  0  0  0  0  0  0  0  0  0  0  0
   -6.5943   21.7721  -33.7269 H   0  0  0  0  0  0  0  0  0  0  0  0
   -7.6597   22.7421  -32.6373 H   0  0  0  0  0  0  0  0  0  0  0  0
   -6.1827   24.4964  -31.9477 H   0  0  0  0  0  0  0  0  0  0  0  0
   -2.2319   24.5006  -29.3545 H   0  0  0  0  0  0  0  0  0  0  0  0
   -1.1100   20.3393  -29.0804 H   0  0  0  0  0  0  0  0  0  0  0  0
   -3.1002   19.7302  -30.4609 H   0  0  0  0  0  0  0  0  0  0  0  0
   -7.4952   18.4841  -30.6014 H   0  0  0  0  0  0  0  0  0  0  0  0
   -6.5084   16.2724  -31.1800 H   0  0  0  0  0  0  0  0  0  0  0  0
   -5.3538   15.9445  -33.3655 H   0  0  0  0  0  0  0  0  0  0  0  0
   -3.9479   17.4788  -35.1780 H   0  0  0  0  0  0  0  0  0  0  0  0
   -5.5232   17.0144  -35.9056 H   0  0  0  0  0  0  0  0  0  0  0  0
   -5.0061   18.7347  -35.9056 H   0  0  0  0  0  0  0  0  0  0  0  0
   -6.1695   20.0650  -34.4116 H   0  0  0  0  0  0  0  0  0  0  0  0
  1  2  1  0
  2  3  1  0
  3  4  1  0
  4  5  1  0
  5  6  2  0
  6  7  1  0
  7  8  2  0
  7  9  1  0
  9 10  1  0
 10 11  2  0
 11 12  1  0
 11 13  1  0
 13 14  2  0
 14 15  1  0
 15 16  2  0
  3 17  1  0
 17 18  2  0
 18 19  1  0
 19 20  2  0
 20 21  1  0
 21 22  1  0
 21 23  2  0
 16  5  1  0
 23 17  1  0
 15  9  1  0
  1 24  1  0
  1 25  1  0
  1 26  1  0
  2 27  1  0
  2 28  1  0
  4 29  1  0
  4 30  1  0
  6 31  1  0
 10 32  1  0
 13 33  1  0
 14 34  1  0
 18 35  1  0
 19 36  1  0
 20 37  1  0
 22 38  1  0
 22 39  1  0
 22 40  1  0
 23 41  1  0
M  END
>  <UniqueID>  (39) 
39

>  <SMILES>  (39) 
CCN(Cc1cc(=O)n2cc(Cl)ccc2n1)c1cccc(C)c1

>  <Energy>  (39) 
48.1847309886102

>  <Genealogy>  (39) 
CCN(Cc1cc(=O)n2cc(Cl)ccc2n1)c1cccc(C)c1 (3D coordinates assigned)
CCN(Cc1cc(=O)n2cc(Cl)ccc2n1)c1cccc(C)c1 (optimized conformer: 48.1847309886102 kcal/mol)

>  <smiles>  (39) 
CCN(Cc1cc(=O)n2cc(Cl)ccc2n1)c1cccc(C)c1

>  <score_type>  (39) 
oracle

>  <origin>  (39) 
adgpu

>  <m_score__min__energy>  (39) 
-7.9100000000000001

>  <m_primary>  (39) 
energy

$$$$
39:0
     RDKit          3D

 29 30  0  0  0  0  0  0  0  0999 V2000
   -5.3050   23.9990  -32.0970 O   0  0  0  0  0  0  0  0  0  0  0  0
   -5.2160   23.2010  -31.1280 C   0  0  0  0  0  0  0  0  0  0  0  0
   -6.1530   22.1190  -31.0310 N   0  0  0  0  0  0  0  0  0  0  0  0
   -7.2390   21.8540  -31.9730 C   0  0  0  0  0  0  0  0  0  0  0  0
   -7.2330   20.4110  -32.4050 C   0  0  0  0  0  0  0  0  0  0  0  0
   -8.0450   19.4680  -31.7540 C   0  0  0  0  0  0  0  0  0  0  0  0
   -8.0060   18.1240  -32.1330 C   0  0  0  0  0  0  0  0  0  0  0  0
   -7.1620   17.7080  -33.1680 C   0  0  0  0  0  0  0  0  0  0  0  0
   -7.1320   16.3670  -33.5310 O   0  0  0  0  0  0  0  0  0  0  0  0
   -6.3530   18.6450  -33.8320 C   0  0  0  0  0  0  0  0  0  0  0  0
   -5.5040   18.2600  -34.8680 O   0  0  0  0  0  0  0  0  0  0  0  0
   -6.3930   19.9920  -33.4490 C   0  0  0  0  0  0  0  0  0  0  0  0
   -4.1310   23.3820  -30.1450 C   0  0  0  0  0  0  0  0  0  0  0  0
   -3.7320   22.3080  -29.3340 C   0  0  0  0  0  0  0  0  0  0  0  0
   -2.6900   22.4680  -28.4170 C   0  0  0  0  0  0  0  0  0  0  0  0
   -2.0440   23.7000  -28.2980 C   0  0  0  0  0  0  0  0  0  0  0  0
   -2.4410   24.7800  -29.0940 C   0  0  0  0  0  0  0  0  0  0  0  0
   -1.7950   26.0030  -28.9690 O   0  0  0  0  0  0  0  0  0  0  0  0
   -3.4870   24.6260  -30.0150 C   0  0  0  0  0  0  0  0  0  0  0  0
   -3.8660   25.7040  -30.8090 O   0  0  0  0  0  0  0  0  0  0  0  0
   -8.2000   22.0813  -31.4885 H   0  0  0  0  0  0  0  0  0  0  0  0
   -7.0980   22.4881  -32.8607 H   0  0  0  0  0  0  0  0  0  0  0  0
   -8.7145   19.7890  -30.9423 H   0  0  0  0  0  0  0  0  0  0  0  0
   -8.6414   17.3901  -31.6156 H   0  0  0  0  0  0  0  0  0  0  0  0
   -5.4170   17.2930  -35.1600 H   0  0  0  0  0  0  0  0  0  0  0  0
   -5.7616   20.7267  -33.9701 H   0  0  0  0  0  0  0  0  0  0  0  0
   -4.2415   21.3370  -29.4207 H   0  0  0  0  0  0  0  0  0  0  0  0
   -2.3780   21.6216  -27.7875 H   0  0  0  0  0  0  0  0  0  0  0  0
   -1.2218   23.8217  -27.5775 H   0  0  0  0  0  0  0  0  0  0  0  0
  1  2  2  0
  2  3  1  0
  3  4  1  0
  4  5  1  0
  5  6  2  0
  6  7  1  0
  7  8  2  0
  8  9  1  0
  8 10  1  0
 10 11  1  0
 10 12  2  0
  2 13  1  0
 13 14  2  0
 14 15  1  0
 15 16  2  0
 16 17  1  0
 17 18  1  0
 17 19  2  0
 19 20  1  0
 12  5  1  0
 19 13  1  0
  4 21  1  0
  4 22  1  0
  6 23  1  0
  7 24  1  0
 11 25  1  0
 12 26  1  0
 14 27  1  0
 15 28  1  0
 16 29  1  0
M  CHG  4   3  -1   9  -1  18  -1  20  -1
M  END
>  <UniqueID>  (40) 
40

>  <SMILES>  (40) 
O=C([N-]Cc1ccc([O-])c(O)c1)c1cccc([O-])c1[O-]

>  <Energy>  (40) 
33.10178201103405

>  <Genealogy>  (40) 
O=C([N-]Cc1ccc([O-])c(O)c1)c1cccc([O-])c1[O-] (protonated)
O=C([N-]Cc1ccc([O-])c(O)c1)c1cccc([O-])c1[O-] (3D coordinates assigned)
O=C([N-]Cc1ccc([O-])c(O)c1)c1cccc([O-])c1[O-] (optimized conformer: 33.10178201103405 kcal/mol)

>  <smiles>  (40) 
O=C(NCc1ccc(O)c(O)c1)c1cccc(O)c1O

>  <score_type>  (40) 
oracle

>  <origin>  (40) 
adgpu

>  <m_score__min__energy>  (40) 
-13.01

>  <m_primary>  (40) 
energy

$$$$
40:0
     RDKit          3D

 41 42  0  0  0  0  0  0  0  0999 V2000
   -6.4450   16.3270  -33.8690 C   0  0  0  0  0  0  0  0  0  0  0  0
   -7.0000   17.5770  -33.4660 O   0  0  0  0  0  0  0  0  0  0  0  0
   -6.2660   18.7580  -33.2770 C   0  0  0  0  0  0  0  0  0  0  0  0
   -4.8730   18.7800  -33.4700 C   0  0  0  0  0  0  0  0  0  0  0  0
   -4.1410   19.9680  -33.3420 C   0  0  0  0  0  0  0  0  0  0  0  0
   -2.6830   19.9970  -33.6180 C   0  0  0  0  0  0  0  0  0  0  0  0
   -2.2210   19.2960  -34.5580 O   0  0  0  0  0  0  0  0  0  0  0  0
   -1.7780   20.8280  -32.8760 N   0  0  0  0  0  0  0  0  0  0  0  0
   -1.9420   21.2730  -31.5210 C   0  0  0  0  0  0  0  0  0  0  0  0
   -1.5200   20.4390  -30.4790 C   0  0  0  0  0  0  0  0  0  0  0  0
   -1.6260   20.8620  -29.1500 C   0  0  0  0  0  0  0  0  0  0  0  0
   -2.1600   22.1180  -28.8550 C   0  0  0  0  0  0  0  0  0  0  0  0
   -2.6170   22.9480  -29.8870 C   0  0  0  0  0  0  0  0  0  0  0  0
   -3.2530   24.5510  -29.5360 S   0  0  0  0  0  0  0  0  0  0  0  0
   -1.9710   25.5640  -28.9700 N   0  0  0  0  0  0  0  0  0  0  0  0
   -3.8490   25.1420  -30.7840 O   0  0  0  0  0  0  0  0  0  0  0  0
   -4.3220   24.4670  -28.4830 O   0  0  0  0  0  0  0  0  0  0  0  0
   -2.5250   22.5160  -31.2160 C   0  0  0  0  0  0  0  0  0  0  0  0
   -4.8030   21.1360  -32.9480 C   0  0  0  0  0  0  0  0  0  0  0  0
   -6.1900   21.1360  -32.7230 C   0  0  0  0  0  0  0  0  0  0  0  0
   -6.8790   22.2970  -32.3340 O   0  0  0  0  0  0  0  0  0  0  0  0
   -6.3180   23.3490  -31.5550 C   0  0  0  0  0  0  0  0  0  0  0  0
   -6.9290   19.9530  -32.8930 C   0  0  0  0  0  0  0  0  0  0  0  0
   -8.3180   20.0370  -32.6670 O   0  0  0  0  0  0  0  0  0  0  0  0
   -9.1190   19.1050  -31.9510 C   0  0  0  0  0  0  0  0  0  0  0  0
   -6.1833   15.7376  -32.9778 H   0  0  0  0  0  0  0  0  0  0  0  0
   -7.1826   15.7750  -34.4700 H   0  0  0  0  0  0  0  0  0  0  0  0
   -5.5409   16.5040  -34.4700 H   0  0  0  0  0  0  0  0  0  0  0  0
   -4.3486   17.8476  -33.7261 H   0  0  0  0  0  0  0  0  0  0  0  0
   -1.1032   19.4467  -30.7063 H   0  0  0  0  0  0  0  0  0  0  0  0
   -1.2881   20.2041  -28.3358 H   0  0  0  0  0  0  0  0  0  0  0  0
   -2.2220   22.4565  -27.8102 H   0  0  0  0  0  0  0  0  0  0  0  0
   -1.3530   25.7600  -29.7890 H   0  0  0  0  0  0  0  0  0  0  0  0
   -2.9109   23.1525  -32.0259 H   0  0  0  0  0  0  0  0  0  0  0  0
   -4.2307   22.0656  -32.8127 H   0  0  0  0  0  0  0  0  0  0  0  0
   -6.4405   23.1193  -30.4862 H   0  0  0  0  0  0  0  0  0  0  0  0
   -5.2476   23.4475  -31.7885 H   0  0  0  0  0  0  0  0  0  0  0  0
   -6.8326   24.2927  -31.7885 H   0  0  0  0  0  0  0  0  0  0  0  0
   -8.9852   19.2607  -30.8703 H   0  0  0  0  0  0  0  0  0  0  0  0
  -10.1768   19.2522  -32.2145 H   0  0  0  0  0  0  0  0  0  0  0  0
   -8.8145   18.0813  -32.2145 H   0  0  0  0  0  0  0  0  0  0  0  0
  1  2  1  0
  2  3  1  0
  3  4  2  0
  4  5  1  0
  5  6  1  0
  6  7  2  0
  6  8  1  0
  8  9  1  0
  9 10  2  0
 10 11  1  0
 11 12  2  0
 12 13  1  0
 13 14  1  0
 14 15  1  0
 14 16  2  0
 14 17  2  0
 13 18  2  0
  5 19  2  0
 19 20  1  0
 20 21  1  0
 21 22  1  0
 20 23  2  0
 23 24  1  0
 24 25  1  0
 23  3  1  0
 18  9  1  0
  1 26  1  0
  1 27  1  0
  1 28  1  0
  4 29  1  0
 10 30  1  0
 11 31  1  0
 12 32  1  0
 15 33  1  0
 18 34  1  0
 19 35  1  0
 22 36  1  0
 22 37  1  0
 22 38  1  0
 25 39  1  0
 25 40  1  0
 25 41  1  0
M  CHG  2   8  -1  15  -1
M  END
>  <UniqueID>  (41) 
41

>  <SMILES>  (41) 
COc1cc(C(=O)[N-]c2cccc(S([NH-])(=O)=O)c2)cc(OC)c1OC

>  <Energy>  (41) 
47.619934101467095

>  <Genealogy>  (41) 
COc1cc(C(=O)[N-]c2cccc(S([NH-])(=O)=O)c2)cc(OC)c1OC (protonated)
COc1cc(C(=O)[N-]c2cccc(S([NH-])(=O)=O)c2)cc(OC)c1OC (3D coordinates assigned)
COc1cc(C(=O)[N-]c2cccc(S([NH-])(=O)=O)c2)cc(OC)c1OC (optimized conformer: 47.619934101467095 kcal/mol)

>  <smiles>  (41) 
COc1cc(C(=O)Nc2cccc(S(N)(=O)=O)c2)cc(OC)c1OC

>  <score_type>  (41) 
oracle

>  <origin>  (41) 
adgpu

>  <m_score__min__energy>  (41) 
-9.5899999999999999

>  <m_primary>  (41) 
energy

$$$$
41:0
     RDKit          3D

 30 32  0  0  0  0  0  0  0  0999 V2000
   -5.7580   16.4290  -33.5350 C   0  0  0  0  0  0  0  0  0  0  0  0
   -5.7460   16.9680  -32.2450 C   0  0  0  0  0  0  0  0  0  0  0  0
   -5.7110   18.3550  -32.0660 C   0  0  0  0  0  0  0  0  0  0  0  0
   -5.6920   19.2130  -33.1780 C   0  0  0  0  0  0  0  0  0  0  0  0
   -5.6760   20.7090  -32.9940 C   0  0  0  0  0  0  0  0  0  0  0  0
   -6.9950   21.1950  -32.4370 C   0  0  0  0  0  0  0  0  0  0  0  0
   -8.1560   20.4390  -32.6850 C   0  0  0  0  0  0  0  0  0  0  0  0
   -9.3760   20.7970  -32.1080 C   0  0  0  0  0  0  0  0  0  0  0  0
   -9.4520   21.9040  -31.2640 C   0  0  0  0  0  0  0  0  0  0  0  0
   -8.3110   22.6610  -31.0000 C   0  0  0  0  0  0  0  0  0  0  0  0
   -7.0800   22.3280  -31.5890 C   0  0  0  0  0  0  0  0  0  0  0  0
   -5.9360   23.1360  -31.2930 N   0  0  0  0  0  0  0  0  0  0  0  0
   -4.7160   22.7320  -30.9020 C   0  0  0  0  0  0  0  0  0  0  0  0
   -3.8890   23.7920  -30.8390 N   0  0  0  0  0  0  0  0  0  0  0  0
   -4.6240   24.8330  -31.2120 N   0  0  0  0  0  0  0  0  0  0  0  0
   -5.8550   24.4380  -31.4990 N   0  0  0  0  0  0  0  0  0  0  0  0
   -5.7000   18.6610  -34.4710 C   0  0  0  0  0  0  0  0  0  0  0  0
   -5.7340   17.2750  -34.6470 C   0  0  0  0  0  0  0  0  0  0  0  0
   -5.7864   15.3383  -33.6747 H   0  0  0  0  0  0  0  0  0  0  0  0
   -5.7641   16.3011  -31.3704 H   0  0  0  0  0  0  0  0  0  0  0  0
   -5.6983   18.7757  -31.0497 H   0  0  0  0  0  0  0  0  0  0  0  0
   -4.8689   20.9781  -32.2968 H   0  0  0  0  0  0  0  0  0  0  0  0
   -5.5101   21.1831  -33.9726 H   0  0  0  0  0  0  0  0  0  0  0  0
   -8.1017   19.5570  -33.3401 H   0  0  0  0  0  0  0  0  0  0  0  0
  -10.2785   20.2048  -32.3197 H   0  0  0  0  0  0  0  0  0  0  0  0
  -10.4130   22.1806  -30.8058 H   0  0  0  0  0  0  0  0  0  0  0  0
   -8.3755   23.5267  -30.3244 H   0  0  0  0  0  0  0  0  0  0  0  0
   -4.4359   21.6941  -30.6691 H   0  0  0  0  0  0  0  0  0  0  0  0
   -5.6794   19.3236  -35.3488 H   0  0  0  0  0  0  0  0  0  0  0  0
   -5.7419   16.8498  -35.6615 H   0  0  0  0  0  0  0  0  0  0  0  0
  1  2  2  0
  2  3  1  0
  3  4  2  0
  4  5  1  0
  5  6  1  0
  6  7  2  0
  7  8  1  0
  8  9  2  0
  9 10  1  0
 10 11  2  0
 11 12  1  0
 12 13  1  0
 13 14  2  0
 14 15  1  0
 15 16  2  0
  4 17  1  0
 17 18  2  0
 18  1  1  0
 11  6  1  0
 16 12  1  0
  1 19  1  0
  2 20  1  0
  3 21  1  0
  5 22  1  0
  5 23  1  0
  7 24  1  0
  8 25  1  0
  9 26  1  0
 10 27  1  0
 13 28  1  0
 17 29  1  0
 18 30  1  0
M  END
>  <UniqueID>  (42) 
42

>  <SMILES>  (42) 
c1ccc(Cc2ccccc2-n2cnnn2)cc1

>  <Energy>  (42) 
78.2172229587389

>  <Genealogy>  (42) 
c1ccc(Cc2ccccc2-n2cnnn2)cc1 (3D coordinates assigned)
c1ccc(Cc2ccccc2-n2cnnn2)cc1 (optimized conformer: 78.2172229587389 kcal/mol)

>  <smiles>  (42) 
c1ccc(Cc2ccccc2-n2cnnn2)cc1

>  <score_type>  (42) 
oracle

>  <origin>  (42) 
adgpu

>  <m_score__min__energy>  (42) 
-8.4700000000000006

>  <m_primary>  (42) 
energy

$$$$
42:0
     RDKit          3D

 41 42  0  0  0  0  0  0  0  0999 V2000
   -3.1220   25.0080  -31.5340 H   0  0  0  0  0  0  0  0  0  0  0  0
   -3.8570   25.2970  -30.8570 N   0  0  0  0  0  0  0  0  0  0  0  0
   -5.0030   24.7020  -30.7300 C   0  0  0  0  0  0  0  0  0  0  0  0
   -5.9230   25.1220  -29.8380 N   0  0  0  0  0  0  0  0  0  0  0  0
   -6.9460   24.2600  -29.9920 C   0  0  0  0  0  0  0  0  0  0  0  0
   -7.8860   24.2820  -29.4211 H   0  0  0  0  0  0  0  0  0  0  0  0
   -6.6340   23.3460  -30.9750 C   0  0  0  0  0  0  0  0  0  0  0  0
   -7.5010   22.2280  -31.3950 C   0  0  0  0  0  0  0  0  0  0  0  0
   -8.8490   22.4470  -31.7180 C   0  0  0  0  0  0  0  0  0  0  0  0
   -9.2671   23.4631  -31.6651 H   0  0  0  0  0  0  0  0  0  0  0  0
   -9.6630   21.3780  -32.1070 C   0  0  0  0  0  0  0  0  0  0  0  0
  -10.7163   21.5564  -32.3691 H   0  0  0  0  0  0  0  0  0  0  0  0
   -9.1390   20.0830  -32.1630 C   0  0  0  0  0  0  0  0  0  0  0  0
   -9.7783   19.2439  -32.4748 H   0  0  0  0  0  0  0  0  0  0  0  0
   -7.8040   19.8550  -31.8230 C   0  0  0  0  0  0  0  0  0  0  0  0
   -7.3941   18.8350  -31.8620 H   0  0  0  0  0  0  0  0  0  0  0  0
   -6.9870   20.9210  -31.4330 C   0  0  0  0  0  0  0  0  0  0  0  0
   -5.9389   20.7356  -31.1552 H   0  0  0  0  0  0  0  0  0  0  0  0
   -5.3960   23.6180  -31.4480 N   0  0  0  0  0  0  0  0  0  0  0  0
   -4.6090   22.8040  -32.3910 C   0  0  0  0  0  0  0  0  0  0  0  0
   -5.2889   22.3615  -33.1340 H   0  0  0  0  0  0  0  0  0  0  0  0
   -3.8692   23.4583  -32.8753 H   0  0  0  0  0  0  0  0  0  0  0  0
   -3.8530   21.6740  -31.6710 C   0  0  0  0  0  0  0  0  0  0  0  0
   -2.9167   22.0869  -31.2674 H   0  0  0  0  0  0  0  0  0  0  0  0
   -4.5226   21.2941  -30.8853 H   0  0  0  0  0  0  0  0  0  0  0  0
   -3.5040   20.4770  -32.5750 C   0  0  0  0  0  0  0  0  0  0  0  0
   -2.6103   20.7375  -33.1611 H   0  0  0  0  0  0  0  0  0  0  0  0
   -3.3439   19.6165  -31.9088 H   0  0  0  0  0  0  0  0  0  0  0  0
   -4.6210   20.0730  -33.5540 C   0  0  0  0  0  0  0  0  0  0  0  0
   -5.5930   20.2952  -33.0894 H   0  0  0  0  0  0  0  0  0  0  0  0
   -4.4719   20.6455  -34.4814 H   0  0  0  0  0  0  0  0  0  0  0  0
   -4.5810   18.5790  -33.9200 C   0  0  0  0  0  0  0  0  0  0  0  0
   -3.9055   18.4436  -34.7776 H   0  0  0  0  0  0  0  0  0  0  0  0
   -4.2275   18.0272  -33.0365 H   0  0  0  0  0  0  0  0  0  0  0  0
   -5.9670   18.0280  -34.2920 C   0  0  0  0  0  0  0  0  0  0  0  0
   -6.6638   18.8723  -34.3999 H   0  0  0  0  0  0  0  0  0  0  0  0
   -5.8594   17.4660  -35.2315 H   0  0  0  0  0  0  0  0  0  0  0  0
   -6.5220   17.0680  -33.2420 C   0  0  0  0  0  0  0  0  0  0  0  0
   -6.2984   17.4548  -32.2368 H   0  0  0  0  0  0  0  0  0  0  0  0
   -7.6113   16.9784  -33.3664 H   0  0  0  0  0  0  0  0  0  0  0  0
   -6.0561   16.0793  -33.3664 H   0  0  0  0  0  0  0  0  0  0  0  0
  1  2  1  0
  2  3  2  0
  3  4  1  0
  4  5  1  0
  5  6  1  0
  5  7  2  0
  7  8  1  0
  8  9  2  0
  9 10  1  0
  9 11  1  0
 11 12  1  0
 11 13  2  0
 13 14  1  0
 13 15  1  0
 15 16  1  0
 15 17  2  0
 17 18  1  0
  7 19  1  0
 19 20  1  0
 20 21  1  0
 20 22  1  0
 20 23  1  0
 23 24  1  0
 23 25  1  0
 23 26  1  0
 26 27  1  0
 26 28  1  0
 26 29  1  0
 29 30  1  0
 29 31  1  0
 29 32  1  0
 32 33  1  0
 32 34  1  0
 32 35  1  0
 35 36  1  0
 35 37  1  0
 35 38  1  0
 38 39  1  0
 38 40  1  0
 38 41  1  0
 19  3  1  0
 17  8  1  0
M  CHG  1   4  -1
M  END
>  <UniqueID>  (43) 
43

>  <SMILES>  (43) 
[H]/N=c1/[n-]cc(-c2ccccc2)n1CCCCCCC

>  <Energy>  (43) 
68.14990519205502

>  <Genealogy>  (43) 
CCCCCCCn1c(-c2ccccc2)c[n-]c1=N (protonated)
[H]/N=c1/[n-]cc(-c2ccccc2)n1CCCCCCC (cis-trans isomerization)
[H]/N=c1/[n-]cc(-c2ccccc2)n1CCCCCCC (3D coordinates assigned)
[H]/N=c1/[n-]cc(-c2ccccc2)n1CCCCCCC (optimized conformer: 68.14990519205502 kcal/mol)

>  <smiles>  (43) 
CCCCCCCn1c(-c2ccccc2)c[nH]c1=N

>  <score_type>  (43) 
oracle

>  <origin>  (43) 
adgpu

>  <m_score__min__energy>  (43) 
-8.5299999999999994

>  <m_primary>  (43) 
energy

$$$$
43:0
     RDKit          3D

 80 84  0  0  0  0  0  0  0  0999 V2000
   -1.3000   21.2660  -31.9830 C   0  0  0  0  0  0  0  0  0  0  0  0
   -1.5280   19.9070  -32.5740 C   0  0  0  0  0  0  0  0  0  0  0  0
   -2.2610   19.7690  -33.7610 C   0  0  0  0  0  0  0  0  0  0  0  0
   -2.4450   18.5070  -34.3360 C   0  0  0  0  0  0  0  0  0  0  0  0
   -1.9000   17.3660  -33.7270 C   0  0  0  0  0  0  0  0  0  0  0  0
   -2.0760   16.0070  -34.3520 C   0  0  0  0  0  0  0  0  0  0  0  0
   -3.1550   15.2690  -33.6900 N   0  0  0  0  0  0  0  0  0  0  0  0
   -4.5250   15.7170  -33.6790 C   0  0  0  0  0  0  0  0  0  0  0  0
   -5.5620   14.9450  -34.2390 C   0  0  0  0  0  0  0  0  0  0  0  0
   -6.8770   15.4120  -34.2190 C   0  0  0  0  0  0  0  0  0  0  0  0
   -7.1730   16.6450  -33.6420 C   0  0  0  0  0  0  0  0  0  0  0  0
   -6.1550   17.4340  -33.0780 C   0  0  0  0  0  0  0  0  0  0  0  0
   -6.4800   18.7400  -32.4530 C   0  0  0  0  0  0  0  0  0  0  0  0
   -6.8170   18.7810  -31.2390 O   0  0  0  0  0  0  0  0  0  0  0  0
   -6.4490   19.9510  -33.2230 N   0  0  0  0  0  0  0  0  0  0  0  0
   -6.1590   21.2440  -32.6650 C   0  0  0  0  0  0  0  0  0  0  0  0
   -7.1740   22.0420  -32.1080 C   0  0  0  0  0  0  0  0  0  0  0  0
   -6.8590   23.2660  -31.5100 C   0  0  0  0  0  0  0  0  0  0  0  0
   -5.5260   23.7040  -31.4390 C   0  0  0  0  0  0  0  0  0  0  0  0
   -5.1860   24.9600  -30.7340 C   0  0  0  0  0  0  0  0  0  0  0  0
   -6.0920   25.7970  -30.4790 O   0  0  0  0  0  0  0  0  0  0  0  0
   -3.8340   25.2780  -30.3840 N   0  0  0  0  0  0  0  0  0  0  0  0
   -2.9730   24.4040  -29.6460 C   0  0  0  0  0  0  0  0  0  0  0  0
   -1.6640   24.6860  -29.3170 C   0  0  0  0  0  0  0  0  0  0  0  0
   -1.2610   23.6620  -28.4780 C   0  0  0  0  0  0  0  0  0  0  0  0
    0.0610   23.6010  -27.8280 C   0  0  0  0  0  0  0  0  0  0  0  0
    1.0010   24.3200  -28.2680 O   0  0  0  0  0  0  0  0  0  0  0  0
    0.2560   22.7940  -26.6630 N   0  0  0  0  0  0  0  0  0  0  0  0
    0.2700   23.3300  -25.3060 C   0  0  0  0  0  0  0  0  0  0  0  0
   -0.8550   24.3560  -25.1030 C   0  0  0  0  0  0  0  0  0  0  0  0
   -0.3410   25.5720  -24.4220 N   0  0  0  0  0  0  0  0  0  0  0  0
    0.9870   25.9860  -24.9230 C   0  0  0  0  0  0  0  0  0  0  0  0
    0.9050   26.6410  -26.3230 C   0  0  0  0  0  0  0  0  0  0  0  0
   -0.4270   26.7480  -26.7900 O   0  0  0  0  0  0  0  0  0  0  0  0
   -1.2070   27.4570  -25.8480 C   0  0  0  0  0  0  0  0  0  0  0  0
   -1.2850   26.7120  -24.4950 C   0  0  0  0  0  0  0  0  0  0  0  0
   -2.2770   22.7820  -28.2950 N   0  0  0  0  0  0  0  0  0  0  0  0
   -2.2740   21.5720  -27.4740 C   0  0  0  0  0  0  0  0  0  0  0  0
   -3.3310   23.2350  -29.0030 C   0  0  0  0  0  0  0  0  0  0  0  0
   -4.5120   22.8970  -31.9780 C   0  0  0  0  0  0  0  0  0  0  0  0
   -4.8280   21.6790  -32.5880 C   0  0  0  0  0  0  0  0  0  0  0  0
   -4.8340   16.9530  -33.0920 C   0  0  0  0  0  0  0  0  0  0  0  0
   -1.1360   17.5100  -32.5580 C   0  0  0  0  0  0  0  0  0  0  0  0
   -0.9520   18.7720  -31.9860 C   0  0  0  0  0  0  0  0  0  0  0  0
   -1.3119   21.1952  -30.8853 H   0  0  0  0  0  0  0  0  0  0  0  0
   -0.3247   21.6513  -32.3150 H   0  0  0  0  0  0  0  0  0  0  0  0
   -2.0962   21.9485  -32.3150 H   0  0  0  0  0  0  0  0  0  0  0  0
   -2.6939   20.6580  -34.2430 H   0  0  0  0  0  0  0  0  0  0  0  0
   -3.0191   18.4086  -35.2691 H   0  0  0  0  0  0  0  0  0  0  0  0
   -2.3221   16.1284  -35.4172 H   0  0  0  0  0  0  0  0  0  0  0  0
   -1.1393   15.4415  -34.2391 H   0  0  0  0  0  0  0  0  0  0  0  0
   -2.9200   14.3980  -33.1660 H   0  0  0  0  0  0  0  0  0  0  0  0
   -5.3342   13.9698  -34.6940 H   0  0  0  0  0  0  0  0  0  0  0  0
   -7.6816   14.8051  -34.6598 H   0  0  0  0  0  0  0  0  0  0  0  0
   -8.2125   17.0045  -33.6275 H   0  0  0  0  0  0  0  0  0  0  0  0
   -6.7030   19.8940  -34.2350 H   0  0  0  0  0  0  0  0  0  0  0  0
   -8.2196   21.7021  -32.1429 H   0  0  0  0  0  0  0  0  0  0  0  0
   -7.6616   23.8912  -31.0917 H   0  0  0  0  0  0  0  0  0  0  0  0
   -1.0650   25.5457  -29.6517 H   0  0  0  0  0  0  0  0  0  0  0  0
    0.1353   22.5038  -24.5924 H   0  0  0  0  0  0  0  0  0  0  0  0
    1.2343   23.8325  -25.1397 H   0  0  0  0  0  0  0  0  0  0  0  0
   -1.2673   24.6382  -26.0830 H   0  0  0  0  0  0  0  0  0  0  0  0
   -1.6369   23.9035  -24.4755 H   0  0  0  0  0  0  0  0  0  0  0  0
    1.4218   26.7099  -24.2180 H   0  0  0  0  0  0  0  0  0  0  0  0
    1.6122   25.0849  -25.0076 H   0  0  0  0  0  0  0  0  0  0  0  0
    1.3424   27.6488  -26.2680 H   0  0  0  0  0  0  0  0  0  0  0  0
    1.4573   26.0006  -27.0265 H   0  0  0  0  0  0  0  0  0  0  0  0
   -0.7562   28.4470  -25.6846 H   0  0  0  0  0  0  0  0  0  0  0  0
   -2.2275   27.5503  -26.2479 H   0  0  0  0  0  0  0  0  0  0  0  0
   -1.0467   27.4201  -23.6877 H   0  0  0  0  0  0  0  0  0  0  0  0
   -2.3039   26.3106  -24.3917 H   0  0  0  0  0  0  0  0  0  0  0  0
   -2.2747   21.8509  -26.4099 H   0  0  0  0  0  0  0  0  0  0  0  0
   -3.1707   20.9752  -27.6972 H   0  0  0  0  0  0  0  0  0  0  0  0
   -1.3744   20.9797  -27.6972 H   0  0  0  0  0  0  0  0  0  0  0  0
   -4.3174   22.7515  -29.0596 H   0  0  0  0  0  0  0  0  0  0  0  0
   -3.4634   23.2243  -31.9203 H   0  0  0  0  0  0  0  0  0  0  0  0
   -4.0256   21.0567  -33.0111 H   0  0  0  0  0  0  0  0  0  0  0  0
   -4.0326   17.5535  -32.6369 H   0  0  0  0  0  0  0  0  0  0  0  0
   -0.6799   16.6252  -32.0899 H   0  0  0  0  0  0  0  0  0  0  0  0
   -0.3522   18.8752  -31.0697 H   0  0  0  0  0  0  0  0  0  0  0  0
  1  2  1  0
  2  3  2  0
  3  4  1  0
  4  5  2  0
  5  6  1  0
  6  7  1  0
  7  8  1  0
  8  9  2  0
  9 10  1  0
 10 11  2  0
 11 12  1  0
 12 13  1  0
 13 14  2  0
 13 15  1  0
 15 16  1  0
 16 17  2  0
 17 18  1  0
 18 19  2  0
 19 20  1  0
 20 21  2  0
 20 22  1  0
 22 23  1  0
 23 24  1  0
 24 25  2  0
 25 26  1  0
 26 27  2  0
 26 28  1  0
 28 29  1  0
 29 30  1  0
 30 31  1  0
 31 32  1  0
 32 33  1  0
 33 34  1  0
 34 35  1  0
 35 36  1  0
 25 37  1  0
 37 38  1  0
 37 39  1  0
 19 40  1  0
 40 41  2  0
 12 42  2  0
  5 43  1  0
 43 44  2  0
 44  2  1  0
 42  8  1  0
 41 16  1  0
 39 23  2  0
 36 31  1  0
  1 45  1  0
  1 46  1  0
  1 47  1  0
  3 48  1  0
  4 49  1  0
  6 50  1  0
  6 51  1  0
  7 52  1  0
  9 53  1  0
 10 54  1  0
 11 55  1  0
 15 56  1  0
 17 57  1  0
 18 58  1  0
 24 59  1  0
 29 60  1  0
 29 61  1  0
 30 62  1  0
 30 63  1  0
 32 64  1  0
 32 65  1  0
 33 66  1  0
 33 67  1  0
 35 68  1  0
 35 69  1  0
 36 70  1  0
 36 71  1  0
 38 72  1  0
 38 73  1  0
 38 74  1  0
 39 75  1  0
 40 76  1  0
 41 77  1  0
 42 78  1  0
 43 79  1  0
 44 80  1  0
M  CHG  2  22  -1  28  -1
M  END
>  <UniqueID>  (44) 
44

>  <SMILES>  (44) 
Cc1ccc(CNc2cccc(C(=O)Nc3ccc(C(=O)[N-]c4cc(C(=O)[N-]CCN5CCOCC5)n(C)c4)cc3)c2)cc1

>  <Energy>  (44) 
133.78887794617114

>  <Genealogy>  (44) 
Cc1ccc(CNc2cccc(C(=O)Nc3ccc(C(=O)[N-]c4cc(C(=O)[N-]CCN5CCOCC5)n(C)c4)cc3)c2)cc1 (protonated)
Cc1ccc(CNc2cccc(C(=O)Nc3ccc(C(=O)[N-]c4cc(C(=O)[N-]CCN5CCOCC5)n(C)c4)cc3)c2)cc1 (3D coordinates assigned)
Cc1ccc(CNc2cccc(C(=O)Nc3ccc(C(=O)[N-]c4cc(C(=O)[N-]CCN5CCOCC5)n(C)c4)cc3)c2)cc1 (nonaromatic ring conformer: 133.78887794617114 kcal/mol)

>  <smiles>  (44) 
Cc1ccc(CNc2cccc(C(=O)Nc3ccc(C(=O)Nc4cc(C(=O)NCCN5CCOCC5)n(C)c4)cc3)c2)cc1

>  <score_type>  (44) 
oracle

>  <origin>  (44) 
adgpu

>  <m_score__min__energy>  (44) 
-12.27

>  <m_primary>  (44) 
energy

$$$$
44:0
     RDKit          3D

 52 55  0  0  0  0  0  0  0  0999 V2000
   -5.7610   25.6040  -29.6690 O   0  0  0  0  0  0  0  0  0  0  0  0
   -4.8950   25.1500  -30.4600 C   0  0  0  0  0  0  0  0  0  0  0  0
   -5.3270   24.5080  -31.6680 N   0  0  0  0  0  0  0  0  0  0  0  0
   -6.0270   23.2580  -31.7530 C   0  0  0  0  0  0  0  0  0  0  0  0
   -7.4260   23.2640  -31.7460 C   0  0  0  0  0  0  0  0  0  0  0  0
   -8.1370   22.0670  -31.8720 C   0  0  0  0  0  0  0  0  0  0  0  0
   -7.4540   20.8470  -31.9800 C   0  0  0  0  0  0  0  0  0  0  0  0
   -8.3530   19.3360  -32.1630 S   0  0  0  0  0  0  0  0  0  0  0  0
   -9.4690   19.5490  -33.1480 O   0  0  0  0  0  0  0  0  0  0  0  0
   -8.9660   18.9690  -30.8400 O   0  0  0  0  0  0  0  0  0  0  0  0
   -7.3530   18.0130  -32.7140 N   0  0  0  0  0  0  0  0  0  0  0  0
   -6.4790   18.4060  -33.8170 C   0  0  0  0  0  0  0  0  0  0  0  0
   -5.2910   17.4570  -33.7800 C   0  0  0  0  0  0  0  0  0  0  0  0
   -5.2780   16.8820  -32.3710 C   0  0  0  0  0  0  0  0  0  0  0  0
   -6.4630   17.5230  -31.6630 C   0  0  0  0  0  0  0  0  0  0  0  0
   -6.0520   20.8380  -31.9630 C   0  0  0  0  0  0  0  0  0  0  0  0
   -5.3410   22.0360  -31.8390 C   0  0  0  0  0  0  0  0  0  0  0  0
   -3.5070   25.2940  -30.1220 N   0  0  0  0  0  0  0  0  0  0  0  0
   -2.6670   24.3010  -29.5130 C   0  0  0  0  0  0  0  0  0  0  0  0
   -2.2930   24.4640  -28.1730 C   0  0  0  0  0  0  0  0  0  0  0  0
   -1.5140   23.4960  -27.5370 C   0  0  0  0  0  0  0  0  0  0  0  0
   -1.0900   22.3650  -28.2380 C   0  0  0  0  0  0  0  0  0  0  0  0
   -1.4190   22.2050  -29.5890 C   0  0  0  0  0  0  0  0  0  0  0  0
   -1.0010   21.0380  -30.2480 O   0  0  0  0  0  0  0  0  0  0  0  0
   -1.3430   20.6780  -31.5580 C   0  0  0  0  0  0  0  0  0  0  0  0
   -0.4540   20.9830  -32.5970 C   0  0  0  0  0  0  0  0  0  0  0  0
   -0.7690   20.6470  -33.9180 C   0  0  0  0  0  0  0  0  0  0  0  0
   -1.9820   20.0170  -34.2090 C   0  0  0  0  0  0  0  0  0  0  0  0
   -2.8840   19.7280  -33.1820 C   0  0  0  0  0  0  0  0  0  0  0  0
   -2.5710   20.0620  -31.8610 C   0  0  0  0  0  0  0  0  0  0  0  0
   -2.2010   23.1840  -30.2280 C   0  0  0  0  0  0  0  0  0  0  0  0
   -7.9689   24.2149  -31.6409 H   0  0  0  0  0  0  0  0  0  0  0  0
   -9.2368   22.0821  -31.8865 H   0  0  0  0  0  0  0  0  0  0  0  0
   -7.0106   18.3135  -34.7756 H   0  0  0  0  0  0  0  0  0  0  0  0
   -6.1571   19.4532  -33.7182 H   0  0  0  0  0  0  0  0  0  0  0  0
   -5.4159   16.6547  -34.5221 H   0  0  0  0  0  0  0  0  0  0  0  0
   -4.3488   17.9709  -34.0212 H   0  0  0  0  0  0  0  0  0  0  0  0
   -5.3926   15.7884  -32.4004 H   0  0  0  0  0  0  0  0  0  0  0  0
   -4.3302   17.0896  -31.8528 H   0  0  0  0  0  0  0  0  0  0  0  0
   -6.9822   16.7796  -31.0402 H   0  0  0  0  0  0  0  0  0  0  0  0
   -6.1391   18.3394  -31.0007 H   0  0  0  0  0  0  0  0  0  0  0  0
   -5.5092   19.8850  -32.0475 H   0  0  0  0  0  0  0  0  0  0  0  0
   -4.2415   22.0208  -31.8088 H   0  0  0  0  0  0  0  0  0  0  0  0
   -2.6145   25.3586  -27.6196 H   0  0  0  0  0  0  0  0  0  0  0  0
   -1.2334   23.6243  -26.4812 H   0  0  0  0  0  0  0  0  0  0  0  0
   -0.4941   21.5955  -27.7255 H   0  0  0  0  0  0  0  0  0  0  0  0
    0.4965   21.4892  -32.3729 H   0  0  0  0  0  0  0  0  0  0  0  0
   -0.0617   20.8788  -34.7279 H   0  0  0  0  0  0  0  0  0  0  0  0
   -2.2267   19.7485  -35.2473 H   0  0  0  0  0  0  0  0  0  0  0  0
   -3.8411   19.2374  -33.4129 H   0  0  0  0  0  0  0  0  0  0  0  0
   -3.2874   19.8424  -31.0557 H   0  0  0  0  0  0  0  0  0  0  0  0
   -2.4495   23.0749  -31.2940 H   0  0  0  0  0  0  0  0  0  0  0  0
  1  2  2  0
  2  3  1  0
  3  4  1  0
  4  5  2  0
  5  6  1  0
  6  7  2  0
  7  8  1  0
  8  9  2  0
  8 10  2  0
  8 11  1  0
 11 12  1  0
 12 13  1  0
 13 14  1  0
 14 15  1  0
  7 16  1  0
 16 17  2  0
  2 18  1  0
 18 19  1  0
 19 20  2  0
 20 21  1  0
 21 22  2  0
 22 23  1  0
 23 24  1  0
 24 25  1  0
 25 26  2  0
 26 27  1  0
 27 28  2  0
 28 29  1  0
 29 30  2  0
 23 31  2  0
 17  4  1  0
 31 19  1  0
 15 11  1  0
 30 25  1  0
  5 32  1  0
  6 33  1  0
 12 34  1  0
 12 35  1  0
 13 36  1  0
 13 37  1  0
 14 38  1  0
 14 39  1  0
 15 40  1  0
 15 41  1  0
 16 42  1  0
 17 43  1  0
 20 44  1  0
 21 45  1  0
 22 46  1  0
 26 47  1  0
 27 48  1  0
 28 49  1  0
 29 50  1  0
 30 51  1  0
 31 52  1  0
M  CHG  2   3  -1  18  -1
M  END
>  <UniqueID>  (45) 
45

>  <SMILES>  (45) 
O=C([N-]c1ccc(S(=O)(=O)N2CCCC2)cc1)[N-]c1cccc(Oc2ccccc2)c1

>  <Energy>  (45) 
69.10513214351083

>  <Genealogy>  (45) 
O=C([N-]c1ccc(S(=O)(=O)N2CCCC2)cc1)[N-]c1cccc(Oc2ccccc2)c1 (protonated)
O=C([N-]c1ccc(S(=O)(=O)N2CCCC2)cc1)[N-]c1cccc(Oc2ccccc2)c1 (3D coordinates assigned)
O=C([N-]c1ccc(S(=O)(=O)N2CCCC2)cc1)[N-]c1cccc(Oc2ccccc2)c1 (nonaromatic ring conformer: 69.10513214351083 kcal/mol)

>  <smiles>  (45) 
O=C(Nc1ccc(S(=O)(=O)N2CCCC2)cc1)Nc1cccc(Oc2ccccc2)c1

>  <score_type>  (45) 
oracle

>  <origin>  (45) 
adgpu

>  <m_score__min__energy>  (45) 
-12.49

>  <m_primary>  (45) 
energy

$$$$
45:0
     RDKit          3D

 44 46  0  0  0  0  0  0  0  0999 V2000
   -3.0980   19.9880  -27.2650 C   0  0  0  0  0  0  0  0  0  0  0  0
   -2.5100   21.0700  -28.1130 C   0  0  0  0  0  0  0  0  0  0  0  0
   -1.1160   20.9030  -29.0350 S   0  0  0  0  0  0  0  0  0  0  0  0
   -1.0740   22.4820  -29.6030 C   0  0  0  0  0  0  0  0  0  0  0  0
   -2.1660   23.1720  -29.0830 C   0  0  0  0  0  0  0  0  0  0  0  0
   -2.4220   24.5850  -29.4370 C   0  0  0  0  0  0  0  0  0  0  0  0
   -1.6780   25.4780  -28.9560 O   0  0  0  0  0  0  0  0  0  0  0  0
   -3.4980   24.9760  -30.3000 N   0  0  0  0  0  0  0  0  0  0  0  0
   -4.6820   24.2160  -30.5790 C   0  0  0  0  0  0  0  0  0  0  0  0
   -5.9670   24.7760  -30.4660 C   0  0  0  0  0  0  0  0  0  0  0  0
   -7.0980   24.0070  -30.7500 C   0  0  0  0  0  0  0  0  0  0  0  0
   -6.9630   22.6650  -31.1290 C   0  0  0  0  0  0  0  0  0  0  0  0
   -8.3950   21.6940  -31.4820 S   0  0  0  0  0  0  0  0  0  0  0  0
   -9.3290   22.4900  -32.3520 O   0  0  0  0  0  0  0  0  0  0  0  0
   -9.1100   21.3870  -30.1960 O   0  0  0  0  0  0  0  0  0  0  0  0
   -7.9880   20.2000  -32.2870 N   0  0  0  0  0  0  0  0  0  0  0  0
   -7.5360   19.1950  -31.3130 C   0  0  0  0  0  0  0  0  0  0  0  0
   -7.2050   17.8730  -32.0370 C   0  0  0  0  0  0  0  0  0  0  0  0
   -7.2430   18.0100  -33.4480 O   0  0  0  0  0  0  0  0  0  0  0  0
   -6.4170   19.0840  -33.8490 C   0  0  0  0  0  0  0  0  0  0  0  0
   -6.9460   20.4270  -33.3030 C   0  0  0  0  0  0  0  0  0  0  0  0
   -5.6840   22.0980  -31.2160 C   0  0  0  0  0  0  0  0  0  0  0  0
   -4.5520   22.8680  -30.9340 C   0  0  0  0  0  0  0  0  0  0  0  0
   -2.9590   22.3880  -28.2090 C   0  0  0  0  0  0  0  0  0  0  0  0
   -4.1500   22.8980  -27.4450 C   0  0  0  0  0  0  0  0  0  0  0  0
   -2.9613   20.2395  -26.2029 H   0  0  0  0  0  0  0  0  0  0  0  0
   -4.1718   19.8931  -27.4841 H   0  0  0  0  0  0  0  0  0  0  0  0
   -2.5935   19.0354  -27.4841 H   0  0  0  0  0  0  0  0  0  0  0  0
   -0.3106   22.9019  -30.2745 H   0  0  0  0  0  0  0  0  0  0  0  0
   -6.0820   25.8241  -30.1526 H   0  0  0  0  0  0  0  0  0  0  0  0
   -8.0990   24.4570  -30.6758 H   0  0  0  0  0  0  0  0  0  0  0  0
   -6.6364   19.5643  -30.7988 H   0  0  0  0  0  0  0  0  0  0  0  0
   -8.3363   19.0157  -30.5800 H   0  0  0  0  0  0  0  0  0  0  0  0
   -6.1966   17.5493  -31.7397 H   0  0  0  0  0  0  0  0  0  0  0  0
   -7.9649   17.1315  -31.7495 H   0  0  0  0  0  0  0  0  0  0  0  0
   -5.3994   18.9166  -33.4663 H   0  0  0  0  0  0  0  0  0  0  0  0
   -6.4145   19.1308  -34.9480 H   0  0  0  0  0  0  0  0  0  0  0  0
   -6.1141   20.9854  -32.8490 H   0  0  0  0  0  0  0  0  0  0  0  0
   -7.3809   21.0009  -34.1345 H   0  0  0  0  0  0  0  0  0  0  0  0
   -5.5707   21.0433  -31.5072 H   0  0  0  0  0  0  0  0  0  0  0  0
   -3.5527   22.4119  -30.9914 H   0  0  0  0  0  0  0  0  0  0  0  0
   -3.9561   22.8150  -26.3654 H   0  0  0  0  0  0  0  0  0  0  0  0
   -4.3289   23.9516  -27.7054 H   0  0  0  0  0  0  0  0  0  0  0  0
   -5.0360   22.3004  -27.7054 H   0  0  0  0  0  0  0  0  0  0  0  0
  1  2  1  0
  2  3  1  0
  3  4  1  0
  4  5  2  0
  5  6  1  0
  6  7  2  0
  6  8  1  0
  8  9  1  0
  9 10  2  0
 10 11  1  0
 11 12  2  0
 12 13  1  0
 13 14  2  0
 13 15  2  0
 13 16  1  0
 16 17  1  0
 17 18  1  0
 18 19  1  0
 19 20  1  0
 20 21  1  0
 12 22  1  0
 22 23  2  0
  5 24  1  0
 24 25  1  0
 24  2  2  0
 23  9  1  0
 21 16  1  0
  1 26  1  0
  1 27  1  0
  1 28  1  0
  4 29  1  0
 10 30  1  0
 11 31  1  0
 17 32  1  0
 17 33  1  0
 18 34  1  0
 18 35  1  0
 20 36  1  0
 20 37  1  0
 21 38  1  0
 21 39  1  0
 22 40  1  0
 23 41  1  0
 25 42  1  0
 25 43  1  0
 25 44  1  0
M  CHG  1   8  -1
M  END
>  <UniqueID>  (46) 
46

>  <SMILES>  (46) 
Cc1scc(C(=O)[N-]c2ccc(S(=O)(=O)N3CCOCC3)cc2)c1C

>  <Energy>  (46) 
83.53300688002786

>  <Genealogy>  (46) 
Cc1scc(C(=O)[N-]c2ccc(S(=O)(=O)N3CCOCC3)cc2)c1C (protonated)
Cc1scc(C(=O)[N-]c2ccc(S(=O)(=O)N3CCOCC3)cc2)c1C (3D coordinates assigned)
Cc1scc(C(=O)[N-]c2ccc(S(=O)(=O)N3CCOCC3)cc2)c1C (nonaromatic ring conformer: 83.53300688002786 kcal/mol)

>  <smiles>  (46) 
Cc1scc(C(=O)Nc2ccc(S(=O)(=O)N3CCOCC3)cc2)c1C

>  <score_type>  (46) 
oracle

>  <origin>  (46) 
adgpu

>  <m_score__min__energy>  (46) 
-10.73

>  <m_primary>  (46) 
energy

$$$$
46:0
     RDKit          3D

 46 48  0  0  0  0  0  0  0  0999 V2000
   -1.0030   23.0150  -30.1150 C   0  0  0  0  0  0  0  0  0  0  0  0
   -1.1270   23.9740  -28.9780 C   0  0  0  0  0  0  0  0  0  0  0  0
   -0.0720   24.5450  -28.3600 N   0  0  0  0  0  0  0  0  0  0  0  0
   -0.5310   25.2060  -27.3060 N   0  0  0  0  0  0  0  0  0  0  0  0
    0.3300   25.9050  -26.3610 C   0  0  0  0  0  0  0  0  0  0  0  0
   -1.8710   25.0560  -27.2160 C   0  0  0  0  0  0  0  0  0  0  0  0
   -2.7280   25.5840  -26.1060 C   0  0  0  0  0  0  0  0  0  0  0  0
   -2.2780   24.2650  -28.2710 C   0  0  0  0  0  0  0  0  0  0  0  0
   -3.5680   23.6830  -28.4750 N   0  0  0  0  0  0  0  0  0  0  0  0
   -4.4730   24.0800  -29.8980 S   0  0  0  0  0  0  0  0  0  0  0  0
   -3.8580   25.2820  -30.5600 O   0  0  0  0  0  0  0  0  0  0  0  0
   -5.8940   24.4080  -29.5390 O   0  0  0  0  0  0  0  0  0  0  0  0
   -4.4210   22.7110  -31.0000 C   0  0  0  0  0  0  0  0  0  0  0  0
   -5.1530   22.7280  -32.1890 C   0  0  0  0  0  0  0  0  0  0  0  0
   -5.2150   21.6150  -32.9620 N   0  0  0  0  0  0  0  0  0  0  0  0
   -4.5660   20.4720  -32.6090 C   0  0  0  0  0  0  0  0  0  0  0  0
   -4.6990   19.2840  -33.4140 N   0  0  0  0  0  0  0  0  0  0  0  0
   -3.5940   18.3230  -33.4740 C   0  0  0  0  0  0  0  0  0  0  0  0
   -5.9680   18.9980  -34.1000 C   0  0  0  0  0  0  0  0  0  0  0  0
   -7.0970   19.0280  -33.1170 C   0  0  0  0  0  0  0  0  0  0  0  0
   -7.9800   20.0810  -32.9160 C   0  0  0  0  0  0  0  0  0  0  0  0
   -8.8720   19.8580  -31.8610 C   0  0  0  0  0  0  0  0  0  0  0  0
   -8.6880   18.6380  -31.2230 C   0  0  0  0  0  0  0  0  0  0  0  0
   -7.4110   17.8370  -31.9720 S   0  0  0  0  0  0  0  0  0  0  0  0
   -3.8310   20.4460  -31.4630 N   0  0  0  0  0  0  0  0  0  0  0  0
   -3.7460   21.5360  -30.6570 C   0  0  0  0  0  0  0  0  0  0  0  0
   -0.8712   21.9959  -29.7224 H   0  0  0  0  0  0  0  0  0  0  0  0
   -1.9139   23.0560  -30.7303 H   0  0  0  0  0  0  0  0  0  0  0  0
   -0.1325   23.2863  -30.7303 H   0  0  0  0  0  0  0  0  0  0  0  0
    0.0245   25.6570  -25.3338 H   0  0  0  0  0  0  0  0  0  0  0  0
    1.3739   25.5956  -26.5179 H   0  0  0  0  0  0  0  0  0  0  0  0
    0.2417   26.9902  -26.5179 H   0  0  0  0  0  0  0  0  0  0  0  0
   -2.2836   25.3102  -25.1377 H   0  0  0  0  0  0  0  0  0  0  0  0
   -2.7936   26.6794  -26.1827 H   0  0  0  0  0  0  0  0  0  0  0  0
   -3.7359   25.1500  -26.1827 H   0  0  0  0  0  0  0  0  0  0  0  0
   -4.1140   23.3940  -27.6340 H   0  0  0  0  0  0  0  0  0  0  0  0
   -5.6789   23.6432  -32.4986 H   0  0  0  0  0  0  0  0  0  0  0  0
   -3.2855   18.0547  -32.4528 H   0  0  0  0  0  0  0  0  0  0  0  0
   -3.9230   17.4188  -34.0071 H   0  0  0  0  0  0  0  0  0  0  0  0
   -2.7442   18.7742  -34.0071 H   0  0  0  0  0  0  0  0  0  0  0  0
   -6.1412   19.7565  -34.8776 H   0  0  0  0  0  0  0  0  0  0  0  0
   -5.9143   17.9999  -34.5593 H   0  0  0  0  0  0  0  0  0  0  0  0
   -7.9784   20.9974  -33.5244 H   0  0  0  0  0  0  0  0  0  0  0  0
   -9.6462   20.5811  -31.5648 H   0  0  0  0  0  0  0  0  0  0  0  0
   -9.2761   18.2600  -30.3737 H   0  0  0  0  0  0  0  0  0  0  0  0
   -3.1467   21.4941  -29.7355 H   0  0  0  0  0  0  0  0  0  0  0  0
  1  2  1  0
  2  3  2  0
  3  4  1  0
  4  5  1  0
  4  6  1  0
  6  7  1  0
  6  8  2  0
  8  9  1  0
  9 10  1  0
 10 11  2  0
 10 12  2  0
 10 13  1  0
 13 14  2  0
 14 15  1  0
 15 16  2  0
 16 17  1  0
 17 18  1  0
 17 19  1  0
 19 20  1  0
 20 21  2  0
 21 22  1  0
 22 23  2  0
 23 24  1  0
 16 25  1  0
 25 26  2  0
  8  2  1  0
 26 13  1  0
 24 20  1  0
  1 27  1  0
  1 28  1  0
  1 29  1  0
  5 30  1  0
  5 31  1  0
  5 32  1  0
  7 33  1  0
  7 34  1  0
  7 35  1  0
  9 36  1  0
 14 37  1  0
 18 38  1  0
 18 39  1  0
 18 40  1  0
 19 41  1  0
 19 42  1  0
 21 43  1  0
 22 44  1  0
 23 45  1  0
 26 46  1  0
M  END
>  <UniqueID>  (47) 
47

>  <SMILES>  (47) 
Cc1nn(C)c(C)c1NS(=O)(=O)c1cnc(N(C)Cc2cccs2)nc1

>  <Energy>  (47) 
103.60142845549801

>  <Genealogy>  (47) 
Cc1nn(C)c(C)c1NS(=O)(=O)c1cnc(N(C)Cc2cccs2)nc1 (3D coordinates assigned)
Cc1nn(C)c(C)c1NS(=O)(=O)c1cnc(N(C)Cc2cccs2)nc1 (optimized conformer: 103.60142845549801 kcal/mol)

>  <smiles>  (47) 
Cc1nn(C)c(C)c1NS(=O)(=O)c1cnc(N(C)Cc2cccs2)nc1

>  <score_type>  (47) 
oracle

>  <origin>  (47) 
adgpu

>  <m_score__min__energy>  (47) 
-9.1699999999999999

>  <m_primary>  (47) 
energy

$$$$
47:0
     RDKit          3D

 44 47  0  0  0  0  0  0  0  0999 V2000
   -5.2220   14.4950  -34.2690 C   0  0  0  0  0  0  0  0  0  0  0  0
   -4.6060   15.4980  -32.9360 S   0  0  0  0  0  0  0  0  0  0  0  0
   -3.1940   15.9210  -33.2340 O   0  0  0  0  0  0  0  0  0  0  0  0
   -4.6110   14.7000  -31.6630 O   0  0  0  0  0  0  0  0  0  0  0  0
   -5.6280   16.9200  -32.7560 C   0  0  0  0  0  0  0  0  0  0  0  0
   -5.6580   17.8970  -33.7600 C   0  0  0  0  0  0  0  0  0  0  0  0
   -6.4820   19.0160  -33.6280 C   0  0  0  0  0  0  0  0  0  0  0  0
   -7.3030   19.1640  -32.4970 C   0  0  0  0  0  0  0  0  0  0  0  0
   -8.1550   20.3140  -32.3550 N   0  0  0  0  0  0  0  0  0  0  0  0
   -9.4500   20.3960  -32.7140 C   0  0  0  0  0  0  0  0  0  0  0  0
   -9.9920   21.5650  -32.3230 N   0  0  0  0  0  0  0  0  0  0  0  0
   -9.0390   22.2520  -31.7110 N   0  0  0  0  0  0  0  0  0  0  0  0
   -7.9250   21.4940  -31.7340 C   0  0  0  0  0  0  0  0  0  0  0  0
   -6.6270   21.9600  -31.2010 C   0  0  0  0  0  0  0  0  0  0  0  0
   -5.4350   21.7410  -31.9100 C   0  0  0  0  0  0  0  0  0  0  0  0
   -4.2150   22.1930  -31.3990 C   0  0  0  0  0  0  0  0  0  0  0  0
   -4.1650   22.8850  -30.1760 C   0  0  0  0  0  0  0  0  0  0  0  0
   -2.8680   23.3620  -29.6310 C   0  0  0  0  0  0  0  0  0  0  0  0
   -1.7020   22.5860  -29.7800 C   0  0  0  0  0  0  0  0  0  0  0  0
   -0.4830   23.0360  -29.2650 C   0  0  0  0  0  0  0  0  0  0  0  0
   -0.4110   24.2620  -28.5990 C   0  0  0  0  0  0  0  0  0  0  0  0
   -1.5610   25.0410  -28.4460 C   0  0  0  0  0  0  0  0  0  0  0  0
   -2.7830   24.5950  -28.9570 C   0  0  0  0  0  0  0  0  0  0  0  0
   -5.3650   23.1250  -29.4820 C   0  0  0  0  0  0  0  0  0  0  0  0
   -6.5830   22.6720  -29.9940 C   0  0  0  0  0  0  0  0  0  0  0  0
   -7.2630   18.1900  -31.4880 C   0  0  0  0  0  0  0  0  0  0  0  0
   -6.4360   17.0700  -31.6210 C   0  0  0  0  0  0  0  0  0  0  0  0
   -5.7559   13.6258  -33.8574 H   0  0  0  0  0  0  0  0  0  0  0  0
   -5.9109   15.0894  -34.8871 H   0  0  0  0  0  0  0  0  0  0  0  0
   -4.3803   14.1494  -34.8871 H   0  0  0  0  0  0  0  0  0  0  0  0
   -5.0298   17.7817  -34.6556 H   0  0  0  0  0  0  0  0  0  0  0  0
   -6.4888   19.7861  -34.4134 H   0  0  0  0  0  0  0  0  0  0  0  0
   -9.9950   19.6095  -33.2567 H   0  0  0  0  0  0  0  0  0  0  0  0
   -5.4614   21.2106  -32.8733 H   0  0  0  0  0  0  0  0  0  0  0  0
   -3.2864   22.0058  -31.9582 H   0  0  0  0  0  0  0  0  0  0  0  0
   -1.7510   21.6204  -30.3046 H   0  0  0  0  0  0  0  0  0  0  0  0
    0.4225   22.4229  -29.3845 H   0  0  0  0  0  0  0  0  0  0  0  0
    0.5500   24.6137  -28.1955 H   0  0  0  0  0  0  0  0  0  0  0  0
   -1.5044   26.0068  -27.9225 H   0  0  0  0  0  0  0  0  0  0  0  0
   -3.6850   25.2120  -28.8316 H   0  0  0  0  0  0  0  0  0  0  0  0
   -5.3439   23.6736  -28.5288 H   0  0  0  0  0  0  0  0  0  0  0  0
   -7.5149   22.8754  -29.4460 H   0  0  0  0  0  0  0  0  0  0  0  0
   -7.8848   18.3078  -30.5883 H   0  0  0  0  0  0  0  0  0  0  0  0
   -6.4198   16.3040  -30.8317 H   0  0  0  0  0  0  0  0  0  0  0  0
  1  2  1  0
  2  3  2  0
  2  4  2  0
  2  5  1  0
  5  6  2  0
  6  7  1  0
  7  8  2  0
  8  9  1  0
  9 10  1  0
 10 11  2  0
 11 12  1  0
 12 13  2  0
 13 14  1  0
 14 15  2  0
 15 16  1  0
 16 17  2  0
 17 18  1  0
 18 19  2  0
 19 20  1  0
 20 21  2  0
 21 22  1  0
 22 23  2  0
 17 24  1  0
 24 25  2  0
  8 26  1  0
 26 27  2  0
 27  5  1  0
 13  9  1  0
 25 14  1  0
 23 18  1  0
  1 28  1  0
  1 29  1  0
  1 30  1  0
  6 31  1  0
  7 32  1  0
 10 33  1  0
 15 34  1  0
 16 35  1  0
 19 36  1  0
 20 37  1  0
 21 38  1  0
 22 39  1  0
 23 40  1  0
 24 41  1  0
 25 42  1  0
 26 43  1  0
 27 44  1  0
M  END
>  <UniqueID>  (48) 
48

>  <SMILES>  (48) 
CS(=O)(=O)c1ccc(-n2cnnc2-c2ccc(-c3ccccc3)cc2)cc1

>  <Energy>  (48) 
94.3627786703919

>  <Genealogy>  (48) 
CS(=O)(=O)c1ccc(-n2cnnc2-c2ccc(-c3ccccc3)cc2)cc1 (3D coordinates assigned)
CS(=O)(=O)c1ccc(-n2cnnc2-c2ccc(-c3ccccc3)cc2)cc1 (optimized conformer: 94.3627786703919 kcal/mol)

>  <smiles>  (48) 
CS(=O)(=O)c1ccc(-n2cnnc2-c2ccc(-c3ccccc3)cc2)cc1

>  <score_type>  (48) 
oracle

>  <origin>  (48) 
adgpu

>  <m_score__min__energy>  (48) 
-9.1699999999999999

>  <m_primary>  (48) 
energy

$$$$
48:0
     RDKit          3D

 58 61  0  0  0  0  0  0  0  0999 V2000
    0.5580   24.0170  -27.6900 C   0  0  0  0  0  0  0  0  0  0  0  0
   -0.8010   24.3180  -28.2330 C   0  0  0  0  0  0  0  0  0  0  0  0
   -1.0730   25.3610  -29.0460 N   0  0  0  0  0  0  0  0  0  0  0  0
   -2.3440   25.3020  -29.3300 O   0  0  0  0  0  0  0  0  0  0  0  0
   -2.9030   24.2710  -28.7400 C   0  0  0  0  0  0  0  0  0  0  0  0
   -4.1520   23.9390  -28.8480 N   0  0  0  0  0  0  0  0  0  0  0  0
   -5.2920   24.8220  -29.8120 S   0  0  0  0  0  0  0  0  0  0  0  0
   -4.5770   25.6560  -30.8380 O   0  0  0  0  0  0  0  0  0  0  0  0
   -6.0650   25.7410  -28.9080 O   0  0  0  0  0  0  0  0  0  0  0  0
   -6.3870   23.7000  -30.6160 C   0  0  0  0  0  0  0  0  0  0  0  0
   -7.3980   23.0470  -29.8970 C   0  0  0  0  0  0  0  0  0  0  0  0
   -8.2620   22.1600  -30.5450 C   0  0  0  0  0  0  0  0  0  0  0  0
   -8.1200   21.9030  -31.9130 C   0  0  0  0  0  0  0  0  0  0  0  0
   -9.0450   21.0110  -32.5510 N   0  0  0  0  0  0  0  0  0  0  0  0
   -8.9500   19.5810  -32.5920 C   0  0  0  0  0  0  0  0  0  0  0  0
   -9.8840   18.9290  -33.1290 O   0  0  0  0  0  0  0  0  0  0  0  0
   -7.8400   18.8590  -31.9340 C   0  0  0  0  0  0  0  0  0  0  0  0
   -8.1090   18.0380  -31.0150 O   0  0  0  0  0  0  0  0  0  0  0  0
   -6.4280   19.0450  -32.3470 C   0  0  0  0  0  0  0  0  0  0  0  0
   -5.5690   19.9000  -31.6320 C   0  0  0  0  0  0  0  0  0  0  0  0
   -4.2380   20.0570  -32.0250 C   0  0  0  0  0  0  0  0  0  0  0  0
   -3.7410   19.3650  -33.1380 C   0  0  0  0  0  0  0  0  0  0  0  0
   -2.0550   19.5620  -33.6310 S   0  0  0  0  0  0  0  0  0  0  0  0
   -1.4830   18.2140  -33.9700 O   0  0  0  0  0  0  0  0  0  0  0  0
   -2.0050   20.4120  -34.8710 O   0  0  0  0  0  0  0  0  0  0  0  0
   -1.0680   20.3060  -32.3950 N   0  0  0  0  0  0  0  0  0  0  0  0
   -1.5170   21.6580  -32.0730 C   0  0  0  0  0  0  0  0  0  0  0  0
   -1.0560   21.9360  -30.6500 C   0  0  0  0  0  0  0  0  0  0  0  0
   -0.7910   20.5670  -30.0370 C   0  0  0  0  0  0  0  0  0  0  0  0
   -1.1170   19.5660  -31.1360 C   0  0  0  0  0  0  0  0  0  0  0  0
   -4.5860   18.4940  -33.8390 C   0  0  0  0  0  0  0  0  0  0  0  0
   -5.9170   18.3330  -33.4460 C   0  0  0  0  0  0  0  0  0  0  0  0
   -7.1240   22.5790  -32.6390 C   0  0  0  0  0  0  0  0  0  0  0  0
   -6.2600   23.4660  -31.9910 C   0  0  0  0  0  0  0  0  0  0  0  0
   -1.9590   23.6010  -27.9970 C   0  0  0  0  0  0  0  0  0  0  0  0
   -2.1160   22.3230  -27.2340 C   0  0  0  0  0  0  0  0  0  0  0  0
    0.5235   24.0246  -26.5906 H   0  0  0  0  0  0  0  0  0  0  0  0
    0.8813   23.0255  -28.0398 H   0  0  0  0  0  0  0  0  0  0  0  0
    1.2697   24.7793  -28.0398 H   0  0  0  0  0  0  0  0  0  0  0  0
   -7.5116   23.2335  -28.8189 H   0  0  0  0  0  0  0  0  0  0  0  0
   -9.0594   21.6603  -29.9754 H   0  0  0  0  0  0  0  0  0  0  0  0
   -5.9485   20.4486  -30.7573 H   0  0  0  0  0  0  0  0  0  0  0  0
   -3.5759   20.7277  -31.4577 H   0  0  0  0  0  0  0  0  0  0  0  0
   -1.0677   22.3835  -32.7671 H   0  0  0  0  0  0  0  0  0  0  0  0
   -2.6097   21.7474  -32.1629 H   0  0  0  0  0  0  0  0  0  0  0  0
   -0.1370   22.5404  -30.6542 H   0  0  0  0  0  0  0  0  0  0  0  0
   -1.8072   22.5017  -30.0793 H   0  0  0  0  0  0  0  0  0  0  0  0
    0.2628   20.4776  -29.7344 H   0  0  0  0  0  0  0  0  0  0  0  0
   -1.3964   20.3973  -29.1344 H   0  0  0  0  0  0  0  0  0  0  0  0
   -0.3754   18.7536  -31.1430 H   0  0  0  0  0  0  0  0  0  0  0  0
   -2.1056   19.1096  -30.9796 H   0  0  0  0  0  0  0  0  0  0  0  0
   -4.1992   17.9341  -34.7033 H   0  0  0  0  0  0  0  0  0  0  0  0
   -6.5702   17.6436  -34.0010 H   0  0  0  0  0  0  0  0  0  0  0  0
   -7.0243   22.4092  -33.7212 H   0  0  0  0  0  0  0  0  0  0  0  0
   -5.4761   23.9831  -32.5639 H   0  0  0  0  0  0  0  0  0  0  0  0
   -2.0900   22.5347  -26.1549 H   0  0  0  0  0  0  0  0  0  0  0  0
   -3.0781   21.8570  -27.4932 H   0  0  0  0  0  0  0  0  0  0  0  0
   -1.2953   21.6380  -27.4932 H   0  0  0  0  0  0  0  0  0  0  0  0
  1  2  1  0
  2  3  1  0
  3  4  1  0
  4  5  1  0
  5  6  2  3
  6  7  1  0
  7  8  2  0
  7  9  2  0
  7 10  1  0
 10 11  2  0
 11 12  1  0
 12 13  2  0
 13 14  1  0
 14 15  1  0
 15 16  2  0
 15 17  1  0
 17 18  2  0
 17 19  1  0
 19 20  2  0
 20 21  1  0
 21 22  2  0
 22 23  1  0
 23 24  2  0
 23 25  2  0
 23 26  1  0
 26 27  1  0
 27 28  1  0
 28 29  1  0
 29 30  1  0
 22 31  1  0
 31 32  2  0
 13 33  1  0
 33 34  2  0
  5 35  1  0
 35 36  1  0
 35  2  2  0
 34 10  1  0
 32 19  1  0
 30 26  1  0
  1 37  1  0
  1 38  1  0
  1 39  1  0
 11 40  1  0
 12 41  1  0
 20 42  1  0
 21 43  1  0
 27 44  1  0
 27 45  1  0
 28 46  1  0
 28 47  1  0
 29 48  1  0
 29 49  1  0
 30 50  1  0
 30 51  1  0
 31 52  1  0
 32 53  1  0
 33 54  1  0
 34 55  1  0
 36 56  1  0
 36 57  1  0
 36 58  1  0
M  CHG  2   3  -1  14  -1
M  END
>  <UniqueID>  (49) 
49

>  <SMILES>  (49) 
Cc1[n-]oc(=NS(=O)(=O)c2ccc([N-]C(=O)C(=O)c3ccc(S(=O)(=O)N4CCCC4)cc3)cc2)c1C

>  <Energy>  (49) 
103.85280305467532

>  <Genealogy>  (49) 
Cc1[n-]oc(=NS(=O)(=O)c2ccc([N-]C(=O)C(=O)c3ccc(S(=O)(=O)N4CCCC4)cc3)cc2)c1C (protonated)
Cc1[n-]oc(=NS(=O)(=O)c2ccc([N-]C(=O)C(=O)c3ccc(S(=O)(=O)N4CCCC4)cc3)cc2)c1C (3D coordinates assigned)
Cc1[n-]oc(=NS(=O)(=O)c2ccc([N-]C(=O)C(=O)c3ccc(S(=O)(=O)N4CCCC4)cc3)cc2)c1C (nonaromatic ring conformer: 103.85280305467532 kcal/mol)

>  <smiles>  (49) 
Cc1[nH]oc(=NS(=O)(=O)c2ccc(NC(=O)C(=O)c3ccc(S(=O)(=O)N4CCCC4)cc3)cc2)c1C

>  <score_type>  (49) 
oracle

>  <origin>  (49) 
adgpu

>  <m_score__min__energy>  (49) 
-14.25

>  <m_primary>  (49) 
energy

$$$$
