0:0
     RDKit          3D

 54 57  0  0  0  0  0  0  0  0999 V2000
    3.1400   16.2170  -28.4400 O   0  0  0  0  0  0  0  0  0  0  0  0
    2.7710   17.2780  -29.0100 C   0  0  0  0  0  0  0  0  0  0  0  0
    2.5100   18.4380  -28.2150 N   0  0  0  0  0  0  0  0  0  0  0  0
    1.2510   19.1170  -28.1240 C   0  0  0  0  0  0  0  0  0  0  0  0
    1.1550   20.5130  -28.2560 C   0  0  0  0  0  0  0  0  0  0  0  0
   -0.0910   21.1430  -28.1710 C   0  0  0  0  0  0  0  0  0  0  0  0
   -1.2570   20.3890  -27.9530 C   0  0  0  0  0  0  0  0  0  0  0  0
   -2.5810   21.0470  -27.8580 C   0  0  0  0  0  0  0  0  0  0  0  0
   -3.4480   20.5470  -27.0900 O   0  0  0  0  0  0  0  0  0  0  0  0
   -2.9220   22.2670  -28.6330 C   0  0  0  0  0  0  0  0  0  0  0  0
   -4.0520   22.2750  -29.4730 C   0  0  0  0  0  0  0  0  0  0  0  0
   -4.3660   23.4080  -30.2300 C   0  0  0  0  0  0  0  0  0  0  0  0
   -3.5560   24.5430  -30.1640 C   0  0  0  0  0  0  0  0  0  0  0  0
   -3.8720   25.6650  -30.9210 O   0  0  0  0  0  0  0  0  0  0  0  0
   -2.4240   24.5470  -29.3400 C   0  0  0  0  0  0  0  0  0  0  0  0
   -1.6080   25.6720  -29.2770 O   0  0  0  0  0  0  0  0  0  0  0  0
   -2.1060   23.4150  -28.5830 C   0  0  0  0  0  0  0  0  0  0  0  0
   -1.1490   19.0000  -27.7760 C   0  0  0  0  0  0  0  0  0  0  0  0
    0.0980   18.3720  -27.8570 C   0  0  0  0  0  0  0  0  0  0  0  0
    2.6020   17.3180  -30.4330 N   0  0  0  0  0  0  0  0  0  0  0  0
    1.6270   18.0890  -31.1490 C   0  0  0  0  0  0  0  0  0  0  0  0
    1.9840   19.2170  -31.9100 C   0  0  0  0  0  0  0  0  0  0  0  0
    1.0090   19.9250  -32.6190 C   0  0  0  0  0  0  0  0  0  0  0  0
   -0.3310   19.5150  -32.5810 C   0  0  0  0  0  0  0  0  0  0  0  0
   -1.5660   20.4210  -33.4590 S   0  0  0  0  0  0  0  0  0  0  0  0
   -1.2720   20.3590  -34.9330 O   0  0  0  0  0  0  0  0  0  0  0  0
   -1.5070   21.8620  -33.0340 O   0  0  0  0  0  0  0  0  0  0  0  0
   -3.1690   19.7950  -33.1680 N   0  0  0  0  0  0  0  0  0  0  0  0
   -4.1490   20.8920  -33.1020 C   0  0  0  0  0  0  0  0  0  0  0  0
   -5.5850   20.3330  -33.0460 C   0  0  0  0  0  0  0  0  0  0  0  0
   -5.5830   18.9340  -32.8380 O   0  0  0  0  0  0  0  0  0  0  0  0
   -4.9610   18.2840  -33.9340 C   0  0  0  0  0  0  0  0  0  0  0  0
   -3.5500   18.8370  -34.2160 C   0  0  0  0  0  0  0  0  0  0  0  0
   -0.6830   18.3810  -31.8370 C   0  0  0  0  0  0  0  0  0  0  0  0
    0.2930   17.6650  -31.1380 C   0  0  0  0  0  0  0  0  0  0  0  0
    2.0620   21.1116  -28.4266 H   0  0  0  0  0  0  0  0  0  0  0  0
   -0.1588   22.2359  -28.2755 H   0  0  0  0  0  0  0  0  0  0  0  0
   -4.6928   21.3830  -29.5342 H   0  0  0  0  0  0  0  0  0  0  0  0
   -5.2539   23.4049  -30.8794 H   0  0  0  0  0  0  0  0  0  0  0  0
   -1.2113   23.4206  -27.9431 H   0  0  0  0  0  0  0  0  0  0  0  0
   -2.0501   18.4028  -27.5726 H   0  0  0  0  0  0  0  0  0  0  0  0
    0.1724   17.2845  -27.7097 H   0  0  0  0  0  0  0  0  0  0  0  0
    3.0339   19.5431  -31.9473 H   0  0  0  0  0  0  0  0  0  0  0  0
    1.2947   20.8080  -33.2095 H   0  0  0  0  0  0  0  0  0  0  0  0
   -3.9593   21.4927  -32.2002 H   0  0  0  0  0  0  0  0  0  0  0  0
   -4.0455   21.5152  -34.0025 H   0  0  0  0  0  0  0  0  0  0  0  0
   -6.1264   20.8175  -32.2201 H   0  0  0  0  0  0  0  0  0  0  0  0
   -6.0767   20.5408  -34.0078 H   0  0  0  0  0  0  0  0  0  0  0  0
   -4.8821   17.2099  -33.7102 H   0  0  0  0  0  0  0  0  0  0  0  0
   -5.5781   18.4633  -34.8268 H   0  0  0  0  0  0  0  0  0  0  0  0
   -2.8290   18.0064  -34.2304 H   0  0  0  0  0  0  0  0  0  0  0  0
   -3.5493   19.3472  -35.1905 H   0  0  0  0  0  0  0  0  0  0  0  0
   -1.7323   18.0527  -31.8029 H   0  0  0  0  0  0  0  0  0  0  0  0
    0.0110   16.7626  -30.5757 H   0  0  0  0  0  0  0  0  0  0  0  0
  1  2  2  0
  2  3  1  0
  3  4  1  0
  4  5  2  0
  5  6  1  0
  6  7  2  0
  7  8  1  0
  8  9  2  0
  8 10  1  0
 10 11  2  0
 11 12  1  0
 12 13  2  0
 13 14  1  0
 13 15  1  0
 15 16  1  0
 15 17  2  0
  7 18  1  0
 18 19  2  0
  2 20  1  0
 20 21  1  0
 21 22  2  0
 22 23  1  0
 23 24  2  0
 24 25  1  0
 25 26  2  0
 25 27  2  0
 25 28  1  0
 28 29  1  0
 29 30  1  0
 30 31  1  0
 31 32  1  0
 32 33  1  0
 24 34  1  0
 34 35  2  0
 19  4  1  0
 35 21  1  0
 17 10  1  0
 33 28  1  0
  5 36  1  0
  6 37  1  0
 11 38  1  0
 12 39  1  0
 17 40  1  0
 18 41  1  0
 19 42  1  0
 22 43  1  0
 23 44  1  0
 29 45  1  0
 29 46  1  0
 30 47  1  0
 30 48  1  0
 32 49  1  0
 32 50  1  0
 33 51  1  0
 33 52  1  0
 34 53  1  0
 35 54  1  0
M  CHG  4   3  -1  14  -1  16  -1  20  -1
M  END
>  <UniqueID>  (1) 
1

>  <SMILES>  (1) 
O=C([N-]c1ccc(C(=O)c2ccc([O-])c([O-])c2)cc1)[N-]c1ccc(S(=O)(=O)N2CCOCC2)cc1

>  <Energy>  (1) 
78.77274858387845

>  <Genealogy>  (1) 
O=C([N-]c1ccc(C(=O)c2ccc([O-])c([O-])c2)cc1)[N-]c1ccc(S(=O)(=O)N2CCOCC2)cc1 (protonated)
O=C([N-]c1ccc(C(=O)c2ccc([O-])c([O-])c2)cc1)[N-]c1ccc(S(=O)(=O)N2CCOCC2)cc1 (3D coordinates assigned)
O=C([N-]c1ccc(C(=O)c2ccc([O-])c([O-])c2)cc1)[N-]c1ccc(S(=O)(=O)N2CCOCC2)cc1 (nonaromatic ring conformer: 78.77274858387845 kcal/mol)

>  <smiles>  (1) 
O=C(Nc1ccc(C(=O)c2ccc(O)c(O)c2)cc1)Nc1ccc(S(=O)(=O)N2CCOCC2)cc1

>  <score_type>  (1) 
oracle

>  <origin>  (1) 
adgpu

>  <m_score__min__energy>  (1) 
-15.07

>  <m_primary>  (1) 
energy

$$$$
1:0
     RDKit          3D

 53 55  0  0  0  0  0  0  0  0999 V2000
   -8.9790   23.1950  -32.0440 C   0  0  0  0  0  0  0  0  0  0  0  0
   -7.6740   23.4430  -32.5570 O   0  0  0  0  0  0  0  0  0  0  0  0
   -6.4950   23.4000  -31.7970 C   0  0  0  0  0  0  0  0  0  0  0  0
   -5.7750   24.5690  -31.4820 C   0  0  0  0  0  0  0  0  0  0  0  0
   -4.5740   24.4920  -30.7720 C   0  0  0  0  0  0  0  0  0  0  0  0
   -3.8790   25.6600  -30.4770 O   0  0  0  0  0  0  0  0  0  0  0  0
   -4.0770   23.2470  -30.3610 C   0  0  0  0  0  0  0  0  0  0  0  0
   -2.8080   23.1510  -29.6960 N   0  0  0  0  0  0  0  0  0  0  0  0
   -2.5150   23.9970  -28.5380 C   0  0  0  0  0  0  0  0  0  0  0  0
   -1.7840   23.1560  -27.4860 C   0  0  0  0  0  0  0  0  0  0  0  0
   -0.5660   22.4850  -28.0140 N   0  0  0  0  0  0  0  0  0  0  0  0
   -0.4200   21.1340  -27.4520 C   0  0  0  0  0  0  0  0  0  0  0  0
   -0.4410   22.4730  -29.4940 C   0  0  0  0  0  0  0  0  0  0  0  0
   -1.7840   22.2350  -30.2030 C   0  0  0  0  0  0  0  0  0  0  0  0
   -4.8090   22.0880  -30.6380 C   0  0  0  0  0  0  0  0  0  0  0  0
   -6.0120   22.1540  -31.3530 C   0  0  0  0  0  0  0  0  0  0  0  0
   -6.8170   20.6500  -31.8130 S   0  0  0  0  0  0  0  0  0  0  0  0
   -7.3600   20.7700  -33.2080 O   0  0  0  0  0  0  0  0  0  0  0  0
   -7.9560   20.3600  -30.8790 O   0  0  0  0  0  0  0  0  0  0  0  0
   -5.6640   19.3610  -31.7550 N   0  0  0  0  0  0  0  0  0  0  0  0
   -4.9820   18.9440  -32.9400 C   0  0  0  0  0  0  0  0  0  0  0  0
   -3.8790   19.5550  -33.5010 C   0  0  0  0  0  0  0  0  0  0  0  0
   -3.2390   20.8260  -33.0510 C   0  0  0  0  0  0  0  0  0  0  0  0
   -3.3530   18.7410  -34.4410 N   0  0  0  0  0  0  0  0  0  0  0  0
   -4.1030   17.6480  -34.4920 N   0  0  0  0  0  0  0  0  0  0  0  0
   -3.8410   16.5340  -35.3950 C   0  0  0  0  0  0  0  0  0  0  0  0
   -5.1070   17.7350  -33.5930 C   0  0  0  0  0  0  0  0  0  0  0  0
   -6.1350   16.6750  -33.3440 C   0  0  0  0  0  0  0  0  0  0  0  0
   -8.9480   23.2009  -30.9445 H   0  0  0  0  0  0  0  0  0  0  0  0
   -9.6662   23.9786  -32.3956 H   0  0  0  0  0  0  0  0  0  0  0  0
   -9.3309   22.2139  -32.3956 H   0  0  0  0  0  0  0  0  0  0  0  0
   -6.1610   25.5496  -31.7972 H   0  0  0  0  0  0  0  0  0  0  0  0
   -1.8778   24.8389  -28.8466 H   0  0  0  0  0  0  0  0  0  0  0  0
   -3.4511   24.3922  -28.1168 H   0  0  0  0  0  0  0  0  0  0  0  0
   -1.4882   23.8146  -26.6561 H   0  0  0  0  0  0  0  0  0  0  0  0
   -2.4768   22.3660  -27.1605 H   0  0  0  0  0  0  0  0  0  0  0  0
   -0.4262   21.1912  -26.3535 H   0  0  0  0  0  0  0  0  0  0  0  0
   -1.2552   20.5036  -27.7910 H   0  0  0  0  0  0  0  0  0  0  0  0
    0.5306   20.6966  -27.7910 H   0  0  0  0  0  0  0  0  0  0  0  0
   -0.0381   23.4431  -29.8206 H   0  0  0  0  0  0  0  0  0  0  0  0
    0.2277   21.6421  -29.7633 H   0  0  0  0  0  0  0  0  0  0  0  0
   -1.6559   22.3992  -31.2831 H   0  0  0  0  0  0  0  0  0  0  0  0
   -2.1074   21.2017  -30.0090 H   0  0  0  0  0  0  0  0  0  0  0  0
   -4.4359   21.1133  -30.2905 H   0  0  0  0  0  0  0  0  0  0  0  0
   -3.2224   20.8590  -31.9516 H   0  0  0  0  0  0  0  0  0  0  0  0
   -2.2093   20.8740  -33.4349 H   0  0  0  0  0  0  0  0  0  0  0  0
   -3.8136   21.6818  -33.4349 H   0  0  0  0  0  0  0  0  0  0  0  0
   -3.6280   15.6284  -34.8080 H   0  0  0  0  0  0  0  0  0  0  0  0
   -4.7229   16.3609  -36.0292 H   0  0  0  0  0  0  0  0  0  0  0  0
   -2.9743   16.7721  -36.0292 H   0  0  0  0  0  0  0  0  0  0  0  0
   -6.2667   16.5392  -32.2604 H   0  0  0  0  0  0  0  0  0  0  0  0
   -7.0915   16.9788  -33.7944 H   0  0  0  0  0  0  0  0  0  0  0  0
   -5.8020   15.7283  -33.7944 H   0  0  0  0  0  0  0  0  0  0  0  0
  1  2  1  0
  2  3  1  0
  3  4  2  0
  4  5  1  0
  5  6  1  0
  5  7  2  0
  7  8  1  0
  8  9  1  0
  9 10  1  0
 10 11  1  0
 11 12  1  0
 11 13  1  0
 13 14  1  0
  7 15  1  0
 15 16  2  0
 16 17  1  0
 17 18  2  0
 17 19  2  0
 17 20  1  0
 20 21  1  0
 21 22  1  0
 22 23  1  0
 22 24  2  0
 24 25  1  0
 25 26  1  0
 25 27  1  0
 27 28  1  0
 16  3  1  0
 27 21  2  0
 14  8  1  0
  1 29  1  0
  1 30  1  0
  1 31  1  0
  4 32  1  0
  9 33  1  0
  9 34  1  0
 10 35  1  0
 10 36  1  0
 12 37  1  0
 12 38  1  0
 12 39  1  0
 13 40  1  0
 13 41  1  0
 14 42  1  0
 14 43  1  0
 15 44  1  0
 23 45  1  0
 23 46  1  0
 23 47  1  0
 26 48  1  0
 26 49  1  0
 26 50  1  0
 28 51  1  0
 28 52  1  0
 28 53  1  0
M  CHG  2   6  -1  20  -1
M  END
>  <UniqueID>  (2) 
2

>  <SMILES>  (2) 
COc1cc([O-])c(N2CCN(C)CC2)cc1S(=O)(=O)[N-]c1c(C)nn(C)c1C

>  <Energy>  (2) 
101.11695688751645

>  <Genealogy>  (2) 
COc1cc([O-])c(N2CCN(C)CC2)cc1S(=O)(=O)[N-]c1c(C)nn(C)c1C (protonated)
COc1cc([O-])c(N2CCN(C)CC2)cc1S(=O)(=O)[N-]c1c(C)nn(C)c1C (3D coordinates assigned)
COc1cc([O-])c(N2CCN(C)CC2)cc1S(=O)(=O)[N-]c1c(C)nn(C)c1C (nonaromatic ring conformer: 101.11695688751645 kcal/mol)

>  <smiles>  (2) 
COc1cc(O)c(N2CCN(C)CC2)cc1S(=O)(=O)Nc1c(C)nn(C)c1C

>  <score_type>  (2) 
oracle

>  <origin>  (2) 
adgpu

>  <m_score__min__energy>  (2) 
-10.49

>  <m_primary>  (2) 
energy

$$$$
2:0
     RDKit          3D

 54 57  0  0  0  0  0  0  0  0999 V2000
   -9.4860   21.9040  -31.2810 C   0  0  0  0  0  0  0  0  0  0  0  0
   -8.3690   21.2200  -31.9220 N   0  0  0  0  0  0  0  0  0  0  0  0
   -8.4500   19.9180  -32.5830 C   0  0  0  0  0  0  0  0  0  0  0  0
   -7.0220   19.6210  -33.1050 C   0  0  0  0  0  0  0  0  0  0  0  0
   -6.2420   20.8180  -32.6820 C   0  0  0  0  0  0  0  0  0  0  0  0
   -4.8850   21.0740  -32.8730 C   0  0  0  0  0  0  0  0  0  0  0  0
   -4.3520   22.2720  -32.3720 C   0  0  0  0  0  0  0  0  0  0  0  0
   -5.1760   23.2020  -31.7010 C   0  0  0  0  0  0  0  0  0  0  0  0
   -4.5780   24.4010  -31.1880 N   0  0  0  0  0  0  0  0  0  0  0  0
   -4.0960   24.6130  -29.8550 C   0  0  0  0  0  0  0  0  0  0  0  0
   -4.8850   24.5590  -28.8740 O   0  0  0  0  0  0  0  0  0  0  0  0
   -2.7030   24.8950  -29.6550 N   0  0  0  0  0  0  0  0  0  0  0  0
   -2.1330   25.2960  -28.3980 C   0  0  0  0  0  0  0  0  0  0  0  0
   -2.6950   24.8930  -27.1740 C   0  0  0  0  0  0  0  0  0  0  0  0
   -2.1290   25.3110  -25.9660 C   0  0  0  0  0  0  0  0  0  0  0  0
   -1.0000   26.1410  -25.9630 C   0  0  0  0  0  0  0  0  0  0  0  0
   -0.2680   26.6420  -24.4360 S   0  0  0  0  0  0  0  0  0  0  0  0
   -1.2550   26.4370  -23.3210 O   0  0  0  0  0  0  0  0  0  0  0  0
    0.0620   28.1070  -24.5010 O   0  0  0  0  0  0  0  0  0  0  0  0
    1.1850   25.7320  -24.0950 N   0  0  0  0  0  0  0  0  0  0  0  0
    1.2310   24.4660  -24.8700 C   0  0  0  0  0  0  0  0  0  0  0  0
    2.1860   24.5330  -26.0720 C   0  0  0  0  0  0  0  0  0  0  0  0
    3.6190   24.8710  -25.6260 C   0  0  0  0  0  0  0  0  0  0  0  0
    3.6580   25.7590  -24.3700 C   0  0  0  0  0  0  0  0  0  0  0  0
    2.3790   26.5930  -24.2440 C   0  0  0  0  0  0  0  0  0  0  0  0
   -0.4590   26.5720  -27.1810 C   0  0  0  0  0  0  0  0  0  0  0  0
   -1.0250   26.1560  -28.3890 C   0  0  0  0  0  0  0  0  0  0  0  0
   -6.5420   22.9020  -31.5030 C   0  0  0  0  0  0  0  0  0  0  0  0
   -7.0430   21.7020  -32.0150 C   0  0  0  0  0  0  0  0  0  0  0  0
   -9.3781   21.8379  -30.1883 H   0  0  0  0  0  0  0  0  0  0  0  0
   -9.4922   22.9610  -31.5856 H   0  0  0  0  0  0  0  0  0  0  0  0
  -10.4303   21.4291  -31.5856 H   0  0  0  0  0  0  0  0  0  0  0  0
   -8.7652   19.1441  -31.8677 H   0  0  0  0  0  0  0  0  0  0  0  0
   -9.1870   19.9233  -33.3996 H   0  0  0  0  0  0  0  0  0  0  0  0
   -6.6180   18.7062  -32.6467 H   0  0  0  0  0  0  0  0  0  0  0  0
   -6.9895   19.4499  -34.1911 H   0  0  0  0  0  0  0  0  0  0  0  0
   -4.2462   20.3533  -33.4045 H   0  0  0  0  0  0  0  0  0  0  0  0
   -3.2816   22.4886  -32.5034 H   0  0  0  0  0  0  0  0  0  0  0  0
   -2.0560   24.6980  -30.4510 H   0  0  0  0  0  0  0  0  0  0  0  0
   -3.5843   24.2457  -27.1668 H   0  0  0  0  0  0  0  0  0  0  0  0
   -2.5722   24.9867  -25.0129 H   0  0  0  0  0  0  0  0  0  0  0  0
    1.5641   23.6579  -24.2021 H   0  0  0  0  0  0  0  0  0  0  0  0
    0.2198   24.2832  -25.2626 H   0  0  0  0  0  0  0  0  0  0  0  0
    2.1895   23.5585  -26.5822 H   0  0  0  0  0  0  0  0  0  0  0  0
    1.8366   25.3250  -26.7507 H   0  0  0  0  0  0  0  0  0  0  0  0
    4.1505   23.9325  -25.4097 H   0  0  0  0  0  0  0  0  0  0  0  0
    4.0970   25.4313  -26.4431 H   0  0  0  0  0  0  0  0  0  0  0  0
    3.7588   25.1193  -23.4808 H   0  0  0  0  0  0  0  0  0  0  0  0
    4.5148   26.4438  -24.4529 H   0  0  0  0  0  0  0  0  0  0  0  0
    2.4624   27.2449  -23.3619 H   0  0  0  0  0  0  0  0  0  0  0  0
    2.2632   27.1895  -25.1609 H   0  0  0  0  0  0  0  0  0  0  0  0
    0.4146   27.2404  -27.1866 H   0  0  0  0  0  0  0  0  0  0  0  0
   -0.5982   26.5058  -29.3405 H   0  0  0  0  0  0  0  0  0  0  0  0
   -7.1970   23.5975  -30.9578 H   0  0  0  0  0  0  0  0  0  0  0  0
  1  2  1  0
  2  3  1  0
  3  4  1  0
  4  5  1  0
  5  6  2  0
  6  7  1  0
  7  8  2  0
  8  9  1  0
  9 10  1  0
 10 11  2  0
 10 12  1  0
 12 13  1  0
 13 14  2  0
 14 15  1  0
 15 16  2  0
 16 17  1  0
 17 18  2  0
 17 19  2  0
 17 20  1  0
 20 21  1  0
 21 22  1  0
 22 23  1  0
 23 24  1  0
 24 25  1  0
 16 26  1  0
 26 27  2  0
  8 28  1  0
 28 29  2  0
 29  2  1  0
 29  5  1  0
 27 13  1  0
 25 20  1  0
  1 30  1  0
  1 31  1  0
  1 32  1  0
  3 33  1  0
  3 34  1  0
  4 35  1  0
  4 36  1  0
  6 37  1  0
  7 38  1  0
 12 39  1  0
 14 40  1  0
 15 41  1  0
 21 42  1  0
 21 43  1  0
 22 44  1  0
 22 45  1  0
 23 46  1  0
 23 47  1  0
 24 48  1  0
 24 49  1  0
 25 50  1  0
 25 51  1  0
 26 52  1  0
 27 53  1  0
 28 54  1  0
M  CHG  1   9  -1
M  END
>  <UniqueID>  (3) 
3

>  <SMILES>  (3) 
CN1CCc2ccc([N-]C(=O)Nc3ccc(S(=O)(=O)N4CCCCC4)cc3)cc21

>  <Energy>  (3) 
79.46385341164203

>  <Genealogy>  (3) 
CN1CCc2ccc([N-]C(=O)Nc3ccc(S(=O)(=O)N4CCCCC4)cc3)cc21 (protonated)
CN1CCc2ccc([N-]C(=O)Nc3ccc(S(=O)(=O)N4CCCCC4)cc3)cc21 (3D coordinates assigned)
CN1CCc2ccc([N-]C(=O)Nc3ccc(S(=O)(=O)N4CCCCC4)cc3)cc21 (nonaromatic ring conformer: 79.46385341164203 kcal/mol)

>  <smiles>  (3) 
CN1CCc2ccc(NC(=O)Nc3ccc(S(=O)(=O)N4CCCCC4)cc3)cc21

>  <score_type>  (3) 
oracle

>  <origin>  (3) 
adgpu

>  <m_score__min__energy>  (3) 
-11.619999999999999

>  <m_primary>  (3) 
energy

$$$$
3:0
     RDKit          3D

 55 58  0  0  0  0  0  0  0  0999 V2000
   -5.4980   26.3910  -30.4400 O   0  0  0  0  0  0  0  0  0  0  0  0
   -4.8710   25.3100  -30.5970 C   0  0  0  0  0  0  0  0  0  0  0  0
   -3.4900   25.3010  -30.4350 O   0  0  0  0  0  0  0  0  0  0  0  0
   -5.5910   24.0660  -30.9490 C   0  0  0  0  0  0  0  0  0  0  0  0
   -6.9170   23.8620  -30.5260 C   0  0  0  0  0  0  0  0  0  0  0  0
   -7.5950   22.6880  -30.8660 C   0  0  0  0  0  0  0  0  0  0  0  0
   -6.9590   21.7050  -31.6260 C   0  0  0  0  0  0  0  0  0  0  0  0
   -5.6370   21.8900  -32.0490 C   0  0  0  0  0  0  0  0  0  0  0  0
   -4.8320   20.6670  -33.0310 S   0  0  0  0  0  0  0  0  0  0  0  0
   -3.7910   21.3080  -33.9070 O   0  0  0  0  0  0  0  0  0  0  0  0
   -5.8490   20.0000  -33.9140 O   0  0  0  0  0  0  0  0  0  0  0  0
   -4.0860   19.4700  -32.0160 N   0  0  0  0  0  0  0  0  0  0  0  0
   -2.8550   20.0120  -31.4340 C   0  0  0  0  0  0  0  0  0  0  0  0
   -3.1540   20.6710  -30.0920 C   0  0  0  0  0  0  0  0  0  0  0  0
   -2.0030   21.3770  -29.6350 O   0  0  0  0  0  0  0  0  0  0  0  0
   -2.0270   22.4040  -28.6780 C   0  0  0  0  0  0  0  0  0  0  0  0
   -3.2490   23.0230  -28.4030 C   0  0  0  0  0  0  0  0  0  0  0  0
   -3.3290   24.0510  -27.4630 C   0  0  0  0  0  0  0  0  0  0  0  0
   -2.1800   24.4870  -26.7880 C   0  0  0  0  0  0  0  0  0  0  0  0
   -0.9420   23.8580  -27.0410 C   0  0  0  0  0  0  0  0  0  0  0  0
   -0.8710   22.8240  -27.9920 C   0  0  0  0  0  0  0  0  0  0  0  0
    0.2740   24.3110  -26.3240 C   0  0  0  0  0  0  0  0  0  0  0  0
    1.3840   23.7520  -26.5340 O   0  0  0  0  0  0  0  0  0  0  0  0
    0.1900   25.4080  -25.3000 C   0  0  0  0  0  0  0  0  0  0  0  0
   -0.9880   26.3790  -25.5840 C   0  0  0  0  0  0  0  0  0  0  0  0
   -1.1130   27.4070  -24.4500 C   0  0  0  0  0  0  0  0  0  0  0  0
   -0.1690   28.5480  -24.8080 C   0  0  0  0  0  0  0  0  0  0  0  0
    0.0610   28.4730  -26.3160 C   0  0  0  0  0  0  0  0  0  0  0  0
   -0.7030   27.2520  -26.8210 C   0  0  0  0  0  0  0  0  0  0  0  0
   -2.2990   25.5670  -25.7380 C   0  0  0  0  0  0  0  0  0  0  0  0
   -4.9580   23.0700  -31.7150 C   0  0  0  0  0  0  0  0  0  0  0  0
   -7.4233   24.6310  -29.9241 H   0  0  0  0  0  0  0  0  0  0  0  0
   -8.6329   22.5383  -30.5337 H   0  0  0  0  0  0  0  0  0  0  0  0
   -7.4971   20.7835  -31.8931 H   0  0  0  0  0  0  0  0  0  0  0  0
   -4.7570   19.2740  -31.2380 H   0  0  0  0  0  0  0  0  0  0  0  0
   -2.1330   19.1955  -31.2852 H   0  0  0  0  0  0  0  0  0  0  0  0
   -2.4349   20.7641  -32.1180 H   0  0  0  0  0  0  0  0  0  0  0  0
   -3.9916   21.3744  -30.2089 H   0  0  0  0  0  0  0  0  0  0  0  0
   -3.4209   19.8965  -29.3579 H   0  0  0  0  0  0  0  0  0  0  0  0
   -4.1564   22.6969  -28.9324 H   0  0  0  0  0  0  0  0  0  0  0  0
   -4.2998   24.5224  -27.2501 H   0  0  0  0  0  0  0  0  0  0  0  0
    0.0944   22.3400  -28.2014 H   0  0  0  0  0  0  0  0  0  0  0  0
    0.0470   24.9569  -24.3070 H   0  0  0  0  0  0  0  0  0  0  0  0
    1.1250   25.9859  -25.3433 H   0  0  0  0  0  0  0  0  0  0  0  0
   -2.1473   27.7748  -24.3805 H   0  0  0  0  0  0  0  0  0  0  0  0
   -0.8570   26.9642  -23.4762 H   0  0  0  0  0  0  0  0  0  0  0  0
   -0.6238   29.5136  -24.5418 H   0  0  0  0  0  0  0  0  0  0  0  0
    0.7803   28.4622  -24.2590 H   0  0  0  0  0  0  0  0  0  0  0  0
   -0.3180   29.3840  -26.8022 H   0  0  0  0  0  0  0  0  0  0  0  0
    1.1332   28.3897  -26.5470 H   0  0  0  0  0  0  0  0  0  0  0  0
   -1.6464   27.5618  -27.2942 H   0  0  0  0  0  0  0  0  0  0  0  0
   -0.1222   26.7003  -27.5748 H   0  0  0  0  0  0  0  0  0  0  0  0
   -2.5409   25.0980  -24.7729 H   0  0  0  0  0  0  0  0  0  0  0  0
   -3.0914   26.2610  -26.0549 H   0  0  0  0  0  0  0  0  0  0  0  0
   -3.9223   23.2184  -32.0544 H   0  0  0  0  0  0  0  0  0  0  0  0
  1  2  2  0
  2  3  1  0
  2  4  1  0
  4  5  2  0
  5  6  1  0
  6  7  2  0
  7  8  1  0
  8  9  1  0
  9 10  2  0
  9 11  2  0
  9 12  1  0
 12 13  1  0
 13 14  1  0
 14 15  1  0
 15 16  1  0
 16 17  2  0
 17 18  1  0
 18 19  2  0
 19 20  1  0
 20 21  2  0
 20 22  1  0
 22 23  2  0
 22 24  1  0
 24 25  1  0
 25 26  1  0
 26 27  1  0
 27 28  1  0
 28 29  1  0
 25 30  1  0
  8 31  2  0
 31  4  1  0
 21 16  1  0
 29 25  1  0
 30 19  1  0
  5 32  1  0
  6 33  1  0
  7 34  1  0
 12 35  1  0
 13 36  1  0
 13 37  1  0
 14 38  1  0
 14 39  1  0
 17 40  1  0
 18 41  1  0
 21 42  1  0
 24 43  1  0
 24 44  1  0
 26 45  1  0
 26 46  1  0
 27 47  1  0
 27 48  1  0
 28 49  1  0
 28 50  1  0
 29 51  1  0
 29 52  1  0
 30 53  1  0
 30 54  1  0
 31 55  1  0
M  CHG  1   3  -1
M  END
>  <UniqueID>  (4) 
4

>  <SMILES>  (4) 
O=C([O-])c1cccc(S(=O)(=O)NCCOc2ccc3c(c2)C(=O)CC2(CCCC2)C3)c1

>  <Energy>  (4) 
56.60459597138786

>  <Genealogy>  (4) 
O=C([O-])c1cccc(S(=O)(=O)NCCOc2ccc3c(c2)C(=O)CC2(CCCC2)C3)c1 (protonated)
O=C([O-])c1cccc(S(=O)(=O)NCCOc2ccc3c(c2)C(=O)CC2(CCCC2)C3)c1 (3D coordinates assigned)
O=C([O-])c1cccc(S(=O)(=O)NCCOc2ccc3c(c2)C(=O)CC2(CCCC2)C3)c1 (nonaromatic ring conformer: 56.60459597138786 kcal/mol)

>  <smiles>  (4) 
O=C(O)c1cccc(S(=O)(=O)NCCOc2ccc3c(c2)C(=O)CC2(CCCC2)C3)c1

>  <score_type>  (4) 
oracle

>  <origin>  (4) 
adgpu

>  <m_score__min__energy>  (4) 
-12.02

>  <m_primary>  (4) 
energy

$$$$
4:0
     RDKit          3D

 56 59  0  0  0  0  0  0  0  0999 V2000
   -9.3040   21.8850  -30.4780 C   0  0  0  0  0  0  0  0  0  0  0  0
   -9.3810   20.9700  -31.6590 C   0  0  0  0  0  0  0  0  0  0  0  0
  -10.4400   20.9490  -32.3410 O   0  0  0  0  0  0  0  0  0  0  0  0
   -8.2690   20.1520  -32.0580 N   0  0  0  0  0  0  0  0  0  0  0  0
   -8.3580   18.6990  -32.2140 C   0  0  0  0  0  0  0  0  0  0  0  0
   -6.9790   18.2370  -32.7380 C   0  0  0  0  0  0  0  0  0  0  0  0
   -6.1730   19.4870  -32.7310 C   0  0  0  0  0  0  0  0  0  0  0  0
   -4.8150   19.6250  -33.0110 C   0  0  0  0  0  0  0  0  0  0  0  0
   -4.2160   20.8790  -32.8260 C   0  0  0  0  0  0  0  0  0  0  0  0
   -4.9710   21.9680  -32.3500 C   0  0  0  0  0  0  0  0  0  0  0  0
   -4.3060   23.2160  -32.1070 N   0  0  0  0  0  0  0  0  0  0  0  0
   -4.7120   24.2480  -31.1960 C   0  0  0  0  0  0  0  0  0  0  0  0
   -5.9090   24.6340  -31.2140 O   0  0  0  0  0  0  0  0  0  0  0  0
   -3.7960   24.8790  -30.2880 N   0  0  0  0  0  0  0  0  0  0  0  0
   -3.1360   24.2610  -29.1740 C   0  0  0  0  0  0  0  0  0  0  0  0
   -3.7980   23.2140  -28.5190 C   0  0  0  0  0  0  0  0  0  0  0  0
   -3.1730   22.5200  -27.4870 C   0  0  0  0  0  0  0  0  0  0  0  0
   -1.8970   22.8900  -27.0680 C   0  0  0  0  0  0  0  0  0  0  0  0
   -1.2400   23.9770  -27.6630 C   0  0  0  0  0  0  0  0  0  0  0  0
    0.3360   24.4740  -27.0220 S   0  0  0  0  0  0  0  0  0  0  0  0
    1.2040   24.9180  -28.1670 O   0  0  0  0  0  0  0  0  0  0  0  0
    1.0130   23.3010  -26.3680 O   0  0  0  0  0  0  0  0  0  0  0  0
    0.1990   25.7920  -25.8850 N   0  0  0  0  0  0  0  0  0  0  0  0
   -0.3150   25.3060  -24.5920 C   0  0  0  0  0  0  0  0  0  0  0  0
   -0.5050   26.4590  -23.5800 C   0  0  0  0  0  0  0  0  0  0  0  0
   -0.0420   27.8090  -24.1380 C   0  0  0  0  0  0  0  0  0  0  0  0
   -0.6680   28.0890  -25.5130 C   0  0  0  0  0  0  0  0  0  0  0  0
   -0.6760   26.8450  -26.4250 C   0  0  0  0  0  0  0  0  0  0  0  0
   -1.8610   24.6760  -28.7200 C   0  0  0  0  0  0  0  0  0  0  0  0
   -1.2220   25.7870  -29.2720 O   0  0  0  0  0  0  0  0  0  0  0  0
   -6.3590   21.8170  -32.1490 C   0  0  0  0  0  0  0  0  0  0  0  0
   -6.9350   20.5550  -32.3420 C   0  0  0  0  0  0  0  0  0  0  0  0
   -9.3538   21.2934  -29.5520 H   0  0  0  0  0  0  0  0  0  0  0  0
   -8.3558   22.4419  -30.5068 H   0  0  0  0  0  0  0  0  0  0  0  0
  -10.1458   22.5925  -30.5068 H   0  0  0  0  0  0  0  0  0  0  0  0
   -8.5770   18.2242  -31.2462 H   0  0  0  0  0  0  0  0  0  0  0  0
   -9.1649   18.4186  -32.9070 H   0  0  0  0  0  0  0  0  0  0  0  0
   -6.5381   17.4803  -32.0725 H   0  0  0  0  0  0  0  0  0  0  0  0
   -7.0320   17.7650  -33.7302 H   0  0  0  0  0  0  0  0  0  0  0  0
   -4.2255   18.7683  -33.3696 H   0  0  0  0  0  0  0  0  0  0  0  0
   -3.1484   21.0131  -33.0544 H   0  0  0  0  0  0  0  0  0  0  0  0
   -4.8188   22.9386  -28.8225 H   0  0  0  0  0  0  0  0  0  0  0  0
   -3.6876   21.6778  -27.0013 H   0  0  0  0  0  0  0  0  0  0  0  0
   -1.4011   22.3255  -26.2646 H   0  0  0  0  0  0  0  0  0  0  0  0
   -1.2846   24.8134  -24.7567 H   0  0  0  0  0  0  0  0  0  0  0  0
    0.4201   24.6022  -24.1745 H   0  0  0  0  0  0  0  0  0  0  0  0
   -1.5720   26.5306  -23.3224 H   0  0  0  0  0  0  0  0  0  0  0  0
    0.1092   26.2334  -22.6957 H   0  0  0  0  0  0  0  0  0  0  0  0
   -0.3387   28.6059  -23.4402 H   0  0  0  0  0  0  0  0  0  0  0  0
    1.0515   27.7803  -24.2537 H   0  0  0  0  0  0  0  0  0  0  0  0
   -1.7051   28.4250  -25.3662 H   0  0  0  0  0  0  0  0  0  0  0  0
   -0.0579   28.8601  -26.0063 H   0  0  0  0  0  0  0  0  0  0  0  0
   -1.7031   26.4579  -26.4970 H   0  0  0  0  0  0  0  0  0  0  0  0
   -0.3042   27.1354  -27.4187 H   0  0  0  0  0  0  0  0  0  0  0  0
   -0.2160   25.8900  -29.2950 H   0  0  0  0  0  0  0  0  0  0  0  0
   -6.9777   22.6747  -31.8462 H   0  0  0  0  0  0  0  0  0  0  0  0
  1  2  1  0
  2  3  2  0
  2  4  1  0
  4  5  1  0
  5  6  1  0
  6  7  1  0
  7  8  2  0
  8  9  1  0
  9 10  2  0
 10 11  1  0
 11 12  1  0
 12 13  2  0
 12 14  1  0
 14 15  1  0
 15 16  2  0
 16 17  1  0
 17 18  2  0
 18 19  1  0
 19 20  1  0
 20 21  2  0
 20 22  2  0
 20 23  1  0
 23 24  1  0
 24 25  1  0
 25 26  1  0
 26 27  1  0
 27 28  1  0
 19 29  2  0
 29 30  1  0
 10 31  1  0
 31 32  2  0
 32  4  1  0
 32  7  1  0
 29 15  1  0
 28 23  1  0
  1 33  1  0
  1 34  1  0
  1 35  1  0
  5 36  1  0
  5 37  1  0
  6 38  1  0
  6 39  1  0
  8 40  1  0
  9 41  1  0
 16 42  1  0
 17 43  1  0
 18 44  1  0
 24 45  1  0
 24 46  1  0
 25 47  1  0
 25 48  1  0
 26 49  1  0
 26 50  1  0
 27 51  1  0
 27 52  1  0
 28 53  1  0
 28 54  1  0
 30 55  1  0
 31 56  1  0
M  CHG  2  11  -1  14  -1
M  END
>  <UniqueID>  (5) 
5

>  <SMILES>  (5) 
CC(=O)N1CCc2ccc([N-]C(=O)[N-]c3cccc(S(=O)(=O)N4CCCCC4)c3O)cc21

>  <Energy>  (5) 
83.85071117022723

>  <Genealogy>  (5) 
CC(=O)N1CCc2ccc([N-]C(=O)[N-]c3cccc(S(=O)(=O)N4CCCCC4)c3O)cc21 (protonated)
CC(=O)N1CCc2ccc([N-]C(=O)[N-]c3cccc(S(=O)(=O)N4CCCCC4)c3O)cc21 (3D coordinates assigned)
CC(=O)N1CCc2ccc([N-]C(=O)[N-]c3cccc(S(=O)(=O)N4CCCCC4)c3O)cc21 (nonaromatic ring conformer: 83.85071117022723 kcal/mol)

>  <smiles>  (5) 
CC(=O)N1CCc2ccc(NC(=O)Nc3cccc(S(=O)(=O)N4CCCCC4)c3O)cc21

>  <score_type>  (5) 
oracle

>  <origin>  (5) 
adgpu

>  <m_score__min__energy>  (5) 
-14.74

>  <m_primary>  (5) 
energy

$$$$
5:0
     RDKit          3D

 61 64  0  0  0  0  0  0  0  0999 V2000
   -0.8450   27.4850  -24.8030 C   0  0  0  0  0  0  0  0  0  0  0  0
   -1.0940   26.0320  -24.8110 N   0  0  0  0  0  0  0  0  0  0  0  0
    0.1200   25.3150  -25.2520 C   0  0  0  0  0  0  0  0  0  0  0  0
   -0.1500   23.8170  -25.3720 C   0  0  0  0  0  0  0  0  0  0  0  0
   -1.1990   23.6100  -26.4200 C   0  0  0  0  0  0  0  0  0  0  0  0
   -1.1620   22.4950  -27.2710 C   0  0  0  0  0  0  0  0  0  0  0  0
   -2.1130   22.3500  -28.2830 C   0  0  0  0  0  0  0  0  0  0  0  0
   -3.1080   23.3270  -28.4700 C   0  0  0  0  0  0  0  0  0  0  0  0
   -4.1080   23.2070  -29.4970 N   0  0  0  0  0  0  0  0  0  0  0  0
   -4.2890   24.1310  -30.5790 C   0  0  0  0  0  0  0  0  0  0  0  0
   -3.8660   25.3160  -30.4820 O   0  0  0  0  0  0  0  0  0  0  0  0
   -5.0760   23.7300  -31.7030 N   0  0  0  0  0  0  0  0  0  0  0  0
   -6.3380   23.0450  -31.6730 C   0  0  0  0  0  0  0  0  0  0  0  0
   -7.5360   23.7010  -32.0070 C   0  0  0  0  0  0  0  0  0  0  0  0
   -8.7490   23.0150  -31.9480 C   0  0  0  0  0  0  0  0  0  0  0  0
   -8.7590   21.6770  -31.5600 C   0  0  0  0  0  0  0  0  0  0  0  0
   -7.5940   21.0450  -31.2600 N   0  0  0  0  0  0  0  0  0  0  0  0
   -6.3910   21.6750  -31.3200 C   0  0  0  0  0  0  0  0  0  0  0  0
   -5.2360   20.9430  -31.0090 O   0  0  0  0  0  0  0  0  0  0  0  0
   -4.1640   20.7220  -31.8880 C   0  0  0  0  0  0  0  0  0  0  0  0
   -2.9750   21.4620  -31.7270 C   0  0  0  0  0  0  0  0  0  0  0  0
   -1.9040   21.2880  -32.6020 C   0  0  0  0  0  0  0  0  0  0  0  0
   -2.0080   20.3850  -33.6540 C   0  0  0  0  0  0  0  0  0  0  0  0
   -3.1770   19.6450  -33.8370 C   0  0  0  0  0  0  0  0  0  0  0  0
   -4.2870   19.7890  -32.9610 C   0  0  0  0  0  0  0  0  0  0  0  0
   -5.5690   18.9300  -33.1400 C   0  0  0  0  0  0  0  0  0  0  0  0
   -5.2850   17.7560  -34.1060 C   0  0  0  0  0  0  0  0  0  0  0  0
   -6.0380   18.3850  -31.7720 C   0  0  0  0  0  0  0  0  0  0  0  0
   -6.7600   19.7280  -33.7340 C   0  0  0  0  0  0  0  0  0  0  0  0
   -3.1670   24.4150  -27.5810 C   0  0  0  0  0  0  0  0  0  0  0  0
   -2.2140   24.5680  -26.5630 C   0  0  0  0  0  0  0  0  0  0  0  0
   -2.3400   25.7100  -25.5690 C   0  0  0  0  0  0  0  0  0  0  0  0
   -0.7840   27.8408  -23.7639 H   0  0  0  0  0  0  0  0  0  0  0  0
    0.1026   27.6975  -25.3195 H   0  0  0  0  0  0  0  0  0  0  0  0
   -1.6678   28.0009  -25.3195 H   0  0  0  0  0  0  0  0  0  0  0  0
    0.4334   25.7048  -26.2317 H   0  0  0  0  0  0  0  0  0  0  0  0
    0.9133   25.4722  -24.5064 H   0  0  0  0  0  0  0  0  0  0  0  0
    0.7736   23.2948  -25.6622 H   0  0  0  0  0  0  0  0  0  0  0  0
   -0.4942   23.4158  -24.4073 H   0  0  0  0  0  0  0  0  0  0  0  0
   -0.3805   21.7320  -27.1403 H   0  0  0  0  0  0  0  0  0  0  0  0
   -2.0841   21.4667  -28.9379 H   0  0  0  0  0  0  0  0  0  0  0  0
   -4.7660   22.3950  -29.4500 H   0  0  0  0  0  0  0  0  0  0  0  0
   -7.5165   24.7567  -32.3153 H   0  0  0  0  0  0  0  0  0  0  0  0
   -9.6887   23.5255  -32.2054 H   0  0  0  0  0  0  0  0  0  0  0  0
   -9.7118   21.1310  -31.4964 H   0  0  0  0  0  0  0  0  0  0  0  0
   -2.8915   22.1846  -30.9019 H   0  0  0  0  0  0  0  0  0  0  0  0
   -0.9778   21.8643  -32.4604 H   0  0  0  0  0  0  0  0  0  0  0  0
   -1.1636   20.2530  -34.3465 H   0  0  0  0  0  0  0  0  0  0  0  0
   -3.2406   18.9362  -34.6758 H   0  0  0  0  0  0  0  0  0  0  0  0
   -5.0654   16.8481  -33.5251 H   0  0  0  0  0  0  0  0  0  0  0  0
   -6.1668   17.5813  -34.7400 H   0  0  0  0  0  0  0  0  0  0  0  0
   -4.4209   18.0036  -34.7400 H   0  0  0  0  0  0  0  0  0  0  0  0
   -5.5505   18.9515  -30.9649 H   0  0  0  0  0  0  0  0  0  0  0  0
   -7.1294   18.4936  -31.6887 H   0  0  0  0  0  0  0  0  0  0  0  0
   -5.7679   17.3219  -31.6887 H   0  0  0  0  0  0  0  0  0  0  0  0
   -7.3712   20.1375  -32.9162 H   0  0  0  0  0  0  0  0  0  0  0  0
   -6.3766   20.5522  -34.3534 H   0  0  0  0  0  0  0  0  0  0  0  0
   -7.3765   19.0599  -34.3534 H   0  0  0  0  0  0  0  0  0  0  0  0
   -3.9723   25.1570  -27.6854 H   0  0  0  0  0  0  0  0  0  0  0  0
   -2.6446   26.6108  -26.1220 H   0  0  0  0  0  0  0  0  0  0  0  0
   -3.0776   25.3842  -24.8208 H   0  0  0  0  0  0  0  0  0  0  0  0
  1  2  1  0
  2  3  1  0
  3  4  1  0
  4  5  1  0
  5  6  2  0
  6  7  1  0
  7  8  2  0
  8  9  1  0
  9 10  1  0
 10 11  2  0
 10 12  1  0
 12 13  1  0
 13 14  2  0
 14 15  1  0
 15 16  2  0
 16 17  1  0
 17 18  2  0
 18 19  1  0
 19 20  1  0
 20 21  2  0
 21 22  1  0
 22 23  2  0
 23 24  1  0
 24 25  2  0
 25 26  1  0
 26 27  1  0
 26 28  1  0
 26 29  1  0
  8 30  1  0
 30 31  2  0
 31 32  1  0
 32  2  1  0
 31  5  1  0
 18 13  1  0
 25 20  1  0
  1 33  1  0
  1 34  1  0
  1 35  1  0
  3 36  1  0
  3 37  1  0
  4 38  1  0
  4 39  1  0
  6 40  1  0
  7 41  1  0
  9 42  1  0
 14 43  1  0
 15 44  1  0
 16 45  1  0
 21 46  1  0
 22 47  1  0
 23 48  1  0
 24 49  1  0
 27 50  1  0
 27 51  1  0
 27 52  1  0
 28 53  1  0
 28 54  1  0
 28 55  1  0
 29 56  1  0
 29 57  1  0
 29 58  1  0
 30 59  1  0
 32 60  1  0
 32 61  1  0
M  CHG  1  12  -1
M  END
>  <UniqueID>  (6) 
6

>  <SMILES>  (6) 
CN1CCc2ccc(NC(=O)[N-]c3cccnc3Oc3ccccc3C(C)(C)C)cc2C1

>  <Energy>  (6) 
92.35718120691122

>  <Genealogy>  (6) 
CN1CCc2ccc(NC(=O)[N-]c3cccnc3Oc3ccccc3C(C)(C)C)cc2C1 (protonated)
CN1CCc2ccc(NC(=O)[N-]c3cccnc3Oc3ccccc3C(C)(C)C)cc2C1 (3D coordinates assigned)
CN1CCc2ccc(NC(=O)[N-]c3cccnc3Oc3ccccc3C(C)(C)C)cc2C1 (nonaromatic ring conformer: 92.35718120691122 kcal/mol)

>  <smiles>  (6) 
CN1CCc2ccc(NC(=O)Nc3cccnc3Oc3ccccc3C(C)(C)C)cc2C1

>  <score_type>  (6) 
oracle

>  <origin>  (6) 
adgpu

>  <m_score__min__energy>  (6) 
-11.470000000000001

>  <m_primary>  (6) 
energy

$$$$
6:0
     RDKit          3D

 54 56  0  0  0  0  0  0  0  0999 V2000
   -4.8430   15.8770  -34.1900 C   0  0  0  0  0  0  0  0  0  0  0  0
   -6.1690   16.5360  -33.9610 C   0  0  0  0  0  0  0  0  0  0  0  0
   -7.1520   16.1630  -34.6560 O   0  0  0  0  0  0  0  0  0  0  0  0
   -6.3390   17.5890  -32.9880 N   0  0  0  0  0  0  0  0  0  0  0  0
   -7.6960   17.8840  -32.4990 C   0  0  0  0  0  0  0  0  0  0  0  0
   -7.6620   18.7880  -31.2660 C   0  0  0  0  0  0  0  0  0  0  0  0
   -6.8070   19.9530  -31.5280 N   0  0  0  0  0  0  0  0  0  0  0  0
   -7.3340   21.2900  -31.3690 C   0  0  0  0  0  0  0  0  0  0  0  0
   -8.5720   21.4920  -31.4880 O   0  0  0  0  0  0  0  0  0  0  0  0
   -6.4550   22.4460  -31.0940 C   0  0  0  0  0  0  0  0  0  0  0  0
   -6.5400   23.6110  -31.8660 C   0  0  0  0  0  0  0  0  0  0  0  0
   -5.6990   24.6950  -31.5990 C   0  0  0  0  0  0  0  0  0  0  0  0
   -4.7440   24.6180  -30.5830 C   0  0  0  0  0  0  0  0  0  0  0  0
   -3.9230   25.7220  -30.3490 O   0  0  0  0  0  0  0  0  0  0  0  0
   -4.6140   23.4350  -29.8290 C   0  0  0  0  0  0  0  0  0  0  0  0
   -3.6010   23.3560  -28.8150 N   0  0  0  0  0  0  0  0  0  0  0  0
   -1.8970   23.1620  -29.0880 S   0  0  0  0  0  0  0  0  0  0  0  0
   -1.3020   24.5160  -29.3560 O   0  0  0  0  0  0  0  0  0  0  0  0
   -1.2190   22.5910  -27.8740 O   0  0  0  0  0  0  0  0  0  0  0  0
   -1.6360   22.1270  -30.4930 C   0  0  0  0  0  0  0  0  0  0  0  0
   -2.4780   22.2220  -31.6020 C   0  0  0  0  0  0  0  0  0  0  0  0
   -2.3080   21.3680  -32.6930 C   0  0  0  0  0  0  0  0  0  0  0  0
   -1.3010   20.3870  -32.6890 C   0  0  0  0  0  0  0  0  0  0  0  0
   -1.2280   19.4730  -33.8520 C   0  0  0  0  0  0  0  0  0  0  0  0
   -2.0270   18.2940  -33.9050 N   0  0  0  0  0  0  0  0  0  0  0  0
   -0.4850   19.7580  -34.8300 O   0  0  0  0  0  0  0  0  0  0  0  0
   -0.4100   20.3080  -31.5820 C   0  0  0  0  0  0  0  0  0  0  0  0
    0.7260   19.3020  -31.5240 C   0  0  0  0  0  0  0  0  0  0  0  0
    1.5960   19.5260  -32.5740 F   0  0  0  0  0  0  0  0  0  0  0  0
    0.2560   18.0040  -31.6210 F   0  0  0  0  0  0  0  0  0  0  0  0
    1.4080   19.4090  -30.3280 F   0  0  0  0  0  0  0  0  0  0  0  0
   -0.6070   21.1780  -30.4910 C   0  0  0  0  0  0  0  0  0  0  0  0
   -5.4850   22.3610  -30.0850 C   0  0  0  0  0  0  0  0  0  0  0  0
   -5.4810   19.7500  -32.1330 C   0  0  0  0  0  0  0  0  0  0  0  0
   -5.1780   18.2660  -32.3860 C   0  0  0  0  0  0  0  0  0  0  0  0
   -4.3766   15.6452  -33.2211 H   0  0  0  0  0  0  0  0  0  0  0  0
   -4.9892   14.9467  -34.7585 H   0  0  0  0  0  0  0  0  0  0  0  0
   -4.1898   16.5553  -34.7585 H   0  0  0  0  0  0  0  0  0  0  0  0
   -8.2618   18.3879  -33.2964 H   0  0  0  0  0  0  0  0  0  0  0  0
   -8.1762   16.9349  -32.2186 H   0  0  0  0  0  0  0  0  0  0  0  0
   -8.6821   19.1282  -31.0341 H   0  0  0  0  0  0  0  0  0  0  0  0
   -7.2569   18.2242  -30.4128 H   0  0  0  0  0  0  0  0  0  0  0  0
   -7.2712   23.6734  -32.6855 H   0  0  0  0  0  0  0  0  0  0  0  0
   -5.7901   25.6159  -32.1937 H   0  0  0  0  0  0  0  0  0  0  0  0
   -3.1030   25.6720  -29.7540 H   0  0  0  0  0  0  0  0  0  0  0  0
   -3.2804   22.9743  -31.6164 H   0  0  0  0  0  0  0  0  0  0  0  0
   -2.9699   21.4637  -33.5663 H   0  0  0  0  0  0  0  0  0  0  0  0
   -1.8550   17.4990  -33.2520 H   0  0  0  0  0  0  0  0  0  0  0  0
    0.0615   21.1099  -29.6201 H   0  0  0  0  0  0  0  0  0  0  0  0
   -5.4043   21.4421  -29.4858 H   0  0  0  0  0  0  0  0  0  0  0  0
   -5.4435   20.2874  -33.0921 H   0  0  0  0  0  0  0  0  0  0  0  0
   -4.7273   20.1325  -31.4290 H   0  0  0  0  0  0  0  0  0  0  0  0
   -4.3195   18.1848  -33.0689 H   0  0  0  0  0  0  0  0  0  0  0  0
   -4.9497   17.7844  -31.4238 H   0  0  0  0  0  0  0  0  0  0  0  0
  1  2  1  0
  2  3  2  0
  2  4  1  0
  4  5  1  0
  5  6  1  0
  6  7  1  0
  7  8  1  0
  8  9  2  0
  8 10  1  0
 10 11  2  0
 11 12  1  0
 12 13  2  0
 13 14  1  0
 13 15  1  0
 15 16  1  0
 16 17  1  0
 17 18  2  0
 17 19  2  0
 17 20  1  0
 20 21  2  0
 21 22  1  0
 22 23  2  0
 23 24  1  0
 24 25  1  0
 24 26  2  0
 23 27  1  0
 27 28  1  0
 28 29  1  0
 28 30  1  0
 28 31  1  0
 27 32  2  0
 15 33  2  0
  7 34  1  0
 34 35  1  0
 35  4  1  0
 33 10  1  0
 32 20  1  0
  1 36  1  0
  1 37  1  0
  1 38  1  0
  5 39  1  0
  5 40  1  0
  6 41  1  0
  6 42  1  0
 11 43  1  0
 12 44  1  0
 14 45  1  0
 21 46  1  0
 22 47  1  0
 25 48  1  0
 32 49  1  0
 33 50  1  0
 34 51  1  0
 34 52  1  0
 35 53  1  0
 35 54  1  0
M  CHG  2  16  -1  25  -1
M  END
>  <UniqueID>  (7) 
7

>  <SMILES>  (7) 
CC(=O)N1CCN(C(=O)c2ccc(O)c([N-]S(=O)(=O)c3ccc(C([NH-])=O)c(C(F)(F)F)c3)c2)CC1

>  <Energy>  (7) 
73.8313019564095

>  <Genealogy>  (7) 
CC(=O)N1CCN(C(=O)c2ccc(O)c([N-]S(=O)(=O)c3ccc(C([NH-])=O)c(C(F)(F)F)c3)c2)CC1 (protonated)
CC(=O)N1CCN(C(=O)c2ccc(O)c([N-]S(=O)(=O)c3ccc(C([NH-])=O)c(C(F)(F)F)c3)c2)CC1 (3D coordinates assigned)
CC(=O)N1CCN(C(=O)c2ccc(O)c([N-]S(=O)(=O)c3ccc(C([NH-])=O)c(C(F)(F)F)c3)c2)CC1 (nonaromatic ring conformer: 73.8313019564095 kcal/mol)

>  <smiles>  (7) 
CC(=O)N1CCN(C(=O)c2ccc(O)c(NS(=O)(=O)c3ccc(C(N)=O)c(C(F)(F)F)c3)c2)CC1

>  <score_type>  (7) 
oracle

>  <origin>  (7) 
adgpu

>  <m_score__min__energy>  (7) 
-11.44

>  <m_primary>  (7) 
energy

$$$$
7:0
     RDKit          3D

 60 64  0  0  0  0  0  0  0  0999 V2000
   -4.5900   14.4420  -32.1910 C   0  0  0  0  0  0  0  0  0  0  0  0
   -4.3280   15.2710  -33.3190 O   0  0  0  0  0  0  0  0  0  0  0  0
   -3.4780   16.3890  -33.3100 C   0  0  0  0  0  0  0  0  0  0  0  0
   -2.1080   16.2740  -33.0020 C   0  0  0  0  0  0  0  0  0  0  0  0
   -1.2760   17.3950  -33.0410 C   0  0  0  0  0  0  0  0  0  0  0  0
   -1.8010   18.6540  -33.3610 C   0  0  0  0  0  0  0  0  0  0  0  0
   -0.8890   19.8430  -33.4970 C   0  0  0  0  0  0  0  0  0  0  0  0
   -0.7550   20.7510  -31.9120 S   0  0  0  0  0  0  0  0  0  0  0  0
   -2.3540   21.5630  -32.0330 C   0  0  0  0  0  0  0  0  0  0  0  0
   -3.0300   21.6830  -33.1910 N   0  0  0  0  0  0  0  0  0  0  0  0
   -4.1250   22.3800  -32.9290 N   0  0  0  0  0  0  0  0  0  0  0  0
   -4.0910   22.6960  -31.6210 C   0  0  0  0  0  0  0  0  0  0  0  0
   -5.1230   23.5380  -30.9750 C   0  0  0  0  0  0  0  0  0  0  0  0
   -6.4430   23.0690  -30.8350 C   0  0  0  0  0  0  0  0  0  0  0  0
   -7.4160   23.8620  -30.2160 C   0  0  0  0  0  0  0  0  0  0  0  0
   -7.0730   25.1210  -29.7150 C   0  0  0  0  0  0  0  0  0  0  0  0
   -5.7630   25.5900  -29.8350 C   0  0  0  0  0  0  0  0  0  0  0  0
   -4.7870   24.8030  -30.4570 C   0  0  0  0  0  0  0  0  0  0  0  0
   -3.4880   25.2900  -30.5620 O   0  0  0  0  0  0  0  0  0  0  0  0
   -2.9940   22.1800  -31.0170 N   0  0  0  0  0  0  0  0  0  0  0  0
   -2.4860   22.4330  -29.6650 C   0  0  0  0  0  0  0  0  0  0  0  0
   -3.4720   22.1040  -28.5520 C   0  0  0  0  0  0  0  0  0  0  0  0
   -2.2930   21.1870  -28.8170 C   0  0  0  0  0  0  0  0  0  0  0  0
   -3.1700   18.7800  -33.6280 C   0  0  0  0  0  0  0  0  0  0  0  0
   -4.0100   17.6560  -33.6250 C   0  0  0  0  0  0  0  0  0  0  0  0
   -5.7120   17.8580  -34.0750 S   0  0  0  0  0  0  0  0  0  0  0  0
   -6.3380   16.5080  -34.2840 O   0  0  0  0  0  0  0  0  0  0  0  0
   -5.7830   18.5980  -35.3820 O   0  0  0  0  0  0  0  0  0  0  0  0
   -6.6160   18.7490  -32.8760 N   0  0  0  0  0  0  0  0  0  0  0  0
   -7.7630   17.9590  -32.3870 C   0  0  0  0  0  0  0  0  0  0  0  0
   -8.6390   18.7980  -31.4290 C   0  0  0  0  0  0  0  0  0  0  0  0
   -8.0680   20.0680  -31.1710 O   0  0  0  0  0  0  0  0  0  0  0  0
   -7.9430   20.7920  -32.3830 C   0  0  0  0  0  0  0  0  0  0  0  0
   -7.0790   20.0400  -33.4210 C   0  0  0  0  0  0  0  0  0  0  0  0
   -4.4099   15.0118  -31.2675 H   0  0  0  0  0  0  0  0  0  0  0  0
   -5.6376   14.1076  -32.2171 H   0  0  0  0  0  0  0  0  0  0  0  0
   -3.9248   13.5663  -32.2171 H   0  0  0  0  0  0  0  0  0  0  0  0
   -1.6905   15.2937  -32.7287 H   0  0  0  0  0  0  0  0  0  0  0  0
   -0.2038   17.2891  -32.8195 H   0  0  0  0  0  0  0  0  0  0  0  0
    0.1105   19.4972  -33.7992 H   0  0  0  0  0  0  0  0  0  0  0  0
   -1.3074   20.5211  -34.2554 H   0  0  0  0  0  0  0  0  0  0  0  0
   -6.7115   22.0722  -31.2148 H   0  0  0  0  0  0  0  0  0  0  0  0
   -8.4489   23.4951  -30.1239 H   0  0  0  0  0  0  0  0  0  0  0  0
   -7.8363   25.7436  -29.2253 H   0  0  0  0  0  0  0  0  0  0  0  0
   -5.4974   26.5814  -29.4393 H   0  0  0  0  0  0  0  0  0  0  0  0
   -1.8635   23.3008  -29.9284 H   0  0  0  0  0  0  0  0  0  0  0  0
   -3.4969   22.7183  -27.6399 H   0  0  0  0  0  0  0  0  0  0  0  0
   -4.5624   21.9718  -28.4926 H   0  0  0  0  0  0  0  0  0  0  0  0
   -1.4637   21.1360  -28.0961 H   0  0  0  0  0  0  0  0  0  0  0  0
   -2.1760   20.1139  -29.0287 H   0  0  0  0  0  0  0  0  0  0  0  0
   -3.5922   19.7728  -33.8428 H   0  0  0  0  0  0  0  0  0  0  0  0
   -5.9610   18.9340  -32.0760 H   0  0  0  0  0  0  0  0  0  0  0  0
   -8.3721   17.6385  -33.2451 H   0  0  0  0  0  0  0  0  0  0  0  0
   -7.3811   17.0842  -31.8404 H   0  0  0  0  0  0  0  0  0  0  0  0
   -9.6303   18.9391  -31.8845 H   0  0  0  0  0  0  0  0  0  0  0  0
   -8.7161   18.2573  -30.4742 H   0  0  0  0  0  0  0  0  0  0  0  0
   -8.9458   20.9528  -32.8055 H   0  0  0  0  0  0  0  0  0  0  0  0
   -7.4477   21.7480  -32.1578 H   0  0  0  0  0  0  0  0  0  0  0  0
   -7.6784   19.8564  -34.3249 H   0  0  0  0  0  0  0  0  0  0  0  0
   -6.2013   20.6567  -33.6644 H   0  0  0  0  0  0  0  0  0  0  0  0
  1  2  1  0
  2  3  1  0
  3  4  2  0
  4  5  1  0
  5  6  2  0
  6  7  1  0
  7  8  1  0
  8  9  1  0
  9 10  2  0
 10 11  1  0
 11 12  2  0
 12 13  1  0
 13 14  2  0
 14 15  1  0
 15 16  2  0
 16 17  1  0
 17 18  2  0
 18 19  1  0
 12 20  1  0
 20 21  1  0
 21 22  1  0
 22 23  1  0
  6 24  1  0
 24 25  2  0
 25 26  1  0
 26 27  2  0
 26 28  2  0
 26 29  1  0
 29 30  1  0
 30 31  1  0
 31 32  1  0
 32 33  1  0
 33 34  1  0
 25  3  1  0
 34 29  1  0
 20  9  1  0
 23 21  1  0
 18 13  1  0
  1 35  1  0
  1 36  1  0
  1 37  1  0
  4 38  1  0
  5 39  1  0
  7 40  1  0
  7 41  1  0
 14 42  1  0
 15 43  1  0
 16 44  1  0
 17 45  1  0
 21 46  1  0
 22 47  1  0
 22 48  1  0
 23 49  1  0
 23 50  1  0
 24 51  1  0
 29 52  1  0
 30 53  1  0
 30 54  1  0
 31 55  1  0
 31 56  1  0
 33 57  1  0
 33 58  1  0
 34 59  1  0
 34 60  1  0
M  CHG  2  19  -1  29   1
M  END
>  <UniqueID>  (8) 
8

>  <SMILES>  (8) 
COc1ccc(CSc2nnc(-c3ccccc3[O-])n2C2CC2)cc1S(=O)(=O)[NH+]1CCOCC1

>  <Energy>  (8) 
372.47809769407445

>  <Genealogy>  (8) 
COc1ccc(CSc2nnc(-c3ccccc3[O-])n2C2CC2)cc1S(=O)(=O)[NH+]1CCOCC1 (protonated)
COc1ccc(CSc2nnc(-c3ccccc3[O-])n2C2CC2)cc1S(=O)(=O)[NH+]1CCOCC1 (3D coordinates assigned)
COc1ccc(CSc2nnc(-c3ccccc3[O-])n2C2CC2)cc1S(=O)(=O)[NH+]1CCOCC1 (nonaromatic ring conformer: 372.47809769407445 kcal/mol)

>  <smiles>  (8) 
COc1ccc(CSc2nnc(-c3ccccc3O)n2C2CC2)cc1S(=O)(=O)N1CCOCC1

>  <score_type>  (8) 
oracle

>  <origin>  (8) 
adgpu

>  <m_score__min__energy>  (8) 
-11.77

>  <m_primary>  (8) 
energy

$$$$
8:0
     RDKit          3D

 50 53  0  0  0  0  0  0  0  0999 V2000
   -1.5490   20.4890  -25.7560 C   0  0  0  0  0  0  0  0  0  0  0  0
   -0.7010   20.3190  -26.9490 N   0  0  0  0  0  0  0  0  0  0  0  0
   -1.4070   19.6490  -28.0590 C   0  0  0  0  0  0  0  0  0  0  0  0
   -2.5720   20.4880  -28.6060 C   0  0  0  0  0  0  0  0  0  0  0  0
   -2.1960   21.9360  -28.7850 C   0  0  0  0  0  0  0  0  0  0  0  0
   -3.0370   22.7740  -29.5320 C   0  0  0  0  0  0  0  0  0  0  0  0
   -2.7440   24.1350  -29.6730 C   0  0  0  0  0  0  0  0  0  0  0  0
   -3.6190   24.9610  -30.4410 N   0  0  0  0  0  0  0  0  0  0  0  0
   -5.3200   24.6450  -30.5020 S   0  0  0  0  0  0  0  0  0  0  0  0
   -5.9900   25.7030  -31.3310 O   0  0  0  0  0  0  0  0  0  0  0  0
   -5.8810   24.6870  -29.1070 O   0  0  0  0  0  0  0  0  0  0  0  0
   -5.6130   23.0670  -31.2230 C   0  0  0  0  0  0  0  0  0  0  0  0
   -6.7220   22.3080  -30.8320 C   0  0  0  0  0  0  0  0  0  0  0  0
   -6.9560   21.0520  -31.3990 C   0  0  0  0  0  0  0  0  0  0  0  0
   -6.0780   20.5330  -32.3670 C   0  0  0  0  0  0  0  0  0  0  0  0
   -6.3150   19.2270  -32.9380 N   0  0  0  0  0  0  0  0  0  0  0  0
   -7.4960   18.4170  -32.6810 C   0  0  0  0  0  0  0  0  0  0  0  0
   -7.2210   17.0390  -33.3120 C   0  0  0  0  0  0  0  0  0  0  0  0
   -5.9660   17.1810  -34.1820 C   0  0  0  0  0  0  0  0  0  0  0  0
   -5.4710   18.5330  -33.8450 C   0  0  0  0  0  0  0  0  0  0  0  0
   -4.4490   19.0430  -34.3720 O   0  0  0  0  0  0  0  0  0  0  0  0
   -4.9480   21.2890  -32.7340 C   0  0  0  0  0  0  0  0  0  0  0  0
   -4.7220   22.5480  -32.1680 C   0  0  0  0  0  0  0  0  0  0  0  0
   -1.5850   24.6660  -29.0790 C   0  0  0  0  0  0  0  0  0  0  0  0
   -1.2270   26.0050  -29.2460 O   0  0  0  0  0  0  0  0  0  0  0  0
   -0.7570   23.8380  -28.3160 C   0  0  0  0  0  0  0  0  0  0  0  0
   -1.0620   22.4780  -28.1470 C   0  0  0  0  0  0  0  0  0  0  0  0
   -0.0970   21.5950  -27.3850 C   0  0  0  0  0  0  0  0  0  0  0  0
   -0.9367   20.3663  -24.8504 H   0  0  0  0  0  0  0  0  0  0  0  0
   -1.9951   21.4944  -25.7635 H   0  0  0  0  0  0  0  0  0  0  0  0
   -2.3482   19.7332  -25.7635 H   0  0  0  0  0  0  0  0  0  0  0  0
   -0.6907   19.4663  -28.8736 H   0  0  0  0  0  0  0  0  0  0  0  0
   -1.8254   18.7088  -27.6703 H   0  0  0  0  0  0  0  0  0  0  0  0
   -2.8768   20.0782  -29.5802 H   0  0  0  0  0  0  0  0  0  0  0  0
   -3.3940   20.4403  -27.8766 H   0  0  0  0  0  0  0  0  0  0  0  0
   -3.9351   22.3574  -30.0114 H   0  0  0  0  0  0  0  0  0  0  0  0
   -7.4141   22.7025  -30.0734 H   0  0  0  0  0  0  0  0  0  0  0  0
   -7.8326   20.4658  -31.0860 H   0  0  0  0  0  0  0  0  0  0  0  0
   -7.6591   18.3143  -31.5980 H   0  0  0  0  0  0  0  0  0  0  0  0
   -8.3983   18.8792  -33.1078 H   0  0  0  0  0  0  0  0  0  0  0  0
   -7.0506   16.2908  -32.5239 H   0  0  0  0  0  0  0  0  0  0  0  0
   -8.0790   16.7075  -33.9153 H   0  0  0  0  0  0  0  0  0  0  0  0
   -5.2206   16.4133  -33.9270 H   0  0  0  0  0  0  0  0  0  0  0  0
   -6.1689   17.0515  -35.2554 H   0  0  0  0  0  0  0  0  0  0  0  0
   -4.2378   20.8864  -33.4713 H   0  0  0  0  0  0  0  0  0  0  0  0
   -3.8396   23.1325  -32.4674 H   0  0  0  0  0  0  0  0  0  0  0  0
   -1.2380   26.4600  -30.1500 H   0  0  0  0  0  0  0  0  0  0  0  0
    0.1435   24.2564  -27.8427 H   0  0  0  0  0  0  0  0  0  0  0  0
    0.7617   21.3719  -28.0352 H   0  0  0  0  0  0  0  0  0  0  0  0
    0.2039   22.1423  -26.4795 H   0  0  0  0  0  0  0  0  0  0  0  0
  1  2  1  0
  2  3  1  0
  3  4  1  0
  4  5  1  0
  5  6  2  0
  6  7  1  0
  7  8  1  0
  8  9  1  0
  9 10  2  0
  9 11  2  0
  9 12  1  0
 12 13  2  0
 13 14  1  0
 14 15  2  0
 15 16  1  0
 16 17  1  0
 17 18  1  0
 18 19  1  0
 19 20  1  0
 20 21  2  0
 15 22  1  0
 22 23  2  0
  7 24  2  0
 24 25  1  0
 24 26  1  0
 26 27  2  0
 27 28  1  0
 28  2  1  0
 27  5  1  0
 23 12  1  0
 20 16  1  0
  1 29  1  0
  1 30  1  0
  1 31  1  0
  3 32  1  0
  3 33  1  0
  4 34  1  0
  4 35  1  0
  6 36  1  0
 13 37  1  0
 14 38  1  0
 17 39  1  0
 17 40  1  0
 18 41  1  0
 18 42  1  0
 19 43  1  0
 19 44  1  0
 22 45  1  0
 23 46  1  0
 25 47  1  0
 26 48  1  0
 28 49  1  0
 28 50  1  0
M  CHG  1   8  -1
M  END
>  <UniqueID>  (9) 
9

>  <SMILES>  (9) 
CN1CCc2cc([N-]S(=O)(=O)c3ccc(N4CCCC4=O)cc3)c(O)cc2C1

>  <Energy>  (9) 
78.06354316239772

>  <Genealogy>  (9) 
CN1CCc2cc([N-]S(=O)(=O)c3ccc(N4CCCC4=O)cc3)c(O)cc2C1 (protonated)
CN1CCc2cc([N-]S(=O)(=O)c3ccc(N4CCCC4=O)cc3)c(O)cc2C1 (3D coordinates assigned)
CN1CCc2cc([N-]S(=O)(=O)c3ccc(N4CCCC4=O)cc3)c(O)cc2C1 (nonaromatic ring conformer: 78.06354316239772 kcal/mol)

>  <smiles>  (9) 
CN1CCc2cc(NS(=O)(=O)c3ccc(N4CCCC4=O)cc3)c(O)cc2C1

>  <score_type>  (9) 
oracle

>  <origin>  (9) 
adgpu

>  <m_score__min__energy>  (9) 
-12.199999999999999

>  <m_primary>  (9) 
energy

$$$$
9:0
     RDKit          3D

 61 65  0  0  0  0  0  0  0  0999 V2000
   -8.1720   20.8440  -31.2150 C   0  0  0  0  0  0  0  0  0  0  0  0
   -8.4650   19.2370  -31.9160 S   0  0  0  0  0  0  0  0  0  0  0  0
   -9.0280   18.3400  -30.8510 O   0  0  0  0  0  0  0  0  0  0  0  0
   -9.4600   19.3450  -33.0350 O   0  0  0  0  0  0  0  0  0  0  0  0
   -6.9580   18.5700  -32.5400 C   0  0  0  0  0  0  0  0  0  0  0  0
   -5.7350   18.9930  -32.0070 C   0  0  0  0  0  0  0  0  0  0  0  0
   -4.5310   18.4960  -32.5180 C   0  0  0  0  0  0  0  0  0  0  0  0
   -4.5330   17.5620  -33.5680 C   0  0  0  0  0  0  0  0  0  0  0  0
   -3.2550   17.0650  -34.1350 C   0  0  0  0  0  0  0  0  0  0  0  0
   -2.9690   17.2970  -35.3400 O   0  0  0  0  0  0  0  0  0  0  0  0
   -2.3180   16.2690  -33.3230 C   0  0  0  0  0  0  0  0  0  0  0  0
   -1.0670   16.8060  -32.9870 C   0  0  0  0  0  0  0  0  0  0  0  0
   -0.1200   16.0250  -32.3170 C   0  0  0  0  0  0  0  0  0  0  0  0
    1.5240   16.6820  -32.0130 S   0  0  0  0  0  0  0  0  0  0  0  0
    1.1070   18.2790  -32.7400 C   0  0  0  0  0  0  0  0  0  0  0  0
    1.5020   18.5180  -34.0610 C   0  0  0  0  0  0  0  0  0  0  0  0
    1.2600   19.7510  -34.6650 C   0  0  0  0  0  0  0  0  0  0  0  0
    0.6120   20.7670  -33.9600 C   0  0  0  0  0  0  0  0  0  0  0  0
    0.3930   21.9880  -34.5910 O   0  0  0  0  0  0  0  0  0  0  0  0
    0.1870   20.5460  -32.6350 C   0  0  0  0  0  0  0  0  0  0  0  0
   -0.4830   21.5560  -31.9220 C   0  0  0  0  0  0  0  0  0  0  0  0
   -0.9160   21.3340  -30.6100 C   0  0  0  0  0  0  0  0  0  0  0  0
   -1.7890   22.6010  -29.7500 S   0  0  0  0  0  0  0  0  0  0  0  0
   -0.9120   23.8210  -29.6770 O   0  0  0  0  0  0  0  0  0  0  0  0
   -2.0980   22.1400  -28.3530 O   0  0  0  0  0  0  0  0  0  0  0  0
   -3.2960   23.0190  -30.5730 C   0  0  0  0  0  0  0  0  0  0  0  0
   -3.9860   22.0600  -31.3320 C   0  0  0  0  0  0  0  0  0  0  0  0
   -5.1620   22.4050  -32.0040 C   0  0  0  0  0  0  0  0  0  0  0  0
   -5.8100   21.4720  -32.7420 F   0  0  0  0  0  0  0  0  0  0  0  0
   -5.6610   23.7100  -31.9250 C   0  0  0  0  0  0  0  0  0  0  0  0
   -6.8250   24.0490  -32.6110 O   0  0  0  0  0  0  0  0  0  0  0  0
   -4.9840   24.6680  -31.1600 C   0  0  0  0  0  0  0  0  0  0  0  0
   -3.8080   24.3260  -30.4840 C   0  0  0  0  0  0  0  0  0  0  0  0
   -3.1570   25.2920  -29.7260 O   0  0  0  0  0  0  0  0  0  0  0  0
   -0.6920   20.0930  -30.0060 C   0  0  0  0  0  0  0  0  0  0  0  0
   -0.0270   19.0800  -30.7000 C   0  0  0  0  0  0  0  0  0  0  0  0
    0.4280   19.2890  -32.0160 C   0  0  0  0  0  0  0  0  0  0  0  0
   -0.4420   14.7210  -31.9270 C   0  0  0  0  0  0  0  0  0  0  0  0
   -1.7050   14.1940  -32.2190 C   0  0  0  0  0  0  0  0  0  0  0  0
   -2.6390   14.9580  -32.9260 C   0  0  0  0  0  0  0  0  0  0  0  0
   -3.8840   14.4140  -33.2250 O   0  0  0  0  0  0  0  0  0  0  0  0
   -5.7680   17.1390  -34.0960 C   0  0  0  0  0  0  0  0  0  0  0  0
   -6.9700   17.6360  -33.5840 C   0  0  0  0  0  0  0  0  0  0  0  0
   -8.1849   20.7731  -30.1174 H   0  0  0  0  0  0  0  0  0  0  0  0
   -7.1913   21.2156  -31.5469 H   0  0  0  0  0  0  0  0  0  0  0  0
   -8.9585   21.5378  -31.5469 H   0  0  0  0  0  0  0  0  0  0  0  0
   -5.7202   19.7202  -31.1818 H   0  0  0  0  0  0  0  0  0  0  0  0
   -3.5755   18.8390  -32.0946 H   0  0  0  0  0  0  0  0  0  0  0  0
   -0.8293   17.8469  -33.2518 H   0  0  0  0  0  0  0  0  0  0  0  0
    2.0091   17.7242  -34.6292 H   0  0  0  0  0  0  0  0  0  0  0  0
    1.5814   19.9243  -35.7026 H   0  0  0  0  0  0  0  0  0  0  0  0
   -0.6684   22.5293  -32.3999 H   0  0  0  0  0  0  0  0  0  0  0  0
   -3.5992   21.0324  -31.3980 H   0  0  0  0  0  0  0  0  0  0  0  0
   -6.9360   23.8540  -33.6000 H   0  0  0  0  0  0  0  0  0  0  0  0
   -5.3782   25.6926  -31.0905 H   0  0  0  0  0  0  0  0  0  0  0  0
   -1.0415   19.9137  -28.9785 H   0  0  0  0  0  0  0  0  0  0  0  0
    0.1432   18.1083  -30.2133 H   0  0  0  0  0  0  0  0  0  0  0  0
    0.2981   14.1093  -31.3903 H   0  0  0  0  0  0  0  0  0  0  0  0
   -1.9639   13.1762  -31.8916 H   0  0  0  0  0  0  0  0  0  0  0  0
   -5.7870   16.4101  -34.9196 H   0  0  0  0  0  0  0  0  0  0  0  0
   -7.9279   17.2928  -34.0020 H   0  0  0  0  0  0  0  0  0  0  0  0
  1  2  1  0
  2  3  2  0
  2  4  2  0
  2  5  1  0
  5  6  2  0
  6  7  1  0
  7  8  2  0
  8  9  1  0
  9 10  2  0
  9 11  1  0
 11 12  2  0
 12 13  1  0
 13 14  1  0
 14 15  1  0
 15 16  2  0
 16 17  1  0
 17 18  2  0
 18 19  1  0
 18 20  1  0
 20 21  2  0
 21 22  1  0
 22 23  1  0
 23 24  2  0
 23 25  2  0
 23 26  1  0
 26 27  2  0
 27 28  1  0
 28 29  1  0
 28 30  2  0
 30 31  1  0
 30 32  1  0
 32 33  2  0
 33 34  1  0
 22 35  2  0
 35 36  1  0
 36 37  2  0
 13 38  2  0
 38 39  1  0
 39 40  2  0
 40 41  1  0
  8 42  1  0
 42 43  2  0
 43  5  1  0
 40 11  1  0
 37 15  1  0
 37 20  1  0
 33 26  1  0
  1 44  1  0
  1 45  1  0
  1 46  1  0
  6 47  1  0
  7 48  1  0
 12 49  1  0
 16 50  1  0
 17 51  1  0
 21 52  1  0
 27 53  1  0
 31 54  1  0
 32 55  1  0
 35 56  1  0
 36 57  1  0
 38 58  1  0
 39 59  1  0
 42 60  1  0
 43 61  1  0
M  CHG  3  19  -1  34  -1  41  -1
M  END
>  <UniqueID>  (10) 
10

>  <SMILES>  (10) 
CS(=O)(=O)c1ccc(C(=O)c2cc(Sc3ccc([O-])c4cc(S(=O)(=O)c5cc(F)c(O)cc5[O-])ccc34)ccc2[O-])cc1

>  <Energy>  (10) 
77.9615578647078

>  <Genealogy>  (10) 
CS(=O)(=O)c1ccc(C(=O)c2cc(Sc3ccc([O-])c4cc(S(=O)(=O)c5cc(F)c(O)cc5[O-])ccc34)ccc2[O-])cc1 (protonated)
CS(=O)(=O)c1ccc(C(=O)c2cc(Sc3ccc([O-])c4cc(S(=O)(=O)c5cc(F)c(O)cc5[O-])ccc34)ccc2[O-])cc1 (3D coordinates assigned)
CS(=O)(=O)c1ccc(C(=O)c2cc(Sc3ccc([O-])c4cc(S(=O)(=O)c5cc(F)c(O)cc5[O-])ccc34)ccc2[O-])cc1 (optimized conformer: 77.9615578647078 kcal/mol)

>  <smiles>  (10) 
CS(=O)(=O)c1ccc(C(=O)c2cc(Sc3ccc(O)c4cc(S(=O)(=O)c5cc(F)c(O)cc5O)ccc34)ccc2O)cc1

>  <score_type>  (10) 
oracle

>  <origin>  (10) 
adgpu

>  <m_score__min__energy>  (10) 
-14.92

>  <m_primary>  (10) 
energy

$$$$
10:0
     RDKit          3D

 49 51  0  0  0  0  0  0  0  0999 V2000
   -1.6500   19.5270  -33.1790 C   0  0  0  0  0  0  0  0  0  0  0  0
   -2.6930   19.0140  -34.0820 N   0  0  0  0  0  0  0  0  0  0  0  0
   -3.9770   19.7010  -33.8180 C   0  0  0  0  0  0  0  0  0  0  0  0
   -5.1650   18.9020  -34.3670 C   0  0  0  0  0  0  0  0  0  0  0  0
   -5.2540   17.5450  -33.7800 N   0  0  0  0  0  0  0  0  0  0  0  0
   -6.5520   17.4140  -32.6170 S   0  0  0  0  0  0  0  0  0  0  0  0
   -5.9860   16.9350  -31.3090 O   0  0  0  0  0  0  0  0  0  0  0  0
   -7.5520   16.3950  -33.0860 O   0  0  0  0  0  0  0  0  0  0  0  0
   -7.3770   18.9570  -32.3600 C   0  0  0  0  0  0  0  0  0  0  0  0
   -8.7730   19.0060  -32.2970 C   0  0  0  0  0  0  0  0  0  0  0  0
   -9.4270   20.2280  -32.1460 C   0  0  0  0  0  0  0  0  0  0  0  0
   -8.7020   21.4210  -32.0520 C   0  0  0  0  0  0  0  0  0  0  0  0
   -9.4260   22.6060  -31.9160 O   0  0  0  0  0  0  0  0  0  0  0  0
   -7.2860   21.3850  -32.0920 C   0  0  0  0  0  0  0  0  0  0  0  0
   -6.2790   22.8460  -31.9800 S   0  0  0  0  0  0  0  0  0  0  0  0
   -4.9900   22.5820  -32.7060 O   0  0  0  0  0  0  0  0  0  0  0  0
   -6.9540   23.9860  -32.6920 O   0  0  0  0  0  0  0  0  0  0  0  0
   -5.8650   23.2800  -30.3290 N   0  0  0  0  0  0  0  0  0  0  0  0
   -6.3480   24.6210  -29.9560 C   0  0  0  0  0  0  0  0  0  0  0  0
   -5.3620   25.7480  -30.3530 C   0  0  0  0  0  0  0  0  0  0  0  0
   -4.0890   25.2700  -30.7450 O   0  0  0  0  0  0  0  0  0  0  0  0
   -3.6330   24.3110  -29.8220 C   0  0  0  0  0  0  0  0  0  0  0  0
   -4.4580   23.0220  -29.9500 C   0  0  0  0  0  0  0  0  0  0  0  0
   -6.6420   20.1440  -32.2510 C   0  0  0  0  0  0  0  0  0  0  0  0
   -3.9880   17.0580  -33.1930 C   0  0  0  0  0  0  0  0  0  0  0  0
   -2.7830   17.5330  -34.0170 C   0  0  0  0  0  0  0  0  0  0  0  0
   -1.9611   19.3740  -32.1351 H   0  0  0  0  0  0  0  0  0  0  0  0
   -0.7083   18.9893  -33.3635 H   0  0  0  0  0  0  0  0  0  0  0  0
   -1.5011   20.6011  -33.3635 H   0  0  0  0  0  0  0  0  0  0  0  0
   -4.1001   19.8236  -32.7318 H   0  0  0  0  0  0  0  0  0  0  0  0
   -3.9557   20.6783  -34.3224 H   0  0  0  0  0  0  0  0  0  0  0  0
   -6.0928   19.4470  -34.1385 H   0  0  0  0  0  0  0  0  0  0  0  0
   -5.0199   18.7888  -35.4515 H   0  0  0  0  0  0  0  0  0  0  0  0
   -9.3575   18.0768  -32.3669 H   0  0  0  0  0  0  0  0  0  0  0  0
  -10.5257   20.2545  -32.1002 H   0  0  0  0  0  0  0  0  0  0  0  0
   -9.0380   23.5220  -32.0780 H   0  0  0  0  0  0  0  0  0  0  0  0
   -7.3087   24.8011  -30.4606 H   0  0  0  0  0  0  0  0  0  0  0  0
   -6.4508   24.6425  -28.8610 H   0  0  0  0  0  0  0  0  0  0  0  0
   -5.7962   26.3114  -31.1921 H   0  0  0  0  0  0  0  0  0  0  0  0
   -5.2124   26.3765  -29.4627 H   0  0  0  0  0  0  0  0  0  0  0  0
   -2.5748   24.0872  -30.0225 H   0  0  0  0  0  0  0  0  0  0  0  0
   -3.7443   24.7102  -28.8031 H   0  0  0  0  0  0  0  0  0  0  0  0
   -3.9976   22.3844  -30.7191 H   0  0  0  0  0  0  0  0  0  0  0  0
   -4.4636   22.5318  -28.9653 H   0  0  0  0  0  0  0  0  0  0  0  0
   -5.5434   20.1057  -32.2903 H   0  0  0  0  0  0  0  0  0  0  0  0
   -3.8960   17.4420  -32.1663 H   0  0  0  0  0  0  0  0  0  0  0  0
   -4.0014   15.9581  -33.1924 H   0  0  0  0  0  0  0  0  0  0  0  0
   -1.8635   17.1426  -33.5564 H   0  0  0  0  0  0  0  0  0  0  0  0
   -2.9086   17.1582  -35.0435 H   0  0  0  0  0  0  0  0  0  0  0  0
  1  2  1  0
  2  3  1  0
  3  4  1  0
  4  5  1  0
  5  6  1  0
  6  7  2  0
  6  8  2  0
  6  9  1  0
  9 10  2  0
 10 11  1  0
 11 12  2  0
 12 13  1  0
 12 14  1  0
 14 15  1  0
 15 16  2  0
 15 17  2  0
 15 18  1  0
 18 19  1  0
 19 20  1  0
 20 21  1  0
 21 22  1  0
 22 23  1  0
 14 24  2  0
  5 25  1  0
 25 26  1  0
 26  2  1  0
 24  9  1  0
 23 18  1  0
  1 27  1  0
  1 28  1  0
  1 29  1  0
  3 30  1  0
  3 31  1  0
  4 32  1  0
  4 33  1  0
 10 34  1  0
 11 35  1  0
 13 36  1  0
 19 37  1  0
 19 38  1  0
 20 39  1  0
 20 40  1  0
 22 41  1  0
 22 42  1  0
 23 43  1  0
 23 44  1  0
 24 45  1  0
 25 46  1  0
 25 47  1  0
 26 48  1  0
 26 49  1  0
M  END
>  <UniqueID>  (11) 
11

>  <SMILES>  (11) 
CN1CCN(S(=O)(=O)c2ccc(O)c(S(=O)(=O)N3CCOCC3)c2)CC1

>  <Energy>  (11) 
72.52890501813081

>  <Genealogy>  (11) 
CN1CCN(S(=O)(=O)c2ccc(O)c(S(=O)(=O)N3CCOCC3)c2)CC1 (3D coordinates assigned)
CN1CCN(S(=O)(=O)c2ccc(O)c(S(=O)(=O)N3CCOCC3)c2)CC1 (nonaromatic ring conformer: 72.52890501813081 kcal/mol)

>  <smiles>  (11) 
CN1CCN(S(=O)(=O)c2ccc(O)c(S(=O)(=O)N3CCOCC3)c2)CC1

>  <score_type>  (11) 
oracle

>  <origin>  (11) 
adgpu

>  <m_score__min__energy>  (11) 
-9.5399999999999991

>  <m_primary>  (11) 
energy

$$$$
11:0
     RDKit          3D

 46 49  0  0  0  0  0  0  0  0999 V2000
   -7.2970   25.4600  -29.3650 O   0  0  0  0  0  0  0  0  0  0  0  0
   -6.7770   24.7450  -30.2610 C   0  0  0  0  0  0  0  0  0  0  0  0
   -7.6220   24.1780  -31.2710 N   0  0  0  0  0  0  0  0  0  0  0  0
   -7.7230   22.7870  -31.6050 C   0  0  0  0  0  0  0  0  0  0  0  0
   -8.9800   22.1700  -31.5610 C   0  0  0  0  0  0  0  0  0  0  0  0
   -9.1140   20.8200  -31.9000 C   0  0  0  0  0  0  0  0  0  0  0  0
   -7.9970   20.0840  -32.2990 C   0  0  0  0  0  0  0  0  0  0  0  0
   -6.7390   20.6950  -32.3730 C   0  0  0  0  0  0  0  0  0  0  0  0
   -5.3450   19.7570  -32.8990 S   0  0  0  0  0  0  0  0  0  0  0  0
   -4.4370   20.6090  -33.7440 O   0  0  0  0  0  0  0  0  0  0  0  0
   -4.5880   19.2900  -31.6880 O   0  0  0  0  0  0  0  0  0  0  0  0
   -5.8950   18.3760  -33.8140 N   0  0  0  0  0  0  0  0  0  0  0  0
   -4.7740   17.6690  -34.4350 C   0  0  0  0  0  0  0  0  0  0  0  0
   -5.2080   16.2210  -34.5920 C   0  0  0  0  0  0  0  0  0  0  0  0
   -6.3670   16.0390  -33.6240 C   0  0  0  0  0  0  0  0  0  0  0  0
   -6.5480   17.3920  -32.9530 C   0  0  0  0  0  0  0  0  0  0  0  0
   -6.6060   22.0510  -32.0370 C   0  0  0  0  0  0  0  0  0  0  0  0
   -5.3320   24.4570  -30.2070 C   0  0  0  0  0  0  0  0  0  0  0  0
   -4.5380   24.5130  -29.0800 C   0  0  0  0  0  0  0  0  0  0  0  0
   -3.2870   24.1290  -29.5310 C   0  0  0  0  0  0  0  0  0  0  0  0
   -2.0490   23.9830  -28.7270 C   0  0  0  0  0  0  0  0  0  0  0  0
   -1.8200   22.7750  -28.0430 C   0  0  0  0  0  0  0  0  0  0  0  0
   -0.6710   22.6020  -27.2670 C   0  0  0  0  0  0  0  0  0  0  0  0
    0.2690   23.6280  -27.1710 C   0  0  0  0  0  0  0  0  0  0  0  0
    0.0660   24.8280  -27.8570 C   0  0  0  0  0  0  0  0  0  0  0  0
   -1.0800   25.0090  -28.6400 C   0  0  0  0  0  0  0  0  0  0  0  0
   -1.2250   26.2000  -29.3420 O   0  0  0  0  0  0  0  0  0  0  0  0
   -3.3570   23.8460  -30.8470 N   0  0  0  0  0  0  0  0  0  0  0  0
   -4.5990   24.0450  -31.2590 N   0  0  0  0  0  0  0  0  0  0  0  0
   -9.8647   22.7496  -31.2587 H   0  0  0  0  0  0  0  0  0  0  0  0
  -10.1012   20.3372  -31.8522 H   0  0  0  0  0  0  0  0  0  0  0  0
   -8.1053   19.0200  -32.5563 H   0  0  0  0  0  0  0  0  0  0  0  0
   -4.5475   18.1062  -35.4186 H   0  0  0  0  0  0  0  0  0  0  0  0
   -3.8658   17.7466  -33.8193 H   0  0  0  0  0  0  0  0  0  0  0  0
   -5.5347   16.0270  -35.6243 H   0  0  0  0  0  0  0  0  0  0  0  0
   -4.3851   15.5223  -34.3806 H   0  0  0  0  0  0  0  0  0  0  0  0
   -7.2803   15.7530  -34.1663 H   0  0  0  0  0  0  0  0  0  0  0  0
   -6.1679   15.2424  -32.8921 H   0  0  0  0  0  0  0  0  0  0  0  0
   -7.6182   17.6259  -32.8531 H   0  0  0  0  0  0  0  0  0  0  0  0
   -6.1106   17.3958  -31.9437 H   0  0  0  0  0  0  0  0  0  0  0  0
   -5.6235   22.5400  -32.1120 H   0  0  0  0  0  0  0  0  0  0  0  0
   -4.8315   24.7972  -28.0587 H   0  0  0  0  0  0  0  0  0  0  0  0
   -2.5530   21.9584  -28.1199 H   0  0  0  0  0  0  0  0  0  0  0  0
   -0.5075   21.6554  -26.7311 H   0  0  0  0  0  0  0  0  0  0  0  0
    1.1702   23.4923  -26.5551 H   0  0  0  0  0  0  0  0  0  0  0  0
    0.8103   25.6344  -27.7814 H   0  0  0  0  0  0  0  0  0  0  0  0
  1  2  2  0
  2  3  1  0
  3  4  1  0
  4  5  2  0
  5  6  1  0
  6  7  2  0
  7  8  1  0
  8  9  1  0
  9 10  2  0
  9 11  2  0
  9 12  1  0
 12 13  1  0
 13 14  1  0
 14 15  1  0
 15 16  1  0
  8 17  2  0
  2 18  1  0
 18 19  1  0
 19 20  2  0
 20 21  1  0
 21 22  2  0
 22 23  1  0
 23 24  2  0
 24 25  1  0
 25 26  2  0
 26 27  1  0
 20 28  1  0
 28 29  1  0
 17  4  1  0
 29 18  2  0
 16 12  1  0
 26 21  1  0
  5 30  1  0
  6 31  1  0
  7 32  1  0
 13 33  1  0
 13 34  1  0
 14 35  1  0
 14 36  1  0
 15 37  1  0
 15 38  1  0
 16 39  1  0
 16 40  1  0
 17 41  1  0
 19 42  1  0
 22 43  1  0
 23 44  1  0
 24 45  1  0
 25 46  1  0
M  CHG  3   3  -1  27  -1  28  -1
M  END
>  <UniqueID>  (12) 
12

>  <SMILES>  (12) 
O=C([N-]c1cccc(S(=O)(=O)N2CCCC2)c1)c1cc(-c2ccccc2[O-])[n-]n1

>  <Energy>  (12) 
87.96322063272348

>  <Genealogy>  (12) 
O=C([N-]c1cccc(S(=O)(=O)N2CCCC2)c1)c1cc(-c2ccccc2[O-])[n-]n1 (protonated)
O=C([N-]c1cccc(S(=O)(=O)N2CCCC2)c1)c1cc(-c2ccccc2[O-])[n-]n1 (3D coordinates assigned)
O=C([N-]c1cccc(S(=O)(=O)N2CCCC2)c1)c1cc(-c2ccccc2[O-])[n-]n1 (nonaromatic ring conformer: 87.96322063272348 kcal/mol)

>  <smiles>  (12) 
O=C(Nc1cccc(S(=O)(=O)N2CCCC2)c1)c1cc(-c2ccccc2O)[nH]n1

>  <score_type>  (12) 
oracle

>  <origin>  (12) 
adgpu

>  <m_score__min__energy>  (12) 
-15.550000000000001

>  <m_primary>  (12) 
energy

$$$$
12:0
     RDKit          3D

 51 54  0  0  0  0  0  0  0  0999 V2000
   -6.3840   26.0540  -29.8590 O   0  0  0  0  0  0  0  0  0  0  0  0
   -5.3430   25.0290  -30.2170 S   0  0  0  0  0  0  0  0  0  0  0  0
   -4.3640   25.6340  -31.1890 O   0  0  0  0  0  0  0  0  0  0  0  0
   -4.4840   24.5470  -28.7860 N   0  0  0  0  0  0  0  0  0  0  0  0
   -3.3100   23.7190  -28.7790 C   0  0  0  0  0  0  0  0  0  0  0  0
   -3.3780   22.3390  -28.5060 C   0  0  0  0  0  0  0  0  0  0  0  0
   -2.2080   21.5790  -28.3770 C   0  0  0  0  0  0  0  0  0  0  0  0
   -0.9530   22.1930  -28.5540 C   0  0  0  0  0  0  0  0  0  0  0  0
   -0.8890   23.5500  -28.9070 C   0  0  0  0  0  0  0  0  0  0  0  0
   -2.0600   24.3110  -29.0110 C   0  0  0  0  0  0  0  0  0  0  0  0
   -1.9710   25.6620  -29.3290 O   0  0  0  0  0  0  0  0  0  0  0  0
    0.3160   21.3830  -28.4270 C   0  0  0  0  0  0  0  0  0  0  0  0
    0.1240   20.1890  -27.4860 C   0  0  0  0  0  0  0  0  0  0  0  0
   -1.0860   19.3540  -27.9230 C   0  0  0  0  0  0  0  0  0  0  0  0
   -2.2850   20.1930  -28.0090 N   0  0  0  0  0  0  0  0  0  0  0  0
   -6.1380   23.6260  -30.9320 C   0  0  0  0  0  0  0  0  0  0  0  0
   -7.4330   23.7520  -31.4530 C   0  0  0  0  0  0  0  0  0  0  0  0
   -8.1510   22.6150  -31.8360 C   0  0  0  0  0  0  0  0  0  0  0  0
   -7.5710   21.3450  -31.7230 C   0  0  0  0  0  0  0  0  0  0  0  0
   -8.5240   19.9010  -32.0580 S   0  0  0  0  0  0  0  0  0  0  0  0
   -9.8200   20.2970  -32.7140 O   0  0  0  0  0  0  0  0  0  0  0  0
   -8.8390   19.2050  -30.7610 O   0  0  0  0  0  0  0  0  0  0  0  0
   -7.6180   18.8210  -33.0940 N   0  0  0  0  0  0  0  0  0  0  0  0
   -7.0400   17.7220  -32.2990 C   0  0  0  0  0  0  0  0  0  0  0  0
   -6.0270   16.9080  -33.1280 C   0  0  0  0  0  0  0  0  0  0  0  0
   -6.0760   17.2740  -34.4950 O   0  0  0  0  0  0  0  0  0  0  0  0
   -5.6810   18.6280  -34.6350 C   0  0  0  0  0  0  0  0  0  0  0  0
   -6.5560   19.5730  -33.7820 C   0  0  0  0  0  0  0  0  0  0  0  0
   -6.2510   21.2260  -31.2640 C   0  0  0  0  0  0  0  0  0  0  0  0
   -5.5390   22.3610  -30.8650 C   0  0  0  0  0  0  0  0  0  0  0  0
   -4.3585   21.8534  -28.3930 H   0  0  0  0  0  0  0  0  0  0  0  0
    0.0867   24.0185  -29.1031 H   0  0  0  0  0  0  0  0  0  0  0  0
    0.6053   21.0123  -29.4214 H   0  0  0  0  0  0  0  0  0  0  0  0
    1.1005   22.0310  -28.0092 H   0  0  0  0  0  0  0  0  0  0  0  0
    1.0261   19.5600  -27.5096 H   0  0  0  0  0  0  0  0  0  0  0  0
   -0.0494   20.5625  -26.4660 H   0  0  0  0  0  0  0  0  0  0  0  0
   -0.8828   18.9109  -28.9091 H   0  0  0  0  0  0  0  0  0  0  0  0
   -1.2587   18.5620  -27.1795 H   0  0  0  0  0  0  0  0  0  0  0  0
   -3.2200   19.7430  -27.8810 H   0  0  0  0  0  0  0  0  0  0  0  0
   -7.8860   24.7486  -31.5609 H   0  0  0  0  0  0  0  0  0  0  0  0
   -9.1740   22.7181  -32.2271 H   0  0  0  0  0  0  0  0  0  0  0  0
   -6.5286   18.1443  -31.4214 H   0  0  0  0  0  0  0  0  0  0  0  0
   -7.8544   17.0514  -31.9875 H   0  0  0  0  0  0  0  0  0  0  0  0
   -5.0141   17.0952  -32.7420 H   0  0  0  0  0  0  0  0  0  0  0  0
   -6.2823   15.8415  -33.0425 H   0  0  0  0  0  0  0  0  0  0  0  0
   -4.6332   18.7279  -34.3154 H   0  0  0  0  0  0  0  0  0  0  0  0
   -5.8015   18.9114  -35.6910 H   0  0  0  0  0  0  0  0  0  0  0  0
   -5.9238   20.0720  -33.0328 H   0  0  0  0  0  0  0  0  0  0  0  0
   -7.0225   20.3166  -34.4449 H   0  0  0  0  0  0  0  0  0  0  0  0
   -5.7742   20.2358  -31.2178 H   0  0  0  0  0  0  0  0  0  0  0  0
   -4.5069   22.2609  -30.4979 H   0  0  0  0  0  0  0  0  0  0  0  0
  1  2  2  0
  2  3  2  0
  2  4  1  0
  4  5  1  0
  5  6  2  0
  6  7  1  0
  7  8  2  0
  8  9  1  0
  9 10  2  0
 10 11  1  0
  8 12  1  0
 12 13  1  0
 13 14  1  0
 14 15  1  0
  2 16  1  0
 16 17  2  0
 17 18  1  0
 18 19  2  0
 19 20  1  0
 20 21  2  0
 20 22  2  0
 20 23  1  0
 23 24  1  0
 24 25  1  0
 25 26  1  0
 26 27  1  0
 27 28  1  0
 19 29  1  0
 29 30  2  0
 10  5  1  0
 30 16  1  0
 15  7  1  0
 28 23  1  0
  6 31  1  0
  9 32  1  0
 12 33  1  0
 12 34  1  0
 13 35  1  0
 13 36  1  0
 14 37  1  0
 14 38  1  0
 15 39  1  0
 17 40  1  0
 18 41  1  0
 24 42  1  0
 24 43  1  0
 25 44  1  0
 25 45  1  0
 27 46  1  0
 27 47  1  0
 28 48  1  0
 28 49  1  0
 29 50  1  0
 30 51  1  0
M  CHG  2   4  -1  11  -1
M  END
>  <UniqueID>  (13) 
13

>  <SMILES>  (13) 
O=S(=O)([N-]c1cc2c(cc1[O-])CCCN2)c1ccc(S(=O)(=O)N2CCOCC2)cc1

>  <Energy>  (13) 
62.02815084784044

>  <Genealogy>  (13) 
O=S(=O)([N-]c1cc2c(cc1[O-])CCCN2)c1ccc(S(=O)(=O)N2CCOCC2)cc1 (protonated)
O=S(=O)([N-]c1cc2c(cc1[O-])CCCN2)c1ccc(S(=O)(=O)N2CCOCC2)cc1 (3D coordinates assigned)
O=S(=O)([N-]c1cc2c(cc1[O-])CCCN2)c1ccc(S(=O)(=O)N2CCOCC2)cc1 (nonaromatic ring conformer: 62.02815084784044 kcal/mol)

>  <smiles>  (13) 
O=S(=O)(Nc1cc2c(cc1O)CCCN2)c1ccc(S(=O)(=O)N2CCOCC2)cc1

>  <score_type>  (13) 
oracle

>  <origin>  (13) 
adgpu

>  <m_score__min__energy>  (13) 
-15.49

>  <m_primary>  (13) 
energy

$$$$
13:0
     RDKit          3D

 51 54  0  0  0  0  0  0  0  0999 V2000
   -3.5350   25.2680  -30.3620 O   0  0  0  0  0  0  0  0  0  0  0  0
   -3.4790   24.0220  -30.5510 C   0  0  0  0  0  0  0  0  0  0  0  0
   -2.6790   23.1690  -29.6200 C   0  0  0  0  0  0  0  0  0  0  0  0
   -1.4680   22.1650  -30.5460 S   0  0  0  0  0  0  0  0  0  0  0  0
   -2.6850   20.9920  -31.1580 C   0  0  0  0  0  0  0  0  0  0  0  0
   -3.7760   20.6210  -30.4630 N   0  0  0  0  0  0  0  0  0  0  0  0
   -4.3540   19.6840  -31.2020 N   0  0  0  0  0  0  0  0  0  0  0  0
   -3.6490   19.4760  -32.3050 N   0  0  0  0  0  0  0  0  0  0  0  0
   -2.6060   20.2880  -32.3040 N   0  0  0  0  0  0  0  0  0  0  0  0
   -1.6060   20.3280  -33.3340 C   0  0  0  0  0  0  0  0  0  0  0  0
   -1.1900   19.1350  -33.9490 C   0  0  0  0  0  0  0  0  0  0  0  0
   -0.2240   19.1610  -34.9600 C   0  0  0  0  0  0  0  0  0  0  0  0
    0.3230   20.3780  -35.3740 C   0  0  0  0  0  0  0  0  0  0  0  0
   -0.0990   21.5720  -34.7820 C   0  0  0  0  0  0  0  0  0  0  0  0
   -1.0630   21.5490  -33.7710 C   0  0  0  0  0  0  0  0  0  0  0  0
   -4.2350   23.4040  -31.5990 N   0  0  0  0  0  0  0  0  0  0  0  0
   -5.6420   23.1230  -31.5860 C   0  0  0  0  0  0  0  0  0  0  0  0
   -6.5990   24.1160  -31.3110 C   0  0  0  0  0  0  0  0  0  0  0  0
   -7.9610   23.8030  -31.3300 C   0  0  0  0  0  0  0  0  0  0  0  0
   -8.3800   22.5040  -31.6280 C   0  0  0  0  0  0  0  0  0  0  0  0
   -7.4360   21.5110  -31.9170 C   0  0  0  0  0  0  0  0  0  0  0  0
   -7.9700   19.8810  -32.3230 S   0  0  0  0  0  0  0  0  0  0  0  0
   -8.6580   19.2650  -31.1360 O   0  0  0  0  0  0  0  0  0  0  0  0
   -8.9550   19.9610  -33.4570 O   0  0  0  0  0  0  0  0  0  0  0  0
   -6.6010   18.9090  -32.8000 N   0  0  0  0  0  0  0  0  0  0  0  0
   -6.8740   17.4800  -32.5470 C   0  0  0  0  0  0  0  0  0  0  0  0
   -5.8530   16.5740  -33.2670 C   0  0  0  0  0  0  0  0  0  0  0  0
   -4.7220   17.3140  -33.6790 O   0  0  0  0  0  0  0  0  0  0  0  0
   -5.1000   18.2560  -34.6680 C   0  0  0  0  0  0  0  0  0  0  0  0
   -6.2880   19.1380  -34.2210 C   0  0  0  0  0  0  0  0  0  0  0  0
   -6.0710   21.8290  -31.9120 C   0  0  0  0  0  0  0  0  0  0  0  0
   -2.1439   23.8148  -28.9082 H   0  0  0  0  0  0  0  0  0  0  0  0
   -3.3619   22.4939  -29.0834 H   0  0  0  0  0  0  0  0  0  0  0  0
   -1.6264   18.1758  -33.6337 H   0  0  0  0  0  0  0  0  0  0  0  0
    0.1054   18.2224  -35.4296 H   0  0  0  0  0  0  0  0  0  0  0  0
    1.0860   20.3967  -36.1661 H   0  0  0  0  0  0  0  0  0  0  0  0
    0.3282   22.5303  -35.1124 H   0  0  0  0  0  0  0  0  0  0  0  0
   -1.3991   22.4916  -33.3143 H   0  0  0  0  0  0  0  0  0  0  0  0
   -6.2749   25.1415  -31.0804 H   0  0  0  0  0  0  0  0  0  0  0  0
   -8.7056   24.5821  -31.1096 H   0  0  0  0  0  0  0  0  0  0  0  0
   -9.4528   22.2610  -31.6356 H   0  0  0  0  0  0  0  0  0  0  0  0
   -5.7840   19.2110  -32.2170 H   0  0  0  0  0  0  0  0  0  0  0  0
   -6.8186   17.2915  -31.4647 H   0  0  0  0  0  0  0  0  0  0  0  0
   -7.8768   17.2460  -32.9339 H   0  0  0  0  0  0  0  0  0  0  0  0
   -5.5311   15.7777  -32.5797 H   0  0  0  0  0  0  0  0  0  0  0  0
   -6.3336   16.1431  -34.1577 H   0  0  0  0  0  0  0  0  0  0  0  0
   -4.2392   18.9061  -34.8834 H   0  0  0  0  0  0  0  0  0  0  0  0
   -5.4164   17.6957  -35.5601 H   0  0  0  0  0  0  0  0  0  0  0  0
   -6.0269   20.1965  -34.3672 H   0  0  0  0  0  0  0  0  0  0  0  0
   -7.1698   18.8755  -34.8240 H   0  0  0  0  0  0  0  0  0  0  0  0
   -5.3301   21.0566  -32.1660 H   0  0  0  0  0  0  0  0  0  0  0  0
  1  2  2  0
  2  3  1  0
  3  4  1  0
  4  5  1  0
  5  6  2  0
  6  7  1  0
  7  8  2  0
  8  9  1  0
  9 10  1  0
 10 11  2  0
 11 12  1  0
 12 13  2  0
 13 14  1  0
 14 15  2  0
  2 16  1  0
 16 17  1  0
 17 18  2  0
 18 19  1  0
 19 20  2  0
 20 21  1  0
 21 22  1  0
 22 23  2  0
 22 24  2  0
 22 25  1  0
 25 26  1  0
 26 27  1  0
 27 28  1  0
 28 29  1  0
 29 30  1  0
 21 31  2  0
  9  5  1  0
 15 10  1  0
 31 17  1  0
 30 25  1  0
  3 32  1  0
  3 33  1  0
 11 34  1  0
 12 35  1  0
 13 36  1  0
 14 37  1  0
 15 38  1  0
 18 39  1  0
 19 40  1  0
 20 41  1  0
 25 42  1  0
 26 43  1  0
 26 44  1  0
 27 45  1  0
 27 46  1  0
 29 47  1  0
 29 48  1  0
 30 49  1  0
 30 50  1  0
 31 51  1  0
M  CHG  2  16  -1  25   1
M  END
>  <UniqueID>  (14) 
14

>  <SMILES>  (14) 
O=C(CSc1nnnn1-c1ccccc1)[N-]c1cccc(S(=O)(=O)[NH+]2CCOCC2)c1

>  <Energy>  (14) 
104.99659254029652

>  <Genealogy>  (14) 
O=C(CSc1nnnn1-c1ccccc1)[N-]c1cccc(S(=O)(=O)[NH+]2CCOCC2)c1 (protonated)
O=C(CSc1nnnn1-c1ccccc1)[N-]c1cccc(S(=O)(=O)[NH+]2CCOCC2)c1 (3D coordinates assigned)
O=C(CSc1nnnn1-c1ccccc1)[N-]c1cccc(S(=O)(=O)[NH+]2CCOCC2)c1 (nonaromatic ring conformer: 104.99659254029652 kcal/mol)

>  <smiles>  (14) 
O=C(CSc1nnnn1-c1ccccc1)Nc1cccc(S(=O)(=O)N2CCOCC2)c1

>  <score_type>  (14) 
oracle

>  <origin>  (14) 
adgpu

>  <m_score__min__energy>  (14) 
-12.19

>  <m_primary>  (14) 
energy

$$$$
14:0
     RDKit          3D

 51 54  0  0  0  0  0  0  0  0999 V2000
   -0.7090   23.2810  -26.5440 C   0  0  0  0  0  0  0  0  0  0  0  0
   -0.2450   23.3740  -27.8880 O   0  0  0  0  0  0  0  0  0  0  0  0
   -0.7200   22.5890  -28.9550 C   0  0  0  0  0  0  0  0  0  0  0  0
   -0.1060   21.3730  -29.3180 C   0  0  0  0  0  0  0  0  0  0  0  0
   -0.5870   20.6280  -30.3990 C   0  0  0  0  0  0  0  0  0  0  0  0
   -1.6880   21.0800  -31.1370 C   0  0  0  0  0  0  0  0  0  0  0  0
   -2.1650   20.3400  -32.3200 C   0  0  0  0  0  0  0  0  0  0  0  0
   -1.4800   20.2430  -33.4790 N   0  0  0  0  0  0  0  0  0  0  0  0
   -2.2390   19.5350  -34.2550 O   0  0  0  0  0  0  0  0  0  0  0  0
   -3.3350   19.2050  -33.6200 C   0  0  0  0  0  0  0  0  0  0  0  0
   -4.4460   18.4140  -34.2180 C   0  0  0  0  0  0  0  0  0  0  0  0
   -3.3490   19.6930  -32.3680 N   0  0  0  0  0  0  0  0  0  0  0  0
   -2.3210   22.2670  -30.7530 C   0  0  0  0  0  0  0  0  0  0  0  0
   -1.8380   23.0380  -29.6840 C   0  0  0  0  0  0  0  0  0  0  0  0
   -2.6320   24.5630  -29.2460 S   0  0  0  0  0  0  0  0  0  0  0  0
   -1.5990   25.6320  -29.0170 O   0  0  0  0  0  0  0  0  0  0  0  0
   -3.4050   24.3460  -27.9750 O   0  0  0  0  0  0  0  0  0  0  0  0
   -3.7490   25.0860  -30.4700 N   0  0  0  0  0  0  0  0  0  0  0  0
   -4.9360   24.3820  -30.8510 C   0  0  0  0  0  0  0  0  0  0  0  0
   -4.8970   23.3420  -31.7940 C   0  0  0  0  0  0  0  0  0  0  0  0
   -6.0400   22.5720  -32.0440 C   0  0  0  0  0  0  0  0  0  0  0  0
   -7.2220   22.8120  -31.3310 C   0  0  0  0  0  0  0  0  0  0  0  0
   -7.2810   23.8870  -30.4390 C   0  0  0  0  0  0  0  0  0  0  0  0
   -6.1500   24.6750  -30.2010 C   0  0  0  0  0  0  0  0  0  0  0  0
   -6.2440   25.7220  -29.2870 O   0  0  0  0  0  0  0  0  0  0  0  0
   -8.4530   21.9710  -31.5930 C   0  0  0  0  0  0  0  0  0  0  0  0
   -8.1850   20.6030  -32.1280 N   0  0  0  0  0  0  0  0  0  0  0  0
   -8.7400   19.5650  -31.2440 C   0  0  0  0  0  0  0  0  0  0  0  0
   -6.7770   20.2800  -32.4670 C   0  0  0  0  0  0  0  0  0  0  0  0
   -6.0330   21.4720  -33.0560 C   0  0  0  0  0  0  0  0  0  0  0  0
    0.1307   23.4493  -25.8537 H   0  0  0  0  0  0  0  0  0  0  0  0
   -1.4845   24.0416  -26.3704 H   0  0  0  0  0  0  0  0  0  0  0  0
   -1.1315   22.2803  -26.3704 H   0  0  0  0  0  0  0  0  0  0  0  0
    0.7592   21.0070  -28.7457 H   0  0  0  0  0  0  0  0  0  0  0  0
   -0.0977   19.6812  -30.6714 H   0  0  0  0  0  0  0  0  0  0  0  0
   -5.0588   17.9777  -33.4154 H   0  0  0  0  0  0  0  0  0  0  0  0
   -5.0708   19.0717  -34.8401 H   0  0  0  0  0  0  0  0  0  0  0  0
   -4.0290   17.6084  -34.8401 H   0  0  0  0  0  0  0  0  0  0  0  0
   -3.2147   22.6027  -31.2994 H   0  0  0  0  0  0  0  0  0  0  0  0
   -3.9648   23.1312  -32.3386 H   0  0  0  0  0  0  0  0  0  0  0  0
   -8.2240   24.1148  -29.9204 H   0  0  0  0  0  0  0  0  0  0  0  0
   -5.4460   26.0470  -28.7550 H   0  0  0  0  0  0  0  0  0  0  0  0
   -9.0008   21.8646  -30.6450 H   0  0  0  0  0  0  0  0  0  0  0  0
   -9.0230   22.4979  -32.3724 H   0  0  0  0  0  0  0  0  0  0  0  0
   -8.5846   19.8557  -30.1945 H   0  0  0  0  0  0  0  0  0  0  0  0
   -9.8171   19.4553  -31.4384 H   0  0  0  0  0  0  0  0  0  0  0  0
   -8.2330   18.6084  -31.4384 H   0  0  0  0  0  0  0  0  0  0  0  0
   -6.2586   19.9570  -31.5521 H   0  0  0  0  0  0  0  0  0  0  0  0
   -6.7890   19.4839  -33.2260 H   0  0  0  0  0  0  0  0  0  0  0  0
   -4.9965   21.1863  -33.2886 H   0  0  0  0  0  0  0  0  0  0  0  0
   -6.5219   21.8051  -33.9834 H   0  0  0  0  0  0  0  0  0  0  0  0
  1  2  1  0
  2  3  1  0
  3  4  2  0
  4  5  1  0
  5  6  2  0
  6  7  1  0
  7  8  2  0
  8  9  1  0
  9 10  1  0
 10 11  1  0
 10 12  2  0
  6 13  1  0
 13 14  2  0
 14 15  1  0
 15 16  2  0
 15 17  2  0
 15 18  1  0
 18 19  1  0
 19 20  2  0
 20 21  1  0
 21 22  2  0
 22 23  1  0
 23 24  2  0
 24 25  1  0
 22 26  1  0
 26 27  1  0
 27 28  1  0
 27 29  1  0
 29 30  1  0
 14  3  1  0
 24 19  1  0
 12  7  1  0
 30 21  1  0
  1 31  1  0
  1 32  1  0
  1 33  1  0
  4 34  1  0
  5 35  1  0
 11 36  1  0
 11 37  1  0
 11 38  1  0
 13 39  1  0
 20 40  1  0
 23 41  1  0
 25 42  1  0
 26 43  1  0
 26 44  1  0
 28 45  1  0
 28 46  1  0
 28 47  1  0
 29 48  1  0
 29 49  1  0
 30 50  1  0
 30 51  1  0
M  CHG  1  18  -1
M  END
>  <UniqueID>  (15) 
15

>  <SMILES>  (15) 
COc1ccc(-c2noc(C)n2)cc1S(=O)(=O)[N-]c1cc2c(cc1O)CN(C)CC2

>  <Energy>  (15) 
101.50687091956836

>  <Genealogy>  (15) 
COc1ccc(-c2noc(C)n2)cc1S(=O)(=O)[N-]c1cc2c(cc1O)CN(C)CC2 (protonated)
COc1ccc(-c2noc(C)n2)cc1S(=O)(=O)[N-]c1cc2c(cc1O)CN(C)CC2 (3D coordinates assigned)
COc1ccc(-c2noc(C)n2)cc1S(=O)(=O)[N-]c1cc2c(cc1O)CN(C)CC2 (nonaromatic ring conformer: 101.50687091956836 kcal/mol)

>  <smiles>  (15) 
COc1ccc(-c2noc(C)n2)cc1S(=O)(=O)Nc1cc2c(cc1O)CN(C)CC2

>  <score_type>  (15) 
oracle

>  <origin>  (15) 
adgpu

>  <m_score__min__energy>  (15) 
-11.08

>  <m_primary>  (15) 
energy

$$$$
15:0
     RDKit          3D

 28 28  0  0  0  0  0  0  0  0999 V2000
   -1.0560   21.1410  -32.8750 C   0  0  0  0  0  0  0  0  0  0  0  0
   -1.9360   20.8630  -34.0140 N   0  0  0  0  0  0  0  0  0  0  0  0
   -2.8190   19.7170  -33.7540 C   0  0  0  0  0  0  0  0  0  0  0  0
   -4.0910   20.1280  -33.0650 C   0  0  0  0  0  0  0  0  0  0  0  0
   -4.9310   19.2460  -32.7390 O   0  0  0  0  0  0  0  0  0  0  0  0
   -4.3120   21.5070  -32.7290 N   0  0  0  0  0  0  0  0  0  0  0  0
   -5.5170   21.9800  -32.1060 C   0  0  0  0  0  0  0  0  0  0  0  0
   -6.7640   21.4980  -32.5370 C   0  0  0  0  0  0  0  0  0  0  0  0
   -7.9450   21.9740  -31.9650 C   0  0  0  0  0  0  0  0  0  0  0  0
   -7.8950   22.9410  -30.9620 C   0  0  0  0  0  0  0  0  0  0  0  0
   -6.6630   23.4360  -30.5270 C   0  0  0  0  0  0  0  0  0  0  0  0
   -5.4660   22.9640  -31.0910 C   0  0  0  0  0  0  0  0  0  0  0  0
   -3.9190   23.5820  -30.4930 S   0  0  0  0  0  0  0  0  0  0  0  0
   -3.8510   25.3050  -30.6280 N   0  0  0  0  0  0  0  0  0  0  0  0
   -3.7600   23.2140  -29.0450 O   0  0  0  0  0  0  0  0  0  0  0  0
   -2.7960   22.9820  -31.2910 O   0  0  0  0  0  0  0  0  0  0  0  0
   -1.6043   20.9678  -31.9372 H   0  0  0  0  0  0  0  0  0  0  0  0
   -0.1812   20.4755  -32.9166 H   0  0  0  0  0  0  0  0  0  0  0  0
   -0.7223   22.1883  -32.9166 H   0  0  0  0  0  0  0  0  0  0  0  0
   -2.5140   21.7160  -34.2050 H   0  0  0  0  0  0  0  0  0  0  0  0
   -3.0727   19.2401  -34.7122 H   0  0  0  0  0  0  0  0  0  0  0  0
   -2.2843   19.0208  -33.0911 H   0  0  0  0  0  0  0  0  0  0  0  0
   -3.5300   22.1810  -32.8870 H   0  0  0  0  0  0  0  0  0  0  0  0
   -6.8103   20.7391  -33.3319 H   0  0  0  0  0  0  0  0  0  0  0  0
   -8.9161   21.5857  -32.3060 H   0  0  0  0  0  0  0  0  0  0  0  0
   -8.8268   23.3148  -30.5125 H   0  0  0  0  0  0  0  0  0  0  0  0
   -6.6300   24.2009  -29.7371 H   0  0  0  0  0  0  0  0  0  0  0  0
   -3.5050   25.6720  -29.7130 H   0  0  0  0  0  0  0  0  0  0  0  0
  1  2  1  0
  2  3  1  0
  3  4  1  0
  4  5  2  0
  4  6  1  0
  6  7  1  0
  7  8  2  0
  8  9  1  0
  9 10  2  0
 10 11  1  0
 11 12  2  0
 12 13  1  0
 13 14  1  0
 13 15  2  0
 13 16  2  0
 12  7  1  0
  1 17  1  0
  1 18  1  0
  1 19  1  0
  2 20  1  0
  3 21  1  0
  3 22  1  0
  6 23  1  0
  8 24  1  0
  9 25  1  0
 10 26  1  0
 11 27  1  0
 14 28  1  0
M  CHG  1  14  -1
M  END
>  <UniqueID>  (16) 
16

>  <SMILES>  (16) 
CNCC(=O)Nc1ccccc1S([NH-])(=O)=O

>  <Energy>  (16) 
29.154592570463524

>  <Genealogy>  (16) 
CNCC(=O)Nc1ccccc1S([NH-])(=O)=O (protonated)
CNCC(=O)Nc1ccccc1S([NH-])(=O)=O (3D coordinates assigned)
CNCC(=O)Nc1ccccc1S([NH-])(=O)=O (optimized conformer: 29.154592570463524 kcal/mol)

>  <smiles>  (16) 
CNCC(=O)Nc1ccccc1S(N)(=O)=O

>  <score_type>  (16) 
oracle

>  <origin>  (16) 
adgpu

>  <m_score__min__energy>  (16) 
-8.0800000000000001

>  <m_primary>  (16) 
energy

$$$$
16:0
     RDKit          3D

 54 56  0  0  0  0  0  0  0  0999 V2000
   -3.3190   21.4560  -33.4880 C   0  0  0  0  0  0  0  0  0  0  0  0
   -2.2450   20.4980  -33.1790 N   0  0  0  0  0  0  0  0  0  0  0  0
   -0.9360   21.1320  -33.4220 C   0  0  0  0  0  0  0  0  0  0  0  0
   -2.3560   20.0480  -31.7760 C   0  0  0  0  0  0  0  0  0  0  0  0
   -2.0000   21.1600  -30.8360 C   0  0  0  0  0  0  0  0  0  0  0  0
   -0.8820   21.2080  -30.0250 C   0  0  0  0  0  0  0  0  0  0  0  0
   -0.9660   22.4030  -29.3450 C   0  0  0  0  0  0  0  0  0  0  0  0
   -2.1320   23.0040  -29.7850 C   0  0  0  0  0  0  0  0  0  0  0  0
   -2.6590   24.2960  -29.3350 C   0  0  0  0  0  0  0  0  0  0  0  0
   -1.9060   25.3050  -29.3120 O   0  0  0  0  0  0  0  0  0  0  0  0
   -4.0190   24.4250  -28.9250 N   0  0  0  0  0  0  0  0  0  0  0  0
   -5.2470   24.8810  -30.0560 S   0  0  0  0  0  0  0  0  0  0  0  0
   -6.2090   25.8170  -29.3800 O   0  0  0  0  0  0  0  0  0  0  0  0
   -4.6180   25.6000  -31.2160 O   0  0  0  0  0  0  0  0  0  0  0  0
   -6.1160   23.4610  -30.6320 C   0  0  0  0  0  0  0  0  0  0  0  0
   -5.6140   22.7240  -31.7140 C   0  0  0  0  0  0  0  0  0  0  0  0
   -6.2770   21.5740  -32.1530 C   0  0  0  0  0  0  0  0  0  0  0  0
   -7.4560   21.1550  -31.5210 C   0  0  0  0  0  0  0  0  0  0  0  0
   -8.3110   19.7190  -32.0890 S   0  0  0  0  0  0  0  0  0  0  0  0
   -9.0230   19.0820  -30.9260 O   0  0  0  0  0  0  0  0  0  0  0  0
   -9.3470   20.1250  -33.1000 O   0  0  0  0  0  0  0  0  0  0  0  0
   -7.2260   18.5540  -32.8040 N   0  0  0  0  0  0  0  0  0  0  0  0
   -6.4950   19.1620  -33.9350 C   0  0  0  0  0  0  0  0  0  0  0  0
   -5.3910   18.2300  -34.4850 C   0  0  0  0  0  0  0  0  0  0  0  0
   -5.4830   16.8180  -33.8990 C   0  0  0  0  0  0  0  0  0  0  0  0
   -5.4830   16.8520  -32.3610 C   0  0  0  0  0  0  0  0  0  0  0  0
   -6.2860   18.0400  -31.7960 C   0  0  0  0  0  0  0  0  0  0  0  0
   -7.9590   21.8940  -30.4410 C   0  0  0  0  0  0  0  0  0  0  0  0
   -7.2900   23.0360  -29.9950 C   0  0  0  0  0  0  0  0  0  0  0  0
   -2.7220   22.2440  -30.6780 O   0  0  0  0  0  0  0  0  0  0  0  0
   -3.7490   21.8396  -32.5510 H   0  0  0  0  0  0  0  0  0  0  0  0
   -2.9074   22.2924  -34.0720 H   0  0  0  0  0  0  0  0  0  0  0  0
   -4.1032   20.9519  -34.0720 H   0  0  0  0  0  0  0  0  0  0  0  0
   -0.4567   21.3641  -32.4595 H   0  0  0  0  0  0  0  0  0  0  0  0
   -0.2959   20.4441  -33.9939 H   0  0  0  0  0  0  0  0  0  0  0  0
   -1.0789   22.0607  -33.9939 H   0  0  0  0  0  0  0  0  0  0  0  0
   -3.3894   19.7260  -31.5802 H   0  0  0  0  0  0  0  0  0  0  0  0
   -1.6601   19.2113  -31.6156 H   0  0  0  0  0  0  0  0  0  0  0  0
   -0.0898   20.4496  -29.9401 H   0  0  0  0  0  0  0  0  0  0  0  0
   -0.2537   22.7977  -28.6055 H   0  0  0  0  0  0  0  0  0  0  0  0
   -4.6940   23.0522  -32.2200 H   0  0  0  0  0  0  0  0  0  0  0  0
   -5.8722   20.9962  -32.9970 H   0  0  0  0  0  0  0  0  0  0  0  0
   -7.2095   19.3799  -34.7425 H   0  0  0  0  0  0  0  0  0  0  0  0
   -6.0112   20.0801  -33.5701 H   0  0  0  0  0  0  0  0  0  0  0  0
   -5.4923   18.1673  -35.5785 H   0  0  0  0  0  0  0  0  0  0  0  0
   -4.4171   18.6528  -34.1975 H   0  0  0  0  0  0  0  0  0  0  0  0
   -6.4131   16.3450  -34.2473 H   0  0  0  0  0  0  0  0  0  0  0  0
   -4.6064   16.2443  -34.2344 H   0  0  0  0  0  0  0  0  0  0  0  0
   -5.9266   15.9172  -31.9877 H   0  0  0  0  0  0  0  0  0  0  0  0
   -4.4403   16.9661  -32.0296 H   0  0  0  0  0  0  0  0  0  0  0  0
   -6.8497   17.7078  -30.9118 H   0  0  0  0  0  0  0  0  0  0  0  0
   -5.5863   18.8429  -31.5208 H   0  0  0  0  0  0  0  0  0  0  0  0
   -8.8853   21.5727  -29.9423 H   0  0  0  0  0  0  0  0  0  0  0  0
   -7.6860   23.6042  -29.1404 H   0  0  0  0  0  0  0  0  0  0  0  0
  1  2  1  0
  2  3  1  0
  2  4  1  0
  4  5  1  0
  5  6  2  0
  6  7  1  0
  7  8  2  0
  8  9  1  0
  9 10  2  0
  9 11  1  0
 11 12  1  0
 12 13  2  0
 12 14  2  0
 12 15  1  0
 15 16  2  0
 16 17  1  0
 17 18  2  0
 18 19  1  0
 19 20  2  0
 19 21  2  0
 19 22  1  0
 22 23  1  0
 23 24  1  0
 24 25  1  0
 25 26  1  0
 26 27  1  0
 18 28  1  0
 28 29  2  0
  8 30  1  0
 30  5  1  0
 29 15  1  0
 27 22  1  0
  1 31  1  0
  1 32  1  0
  1 33  1  0
  3 34  1  0
  3 35  1  0
  3 36  1  0
  4 37  1  0
  4 38  1  0
  6 39  1  0
  7 40  1  0
 16 41  1  0
 17 42  1  0
 23 43  1  0
 23 44  1  0
 24 45  1  0
 24 46  1  0
 25 47  1  0
 25 48  1  0
 26 49  1  0
 26 50  1  0
 27 51  1  0
 27 52  1  0
 28 53  1  0
 29 54  1  0
M  CHG  1  11  -1
M  END
>  <UniqueID>  (17) 
17

>  <SMILES>  (17) 
CN(C)Cc1ccc(C(=O)[N-]S(=O)(=O)c2ccc(S(=O)(=O)N3CCCCC3)cc2)o1

>  <Energy>  (17) 
85.27593873518254

>  <Genealogy>  (17) 
CN(C)Cc1ccc(C(=O)[N-]S(=O)(=O)c2ccc(S(=O)(=O)N3CCCCC3)cc2)o1 (protonated)
CN(C)Cc1ccc(C(=O)[N-]S(=O)(=O)c2ccc(S(=O)(=O)N3CCCCC3)cc2)o1 (3D coordinates assigned)
CN(C)Cc1ccc(C(=O)[N-]S(=O)(=O)c2ccc(S(=O)(=O)N3CCCCC3)cc2)o1 (nonaromatic ring conformer: 85.27593873518254 kcal/mol)

>  <smiles>  (17) 
CN(C)Cc1ccc(C(=O)NS(=O)(=O)c2ccc(S(=O)(=O)N3CCCCC3)cc2)o1

>  <score_type>  (17) 
oracle

>  <origin>  (17) 
adgpu

>  <m_score__min__energy>  (17) 
-11.93

>  <m_primary>  (17) 
energy

$$$$
17:0
     RDKit          3D

 59 62  0  0  0  0  0  0  0  0999 V2000
   -2.5440   23.2080  -30.4090 O   0  0  0  0  0  0  0  0  0  0  0  0
   -3.1150   24.1720  -29.8310 C   0  0  0  0  0  0  0  0  0  0  0  0
   -2.3450   25.2850  -29.3550 N   0  0  0  0  0  0  0  0  0  0  0  0
   -0.9870   25.1580  -28.8430 C   0  0  0  0  0  0  0  0  0  0  0  0
   -0.9840   25.3540  -27.3530 C   0  0  0  0  0  0  0  0  0  0  0  0
   -1.2230   26.6260  -26.8150 C   0  0  0  0  0  0  0  0  0  0  0  0
   -1.2620   26.7900  -25.4280 C   0  0  0  0  0  0  0  0  0  0  0  0
   -1.0740   25.7200  -24.6090 N   0  0  0  0  0  0  0  0  0  0  0  0
   -0.8490   24.4740  -25.1050 C   0  0  0  0  0  0  0  0  0  0  0  0
   -0.8030   24.2670  -26.4850 C   0  0  0  0  0  0  0  0  0  0  0  0
   -4.5980   24.1180  -29.5860 C   0  0  0  0  0  0  0  0  0  0  0  0
   -5.1520   22.7090  -29.8260 C   0  0  0  0  0  0  0  0  0  0  0  0
   -6.6620   22.6850  -29.5730 C   0  0  0  0  0  0  0  0  0  0  0  0
   -7.3930   23.6920  -30.3680 N   0  0  0  0  0  0  0  0  0  0  0  0
   -7.8190   23.1770  -31.9880 S   0  0  0  0  0  0  0  0  0  0  0  0
   -9.1920   23.6780  -32.3390 O   0  0  0  0  0  0  0  0  0  0  0  0
   -6.8490   23.8040  -32.9520 O   0  0  0  0  0  0  0  0  0  0  0  0
   -7.7740   21.4300  -32.2190 C   0  0  0  0  0  0  0  0  0  0  0  0
   -8.7930   20.6240  -31.6920 C   0  0  0  0  0  0  0  0  0  0  0  0
   -8.7470   19.2370  -31.8520 C   0  0  0  0  0  0  0  0  0  0  0  0
   -7.6740   18.6370  -32.5260 C   0  0  0  0  0  0  0  0  0  0  0  0
   -7.6410   17.2550  -32.6980 O   0  0  0  0  0  0  0  0  0  0  0  0
   -6.6390   19.4380  -33.0410 C   0  0  0  0  0  0  0  0  0  0  0  0
   -5.5200   18.8490  -33.7190 N   0  0  0  0  0  0  0  0  0  0  0  0
   -5.7410   18.1130  -34.9680 C   0  0  0  0  0  0  0  0  0  0  0  0
   -4.4860   17.3360  -35.3560 C   0  0  0  0  0  0  0  0  0  0  0  0
   -3.9350   16.7440  -34.1990 O   0  0  0  0  0  0  0  0  0  0  0  0
   -3.3010   17.7320  -33.4040 C   0  0  0  0  0  0  0  0  0  0  0  0
   -4.1720   18.9870  -33.1520 C   0  0  0  0  0  0  0  0  0  0  0  0
   -6.6960   20.8300  -32.8830 C   0  0  0  0  0  0  0  0  0  0  0  0
   -6.8410   25.0600  -30.2930 C   0  0  0  0  0  0  0  0  0  0  0  0
   -5.3170   25.1190  -30.4940 C   0  0  0  0  0  0  0  0  0  0  0  0
   -0.5995   24.1562  -29.0803 H   0  0  0  0  0  0  0  0  0  0  0  0
   -0.3495   25.9226  -29.3111 H   0  0  0  0  0  0  0  0  0  0  0  0
   -1.3787   27.4886  -27.4797 H   0  0  0  0  0  0  0  0  0  0  0  0
   -1.4450   27.7856  -24.9976 H   0  0  0  0  0  0  0  0  0  0  0  0
   -0.7030   23.6276  -24.4177 H   0  0  0  0  0  0  0  0  0  0  0  0
   -0.6262   23.2591  -26.8886 H   0  0  0  0  0  0  0  0  0  0  0  0
   -4.7767   24.3826  -28.5333 H   0  0  0  0  0  0  0  0  0  0  0  0
   -4.9530   22.4126  -30.8665 H   0  0  0  0  0  0  0  0  0  0  0  0
   -4.6609   22.0075  -29.1355 H   0  0  0  0  0  0  0  0  0  0  0  0
   -7.0456   21.6871  -29.8320 H   0  0  0  0  0  0  0  0  0  0  0  0
   -6.8230   22.9220  -28.5110 H   0  0  0  0  0  0  0  0  0  0  0  0
   -9.6319   21.0856  -31.1505 H   0  0  0  0  0  0  0  0  0  0  0  0
   -9.5568   18.6124  -31.4471 H   0  0  0  0  0  0  0  0  0  0  0  0
   -6.8120   16.7820  -33.0380 H   0  0  0  0  0  0  0  0  0  0  0  0
   -6.5754   17.4093  -34.8314 H   0  0  0  0  0  0  0  0  0  0  0  0
   -5.9787   18.8299  -35.7677 H   0  0  0  0  0  0  0  0  0  0  0  0
   -4.7474   16.5523  -36.0823 H   0  0  0  0  0  0  0  0  0  0  0  0
   -3.7521   18.0185  -35.8093 H   0  0  0  0  0  0  0  0  0  0  0  0
   -3.0484   17.2845  -32.4314 H   0  0  0  0  0  0  0  0  0  0  0  0
   -2.4116   18.0661  -33.9584 H   0  0  0  0  0  0  0  0  0  0  0  0
   -4.2585   19.1463  -32.0670 H   0  0  0  0  0  0  0  0  0  0  0  0
   -3.6842   19.8413  -33.6441 H   0  0  0  0  0  0  0  0  0  0  0  0
   -5.8863   21.4572  -33.2843 H   0  0  0  0  0  0  0  0  0  0  0  0
   -7.3189   25.6714  -31.0726 H   0  0  0  0  0  0  0  0  0  0  0  0
   -7.0486   25.4374  -29.2808 H   0  0  0  0  0  0  0  0  0  0  0  0
   -5.0843   24.8829  -31.5429 H   0  0  0  0  0  0  0  0  0  0  0  0
   -4.9715   26.1314  -30.2376 H   0  0  0  0  0  0  0  0  0  0  0  0
  1  2  2  0
  2  3  1  0
  3  4  1  0
  4  5  1  0
  5  6  2  0
  6  7  1  0
  7  8  2  0
  8  9  1  0
  9 10  2  0
  2 11  1  0
 11 12  1  0
 12 13  1  0
 13 14  1  0
 14 15  1  0
 15 16  2  0
 15 17  2  0
 15 18  1  0
 18 19  2  0
 19 20  1  0
 20 21  2  0
 21 22  1  0
 21 23  1  0
 23 24  1  0
 24 25  1  0
 25 26  1  0
 26 27  1  0
 27 28  1  0
 28 29  1  0
 23 30  2  0
 14 31  1  0
 31 32  1  0
 10  5  1  0
 32 11  1  0
 30 18  1  0
 29 24  1  0
  4 33  1  0
  4 34  1  0
  6 35  1  0
  7 36  1  0
  9 37  1  0
 10 38  1  0
 11 39  1  0
 12 40  1  0
 12 41  1  0
 13 42  1  0
 13 43  1  0
 19 44  1  0
 20 45  1  0
 22 46  1  0
 25 47  1  0
 25 48  1  0
 26 49  1  0
 26 50  1  0
 28 51  1  0
 28 52  1  0
 29 53  1  0
 29 54  1  0
 30 55  1  0
 31 56  1  0
 31 57  1  0
 32 58  1  0
 32 59  1  0
M  CHG  1   3  -1
M  END
>  <UniqueID>  (18) 
18

>  <SMILES>  (18) 
O=C([N-]Cc1ccncc1)C1CCN(S(=O)(=O)c2ccc(O)c(N3CCOCC3)c2)CC1

>  <Energy>  (18) 
67.70672884167945

>  <Genealogy>  (18) 
O=C([N-]Cc1ccncc1)C1CCN(S(=O)(=O)c2ccc(O)c(N3CCOCC3)c2)CC1 (protonated)
O=C([N-]Cc1ccncc1)C1CCN(S(=O)(=O)c2ccc(O)c(N3CCOCC3)c2)CC1 (3D coordinates assigned)
O=C([N-]Cc1ccncc1)C1CCN(S(=O)(=O)c2ccc(O)c(N3CCOCC3)c2)CC1 (nonaromatic ring conformer: 67.70672884167945 kcal/mol)

>  <smiles>  (18) 
O=C(NCc1ccncc1)C1CCN(S(=O)(=O)c2ccc(O)c(N3CCOCC3)c2)CC1

>  <score_type>  (18) 
oracle

>  <origin>  (18) 
adgpu

>  <m_score__min__energy>  (18) 
-11.57

>  <m_primary>  (18) 
energy

$$$$
18:0
     RDKit          3D

 59 62  0  0  0  0  0  0  0  0999 V2000
   -5.7050   26.3980  -30.4760 O   0  0  0  0  0  0  0  0  0  0  0  0
   -5.0720   25.3100  -30.5620 C   0  0  0  0  0  0  0  0  0  0  0  0
   -3.6630   25.2860  -30.3050 N   0  0  0  0  0  0  0  0  0  0  0  0
   -3.0050   24.2660  -29.4930 C   0  0  1  0  0  0  0  0  0  0  0  0
   -1.6530   24.7910  -28.9620 C   0  0  0  0  0  0  0  0  0  0  0  0
   -1.3410   24.3090  -27.5300 C   0  0  0  0  0  0  0  0  0  0  0  0
   -1.8050   22.9240  -27.2720 N   0  0  2  0  0  0  0  0  0  0  0  0
   -1.0450   21.9070  -28.0470 C   0  0  0  0  0  0  0  0  0  0  0  0
   -1.6940   21.5890  -29.3750 C   0  0  0  0  0  0  0  0  0  0  0  0
   -2.8440   20.7830  -29.4240 C   0  0  0  0  0  0  0  0  0  0  0  0
   -3.4370   20.4740  -30.6510 C   0  0  0  0  0  0  0  0  0  0  0  0
   -2.8860   20.9630  -31.8390 C   0  0  0  0  0  0  0  0  0  0  0  0
   -1.7420   21.7650  -31.8000 C   0  0  0  0  0  0  0  0  0  0  0  0
   -1.1460   22.0780  -30.5740 C   0  0  0  0  0  0  0  0  0  0  0  0
   -3.2790   22.7720  -27.4640 C   0  0  0  0  0  0  0  0  0  0  0  0
   -3.9260   23.8670  -28.3410 C   0  0  0  0  0  0  0  0  0  0  0  0
   -5.7820   24.0630  -30.9270 C   0  0  0  0  0  0  0  0  0  0  0  0
   -5.3720   23.3030  -32.0380 C   0  0  0  0  0  0  0  0  0  0  0  0
   -6.0390   22.1220  -32.3750 C   0  0  0  0  0  0  0  0  0  0  0  0
   -7.1310   21.6860  -31.6140 C   0  0  0  0  0  0  0  0  0  0  0  0
   -7.9580   20.1830  -32.0130 S   0  0  0  0  0  0  0  0  0  0  0  0
   -8.9260   20.4160  -33.1420 O   0  0  0  0  0  0  0  0  0  0  0  0
   -8.7270   19.7120  -30.8100 O   0  0  0  0  0  0  0  0  0  0  0  0
   -6.7770   18.9780  -32.4600 N   0  0  0  0  0  0  0  0  0  0  0  0
   -7.3720   17.6430  -32.5160 C   0  0  0  0  0  0  0  0  0  0  0  0
   -6.5670   16.8470  -33.5340 C   0  0  0  0  0  0  0  0  0  0  0  0
   -5.7930   17.8810  -34.3370 C   0  0  0  0  0  0  0  0  0  0  0  0
   -6.2470   19.2270  -33.7990 C   0  0  0  0  0  0  0  0  0  0  0  0
   -7.5420   22.4330  -30.5050 C   0  0  0  0  0  0  0  0  0  0  0  0
   -6.8750   23.6130  -30.1640 C   0  0  0  0  0  0  0  0  0  0  0  0
   -2.8019   23.3791  -30.1112 H   0  0  0  0  0  0  0  0  0  0  0  0
   -1.6785   25.8907  -28.9642 H   0  0  0  0  0  0  0  0  0  0  0  0
   -0.8650   24.3978  -29.6211 H   0  0  0  0  0  0  0  0  0  0  0  0
   -1.8372   24.9837  -26.8169 H   0  0  0  0  0  0  0  0  0  0  0  0
   -0.2476   24.3180  -27.4101 H   0  0  0  0  0  0  0  0  0  0  0  0
   -1.6160   22.7320  -26.2580 H   0  0  0  0  0  0  0  0  0  0  0  0
   -0.0307   22.2901  -28.2325 H   0  0  0  0  0  0  0  0  0  0  0  0
   -1.0246   20.9807  -27.4540 H   0  0  0  0  0  0  0  0  0  0  0  0
   -3.2795   20.3934  -28.4920 H   0  0  0  0  0  0  0  0  0  0  0  0
   -4.3388   19.8449  -30.6821 H   0  0  0  0  0  0  0  0  0  0  0  0
   -3.3526   20.7167  -32.8042 H   0  0  0  0  0  0  0  0  0  0  0  0
   -1.3097   22.1507  -32.7351 H   0  0  0  0  0  0  0  0  0  0  0  0
   -0.2453   22.7090  -30.5477 H   0  0  0  0  0  0  0  0  0  0  0  0
   -3.7589   22.7960  -26.4745 H   0  0  0  0  0  0  0  0  0  0  0  0
   -3.4296   21.8185  -27.9914 H   0  0  0  0  0  0  0  0  0  0  0  0
   -4.1279   24.7520  -27.7197 H   0  0  0  0  0  0  0  0  0  0  0  0
   -4.8606   23.4690  -28.7632 H   0  0  0  0  0  0  0  0  0  0  0  0
   -4.5199   23.6410  -32.6460 H   0  0  0  0  0  0  0  0  0  0  0  0
   -5.7050   21.5324  -33.2415 H   0  0  0  0  0  0  0  0  0  0  0  0
   -7.3162   17.1615  -31.5286 H   0  0  0  0  0  0  0  0  0  0  0  0
   -8.4325   17.6945  -32.8035 H   0  0  0  0  0  0  0  0  0  0  0  0
   -5.8757   16.1593  -33.0248 H   0  0  0  0  0  0  0  0  0  0  0  0
   -7.2147   16.2323  -34.1763 H   0  0  0  0  0  0  0  0  0  0  0  0
   -4.7106   17.7522  -34.1895 H   0  0  0  0  0  0  0  0  0  0  0  0
   -5.9802   17.7863  -35.4168 H   0  0  0  0  0  0  0  0  0  0  0  0
   -5.3967   19.9230  -33.7483 H   0  0  0  0  0  0  0  0  0  0  0  0
   -7.0075   19.6814  -34.4510 H   0  0  0  0  0  0  0  0  0  0  0  0
   -8.3936   22.0904  -29.8988 H   0  0  0  0  0  0  0  0  0  0  0  0
   -7.2075   24.1948  -29.2916 H   0  0  0  0  0  0  0  0  0  0  0  0
  1  2  2  0
  2  3  1  0
  3  4  1  0
  4  5  1  0
  5  6  1  0
  6  7  1  0
  7  8  1  0
  8  9  1  0
  9 10  2  0
 10 11  1  0
 11 12  2  0
 12 13  1  0
 13 14  2  0
  7 15  1  0
 15 16  1  0
  2 17  1  0
 17 18  2  0
 18 19  1  0
 19 20  2  0
 20 21  1  0
 21 22  2  0
 21 23  2  0
 21 24  1  0
 24 25  1  0
 25 26  1  0
 26 27  1  0
 27 28  1  0
 20 29  1  0
 29 30  2  0
 16  4  1  0
 30 17  1  0
 14  9  1  0
 28 24  1  0
  4 31  1  6
  5 32  1  0
  5 33  1  0
  6 34  1  0
  6 35  1  0
  7 36  1  1
  8 37  1  0
  8 38  1  0
 10 39  1  0
 11 40  1  0
 12 41  1  0
 13 42  1  0
 14 43  1  0
 15 44  1  0
 15 45  1  0
 16 46  1  0
 16 47  1  0
 18 48  1  0
 19 49  1  0
 25 50  1  0
 25 51  1  0
 26 52  1  0
 26 53  1  0
 27 54  1  0
 27 55  1  0
 28 56  1  0
 28 57  1  0
 29 58  1  0
 30 59  1  0
M  CHG  2   3  -1   7   1
M  END
>  <UniqueID>  (19) 
19

>  <SMILES>  (19) 
O=C([N-]C1CC[NH+](Cc2ccccc2)CC1)c1ccc(S(=O)(=O)N2CCCC2)cc1

>  <Energy>  (19) 
70.46300351692418

>  <Genealogy>  (19) 
O=C([N-]C1CC[NH+](Cc2ccccc2)CC1)c1ccc(S(=O)(=O)N2CCCC2)cc1 (protonated)
O=C([N-]C1CC[NH+](Cc2ccccc2)CC1)c1ccc(S(=O)(=O)N2CCCC2)cc1 (3D coordinates assigned)
O=C([N-]C1CC[NH+](Cc2ccccc2)CC1)c1ccc(S(=O)(=O)N2CCCC2)cc1 (nonaromatic ring conformer: 70.46300351692418 kcal/mol)

>  <smiles>  (19) 
O=C(NC1CCN(Cc2ccccc2)CC1)c1ccc(S(=O)(=O)N2CCCC2)cc1

>  <score_type>  (19) 
oracle

>  <origin>  (19) 
adgpu

>  <m_score__min__energy>  (19) 
-11.460000000000001

>  <m_primary>  (19) 
energy

$$$$
19:0
     RDKit          3D

 46 49  0  0  0  0  0  0  0  0999 V2000
   -2.0170   21.5520  -33.2680 C   0  0  0  0  0  0  0  0  0  0  0  0
   -3.1520   20.6390  -32.9410 C   0  0  0  0  0  0  0  0  0  0  0  0
   -2.9440   19.3990  -32.8390 O   0  0  0  0  0  0  0  0  0  0  0  0
   -4.4600   21.1780  -32.7050 N   0  0  0  0  0  0  0  0  0  0  0  0
   -5.5200   20.3630  -32.1930 C   0  0  0  0  0  0  0  0  0  0  0  0
   -5.3130   18.9770  -32.1760 C   0  0  0  0  0  0  0  0  0  0  0  0
   -6.3730   18.1010  -31.9640 C   0  0  0  0  0  0  0  0  0  0  0  0
   -7.6630   18.5940  -31.8020 C   0  0  0  0  0  0  0  0  0  0  0  0
   -7.8940   19.9770  -31.7720 C   0  0  0  0  0  0  0  0  0  0  0  0
   -9.2040   20.4500  -31.6300 C   0  0  0  0  0  0  0  0  0  0  0  0
   -9.4530   21.8160  -31.5610 C   0  0  0  0  0  0  0  0  0  0  0  0
   -8.3940   22.7190  -31.5470 C   0  0  0  0  0  0  0  0  0  0  0  0
   -7.0640   22.2780  -31.6450 C   0  0  0  0  0  0  0  0  0  0  0  0
   -5.8120   23.4480  -31.1650 S   0  0  0  0  0  0  0  0  0  0  0  0
   -6.3570   24.3820  -30.1200 O   0  0  0  0  0  0  0  0  0  0  0  0
   -5.3930   24.2600  -32.3570 O   0  0  0  0  0  0  0  0  0  0  0  0
   -4.4310   22.6440  -30.4910 N   0  0  0  0  0  0  0  0  0  0  0  0
   -3.6550   23.1260  -29.3850 C   0  0  0  0  0  0  0  0  0  0  0  0
   -3.3410   22.3100  -28.2870 C   0  0  0  0  0  0  0  0  0  0  0  0
   -2.5440   22.7980  -27.2490 C   0  0  0  0  0  0  0  0  0  0  0  0
   -2.0520   24.1150  -27.2800 C   0  0  0  0  0  0  0  0  0  0  0  0
   -1.1970   24.6220  -26.1740 C   0  0  0  0  0  0  0  0  0  0  0  0
   -1.4760   25.6900  -25.3190 C   0  0  0  0  0  0  0  0  0  0  0  0
   -0.4710   25.9260  -24.3720 C   0  0  0  0  0  0  0  0  0  0  0  0
    0.6050   25.0560  -24.4650 C   0  0  0  0  0  0  0  0  0  0  0  0
    0.3020   23.9920  -25.7270 S   0  0  0  0  0  0  0  0  0  0  0  0
   -2.3840   24.9330  -28.3760 C   0  0  0  0  0  0  0  0  0  0  0  0
   -3.1770   24.4420  -29.4170 C   0  0  0  0  0  0  0  0  0  0  0  0
   -3.4790   25.2680  -30.4960 O   0  0  0  0  0  0  0  0  0  0  0  0
   -6.8050   20.8920  -31.8780 C   0  0  0  0  0  0  0  0  0  0  0  0
   -1.5612   21.9186  -32.3364 H   0  0  0  0  0  0  0  0  0  0  0  0
   -1.2638   21.0052  -33.8543 H   0  0  0  0  0  0  0  0  0  0  0  0
   -2.3897   22.4049  -33.8543 H   0  0  0  0  0  0  0  0  0  0  0  0
   -4.5510   22.2160  -32.6120 H   0  0  0  0  0  0  0  0  0  0  0  0
   -4.3003   18.5769  -32.3321 H   0  0  0  0  0  0  0  0  0  0  0  0
   -6.1903   17.0170  -31.9245 H   0  0  0  0  0  0  0  0  0  0  0  0
   -8.5065   17.8958  -31.6969 H   0  0  0  0  0  0  0  0  0  0  0  0
  -10.0401   19.7375  -31.5728 H   0  0  0  0  0  0  0  0  0  0  0  0
  -10.4888   22.1838  -31.5174 H   0  0  0  0  0  0  0  0  0  0  0  0
   -8.6019   23.7955  -31.4577 H   0  0  0  0  0  0  0  0  0  0  0  0
   -3.7249   21.2801  -28.2437 H   0  0  0  0  0  0  0  0  0  0  0  0
   -2.2986   22.1453  -26.3983 H   0  0  0  0  0  0  0  0  0  0  0  0
   -2.3966   26.2887  -25.3829 H   0  0  0  0  0  0  0  0  0  0  0  0
   -0.5300   26.7288  -23.6224 H   0  0  0  0  0  0  0  0  0  0  0  0
    1.4993   25.0622  -23.8246 H   0  0  0  0  0  0  0  0  0  0  0  0
   -2.0158   25.9689  -28.4138 H   0  0  0  0  0  0  0  0  0  0  0  0
  1  2  1  0
  2  3  2  0
  2  4  1  0
  4  5  1  0
  5  6  2  0
  6  7  1  0
  7  8  2  0
  8  9  1  0
  9 10  2  0
 10 11  1  0
 11 12  2  0
 12 13  1  0
 13 14  1  0
 14 15  2  0
 14 16  2  0
 14 17  1  0
 17 18  1  0
 18 19  2  0
 19 20  1  0
 20 21  2  0
 21 22  1  0
 22 23  2  0
 23 24  1  0
 24 25  2  0
 25 26  1  0
 21 27  1  0
 27 28  2  0
 28 29  1  0
 13 30  2  0
 30  5  1  0
 30  9  1  0
 28 18  1  0
 26 22  1  0
  1 31  1  0
  1 32  1  0
  1 33  1  0
  4 34  1  0
  6 35  1  0
  7 36  1  0
  8 37  1  0
 10 38  1  0
 11 39  1  0
 12 40  1  0
 19 41  1  0
 20 42  1  0
 23 43  1  0
 24 44  1  0
 25 45  1  0
 27 46  1  0
M  CHG  2  17  -1  29  -1
M  END
>  <UniqueID>  (20) 
20

>  <SMILES>  (20) 
CC(=O)Nc1cccc2cccc(S(=O)(=O)[N-]c3ccc(-c4cccs4)cc3[O-])c12

>  <Energy>  (20) 
99.72537547339424

>  <Genealogy>  (20) 
CC(=O)Nc1cccc2cccc(S(=O)(=O)[N-]c3ccc(-c4cccs4)cc3[O-])c12 (protonated)
CC(=O)Nc1cccc2cccc(S(=O)(=O)[N-]c3ccc(-c4cccs4)cc3[O-])c12 (3D coordinates assigned)
CC(=O)Nc1cccc2cccc(S(=O)(=O)[N-]c3ccc(-c4cccs4)cc3[O-])c12 (optimized conformer: 99.72537547339424 kcal/mol)

>  <smiles>  (20) 
CC(=O)Nc1cccc2cccc(S(=O)(=O)Nc3ccc(-c4cccs4)cc3O)c12

>  <score_type>  (20) 
oracle

>  <origin>  (20) 
adgpu

>  <m_score__min__energy>  (20) 
-14.17

>  <m_primary>  (20) 
energy

$$$$
20:0
     RDKit          3D

 62 65  0  0  0  0  0  0  0  0999 V2000
   -0.8280   21.6760  -25.1100 O   0  0  0  0  0  0  0  0  0  0  0  0
   -0.4560   22.7280  -26.1170 S   0  0  0  0  0  0  0  0  0  0  0  0
    1.0330   22.9400  -26.0630 O   0  0  0  0  0  0  0  0  0  0  0  0
   -0.9250   22.1760  -27.7210 C   0  0  0  0  0  0  0  0  0  0  0  0
   -1.6280   20.9760  -27.8840 C   0  0  0  0  0  0  0  0  0  0  0  0
   -1.9700   20.5320  -29.1650 C   0  0  0  0  0  0  0  0  0  0  0  0
   -1.6340   21.2920  -30.2950 C   0  0  0  0  0  0  0  0  0  0  0  0
   -2.0710   20.7320  -31.9170 S   0  0  0  0  0  0  0  0  0  0  0  0
   -1.1830   19.5800  -32.2930 O   0  0  0  0  0  0  0  0  0  0  0  0
   -1.7970   21.8440  -32.8880 O   0  0  0  0  0  0  0  0  0  0  0  0
   -3.7510   20.2340  -32.0650 N   0  0  0  0  0  0  0  0  0  0  0  0
   -4.4080   20.7030  -33.3000 C   0  0  0  0  0  0  0  0  0  0  0  0
   -5.2250   19.5810  -33.9510 C   0  0  0  0  0  0  0  0  0  0  0  0
   -6.5250   19.3780  -33.2180 C   0  0  0  0  0  0  0  0  0  0  0  0
   -6.8340   18.1300  -32.6470 C   0  0  0  0  0  0  0  0  0  0  0  0
   -8.0260   17.9590  -31.9350 C   0  0  0  0  0  0  0  0  0  0  0  0
   -8.9080   19.0300  -31.7770 C   0  0  0  0  0  0  0  0  0  0  0  0
   -8.6020   20.2760  -32.3310 C   0  0  0  0  0  0  0  0  0  0  0  0
   -7.4140   20.4530  -33.0480 C   0  0  0  0  0  0  0  0  0  0  0  0
   -4.5460   20.4780  -30.8410 C   0  0  0  0  0  0  0  0  0  0  0  0
   -4.9640   21.9210  -30.6400 C   0  0  0  0  0  0  0  0  0  0  0  0
   -6.3270   22.2460  -30.5140 C   0  0  0  0  0  0  0  0  0  0  0  0
   -6.7250   23.5740  -30.3340 C   0  0  0  0  0  0  0  0  0  0  0  0
   -5.7710   24.5940  -30.2900 C   0  0  0  0  0  0  0  0  0  0  0  0
   -6.1580   25.9170  -30.0890 O   0  0  0  0  0  0  0  0  0  0  0  0
   -4.4160   24.2850  -30.4520 C   0  0  0  0  0  0  0  0  0  0  0  0
   -3.4630   25.2950  -30.4340 O   0  0  0  0  0  0  0  0  0  0  0  0
   -4.0160   22.9590  -30.6420 C   0  0  0  0  0  0  0  0  0  0  0  0
   -0.8850   22.4650  -30.1280 C   0  0  0  0  0  0  0  0  0  0  0  0
   -0.5450   22.9120  -28.8480 C   0  0  0  0  0  0  0  0  0  0  0  0
   -1.3000   24.2100  -25.7520 N   0  0  0  0  0  0  0  0  0  0  0  0
   -1.1020   25.2070  -26.8040 C   0  0  0  0  0  0  0  0  0  0  0  0
   -1.2470   26.5700  -26.1430 C   0  0  0  0  0  0  0  0  0  0  0  0
   -1.0450   26.3200  -24.6570 C   0  0  0  0  0  0  0  0  0  0  0  0
   -0.7920   24.8260  -24.5280 C   0  0  0  0  0  0  0  0  0  0  0  0
   -1.9116   20.3817  -27.0029 H   0  0  0  0  0  0  0  0  0  0  0  0
   -2.5066   19.5796  -29.2875 H   0  0  0  0  0  0  0  0  0  0  0  0
   -5.0786   21.5398  -33.0547 H   0  0  0  0  0  0  0  0  0  0  0  0
   -3.6307   21.0253  -34.0084 H   0  0  0  0  0  0  0  0  0  0  0  0
   -5.4375   19.8485  -34.9966 H   0  0  0  0  0  0  0  0  0  0  0  0
   -4.6439   18.6480  -33.9074 H   0  0  0  0  0  0  0  0  0  0  0  0
   -6.1368   17.2868  -32.7606 H   0  0  0  0  0  0  0  0  0  0  0  0
   -8.2690   16.9789  -31.4987 H   0  0  0  0  0  0  0  0  0  0  0  0
   -9.8443   18.8928  -31.2161 H   0  0  0  0  0  0  0  0  0  0  0  0
   -9.2967   21.1192  -32.2030 H   0  0  0  0  0  0  0  0  0  0  0  0
   -7.1751   21.4361  -33.4798 H   0  0  0  0  0  0  0  0  0  0  0  0
   -5.4552   19.8611  -30.8932 H   0  0  0  0  0  0  0  0  0  0  0  0
   -3.8983   20.2186  -29.9905 H   0  0  0  0  0  0  0  0  0  0  0  0
   -7.0847   21.4498  -30.5574 H   0  0  0  0  0  0  0  0  0  0  0  0
   -7.7925   23.8167  -30.2267 H   0  0  0  0  0  0  0  0  0  0  0  0
   -5.5210   26.6030  -29.7000 H   0  0  0  0  0  0  0  0  0  0  0  0
   -2.9517   22.7262  -30.7942 H   0  0  0  0  0  0  0  0  0  0  0  0
   -0.5626   23.0376  -31.0102 H   0  0  0  0  0  0  0  0  0  0  0  0
    0.0234   23.8459  -28.7266 H   0  0  0  0  0  0  0  0  0  0  0  0
   -0.0985   25.1024  -27.2422 H   0  0  0  0  0  0  0  0  0  0  0  0
   -1.8341   25.0792  -27.6150 H   0  0  0  0  0  0  0  0  0  0  0  0
   -0.4846   27.2656  -26.5236 H   0  0  0  0  0  0  0  0  0  0  0  0
   -2.2265   27.0248  -26.3525 H   0  0  0  0  0  0  0  0  0  0  0  0
   -0.1808   26.8899  -24.2851 H   0  0  0  0  0  0  0  0  0  0  0  0
   -1.9168   26.6391  -24.0669 H   0  0  0  0  0  0  0  0  0  0  0  0
    0.2856   24.6310  -24.4238 H   0  0  0  0  0  0  0  0  0  0  0  0
   -1.2921   24.4140  -23.6391 H   0  0  0  0  0  0  0  0  0  0  0  0
  1  2  2  0
  2  3  2  0
  2  4  1  0
  4  5  2  0
  5  6  1  0
  6  7  2  0
  7  8  1  0
  8  9  2  0
  8 10  2  0
  8 11  1  0
 11 12  1  0
 12 13  1  0
 13 14  1  0
 14 15  2  0
 15 16  1  0
 16 17  2  0
 17 18  1  0
 18 19  2  0
 11 20  1  0
 20 21  1  0
 21 22  2  0
 22 23  1  0
 23 24  2  0
 24 25  1  0
 24 26  1  0
 26 27  1  0
 26 28  2  0
  7 29  1  0
 29 30  2  0
  2 31  1  0
 31 32  1  0
 32 33  1  0
 33 34  1  0
 34 35  1  0
 30  4  1  0
 35 31  1  0
 19 14  1  0
 28 21  1  0
  5 36  1  0
  6 37  1  0
 12 38  1  0
 12 39  1  0
 13 40  1  0
 13 41  1  0
 15 42  1  0
 16 43  1  0
 17 44  1  0
 18 45  1  0
 19 46  1  0
 20 47  1  0
 20 48  1  0
 22 49  1  0
 23 50  1  0
 25 51  1  0
 28 52  1  0
 29 53  1  0
 30 54  1  0
 32 55  1  0
 32 56  1  0
 33 57  1  0
 33 58  1  0
 34 59  1  0
 34 60  1  0
 35 61  1  0
 35 62  1  0
M  CHG  1  27  -1
M  END
>  <UniqueID>  (21) 
21

>  <SMILES>  (21) 
O=S(=O)(c1ccc(S(=O)(=O)N(CCc2ccccc2)Cc2ccc(O)c([O-])c2)cc1)N1CCCC1

>  <Energy>  (21) 
66.02397656856066

>  <Genealogy>  (21) 
O=S(=O)(c1ccc(S(=O)(=O)N(CCc2ccccc2)Cc2ccc(O)c([O-])c2)cc1)N1CCCC1 (protonated)
O=S(=O)(c1ccc(S(=O)(=O)N(CCc2ccccc2)Cc2ccc(O)c([O-])c2)cc1)N1CCCC1 (3D coordinates assigned)
O=S(=O)(c1ccc(S(=O)(=O)N(CCc2ccccc2)Cc2ccc(O)c([O-])c2)cc1)N1CCCC1 (nonaromatic ring conformer: 66.02397656856066 kcal/mol)

>  <smiles>  (21) 
O=S(=O)(c1ccc(S(=O)(=O)N(CCc2ccccc2)Cc2ccc(O)c(O)c2)cc1)N1CCCC1

>  <score_type>  (21) 
oracle

>  <origin>  (21) 
adgpu

>  <m_score__min__energy>  (21) 
-13.029999999999999

>  <m_primary>  (21) 
energy

$$$$
21:0
     RDKit          3D

 30 32  0  0  0  0  0  0  0  0999 V2000
   -4.4060   25.6760  -30.8450 O   0  0  0  0  0  0  0  0  0  0  0  0
   -4.0310   24.5200  -30.5100 C   0  0  0  0  0  0  0  0  0  0  0  0
   -4.6990   23.3700  -31.0330 N   0  0  0  0  0  0  0  0  0  0  0  0
   -5.6370   23.4390  -32.1450 C   0  0  0  0  0  0  0  0  0  0  0  0
   -6.6830   22.3670  -31.9860 C   0  0  0  0  0  0  0  0  0  0  0  0
   -7.9210   22.6890  -31.4010 C   0  0  0  0  0  0  0  0  0  0  0  0
   -8.8970   21.7070  -31.2220 C   0  0  0  0  0  0  0  0  0  0  0  0
   -8.6460   20.3900  -31.6150 C   0  0  0  0  0  0  0  0  0  0  0  0
   -7.4160   20.0540  -32.1830 C   0  0  0  0  0  0  0  0  0  0  0  0
   -6.4300   21.0310  -32.3680 C   0  0  0  0  0  0  0  0  0  0  0  0
   -4.8890   20.5450  -33.0690 Cl  0  0  0  0  0  0  0  0  0  0  0  0
   -2.9040   24.3400  -29.5830 C   0  0  0  0  0  0  0  0  0  0  0  0
   -1.9730   25.2930  -29.3430 N   0  0  0  0  0  0  0  0  0  0  0  0
   -1.0900   24.8310  -28.4610 N   0  0  0  0  0  0  0  0  0  0  0  0
   -1.4620   23.5800  -28.1410 C   0  0  0  0  0  0  0  0  0  0  0  0
   -0.8350   22.7080  -27.2540 C   0  0  0  0  0  0  0  0  0  0  0  0
   -1.4080   21.4370  -27.0730 C   0  0  0  0  0  0  0  0  0  0  0  0
   -2.5790   21.0710  -27.7750 C   0  0  0  0  0  0  0  0  0  0  0  0
   -3.1890   21.9750  -28.6640 C   0  0  0  0  0  0  0  0  0  0  0  0
   -2.5950   23.2290  -28.8210 C   0  0  0  0  0  0  0  0  0  0  0  0
   -6.1221   24.4262  -32.1549 H   0  0  0  0  0  0  0  0  0  0  0  0
   -5.0965   23.2868  -33.0909 H   0  0  0  0  0  0  0  0  0  0  0  0
   -8.1216   23.7225  -31.0821 H   0  0  0  0  0  0  0  0  0  0  0  0
   -9.8650   21.9705  -30.7709 H   0  0  0  0  0  0  0  0  0  0  0  0
   -9.4174   19.6181  -31.4769 H   0  0  0  0  0  0  0  0  0  0  0  0
   -7.2200   19.0152  -32.4872 H   0  0  0  0  0  0  0  0  0  0  0  0
    0.0766   23.0035  -26.7140 H   0  0  0  0  0  0  0  0  0  0  0  0
   -0.9414   20.7218  -26.3797 H   0  0  0  0  0  0  0  0  0  0  0  0
   -3.0163   20.0728  -27.6253 H   0  0  0  0  0  0  0  0  0  0  0  0
   -4.1012   21.7037  -29.2156 H   0  0  0  0  0  0  0  0  0  0  0  0
  1  2  2  0
  2  3  1  0
  3  4  1  0
  4  5  1  0
  5  6  2  0
  6  7  1  0
  7  8  2  0
  8  9  1  0
  9 10  2  0
 10 11  1  0
  2 12  1  0
 12 13  1  0
 13 14  1  0
 14 15  2  0
 15 16  1  0
 16 17  2  0
 17 18  1  0
 18 19  2  0
 19 20  1  0
 10  5  1  0
 20 12  2  0
 20 15  1  0
  4 21  1  0
  4 22  1  0
  6 23  1  0
  7 24  1  0
  8 25  1  0
  9 26  1  0
 16 27  1  0
 17 28  1  0
 18 29  1  0
 19 30  1  0
M  CHG  2   3  -1  13  -1
M  END
>  <UniqueID>  (22) 
22

>  <SMILES>  (22) 
O=C([N-]Cc1ccccc1Cl)c1[n-]nc2ccccc12

>  <Energy>  (22) 
69.33853205345264

>  <Genealogy>  (22) 
O=C([N-]Cc1ccccc1Cl)c1[n-]nc2ccccc12 (protonated)
O=C([N-]Cc1ccccc1Cl)c1[n-]nc2ccccc12 (3D coordinates assigned)
O=C([N-]Cc1ccccc1Cl)c1[n-]nc2ccccc12 (optimized conformer: 69.33853205345264 kcal/mol)

>  <smiles>  (22) 
O=C(NCc1ccccc1Cl)c1[nH]nc2ccccc12

>  <score_type>  (22) 
oracle

>  <origin>  (22) 
adgpu

>  <m_score__min__energy>  (22) 
-10.49

>  <m_primary>  (22) 
energy

$$$$
22:0
     RDKit          3D

 31 33  0  0  0  0  0  0  0  0999 V2000
   -0.8040   18.0860  -27.5190 O   0  0  0  0  0  0  0  0  0  0  0  0
   -0.4680   18.7150  -28.5590 C   0  0  0  0  0  0  0  0  0  0  0  0
   -0.0340   17.9870  -29.7170 N   0  0  0  0  0  0  0  0  0  0  0  0
    0.1870   18.5480  -31.0180 C   0  0  0  0  0  0  0  0  0  0  0  0
   -0.7720   18.3240  -32.0140 C   0  0  0  0  0  0  0  0  0  0  0  0
   -0.5950   18.8470  -33.2990 C   0  0  0  0  0  0  0  0  0  0  0  0
    0.5520   19.5820  -33.6020 C   0  0  0  0  0  0  0  0  0  0  0  0
    1.5310   19.7850  -32.6270 C   0  0  0  0  0  0  0  0  0  0  0  0
    1.3650   19.2580  -31.3360 C   0  0  0  0  0  0  0  0  0  0  0  0
    2.3780   19.4100  -30.3910 O   0  0  0  0  0  0  0  0  0  0  0  0
   -0.4630   20.2030  -28.5640 C   0  0  0  0  0  0  0  0  0  0  0  0
    0.6230   20.9280  -28.0250 C   0  0  0  0  0  0  0  0  0  0  0  0
    1.7270   20.2730  -27.4940 O   0  0  0  0  0  0  0  0  0  0  0  0
    0.6200   22.2570  -28.0290 O   0  0  0  0  0  0  0  0  0  0  0  0
   -0.3750   22.9770  -28.5320 C   0  0  0  0  0  0  0  0  0  0  0  0
   -0.3020   24.3740  -28.4990 C   0  0  0  0  0  0  0  0  0  0  0  0
   -1.3410   25.1460  -29.0260 C   0  0  0  0  0  0  0  0  0  0  0  0
   -1.2590   26.5330  -28.9890 O   0  0  0  0  0  0  0  0  0  0  0  0
   -2.4600   24.5230  -29.5910 C   0  0  0  0  0  0  0  0  0  0  0  0
   -3.4950   25.2880  -30.1160 O   0  0  0  0  0  0  0  0  0  0  0  0
   -2.5420   23.1260  -29.6280 C   0  0  0  0  0  0  0  0  0  0  0  0
   -1.4990   22.3420  -29.1000 C   0  0  0  0  0  0  0  0  0  0  0  0
   -1.5380   20.9370  -29.1110 C   0  0  0  0  0  0  0  0  0  0  0  0
   -2.5390   20.3390  -29.5970 O   0  0  0  0  0  0  0  0  0  0  0  0
   -1.6706   17.7327  -31.7840 H   0  0  0  0  0  0  0  0  0  0  0  0
   -1.3602   18.6789  -34.0712 H   0  0  0  0  0  0  0  0  0  0  0  0
    0.6851   20.0019  -34.6100 H   0  0  0  0  0  0  0  0  0  0  0  0
    2.4362   20.3603  -32.8714 H   0  0  0  0  0  0  0  0  0  0  0  0
    2.1890   19.3560  -29.3960 H   0  0  0  0  0  0  0  0  0  0  0  0
    0.5765   24.8665  -28.0566 H   0  0  0  0  0  0  0  0  0  0  0  0
   -3.4237   22.6397  -30.0708 H   0  0  0  0  0  0  0  0  0  0  0  0
  1  2  2  0
  2  3  1  0
  3  4  1  0
  4  5  2  0
  5  6  1  0
  6  7  2  0
  7  8  1  0
  8  9  2  0
  9 10  1  0
  2 11  1  0
 11 12  2  0
 12 13  1  0
 12 14  1  0
 14 15  1  0
 15 16  2  0
 16 17  1  0
 17 18  1  0
 17 19  2  0
 19 20  1  0
 19 21  1  0
 21 22  2  0
 22 23  1  0
 23 24  2  0
  9  4  1  0
 23 11  1  0
 22 15  1  0
  5 25  1  0
  6 26  1  0
  7 27  1  0
  8 28  1  0
 10 29  1  0
 16 30  1  0
 21 31  1  0
M  CHG  4   3  -1  13  -1  18  -1  20  -1
M  END
>  <UniqueID>  (23) 
23

>  <SMILES>  (23) 
O=C([N-]c1ccccc1O)c1c([O-])oc2cc([O-])c([O-])cc2c1=O

>  <Energy>  (23) 
49.930227457854244

>  <Genealogy>  (23) 
O=C([N-]c1ccccc1O)c1c([O-])oc2cc([O-])c([O-])cc2c1=O (protonated)
O=C([N-]c1ccccc1O)c1c([O-])oc2cc([O-])c([O-])cc2c1=O (3D coordinates assigned)
O=C([N-]c1ccccc1O)c1c([O-])oc2cc([O-])c([O-])cc2c1=O (optimized conformer: 49.930227457854244 kcal/mol)

>  <smiles>  (23) 
O=C(Nc1ccccc1O)c1c(O)oc2cc(O)c(O)cc2c1=O

>  <score_type>  (23) 
oracle

>  <origin>  (23) 
adgpu

>  <m_score__min__energy>  (23) 
-10.82

>  <m_primary>  (23) 
energy

$$$$
23:0
     RDKit          3D

 47 49  0  0  0  0  0  0  0  0999 V2000
    1.6700   15.8490  -26.8110 C   0  0  0  0  0  0  0  0  0  0  0  0
    1.3290   17.1090  -27.5390 C   0  0  0  0  0  0  0  0  0  0  0  0
    2.2460   17.7610  -28.1080 O   0  0  0  0  0  0  0  0  0  0  0  0
   -0.0140   17.6140  -27.5010 N   0  0  0  0  0  0  0  0  0  0  0  0
   -0.4830   18.7140  -28.3000 C   0  0  0  0  0  0  0  0  0  0  0  0
   -1.3300   19.7010  -27.7650 C   0  0  0  0  0  0  0  0  0  0  0  0
   -1.7610   20.7670  -28.5600 C   0  0  0  0  0  0  0  0  0  0  0  0
   -1.3560   20.8610  -29.9020 C   0  0  0  0  0  0  0  0  0  0  0  0
   -1.7910   21.9350  -30.7480 N   0  0  0  0  0  0  0  0  0  0  0  0
   -2.5780   23.0660  -30.3460 C   0  0  0  0  0  0  0  0  0  0  0  0
   -2.0290   23.9660  -29.6570 O   0  0  0  0  0  0  0  0  0  0  0  0
   -3.9890   23.2330  -30.7750 C   0  0  0  0  0  0  0  0  0  0  0  0
   -4.7520   22.1080  -31.1370 C   0  0  0  0  0  0  0  0  0  0  0  0
   -6.0910   22.2470  -31.5260 C   0  0  0  0  0  0  0  0  0  0  0  0
   -7.0490   20.8320  -31.9560 S   0  0  0  0  0  0  0  0  0  0  0  0
   -7.2530   20.8320  -33.4460 O   0  0  0  0  0  0  0  0  0  0  0  0
   -8.3960   20.9020  -31.2890 O   0  0  0  0  0  0  0  0  0  0  0  0
   -6.2050   19.3760  -31.4750 N   0  0  0  0  0  0  0  0  0  0  0  0
   -7.0820   18.2060  -31.5970 C   0  0  0  0  0  0  0  0  0  0  0  0
   -6.8670   17.5930  -32.9720 C   0  0  0  0  0  0  0  0  0  0  0  0
   -5.5640   18.1820  -33.4810 C   0  0  0  0  0  0  0  0  0  0  0  0
   -5.0810   19.1150  -32.3810 C   0  0  0  0  0  0  0  0  0  0  0  0
   -6.6660   23.5210  -31.5840 C   0  0  0  0  0  0  0  0  0  0  0  0
   -5.9150   24.6470  -31.2460 C   0  0  0  0  0  0  0  0  0  0  0  0
   -4.5830   24.5110  -30.8380 C   0  0  0  0  0  0  0  0  0  0  0  0
   -3.8660   25.6500  -30.4860 O   0  0  0  0  0  0  0  0  0  0  0  0
   -0.4710   19.9070  -30.4180 C   0  0  0  0  0  0  0  0  0  0  0  0
   -0.0380   18.8430  -29.6240 C   0  0  0  0  0  0  0  0  0  0  0  0
    1.6217   16.0275  -25.7267 H   0  0  0  0  0  0  0  0  0  0  0  0
    0.9527   15.0615  -27.0853 H   0  0  0  0  0  0  0  0  0  0  0  0
    2.6866   15.5307  -27.0853 H   0  0  0  0  0  0  0  0  0  0  0  0
   -0.6640   17.2140  -26.7870 H   0  0  0  0  0  0  0  0  0  0  0  0
   -1.6548   19.6339  -26.7162 H   0  0  0  0  0  0  0  0  0  0  0  0
   -2.4208   21.5364  -28.1325 H   0  0  0  0  0  0  0  0  0  0  0  0
   -4.2927   21.1087  -31.1145 H   0  0  0  0  0  0  0  0  0  0  0  0
   -6.8323   17.4705  -30.8181 H   0  0  0  0  0  0  0  0  0  0  0  0
   -8.1335   18.5046  -31.4741 H   0  0  0  0  0  0  0  0  0  0  0  0
   -6.7903   16.4983  -32.8968 H   0  0  0  0  0  0  0  0  0  0  0  0
   -7.7050   17.8104  -33.6506 H   0  0  0  0  0  0  0  0  0  0  0  0
   -4.8267   17.3857  -33.6606 H   0  0  0  0  0  0  0  0  0  0  0  0
   -5.7018   18.7130  -34.4344 H   0  0  0  0  0  0  0  0  0  0  0  0
   -4.2576   18.6416  -31.8261 H   0  0  0  0  0  0  0  0  0  0  0  0
   -4.7162   20.0575  -32.8152 H   0  0  0  0  0  0  0  0  0  0  0  0
   -7.7142   23.6353  -31.8973 H   0  0  0  0  0  0  0  0  0  0  0  0
   -6.3717   25.6462  -31.3004 H   0  0  0  0  0  0  0  0  0  0  0  0
   -0.1146   19.9960  -31.4549 H   0  0  0  0  0  0  0  0  0  0  0  0
    0.6579   18.0998  -30.0403 H   0  0  0  0  0  0  0  0  0  0  0  0
  1  2  1  0
  2  3  2  0
  2  4  1  0
  4  5  1  0
  5  6  2  0
  6  7  1  0
  7  8  2  0
  8  9  1  0
  9 10  1  0
 10 11  2  0
 10 12  1  0
 12 13  2  0
 13 14  1  0
 14 15  1  0
 15 16  2  0
 15 17  2  0
 15 18  1  0
 18 19  1  0
 19 20  1  0
 20 21  1  0
 21 22  1  0
 14 23  2  0
 23 24  1  0
 24 25  2  0
 25 26  1  0
  8 27  1  0
 27 28  2  0
 28  5  1  0
 25 12  1  0
 22 18  1  0
  1 29  1  0
  1 30  1  0
  1 31  1  0
  4 32  1  0
  6 33  1  0
  7 34  1  0
 13 35  1  0
 19 36  1  0
 19 37  1  0
 20 38  1  0
 20 39  1  0
 21 40  1  0
 21 41  1  0
 22 42  1  0
 22 43  1  0
 23 44  1  0
 24 45  1  0
 27 46  1  0
 28 47  1  0
M  CHG  2   9  -1  26  -1
M  END
>  <UniqueID>  (24) 
24

>  <SMILES>  (24) 
CC(=O)Nc1ccc([N-]C(=O)c2cc(S(=O)(=O)N3CCCC3)ccc2[O-])cc1

>  <Energy>  (24) 
57.9446621609737

>  <Genealogy>  (24) 
CC(=O)Nc1ccc([N-]C(=O)c2cc(S(=O)(=O)N3CCCC3)ccc2[O-])cc1 (protonated)
CC(=O)Nc1ccc([N-]C(=O)c2cc(S(=O)(=O)N3CCCC3)ccc2[O-])cc1 (3D coordinates assigned)
CC(=O)Nc1ccc([N-]C(=O)c2cc(S(=O)(=O)N3CCCC3)ccc2[O-])cc1 (nonaromatic ring conformer: 57.9446621609737 kcal/mol)

>  <smiles>  (24) 
CC(=O)Nc1ccc(NC(=O)c2cc(S(=O)(=O)N3CCCC3)ccc2O)cc1

>  <score_type>  (24) 
oracle

>  <origin>  (24) 
adgpu

>  <m_score__min__energy>  (24) 
-13.109999999999999

>  <m_primary>  (24) 
energy

$$$$
24:0
     RDKit          3D

 50 54  0  0  0  0  0  0  0  0999 V2000
   -6.8550   25.3160  -29.8700 C   0  0  0  0  0  0  0  0  0  0  0  0
   -5.6040   24.6690  -30.3660 C   0  0  0  0  0  0  0  0  0  0  0  0
   -4.4430   25.2760  -30.4070 O   0  0  0  0  0  0  0  0  0  0  0  0
   -3.5040   24.4740  -30.8200 N   0  0  0  0  0  0  0  0  0  0  0  0
   -4.0770   23.2790  -31.0640 C   0  0  0  0  0  0  0  0  0  0  0  0
   -3.3240   22.0890  -31.5290 C   0  0  0  0  0  0  0  0  0  0  0  0
   -3.1600   21.8620  -32.9070 C   0  0  0  0  0  0  0  0  0  0  0  0
   -2.4410   20.7550  -33.3670 C   0  0  0  0  0  0  0  0  0  0  0  0
   -1.8770   19.8610  -32.4580 C   0  0  0  0  0  0  0  0  0  0  0  0
   -2.0300   20.0710  -31.0860 C   0  0  0  0  0  0  0  0  0  0  0  0
   -2.7470   21.1760  -30.6130 C   0  0  0  0  0  0  0  0  0  0  0  0
   -2.9500   21.3430  -28.8710 Cl  0  0  0  0  0  0  0  0  0  0  0  0
   -5.4400   23.3690  -30.8170 C   0  0  0  0  0  0  0  0  0  0  0  0
   -6.4260   22.2650  -30.8370 C   0  0  0  0  0  0  0  0  0  0  0  0
   -7.4660   22.4040  -30.1370 O   0  0  0  0  0  0  0  0  0  0  0  0
   -6.2390   21.0250  -31.5750 N   0  0  0  0  0  0  0  0  0  0  0  0
   -7.3080   20.0580  -31.2650 C   0  0  0  0  0  0  0  0  0  0  0  0
   -6.8720   18.6570  -31.7010 C   0  0  0  0  0  0  0  0  0  0  0  0
   -6.1810   18.6960  -33.0000 N   0  0  0  0  0  0  0  0  0  0  0  0
   -5.6800   17.4650  -33.5590 C   0  0  0  0  0  0  0  0  0  0  0  0
   -6.4280   16.2620  -33.4310 C   0  0  0  0  0  0  0  0  0  0  0  0
   -5.9480   15.0520  -33.9680 C   0  0  0  0  0  0  0  0  0  0  0  0
   -4.7220   15.0780  -34.6230 C   0  0  0  0  0  0  0  0  0  0  0  0
   -4.0760   14.0550  -35.2070 N   0  0  0  0  0  0  0  0  0  0  0  0
   -2.9410   14.5410  -35.7040 N   0  0  0  0  0  0  0  0  0  0  0  0
   -2.8660   15.8670  -35.4370 C   0  0  0  0  0  0  0  0  0  0  0  0
   -3.9970   16.2250  -34.7470 C   0  0  0  0  0  0  0  0  0  0  0  0
   -4.4350   17.4410  -34.2350 C   0  0  0  0  0  0  0  0  0  0  0  0
   -6.2600   19.8980  -33.8450 C   0  0  0  0  0  0  0  0  0  0  0  0
   -6.0840   21.2080  -33.0400 C   0  0  0  0  0  0  0  0  0  0  0  0
   -6.8562   25.3166  -28.7700 H   0  0  0  0  0  0  0  0  0  0  0  0
   -6.9026   26.3518  -30.2373 H   0  0  0  0  0  0  0  0  0  0  0  0
   -7.7278   24.7562  -30.2373 H   0  0  0  0  0  0  0  0  0  0  0  0
   -3.6021   22.5628  -33.6305 H   0  0  0  0  0  0  0  0  0  0  0  0
   -2.3200   20.5890  -34.4477 H   0  0  0  0  0  0  0  0  0  0  0  0
   -1.3115   18.9903  -32.8215 H   0  0  0  0  0  0  0  0  0  0  0  0
   -1.5839   19.3630  -30.3720 H   0  0  0  0  0  0  0  0  0  0  0  0
   -5.3330   20.6240  -31.2270 H   0  0  0  0  0  0  0  0  0  0  0  0
   -7.5023   20.0610  -30.1823 H   0  0  0  0  0  0  0  0  0  0  0  0
   -8.2248   20.3404  -31.8032 H   0  0  0  0  0  0  0  0  0  0  0  0
   -6.1905   18.2413  -30.9442 H   0  0  0  0  0  0  0  0  0  0  0  0
   -7.7689   18.0281  -31.8017 H   0  0  0  0  0  0  0  0  0  0  0  0
   -7.3943   16.2771  -32.9055 H   0  0  0  0  0  0  0  0  0  0  0  0
   -6.5229   14.1190  -33.8726 H   0  0  0  0  0  0  0  0  0  0  0  0
   -2.0432   16.5387  -35.7230 H   0  0  0  0  0  0  0  0  0  0  0  0
   -3.8343   18.3552  -34.3510 H   0  0  0  0  0  0  0  0  0  0  0  0
   -5.4688   19.8446  -34.6073 H   0  0  0  0  0  0  0  0  0  0  0  0
   -7.2619   19.9194  -34.2986 H   0  0  0  0  0  0  0  0  0  0  0  0
   -5.0776   21.6059  -33.2372 H   0  0  0  0  0  0  0  0  0  0  0  0
   -6.8754   21.8986  -33.3665 H   0  0  0  0  0  0  0  0  0  0  0  0
  1  2  1  0
  2  3  1  0
  3  4  1  0
  4  5  2  0
  5  6  1  0
  6  7  2  0
  7  8  1  0
  8  9  2  0
  9 10  1  0
 10 11  2  0
 11 12  1  0
  5 13  1  0
 13 14  1  0
 14 15  2  0
 14 16  1  0
 16 17  1  0
 17 18  1  0
 18 19  1  0
 19 20  1  0
 20 21  2  0
 21 22  1  0
 22 23  2  0
 23 24  1  0
 24 25  1  0
 25 26  2  0
 26 27  1  0
 27 28  2  0
 19 29  1  0
 29 30  1  0
 13  2  2  0
 30 16  1  0
 11  6  1  0
 28 20  1  0
 27 23  1  0
  1 31  1  0
  1 32  1  0
  1 33  1  0
  7 34  1  0
  8 35  1  0
  9 36  1  0
 10 37  1  0
 16 38  1  0
 17 39  1  0
 17 40  1  0
 18 41  1  0
 18 42  1  0
 21 43  1  0
 22 44  1  0
 26 45  1  0
 28 46  1  0
 29 47  1  0
 29 48  1  0
 30 49  1  0
 30 50  1  0
M  CHG  2  16   1  24  -1
M  END
>  <UniqueID>  (25) 
25

>  <SMILES>  (25) 
Cc1onc(-c2ccccc2Cl)c1C(=O)[NH+]1CCN(c2ccc3[n-]ncc3c2)CC1

>  <Energy>  (25) 
149.9937188874539

>  <Genealogy>  (25) 
Cc1onc(-c2ccccc2Cl)c1C(=O)[NH+]1CCN(c2ccc3[n-]ncc3c2)CC1 (protonated)
Cc1onc(-c2ccccc2Cl)c1C(=O)[NH+]1CCN(c2ccc3[n-]ncc3c2)CC1 (3D coordinates assigned)
Cc1onc(-c2ccccc2Cl)c1C(=O)[NH+]1CCN(c2ccc3[n-]ncc3c2)CC1 (nonaromatic ring conformer: 149.9937188874539 kcal/mol)

>  <smiles>  (25) 
Cc1onc(-c2ccccc2Cl)c1C(=O)N1CCN(c2ccc3[nH]ncc3c2)CC1

>  <score_type>  (25) 
oracle

>  <origin>  (25) 
adgpu

>  <m_score__min__energy>  (25) 
-8.8900000000000006

>  <m_primary>  (25) 
energy

$$$$
25:0
     RDKit          3D

 49 52  0  0  0  0  0  0  0  0999 V2000
   -1.6050   25.3260  -29.3270 O   0  0  0  0  0  0  0  0  0  0  0  0
   -2.0910   24.0440  -28.7140 S   0  0  0  0  0  0  0  0  0  0  0  0
   -1.3570   23.8330  -27.4200 O   0  0  0  0  0  0  0  0  0  0  0  0
   -3.7890   24.1650  -28.3850 N   0  0  0  0  0  0  0  0  0  0  0  0
   -4.8410   23.9640  -29.3390 C   0  0  0  0  0  0  0  0  0  0  0  0
   -5.8650   23.0200  -29.1330 C   0  0  0  0  0  0  0  0  0  0  0  0
   -6.8530   22.8260  -30.1040 C   0  0  0  0  0  0  0  0  0  0  0  0
   -6.8180   23.5620  -31.3050 C   0  0  0  0  0  0  0  0  0  0  0  0
   -5.8200   24.5240  -31.4960 C   0  0  0  0  0  0  0  0  0  0  0  0
   -4.8350   24.7210  -30.5220 C   0  0  0  0  0  0  0  0  0  0  0  0
   -3.8490   25.6760  -30.7330 O   0  0  0  0  0  0  0  0  0  0  0  0
   -7.8920   23.3590  -32.3450 C   0  0  0  0  0  0  0  0  0  0  0  0
   -8.5440   21.9770  -32.2150 C   0  0  0  0  0  0  0  0  0  0  0  0
   -8.9740   21.7300  -30.7660 C   0  0  0  0  0  0  0  0  0  0  0  0
   -7.8580   21.8790  -29.8850 O   0  0  0  0  0  0  0  0  0  0  0  0
   -1.7940   22.6540  -29.7600 C   0  0  0  0  0  0  0  0  0  0  0  0
   -2.6790   22.4230  -30.8250 C   0  0  0  0  0  0  0  0  0  0  0  0
   -2.5110   21.3150  -31.6670 C   0  0  0  0  0  0  0  0  0  0  0  0
   -3.6670   21.0090  -32.9710 S   0  0  0  0  0  0  0  0  0  0  0  0
   -3.0740   20.0100  -33.9300 O   0  0  0  0  0  0  0  0  0  0  0  0
   -3.9080   22.2900  -33.7250 O   0  0  0  0  0  0  0  0  0  0  0  0
   -5.1980   20.4030  -32.3840 N   0  0  0  0  0  0  0  0  0  0  0  0
   -6.1890   20.2960  -33.4530 C   0  0  0  0  0  0  0  0  0  0  0  0
   -7.1710   19.2160  -33.0280 C   0  0  0  0  0  0  0  0  0  0  0  0
   -6.4410   18.3970  -31.9730 C   0  0  0  0  0  0  0  0  0  0  0  0
   -5.0800   19.0610  -31.8140 C   0  0  0  0  0  0  0  0  0  0  0  0
   -1.4250   20.4480  -31.4610 C   0  0  0  0  0  0  0  0  0  0  0  0
   -0.5350   20.6730  -30.4080 C   0  0  0  0  0  0  0  0  0  0  0  0
   -0.7170   21.7680  -29.5520 C   0  0  0  0  0  0  0  0  0  0  0  0
    0.1770   21.9580  -28.5060 O   0  0  0  0  0  0  0  0  0  0  0  0
   -5.8882   22.4320  -28.2037 H   0  0  0  0  0  0  0  0  0  0  0  0
   -5.8098   25.1277  -32.4155 H   0  0  0  0  0  0  0  0  0  0  0  0
   -8.6640   24.1322  -32.2176 H   0  0  0  0  0  0  0  0  0  0  0  0
   -7.4280   23.4302  -33.3398 H   0  0  0  0  0  0  0  0  0  0  0  0
   -9.4268   21.9286  -32.8694 H   0  0  0  0  0  0  0  0  0  0  0  0
   -7.8158   21.2071  -32.5098 H   0  0  0  0  0  0  0  0  0  0  0  0
   -9.7535   22.4555  -30.4901 H   0  0  0  0  0  0  0  0  0  0  0  0
   -9.3647   20.7055  -30.6784 H   0  0  0  0  0  0  0  0  0  0  0  0
   -3.5128   23.1186  -31.0005 H   0  0  0  0  0  0  0  0  0  0  0  0
   -6.7121   21.2549  -33.5830 H   0  0  0  0  0  0  0  0  0  0  0  0
   -5.7126   20.0441  -34.4120 H   0  0  0  0  0  0  0  0  0  0  0  0
   -8.0797   19.6678  -32.6035 H   0  0  0  0  0  0  0  0  0  0  0  0
   -7.4896   18.5957  -33.8787 H   0  0  0  0  0  0  0  0  0  0  0  0
   -6.9922   18.4169  -31.0213 H   0  0  0  0  0  0  0  0  0  0  0  0
   -6.3486   17.3411  -32.2672 H   0  0  0  0  0  0  0  0  0  0  0  0
   -4.8108   19.1236  -30.7493 H   0  0  0  0  0  0  0  0  0  0  0  0
   -4.2954   18.4823  -32.3234 H   0  0  0  0  0  0  0  0  0  0  0  0
   -1.2749   19.5888  -32.1313 H   0  0  0  0  0  0  0  0  0  0  0  0
    0.3115   19.9885  -30.2500 H   0  0  0  0  0  0  0  0  0  0  0  0
  1  2  2  0
  2  3  2  0
  2  4  1  0
  4  5  1  0
  5  6  2  0
  6  7  1  0
  7  8  2  0
  8  9  1  0
  9 10  2  0
 10 11  1  0
  8 12  1  0
 12 13  1  0
 13 14  1  0
 14 15  1  0
  2 16  1  0
 16 17  2  0
 17 18  1  0
 18 19  1  0
 19 20  2  0
 19 21  2  0
 19 22  1  0
 22 23  1  0
 23 24  1  0
 24 25  1  0
 25 26  1  0
 18 27  2  0
 27 28  1  0
 28 29  2  0
 29 30  1  0
 10  5  1  0
 29 16  1  0
 15  7  1  0
 26 22  1  0
  6 31  1  0
  9 32  1  0
 12 33  1  0
 12 34  1  0
 13 35  1  0
 13 36  1  0
 14 37  1  0
 14 38  1  0
 17 39  1  0
 23 40  1  0
 23 41  1  0
 24 42  1  0
 24 43  1  0
 25 44  1  0
 25 45  1  0
 26 46  1  0
 26 47  1  0
 27 48  1  0
 28 49  1  0
M  CHG  3   4  -1  11  -1  30  -1
M  END
>  <UniqueID>  (26) 
26

>  <SMILES>  (26) 
O=S(=O)([N-]c1cc2c(cc1[O-])CCCO2)c1cc(S(=O)(=O)N2CCCC2)ccc1[O-]

>  <Energy>  (26) 
57.12425445335586

>  <Genealogy>  (26) 
O=S(=O)([N-]c1cc2c(cc1[O-])CCCO2)c1cc(S(=O)(=O)N2CCCC2)ccc1[O-] (protonated)
O=S(=O)([N-]c1cc2c(cc1[O-])CCCO2)c1cc(S(=O)(=O)N2CCCC2)ccc1[O-] (3D coordinates assigned)
O=S(=O)([N-]c1cc2c(cc1[O-])CCCO2)c1cc(S(=O)(=O)N2CCCC2)ccc1[O-] (nonaromatic ring conformer: 57.12425445335586 kcal/mol)

>  <smiles>  (26) 
O=S(=O)(Nc1cc2c(cc1O)CCCO2)c1cc(S(=O)(=O)N2CCCC2)ccc1O

>  <score_type>  (26) 
oracle

>  <origin>  (26) 
adgpu

>  <m_score__min__energy>  (26) 
-15.869999999999999

>  <m_primary>  (26) 
energy

$$$$
26:0
     RDKit          3D

 59 62  0  0  0  0  0  0  0  0999 V2000
    0.2180   27.5690  -22.7010 C   0  0  0  0  0  0  0  0  0  0  0  0
   -0.3630   26.5240  -23.6160 C   0  0  0  0  0  0  0  0  0  0  0  0
   -1.5630   26.5930  -23.8480 O   0  0  0  0  0  0  0  0  0  0  0  0
    0.4160   25.4510  -24.2230 N   0  0  0  0  0  0  0  0  0  0  0  0
    1.3570   25.9140  -25.2740 C   0  0  0  0  0  0  0  0  0  0  0  0
    0.7500   25.9830  -26.6790 C   0  0  0  0  0  0  0  0  0  0  0  0
   -0.0170   24.7730  -26.9680 N   0  0  0  0  0  0  0  0  0  0  0  0
    0.1520   24.0940  -28.2270 C   0  0  0  0  0  0  0  0  0  0  0  0
    1.3170   23.8470  -28.6330 O   0  0  0  0  0  0  0  0  0  0  0  0
   -1.0150   23.6940  -29.0570 C   0  0  0  0  0  0  0  0  0  0  0  0
   -1.1210   22.3720  -29.5280 C   0  0  0  0  0  0  0  0  0  0  0  0
   -2.2400   21.9560  -30.2700 C   0  0  0  0  0  0  0  0  0  0  0  0
   -2.3550   20.5290  -30.7340 C   0  0  0  0  0  0  0  0  0  0  0  0
   -1.8020   20.3460  -32.4690 S   0  0  0  0  0  0  0  0  0  0  0  0
   -3.2300   19.3880  -32.9770 C   0  0  0  0  0  0  0  0  0  0  0  0
   -4.3960   20.0230  -33.2630 N   0  0  0  0  0  0  0  0  0  0  0  0
   -5.5180   19.3270  -33.5870 C   0  0  0  0  0  0  0  0  0  0  0  0
   -6.8160   20.0520  -33.8140 C   0  0  0  0  0  0  0  0  0  0  0  0
   -7.1600   20.9440  -32.6500 C   0  0  0  0  0  0  0  0  0  0  0  0
   -6.3280   22.0270  -32.3150 C   0  0  0  0  0  0  0  0  0  0  0  0
   -6.6680   22.8710  -31.2520 C   0  0  0  0  0  0  0  0  0  0  0  0
   -7.8390   22.6440  -30.5230 C   0  0  0  0  0  0  0  0  0  0  0  0
   -8.6810   21.5810  -30.8630 C   0  0  0  0  0  0  0  0  0  0  0  0
   -8.3470   20.7340  -31.9250 C   0  0  0  0  0  0  0  0  0  0  0  0
   -5.4750   17.9280  -33.5960 C   0  0  0  0  0  0  0  0  0  0  0  0
   -4.2630   17.2940  -33.3110 C   0  0  0  0  0  0  0  0  0  0  0  0
   -4.1870   16.0390  -33.3210 O   0  0  0  0  0  0  0  0  0  0  0  0
   -3.1670   18.0320  -33.0090 N   0  0  0  0  0  0  0  0  0  0  0  0
   -3.2660   22.8730  -30.5380 C   0  0  0  0  0  0  0  0  0  0  0  0
   -3.1680   24.1890  -30.0850 C   0  0  0  0  0  0  0  0  0  0  0  0
   -2.0550   24.6040  -29.3460 C   0  0  0  0  0  0  0  0  0  0  0  0
   -1.9890   25.9240  -28.9160 O   0  0  0  0  0  0  0  0  0  0  0  0
   -1.0080   24.3200  -25.9920 C   0  0  0  0  0  0  0  0  0  0  0  0
   -0.3900   24.2600  -24.5900 C   0  0  0  0  0  0  0  0  0  0  0  0
    0.0532   27.2726  -21.6546 H   0  0  0  0  0  0  0  0  0  0  0  0
    1.2976   27.6625  -22.8900 H   0  0  0  0  0  0  0  0  0  0  0  0
   -0.2723   28.5354  -22.8900 H   0  0  0  0  0  0  0  0  0  0  0  0
    1.0440   25.1040  -23.4560 H   0  0  0  0  0  0  0  0  0  0  0  0
    1.7098   26.9196  -25.0016 H   0  0  0  0  0  0  0  0  0  0  0  0
    2.1688   25.1730  -25.3180 H   0  0  0  0  0  0  0  0  0  0  0  0
    0.0847   26.8566  -26.7428 H   0  0  0  0  0  0  0  0  0  0  0  0
    1.5644   26.0704  -27.4132 H   0  0  0  0  0  0  0  0  0  0  0  0
   -0.3163   21.6537  -29.3123 H   0  0  0  0  0  0  0  0  0  0  0  0
   -1.7311   19.8917  -30.0901 H   0  0  0  0  0  0  0  0  0  0  0  0
   -3.4115   20.2287  -30.6733 H   0  0  0  0  0  0  0  0  0  0  0  0
   -6.7282   20.6668  -34.7219 H   0  0  0  0  0  0  0  0  0  0  0  0
   -7.6149   19.3039  -33.9239 H   0  0  0  0  0  0  0  0  0  0  0  0
   -5.4082   22.2110  -32.8896 H   0  0  0  0  0  0  0  0  0  0  0  0
   -6.0127   23.7146  -30.9895 H   0  0  0  0  0  0  0  0  0  0  0  0
   -8.0982   23.3025  -29.6809 H   0  0  0  0  0  0  0  0  0  0  0  0
   -9.6073   21.4105  -30.2947 H   0  0  0  0  0  0  0  0  0  0  0  0
   -9.0142   19.9018  -32.1938 H   0  0  0  0  0  0  0  0  0  0  0  0
   -6.3766   17.3400  -33.8227 H   0  0  0  0  0  0  0  0  0  0  0  0
   -4.1514   22.5539  -31.1074 H   0  0  0  0  0  0  0  0  0  0  0  0
   -3.9717   24.9054  -30.3106 H   0  0  0  0  0  0  0  0  0  0  0  0
   -1.8558   25.0208  -25.9845 H   0  0  0  0  0  0  0  0  0  0  0  0
   -1.3514   23.3136  -26.2735 H   0  0  0  0  0  0  0  0  0  0  0  0
   -1.2054   24.1580  -23.8588 H   0  0  0  0  0  0  0  0  0  0  0  0
    0.2987   23.4023  -24.5873 H   0  0  0  0  0  0  0  0  0  0  0  0
  1  2  1  0
  2  3  2  0
  2  4  1  0
  4  5  1  0
  5  6  1  0
  6  7  1  0
  7  8  1  0
  8  9  2  0
  8 10  1  0
 10 11  2  0
 11 12  1  0
 12 13  1  0
 13 14  1  0
 14 15  1  0
 15 16  2  0
 16 17  1  0
 17 18  1  0
 18 19  1  0
 19 20  2  0
 20 21  1  0
 21 22  2  0
 22 23  1  0
 23 24  2  0
 17 25  2  0
 25 26  1  0
 26 27  2  0
 26 28  1  0
 12 29  2  0
 29 30  1  0
 30 31  2  0
 31 32  1  0
  7 33  1  0
 33 34  1  0
 34  4  1  0
 31 10  1  0
 28 15  1  0
 24 19  1  0
  1 35  1  0
  1 36  1  0
  1 37  1  0
  4 38  1  0
  5 39  1  0
  5 40  1  0
  6 41  1  0
  6 42  1  0
 11 43  1  0
 13 44  1  0
 13 45  1  0
 18 46  1  0
 18 47  1  0
 20 48  1  0
 21 49  1  0
 22 50  1  0
 23 51  1  0
 24 52  1  0
 25 53  1  0
 29 54  1  0
 30 55  1  0
 33 56  1  0
 33 57  1  0
 34 58  1  0
 34 59  1  0
M  CHG  3   4   1  28  -1  32  -1
M  END
>  <UniqueID>  (27) 
27

>  <SMILES>  (27) 
CC(=O)[NH+]1CCN(C(=O)c2cc(CSc3nc(Cc4ccccc4)cc(=O)[n-]3)ccc2[O-])CC1

>  <Energy>  (27) 
68.73117366121151

>  <Genealogy>  (27) 
CC(=O)[NH+]1CCN(C(=O)c2cc(CSc3nc(Cc4ccccc4)cc(=O)[n-]3)ccc2[O-])CC1 (protonated)
CC(=O)[NH+]1CCN(C(=O)c2cc(CSc3nc(Cc4ccccc4)cc(=O)[n-]3)ccc2[O-])CC1 (3D coordinates assigned)
CC(=O)[NH+]1CCN(C(=O)c2cc(CSc3nc(Cc4ccccc4)cc(=O)[n-]3)ccc2[O-])CC1 (nonaromatic ring conformer: 68.73117366121151 kcal/mol)

>  <smiles>  (27) 
CC(=O)N1CCN(C(=O)c2cc(CSc3nc(Cc4ccccc4)cc(=O)[nH]3)ccc2O)CC1

>  <score_type>  (27) 
oracle

>  <origin>  (27) 
adgpu

>  <m_score__min__energy>  (27) 
-13.16

>  <m_primary>  (27) 
energy

$$$$
27:0
     RDKit          3D

 45 48  0  0  0  0  0  0  0  0999 V2000
   -7.8780   23.8010  -33.0920 O   0  0  0  0  0  0  0  0  0  0  0  0
   -7.5780   23.3480  -31.6890 S   0  0  0  0  0  0  0  0  0  0  0  0
   -7.5910   24.5410  -30.7750 O   0  0  0  0  0  0  0  0  0  0  0  0
   -5.9790   22.6140  -31.6230 C   0  0  0  0  0  0  0  0  0  0  0  0
   -5.1520   22.8450  -30.4980 C   0  0  0  0  0  0  0  0  0  0  0  0
   -3.8750   22.2610  -30.4150 C   0  0  0  0  0  0  0  0  0  0  0  0
   -3.4570   21.4540  -31.4740 C   0  0  0  0  0  0  0  0  0  0  0  0
   -4.2550   21.2320  -32.5650 C   0  0  0  0  0  0  0  0  0  0  0  0
   -3.5710   20.3930  -33.4200 C   0  0  0  0  0  0  0  0  0  0  0  0
   -2.3580   20.1360  -32.7890 C   0  0  0  0  0  0  0  0  0  0  0  0
   -2.2960   20.7860  -31.6050 N   0  0  0  0  0  0  0  0  0  0  0  0
   -0.9880   20.7210  -30.4680 S   0  0  0  0  0  0  0  0  0  0  0  0
    0.3110   20.8200  -31.2170 O   0  0  0  0  0  0  0  0  0  0  0  0
   -1.0270   19.4170  -29.7210 O   0  0  0  0  0  0  0  0  0  0  0  0
   -1.1370   22.0450  -29.3180 C   0  0  0  0  0  0  0  0  0  0  0  0
   -1.0840   21.7960  -27.9390 C   0  0  0  0  0  0  0  0  0  0  0  0
   -1.1920   22.8520  -27.0300 C   0  0  0  0  0  0  0  0  0  0  0  0
   -1.3560   24.1640  -27.4890 C   0  0  0  0  0  0  0  0  0  0  0  0
   -1.4580   25.2000  -26.5610 O   0  0  0  0  0  0  0  0  0  0  0  0
   -1.4140   24.4160  -28.8700 C   0  0  0  0  0  0  0  0  0  0  0  0
   -1.5760   25.7120  -29.3440 O   0  0  0  0  0  0  0  0  0  0  0  0
   -1.3080   23.3570  -29.7780 C   0  0  0  0  0  0  0  0  0  0  0  0
   -5.5230   21.7970  -32.6780 C   0  0  0  0  0  0  0  0  0  0  0  0
   -8.7800   22.1880  -31.1670 N   0  0  0  0  0  0  0  0  0  0  0  0
   -8.1380   21.0340  -30.5250 C   0  0  0  0  0  0  0  0  0  0  0  0
   -7.9350   19.9560  -31.5790 C   0  0  0  0  0  0  0  0  0  0  0  0
   -8.8070   20.3600  -32.7520 C   0  0  0  0  0  0  0  0  0  0  0  0
   -9.5030   21.6430  -32.3200 C   0  0  0  0  0  0  0  0  0  0  0  0
   -5.5113   23.4874  -29.6806 H   0  0  0  0  0  0  0  0  0  0  0  0
   -3.2268   22.4348  -29.5435 H   0  0  0  0  0  0  0  0  0  0  0  0
   -3.9118   20.0091  -34.3929 H   0  0  0  0  0  0  0  0  0  0  0  0
   -1.5621   19.4948  -33.1957 H   0  0  0  0  0  0  0  0  0  0  0  0
   -0.9571   20.7669  -27.5718 H   0  0  0  0  0  0  0  0  0  0  0  0
   -1.1479   22.6512  -25.9494 H   0  0  0  0  0  0  0  0  0  0  0  0
   -1.6120   26.1600  -26.8430 H   0  0  0  0  0  0  0  0  0  0  0  0
   -1.3592   23.5556  -30.8587 H   0  0  0  0  0  0  0  0  0  0  0  0
   -6.1495   21.6116  -33.5630 H   0  0  0  0  0  0  0  0  0  0  0  0
   -7.1657   21.3337  -30.1068 H   0  0  0  0  0  0  0  0  0  0  0  0
   -8.7694   20.6533  -29.7087 H   0  0  0  0  0  0  0  0  0  0  0  0
   -6.8789   19.9113  -31.8836 H   0  0  0  0  0  0  0  0  0  0  0  0
   -8.2032   18.9597  -31.1978 H   0  0  0  0  0  0  0  0  0  0  0  0
   -8.1906   20.5393  -33.6452 H   0  0  0  0  0  0  0  0  0  0  0  0
   -9.5293   19.5725  -33.0132 H   0  0  0  0  0  0  0  0  0  0  0  0
   -9.4905   22.3700  -33.1454 H   0  0  0  0  0  0  0  0  0  0  0  0
  -10.5493   21.4365  -32.0505 H   0  0  0  0  0  0  0  0  0  0  0  0
  1  2  2  0
  2  3  2  0
  2  4  1  0
  4  5  2  0
  5  6  1  0
  6  7  2  0
  7  8  1  0
  8  9  1  0
  9 10  2  0
 10 11  1  0
 11 12  1  0
 12 13  2  0
 12 14  2  0
 12 15  1  0
 15 16  2  0
 16 17  1  0
 17 18  2  0
 18 19  1  0
 18 20  1  0
 20 21  1  0
 20 22  2  0
  8 23  2  0
  2 24  1  0
 24 25  1  0
 25 26  1  0
 26 27  1  0
 27 28  1  0
 23  4  1  0
 28 24  1  0
 11  7  1  0
 22 15  1  0
  5 29  1  0
  6 30  1  0
  9 31  1  0
 10 32  1  0
 16 33  1  0
 17 34  1  0
 19 35  1  0
 22 36  1  0
 23 37  1  0
 25 38  1  0
 25 39  1  0
 26 40  1  0
 26 41  1  0
 27 42  1  0
 27 43  1  0
 28 44  1  0
 28 45  1  0
M  CHG  1  21  -1
M  END
>  <UniqueID>  (28) 
28

>  <SMILES>  (28) 
O=S(=O)(c1ccc2c(ccn2S(=O)(=O)c2ccc(O)c([O-])c2)c1)N1CCCC1

>  <Energy>  (28) 
84.0615213563583

>  <Genealogy>  (28) 
O=S(=O)(c1ccc2c(ccn2S(=O)(=O)c2ccc(O)c([O-])c2)c1)N1CCCC1 (protonated)
O=S(=O)(c1ccc2c(ccn2S(=O)(=O)c2ccc(O)c([O-])c2)c1)N1CCCC1 (3D coordinates assigned)
O=S(=O)(c1ccc2c(ccn2S(=O)(=O)c2ccc(O)c([O-])c2)c1)N1CCCC1 (nonaromatic ring conformer: 84.0615213563583 kcal/mol)

>  <smiles>  (28) 
O=S(=O)(c1ccc2c(ccn2S(=O)(=O)c2ccc(O)c(O)c2)c1)N1CCCC1

>  <score_type>  (28) 
oracle

>  <origin>  (28) 
adgpu

>  <m_score__min__energy>  (28) 
-11.82

>  <m_primary>  (28) 
energy

$$$$
28:0
     RDKit          3D

 58 61  0  0  0  0  0  0  0  0999 V2000
   -5.8900   17.5090  -34.5690 C   0  0  0  0  0  0  0  0  0  0  0  0
   -4.9760   18.5880  -34.7290 O   0  0  0  0  0  0  0  0  0  0  0  0
   -4.7990   19.6220  -33.7980 C   0  0  0  0  0  0  0  0  0  0  0  0
   -3.5290   20.0950  -33.4270 C   0  0  0  0  0  0  0  0  0  0  0  0
   -3.4080   21.1220  -32.4890 C   0  0  0  0  0  0  0  0  0  0  0  0
   -4.5430   21.6950  -31.9000 C   0  0  0  0  0  0  0  0  0  0  0  0
   -4.2960   22.9880  -30.7170 S   0  0  0  0  0  0  0  0  0  0  0  0
   -4.8000   24.3010  -31.2460 O   0  0  0  0  0  0  0  0  0  0  0  0
   -5.0620   22.6710  -29.4640 O   0  0  0  0  0  0  0  0  0  0  0  0
   -2.6070   23.0810  -30.3350 N   0  0  0  0  0  0  0  0  0  0  0  0
   -2.1430   23.3240  -29.0040 C   0  0  0  0  0  0  0  0  0  0  0  0
   -1.8720   22.3760  -28.0300 C   0  0  0  0  0  0  0  0  0  0  0  0
   -1.9760   20.8880  -28.1900 C   0  0  0  0  0  0  0  0  0  0  0  0
   -1.3440   23.0130  -26.9530 N   0  0  0  0  0  0  0  0  0  0  0  0
   -0.8350   22.3670  -25.7400 C   0  0  0  0  0  0  0  0  0  0  0  0
   -1.3320   24.3240  -27.1910 N   0  0  0  0  0  0  0  0  0  0  0  0
   -0.8570   25.3400  -26.2920 C   0  0  0  0  0  0  0  0  0  0  0  0
   -1.6940   25.8320  -25.2780 C   0  0  0  0  0  0  0  0  0  0  0  0
   -1.2310   26.8180  -24.4000 C   0  0  0  0  0  0  0  0  0  0  0  0
    0.0700   27.3140  -24.5270 C   0  0  0  0  0  0  0  0  0  0  0  0
    0.9110   26.8220  -25.5300 C   0  0  0  0  0  0  0  0  0  0  0  0
    0.4510   25.8380  -26.4100 C   0  0  0  0  0  0  0  0  0  0  0  0
   -1.8110   24.5320  -28.4340 C   0  0  0  0  0  0  0  0  0  0  0  0
   -1.9550   25.6680  -28.9620 O   0  0  0  0  0  0  0  0  0  0  0  0
   -5.8250   21.2340  -32.2830 C   0  0  0  0  0  0  0  0  0  0  0  0
   -7.0290   21.8000  -31.7440 N   0  0  0  0  0  0  0  0  0  0  0  0
   -7.3500   23.2110  -31.9890 C   0  0  0  0  0  0  0  0  0  0  0  0
   -8.8470   23.4090  -32.3290 C   0  0  0  0  0  0  0  0  0  0  0  0
   -9.6540   22.2610  -32.1200 O   0  0  0  0  0  0  0  0  0  0  0  0
   -9.3230   21.6390  -30.8970 C   0  0  0  0  0  0  0  0  0  0  0  0
   -7.9830   20.9270  -31.0530 C   0  0  0  0  0  0  0  0  0  0  0  0
   -5.9350   20.2000  -33.2240 C   0  0  0  0  0  0  0  0  0  0  0  0
   -6.0501   17.3200  -33.4973 H   0  0  0  0  0  0  0  0  0  0  0  0
   -6.8485   17.7670  -35.0430 H   0  0  0  0  0  0  0  0  0  0  0  0
   -5.4779   16.6060  -35.0430 H   0  0  0  0  0  0  0  0  0  0  0  0
   -2.6271   19.6547  -33.8771 H   0  0  0  0  0  0  0  0  0  0  0  0
   -2.4086   21.4861  -32.2087 H   0  0  0  0  0  0  0  0  0  0  0  0
   -1.9580   23.2630  -31.1320 H   0  0  0  0  0  0  0  0  0  0  0  0
   -2.0091   20.4140  -27.1979 H   0  0  0  0  0  0  0  0  0  0  0  0
   -2.8935   20.6421  -28.7447 H   0  0  0  0  0  0  0  0  0  0  0  0
   -1.1016   20.5169  -28.7447 H   0  0  0  0  0  0  0  0  0  0  0  0
   -1.2389   22.8796  -24.8545 H   0  0  0  0  0  0  0  0  0  0  0  0
   -1.1475   21.3124  -25.7275 H   0  0  0  0  0  0  0  0  0  0  0  0
    0.2634   22.4241  -25.7275 H   0  0  0  0  0  0  0  0  0  0  0  0
   -2.7169   25.4411  -25.1735 H   0  0  0  0  0  0  0  0  0  0  0  0
   -1.8912   27.2034  -23.6090 H   0  0  0  0  0  0  0  0  0  0  0  0
    0.4320   28.0913  -23.8379 H   0  0  0  0  0  0  0  0  0  0  0  0
    1.9358   27.2097  -25.6267 H   0  0  0  0  0  0  0  0  0  0  0  0
    1.1155   25.4525  -27.1973 H   0  0  0  0  0  0  0  0  0  0  0  0
   -7.1098   23.7927  -31.0868 H   0  0  0  0  0  0  0  0  0  0  0  0
   -6.7558   23.5526  -32.8494 H   0  0  0  0  0  0  0  0  0  0  0  0
   -9.2375   24.2227  -31.7003 H   0  0  0  0  0  0  0  0  0  0  0  0
   -8.8966   23.6351  -33.4044 H   0  0  0  0  0  0  0  0  0  0  0  0
   -9.2479   22.3984  -30.1047 H   0  0  0  0  0  0  0  0  0  0  0  0
  -10.1025   20.9120  -30.6250 H   0  0  0  0  0  0  0  0  0  0  0  0
   -7.5885   20.6711  -30.0586 H   0  0  0  0  0  0  0  0  0  0  0  0
   -8.1276   20.0106  -31.6440 H   0  0  0  0  0  0  0  0  0  0  0  0
   -6.9319   19.8377  -33.5153 H   0  0  0  0  0  0  0  0  0  0  0  0
  1  2  1  0
  2  3  1  0
  3  4  2  0
  4  5  1  0
  5  6  2  0
  6  7  1  0
  7  8  2  0
  7  9  2  0
  7 10  1  0
 10 11  1  0
 11 12  2  0
 12 13  1  0
 12 14  1  0
 14 15  1  0
 14 16  1  0
 16 17  1  0
 17 18  2  0
 18 19  1  0
 19 20  2  0
 20 21  1  0
 21 22  2  0
 16 23  1  0
 23 24  2  0
  6 25  1  0
 25 26  1  0
 26 27  1  0
 27 28  1  0
 28 29  1  0
 29 30  1  0
 30 31  1  0
 25 32  2  0
 32  3  1  0
 23 11  1  0
 31 26  1  0
 22 17  1  0
  1 33  1  0
  1 34  1  0
  1 35  1  0
  4 36  1  0
  5 37  1  0
 10 38  1  0
 13 39  1  0
 13 40  1  0
 13 41  1  0
 15 42  1  0
 15 43  1  0
 15 44  1  0
 18 45  1  0
 19 46  1  0
 20 47  1  0
 21 48  1  0
 22 49  1  0
 27 50  1  0
 27 51  1  0
 28 52  1  0
 28 53  1  0
 30 54  1  0
 30 55  1  0
 31 56  1  0
 31 57  1  0
 32 58  1  0
M  END
>  <UniqueID>  (29) 
29

>  <SMILES>  (29) 
COc1ccc(S(=O)(=O)Nc2c(C)n(C)n(-c3ccccc3)c2=O)c(N2CCOCC2)c1

>  <Energy>  (29) 
118.14020008056079

>  <Genealogy>  (29) 
COc1ccc(S(=O)(=O)Nc2c(C)n(C)n(-c3ccccc3)c2=O)c(N2CCOCC2)c1 (3D coordinates assigned)
COc1ccc(S(=O)(=O)Nc2c(C)n(C)n(-c3ccccc3)c2=O)c(N2CCOCC2)c1 (nonaromatic ring conformer: 118.14020008056079 kcal/mol)

>  <smiles>  (29) 
COc1ccc(S(=O)(=O)Nc2c(C)n(C)n(-c3ccccc3)c2=O)c(N2CCOCC2)c1

>  <score_type>  (29) 
oracle

>  <origin>  (29) 
adgpu

>  <m_score__min__energy>  (29) 
-9.1799999999999997

>  <m_primary>  (29) 
energy

$$$$
29:0
     RDKit          3D

 50 53  0  0  1  0  0  0  0  0999 V2000
   -4.9260   17.8040  -35.3920 N   0  0  0  0  0  0  0  0  0  0  0  0
   -5.6330   17.9880  -34.3330 C   0  0  0  0  0  0  0  0  0  0  0  0
   -5.4750   19.1510  -33.6030 C   0  0  0  0  0  0  0  0  0  0  0  0
   -6.2290   19.3720  -32.4540 C   0  0  0  0  0  0  0  0  0  0  0  0
   -5.9890   20.6010  -31.7760 N   0  0  0  0  0  0  0  0  0  0  0  0
   -6.9020   21.5090  -31.6970 C   0  0  0  0  0  0  0  0  0  0  0  0
   -8.1340   21.3860  -32.2300 N   0  0  0  0  0  0  0  0  0  0  0  0
   -8.8270   22.5260  -31.9550 C   0  0  0  0  0  0  0  0  0  0  0  0
   -7.9490   23.3240  -31.2370 C   0  0  0  0  0  0  0  0  0  0  0  0
   -6.7690   22.6970  -31.0790 N   0  0  0  0  0  0  0  0  0  0  0  0
   -5.6500   23.2420  -30.3880 C   0  0  0  0  0  0  0  0  0  0  0  0
   -5.1530   22.7100  -29.2150 C   0  0  0  0  0  0  0  0  0  0  0  0
   -4.0580   23.2600  -28.5570 C   0  0  0  0  0  0  0  0  0  0  0  0
   -3.4340   24.3740  -29.0760 C   0  0  0  0  0  0  0  0  0  0  0  0
   -2.2910   24.9220  -28.3590 C   0  0  0  0  0  0  0  0  0  0  0  0
   -1.4420   25.5590  -29.0340 O   0  0  0  0  0  0  0  0  0  0  0  0
   -2.1090   24.7680  -26.9570 N   0  0  0  0  0  0  0  0  0  0  0  0
   -0.9400   25.3410  -26.2790 C   0  0  0  0  0  0  0  0  0  0  0  0
   -0.7190   26.7790  -26.5730 C   0  0  0  0  0  0  0  0  0  0  0  0
   -1.2240   27.7410  -25.5500 C   0  0  0  0  0  0  0  0  0  0  0  0
   -1.2010   27.2520  -24.1980 N   0  0  0  0  0  0  0  0  0  0  0  0
   -0.3770   26.0740  -24.0390 C   0  0  0  0  0  0  0  0  0  0  0  0
   -1.1020   24.9990  -24.8250 C   0  0  0  0  0  0  0  0  0  0  0  0
   -3.9270   24.9090  -30.2470 C   0  0  0  0  0  0  0  0  0  0  0  0
   -5.0130   24.3580  -30.8940 C   0  0  0  0  0  0  0  0  0  0  0  0
   -7.1270   18.4610  -32.0310 N   0  0  0  0  0  0  0  0  0  0  0  0
   -7.2660   17.3350  -32.7560 C   0  0  0  0  0  0  0  0  0  0  0  0
   -6.5400   17.1040  -33.8760 N   0  0  0  0  0  0  0  0  0  0  0  0
   -4.9930   16.9520  -35.9890 H   0  0  0  0  0  0  0  0  0  0  0  0
   -4.7478   19.9077  -33.9326 H   0  0  0  0  0  0  0  0  0  0  0  0
   -8.4920   20.5580  -32.7640 H   0  0  0  0  0  0  0  0  0  0  0  0
   -9.8623   22.7631  -32.2414 H   0  0  0  0  0  0  0  0  0  0  0  0
   -8.1839   24.3271  -30.8514 H   0  0  0  0  0  0  0  0  0  0  0  0
   -5.6393   21.8213  -28.7864 H   0  0  0  0  0  0  0  0  0  0  0  0
   -3.6908   22.8069  -27.6244 H   0  0  0  0  0  0  0  0  0  0  0  0
   -2.8100   24.2420  -26.3910 H   0  0  0  0  0  0  0  0  0  0  0  0
   -0.0042   24.9064  -26.6603 H   0  0  0  0  0  0  0  0  0  0  0  0
    0.3642   26.9382  -26.6789 H   0  0  0  0  0  0  0  0  0  0  0  0
   -1.2960   26.9871  -27.4861 H   0  0  0  0  0  0  0  0  0  0  0  0
   -0.6024   28.6473  -25.5965 H   0  0  0  0  0  0  0  0  0  0  0  0
   -2.2805   27.9257  -25.7941 H   0  0  0  0  0  0  0  0  0  0  0  0
   -2.1670   27.1070  -23.8090 H   0  0  0  0  0  0  0  0  0  0  0  0
    0.6293   26.2444  -24.4491 H   0  0  0  0  0  0  0  0  0  0  0  0
   -0.2367   25.7993  -22.9831 H   0  0  0  0  0  0  0  0  0  0  0  0
   -0.6597   24.0138  -24.6161 H   0  0  0  0  0  0  0  0  0  0  0  0
   -2.1651   24.9550  -24.5458 H   0  0  0  0  0  0  0  0  0  0  0  0
   -3.4417   25.7980  -30.6762 H   0  0  0  0  0  0  0  0  0  0  0  0
   -5.3771   24.8139  -31.8265 H   0  0  0  0  0  0  0  0  0  0  0  0
   -7.6810   18.6450  -31.1690 H   0  0  0  0  0  0  0  0  0  0  0  0
   -7.9932   16.5776  -32.4280 H   0  0  0  0  0  0  0  0  0  0  0  0
  1  2  2  3
  2  3  1  0
  3  4  2  0
  4  5  1  0
  5  6  2  0
  6  7  1  0
  7  8  1  0
  8  9  2  0
  9 10  1  0
 10 11  1  0
 11 12  2  0
 12 13  1  0
 13 14  2  0
 14 15  1  0
 15 16  2  0
 15 17  1  0
 17 18  1  0
 18 19  1  0
 19 20  1  0
 20 21  1  0
 21 22  1  0
 22 23  1  0
 14 24  1  0
 24 25  2  0
  4 26  1  0
 26 27  1  0
 27 28  2  0
 28  2  1  0
 10  6  1  0
 25 11  1  0
 23 18  1  0
  1 29  1  0
  3 30  1  0
  7 31  1  0
  8 32  1  0
  9 33  1  0
 12 34  1  0
 13 35  1  0
 17 36  1  0
 18 37  1  0
 19 38  1  0
 19 39  1  0
 20 40  1  0
 20 41  1  0
 21 42  1  0
 22 43  1  0
 22 44  1  0
 23 45  1  0
 23 46  1  0
 24 47  1  0
 25 48  1  0
 26 49  1  0
 27 50  1  0
M  END
>  <smiles>  (30) 
N=c1cc(N=c2[nH]ccn2-c2ccc(C(=O)NC3CCNCC3)cc2)[nH]cn1

>  <score_type>  (30) 
oracle

>  <origin>  (30) 
adgpu

>  <m_score__min__energy>  (30) 
-8.4399999999999995

>  <m_primary>  (30) 
energy

$$$$
30:0
     RDKit          3D

 67 70  0  0  0  0  0  0  0  0999 V2000
   -8.0860   18.5570  -31.6270 C   0  0  0  0  0  0  0  0  0  0  0  0
   -6.8260   18.3190  -32.4660 C   0  0  0  0  0  0  0  0  0  0  0  0
   -6.6230   19.4480  -33.4790 C   0  0  0  0  0  0  0  0  0  0  0  0
   -5.2840   19.2600  -34.2070 C   0  0  0  0  0  0  0  0  0  0  0  0
   -5.0340   17.8690  -34.6540 N   0  0  0  0  0  0  0  0  0  0  0  0
   -3.5220   17.1890  -34.0870 S   0  0  0  0  0  0  0  0  0  0  0  0
   -3.7730   16.5550  -32.7470 O   0  0  0  0  0  0  0  0  0  0  0  0
   -3.0850   16.0850  -35.0070 O   0  0  0  0  0  0  0  0  0  0  0  0
   -2.2430   18.4120  -33.8910 C   0  0  0  0  0  0  0  0  0  0  0  0
   -2.4950   19.4610  -32.9890 C   0  0  0  0  0  0  0  0  0  0  0  0
   -1.5900   20.5160  -32.8230 C   0  0  0  0  0  0  0  0  0  0  0  0
   -1.8910   21.5640  -31.8870 N   0  0  0  0  0  0  0  0  0  0  0  0
   -1.8950   21.3840  -30.4610 C   0  0  0  0  0  0  0  0  0  0  0  0
   -1.2500   20.4280  -29.9480 O   0  0  0  0  0  0  0  0  0  0  0  0
   -2.5960   22.3480  -29.5810 C   0  0  0  0  0  0  0  0  0  0  0  0
   -2.1970   22.5090  -28.2440 C   0  0  0  0  0  0  0  0  0  0  0  0
   -2.8490   23.4290  -27.4190 C   0  0  0  0  0  0  0  0  0  0  0  0
   -3.9070   24.1920  -27.9160 C   0  0  0  0  0  0  0  0  0  0  0  0
   -4.3290   24.0290  -29.2410 C   0  0  0  0  0  0  0  0  0  0  0  0
   -5.6850   24.9710  -29.8700 S   0  0  0  0  0  0  0  0  0  0  0  0
   -5.1700   26.0010  -30.8380 O   0  0  0  0  0  0  0  0  0  0  0  0
   -6.3490   25.6940  -28.7320 O   0  0  0  0  0  0  0  0  0  0  0  0
   -6.8560   23.9570  -30.6760 N   0  0  0  0  0  0  0  0  0  0  0  0
   -7.1090   22.7360  -29.8940 C   0  0  0  0  0  0  0  0  0  0  0  0
   -8.3210   21.9780  -30.4650 C   0  0  0  0  0  0  0  0  0  0  0  0
   -8.5570   22.2840  -31.9540 C   0  0  0  0  0  0  0  0  0  0  0  0
   -7.2310   22.5000  -32.6900 C   0  0  0  0  0  0  0  0  0  0  0  0
   -6.3910   23.6230  -32.0390 C   0  0  0  0  0  0  0  0  0  0  0  0
   -3.6750   23.1050  -30.0680 C   0  0  0  0  0  0  0  0  0  0  0  0
   -0.3880   20.5040  -33.5410 C   0  0  0  0  0  0  0  0  0  0  0  0
   -0.1090   19.4640  -34.4250 C   0  0  0  0  0  0  0  0  0  0  0  0
   -1.0130   18.4070  -34.6080 C   0  0  0  0  0  0  0  0  0  0  0  0
   -0.6460   17.3650  -35.5210 N   0  0  0  0  0  0  0  0  0  0  0  0
   -6.1720   16.9320  -34.5500 C   0  0  0  0  0  0  0  0  0  0  0  0
   -6.8810   16.9510  -33.1780 C   0  0  0  0  0  0  0  0  0  0  0  0
   -7.8295   18.5086  -30.5584 H   0  0  0  0  0  0  0  0  0  0  0  0
   -8.4998   19.5492  -31.8602 H   0  0  0  0  0  0  0  0  0  0  0  0
   -8.8332   17.7841  -31.8602 H   0  0  0  0  0  0  0  0  0  0  0  0
   -5.9645   18.3112  -31.7820 H   0  0  0  0  0  0  0  0  0  0  0  0
   -7.4427   19.4322  -34.2124 H   0  0  0  0  0  0  0  0  0  0  0  0
   -6.6165   20.4128  -32.9507 H   0  0  0  0  0  0  0  0  0  0  0  0
   -5.2753   19.9148  -35.0909 H   0  0  0  0  0  0  0  0  0  0  0  0
   -4.4910   19.5117  -33.4874 H   0  0  0  0  0  0  0  0  0  0  0  0
   -3.4243   19.4523  -32.4005 H   0  0  0  0  0  0  0  0  0  0  0  0
   -2.0000   22.5360  -32.2560 H   0  0  0  0  0  0  0  0  0  0  0  0
   -1.3670   21.9078  -27.8444 H   0  0  0  0  0  0  0  0  0  0  0  0
   -2.5275   23.5525  -26.3743 H   0  0  0  0  0  0  0  0  0  0  0  0
   -4.4101   24.9226  -27.2655 H   0  0  0  0  0  0  0  0  0  0  0  0
   -6.2219   22.0871  -29.9371 H   0  0  0  0  0  0  0  0  0  0  0  0
   -7.3205   23.0160  -28.8515 H   0  0  0  0  0  0  0  0  0  0  0  0
   -8.1482   20.8978  -30.3496 H   0  0  0  0  0  0  0  0  0  0  0  0
   -9.2126   22.3056  -29.9103 H   0  0  0  0  0  0  0  0  0  0  0  0
   -9.0898   21.4389  -32.4143 H   0  0  0  0  0  0  0  0  0  0  0  0
   -9.1532   23.2052  -32.0309 H   0  0  0  0  0  0  0  0  0  0  0  0
   -6.6538   21.5639  -32.6664 H   0  0  0  0  0  0  0  0  0  0  0  0
   -7.4579   22.7977  -33.7244 H   0  0  0  0  0  0  0  0  0  0  0  0
   -5.3430   23.2934  -31.9838 H   0  0  0  0  0  0  0  0  0  0  0  0
   -6.4979   24.5246  -32.6601 H   0  0  0  0  0  0  0  0  0  0  0  0
   -4.0095   22.9714  -31.1074 H   0  0  0  0  0  0  0  0  0  0  0  0
    0.3387   21.3187  -33.4066 H   0  0  0  0  0  0  0  0  0  0  0  0
    0.8356   19.4718  -34.9887 H   0  0  0  0  0  0  0  0  0  0  0  0
   -1.3330   16.7880  -36.0410 H   0  0  0  0  0  0  0  0  0  0  0  0
    0.3550   17.0790  -35.6140 H   0  0  0  0  0  0  0  0  0  0  0  0
   -6.9086   17.1959  -35.3232 H   0  0  0  0  0  0  0  0  0  0  0  0
   -5.7624   15.9196  -34.6814 H   0  0  0  0  0  0  0  0  0  0  0  0
   -7.9366   16.6814  -33.3296 H   0  0  0  0  0  0  0  0  0  0  0  0
   -6.3509   16.2338  -32.5341 H   0  0  0  0  0  0  0  0  0  0  0  0
  1  2  1  0
  2  3  1  0
  3  4  1  0
  4  5  1  0
  5  6  1  0
  6  7  2  0
  6  8  2  0
  6  9  1  0
  9 10  2  0
 10 11  1  0
 11 12  1  0
 12 13  1  0
 13 14  2  0
 13 15  1  0
 15 16  2  0
 16 17  1  0
 17 18  2  0
 18 19  1  0
 19 20  1  0
 20 21  2  0
 20 22  2  0
 20 23  1  0
 23 24  1  0
 24 25  1  0
 25 26  1  0
 26 27  1  0
 27 28  1  0
 19 29  2  0
 11 30  2  0
 30 31  1  0
 31 32  2  0
 32 33  1  0
  5 34  1  0
 34 35  1  0
 35  2  1  0
 32  9  1  0
 29 15  1  0
 28 23  1  0
  1 36  1  0
  1 37  1  0
  1 38  1  0
  2 39  1  0
  3 40  1  0
  3 41  1  0
  4 42  1  0
  4 43  1  0
 10 44  1  0
 12 45  1  0
 16 46  1  0
 17 47  1  0
 18 48  1  0
 24 49  1  0
 24 50  1  0
 25 51  1  0
 25 52  1  0
 26 53  1  0
 26 54  1  0
 27 55  1  0
 27 56  1  0
 28 57  1  0
 28 58  1  0
 29 59  1  0
 30 60  1  0
 31 61  1  0
 33 62  1  0
 33 63  1  0
 34 64  1  0
 34 65  1  0
 35 66  1  0
 35 67  1  0
M  END
>  <UniqueID>  (31) 
30

>  <SMILES>  (31) 
CC1CCN(S(=O)(=O)c2cc(NC(=O)c3cccc(S(=O)(=O)N4CCCCC4)c3)ccc2N)CC1

>  <Energy>  (31) 
87.4348013848865

>  <Genealogy>  (31) 
CC1CCN(S(=O)(=O)c2cc(NC(=O)c3cccc(S(=O)(=O)N4CCCCC4)c3)ccc2N)CC1 (3D coordinates assigned)
CC1CCN(S(=O)(=O)c2cc(NC(=O)c3cccc(S(=O)(=O)N4CCCCC4)c3)ccc2N)CC1 (nonaromatic ring conformer: 87.4348013848865 kcal/mol)

>  <smiles>  (31) 
CC1CCN(S(=O)(=O)c2cc(NC(=O)c3cccc(S(=O)(=O)N4CCCCC4)c3)ccc2N)CC1

>  <score_type>  (31) 
oracle

>  <origin>  (31) 
adgpu

>  <m_score__min__energy>  (31) 
-12.15

>  <m_primary>  (31) 
energy

$$$$
31:0
     RDKit          3D

 45 48  0  0  0  0  0  0  0  0999 V2000
   -3.6040   20.6620  -33.1450 C   0  0  0  0  0  0  0  0  0  0  0  0
   -5.0660   20.6020  -33.0700 N   0  0  0  0  0  0  0  0  0  0  0  0
   -5.7960   19.5730  -33.8270 C   0  0  0  0  0  0  0  0  0  0  0  0
   -6.9620   19.0370  -32.9950 C   0  0  0  0  0  0  0  0  0  0  0  0
   -7.7650   20.1190  -32.5240 O   0  0  0  0  0  0  0  0  0  0  0  0
   -7.1850   21.3000  -32.0480 C   0  0  0  0  0  0  0  0  0  0  0  0
   -7.9630   22.2150  -31.3350 C   0  0  0  0  0  0  0  0  0  0  0  0
   -7.3840   23.3800  -30.8280 C   0  0  0  0  0  0  0  0  0  0  0  0
   -6.0240   23.6410  -31.0400 C   0  0  0  0  0  0  0  0  0  0  0  0
   -5.2860   25.1090  -30.4080 S   0  0  0  0  0  0  0  0  0  0  0  0
   -5.7300   25.3020  -28.9860 O   0  0  0  0  0  0  0  0  0  0  0  0
   -5.7000   26.3080  -31.2150 O   0  0  0  0  0  0  0  0  0  0  0  0
   -3.5580   24.9670  -30.4510 N   0  0  0  0  0  0  0  0  0  0  0  0
   -2.7670   24.1830  -29.5460 C   0  0  0  0  0  0  0  0  0  0  0  0
   -3.1170   22.8650  -29.2010 C   0  0  0  0  0  0  0  0  0  0  0  0
   -2.3250   22.1240  -28.3120 C   0  0  0  0  0  0  0  0  0  0  0  0
   -1.1510   22.6950  -27.7820 C   0  0  0  0  0  0  0  0  0  0  0  0
   -0.8080   24.0120  -28.1200 C   0  0  0  0  0  0  0  0  0  0  0  0
   -1.6070   24.7480  -29.0000 C   0  0  0  0  0  0  0  0  0  0  0  0
   -1.2420   26.0480  -29.3310 O   0  0  0  0  0  0  0  0  0  0  0  0
   -0.3130   21.9440  -26.7730 C   0  0  0  0  0  0  0  0  0  0  0  0
   -0.5180   20.4900  -26.8480 N   0  0  0  0  0  0  0  0  0  0  0  0
   -1.9460   20.1620  -26.7830 C   0  0  0  0  0  0  0  0  0  0  0  0
   -2.6850   20.6900  -28.0180 C   0  0  0  0  0  0  0  0  0  0  0  0
   -5.2450   22.7310  -31.7690 C   0  0  0  0  0  0  0  0  0  0  0  0
   -5.8230   21.5550  -32.2880 C   0  0  0  0  0  0  0  0  0  0  0  0
   -3.1851   20.6792  -32.1280 H   0  0  0  0  0  0  0  0  0  0  0  0
   -3.2278   19.7785  -33.6816 H   0  0  0  0  0  0  0  0  0  0  0  0
   -3.3015   21.5733  -33.6816 H   0  0  0  0  0  0  0  0  0  0  0  0
   -6.1847   20.0129  -34.7573 H   0  0  0  0  0  0  0  0  0  0  0  0
   -5.1109   18.7451  -34.0623 H   0  0  0  0  0  0  0  0  0  0  0  0
   -7.5775   18.3709  -33.6175 H   0  0  0  0  0  0  0  0  0  0  0  0
   -6.5644   18.4811  -32.1331 H   0  0  0  0  0  0  0  0  0  0  0  0
   -9.0329   22.0176  -31.1727 H   0  0  0  0  0  0  0  0  0  0  0  0
   -7.9976   24.0951  -30.2604 H   0  0  0  0  0  0  0  0  0  0  0  0
   -4.0211   22.4110  -29.6329 H   0  0  0  0  0  0  0  0  0  0  0  0
    0.0955   24.4689  -27.6900 H   0  0  0  0  0  0  0  0  0  0  0  0
    0.7484   22.1617  -26.9628 H   0  0  0  0  0  0  0  0  0  0  0  0
   -0.6182   22.2752  -25.7694 H   0  0  0  0  0  0  0  0  0  0  0  0
   -0.1230   20.1380  -27.7530 H   0  0  0  0  0  0  0  0  0  0  0  0
   -2.0627   19.0693  -26.7332 H   0  0  0  0  0  0  0  0  0  0  0  0
   -2.3750   20.6353  -25.8875 H   0  0  0  0  0  0  0  0  0  0  0  0
   -2.4169   20.0699  -28.8861 H   0  0  0  0  0  0  0  0  0  0  0  0
   -3.7656   20.6417  -27.8179 H   0  0  0  0  0  0  0  0  0  0  0  0
   -4.1774   22.9360  -31.9366 H   0  0  0  0  0  0  0  0  0  0  0  0
  1  2  1  0
  2  3  1  0
  3  4  1  0
  4  5  1  0
  5  6  1  0
  6  7  2  0
  7  8  1  0
  8  9  2  0
  9 10  1  0
 10 11  2  0
 10 12  2  0
 10 13  1  0
 13 14  1  0
 14 15  2  0
 15 16  1  0
 16 17  2  0
 17 18  1  0
 18 19  2  0
 19 20  1  0
 17 21  1  0
 21 22  1  0
 22 23  1  0
 23 24  1  0
  9 25  1  0
 25 26  2  0
 26  2  1  0
 26  6  1  0
 19 14  1  0
 24 16  1  0
  1 27  1  0
  1 28  1  0
  1 29  1  0
  3 30  1  0
  3 31  1  0
  4 32  1  0
  4 33  1  0
  7 34  1  0
  8 35  1  0
 15 36  1  0
 18 37  1  0
 21 38  1  0
 21 39  1  0
 22 40  1  0
 23 41  1  0
 23 42  1  0
 24 43  1  0
 24 44  1  0
 25 45  1  0
M  CHG  2  13  -1  20  -1
M  END
>  <UniqueID>  (32) 
31

>  <SMILES>  (32) 
CN1CCOc2ccc(S(=O)(=O)[N-]c3cc4c(cc3[O-])CNCC4)cc21

>  <Energy>  (32) 
53.33876152152146

>  <Genealogy>  (32) 
CN1CCOc2ccc(S(=O)(=O)[N-]c3cc4c(cc3[O-])CNCC4)cc21 (protonated)
CN1CCOc2ccc(S(=O)(=O)[N-]c3cc4c(cc3[O-])CNCC4)cc21 (3D coordinates assigned)
CN1CCOc2ccc(S(=O)(=O)[N-]c3cc4c(cc3[O-])CNCC4)cc21 (nonaromatic ring conformer: 53.33876152152146 kcal/mol)

>  <smiles>  (32) 
CN1CCOc2ccc(S(=O)(=O)Nc3cc4c(cc3O)CNCC4)cc21

>  <score_type>  (32) 
oracle

>  <origin>  (32) 
adgpu

>  <m_score__min__energy>  (32) 
-13.77

>  <m_primary>  (32) 
energy

$$$$
32:0
     RDKit          3D

 58 61  0  0  0  0  0  0  0  0999 V2000
   -5.7360   25.6890  -30.6920 C   0  0  0  0  0  0  0  0  0  0  0  0
   -5.8290   24.7760  -29.4630 C   0  0  0  0  0  0  0  0  0  0  0  0
   -6.7180   23.5550  -29.7330 C   0  0  0  0  0  0  0  0  0  0  0  0
   -4.4520   24.3740  -28.9500 C   0  0  0  0  0  0  0  0  0  0  0  0
   -4.1640   24.5390  -27.5800 C   0  0  0  0  0  0  0  0  0  0  0  0
   -2.9150   24.1890  -27.0650 C   0  0  0  0  0  0  0  0  0  0  0  0
   -1.9300   23.6760  -27.9060 C   0  0  0  0  0  0  0  0  0  0  0  0
   -2.1930   23.5040  -29.2660 C   0  0  0  0  0  0  0  0  0  0  0  0
   -3.4550   23.8300  -29.7990 C   0  0  0  0  0  0  0  0  0  0  0  0
   -3.7180   23.6670  -31.1680 O   0  0  0  0  0  0  0  0  0  0  0  0
   -4.0180   22.4550  -31.8070 C   0  0  0  0  0  0  0  0  0  0  0  0
   -3.0480   21.7230  -32.5050 C   0  0  0  0  0  0  0  0  0  0  0  0
   -3.4190   20.5150  -33.1210 C   0  0  0  0  0  0  0  0  0  0  0  0
   -2.4690   19.7300  -33.8840 N   0  0  0  0  0  0  0  0  0  0  0  0
   -1.2790   20.3650  -34.4760 C   0  0  0  0  0  0  0  0  0  0  0  0
   -0.0140   19.5030  -34.2670 C   0  0  0  0  0  0  0  0  0  0  0  0
   -0.3060   18.0790  -34.0190 N   0  0  0  0  0  0  0  0  0  0  0  0
   -1.4870   17.6320  -34.7610 C   0  0  0  0  0  0  0  0  0  0  0  0
   -2.7270   18.3100  -34.1770 C   0  0  0  0  0  0  0  0  0  0  0  0
   -4.7040   20.0870  -32.9940 N   0  0  0  0  0  0  0  0  0  0  0  0
   -5.6340   20.7870  -32.2910 C   0  0  0  0  0  0  0  0  0  0  0  0
   -6.9860   20.2960  -32.1690 N   0  0  0  0  0  0  0  0  0  0  0  0
   -8.0430   21.1320  -31.5810 C   0  0  0  0  0  0  0  0  0  0  0  0
   -9.4060   20.9120  -32.2770 C   0  0  0  0  0  0  0  0  0  0  0  0
   -9.5550   19.5950  -32.9260 N   0  0  0  0  0  0  0  0  0  0  0  0
   -8.7470   18.5580  -32.2780 C   0  0  0  0  0  0  0  0  0  0  0  0
   -7.2580   18.8760  -32.4350 C   0  0  0  0  0  0  0  0  0  0  0  0
   -5.2780   21.9610  -31.7040 N   0  0  0  0  0  0  0  0  0  0  0  0
   -5.6296   26.7340  -30.3653 H   0  0  0  0  0  0  0  0  0  0  0  0
   -4.8624   25.4029  -31.2961 H   0  0  0  0  0  0  0  0  0  0  0  0
   -6.6494   25.5849  -31.2961 H   0  0  0  0  0  0  0  0  0  0  0  0
   -6.3104   25.3566  -28.6623 H   0  0  0  0  0  0  0  0  0  0  0  0
   -7.0379   23.1157  -28.7766 H   0  0  0  0  0  0  0  0  0  0  0  0
   -7.6028   23.8656  -30.3080 H   0  0  0  0  0  0  0  0  0  0  0  0
   -6.1507   22.8083  -30.3080 H   0  0  0  0  0  0  0  0  0  0  0  0
   -4.9331   24.9486  -26.9087 H   0  0  0  0  0  0  0  0  0  0  0  0
   -2.7078   24.3185  -25.9925 H   0  0  0  0  0  0  0  0  0  0  0  0
   -0.9446   23.4064  -27.4982 H   0  0  0  0  0  0  0  0  0  0  0  0
   -1.4073   23.1102  -29.9275 H   0  0  0  0  0  0  0  0  0  0  0  0
   -2.0124   22.0880  -32.5699 H   0  0  0  0  0  0  0  0  0  0  0  0
   -1.4453   20.4999  -35.5550 H   0  0  0  0  0  0  0  0  0  0  0  0
   -1.1221   21.3341  -33.9797 H   0  0  0  0  0  0  0  0  0  0  0  0
    0.6113   19.5781  -35.1689 H   0  0  0  0  0  0  0  0  0  0  0  0
    0.4959   19.8890  -33.3720 H   0  0  0  0  0  0  0  0  0  0  0  0
    0.5150   17.5160  -34.3400 H   0  0  0  0  0  0  0  0  0  0  0  0
   -1.3819   17.9054  -35.8213 H   0  0  0  0  0  0  0  0  0  0  0  0
   -1.5867   16.5396  -34.6784 H   0  0  0  0  0  0  0  0  0  0  0  0
   -3.5509   18.2372  -34.9022 H   0  0  0  0  0  0  0  0  0  0  0  0
   -2.9915   17.8028  -33.2374 H   0  0  0  0  0  0  0  0  0  0  0  0
   -8.1434   20.8806  -30.5148 H   0  0  0  0  0  0  0  0  0  0  0  0
   -7.7581   22.1860  -31.7147 H   0  0  0  0  0  0  0  0  0  0  0  0
  -10.1985   21.0144  -31.5211 H   0  0  0  0  0  0  0  0  0  0  0  0
   -9.4749   21.6647  -33.0762 H   0  0  0  0  0  0  0  0  0  0  0  0
   -9.2560   19.6760  -33.9280 H   0  0  0  0  0  0  0  0  0  0  0  0
   -8.9991   18.5160  -31.2081 H   0  0  0  0  0  0  0  0  0  0  0  0
   -8.9596   17.5880  -32.7512 H   0  0  0  0  0  0  0  0  0  0  0  0
   -6.6834   18.2618  -31.7261 H   0  0  0  0  0  0  0  0  0  0  0  0
   -6.9618   18.6530  -33.4706 H   0  0  0  0  0  0  0  0  0  0  0  0
  1  2  1  0
  2  3  1  0
  2  4  1  0
  4  5  2  0
  5  6  1  0
  6  7  2  0
  7  8  1  0
  8  9  2  0
  9 10  1  0
 10 11  1  0
 11 12  2  0
 12 13  1  0
 13 14  1  0
 14 15  1  0
 15 16  1  0
 16 17  1  0
 17 18  1  0
 18 19  1  0
 13 20  2  0
 20 21  1  0
 21 22  1  0
 22 23  1  0
 23 24  1  0
 24 25  1  0
 25 26  1  0
 26 27  1  0
 21 28  2  0
  9  4  1  0
 28 11  1  0
 19 14  1  0
 27 22  1  0
  1 29  1  0
  1 30  1  0
  1 31  1  0
  2 32  1  0
  3 33  1  0
  3 34  1  0
  3 35  1  0
  5 36  1  0
  6 37  1  0
  7 38  1  0
  8 39  1  0
 12 40  1  0
 15 41  1  0
 15 42  1  0
 16 43  1  0
 16 44  1  0
 17 45  1  0
 18 46  1  0
 18 47  1  0
 19 48  1  0
 19 49  1  0
 23 50  1  0
 23 51  1  0
 24 52  1  0
 24 53  1  0
 25 54  1  0
 26 55  1  0
 26 56  1  0
 27 57  1  0
 27 58  1  0
M  END
>  <UniqueID>  (33) 
32

>  <SMILES>  (33) 
CC(C)c1ccccc1Oc1cc(N2CCNCC2)nc(N2CCNCC2)n1

>  <Energy>  (33) 
74.80583175199983

>  <Genealogy>  (33) 
CC(C)c1ccccc1Oc1cc(N2CCNCC2)nc(N2CCNCC2)n1 (3D coordinates assigned)
CC(C)c1ccccc1Oc1cc(N2CCNCC2)nc(N2CCNCC2)n1 (nonaromatic ring conformer: 74.80583175199983 kcal/mol)

>  <smiles>  (33) 
CC(C)c1ccccc1Oc1cc(N2CCNCC2)nc(N2CCNCC2)n1

>  <score_type>  (33) 
oracle

>  <origin>  (33) 
adgpu

>  <m_score__min__energy>  (33) 
-8.8499999999999996

>  <m_primary>  (33) 
energy

$$$$
33:0
     RDKit          3D

 59 62  0  0  0  0  0  0  0  0999 V2000
   -0.1530   18.4550  -35.0190 C   0  0  0  0  0  0  0  0  0  0  0  0
   -1.1140   19.2960  -34.2120 C   0  0  0  0  0  0  0  0  0  0  0  0
   -0.9060   20.6830  -34.1150 C   0  0  0  0  0  0  0  0  0  0  0  0
   -1.7870   21.4840  -33.3810 C   0  0  0  0  0  0  0  0  0  0  0  0
   -2.8950   20.9180  -32.7390 C   0  0  0  0  0  0  0  0  0  0  0  0
   -4.0240   21.9480  -31.8510 S   0  0  0  0  0  0  0  0  0  0  0  0
   -5.0340   22.5340  -32.8050 O   0  0  0  0  0  0  0  0  0  0  0  0
   -4.7660   21.1350  -30.8210 O   0  0  0  0  0  0  0  0  0  0  0  0
   -3.1550   23.2510  -31.1030 N   0  0  0  0  0  0  0  0  0  0  0  0
   -2.1750   23.0270  -30.0790 C   0  0  0  0  0  0  0  0  0  0  0  0
   -1.5760   21.7640  -29.9190 C   0  0  0  0  0  0  0  0  0  0  0  0
   -0.5980   21.5500  -28.9340 C   0  0  0  0  0  0  0  0  0  0  0  0
    0.0430   20.2210  -28.7850 C   0  0  0  0  0  0  0  0  0  0  0  0
    0.4760   19.8640  -27.6550 O   0  0  0  0  0  0  0  0  0  0  0  0
    0.1860   19.3290  -29.9050 N   0  0  0  0  0  0  0  0  0  0  0  0
   -0.0130   17.8900  -29.7020 C   0  0  0  0  0  0  0  0  0  0  0  0
    0.0630   17.1150  -31.0220 C   0  0  0  0  0  0  0  0  0  0  0  0
    1.2520   17.5120  -31.7880 N   0  0  0  0  0  0  0  0  0  0  0  0
    1.9500   16.5470  -32.6050 C   0  0  0  0  0  0  0  0  0  0  0  0
    2.9000   16.9640  -33.5590 C   0  0  0  0  0  0  0  0  0  0  0  0
    3.5640   16.0260  -34.3560 C   0  0  0  0  0  0  0  0  0  0  0  0
    3.2960   14.6630  -34.2070 C   0  0  0  0  0  0  0  0  0  0  0  0
    2.3660   14.2350  -33.2580 C   0  0  0  0  0  0  0  0  0  0  0  0
    1.6950   15.1680  -32.4620 C   0  0  0  0  0  0  0  0  0  0  0  0
    1.6620   18.9250  -31.8260 C   0  0  0  0  0  0  0  0  0  0  0  0
    0.5990   19.8390  -31.2170 C   0  0  0  0  0  0  0  0  0  0  0  0
   -0.2540   22.6050  -28.0720 C   0  0  0  0  0  0  0  0  0  0  0  0
   -0.8640   23.8570  -28.2080 C   0  0  0  0  0  0  0  0  0  0  0  0
   -1.8220   24.0720  -29.2070 C   0  0  0  0  0  0  0  0  0  0  0  0
   -2.4060   25.3320  -29.3350 O   0  0  0  0  0  0  0  0  0  0  0  0
   -3.1130   19.5380  -32.8280 C   0  0  0  0  0  0  0  0  0  0  0  0
   -2.2230   18.7130  -33.5480 C   0  0  0  0  0  0  0  0  0  0  0  0
   -2.4850   17.2280  -33.6210 C   0  0  0  0  0  0  0  0  0  0  0  0
    0.4972   17.8860  -34.3382 H   0  0  0  0  0  0  0  0  0  0  0  0
   -0.7197   17.7574  -35.6532 H   0  0  0  0  0  0  0  0  0  0  0  0
    0.4633   19.1092  -35.6532 H   0  0  0  0  0  0  0  0  0  0  0  0
   -0.0435   21.1420  -34.6204 H   0  0  0  0  0  0  0  0  0  0  0  0
   -1.6079   22.5668  -33.3076 H   0  0  0  0  0  0  0  0  0  0  0  0
   -3.1430   24.1600  -31.6180 H   0  0  0  0  0  0  0  0  0  0  0  0
   -1.8776   20.9333  -30.5740 H   0  0  0  0  0  0  0  0  0  0  0  0
    0.7668   17.5147  -29.0230 H   0  0  0  0  0  0  0  0  0  0  0  0
   -1.0149   17.7397  -29.2735 H   0  0  0  0  0  0  0  0  0  0  0  0
    0.1154   16.0377  -30.8060 H   0  0  0  0  0  0  0  0  0  0  0  0
   -0.8338   17.3410  -31.6176 H   0  0  0  0  0  0  0  0  0  0  0  0
    3.1208   18.0351  -33.6776 H   0  0  0  0  0  0  0  0  0  0  0  0
    4.2991   16.3623  -35.1020 H   0  0  0  0  0  0  0  0  0  0  0  0
    3.8175   13.9275  -34.8371 H   0  0  0  0  0  0  0  0  0  0  0  0
    2.1607   13.1612  -33.1363 H   0  0  0  0  0  0  0  0  0  0  0  0
    0.9619   14.8232  -31.7179 H   0  0  0  0  0  0  0  0  0  0  0  0
    2.5979   19.0399  -31.2595 H   0  0  0  0  0  0  0  0  0  0  0  0
    1.8001   19.2136  -32.8784 H   0  0  0  0  0  0  0  0  0  0  0  0
    1.0136   20.8511  -31.0997 H   0  0  0  0  0  0  0  0  0  0  0  0
   -0.2757   19.8672  -31.8835 H   0  0  0  0  0  0  0  0  0  0  0  0
    0.4989   22.4458  -27.2860 H   0  0  0  0  0  0  0  0  0  0  0  0
   -0.5899   24.6763  -27.5271 H   0  0  0  0  0  0  0  0  0  0  0  0
   -3.9874   19.0921  -32.3314 H   0  0  0  0  0  0  0  0  0  0  0  0
   -2.5573   16.8180  -32.6028 H   0  0  0  0  0  0  0  0  0  0  0  0
   -3.4288   17.0481  -34.1567 H   0  0  0  0  0  0  0  0  0  0  0  0
   -1.6598   16.7360  -34.1567 H   0  0  0  0  0  0  0  0  0  0  0  0
  1  2  1  0
  2  3  2  0
  3  4  1  0
  4  5  2  0
  5  6  1  0
  6  7  2  0
  6  8  2  0
  6  9  1  0
  9 10  1  0
 10 11  2  0
 11 12  1  0
 12 13  1  0
 13 14  2  0
 13 15  1  0
 15 16  1  0
 16 17  1  0
 17 18  1  0
 18 19  1  0
 19 20  2  0
 20 21  1  0
 21 22  2  0
 22 23  1  0
 23 24  2  0
 18 25  1  0
 25 26  1  0
 12 27  2  0
 27 28  1  0
 28 29  2  0
 29 30  1  0
  5 31  1  0
 31 32  2  0
 32 33  1  0
 32  2  1  0
 29 10  1  0
 26 15  1  0
 24 19  1  0
  1 34  1  0
  1 35  1  0
  1 36  1  0
  3 37  1  0
  4 38  1  0
  9 39  1  0
 11 40  1  0
 16 41  1  0
 16 42  1  0
 17 43  1  0
 17 44  1  0
 20 45  1  0
 21 46  1  0
 22 47  1  0
 23 48  1  0
 24 49  1  0
 25 50  1  0
 25 51  1  0
 26 52  1  0
 26 53  1  0
 27 54  1  0
 28 55  1  0
 31 56  1  0
 33 57  1  0
 33 58  1  0
 33 59  1  0
M  CHG  1  30  -1
M  END
>  <UniqueID>  (34) 
33

>  <SMILES>  (34) 
Cc1ccc(S(=O)(=O)Nc2cc(C(=O)N3CCN(c4ccccc4)CC3)ccc2[O-])cc1C

>  <Energy>  (34) 
75.22951669746956

>  <Genealogy>  (34) 
Cc1ccc(S(=O)(=O)Nc2cc(C(=O)N3CCN(c4ccccc4)CC3)ccc2[O-])cc1C (protonated)
Cc1ccc(S(=O)(=O)Nc2cc(C(=O)N3CCN(c4ccccc4)CC3)ccc2[O-])cc1C (3D coordinates assigned)
Cc1ccc(S(=O)(=O)Nc2cc(C(=O)N3CCN(c4ccccc4)CC3)ccc2[O-])cc1C (nonaromatic ring conformer: 75.22951669746956 kcal/mol)

>  <smiles>  (34) 
Cc1ccc(S(=O)(=O)Nc2cc(C(=O)N3CCN(c4ccccc4)CC3)ccc2O)cc1C

>  <score_type>  (34) 
oracle

>  <origin>  (34) 
adgpu

>  <m_score__min__energy>  (34) 
-13.24

>  <m_primary>  (34) 
energy

$$$$
34:0
     RDKit          3D

 63 66  0  0  0  0  0  0  0  0999 V2000
   -0.1040   17.8780  -35.5670 C   0  0  0  0  0  0  0  0  0  0  0  0
   -1.1670   18.0110  -34.5180 C   0  0  0  0  0  0  0  0  0  0  0  0
   -2.2770   17.4470  -34.7180 O   0  0  0  0  0  0  0  0  0  0  0  0
   -0.9460   18.7610  -33.3010 N   0  0  0  0  0  0  0  0  0  0  0  0
   -2.0670   19.0030  -32.3780 C   0  0  0  0  0  0  0  0  0  0  0  0
   -1.9720   20.4050  -31.7720 C   0  0  0  0  0  0  0  0  0  0  0  0
   -0.6140   20.6420  -31.2740 N   0  0  0  0  0  0  0  0  0  0  0  0
   -0.3680   21.0390  -29.9100 C   0  0  0  0  0  0  0  0  0  0  0  0
    0.6030   20.5300  -29.2860 O   0  0  0  0  0  0  0  0  0  0  0  0
   -1.2260   22.0340  -29.2230 C   0  0  0  0  0  0  0  0  0  0  0  0
   -1.3610   22.0250  -27.8240 C   0  0  0  0  0  0  0  0  0  0  0  0
   -2.1670   22.9700  -27.1860 C   0  0  0  0  0  0  0  0  0  0  0  0
   -2.8670   23.9250  -27.9280 C   0  0  0  0  0  0  0  0  0  0  0  0
   -3.5990   24.8960  -27.2450 O   0  0  0  0  0  0  0  0  0  0  0  0
   -2.7950   23.8990  -29.3380 C   0  0  0  0  0  0  0  0  0  0  0  0
   -3.5530   24.8020  -30.1460 N   0  0  0  0  0  0  0  0  0  0  0  0
   -5.2140   24.5230  -30.5630 S   0  0  0  0  0  0  0  0  0  0  0  0
   -5.7260   25.7010  -31.3440 O   0  0  0  0  0  0  0  0  0  0  0  0
   -6.0330   24.3610  -29.3120 O   0  0  0  0  0  0  0  0  0  0  0  0
   -5.3650   23.0600  -31.5290 C   0  0  0  0  0  0  0  0  0  0  0  0
   -4.3440   22.6670  -32.4070 C   0  0  0  0  0  0  0  0  0  0  0  0
   -4.4740   21.4930  -33.1530 C   0  0  0  0  0  0  0  0  0  0  0  0
   -5.6210   20.7040  -33.0270 C   0  0  0  0  0  0  0  0  0  0  0  0
   -6.6480   21.0900  -32.1550 C   0  0  0  0  0  0  0  0  0  0  0  0
   -8.0960   20.1050  -31.9760 S   0  0  0  0  0  0  0  0  0  0  0  0
   -8.7760   20.4220  -30.6700 O   0  0  0  0  0  0  0  0  0  0  0  0
   -9.0370   20.4130  -33.1060 O   0  0  0  0  0  0  0  0  0  0  0  0
   -7.6550   18.4160  -32.0260 N   0  0  0  0  0  0  0  0  0  0  0  0
   -7.2490   18.0090  -33.3730 C   0  0  0  0  0  0  0  0  0  0  0  0
   -6.2530   16.8700  -33.2060 C   0  0  0  0  0  0  0  0  0  0  0  0
   -5.8240   16.9140  -31.7470 C   0  0  0  0  0  0  0  0  0  0  0  0
   -6.5020   18.1450  -31.1700 C   0  0  0  0  0  0  0  0  0  0  0  0
   -6.5150   22.2670  -31.4050 C   0  0  0  0  0  0  0  0  0  0  0  0
   -1.9570   22.9730  -29.9720 C   0  0  0  0  0  0  0  0  0  0  0  0
    0.5000   20.4220  -32.2000 C   0  0  0  0  0  0  0  0  0  0  0  0
    0.4120   19.0140  -32.7890 C   0  0  0  0  0  0  0  0  0  0  0  0
    0.8759   17.7554  -35.0825 H   0  0  0  0  0  0  0  0  0  0  0  0
   -0.3155   16.9993  -36.1940 H   0  0  0  0  0  0  0  0  0  0  0  0
   -0.0925   18.7817  -36.1940 H   0  0  0  0  0  0  0  0  0  0  0  0
   -3.0149   18.9104  -32.9283 H   0  0  0  0  0  0  0  0  0  0  0  0
   -2.0246   18.2619  -31.5662 H   0  0  0  0  0  0  0  0  0  0  0  0
   -2.2138   21.1524  -32.5420 H   0  0  0  0  0  0  0  0  0  0  0  0
   -2.6836   20.4878  -30.9372 H   0  0  0  0  0  0  0  0  0  0  0  0
   -0.8285   21.2690  -27.2282 H   0  0  0  0  0  0  0  0  0  0  0  0
   -2.2517   22.9626  -26.0893 H   0  0  0  0  0  0  0  0  0  0  0  0
   -4.3600   25.4060  -27.6730 H   0  0  0  0  0  0  0  0  0  0  0  0
   -3.4393   23.2844  -32.5083 H   0  0  0  0  0  0  0  0  0  0  0  0
   -3.6717   21.1887  -33.8413 H   0  0  0  0  0  0  0  0  0  0  0  0
   -5.7177   19.7784  -33.6134 H   0  0  0  0  0  0  0  0  0  0  0  0
   -8.1239   17.6664  -33.9450 H   0  0  0  0  0  0  0  0  0  0  0  0
   -6.7991   18.8500  -33.9210 H   0  0  0  0  0  0  0  0  0  0  0  0
   -6.7295   15.9059  -33.4375 H   0  0  0  0  0  0  0  0  0  0  0  0
   -5.3952   16.9757  -33.8864 H   0  0  0  0  0  0  0  0  0  0  0  0
   -6.1563   16.0076  -31.2196 H   0  0  0  0  0  0  0  0  0  0  0  0
   -4.7300   16.9592  -31.6411 H   0  0  0  0  0  0  0  0  0  0  0  0
   -6.8306   17.9508  -30.1383 H   0  0  0  0  0  0  0  0  0  0  0  0
   -5.8149   19.0035  -31.1403 H   0  0  0  0  0  0  0  0  0  0  0  0
   -7.3169   22.5701  -30.7157 H   0  0  0  0  0  0  0  0  0  0  0  0
   -1.8697   22.9804  -31.0685 H   0  0  0  0  0  0  0  0  0  0  0  0
    0.4511   21.1617  -33.0127 H   0  0  0  0  0  0  0  0  0  0  0  0
    1.4507   20.5305  -31.6575 H   0  0  0  0  0  0  0  0  0  0  0  0
    1.1346   18.9189  -33.6129 H   0  0  0  0  0  0  0  0  0  0  0  0
    0.6414   18.2806  -32.0020 H   0  0  0  0  0  0  0  0  0  0  0  0
  1  2  1  0
  2  3  2  0
  2  4  1  0
  4  5  1  0
  5  6  1  0
  6  7  1  0
  7  8  1  0
  8  9  2  0
  8 10  1  0
 10 11  2  0
 11 12  1  0
 12 13  2  0
 13 14  1  0
 13 15  1  0
 15 16  1  0
 16 17  1  0
 17 18  2  0
 17 19  2  0
 17 20  1  0
 20 21  2  0
 21 22  1  0
 22 23  2  0
 23 24  1  0
 24 25  1  0
 25 26  2  0
 25 27  2  0
 25 28  1  0
 28 29  1  0
 29 30  1  0
 30 31  1  0
 31 32  1  0
 24 33  2  0
 15 34  2  0
  7 35  1  0
 35 36  1  0
 36  4  1  0
 34 10  1  0
 33 20  1  0
 32 28  1  0
  1 37  1  0
  1 38  1  0
  1 39  1  0
  5 40  1  0
  5 41  1  0
  6 42  1  0
  6 43  1  0
 11 44  1  0
 12 45  1  0
 14 46  1  0
 21 47  1  0
 22 48  1  0
 23 49  1  0
 29 50  1  0
 29 51  1  0
 30 52  1  0
 30 53  1  0
 31 54  1  0
 31 55  1  0
 32 56  1  0
 32 57  1  0
 33 58  1  0
 34 59  1  0
 35 60  1  0
 35 61  1  0
 36 62  1  0
 36 63  1  0
M  CHG  1  16  -1
M  END
>  <UniqueID>  (35) 
34

>  <SMILES>  (35) 
CC(=O)N1CCN(C(=O)c2ccc(O)c([N-]S(=O)(=O)c3cccc(S(=O)(=O)N4CCCC4)c3)c2)CC1

>  <Energy>  (35) 
80.37800446503812

>  <Genealogy>  (35) 
CC(=O)N1CCN(C(=O)c2ccc(O)c([N-]S(=O)(=O)c3cccc(S(=O)(=O)N4CCCC4)c3)c2)CC1 (protonated)
CC(=O)N1CCN(C(=O)c2ccc(O)c([N-]S(=O)(=O)c3cccc(S(=O)(=O)N4CCCC4)c3)c2)CC1 (3D coordinates assigned)
CC(=O)N1CCN(C(=O)c2ccc(O)c([N-]S(=O)(=O)c3cccc(S(=O)(=O)N4CCCC4)c3)c2)CC1 (nonaromatic ring conformer: 80.37800446503812 kcal/mol)

>  <smiles>  (35) 
CC(=O)N1CCN(C(=O)c2ccc(O)c(NS(=O)(=O)c3cccc(S(=O)(=O)N4CCCC4)c3)c2)CC1

>  <score_type>  (35) 
oracle

>  <origin>  (35) 
adgpu

>  <m_score__min__energy>  (35) 
-12.529999999999999

>  <m_primary>  (35) 
energy

$$$$
35:0
     RDKit          3D

 60 63  0  0  0  0  0  0  0  0999 V2000
    1.7290   24.5030  -27.5990 C   0  0  0  0  0  0  0  0  0  0  0  0
    0.4540   24.3000  -28.3040 N   0  0  0  0  0  0  0  0  0  0  0  0
   -0.5740   25.2180  -27.7840 C   0  0  0  0  0  0  0  0  0  0  0  0
   -1.8780   25.0820  -28.5950 C   0  0  0  0  0  0  0  0  0  0  0  0
   -1.8630   23.8790  -29.4520 N   0  0  0  0  0  0  0  0  0  0  0  0
   -3.4540   23.6020  -30.1130 S   0  0  0  0  0  0  0  0  0  0  0  0
   -3.9410   24.8350  -30.8250 O   0  0  0  0  0  0  0  0  0  0  0  0
   -4.4150   23.2780  -29.0030 O   0  0  0  0  0  0  0  0  0  0  0  0
   -3.4050   22.2430  -31.2310 C   0  0  0  0  0  0  0  0  0  0  0  0
   -2.8030   21.0410  -30.8380 C   0  0  0  0  0  0  0  0  0  0  0  0
   -2.7380   19.9620  -31.7230 C   0  0  0  0  0  0  0  0  0  0  0  0
   -3.2730   20.0700  -33.0120 C   0  0  0  0  0  0  0  0  0  0  0  0
   -3.1890   18.9610  -33.8680 O   0  0  0  0  0  0  0  0  0  0  0  0
   -3.4550   17.6470  -33.4700 C   0  0  0  0  0  0  0  0  0  0  0  0
   -2.3790   16.7840  -33.2460 C   0  0  0  0  0  0  0  0  0  0  0  0
   -2.6000   15.4570  -32.8750 C   0  0  0  0  0  0  0  0  0  0  0  0
   -3.9070   14.9700  -32.7160 C   0  0  0  0  0  0  0  0  0  0  0  0
   -4.1330   13.5990  -32.3400 N   0  0  0  0  0  0  0  0  0  0  0  0
   -4.1170   12.6920  -33.1960 O   0  0  0  0  0  0  0  0  0  0  0  0
   -4.3710   13.2660  -31.0250 O   0  0  0  0  0  0  0  0  0  0  0  0
   -4.9890   15.8450  -32.9230 C   0  0  0  0  0  0  0  0  0  0  0  0
   -4.7730   17.1840  -33.2810 C   0  0  0  0  0  0  0  0  0  0  0  0
   -6.1640   18.2650  -33.4390 S   0  0  0  0  0  0  0  0  0  0  0  0
   -6.0900   19.0570  -34.7140 O   0  0  0  0  0  0  0  0  0  0  0  0
   -7.4220   17.4420  -33.4440 O   0  0  0  0  0  0  0  0  0  0  0  0
   -6.2200   19.3700  -32.1010 N   0  0  0  0  0  0  0  0  0  0  0  0
   -7.2280   20.3840  -31.9340 C   0  0  0  0  0  0  0  0  0  0  0  0
   -6.8370   21.6820  -31.5670 C   0  0  0  0  0  0  0  0  0  0  0  0
   -7.7900   22.6920  -31.4060 C   0  0  0  0  0  0  0  0  0  0  0  0
   -9.1430   22.4160  -31.6080 C   0  0  0  0  0  0  0  0  0  0  0  0
   -9.5470   21.1290  -31.9710 C   0  0  0  0  0  0  0  0  0  0  0  0
   -8.5980   20.1150  -32.1320 C   0  0  0  0  0  0  0  0  0  0  0  0
   -3.8630   21.2830  -33.4130 C   0  0  0  0  0  0  0  0  0  0  0  0
   -3.9290   22.3610  -32.5260 C   0  0  0  0  0  0  0  0  0  0  0  0
   -1.4320   22.7040  -28.6800 C   0  0  0  0  0  0  0  0  0  0  0  0
    0.0100   22.8970  -28.1650 C   0  0  0  0  0  0  0  0  0  0  0  0
    1.5559   24.4754  -26.5130 H   0  0  0  0  0  0  0  0  0  0  0  0
    2.4335   23.7057  -27.8784 H   0  0  0  0  0  0  0  0  0  0  0  0
    2.1510   25.4797  -27.8784 H   0  0  0  0  0  0  0  0  0  0  0  0
   -0.7760   24.9760  -26.7301 H   0  0  0  0  0  0  0  0  0  0  0  0
   -0.2062   26.2510  -27.8716 H   0  0  0  0  0  0  0  0  0  0  0  0
   -2.7262   25.0131  -27.8980 H   0  0  0  0  0  0  0  0  0  0  0  0
   -1.9731   25.9652  -29.2438 H   0  0  0  0  0  0  0  0  0  0  0  0
   -2.3792   20.9461  -29.8274 H   0  0  0  0  0  0  0  0  0  0  0  0
   -2.2636   19.0219  -31.4050 H   0  0  0  0  0  0  0  0  0  0  0  0
   -1.3496   17.1536  -33.3630 H   0  0  0  0  0  0  0  0  0  0  0  0
   -1.7437   14.7876  -32.7059 H   0  0  0  0  0  0  0  0  0  0  0  0
   -6.0177   15.4744  -32.8026 H   0  0  0  0  0  0  0  0  0  0  0  0
   -5.4400   19.3130  -31.4100 H   0  0  0  0  0  0  0  0  0  0  0  0
   -5.7723   21.9057  -31.4049 H   0  0  0  0  0  0  0  0  0  0  0  0
   -7.4730   23.7057  -31.1197 H   0  0  0  0  0  0  0  0  0  0  0  0
   -9.8915   23.2121  -31.4813 H   0  0  0  0  0  0  0  0  0  0  0  0
  -10.6137   20.9129  -32.1305 H   0  0  0  0  0  0  0  0  0  0  0  0
   -8.9216   19.1024  -32.4145 H   0  0  0  0  0  0  0  0  0  0  0  0
   -4.2738   21.3831  -34.4285 H   0  0  0  0  0  0  0  0  0  0  0  0
   -4.3938   23.3055  -32.8451 H   0  0  0  0  0  0  0  0  0  0  0  0
   -2.1074   22.5660  -27.8228 H   0  0  0  0  0  0  0  0  0  0  0  0
   -1.4622   21.8185  -29.3319 H   0  0  0  0  0  0  0  0  0  0  0  0
    0.0508   22.6132  -27.1030 H   0  0  0  0  0  0  0  0  0  0  0  0
    0.6781   22.2634  -28.7668 H   0  0  0  0  0  0  0  0  0  0  0  0
  1  2  1  0
  2  3  1  0
  3  4  1  0
  4  5  1  0
  5  6  1  0
  6  7  2  0
  6  8  2  0
  6  9  1  0
  9 10  2  0
 10 11  1  0
 11 12  2  0
 12 13  1  0
 13 14  1  0
 14 15  2  0
 15 16  1  0
 16 17  2  0
 17 18  1  0
 18 19  2  0
 18 20  1  0
 17 21  1  0
 21 22  2  0
 22 23  1  0
 23 24  2  0
 23 25  2  0
 23 26  1  0
 26 27  1  0
 27 28  2  0
 28 29  1  0
 29 30  2  0
 30 31  1  0
 31 32  2  0
 12 33  1  0
 33 34  2  0
  5 35  1  0
 35 36  1  0
 36  2  1  0
 34  9  1  0
 22 14  1  0
 32 27  1  0
  1 37  1  0
  1 38  1  0
  1 39  1  0
  3 40  1  0
  3 41  1  0
  4 42  1  0
  4 43  1  0
 10 44  1  0
 11 45  1  0
 15 46  1  0
 16 47  1  0
 21 48  1  0
 26 49  1  0
 28 50  1  0
 29 51  1  0
 30 52  1  0
 31 53  1  0
 32 54  1  0
 33 55  1  0
 34 56  1  0
 35 57  1  0
 35 58  1  0
 36 59  1  0
 36 60  1  0
M  CHG  2  18   1  20  -1
M  END
>  <UniqueID>  (36) 
35

>  <SMILES>  (36) 
CN1CCN(S(=O)(=O)c2ccc(Oc3ccc([N+](=O)[O-])cc3S(=O)(=O)Nc3ccccc3)cc2)CC1

>  <Energy>  (36) 
81.3297314410387

>  <Genealogy>  (36) 
CN1CCN(S(=O)(=O)c2ccc(Oc3ccc([N+](=O)[O-])cc3S(=O)(=O)Nc3ccccc3)cc2)CC1 (3D coordinates assigned)
CN1CCN(S(=O)(=O)c2ccc(Oc3ccc([N+](=O)[O-])cc3S(=O)(=O)Nc3ccccc3)cc2)CC1 (nonaromatic ring conformer: 81.3297314410387 kcal/mol)

>  <smiles>  (36) 
CN1CCN(S(=O)(=O)c2ccc(Oc3ccc([N+](=O)[O-])cc3S(=O)(=O)Nc3ccccc3)cc2)CC1

>  <score_type>  (36) 
oracle

>  <origin>  (36) 
adgpu

>  <m_score__min__energy>  (36) 
-10.84

>  <m_primary>  (36) 
energy

$$$$
36:0
     RDKit          3D

 61 64  0  0  0  0  0  0  0  0999 V2000
   -0.0550   21.1910  -34.7480 C   0  0  0  0  0  0  0  0  0  0  0  0
    0.0990   19.8350  -34.0640 C   0  0  0  0  0  0  0  0  0  0  0  0
   -0.4300   19.8770  -32.6820 N   0  0  0  0  0  0  0  0  0  0  0  0
   -1.4480   20.9540  -32.5080 C   0  0  0  0  0  0  0  0  0  0  0  0
   -1.3580   21.7050  -31.1660 C   0  0  0  0  0  0  0  0  0  0  0  0
   -0.9820   20.7930  -30.0800 N   0  0  0  0  0  0  0  0  0  0  0  0
   -1.6390   20.8400  -28.8010 C   0  0  0  0  0  0  0  0  0  0  0  0
   -1.8330   19.7660  -28.1670 O   0  0  0  0  0  0  0  0  0  0  0  0
   -2.0940   22.1180  -28.2070 C   0  0  0  0  0  0  0  0  0  0  0  0
   -1.3340   22.7580  -27.2160 C   0  0  0  0  0  0  0  0  0  0  0  0
   -1.7720   23.9590  -26.6590 C   0  0  0  0  0  0  0  0  0  0  0  0
   -2.9690   24.5380  -27.0840 C   0  0  0  0  0  0  0  0  0  0  0  0
   -3.7510   23.9090  -28.0700 C   0  0  0  0  0  0  0  0  0  0  0  0
   -4.9850   24.4810  -28.5420 N   0  0  0  0  0  0  0  0  0  0  0  0
   -5.3550   24.7590  -30.2130 S   0  0  0  0  0  0  0  0  0  0  0  0
   -4.2280   25.5270  -30.8460 O   0  0  0  0  0  0  0  0  0  0  0  0
   -6.6090   25.5820  -30.3150 O   0  0  0  0  0  0  0  0  0  0  0  0
   -5.5340   23.2230  -31.0530 C   0  0  0  0  0  0  0  0  0  0  0  0
   -4.4900   22.6990  -31.8170 C   0  0  0  0  0  0  0  0  0  0  0  0
   -4.6360   21.4750  -32.4700 C   0  0  0  0  0  0  0  0  0  0  0  0
   -5.8440   20.7380  -32.3740 C   0  0  0  0  0  0  0  0  0  0  0  0
   -6.8940   21.2720  -31.5910 C   0  0  0  0  0  0  0  0  0  0  0  0
   -6.7310   22.5120  -30.9420 C   0  0  0  0  0  0  0  0  0  0  0  0
   -8.0860   20.5440  -31.4750 C   0  0  0  0  0  0  0  0  0  0  0  0
   -9.0440   21.0110  -30.7940 O   0  0  0  0  0  0  0  0  0  0  0  0
   -8.2160   19.3300  -32.0940 N   0  0  0  0  0  0  0  0  0  0  0  0
   -9.4700   18.5640  -31.9690 C   0  0  0  0  0  0  0  0  0  0  0  0
   -7.2060   18.8450  -32.8860 C   0  0  0  0  0  0  0  0  0  0  0  0
   -7.3760   17.7520  -33.5020 O   0  0  0  0  0  0  0  0  0  0  0  0
   -6.0200   19.5300  -33.0190 N   0  0  0  0  0  0  0  0  0  0  0  0
   -4.9340   18.9650  -33.8490 C   0  0  0  0  0  0  0  0  0  0  0  0
   -3.3110   22.6900  -28.6140 C   0  0  0  0  0  0  0  0  0  0  0  0
    0.1120   19.8360  -30.2880 C   0  0  0  0  0  0  0  0  0  0  0  0
    0.6730   19.9520  -31.7040 C   0  0  0  0  0  0  0  0  0  0  0  0
   -0.1444   21.9784  -33.9851 H   0  0  0  0  0  0  0  0  0  0  0  0
    0.8266   21.3872  -35.3759 H   0  0  0  0  0  0  0  0  0  0  0  0
   -0.9582   21.1845  -35.3759 H   0  0  0  0  0  0  0  0  0  0  0  0
   -0.4539   19.0771  -34.6383 H   0  0  0  0  0  0  0  0  0  0  0  0
    1.1686   19.5816  -34.0232 H   0  0  0  0  0  0  0  0  0  0  0  0
   -1.3182   21.6844  -33.3202 H   0  0  0  0  0  0  0  0  0  0  0  0
   -2.4316   20.4618  -32.5265 H   0  0  0  0  0  0  0  0  0  0  0  0
   -0.6012   22.4991  -31.2477 H   0  0  0  0  0  0  0  0  0  0  0  0
   -2.3439   22.1360  -30.9376 H   0  0  0  0  0  0  0  0  0  0  0  0
   -0.3882   22.3101  -26.8770 H   0  0  0  0  0  0  0  0  0  0  0  0
   -1.1713   24.4526  -25.8809 H   0  0  0  0  0  0  0  0  0  0  0  0
   -3.3023   25.4904  -26.6460 H   0  0  0  0  0  0  0  0  0  0  0  0
   -5.7370   24.7020  -27.8530 H   0  0  0  0  0  0  0  0  0  0  0  0
   -3.5451   23.2553  -31.9048 H   0  0  0  0  0  0  0  0  0  0  0  0
   -3.8030   21.0760  -33.0674 H   0  0  0  0  0  0  0  0  0  0  0  0
   -7.5552   22.9244  -30.3416 H   0  0  0  0  0  0  0  0  0  0  0  0
   -9.7068   18.4194  -30.9046 H   0  0  0  0  0  0  0  0  0  0  0  0
  -10.2875   19.1171  -32.4546 H   0  0  0  0  0  0  0  0  0  0  0  0
   -9.3511   17.5842  -32.4546 H   0  0  0  0  0  0  0  0  0  0  0  0
   -4.1485   18.5563  -33.1964 H   0  0  0  0  0  0  0  0  0  0  0  0
   -5.3374   18.1625  -34.4840 H   0  0  0  0  0  0  0  0  0  0  0  0
   -4.5084   19.7560  -34.4840 H   0  0  0  0  0  0  0  0  0  0  0  0
   -3.9270   22.1776  -29.3676 H   0  0  0  0  0  0  0  0  0  0  0  0
    0.9142   20.0426  -29.5643 H   0  0  0  0  0  0  0  0  0  0  0  0
   -0.2790   18.8176  -30.1462 H   0  0  0  0  0  0  0  0  0  0  0  0
    1.1943   20.9144  -31.8134 H   0  0  0  0  0  0  0  0  0  0  0  0
    1.3786   19.1279  -31.8857 H   0  0  0  0  0  0  0  0  0  0  0  0
  1  2  1  0
  2  3  1  0
  3  4  1  0
  4  5  1  0
  5  6  1  0
  6  7  1  0
  7  8  2  0
  7  9  1  0
  9 10  2  0
 10 11  1  0
 11 12  2  0
 12 13  1  0
 13 14  1  0
 14 15  1  0
 15 16  2  0
 15 17  2  0
 15 18  1  0
 18 19  2  0
 19 20  1  0
 20 21  2  0
 21 22  1  0
 22 23  2  0
 22 24  1  0
 24 25  2  0
 24 26  1  0
 26 27  1  0
 26 28  1  0
 28 29  2  0
 28 30  1  0
 30 31  1  0
 13 32  2  0
  6 33  1  0
 33 34  1  0
 34  3  1  0
 32  9  1  0
 23 18  1  0
 30 21  1  0
  1 35  1  0
  1 36  1  0
  1 37  1  0
  2 38  1  0
  2 39  1  0
  4 40  1  0
  4 41  1  0
  5 42  1  0
  5 43  1  0
 10 44  1  0
 11 45  1  0
 12 46  1  0
 14 47  1  0
 19 48  1  0
 20 49  1  0
 23 50  1  0
 27 51  1  0
 27 52  1  0
 27 53  1  0
 31 54  1  0
 31 55  1  0
 31 56  1  0
 32 57  1  0
 33 58  1  0
 33 59  1  0
 34 60  1  0
 34 61  1  0
M  END
>  <UniqueID>  (37) 
36

>  <SMILES>  (37) 
CCN1CCN(C(=O)c2cccc(NS(=O)(=O)c3ccc4c(c3)c(=O)n(C)c(=O)n4C)c2)CC1

>  <Energy>  (37) 
91.1243571484563

>  <Genealogy>  (37) 
CCN1CCN(C(=O)c2cccc(NS(=O)(=O)c3ccc4c(c3)c(=O)n(C)c(=O)n4C)c2)CC1 (3D coordinates assigned)
CCN1CCN(C(=O)c2cccc(NS(=O)(=O)c3ccc4c(c3)c(=O)n(C)c(=O)n4C)c2)CC1 (nonaromatic ring conformer: 91.1243571484563 kcal/mol)

>  <smiles>  (37) 
CCN1CCN(C(=O)c2cccc(NS(=O)(=O)c3ccc4c(c3)c(=O)n(C)c(=O)n4C)c2)CC1

>  <score_type>  (37) 
oracle

>  <origin>  (37) 
adgpu

>  <m_score__min__energy>  (37) 
-11.390000000000001

>  <m_primary>  (37) 
energy

$$$$
37:0
     RDKit          3D

 46 49  0  0  0  0  0  0  0  0999 V2000
   -0.2210   21.2170  -30.2290 O   0  0  0  0  0  0  0  0  0  0  0  0
   -1.4760   21.8550  -29.7050 S   0  0  0  0  0  0  0  0  0  0  0  0
   -2.4020   20.8010  -29.1660 O   0  0  0  0  0  0  0  0  0  0  0  0
   -2.2780   22.7190  -30.9770 N   0  0  0  0  0  0  0  0  0  0  0  0
   -3.6970   22.8910  -31.0970 C   0  0  0  0  0  0  0  0  0  0  0  0
   -4.5480   21.8300  -31.4590 C   0  0  0  0  0  0  0  0  0  0  0  0
   -5.9310   22.0320  -31.5750 C   0  0  0  0  0  0  0  0  0  0  0  0
   -6.4780   23.3000  -31.2920 C   0  0  0  0  0  0  0  0  0  0  0  0
   -5.6250   24.3590  -30.9470 C   0  0  0  0  0  0  0  0  0  0  0  0
   -4.2470   24.1550  -30.8460 C   0  0  0  0  0  0  0  0  0  0  0  0
   -3.4220   25.2170  -30.4950 O   0  0  0  0  0  0  0  0  0  0  0  0
   -7.9580   23.5590  -31.4570 C   0  0  0  0  0  0  0  0  0  0  0  0
   -8.7520   22.3240  -31.3940 N   0  0  0  0  0  0  0  0  0  0  0  0
   -8.2270   21.3210  -32.3280 C   0  0  0  0  0  0  0  0  0  0  0  0
   -6.8230   20.8640  -31.9110 C   0  0  0  0  0  0  0  0  0  0  0  0
   -1.0540   22.9800  -28.4190 C   0  0  0  0  0  0  0  0  0  0  0  0
   -1.3250   24.3460  -28.5630 C   0  0  0  0  0  0  0  0  0  0  0  0
   -0.9820   25.2440  -27.5490 C   0  0  0  0  0  0  0  0  0  0  0  0
   -0.3590   24.7890  -26.3720 C   0  0  0  0  0  0  0  0  0  0  0  0
    0.0050   25.7420  -25.2930 C   0  0  0  0  0  0  0  0  0  0  0  0
   -0.9430   26.6510  -24.7910 C   0  0  0  0  0  0  0  0  0  0  0  0
   -0.5980   27.5480  -23.7740 C   0  0  0  0  0  0  0  0  0  0  0  0
    0.6950   27.5480  -23.2460 C   0  0  0  0  0  0  0  0  0  0  0  0
    1.0250   28.4470  -22.2340 O   0  0  0  0  0  0  0  0  0  0  0  0
    1.6480   26.6470  -23.7380 C   0  0  0  0  0  0  0  0  0  0  0  0
    1.3060   25.7500  -24.7550 C   0  0  0  0  0  0  0  0  0  0  0  0
   -0.0830   23.4160  -26.2380 C   0  0  0  0  0  0  0  0  0  0  0  0
   -0.4250   22.5190  -27.2550 C   0  0  0  0  0  0  0  0  0  0  0  0
   -4.1246   20.8334  -31.6527 H   0  0  0  0  0  0  0  0  0  0  0  0
   -6.0446   25.3575  -30.7546 H   0  0  0  0  0  0  0  0  0  0  0  0
   -8.2903   24.2342  -30.6547 H   0  0  0  0  0  0  0  0  0  0  0  0
   -8.1120   24.0072  -32.4497 H   0  0  0  0  0  0  0  0  0  0  0  0
   -8.7090   21.9410  -30.4200 H   0  0  0  0  0  0  0  0  0  0  0  0
   -8.9004   20.4512  -32.3379 H   0  0  0  0  0  0  0  0  0  0  0  0
   -8.1660   21.7722  -33.3294 H   0  0  0  0  0  0  0  0  0  0  0  0
   -6.9077   20.2148  -31.0270 H   0  0  0  0  0  0  0  0  0  0  0  0
   -6.3740   20.3231  -32.7571 H   0  0  0  0  0  0  0  0  0  0  0  0
   -1.8103   24.7141  -29.4789 H   0  0  0  0  0  0  0  0  0  0  0  0
   -1.2006   26.3150  -27.6717 H   0  0  0  0  0  0  0  0  0  0  0  0
   -1.9637   26.6570  -25.2009 H   0  0  0  0  0  0  0  0  0  0  0  0
   -1.3474   28.2553  -23.3892 H   0  0  0  0  0  0  0  0  0  0  0  0
    1.7770   28.2590  -21.5830 H   0  0  0  0  0  0  0  0  0  0  0  0
    2.6670   26.6450  -23.3238 H   0  0  0  0  0  0  0  0  0  0  0  0
    2.0592   25.0454  -25.1374 H   0  0  0  0  0  0  0  0  0  0  0  0
    0.4061   23.0448  -25.3253 H   0  0  0  0  0  0  0  0  0  0  0  0
   -0.1995   21.4484  -27.1407 H   0  0  0  0  0  0  0  0  0  0  0  0
  1  2  2  0
  2  3  2  0
  2  4  1  0
  4  5  1  0
  5  6  2  0
  6  7  1  0
  7  8  2  0
  8  9  1  0
  9 10  2  0
 10 11  1  0
  8 12  1  0
 12 13  1  0
 13 14  1  0
 14 15  1  0
  2 16  1  0
 16 17  2  0
 17 18  1  0
 18 19  2  0
 19 20  1  0
 20 21  2  0
 21 22  1  0
 22 23  2  0
 23 24  1  0
 23 25  1  0
 25 26  2  0
 19 27  1  0
 27 28  2  0
 10  5  1  0
 28 16  1  0
 15  7  1  0
 26 20  1  0
  6 29  1  0
  9 30  1  0
 12 31  1  0
 12 32  1  0
 13 33  1  0
 14 34  1  0
 14 35  1  0
 15 36  1  0
 15 37  1  0
 17 38  1  0
 18 39  1  0
 21 40  1  0
 22 41  1  0
 24 42  1  0
 25 43  1  0
 26 44  1  0
 27 45  1  0
 28 46  1  0
M  CHG  2   4  -1  11  -1
M  END
>  <UniqueID>  (38) 
37

>  <SMILES>  (38) 
O=S(=O)([N-]c1cc2c(cc1[O-])CNCC2)c1ccc(-c2ccc(O)cc2)cc1

>  <Energy>  (38) 
61.2094066473516

>  <Genealogy>  (38) 
O=S(=O)([N-]c1cc2c(cc1[O-])CNCC2)c1ccc(-c2ccc(O)cc2)cc1 (protonated)
O=S(=O)([N-]c1cc2c(cc1[O-])CNCC2)c1ccc(-c2ccc(O)cc2)cc1 (3D coordinates assigned)
O=S(=O)([N-]c1cc2c(cc1[O-])CNCC2)c1ccc(-c2ccc(O)cc2)cc1 (nonaromatic ring conformer: 61.2094066473516 kcal/mol)

>  <smiles>  (38) 
O=S(=O)(Nc1cc2c(cc1O)CNCC2)c1ccc(-c2ccc(O)cc2)cc1

>  <score_type>  (38) 
oracle

>  <origin>  (38) 
adgpu

>  <m_score__min__energy>  (38) 
-14.210000000000001

>  <m_primary>  (38) 
energy

$$$$
38:0
     RDKit          3D

 53 55  0  0  0  0  0  0  0  0999 V2000
   -2.0150   20.0760  -30.8850 N   0  0  0  0  0  0  0  0  0  0  0  0
   -2.6870   21.0830  -32.1210 S   0  0  0  0  0  0  0  0  0  0  0  0
   -2.7870   22.4850  -31.5890 O   0  0  0  0  0  0  0  0  0  0  0  0
   -1.7700   21.0590  -33.3110 O   0  0  0  0  0  0  0  0  0  0  0  0
   -4.2940   20.5110  -32.6000 C   0  0  0  0  0  0  0  0  0  0  0  0
   -4.3940   19.2930  -33.2940 C   0  0  0  0  0  0  0  0  0  0  0  0
   -5.6390   18.7880  -33.6720 C   0  0  0  0  0  0  0  0  0  0  0  0
   -6.7990   19.4910  -33.3630 C   0  0  0  0  0  0  0  0  0  0  0  0
   -6.7230   20.7060  -32.6820 C   0  0  0  0  0  0  0  0  0  0  0  0
   -5.4760   21.2390  -32.2910 C   0  0  0  0  0  0  0  0  0  0  0  0
   -5.4120   22.5090  -31.6020 N   0  0  0  0  0  0  0  0  0  0  0  0
   -6.1720   23.6880  -32.0290 C   0  0  0  0  0  0  0  0  0  0  0  0
   -5.7860   24.9340  -31.2220 C   0  0  0  0  0  0  0  0  0  0  0  0
   -4.8760   24.5760  -30.0840 C   0  0  0  0  0  0  0  0  0  0  0  0
   -5.3450   23.9590  -29.0890 O   0  0  0  0  0  0  0  0  0  0  0  0
   -3.4830   24.9180  -30.1370 N   0  0  0  0  0  0  0  0  0  0  0  0
   -2.4830   24.3030  -29.3050 C   0  0  0  0  0  0  0  0  0  0  0  0
   -2.5860   22.9490  -28.9380 C   0  0  0  0  0  0  0  0  0  0  0  0
   -1.5990   22.3490  -28.1440 C   0  0  0  0  0  0  0  0  0  0  0  0
   -1.7390   20.6460  -27.6910 S   0  0  0  0  0  0  0  0  0  0  0  0
   -1.5330   20.5170  -26.2070 O   0  0  0  0  0  0  0  0  0  0  0  0
   -3.1270   20.1670  -28.0120 O   0  0  0  0  0  0  0  0  0  0  0  0
   -0.5830   19.6290  -28.5190 N   0  0  0  0  0  0  0  0  0  0  0  0
   -0.4520   18.3190  -27.8860 C   0  0  0  0  0  0  0  0  0  0  0  0
    0.9340   17.8050  -28.2500 C   0  0  0  0  0  0  0  0  0  0  0  0
    1.7270   19.0390  -28.6510 C   0  0  0  0  0  0  0  0  0  0  0  0
    0.7600   20.2050  -28.5100 C   0  0  0  0  0  0  0  0  0  0  0  0
   -0.4870   23.1000  -27.7380 C   0  0  0  0  0  0  0  0  0  0  0  0
   -0.3680   24.4390  -28.1160 C   0  0  0  0  0  0  0  0  0  0  0  0
   -1.3570   25.0400  -28.9010 C   0  0  0  0  0  0  0  0  0  0  0  0
   -1.2190   26.3750  -29.2680 O   0  0  0  0  0  0  0  0  0  0  0  0
   -2.2260   20.5320  -29.9690 H   0  0  0  0  0  0  0  0  0  0  0  0
   -3.4811   18.7316  -33.5420 H   0  0  0  0  0  0  0  0  0  0  0  0
   -5.7031   17.8333  -34.2147 H   0  0  0  0  0  0  0  0  0  0  0  0
   -7.7793   19.0875  -33.6566 H   0  0  0  0  0  0  0  0  0  0  0  0
   -7.6464   21.2555  -32.4468 H   0  0  0  0  0  0  0  0  0  0  0  0
   -4.8020   22.6030  -30.7610 H   0  0  0  0  0  0  0  0  0  0  0  0
   -5.9699   23.8761  -33.0938 H   0  0  0  0  0  0  0  0  0  0  0  0
   -7.2403   23.4872  -31.8602 H   0  0  0  0  0  0  0  0  0  0  0  0
   -5.2715   25.6463  -31.8838 H   0  0  0  0  0  0  0  0  0  0  0  0
   -6.7020   25.3832  -30.8107 H   0  0  0  0  0  0  0  0  0  0  0  0
   -3.1850   25.6730  -30.7950 H   0  0  0  0  0  0  0  0  0  0  0  0
   -3.4483   22.3561  -29.2769 H   0  0  0  0  0  0  0  0  0  0  0  0
   -0.5491   18.4122  -26.7943 H   0  0  0  0  0  0  0  0  0  0  0  0
   -1.2370   17.6290  -28.2290 H   0  0  0  0  0  0  0  0  0  0  0  0
    1.4011   17.3110  -27.3853 H   0  0  0  0  0  0  0  0  0  0  0  0
    0.8960   17.0610  -29.0593 H   0  0  0  0  0  0  0  0  0  0  0  0
    2.5919   19.1738  -27.9848 H   0  0  0  0  0  0  0  0  0  0  0  0
    2.1215   18.9566  -29.6745 H   0  0  0  0  0  0  0  0  0  0  0  0
    0.9399   20.7365  -27.5639 H   0  0  0  0  0  0  0  0  0  0  0  0
    0.8885   20.9312  -29.3261 H   0  0  0  0  0  0  0  0  0  0  0  0
    0.2940   22.6331  -27.1199 H   0  0  0  0  0  0  0  0  0  0  0  0
    0.5070   25.0232  -27.7951 H   0  0  0  0  0  0  0  0  0  0  0  0
  1  2  1  0
  2  3  2  0
  2  4  2  0
  2  5  1  0
  5  6  2  0
  6  7  1  0
  7  8  2  0
  8  9  1  0
  9 10  2  0
 10 11  1  0
 11 12  1  0
 12 13  1  0
 13 14  1  0
 14 15  2  0
 14 16  1  0
 16 17  1  0
 17 18  2  0
 18 19  1  0
 19 20  1  0
 20 21  2  0
 20 22  2  0
 20 23  1  0
 23 24  1  0
 24 25  1  0
 25 26  1  0
 26 27  1  0
 19 28  2  0
 28 29  1  0
 29 30  2  0
 30 31  1  0
 10  5  1  0
 30 17  1  0
 27 23  1  0
  1 32  1  0
  6 33  1  0
  7 34  1  0
  8 35  1  0
  9 36  1  0
 11 37  1  0
 12 38  1  0
 12 39  1  0
 13 40  1  0
 13 41  1  0
 16 42  1  0
 18 43  1  0
 24 44  1  0
 24 45  1  0
 25 46  1  0
 25 47  1  0
 26 48  1  0
 26 49  1  0
 27 50  1  0
 27 51  1  0
 28 52  1  0
 29 53  1  0
M  CHG  2   1  -1  31  -1
M  END
>  <UniqueID>  (39) 
38

>  <SMILES>  (39) 
[NH-]S(=O)(=O)c1ccccc1NCCC(=O)Nc1cc(S(=O)(=O)N2CCCC2)ccc1[O-]

>  <Energy>  (39) 
56.125571001648595

>  <Genealogy>  (39) 
[NH-]S(=O)(=O)c1ccccc1NCCC(=O)Nc1cc(S(=O)(=O)N2CCCC2)ccc1[O-] (protonated)
[NH-]S(=O)(=O)c1ccccc1NCCC(=O)Nc1cc(S(=O)(=O)N2CCCC2)ccc1[O-] (3D coordinates assigned)
[NH-]S(=O)(=O)c1ccccc1NCCC(=O)Nc1cc(S(=O)(=O)N2CCCC2)ccc1[O-] (nonaromatic ring conformer: 56.125571001648595 kcal/mol)

>  <smiles>  (39) 
NS(=O)(=O)c1ccccc1NCCC(=O)Nc1cc(S(=O)(=O)N2CCCC2)ccc1O

>  <score_type>  (39) 
oracle

>  <origin>  (39) 
adgpu

>  <m_score__min__energy>  (39) 
-14.91

>  <m_primary>  (39) 
energy

$$$$
39:0
     RDKit          3D

 71 75  0  0  0  0  0  0  0  0999 V2000
   -8.8750   22.7080  -31.9140 O   0  0  0  0  0  0  0  0  0  0  0  0
   -8.1370   21.8890  -31.3050 C   0  0  0  0  0  0  0  0  0  0  0  0
   -7.4070   22.3480  -30.1570 N   0  0  0  0  0  0  0  0  0  0  0  0
   -6.3590   23.3290  -30.1610 C   0  0  0  0  0  0  0  0  0  0  0  0
   -6.6070   24.6700  -30.5030 C   0  0  0  0  0  0  0  0  0  0  0  0
   -5.5690   25.6060  -30.4780 C   0  0  0  0  0  0  0  0  0  0  0  0
   -4.2800   25.2140  -30.1060 C   0  0  0  0  0  0  0  0  0  0  0  0
   -4.0250   23.8830  -29.7520 C   0  0  0  0  0  0  0  0  0  0  0  0
   -2.4030   23.4020  -29.2610 S   0  0  0  0  0  0  0  0  0  0  0  0
   -1.7100   24.5900  -28.6520 O   0  0  0  0  0  0  0  0  0  0  0  0
   -1.6170   22.9550  -30.4640 O   0  0  0  0  0  0  0  0  0  0  0  0
   -2.5050   22.1110  -28.0900 N   0  0  0  0  0  0  0  0  0  0  0  0
   -2.6840   20.8230  -28.7730 C   0  0  0  0  0  0  0  0  0  0  0  0
   -2.7430   19.6790  -27.7390 C   0  0  0  0  0  0  0  0  0  0  0  0
   -2.4880   20.1360  -26.4220 O   0  0  0  0  0  0  0  0  0  0  0  0
   -1.2520   20.8210  -26.3790 C   0  0  0  0  0  0  0  0  0  0  0  0
   -1.2790   22.0800  -27.2710 C   0  0  0  0  0  0  0  0  0  0  0  0
   -5.0710   22.9470  -29.7670 C   0  0  0  0  0  0  0  0  0  0  0  0
   -8.0750   20.4820  -31.7670 C   0  0  0  0  0  0  0  0  0  0  0  0
   -8.8890   19.4960  -31.1840 C   0  0  0  0  0  0  0  0  0  0  0  0
   -8.8210   18.1760  -31.6250 C   0  0  0  0  0  0  0  0  0  0  0  0
   -7.9500   17.8220  -32.6580 C   0  0  0  0  0  0  0  0  0  0  0  0
   -7.1350   18.7930  -33.2670 C   0  0  0  0  0  0  0  0  0  0  0  0
   -6.2430   18.4750  -34.3520 N   0  0  0  0  0  0  0  0  0  0  0  0
   -4.5800   18.0010  -34.1740 S   0  0  0  0  0  0  0  0  0  0  0  0
   -4.4500   16.8660  -33.1970 O   0  0  0  0  0  0  0  0  0  0  0  0
   -4.0790   17.5140  -35.5040 O   0  0  0  0  0  0  0  0  0  0  0  0
   -3.6030   19.3800  -33.6710 C   0  0  0  0  0  0  0  0  0  0  0  0
   -4.2100   20.5550  -33.2030 C   0  0  0  0  0  0  0  0  0  0  0  0
   -3.4240   21.6400  -32.8060 C   0  0  0  0  0  0  0  0  0  0  0  0
   -2.0290   21.5520  -32.8540 C   0  0  0  0  0  0  0  0  0  0  0  0
   -1.4120   20.3750  -33.2980 C   0  0  0  0  0  0  0  0  0  0  0  0
    0.3510   20.2400  -33.3100 S   0  0  0  0  0  0  0  0  0  0  0  0
    0.7530   19.1640  -34.2800 O   0  0  0  0  0  0  0  0  0  0  0  0
    0.9380   21.5390  -33.7880 O   0  0  0  0  0  0  0  0  0  0  0  0
    1.0120   19.8600  -31.7370 N   0  0  0  0  0  0  0  0  0  0  0  0
    1.0140   18.4220  -31.4720 C   0  0  0  0  0  0  0  0  0  0  0  0
    0.9880   18.2650  -29.9600 C   0  0  0  0  0  0  0  0  0  0  0  0
    0.4570   19.5890  -29.4280 C   0  0  0  0  0  0  0  0  0  0  0  0
    0.2270   20.4560  -30.6570 C   0  0  0  0  0  0  0  0  0  0  0  0
   -2.2040   19.3010  -33.7260 C   0  0  0  0  0  0  0  0  0  0  0  0
   -7.2150   20.1220  -32.8200 C   0  0  0  0  0  0  0  0  0  0  0  0
   -7.6212   24.9837  -30.7912 H   0  0  0  0  0  0  0  0  0  0  0  0
   -5.7670   26.6529  -30.7516 H   0  0  0  0  0  0  0  0  0  0  0  0
   -3.4644   25.9520  -30.0912 H   0  0  0  0  0  0  0  0  0  0  0  0
   -3.6218   20.8430  -29.3476 H   0  0  0  0  0  0  0  0  0  0  0  0
   -1.8340   20.6531  -29.4503 H   0  0  0  0  0  0  0  0  0  0  0  0
   -3.7446   19.2252  -27.7691 H   0  0  0  0  0  0  0  0  0  0  0  0
   -1.9646   18.9468  -27.9997 H   0  0  0  0  0  0  0  0  0  0  0  0
   -1.0443   21.1211  -25.3413 H   0  0  0  0  0  0  0  0  0  0  0  0
   -0.4674   20.1467  -26.7528 H   0  0  0  0  0  0  0  0  0  0  0  0
   -1.2480   22.9755  -26.6330 H   0  0  0  0  0  0  0  0  0  0  0  0
   -0.4064   22.0585  -27.9404 H   0  0  0  0  0  0  0  0  0  0  0  0
   -4.8774   21.9065  -29.4672 H   0  0  0  0  0  0  0  0  0  0  0  0
   -9.5834   19.7676  -30.3753 H   0  0  0  0  0  0  0  0  0  0  0  0
   -9.4562   17.4092  -31.1575 H   0  0  0  0  0  0  0  0  0  0  0  0
   -7.9012   16.7768  -32.9974 H   0  0  0  0  0  0  0  0  0  0  0  0
   -6.5650   18.6540  -35.3290 H   0  0  0  0  0  0  0  0  0  0  0  0
   -5.3066   20.6223  -33.1485 H   0  0  0  0  0  0  0  0  0  0  0  0
   -3.9036   22.5656  -32.4549 H   0  0  0  0  0  0  0  0  0  0  0  0
   -1.4144   22.4094  -32.5423 H   0  0  0  0  0  0  0  0  0  0  0  0
    0.1258   17.9514  -31.9188 H   0  0  0  0  0  0  0  0  0  0  0  0
    1.8996   17.9370  -31.9085 H   0  0  0  0  0  0  0  0  0  0  0  0
    0.3227   17.4385  -29.6698 H   0  0  0  0  0  0  0  0  0  0  0  0
    1.9832   18.0296  -29.5548 H   0  0  0  0  0  0  0  0  0  0  0  0
   -0.4866   19.4345  -28.8841 H   0  0  0  0  0  0  0  0  0  0  0  0
    1.1594   20.0575  -28.7229 H   0  0  0  0  0  0  0  0  0  0  0  0
   -0.8405   20.4638  -30.9224 H   0  0  0  0  0  0  0  0  0  0  0  0
    0.5300   21.4972  -30.4722 H   0  0  0  0  0  0  0  0  0  0  0  0
   -1.7241   18.3881  -34.1084 H   0  0  0  0  0  0  0  0  0  0  0  0
   -6.5954   20.8933  -33.3009 H   0  0  0  0  0  0  0  0  0  0  0  0
  1  2  2  0
  2  3  1  0
  3  4  1  0
  4  5  2  0
  5  6  1  0
  6  7  2  0
  7  8  1  0
  8  9  1  0
  9 10  2  0
  9 11  2  0
  9 12  1  0
 12 13  1  0
 13 14  1  0
 14 15  1  0
 15 16  1  0
 16 17  1  0
  8 18  2  0
  2 19  1  0
 19 20  2  0
 20 21  1  0
 21 22  2  0
 22 23  1  0
 23 24  1  0
 24 25  1  0
 25 26  2  0
 25 27  2  0
 25 28  1  0
 28 29  2  0
 29 30  1  0
 30 31  2  0
 31 32  1  0
 32 33  1  0
 33 34  2  0
 33 35  2  0
 33 36  1  0
 36 37  1  0
 37 38  1  0
 38 39  1  0
 39 40  1  0
 32 41  2  0
 23 42  2  0
 18  4  1  0
 42 19  1  0
 17 12  1  0
 41 28  1  0
 40 36  1  0
  5 43  1  0
  6 44  1  0
  7 45  1  0
 13 46  1  0
 13 47  1  0
 14 48  1  0
 14 49  1  0
 16 50  1  0
 16 51  1  0
 17 52  1  0
 17 53  1  0
 18 54  1  0
 20 55  1  0
 21 56  1  0
 22 57  1  0
 24 58  1  0
 29 59  1  0
 30 60  1  0
 31 61  1  0
 37 62  1  0
 37 63  1  0
 38 64  1  0
 38 65  1  0
 39 66  1  0
 39 67  1  0
 40 68  1  0
 40 69  1  0
 41 70  1  0
 42 71  1  0
M  CHG  1   3  -1
M  END
>  <UniqueID>  (40) 
39

>  <SMILES>  (40) 
O=C([N-]c1cccc(S(=O)(=O)N2CCOCC2)c1)c1cccc(NS(=O)(=O)c2cccc(S(=O)(=O)N3CCCC3)c2)c1

>  <Energy>  (40) 
94.4725071201958

>  <Genealogy>  (40) 
O=C([N-]c1cccc(S(=O)(=O)N2CCOCC2)c1)c1cccc(NS(=O)(=O)c2cccc(S(=O)(=O)N3CCCC3)c2)c1 (protonated)
O=C([N-]c1cccc(S(=O)(=O)N2CCOCC2)c1)c1cccc(NS(=O)(=O)c2cccc(S(=O)(=O)N3CCCC3)c2)c1 (3D coordinates assigned)
O=C([N-]c1cccc(S(=O)(=O)N2CCOCC2)c1)c1cccc(NS(=O)(=O)c2cccc(S(=O)(=O)N3CCCC3)c2)c1 (nonaromatic ring conformer: 94.4725071201958 kcal/mol)

>  <smiles>  (40) 
O=C(Nc1cccc(S(=O)(=O)N2CCOCC2)c1)c1cccc(NS(=O)(=O)c2cccc(S(=O)(=O)N3CCCC3)c2)c1

>  <score_type>  (40) 
oracle

>  <origin>  (40) 
adgpu

>  <m_score__min__energy>  (40) 
-13.359999999999999

>  <m_primary>  (40) 
energy

$$$$
40:0
     RDKit          3D

 62 66  0  0  0  0  0  0  0  0999 V2000
   -5.7610   25.5000  -28.9040 O   0  0  0  0  0  0  0  0  0  0  0  0
   -5.3870   25.2080  -30.3290 S   0  0  0  0  0  0  0  0  0  0  0  0
   -5.7570   26.3890  -31.1820 O   0  0  0  0  0  0  0  0  0  0  0  0
   -3.6810   24.9350  -30.4440 N   0  0  0  0  0  0  0  0  0  0  0  0
   -3.0940   23.8030  -29.7980 C   0  0  0  0  0  0  0  0  0  0  0  0
   -2.8230   23.8740  -28.4300 C   0  0  0  0  0  0  0  0  0  0  0  0
   -2.3420   22.7590  -27.7460 C   0  0  0  0  0  0  0  0  0  0  0  0
   -2.1340   21.5460  -28.4150 C   0  0  0  0  0  0  0  0  0  0  0  0
   -1.6430   20.4170  -27.6780 N   0  0  0  0  0  0  0  0  0  0  0  0
   -0.2050   20.2840  -27.4320 C   0  0  0  0  0  0  0  0  0  0  0  0
    0.2430   18.8050  -27.4780 C   0  0  0  0  0  0  0  0  0  0  0  0
   -0.8580   17.8420  -27.2610 N   0  0  0  0  0  0  0  0  0  0  0  0
   -1.8790   18.3580  -26.3410 C   0  0  0  0  0  0  0  0  0  0  0  0
   -2.5970   19.5550  -26.9740 C   0  0  0  0  0  0  0  0  0  0  0  0
   -2.4040   21.4540  -29.7980 C   0  0  0  0  0  0  0  0  0  0  0  0
   -2.2420   20.2390  -30.4930 C   0  0  0  0  0  0  0  0  0  0  0  0
   -2.5210   20.1610  -31.8590 C   0  0  0  0  0  0  0  0  0  0  0  0
   -2.9570   21.2900  -32.5520 C   0  0  0  0  0  0  0  0  0  0  0  0
   -3.1290   22.5030  -31.8820 C   0  0  0  0  0  0  0  0  0  0  0  0
   -2.8720   22.5980  -30.5000 C   0  0  0  0  0  0  0  0  0  0  0  0
   -6.2430   23.7750  -30.8960 C   0  0  0  0  0  0  0  0  0  0  0  0
   -7.0670   23.0630  -30.0140 C   0  0  0  0  0  0  0  0  0  0  0  0
   -7.6560   21.8610  -30.4150 C   0  0  0  0  0  0  0  0  0  0  0  0
   -7.4270   21.3610  -31.7030 C   0  0  0  0  0  0  0  0  0  0  0  0
   -8.1700   19.8410  -32.1910 S   0  0  0  0  0  0  0  0  0  0  0  0
   -9.0270   19.3070  -31.0760 O   0  0  0  0  0  0  0  0  0  0  0  0
   -9.0400   20.0870  -33.3910 O   0  0  0  0  0  0  0  0  0  0  0  0
   -6.9180   18.6970  -32.6000 N   0  0  0  0  0  0  0  0  0  0  0  0
   -7.4720   17.3620  -32.8210 C   0  0  0  0  0  0  0  0  0  0  0  0
   -6.5220   16.6510  -33.7690 C   0  0  0  0  0  0  0  0  0  0  0  0
   -5.7510   17.7590  -34.4690 C   0  0  0  0  0  0  0  0  0  0  0  0
   -6.2530   19.0570  -33.8510 C   0  0  0  0  0  0  0  0  0  0  0  0
   -6.6190   22.0820  -32.5940 C   0  0  0  0  0  0  0  0  0  0  0  0
   -6.0250   23.2820  -32.1910 C   0  0  0  0  0  0  0  0  0  0  0  0
   -2.9903   24.8167  -27.8884 H   0  0  0  0  0  0  0  0  0  0  0  0
   -2.1236   22.8322  -26.6704 H   0  0  0  0  0  0  0  0  0  0  0  0
    0.3429   20.8476  -28.2015 H   0  0  0  0  0  0  0  0  0  0  0  0
    0.0116   20.6793  -26.4286 H   0  0  0  0  0  0  0  0  0  0  0  0
    0.6873   18.6075  -28.4647 H   0  0  0  0  0  0  0  0  0  0  0  0
    0.9611   18.6616  -26.6572 H   0  0  0  0  0  0  0  0  0  0  0  0
   -0.4620   16.9590  -26.8630 H   0  0  0  0  0  0  0  0  0  0  0  0
   -1.3040   17.6070  -28.1790 H   0  0  0  0  0  0  0  0  0  0  0  0
   -2.6111   17.5653  -26.1273 H   0  0  0  0  0  0  0  0  0  0  0  0
   -1.3947   18.6796  -25.4072 H   0  0  0  0  0  0  0  0  0  0  0  0
   -3.3487   19.1888  -27.6887 H   0  0  0  0  0  0  0  0  0  0  0  0
   -3.0812   20.1391  -26.1776 H   0  0  0  0  0  0  0  0  0  0  0  0
   -1.8931   19.3450  -29.9553 H   0  0  0  0  0  0  0  0  0  0  0  0
   -2.3965   19.2059  -32.3902 H   0  0  0  0  0  0  0  0  0  0  0  0
   -3.1661   21.2247  -33.6300 H   0  0  0  0  0  0  0  0  0  0  0  0
   -3.4674   23.3904  -32.4370 H   0  0  0  0  0  0  0  0  0  0  0  0
   -7.2509   23.4520  -29.0017 H   0  0  0  0  0  0  0  0  0  0  0  0
   -8.3009   21.3063  -29.7176 H   0  0  0  0  0  0  0  0  0  0  0  0
   -7.5377   16.8156  -31.8686 H   0  0  0  0  0  0  0  0  0  0  0  0
   -8.4864   17.4177  -33.2428 H   0  0  0  0  0  0  0  0  0  0  0  0
   -5.8359   15.9982  -33.2094 H   0  0  0  0  0  0  0  0  0  0  0  0
   -7.0589   16.0099  -34.4837 H   0  0  0  0  0  0  0  0  0  0  0  0
   -4.6707   17.6437  -34.2967 H   0  0  0  0  0  0  0  0  0  0  0  0
   -5.9057   17.7388  -35.5579 H   0  0  0  0  0  0  0  0  0  0  0  0
   -5.4086   19.7329  -33.6506 H   0  0  0  0  0  0  0  0  0  0  0  0
   -6.9437   19.5776  -34.5306 H   0  0  0  0  0  0  0  0  0  0  0  0
   -6.4520   21.7025  -33.6129 H   0  0  0  0  0  0  0  0  0  0  0  0
   -5.3857   23.8403  -32.8907 H   0  0  0  0  0  0  0  0  0  0  0  0
  1  2  2  0
  2  3  2  0
  2  4  1  0
  4  5  1  0
  5  6  2  0
  6  7  1  0
  7  8  2  0
  8  9  1  0
  9 10  1  0
 10 11  1  0
 11 12  1  0
 12 13  1  0
 13 14  1  0
  8 15  1  0
 15 16  2  0
 16 17  1  0
 17 18  2  0
 18 19  1  0
 19 20  2  0
  2 21  1  0
 21 22  2  0
 22 23  1  0
 23 24  2  0
 24 25  1  0
 25 26  2  0
 25 27  2  0
 25 28  1  0
 28 29  1  0
 29 30  1  0
 30 31  1  0
 31 32  1  0
 24 33  1  0
 33 34  2  0
 20  5  1  0
 34 21  1  0
 14  9  1  0
 20 15  1  0
 32 28  1  0
  6 35  1  0
  7 36  1  0
 10 37  1  0
 10 38  1  0
 11 39  1  0
 11 40  1  0
 12 41  1  0
 12 42  1  0
 13 43  1  0
 13 44  1  0
 14 45  1  0
 14 46  1  0
 16 47  1  0
 17 48  1  0
 18 49  1  0
 19 50  1  0
 22 51  1  0
 23 52  1  0
 29 53  1  0
 29 54  1  0
 30 55  1  0
 30 56  1  0
 31 57  1  0
 31 58  1  0
 32 59  1  0
 32 60  1  0
 33 61  1  0
 34 62  1  0
M  CHG  2   4  -1  12   1
M  END
>  <UniqueID>  (41) 
40

>  <SMILES>  (41) 
O=S(=O)([N-]c1ccc(N2CC[NH2+]CC2)c2ccccc12)c1ccc(S(=O)(=O)N2CCCC2)cc1

>  <Energy>  (41) 
87.25683043548874

>  <Genealogy>  (41) 
O=S(=O)([N-]c1ccc(N2CC[NH2+]CC2)c2ccccc12)c1ccc(S(=O)(=O)N2CCCC2)cc1 (protonated)
O=S(=O)([N-]c1ccc(N2CC[NH2+]CC2)c2ccccc12)c1ccc(S(=O)(=O)N2CCCC2)cc1 (3D coordinates assigned)
O=S(=O)([N-]c1ccc(N2CC[NH2+]CC2)c2ccccc12)c1ccc(S(=O)(=O)N2CCCC2)cc1 (nonaromatic ring conformer: 87.25683043548874 kcal/mol)

>  <smiles>  (41) 
O=S(=O)(Nc1ccc(N2CCNCC2)c2ccccc12)c1ccc(S(=O)(=O)N2CCCC2)cc1

>  <score_type>  (41) 
oracle

>  <origin>  (41) 
adgpu

>  <m_score__min__energy>  (41) 
-13.25

>  <m_primary>  (41) 
energy

$$$$
41:0
     RDKit          3D

 37 39  0  0  0  0  0  0  0  0999 V2000
   -8.6130   23.4260  -32.0420 O   0  0  0  0  0  0  0  0  0  0  0  0
   -7.8290   22.7850  -31.3120 N   0  0  0  0  0  0  0  0  0  0  0  0
   -8.3070   22.2620  -30.1350 O   0  0  0  0  0  0  0  0  0  0  0  0
   -6.5980   22.2940  -31.8590 C   0  0  0  0  0  0  0  0  0  0  0  0
   -6.6270   21.1260  -32.6400 C   0  0  0  0  0  0  0  0  0  0  0  0
   -5.4520   20.5960  -33.1740 C   0  0  0  0  0  0  0  0  0  0  0  0
   -5.4960   19.4360  -33.9360 O   0  0  0  0  0  0  0  0  0  0  0  0
   -4.2330   21.2310  -32.9410 C   0  0  0  0  0  0  0  0  0  0  0  0
   -4.1880   22.4010  -32.1820 C   0  0  0  0  0  0  0  0  0  0  0  0
   -5.3600   22.9500  -31.6320 C   0  0  0  0  0  0  0  0  0  0  0  0
   -5.2420   24.5030  -30.7800 S   0  0  0  0  0  0  0  0  0  0  0  0
   -5.9330   24.3940  -29.4490 O   0  0  0  0  0  0  0  0  0  0  0  0
   -5.9160   25.6010  -31.5500 O   0  0  0  0  0  0  0  0  0  0  0  0
   -3.5780   24.8860  -30.4820 N   0  0  0  0  0  0  0  0  0  0  0  0
   -2.7830   24.1910  -29.5220 C   0  0  0  0  0  0  0  0  0  0  0  0
   -3.1870   22.9210  -29.0970 C   0  0  0  0  0  0  0  0  0  0  0  0
   -2.4190   22.2060  -28.1690 C   0  0  0  0  0  0  0  0  0  0  0  0
   -1.2530   22.7860  -27.6290 C   0  0  0  0  0  0  0  0  0  0  0  0
   -0.8590   24.0650  -28.0480 C   0  0  0  0  0  0  0  0  0  0  0  0
   -1.6250   24.7730  -28.9780 C   0  0  0  0  0  0  0  0  0  0  0  0
   -1.2410   26.0580  -29.3410 O   0  0  0  0  0  0  0  0  0  0  0  0
   -0.3910   22.0100  -26.6620 C   0  0  0  0  0  0  0  0  0  0  0  0
   -1.1990   20.9410  -25.9140 C   0  0  0  0  0  0  0  0  0  0  0  0
   -1.9770   20.0670  -26.9010 C   0  0  0  0  0  0  0  0  0  0  0  0
   -2.8300   20.8960  -27.7490 N   0  0  0  0  0  0  0  0  0  0  0  0
   -7.5867   20.6241  -32.8324 H   0  0  0  0  0  0  0  0  0  0  0  0
   -3.3057   20.8093  -33.3559 H   0  0  0  0  0  0  0  0  0  0  0  0
   -3.2229   22.9005  -32.0116 H   0  0  0  0  0  0  0  0  0  0  0  0
   -4.1137   22.4810  -29.4940 H   0  0  0  0  0  0  0  0  0  0  0  0
    0.0594   24.5140  -27.6418 H   0  0  0  0  0  0  0  0  0  0  0  0
    0.4187   21.5185  -27.2213 H   0  0  0  0  0  0  0  0  0  0  0  0
    0.0137   22.7151  -25.9211 H   0  0  0  0  0  0  0  0  0  0  0  0
   -0.5115   20.3077  -25.3341 H   0  0  0  0  0  0  0  0  0  0  0  0
   -1.9129   21.4405  -25.2426 H   0  0  0  0  0  0  0  0  0  0  0  0
   -1.2671   19.5123  -27.5322 H   0  0  0  0  0  0  0  0  0  0  0  0
   -2.6079   19.3646  -26.3366 H   0  0  0  0  0  0  0  0  0  0  0  0
   -3.7220   20.4890  -28.1120 H   0  0  0  0  0  0  0  0  0  0  0  0
  1  2  2  0
  2  3  1  0
  2  4  1  0
  4  5  2  0
  5  6  1  0
  6  7  1  0
  6  8  2  0
  8  9  1  0
  9 10  2  0
 10 11  1  0
 11 12  2  0
 11 13  2  0
 11 14  1  0
 14 15  1  0
 15 16  2  0
 16 17  1  0
 17 18  2  0
 18 19  1  0
 19 20  2  0
 20 21  1  0
 18 22  1  0
 22 23  1  0
 23 24  1  0
 24 25  1  0
 10  4  1  0
 20 15  1  0
 25 17  1  0
  5 26  1  0
  8 27  1  0
  9 28  1  0
 16 29  1  0
 19 30  1  0
 22 31  1  0
 22 32  1  0
 23 33  1  0
 23 34  1  0
 24 35  1  0
 24 36  1  0
 25 37  1  0
M  CHG  5   2   1   3  -1   7  -1  14  -1  21  -1
M  END
>  <UniqueID>  (42) 
41

>  <SMILES>  (42) 
O=[N+]([O-])c1cc([O-])ccc1S(=O)(=O)[N-]c1cc2c(cc1[O-])CCCN2

>  <Energy>  (42) 
54.89259313910646

>  <Genealogy>  (42) 
O=[N+]([O-])c1cc([O-])ccc1S(=O)(=O)[N-]c1cc2c(cc1[O-])CCCN2 (protonated)
O=[N+]([O-])c1cc([O-])ccc1S(=O)(=O)[N-]c1cc2c(cc1[O-])CCCN2 (3D coordinates assigned)
O=[N+]([O-])c1cc([O-])ccc1S(=O)(=O)[N-]c1cc2c(cc1[O-])CCCN2 (nonaromatic ring conformer: 54.89259313910646 kcal/mol)

>  <smiles>  (42) 
O=[N+]([O-])c1cc(O)ccc1S(=O)(=O)Nc1cc2c(cc1O)CCCN2

>  <score_type>  (42) 
oracle

>  <origin>  (42) 
adgpu

>  <m_score__min__energy>  (42) 
-12.43

>  <m_primary>  (42) 
energy

$$$$
42:0
     RDKit          3D

 54 56  0  0  0  0  0  0  0  0999 V2000
   -6.8650   17.8850  -33.3920 C   0  0  0  0  0  0  0  0  0  0  0  0
   -6.7620   19.2770  -32.8410 C   0  0  0  0  0  0  0  0  0  0  0  0
   -7.9220   19.9900  -32.5170 C   0  0  0  0  0  0  0  0  0  0  0  0
   -7.8380   21.2780  -31.9710 C   0  0  0  0  0  0  0  0  0  0  0  0
   -9.0940   22.0500  -31.6740 C   0  0  0  0  0  0  0  0  0  0  0  0
   -6.5760   21.8700  -31.7620 C   0  0  0  0  0  0  0  0  0  0  0  0
   -6.5190   23.1800  -31.2700 O   0  0  0  0  0  0  0  0  0  0  0  0
   -5.7420   24.1990  -31.8960 C   0  0  0  0  0  0  0  0  0  0  0  0
   -5.2300   25.1270  -30.8460 C   0  0  0  0  0  0  0  0  0  0  0  0
   -6.0320   25.8970  -30.2520 O   0  0  0  0  0  0  0  0  0  0  0  0
   -3.8500   25.0830  -30.4690 N   0  0  0  0  0  0  0  0  0  0  0  0
   -3.3390   24.3220  -29.3680 C   0  0  0  0  0  0  0  0  0  0  0  0
   -2.0260   24.5620  -28.9450 C   0  0  0  0  0  0  0  0  0  0  0  0
   -1.4620   23.8120  -27.9070 C   0  0  0  0  0  0  0  0  0  0  0  0
    0.1910   24.1300  -27.3890 S   0  0  0  0  0  0  0  0  0  0  0  0
    1.0200   24.5030  -28.5880 O   0  0  0  0  0  0  0  0  0  0  0  0
    0.7770   22.8920  -26.7670 O   0  0  0  0  0  0  0  0  0  0  0  0
    0.1930   25.4500  -26.2460 N   0  0  0  0  0  0  0  0  0  0  0  0
   -0.7380   26.5070  -26.6500 C   0  0  0  0  0  0  0  0  0  0  0  0
   -1.2380   27.1710  -25.3720 C   0  0  0  0  0  0  0  0  0  0  0  0
   -0.8310   26.2380  -24.2410 C   0  0  0  0  0  0  0  0  0  0  0  0
   -0.2600   25.0100  -24.9270 C   0  0  0  0  0  0  0  0  0  0  0  0
   -2.2280   22.8280  -27.2700 C   0  0  0  0  0  0  0  0  0  0  0  0
   -3.5500   22.6050  -27.6620 C   0  0  0  0  0  0  0  0  0  0  0  0
   -4.1230   23.3600  -28.6910 C   0  0  0  0  0  0  0  0  0  0  0  0
   -5.4710   23.1580  -28.9890 O   0  0  0  0  0  0  0  0  0  0  0  0
   -5.4020   21.1340  -32.0350 C   0  0  0  0  0  0  0  0  0  0  0  0
   -4.0370   21.7050  -31.7630 C   0  0  0  0  0  0  0  0  0  0  0  0
   -5.5070   19.8460  -32.5840 C   0  0  0  0  0  0  0  0  0  0  0  0
   -6.9183   17.1651  -32.5620 H   0  0  0  0  0  0  0  0  0  0  0  0
   -7.7718   17.8010  -34.0090 H   0  0  0  0  0  0  0  0  0  0  0  0
   -5.9804   17.6685  -34.0090 H   0  0  0  0  0  0  0  0  0  0  0  0
   -8.9082   19.5355  -32.6924 H   0  0  0  0  0  0  0  0  0  0  0  0
   -9.2257   22.1310  -30.5849 H   0  0  0  0  0  0  0  0  0  0  0  0
   -9.0172   23.0570  -32.1099 H   0  0  0  0  0  0  0  0  0  0  0  0
   -9.9578   21.5267  -32.1099 H   0  0  0  0  0  0  0  0  0  0  0  0
   -4.8958   23.7427  -32.4306 H   0  0  0  0  0  0  0  0  0  0  0  0
   -6.3630   24.7540  -32.6145 H   0  0  0  0  0  0  0  0  0  0  0  0
   -1.4318   25.3482  -29.4337 H   0  0  0  0  0  0  0  0  0  0  0  0
   -0.2215   27.2444  -27.2820 H   0  0  0  0  0  0  0  0  0  0  0  0
   -1.5750   26.0927  -27.2312 H   0  0  0  0  0  0  0  0  0  0  0  0
   -0.7695   28.1579  -25.2432 H   0  0  0  0  0  0  0  0  0  0  0  0
   -2.3258   27.3324  -25.3955 H   0  0  0  0  0  0  0  0  0  0  0  0
   -0.0706   26.7128  -23.6035 H   0  0  0  0  0  0  0  0  0  0  0  0
   -1.6799   25.9877  -23.5877 H   0  0  0  0  0  0  0  0  0  0  0  0
    0.5851   24.6088  -24.3483 H   0  0  0  0  0  0  0  0  0  0  0  0
   -1.0122   24.2115  -25.0085 H   0  0  0  0  0  0  0  0  0  0  0  0
   -1.7877   22.2293  -26.4591 H   0  0  0  0  0  0  0  0  0  0  0  0
   -4.1453   21.8296  -27.1576 H   0  0  0  0  0  0  0  0  0  0  0  0
   -6.0880   23.9080  -29.2730 H   0  0  0  0  0  0  0  0  0  0  0  0
   -3.8773   21.7718  -30.6767 H   0  0  0  0  0  0  0  0  0  0  0  0
   -3.2712   21.0518  -32.2067 H   0  0  0  0  0  0  0  0  0  0  0  0
   -3.9644   22.7089  -32.2067 H   0  0  0  0  0  0  0  0  0  0  0  0
   -4.5943   19.2771  -32.8150 H   0  0  0  0  0  0  0  0  0  0  0  0
  1  2  1  0
  2  3  2  0
  3  4  1  0
  4  5  1  0
  4  6  2  0
  6  7  1  0
  7  8  1  0
  8  9  1  0
  9 10  2  0
  9 11  1  0
 11 12  1  0
 12 13  2  0
 13 14  1  0
 14 15  1  0
 15 16  2  0
 15 17  2  0
 15 18  1  0
 18 19  1  0
 19 20  1  0
 20 21  1  0
 21 22  1  0
 14 23  2  0
 23 24  1  0
 24 25  2  0
 25 26  1  0
  6 27  1  0
 27 28  1  0
 27 29  2  0
 29  2  1  0
 25 12  1  0
 22 18  1  0
  1 30  1  0
  1 31  1  0
  1 32  1  0
  3 33  1  0
  5 34  1  0
  5 35  1  0
  5 36  1  0
  8 37  1  0
  8 38  1  0
 13 39  1  0
 19 40  1  0
 19 41  1  0
 20 42  1  0
 20 43  1  0
 21 44  1  0
 21 45  1  0
 22 46  1  0
 22 47  1  0
 23 48  1  0
 24 49  1  0
 26 50  1  0
 28 51  1  0
 28 52  1  0
 28 53  1  0
 29 54  1  0
M  CHG  1  11  -1
M  END
>  <UniqueID>  (43) 
42

>  <SMILES>  (43) 
Cc1cc(C)c(OCC(=O)[N-]c2cc(S(=O)(=O)N3CCCC3)ccc2O)c(C)c1

>  <Energy>  (43) 
65.86909562193034

>  <Genealogy>  (43) 
Cc1cc(C)c(OCC(=O)[N-]c2cc(S(=O)(=O)N3CCCC3)ccc2O)c(C)c1 (protonated)
Cc1cc(C)c(OCC(=O)[N-]c2cc(S(=O)(=O)N3CCCC3)ccc2O)c(C)c1 (3D coordinates assigned)
Cc1cc(C)c(OCC(=O)[N-]c2cc(S(=O)(=O)N3CCCC3)ccc2O)c(C)c1 (nonaromatic ring conformer: 65.86909562193034 kcal/mol)

>  <smiles>  (43) 
Cc1cc(C)c(OCC(=O)Nc2cc(S(=O)(=O)N3CCCC3)ccc2O)c(C)c1

>  <score_type>  (43) 
oracle

>  <origin>  (43) 
adgpu

>  <m_score__min__energy>  (43) 
-11.640000000000001

>  <m_primary>  (43) 
energy

$$$$
43:0
     RDKit          3D

 54 57  0  0  0  0  0  0  0  0999 V2000
   -0.2610   20.7090  -31.4320 N   0  0  0  0  0  0  0  0  0  0  0  0
   -0.4470   19.9550  -32.6300 C   0  0  0  0  0  0  0  0  0  0  0  0
    0.5520   19.5340  -33.2650 O   0  0  0  0  0  0  0  0  0  0  0  0
   -1.8130   19.6020  -33.0740 C   0  0  0  0  0  0  0  0  0  0  0  0
   -2.8130   20.5980  -33.0710 C   0  0  0  0  0  0  0  0  0  0  0  0
   -2.5220   21.9080  -32.5730 N   0  0  0  0  0  0  0  0  0  0  0  0
   -2.8940   22.4000  -30.9470 S   0  0  0  0  0  0  0  0  0  0  0  0
   -2.8960   21.1870  -30.0540 O   0  0  0  0  0  0  0  0  0  0  0  0
   -1.8320   23.3570  -30.4690 O   0  0  0  0  0  0  0  0  0  0  0  0
   -4.4880   23.1640  -30.8540 C   0  0  0  0  0  0  0  0  0  0  0  0
   -5.6470   22.4160  -31.1230 C   0  0  0  0  0  0  0  0  0  0  0  0
   -6.9120   23.0160  -31.0410 C   0  0  0  0  0  0  0  0  0  0  0  0
   -8.3640   22.0950  -31.4480 S   0  0  0  0  0  0  0  0  0  0  0  0
   -9.3710   23.0200  -32.0730 O   0  0  0  0  0  0  0  0  0  0  0  0
   -8.9680   21.5480  -30.1870 O   0  0  0  0  0  0  0  0  0  0  0  0
   -8.0340   20.7600  -32.5330 N   0  0  0  0  0  0  0  0  0  0  0  0
   -6.9810   19.8850  -32.0030 C   0  0  0  0  0  0  0  0  0  0  0  0
   -7.6260   18.6000  -31.4950 C   0  0  0  0  0  0  0  0  0  0  0  0
   -9.1110   18.7400  -31.7710 C   0  0  0  0  0  0  0  0  0  0  0  0
   -9.2220   19.9180  -32.7210 C   0  0  0  0  0  0  0  0  0  0  0  0
   -7.0160   24.3630  -30.6670 C   0  0  0  0  0  0  0  0  0  0  0  0
   -5.8700   25.1110  -30.4040 C   0  0  0  0  0  0  0  0  0  0  0  0
   -4.6070   24.5230  -30.5130 C   0  0  0  0  0  0  0  0  0  0  0  0
   -3.4770   25.2970  -30.2840 O   0  0  0  0  0  0  0  0  0  0  0  0
   -4.1120   20.2930  -33.4880 C   0  0  0  0  0  0  0  0  0  0  0  0
   -4.4500   18.9950  -33.8610 C   0  0  0  0  0  0  0  0  0  0  0  0
   -3.4880   17.9810  -33.8140 C   0  0  0  0  0  0  0  0  0  0  0  0
   -2.1630   18.2770  -33.4420 C   0  0  0  0  0  0  0  0  0  0  0  0
   -1.1770   17.1340  -33.4970 C   0  0  0  0  0  0  0  0  0  0  0  0
   -1.7560   15.9080  -32.7820 C   0  0  0  0  0  0  0  0  0  0  0  0
   -3.2100   15.5640  -33.2040 C   0  0  0  0  0  0  0  0  0  0  0  0
   -3.8380   16.5640  -34.1930 C   0  0  0  0  0  0  0  0  0  0  0  0
   -0.9730   21.3980  -31.1120 H   0  0  0  0  0  0  0  0  0  0  0  0
   -5.5615   21.3547  -31.3992 H   0  0  0  0  0  0  0  0  0  0  0  0
   -6.2603   19.6481  -32.7995 H   0  0  0  0  0  0  0  0  0  0  0  0
   -6.4512   20.3897  -31.1816 H   0  0  0  0  0  0  0  0  0  0  0  0
   -7.2181   17.7300  -32.0305 H   0  0  0  0  0  0  0  0  0  0  0  0
   -7.4281   18.4460  -30.4240 H   0  0  0  0  0  0  0  0  0  0  0  0
   -9.5054   17.8263  -32.2397 H   0  0  0  0  0  0  0  0  0  0  0  0
   -9.6908   18.8953  -30.8492 H   0  0  0  0  0  0  0  0  0  0  0  0
   -9.2651   19.5583  -33.7596 H   0  0  0  0  0  0  0  0  0  0  0  0
  -10.1368   20.4929  -32.5147 H   0  0  0  0  0  0  0  0  0  0  0  0
   -8.0073   24.8320  -30.5807 H   0  0  0  0  0  0  0  0  0  0  0  0
   -5.9598   26.1671  -30.1098 H   0  0  0  0  0  0  0  0  0  0  0  0
   -4.8739   21.0857  -33.5217 H   0  0  0  0  0  0  0  0  0  0  0  0
   -5.4737   18.7670  -34.1927 H   0  0  0  0  0  0  0  0  0  0  0  0
   -0.9718   16.8800  -34.5474 H   0  0  0  0  0  0  0  0  0  0  0  0
   -0.2448   17.4367  -32.9977 H   0  0  0  0  0  0  0  0  0  0  0  0
   -1.1160   15.0418  -33.0058 H   0  0  0  0  0  0  0  0  0  0  0  0
   -1.7823   16.1464  -31.7085 H   0  0  0  0  0  0  0  0  0  0  0  0
   -3.2056   14.5702  -33.6756 H   0  0  0  0  0  0  0  0  0  0  0  0
   -3.8199   15.6014  -32.2894 H   0  0  0  0  0  0  0  0  0  0  0  0
   -3.4594   16.3570  -35.2048 H   0  0  0  0  0  0  0  0  0  0  0  0
   -4.9317   16.4503  -34.1636 H   0  0  0  0  0  0  0  0  0  0  0  0
  1  2  1  0
  2  3  2  0
  2  4  1  0
  4  5  2  0
  5  6  1  0
  6  7  1  0
  7  8  2  0
  7  9  2  0
  7 10  1  0
 10 11  2  0
 11 12  1  0
 12 13  1  0
 13 14  2  0
 13 15  2  0
 13 16  1  0
 16 17  1  0
 17 18  1  0
 18 19  1  0
 19 20  1  0
 12 21  2  0
 21 22  1  0
 22 23  2  0
 23 24  1  0
  5 25  1  0
 25 26  2  0
 26 27  1  0
 27 28  2  0
 28 29  1  0
 29 30  1  0
 30 31  1  0
 31 32  1  0
 28  4  1  0
 23 10  1  0
 32 27  1  0
 20 16  1  0
  1 33  1  0
 11 34  1  0
 17 35  1  0
 17 36  1  0
 18 37  1  0
 18 38  1  0
 19 39  1  0
 19 40  1  0
 20 41  1  0
 20 42  1  0
 21 43  1  0
 22 44  1  0
 25 45  1  0
 26 46  1  0
 29 47  1  0
 29 48  1  0
 30 49  1  0
 30 50  1  0
 31 51  1  0
 31 52  1  0
 32 53  1  0
 32 54  1  0
M  CHG  3   1  -1   6  -1  24  -1
M  END
>  <UniqueID>  (44) 
43

>  <SMILES>  (44) 
[NH-]C(=O)c1c([N-]S(=O)(=O)c2cc(S(=O)(=O)N3CCCC3)ccc2[O-])ccc2c1CCCC2

>  <Energy>  (44) 
76.26403742879047

>  <Genealogy>  (44) 
[NH-]C(=O)c1c([N-]S(=O)(=O)c2cc(S(=O)(=O)N3CCCC3)ccc2[O-])ccc2c1CCCC2 (protonated)
[NH-]C(=O)c1c([N-]S(=O)(=O)c2cc(S(=O)(=O)N3CCCC3)ccc2[O-])ccc2c1CCCC2 (3D coordinates assigned)
[NH-]C(=O)c1c([N-]S(=O)(=O)c2cc(S(=O)(=O)N3CCCC3)ccc2[O-])ccc2c1CCCC2 (nonaromatic ring conformer: 76.26403742879047 kcal/mol)

>  <smiles>  (44) 
NC(=O)c1c(NS(=O)(=O)c2cc(S(=O)(=O)N3CCCC3)ccc2O)ccc2c1CCCC2

>  <score_type>  (44) 
oracle

>  <origin>  (44) 
adgpu

>  <m_score__min__energy>  (44) 
-15.18

>  <m_primary>  (44) 
energy

$$$$
44:0
     RDKit          3D

 69 73  0  0  0  0  0  0  0  0999 V2000
   -2.1670   20.3640  -29.8980 O   0  0  0  0  0  0  0  0  0  0  0  0
   -2.9350   20.9650  -30.6960 C   0  0  0  0  0  0  0  0  0  0  0  0
   -3.1460   22.3820  -30.5620 N   0  0  0  0  0  0  0  0  0  0  0  0
   -2.4980   23.1810  -29.5610 C   0  0  0  0  0  0  0  0  0  0  0  0
   -1.6230   22.5630  -28.6570 C   0  0  0  0  0  0  0  0  0  0  0  0
   -0.9530   23.3180  -27.6840 C   0  0  0  0  0  0  0  0  0  0  0  0
    0.1610   22.5320  -26.5610 S   0  0  0  0  0  0  0  0  0  0  0  0
   -0.5270   22.3340  -25.2400 O   0  0  0  0  0  0  0  0  0  0  0  0
    0.5340   21.1780  -27.0970 O   0  0  0  0  0  0  0  0  0  0  0  0
    1.6110   23.4810  -26.3120 N   0  0  0  0  0  0  0  0  0  0  0  0
    1.8940   24.3460  -27.4680 C   0  0  0  0  0  0  0  0  0  0  0  0
    1.6750   25.7970  -27.0590 C   0  0  0  0  0  0  0  0  0  0  0  0
    1.1200   25.7480  -25.6530 C   0  0  0  0  0  0  0  0  0  0  0  0
    1.4710   24.3610  -25.1480 C   0  0  0  0  0  0  0  0  0  0  0  0
   -1.1600   24.7020  -27.6200 C   0  0  0  0  0  0  0  0  0  0  0  0
   -2.0130   25.3280  -28.5300 C   0  0  0  0  0  0  0  0  0  0  0  0
   -2.6730   24.5780  -29.5080 C   0  0  0  0  0  0  0  0  0  0  0  0
   -3.4750   25.2330  -30.4360 O   0  0  0  0  0  0  0  0  0  0  0  0
   -3.5930   20.2060  -31.7880 C   0  0  0  0  0  0  0  0  0  0  0  0
   -4.9460   19.8460  -31.6570 C   0  0  0  0  0  0  0  0  0  0  0  0
   -5.6050   19.1490  -32.6790 C   0  0  0  0  0  0  0  0  0  0  0  0
   -7.3080   18.7250  -32.5220 S   0  0  0  0  0  0  0  0  0  0  0  0
   -7.6090   17.6030  -33.4770 O   0  0  0  0  0  0  0  0  0  0  0  0
   -7.5980   18.2540  -31.1220 O   0  0  0  0  0  0  0  0  0  0  0  0
   -8.3000   20.1140  -32.9130 N   0  0  0  0  0  0  0  0  0  0  0  0
   -7.5610   21.3590  -32.6820 C   0  0  0  0  0  0  0  0  0  0  0  0
   -7.8550   21.8250  -31.2660 C   0  0  0  0  0  0  0  0  0  0  0  0
   -9.1310   21.1080  -30.8630 C   0  0  0  0  0  0  0  0  0  0  0  0
   -9.4650   20.1780  -32.0230 C   0  0  0  0  0  0  0  0  0  0  0  0
   -4.9150   18.8200  -33.8480 C   0  0  0  0  0  0  0  0  0  0  0  0
   -3.5750   19.1760  -33.9960 C   0  0  0  0  0  0  0  0  0  0  0  0
   -2.9040   19.8670  -32.9780 C   0  0  0  0  0  0  0  0  0  0  0  0
   -1.5120   20.1710  -33.1560 N   0  0  0  0  0  0  0  0  0  0  0  0
   -1.1370   21.1760  -34.1590 C   0  0  0  0  0  0  0  0  0  0  0  0
    0.3600   21.1260  -34.4830 C   0  0  0  0  0  0  0  0  0  0  0  0
    1.1210   20.9680  -33.3050 O   0  0  0  0  0  0  0  0  0  0  0  0
    0.9030   19.6720  -32.7910 C   0  0  0  0  0  0  0  0  0  0  0  0
   -0.5320   19.5150  -32.2780 C   0  0  0  0  0  0  0  0  0  0  0  0
   -3.6840   22.8860  -31.3030 H   0  0  0  0  0  0  0  0  0  0  0  0
   -1.4606   21.4764  -28.7114 H   0  0  0  0  0  0  0  0  0  0  0  0
    2.9368   24.2054  -27.7888 H   0  0  0  0  0  0  0  0  0  0  0  0
    1.2250   24.0871  -28.3019 H   0  0  0  0  0  0  0  0  0  0  0  0
    2.6269   26.3480  -27.0763 H   0  0  0  0  0  0  0  0  0  0  0  0
    0.9899   26.3133  -27.7475 H   0  0  0  0  0  0  0  0  0  0  0  0
    1.5881   26.5197  -25.0242 H   0  0  0  0  0  0  0  0  0  0  0  0
    0.0370   25.9387  -25.6264 H   0  0  0  0  0  0  0  0  0  0  0  0
    2.4177   24.3951  -24.5889 H   0  0  0  0  0  0  0  0  0  0  0  0
    0.6842   23.9867  -24.4765 H   0  0  0  0  0  0  0  0  0  0  0  0
   -0.6483   25.2975  -26.8496 H   0  0  0  0  0  0  0  0  0  0  0  0
   -2.1667   26.4159  -28.4776 H   0  0  0  0  0  0  0  0  0  0  0  0
   -5.4937   20.1146  -30.7416 H   0  0  0  0  0  0  0  0  0  0  0  0
   -6.4821   21.1797  -32.7993 H   0  0  0  0  0  0  0  0  0  0  0  0
   -7.8690   22.1260  -33.4079 H   0  0  0  0  0  0  0  0  0  0  0  0
   -7.0302   21.5513  -30.5916 H   0  0  0  0  0  0  0  0  0  0  0  0
   -7.9643   22.9181  -31.2092 H   0  0  0  0  0  0  0  0  0  0  0  0
   -8.9711   20.5294  -29.9412 H   0  0  0  0  0  0  0  0  0  0  0  0
   -9.9485   21.8160  -30.6618 H   0  0  0  0  0  0  0  0  0  0  0  0
   -9.6956   19.1731  -31.6395 H   0  0  0  0  0  0  0  0  0  0  0  0
  -10.3404   20.5559  -32.5715 H   0  0  0  0  0  0  0  0  0  0  0  0
   -5.4305   18.2782  -34.6547 H   0  0  0  0  0  0  0  0  0  0  0  0
   -3.0398   18.9121  -34.9201 H   0  0  0  0  0  0  0  0  0  0  0  0
   -1.7072   20.9890  -35.0809 H   0  0  0  0  0  0  0  0  0  0  0  0
   -1.3647   22.1706  -33.7480 H   0  0  0  0  0  0  0  0  0  0  0  0
    0.5556   20.2778  -35.1556 H   0  0  0  0  0  0  0  0  0  0  0  0
    0.6487   22.0711  -34.9661 H   0  0  0  0  0  0  0  0  0  0  0  0
    1.0821   18.9350  -33.5877 H   0  0  0  0  0  0  0  0  0  0  0  0
    1.5937   19.5093  -31.9505 H   0  0  0  0  0  0  0  0  0  0  0  0
   -0.7715   18.4430  -32.2189 H   0  0  0  0  0  0  0  0  0  0  0  0
   -0.5910   19.9942  -31.2896 H   0  0  0  0  0  0  0  0  0  0  0  0
  1  2  2  0
  2  3  1  0
  3  4  1  0
  4  5  2  0
  5  6  1  0
  6  7  1  0
  7  8  2  0
  7  9  2  0
  7 10  1  0
 10 11  1  0
 11 12  1  0
 12 13  1  0
 13 14  1  0
  6 15  2  0
 15 16  1  0
 16 17  2  0
 17 18  1  0
  2 19  1  0
 19 20  2  0
 20 21  1  0
 21 22  1  0
 22 23  2  0
 22 24  2  0
 22 25  1  0
 25 26  1  0
 26 27  1  0
 27 28  1  0
 28 29  1  0
 21 30  2  0
 30 31  1  0
 31 32  2  0
 32 33  1  0
 33 34  1  0
 34 35  1  0
 35 36  1  0
 36 37  1  0
 37 38  1  0
 17  4  1  0
 32 19  1  0
 38 33  1  0
 14 10  1  0
 29 25  1  0
  3 39  1  0
  5 40  1  0
 11 41  1  0
 11 42  1  0
 12 43  1  0
 12 44  1  0
 13 45  1  0
 13 46  1  0
 14 47  1  0
 14 48  1  0
 15 49  1  0
 16 50  1  0
 20 51  1  0
 26 52  1  0
 26 53  1  0
 27 54  1  0
 27 55  1  0
 28 56  1  0
 28 57  1  0
 29 58  1  0
 29 59  1  0
 30 60  1  0
 31 61  1  0
 34 62  1  0
 34 63  1  0
 35 64  1  0
 35 65  1  0
 37 66  1  0
 37 67  1  0
 38 68  1  0
 38 69  1  0
M  CHG  1  18  -1
M  END
>  <UniqueID>  (45) 
44

>  <SMILES>  (45) 
O=C(Nc1cc(S(=O)(=O)N2CCCC2)ccc1[O-])c1cc(S(=O)(=O)N2CCCC2)ccc1N1CCOCC1

>  <Energy>  (45) 
90.34121132919624

>  <Genealogy>  (45) 
O=C(Nc1cc(S(=O)(=O)N2CCCC2)ccc1[O-])c1cc(S(=O)(=O)N2CCCC2)ccc1N1CCOCC1 (protonated)
O=C(Nc1cc(S(=O)(=O)N2CCCC2)ccc1[O-])c1cc(S(=O)(=O)N2CCCC2)ccc1N1CCOCC1 (3D coordinates assigned)
O=C(Nc1cc(S(=O)(=O)N2CCCC2)ccc1[O-])c1cc(S(=O)(=O)N2CCCC2)ccc1N1CCOCC1 (nonaromatic ring conformer: 90.34121132919624 kcal/mol)

>  <smiles>  (45) 
O=C(Nc1cc(S(=O)(=O)N2CCCC2)ccc1O)c1cc(S(=O)(=O)N2CCCC2)ccc1N1CCOCC1

>  <score_type>  (45) 
oracle

>  <origin>  (45) 
adgpu

>  <m_score__min__energy>  (45) 
-13.81

>  <m_primary>  (45) 
energy

$$$$
45:0
     RDKit          3D

 51 54  0  0  0  0  0  0  0  0999 V2000
    0.8650   19.3490  -27.5020 C   0  0  0  0  0  0  0  0  0  0  0  0
   -0.2180   20.1990  -28.0200 N   0  0  0  0  0  0  0  0  0  0  0  0
   -0.6580   19.7090  -29.3390 C   0  0  0  0  0  0  0  0  0  0  0  0
   -1.9290   20.4470  -29.7630 C   0  0  0  0  0  0  0  0  0  0  0  0
   -1.7980   21.9370  -29.5880 C   0  0  0  0  0  0  0  0  0  0  0  0
   -2.7370   22.7840  -30.1890 C   0  0  0  0  0  0  0  0  0  0  0  0
   -2.7030   24.1670  -29.9580 C   0  0  0  0  0  0  0  0  0  0  0  0
   -3.6870   25.0290  -30.5370 N   0  0  0  0  0  0  0  0  0  0  0  0
   -5.3630   24.5970  -30.6370 S   0  0  0  0  0  0  0  0  0  0  0  0
   -5.9270   24.4690  -29.2500 O   0  0  0  0  0  0  0  0  0  0  0  0
   -6.1050   25.6920  -31.3510 O   0  0  0  0  0  0  0  0  0  0  0  0
   -5.5860   23.0830  -31.5110 C   0  0  0  0  0  0  0  0  0  0  0  0
   -4.6130   22.6390  -32.4150 C   0  0  0  0  0  0  0  0  0  0  0  0
   -4.7630   21.4110  -33.0640 C   0  0  0  0  0  0  0  0  0  0  0  0
   -5.8720   20.5970  -32.7920 C   0  0  0  0  0  0  0  0  0  0  0  0
   -6.8540   21.0410  -31.8830 C   0  0  0  0  0  0  0  0  0  0  0  0
   -6.7120   22.2900  -31.2570 C   0  0  0  0  0  0  0  0  0  0  0  0
   -7.9950   20.1570  -31.5810 C   0  0  0  0  0  0  0  0  0  0  0  0
   -8.9810   20.5700  -30.9140 O   0  0  0  0  0  0  0  0  0  0  0  0
   -7.9810   18.8120  -32.0650 N   0  0  0  0  0  0  0  0  0  0  0  0
   -6.7810   18.2270  -32.6680 C   0  0  0  0  0  0  0  0  0  0  0  0
   -7.2060   17.0420  -33.5480 C   0  0  0  0  0  0  0  0  0  0  0  0
   -5.8490   17.7220  -31.5510 C   0  0  0  0  0  0  0  0  0  0  0  0
   -6.0580   19.2920  -33.5340 C   0  0  0  0  0  0  0  0  0  0  0  0
   -1.6820   24.7100  -29.1690 C   0  0  0  0  0  0  0  0  0  0  0  0
   -1.6100   26.0840  -28.9660 O   0  0  0  0  0  0  0  0  0  0  0  0
   -0.7360   23.8730  -28.5700 C   0  0  0  0  0  0  0  0  0  0  0  0
   -0.8050   22.4820  -28.7460 C   0  0  0  0  0  0  0  0  0  0  0  0
    0.2480   21.5970  -28.1270 C   0  0  0  0  0  0  0  0  0  0  0  0
    0.8477   19.3626  -26.4022 H   0  0  0  0  0  0  0  0  0  0  0  0
    0.7241   18.3179  -27.8582 H   0  0  0  0  0  0  0  0  0  0  0  0
    1.8331   19.7309  -27.8582 H   0  0  0  0  0  0  0  0  0  0  0  0
    0.1347   19.8900  -30.0798 H   0  0  0  0  0  0  0  0  0  0  0  0
   -0.8653   18.6305  -29.2774 H   0  0  0  0  0  0  0  0  0  0  0  0
   -2.1298   20.2296  -30.8225 H   0  0  0  0  0  0  0  0  0  0  0  0
   -2.7541   20.0999  -29.1237 H   0  0  0  0  0  0  0  0  0  0  0  0
   -3.5088   22.3607  -30.8487 H   0  0  0  0  0  0  0  0  0  0  0  0
   -3.7271   23.2596  -32.6149 H   0  0  0  0  0  0  0  0  0  0  0  0
   -4.0074   21.0809  -33.7921 H   0  0  0  0  0  0  0  0  0  0  0  0
   -7.4884   22.6469  -30.5643 H   0  0  0  0  0  0  0  0  0  0  0  0
   -7.5080   16.1998  -32.9081 H   0  0  0  0  0  0  0  0  0  0  0  0
   -8.0526   17.3420  -34.1831 H   0  0  0  0  0  0  0  0  0  0  0  0
   -6.3617   16.7356  -34.1831 H   0  0  0  0  0  0  0  0  0  0  0  0
   -6.2885   17.9601  -30.5711 H   0  0  0  0  0  0  0  0  0  0  0  0
   -5.7243   16.6329  -31.6420 H   0  0  0  0  0  0  0  0  0  0  0  0
   -4.8685   18.2122  -31.6420 H   0  0  0  0  0  0  0  0  0  0  0  0
   -5.0700   18.9038  -33.8222 H   0  0  0  0  0  0  0  0  0  0  0  0
   -6.6818   19.4905  -34.4180 H   0  0  0  0  0  0  0  0  0  0  0  0
    0.0675   24.3071  -27.9569 H   0  0  0  0  0  0  0  0  0  0  0  0
    1.1526   21.6259  -28.7522 H   0  0  0  0  0  0  0  0  0  0  0  0
    0.4616   21.9693  -27.1142 H   0  0  0  0  0  0  0  0  0  0  0  0
  1  2  1  0
  2  3  1  0
  3  4  1  0
  4  5  1  0
  5  6  2  0
  6  7  1  0
  7  8  1  0
  8  9  1  0
  9 10  2  0
  9 11  2  0
  9 12  1  0
 12 13  2  0
 13 14  1  0
 14 15  2  0
 15 16  1  0
 16 17  2  0
 16 18  1  0
 18 19  2  0
 18 20  1  0
 20 21  1  0
 21 22  1  0
 21 23  1  0
 21 24  1  0
  7 25  2  0
 25 26  1  0
 25 27  1  0
 27 28  2  0
 28 29  1  0
 29  2  1  0
 28  5  1  0
 17 12  1  0
 24 15  1  0
  1 30  1  0
  1 31  1  0
  1 32  1  0
  3 33  1  0
  3 34  1  0
  4 35  1  0
  4 36  1  0
  6 37  1  0
 13 38  1  0
 14 39  1  0
 17 40  1  0
 22 41  1  0
 22 42  1  0
 22 43  1  0
 23 44  1  0
 23 45  1  0
 23 46  1  0
 24 47  1  0
 24 48  1  0
 27 49  1  0
 29 50  1  0
 29 51  1  0
M  CHG  3   8  -1  20  -1  26  -1
M  END
>  <UniqueID>  (46) 
45

>  <SMILES>  (46) 
CN1CCc2cc([N-]S(=O)(=O)c3ccc4c(c3)C(=O)[N-]C(C)(C)C4)c([O-])cc2C1

>  <Energy>  (46) 
61.07643930479148

>  <Genealogy>  (46) 
CN1CCc2cc([N-]S(=O)(=O)c3ccc4c(c3)C(=O)[N-]C(C)(C)C4)c([O-])cc2C1 (protonated)
CN1CCc2cc([N-]S(=O)(=O)c3ccc4c(c3)C(=O)[N-]C(C)(C)C4)c([O-])cc2C1 (3D coordinates assigned)
CN1CCc2cc([N-]S(=O)(=O)c3ccc4c(c3)C(=O)[N-]C(C)(C)C4)c([O-])cc2C1 (nonaromatic ring conformer: 61.07643930479148 kcal/mol)

>  <smiles>  (46) 
CN1CCc2cc(NS(=O)(=O)c3ccc4c(c3)C(=O)NC(C)(C)C4)c(O)cc2C1

>  <score_type>  (46) 
oracle

>  <origin>  (46) 
adgpu

>  <m_score__min__energy>  (46) 
-14.109999999999999

>  <m_primary>  (46) 
energy

$$$$
46:0
     RDKit          3D

 55 59  0  0  0  0  0  0  0  0999 V2000
   -5.0880   24.6540  -31.4720 O   0  0  0  0  0  0  0  0  0  0  0  0
   -5.2110   23.4110  -30.6340 S   0  0  0  0  0  0  0  0  0  0  0  0
   -6.5480   23.4410  -29.9480 O   0  0  0  0  0  0  0  0  0  0  0  0
   -5.0910   21.9870  -31.6610 C   0  0  0  0  0  0  0  0  0  0  0  0
   -3.9590   21.7840  -32.4590 C   0  0  0  0  0  0  0  0  0  0  0  0
   -3.8780   20.6660  -33.2900 C   0  0  0  0  0  0  0  0  0  0  0  0
   -4.9330   19.7410  -33.3480 C   0  0  0  0  0  0  0  0  0  0  0  0
   -6.0710   19.9340  -32.5300 C   0  0  0  0  0  0  0  0  0  0  0  0
   -6.1460   21.0690  -31.7080 C   0  0  0  0  0  0  0  0  0  0  0  0
   -7.2610   19.0060  -32.6020 C   0  0  0  0  0  0  0  0  0  0  0  0
   -6.9100   17.6410  -33.2000 C   0  0  0  0  0  0  0  0  0  0  0  0
   -6.1120   17.8140  -34.4910 C   0  0  0  0  0  0  0  0  0  0  0  0
   -4.7760   18.5070  -34.2060 C   0  0  0  0  0  0  0  0  0  0  0  0
   -3.9210   23.3670  -29.4390 C   0  0  0  0  0  0  0  0  0  0  0  0
   -3.5030   24.5440  -28.8050 C   0  0  0  0  0  0  0  0  0  0  0  0
   -2.4910   24.5080  -27.8450 C   0  0  0  0  0  0  0  0  0  0  0  0
   -1.8860   23.2870  -27.4940 C   0  0  0  0  0  0  0  0  0  0  0  0
   -0.8590   23.2090  -26.5270 C   0  0  0  0  0  0  0  0  0  0  0  0
   -0.3880   24.3740  -25.8410 N   0  0  0  0  0  0  0  0  0  0  0  0
   -1.3340   25.2250  -25.1120 C   0  0  0  0  0  0  0  0  0  0  0  0
   -0.7400   25.7090  -23.7700 C   0  0  0  0  0  0  0  0  0  0  0  0
    0.7390   25.7030  -23.7280 N   0  0  0  0  0  0  0  0  0  0  0  0
    1.3450   25.9310  -25.0460 C   0  0  0  0  0  0  0  0  0  0  0  0
    1.0170   24.7620  -25.9790 C   0  0  0  0  0  0  0  0  0  0  0  0
   -0.3020   22.0030  -26.2310 N   0  0  0  0  0  0  0  0  0  0  0  0
   -0.7000   20.8530  -26.8340 C   0  0  0  0  0  0  0  0  0  0  0  0
   -1.7130   20.8770  -27.7920 C   0  0  0  0  0  0  0  0  0  0  0  0
   -2.3130   22.0970  -28.1310 C   0  0  0  0  0  0  0  0  0  0  0  0
   -3.3300   22.1450  -29.0960 C   0  0  0  0  0  0  0  0  0  0  0  0
   -3.1311   22.5077  -32.4309 H   0  0  0  0  0  0  0  0  0  0  0  0
   -2.9799   20.5078  -33.9051 H   0  0  0  0  0  0  0  0  0  0  0  0
   -7.0431   21.2387  -31.0945 H   0  0  0  0  0  0  0  0  0  0  0  0
   -7.6515   18.8548  -31.5848 H   0  0  0  0  0  0  0  0  0  0  0  0
   -8.0086   19.4744  -33.2590 H   0  0  0  0  0  0  0  0  0  0  0  0
   -6.3086   17.0719  -32.4758 H   0  0  0  0  0  0  0  0  0  0  0  0
   -7.8411   17.1006  -33.4260 H   0  0  0  0  0  0  0  0  0  0  0  0
   -5.9200   16.8253  -34.9333 H   0  0  0  0  0  0  0  0  0  0  0  0
   -6.6935   18.4346  -35.1886 H   0  0  0  0  0  0  0  0  0  0  0  0
   -4.1152   17.7979  -33.6858 H   0  0  0  0  0  0  0  0  0  0  0  0
   -4.3524   18.8235  -35.1706 H   0  0  0  0  0  0  0  0  0  0  0  0
   -3.9754   25.5026  -29.0655 H   0  0  0  0  0  0  0  0  0  0  0  0
   -2.1642   25.4395  -27.3598 H   0  0  0  0  0  0  0  0  0  0  0  0
   -1.5784   26.1005  -25.7315 H   0  0  0  0  0  0  0  0  0  0  0  0
   -2.2365   24.6338  -24.8975 H   0  0  0  0  0  0  0  0  0  0  0  0
   -1.0867   26.7372  -23.5893 H   0  0  0  0  0  0  0  0  0  0  0  0
   -1.0826   25.0039  -22.9983 H   0  0  0  0  0  0  0  0  0  0  0  0
    1.0740   24.7860  -23.3480 H   0  0  0  0  0  0  0  0  0  0  0  0
    1.0630   26.4540  -23.0750 H   0  0  0  0  0  0  0  0  0  0  0  0
    0.9468   26.8626  -25.4744 H   0  0  0  0  0  0  0  0  0  0  0  0
    2.4364   26.0103  -24.9342 H   0  0  0  0  0  0  0  0  0  0  0  0
    1.2085   25.0644  -27.0191 H   0  0  0  0  0  0  0  0  0  0  0  0
    1.6509   23.9040  -25.7105 H   0  0  0  0  0  0  0  0  0  0  0  0
   -0.2217   19.8995  -26.5658 H   0  0  0  0  0  0  0  0  0  0  0  0
   -2.0386   19.9453  -28.2778 H   0  0  0  0  0  0  0  0  0  0  0  0
   -3.6646   21.2184  -29.5854 H   0  0  0  0  0  0  0  0  0  0  0  0
  1  2  2  0
  2  3  2  0
  2  4  1  0
  4  5  2  0
  5  6  1  0
  6  7  2  0
  7  8  1  0
  8  9  2  0
  8 10  1  0
 10 11  1  0
 11 12  1  0
 12 13  1  0
  2 14  1  0
 14 15  2  0
 15 16  1  0
 16 17  2  0
 17 18  1  0
 18 19  1  0
 19 20  1  0
 20 21  1  0
 21 22  1  0
 22 23  1  0
 23 24  1  0
 18 25  2  0
 25 26  1  0
 26 27  2  0
 27 28  1  0
 28 29  2  0
  9  4  1  0
 29 14  1  0
 13  7  1  0
 28 17  1  0
 24 19  1  0
  5 30  1  0
  6 31  1  0
  9 32  1  0
 10 33  1  0
 10 34  1  0
 11 35  1  0
 11 36  1  0
 12 37  1  0
 12 38  1  0
 13 39  1  0
 13 40  1  0
 15 41  1  0
 16 42  1  0
 20 43  1  0
 20 44  1  0
 21 45  1  0
 21 46  1  0
 22 47  1  0
 22 48  1  0
 23 49  1  0
 23 50  1  0
 24 51  1  0
 24 52  1  0
 26 53  1  0
 27 54  1  0
 29 55  1  0
M  CHG  1  22   1
M  END
>  <UniqueID>  (47) 
46

>  <SMILES>  (47) 
O=S(=O)(c1ccc2c(c1)CCCC2)c1ccc2c(N3CC[NH2+]CC3)nccc2c1

>  <Energy>  (47) 
74.42381266592481

>  <Genealogy>  (47) 
O=S(=O)(c1ccc2c(c1)CCCC2)c1ccc2c(N3CC[NH2+]CC3)nccc2c1 (protonated)
O=S(=O)(c1ccc2c(c1)CCCC2)c1ccc2c(N3CC[NH2+]CC3)nccc2c1 (3D coordinates assigned)
O=S(=O)(c1ccc2c(c1)CCCC2)c1ccc2c(N3CC[NH2+]CC3)nccc2c1 (nonaromatic ring conformer: 74.42381266592481 kcal/mol)

>  <smiles>  (47) 
O=S(=O)(c1ccc2c(c1)CCCC2)c1ccc2c(N3CCNCC3)nccc2c1

>  <score_type>  (47) 
oracle

>  <origin>  (47) 
adgpu

>  <m_score__min__energy>  (47) 
-10.949999999999999

>  <m_primary>  (47) 
energy

$$$$
47:0
     RDKit          3D

 49 53  0  0  0  0  0  0  0  0999 V2000
   -1.5700   25.6500  -28.8480 O   0  0  0  0  0  0  0  0  0  0  0  0
   -1.8070   24.5140  -29.3410 C   0  0  0  0  0  0  0  0  0  0  0  0
   -0.8390   23.4630  -29.2390 N   0  0  0  0  0  0  0  0  0  0  0  0
   -0.9390   22.2770  -28.4380 C   0  0  0  0  0  0  0  0  0  0  0  0
   -1.9320   22.1210  -27.4560 C   0  0  0  0  0  0  0  0  0  0  0  0
   -2.0080   20.9370  -26.7170 C   0  0  0  0  0  0  0  0  0  0  0  0
   -1.1060   19.8990  -26.9560 C   0  0  0  0  0  0  0  0  0  0  0  0
   -0.1200   20.0320  -27.9460 C   0  0  0  0  0  0  0  0  0  0  0  0
    0.7930   18.9490  -28.2080 N   0  0  0  0  0  0  0  0  0  0  0  0
    2.0440   19.1930  -28.9410 C   0  0  0  0  0  0  0  0  0  0  0  0
    3.1890   18.2940  -28.4180 C   0  0  0  0  0  0  0  0  0  0  0  0
    2.7660   17.3190  -27.4790 O   0  0  0  0  0  0  0  0  0  0  0  0
    1.6240   16.6460  -27.9610 C   0  0  0  0  0  0  0  0  0  0  0  0
    0.4120   17.5720  -27.8690 C   0  0  0  0  0  0  0  0  0  0  0  0
   -0.0530   21.2210  -28.6920 C   0  0  0  0  0  0  0  0  0  0  0  0
   -3.0660   24.2990  -30.0720 C   0  0  0  0  0  0  0  0  0  0  0  0
   -3.8610   25.3120  -30.4950 N   0  0  0  0  0  0  0  0  0  0  0  0
   -4.9200   24.8050  -31.1190 N   0  0  0  0  0  0  0  0  0  0  0  0
   -4.7990   23.4670  -31.0910 C   0  0  0  0  0  0  0  0  0  0  0  0
   -5.6790   22.5290  -31.6210 C   0  0  0  0  0  0  0  0  0  0  0  0
   -5.3620   21.1570  -31.4760 C   0  0  0  0  0  0  0  0  0  0  0  0
   -6.2690   20.1160  -32.0220 C   0  0  0  0  0  0  0  0  0  0  0  0
   -5.7720   19.0940  -32.8490 C   0  0  0  0  0  0  0  0  0  0  0  0
   -6.6430   18.1240  -33.3520 C   0  0  0  0  0  0  0  0  0  0  0  0
   -7.9650   18.1690  -33.0430 N   0  0  0  0  0  0  0  0  0  0  0  0
   -8.4780   19.1440  -32.2480 C   0  0  0  0  0  0  0  0  0  0  0  0
   -7.6420   20.1330  -31.7230 C   0  0  0  0  0  0  0  0  0  0  0  0
   -4.1670   20.7880  -30.8000 C   0  0  0  0  0  0  0  0  0  0  0  0
   -3.3000   21.7640  -30.2770 C   0  0  0  0  0  0  0  0  0  0  0  0
   -3.6530   23.1030  -30.4440 C   0  0  0  0  0  0  0  0  0  0  0  0
   -2.6509   22.9322  -27.2685 H   0  0  0  0  0  0  0  0  0  0  0  0
   -2.7820   20.8228  -25.9438 H   0  0  0  0  0  0  0  0  0  0  0  0
   -1.1682   18.9727  -26.3659 H   0  0  0  0  0  0  0  0  0  0  0  0
    1.8810   18.9805  -30.0079 H   0  0  0  0  0  0  0  0  0  0  0  0
    2.3332   20.2438  -28.7921 H   0  0  0  0  0  0  0  0  0  0  0  0
    3.6429   17.7759  -29.2757 H   0  0  0  0  0  0  0  0  0  0  0  0
    3.9019   18.9516  -27.8989 H   0  0  0  0  0  0  0  0  0  0  0  0
    1.7848   16.3552  -29.0096 H   0  0  0  0  0  0  0  0  0  0  0  0
    1.4451   15.7457  -27.3548 H   0  0  0  0  0  0  0  0  0  0  0  0
   -0.3619   17.2269  -28.5705 H   0  0  0  0  0  0  0  0  0  0  0  0
    0.0250   17.5520  -26.8395 H   0  0  0  0  0  0  0  0  0  0  0  0
    0.7032   21.3241  -29.4841 H   0  0  0  0  0  0  0  0  0  0  0  0
   -6.5966   22.8449  -32.1389 H   0  0  0  0  0  0  0  0  0  0  0  0
   -4.7015   19.0579  -33.0993 H   0  0  0  0  0  0  0  0  0  0  0  0
   -6.2574   17.3226  -33.9993 H   0  0  0  0  0  0  0  0  0  0  0  0
   -9.5535   19.1549  -32.0172 H   0  0  0  0  0  0  0  0  0  0  0  0
   -8.0570   20.9217  -31.0782 H   0  0  0  0  0  0  0  0  0  0  0  0
   -3.9168   19.7231  -30.6843 H   0  0  0  0  0  0  0  0  0  0  0  0
   -2.3747   21.4809  -29.7539 H   0  0  0  0  0  0  0  0  0  0  0  0
  1  2  2  0
  2  3  1  0
  3  4  1  0
  4  5  2  0
  5  6  1  0
  6  7  2  0
  7  8  1  0
  8  9  1  0
  9 10  1  0
 10 11  1  0
 11 12  1  0
 12 13  1  0
 13 14  1  0
  8 15  2  0
  2 16  1  0
 16 17  1  0
 17 18  1  0
 18 19  2  0
 19 20  1  0
 20 21  2  0
 21 22  1  0
 22 23  2  0
 23 24  1  0
 24 25  2  0
 25 26  1  0
 26 27  2  0
 21 28  1  0
 28 29  2  0
 29 30  1  0
 15  4  1  0
 30 16  2  0
 14  9  1  0
 30 19  1  0
 27 22  1  0
  5 31  1  0
  6 32  1  0
  7 33  1  0
 10 34  1  0
 10 35  1  0
 11 36  1  0
 11 37  1  0
 13 38  1  0
 13 39  1  0
 14 40  1  0
 14 41  1  0
 15 42  1  0
 20 43  1  0
 23 44  1  0
 24 45  1  0
 26 46  1  0
 27 47  1  0
 28 48  1  0
 29 49  1  0
M  CHG  2   3  -1  17  -1
M  END
>  <UniqueID>  (48) 
47

>  <SMILES>  (48) 
O=C([N-]c1cccc(N2CCOCC2)c1)c1[n-]nc2cc(-c3ccncc3)ccc12

>  <Energy>  (48) 
113.37846206756917

>  <Genealogy>  (48) 
O=C([N-]c1cccc(N2CCOCC2)c1)c1[n-]nc2cc(-c3ccncc3)ccc12 (protonated)
O=C([N-]c1cccc(N2CCOCC2)c1)c1[n-]nc2cc(-c3ccncc3)ccc12 (3D coordinates assigned)
O=C([N-]c1cccc(N2CCOCC2)c1)c1[n-]nc2cc(-c3ccncc3)ccc12 (nonaromatic ring conformer: 113.37846206756917 kcal/mol)

>  <smiles>  (48) 
O=C(Nc1cccc(N2CCOCC2)c1)c1[nH]nc2cc(-c3ccncc3)ccc12

>  <score_type>  (48) 
oracle

>  <origin>  (48) 
adgpu

>  <m_score__min__energy>  (48) 
-11.890000000000001

>  <m_primary>  (48) 
energy

$$$$
