0:0
     RDKit          3D

 44 47  0  0  0  0  0  0  0  0999 V2000
    1.7420   19.1750  -34.1830 C   0  0  0  0  0  0  0  0  0  0  0  0
    0.6140   20.3170  -33.4150 S   0  0  0  0  0  0  0  0  0  0  0  0
    0.7360   21.6650  -34.0680 O   0  0  0  0  0  0  0  0  0  0  0  0
    0.9790   20.4420  -31.9630 O   0  0  0  0  0  0  0  0  0  0  0  0
   -1.0410   19.7380  -33.5790 C   0  0  0  0  0  0  0  0  0  0  0  0
   -2.0940   20.6580  -33.6960 C   0  0  0  0  0  0  0  0  0  0  0  0
   -3.4110   20.2070  -33.8260 C   0  0  0  0  0  0  0  0  0  0  0  0
   -3.6910   18.8340  -33.8240 C   0  0  0  0  0  0  0  0  0  0  0  0
   -5.3440   18.2730  -34.0540 S   0  0  0  0  0  0  0  0  0  0  0  0
   -5.4390   16.8360  -33.6210 O   0  0  0  0  0  0  0  0  0  0  0  0
   -5.7340   18.3660  -35.5030 O   0  0  0  0  0  0  0  0  0  0  0  0
   -6.4180   19.2800  -33.0910 C   0  0  0  0  0  0  0  0  0  0  0  0
   -7.5770   18.7340  -32.4860 C   0  0  0  0  0  0  0  0  0  0  0  0
   -8.4040   19.5350  -31.6740 C   0  0  0  0  0  0  0  0  0  0  0  0
   -8.0440   20.8680  -31.4910 C   0  0  0  0  0  0  0  0  0  0  0  0
   -8.6590   21.7830  -30.7210 N   0  0  0  0  0  0  0  0  0  0  0  0
   -7.9200   22.9120  -30.8170 C   0  0  0  0  0  0  0  0  0  0  0  0
   -6.8340   22.7120  -31.6640 C   0  0  0  0  0  0  0  0  0  0  0  0
   -5.7290   23.6830  -31.9550 C   0  0  0  0  0  0  0  0  0  0  0  0
   -4.5330   23.3810  -31.1040 C   0  0  0  0  0  0  0  0  0  0  0  0
   -3.9580   21.8330  -30.7560 S   0  0  0  0  0  0  0  0  0  0  0  0
   -2.6600   22.4250  -29.8680 C   0  0  0  0  0  0  0  0  0  0  0  0
   -1.7980   21.7020  -29.3060 O   0  0  0  0  0  0  0  0  0  0  0  0
   -2.6360   23.7740  -29.8170 N   0  0  0  0  0  0  0  0  0  0  0  0
   -3.6800   24.3070  -30.5050 C   0  0  0  0  0  0  0  0  0  0  0  0
   -3.8710   25.6800  -30.5880 O   0  0  0  0  0  0  0  0  0  0  0  0
   -6.9280   21.3980  -32.0820 C   0  0  0  0  0  0  0  0  0  0  0  0
   -6.0950   20.6360  -32.8960 C   0  0  0  0  0  0  0  0  0  0  0  0
   -2.6390   17.9140  -33.7060 C   0  0  0  0  0  0  0  0  0  0  0  0
   -1.3210   18.3640  -33.5820 C   0  0  0  0  0  0  0  0  0  0  0  0
    2.2890   18.6212  -33.4057 H   0  0  0  0  0  0  0  0  0  0  0  0
    1.1782   18.4677  -34.8090 H   0  0  0  0  0  0  0  0  0  0  0  0
    2.4562   19.7301  -34.8090 H   0  0  0  0  0  0  0  0  0  0  0  0
   -1.8827   21.7375  -33.6854 H   0  0  0  0  0  0  0  0  0  0  0  0
   -4.2308   20.9330  -33.9303 H   0  0  0  0  0  0  0  0  0  0  0  0
   -7.8330   17.6771  -32.6515 H   0  0  0  0  0  0  0  0  0  0  0  0
   -9.3057   19.1207  -31.1994 H   0  0  0  0  0  0  0  0  0  0  0  0
   -9.5180   21.6440  -30.1420 H   0  0  0  0  0  0  0  0  0  0  0  0
   -8.1457   23.8555  -30.2985 H   0  0  0  0  0  0  0  0  0  0  0  0
   -5.4483   23.6059  -33.0158 H   0  0  0  0  0  0  0  0  0  0  0  0
   -6.0795   24.7013  -31.7308 H   0  0  0  0  0  0  0  0  0  0  0  0
   -5.2094   21.0808  -33.3734 H   0  0  0  0  0  0  0  0  0  0  0  0
   -2.8515   16.8347  -33.7110 H   0  0  0  0  0  0  0  0  0  0  0  0
   -0.5007   17.6374  -33.4864 H   0  0  0  0  0  0  0  0  0  0  0  0
  1  2  1  0
  2  3  2  0
  2  4  2  0
  2  5  1  0
  5  6  2  0
  6  7  1  0
  7  8  2  0
  8  9  1  0
  9 10  2  0
  9 11  2  0
  9 12  1  0
 12 13  2  0
 13 14  1  0
 14 15  2  0
 15 16  1  0
 16 17  1  0
 17 18  2  0
 18 19  1  0
 19 20  1  0
 20 21  1  0
 21 22  1  0
 22 23  2  0
 22 24  1  0
 24 25  1  0
 25 26  1  0
 18 27  1  0
 27 28  2  0
  8 29  1  0
 29 30  2  0
 30  5  1  0
 28 12  1  0
 27 15  1  0
 25 20  2  0
  1 31  1  0
  1 32  1  0
  1 33  1  0
  6 34  1  0
  7 35  1  0
 13 36  1  0
 14 37  1  0
 16 38  1  0
 17 39  1  0
 19 40  1  0
 19 41  1  0
 28 42  1  0
 29 43  1  0
 30 44  1  0
M  CHG  2  24  -1  26  -1
M  END
>  <UniqueID>  (1) 
1

>  <SMILES>  (1) 
CS(=O)(=O)c1ccc(S(=O)(=O)c2ccc3[nH]cc(Cc4sc(=O)[n-]c4[O-])c3c2)cc1

>  <Energy>  (1) 
106.76759800927567

>  <Genealogy>  (1) 
CS(=O)(=O)c1ccc(S(=O)(=O)c2ccc3[nH]cc(Cc4sc(=O)[n-]c4[O-])c3c2)cc1 (protonated)
CS(=O)(=O)c1ccc(S(=O)(=O)c2ccc3[nH]cc(Cc4sc(=O)[n-]c4[O-])c3c2)cc1 (3D coordinates assigned)
CS(=O)(=O)c1ccc(S(=O)(=O)c2ccc3[nH]cc(Cc4sc(=O)[n-]c4[O-])c3c2)cc1 (optimized conformer: 106.76759800927567 kcal/mol)

>  <smiles>  (1) 
CS(=O)(=O)c1ccc(S(=O)(=O)c2ccc3[nH]cc(Cc4sc(=O)[nH]c4O)c3c2)cc1

>  <score_type>  (1) 
oracle

>  <origin>  (1) 
adgpu

>  <m_score__min__energy>  (1) 
-14.529999999999999

>  <m_primary>  (1) 
energy

$$$$
1:0
     RDKit          3D

 65 69  0  0  0  0  0  0  0  0999 V2000
   -3.9190   16.5390  -35.4440 C   0  0  0  0  0  0  0  0  0  0  0  0
   -4.7720   17.6470  -35.1840 O   0  0  0  0  0  0  0  0  0  0  0  0
   -5.4660   17.8520  -33.9810 C   0  0  0  0  0  0  0  0  0  0  0  0
   -6.8720   17.7980  -33.9120 C   0  0  0  0  0  0  0  0  0  0  0  0
   -7.5270   17.9920  -32.6920 C   0  0  0  0  0  0  0  0  0  0  0  0
   -6.7910   18.2340  -31.5310 C   0  0  0  0  0  0  0  0  0  0  0  0
   -5.3980   18.2880  -31.5880 C   0  0  0  0  0  0  0  0  0  0  0  0
   -4.7300   18.1150  -32.8090 C   0  0  0  0  0  0  0  0  0  0  0  0
   -3.2940   18.2230  -32.8510 N   0  0  0  0  0  0  0  0  0  0  0  0
   -2.5220   17.0200  -32.7120 C   0  0  0  0  0  0  0  0  0  0  0  0
   -3.0870   15.8950  -32.6490 O   0  0  0  0  0  0  0  0  0  0  0  0
   -1.1070   17.0920  -32.6180 N   0  0  0  0  0  0  0  0  0  0  0  0
   -0.4390   18.3470  -32.6470 C   0  0  0  0  0  0  0  0  0  0  0  0
    0.9420   18.3870  -32.4220 C   0  0  0  0  0  0  0  0  0  0  0  0
    1.6250   19.6050  -32.4400 C   0  0  0  0  0  0  0  0  0  0  0  0
    0.9320   20.7880  -32.6930 C   0  0  0  0  0  0  0  0  0  0  0  0
   -0.4450   20.7560  -32.9300 C   0  0  0  0  0  0  0  0  0  0  0  0
   -1.1570   19.5370  -32.8910 C   0  0  0  0  0  0  0  0  0  0  0  0
   -2.6590   19.5140  -33.2200 C   0  0  1  0  0  0  0  0  0  0  0  0
   -2.7960   19.6760  -34.6130 O   0  0  0  0  0  0  0  0  0  0  0  0
   -3.3790   20.6380  -32.4600 C   0  0  0  0  0  0  0  0  0  0  0  0
   -4.5330   21.2430  -32.9740 C   0  0  0  0  0  0  0  0  0  0  0  0
   -5.2100   22.2150  -32.2440 C   0  0  0  0  0  0  0  0  0  0  0  0
   -4.7690   22.6120  -30.9640 C   0  0  0  0  0  0  0  0  0  0  0  0
   -3.6690   21.9210  -30.3780 C   0  0  0  0  0  0  0  0  0  0  0  0
   -2.9710   20.9730  -31.1600 C   0  0  0  0  0  0  0  0  0  0  0  0
   -3.1730   22.2140  -28.9530 C   0  0  0  0  0  0  0  0  0  0  0  0
   -2.9690   20.8960  -28.1630 C   0  0  0  0  0  0  0  0  0  0  0  0
   -1.8210   22.9590  -29.0350 C   0  0  0  0  0  0  0  0  0  0  0  0
   -4.1960   23.0590  -28.1540 C   0  0  0  0  0  0  0  0  0  0  0  0
   -4.7660   24.2080  -28.9780 C   0  0  0  0  0  0  0  0  0  0  0  0
   -5.5470   23.7060  -30.2170 C   0  0  0  0  0  0  0  0  0  0  0  0
   -5.7770   24.9360  -31.1300 C   0  0  0  0  0  0  0  0  0  0  0  0
   -6.9210   23.1420  -29.7880 C   0  0  0  0  0  0  0  0  0  0  0  0
   -3.5834   16.1031  -34.4914 H   0  0  0  0  0  0  0  0  0  0  0  0
   -4.4686   15.7806  -36.0208 H   0  0  0  0  0  0  0  0  0  0  0  0
   -3.0452   16.8764  -36.0208 H   0  0  0  0  0  0  0  0  0  0  0  0
   -7.4575   17.6022  -34.8224 H   0  0  0  0  0  0  0  0  0  0  0  0
   -8.6254   17.9538  -32.6471 H   0  0  0  0  0  0  0  0  0  0  0  0
   -7.3088   18.3820  -30.5719 H   0  0  0  0  0  0  0  0  0  0  0  0
   -4.8200   18.4674  -30.6695 H   0  0  0  0  0  0  0  0  0  0  0  0
    1.4922   17.4541  -32.2300 H   0  0  0  0  0  0  0  0  0  0  0  0
    2.7090   19.6310  -32.2547 H   0  0  0  0  0  0  0  0  0  0  0  0
    1.4696   21.7476  -32.7061 H   0  0  0  0  0  0  0  0  0  0  0  0
   -0.9806   21.6914  -33.1495 H   0  0  0  0  0  0  0  0  0  0  0  0
   -3.4230   18.9820  -34.9500 H   0  0  0  0  0  0  0  0  0  0  0  0
   -4.9078   20.9467  -33.9648 H   0  0  0  0  0  0  0  0  0  0  0  0
   -6.1076   22.6836  -32.6738 H   0  0  0  0  0  0  0  0  0  0  0  0
   -2.0815   20.4833  -30.7369 H   0  0  0  0  0  0  0  0  0  0  0  0
   -3.0016   21.1066  -27.0838 H   0  0  0  0  0  0  0  0  0  0  0  0
   -3.7679   20.1857  -28.4223 H   0  0  0  0  0  0  0  0  0  0  0  0
   -1.9927   20.4605  -28.4223 H   0  0  0  0  0  0  0  0  0  0  0  0
   -1.4521   23.1623  -28.0188 H   0  0  0  0  0  0  0  0  0  0  0  0
   -1.0909   22.3358  -29.5723 H   0  0  0  0  0  0  0  0  0  0  0  0
   -1.9579   23.9091  -29.5723 H   0  0  0  0  0  0  0  0  0  0  0  0
   -5.0230   22.4066  -27.8371 H   0  0  0  0  0  0  0  0  0  0  0  0
   -3.6723   23.4923  -27.2892 H   0  0  0  0  0  0  0  0  0  0  0  0
   -5.4465   24.7954  -28.3441 H   0  0  0  0  0  0  0  0  0  0  0  0
   -3.9237   24.8195  -29.3339 H   0  0  0  0  0  0  0  0  0  0  0  0
   -5.9438   25.8280  -30.5083 H   0  0  0  0  0  0  0  0  0  0  0  0
   -4.8924   25.0918  -31.7650 H   0  0  0  0  0  0  0  0  0  0  0  0
   -6.6581   24.7616  -31.7650 H   0  0  0  0  0  0  0  0  0  0  0  0
   -6.9806   23.1175  -28.6899 H   0  0  0  0  0  0  0  0  0  0  0  0
   -7.7211   23.7845  -30.1844 H   0  0  0  0  0  0  0  0  0  0  0  0
   -7.0389   22.1227  -30.1844 H   0  0  0  0  0  0  0  0  0  0  0  0
  1  2  1  0
  2  3  1  0
  3  4  2  0
  4  5  1  0
  5  6  2  0
  6  7  1  0
  7  8  2  0
  8  9  1  0
  9 10  1  0
 10 11  2  0
 10 12  1  0
 12 13  1  0
 13 14  2  0
 14 15  1  0
 15 16  2  0
 16 17  1  0
 17 18  2  0
 18 19  1  0
 19 20  1  6
 19 21  1  0
 21 22  2  0
 22 23  1  0
 23 24  2  0
 24 25  1  0
 25 26  2  0
 25 27  1  0
 27 28  1  0
 27 29  1  0
 27 30  1  0
 30 31  1  0
 31 32  1  0
 32 33  1  0
 32 34  1  0
  8  3  1  0
 19  9  1  0
 26 21  1  0
 18 13  1  0
 32 24  1  0
  1 35  1  0
  1 36  1  0
  1 37  1  0
  4 38  1  0
  5 39  1  0
  6 40  1  0
  7 41  1  0
 14 42  1  0
 15 43  1  0
 16 44  1  0
 17 45  1  0
 20 46  1  0
 22 47  1  0
 23 48  1  0
 26 49  1  0
 28 50  1  0
 28 51  1  0
 28 52  1  0
 29 53  1  0
 29 54  1  0
 29 55  1  0
 30 56  1  0
 30 57  1  0
 31 58  1  0
 31 59  1  0
 33 60  1  0
 33 61  1  0
 33 62  1  0
 34 63  1  0
 34 64  1  0
 34 65  1  0
M  CHG  1  12  -1
M  END
>  <UniqueID>  (2) 
2

>  <SMILES>  (2) 
COc1ccccc1N1C(=O)[N-]c2ccccc2[C@]1(O)c1ccc2c(c1)C(C)(C)CCC2(C)C

>  <Energy>  (2) 
85.41102540309278

>  <Genealogy>  (2) 
COc1ccccc1N1C(=O)[N-]c2ccccc2C1(O)c1ccc2c(c1)C(C)(C)CCC2(C)C (protonated)
COc1ccccc1N1C(=O)[N-]c2ccccc2[C@]1(O)c1ccc2c(c1)C(C)(C)CCC2(C)C (chirality)
COc1ccccc1N1C(=O)[N-]c2ccccc2[C@]1(O)c1ccc2c(c1)C(C)(C)CCC2(C)C (3D coordinates assigned)
COc1ccccc1N1C(=O)[N-]c2ccccc2[C@]1(O)c1ccc2c(c1)C(C)(C)CCC2(C)C (nonaromatic ring conformer: 85.41102540309278 kcal/mol)

>  <smiles>  (2) 
COc1ccccc1N1C(=O)Nc2ccccc2C1(O)c1ccc2c(c1)C(C)(C)CCC2(C)C

>  <score_type>  (2) 
oracle

>  <origin>  (2) 
adgpu

>  <m_score__min__energy>  (2) 
-8.8399999999999999

>  <m_primary>  (2) 
energy

$$$$
2:0
     RDKit          3D

 48 51  0  0  0  0  0  0  0  0999 V2000
   -7.2680   25.5750  -29.7230 O   0  0  0  0  0  0  0  0  0  0  0  0
   -6.5910   24.8180  -30.4660 C   0  0  0  0  0  0  0  0  0  0  0  0
   -7.2300   24.1710  -31.5740 N   0  0  0  0  0  0  0  0  0  0  0  0
   -7.3670   22.7510  -31.7210 C   0  0  0  0  0  0  0  0  0  0  0  0
   -8.5330   22.1240  -31.2670 C   0  0  0  0  0  0  0  0  0  0  0  0
   -8.6770   20.7380  -31.3790 C   0  0  0  0  0  0  0  0  0  0  0  0
   -7.6610   19.9720  -31.9570 C   0  0  0  0  0  0  0  0  0  0  0  0
   -6.5050   20.5910  -32.4490 C   0  0  0  0  0  0  0  0  0  0  0  0
   -5.2210   19.6250  -33.1760 S   0  0  0  0  0  0  0  0  0  0  0  0
   -5.6340   19.1820  -34.5530 O   0  0  0  0  0  0  0  0  0  0  0  0
   -4.9960   18.4020  -32.3290 O   0  0  0  0  0  0  0  0  0  0  0  0
   -3.7510   20.5660  -33.2640 N   0  0  0  0  0  0  0  0  0  0  0  0
   -2.6370   19.7780  -33.8420 C   0  0  0  0  0  0  0  0  0  0  0  0
   -1.5890   19.3810  -32.7890 C   0  0  0  0  0  0  0  0  0  0  0  0
   -1.0270   20.4970  -32.1170 O   0  0  0  0  0  0  0  0  0  0  0  0
   -1.9560   21.5460  -31.8690 C   0  0  0  0  0  0  0  0  0  0  0  0
   -3.4310   21.1180  -31.9350 C   0  0  0  0  0  0  0  0  0  0  0  0
   -6.3680   21.9810  -32.3420 C   0  0  0  0  0  0  0  0  0  0  0  0
   -5.1690   24.5810  -30.1600 C   0  0  0  0  0  0  0  0  0  0  0  0
   -4.6580   23.5200  -29.4440 C   0  0  0  0  0  0  0  0  0  0  0  0
   -3.2960   23.7680  -29.4090 C   0  0  0  0  0  0  0  0  0  0  0  0
   -2.2520   22.9570  -28.7410 C   0  0  0  0  0  0  0  0  0  0  0  0
   -2.6010   21.7000  -28.2140 C   0  0  0  0  0  0  0  0  0  0  0  0
   -1.6430   20.9000  -27.5850 C   0  0  0  0  0  0  0  0  0  0  0  0
   -0.3240   21.3390  -27.4800 C   0  0  0  0  0  0  0  0  0  0  0  0
    0.0440   22.5760  -28.0120 C   0  0  0  0  0  0  0  0  0  0  0  0
   -0.9070   23.3860  -28.6510 C   0  0  0  0  0  0  0  0  0  0  0  0
   -0.5060   24.5950  -29.2180 O   0  0  0  0  0  0  0  0  0  0  0  0
   -3.0300   24.8970  -30.0960 N   0  0  0  0  0  0  0  0  0  0  0  0
   -4.1690   25.3960  -30.5470 N   0  0  0  0  0  0  0  0  0  0  0  0
   -9.3393   22.7242  -30.8203 H   0  0  0  0  0  0  0  0  0  0  0  0
   -9.5915   20.2495  -31.0116 H   0  0  0  0  0  0  0  0  0  0  0  0
   -7.7696   18.8795  -32.0257 H   0  0  0  0  0  0  0  0  0  0  0  0
   -3.0487   18.8629  -34.2926 H   0  0  0  0  0  0  0  0  0  0  0  0
   -2.1358   20.4076  -34.5920 H   0  0  0  0  0  0  0  0  0  0  0  0
   -2.0697   18.7294  -32.0445 H   0  0  0  0  0  0  0  0  0  0  0  0
   -0.7708   18.8687  -33.3164 H   0  0  0  0  0  0  0  0  0  0  0  0
   -1.7595   21.9490  -30.8645 H   0  0  0  0  0  0  0  0  0  0  0  0
   -1.8094   22.2896  -32.6662 H   0  0  0  0  0  0  0  0  0  0  0  0
   -3.6196   20.3507  -31.1697 H   0  0  0  0  0  0  0  0  0  0  0  0
   -4.0647   21.9987  -31.7543 H   0  0  0  0  0  0  0  0  0  0  0  0
   -5.4719   22.4738  -32.7470 H   0  0  0  0  0  0  0  0  0  0  0  0
   -5.2047   22.6734  -29.0031 H   0  0  0  0  0  0  0  0  0  0  0  0
   -3.6382   21.3433  -28.2979 H   0  0  0  0  0  0  0  0  0  0  0  0
   -1.9304   19.9219  -27.1719 H   0  0  0  0  0  0  0  0  0  0  0  0
    0.4266   20.7108  -26.9780 H   0  0  0  0  0  0  0  0  0  0  0  0
    1.0863   22.9180  -27.9297 H   0  0  0  0  0  0  0  0  0  0  0  0
   -0.8780   24.9190  -30.1030 H   0  0  0  0  0  0  0  0  0  0  0  0
  1  2  2  0
  2  3  1  0
  3  4  1  0
  4  5  2  0
  5  6  1  0
  6  7  2  0
  7  8  1  0
  8  9  1  0
  9 10  2  0
  9 11  2  0
  9 12  1  0
 12 13  1  0
 13 14  1  0
 14 15  1  0
 15 16  1  0
 16 17  1  0
  8 18  2  0
  2 19  1  0
 19 20  1  0
 20 21  2  0
 21 22  1  0
 22 23  2  0
 23 24  1  0
 24 25  2  0
 25 26  1  0
 26 27  2  0
 27 28  1  0
 21 29  1  0
 29 30  1  0
 18  4  1  0
 30 19  2  0
 17 12  1  0
 27 22  1  0
  5 31  1  0
  6 32  1  0
  7 33  1  0
 13 34  1  0
 13 35  1  0
 14 36  1  0
 14 37  1  0
 16 38  1  0
 16 39  1  0
 17 40  1  0
 17 41  1  0
 18 42  1  0
 20 43  1  0
 23 44  1  0
 24 45  1  0
 25 46  1  0
 26 47  1  0
 28 48  1  0
M  CHG  2   3  -1  29  -1
M  END
>  <UniqueID>  (3) 
3

>  <SMILES>  (3) 
O=C([N-]c1cccc(S(=O)(=O)N2CCOCC2)c1)c1cc(-c2ccccc2O)[n-]n1

>  <Energy>  (3) 
99.0339263067468

>  <Genealogy>  (3) 
O=C([N-]c1cccc(S(=O)(=O)N2CCOCC2)c1)c1cc(-c2ccccc2O)[n-]n1 (protonated)
O=C([N-]c1cccc(S(=O)(=O)N2CCOCC2)c1)c1cc(-c2ccccc2O)[n-]n1 (3D coordinates assigned)
O=C([N-]c1cccc(S(=O)(=O)N2CCOCC2)c1)c1cc(-c2ccccc2O)[n-]n1 (nonaromatic ring conformer: 99.0339263067468 kcal/mol)

>  <smiles>  (3) 
O=C(Nc1cccc(S(=O)(=O)N2CCOCC2)c1)c1cc(-c2ccccc2O)[nH]n1

>  <score_type>  (3) 
oracle

>  <origin>  (3) 
adgpu

>  <m_score__min__energy>  (3) 
-13.1

>  <m_primary>  (3) 
energy

$$$$
3:0
     RDKit          3D

 45 48  0  0  0  0  0  0  0  0999 V2000
    0.6160   16.9550  -27.5460 C   0  0  0  0  0  0  0  0  0  0  0  0
   -0.1770   18.2200  -27.5370 C   0  0  0  0  0  0  0  0  0  0  0  0
    0.1660   19.3940  -28.1780 C   0  0  0  0  0  0  0  0  0  0  0  0
   -0.8810   20.2470  -27.8710 C   0  0  0  0  0  0  0  0  0  0  0  0
   -1.0440   21.6640  -28.2760 C   0  0  0  0  0  0  0  0  0  0  0  0
   -0.0520   22.6250  -28.0050 C   0  0  0  0  0  0  0  0  0  0  0  0
   -0.2470   23.9630  -28.3690 C   0  0  0  0  0  0  0  0  0  0  0  0
   -1.4300   24.3590  -29.0010 C   0  0  0  0  0  0  0  0  0  0  0  0
   -1.6100   25.6980  -29.3390 O   0  0  0  0  0  0  0  0  0  0  0  0
   -2.4250   23.4070  -29.2870 C   0  0  0  0  0  0  0  0  0  0  0  0
   -3.9410   23.8930  -30.0530 S   0  0  0  0  0  0  0  0  0  0  0  0
   -5.0410   23.8450  -29.0290 O   0  0  0  0  0  0  0  0  0  0  0  0
   -3.8420   25.3030  -30.5670 O   0  0  0  0  0  0  0  0  0  0  0  0
   -4.3560   22.8460  -31.3730 N   0  0  0  0  0  0  0  0  0  0  0  0
   -5.6430   22.2340  -31.5300 C   0  0  0  0  0  0  0  0  0  0  0  0
   -5.7600   20.8500  -31.7520 C   0  0  0  0  0  0  0  0  0  0  0  0
   -7.0210   20.2590  -31.9090 C   0  0  0  0  0  0  0  0  0  0  0  0
   -8.1820   21.0580  -31.8530 C   0  0  0  0  0  0  0  0  0  0  0  0
   -8.0680   22.4330  -31.5900 C   0  0  0  0  0  0  0  0  0  0  0  0
   -6.8090   23.0240  -31.4310 C   0  0  0  0  0  0  0  0  0  0  0  0
   -6.7420   24.4020  -31.1980 O   0  0  0  0  0  0  0  0  0  0  0  0
   -9.5460   20.4260  -31.9730 C   0  0  0  0  0  0  0  0  0  0  0  0
   -9.4940   19.1100  -32.7630 C   0  0  0  0  0  0  0  0  0  0  0  0
   -8.4250   18.1740  -32.1870 C   0  0  0  0  0  0  0  0  0  0  0  0
   -7.1260   18.8430  -32.1390 N   0  0  0  0  0  0  0  0  0  0  0  0
   -2.2240   22.0650  -28.9260 C   0  0  0  0  0  0  0  0  0  0  0  0
   -1.7450   19.5940  -27.1210 O   0  0  0  0  0  0  0  0  0  0  0  0
   -1.3560   18.3710  -26.9010 N   0  0  0  0  0  0  0  0  0  0  0  0
    0.8141   16.6390  -26.5111 H   0  0  0  0  0  0  0  0  0  0  0  0
    0.0481   16.1699  -28.0667 H   0  0  0  0  0  0  0  0  0  0  0  0
    1.5701   17.1240  -28.0667 H   0  0  0  0  0  0  0  0  0  0  0  0
    1.0580   19.6021  -28.7871 H   0  0  0  0  0  0  0  0  0  0  0  0
    0.8804   22.3237  -27.5051 H   0  0  0  0  0  0  0  0  0  0  0  0
    0.5349   24.7070  -28.1566 H   0  0  0  0  0  0  0  0  0  0  0  0
   -4.8550   20.2269  -31.8028 H   0  0  0  0  0  0  0  0  0  0  0  0
   -8.9749   23.0501  -31.5083 H   0  0  0  0  0  0  0  0  0  0  0  0
   -5.9470   24.8340  -30.7430 H   0  0  0  0  0  0  0  0  0  0  0  0
   -9.9342   20.2213  -30.9643 H   0  0  0  0  0  0  0  0  0  0  0  0
  -10.2017   21.1248  -32.5131 H   0  0  0  0  0  0  0  0  0  0  0  0
  -10.4751   18.6158  -32.7063 H   0  0  0  0  0  0  0  0  0  0  0  0
   -9.2401   19.3354  -33.8093 H   0  0  0  0  0  0  0  0  0  0  0  0
   -8.7160   17.8763  -31.1688 H   0  0  0  0  0  0  0  0  0  0  0  0
   -8.3437   17.2883  -32.8342 H   0  0  0  0  0  0  0  0  0  0  0  0
   -6.2610   18.2510  -32.1470 H   0  0  0  0  0  0  0  0  0  0  0  0
   -2.9991   21.3187  -29.1546 H   0  0  0  0  0  0  0  0  0  0  0  0
  1  2  1  0
  2  3  1  0
  3  4  2  0
  4  5  1  0
  5  6  2  0
  6  7  1  0
  7  8  2  0
  8  9  1  0
  8 10  1  0
 10 11  1  0
 11 12  2  0
 11 13  2  0
 11 14  1  0
 14 15  1  0
 15 16  2  0
 16 17  1  0
 17 18  2  0
 18 19  1  0
 19 20  2  0
 20 21  1  0
 18 22  1  0
 22 23  1  0
 23 24  1  0
 24 25  1  0
 10 26  2  0
  4 27  1  0
 27 28  1  0
 28  2  2  0
 26  5  1  0
 20 15  1  0
 25 17  1  0
  1 29  1  0
  1 30  1  0
  1 31  1  0
  3 32  1  0
  6 33  1  0
  7 34  1  0
 16 35  1  0
 19 36  1  0
 21 37  1  0
 22 38  1  0
 22 39  1  0
 23 40  1  0
 23 41  1  0
 24 42  1  0
 24 43  1  0
 25 44  1  0
 26 45  1  0
M  CHG  2   9  -1  14  -1
M  END
>  <UniqueID>  (4) 
4

>  <SMILES>  (4) 
Cc1cc(-c2ccc([O-])c(S(=O)(=O)[N-]c3cc4c(cc3O)CCCN4)c2)on1

>  <Energy>  (4) 
84.80102475470673

>  <Genealogy>  (4) 
Cc1cc(-c2ccc([O-])c(S(=O)(=O)[N-]c3cc4c(cc3O)CCCN4)c2)on1 (protonated)
Cc1cc(-c2ccc([O-])c(S(=O)(=O)[N-]c3cc4c(cc3O)CCCN4)c2)on1 (3D coordinates assigned)
Cc1cc(-c2ccc([O-])c(S(=O)(=O)[N-]c3cc4c(cc3O)CCCN4)c2)on1 (nonaromatic ring conformer: 84.80102475470673 kcal/mol)

>  <smiles>  (4) 
Cc1cc(-c2ccc(O)c(S(=O)(=O)Nc3cc4c(cc3O)CCCN4)c2)on1

>  <score_type>  (4) 
oracle

>  <origin>  (4) 
adgpu

>  <m_score__min__energy>  (4) 
-13.359999999999999

>  <m_primary>  (4) 
energy

$$$$
4:0
     RDKit          3D

 44 46  0  0  0  0  0  0  0  0999 V2000
   -3.1060   18.9020  -26.3720 C   0  0  0  0  0  0  0  0  0  0  0  0
   -1.8760   19.7580  -26.3600 C   0  0  0  0  0  0  0  0  0  0  0  0
   -1.6120   20.4230  -25.3250 O   0  0  0  0  0  0  0  0  0  0  0  0
   -0.9910   19.8350  -27.4910 N   0  0  0  0  0  0  0  0  0  0  0  0
   -1.1330   20.7460  -28.5910 C   0  0  0  0  0  0  0  0  0  0  0  0
   -0.9520   20.2750  -29.8980 C   0  0  0  0  0  0  0  0  0  0  0  0
   -1.1290   21.1350  -30.9880 C   0  0  0  0  0  0  0  0  0  0  0  0
   -1.5180   22.4620  -30.7820 C   0  0  0  0  0  0  0  0  0  0  0  0
   -1.7400   22.9350  -29.4800 C   0  0  0  0  0  0  0  0  0  0  0  0
   -2.3840   24.5500  -29.2010 S   0  0  0  0  0  0  0  0  0  0  0  0
   -1.2890   25.5770  -29.2350 O   0  0  0  0  0  0  0  0  0  0  0  0
   -3.0510   24.5770  -27.8520 O   0  0  0  0  0  0  0  0  0  0  0  0
   -3.5530   24.9130  -30.4380 N   0  0  0  0  0  0  0  0  0  0  0  0
   -4.7240   24.1280  -30.6700 C   0  0  0  0  0  0  0  0  0  0  0  0
   -5.9810   24.5480  -30.2210 C   0  0  0  0  0  0  0  0  0  0  0  0
   -7.1210   23.7960  -30.5070 C   0  0  0  0  0  0  0  0  0  0  0  0
   -7.0250   22.6090  -31.2540 C   0  0  0  0  0  0  0  0  0  0  0  0
   -8.1680   21.8680  -31.5880 C   0  0  0  0  0  0  0  0  0  0  0  0
   -9.3050   22.2450  -31.1740 O   0  0  0  0  0  0  0  0  0  0  0  0
   -8.0580   20.7460  -32.3620 N   0  0  0  0  0  0  0  0  0  0  0  0
   -9.2620   19.9760  -32.7150 C   0  0  0  0  0  0  0  0  0  0  0  0
   -6.8250   20.2930  -32.7520 C   0  0  0  0  0  0  0  0  0  0  0  0
   -6.7460   19.2220  -33.4180 O   0  0  0  0  0  0  0  0  0  0  0  0
   -5.6790   20.9860  -32.4280 N   0  0  0  0  0  0  0  0  0  0  0  0
   -4.3650   20.4790  -32.8740 C   0  0  0  0  0  0  0  0  0  0  0  0
   -5.7620   22.1510  -31.6940 C   0  0  0  0  0  0  0  0  0  0  0  0
   -4.6140   22.9250  -31.3740 C   0  0  0  0  0  0  0  0  0  0  0  0
   -1.5430   22.0750  -28.3890 C   0  0  0  0  0  0  0  0  0  0  0  0
   -3.4138   18.6878  -25.3379 H   0  0  0  0  0  0  0  0  0  0  0  0
   -3.9166   19.4321  -26.8935 H   0  0  0  0  0  0  0  0  0  0  0  0
   -2.8905   17.9577  -26.8935 H   0  0  0  0  0  0  0  0  0  0  0  0
   -0.6698   19.2255  -30.0682 H   0  0  0  0  0  0  0  0  0  0  0  0
   -0.9614   20.7655  -32.0104 H   0  0  0  0  0  0  0  0  0  0  0  0
   -1.6501   23.1357  -31.6415 H   0  0  0  0  0  0  0  0  0  0  0  0
   -6.0710   25.4770  -29.6388 H   0  0  0  0  0  0  0  0  0  0  0  0
   -8.1029   24.1348  -30.1450 H   0  0  0  0  0  0  0  0  0  0  0  0
   -9.7714   19.6502  -31.7961 H   0  0  0  0  0  0  0  0  0  0  0  0
   -9.9410   20.6078  -33.3063 H   0  0  0  0  0  0  0  0  0  0  0  0
   -8.9732   19.0946  -33.3063 H   0  0  0  0  0  0  0  0  0  0  0  0
   -3.7468   20.2405  -31.9960 H   0  0  0  0  0  0  0  0  0  0  0  0
   -4.5082   19.5716  -33.4790 H   0  0  0  0  0  0  0  0  0  0  0  0
   -3.8616   21.2475  -33.4790 H   0  0  0  0  0  0  0  0  0  0  0  0
   -3.6203   22.5711  -31.6860 H   0  0  0  0  0  0  0  0  0  0  0  0
   -1.7109   22.4443  -27.3665 H   0  0  0  0  0  0  0  0  0  0  0  0
  1  2  1  0
  2  3  2  0
  2  4  1  0
  4  5  1  0
  5  6  2  0
  6  7  1  0
  7  8  2  0
  8  9  1  0
  9 10  1  0
 10 11  2  0
 10 12  2  0
 10 13  1  0
 13 14  1  0
 14 15  2  0
 15 16  1  0
 16 17  2  0
 17 18  1  0
 18 19  2  0
 18 20  1  0
 20 21  1  0
 20 22  1  0
 22 23  2  0
 22 24  1  0
 24 25  1  0
 24 26  1  0
 26 27  2  0
  9 28  2  0
 28  5  1  0
 27 14  1  0
 26 17  1  0
  1 29  1  0
  1 30  1  0
  1 31  1  0
  6 32  1  0
  7 33  1  0
  8 34  1  0
 15 35  1  0
 16 36  1  0
 21 37  1  0
 21 38  1  0
 21 39  1  0
 25 40  1  0
 25 41  1  0
 25 42  1  0
 27 43  1  0
 28 44  1  0
M  CHG  2   4  -1  13  -1
M  END
>  <UniqueID>  (5) 
5

>  <SMILES>  (5) 
CC(=O)[N-]c1cccc(S(=O)(=O)[N-]c2ccc3c(=O)n(C)c(=O)n(C)c3c2)c1

>  <Energy>  (5) 
68.99382350674742

>  <Genealogy>  (5) 
CC(=O)[N-]c1cccc(S(=O)(=O)[N-]c2ccc3c(=O)n(C)c(=O)n(C)c3c2)c1 (protonated)
CC(=O)[N-]c1cccc(S(=O)(=O)[N-]c2ccc3c(=O)n(C)c(=O)n(C)c3c2)c1 (3D coordinates assigned)
CC(=O)[N-]c1cccc(S(=O)(=O)[N-]c2ccc3c(=O)n(C)c(=O)n(C)c3c2)c1 (optimized conformer: 68.99382350674742 kcal/mol)

>  <smiles>  (5) 
CC(=O)Nc1cccc(S(=O)(=O)Nc2ccc3c(=O)n(C)c(=O)n(C)c3c2)c1

>  <score_type>  (5) 
oracle

>  <origin>  (5) 
adgpu

>  <m_score__min__energy>  (5) 
-10.869999999999999

>  <m_primary>  (5) 
energy

$$$$
5:0
     RDKit          3D

 50 53  0  0  0  0  0  0  0  0999 V2000
   -2.5240   20.9640  -33.4690 C   0  0  0  0  0  0  0  0  0  0  0  0
   -2.2050   21.2730  -32.0420 C   0  0  0  0  0  0  0  0  0  0  0  0
   -1.4360   20.3850  -31.2800 C   0  0  0  0  0  0  0  0  0  0  0  0
   -1.1440   20.6920  -29.9500 C   0  0  0  0  0  0  0  0  0  0  0  0
   -1.6120   21.8880  -29.3910 C   0  0  0  0  0  0  0  0  0  0  0  0
   -1.3310   22.2270  -28.0600 C   0  0  0  0  0  0  0  0  0  0  0  0
   -1.8020   23.4330  -27.5320 C   0  0  0  0  0  0  0  0  0  0  0  0
   -2.5460   24.3080  -28.3280 C   0  0  0  0  0  0  0  0  0  0  0  0
   -2.8290   23.9850  -29.6610 C   0  0  0  0  0  0  0  0  0  0  0  0
   -3.5500   24.9120  -30.4720 N   0  0  0  0  0  0  0  0  0  0  0  0
   -5.2680   25.0660  -30.3200 S   0  0  0  0  0  0  0  0  0  0  0  0
   -5.7360   26.2730  -31.0830 O   0  0  0  0  0  0  0  0  0  0  0  0
   -5.6190   25.2480  -28.8700 O   0  0  0  0  0  0  0  0  0  0  0  0
   -6.0530   23.6170  -30.9420 C   0  0  0  0  0  0  0  0  0  0  0  0
   -7.2620   23.7100  -31.6450 C   0  0  0  0  0  0  0  0  0  0  0  0
   -7.9200   22.5510  -32.0670 C   0  0  0  0  0  0  0  0  0  0  0  0
   -7.3830   21.2900  -31.7770 C   0  0  0  0  0  0  0  0  0  0  0  0
   -8.2230   19.8350  -32.3060 S   0  0  0  0  0  0  0  0  0  0  0  0
   -8.5250   18.9610  -31.1190 O   0  0  0  0  0  0  0  0  0  0  0  0
   -9.5210   20.2300  -32.9520 O   0  0  0  0  0  0  0  0  0  0  0  0
   -7.2390   18.9620  -33.4560 N   0  0  0  0  0  0  0  0  0  0  0  0
   -5.9640   19.6730  -33.6700 C   0  0  0  0  0  0  0  0  0  0  0  0
   -4.9020   18.7190  -34.2430 C   0  0  0  0  0  0  0  0  0  0  0  0
   -4.6090   17.6050  -33.4090 O   0  0  0  0  0  0  0  0  0  0  0  0
   -5.6400   17.2960  -32.4820 C   0  0  0  0  0  0  0  0  0  0  0  0
   -7.0520   17.5540  -33.0390 C   0  0  0  0  0  0  0  0  0  0  0  0
   -6.1690   21.1970  -31.0830 C   0  0  0  0  0  0  0  0  0  0  0  0
   -5.5070   22.3550  -30.6680 C   0  0  0  0  0  0  0  0  0  0  0  0
   -2.3760   22.7660  -30.1930 C   0  0  0  0  0  0  0  0  0  0  0  0
   -2.6530   22.4300  -31.4830 N   0  0  0  0  0  0  0  0  0  0  0  0
   -3.3135   20.1992  -33.5109 H   0  0  0  0  0  0  0  0  0  0  0  0
   -2.8715   21.8778  -33.9732 H   0  0  0  0  0  0  0  0  0  0  0  0
   -1.6217   20.5876  -33.9732 H   0  0  0  0  0  0  0  0  0  0  0  0
   -1.0642   19.4511  -31.7268 H   0  0  0  0  0  0  0  0  0  0  0  0
   -0.5475   19.9960  -29.3420 H   0  0  0  0  0  0  0  0  0  0  0  0
   -0.7402   21.5445  -27.4313 H   0  0  0  0  0  0  0  0  0  0  0  0
   -1.5860   23.6941  -26.4855 H   0  0  0  0  0  0  0  0  0  0  0  0
   -2.9113   25.2556  -27.9053 H   0  0  0  0  0  0  0  0  0  0  0  0
   -7.6941   24.6973  -31.8652 H   0  0  0  0  0  0  0  0  0  0  0  0
   -8.8626   22.6294  -32.6286 H   0  0  0  0  0  0  0  0  0  0  0  0
   -6.1256   20.5005  -34.3765 H   0  0  0  0  0  0  0  0  0  0  0  0
   -5.6080   20.0614  -32.7044 H   0  0  0  0  0  0  0  0  0  0  0  0
   -5.2643   18.3402  -35.2101 H   0  0  0  0  0  0  0  0  0  0  0  0
   -3.9719   19.2992  -34.3342 H   0  0  0  0  0  0  0  0  0  0  0  0
   -5.5597   16.2329  -32.2109 H   0  0  0  0  0  0  0  0  0  0  0  0
   -5.5059   17.9550  -31.6115 H   0  0  0  0  0  0  0  0  0  0  0  0
   -7.2140   16.9019  -33.9099 H   0  0  0  0  0  0  0  0  0  0  0  0
   -7.7755   17.3395  -32.2387 H   0  0  0  0  0  0  0  0  0  0  0  0
   -5.7363   20.2096  -30.8645 H   0  0  0  0  0  0  0  0  0  0  0  0
   -4.5540   22.2765  -30.1243 H   0  0  0  0  0  0  0  0  0  0  0  0
  1  2  1  0
  2  3  2  0
  3  4  1  0
  4  5  2  0
  5  6  1  0
  6  7  2  0
  7  8  1  0
  8  9  2  0
  9 10  1  0
 10 11  1  0
 11 12  2  0
 11 13  2  0
 11 14  1  0
 14 15  2  0
 15 16  1  0
 16 17  2  0
 17 18  1  0
 18 19  2  0
 18 20  2  0
 18 21  1  0
 21 22  1  0
 22 23  1  0
 23 24  1  0
 24 25  1  0
 25 26  1  0
 17 27  1  0
 27 28  2  0
  9 29  1  0
 29 30  2  0
 30  2  1  0
 29  5  1  0
 28 14  1  0
 26 21  1  0
  1 31  1  0
  1 32  1  0
  1 33  1  0
  3 34  1  0
  4 35  1  0
  6 36  1  0
  7 37  1  0
  8 38  1  0
 15 39  1  0
 16 40  1  0
 22 41  1  0
 22 42  1  0
 23 43  1  0
 23 44  1  0
 25 45  1  0
 25 46  1  0
 26 47  1  0
 26 48  1  0
 27 49  1  0
 28 50  1  0
M  CHG  1  10  -1
M  END
>  <UniqueID>  (6) 
6

>  <SMILES>  (6) 
Cc1ccc2cccc([N-]S(=O)(=O)c3ccc(S(=O)(=O)N4CCOCC4)cc3)c2n1

>  <Energy>  (6) 
73.75173524491855

>  <Genealogy>  (6) 
Cc1ccc2cccc([N-]S(=O)(=O)c3ccc(S(=O)(=O)N4CCOCC4)cc3)c2n1 (protonated)
Cc1ccc2cccc([N-]S(=O)(=O)c3ccc(S(=O)(=O)N4CCOCC4)cc3)c2n1 (3D coordinates assigned)
Cc1ccc2cccc([N-]S(=O)(=O)c3ccc(S(=O)(=O)N4CCOCC4)cc3)c2n1 (nonaromatic ring conformer: 73.75173524491855 kcal/mol)

>  <smiles>  (6) 
Cc1ccc2cccc(NS(=O)(=O)c3ccc(S(=O)(=O)N4CCOCC4)cc3)c2n1

>  <score_type>  (6) 
oracle

>  <origin>  (6) 
adgpu

>  <m_score__min__energy>  (6) 
-11.550000000000001

>  <m_primary>  (6) 
energy

$$$$
6:0
     RDKit          3D

 48 51  0  0  0  0  0  0  0  0999 V2000
    0.5330   24.7830  -24.5110 C   0  0  0  0  0  0  0  0  0  0  0  0
   -0.2650   24.9360  -25.7700 C   0  0  0  0  0  0  0  0  0  0  0  0
   -1.6420   25.1970  -25.7090 C   0  0  0  0  0  0  0  0  0  0  0  0
   -2.3920   25.3040  -26.8830 C   0  0  0  0  0  0  0  0  0  0  0  0
   -1.7810   25.1540  -28.1330 C   0  0  0  0  0  0  0  0  0  0  0  0
   -2.5910   25.2810  -29.3100 N   0  0  0  0  0  0  0  0  0  0  0  0
   -3.1160   24.2120  -30.1090 C   0  0  0  0  0  0  0  0  0  0  0  0
   -4.1160   24.3920  -30.8550 O   0  0  0  0  0  0  0  0  0  0  0  0
   -2.5180   22.8430  -30.0010 C   0  0  0  0  0  0  0  0  0  0  0  0
   -3.7530   21.5350  -30.3400 S   0  0  0  0  0  0  0  0  0  0  0  0
   -3.1170   21.1310  -31.9690 C   0  0  0  0  0  0  0  0  0  0  0  0
   -1.9230   21.4560  -32.3930 O   0  0  0  0  0  0  0  0  0  0  0  0
   -1.8090   20.9750  -33.6100 C   0  0  0  0  0  0  0  0  0  0  0  0
   -0.5980   21.1180  -34.4230 C   0  0  0  0  0  0  0  0  0  0  0  0
    0.0440   20.0990  -35.0960 C   0  0  0  0  0  0  0  0  0  0  0  0
    1.1180   20.6910  -35.7230 C   0  0  0  0  0  0  0  0  0  0  0  0
    1.0650   22.0310  -35.3920 C   0  0  0  0  0  0  0  0  0  0  0  0
    0.0300   22.2540  -34.6150 O   0  0  0  0  0  0  0  0  0  0  0  0
   -2.9190   20.3280  -34.0300 N   0  0  0  0  0  0  0  0  0  0  0  0
   -3.7470   20.4340  -32.9740 C   0  0  0  0  0  0  0  0  0  0  0  0
   -5.3700   19.7680  -32.9340 S   0  0  0  0  0  0  0  0  0  0  0  0
   -5.4080   18.6290  -31.9540 O   0  0  0  0  0  0  0  0  0  0  0  0
   -5.7380   19.2510  -34.2940 O   0  0  0  0  0  0  0  0  0  0  0  0
   -6.5140   21.0260  -32.4760 C   0  0  0  0  0  0  0  0  0  0  0  0
   -6.0970   22.3590  -32.3390 C   0  0  0  0  0  0  0  0  0  0  0  0
   -7.0200   23.3500  -31.9900 C   0  0  0  0  0  0  0  0  0  0  0  0
   -8.3600   23.0160  -31.7760 C   0  0  0  0  0  0  0  0  0  0  0  0
   -8.7780   21.6880  -31.9110 C   0  0  0  0  0  0  0  0  0  0  0  0
   -7.8590   20.6950  -32.2610 C   0  0  0  0  0  0  0  0  0  0  0  0
   -0.4090   24.8480  -28.1950 C   0  0  0  0  0  0  0  0  0  0  0  0
    0.3420   24.7400  -27.0200 C   0  0  0  0  0  0  0  0  0  0  0  0
   -0.1275   24.9096  -23.6406 H   0  0  0  0  0  0  0  0  0  0  0  0
    0.9870   23.7814  -24.4841 H   0  0  0  0  0  0  0  0  0  0  0  0
    1.3253   25.5456  -24.4841 H   0  0  0  0  0  0  0  0  0  0  0  0
   -2.1335   25.3180  -24.7324 H   0  0  0  0  0  0  0  0  0  0  0  0
   -3.4714   25.5078  -26.8242 H   0  0  0  0  0  0  0  0  0  0  0  0
   -1.6967   22.7546  -30.7274 H   0  0  0  0  0  0  0  0  0  0  0  0
   -2.1512   22.7096  -28.9726 H   0  0  0  0  0  0  0  0  0  0  0  0
   -0.2417   19.0372  -35.1256 H   0  0  0  0  0  0  0  0  0  0  0  0
    1.8669   20.1964  -36.3590 H   0  0  0  0  0  0  0  0  0  0  0  0
    1.7811   22.7953  -35.7282 H   0  0  0  0  0  0  0  0  0  0  0  0
   -5.0428   22.6247  -32.5063 H   0  0  0  0  0  0  0  0  0  0  0  0
   -6.6907   24.3942  -31.8838 H   0  0  0  0  0  0  0  0  0  0  0  0
   -9.0851   23.7964  -31.5018 H   0  0  0  0  0  0  0  0  0  0  0  0
   -9.8324   21.4246  -31.7413 H   0  0  0  0  0  0  0  0  0  0  0  0
   -8.1917   19.6520  -32.3679 H   0  0  0  0  0  0  0  0  0  0  0  0
    0.0746   24.6932  -29.1708 H   0  0  0  0  0  0  0  0  0  0  0  0
    1.4141   24.5002  -27.0760 H   0  0  0  0  0  0  0  0  0  0  0  0
  1  2  1  0
  2  3  2  0
  3  4  1  0
  4  5  2  0
  5  6  1  0
  6  7  1  0
  7  8  2  0
  7  9  1  0
  9 10  1  0
 10 11  1  0
 11 12  1  0
 12 13  1  0
 13 14  1  0
 14 15  2  0
 15 16  1  0
 16 17  2  0
 17 18  1  0
 13 19  2  0
 19 20  1  0
 20 21  1  0
 21 22  2  0
 21 23  2  0
 21 24  1  0
 24 25  2  0
 25 26  1  0
 26 27  2  0
 27 28  1  0
 28 29  2  0
  5 30  1  0
 30 31  2  0
 31  2  1  0
 20 11  2  0
 29 24  1  0
 18 14  1  0
  1 32  1  0
  1 33  1  0
  1 34  1  0
  3 35  1  0
  4 36  1  0
  9 37  1  0
  9 38  1  0
 15 39  1  0
 16 40  1  0
 17 41  1  0
 25 42  1  0
 26 43  1  0
 27 44  1  0
 28 45  1  0
 29 46  1  0
 30 47  1  0
 31 48  1  0
M  CHG  1   6  -1
M  END
>  <UniqueID>  (7) 
7

>  <SMILES>  (7) 
Cc1ccc([N-]C(=O)CSc2oc(-c3ccco3)nc2S(=O)(=O)c2ccccc2)cc1

>  <Energy>  (7) 
105.84581486300269

>  <Genealogy>  (7) 
Cc1ccc([N-]C(=O)CSc2oc(-c3ccco3)nc2S(=O)(=O)c2ccccc2)cc1 (protonated)
Cc1ccc([N-]C(=O)CSc2oc(-c3ccco3)nc2S(=O)(=O)c2ccccc2)cc1 (3D coordinates assigned)
Cc1ccc([N-]C(=O)CSc2oc(-c3ccco3)nc2S(=O)(=O)c2ccccc2)cc1 (optimized conformer: 105.84581486300269 kcal/mol)

>  <smiles>  (7) 
Cc1ccc(NC(=O)CSc2oc(-c3ccco3)nc2S(=O)(=O)c2ccccc2)cc1

>  <score_type>  (7) 
oracle

>  <origin>  (7) 
adgpu

>  <m_score__min__energy>  (7) 
-11.779999999999999

>  <m_primary>  (7) 
energy

$$$$
7:0
     RDKit          3D

 64 68  0  0  0  0  0  0  0  0999 V2000
   -1.7090   17.6670  -33.0760 C   0  0  0  0  0  0  0  0  0  0  0  0
   -0.4710   17.6620  -32.1900 C   0  0  0  0  0  0  0  0  0  0  0  0
    0.1750   18.9820  -32.1630 N   0  0  0  0  0  0  0  0  0  0  0  0
   -0.1850   19.9340  -31.1450 C   0  0  0  0  0  0  0  0  0  0  0  0
    0.2130   19.7440  -29.8020 C   0  0  0  0  0  0  0  0  0  0  0  0
    0.9930   18.5570  -29.4010 C   0  0  0  0  0  0  0  0  0  0  0  0
    0.3340   17.3520  -29.1110 C   0  0  0  0  0  0  0  0  0  0  0  0
    1.0660   16.2320  -28.7000 C   0  0  0  0  0  0  0  0  0  0  0  0
    2.4610   16.3100  -28.5660 C   0  0  0  0  0  0  0  0  0  0  0  0
    3.1980   15.1910  -28.1740 O   0  0  0  0  0  0  0  0  0  0  0  0
    3.1160   17.5230  -28.8230 C   0  0  0  0  0  0  0  0  0  0  0  0
    4.4950   17.6170  -28.6730 O   0  0  0  0  0  0  0  0  0  0  0  0
    2.3830   18.6460  -29.2300 C   0  0  0  0  0  0  0  0  0  0  0  0
   -0.1780   20.6660  -28.8160 C   0  0  0  0  0  0  0  0  0  0  0  0
    0.2370   20.4820  -27.4940 O   0  0  0  0  0  0  0  0  0  0  0  0
   -0.9890   21.7650  -29.1540 C   0  0  0  0  0  0  0  0  0  0  0  0
   -1.4230   22.6700  -28.1680 C   0  0  0  0  0  0  0  0  0  0  0  0
   -2.2600   23.7340  -28.5070 C   0  0  0  0  0  0  0  0  0  0  0  0
   -2.6570   23.9350  -29.8330 C   0  0  0  0  0  0  0  0  0  0  0  0
   -3.5210   25.0410  -30.1300 N   0  0  0  0  0  0  0  0  0  0  0  0
   -5.2490   24.9460  -30.2910 S   0  0  0  0  0  0  0  0  0  0  0  0
   -5.9330   25.1100  -28.9580 O   0  0  0  0  0  0  0  0  0  0  0  0
   -5.7110   26.0620  -31.1880 O   0  0  0  0  0  0  0  0  0  0  0  0
   -5.6780   23.3930  -31.0110 C   0  0  0  0  0  0  0  0  0  0  0  0
   -6.7770   22.6650  -30.5300 C   0  0  0  0  0  0  0  0  0  0  0  0
   -7.1190   21.4380  -31.1140 C   0  0  0  0  0  0  0  0  0  0  0  0
   -6.3700   20.9370  -32.1830 C   0  0  0  0  0  0  0  0  0  0  0  0
   -6.7000   19.7470  -32.7440 F   0  0  0  0  0  0  0  0  0  0  0  0
   -5.2750   21.6590  -32.6680 C   0  0  0  0  0  0  0  0  0  0  0  0
   -4.9290   22.8820  -32.0830 C   0  0  0  0  0  0  0  0  0  0  0  0
   -2.2310   23.0370  -30.8250 C   0  0  0  0  0  0  0  0  0  0  0  0
   -1.4030   21.9460  -30.4960 C   0  0  0  0  0  0  0  0  0  0  0  0
   -1.0030   21.0250  -31.4820 C   0  0  0  0  0  0  0  0  0  0  0  0
   -1.4410   21.1700  -32.7970 O   0  0  0  0  0  0  0  0  0  0  0  0
    1.6980   19.1970  -32.9840 S   0  0  0  0  0  0  0  0  0  0  0  0
    2.1060   17.9100  -33.6450 O   0  0  0  0  0  0  0  0  0  0  0  0
    2.7470   19.5610  -31.9690 O   0  0  0  0  0  0  0  0  0  0  0  0
    1.5950   20.4710  -34.1980 C   0  0  0  0  0  0  0  0  0  0  0  0
    0.3660   20.7730  -34.8070 C   0  0  0  0  0  0  0  0  0  0  0  0
    0.2880   21.7850  -35.7700 C   0  0  0  0  0  0  0  0  0  0  0  0
    1.4400   22.4840  -36.1450 C   0  0  0  0  0  0  0  0  0  0  0  0
    1.3620   23.4830  -37.1060 O   0  0  0  0  0  0  0  0  0  0  0  0
    2.6710   22.1780  -35.5510 C   0  0  0  0  0  0  0  0  0  0  0  0
    2.7500   21.1750  -34.5800 C   0  0  0  0  0  0  0  0  0  0  0  0
   -2.6107   17.6706  -32.4460 H   0  0  0  0  0  0  0  0  0  0  0  0
   -1.7018   18.5651  -33.7111 H   0  0  0  0  0  0  0  0  0  0  0  0
   -1.7090   16.7688  -33.7111 H   0  0  0  0  0  0  0  0  0  0  0  0
   -0.7647   17.3864  -31.1664 H   0  0  0  0  0  0  0  0  0  0  0  0
    0.2451   16.9347  -32.6001 H   0  0  0  0  0  0  0  0  0  0  0  0
   -0.7599   17.2878  -29.2069 H   0  0  0  0  0  0  0  0  0  0  0  0
    0.5463   15.2875  -28.4813 H   0  0  0  0  0  0  0  0  0  0  0  0
    4.2030   15.2350  -28.0570 H   0  0  0  0  0  0  0  0  0  0  0  0
    2.8986   19.5997  -29.4159 H   0  0  0  0  0  0  0  0  0  0  0  0
   -1.1009   22.5382  -27.1245 H   0  0  0  0  0  0  0  0  0  0  0  0
   -2.6111   24.4216  -27.7234 H   0  0  0  0  0  0  0  0  0  0  0  0
   -7.3715   23.0585  -29.6924 H   0  0  0  0  0  0  0  0  0  0  0  0
   -7.9782   20.8680  -30.7307 H   0  0  0  0  0  0  0  0  0  0  0  0
   -4.6857   21.2655  -33.5094 H   0  0  0  0  0  0  0  0  0  0  0  0
   -4.0655   23.4462  -32.4650 H   0  0  0  0  0  0  0  0  0  0  0  0
   -2.5466   23.1869  -31.8680 H   0  0  0  0  0  0  0  0  0  0  0  0
   -0.5377   20.2124  -34.5261 H   0  0  0  0  0  0  0  0  0  0  0  0
   -0.6794   22.0309  -36.2322 H   0  0  0  0  0  0  0  0  0  0  0  0
    3.5764   22.7272  -35.8486 H   0  0  0  0  0  0  0  0  0  0  0  0
    3.7176   20.9365  -34.1143 H   0  0  0  0  0  0  0  0  0  0  0  0
  1  2  1  0
  2  3  1  0
  3  4  1  0
  4  5  1  0
  5  6  1  0
  6  7  2  0
  7  8  1  0
  8  9  2  0
  9 10  1  0
  9 11  1  0
 11 12  1  0
 11 13  2  0
  5 14  2  0
 14 15  1  0
 14 16  1  0
 16 17  2  0
 17 18  1  0
 18 19  2  0
 19 20  1  0
 20 21  1  0
 21 22  2  0
 21 23  2  0
 21 24  1  0
 24 25  2  0
 25 26  1  0
 26 27  2  0
 27 28  1  0
 27 29  1  0
 29 30  2  0
 19 31  1  0
 31 32  2  0
 32 33  1  0
 33 34  1  0
  3 35  1  0
 35 36  2  0
 35 37  2  0
 35 38  1  0
 38 39  2  0
 39 40  1  0
 40 41  2  0
 41 42  1  0
 41 43  1  0
 43 44  2  0
 33  4  2  0
 44 38  1  0
 13  6  1  0
 32 16  1  0
 30 24  1  0
  1 45  1  0
  1 46  1  0
  1 47  1  0
  2 48  1  0
  2 49  1  0
  7 50  1  0
  8 51  1  0
 10 52  1  0
 13 53  1  0
 17 54  1  0
 18 55  1  0
 25 56  1  0
 26 57  1  0
 29 58  1  0
 30 59  1  0
 31 60  1  0
 39 61  1  0
 40 62  1  0
 43 63  1  0
 44 64  1  0
M  CHG  5  12  -1  15  -1  20  -1  34  -1  42  -1
M  END
>  <UniqueID>  (8) 
8

>  <SMILES>  (8) 
CCN(c1c(-c2ccc(O)c([O-])c2)c([O-])c2ccc([N-]S(=O)(=O)c3ccc(F)cc3)cc2c1[O-])S(=O)(=O)c1ccc([O-])cc1

>  <Energy>  (8) 
90.78903131477523

>  <Genealogy>  (8) 
CCN(c1c(-c2ccc(O)c([O-])c2)c([O-])c2ccc([N-]S(=O)(=O)c3ccc(F)cc3)cc2c1[O-])S(=O)(=O)c1ccc([O-])cc1 (protonated)
CCN(c1c(-c2ccc(O)c([O-])c2)c([O-])c2ccc([N-]S(=O)(=O)c3ccc(F)cc3)cc2c1[O-])S(=O)(=O)c1ccc([O-])cc1 (3D coordinates assigned)
CCN(c1c(-c2ccc(O)c([O-])c2)c([O-])c2ccc([N-]S(=O)(=O)c3ccc(F)cc3)cc2c1[O-])S(=O)(=O)c1ccc([O-])cc1 (optimized conformer: 90.78903131477523 kcal/mol)

>  <smiles>  (8) 
CCN(c1c(-c2ccc(O)c(O)c2)c(O)c2ccc(NS(=O)(=O)c3ccc(F)cc3)cc2c1O)S(=O)(=O)c1ccc(O)cc1

>  <score_type>  (8) 
oracle

>  <origin>  (8) 
adgpu

>  <m_score__min__energy>  (8) 
-13.67

>  <m_primary>  (8) 
energy

$$$$
8:0
     RDKit          3D

 40 42  0  0  0  0  0  0  0  0999 V2000
   -2.7120   20.3040  -27.5500 C   0  0  0  0  0  0  0  0  0  0  0  0
   -2.0010   21.5490  -27.9940 C   0  0  0  0  0  0  0  0  0  0  0  0
   -0.6090   21.6630  -27.8510 C   0  0  0  0  0  0  0  0  0  0  0  0
    0.0400   22.8440  -28.2190 C   0  0  0  0  0  0  0  0  0  0  0  0
   -0.6930   23.9150  -28.7380 C   0  0  0  0  0  0  0  0  0  0  0  0
   -2.0780   23.8070  -28.9070 C   0  0  0  0  0  0  0  0  0  0  0  0
   -2.8050   24.9300  -29.4220 N   0  0  0  0  0  0  0  0  0  0  0  0
   -4.1080   24.9000  -30.0220 C   0  0  0  0  0  0  0  0  0  0  0  0
   -4.2330   25.2750  -31.2170 O   0  0  0  0  0  0  0  0  0  0  0  0
   -5.3000   24.3150  -29.3170 C   0  0  0  0  0  0  0  0  0  0  0  0
   -6.8420   24.7020  -30.2140 S   0  0  0  0  0  0  0  0  0  0  0  0
   -7.1890   22.9990  -30.6650 C   0  0  0  0  0  0  0  0  0  0  0  0
   -8.2490   22.3090  -30.2050 N   0  0  0  0  0  0  0  0  0  0  0  0
   -8.2110   21.1130  -30.7790 N   0  0  0  0  0  0  0  0  0  0  0  0
   -7.1250   21.0870  -31.5800 C   0  0  0  0  0  0  0  0  0  0  0  0
   -6.7470   19.9130  -32.3930 C   0  0  0  0  0  0  0  0  0  0  0  0
   -7.0510   18.6200  -31.9370 C   0  0  0  0  0  0  0  0  0  0  0  0
   -6.6940   17.5000  -32.6930 C   0  0  0  0  0  0  0  0  0  0  0  0
   -6.0090   17.6610  -33.9000 C   0  0  0  0  0  0  0  0  0  0  0  0
   -5.6740   18.9420  -34.3480 C   0  0  0  0  0  0  0  0  0  0  0  0
   -6.0340   20.0640  -33.5960 C   0  0  0  0  0  0  0  0  0  0  0  0
   -6.4650   22.2610  -31.5230 N   0  0  0  0  0  0  0  0  0  0  0  0
   -5.4050   22.7050  -32.3320 N   0  0  0  0  0  0  0  0  0  0  0  0
   -2.7350   22.6350  -28.4940 C   0  0  0  0  0  0  0  0  0  0  0  0
   -2.7335   20.2663  -26.4509 H   0  0  0  0  0  0  0  0  0  0  0  0
   -3.7417   20.3120  -27.9369 H   0  0  0  0  0  0  0  0  0  0  0  0
   -2.1818   19.4212  -27.9369 H   0  0  0  0  0  0  0  0  0  0  0  0
   -0.0280   20.8203  -27.4482 H   0  0  0  0  0  0  0  0  0  0  0  0
    1.1301   22.9313  -28.1001 H   0  0  0  0  0  0  0  0  0  0  0  0
   -0.1788   24.8472  -29.0149 H   0  0  0  0  0  0  0  0  0  0  0  0
   -5.1827   23.2229  -29.2569 H   0  0  0  0  0  0  0  0  0  0  0  0
   -5.3610   24.7509  -28.3089 H   0  0  0  0  0  0  0  0  0  0  0  0
   -7.5737   18.4878  -30.9782 H   0  0  0  0  0  0  0  0  0  0  0  0
   -6.9524   16.4916  -32.3376 H   0  0  0  0  0  0  0  0  0  0  0  0
   -5.7333   16.7797  -34.4977 H   0  0  0  0  0  0  0  0  0  0  0  0
   -5.1263   19.0673  -35.2937 H   0  0  0  0  0  0  0  0  0  0  0  0
   -5.7584   21.0695  -33.9466 H   0  0  0  0  0  0  0  0  0  0  0  0
   -5.3900   22.5080  -33.3560 H   0  0  0  0  0  0  0  0  0  0  0  0
   -4.6580   23.3170  -31.9370 H   0  0  0  0  0  0  0  0  0  0  0  0
   -3.8308   22.5690  -28.5632 H   0  0  0  0  0  0  0  0  0  0  0  0
  1  2  1  0
  2  3  2  0
  3  4  1  0
  4  5  2  0
  5  6  1  0
  6  7  1  0
  7  8  1  0
  8  9  2  0
  8 10  1  0
 10 11  1  0
 11 12  1  0
 12 13  2  0
 13 14  1  0
 14 15  2  0
 15 16  1  0
 16 17  2  0
 17 18  1  0
 18 19  2  0
 19 20  1  0
 20 21  2  0
 15 22  1  0
 22 23  1  0
  6 24  2  0
 24  2  1  0
 22 12  1  0
 21 16  1  0
  1 25  1  0
  1 26  1  0
  1 27  1  0
  3 28  1  0
  4 29  1  0
  5 30  1  0
 10 31  1  0
 10 32  1  0
 17 33  1  0
 18 34  1  0
 19 35  1  0
 20 36  1  0
 21 37  1  0
 23 38  1  0
 23 39  1  0
 24 40  1  0
M  CHG  1   7  -1
M  END
>  <UniqueID>  (9) 
9

>  <SMILES>  (9) 
Cc1cccc([N-]C(=O)CSc2nnc(-c3ccccc3)n2N)c1

>  <Energy>  (9) 
79.39790111810032

>  <Genealogy>  (9) 
Cc1cccc([N-]C(=O)CSc2nnc(-c3ccccc3)n2N)c1 (protonated)
Cc1cccc([N-]C(=O)CSc2nnc(-c3ccccc3)n2N)c1 (3D coordinates assigned)
Cc1cccc([N-]C(=O)CSc2nnc(-c3ccccc3)n2N)c1 (optimized conformer: 79.39790111810032 kcal/mol)

>  <smiles>  (9) 
Cc1cccc(NC(=O)CSc2nnc(-c3ccccc3)n2N)c1

>  <score_type>  (9) 
oracle

>  <origin>  (9) 
adgpu

>  <m_score__min__energy>  (9) 
-10.17

>  <m_primary>  (9) 
energy

$$$$
9:0
     RDKit          3D

 49 52  0  0  0  0  0  0  0  0999 V2000
   -7.5870   23.6210  -29.9010 O   0  0  0  0  0  0  0  0  0  0  0  0
   -6.6750   23.4610  -30.7570 C   0  0  0  0  0  0  0  0  0  0  0  0
   -6.9770   22.9230  -32.0500 N   0  0  0  0  0  0  0  0  0  0  0  0
   -6.6400   21.6040  -32.5000 C   0  0  0  0  0  0  0  0  0  0  0  0
   -5.2910   21.2980  -32.7250 C   0  0  0  0  0  0  0  0  0  0  0  0
   -4.9100   20.0160  -33.1430 C   0  0  0  0  0  0  0  0  0  0  0  0
   -3.2130   19.6530  -33.4370 S   0  0  0  0  0  0  0  0  0  0  0  0
   -3.1030   18.3960  -34.2560 O   0  0  0  0  0  0  0  0  0  0  0  0
   -2.6050   20.7970  -34.2000 O   0  0  0  0  0  0  0  0  0  0  0  0
   -2.3870   19.4410  -31.9080 N   0  0  0  0  0  0  0  0  0  0  0  0
   -2.4690   20.6500  -31.0650 C   0  0  0  0  0  0  0  0  0  0  0  0
   -1.5430   21.7830  -31.5480 C   0  0  0  0  0  0  0  0  0  0  0  0
   -0.1800   21.2790  -32.0520 C   0  0  0  0  0  0  0  0  0  0  0  0
    0.1000   19.8460  -31.6040 C   0  0  0  0  0  0  0  0  0  0  0  0
   -1.0150   18.9010  -32.0840 C   0  0  0  0  0  0  0  0  0  0  0  0
   -5.8890   19.0330  -33.3390 C   0  0  0  0  0  0  0  0  0  0  0  0
   -7.2320   19.3200  -33.0870 C   0  0  0  0  0  0  0  0  0  0  0  0
   -7.6120   20.5940  -32.6540 C   0  0  0  0  0  0  0  0  0  0  0  0
   -8.9470   20.8350  -32.3500 O   0  0  0  0  0  0  0  0  0  0  0  0
   -5.3010   23.8780  -30.4500 C   0  0  0  0  0  0  0  0  0  0  0  0
   -4.4250   23.2350  -29.6020 C   0  0  0  0  0  0  0  0  0  0  0  0
   -3.2820   24.0130  -29.6490 C   0  0  0  0  0  0  0  0  0  0  0  0
   -2.0210   23.8080  -28.8930 C   0  0  0  0  0  0  0  0  0  0  0  0
   -1.8030   22.5710  -28.2570 C   0  0  0  0  0  0  0  0  0  0  0  0
   -0.6240   22.3350  -27.5440 C   0  0  0  0  0  0  0  0  0  0  0  0
    0.3480   23.3310  -27.4510 C   0  0  0  0  0  0  0  0  0  0  0  0
    0.1400   24.5700  -28.0610 C   0  0  0  0  0  0  0  0  0  0  0  0
   -1.0390   24.8180  -28.7720 C   0  0  0  0  0  0  0  0  0  0  0  0
   -1.2290   26.0790  -29.3270 O   0  0  0  0  0  0  0  0  0  0  0  0
   -3.4920   25.0620  -30.4730 N   0  0  0  0  0  0  0  0  0  0  0  0
   -4.7180   24.9770  -30.9640 N   0  0  0  0  0  0  0  0  0  0  0  0
   -4.5240   22.0715  -32.5720 H   0  0  0  0  0  0  0  0  0  0  0  0
   -3.5063   21.0159  -31.0763 H   0  0  0  0  0  0  0  0  0  0  0  0
   -2.1447   20.3684  -30.0523 H   0  0  0  0  0  0  0  0  0  0  0  0
   -2.0434   22.3173  -32.3690 H   0  0  0  0  0  0  0  0  0  0  0  0
   -1.3505   22.4377  -30.6853 H   0  0  0  0  0  0  0  0  0  0  0  0
   -0.1719   21.3156  -33.1514 H   0  0  0  0  0  0  0  0  0  0  0  0
    0.6007   21.9271  -31.6272 H   0  0  0  0  0  0  0  0  0  0  0  0
    1.0604   19.5162  -32.0269 H   0  0  0  0  0  0  0  0  0  0  0  0
    0.1389   19.8192  -30.5050 H   0  0  0  0  0  0  0  0  0  0  0  0
   -0.8586   18.6979  -33.1537 H   0  0  0  0  0  0  0  0  0  0  0  0
   -0.9499   17.9943  -31.4646 H   0  0  0  0  0  0  0  0  0  0  0  0
   -5.5988   18.0325  -33.6923 H   0  0  0  0  0  0  0  0  0  0  0  0
   -7.9946   18.5402  -33.2298 H   0  0  0  0  0  0  0  0  0  0  0  0
   -4.5953   22.3159  -29.0221 H   0  0  0  0  0  0  0  0  0  0  0  0
   -2.5676   21.7828  -28.3218 H   0  0  0  0  0  0  0  0  0  0  0  0
   -0.4626   21.3626  -27.0557 H   0  0  0  0  0  0  0  0  0  0  0  0
    1.2789   23.1405  -26.8969 H   0  0  0  0  0  0  0  0  0  0  0  0
    0.9069   25.3546  -27.9820 H   0  0  0  0  0  0  0  0  0  0  0  0
  1  2  2  0
  2  3  1  0
  3  4  1  0
  4  5  2  0
  5  6  1  0
  6  7  1  0
  7  8  2  0
  7  9  2  0
  7 10  1  0
 10 11  1  0
 11 12  1  0
 12 13  1  0
 13 14  1  0
 14 15  1  0
  6 16  2  0
 16 17  1  0
 17 18  2  0
 18 19  1  0
  2 20  1  0
 20 21  1  0
 21 22  2  0
 22 23  1  0
 23 24  2  0
 24 25  1  0
 25 26  2  0
 26 27  1  0
 27 28  2  0
 28 29  1  0
 22 30  1  0
 30 31  1  0
 18  4  1  0
 31 20  2  0
 15 10  1  0
 28 23  1  0
  5 32  1  0
 11 33  1  0
 11 34  1  0
 12 35  1  0
 12 36  1  0
 13 37  1  0
 13 38  1  0
 14 39  1  0
 14 40  1  0
 15 41  1  0
 15 42  1  0
 16 43  1  0
 17 44  1  0
 21 45  1  0
 24 46  1  0
 25 47  1  0
 26 48  1  0
 27 49  1  0
M  CHG  4   3  -1  19  -1  29  -1  30  -1
M  END
>  <UniqueID>  (10) 
10

>  <SMILES>  (10) 
O=C([N-]c1cc(S(=O)(=O)N2CCCCC2)ccc1[O-])c1cc(-c2ccccc2[O-])[n-]n1

>  <Energy>  (10) 
97.76225299723822

>  <Genealogy>  (10) 
O=C([N-]c1cc(S(=O)(=O)N2CCCCC2)ccc1[O-])c1cc(-c2ccccc2[O-])[n-]n1 (protonated)
O=C([N-]c1cc(S(=O)(=O)N2CCCCC2)ccc1[O-])c1cc(-c2ccccc2[O-])[n-]n1 (3D coordinates assigned)
O=C([N-]c1cc(S(=O)(=O)N2CCCCC2)ccc1[O-])c1cc(-c2ccccc2[O-])[n-]n1 (nonaromatic ring conformer: 97.76225299723822 kcal/mol)

>  <smiles>  (10) 
O=C(Nc1cc(S(=O)(=O)N2CCCCC2)ccc1O)c1cc(-c2ccccc2O)[nH]n1

>  <score_type>  (10) 
oracle

>  <origin>  (10) 
adgpu

>  <m_score__min__energy>  (10) 
-15.93

>  <m_primary>  (10) 
energy

$$$$
10:0
     RDKit          3D

 54 58  0  0  1  0  0  0  0  0999 V2000
   -6.3140   17.4240  -32.9420 C   0  0  0  0  0  0  0  0  0  0  0  0
   -5.5310   18.7260  -33.8920 S   0  0  0  0  0  0  0  0  0  0  0  0
   -6.1020   18.7030  -35.2820 O   0  0  0  0  0  0  0  0  0  0  0  0
   -4.0530   18.4960  -33.9920 O   0  0  0  0  0  0  0  0  0  0  0  0
   -5.9050   20.2360  -33.1130 C   0  0  0  0  0  0  0  0  0  0  0  0
   -7.2040   20.5080  -32.6890 C   0  0  0  0  0  0  0  0  0  0  0  0
   -7.4560   21.7190  -32.0760 C   0  0  0  0  0  0  0  0  0  0  0  0
   -6.4390   22.6570  -31.8800 C   0  0  0  0  0  0  0  0  0  0  0  0
   -6.8050   23.9270  -31.2140 C   0  0  0  0  0  0  0  0  0  0  0  0
   -5.5860   24.4270  -30.5130 C   0  0  0  0  0  0  0  0  0  0  0  0
   -4.7830   25.2120  -31.0450 O   0  0  0  0  0  0  0  0  0  0  0  0
   -5.3810   23.9570  -29.1860 N   0  0  0  0  0  0  0  0  0  0  0  0
   -4.2520   24.3580  -28.4040 C   0  0  0  0  0  0  0  0  0  0  0  0
   -3.0690   24.5490  -29.0880 C   0  0  0  0  0  0  0  0  0  0  0  0
   -1.9450   24.9290  -28.4300 C   0  0  0  0  0  0  0  0  0  0  0  0
   -1.9930   25.1260  -27.0610 C   0  0  0  0  0  0  0  0  0  0  0  0
   -0.7750   25.5240  -26.4360 N   0  0  0  0  0  0  0  0  0  0  0  0
    0.4330   25.2970  -26.9770 C   0  0  0  0  0  0  0  0  0  0  0  0
    0.6860   24.6620  -28.1850 O   0  0  0  0  0  0  0  0  0  0  0  0
    1.4100   25.7890  -26.1560 C   0  0  0  0  0  0  0  0  0  0  0  0
    0.7630   26.3400  -25.0660 C   0  0  0  0  0  0  0  0  0  0  0  0
   -0.6020   26.1630  -25.2640 C   0  0  0  0  0  0  0  0  0  0  0  0
   -1.6070   26.5750  -24.3980 O   0  0  0  0  0  0  0  0  0  0  0  0
    1.8380   26.8680  -24.1840 C   0  0  1  0  0  0  0  0  0  0  0  0
    2.6360   25.6970  -23.6680 C   0  0  0  0  0  0  0  0  0  0  0  0
    3.2710   25.1640  -24.7310 C   0  0  0  0  0  0  0  0  0  0  0  0
    2.8710   25.9890  -25.9240 C   0  0  2  0  0  0  0  0  0  0  0  0
    2.8340   27.3410  -25.2310 C   0  0  0  0  0  0  0  0  0  0  0  0
   -3.1690   24.9390  -26.3630 C   0  0  0  0  0  0  0  0  0  0  0  0
   -4.3270   24.5470  -27.0410 C   0  0  0  0  0  0  0  0  0  0  0  0
   -5.1500   22.3770  -32.3060 C   0  0  0  0  0  0  0  0  0  0  0  0
   -4.9060   21.1630  -32.9190 C   0  0  0  0  0  0  0  0  0  0  0  0
   -6.1909   17.6288  -31.8683 H   0  0  0  0  0  0  0  0  0  0  0  0
   -7.3856   17.3848  -33.1873 H   0  0  0  0  0  0  0  0  0  0  0  0
   -5.8462   16.4591  -33.1873 H   0  0  0  0  0  0  0  0  0  0  0  0
   -8.0101   19.7748  -32.8392 H   0  0  0  0  0  0  0  0  0  0  0  0
   -8.4762   21.9498  -31.7356 H   0  0  0  0  0  0  0  0  0  0  0  0
   -7.1376   24.6621  -31.9617 H   0  0  0  0  0  0  0  0  0  0  0  0
   -7.6279   23.7702  -30.5010 H   0  0  0  0  0  0  0  0  0  0  0  0
   -6.0520   23.2900  -28.7190 H   0  0  0  0  0  0  0  0  0  0  0  0
   -3.0369   24.3918  -30.1762 H   0  0  0  0  0  0  0  0  0  0  0  0
   -1.0041   25.0791  -28.9797 H   0  0  0  0  0  0  0  0  0  0  0  0
    1.1670   23.7530  -28.1640 H   0  0  0  0  0  0  0  0  0  0  0  0
   -1.6050   27.5780  -24.1610 H   0  0  0  0  0  0  0  0  0  0  0  0
    1.4563   27.5466  -23.4069 H   0  0  0  0  0  0  0  0  0  0  0  0
    2.6895   25.3461  -22.6269 H   0  0  0  0  0  0  0  0  0  0  0  0
    3.9480   24.2970  -24.7270 H   0  0  0  0  0  0  0  0  0  0  0  0
    3.4785   25.8181  -26.8250 H   0  0  0  0  0  0  0  0  0  0  0  0
    3.8036   27.6416  -24.8074 H   0  0  0  0  0  0  0  0  0  0  0  0
    2.5925   28.2342  -25.8259 H   0  0  0  0  0  0  0  0  0  0  0  0
   -3.1950   25.0982  -25.2749 H   0  0  0  0  0  0  0  0  0  0  0  0
   -5.2729   24.3935  -26.5009 H   0  0  0  0  0  0  0  0  0  0  0  0
   -4.3390   23.1055  -32.1592 H   0  0  0  0  0  0  0  0  0  0  0  0
   -3.8866   20.9311  -33.2610 H   0  0  0  0  0  0  0  0  0  0  0  0
  1  2  1  0
  2  3  2  0
  2  4  2  0
  2  5  1  0
  5  6  2  0
  6  7  1  0
  7  8  2  0
  8  9  1  0
  9 10  1  0
 10 11  2  0
 10 12  1  0
 12 13  1  0
 13 14  2  0
 14 15  1  0
 15 16  2  0
 16 17  1  0
 17 18  1  0
 18 19  1  0
 18 20  2  0
 20 21  1  0
 21 22  2  0
 22 23  1  0
 21 24  1  0
 24 25  1  0
 25 26  2  0
 26 27  1  0
 27 28  1  0
 16 29  1  0
 29 30  2  0
  8 31  1  0
 31 32  2  0
 32  5  1  0
 30 13  1  0
 22 17  1  0
 28 24  1  0
 27 20  1  0
  1 33  1  0
  1 34  1  0
  1 35  1  0
  6 36  1  0
  7 37  1  0
  9 38  1  0
  9 39  1  0
 12 40  1  0
 14 41  1  0
 15 42  1  0
 19 43  1  0
 23 44  1  0
 24 45  1  1
 25 46  1  0
 26 47  1  0
 27 48  1  6
 28 49  1  0
 28 50  1  0
 29 51  1  0
 30 52  1  0
 31 53  1  0
 32 54  1  0
M  END
>  <smiles>  (11) 
CS(=O)(=O)c1ccc(CC(=O)Nc2ccc(-n3c(O)c4c(c3O)C3C=CC4C3)cc2)cc1

>  <score_type>  (11) 
oracle

>  <origin>  (11) 
adgpu

>  <m_score__min__energy>  (11) 
-10.43

>  <m_primary>  (11) 
energy

$$$$
11:0
     RDKit          3D

 57 60  0  0  0  0  0  0  0  0999 V2000
   -2.7550   19.9430  -32.8760 C   0  0  0  0  0  0  0  0  0  0  0  0
   -1.3780   19.8280  -32.3030 C   0  0  0  0  0  0  0  0  0  0  0  0
   -0.2570   19.8510  -33.1430 C   0  0  0  0  0  0  0  0  0  0  0  0
    1.0180   19.7620  -32.5840 C   0  0  0  0  0  0  0  0  0  0  0  0
    1.1650   19.6500  -31.2010 C   0  0  0  0  0  0  0  0  0  0  0  0
    0.0230   19.6230  -30.3870 C   0  0  0  0  0  0  0  0  0  0  0  0
    0.1420   19.5560  -28.8940 C   0  0  0  0  0  0  0  0  0  0  0  0
   -1.0880   20.0430  -28.2730 N   0  0  0  0  0  0  0  0  0  0  0  0
   -1.9010   19.3500  -27.4380 C   0  0  0  0  0  0  0  0  0  0  0  0
   -3.0180   20.0380  -27.0840 N   0  0  0  0  0  0  0  0  0  0  0  0
   -2.8800   21.2020  -27.7440 C   0  0  0  0  0  0  0  0  0  0  0  0
   -3.7590   22.2810  -27.7520 C   0  0  0  0  0  0  0  0  0  0  0  0
   -3.4280   23.4090  -28.5340 C   0  0  0  0  0  0  0  0  0  0  0  0
   -4.3260   24.5330  -28.5520 N   0  0  0  0  0  0  0  0  0  0  0  0
   -5.3620   24.9200  -29.8900 S   0  0  0  0  0  0  0  0  0  0  0  0
   -6.4900   25.7880  -29.4050 O   0  0  0  0  0  0  0  0  0  0  0  0
   -4.5770   25.6750  -30.9240 O   0  0  0  0  0  0  0  0  0  0  0  0
   -5.9750   23.4380  -30.6160 C   0  0  0  0  0  0  0  0  0  0  0  0
   -7.2510   22.9790  -30.2820 C   0  0  0  0  0  0  0  0  0  0  0  0
   -7.7590   21.8130  -30.8610 C   0  0  0  0  0  0  0  0  0  0  0  0
   -6.9940   21.0720  -31.7930 C   0  0  0  0  0  0  0  0  0  0  0  0
   -7.5160   19.7860  -32.4660 C   0  0  0  0  0  0  0  0  0  0  0  0
   -7.3240   18.5230  -31.5940 C   0  0  0  0  0  0  0  0  0  0  0  0
   -9.0270   19.9350  -32.7520 C   0  0  0  0  0  0  0  0  0  0  0  0
   -6.7630   19.5540  -33.7950 C   0  0  0  0  0  0  0  0  0  0  0  0
   -5.7050   21.5550  -32.1180 C   0  0  0  0  0  0  0  0  0  0  0  0
   -5.2030   22.7210  -31.5330 C   0  0  0  0  0  0  0  0  0  0  0  0
   -2.2230   23.4030  -29.2930 C   0  0  0  0  0  0  0  0  0  0  0  0
   -1.3570   22.2960  -29.2610 C   0  0  0  0  0  0  0  0  0  0  0  0
   -1.7240   21.2100  -28.4670 C   0  0  0  0  0  0  0  0  0  0  0  0
   -1.2100   19.7240  -30.9570 N   0  0  0  0  0  0  0  0  0  0  0  0
   -3.4884   20.0043  -32.0585 H   0  0  0  0  0  0  0  0  0  0  0  0
   -2.8198   20.8497  -33.4954 H   0  0  0  0  0  0  0  0  0  0  0  0
   -2.9693   19.0596  -33.4954 H   0  0  0  0  0  0  0  0  0  0  0  0
   -0.3810   19.9384  -34.2325 H   0  0  0  0  0  0  0  0  0  0  0  0
    1.9062   19.7801  -33.2326 H   0  0  0  0  0  0  0  0  0  0  0  0
    2.1675   19.5835  -30.7531 H   0  0  0  0  0  0  0  0  0  0  0  0
    0.3164   18.5137  -28.5887 H   0  0  0  0  0  0  0  0  0  0  0  0
    0.9841   20.1851  -28.5699 H   0  0  0  0  0  0  0  0  0  0  0  0
   -1.6786   18.3329  -27.0828 H   0  0  0  0  0  0  0  0  0  0  0  0
   -4.6882   22.2556  -27.1639 H   0  0  0  0  0  0  0  0  0  0  0  0
   -4.2920   25.2210  -27.7670 H   0  0  0  0  0  0  0  0  0  0  0  0
   -7.8606   23.5394  -29.5579 H   0  0  0  0  0  0  0  0  0  0  0  0
   -8.7669   21.4665  -30.5887 H   0  0  0  0  0  0  0  0  0  0  0  0
   -7.3664   18.8016  -30.5307 H   0  0  0  0  0  0  0  0  0  0  0  0
   -8.1225   17.7996  -31.8156 H   0  0  0  0  0  0  0  0  0  0  0  0
   -6.3466   18.0696  -31.8156 H   0  0  0  0  0  0  0  0  0  0  0  0
   -9.5766   19.9892  -31.8007 H   0  0  0  0  0  0  0  0  0  0  0  0
   -9.2019   20.8548  -33.3295 H   0  0  0  0  0  0  0  0  0  0  0  0
   -9.3782   19.0671  -33.3295 H   0  0  0  0  0  0  0  0  0  0  0  0
   -5.7318   19.2363  -33.5815 H   0  0  0  0  0  0  0  0  0  0  0  0
   -7.2750   18.7719  -34.3748 H   0  0  0  0  0  0  0  0  0  0  0  0
   -6.7461   20.4886  -34.3748 H   0  0  0  0  0  0  0  0  0  0  0  0
   -5.0876   21.0042  -32.8428 H   0  0  0  0  0  0  0  0  0  0  0  0
   -4.1955   23.0755  -31.7960 H   0  0  0  0  0  0  0  0  0  0  0  0
   -1.9667   24.2754  -29.9120 H   0  0  0  0  0  0  0  0  0  0  0  0
   -0.4229   22.2868  -29.8418 H   0  0  0  0  0  0  0  0  0  0  0  0
  1  2  1  0
  2  3  2  0
  3  4  1  0
  4  5  2  0
  5  6  1  0
  6  7  1  0
  7  8  1  0
  8  9  1  0
  9 10  2  0
 10 11  1  0
 11 12  2  0
 12 13  1  0
 13 14  1  0
 14 15  1  0
 15 16  2  0
 15 17  2  0
 15 18  1  0
 18 19  2  0
 19 20  1  0
 20 21  2  0
 21 22  1  0
 22 23  1  0
 22 24  1  0
 22 25  1  0
 21 26  1  0
 26 27  2  0
 13 28  2  0
 28 29  1  0
 29 30  2  0
  6 31  2  0
 31  2  1  0
 30  8  1  0
 30 11  1  0
 27 18  1  0
  1 32  1  0
  1 33  1  0
  1 34  1  0
  3 35  1  0
  4 36  1  0
  5 37  1  0
  7 38  1  0
  7 39  1  0
  9 40  1  0
 12 41  1  0
 14 42  1  0
 19 43  1  0
 20 44  1  0
 23 45  1  0
 23 46  1  0
 23 47  1  0
 24 48  1  0
 24 49  1  0
 24 50  1  0
 25 51  1  0
 25 52  1  0
 25 53  1  0
 26 54  1  0
 27 55  1  0
 28 56  1  0
 29 57  1  0
M  END
>  <UniqueID>  (12) 
11

>  <SMILES>  (12) 
Cc1cccc(Cn2cnc3cc(NS(=O)(=O)c4ccc(C(C)(C)C)cc4)ccc32)n1

>  <Energy>  (12) 
99.26061466615776

>  <Genealogy>  (12) 
Cc1cccc(Cn2cnc3cc(NS(=O)(=O)c4ccc(C(C)(C)C)cc4)ccc32)n1 (3D coordinates assigned)
Cc1cccc(Cn2cnc3cc(NS(=O)(=O)c4ccc(C(C)(C)C)cc4)ccc32)n1 (optimized conformer: 99.26061466615776 kcal/mol)

>  <smiles>  (12) 
Cc1cccc(Cn2cnc3cc(NS(=O)(=O)c4ccc(C(C)(C)C)cc4)ccc32)n1

>  <score_type>  (12) 
oracle

>  <origin>  (12) 
adgpu

>  <m_score__min__energy>  (12) 
-10.289999999999999

>  <m_primary>  (12) 
energy

$$$$
12:0
     RDKit          3D

 48 50  0  0  0  0  0  0  0  0999 V2000
   -1.0410   22.4770  -28.9120 C   0  0  0  0  0  0  0  0  0  0  0  0
   -2.3450   23.1950  -29.0780 C   0  0  0  0  0  0  0  0  0  0  0  0
   -2.3900   24.3650  -29.7670 N   0  0  0  0  0  0  0  0  0  0  0  0
   -3.5350   25.0290  -29.9290 N   0  0  0  0  0  0  0  0  0  0  0  0
   -4.6940   24.5530  -29.4030 C   0  0  0  0  0  0  0  0  0  0  0  0
   -6.2220   25.4590  -29.6260 S   0  0  0  0  0  0  0  0  0  0  0  0
   -7.1370   24.0410  -30.3200 C   0  0  0  0  0  0  0  0  0  0  0  0
   -6.4120   23.4790  -31.5010 C   0  0  0  0  0  0  0  0  0  0  0  0
   -5.6600   24.2240  -32.1870 O   0  0  0  0  0  0  0  0  0  0  0  0
   -6.5600   22.0930  -31.8250 N   0  0  0  0  0  0  0  0  0  0  0  0
   -5.5140   21.2460  -32.3230 C   0  0  0  0  0  0  0  0  0  0  0  0
   -5.8690   20.0520  -32.9620 C   0  0  0  0  0  0  0  0  0  0  0  0
   -4.8850   19.1910  -33.4650 C   0  0  0  0  0  0  0  0  0  0  0  0
   -5.3480   17.6640  -34.2220 S   0  0  0  0  0  0  0  0  0  0  0  0
   -4.9670   17.6920  -35.6760 O   0  0  0  0  0  0  0  0  0  0  0  0
   -6.8410   17.5050  -34.1360 O   0  0  0  0  0  0  0  0  0  0  0  0
   -4.5790   16.3040  -33.4420 N   0  0  0  0  0  0  0  0  0  0  0  0
   -5.4340   15.1020  -33.5500 C   0  0  0  0  0  0  0  0  0  0  0  0
   -4.6850   13.8070  -33.1600 C   0  0  0  0  0  0  0  0  0  0  0  0
   -3.4010   14.1080  -32.3830 C   0  0  0  0  0  0  0  0  0  0  0  0
   -2.4720   15.0340  -33.1850 C   0  0  0  0  0  0  0  0  0  0  0  0
   -3.2510   16.0610  -34.0290 C   0  0  0  0  0  0  0  0  0  0  0  0
   -3.5340   19.5420  -33.3480 C   0  0  0  0  0  0  0  0  0  0  0  0
   -3.1720   20.7460  -32.7390 C   0  0  0  0  0  0  0  0  0  0  0  0
   -4.1550   21.6100  -32.2370 C   0  0  0  0  0  0  0  0  0  0  0  0
   -3.7850   22.8350  -31.6840 O   0  0  0  0  0  0  0  0  0  0  0  0
   -4.6880   23.3860  -28.7130 N   0  0  0  0  0  0  0  0  0  0  0  0
   -3.5360   22.6940  -28.5350 C   0  0  0  0  0  0  0  0  0  0  0  0
   -3.5490   21.6140  -27.8880 O   0  0  0  0  0  0  0  0  0  0  0  0
   -0.8225   22.3567  -27.8407 H   0  0  0  0  0  0  0  0  0  0  0  0
   -1.1046   21.4867  -29.3867 H   0  0  0  0  0  0  0  0  0  0  0  0
   -0.2382   23.0603  -29.3867 H   0  0  0  0  0  0  0  0  0  0  0  0
   -7.2348   23.2613  -29.5503 H   0  0  0  0  0  0  0  0  0  0  0  0
   -8.1320   24.3820  -30.6419 H   0  0  0  0  0  0  0  0  0  0  0  0
   -6.9312   19.7873  -33.0702 H   0  0  0  0  0  0  0  0  0  0  0  0
   -6.2998   15.2236  -32.8825 H   0  0  0  0  0  0  0  0  0  0  0  0
   -5.7445   15.0055  -34.6008 H   0  0  0  0  0  0  0  0  0  0  0  0
   -5.3444   13.1888  -32.5331 H   0  0  0  0  0  0  0  0  0  0  0  0
   -4.4104   13.2779  -34.0845 H   0  0  0  0  0  0  0  0  0  0  0  0
   -3.6624   14.5969  -31.4329 H   0  0  0  0  0  0  0  0  0  0  0  0
   -2.8744   13.1601  -32.1984 H   0  0  0  0  0  0  0  0  0  0  0  0
   -1.8209   15.5752  -32.4828 H   0  0  0  0  0  0  0  0  0  0  0  0
   -1.8883   14.4070  -33.8750 H   0  0  0  0  0  0  0  0  0  0  0  0
   -2.6893   17.0063  -34.0592 H   0  0  0  0  0  0  0  0  0  0  0  0
   -3.3774   15.6645  -35.0472 H   0  0  0  0  0  0  0  0  0  0  0  0
   -2.7563   18.8680  -33.7366 H   0  0  0  0  0  0  0  0  0  0  0  0
   -2.1095   21.0176  -32.6529 H   0  0  0  0  0  0  0  0  0  0  0  0
   -4.2360   23.2040  -30.8560 H   0  0  0  0  0  0  0  0  0  0  0  0
  1  2  1  0
  2  3  2  0
  3  4  1  0
  4  5  1  0
  5  6  1  0
  6  7  1  0
  7  8  1  0
  8  9  2  0
  8 10  1  0
 10 11  1  0
 11 12  2  0
 12 13  1  0
 13 14  1  0
 14 15  2  0
 14 16  2  0
 14 17  1  0
 17 18  1  0
 18 19  1  0
 19 20  1  0
 20 21  1  0
 21 22  1  0
 13 23  2  0
 23 24  1  0
 24 25  2  0
 25 26  1  0
  5 27  2  0
 27 28  1  0
 28 29  2  0
 28  2  1  0
 25 11  1  0
 22 17  1  0
  1 30  1  0
  1 31  1  0
  1 32  1  0
  7 33  1  0
  7 34  1  0
 12 35  1  0
 18 36  1  0
 18 37  1  0
 19 38  1  0
 19 39  1  0
 20 40  1  0
 20 41  1  0
 21 42  1  0
 21 43  1  0
 22 44  1  0
 22 45  1  0
 23 46  1  0
 24 47  1  0
 26 48  1  0
M  CHG  2   4  -1  10  -1
M  END
>  <UniqueID>  (13) 
12

>  <SMILES>  (13) 
Cc1n[n-]c(SCC(=O)[N-]c2cc(S(=O)(=O)N3CCCCC3)ccc2O)nc1=O

>  <Energy>  (13) 
52.58718106547672

>  <Genealogy>  (13) 
Cc1n[n-]c(SCC(=O)[N-]c2cc(S(=O)(=O)N3CCCCC3)ccc2O)nc1=O (protonated)
Cc1n[n-]c(SCC(=O)[N-]c2cc(S(=O)(=O)N3CCCCC3)ccc2O)nc1=O (3D coordinates assigned)
Cc1n[n-]c(SCC(=O)[N-]c2cc(S(=O)(=O)N3CCCCC3)ccc2O)nc1=O (nonaromatic ring conformer: 52.58718106547672 kcal/mol)

>  <smiles>  (13) 
Cc1n[nH]c(SCC(=O)Nc2cc(S(=O)(=O)N3CCCCC3)ccc2O)nc1=O

>  <score_type>  (13) 
oracle

>  <origin>  (13) 
adgpu

>  <m_score__min__energy>  (13) 
-11.949999999999999

>  <m_primary>  (13) 
energy

$$$$
13:0
     RDKit          3D

 50 52  0  0  0  0  0  0  0  0999 V2000
   -3.8420   25.3000  -30.6960 O   0  0  0  0  0  0  0  0  0  0  0  0
   -4.0360   24.4500  -29.7850 C   0  0  0  0  0  0  0  0  0  0  0  0
   -5.3630   23.9770  -29.5290 N   0  0  0  0  0  0  0  0  0  0  0  0
   -6.4890   24.2560  -30.4100 C   0  0  0  0  0  0  0  0  0  0  0  0
   -6.7490   23.0560  -31.2770 C   0  0  0  0  0  0  0  0  0  0  0  0
   -5.6840   22.3380  -31.8440 C   0  0  0  0  0  0  0  0  0  0  0  0
   -5.9320   21.1790  -32.5840 C   0  0  0  0  0  0  0  0  0  0  0  0
   -7.2410   20.7170  -32.7590 C   0  0  0  0  0  0  0  0  0  0  0  0
   -7.4590   19.5530  -33.4940 O   0  0  0  0  0  0  0  0  0  0  0  0
   -8.3100   21.4270  -32.1880 C   0  0  0  0  0  0  0  0  0  0  0  0
   -9.6170   20.9790  -32.3410 O   0  0  0  0  0  0  0  0  0  0  0  0
   -8.0620   22.5890  -31.4480 C   0  0  0  0  0  0  0  0  0  0  0  0
   -2.8960   23.8890  -29.0230 C   0  0  0  0  0  0  0  0  0  0  0  0
   -2.9910   22.5830  -28.5080 C   0  0  0  0  0  0  0  0  0  0  0  0
   -1.8890   21.9670  -27.9010 C   0  0  0  0  0  0  0  0  0  0  0  0
   -2.0060   20.2880  -27.3640 S   0  0  0  0  0  0  0  0  0  0  0  0
   -1.5430   20.1960  -25.9360 O   0  0  0  0  0  0  0  0  0  0  0  0
   -3.4530   19.8840  -27.4040 O   0  0  0  0  0  0  0  0  0  0  0  0
   -1.0890   19.1700  -28.3600 N   0  0  0  0  0  0  0  0  0  0  0  0
    0.0220   18.4710  -27.6860 C   0  0  0  0  0  0  0  0  0  0  0  0
    1.3840   19.1550  -27.8900 C   0  0  0  0  0  0  0  0  0  0  0  0
    2.1480   18.6580  -29.1300 C   0  0  0  0  0  0  0  0  0  0  0  0
    1.5100   19.0080  -30.4850 C   0  0  0  0  0  0  0  0  0  0  0  0
    0.0210   18.6470  -30.5840 C   0  0  0  0  0  0  0  0  0  0  0  0
   -0.8690   19.5950  -29.7550 C   0  0  0  0  0  0  0  0  0  0  0  0
   -0.7020   22.6910  -27.7320 C   0  0  0  0  0  0  0  0  0  0  0  0
   -0.6060   24.0020  -28.2040 C   0  0  0  0  0  0  0  0  0  0  0  0
   -1.6880   24.6010  -28.8580 C   0  0  0  0  0  0  0  0  0  0  0  0
   -1.5500   25.9010  -29.3310 O   0  0  0  0  0  0  0  0  0  0  0  0
   -7.3826   24.4743  -29.8068 H   0  0  0  0  0  0  0  0  0  0  0  0
   -6.2559   25.1250  -31.0429 H   0  0  0  0  0  0  0  0  0  0  0  0
   -4.6508   22.6891  -31.7052 H   0  0  0  0  0  0  0  0  0  0  0  0
   -5.0929   20.6264  -33.0318 H   0  0  0  0  0  0  0  0  0  0  0  0
   -8.3830   19.2780  -33.8050 H   0  0  0  0  0  0  0  0  0  0  0  0
   -8.9010   23.1397  -30.9977 H   0  0  0  0  0  0  0  0  0  0  0  0
   -3.9437   22.0383  -28.5831 H   0  0  0  0  0  0  0  0  0  0  0  0
   -0.1919   18.4338  -26.6077 H   0  0  0  0  0  0  0  0  0  0  0  0
    0.0920   17.4669  -28.1296 H   0  0  0  0  0  0  0  0  0  0  0  0
    1.2165   20.2370  -27.9962 H   0  0  0  0  0  0  0  0  0  0  0  0
    2.0010   18.9091  -27.0132 H   0  0  0  0  0  0  0  0  0  0  0  0
    3.1558   19.0982  -29.1061 H   0  0  0  0  0  0  0  0  0  0  0  0
    2.1423   17.5598  -29.0682 H   0  0  0  0  0  0  0  0  0  0  0  0
    1.6153   20.0908  -30.6479 H   0  0  0  0  0  0  0  0  0  0  0  0
    2.0339   18.4129  -31.2475 H   0  0  0  0  0  0  0  0  0  0  0  0
   -0.2873   18.7046  -31.6383 H   0  0  0  0  0  0  0  0  0  0  0  0
   -0.1056   17.6307  -30.1825 H   0  0  0  0  0  0  0  0  0  0  0  0
   -0.3930   20.5865  -29.7402 H   0  0  0  0  0  0  0  0  0  0  0  0
   -1.8568   19.5967  -30.2390 H   0  0  0  0  0  0  0  0  0  0  0  0
    0.1569   22.2258  -27.2262 H   0  0  0  0  0  0  0  0  0  0  0  0
    0.3266   24.5674  -28.0606 H   0  0  0  0  0  0  0  0  0  0  0  0
  1  2  2  0
  2  3  1  0
  3  4  1  0
  4  5  1  0
  5  6  2  0
  6  7  1  0
  7  8  2  0
  8  9  1  0
  8 10  1  0
 10 11  1  0
 10 12  2  0
  2 13  1  0
 13 14  2  0
 14 15  1  0
 15 16  1  0
 16 17  2  0
 16 18  2  0
 16 19  1  0
 19 20  1  0
 20 21  1  0
 21 22  1  0
 22 23  1  0
 23 24  1  0
 24 25  1  0
 15 26  2  0
 26 27  1  0
 27 28  2  0
 28 29  1  0
 12  5  1  0
 28 13  1  0
 25 19  1  0
  4 30  1  0
  4 31  1  0
  6 32  1  0
  7 33  1  0
  9 34  1  0
 12 35  1  0
 14 36  1  0
 20 37  1  0
 20 38  1  0
 21 39  1  0
 21 40  1  0
 22 41  1  0
 22 42  1  0
 23 43  1  0
 23 44  1  0
 24 45  1  0
 24 46  1  0
 25 47  1  0
 25 48  1  0
 26 49  1  0
 27 50  1  0
M  CHG  3   3  -1  11  -1  29  -1
M  END
>  <UniqueID>  (14) 
13

>  <SMILES>  (14) 
O=C([N-]Cc1ccc(O)c([O-])c1)c1cc(S(=O)(=O)N2CCCCCC2)ccc1[O-]

>  <Energy>  (14) 
61.23624433624111

>  <Genealogy>  (14) 
O=C([N-]Cc1ccc(O)c([O-])c1)c1cc(S(=O)(=O)N2CCCCCC2)ccc1[O-] (protonated)
O=C([N-]Cc1ccc(O)c([O-])c1)c1cc(S(=O)(=O)N2CCCCCC2)ccc1[O-] (3D coordinates assigned)
O=C([N-]Cc1ccc(O)c([O-])c1)c1cc(S(=O)(=O)N2CCCCCC2)ccc1[O-] (nonaromatic ring conformer: 61.23624433624111 kcal/mol)

>  <smiles>  (14) 
O=C(NCc1ccc(O)c(O)c1)c1cc(S(=O)(=O)N2CCCCCC2)ccc1O

>  <score_type>  (14) 
oracle

>  <origin>  (14) 
adgpu

>  <m_score__min__energy>  (14) 
-13.25

>  <m_primary>  (14) 
energy

$$$$
14:0
     RDKit          3D

 24 26  0  0  0  0  0  0  0  0999 V2000
   -5.3920   19.8270  -34.6140 H   0  0  0  0  0  0  0  0  0  0  0  0
   -5.9730   19.0630  -34.2020 N   0  0  0  0  0  0  0  0  0  0  0  0
   -6.8560   19.3120  -33.2930 C   0  0  0  0  0  0  0  0  0  0  0  0
   -7.0960   20.5490  -32.8110 N   0  0  0  0  0  0  0  0  0  0  0  0
   -8.0750   20.5270  -31.8650 C   0  0  0  0  0  0  0  0  0  0  0  0
   -8.5000   21.7670  -31.1430 C   0  0  0  0  0  0  0  0  0  0  0  0
   -8.0173   21.7925  -30.1549 H   0  0  0  0  0  0  0  0  0  0  0  0
   -9.5945   21.7543  -31.0338 H   0  0  0  0  0  0  0  0  0  0  0  0
   -8.0220   23.2590  -32.0820 S   0  0  0  0  0  0  0  0  0  0  0  0
   -6.5170   23.5380  -31.1530 C   0  0  0  0  0  0  0  0  0  0  0  0
   -5.5680   24.4300  -31.5470 N   0  0  0  0  0  0  0  0  0  0  0  0
   -4.6650   24.3180  -30.5650 C   0  0  0  0  0  0  0  0  0  0  0  0
   -3.5000   25.0000  -30.4530 N   0  0  0  0  0  0  0  0  0  0  0  0
   -2.7060   24.7510  -29.3640 C   0  0  0  0  0  0  0  0  0  0  0  0
   -1.5870   25.3820  -29.2210 N   0  0  0  0  0  0  0  0  0  0  0  0
   -1.2630   26.0870  -29.9210 H   0  0  0  0  0  0  0  0  0  0  0  0
   -3.0930   23.8330  -28.4220 N   0  0  0  0  0  0  0  0  0  0  0  0
   -4.2680   23.1480  -28.5400 C   0  0  0  0  0  0  0  0  0  0  0  0
   -4.6150   22.3090  -27.6680 O   0  0  0  0  0  0  0  0  0  0  0  0
   -5.0620   23.4100  -29.6480 C   0  0  0  0  0  0  0  0  0  0  0  0
   -6.2450   22.8840  -29.9900 N   0  0  0  0  0  0  0  0  0  0  0  0
   -8.6080   19.2670  -31.5950 C   0  0  0  0  0  0  0  0  0  0  0  0
   -9.4012   19.0446  -30.8661 H   0  0  0  0  0  0  0  0  0  0  0  0
   -7.8270   18.1450  -32.5780 S   0  0  0  0  0  0  0  0  0  0  0  0
  1  2  1  0
  2  3  2  3
  3  4  1  0
  4  5  1  0
  5  6  1  0
  6  7  1  0
  6  8  1  0
  6  9  1  0
  9 10  1  0
 10 11  2  0
 11 12  1  0
 12 13  1  0
 13 14  1  0
 14 15  2  0
 15 16  1  0
 14 17  1  0
 17 18  1  0
 18 19  2  0
 18 20  1  0
 20 21  1  0
  5 22  2  0
 22 23  1  0
 22 24  1  0
 24  3  1  0
 21 10  1  0
 20 12  2  0
M  CHG  4   4  -1  13  -1  17  -1  21  -1
M  END
>  <UniqueID>  (15) 
14

>  <SMILES>  (15) 
[H]/N=c1/[n-]c(=O)c2[n-]c(SCc3csc(=N)[n-]3)nc2[n-]1

>  <Energy>  (15) 
89.08451070130202

>  <Genealogy>  (15) 
N=c1[n-]c(=O)c2[n-]c(SCc3csc(=N)[n-]3)nc2[n-]1 (protonated)
[H]/N=c1/[n-]c(=O)c2[n-]c(SCc3csc(=N)[n-]3)nc2[n-]1 (cis-trans isomerization)
[H]/N=c1/[n-]c(=O)c2[n-]c(SCc3csc(=N)[n-]3)nc2[n-]1 (3D coordinates assigned)
[H]/N=c1/[n-]c(=O)c2[n-]c(SCc3csc(=N)[n-]3)nc2[n-]1 (optimized conformer: 89.08451070130202 kcal/mol)

>  <smiles>  (15) 
N=c1[nH]c(=O)c2[nH]c(SCc3csc(=N)[nH]3)nc2[nH]1

>  <score_type>  (15) 
oracle

>  <origin>  (15) 
adgpu

>  <m_score__min__energy>  (15) 
-10.039999999999999

>  <m_primary>  (15) 
energy

$$$$
15:0
     RDKit          3D

 57 60  0  0  0  0  0  0  0  0999 V2000
   -5.7770   25.3780  -30.9840 O   0  0  0  0  0  0  0  0  0  0  0  0
   -4.7260   24.7000  -30.8380 C   0  0  0  0  0  0  0  0  0  0  0  0
   -3.6060   25.2970  -30.1700 N   0  0  0  0  0  0  0  0  0  0  0  0
   -2.7990   24.6660  -29.1640 C   0  0  0  0  0  0  0  0  0  0  0  0
   -3.3660   24.1230  -27.9980 C   0  0  0  0  0  0  0  0  0  0  0  0
   -2.5480   23.5800  -27.0070 C   0  0  0  0  0  0  0  0  0  0  0  0
   -1.1550   23.5740  -27.1650 C   0  0  0  0  0  0  0  0  0  0  0  0
   -0.1170   22.9960  -25.8620 S   0  0  0  0  0  0  0  0  0  0  0  0
    1.1110   22.3580  -26.4520 O   0  0  0  0  0  0  0  0  0  0  0  0
   -0.8530   21.9440  -25.0800 O   0  0  0  0  0  0  0  0  0  0  0  0
    0.3710   24.2900  -24.7880 N   0  0  0  0  0  0  0  0  0  0  0  0
   -0.7710   24.9230  -24.0840 C   0  0  0  0  0  0  0  0  0  0  0  0
   -0.8000   26.4530  -24.2030 C   0  0  0  0  0  0  0  0  0  0  0  0
   -0.6100   26.8640  -25.6580 C   0  0  0  0  0  0  0  0  0  0  0  0
    0.7230   26.3500  -26.2250 C   0  0  0  0  0  0  0  0  0  0  0  0
    1.3550   25.2080  -25.3990 C   0  0  0  0  0  0  0  0  0  0  0  0
   -0.5950   24.0470  -28.3600 C   0  0  0  0  0  0  0  0  0  0  0  0
   -1.4150   24.5860  -29.3560 C   0  0  0  0  0  0  0  0  0  0  0  0
   -4.6880   23.3200  -31.3650 C   0  0  0  0  0  0  0  0  0  0  0  0
   -3.4790   22.7110  -31.4870 N   0  0  0  0  0  0  0  0  0  0  0  0
   -3.3710   21.4350  -31.9370 C   0  0  0  0  0  0  0  0  0  0  0  0
   -1.7900   20.7000  -32.1150 S   0  0  0  0  0  0  0  0  0  0  0  0
   -1.1950   21.1090  -33.4340 O   0  0  0  0  0  0  0  0  0  0  0  0
   -1.9320   19.2050  -32.0900 O   0  0  0  0  0  0  0  0  0  0  0  0
   -0.7230   21.2220  -30.7830 C   0  0  0  0  0  0  0  0  0  0  0  0
   -1.1290   20.5590  -29.4960 C   0  0  0  0  0  0  0  0  0  0  0  0
   -0.2380   19.7000  -28.8300 C   0  0  0  0  0  0  0  0  0  0  0  0
   -0.5980   19.1190  -27.6100 C   0  0  0  0  0  0  0  0  0  0  0  0
   -1.8440   19.3980  -27.0410 C   0  0  0  0  0  0  0  0  0  0  0  0
   -2.7310   20.2610  -27.6920 C   0  0  0  0  0  0  0  0  0  0  0  0
   -2.3760   20.8430  -28.9130 C   0  0  0  0  0  0  0  0  0  0  0  0
   -4.4850   20.7430  -32.2920 N   0  0  0  0  0  0  0  0  0  0  0  0
   -5.7130   21.3110  -32.2080 C   0  0  0  0  0  0  0  0  0  0  0  0
   -5.8510   22.6220  -31.7490 C   0  0  0  0  0  0  0  0  0  0  0  0
   -7.4490   23.3600  -31.7650 Cl  0  0  0  0  0  0  0  0  0  0  0  0
   -4.4581   24.1263  -27.8666 H   0  0  0  0  0  0  0  0  0  0  0  0
   -2.9979   23.1547  -26.0977 H   0  0  0  0  0  0  0  0  0  0  0  0
   -1.7043   24.5243  -24.5083 H   0  0  0  0  0  0  0  0  0  0  0  0
   -0.6600   24.6865  -23.0155 H   0  0  0  0  0  0  0  0  0  0  0  0
   -1.7686   26.8286  -23.8414 H   0  0  0  0  0  0  0  0  0  0  0  0
    0.0136   26.8787  -23.5973 H   0  0  0  0  0  0  0  0  0  0  0  0
   -1.4351   26.4497  -26.2560 H   0  0  0  0  0  0  0  0  0  0  0  0
   -0.6016   27.9629  -25.7054 H   0  0  0  0  0  0  0  0  0  0  0  0
    0.5461   25.9819  -27.2464 H   0  0  0  0  0  0  0  0  0  0  0  0
    1.4287   27.1933  -26.1966 H   0  0  0  0  0  0  0  0  0  0  0  0
    2.0084   24.6224  -26.0624 H   0  0  0  0  0  0  0  0  0  0  0  0
    1.9043   25.6810  -24.5716 H   0  0  0  0  0  0  0  0  0  0  0  0
    0.4928   23.9939  -28.5145 H   0  0  0  0  0  0  0  0  0  0  0  0
   -0.9704   24.9487  -30.2945 H   0  0  0  0  0  0  0  0  0  0  0  0
    0.3151   20.9466  -31.0209 H   0  0  0  0  0  0  0  0  0  0  0  0
   -0.8070   22.3124  -30.6648 H   0  0  0  0  0  0  0  0  0  0  0  0
    0.7466   19.4838  -29.2702 H   0  0  0  0  0  0  0  0  0  0  0  0
    0.1004   18.4413  -27.0972 H   0  0  0  0  0  0  0  0  0  0  0  0
   -2.1265   18.9391  -26.0820 H   0  0  0  0  0  0  0  0  0  0  0  0
   -3.7103   20.4826  -27.2426 H   0  0  0  0  0  0  0  0  0  0  0  0
   -3.0750   21.5253  -29.4188 H   0  0  0  0  0  0  0  0  0  0  0  0
   -6.6038   20.7368  -32.5026 H   0  0  0  0  0  0  0  0  0  0  0  0
  1  2  2  0
  2  3  1  0
  3  4  1  0
  4  5  2  0
  5  6  1  0
  6  7  2  0
  7  8  1  0
  8  9  2  0
  8 10  2  0
  8 11  1  0
 11 12  1  0
 12 13  1  0
 13 14  1  0
 14 15  1  0
 15 16  1  0
  7 17  1  0
 17 18  2  0
  2 19  1  0
 19 20  2  0
 20 21  1  0
 21 22  1  0
 22 23  2  0
 22 24  2  0
 22 25  1  0
 25 26  1  0
 26 27  2  0
 27 28  1  0
 28 29  2  0
 29 30  1  0
 30 31  2  0
 21 32  2  0
 32 33  1  0
 33 34  2  0
 34 35  1  0
 18  4  1  0
 34 19  1  0
 16 11  1  0
 31 26  1  0
  5 36  1  0
  6 37  1  0
 12 38  1  0
 12 39  1  0
 13 40  1  0
 13 41  1  0
 14 42  1  0
 14 43  1  0
 15 44  1  0
 15 45  1  0
 16 46  1  0
 16 47  1  0
 17 48  1  0
 18 49  1  0
 25 50  1  0
 25 51  1  0
 27 52  1  0
 28 53  1  0
 29 54  1  0
 30 55  1  0
 31 56  1  0
 33 57  1  0
M  CHG  1   3  -1
M  END
>  <UniqueID>  (16) 
15

>  <SMILES>  (16) 
O=C([N-]c1ccc(S(=O)(=O)N2CCCCC2)cc1)c1nc(S(=O)(=O)Cc2ccccc2)ncc1Cl

>  <Energy>  (16) 
70.88519880612073

>  <Genealogy>  (16) 
O=C([N-]c1ccc(S(=O)(=O)N2CCCCC2)cc1)c1nc(S(=O)(=O)Cc2ccccc2)ncc1Cl (protonated)
O=C([N-]c1ccc(S(=O)(=O)N2CCCCC2)cc1)c1nc(S(=O)(=O)Cc2ccccc2)ncc1Cl (3D coordinates assigned)
O=C([N-]c1ccc(S(=O)(=O)N2CCCCC2)cc1)c1nc(S(=O)(=O)Cc2ccccc2)ncc1Cl (nonaromatic ring conformer: 70.88519880612073 kcal/mol)

>  <smiles>  (16) 
O=C(Nc1ccc(S(=O)(=O)N2CCCCC2)cc1)c1nc(S(=O)(=O)Cc2ccccc2)ncc1Cl

>  <score_type>  (16) 
oracle

>  <origin>  (16) 
adgpu

>  <m_score__min__energy>  (16) 
-12.41

>  <m_primary>  (16) 
energy

$$$$
16:0
     RDKit          3D

 62 65  0  0  0  0  0  0  0  0999 V2000
    2.1740   25.0740  -27.4220 C   0  0  0  0  0  0  0  0  0  0  0  0
    0.8500   25.3760  -27.8510 O   0  0  0  0  0  0  0  0  0  0  0  0
   -0.2680   24.5650  -27.5990 C   0  0  0  0  0  0  0  0  0  0  0  0
   -0.1920   23.4100  -26.7960 C   0  0  0  0  0  0  0  0  0  0  0  0
   -1.3370   22.6350  -26.5500 C   0  0  0  0  0  0  0  0  0  0  0  0
   -1.2400   21.3980  -25.7050 C   0  0  0  0  0  0  0  0  0  0  0  0
   -1.1620   20.2240  -26.5690 N   0  0  0  0  0  0  0  0  0  0  0  0
   -2.1720   19.8590  -27.5170 C   0  0  0  0  0  0  0  0  0  0  0  0
   -3.0060   18.9690  -27.2070 O   0  0  0  0  0  0  0  0  0  0  0  0
   -2.2580   20.5090  -28.8410 C   0  0  0  0  0  0  0  0  0  0  0  0
   -3.4270   21.2050  -29.1840 C   0  0  0  0  0  0  0  0  0  0  0  0
   -3.5230   21.8820  -30.4040 C   0  0  0  0  0  0  0  0  0  0  0  0
   -4.9430   22.8740  -30.7600 S   0  0  0  0  0  0  0  0  0  0  0  0
   -4.4850   24.2350  -31.2030 O   0  0  0  0  0  0  0  0  0  0  0  0
   -5.7480   23.0440  -29.5030 O   0  0  0  0  0  0  0  0  0  0  0  0
   -5.9770   22.1710  -31.9870 N   0  0  0  0  0  0  0  0  0  0  0  0
   -7.3270   21.8980  -31.4990 C   0  0  0  0  0  0  0  0  0  0  0  0
   -7.8840   20.7890  -32.3760 C   0  0  0  0  0  0  0  0  0  0  0  0
   -6.6670   20.1000  -32.9720 C   0  0  0  0  0  0  0  0  0  0  0  0
   -5.4650   20.8920  -32.4760 C   0  0  0  0  0  0  0  0  0  0  0  0
   -2.4650   21.8090  -31.3190 C   0  0  0  0  0  0  0  0  0  0  0  0
   -1.3180   21.0760  -31.0070 C   0  0  0  0  0  0  0  0  0  0  0  0
   -1.2000   20.4270  -29.7720 C   0  0  0  0  0  0  0  0  0  0  0  0
    0.0180   19.7390  -29.4550 N   0  0  0  0  0  0  0  0  0  0  0  0
    1.0080   20.3940  -28.5910 C   0  0  0  0  0  0  0  0  0  0  0  0
    2.1690   19.4500  -28.2570 C   0  0  0  0  0  0  0  0  0  0  0  0
    1.6310   18.0790  -27.8350 C   0  0  0  0  0  0  0  0  0  0  0  0
    0.7150   17.4340  -28.9010 C   0  0  0  0  0  0  0  0  0  0  0  0
    0.2740   18.4050  -30.0100 C   0  0  0  0  0  0  0  0  0  0  0  0
   -2.5560   22.9980  -27.1380 C   0  0  0  0  0  0  0  0  0  0  0  0
   -2.6360   24.1380  -27.9420 C   0  0  0  0  0  0  0  0  0  0  0  0
   -1.4990   24.9200  -28.1710 C   0  0  0  0  0  0  0  0  0  0  0  0
   -1.5950   26.0540  -28.9680 O   0  0  0  0  0  0  0  0  0  0  0  0
    2.2103   25.0657  -26.3226 H   0  0  0  0  0  0  0  0  0  0  0  0
    2.4674   24.0859  -27.8060 H   0  0  0  0  0  0  0  0  0  0  0  0
    2.8669   25.8372  -27.8060 H   0  0  0  0  0  0  0  0  0  0  0  0
    0.7723   23.1127  -26.3580 H   0  0  0  0  0  0  0  0  0  0  0  0
   -0.3381   21.4522  -25.0776 H   0  0  0  0  0  0  0  0  0  0  0  0
   -2.1295   21.3221  -25.0623 H   0  0  0  0  0  0  0  0  0  0  0  0
   -4.2770   21.2183  -28.4859 H   0  0  0  0  0  0  0  0  0  0  0  0
   -7.2933   21.5720  -30.4490 H   0  0  0  0  0  0  0  0  0  0  0  0
   -7.9576   22.7981  -31.5457 H   0  0  0  0  0  0  0  0  0  0  0  0
   -8.4719   20.0803  -31.7742 H   0  0  0  0  0  0  0  0  0  0  0  0
   -8.5563   21.1797  -33.1540 H   0  0  0  0  0  0  0  0  0  0  0  0
   -6.6087   19.0571  -32.6270 H   0  0  0  0  0  0  0  0  0  0  0  0
   -6.7117   20.0730  -34.0708 H   0  0  0  0  0  0  0  0  0  0  0  0
   -4.9627   20.3486  -31.6621 H   0  0  0  0  0  0  0  0  0  0  0  0
   -4.7305   21.0417  -33.2810 H   0  0  0  0  0  0  0  0  0  0  0  0
   -2.5377   22.3300  -32.2851 H   0  0  0  0  0  0  0  0  0  0  0  0
   -0.4994   21.0079  -31.7386 H   0  0  0  0  0  0  0  0  0  0  0  0
    1.4044   21.2801  -29.1084 H   0  0  0  0  0  0  0  0  0  0  0  0
    0.5127   20.6803  -27.6515 H   0  0  0  0  0  0  0  0  0  0  0  0
    2.8083   19.3321  -29.1443 H   0  0  0  0  0  0  0  0  0  0  0  0
    2.7523   19.8775  -27.4282 H   0  0  0  0  0  0  0  0  0  0  0  0
    2.4840   17.4085  -27.6540 H   0  0  0  0  0  0  0  0  0  0  0  0
    1.0259   18.2283  -26.9286 H   0  0  0  0  0  0  0  0  0  0  0  0
    1.2594   16.5994  -29.3670 H   0  0  0  0  0  0  0  0  0  0  0  0
   -0.1973   17.1041  -28.3824 H   0  0  0  0  0  0  0  0  0  0  0  0
    1.0690   18.4746  -30.7670 H   0  0  0  0  0  0  0  0  0  0  0  0
   -0.6526   18.0262  -30.4659 H   0  0  0  0  0  0  0  0  0  0  0  0
   -3.4523   22.3839  -26.9662 H   0  0  0  0  0  0  0  0  0  0  0  0
   -3.5967   24.4216  -28.3966 H   0  0  0  0  0  0  0  0  0  0  0  0
  1  2  1  0
  2  3  1  0
  3  4  2  0
  4  5  1  0
  5  6  1  0
  6  7  1  0
  7  8  1  0
  8  9  2  0
  8 10  1  0
 10 11  2  0
 11 12  1  0
 12 13  1  0
 13 14  2  0
 13 15  2  0
 13 16  1  0
 16 17  1  0
 17 18  1  0
 18 19  1  0
 19 20  1  0
 12 21  2  0
 21 22  1  0
 22 23  2  0
 23 24  1  0
 24 25  1  0
 25 26  1  0
 26 27  1  0
 27 28  1  0
 28 29  1  0
  5 30  2  0
 30 31  1  0
 31 32  2  0
 32 33  1  0
 32  3  1  0
 23 10  1  0
 29 24  1  0
 20 16  1  0
  1 34  1  0
  1 35  1  0
  1 36  1  0
  4 37  1  0
  6 38  1  0
  6 39  1  0
 11 40  1  0
 17 41  1  0
 17 42  1  0
 18 43  1  0
 18 44  1  0
 19 45  1  0
 19 46  1  0
 20 47  1  0
 20 48  1  0
 21 49  1  0
 22 50  1  0
 25 51  1  0
 25 52  1  0
 26 53  1  0
 26 54  1  0
 27 55  1  0
 27 56  1  0
 28 57  1  0
 28 58  1  0
 29 59  1  0
 29 60  1  0
 30 61  1  0
 31 62  1  0
M  CHG  2   7  -1  33  -1
M  END
>  <UniqueID>  (17) 
16

>  <SMILES>  (17) 
COc1cc(C[N-]C(=O)c2cc(S(=O)(=O)N3CCCC3)ccc2N2CCCCC2)ccc1[O-]

>  <Energy>  (17) 
72.25411961740322

>  <Genealogy>  (17) 
COc1cc(C[N-]C(=O)c2cc(S(=O)(=O)N3CCCC3)ccc2N2CCCCC2)ccc1[O-] (protonated)
COc1cc(C[N-]C(=O)c2cc(S(=O)(=O)N3CCCC3)ccc2N2CCCCC2)ccc1[O-] (3D coordinates assigned)
COc1cc(C[N-]C(=O)c2cc(S(=O)(=O)N3CCCC3)ccc2N2CCCCC2)ccc1[O-] (nonaromatic ring conformer: 72.25411961740322 kcal/mol)

>  <smiles>  (17) 
COc1cc(CNC(=O)c2cc(S(=O)(=O)N3CCCC3)ccc2N2CCCCC2)ccc1O

>  <score_type>  (17) 
oracle

>  <origin>  (17) 
adgpu

>  <m_score__min__energy>  (17) 
-13.210000000000001

>  <m_primary>  (17) 
energy

$$$$
17:0
     RDKit          3D

 44 46  0  0  0  0  0  0  0  0999 V2000
    0.1250   25.9210  -23.3540 N   0  0  0  0  0  0  0  0  0  0  0  0
    0.3810   27.2270  -23.8870 C   0  0  0  0  0  0  0  0  0  0  0  0
    0.6200   28.3070  -22.9790 N   0  0  0  0  0  0  0  0  0  0  0  0
    0.4520   27.4430  -25.1750 N   0  0  0  0  0  0  0  0  0  0  0  0
    0.1630   26.4640  -26.1860 C   0  0  0  0  0  0  0  0  0  0  0  0
   -0.8460   26.6810  -27.1360 C   0  0  0  0  0  0  0  0  0  0  0  0
   -1.0730   25.7440  -28.1460 C   0  0  0  0  0  0  0  0  0  0  0  0
   -0.2890   24.5870  -28.2320 C   0  0  0  0  0  0  0  0  0  0  0  0
   -0.5950   23.4460  -29.5870 S   0  0  0  0  0  0  0  0  0  0  0  0
   -2.3700   23.4500  -29.3330 C   0  0  0  0  0  0  0  0  0  0  0  0
   -3.2310   23.7910  -30.3850 C   0  0  0  0  0  0  0  0  0  0  0  0
   -4.6160   23.7950  -30.1840 C   0  0  0  0  0  0  0  0  0  0  0  0
   -5.1420   23.4520  -28.9350 C   0  0  0  0  0  0  0  0  0  0  0  0
   -4.2850   23.1000  -27.8870 C   0  0  0  0  0  0  0  0  0  0  0  0
   -2.9010   23.0960  -28.0860 C   0  0  0  0  0  0  0  0  0  0  0  0
    0.7230   24.3580  -27.2770 C   0  0  0  0  0  0  0  0  0  0  0  0
    1.7450   22.8740  -27.3000 S   0  0  0  0  0  0  0  0  0  0  0  0
    0.3460   21.7540  -27.1040 C   0  0  0  0  0  0  0  0  0  0  0  0
    0.1580   20.7560  -28.0720 C   0  0  0  0  0  0  0  0  0  0  0  0
   -0.8570   19.8100  -27.9260 C   0  0  0  0  0  0  0  0  0  0  0  0
   -1.7000   19.8550  -26.8170 C   0  0  0  0  0  0  0  0  0  0  0  0
   -1.5440   20.8610  -25.8610 C   0  0  0  0  0  0  0  0  0  0  0  0
   -0.5390   21.8350  -26.0010 C   0  0  0  0  0  0  0  0  0  0  0  0
   -0.4610   22.9010  -25.0400 N   0  0  0  0  0  0  0  0  0  0  0  0
    0.4480   22.9200  -24.1850 O   0  0  0  0  0  0  0  0  0  0  0  0
   -1.2640   24.0110  -25.1760 O   0  0  0  0  0  0  0  0  0  0  0  0
    0.9620   25.3170  -26.2820 C   0  0  0  0  0  0  0  0  0  0  0  0
    0.1600   25.0610  -23.9430 H   0  0  0  0  0  0  0  0  0  0  0  0
   -0.0000   25.7940  -22.3260 H   0  0  0  0  0  0  0  0  0  0  0  0
    0.8210   29.2700  -23.3260 H   0  0  0  0  0  0  0  0  0  0  0  0
    0.5900   28.1450  -21.9470 H   0  0  0  0  0  0  0  0  0  0  0  0
    0.7560   28.3850  -25.5110 H   0  0  0  0  0  0  0  0  0  0  0  0
   -1.4603   27.5921  -27.0851 H   0  0  0  0  0  0  0  0  0  0  0  0
   -1.8741   25.9161  -28.8799 H   0  0  0  0  0  0  0  0  0  0  0  0
   -2.8178   24.0557  -31.3695 H   0  0  0  0  0  0  0  0  0  0  0  0
   -5.2907   24.0680  -31.0088 H   0  0  0  0  0  0  0  0  0  0  0  0
   -6.2305   23.4589  -28.7763 H   0  0  0  0  0  0  0  0  0  0  0  0
   -4.7001   22.8262  -26.9058 H   0  0  0  0  0  0  0  0  0  0  0  0
   -2.2284   22.8145  -27.2624 H   0  0  0  0  0  0  0  0  0  0  0  0
    0.8159   20.7191  -28.9528 H   0  0  0  0  0  0  0  0  0  0  0  0
   -0.9921   19.0275  -28.6872 H   0  0  0  0  0  0  0  0  0  0  0  0
   -2.4885   19.0978  -26.6947 H   0  0  0  0  0  0  0  0  0  0  0  0
   -2.2142   20.8920  -24.9893 H   0  0  0  0  0  0  0  0  0  0  0  0
    1.7860   25.1670  -25.5689 H   0  0  0  0  0  0  0  0  0  0  0  0
  1  2  1  0
  2  3  1  0
  2  4  2  3
  4  5  1  0
  5  6  2  0
  6  7  1  0
  7  8  2  0
  8  9  1  0
  9 10  1  0
 10 11  2  0
 11 12  1  0
 12 13  2  0
 13 14  1  0
 14 15  2  0
  8 16  1  0
 16 17  1  0
 17 18  1  0
 18 19  2  0
 19 20  1  0
 20 21  2  0
 21 22  1  0
 22 23  2  0
 23 24  1  0
 24 25  2  0
 24 26  1  0
 16 27  2  0
 27  5  1  0
 15 10  1  0
 23 18  1  0
  1 28  1  0
  1 29  1  0
  3 30  1  0
  3 31  1  0
  4 32  1  0
  6 33  1  0
  7 34  1  0
 11 35  1  0
 12 36  1  0
 13 37  1  0
 14 38  1  0
 15 39  1  0
 19 40  1  0
 20 41  1  0
 21 42  1  0
 22 43  1  0
 27 44  1  0
M  CHG  3   4   1  24   1  26  -1
M  END
>  <UniqueID>  (18) 
17

>  <SMILES>  (18) 
NC(N)=[NH+]c1ccc(Sc2ccccc2)c(Sc2ccccc2[N+](=O)[O-])c1

>  <Energy>  (18) 
48.58761533116529

>  <Genealogy>  (18) 
NC(N)=[NH+]c1ccc(Sc2ccccc2)c(Sc2ccccc2[N+](=O)[O-])c1 (protonated)
NC(N)=[NH+]c1ccc(Sc2ccccc2)c(Sc2ccccc2[N+](=O)[O-])c1 (3D coordinates assigned)
NC(N)=[NH+]c1ccc(Sc2ccccc2)c(Sc2ccccc2[N+](=O)[O-])c1 (optimized conformer: 48.58761533116529 kcal/mol)

>  <smiles>  (18) 
NC(N)=Nc1ccc(Sc2ccccc2)c(Sc2ccccc2[N+](=O)[O-])c1

>  <score_type>  (18) 
oracle

>  <origin>  (18) 
adgpu

>  <m_score__min__energy>  (18) 
-9.1400000000000006

>  <m_primary>  (18) 
energy

$$$$
18:0
     RDKit          3D

 57 60  0  0  0  0  0  0  0  0999 V2000
   -2.4590   22.7860  -29.6050 O   0  0  0  0  0  0  0  0  0  0  0  0
   -3.2240   22.4030  -30.5320 C   0  0  0  0  0  0  0  0  0  0  0  0
   -2.8750   21.2470  -31.3110 N   0  0  0  0  0  0  0  0  0  0  0  0
   -1.5350   20.7400  -31.4400 C   0  0  0  0  0  0  0  0  0  0  0  0
   -0.8760   20.7190  -32.6820 C   0  0  0  0  0  0  0  0  0  0  0  0
    0.4190   20.2040  -32.7830 C   0  0  0  0  0  0  0  0  0  0  0  0
    1.0600   19.6900  -31.6550 C   0  0  0  0  0  0  0  0  0  0  0  0
    0.4040   19.6750  -30.4170 C   0  0  0  0  0  0  0  0  0  0  0  0
    1.2120   19.0160  -28.9890 S   0  0  0  0  0  0  0  0  0  0  0  0
    2.5840   19.6220  -28.8820 O   0  0  0  0  0  0  0  0  0  0  0  0
    1.3710   17.5320  -29.1570 O   0  0  0  0  0  0  0  0  0  0  0  0
    0.3370   19.3300  -27.5080 N   0  0  0  0  0  0  0  0  0  0  0  0
   -0.0640   20.7300  -27.3920 C   0  0  0  0  0  0  0  0  0  0  0  0
   -1.2820   20.7540  -26.4820 C   0  0  0  0  0  0  0  0  0  0  0  0
   -1.8290   19.3350  -26.5050 C   0  0  0  0  0  0  0  0  0  0  0  0
   -0.9030   18.5610  -27.4300 C   0  0  0  0  0  0  0  0  0  0  0  0
   -0.8920   20.2030  -30.3150 C   0  0  0  0  0  0  0  0  0  0  0  0
   -4.5070   23.1090  -30.7540 C   0  0  0  0  0  0  0  0  0  0  0  0
   -5.6760   22.3600  -30.9900 C   0  0  0  0  0  0  0  0  0  0  0  0
   -6.9040   23.0000  -31.2070 C   0  0  0  0  0  0  0  0  0  0  0  0
   -8.3700   22.0650  -31.4900 S   0  0  0  0  0  0  0  0  0  0  0  0
   -8.9110   21.6040  -30.1660 O   0  0  0  0  0  0  0  0  0  0  0  0
   -9.4080   22.9180  -32.1640 O   0  0  0  0  0  0  0  0  0  0  0  0
   -7.9940   20.6830  -32.4930 N   0  0  0  0  0  0  0  0  0  0  0  0
   -9.1890   19.8350  -32.7040 C   0  0  0  0  0  0  0  0  0  0  0  0
   -9.1270   18.5300  -31.8900 C   0  0  0  0  0  0  0  0  0  0  0  0
   -7.9830   17.7420  -32.1870 O   0  0  0  0  0  0  0  0  0  0  0  0
   -6.8150   18.5070  -32.4640 C   0  0  0  0  0  0  0  0  0  0  0  0
   -6.8560   19.9440  -31.9190 C   0  0  0  0  0  0  0  0  0  0  0  0
   -6.9720   24.3970  -31.1760 C   0  0  0  0  0  0  0  0  0  0  0  0
   -5.8230   25.1500  -30.9290 C   0  0  0  0  0  0  0  0  0  0  0  0
   -4.5950   24.5160  -30.7100 C   0  0  0  0  0  0  0  0  0  0  0  0
   -3.4810   25.2970  -30.4210 O   0  0  0  0  0  0  0  0  0  0  0  0
   -3.6550   20.6810  -31.7160 H   0  0  0  0  0  0  0  0  0  0  0  0
   -1.3818   21.1094  -33.5774 H   0  0  0  0  0  0  0  0  0  0  0  0
    0.9348   20.2037  -33.7546 H   0  0  0  0  0  0  0  0  0  0  0  0
    2.0834   19.2954  -31.7380 H   0  0  0  0  0  0  0  0  0  0  0  0
    0.7509   21.3239  -26.9525 H   0  0  0  0  0  0  0  0  0  0  0  0
   -0.2939   21.1618  -28.3772 H   0  0  0  0  0  0  0  0  0  0  0  0
   -0.9933   21.0390  -25.4595 H   0  0  0  0  0  0  0  0  0  0  0  0
   -2.0301   21.4871  -26.8179 H   0  0  0  0  0  0  0  0  0  0  0  0
   -1.8149   18.9006  -25.4945 H   0  0  0  0  0  0  0  0  0  0  0  0
   -2.8727   19.3042  -26.8511 H   0  0  0  0  0  0  0  0  0  0  0  0
   -0.7049   17.5598  -27.0197 H   0  0  0  0  0  0  0  0  0  0  0  0
   -1.3530   18.4269  -28.4247 H   0  0  0  0  0  0  0  0  0  0  0  0
   -1.4085   20.1957  -29.3438 H   0  0  0  0  0  0  0  0  0  0  0  0
   -5.6249   21.2613  -31.0042 H   0  0  0  0  0  0  0  0  0  0  0  0
  -10.0825   20.4000  -32.4000 H   0  0  0  0  0  0  0  0  0  0  0  0
   -9.2286   19.5665  -33.7700 H   0  0  0  0  0  0  0  0  0  0  0  0
   -9.1082   18.7852  -30.8202 H   0  0  0  0  0  0  0  0  0  0  0  0
  -10.0132   17.9351  -32.1559 H   0  0  0  0  0  0  0  0  0  0  0  0
   -5.9521   17.9929  -32.0155 H   0  0  0  0  0  0  0  0  0  0  0  0
   -6.7432   18.5872  -33.5587 H   0  0  0  0  0  0  0  0  0  0  0  0
   -6.9601   19.9128  -30.8244 H   0  0  0  0  0  0  0  0  0  0  0  0
   -5.9232   20.4561  -32.1976 H   0  0  0  0  0  0  0  0  0  0  0  0
   -7.9335   24.9033  -31.3467 H   0  0  0  0  0  0  0  0  0  0  0  0
   -5.8832   26.2481  -30.9064 H   0  0  0  0  0  0  0  0  0  0  0  0
  1  2  2  0
  2  3  1  0
  3  4  1  0
  4  5  2  0
  5  6  1  0
  6  7  2  0
  7  8  1  0
  8  9  1  0
  9 10  2  0
  9 11  2  0
  9 12  1  0
 12 13  1  0
 13 14  1  0
 14 15  1  0
 15 16  1  0
  8 17  2  0
  2 18  1  0
 18 19  2  0
 19 20  1  0
 20 21  1  0
 21 22  2  0
 21 23  2  0
 21 24  1  0
 24 25  1  0
 25 26  1  0
 26 27  1  0
 27 28  1  0
 28 29  1  0
 20 30  2  0
 30 31  1  0
 31 32  2  0
 32 33  1  0
 17  4  1  0
 32 18  1  0
 16 12  1  0
 29 24  1  0
  3 34  1  0
  5 35  1  0
  6 36  1  0
  7 37  1  0
 13 38  1  0
 13 39  1  0
 14 40  1  0
 14 41  1  0
 15 42  1  0
 15 43  1  0
 16 44  1  0
 16 45  1  0
 17 46  1  0
 19 47  1  0
 25 48  1  0
 25 49  1  0
 26 50  1  0
 26 51  1  0
 28 52  1  0
 28 53  1  0
 29 54  1  0
 29 55  1  0
 30 56  1  0
 31 57  1  0
M  CHG  1  33  -1
M  END
>  <UniqueID>  (19) 
18

>  <SMILES>  (19) 
O=C(Nc1cccc(S(=O)(=O)N2CCCC2)c1)c1cc(S(=O)(=O)N2CCOCC2)ccc1[O-]

>  <Energy>  (19) 
79.9047091473379

>  <Genealogy>  (19) 
O=C(Nc1cccc(S(=O)(=O)N2CCCC2)c1)c1cc(S(=O)(=O)N2CCOCC2)ccc1[O-] (protonated)
O=C(Nc1cccc(S(=O)(=O)N2CCCC2)c1)c1cc(S(=O)(=O)N2CCOCC2)ccc1[O-] (3D coordinates assigned)
O=C(Nc1cccc(S(=O)(=O)N2CCCC2)c1)c1cc(S(=O)(=O)N2CCOCC2)ccc1[O-] (nonaromatic ring conformer: 79.9047091473379 kcal/mol)

>  <smiles>  (19) 
O=C(Nc1cccc(S(=O)(=O)N2CCCC2)c1)c1cc(S(=O)(=O)N2CCOCC2)ccc1O

>  <score_type>  (19) 
oracle

>  <origin>  (19) 
adgpu

>  <m_score__min__energy>  (19) 
-13.970000000000001

>  <m_primary>  (19) 
energy

$$$$
19:0
     RDKit          3D

 68 73  0  0  0  0  0  0  0  0999 V2000
   -3.1260   24.2200  -27.3730 C   0  0  0  0  0  0  0  0  0  0  0  0
   -3.6960   24.4280  -28.7330 C   0  0  0  0  0  0  0  0  0  0  0  0
   -4.8600   23.8620  -29.2240 C   0  0  0  0  0  0  0  0  0  0  0  0
   -4.9320   24.3650  -30.5110 C   0  0  0  0  0  0  0  0  0  0  0  0
   -5.8570   24.1380  -31.3930 N   0  0  0  0  0  0  0  0  0  0  0  0
   -7.2390   23.1190  -31.1360 S   0  0  0  0  0  0  0  0  0  0  0  0
   -8.4380   23.7050  -31.8300 O   0  0  0  0  0  0  0  0  0  0  0  0
   -7.5330   23.0570  -29.6640 O   0  0  0  0  0  0  0  0  0  0  0  0
   -6.9110   21.4890  -31.7210 C   0  0  0  0  0  0  0  0  0  0  0  0
   -7.9390   20.5400  -31.8070 C   0  0  0  0  0  0  0  0  0  0  0  0
   -7.6630   19.2420  -32.2440 C   0  0  0  0  0  0  0  0  0  0  0  0
   -6.3560   18.8800  -32.6130 C   0  0  0  0  0  0  0  0  0  0  0  0
   -6.0370   17.5420  -33.0140 N   0  0  0  0  0  0  0  0  0  0  0  0
   -5.0830   17.1760  -34.0200 C   0  0  0  0  0  0  0  0  0  0  0  0
   -5.3370   17.4340  -35.2260 O   0  0  0  0  0  0  0  0  0  0  0  0
   -3.8380   16.4070  -33.6780 C   0  0  0  0  0  0  0  0  0  0  0  0
   -2.4410   16.8820  -34.7550 S   0  0  0  0  0  0  0  0  0  0  0  0
   -2.2330   18.5210  -34.0450 C   0  0  0  0  0  0  0  0  0  0  0  0
   -3.0290   19.5620  -34.3480 N   0  0  0  0  0  0  0  0  0  0  0  0
   -2.5720   20.6060  -33.6750 N   0  0  0  0  0  0  0  0  0  0  0  0
   -1.4890   20.1940  -32.9860 C   0  0  0  0  0  0  0  0  0  0  0  0
   -0.7790   21.0690  -31.9890 C   0  0  0  0  0  0  0  0  0  0  0  0
   -1.3270   20.8220  -30.5960 C   0  0  0  0  0  0  0  0  0  0  0  0
   -2.5730   21.4020  -30.2910 C   0  0  0  0  0  0  0  0  0  0  0  0
   -3.1980   21.1670  -29.0700 C   0  0  0  0  0  0  0  0  0  0  0  0
   -2.6030   20.3400  -28.1240 C   0  0  0  0  0  0  0  0  0  0  0  0
   -1.3630   19.7460  -28.3870 C   0  0  0  0  0  0  0  0  0  0  0  0
   -0.7780   18.9090  -27.4220 C   0  0  0  0  0  0  0  0  0  0  0  0
    0.4590   18.3150  -27.6610 C   0  0  0  0  0  0  0  0  0  0  0  0
    1.1300   18.5580  -28.8570 C   0  0  0  0  0  0  0  0  0  0  0  0
    0.5670   19.3920  -29.8260 C   0  0  0  0  0  0  0  0  0  0  0  0
   -0.6990   19.9880  -29.6230 C   0  0  0  0  0  0  0  0  0  0  0  0
   -1.2570   18.8800  -33.1890 N   0  0  0  0  0  0  0  0  0  0  0  0
   -0.1830   18.0700  -32.6970 C   0  0  0  0  0  0  0  0  0  0  0  0
   -0.4510   16.9390  -31.9110 C   0  0  0  0  0  0  0  0  0  0  0  0
    0.6010   16.1540  -31.4280 C   0  0  0  0  0  0  0  0  0  0  0  0
    1.9230   16.4930  -31.7300 C   0  0  0  0  0  0  0  0  0  0  0  0
    2.1930   17.6120  -32.5240 C   0  0  0  0  0  0  0  0  0  0  0  0
    1.1450   18.3920  -33.0150 C   0  0  0  0  0  0  0  0  0  0  0  0
   -5.3280   19.8260  -32.5100 C   0  0  0  0  0  0  0  0  0  0  0  0
   -5.6050   21.1280  -32.0800 C   0  0  0  0  0  0  0  0  0  0  0  0
   -3.8740   25.1610  -30.7430 N   0  0  0  0  0  0  0  0  0  0  0  0
   -3.1500   25.1790  -29.6640 O   0  0  0  0  0  0  0  0  0  0  0  0
   -3.8754   24.4935  -26.6156 H   0  0  0  0  0  0  0  0  0  0  0  0
   -2.8487   23.1627  -27.2494 H   0  0  0  0  0  0  0  0  0  0  0  0
   -2.2329   24.8502  -27.2494 H   0  0  0  0  0  0  0  0  0  0  0  0
   -5.5570   23.1795  -28.7156 H   0  0  0  0  0  0  0  0  0  0  0  0
   -8.9664   20.8181  -31.5295 H   0  0  0  0  0  0  0  0  0  0  0  0
   -8.4727   18.4996  -32.2996 H   0  0  0  0  0  0  0  0  0  0  0  0
   -3.5680   16.6111  -32.6314 H   0  0  0  0  0  0  0  0  0  0  0  0
   -4.0413   15.3364  -33.8282 H   0  0  0  0  0  0  0  0  0  0  0  0
    0.2964   20.8383  -32.0032 H   0  0  0  0  0  0  0  0  0  0  0  0
   -0.9388   22.1238  -32.2572 H   0  0  0  0  0  0  0  0  0  0  0  0
   -3.0614   22.0528  -31.0312 H   0  0  0  0  0  0  0  0  0  0  0  0
   -4.1679   21.6381  -28.8522 H   0  0  0  0  0  0  0  0  0  0  0  0
   -3.1085   20.1517  -27.1653 H   0  0  0  0  0  0  0  0  0  0  0  0
   -1.3000   18.7217  -26.4720 H   0  0  0  0  0  0  0  0  0  0  0  0
    0.9063   17.6534  -26.9045 H   0  0  0  0  0  0  0  0  0  0  0  0
    2.1088   18.0906  -29.0396 H   0  0  0  0  0  0  0  0  0  0  0  0
    1.1157   19.5876  -30.7591 H   0  0  0  0  0  0  0  0  0  0  0  0
   -1.4907   16.6691  -31.6742 H   0  0  0  0  0  0  0  0  0  0  0  0
    0.3879   15.2693  -30.8101 H   0  0  0  0  0  0  0  0  0  0  0  0
    2.7504   15.8799  -31.3433 H   0  0  0  0  0  0  0  0  0  0  0  0
    3.2335   17.8780  -32.7621 H   0  0  0  0  0  0  0  0  0  0  0  0
    1.3608   19.2616  -33.6531 H   0  0  0  0  0  0  0  0  0  0  0  0
   -4.2969   19.5434  -32.7688 H   0  0  0  0  0  0  0  0  0  0  0  0
   -4.7956   21.8707  -32.0234 H   0  0  0  0  0  0  0  0  0  0  0  0
   -3.6550   25.6790  -31.6220 H   0  0  0  0  0  0  0  0  0  0  0  0
  1  2  1  0
  2  3  2  0
  3  4  1  0
  4  5  2  3
  5  6  1  0
  6  7  2  0
  6  8  2  0
  6  9  1  0
  9 10  2  0
 10 11  1  0
 11 12  2  0
 12 13  1  0
 13 14  1  0
 14 15  2  0
 14 16  1  0
 16 17  1  0
 17 18  1  0
 18 19  2  0
 19 20  1  0
 20 21  2  0
 21 22  1  0
 22 23  1  0
 23 24  2  0
 24 25  1  0
 25 26  2  0
 26 27  1  0
 27 28  2  0
 28 29  1  0
 29 30  2  0
 30 31  1  0
 31 32  2  0
 21 33  1  0
 33 34  1  0
 34 35  2  0
 35 36  1  0
 36 37  2  0
 37 38  1  0
 38 39  2  0
 12 40  1  0
 40 41  2  0
  4 42  1  0
 42 43  1  0
 43  2  1  0
 41  9  1  0
 33 18  1  0
 39 34  1  0
 32 23  1  0
 32 27  1  0
  1 44  1  0
  1 45  1  0
  1 46  1  0
  3 47  1  0
 10 48  1  0
 11 49  1  0
 16 50  1  0
 16 51  1  0
 22 52  1  0
 22 53  1  0
 24 54  1  0
 25 55  1  0
 26 56  1  0
 28 57  1  0
 29 58  1  0
 30 59  1  0
 31 60  1  0
 35 61  1  0
 36 62  1  0
 37 63  1  0
 38 64  1  0
 39 65  1  0
 40 66  1  0
 41 67  1  0
 42 68  1  0
M  CHG  1  13  -1
M  END
>  <UniqueID>  (20) 
19

>  <SMILES>  (20) 
Cc1cc(=NS(=O)(=O)c2ccc([N-]C(=O)CSc3nnc(Cc4cccc5ccccc45)n3-c3ccccc3)cc2)[nH]o1

>  <Energy>  (20) 
150.53065952653296

>  <Genealogy>  (20) 
Cc1cc(=NS(=O)(=O)c2ccc([N-]C(=O)CSc3nnc(Cc4cccc5ccccc45)n3-c3ccccc3)cc2)[nH]o1 (protonated)
Cc1cc(=NS(=O)(=O)c2ccc([N-]C(=O)CSc3nnc(Cc4cccc5ccccc45)n3-c3ccccc3)cc2)[nH]o1 (3D coordinates assigned)
Cc1cc(=NS(=O)(=O)c2ccc([N-]C(=O)CSc3nnc(Cc4cccc5ccccc45)n3-c3ccccc3)cc2)[nH]o1 (optimized conformer: 150.53065952653296 kcal/mol)

>  <smiles>  (20) 
Cc1cc(=NS(=O)(=O)c2ccc(NC(=O)CSc3nnc(Cc4cccc5ccccc45)n3-c3ccccc3)cc2)[nH]o1

>  <score_type>  (20) 
oracle

>  <origin>  (20) 
adgpu

>  <m_score__min__energy>  (20) 
-13.99

>  <m_primary>  (20) 
energy

$$$$
20:0
     RDKit          3D

 61 64  0  0  0  0  0  0  0  0999 V2000
   -9.2850   18.2110  -31.6380 C   0  0  0  0  0  0  0  0  0  0  0  0
   -8.1020   18.4530  -31.6360 C   0  0  0  0  0  0  0  0  0  0  0  0
   -6.6700   18.7630  -31.6390 C   0  0  0  0  0  0  0  0  0  0  0  0
   -6.3870   19.8540  -32.5820 N   0  0  0  0  0  0  0  0  0  0  0  0
   -6.1260   19.5390  -33.9940 C   0  0  0  0  0  0  0  0  0  0  0  0
   -5.3010   18.2930  -34.1320 C   0  0  0  0  0  0  0  0  0  0  0  0
   -5.6240   17.1980  -34.9020 C   0  0  0  0  0  0  0  0  0  0  0  0
   -4.6180   16.3030  -34.8500 N   0  0  0  0  0  0  0  0  0  0  0  0
   -3.6970   16.8760  -34.0480 C   0  0  0  0  0  0  0  0  0  0  0  0
   -4.0750   18.0930  -33.6070 N   0  0  0  0  0  0  0  0  0  0  0  0
   -3.3020   18.9760  -32.7290 C   0  0  0  0  0  0  0  0  0  0  0  0
   -2.1510   19.5870  -33.4820 C   0  0  0  0  0  0  0  0  0  0  0  0
   -1.2780   18.7670  -34.2130 C   0  0  0  0  0  0  0  0  0  0  0  0
   -0.2040   19.3230  -34.9140 C   0  0  0  0  0  0  0  0  0  0  0  0
    0.0100   20.7060  -34.8890 C   0  0  0  0  0  0  0  0  0  0  0  0
    1.1160   21.2770  -35.6130 C   0  0  0  0  0  0  0  0  0  0  0  0
    2.0060   21.7320  -36.1960 N   0  0  0  0  0  0  0  0  0  0  0  0
   -0.8590   21.5310  -34.1640 C   0  0  0  0  0  0  0  0  0  0  0  0
   -1.9360   20.9780  -33.4640 C   0  0  0  0  0  0  0  0  0  0  0  0
   -6.0330   21.1510  -32.0680 C   0  0  0  0  0  0  0  0  0  0  0  0
   -4.8490   21.7780  -32.4900 C   0  0  0  0  0  0  0  0  0  0  0  0
   -4.4720   23.0120  -31.9510 C   0  0  0  0  0  0  0  0  0  0  0  0
   -5.2760   23.6360  -30.9850 C   0  0  0  0  0  0  0  0  0  0  0  0
   -4.8690   24.9300  -30.4030 C   0  0  0  0  0  0  0  0  0  0  0  0
   -5.7490   25.7810  -30.1090 O   0  0  0  0  0  0  0  0  0  0  0  0
   -3.4950   25.2420  -30.1470 N   0  0  0  0  0  0  0  0  0  0  0  0
   -2.7650   24.8460  -28.9420 C   0  0  0  0  0  0  0  0  0  0  0  0
   -2.3370   23.4040  -29.0470 C   0  0  0  0  0  0  0  0  0  0  0  0
   -1.7910   22.9200  -30.2460 C   0  0  0  0  0  0  0  0  0  0  0  0
   -1.4080   21.5820  -30.3540 C   0  0  0  0  0  0  0  0  0  0  0  0
   -1.5910   20.7080  -29.2760 C   0  0  0  0  0  0  0  0  0  0  0  0
   -2.1560   21.1680  -28.0730 C   0  0  0  0  0  0  0  0  0  0  0  0
   -2.3700   20.2630  -26.9730 N   0  0  0  0  0  0  0  0  0  0  0  0
   -1.6280   20.2900  -25.9690 O   0  0  0  0  0  0  0  0  0  0  0  0
   -3.3710   19.3210  -27.0260 O   0  0  0  0  0  0  0  0  0  0  0  0
   -2.5180   22.5270  -27.9660 C   0  0  0  0  0  0  0  0  0  0  0  0
   -6.4820   23.0290  -30.5970 C   0  0  0  0  0  0  0  0  0  0  0  0
   -6.8540   21.7920  -31.1280 C   0  0  0  0  0  0  0  0  0  0  0  0
  -10.3627   17.9905  -31.6398 H   0  0  0  0  0  0  0  0  0  0  0  0
   -6.3625   19.0682  -30.6279 H   0  0  0  0  0  0  0  0  0  0  0  0
   -6.1105   17.8679  -31.9485 H   0  0  0  0  0  0  0  0  0  0  0  0
   -7.0855   19.3924  -34.5116 H   0  0  0  0  0  0  0  0  0  0  0  0
   -5.5674   20.3759  -34.4386 H   0  0  0  0  0  0  0  0  0  0  0  0
   -6.5573   17.0734  -35.4706 H   0  0  0  0  0  0  0  0  0  0  0  0
   -2.7407   16.4016  -33.7824 H   0  0  0  0  0  0  0  0  0  0  0  0
   -3.9558   19.7771  -32.3538 H   0  0  0  0  0  0  0  0  0  0  0  0
   -2.9063   18.3867  -31.8887 H   0  0  0  0  0  0  0  0  0  0  0  0
   -1.4399   17.6792  -34.2346 H   0  0  0  0  0  0  0  0  0  0  0  0
    0.4740   18.6726  -35.4862 H   0  0  0  0  0  0  0  0  0  0  0  0
   -0.6937   22.6184  -34.1451 H   0  0  0  0  0  0  0  0  0  0  0  0
   -2.6165   21.6313  -32.8982 H   0  0  0  0  0  0  0  0  0  0  0  0
   -4.2150   21.2957  -33.2485 H   0  0  0  0  0  0  0  0  0  0  0  0
   -3.5421   23.4951  -32.2854 H   0  0  0  0  0  0  0  0  0  0  0  0
   -1.8750   25.4826  -28.8299 H   0  0  0  0  0  0  0  0  0  0  0  0
   -3.4217   24.9643  -28.0675 H   0  0  0  0  0  0  0  0  0  0  0  0
   -1.6645   23.5973  -31.1035 H   0  0  0  0  0  0  0  0  0  0  0  0
   -0.9610   21.2133  -31.2890 H   0  0  0  0  0  0  0  0  0  0  0  0
   -1.2908   19.6540  -29.3704 H   0  0  0  0  0  0  0  0  0  0  0  0
   -2.9467   22.9036  -27.0256 H   0  0  0  0  0  0  0  0  0  0  0  0
   -7.1375   23.5312  -29.8703 H   0  0  0  0  0  0  0  0  0  0  0  0
   -7.7940   21.3186  -30.8081 H   0  0  0  0  0  0  0  0  0  0  0  0
  1  2  3  0
  2  3  1  0
  3  4  1  0
  4  5  1  0
  5  6  1  0
  6  7  2  0
  7  8  1  0
  8  9  2  0
  9 10  1  0
 10 11  1  0
 11 12  1  0
 12 13  2  0
 13 14  1  0
 14 15  2  0
 15 16  1  0
 16 17  3  0
 15 18  1  0
 18 19  2  0
  4 20  1  0
 20 21  2  0
 21 22  1  0
 22 23  2  0
 23 24  1  0
 24 25  2  0
 24 26  1  0
 26 27  1  0
 27 28  1  0
 28 29  2  0
 29 30  1  0
 30 31  2  0
 31 32  1  0
 32 33  1  0
 33 34  2  0
 33 35  1  0
 32 36  2  0
 23 37  1  0
 37 38  2  0
 10  6  1  0
 19 12  1  0
 38 20  1  0
 36 28  1  0
  1 39  1  0
  3 40  1  0
  3 41  1  0
  5 42  1  0
  5 43  1  0
  7 44  1  0
  9 45  1  0
 11 46  1  0
 11 47  1  0
 13 48  1  0
 14 49  1  0
 18 50  1  0
 19 51  1  0
 21 52  1  0
 22 53  1  0
 27 54  1  0
 27 55  1  0
 29 56  1  0
 30 57  1  0
 31 58  1  0
 36 59  1  0
 37 60  1  0
 38 61  1  0
M  CHG  3  26  -1  33   1  35  -1
M  END
>  <UniqueID>  (21) 
20

>  <SMILES>  (21) 
C#CCN(Cc1cncn1Cc1ccc(C#N)cc1)c1ccc(C(=O)[N-]Cc2cccc([N+](=O)[O-])c2)cc1

>  <Energy>  (21) 
96.02209822994739

>  <Genealogy>  (21) 
C#CCN(Cc1cncn1Cc1ccc(C#N)cc1)c1ccc(C(=O)[N-]Cc2cccc([N+](=O)[O-])c2)cc1 (protonated)
C#CCN(Cc1cncn1Cc1ccc(C#N)cc1)c1ccc(C(=O)[N-]Cc2cccc([N+](=O)[O-])c2)cc1 (3D coordinates assigned)
C#CCN(Cc1cncn1Cc1ccc(C#N)cc1)c1ccc(C(=O)[N-]Cc2cccc([N+](=O)[O-])c2)cc1 (optimized conformer: 96.02209822994739 kcal/mol)

>  <smiles>  (21) 
C#CCN(Cc1cncn1Cc1ccc(C#N)cc1)c1ccc(C(=O)NCc2cccc([N+](=O)[O-])c2)cc1

>  <score_type>  (21) 
oracle

>  <origin>  (21) 
adgpu

>  <m_score__min__energy>  (21) 
-12.109999999999999

>  <m_primary>  (21) 
energy

$$$$
21:0
     RDKit          3D

 45 48  0  0  0  0  0  0  0  0999 V2000
   -1.6780   24.7980  -26.6960 C   0  0  0  0  0  0  0  0  0  0  0  0
   -1.3110   25.4140  -28.3250 S   0  0  0  0  0  0  0  0  0  0  0  0
   -0.8570   26.8450  -28.2550 O   0  0  0  0  0  0  0  0  0  0  0  0
   -0.2060   24.5850  -28.9160 O   0  0  0  0  0  0  0  0  0  0  0  0
   -2.7090   25.2830  -29.3430 N   0  0  0  0  0  0  0  0  0  0  0  0
   -3.1470   24.0960  -30.0190 C   0  0  0  0  0  0  0  0  0  0  0  0
   -2.3210   22.9690  -30.1730 C   0  0  0  0  0  0  0  0  0  0  0  0
   -2.7920   21.8340  -30.8390 C   0  0  0  0  0  0  0  0  0  0  0  0
   -4.0960   21.8020  -31.3650 C   0  0  0  0  0  0  0  0  0  0  0  0
   -4.5940   20.5970  -32.0740 C   0  0  0  0  0  0  0  0  0  0  0  0
   -5.8910   20.0830  -31.7940 C   0  0  0  0  0  0  0  0  0  0  0  0
   -6.3740   18.9410  -32.4560 C   0  0  0  0  0  0  0  0  0  0  0  0
   -5.5330   18.3210  -33.3760 C   0  0  0  0  0  0  0  0  0  0  0  0
   -5.6770   17.2190  -34.1970 C   0  0  0  0  0  0  0  0  0  0  0  0
   -6.8330   16.3110  -34.3170 C   0  0  0  0  0  0  0  0  0  0  0  0
   -6.7810   14.9770  -34.1940 C   0  0  0  0  0  0  0  0  0  0  0  0
   -5.5470   14.1740  -34.0720 C   0  0  0  0  0  0  0  0  0  0  0  0
   -5.3360   13.2910  -32.9980 C   0  0  0  0  0  0  0  0  0  0  0  0
   -4.1440   12.5670  -32.9300 C   0  0  0  0  0  0  0  0  0  0  0  0
   -3.1680   12.7410  -33.9110 C   0  0  0  0  0  0  0  0  0  0  0  0
   -3.3950   13.6490  -34.9470 C   0  0  0  0  0  0  0  0  0  0  0  0
   -4.5640   14.3430  -35.0000 N   0  0  0  0  0  0  0  0  0  0  0  0
   -4.5630   17.1230  -34.9550 N   0  0  0  0  0  0  0  0  0  0  0  0
   -3.7070   18.0890  -34.6370 N   0  0  0  0  0  0  0  0  0  0  0  0
   -4.2950   18.8210  -33.6730 C   0  0  0  0  0  0  0  0  0  0  0  0
   -3.7870   19.9530  -33.0430 C   0  0  0  0  0  0  0  0  0  0  0  0
   -4.9180   22.9310  -31.2060 C   0  0  0  0  0  0  0  0  0  0  0  0
   -4.4460   24.0640  -30.5380 C   0  0  0  0  0  0  0  0  0  0  0  0
   -1.2678   25.4865  -25.9426 H   0  0  0  0  0  0  0  0  0  0  0  0
   -2.7681   24.7231  -26.5693 H   0  0  0  0  0  0  0  0  0  0  0  0
   -1.2249   23.8037  -26.5693 H   0  0  0  0  0  0  0  0  0  0  0  0
   -1.2986   22.9804  -29.7672 H   0  0  0  0  0  0  0  0  0  0  0  0
   -2.1368   20.9578  -30.9528 H   0  0  0  0  0  0  0  0  0  0  0  0
   -6.5246   20.5865  -31.0490 H   0  0  0  0  0  0  0  0  0  0  0  0
   -7.3823   18.5504  -32.2540 H   0  0  0  0  0  0  0  0  0  0  0  0
   -7.8141   16.7635  -34.5235 H   0  0  0  0  0  0  0  0  0  0  0  0
   -7.7379   14.4346  -34.1830 H   0  0  0  0  0  0  0  0  0  0  0  0
   -6.1030   13.1718  -32.2186 H   0  0  0  0  0  0  0  0  0  0  0  0
   -3.9750   11.8605  -32.1040 H   0  0  0  0  0  0  0  0  0  0  0  0
   -2.2294   12.1689  -33.8689 H   0  0  0  0  0  0  0  0  0  0  0  0
   -2.6284   13.8033  -35.7207 H   0  0  0  0  0  0  0  0  0  0  0  0
   -4.3770   16.3980  -35.6830 H   0  0  0  0  0  0  0  0  0  0  0  0
   -2.7864   20.3368  -33.2909 H   0  0  0  0  0  0  0  0  0  0  0  0
   -5.9409   22.9226  -31.6106 H   0  0  0  0  0  0  0  0  0  0  0  0
   -5.1019   24.9390  -30.4191 H   0  0  0  0  0  0  0  0  0  0  0  0
  1  2  1  0
  2  3  2  0
  2  4  2  0
  2  5  1  0
  5  6  1  0
  6  7  2  0
  7  8  1  0
  8  9  2  0
  9 10  1  0
 10 11  1  0
 11 12  2  0
 12 13  1  0
 13 14  2  0
 14 15  1  0
 15 16  2  3
 16 17  1  0
 17 18  2  0
 18 19  1  0
 19 20  2  0
 20 21  1  0
 21 22  2  0
 14 23  1  0
 23 24  1  0
 24 25  2  0
 25 26  1  0
  9 27  1  0
 27 28  2  0
 28  6  1  0
 26 10  2  0
 25 13  1  0
 22 17  1  0
  1 29  1  0
  1 30  1  0
  1 31  1  0
  7 32  1  0
  8 33  1  0
 11 34  1  0
 12 35  1  0
 15 36  1  0
 16 37  1  0
 18 38  1  0
 19 39  1  0
 20 40  1  0
 21 41  1  0
 23 42  1  0
 26 43  1  0
 27 44  1  0
 28 45  1  0
M  CHG  1   5  -1
M  END
>  <UniqueID>  (22) 
21

>  <SMILES>  (22) 
CS(=O)(=O)[N-]c1ccc(-c2ccc3c(C=Cc4ccccn4)[nH]nc3c2)cc1

>  <Energy>  (22) 
101.41146247393951

>  <Genealogy>  (22) 
CS(=O)(=O)[N-]c1ccc(-c2ccc3c(C=Cc4ccccn4)[nH]nc3c2)cc1 (protonated)
CS(=O)(=O)[N-]c1ccc(-c2ccc3c(C=Cc4ccccn4)[nH]nc3c2)cc1 (3D coordinates assigned)
CS(=O)(=O)[N-]c1ccc(-c2ccc3c(C=Cc4ccccn4)[nH]nc3c2)cc1 (optimized conformer: 101.41146247393951 kcal/mol)

>  <smiles>  (22) 
CS(=O)(=O)Nc1ccc(-c2ccc3c(C=Cc4ccccn4)[nH]nc3c2)cc1

>  <score_type>  (22) 
oracle

>  <origin>  (22) 
adgpu

>  <m_score__min__energy>  (22) 
-10.23

>  <m_primary>  (22) 
energy

$$$$
22:0
     RDKit          3D

 37 39  0  0  0  0  0  0  0  0999 V2000
   -9.2009   18.1670  -31.1970 H   0  0  0  0  0  0  0  0  0  0  0  0
   -8.2910   18.4730  -31.7340 C   0  0  0  0  0  0  0  0  0  0  0  0
   -7.0770   17.8340  -31.4700 C   0  0  0  0  0  0  0  0  0  0  0  0
   -7.0314   17.0263  -30.7247 H   0  0  0  0  0  0  0  0  0  0  0  0
   -5.9200   18.2210  -32.1530 C   0  0  0  0  0  0  0  0  0  0  0  0
   -4.9674   17.7097  -31.9502 H   0  0  0  0  0  0  0  0  0  0  0  0
   -5.9690   19.2610  -33.0980 C   0  0  0  0  0  0  0  0  0  0  0  0
   -4.7250   19.6800  -33.8350 C   0  0  0  0  0  0  0  0  0  0  0  0
   -4.5935   20.7663  -33.7223 H   0  0  0  0  0  0  0  0  0  0  0  0
   -4.8454   19.4034  -34.8928 H   0  0  0  0  0  0  0  0  0  0  0  0
   -3.2360   18.8340  -33.1930 S   0  0  0  0  0  0  0  0  0  0  0  0
   -2.8010   20.1340  -32.0410 C   0  0  0  0  0  0  0  0  0  0  0  0
   -1.6000   20.7510  -32.0370 N   0  0  0  0  0  0  0  0  0  0  0  0
   -1.4780   21.6480  -31.0610 N   0  0  0  0  0  0  0  0  0  0  0  0
   -2.5790   21.7390  -30.2850 C   0  0  0  0  0  0  0  0  0  0  0  0
   -2.6960   22.7990  -28.8450 S   0  0  0  0  0  0  0  0  0  0  0  0
   -4.3660   23.4200  -29.2470 C   0  0  0  0  0  0  0  0  0  0  0  0
   -4.7652   23.9709  -28.3827 H   0  0  0  0  0  0  0  0  0  0  0  0
   -5.0161   22.5650  -29.4846 H   0  0  0  0  0  0  0  0  0  0  0  0
   -4.3140   24.3330  -30.4320 C   0  0  0  0  0  0  0  0  0  0  0  0
   -3.4820   25.2800  -30.4470 O   0  0  0  0  0  0  0  0  0  0  0  0
   -5.2370   24.1320  -31.5120 N   0  0  0  0  0  0  0  0  0  0  0  0
   -6.3730   23.4980  -31.4790 C   0  0  0  0  0  0  0  0  0  0  0  0
   -7.0980   22.7850  -30.1270 S   0  0  0  0  0  0  0  0  0  0  0  0
   -8.4130   22.2920  -31.0630 C   0  0  0  0  0  0  0  0  0  0  0  0
   -9.6210   21.5980  -30.5340 C   0  0  0  0  0  0  0  0  0  0  0  0
   -9.5990   21.6106  -29.4343 H   0  0  0  0  0  0  0  0  0  0  0  0
  -10.5252   22.1143  -30.8886 H   0  0  0  0  0  0  0  0  0  0  0  0
   -9.6304   20.5568  -30.8886 H   0  0  0  0  0  0  0  0  0  0  0  0
   -8.2830   22.6910  -32.3480 N   0  0  0  0  0  0  0  0  0  0  0  0
   -7.1490   23.3490  -32.5750 N   0  0  0  0  0  0  0  0  0  0  0  0
   -6.8960   23.7150  -33.5200 H   0  0  0  0  0  0  0  0  0  0  0  0
   -3.7920   20.6920  -30.8010 S   0  0  0  0  0  0  0  0  0  0  0  0
   -7.1950   19.8950  -33.3590 C   0  0  0  0  0  0  0  0  0  0  0  0
   -7.2458   20.7053  -34.1012 H   0  0  0  0  0  0  0  0  0  0  0  0
   -8.3510   19.5000  -32.6790 C   0  0  0  0  0  0  0  0  0  0  0  0
   -9.3089   19.9985  -32.8884 H   0  0  0  0  0  0  0  0  0  0  0  0
  1  2  1  0
  2  3  2  0
  3  4  1  0
  3  5  1  0
  5  6  1  0
  5  7  2  0
  7  8  1  0
  8  9  1  0
  8 10  1  0
  8 11  1  0
 11 12  1  0
 12 13  2  0
 13 14  1  0
 14 15  2  0
 15 16  1  0
 16 17  1  0
 17 18  1  0
 17 19  1  0
 17 20  1  0
 20 21  2  0
 20 22  1  0
 22 23  2  0
 23 24  1  0
 24 25  1  0
 25 26  1  0
 26 27  1  0
 26 28  1  0
 26 29  1  0
 25 30  2  0
 30 31  1  0
 31 32  1  0
 15 33  1  0
  7 34  1  0
 34 35  1  0
 34 36  2  0
 36 37  1  0
 36  2  1  0
 33 12  1  0
 31 23  1  0
M  END
>  <UniqueID>  (23) 
22

>  <SMILES>  (23) 
Cc1n[nH]/c(=N/C(=O)CSc2nnc(SCc3ccccc3)s2)s1

>  <Energy>  (23) 
97.24397507082617

>  <Genealogy>  (23) 
Cc1n[nH]/c(=N/C(=O)CSc2nnc(SCc3ccccc3)s2)s1 (cis-trans isomerization)
Cc1n[nH]/c(=N/C(=O)CSc2nnc(SCc3ccccc3)s2)s1 (3D coordinates assigned)
Cc1n[nH]/c(=N/C(=O)CSc2nnc(SCc3ccccc3)s2)s1 (optimized conformer: 97.24397507082617 kcal/mol)

>  <smiles>  (23) 
Cc1n[nH]c(=NC(=O)CSc2nnc(SCc3ccccc3)s2)s1

>  <score_type>  (23) 
oracle

>  <origin>  (23) 
adgpu

>  <m_score__min__energy>  (23) 
-9.2300000000000004

>  <m_primary>  (23) 
energy

$$$$
23:0
     RDKit          3D

 52 54  0  0  0  0  0  0  0  0999 V2000
   -2.6140   24.5570  -28.0720 C   0  0  0  0  0  0  0  0  0  0  0  0
   -2.8390   24.9480  -29.4570 N   0  0  0  0  0  0  0  0  0  0  0  0
   -3.5030   24.1420  -30.4400 C   0  0  0  0  0  0  0  0  0  0  0  0
   -4.6270   24.5140  -30.8650 O   0  0  0  0  0  0  0  0  0  0  0  0
   -2.8930   22.9280  -31.0120 C   0  0  0  0  0  0  0  0  0  0  0  0
   -1.8310   22.2740  -30.3710 C   0  0  0  0  0  0  0  0  0  0  0  0
   -1.2990   21.1120  -30.9360 C   0  0  0  0  0  0  0  0  0  0  0  0
   -1.8240   20.6070  -32.1270 C   0  0  0  0  0  0  0  0  0  0  0  0
   -1.2820   19.4320  -32.6690 O   0  0  0  0  0  0  0  0  0  0  0  0
   -2.0090   18.2740  -32.9750 C   0  0  0  0  0  0  0  0  0  0  0  0
   -1.3640   17.0390  -32.9090 C   0  0  0  0  0  0  0  0  0  0  0  0
   -2.0600   15.8650  -33.1990 C   0  0  0  0  0  0  0  0  0  0  0  0
   -3.4040   15.9180  -33.5740 C   0  0  0  0  0  0  0  0  0  0  0  0
   -4.0780   17.1540  -33.6800 C   0  0  0  0  0  0  0  0  0  0  0  0
   -5.4750   17.2190  -34.0820 N   0  0  0  0  0  0  0  0  0  0  0  0
   -6.3000   16.0030  -34.1000 C   0  0  0  0  0  0  0  0  0  0  0  0
   -6.0860   18.4810  -34.5400 C   0  0  0  0  0  0  0  0  0  0  0  0
   -6.9330   19.1220  -33.4650 C   0  0  0  0  0  0  0  0  0  0  0  0
   -7.7910   18.3240  -32.6890 C   0  0  0  0  0  0  0  0  0  0  0  0
   -8.5480   18.8940  -31.6620 C   0  0  0  0  0  0  0  0  0  0  0  0
   -8.4510   20.2620  -31.3940 C   0  0  0  0  0  0  0  0  0  0  0  0
   -7.5890   21.0670  -32.1500 C   0  0  0  0  0  0  0  0  0  0  0  0
   -7.4680   22.7950  -31.8370 S   0  0  0  0  0  0  0  0  0  0  0  0
   -7.0850   23.0550  -30.1190 C   0  0  0  0  0  0  0  0  0  0  0  0
   -6.3820   23.4030  -32.6800 O   0  0  0  0  0  0  0  0  0  0  0  0
   -8.7740   23.4580  -32.1730 O   0  0  0  0  0  0  0  0  0  0  0  0
   -6.8260   20.4940  -33.1750 C   0  0  0  0  0  0  0  0  0  0  0  0
   -3.3550   18.3300  -33.3820 C   0  0  0  0  0  0  0  0  0  0  0  0
   -2.9170   21.2660  -32.7140 C   0  0  0  0  0  0  0  0  0  0  0  0
   -3.4210   22.3940  -32.1470 N   0  0  0  0  0  0  0  0  0  0  0  0
   -3.0492   25.3133  -27.4022 H   0  0  0  0  0  0  0  0  0  0  0  0
   -3.0899   23.5833  -27.8840 H   0  0  0  0  0  0  0  0  0  0  0  0
   -1.5330   24.4792  -27.8840 H   0  0  0  0  0  0  0  0  0  0  0  0
   -1.4203   22.6723  -29.4315 H   0  0  0  0  0  0  0  0  0  0  0  0
   -0.4644   20.5938  -30.4411 H   0  0  0  0  0  0  0  0  0  0  0  0
   -0.3019   16.9904  -32.6271 H   0  0  0  0  0  0  0  0  0  0  0  0
   -1.5479   14.8938  -33.1319 H   0  0  0  0  0  0  0  0  0  0  0  0
   -3.9446   14.9846  -33.7896 H   0  0  0  0  0  0  0  0  0  0  0  0
   -6.5130   15.6891  -33.0675 H   0  0  0  0  0  0  0  0  0  0  0  0
   -7.2455   16.2091  -34.6230 H   0  0  0  0  0  0  0  0  0  0  0  0
   -5.7590   15.2006  -34.6230 H   0  0  0  0  0  0  0  0  0  0  0  0
   -5.2860   19.1798  -34.8258 H   0  0  0  0  0  0  0  0  0  0  0  0
   -6.7384   18.2521  -35.3956 H   0  0  0  0  0  0  0  0  0  0  0  0
   -7.8670   17.2454  -32.8911 H   0  0  0  0  0  0  0  0  0  0  0  0
   -9.2221   18.2641  -31.0629 H   0  0  0  0  0  0  0  0  0  0  0  0
   -9.0525   20.7076  -30.5880 H   0  0  0  0  0  0  0  0  0  0  0  0
   -7.8346   22.5461  -29.4951 H   0  0  0  0  0  0  0  0  0  0  0  0
   -6.0874   22.6467  -29.8999 H   0  0  0  0  0  0  0  0  0  0  0  0
   -7.0963   24.1329  -29.8999 H   0  0  0  0  0  0  0  0  0  0  0  0
   -6.1370   21.1225  -33.7584 H   0  0  0  0  0  0  0  0  0  0  0  0
   -3.8528   19.3070  -33.4696 H   0  0  0  0  0  0  0  0  0  0  0  0
   -3.3666   20.8679  -33.6356 H   0  0  0  0  0  0  0  0  0  0  0  0
  1  2  1  0
  2  3  1  0
  3  4  2  0
  3  5  1  0
  5  6  2  0
  6  7  1  0
  7  8  2  0
  8  9  1  0
  9 10  1  0
 10 11  2  0
 11 12  1  0
 12 13  2  0
 13 14  1  0
 14 15  1  0
 15 16  1  0
 15 17  1  0
 17 18  1  0
 18 19  2  0
 19 20  1  0
 20 21  2  0
 21 22  1  0
 22 23  1  0
 23 24  1  0
 23 25  2  0
 23 26  2  0
 22 27  2  0
 14 28  2  0
  8 29  1  0
 29 30  2  0
 30  5  1  0
 28 10  1  0
 27 18  1  0
  1 31  1  0
  1 32  1  0
  1 33  1  0
  6 34  1  0
  7 35  1  0
 11 36  1  0
 12 37  1  0
 13 38  1  0
 16 39  1  0
 16 40  1  0
 16 41  1  0
 17 42  1  0
 17 43  1  0
 19 44  1  0
 20 45  1  0
 21 46  1  0
 24 47  1  0
 24 48  1  0
 24 49  1  0
 27 50  1  0
 28 51  1  0
 29 52  1  0
M  CHG  1   2  -1
M  END
>  <UniqueID>  (24) 
23

>  <SMILES>  (24) 
C[N-]C(=O)c1ccc(Oc2cccc(N(C)Cc3cccc(S(C)(=O)=O)c3)c2)cn1

>  <Energy>  (24) 
63.86633943495256

>  <Genealogy>  (24) 
C[N-]C(=O)c1ccc(Oc2cccc(N(C)Cc3cccc(S(C)(=O)=O)c3)c2)cn1 (protonated)
C[N-]C(=O)c1ccc(Oc2cccc(N(C)Cc3cccc(S(C)(=O)=O)c3)c2)cn1 (3D coordinates assigned)
C[N-]C(=O)c1ccc(Oc2cccc(N(C)Cc3cccc(S(C)(=O)=O)c3)c2)cn1 (optimized conformer: 63.86633943495256 kcal/mol)

>  <smiles>  (24) 
CNC(=O)c1ccc(Oc2cccc(N(C)Cc3cccc(S(C)(=O)=O)c3)c2)cn1

>  <score_type>  (24) 
oracle

>  <origin>  (24) 
adgpu

>  <m_score__min__energy>  (24) 
-11.42

>  <m_primary>  (24) 
energy

$$$$
24:0
     RDKit          3D

 52 55  0  0  0  0  0  0  0  0999 V2000
   -5.1980   22.2090  -30.2370 O   0  0  0  0  0  0  0  0  0  0  0  0
   -4.6890   23.2520  -30.7340 C   0  0  0  0  0  0  0  0  0  0  0  0
   -5.5420   24.1270  -31.5610 C   0  0  0  0  0  0  0  0  0  0  0  0
   -6.6200   23.7450  -32.2630 C   0  0  0  0  0  0  0  0  0  0  0  0
   -7.2630   22.4190  -32.1790 C   0  0  0  0  0  0  0  0  0  0  0  0
   -8.5040   22.2960  -31.5430 C   0  0  0  0  0  0  0  0  0  0  0  0
   -9.1000   21.0410  -31.4090 C   0  0  0  0  0  0  0  0  0  0  0  0
   -8.4510   19.8960  -31.8770 C   0  0  0  0  0  0  0  0  0  0  0  0
   -9.0620   18.6560  -31.7290 O   0  0  0  0  0  0  0  0  0  0  0  0
   -7.1880   20.0020  -32.4860 C   0  0  0  0  0  0  0  0  0  0  0  0
   -6.3280   18.5560  -33.0220 S   0  0  0  0  0  0  0  0  0  0  0  0
   -5.7670   17.8610  -31.8110 O   0  0  0  0  0  0  0  0  0  0  0  0
   -7.2790   17.6450  -33.7460 O   0  0  0  0  0  0  0  0  0  0  0  0
   -5.0280   19.0020  -34.0790 N   0  0  0  0  0  0  0  0  0  0  0  0
   -3.6460   19.1500  -33.7190 C   0  0  0  0  0  0  0  0  0  0  0  0
   -3.3190   20.1600  -32.8050 C   0  0  0  0  0  0  0  0  0  0  0  0
   -1.9970   20.3470  -32.3830 C   0  0  0  0  0  0  0  0  0  0  0  0
   -0.9820   19.5030  -32.8710 C   0  0  0  0  0  0  0  0  0  0  0  0
   -1.2970   18.5240  -33.8230 C   0  0  0  0  0  0  0  0  0  0  0  0
   -2.6160   18.3460  -34.2530 C   0  0  0  0  0  0  0  0  0  0  0  0
   -2.8750   17.3920  -35.2290 O   0  0  0  0  0  0  0  0  0  0  0  0
    0.4520   19.7040  -32.4390 C   0  0  0  0  0  0  0  0  0  0  0  0
    0.5390   20.3820  -31.0650 C   0  0  0  0  0  0  0  0  0  0  0  0
   -0.3040   21.6600  -31.0460 C   0  0  0  0  0  0  0  0  0  0  0  0
   -1.6850   21.3620  -31.4160 N   0  0  0  0  0  0  0  0  0  0  0  0
   -6.6000   21.2670  -32.6370 C   0  0  0  0  0  0  0  0  0  0  0  0
   -3.3160   23.5740  -30.4760 N   0  0  0  0  0  0  0  0  0  0  0  0
   -2.6280   23.3780  -29.2340 C   0  0  0  0  0  0  0  0  0  0  0  0
   -2.7080   22.1580  -28.5370 C   0  0  0  0  0  0  0  0  0  0  0  0
   -2.0670   22.0090  -27.3030 C   0  0  0  0  0  0  0  0  0  0  0  0
   -1.3530   23.0760  -26.7500 C   0  0  0  0  0  0  0  0  0  0  0  0
   -1.2870   24.2960  -27.4260 C   0  0  0  0  0  0  0  0  0  0  0  0
   -1.9300   24.4520  -28.6590 C   0  0  0  0  0  0  0  0  0  0  0  0
   -1.8600   25.6720  -29.3200 O   0  0  0  0  0  0  0  0  0  0  0  0
   -5.2688   25.1916  -31.6063 H   0  0  0  0  0  0  0  0  0  0  0  0
   -7.0592   24.4779  -32.9558 H   0  0  0  0  0  0  0  0  0  0  0  0
   -9.0100   23.1894  -31.1484 H   0  0  0  0  0  0  0  0  0  0  0  0
  -10.0872   20.9530  -30.9318 H   0  0  0  0  0  0  0  0  0  0  0  0
   -4.1114   20.8149  -32.4136 H   0  0  0  0  0  0  0  0  0  0  0  0
   -0.4991   17.8894  -34.2361 H   0  0  0  0  0  0  0  0  0  0  0  0
    0.9493   18.7243  -32.3856 H   0  0  0  0  0  0  0  0  0  0  0  0
    0.9449   20.3555  -33.1757 H   0  0  0  0  0  0  0  0  0  0  0  0
    0.1660   19.6903  -30.2953 H   0  0  0  0  0  0  0  0  0  0  0  0
    1.5880   20.6435  -30.8620 H   0  0  0  0  0  0  0  0  0  0  0  0
   -0.2845   22.0925  -30.0348 H   0  0  0  0  0  0  0  0  0  0  0  0
    0.1140   22.3751  -31.7699 H   0  0  0  0  0  0  0  0  0  0  0  0
   -2.4550   21.9180  -30.9790 H   0  0  0  0  0  0  0  0  0  0  0  0
   -5.6143   21.3579  -33.1167 H   0  0  0  0  0  0  0  0  0  0  0  0
   -3.2766   21.3188  -28.9642 H   0  0  0  0  0  0  0  0  0  0  0  0
   -2.1248   21.0504  -26.7666 H   0  0  0  0  0  0  0  0  0  0  0  0
   -0.8434   22.9546  -25.7828 H   0  0  0  0  0  0  0  0  0  0  0  0
   -0.7283   25.1364  -26.9883 H   0  0  0  0  0  0  0  0  0  0  0  0
  1  2  2  0
  2  3  1  0
  3  4  2  3
  4  5  1  0
  5  6  2  0
  6  7  1  0
  7  8  2  0
  8  9  1  0
  8 10  1  0
 10 11  1  0
 11 12  2  0
 11 13  2  0
 11 14  1  0
 14 15  1  0
 15 16  2  0
 16 17  1  0
 17 18  2  0
 18 19  1  0
 19 20  2  0
 20 21  1  0
 18 22  1  0
 22 23  1  0
 23 24  1  0
 24 25  1  0
 10 26  2  0
  2 27  1  0
 27 28  1  0
 28 29  2  0
 29 30  1  0
 30 31  2  0
 31 32  1  0
 32 33  2  0
 33 34  1  0
 26  5  1  0
 33 28  1  0
 20 15  1  0
 25 17  1  0
  3 35  1  0
  4 36  1  0
  6 37  1  0
  7 38  1  0
 16 39  1  0
 19 40  1  0
 22 41  1  0
 22 42  1  0
 23 43  1  0
 23 44  1  0
 24 45  1  0
 24 46  1  0
 25 47  1  0
 26 48  1  0
 29 49  1  0
 30 50  1  0
 31 51  1  0
 32 52  1  0
M  CHG  5   9  -1  14  -1  21  -1  27  -1  34  -1
M  END
>  <UniqueID>  (25) 
24

>  <SMILES>  (25) 
O=C(C=Cc1ccc([O-])c(S(=O)(=O)[N-]c2cc3c(cc2[O-])CCCN3)c1)[N-]c1ccccc1[O-]

>  <Energy>  (25) 
73.76342363402448

>  <Genealogy>  (25) 
O=C(C=Cc1ccc([O-])c(S(=O)(=O)[N-]c2cc3c(cc2[O-])CCCN3)c1)[N-]c1ccccc1[O-] (protonated)
O=C(C=Cc1ccc([O-])c(S(=O)(=O)[N-]c2cc3c(cc2[O-])CCCN3)c1)[N-]c1ccccc1[O-] (3D coordinates assigned)
O=C(C=Cc1ccc([O-])c(S(=O)(=O)[N-]c2cc3c(cc2[O-])CCCN3)c1)[N-]c1ccccc1[O-] (nonaromatic ring conformer: 73.76342363402448 kcal/mol)

>  <smiles>  (25) 
O=C(C=Cc1ccc(O)c(S(=O)(=O)Nc2cc3c(cc2O)CCCN3)c1)Nc1ccccc1O

>  <score_type>  (25) 
oracle

>  <origin>  (25) 
adgpu

>  <m_score__min__energy>  (25) 
-15.869999999999999

>  <m_primary>  (25) 
energy

$$$$
25:0
     RDKit          3D

 46 48  0  0  0  0  0  0  0  0999 V2000
   -6.4370   19.3030  -34.2370 C   0  0  0  0  0  0  0  0  0  0  0  0
   -5.2640   19.5970  -32.9330 S   0  0  0  0  0  0  0  0  0  0  0  0
   -3.9280   19.9470  -33.5290 O   0  0  0  0  0  0  0  0  0  0  0  0
   -5.1110   18.3490  -32.1080 O   0  0  0  0  0  0  0  0  0  0  0  0
   -5.8210   20.9260  -31.9200 C   0  0  0  0  0  0  0  0  0  0  0  0
   -7.1910   21.2000  -31.8160 C   0  0  0  0  0  0  0  0  0  0  0  0
   -7.6380   22.2600  -31.0240 C   0  0  0  0  0  0  0  0  0  0  0  0
   -6.7200   23.0470  -30.3240 C   0  0  0  0  0  0  0  0  0  0  0  0
   -5.3490   22.7660  -30.4020 C   0  0  0  0  0  0  0  0  0  0  0  0
   -4.1990   23.7630  -29.5210 S   0  0  0  0  0  0  0  0  0  0  0  0
   -3.3650   24.5770  -30.4710 O   0  0  0  0  0  0  0  0  0  0  0  0
   -4.9800   24.7050  -28.6490 O   0  0  0  0  0  0  0  0  0  0  0  0
   -3.1300   22.7790  -28.5170 C   0  0  0  0  0  0  0  0  0  0  0  0
   -3.4630   21.4610  -28.1710 C   0  0  0  0  0  0  0  0  0  0  0  0
   -2.5080   20.8450  -27.3770 C   0  0  0  0  0  0  0  0  0  0  0  0
   -2.5780   19.2050  -26.7610 S   0  0  0  0  0  0  0  0  0  0  0  0
   -1.2550   18.2820  -27.3820 N   0  0  0  0  0  0  0  0  0  0  0  0
   -2.4970   19.2310  -25.2620 O   0  0  0  0  0  0  0  0  0  0  0  0
   -3.8690   18.5640  -27.1870 O   0  0  0  0  0  0  0  0  0  0  0  0
   -1.2480   21.9170  -27.0960 S   0  0  0  0  0  0  0  0  0  0  0  0
   -1.9010   23.1900  -27.9820 C   0  0  0  0  0  0  0  0  0  0  0  0
   -1.0870   24.7420  -28.1690 S   0  0  0  0  0  0  0  0  0  0  0  0
   -1.9670   25.6670  -28.9610 O   0  0  0  0  0  0  0  0  0  0  0  0
    0.1940   24.5390  -28.9270 O   0  0  0  0  0  0  0  0  0  0  0  0
   -0.6890   25.4460  -26.6080 C   0  0  0  0  0  0  0  0  0  0  0  0
   -1.2990   26.6360  -26.1880 C   0  0  0  0  0  0  0  0  0  0  0  0
   -0.9850   27.1850  -24.9410 C   0  0  0  0  0  0  0  0  0  0  0  0
   -0.0510   26.5570  -24.1110 C   0  0  0  0  0  0  0  0  0  0  0  0
    0.2530   27.1140  -22.8710 O   0  0  0  0  0  0  0  0  0  0  0  0
    0.5720   25.3750  -24.5350 C   0  0  0  0  0  0  0  0  0  0  0  0
    0.2560   24.8230  -25.7810 C   0  0  0  0  0  0  0  0  0  0  0  0
   -4.9020   21.7100  -31.2100 C   0  0  0  0  0  0  0  0  0  0  0  0
   -7.4165   19.0575  -33.8007 H   0  0  0  0  0  0  0  0  0  0  0  0
   -6.5284   20.2060  -34.8585 H   0  0  0  0  0  0  0  0  0  0  0  0
   -6.0917   18.4636  -34.8585 H   0  0  0  0  0  0  0  0  0  0  0  0
   -7.9172   20.5781  -32.3600 H   0  0  0  0  0  0  0  0  0  0  0  0
   -8.7142   22.4755  -30.9512 H   0  0  0  0  0  0  0  0  0  0  0  0
   -7.0738   23.8887  -29.7105 H   0  0  0  0  0  0  0  0  0  0  0  0
   -4.3894   20.9657  -28.4971 H   0  0  0  0  0  0  0  0  0  0  0  0
   -1.1880   18.4900  -28.4040 H   0  0  0  0  0  0  0  0  0  0  0  0
   -2.0268   27.1394  -26.8413 H   0  0  0  0  0  0  0  0  0  0  0  0
   -1.4741   28.1137  -24.6118 H   0  0  0  0  0  0  0  0  0  0  0  0
    0.9460   26.7010  -22.2590 H   0  0  0  0  0  0  0  0  0  0  0  0
    1.3106   24.8807  -23.8869 H   0  0  0  0  0  0  0  0  0  0  0  0
    0.7502   23.8979  -26.1126 H   0  0  0  0  0  0  0  0  0  0  0  0
   -3.8256   21.4965  -31.2865 H   0  0  0  0  0  0  0  0  0  0  0  0
  1  2  1  0
  2  3  2  0
  2  4  2  0
  2  5  1  0
  5  6  2  0
  6  7  1  0
  7  8  2  0
  8  9  1  0
  9 10  1  0
 10 11  2  0
 10 12  2  0
 10 13  1  0
 13 14  1  0
 14 15  2  0
 15 16  1  0
 16 17  1  0
 16 18  2  0
 16 19  2  0
 15 20  1  0
 20 21  1  0
 21 22  1  0
 22 23  2  0
 22 24  2  0
 22 25  1  0
 25 26  2  0
 26 27  1  0
 27 28  2  0
 28 29  1  0
 28 30  1  0
 30 31  2  0
  9 32  2  0
 32  5  1  0
 21 13  2  0
 31 25  1  0
  1 33  1  0
  1 34  1  0
  1 35  1  0
  6 36  1  0
  7 37  1  0
  8 38  1  0
 14 39  1  0
 17 40  1  0
 26 41  1  0
 27 42  1  0
 29 43  1  0
 30 44  1  0
 31 45  1  0
 32 46  1  0
M  CHG  1  17  -1
M  END
>  <UniqueID>  (26) 
25

>  <SMILES>  (26) 
CS(=O)(=O)c1cccc(S(=O)(=O)c2cc(S([NH-])(=O)=O)sc2S(=O)(=O)c2ccc(O)cc2)c1

>  <Energy>  (26) 
71.97601578195767

>  <Genealogy>  (26) 
CS(=O)(=O)c1cccc(S(=O)(=O)c2cc(S([NH-])(=O)=O)sc2S(=O)(=O)c2ccc(O)cc2)c1 (protonated)
CS(=O)(=O)c1cccc(S(=O)(=O)c2cc(S([NH-])(=O)=O)sc2S(=O)(=O)c2ccc(O)cc2)c1 (3D coordinates assigned)
CS(=O)(=O)c1cccc(S(=O)(=O)c2cc(S([NH-])(=O)=O)sc2S(=O)(=O)c2ccc(O)cc2)c1 (optimized conformer: 71.97601578195767 kcal/mol)

>  <smiles>  (26) 
CS(=O)(=O)c1cccc(S(=O)(=O)c2cc(S(N)(=O)=O)sc2S(=O)(=O)c2ccc(O)cc2)c1

>  <score_type>  (26) 
oracle

>  <origin>  (26) 
adgpu

>  <m_score__min__energy>  (26) 
-12.42

>  <m_primary>  (26) 
energy

$$$$
26:0
     RDKit          3D

 45 47  0  0  0  0  0  0  0  0999 V2000
   -8.7420   21.8690  -31.5980 C   0  0  0  0  0  0  0  0  0  0  0  0
   -9.4190   20.2790  -32.1680 S   0  0  0  0  0  0  0  0  0  0  0  0
   -7.8300   19.6670  -32.7220 C   0  0  0  0  0  0  0  0  0  0  0  0
   -6.7450   20.5390  -32.8480 C   0  0  0  0  0  0  0  0  0  0  0  0
   -5.5050   20.0400  -33.2800 C   0  0  0  0  0  0  0  0  0  0  0  0
   -4.3860   20.8700  -33.4460 O   0  0  0  0  0  0  0  0  0  0  0  0
   -3.7510   21.5900  -32.4230 C   0  0  0  0  0  0  0  0  0  0  0  0
   -2.4400   21.2470  -32.0750 C   0  0  0  0  0  0  0  0  0  0  0  0
   -1.7750   21.9330  -31.0530 C   0  0  0  0  0  0  0  0  0  0  0  0
   -2.4260   22.9610  -30.3570 C   0  0  0  0  0  0  0  0  0  0  0  0
   -1.5900   23.8540  -29.0870 S   0  0  0  0  0  0  0  0  0  0  0  0
   -1.9960   25.3000  -29.1330 O   0  0  0  0  0  0  0  0  0  0  0  0
   -0.1120   23.7700  -29.3450 O   0  0  0  0  0  0  0  0  0  0  0  0
   -1.9430   23.1630  -27.5160 N   0  0  0  0  0  0  0  0  0  0  0  0
   -0.7560   22.5330  -26.9100 C   0  0  0  0  0  0  0  0  0  0  0  0
   -0.3940   21.1910  -27.5900 C   0  0  0  0  0  0  0  0  0  0  0  0
   -1.4570   20.6300  -28.3410 O   0  0  0  0  0  0  0  0  0  0  0  0
   -2.6730   20.7590  -27.6400 C   0  0  0  0  0  0  0  0  0  0  0  0
   -3.0970   22.2380  -27.5710 C   0  0  0  0  0  0  0  0  0  0  0  0
   -3.7440   23.2960  -30.6910 C   0  0  0  0  0  0  0  0  0  0  0  0
   -4.4080   22.6100  -31.7120 C   0  0  0  0  0  0  0  0  0  0  0  0
   -5.3900   18.6850  -33.6010 C   0  0  0  0  0  0  0  0  0  0  0  0
   -6.4990   17.8400  -33.4550 C   0  0  0  0  0  0  0  0  0  0  0  0
   -6.3910   16.3870  -33.7910 C   0  0  0  0  0  0  0  0  0  0  0  0
   -7.6830   18.3490  -33.0220 N   0  0  0  0  0  0  0  0  0  0  0  0
   -8.7329   21.8905  -30.4982 H   0  0  0  0  0  0  0  0  0  0  0  0
   -7.7156   21.9870  -31.9756 H   0  0  0  0  0  0  0  0  0  0  0  0
   -9.3683   22.6907  -31.9756 H   0  0  0  0  0  0  0  0  0  0  0  0
   -6.8611   21.6069  -32.6109 H   0  0  0  0  0  0  0  0  0  0  0  0
   -1.9286   20.4323  -32.6086 H   0  0  0  0  0  0  0  0  0  0  0  0
   -0.7397   21.6653  -30.7952 H   0  0  0  0  0  0  0  0  0  0  0  0
    0.0975   23.2202  -27.0061 H   0  0  0  0  0  0  0  0  0  0  0  0
   -0.9863   22.3250  -25.8547 H   0  0  0  0  0  0  0  0  0  0  0  0
    0.4568   21.3621  -28.2660 H   0  0  0  0  0  0  0  0  0  0  0  0
   -0.1544   20.4775  -26.7878 H   0  0  0  0  0  0  0  0  0  0  0  0
   -3.4532   20.1818  -28.1578 H   0  0  0  0  0  0  0  0  0  0  0  0
   -2.5380   20.3778  -26.6170 H   0  0  0  0  0  0  0  0  0  0  0  0
   -3.6948   22.4744  -28.4637 H   0  0  0  0  0  0  0  0  0  0  0  0
   -3.6752   22.3741  -26.6452 H   0  0  0  0  0  0  0  0  0  0  0  0
   -4.2588   24.1021  -30.1478 H   0  0  0  0  0  0  0  0  0  0  0  0
   -5.4479   22.8689  -31.9601 H   0  0  0  0  0  0  0  0  0  0  0  0
   -4.4336   18.2831  -33.9666 H   0  0  0  0  0  0  0  0  0  0  0  0
   -6.3472   15.7983  -32.8628 H   0  0  0  0  0  0  0  0  0  0  0  0
   -7.2688   16.0803  -34.3787 H   0  0  0  0  0  0  0  0  0  0  0  0
   -5.4775   16.2135  -34.3787 H   0  0  0  0  0  0  0  0  0  0  0  0
  1  2  1  0
  2  3  1  0
  3  4  2  0
  4  5  1  0
  5  6  1  0
  6  7  1  0
  7  8  2  0
  8  9  1  0
  9 10  2  0
 10 11  1  0
 11 12  2  0
 11 13  2  0
 11 14  1  0
 14 15  1  0
 15 16  1  0
 16 17  1  0
 17 18  1  0
 18 19  1  0
 10 20  1  0
 20 21  2  0
  5 22  2  0
 22 23  1  0
 23 24  1  0
 23 25  2  0
 25  3  1  0
 21  7  1  0
 19 14  1  0
  1 26  1  0
  1 27  1  0
  1 28  1  0
  4 29  1  0
  8 30  1  0
  9 31  1  0
 15 32  1  0
 15 33  1  0
 16 34  1  0
 16 35  1  0
 18 36  1  0
 18 37  1  0
 19 38  1  0
 19 39  1  0
 20 40  1  0
 21 41  1  0
 22 42  1  0
 24 43  1  0
 24 44  1  0
 24 45  1  0
M  END
>  <UniqueID>  (27) 
26

>  <SMILES>  (27) 
CSc1cc(Oc2ccc(S(=O)(=O)N3CCOCC3)cc2)cc(C)n1

>  <Energy>  (27) 
58.260148969405286

>  <Genealogy>  (27) 
CSc1cc(Oc2ccc(S(=O)(=O)N3CCOCC3)cc2)cc(C)n1 (3D coordinates assigned)
CSc1cc(Oc2ccc(S(=O)(=O)N3CCOCC3)cc2)cc(C)n1 (nonaromatic ring conformer: 58.260148969405286 kcal/mol)

>  <smiles>  (27) 
CSc1cc(Oc2ccc(S(=O)(=O)N3CCOCC3)cc2)cc(C)n1

>  <score_type>  (27) 
oracle

>  <origin>  (27) 
adgpu

>  <m_score__min__energy>  (27) 
-8.5399999999999991

>  <m_primary>  (27) 
energy

$$$$
27:0
     RDKit          3D

 36 37  0  0  0  0  0  0  0  0999 V2000
   -3.3630   21.7390  -32.5550 C   0  0  0  0  0  0  0  0  0  0  0  0
   -3.5980   23.0090  -31.9560 O   0  0  0  0  0  0  0  0  0  0  0  0
   -4.8030   23.3900  -31.3420 C   0  0  0  0  0  0  0  0  0  0  0  0
   -5.8880   22.5000  -31.2140 C   0  0  0  0  0  0  0  0  0  0  0  0
   -7.0780   22.9070  -30.5880 C   0  0  0  0  0  0  0  0  0  0  0  0
   -8.2300   21.9430  -30.4430 C   0  0  0  0  0  0  0  0  0  0  0  0
   -8.9460   21.6770  -31.7800 C   0  0  0  0  0  0  0  0  0  0  0  0
   -9.2370   20.1910  -32.0460 C   0  0  0  0  0  0  0  0  0  0  0  0
   -8.0300   19.4500  -32.5660 C   0  0  0  0  0  0  0  0  0  0  0  0
   -7.8180   18.1040  -32.2130 C   0  0  0  0  0  0  0  0  0  0  0  0
   -6.6940   17.4210  -32.6870 C   0  0  0  0  0  0  0  0  0  0  0  0
   -5.7780   18.0690  -33.5170 C   0  0  0  0  0  0  0  0  0  0  0  0
   -5.9850   19.4030  -33.8810 C   0  0  0  0  0  0  0  0  0  0  0  0
   -7.1080   20.0910  -33.4100 C   0  0  0  0  0  0  0  0  0  0  0  0
   -7.1850   24.2190  -30.1050 C   0  0  0  0  0  0  0  0  0  0  0  0
   -6.1140   25.1060  -30.2300 C   0  0  0  0  0  0  0  0  0  0  0  0
   -4.9250   24.6990  -30.8420 C   0  0  0  0  0  0  0  0  0  0  0  0
   -3.8760   25.6120  -30.9460 O   0  0  0  0  0  0  0  0  0  0  0  0
   -3.2231   20.9829  -31.7684 H   0  0  0  0  0  0  0  0  0  0  0  0
   -4.2253   21.4630  -33.1797 H   0  0  0  0  0  0  0  0  0  0  0  0
   -2.4590   21.7899  -33.1797 H   0  0  0  0  0  0  0  0  0  0  0  0
   -5.8024   21.4766  -31.6081 H   0  0  0  0  0  0  0  0  0  0  0  0
   -7.8453   20.9893  -30.0527 H   0  0  0  0  0  0  0  0  0  0  0  0
   -8.9605   22.3950  -29.7560 H   0  0  0  0  0  0  0  0  0  0  0  0
   -9.9017   22.2216  -31.7754 H   0  0  0  0  0  0  0  0  0  0  0  0
   -8.2696   22.0177  -32.5777 H   0  0  0  0  0  0  0  0  0  0  0  0
   -9.5613   19.7212  -31.1057 H   0  0  0  0  0  0  0  0  0  0  0  0
  -10.0202   20.1365  -32.8165 H   0  0  0  0  0  0  0  0  0  0  0  0
   -8.5390   17.5878  -31.5621 H   0  0  0  0  0  0  0  0  0  0  0  0
   -6.5312   16.3703  -32.4051 H   0  0  0  0  0  0  0  0  0  0  0  0
   -4.8926   17.5299  -33.8850 H   0  0  0  0  0  0  0  0  0  0  0  0
   -5.2643   19.9117  -34.5381 H   0  0  0  0  0  0  0  0  0  0  0  0
   -7.2700   21.1391  -33.7019 H   0  0  0  0  0  0  0  0  0  0  0  0
   -8.1174   24.5511  -29.6252 H   0  0  0  0  0  0  0  0  0  0  0  0
   -6.2065   26.1320  -29.8443 H   0  0  0  0  0  0  0  0  0  0  0  0
   -3.1270   25.4990  -31.6180 H   0  0  0  0  0  0  0  0  0  0  0  0
  1  2  1  0
  2  3  1  0
  3  4  2  0
  4  5  1  0
  5  6  1  0
  6  7  1  0
  7  8  1  0
  8  9  1  0
  9 10  2  0
 10 11  1  0
 11 12  2  0
 12 13  1  0
 13 14  2  0
  5 15  2  0
 15 16  1  0
 16 17  2  0
 17 18  1  0
 17  3  1  0
 14  9  1  0
  1 19  1  0
  1 20  1  0
  1 21  1  0
  4 22  1  0
  6 23  1  0
  6 24  1  0
  7 25  1  0
  7 26  1  0
  8 27  1  0
  8 28  1  0
 10 29  1  0
 11 30  1  0
 12 31  1  0
 13 32  1  0
 14 33  1  0
 15 34  1  0
 16 35  1  0
 18 36  1  0
M  END
>  <UniqueID>  (28) 
27

>  <SMILES>  (28) 
COc1cc(CCCc2ccccc2)ccc1O

>  <Energy>  (28) 
31.232731779042112

>  <Genealogy>  (28) 
COc1cc(CCCc2ccccc2)ccc1O (3D coordinates assigned)
COc1cc(CCCc2ccccc2)ccc1O (optimized conformer: 31.232731779042112 kcal/mol)

>  <smiles>  (28) 
COc1cc(CCCc2ccccc2)ccc1O

>  <score_type>  (28) 
oracle

>  <origin>  (28) 
adgpu

>  <m_score__min__energy>  (28) 
-9.0099999999999998

>  <m_primary>  (28) 
energy

$$$$
28:0
     RDKit          3D

 66 70  0  0  0  0  0  0  0  0999 V2000
   -9.1650   22.3500  -31.4720 O   0  0  0  0  0  0  0  0  0  0  0  0
   -7.9910   21.9290  -31.6530 C   0  0  0  0  0  0  0  0  0  0  0  0
   -6.8260   22.7840  -31.3130 C   0  0  0  0  0  0  0  0  0  0  0  0
   -6.9720   24.1780  -31.2050 C   0  0  0  0  0  0  0  0  0  0  0  0
   -5.8680   24.9840  -30.9160 C   0  0  0  0  0  0  0  0  0  0  0  0
   -4.6020   24.4130  -30.7380 C   0  0  0  0  0  0  0  0  0  0  0  0
   -3.5020   25.2230  -30.4530 O   0  0  0  0  0  0  0  0  0  0  0  0
   -4.4410   23.0240  -30.8310 C   0  0  0  0  0  0  0  0  0  0  0  0
   -3.1340   22.4660  -30.6320 N   0  0  0  0  0  0  0  0  0  0  0  0
   -2.0880   22.8120  -29.2940 S   0  0  0  0  0  0  0  0  0  0  0  0
   -0.8650   23.5530  -29.7540 O   0  0  0  0  0  0  0  0  0  0  0  0
   -2.8230   23.6860  -28.3160 O   0  0  0  0  0  0  0  0  0  0  0  0
   -1.6570   21.3010  -28.4940 C   0  0  0  0  0  0  0  0  0  0  0  0
   -2.5380   20.6920  -27.5870 C   0  0  0  0  0  0  0  0  0  0  0  0
   -2.1450   19.5450  -26.8920 C   0  0  0  0  0  0  0  0  0  0  0  0
   -0.8810   18.9900  -27.1090 C   0  0  0  0  0  0  0  0  0  0  0  0
    0.0020   19.5860  -28.0200 C   0  0  0  0  0  0  0  0  0  0  0  0
    1.5980   18.8830  -28.2730 S   0  0  0  0  0  0  0  0  0  0  0  0
    2.6330   19.8850  -27.8470 O   0  0  0  0  0  0  0  0  0  0  0  0
    1.7970   18.5680  -29.7300 O   0  0  0  0  0  0  0  0  0  0  0  0
    1.7660   17.4270  -27.3230 N   0  0  0  0  0  0  0  0  0  0  0  0
    1.0860   16.3060  -27.9990 C   0  0  0  0  0  0  0  0  0  0  0  0
    1.0830   15.0480  -27.1070 C   0  0  0  0  0  0  0  0  0  0  0  0
    2.1430   15.1090  -25.9980 C   0  0  0  0  0  0  0  0  0  0  0  0
    3.4380   15.7260  -26.5290 C   0  0  0  0  0  0  0  0  0  0  0  0
    3.2020   17.1320  -27.1220 C   0  0  0  0  0  0  0  0  0  0  0  0
   -0.3890   20.7430  -28.7080 C   0  0  0  0  0  0  0  0  0  0  0  0
   -5.5540   22.2150  -31.1310 C   0  0  0  0  0  0  0  0  0  0  0  0
   -7.7990   20.6220  -32.2070 N   0  0  0  0  0  0  0  0  0  0  0  0
   -8.7520   19.5580  -31.8910 C   0  0  0  0  0  0  0  0  0  0  0  0
   -7.9930   18.2490  -31.6780 C   0  0  0  0  0  0  0  0  0  0  0  0
   -7.0160   17.9830  -32.7950 C   0  0  0  0  0  0  0  0  0  0  0  0
   -6.5680   16.6710  -33.0170 C   0  0  0  0  0  0  0  0  0  0  0  0
   -5.6270   16.4040  -34.0160 C   0  0  0  0  0  0  0  0  0  0  0  0
   -5.1160   17.4430  -34.7960 C   0  0  0  0  0  0  0  0  0  0  0  0
   -5.5390   18.7560  -34.5740 C   0  0  0  0  0  0  0  0  0  0  0  0
   -6.4760   19.0410  -33.5660 C   0  0  0  0  0  0  0  0  0  0  0  0
   -6.9190   20.4730  -33.3690 C   0  0  0  0  0  0  0  0  0  0  0  0
   -7.9613   24.6369  -31.3489 H   0  0  0  0  0  0  0  0  0  0  0  0
   -5.9941   26.0732  -30.8278 H   0  0  0  0  0  0  0  0  0  0  0  0
   -2.6140   24.8270  -30.1680 H   0  0  0  0  0  0  0  0  0  0  0  0
   -3.5388   21.1179  -27.4230 H   0  0  0  0  0  0  0  0  0  0  0  0
   -2.8328   19.0776  -26.1719 H   0  0  0  0  0  0  0  0  0  0  0  0
   -0.5784   18.0837  -26.5639 H   0  0  0  0  0  0  0  0  0  0  0  0
    0.0475   16.5943  -28.2190 H   0  0  0  0  0  0  0  0  0  0  0  0
    1.6256   16.0765  -28.9297 H   0  0  0  0  0  0  0  0  0  0  0  0
    0.0913   14.9483  -26.6416 H   0  0  0  0  0  0  0  0  0  0  0  0
    1.3190   14.1849  -27.7468 H   0  0  0  0  0  0  0  0  0  0  0  0
    1.7634   15.7225  -25.1676 H   0  0  0  0  0  0  0  0  0  0  0  0
    2.3524   14.0871  -25.6491 H   0  0  0  0  0  0  0  0  0  0  0  0
    4.1599   15.8046  -25.7028 H   0  0  0  0  0  0  0  0  0  0  0  0
    3.8227   15.0773  -27.3297 H   0  0  0  0  0  0  0  0  0  0  0  0
    3.6233   17.8803  -26.4346 H   0  0  0  0  0  0  0  0  0  0  0  0
    3.6920   17.1668  -28.1062 H   0  0  0  0  0  0  0  0  0  0  0  0
    0.3033   21.2159  -29.4201 H   0  0  0  0  0  0  0  0  0  0  0  0
   -5.4264   21.1264  -31.2238 H   0  0  0  0  0  0  0  0  0  0  0  0
   -9.3021   19.8174  -30.9744 H   0  0  0  0  0  0  0  0  0  0  0  0
   -9.4635   19.4411  -32.7217 H   0  0  0  0  0  0  0  0  0  0  0  0
   -7.4413   18.3073  -30.7281 H   0  0  0  0  0  0  0  0  0  0  0  0
   -8.7244   17.4276  -31.6592 H   0  0  0  0  0  0  0  0  0  0  0  0
   -6.9598   15.8481  -32.4011 H   0  0  0  0  0  0  0  0  0  0  0  0
   -5.2881   15.3717  -34.1880 H   0  0  0  0  0  0  0  0  0  0  0  0
   -4.3805   17.2280  -35.5852 H   0  0  0  0  0  0  0  0  0  0  0  0
   -5.1361   19.5719  -35.1921 H   0  0  0  0  0  0  0  0  0  0  0  0
   -6.0291   21.1029  -33.2232 H   0  0  0  0  0  0  0  0  0  0  0  0
   -7.4825   20.7796  -34.2626 H   0  0  0  0  0  0  0  0  0  0  0  0
  1  2  2  0
  2  3  1  0
  3  4  2  0
  4  5  1  0
  5  6  2  0
  6  7  1  0
  6  8  1  0
  8  9  1  0
  9 10  1  0
 10 11  2  0
 10 12  2  0
 10 13  1  0
 13 14  2  0
 14 15  1  0
 15 16  2  0
 16 17  1  0
 17 18  1  0
 18 19  2  0
 18 20  2  0
 18 21  1  0
 21 22  1  0
 22 23  1  0
 23 24  1  0
 24 25  1  0
 25 26  1  0
 17 27  2  0
  8 28  2  0
  2 29  1  0
 29 30  1  0
 30 31  1  0
 31 32  1  0
 32 33  2  0
 33 34  1  0
 34 35  2  0
 35 36  1  0
 36 37  2  0
 37 38  1  0
 28  3  1  0
 38 29  1  0
 27 13  1  0
 37 32  1  0
 26 21  1  0
  4 39  1  0
  5 40  1  0
  7 41  1  0
 14 42  1  0
 15 43  1  0
 16 44  1  0
 22 45  1  0
 22 46  1  0
 23 47  1  0
 23 48  1  0
 24 49  1  0
 24 50  1  0
 25 51  1  0
 25 52  1  0
 26 53  1  0
 26 54  1  0
 27 55  1  0
 28 56  1  0
 30 57  1  0
 30 58  1  0
 31 59  1  0
 31 60  1  0
 33 61  1  0
 34 62  1  0
 35 63  1  0
 36 64  1  0
 38 65  1  0
 38 66  1  0
M  CHG  1   9  -1
M  END
>  <UniqueID>  (29) 
28

>  <SMILES>  (29) 
O=C(c1ccc(O)c([N-]S(=O)(=O)c2cccc(S(=O)(=O)N3CCCCC3)c2)c1)N1CCc2ccccc2C1

>  <Energy>  (29) 
84.62212568405302

>  <Genealogy>  (29) 
O=C(c1ccc(O)c([N-]S(=O)(=O)c2cccc(S(=O)(=O)N3CCCCC3)c2)c1)N1CCc2ccccc2C1 (protonated)
O=C(c1ccc(O)c([N-]S(=O)(=O)c2cccc(S(=O)(=O)N3CCCCC3)c2)c1)N1CCc2ccccc2C1 (3D coordinates assigned)
O=C(c1ccc(O)c([N-]S(=O)(=O)c2cccc(S(=O)(=O)N3CCCCC3)c2)c1)N1CCc2ccccc2C1 (nonaromatic ring conformer: 84.62212568405302 kcal/mol)

>  <smiles>  (29) 
O=C(c1ccc(O)c(NS(=O)(=O)c2cccc(S(=O)(=O)N3CCCCC3)c2)c1)N1CCc2ccccc2C1

>  <score_type>  (29) 
oracle

>  <origin>  (29) 
adgpu

>  <m_score__min__energy>  (29) 
-13.5

>  <m_primary>  (29) 
energy

$$$$
29:0
     RDKit          3D

 46 48  0  0  0  0  0  0  0  0999 V2000
   -1.3750   21.7200  -26.5760 C   0  0  0  0  0  0  0  0  0  0  0  0
   -1.9610   22.6730  -27.5850 C   0  0  0  0  0  0  0  0  0  0  0  0
   -3.1580   22.3000  -28.2180 C   0  0  0  0  0  0  0  0  0  0  0  0
   -3.7850   23.1490  -29.1250 C   0  0  0  0  0  0  0  0  0  0  0  0
   -3.2460   24.4120  -29.4000 C   0  0  0  0  0  0  0  0  0  0  0  0
   -3.8630   25.3020  -30.3410 N   0  0  0  0  0  0  0  0  0  0  0  0
   -5.1620   25.1490  -30.9240 C   0  0  0  0  0  0  0  0  0  0  0  0
   -6.1060   25.8660  -30.5030 O   0  0  0  0  0  0  0  0  0  0  0  0
   -5.3830   24.1890  -31.9660 N   0  0  0  0  0  0  0  0  0  0  0  0
   -6.3190   23.1000  -31.9490 C   0  0  0  0  0  0  0  0  0  0  0  0
   -5.9490   21.7910  -32.3110 C   0  0  0  0  0  0  0  0  0  0  0  0
   -6.8990   20.7640  -32.3030 C   0  0  0  0  0  0  0  0  0  0  0  0
   -8.2270   21.0370  -31.9490 C   0  0  0  0  0  0  0  0  0  0  0  0
   -9.1820   20.0210  -31.9360 O   0  0  0  0  0  0  0  0  0  0  0  0
   -8.6010   22.3410  -31.6130 C   0  0  0  0  0  0  0  0  0  0  0  0
   -7.6530   23.3680  -31.6210 C   0  0  0  0  0  0  0  0  0  0  0  0
   -2.0420   24.7960  -28.7920 C   0  0  0  0  0  0  0  0  0  0  0  0
   -1.5120   26.0450  -29.0970 O   0  0  0  0  0  0  0  0  0  0  0  0
   -1.3820   23.9390  -27.8810 C   0  0  0  0  0  0  0  0  0  0  0  0
    0.1530   24.4890  -27.1460 S   0  0  0  0  0  0  0  0  0  0  0  0
    1.1320   24.9190  -28.2010 O   0  0  0  0  0  0  0  0  0  0  0  0
    0.7840   23.3370  -26.4130 O   0  0  0  0  0  0  0  0  0  0  0  0
   -0.0840   25.8100  -26.0230 N   0  0  0  0  0  0  0  0  0  0  0  0
   -0.4610   27.0420  -26.7320 C   0  0  0  0  0  0  0  0  0  0  0  0
   -0.8470   28.1490  -25.7300 C   0  0  0  0  0  0  0  0  0  0  0  0
   -0.5130   27.7800  -24.4060 O   0  0  0  0  0  0  0  0  0  0  0  0
   -1.2610   26.6390  -24.0210 C   0  0  0  0  0  0  0  0  0  0  0  0
   -1.1040   25.4750  -25.0210 C   0  0  0  0  0  0  0  0  0  0  0  0
   -1.5962   22.0797  -25.5603 H   0  0  0  0  0  0  0  0  0  0  0  0
   -1.8155   20.7218  -26.7155 H   0  0  0  0  0  0  0  0  0  0  0  0
   -0.2854   21.6627  -26.7155 H   0  0  0  0  0  0  0  0  0  0  0  0
   -3.6070   21.3213  -27.9933 H   0  0  0  0  0  0  0  0  0  0  0  0
   -4.7084   22.8265  -29.6283 H   0  0  0  0  0  0  0  0  0  0  0  0
   -4.9101   21.5750  -32.6010 H   0  0  0  0  0  0  0  0  0  0  0  0
   -6.6028   19.7402  -32.5752 H   0  0  0  0  0  0  0  0  0  0  0  0
   -9.3430   19.4580  -31.1090 H   0  0  0  0  0  0  0  0  0  0  0  0
   -9.6443   22.5597  -31.3415 H   0  0  0  0  0  0  0  0  0  0  0  0
   -7.9575   24.3942  -31.3677 H   0  0  0  0  0  0  0  0  0  0  0  0
    0.3901   27.3846  -27.3389 H   0  0  0  0  0  0  0  0  0  0  0  0
   -1.3269   26.8294  -27.3762 H   0  0  0  0  0  0  0  0  0  0  0  0
   -0.3098   29.0727  -25.9913 H   0  0  0  0  0  0  0  0  0  0  0  0
   -1.9347   28.3041  -25.7844 H   0  0  0  0  0  0  0  0  0  0  0  0
   -0.9144   26.3054  -23.0318 H   0  0  0  0  0  0  0  0  0  0  0  0
   -2.3233   26.9235  -23.9979 H   0  0  0  0  0  0  0  0  0  0  0  0
   -0.7987   24.5676  -24.4793 H   0  0  0  0  0  0  0  0  0  0  0  0
   -2.0649   25.3008  -25.5272 H   0  0  0  0  0  0  0  0  0  0  0  0
  1  2  1  0
  2  3  2  0
  3  4  1  0
  4  5  2  0
  5  6  1  0
  6  7  1  0
  7  8  2  0
  7  9  1  0
  9 10  1  0
 10 11  2  0
 11 12  1  0
 12 13  2  0
 13 14  1  0
 13 15  1  0
 15 16  2  0
  5 17  1  0
 17 18  1  0
 17 19  2  0
 19 20  1  0
 20 21  2  0
 20 22  2  0
 20 23  1  0
 23 24  1  0
 24 25  1  0
 25 26  1  0
 26 27  1  0
 27 28  1  0
 19  2  1  0
 28 23  1  0
 16 10  1  0
  1 29  1  0
  1 30  1  0
  1 31  1  0
  3 32  1  0
  4 33  1  0
 11 34  1  0
 12 35  1  0
 14 36  1  0
 15 37  1  0
 16 38  1  0
 24 39  1  0
 24 40  1  0
 25 41  1  0
 25 42  1  0
 27 43  1  0
 27 44  1  0
 28 45  1  0
 28 46  1  0
M  CHG  3   6  -1   9  -1  18  -1
M  END
>  <UniqueID>  (30) 
29

>  <SMILES>  (30) 
Cc1ccc([N-]C(=O)[N-]c2ccc(O)cc2)c([O-])c1S(=O)(=O)N1CCOCC1

>  <Energy>  (30) 
66.43928629382634

>  <Genealogy>  (30) 
Cc1ccc([N-]C(=O)[N-]c2ccc(O)cc2)c([O-])c1S(=O)(=O)N1CCOCC1 (protonated)
Cc1ccc([N-]C(=O)[N-]c2ccc(O)cc2)c([O-])c1S(=O)(=O)N1CCOCC1 (3D coordinates assigned)
Cc1ccc([N-]C(=O)[N-]c2ccc(O)cc2)c([O-])c1S(=O)(=O)N1CCOCC1 (nonaromatic ring conformer: 66.43928629382634 kcal/mol)

>  <smiles>  (30) 
Cc1ccc(NC(=O)Nc2ccc(O)cc2)c(O)c1S(=O)(=O)N1CCOCC1

>  <score_type>  (30) 
oracle

>  <origin>  (30) 
adgpu

>  <m_score__min__energy>  (30) 
-14.07

>  <m_primary>  (30) 
energy

$$$$
30:0
     RDKit          3D

 50 52  0  0  0  0  0  0  0  0999 V2000
   -0.2120   22.0150  -26.1360 H   0  0  0  0  0  0  0  0  0  0  0  0
   -0.7860   21.6350  -26.8770 O   0  0  0  0  0  0  0  0  0  0  0  0
   -1.6780   22.4300  -27.5950 C   0  0  0  0  0  0  0  0  0  0  0  0
   -2.9940   22.0110  -27.8030 C   0  0  0  0  0  0  0  0  0  0  0  0
   -3.3331   21.0471  -27.3955 H   0  0  0  0  0  0  0  0  0  0  0  0
   -3.8830   22.8130  -28.5280 C   0  0  0  0  0  0  0  0  0  0  0  0
   -4.9174   22.4739  -28.6865 H   0  0  0  0  0  0  0  0  0  0  0  0
   -3.4660   24.0490  -29.0560 C   0  0  0  0  0  0  0  0  0  0  0  0
   -4.4020   24.9070  -29.8260 C   0  0  0  0  0  0  0  0  0  0  0  0
   -4.0260   25.3930  -30.9250 O   0  0  0  0  0  0  0  0  0  0  0  0
   -5.7590   25.2230  -29.3260 C   0  0  0  0  0  0  0  0  0  0  0  0
   -5.8479   25.9393  -28.4959 H   0  0  0  0  0  0  0  0  0  0  0  0
   -6.8910   24.6900  -29.8220 C   0  0  0  0  0  0  0  0  0  0  0  0
   -7.8476   25.1170  -29.4865 H   0  0  0  0  0  0  0  0  0  0  0  0
   -6.9380   23.5710  -30.7860 C   0  0  0  0  0  0  0  0  0  0  0  0
   -5.9840   23.4990  -31.8070 C   0  0  0  0  0  0  0  0  0  0  0  0
   -5.2184   24.2835  -31.8994 H   0  0  0  0  0  0  0  0  0  0  0  0
   -6.0020   22.4330  -32.7090 C   0  0  0  0  0  0  0  0  0  0  0  0
   -5.2450   22.3792  -33.5053 H   0  0  0  0  0  0  0  0  0  0  0  0
   -6.9750   21.4330  -32.6080 C   0  0  0  0  0  0  0  0  0  0  0  0
   -6.8890   20.3300  -33.4600 O   0  0  0  0  0  0  0  0  0  0  0  0
   -5.6590   19.1550  -33.2850 S   0  0  0  0  0  0  0  0  0  0  0  0
   -6.0820   18.0900  -32.3170 O   0  0  0  0  0  0  0  0  0  0  0  0
   -5.3980   18.5080  -34.6140 O   0  0  0  0  0  0  0  0  0  0  0  0
   -4.1920   19.9400  -32.7100 C   0  0  0  0  0  0  0  0  0  0  0  0
   -3.1330   20.1910  -33.5960 C   0  0  0  0  0  0  0  0  0  0  0  0
   -3.2441   19.9513  -34.6638 H   0  0  0  0  0  0  0  0  0  0  0  0
   -1.9380   20.7440  -33.1280 C   0  0  0  0  0  0  0  0  0  0  0  0
   -1.1080   20.9298  -33.8255 H   0  0  0  0  0  0  0  0  0  0  0  0
   -1.7960   21.0630  -31.7660 C   0  0  0  0  0  0  0  0  0  0  0  0
   -0.5050   21.6280  -31.2460 C   0  0  0  0  0  0  0  0  0  0  0  0
   -0.5188   21.6220  -30.1461 H   0  0  0  0  0  0  0  0  0  0  0  0
    0.3347   21.0151  -31.6055 H   0  0  0  0  0  0  0  0  0  0  0  0
   -0.3855   22.6607  -31.6055 H   0  0  0  0  0  0  0  0  0  0  0  0
   -2.8540   20.8030  -30.8770 C   0  0  0  0  0  0  0  0  0  0  0  0
   -2.7447   21.0421  -29.8089 H   0  0  0  0  0  0  0  0  0  0  0  0
   -4.0450   20.2410  -31.3480 C   0  0  0  0  0  0  0  0  0  0  0  0
   -4.8685   20.0345  -30.6485 H   0  0  0  0  0  0  0  0  0  0  0  0
   -7.9950   21.5430  -31.6460 C   0  0  0  0  0  0  0  0  0  0  0  0
   -9.0210   20.5860  -31.6300 O   0  0  0  0  0  0  0  0  0  0  0  0
   -8.8150   19.1760  -31.5990 C   0  0  0  0  0  0  0  0  0  0  0  0
   -8.7653   18.8356  -30.5542 H   0  0  0  0  0  0  0  0  0  0  0  0
   -9.6491   18.6723  -32.1094 H   0  0  0  0  0  0  0  0  0  0  0  0
   -7.8717   18.9320  -32.1094 H   0  0  0  0  0  0  0  0  0  0  0  0
   -7.9660   22.6160  -30.7350 C   0  0  0  0  0  0  0  0  0  0  0  0
   -8.7566   22.7071  -29.9757 H   0  0  0  0  0  0  0  0  0  0  0  0
   -2.1350   24.4660  -28.8320 C   0  0  0  0  0  0  0  0  0  0  0  0
   -1.6710   25.6750  -29.3410 O   0  0  0  0  0  0  0  0  0  0  0  0
   -1.2530   23.6560  -28.1080 C   0  0  0  0  0  0  0  0  0  0  0  0
   -0.2175   23.9881  -27.9422 H   0  0  0  0  0  0  0  0  0  0  0  0
  1  2  1  0
  2  3  1  0
  3  4  2  0
  4  5  1  0
  4  6  1  0
  6  7  1  0
  6  8  2  0
  8  9  1  0
  9 10  2  0
  9 11  1  0
 11 12  1  0
 11 13  2  0
 13 14  1  0
 13 15  1  0
 15 16  2  0
 16 17  1  0
 16 18  1  0
 18 19  1  0
 18 20  2  0
 20 21  1  0
 21 22  1  0
 22 23  2  0
 22 24  2  0
 22 25  1  0
 25 26  2  0
 26 27  1  0
 26 28  1  0
 28 29  1  0
 28 30  2  0
 30 31  1  0
 31 32  1  0
 31 33  1  0
 31 34  1  0
 30 35  1  0
 35 36  1  0
 35 37  2  0
 37 38  1  0
 20 39  1  0
 39 40  1  0
 40 41  1  0
 41 42  1  0
 41 43  1  0
 41 44  1  0
 39 45  2  0
 45 46  1  0
  8 47  1  0
 47 48  1  0
 47 49  2  0
 49 50  1  0
 49  3  1  0
 45 15  1  0
 37 25  1  0
M  CHG  1  48  -1
M  END
>  <UniqueID>  (31) 
30

>  <SMILES>  (31) 
COc1cc(/C=C\C(=O)c2ccc(O)cc2[O-])ccc1OS(=O)(=O)c1ccc(C)cc1

>  <Energy>  (31) 
67.01200596309036

>  <Genealogy>  (31) 
COc1cc(C=CC(=O)c2ccc(O)cc2[O-])ccc1OS(=O)(=O)c1ccc(C)cc1 (protonated)
COc1cc(/C=C\C(=O)c2ccc(O)cc2[O-])ccc1OS(=O)(=O)c1ccc(C)cc1 (cis-trans isomerization)
COc1cc(/C=C\C(=O)c2ccc(O)cc2[O-])ccc1OS(=O)(=O)c1ccc(C)cc1 (3D coordinates assigned)
COc1cc(/C=C\C(=O)c2ccc(O)cc2[O-])ccc1OS(=O)(=O)c1ccc(C)cc1 (optimized conformer: 67.01200596309036 kcal/mol)

>  <smiles>  (31) 
COc1cc(C=CC(=O)c2ccc(O)cc2O)ccc1OS(=O)(=O)c1ccc(C)cc1

>  <score_type>  (31) 
oracle

>  <origin>  (31) 
adgpu

>  <m_score__min__energy>  (31) 
-12.52

>  <m_primary>  (31) 
energy

$$$$
31:0
     RDKit          3D

 73 77  0  0  0  0  0  0  0  0999 V2000
    0.1690   28.2130  -26.6710 C   0  0  0  0  0  0  0  0  0  0  0  0
    0.3710   26.7650  -27.1000 C   0  0  0  0  0  0  0  0  0  0  0  0
   -0.9360   26.0190  -27.0920 C   0  0  0  0  0  0  0  0  0  0  0  0
   -1.7660   26.0570  -25.9590 C   0  0  0  0  0  0  0  0  0  0  0  0
   -2.9540   25.3240  -25.9360 C   0  0  0  0  0  0  0  0  0  0  0  0
   -3.3210   24.5420  -27.0340 C   0  0  0  0  0  0  0  0  0  0  0  0
   -2.5020   24.4930  -28.1760 C   0  0  0  0  0  0  0  0  0  0  0  0
   -2.8460   23.6780  -29.3080 N   0  0  0  0  0  0  0  0  0  0  0  0
   -3.8420   24.0540  -30.2690 C   0  0  0  0  0  0  0  0  0  0  0  0
   -3.8620   25.2440  -30.6930 O   0  0  0  0  0  0  0  0  0  0  0  0
   -4.8000   23.0210  -30.8640 C   0  0  2  0  0  0  0  0  0  0  0  0
   -3.9450   21.8970  -31.4970 C   0  0  0  0  0  0  0  0  0  0  0  0
   -3.9830   21.7320  -32.8990 C   0  0  0  0  0  0  0  0  0  0  0  0
   -3.1930   20.7740  -33.5360 C   0  0  0  0  0  0  0  0  0  0  0  0
   -2.3450   19.9510  -32.7920 C   0  0  0  0  0  0  0  0  0  0  0  0
   -1.3190   18.7830  -33.6180 S   0  0  0  0  0  0  0  0  0  0  0  0
   -2.1450   17.8570  -34.4640 O   0  0  0  0  0  0  0  0  0  0  0  0
   -0.5880   17.9560  -32.5960 O   0  0  0  0  0  0  0  0  0  0  0  0
   -0.1730   19.6440  -34.6430 C   0  0  0  0  0  0  0  0  0  0  0  0
    0.2930   19.0560  -35.8290 C   0  0  0  0  0  0  0  0  0  0  0  0
    1.2000   19.7390  -36.6430 C   0  0  0  0  0  0  0  0  0  0  0  0
    1.6570   21.0090  -36.2750 C   0  0  0  0  0  0  0  0  0  0  0  0
    1.2070   21.5950  -35.0890 C   0  0  0  0  0  0  0  0  0  0  0  0
    0.2970   20.9160  -34.2710 C   0  0  0  0  0  0  0  0  0  0  0  0
   -0.1200   21.4950  -33.1170 F   0  0  0  0  0  0  0  0  0  0  0  0
   -2.3170   20.0740  -31.4000 C   0  0  0  0  0  0  0  0  0  0  0  0
   -3.1090   21.0280  -30.7560 C   0  0  0  0  0  0  0  0  0  0  0  0
   -5.6670   23.6530  -32.0150 C   0  0  0  0  0  0  0  0  0  0  0  0
   -7.0550   24.1470  -31.5650 C   0  0  0  0  0  0  0  0  0  0  0  0
   -7.8980   23.0290  -30.8950 C   0  0  1  0  0  0  0  0  0  0  0  0
   -8.8700   22.4200  -31.8700 C   0  0  0  0  0  0  0  0  0  0  0  0
   -9.5280   23.1620  -32.6510 O   0  0  0  0  0  0  0  0  0  0  0  0
   -9.0970   21.0060  -31.8430 N   0  0  0  0  0  0  0  0  0  0  0  0
   -8.2260   19.9900  -32.3610 C   0  0  0  0  0  0  0  0  0  0  0  0
   -7.1100   20.2890  -33.1610 C   0  0  0  0  0  0  0  0  0  0  0  0
   -6.2870   19.2590  -33.6240 C   0  0  0  0  0  0  0  0  0  0  0  0
   -6.5790   17.9390  -33.2710 C   0  0  0  0  0  0  0  0  0  0  0  0
   -7.6450   17.6700  -32.4730 N   0  0  0  0  0  0  0  0  0  0  0  0
   -8.4580   18.6560  -32.0070 C   0  0  0  0  0  0  0  0  0  0  0  0
   -7.0320   21.9380  -30.2240 C   0  0  0  0  0  0  0  0  0  0  0  0
   -5.7200   22.5340  -29.6980 C   0  0  0  0  0  0  0  0  0  0  0  0
   -1.3040   25.2230  -28.1890 C   0  0  0  0  0  0  0  0  0  0  0  0
    0.1607   28.2723  -25.5726 H   0  0  0  0  0  0  0  0  0  0  0  0
    0.9897   28.8302  -27.0653 H   0  0  0  0  0  0  0  0  0  0  0  0
   -0.7893   28.5820  -27.0653 H   0  0  0  0  0  0  0  0  0  0  0  0
    0.7916   26.7451  -28.1162 H   0  0  0  0  0  0  0  0  0  0  0  0
    1.0588   26.2797  -26.3919 H   0  0  0  0  0  0  0  0  0  0  0  0
   -1.4793   26.6654  -25.0885 H   0  0  0  0  0  0  0  0  0  0  0  0
   -3.6040   25.3624  -25.0494 H   0  0  0  0  0  0  0  0  0  0  0  0
   -4.2551   23.9618  -27.0050 H   0  0  0  0  0  0  0  0  0  0  0  0
   -2.2580   22.8450  -29.5150 H   0  0  0  0  0  0  0  0  0  0  0  0
   -4.6474   22.3703  -33.5000 H   0  0  0  0  0  0  0  0  0  0  0  0
   -3.2386   20.6667  -34.6298 H   0  0  0  0  0  0  0  0  0  0  0  0
   -0.0570   18.0542  -36.1186 H   0  0  0  0  0  0  0  0  0  0  0  0
    1.5558   19.2770  -37.5757 H   0  0  0  0  0  0  0  0  0  0  0  0
    2.3697   21.5456  -36.9185 H   0  0  0  0  0  0  0  0  0  0  0  0
    1.5688   22.5921  -34.7977 H   0  0  0  0  0  0  0  0  0  0  0  0
   -1.6663   19.4146  -30.8069 H   0  0  0  0  0  0  0  0  0  0  0  0
   -3.0825   21.1047  -29.6590 H   0  0  0  0  0  0  0  0  0  0  0  0
   -5.8089   22.8923  -32.7968 H   0  0  0  0  0  0  0  0  0  0  0  0
   -5.1189   24.5370  -32.3730 H   0  0  0  0  0  0  0  0  0  0  0  0
   -7.5992   24.5188  -32.4457 H   0  0  0  0  0  0  0  0  0  0  0  0
   -6.9006   24.9404  -30.8189 H   0  0  0  0  0  0  0  0  0  0  0  0
   -8.4687   23.5153  -30.0901 H   0  0  0  0  0  0  0  0  0  0  0  0
   -6.8844   21.3334  -33.4226 H   0  0  0  0  0  0  0  0  0  0  0  0
   -5.4183   19.4850  -34.2598 H   0  0  0  0  0  0  0  0  0  0  0  0
   -5.9461   17.1181  -33.6390 H   0  0  0  0  0  0  0  0  0  0  0  0
   -9.3022   18.4035  -31.3485 H   0  0  0  0  0  0  0  0  0  0  0  0
   -6.8026   21.1548  -30.9616 H   0  0  0  0  0  0  0  0  0  0  0  0
   -7.5917   21.5133  -29.3776 H   0  0  0  0  0  0  0  0  0  0  0  0
   -5.1860   21.7660  -29.1191 H   0  0  0  0  0  0  0  0  0  0  0  0
   -5.9649   23.4019  -29.0681 H   0  0  0  0  0  0  0  0  0  0  0  0
   -0.6454   25.1713  -29.0685 H   0  0  0  0  0  0  0  0  0  0  0  0
  1  2  1  0
  2  3  1  0
  3  4  2  0
  4  5  1  0
  5  6  2  0
  6  7  1  0
  7  8  1  0
  8  9  1  0
  9 10  2  0
 11  9  1  1
 11 12  1  0
 12 13  2  0
 13 14  1  0
 14 15  2  0
 15 16  1  0
 16 17  2  0
 16 18  2  0
 16 19  1  0
 19 20  2  0
 20 21  1  0
 21 22  2  0
 22 23  1  0
 23 24  2  0
 24 25  1  0
 15 26  1  0
 26 27  2  0
 11 28  1  0
 28 29  1  0
 29 30  1  0
 30 31  1  0
 31 32  2  0
 31 33  1  0
 33 34  1  0
 34 35  2  0
 35 36  1  0
 36 37  2  0
 37 38  1  0
 38 39  2  0
 30 40  1  0
 40 41  1  0
  7 42  2  0
 42  3  1  0
 41 11  1  0
 27 12  1  0
 39 34  1  0
 24 19  1  0
  1 43  1  0
  1 44  1  0
  1 45  1  0
  2 46  1  0
  2 47  1  0
  4 48  1  0
  5 49  1  0
  6 50  1  0
  8 51  1  0
 13 52  1  0
 14 53  1  0
 20 54  1  0
 21 55  1  0
 22 56  1  0
 23 57  1  0
 26 58  1  0
 27 59  1  0
 28 60  1  0
 28 61  1  0
 29 62  1  0
 29 63  1  0
 30 64  1  1
 35 65  1  0
 36 66  1  0
 37 67  1  0
 39 68  1  0
 40 69  1  0
 40 70  1  0
 41 71  1  0
 41 72  1  0
 42 73  1  0
M  CHG  1  33  -1
M  END
>  <UniqueID>  (32) 
31

>  <SMILES>  (32) 
CCc1cccc(NC(=O)C2(c3ccc(S(=O)(=O)c4ccccc4F)cc3)CCC(C(=O)[N-]c3cccnc3)CC2)c1

>  <Energy>  (32) 
100.23664945969581

>  <Genealogy>  (32) 
CCc1cccc(NC(=O)C2(c3ccc(S(=O)(=O)c4ccccc4F)cc3)CCC(C(=O)[N-]c3cccnc3)CC2)c1 (protonated)
CCc1cccc(NC(=O)C2(c3ccc(S(=O)(=O)c4ccccc4F)cc3)CCC(C(=O)[N-]c3cccnc3)CC2)c1 (3D coordinates assigned)
CCc1cccc(NC(=O)C2(c3ccc(S(=O)(=O)c4ccccc4F)cc3)CCC(C(=O)[N-]c3cccnc3)CC2)c1 (nonaromatic ring conformer: 100.23664945969581 kcal/mol)

>  <smiles>  (32) 
CCc1cccc(NC(=O)C2(c3ccc(S(=O)(=O)c4ccccc4F)cc3)CCC(C(=O)Nc3cccnc3)CC2)c1

>  <score_type>  (32) 
oracle

>  <origin>  (32) 
adgpu

>  <m_score__min__energy>  (32) 
-12.279999999999999

>  <m_primary>  (32) 
energy

$$$$
32:0
     RDKit          3D

 46 49  0  0  0  0  0  0  0  0999 V2000
   -6.1240   23.2130  -31.8940 C   0  0  0  0  0  0  0  0  0  0  0  0
   -4.8380   22.4650  -31.7580 C   0  0  0  0  0  0  0  0  0  0  0  0
   -4.6220   21.2970  -32.4200 N   0  0  0  0  0  0  0  0  0  0  0  0
   -3.4140   20.7620  -32.1300 C   0  0  0  0  0  0  0  0  0  0  0  0
   -2.9790   19.4880  -32.6360 N   0  0  0  0  0  0  0  0  0  0  0  0
   -1.5580   19.1320  -32.5780 C   0  0  0  0  0  0  0  0  0  0  0  0
   -0.7410   20.1650  -33.2890 C   0  0  0  0  0  0  0  0  0  0  0  0
   -0.8650   20.5200  -34.6140 C   0  0  0  0  0  0  0  0  0  0  0  0
    0.1780   21.4060  -34.8190 C   0  0  0  0  0  0  0  0  0  0  0  0
    0.5790   22.0860  -36.1020 C   0  0  0  0  0  0  0  0  0  0  0  0
    1.8570   22.9140  -36.0830 C   0  0  0  0  0  0  0  0  0  0  0  0
    0.5010   23.6050  -36.0740 C   0  0  0  0  0  0  0  0  0  0  0  0
    0.8750   21.5490  -33.6750 N   0  0  0  0  0  0  0  0  0  0  0  0
    0.3190   20.7890  -32.7430 N   0  0  0  0  0  0  0  0  0  0  0  0
   -4.1060   18.4210  -33.4290 S   0  0  0  0  0  0  0  0  0  0  0  0
   -4.0840   18.6520  -34.9130 O   0  0  0  0  0  0  0  0  0  0  0  0
   -3.7080   16.9990  -33.1440 O   0  0  0  0  0  0  0  0  0  0  0  0
   -5.7510   18.7210  -32.8690 C   0  0  0  0  0  0  0  0  0  0  0  0
   -6.2450   18.0280  -31.7550 C   0  0  0  0  0  0  0  0  0  0  0  0
   -7.5470   18.2600  -31.3030 C   0  0  0  0  0  0  0  0  0  0  0  0
   -8.3580   19.1910  -31.9580 C   0  0  0  0  0  0  0  0  0  0  0  0
   -7.8670   19.8920  -33.0620 C   0  0  0  0  0  0  0  0  0  0  0  0
   -6.5660   19.6580  -33.5190 C   0  0  0  0  0  0  0  0  0  0  0  0
   -2.5690   21.7060  -31.0150 S   0  0  0  0  0  0  0  0  0  0  0  0
   -3.7950   22.8530  -30.9140 C   0  0  0  0  0  0  0  0  0  0  0  0
   -3.7430   24.2800  -29.8910 S   0  0  0  0  0  0  0  0  0  0  0  0
   -4.3080   25.6480  -30.7820 N   0  0  0  0  0  0  0  0  0  0  0  0
   -4.6060   24.0690  -28.6800 O   0  0  0  0  0  0  0  0  0  0  0  0
   -2.3270   24.5250  -29.4470 O   0  0  0  0  0  0  0  0  0  0  0  0
   -6.5212   23.4441  -30.8946 H   0  0  0  0  0  0  0  0  0  0  0  0
   -5.9473   24.1492  -32.4438 H   0  0  0  0  0  0  0  0  0  0  0  0
   -6.8504   22.5965  -32.4438 H   0  0  0  0  0  0  0  0  0  0  0  0
   -1.2393   19.0760  -31.5267 H   0  0  0  0  0  0  0  0  0  0  0  0
   -1.4103   18.1571  -33.0655 H   0  0  0  0  0  0  0  0  0  0  0  0
   -1.6177   20.1788  -35.3400 H   0  0  0  0  0  0  0  0  0  0  0  0
    0.1956   21.2845  -36.7505 H   0  0  0  0  0  0  0  0  0  0  0  0
    2.4887   22.9302  -35.1826 H   0  0  0  0  0  0  0  0  0  0  0  0
    2.7558   22.9723  -36.7144 H   0  0  0  0  0  0  0  0  0  0  0  0
    0.1529   24.1211  -35.1671 H   0  0  0  0  0  0  0  0  0  0  0  0
    0.0141   24.3701  -36.6965 H   0  0  0  0  0  0  0  0  0  0  0  0
   -5.6058   17.2993  -31.2350 H   0  0  0  0  0  0  0  0  0  0  0  0
   -7.9333   17.7101  -30.4321 H   0  0  0  0  0  0  0  0  0  0  0  0
   -9.3836   19.3718  -31.6039 H   0  0  0  0  0  0  0  0  0  0  0  0
   -8.5043   20.6290  -33.5726 H   0  0  0  0  0  0  0  0  0  0  0  0
   -6.1819   20.2099  -34.3895 H   0  0  0  0  0  0  0  0  0  0  0  0
   -3.4880   26.0390  -31.2950 H   0  0  0  0  0  0  0  0  0  0  0  0
  1  2  1  0
  2  3  1  0
  3  4  2  0
  4  5  1  0
  5  6  1  0
  6  7  1  0
  7  8  2  0
  8  9  1  0
  9 10  1  0
 10 11  1  0
 11 12  1  0
  9 13  2  0
 13 14  1  0
  5 15  1  0
 15 16  2  0
 15 17  2  0
 15 18  1  0
 18 19  2  0
 19 20  1  0
 20 21  2  0
 21 22  1  0
 22 23  2  0
  4 24  1  0
 24 25  1  0
 25 26  1  0
 26 27  1  0
 26 28  2  0
 26 29  2  0
 25  2  2  0
 14  7  1  0
 23 18  1  0
 12 10  1  0
  1 30  1  0
  1 31  1  0
  1 32  1  0
  6 33  1  0
  6 34  1  0
  8 35  1  0
 10 36  1  0
 11 37  1  0
 11 38  1  0
 12 39  1  0
 12 40  1  0
 19 41  1  0
 20 42  1  0
 21 43  1  0
 22 44  1  0
 23 45  1  0
 27 46  1  0
M  CHG  2  14  -1  27  -1
M  END
>  <UniqueID>  (33) 
32

>  <SMILES>  (33) 
Cc1nc(N(Cc2cc(C3CC3)n[n-]2)S(=O)(=O)c2ccccc2)sc1S([NH-])(=O)=O

>  <Energy>  (33) 
372.5544088104711

>  <Genealogy>  (33) 
Cc1nc(N(Cc2cc(C3CC3)n[n-]2)S(=O)(=O)c2ccccc2)sc1S([NH-])(=O)=O (protonated)
Cc1nc(N(Cc2cc(C3CC3)n[n-]2)S(=O)(=O)c2ccccc2)sc1S([NH-])(=O)=O (3D coordinates assigned)
Cc1nc(N(Cc2cc(C3CC3)n[n-]2)S(=O)(=O)c2ccccc2)sc1S([NH-])(=O)=O (nonaromatic ring conformer: 372.5544088104711 kcal/mol)

>  <smiles>  (33) 
Cc1nc(N(Cc2cc(C3CC3)n[nH]2)S(=O)(=O)c2ccccc2)sc1S(N)(=O)=O

>  <score_type>  (33) 
oracle

>  <origin>  (33) 
adgpu

>  <m_score__min__energy>  (33) 
-11.9

>  <m_primary>  (33) 
energy

$$$$
33:0
     RDKit          3D

 59 62  0  0  0  0  0  0  0  0999 V2000
   -2.5870   18.5270  -34.0840 H   0  0  0  0  0  0  0  0  0  0  0  0
   -3.4340   18.3720  -33.5560 O   0  0  0  0  0  0  0  0  0  0  0  0
   -4.2330   19.4040  -33.0600 C   0  0  0  0  0  0  0  0  0  0  0  0
   -5.4880   19.0640  -32.5430 C   0  0  0  0  0  0  0  0  0  0  0  0
   -5.7814   18.0058  -32.4781 H   0  0  0  0  0  0  0  0  0  0  0  0
   -6.3710   20.0530  -32.1090 C   0  0  0  0  0  0  0  0  0  0  0  0
   -7.3532   19.7710  -31.7019 H   0  0  0  0  0  0  0  0  0  0  0  0
   -6.0110   21.4020  -32.1900 C   0  0  0  0  0  0  0  0  0  0  0  0
   -7.1430   22.6570  -31.6740 S   0  0  0  0  0  0  0  0  0  0  0  0
   -8.5220   22.0670  -31.5800 O   0  0  0  0  0  0  0  0  0  0  0  0
   -7.1760   23.7470  -32.7090 O   0  0  0  0  0  0  0  0  0  0  0  0
   -6.6990   23.3440  -30.1260 N   0  0  0  0  0  0  0  0  0  0  0  0
   -6.8010   24.8070  -30.1470 C   0  0  0  0  0  0  0  0  0  0  0  0
   -7.4822   25.1207  -30.9518 H   0  0  0  0  0  0  0  0  0  0  0  0
   -7.1957   25.1728  -29.1876 H   0  0  0  0  0  0  0  0  0  0  0  0
   -5.4140   25.3800  -30.3950 C   0  0  0  0  0  0  0  0  0  0  0  0
   -5.3257   25.7337  -31.4328 H   0  0  0  0  0  0  0  0  0  0  0  0
   -5.2086   26.2401  -29.7408 H   0  0  0  0  0  0  0  0  0  0  0  0
   -4.4450   24.2420  -30.1410 C   0  0  0  0  0  0  0  0  0  0  0  0
   -3.8493   24.0376  -31.0429 H   0  0  0  0  0  0  0  0  0  0  0  0
   -3.7380   24.4846  -29.3340 H   0  0  0  0  0  0  0  0  0  0  0  0
   -5.3050   23.0360  -29.7890 C   0  0  0  0  0  0  0  0  0  0  0  0
   -4.9691   22.1603  -30.3638 H   0  0  0  0  0  0  0  0  0  0  0  0
   -5.2176   22.8112  -28.7158 H   0  0  0  0  0  0  0  0  0  0  0  0
   -4.7450   21.7510  -32.6770 C   0  0  0  0  0  0  0  0  0  0  0  0
   -4.4588   22.8116  -32.7345 H   0  0  0  0  0  0  0  0  0  0  0  0
   -3.8360   20.7640  -33.0930 C   0  0  0  0  0  0  0  0  0  0  0  0
   -2.4940   21.2060  -33.5270 C   0  0  0  0  0  0  0  0  0  0  0  0
   -2.1258   22.1986  -33.2284 H   0  0  0  0  0  0  0  0  0  0  0  0
   -1.7440   20.4360  -34.2570 N   0  0  0  0  0  0  0  0  0  0  0  0
   -0.4070   20.7230  -34.7010 C   0  0  0  0  0  0  0  0  0  0  0  0
    0.6450   20.5430  -33.7930 C   0  0  0  0  0  0  0  0  0  0  0  0
    0.4297   20.1968  -32.7713 H   0  0  0  0  0  0  0  0  0  0  0  0
    1.9640   20.7990  -34.1730 C   0  0  0  0  0  0  0  0  0  0  0  0
    2.7799   20.6583  -33.4488 H   0  0  0  0  0  0  0  0  0  0  0  0
    2.2520   21.2340  -35.4720 C   0  0  0  0  0  0  0  0  0  0  0  0
    3.9240   21.5130  -35.9490 S   0  0  0  0  0  0  0  0  0  0  0  0
    4.8250   20.4520  -35.3810 O   0  0  0  0  0  0  0  0  0  0  0  0
    4.0160   21.4710  -37.4490 O   0  0  0  0  0  0  0  0  0  0  0  0
    4.4450   23.0700  -35.3870 N   0  0  0  0  0  0  0  0  0  0  0  0
    3.6980   24.1310  -35.4120 C   0  0  0  0  0  0  0  0  0  0  0  0
    4.1960   25.3100  -34.9570 N   0  0  0  0  0  0  0  0  0  0  0  0
    3.4470   26.4450  -34.9720 C   0  0  0  0  0  0  0  0  0  0  0  0
    4.0310   27.7300  -34.4810 C   0  0  0  0  0  0  0  0  0  0  0  0
    4.0333   27.7351  -33.3810 H   0  0  0  0  0  0  0  0  0  0  0  0
    5.0624   27.8288  -34.8503 H   0  0  0  0  0  0  0  0  0  0  0  0
    3.4271   28.5720  -34.8503 H   0  0  0  0  0  0  0  0  0  0  0  0
    2.1430   26.4070  -35.4760 C   0  0  0  0  0  0  0  0  0  0  0  0
    1.5265   27.3174  -35.5091 H   0  0  0  0  0  0  0  0  0  0  0  0
    1.6400   25.1860  -35.9370 C   0  0  0  0  0  0  0  0  0  0  0  0
    0.2570   25.0960  -36.4980 C   0  0  0  0  0  0  0  0  0  0  0  0
   -0.4705   25.0487  -35.6743 H   0  0  0  0  0  0  0  0  0  0  0  0
    0.0537   25.9828  -37.1162 H   0  0  0  0  0  0  0  0  0  0  0  0
    0.1703   24.1903  -37.1162 H   0  0  0  0  0  0  0  0  0  0  0  0
    2.4260   24.0790  -35.8950 N   0  0  0  0  0  0  0  0  0  0  0  0
    1.2090   21.3970  -36.3930 C   0  0  0  0  0  0  0  0  0  0  0  0
    1.4304   21.7284  -37.4183 H   0  0  0  0  0  0  0  0  0  0  0  0
   -0.1130   21.1400  -36.0140 C   0  0  0  0  0  0  0  0  0  0  0  0
   -0.9262   21.2641  -36.7443 H   0  0  0  0  0  0  0  0  0  0  0  0
  1  2  1  0
  2  3  1  0
  3  4  2  0
  4  5  1  0
  4  6  1  0
  6  7  1  0
  6  8  2  0
  8  9  1  0
  9 10  2  0
  9 11  2  0
  9 12  1  0
 12 13  1  0
 13 14  1  0
 13 15  1  0
 13 16  1  0
 16 17  1  0
 16 18  1  0
 16 19  1  0
 19 20  1  0
 19 21  1  0
 19 22  1  0
 22 23  1  0
 22 24  1  0
  8 25  1  0
 25 26  1  0
 25 27  2  0
 27 28  1  0
 28 29  1  0
 28 30  2  0
 30 31  1  0
 31 32  2  0
 32 33  1  0
 32 34  1  0
 34 35  1  0
 34 36  2  0
 36 37  1  0
 37 38  2  0
 37 39  2  0
 37 40  1  0
 40 41  2  3
 41 42  1  0
 42 43  2  0
 43 44  1  0
 44 45  1  0
 44 46  1  0
 44 47  1  0
 43 48  1  0
 48 49  1  0
 48 50  2  0
 50 51  1  0
 51 52  1  0
 51 53  1  0
 51 54  1  0
 50 55  1  0
 36 56  1  0
 56 57  1  0
 56 58  2  0
 58 59  1  0
 27  3  1  0
 58 31  1  0
 22 12  1  0
 55 41  1  0
M  CHG  1  55  -1
M  END
>  <UniqueID>  (34) 
33

>  <SMILES>  (34) 
Cc1cc(C)[n-]c(=NS(=O)(=O)c2ccc(/N=C/c3cc(S(=O)(=O)N4CCCC4)ccc3O)cc2)n1

>  <Energy>  (34) 
70.28287287272147

>  <Genealogy>  (34) 
Cc1cc(C)[n-]c(=NS(=O)(=O)c2ccc(N=Cc3cc(S(=O)(=O)N4CCCC4)ccc3O)cc2)n1 (protonated)
Cc1cc(C)[n-]c(=NS(=O)(=O)c2ccc(/N=C/c3cc(S(=O)(=O)N4CCCC4)ccc3O)cc2)n1 (cis-trans isomerization)
Cc1cc(C)[n-]c(=NS(=O)(=O)c2ccc(/N=C/c3cc(S(=O)(=O)N4CCCC4)ccc3O)cc2)n1 (3D coordinates assigned)
Cc1cc(C)[n-]c(=NS(=O)(=O)c2ccc(/N=C/c3cc(S(=O)(=O)N4CCCC4)ccc3O)cc2)n1 (nonaromatic ring conformer: 70.28287287272147 kcal/mol)

>  <smiles>  (34) 
Cc1cc(C)[nH]c(=NS(=O)(=O)c2ccc(N=Cc3cc(S(=O)(=O)N4CCCC4)ccc3O)cc2)n1

>  <score_type>  (34) 
oracle

>  <origin>  (34) 
adgpu

>  <m_score__min__energy>  (34) 
-10.74

>  <m_primary>  (34) 
energy

$$$$
34:0
     RDKit          3D

 62 65  0  0  0  0  0  0  0  0999 V2000
   -2.8830   22.9820  -28.0740 O   0  0  0  0  0  0  0  0  0  0  0  0
   -3.3780   22.5020  -29.1280 C   0  0  0  0  0  0  0  0  0  0  0  0
   -2.9430   21.2030  -29.5510 N   0  0  0  0  0  0  0  0  0  0  0  0
   -1.6010   20.8100  -29.8760 C   0  0  0  0  0  0  0  0  0  0  0  0
   -1.1750   20.7180  -31.2140 C   0  0  0  0  0  0  0  0  0  0  0  0
    0.1330   20.3120  -31.5160 C   0  0  0  0  0  0  0  0  0  0  0  0
    0.6740   20.1770  -33.1870 S   0  0  0  0  0  0  0  0  0  0  0  0
    0.9720   21.5560  -33.7060 O   0  0  0  0  0  0  0  0  0  0  0  0
    1.9270   19.3440  -33.2350 O   0  0  0  0  0  0  0  0  0  0  0  0
   -0.5560   19.4270  -34.1780 N   0  0  0  0  0  0  0  0  0  0  0  0
   -1.6170   20.3980  -34.5470 C   0  0  0  0  0  0  0  0  0  0  0  0
   -2.9190   20.2080  -33.7580 C   0  0  0  0  0  0  0  0  0  0  0  0
   -3.4800   18.7890  -33.9500 C   0  0  0  0  0  0  0  0  0  0  0  0
   -2.3720   17.7320  -34.1370 C   0  0  0  0  0  0  0  0  0  0  0  0
   -1.0500   18.1970  -33.5190 C   0  0  0  0  0  0  0  0  0  0  0  0
    1.0280   20.0340  -30.4760 C   0  0  0  0  0  0  0  0  0  0  0  0
    0.6220   20.1580  -29.1460 C   0  0  0  0  0  0  0  0  0  0  0  0
   -0.6850   20.5490  -28.8390 C   0  0  0  0  0  0  0  0  0  0  0  0
   -1.0550   20.6600  -27.4980 O   0  0  0  0  0  0  0  0  0  0  0  0
   -4.4410   23.2580  -29.8460 C   0  0  0  0  0  0  0  0  0  0  0  0
   -5.6500   22.6230  -30.1900 C   0  0  0  0  0  0  0  0  0  0  0  0
   -6.6550   23.3190  -30.8710 C   0  0  0  0  0  0  0  0  0  0  0  0
   -8.1220   22.4730  -31.3550 S   0  0  0  0  0  0  0  0  0  0  0  0
   -9.0380   23.4550  -32.0330 O   0  0  0  0  0  0  0  0  0  0  0  0
   -8.8220   21.9230  -30.1420 O   0  0  0  0  0  0  0  0  0  0  0  0
   -7.7270   21.1760  -32.4570 N   0  0  0  0  0  0  0  0  0  0  0  0
   -6.5270   20.4540  -31.9750 C   0  0  0  0  0  0  0  0  0  0  0  0
   -6.4150   19.0620  -32.6050 C   0  0  0  0  0  0  0  0  0  0  0  0
   -7.6190   18.1820  -32.2200 C   0  0  0  0  0  0  0  0  0  0  0  0
   -8.8770   19.0060  -31.8950 C   0  0  0  0  0  0  0  0  0  0  0  0
   -8.9110   20.3110  -32.7050 C   0  0  0  0  0  0  0  0  0  0  0  0
   -6.4840   24.6770  -31.1650 C   0  0  0  0  0  0  0  0  0  0  0  0
   -5.3020   25.3260  -30.8050 C   0  0  0  0  0  0  0  0  0  0  0  0
   -4.2780   24.6250  -30.1580 C   0  0  0  0  0  0  0  0  0  0  0  0
   -3.1000   25.2950  -29.8430 O   0  0  0  0  0  0  0  0  0  0  0  0
   -1.8721   20.9660  -32.0280 H   0  0  0  0  0  0  0  0  0  0  0  0
   -1.2404   21.4142  -34.3585 H   0  0  0  0  0  0  0  0  0  0  0  0
   -1.8537   20.2321  -35.6083 H   0  0  0  0  0  0  0  0  0  0  0  0
   -2.7189   20.3737  -32.6891 H   0  0  0  0  0  0  0  0  0  0  0  0
   -3.6611   20.9304  -34.1287 H   0  0  0  0  0  0  0  0  0  0  0  0
   -4.0747   18.5226  -33.0638 H   0  0  0  0  0  0  0  0  0  0  0  0
   -4.0924   18.7942  -34.8638 H   0  0  0  0  0  0  0  0  0  0  0  0
   -2.6845   16.7955  -33.6520 H   0  0  0  0  0  0  0  0  0  0  0  0
   -2.2166   17.5786  -35.2151 H   0  0  0  0  0  0  0  0  0  0  0  0
   -1.2057   18.4005  -32.4493 H   0  0  0  0  0  0  0  0  0  0  0  0
   -0.3018   17.4026  -33.6571 H   0  0  0  0  0  0  0  0  0  0  0  0
    2.0554   19.7165  -30.7077 H   0  0  0  0  0  0  0  0  0  0  0  0
    1.3344   19.9469  -28.3349 H   0  0  0  0  0  0  0  0  0  0  0  0
   -1.8430   21.2200  -27.1980 H   0  0  0  0  0  0  0  0  0  0  0  0
   -5.8061   21.5680  -29.9204 H   0  0  0  0  0  0  0  0  0  0  0  0
   -5.6312   21.0368  -32.2355 H   0  0  0  0  0  0  0  0  0  0  0  0
   -6.6135   20.3323  -30.8852 H   0  0  0  0  0  0  0  0  0  0  0  0
   -6.3801   19.1646  -33.6997 H   0  0  0  0  0  0  0  0  0  0  0  0
   -5.4977   18.5823  -32.2329 H   0  0  0  0  0  0  0  0  0  0  0  0
   -7.8462   17.5094  -33.0602 H   0  0  0  0  0  0  0  0  0  0  0  0
   -7.3451   17.6224  -31.3135 H   0  0  0  0  0  0  0  0  0  0  0  0
   -9.7690   18.4098  -32.1376 H   0  0  0  0  0  0  0  0  0  0  0  0
   -8.8598   19.2605  -30.8250 H   0  0  0  0  0  0  0  0  0  0  0  0
   -8.9439   20.0592  -33.7753 H   0  0  0  0  0  0  0  0  0  0  0  0
   -9.8026   20.8727  -32.3895 H   0  0  0  0  0  0  0  0  0  0  0  0
   -7.2815   25.2327  -31.6799 H   0  0  0  0  0  0  0  0  0  0  0  0
   -5.1745   26.3949  -31.0312 H   0  0  0  0  0  0  0  0  0  0  0  0
  1  2  2  0
  2  3  1  0
  3  4  1  0
  4  5  2  0
  5  6  1  0
  6  7  1  0
  7  8  2  0
  7  9  2  0
  7 10  1  0
 10 11  1  0
 11 12  1  0
 12 13  1  0
 13 14  1  0
 14 15  1  0
  6 16  2  0
 16 17  1  0
 17 18  2  0
 18 19  1  0
  2 20  1  0
 20 21  2  0
 21 22  1  0
 22 23  1  0
 23 24  2  0
 23 25  2  0
 23 26  1  0
 26 27  1  0
 27 28  1  0
 28 29  1  0
 29 30  1  0
 30 31  1  0
 22 32  2  0
 32 33  1  0
 33 34  2  0
 34 35  1  0
 18  4  1  0
 34 20  1  0
 15 10  1  0
 31 26  1  0
  5 36  1  0
 11 37  1  0
 11 38  1  0
 12 39  1  0
 12 40  1  0
 13 41  1  0
 13 42  1  0
 14 43  1  0
 14 44  1  0
 15 45  1  0
 15 46  1  0
 16 47  1  0
 17 48  1  0
 19 49  1  0
 21 50  1  0
 27 51  1  0
 27 52  1  0
 28 53  1  0
 28 54  1  0
 29 55  1  0
 29 56  1  0
 30 57  1  0
 30 58  1  0
 31 59  1  0
 31 60  1  0
 32 61  1  0
 33 62  1  0
M  CHG  2   3  -1  35  -1
M  END
>  <UniqueID>  (35) 
34

>  <SMILES>  (35) 
O=C([N-]c1cc(S(=O)(=O)N2CCCCC2)ccc1O)c1cc(S(=O)(=O)N2CCCCC2)ccc1[O-]

>  <Energy>  (35) 
77.90046583083114

>  <Genealogy>  (35) 
O=C([N-]c1cc(S(=O)(=O)N2CCCCC2)ccc1O)c1cc(S(=O)(=O)N2CCCCC2)ccc1[O-] (protonated)
O=C([N-]c1cc(S(=O)(=O)N2CCCCC2)ccc1O)c1cc(S(=O)(=O)N2CCCCC2)ccc1[O-] (3D coordinates assigned)
O=C([N-]c1cc(S(=O)(=O)N2CCCCC2)ccc1O)c1cc(S(=O)(=O)N2CCCCC2)ccc1[O-] (nonaromatic ring conformer: 77.90046583083114 kcal/mol)

>  <smiles>  (35) 
O=C(Nc1cc(S(=O)(=O)N2CCCCC2)ccc1O)c1cc(S(=O)(=O)N2CCCCC2)ccc1O

>  <score_type>  (35) 
oracle

>  <origin>  (35) 
adgpu

>  <m_score__min__energy>  (35) 
-15.15

>  <m_primary>  (35) 
energy

$$$$
35:0
     RDKit          3D

 47 49  0  0  0  0  0  0  0  0999 V2000
   -7.3760   22.6420  -29.7220 C   0  0  0  0  0  0  0  0  0  0  0  0
   -8.0030   22.3610  -31.0250 N   0  0  0  0  0  0  0  0  0  0  0  0
   -7.7030   23.4170  -32.0170 C   0  0  0  0  0  0  0  0  0  0  0  0
   -6.2190   23.4200  -32.4190 C   0  0  0  0  0  0  0  0  0  0  0  0
   -5.7140   22.0490  -32.5440 N   0  0  0  0  0  0  0  0  0  0  0  0
   -4.3090   21.7810  -32.3900 C   0  0  0  0  0  0  0  0  0  0  0  0
   -3.6870   20.8490  -33.2360 C   0  0  0  0  0  0  0  0  0  0  0  0
   -2.3290   20.5580  -33.0920 C   0  0  0  0  0  0  0  0  0  0  0  0
   -1.5820   21.1880  -32.0970 C   0  0  0  0  0  0  0  0  0  0  0  0
   -2.1870   22.1230  -31.2520 C   0  0  0  0  0  0  0  0  0  0  0  0
   -3.5480   22.4440  -31.4050 C   0  0  0  0  0  0  0  0  0  0  0  0
   -4.1820   23.4110  -30.5540 N   0  0  0  0  0  0  0  0  0  0  0  0
   -3.6950   24.7240  -30.2570 C   0  0  0  0  0  0  0  0  0  0  0  0
   -4.4000   25.7190  -30.5670 O   0  0  0  0  0  0  0  0  0  0  0  0
   -2.3780   24.9050  -29.7180 N   0  0  0  0  0  0  0  0  0  0  0  0
   -2.0430   25.1450  -28.3430 C   0  0  0  0  0  0  0  0  0  0  0  0
   -0.7590   25.6160  -28.0380 C   0  0  0  0  0  0  0  0  0  0  0  0
   -0.3840   25.8420  -26.7110 C   0  0  0  0  0  0  0  0  0  0  0  0
   -1.2830   25.5770  -25.6720 C   0  0  0  0  0  0  0  0  0  0  0  0
   -0.8050   25.8760  -23.9670 S   0  0  0  0  0  0  0  0  0  0  0  0
    0.1140   27.4100  -24.3250 C   0  0  0  0  0  0  0  0  0  0  0  0
    0.4200   28.0390  -23.1330 F   0  0  0  0  0  0  0  0  0  0  0  0
   -0.6590   28.2600  -25.0950 F   0  0  0  0  0  0  0  0  0  0  0  0
    1.2880   27.1180  -24.9940 F   0  0  0  0  0  0  0  0  0  0  0  0
   -2.5620   25.0910  -25.9680 C   0  0  0  0  0  0  0  0  0  0  0  0
   -2.9390   24.8660  -27.2950 C   0  0  0  0  0  0  0  0  0  0  0  0
   -6.6720   20.9470  -32.6640 C   0  0  0  0  0  0  0  0  0  0  0  0
   -7.6890   20.9900  -31.5070 C   0  0  0  0  0  0  0  0  0  0  0  0
   -8.0571   22.3368  -28.9139 H   0  0  0  0  0  0  0  0  0  0  0  0
   -6.4340   22.0799  -29.6395 H   0  0  0  0  0  0  0  0  0  0  0  0
   -7.1687   23.7191  -29.6395 H   0  0  0  0  0  0  0  0  0  0  0  0
   -8.3145   23.2455  -32.9151 H   0  0  0  0  0  0  0  0  0  0  0  0
   -7.9347   24.3903  -31.5599 H   0  0  0  0  0  0  0  0  0  0  0  0
   -6.1072   23.9356  -33.3842 H   0  0  0  0  0  0  0  0  0  0  0  0
   -5.6422   23.9401  -31.6400 H   0  0  0  0  0  0  0  0  0  0  0  0
   -4.2737   20.3445  -34.0178 H   0  0  0  0  0  0  0  0  0  0  0  0
   -1.8482   19.8316  -33.7636 H   0  0  0  0  0  0  0  0  0  0  0  0
   -0.5151   20.9488  -31.9769 H   0  0  0  0  0  0  0  0  0  0  0  0
   -1.5955   22.6104  -30.4630 H   0  0  0  0  0  0  0  0  0  0  0  0
   -0.0412   25.8092  -28.8489 H   0  0  0  0  0  0  0  0  0  0  0  0
    0.6200   26.2290  -26.4827 H   0  0  0  0  0  0  0  0  0  0  0  0
   -3.2725   24.8856  -25.1538 H   0  0  0  0  0  0  0  0  0  0  0  0
   -3.9399   24.4694  -27.5207 H   0  0  0  0  0  0  0  0  0  0  0  0
   -7.2077   21.0351  -33.6207 H   0  0  0  0  0  0  0  0  0  0  0  0
   -6.1254   19.9933  -32.6229 H   0  0  0  0  0  0  0  0  0  0  0  0
   -8.6234   20.5224  -31.8509 H   0  0  0  0  0  0  0  0  0  0  0  0
   -7.2313   20.4541  -30.6624 H   0  0  0  0  0  0  0  0  0  0  0  0
  1  2  1  0
  2  3  1  0
  3  4  1  0
  4  5  1  0
  5  6  1  0
  6  7  2  0
  7  8  1  0
  8  9  2  0
  9 10  1  0
 10 11  2  0
 11 12  1  0
 12 13  1  0
 13 14  2  0
 13 15  1  0
 15 16  1  0
 16 17  2  0
 17 18  1  0
 18 19  2  0
 19 20  1  0
 20 21  1  0
 21 22  1  0
 21 23  1  0
 21 24  1  0
 19 25  1  0
 25 26  2  0
  5 27  1  0
 27 28  1  0
 28  2  1  0
 11  6  1  0
 26 16  1  0
  1 29  1  0
  1 30  1  0
  1 31  1  0
  3 32  1  0
  3 33  1  0
  4 34  1  0
  4 35  1  0
  7 36  1  0
  8 37  1  0
  9 38  1  0
 10 39  1  0
 17 40  1  0
 18 41  1  0
 25 42  1  0
 26 43  1  0
 27 44  1  0
 27 45  1  0
 28 46  1  0
 28 47  1  0
M  CHG  2  12  -1  15  -1
M  END
>  <UniqueID>  (36) 
35

>  <SMILES>  (36) 
CN1CCN(c2ccccc2[N-]C(=O)[N-]c2ccc(SC(F)(F)F)cc2)CC1

>  <Energy>  (36) 
63.95107891946554

>  <Genealogy>  (36) 
CN1CCN(c2ccccc2[N-]C(=O)[N-]c2ccc(SC(F)(F)F)cc2)CC1 (protonated)
CN1CCN(c2ccccc2[N-]C(=O)[N-]c2ccc(SC(F)(F)F)cc2)CC1 (3D coordinates assigned)
CN1CCN(c2ccccc2[N-]C(=O)[N-]c2ccc(SC(F)(F)F)cc2)CC1 (nonaromatic ring conformer: 63.95107891946554 kcal/mol)

>  <smiles>  (36) 
CN1CCN(c2ccccc2NC(=O)Nc2ccc(SC(F)(F)F)cc2)CC1

>  <score_type>  (36) 
oracle

>  <origin>  (36) 
adgpu

>  <m_score__min__energy>  (36) 
-10.68

>  <m_primary>  (36) 
energy

$$$$
36:0
     RDKit          3D

 61 64  0  0  0  0  0  0  0  0999 V2000
   -1.8642   26.2816  -28.7613 H   0  0  0  0  0  0  0  0  0  0  0  0
   -1.5320   25.3140  -28.3570 C   0  0  0  0  0  0  0  0  0  0  0  0
   -0.5890   25.2840  -27.4110 C   0  0  0  0  0  0  0  0  0  0  0  0
   -0.2212   26.2348  -26.9979 H   0  0  0  0  0  0  0  0  0  0  0  0
   -0.0070   23.9830  -26.8860 C   0  0  0  0  0  0  0  0  0  0  0  0
    0.0690   24.0490  -25.3550 C   0  0  0  0  0  0  0  0  0  0  0  0
   -0.6942   23.3862  -24.9211 H   0  0  0  0  0  0  0  0  0  0  0  0
    1.0667   23.7259  -25.0231 H   0  0  0  0  0  0  0  0  0  0  0  0
   -0.1111   25.0822  -25.0231 H   0  0  0  0  0  0  0  0  0  0  0  0
    1.4000   23.7970  -27.4710 C   0  0  0  0  0  0  0  0  0  0  0  0
    2.1279   23.7008  -26.6519 H   0  0  0  0  0  0  0  0  0  0  0  0
    1.4225   22.8881  -28.0901 H   0  0  0  0  0  0  0  0  0  0  0  0
    1.6579   24.6689  -28.0901 H   0  0  0  0  0  0  0  0  0  0  0  0
   -0.8070   22.8440  -27.2470 O   0  0  0  0  0  0  0  0  0  0  0  0
   -1.7530   22.8560  -28.2780 C   0  0  0  0  0  0  0  0  0  0  0  0
   -2.3330   21.6580  -28.7020 C   0  0  0  0  0  0  0  0  0  0  0  0
   -2.0309   20.7079  -28.2372 H   0  0  0  0  0  0  0  0  0  0  0  0
   -3.2960   21.6630  -29.7150 C   0  0  0  0  0  0  0  0  0  0  0  0
   -3.8580   20.4590  -30.1290 O   0  0  0  0  0  0  0  0  0  0  0  0
   -3.6920   22.8760  -30.3050 C   0  0  0  0  0  0  0  0  0  0  0  0
   -4.7430   22.8910  -31.3400 C   0  0  0  0  0  0  0  0  0  0  0  0
   -5.7239   23.3245  -31.0952 H   0  0  0  0  0  0  0  0  0  0  0  0
   -4.5490   22.4090  -32.5320 N   0  0  0  0  0  0  0  0  0  0  0  0
   -3.2970   21.8020  -32.9830 C   0  0  0  0  0  0  0  0  0  0  0  0
   -2.8229   22.4639  -33.7227 H   0  0  0  0  0  0  0  0  0  0  0  0
   -2.6413   21.6646  -32.1105 H   0  0  0  0  0  0  0  0  0  0  0  0
   -3.5480   20.4270  -33.6270 C   0  0  1  0  0  0  0  0  0  0  0  0
   -3.0951   20.4403  -34.6293 H   0  0  0  0  0  0  0  0  0  0  0  0
   -2.8400   19.2990  -32.8370 C   0  0  0  0  0  0  0  0  0  0  0  0
   -3.0096   19.4507  -31.7608 H   0  0  0  0  0  0  0  0  0  0  0  0
   -1.7638   19.3315  -33.0624 H   0  0  0  0  0  0  0  0  0  0  0  0
   -3.3860   17.9290  -33.2430 C   0  0  0  0  0  0  0  0  0  0  0  0
   -2.8153   17.1480  -32.7192 H   0  0  0  0  0  0  0  0  0  0  0  0
   -3.2826   17.8273  -34.3334 H   0  0  0  0  0  0  0  0  0  0  0  0
   -4.8870   17.7820  -32.8830 C   0  0  2  0  0  0  0  0  0  0  0  0
   -4.9439   17.3889  -31.8572 H   0  0  0  0  0  0  0  0  0  0  0  0
   -5.5510   16.7980  -33.8290 C   0  0  0  0  0  0  0  0  0  0  0  0
   -6.1190   17.2500  -34.8630 O   0  0  0  0  0  0  0  0  0  0  0  0
   -5.5180   15.3690  -33.6100 N   0  0  0  0  0  0  0  0  0  0  0  0
   -6.5630   14.5290  -34.2150 C   0  0  0  0  0  0  0  0  0  0  0  0
   -7.4270   14.4800  -33.5359 H   0  0  0  0  0  0  0  0  0  0  0  0
   -6.8630   14.9701  -35.1770 H   0  0  0  0  0  0  0  0  0  0  0  0
   -6.0340   13.1140  -34.4610 C   0  0  0  0  0  0  0  0  0  0  0  0
   -6.8634   12.4702  -34.7890 H   0  0  0  0  0  0  0  0  0  0  0  0
   -5.2551   13.1570  -35.2366 H   0  0  0  0  0  0  0  0  0  0  0  0
   -5.4710   12.5800  -33.2800 O   0  0  0  0  0  0  0  0  0  0  0  0
   -4.3150   13.3170  -32.9380 C   0  0  0  0  0  0  0  0  0  0  0  0
   -3.8251   12.8379  -32.0775 H   0  0  0  0  0  0  0  0  0  0  0  0
   -3.6411   13.3329  -33.8073 H   0  0  0  0  0  0  0  0  0  0  0  0
   -4.6700   14.7620  -32.5710 C   0  0  0  0  0  0  0  0  0  0  0  0
   -5.2113   14.7689  -31.6135 H   0  0  0  0  0  0  0  0  0  0  0  0
   -3.7406   15.3445  -32.4879 H   0  0  0  0  0  0  0  0  0  0  0  0
   -5.6390   19.1410  -32.8570 C   0  0  0  0  0  0  0  0  0  0  0  0
   -5.5662   19.5645  -31.8444 H   0  0  0  0  0  0  0  0  0  0  0  0
   -6.6838   18.9489  -33.1425 H   0  0  0  0  0  0  0  0  0  0  0  0
   -5.0630   20.1540  -33.8560 C   0  0  0  0  0  0  0  0  0  0  0  0
   -5.6113   21.1019  -33.7519 H   0  0  0  0  0  0  0  0  0  0  0  0
   -5.1756   19.7281  -34.8639 H   0  0  0  0  0  0  0  0  0  0  0  0
   -3.1060   24.0820  -29.8820 C   0  0  0  0  0  0  0  0  0  0  0  0
   -3.5000   25.2860  -30.4620 O   0  0  0  0  0  0  0  0  0  0  0  0
   -2.1330   24.0690  -28.8660 C   0  0  0  0  0  0  0  0  0  0  0  0
  1  2  1  0
  2  3  2  0
  3  4  1  0
  3  5  1  0
  5  6  1  0
  6  7  1  0
  6  8  1  0
  6  9  1  0
  5 10  1  0
 10 11  1  0
 10 12  1  0
 10 13  1  0
  5 14  1  0
 14 15  1  0
 15 16  2  0
 16 17  1  0
 16 18  1  0
 18 19  1  0
 18 20  2  0
 20 21  1  0
 21 22  1  0
 21 23  2  0
 23 24  1  0
 24 25  1  0
 24 26  1  0
 24 27  1  0
 27 28  1  6
 27 29  1  0
 29 30  1  0
 29 31  1  0
 29 32  1  0
 32 33  1  0
 32 34  1  0
 32 35  1  0
 35 36  1  1
 35 37  1  0
 37 38  2  0
 37 39  1  0
 39 40  1  0
 40 41  1  0
 40 42  1  0
 40 43  1  0
 43 44  1  0
 43 45  1  0
 43 46  1  0
 46 47  1  0
 47 48  1  0
 47 49  1  0
 47 50  1  0
 50 51  1  0
 50 52  1  0
 35 53  1  0
 53 54  1  0
 53 55  1  0
 53 56  1  0
 56 57  1  0
 56 58  1  0
 20 59  1  0
 59 60  1  0
 59 61  2  0
 61  2  1  0
 61 15  1  0
 56 27  1  0
 50 39  1  0
M  CHG  2  19  -1  60  -1
M  END
>  <UniqueID>  (37) 
36

>  <SMILES>  (37) 
CC1(C)C=Cc2c(cc([O-])c(/C=N\CC3CCC(C(=O)N4CCOCC4)CC3)c2[O-])O1

>  <Energy>  (37) 
74.92754521172996

>  <Genealogy>  (37) 
CC1(C)C=Cc2c(cc([O-])c(C=NCC3CCC(C(=O)N4CCOCC4)CC3)c2[O-])O1 (protonated)
CC1(C)C=Cc2c(cc([O-])c(/C=N\CC3CCC(C(=O)N4CCOCC4)CC3)c2[O-])O1 (cis-trans isomerization)
CC1(C)C=Cc2c(cc([O-])c(/C=N\CC3CCC(C(=O)N4CCOCC4)CC3)c2[O-])O1 (3D coordinates assigned)
CC1(C)C=Cc2c(cc([O-])c(/C=N\CC3CCC(C(=O)N4CCOCC4)CC3)c2[O-])O1 (nonaromatic ring conformer: 74.92754521172996 kcal/mol)

>  <smiles>  (37) 
CC1(C)C=Cc2c(cc(O)c(C=NCC3CCC(C(=O)N4CCOCC4)CC3)c2O)O1

>  <score_type>  (37) 
oracle

>  <origin>  (37) 
adgpu

>  <m_score__min__energy>  (37) 
-12.43

>  <m_primary>  (37) 
energy

$$$$
37:0
     RDKit          3D

 56 60  0  0  0  0  0  0  0  0999 V2000
   -2.2390   20.7850  -34.1590 N   0  0  0  0  0  0  0  0  0  0  0  0
   -2.3600   19.2200  -33.4300 S   0  0  0  0  0  0  0  0  0  0  0  0
   -2.1870   19.3560  -31.9440 O   0  0  0  0  0  0  0  0  0  0  0  0
   -1.2500   18.3690  -33.9870 O   0  0  0  0  0  0  0  0  0  0  0  0
   -3.9310   18.4650  -33.7690 C   0  0  0  0  0  0  0  0  0  0  0  0
   -3.9580   17.2170  -34.4160 C   0  0  0  0  0  0  0  0  0  0  0  0
   -5.1680   16.5600  -34.6500 C   0  0  0  0  0  0  0  0  0  0  0  0
   -6.3680   17.1420  -34.2470 C   0  0  0  0  0  0  0  0  0  0  0  0
   -6.3640   18.3890  -33.6180 C   0  0  0  0  0  0  0  0  0  0  0  0
   -5.1560   19.0690  -33.3800 C   0  0  0  0  0  0  0  0  0  0  0  0
   -5.2090   20.3980  -32.7310 C   0  0  0  0  0  0  0  0  0  0  0  0
   -5.9540   20.5880  -31.5580 C   0  0  0  0  0  0  0  0  0  0  0  0
   -5.9540   21.8420  -30.9440 C   0  0  0  0  0  0  0  0  0  0  0  0
   -5.2240   22.9000  -31.5000 C   0  0  0  0  0  0  0  0  0  0  0  0
   -5.1610   24.4710  -30.6980 S   0  0  0  0  0  0  0  0  0  0  0  0
   -5.9450   24.4430  -29.4160 O   0  0  0  0  0  0  0  0  0  0  0  0
   -5.7760   25.5110  -31.5940 O   0  0  0  0  0  0  0  0  0  0  0  0
   -3.5090   24.9290  -30.4150 N   0  0  0  0  0  0  0  0  0  0  0  0
   -2.6550   24.4850  -29.3500 C   0  0  0  0  0  0  0  0  0  0  0  0
   -1.6150   25.2990  -28.8160 C   0  0  0  0  0  0  0  0  0  0  0  0
   -0.8130   24.8340  -27.7580 C   0  0  0  0  0  0  0  0  0  0  0  0
   -1.0740   23.5580  -27.2590 C   0  0  0  0  0  0  0  0  0  0  0  0
   -2.0580   22.7700  -27.7740 C   0  0  0  0  0  0  0  0  0  0  0  0
   -2.8660   23.1920  -28.8260 C   0  0  0  0  0  0  0  0  0  0  0  0
   -2.1070   21.5890  -27.1270 N   0  0  0  0  0  0  0  0  0  0  0  0
   -1.1150   21.7050  -26.2050 C   0  0  0  0  0  0  0  0  0  0  0  0
   -0.4660   22.8940  -26.2640 N   0  0  0  0  0  0  0  0  0  0  0  0
    0.6410   23.3370  -25.4150 C   0  0  0  0  0  0  0  0  0  0  0  0
    0.4080   24.7470  -24.9380 C   0  0  0  0  0  0  0  0  0  0  0  0
   -0.8270   25.1040  -24.3700 C   0  0  0  0  0  0  0  0  0  0  0  0
   -1.0450   26.4120  -23.9260 C   0  0  0  0  0  0  0  0  0  0  0  0
   -0.0350   27.3710  -24.0460 C   0  0  0  0  0  0  0  0  0  0  0  0
    1.1960   27.0230  -24.6100 C   0  0  0  0  0  0  0  0  0  0  0  0
    1.4180   25.7160  -25.0550 C   0  0  0  0  0  0  0  0  0  0  0  0
   -4.5140   22.6770  -32.6890 C   0  0  0  0  0  0  0  0  0  0  0  0
   -4.5230   21.4460  -33.2660 N   0  0  0  0  0  0  0  0  0  0  0  0
   -2.3400   21.4970  -33.4020 H   0  0  0  0  0  0  0  0  0  0  0  0
   -3.0480   20.8950  -34.8100 H   0  0  0  0  0  0  0  0  0  0  0  0
   -3.0154   16.7528  -34.7416 H   0  0  0  0  0  0  0  0  0  0  0  0
   -5.1736   15.5818  -35.1531 H   0  0  0  0  0  0  0  0  0  0  0  0
   -7.3193   16.6190  -34.4244 H   0  0  0  0  0  0  0  0  0  0  0  0
   -7.3155   18.8440  -33.3055 H   0  0  0  0  0  0  0  0  0  0  0  0
   -6.5322   19.7578  -31.1263 H   0  0  0  0  0  0  0  0  0  0  0  0
   -6.5296   21.9996  -30.0200 H   0  0  0  0  0  0  0  0  0  0  0  0
   -1.4374   26.3005  -29.2349 H   0  0  0  0  0  0  0  0  0  0  0  0
   -0.0079   25.4552  -27.3387 H   0  0  0  0  0  0  0  0  0  0  0  0
   -3.6472   22.5358  -29.2373 H   0  0  0  0  0  0  0  0  0  0  0  0
   -0.8639   20.9136  -25.4834 H   0  0  0  0  0  0  0  0  0  0  0  0
    0.7198   22.6687  -24.5448 H   0  0  0  0  0  0  0  0  0  0  0  0
    1.5719   23.3085  -26.0003 H   0  0  0  0  0  0  0  0  0  0  0  0
   -1.6244   24.3523  -24.2744 H   0  0  0  0  0  0  0  0  0  0  0  0
   -2.0130   26.6868  -23.4815 H   0  0  0  0  0  0  0  0  0  0  0  0
   -0.2088   28.3995  -23.6967 H   0  0  0  0  0  0  0  0  0  0  0  0
    1.9906   27.7779  -24.7038 H   0  0  0  0  0  0  0  0  0  0  0  0
    2.3877   25.4457  -25.4985 H   0  0  0  0  0  0  0  0  0  0  0  0
   -3.9497   23.4984  -33.1547 H   0  0  0  0  0  0  0  0  0  0  0  0
  1  2  1  0
  2  3  2  0
  2  4  2  0
  2  5  1  0
  5  6  2  0
  6  7  1  0
  7  8  2  0
  8  9  1  0
  9 10  2  0
 10 11  1  0
 11 12  2  0
 12 13  1  0
 13 14  2  0
 14 15  1  0
 15 16  2  0
 15 17  2  0
 15 18  1  0
 18 19  1  0
 19 20  2  0
 20 21  1  0
 21 22  2  0
 22 23  1  0
 23 24  2  0
 23 25  1  0
 25 26  2  0
 26 27  1  0
 27 28  1  0
 28 29  1  0
 29 30  2  0
 30 31  1  0
 31 32  2  0
 32 33  1  0
 33 34  2  0
 14 35  1  0
 35 36  2  0
 10  5  1  0
 36 11  1  0
 24 19  1  0
 34 29  1  0
 27 22  1  0
  1 37  1  0
  1 38  1  0
  6 39  1  0
  7 40  1  0
  8 41  1  0
  9 42  1  0
 12 43  1  0
 13 44  1  0
 20 45  1  0
 21 46  1  0
 24 47  1  0
 26 48  1  0
 28 49  1  0
 28 50  1  0
 30 51  1  0
 31 52  1  0
 32 53  1  0
 33 54  1  0
 34 55  1  0
 35 56  1  0
M  CHG  1  18  -1
M  END
>  <UniqueID>  (38) 
37

>  <SMILES>  (38) 
NS(=O)(=O)c1ccccc1-c1ccc(S(=O)(=O)[N-]c2ccc3c(c2)ncn3Cc2ccccc2)cn1

>  <Energy>  (38) 
112.13907304245828

>  <Genealogy>  (38) 
NS(=O)(=O)c1ccccc1-c1ccc(S(=O)(=O)[N-]c2ccc3c(c2)ncn3Cc2ccccc2)cn1 (protonated)
NS(=O)(=O)c1ccccc1-c1ccc(S(=O)(=O)[N-]c2ccc3c(c2)ncn3Cc2ccccc2)cn1 (3D coordinates assigned)
NS(=O)(=O)c1ccccc1-c1ccc(S(=O)(=O)[N-]c2ccc3c(c2)ncn3Cc2ccccc2)cn1 (optimized conformer: 112.13907304245828 kcal/mol)

>  <smiles>  (38) 
NS(=O)(=O)c1ccccc1-c1ccc(S(=O)(=O)Nc2ccc3c(c2)ncn3Cc2ccccc2)cn1

>  <score_type>  (38) 
oracle

>  <origin>  (38) 
adgpu

>  <m_score__min__energy>  (38) 
-11.380000000000001

>  <m_primary>  (38) 
energy

$$$$
38:0
     RDKit          3D

 43 45  0  0  0  0  0  0  0  0999 V2000
   -0.2960   23.3450  -24.4160 C   0  0  0  0  0  0  0  0  0  0  0  0
   -0.5220   24.0320  -25.7300 C   0  0  0  0  0  0  0  0  0  0  0  0
    0.0620   25.2790  -25.9840 C   0  0  0  0  0  0  0  0  0  0  0  0
   -0.1800   25.9330  -27.1920 C   0  0  0  0  0  0  0  0  0  0  0  0
   -1.0170   25.3610  -28.1550 C   0  0  0  0  0  0  0  0  0  0  0  0
   -1.2300   26.0550  -29.3420 O   0  0  0  0  0  0  0  0  0  0  0  0
   -1.6310   24.1100  -27.9120 C   0  0  0  0  0  0  0  0  0  0  0  0
   -2.5370   23.4670  -28.9030 C   0  0  0  0  0  0  0  0  0  0  0  0
   -2.0510   22.9390  -29.9420 O   0  0  0  0  0  0  0  0  0  0  0  0
   -3.9590   23.4870  -28.7180 N   0  0  0  0  0  0  0  0  0  0  0  0
   -4.9540   23.6340  -29.7440 C   0  0  0  0  0  0  0  0  0  0  0  0
   -6.0210   22.7280  -29.8760 C   0  0  0  0  0  0  0  0  0  0  0  0
   -6.9900   22.9110  -30.8720 C   0  0  0  0  0  0  0  0  0  0  0  0
   -8.3010   21.7480  -31.0450 S   0  0  0  0  0  0  0  0  0  0  0  0
   -9.1440   22.1040  -32.2390 O   0  0  0  0  0  0  0  0  0  0  0  0
   -9.1660   21.7960  -29.8170 O   0  0  0  0  0  0  0  0  0  0  0  0
   -7.6290   20.1480  -31.2240 N   0  0  0  0  0  0  0  0  0  0  0  0
   -8.6550   19.1790  -31.6090 C   0  0  0  0  0  0  0  0  0  0  0  0
   -7.9450   18.0800  -32.3860 C   0  0  0  0  0  0  0  0  0  0  0  0
   -6.6140   18.6790  -32.8120 C   0  0  0  0  0  0  0  0  0  0  0  0
   -6.6330   20.1070  -32.2950 C   0  0  0  0  0  0  0  0  0  0  0  0
   -6.8930   24.0080  -31.7390 C   0  0  0  0  0  0  0  0  0  0  0  0
   -5.8510   24.9260  -31.5950 C   0  0  0  0  0  0  0  0  0  0  0  0
   -4.8880   24.7460  -30.5960 C   0  0  0  0  0  0  0  0  0  0  0  0
   -3.8610   25.6730  -30.4610 O   0  0  0  0  0  0  0  0  0  0  0  0
   -1.3760   23.4620  -26.6860 C   0  0  0  0  0  0  0  0  0  0  0  0
   -0.5247   24.0401  -23.5947 H   0  0  0  0  0  0  0  0  0  0  0  0
   -0.9520   22.4649  -24.3448 H   0  0  0  0  0  0  0  0  0  0  0  0
    0.7544   23.0262  -24.3448 H   0  0  0  0  0  0  0  0  0  0  0  0
    0.7131   25.7440  -25.2291 H   0  0  0  0  0  0  0  0  0  0  0  0
    0.2916   26.9071  -27.3888 H   0  0  0  0  0  0  0  0  0  0  0  0
   -6.0959   21.8693  -29.1926 H   0  0  0  0  0  0  0  0  0  0  0  0
   -9.1367   18.7601  -30.7132 H   0  0  0  0  0  0  0  0  0  0  0  0
   -9.4392   19.6523  -32.2180 H   0  0  0  0  0  0  0  0  0  0  0  0
   -7.7834   17.1998  -31.7464 H   0  0  0  0  0  0  0  0  0  0  0  0
   -8.5366   17.7436  -33.2503 H   0  0  0  0  0  0  0  0  0  0  0  0
   -5.7790   18.1188  -32.3659 H   0  0  0  0  0  0  0  0  0  0  0  0
   -6.4771   18.6397  -33.9027 H   0  0  0  0  0  0  0  0  0  0  0  0
   -5.6426   20.3826  -31.9036 H   0  0  0  0  0  0  0  0  0  0  0  0
   -6.8822   20.8172  -33.0972 H   0  0  0  0  0  0  0  0  0  0  0  0
   -7.6397   24.1460  -32.5349 H   0  0  0  0  0  0  0  0  0  0  0  0
   -5.7869   25.7932  -32.2688 H   0  0  0  0  0  0  0  0  0  0  0  0
   -1.8543   22.4940  -26.4757 H   0  0  0  0  0  0  0  0  0  0  0  0
  1  2  1  0
  2  3  2  0
  3  4  1  0
  4  5  2  0
  5  6  1  0
  5  7  1  0
  7  8  1  0
  8  9  2  0
  8 10  1  0
 10 11  1  0
 11 12  2  0
 12 13  1  0
 13 14  1  0
 14 15  2  0
 14 16  2  0
 14 17  1  0
 17 18  1  0
 18 19  1  0
 19 20  1  0
 20 21  1  0
 13 22  2  0
 22 23  1  0
 23 24  2  0
 24 25  1  0
  7 26  2  0
 26  2  1  0
 24 11  1  0
 21 17  1  0
  1 27  1  0
  1 28  1  0
  1 29  1  0
  3 30  1  0
  4 31  1  0
 12 32  1  0
 18 33  1  0
 18 34  1  0
 19 35  1  0
 19 36  1  0
 20 37  1  0
 20 38  1  0
 21 39  1  0
 21 40  1  0
 22 41  1  0
 23 42  1  0
 26 43  1  0
M  CHG  3   6  -1  10  -1  25  -1
M  END
>  <UniqueID>  (39) 
38

>  <SMILES>  (39) 
Cc1ccc([O-])c(C(=O)[N-]c2cc(S(=O)(=O)N3CCCC3)ccc2[O-])c1

>  <Energy>  (39) 
50.8334496326489

>  <Genealogy>  (39) 
Cc1ccc([O-])c(C(=O)[N-]c2cc(S(=O)(=O)N3CCCC3)ccc2[O-])c1 (protonated)
Cc1ccc([O-])c(C(=O)[N-]c2cc(S(=O)(=O)N3CCCC3)ccc2[O-])c1 (3D coordinates assigned)
Cc1ccc([O-])c(C(=O)[N-]c2cc(S(=O)(=O)N3CCCC3)ccc2[O-])c1 (nonaromatic ring conformer: 50.8334496326489 kcal/mol)

>  <smiles>  (39) 
Cc1ccc(O)c(C(=O)Nc2cc(S(=O)(=O)N3CCCC3)ccc2O)c1

>  <score_type>  (39) 
oracle

>  <origin>  (39) 
adgpu

>  <m_score__min__energy>  (39) 
-15.44

>  <m_primary>  (39) 
energy

$$$$
39:0
     RDKit          3D

 43 45  0  0  0  0  0  0  0  0999 V2000
  -10.8042   20.3776  -32.4175 H   0  0  0  0  0  0  0  0  0  0  0  0
   -9.7200   20.1930  -32.3990 C   0  0  0  0  0  0  0  0  0  0  0  0
   -8.8650   21.1930  -32.0590 N   0  0  0  0  0  0  0  0  0  0  0  0
   -7.5180   20.9940  -32.0280 C   0  0  0  0  0  0  0  0  0  0  0  0
   -6.6260   22.0720  -31.6640 N   0  0  0  0  0  0  0  0  0  0  0  0
   -7.0130   23.1040  -30.6950 C   0  0  0  0  0  0  0  0  0  0  0  0
   -8.0588   22.9482  -30.3915 H   0  0  0  0  0  0  0  0  0  0  0  0
   -6.9090   24.0973  -31.1561 H   0  0  0  0  0  0  0  0  0  0  0  0
   -6.1060   23.0150  -29.4650 C   0  0  0  0  0  0  0  0  0  0  0  0
   -6.3577   22.1089  -28.8944 H   0  0  0  0  0  0  0  0  0  0  0  0
   -6.2603   23.9094  -28.8435 H   0  0  0  0  0  0  0  0  0  0  0  0
   -4.6910   22.9550  -29.8710 N   0  0  0  0  0  0  0  0  0  0  0  0
   -3.6650   23.5780  -29.0710 C   0  0  0  0  0  0  0  0  0  0  0  0
   -3.4100   23.1130  -27.8200 N   0  0  0  0  0  0  0  0  0  0  0  0
   -2.4770   23.6540  -27.0370 N   0  0  0  0  0  0  0  0  0  0  0  0
   -2.3280   23.2460  -26.0870 H   0  0  0  0  0  0  0  0  0  0  0  0
   -1.7230   24.7170  -27.4420 C   0  0  0  0  0  0  0  0  0  0  0  0
   -0.8290   25.1900  -26.6130 N   0  0  0  0  0  0  0  0  0  0  0  0
    0.0880   26.3060  -26.8150 C   0  0  0  0  0  0  0  0  0  0  0  0
    0.4097   26.6975  -25.8387 H   0  0  0  0  0  0  0  0  0  0  0  0
    0.9669   25.9609  -27.3793 H   0  0  0  0  0  0  0  0  0  0  0  0
   -0.4210   27.1013  -27.3793 H   0  0  0  0  0  0  0  0  0  0  0  0
   -1.9520   25.2490  -28.7340 C   0  0  0  0  0  0  0  0  0  0  0  0
   -1.2380   26.3340  -29.2330 O   0  0  0  0  0  0  0  0  0  0  0  0
   -2.9290   24.6720  -29.5420 C   0  0  0  0  0  0  0  0  0  0  0  0
   -3.1218   25.0747  -30.5473 H   0  0  0  0  0  0  0  0  0  0  0  0
   -4.3030   21.9920  -30.9140 C   0  0  0  0  0  0  0  0  0  0  0  0
   -4.3665   20.9720  -30.5071 H   0  0  0  0  0  0  0  0  0  0  0  0
   -3.2729   22.2083  -31.2336 H   0  0  0  0  0  0  0  0  0  0  0  0
   -5.2320   22.1110  -32.1220 C   0  0  0  0  0  0  0  0  0  0  0  0
   -5.0477   21.2742  -32.8118 H   0  0  0  0  0  0  0  0  0  0  0  0
   -5.0406   23.0604  -32.6435 H   0  0  0  0  0  0  0  0  0  0  0  0
   -7.0210   19.7650  -32.3410 N   0  0  0  0  0  0  0  0  0  0  0  0
   -7.8360   18.7350  -32.6940 C   0  0  0  0  0  0  0  0  0  0  0  0
   -7.2430   17.3900  -33.0020 C   0  0  0  0  0  0  0  0  0  0  0  0
   -7.9766   16.6097  -32.7510 H   0  0  0  0  0  0  0  0  0  0  0  0
   -6.9913   17.3601  -34.0724 H   0  0  0  0  0  0  0  0  0  0  0  0
   -5.9630   17.1460  -32.2000 C   0  0  0  0  0  0  0  0  0  0  0  0
   -5.5460   15.8410  -32.3870 F   0  0  0  0  0  0  0  0  0  0  0  0
   -6.1920   17.3530  -30.8520 F   0  0  0  0  0  0  0  0  0  0  0  0
   -4.9620   18.0000  -32.6300 F   0  0  0  0  0  0  0  0  0  0  0  0
   -9.2210   18.9340  -32.7240 C   0  0  0  0  0  0  0  0  0  0  0  0
   -9.9007   18.1138  -32.9983 H   0  0  0  0  0  0  0  0  0  0  0  0
  1  2  1  0
  2  3  2  0
  3  4  1  0
  4  5  1  0
  5  6  1  0
  6  7  1  0
  6  8  1  0
  6  9  1  0
  9 10  1  0
  9 11  1  0
  9 12  1  0
 12 13  1  0
 13 14  2  0
 14 15  1  0
 15 16  1  0
 15 17  1  0
 17 18  2  0
 18 19  1  0
 19 20  1  0
 19 21  1  0
 19 22  1  0
 17 23  1  0
 23 24  1  0
 23 25  2  0
 25 26  1  0
 12 27  1  0
 27 28  1  0
 27 29  1  0
 27 30  1  0
 30 31  1  0
 30 32  1  0
  4 33  2  0
 33 34  1  0
 34 35  1  0
 35 36  1  0
 35 37  1  0
 35 38  1  0
 38 39  1  0
 38 40  1  0
 38 41  1  0
 34 42  2  0
 42 43  1  0
 42  2  1  0
 30  5  1  0
 25 13  1  0
M  CHG  1  24  -1
M  END
>  <UniqueID>  (40) 
39

>  <SMILES>  (40) 
C/N=c1/[nH]nc(N2CCN(c3nccc(CC(F)(F)F)n3)CC2)cc1[O-]

>  <Energy>  (40) 
50.765634326833364

>  <Genealogy>  (40) 
CN=c1[nH]nc(N2CCN(c3nccc(CC(F)(F)F)n3)CC2)cc1[O-] (protonated)
C/N=c1/[nH]nc(N2CCN(c3nccc(CC(F)(F)F)n3)CC2)cc1[O-] (cis-trans isomerization)
C/N=c1/[nH]nc(N2CCN(c3nccc(CC(F)(F)F)n3)CC2)cc1[O-] (3D coordinates assigned)
C/N=c1/[nH]nc(N2CCN(c3nccc(CC(F)(F)F)n3)CC2)cc1[O-] (nonaromatic ring conformer: 50.765634326833364 kcal/mol)

>  <smiles>  (40) 
CN=c1[nH]nc(N2CCN(c3nccc(CC(F)(F)F)n3)CC2)cc1O

>  <score_type>  (40) 
oracle

>  <origin>  (40) 
adgpu

>  <m_score__min__energy>  (40) 
-9.0299999999999994

>  <m_primary>  (40) 
energy

$$$$
40:0
     RDKit          3D

 55 58  0  0  0  0  0  0  0  0999 V2000
   -2.5820   22.6530  -26.9010 O   0  0  0  0  0  0  0  0  0  0  0  0
   -2.5520   22.3330  -28.1190 C   0  0  0  0  0  0  0  0  0  0  0  0
   -2.0640   21.0900  -28.5050 C   0  0  0  0  0  0  0  0  0  0  0  0
   -2.0460   20.7750  -29.8630 C   0  0  0  0  0  0  0  0  0  0  0  0
   -2.4870   21.6730  -30.7960 N   0  0  0  0  0  0  0  0  0  0  0  0
   -2.4690   21.2810  -32.2210 C   0  0  2  0  0  0  0  0  0  0  0  0
   -3.4960   20.3600  -32.5060 O   0  0  0  0  0  0  0  0  0  0  0  0
   -3.0150   19.4800  -33.5050 C   0  0  2  0  0  0  0  0  0  0  0  0
   -3.2060   18.0150  -33.0540 C   0  0  0  0  0  0  0  0  0  0  0  0
   -3.4240   17.0850  -34.1740 N   0  0  0  0  0  0  0  0  0  0  0  0
   -4.8250   16.6580  -34.2890 C   0  0  0  0  0  0  0  0  0  0  0  0
   -5.7140   17.6880  -33.6500 C   0  0  0  0  0  0  0  0  0  0  0  0
   -6.3370   17.4200  -32.4220 C   0  0  0  0  0  0  0  0  0  0  0  0
   -7.1950   18.3630  -31.8470 C   0  0  0  0  0  0  0  0  0  0  0  0
   -7.4490   19.5760  -32.4990 C   0  0  0  0  0  0  0  0  0  0  0  0
   -8.5210   20.7560  -31.7540 S   0  0  0  0  0  0  0  0  0  0  0  0
   -9.1270   20.1640  -30.5120 O   0  0  0  0  0  0  0  0  0  0  0  0
   -9.6360   21.1240  -32.6940 O   0  0  0  0  0  0  0  0  0  0  0  0
   -7.5970   22.2000  -31.3560 C   0  0  0  0  0  0  0  0  0  0  0  0
   -7.5660   22.6690  -30.0350 C   0  0  0  0  0  0  0  0  0  0  0  0
   -6.8490   23.8270  -29.7170 C   0  0  0  0  0  0  0  0  0  0  0  0
   -6.1650   24.5240  -30.7180 C   0  0  0  0  0  0  0  0  0  0  0  0
   -6.2010   24.0650  -32.0380 C   0  0  0  0  0  0  0  0  0  0  0  0
   -6.9170   22.9080  -32.3590 C   0  0  0  0  0  0  0  0  0  0  0  0
   -6.8380   19.8410  -33.7320 C   0  0  0  0  0  0  0  0  0  0  0  0
   -5.9810   18.8990  -34.3090 C   0  0  0  0  0  0  0  0  0  0  0  0
   -1.5310   19.7860  -33.7790 C   0  0  1  0  0  0  0  0  0  0  0  0
   -1.3960   20.5010  -34.9810 O   0  0  0  0  0  0  0  0  0  0  0  0
   -1.1430   20.6490  -32.6040 C   0  0  1  0  0  0  0  0  0  0  0  0
   -0.1980   21.6300  -32.9440 O   0  0  0  0  0  0  0  0  0  0  0  0
   -2.9790   22.8890  -30.3800 C   0  0  0  0  0  0  0  0  0  0  0  0
   -3.4240   23.7260  -31.2090 O   0  0  0  0  0  0  0  0  0  0  0  0
   -3.0000   23.2020  -29.0580 N   0  0  0  0  0  0  0  0  0  0  0  0
   -1.7003   20.3712  -27.7560 H   0  0  0  0  0  0  0  0  0  0  0  0
   -1.6727   19.7927  -30.1881 H   0  0  0  0  0  0  0  0  0  0  0  0
   -2.6202   22.2016  -32.8037 H   0  0  0  0  0  0  0  0  0  0  0  0
   -3.5830   19.6253  -34.4357 H   0  0  0  0  0  0  0  0  0  0  0  0
   -2.3059   17.6979  -32.5069 H   0  0  0  0  0  0  0  0  0  0  0  0
   -4.1069   17.9829  -32.4236 H   0  0  0  0  0  0  0  0  0  0  0  0
   -2.8140   16.2410  -34.0600 H   0  0  0  0  0  0  0  0  0  0  0  0
   -5.0905   16.5520  -35.3512 H   0  0  0  0  0  0  0  0  0  0  0  0
   -4.9578   15.6914  -33.7810 H   0  0  0  0  0  0  0  0  0  0  0  0
   -6.1500   16.4648  -31.9095 H   0  0  0  0  0  0  0  0  0  0  0  0
   -7.6722   18.1510  -30.8788 H   0  0  0  0  0  0  0  0  0  0  0  0
   -8.1069   22.1248  -29.2468 H   0  0  0  0  0  0  0  0  0  0  0  0
   -6.8231   24.1897  -28.6788 H   0  0  0  0  0  0  0  0  0  0  0  0
   -5.5989   25.4331  -30.4668 H   0  0  0  0  0  0  0  0  0  0  0  0
   -5.6650   24.6152  -32.8254 H   0  0  0  0  0  0  0  0  0  0  0  0
   -6.9475   22.5520  -33.3993 H   0  0  0  0  0  0  0  0  0  0  0  0
   -7.0332   20.7930  -34.2474 H   0  0  0  0  0  0  0  0  0  0  0  0
   -5.5141   19.1073  -35.2830 H   0  0  0  0  0  0  0  0  0  0  0  0
   -0.9078   18.8855  -33.8824 H   0  0  0  0  0  0  0  0  0  0  0  0
   -1.4400   21.4640  -34.7420 H   0  0  0  0  0  0  0  0  0  0  0  0
   -0.6620   20.0782  -31.7960 H   0  0  0  0  0  0  0  0  0  0  0  0
    0.2000   21.3460  -33.8090 H   0  0  0  0  0  0  0  0  0  0  0  0
  1  2  2  0
  2  3  1  0
  3  4  2  0
  4  5  1  0
  5  6  1  0
  6  7  1  0
  7  8  1  0
  8  9  1  0
  9 10  1  0
 10 11  1  0
 11 12  1  0
 12 13  2  0
 13 14  1  0
 14 15  2  0
 15 16  1  0
 16 17  2  0
 16 18  2  0
 16 19  1  0
 19 20  2  0
 20 21  1  0
 21 22  2  0
 22 23  1  0
 23 24  2  0
 15 25  1  0
 25 26  2  0
  8 27  1  0
 27 28  1  0
 27 29  1  0
 29 30  1  0
  5 31  1  0
 31 32  2  0
 31 33  1  0
 33  2  1  0
 29  6  1  0
 26 12  1  0
 24 19  1  0
  3 34  1  0
  4 35  1  0
  6 36  1  6
  8 37  1  6
  9 38  1  0
  9 39  1  0
 10 40  1  0
 11 41  1  0
 11 42  1  0
 13 43  1  0
 14 44  1  0
 20 45  1  0
 21 46  1  0
 22 47  1  0
 23 48  1  0
 24 49  1  0
 25 50  1  0
 26 51  1  0
 27 52  1  6
 28 53  1  0
 29 54  1  1
 30 55  1  0
M  CHG  1  33  -1
M  END
>  <UniqueID>  (41) 
40

>  <SMILES>  (41) 
O=c1ccn([C@@H]2O[C@H](CNCc3ccc(S(=O)(=O)c4ccccc4)cc3)C(O)C2O)c(=O)[n-]1

>  <Energy>  (41) 
65.79052532933738

>  <Genealogy>  (41) 
O=c1ccn(C2OC(CNCc3ccc(S(=O)(=O)c4ccccc4)cc3)C(O)C2O)c(=O)[n-]1 (protonated)
O=c1ccn([C@@H]2O[C@H](CNCc3ccc(S(=O)(=O)c4ccccc4)cc3)C(O)C2O)c(=O)[n-]1 (chirality)
O=c1ccn([C@@H]2O[C@H](CNCc3ccc(S(=O)(=O)c4ccccc4)cc3)C(O)C2O)c(=O)[n-]1 (3D coordinates assigned)
O=c1ccn([C@@H]2O[C@H](CNCc3ccc(S(=O)(=O)c4ccccc4)cc3)C(O)C2O)c(=O)[n-]1 (nonaromatic ring conformer: 65.79052532933738 kcal/mol)

>  <smiles>  (41) 
O=c1ccn(C2OC(CNCc3ccc(S(=O)(=O)c4ccccc4)cc3)C(O)C2O)c(=O)[nH]1

>  <score_type>  (41) 
oracle

>  <origin>  (41) 
adgpu

>  <m_score__min__energy>  (41) 
-10.5

>  <m_primary>  (41) 
energy

$$$$
41:0
     RDKit          3D

 51 53  0  0  0  0  0  0  0  0999 V2000
   -9.8340   19.2900  -32.7130 C   0  0  0  0  0  0  0  0  0  0  0  0
   -8.6850   20.3010  -32.7850 C   0  0  1  0  0  0  0  0  0  0  0  0
   -8.7070   21.2520  -31.5760 C   0  0  0  0  0  0  0  0  0  0  0  0
   -7.6100   22.3480  -31.6710 C   0  0  1  0  0  0  0  0  0  0  0  0
   -7.0800   22.7040  -30.2770 C   0  0  0  0  0  0  0  0  0  0  0  0
   -6.4520   21.9540  -32.6200 C   0  0  0  0  0  0  0  0  0  0  0  0
   -6.2080   20.5070  -32.5740 N   0  0  0  0  0  0  0  0  0  0  0  0
   -4.9620   20.0020  -32.0560 C   0  0  0  0  0  0  0  0  0  0  0  0
   -4.7880   18.7570  -31.9640 O   0  0  0  0  0  0  0  0  0  0  0  0
   -3.8670   20.9110  -31.6510 C   0  0  0  0  0  0  0  0  0  0  0  0
   -2.5280   20.5350  -31.8550 C   0  0  0  0  0  0  0  0  0  0  0  0
   -1.4900   21.3880  -31.4720 C   0  0  0  0  0  0  0  0  0  0  0  0
   -1.7750   22.6160  -30.8720 C   0  0  0  0  0  0  0  0  0  0  0  0
   -3.1040   22.9920  -30.6390 C   0  0  0  0  0  0  0  0  0  0  0  0
   -3.4760   24.5350  -29.8730 S   0  0  0  0  0  0  0  0  0  0  0  0
   -4.3810   24.2910  -28.7000 O   0  0  0  0  0  0  0  0  0  0  0  0
   -4.1710   25.4420  -30.8500 O   0  0  0  0  0  0  0  0  0  0  0  0
   -2.0160   25.2960  -29.3180 N   0  0  0  0  0  0  0  0  0  0  0  0
   -1.8220   25.0210  -27.8960 C   0  0  0  0  0  0  0  0  0  0  0  0
   -1.4000   23.5910  -27.7260 C   0  0  0  0  0  0  0  0  0  0  0  0
   -0.0820   23.2050  -28.0140 C   0  0  0  0  0  0  0  0  0  0  0  0
    0.2870   21.8650  -27.8780 C   0  0  0  0  0  0  0  0  0  0  0  0
   -0.6290   20.9410  -27.4800 N   0  0  0  0  0  0  0  0  0  0  0  0
   -1.9150   21.2860  -27.2070 C   0  0  0  0  0  0  0  0  0  0  0  0
   -2.3270   22.6160  -27.3320 C   0  0  0  0  0  0  0  0  0  0  0  0
   -4.1460   22.1380  -31.0250 C   0  0  0  0  0  0  0  0  0  0  0  0
   -7.3210   19.5800  -32.8480 C   0  0  0  0  0  0  0  0  0  0  0  0
  -10.0724   19.0803  -31.6598 H   0  0  0  0  0  0  0  0  0  0  0  0
  -10.7206   19.7062  -33.2137 H   0  0  0  0  0  0  0  0  0  0  0  0
   -9.5340   18.3577  -33.2137 H   0  0  0  0  0  0  0  0  0  0  0  0
   -8.8231   20.8906  -33.7033 H   0  0  0  0  0  0  0  0  0  0  0  0
   -8.5427   20.6648  -30.6605 H   0  0  0  0  0  0  0  0  0  0  0  0
   -9.6855   21.7543  -31.5594 H   0  0  0  0  0  0  0  0  0  0  0  0
   -8.0844   23.2389  -32.1084 H   0  0  0  0  0  0  0  0  0  0  0  0
   -7.7360   22.2634  -29.5118 H   0  0  0  0  0  0  0  0  0  0  0  0
   -6.0611   22.3064  -30.1596 H   0  0  0  0  0  0  0  0  0  0  0  0
   -7.0627   23.7976  -30.1596 H   0  0  0  0  0  0  0  0  0  0  0  0
   -5.5381   22.4835  -32.3127 H   0  0  0  0  0  0  0  0  0  0  0  0
   -6.7290   22.2318  -33.6477 H   0  0  0  0  0  0  0  0  0  0  0  0
   -2.2964   19.5646  -32.3184 H   0  0  0  0  0  0  0  0  0  0  0  0
   -0.4448   21.0912  -31.6437 H   0  0  0  0  0  0  0  0  0  0  0  0
   -0.9548   23.2891  -30.5819 H   0  0  0  0  0  0  0  0  0  0  0  0
   -1.0422   25.6854  -27.4953 H   0  0  0  0  0  0  0  0  0  0  0  0
   -2.7620   25.1973  -27.3526 H   0  0  0  0  0  0  0  0  0  0  0  0
    0.6548   23.9520  -28.3443 H   0  0  0  0  0  0  0  0  0  0  0  0
    1.3205   21.5558  -28.0931 H   0  0  0  0  0  0  0  0  0  0  0  0
   -2.6333   20.5168  -26.8869 H   0  0  0  0  0  0  0  0  0  0  0  0
   -3.3702   22.8952  -27.1229 H   0  0  0  0  0  0  0  0  0  0  0  0
   -5.1896   22.4301  -30.8367 H   0  0  0  0  0  0  0  0  0  0  0  0
   -7.3076   18.7740  -32.0996 H   0  0  0  0  0  0  0  0  0  0  0  0
   -7.1911   19.1741  -33.8621 H   0  0  0  0  0  0  0  0  0  0  0  0
  1  2  1  0
  2  3  1  0
  3  4  1  0
  4  5  1  0
  4  6  1  0
  6  7  1  0
  7  8  1  0
  8  9  2  0
  8 10  1  0
 10 11  2  0
 11 12  1  0
 12 13  2  0
 13 14  1  0
 14 15  1  0
 15 16  2  0
 15 17  2  0
 15 18  1  0
 18 19  1  0
 19 20  1  0
 20 21  2  0
 21 22  1  0
 22 23  2  0
 23 24  1  0
 24 25  2  0
 14 26  2  0
  7 27  1  0
 27  2  1  0
 26 10  1  0
 25 20  1  0
  1 28  1  0
  1 29  1  0
  1 30  1  0
  2 31  1  6
  3 32  1  0
  3 33  1  0
  4 34  1  6
  5 35  1  0
  5 36  1  0
  5 37  1  0
  6 38  1  0
  6 39  1  0
 11 40  1  0
 12 41  1  0
 13 42  1  0
 19 43  1  0
 19 44  1  0
 21 45  1  0
 22 46  1  0
 24 47  1  0
 25 48  1  0
 26 49  1  0
 27 50  1  0
 27 51  1  0
M  CHG  1  18  -1
M  END
>  <UniqueID>  (42) 
41

>  <SMILES>  (42) 
C[C@@H]1C[C@H](C)CN(C(=O)c2cccc(S(=O)(=O)[N-]Cc3ccncc3)c2)C1

>  <Energy>  (42) 
53.76261477695401

>  <Genealogy>  (42) 
CC1CC(C)CN(C(=O)c2cccc(S(=O)(=O)[N-]Cc3ccncc3)c2)C1 (protonated)
C[C@@H]1C[C@H](C)CN(C(=O)c2cccc(S(=O)(=O)[N-]Cc3ccncc3)c2)C1 (chirality)
C[C@@H]1C[C@H](C)CN(C(=O)c2cccc(S(=O)(=O)[N-]Cc3ccncc3)c2)C1 (3D coordinates assigned)
C[C@@H]1C[C@H](C)CN(C(=O)c2cccc(S(=O)(=O)[N-]Cc3ccncc3)c2)C1 (nonaromatic ring conformer: 53.76261477695401 kcal/mol)

>  <smiles>  (42) 
CC1CC(C)CN(C(=O)c2cccc(S(=O)(=O)NCc3ccncc3)c2)C1

>  <score_type>  (42) 
oracle

>  <origin>  (42) 
adgpu

>  <m_score__min__energy>  (42) 
-10.94

>  <m_primary>  (42) 
energy

$$$$
42:0
     RDKit          3D

 36 38  0  0  0  0  0  0  0  0999 V2000
   -0.6180   18.3020  -34.7290 C   0  0  0  0  0  0  0  0  0  0  0  0
   -0.8040   20.0580  -34.2930 S   0  0  0  0  0  0  0  0  0  0  0  0
   -2.5370   19.8890  -33.8840 C   0  0  0  0  0  0  0  0  0  0  0  0
   -3.2530   18.7690  -34.1390 N   0  0  0  0  0  0  0  0  0  0  0  0
   -4.5380   18.9160  -33.7260 C   0  0  0  0  0  0  0  0  0  0  0  0
   -5.5230   17.9350  -33.8470 C   0  0  0  0  0  0  0  0  0  0  0  0
   -6.8160   18.2130  -33.3750 C   0  0  0  0  0  0  0  0  0  0  0  0
   -7.1130   19.4650  -32.7890 C   0  0  0  0  0  0  0  0  0  0  0  0
   -8.7280   19.8070  -32.1700 S   0  0  0  0  0  0  0  0  0  0  0  0
   -8.9620   19.0620  -30.8850 O   0  0  0  0  0  0  0  0  0  0  0  0
   -9.7370   19.3380  -33.1790 O   0  0  0  0  0  0  0  0  0  0  0  0
   -8.9490   21.5120  -31.8990 N   0  0  0  0  0  0  0  0  0  0  0  0
   -8.5180   21.9060  -30.5560 C   0  0  0  0  0  0  0  0  0  0  0  0
   -7.3160   22.8120  -30.6110 C   0  0  0  0  0  0  0  0  0  0  0  0
   -6.3650   22.7860  -29.5780 C   0  0  0  0  0  0  0  0  0  0  0  0
   -5.2410   23.6160  -29.6340 C   0  0  0  0  0  0  0  0  0  0  0  0
   -5.0560   24.4790  -30.7180 C   0  0  0  0  0  0  0  0  0  0  0  0
   -3.9310   25.2980  -30.7610 O   0  0  0  0  0  0  0  0  0  0  0  0
   -6.0040   24.5120  -31.7500 C   0  0  0  0  0  0  0  0  0  0  0  0
   -7.1290   23.6840  -31.6970 C   0  0  0  0  0  0  0  0  0  0  0  0
   -6.1090   20.4430  -32.6750 C   0  0  0  0  0  0  0  0  0  0  0  0
   -4.8370   20.1400  -33.1510 C   0  0  0  0  0  0  0  0  0  0  0  0
   -3.4600   21.0990  -33.1430 S   0  0  0  0  0  0  0  0  0  0  0  0
   -0.5543   17.7008  -33.8100 H   0  0  0  0  0  0  0  0  0  0  0  0
   -1.4867   17.9770  -35.3203 H   0  0  0  0  0  0  0  0  0  0  0  0
    0.2996   18.1662  -35.3203 H   0  0  0  0  0  0  0  0  0  0  0  0
   -5.2908   16.9616  -34.3038 H   0  0  0  0  0  0  0  0  0  0  0  0
   -7.6041   17.4506  -33.4619 H   0  0  0  0  0  0  0  0  0  0  0  0
   -9.3427   22.4347  -30.0557 H   0  0  0  0  0  0  0  0  0  0  0  0
   -8.2433   20.9980  -29.9991 H   0  0  0  0  0  0  0  0  0  0  0  0
   -6.5048   22.1101  -28.7215 H   0  0  0  0  0  0  0  0  0  0  0  0
   -4.4995   23.5897  -28.8219 H   0  0  0  0  0  0  0  0  0  0  0  0
   -3.3470   25.3540  -31.5880 H   0  0  0  0  0  0  0  0  0  0  0  0
   -5.8623   25.1911  -32.6037 H   0  0  0  0  0  0  0  0  0  0  0  0
   -7.8708   23.7151  -32.5086 H   0  0  0  0  0  0  0  0  0  0  0  0
   -6.3235   21.4219  -32.2214 H   0  0  0  0  0  0  0  0  0  0  0  0
  1  2  1  0
  2  3  1  0
  3  4  2  0
  4  5  1  0
  5  6  2  0
  6  7  1  0
  7  8  2  0
  8  9  1  0
  9 10  2  0
  9 11  2  0
  9 12  1  0
 12 13  1  0
 13 14  1  0
 14 15  2  0
 15 16  1  0
 16 17  2  0
 17 18  1  0
 17 19  1  0
 19 20  2  0
  8 21  1  0
 21 22  2  0
 22 23  1  0
 23  3  1  0
 22  5  1  0
 20 14  1  0
  1 24  1  0
  1 25  1  0
  1 26  1  0
  6 27  1  0
  7 28  1  0
 13 29  1  0
 13 30  1  0
 15 31  1  0
 16 32  1  0
 18 33  1  0
 19 34  1  0
 20 35  1  0
 21 36  1  0
M  CHG  1  12  -1
M  END
>  <UniqueID>  (43) 
42

>  <SMILES>  (43) 
CSc1nc2ccc(S(=O)(=O)[N-]Cc3ccc(O)cc3)cc2s1

>  <Energy>  (43) 
66.68870380547577

>  <Genealogy>  (43) 
CSc1nc2ccc(S(=O)(=O)[N-]Cc3ccc(O)cc3)cc2s1 (protonated)
CSc1nc2ccc(S(=O)(=O)[N-]Cc3ccc(O)cc3)cc2s1 (3D coordinates assigned)
CSc1nc2ccc(S(=O)(=O)[N-]Cc3ccc(O)cc3)cc2s1 (optimized conformer: 66.68870380547577 kcal/mol)

>  <smiles>  (43) 
CSc1nc2ccc(S(=O)(=O)NCc3ccc(O)cc3)cc2s1

>  <score_type>  (43) 
oracle

>  <origin>  (43) 
adgpu

>  <m_score__min__energy>  (43) 
-9.9700000000000006

>  <m_primary>  (43) 
energy

$$$$
43:0
     RDKit          3D

 47 50  0  0  0  0  0  0  0  0999 V2000
   -1.8970   25.0020  -29.3450 N   0  0  0  0  0  0  0  0  0  0  0  0
   -3.3590   24.2340  -29.8520 S   0  0  0  0  0  0  0  0  0  0  0  0
   -4.1550   25.1800  -30.7080 O   0  0  0  0  0  0  0  0  0  0  0  0
   -4.1730   23.8730  -28.6410 O   0  0  0  0  0  0  0  0  0  0  0  0
   -2.9700   22.7910  -30.7810 C   0  0  0  0  0  0  0  0  0  0  0  0
   -2.2670   21.7440  -30.1720 C   0  0  0  0  0  0  0  0  0  0  0  0
   -1.9750   20.5810  -30.8910 C   0  0  0  0  0  0  0  0  0  0  0  0
   -2.4080   20.4440  -32.2200 C   0  0  0  0  0  0  0  0  0  0  0  0
   -2.1500   19.2500  -32.9770 N   0  0  0  0  0  0  0  0  0  0  0  0
   -3.0170   18.3500  -33.3480 C   0  0  0  0  0  0  0  0  0  0  0  0
   -4.4780   18.4760  -33.1660 C   0  0  0  0  0  0  0  0  0  0  0  0
   -5.1240   19.6050  -32.7130 C   0  0  0  0  0  0  0  0  0  0  0  0
   -6.4550   19.3730  -32.7260 N   0  0  0  0  0  0  0  0  0  0  0  0
   -7.5030   20.2870  -32.3440 C   0  0  0  0  0  0  0  0  0  0  0  0
   -8.8450   19.9790  -32.6390 C   0  0  0  0  0  0  0  0  0  0  0  0
   -9.8710   20.8580  -32.2790 C   0  0  0  0  0  0  0  0  0  0  0  0
   -9.5720   22.0550  -31.6260 C   0  0  0  0  0  0  0  0  0  0  0  0
   -8.2450   22.3770  -31.3340 C   0  0  0  0  0  0  0  0  0  0  0  0
   -7.2140   21.5020  -31.6910 C   0  0  0  0  0  0  0  0  0  0  0  0
   -6.6820   18.1360  -33.1440 N   0  0  0  0  0  0  0  0  0  0  0  0
   -5.4940   17.5560  -33.4090 C   0  0  0  0  0  0  0  0  0  0  0  0
   -5.3670   16.1510  -33.8430 C   0  0  0  0  0  0  0  0  0  0  0  0
   -6.4830   15.2970  -33.8740 C   0  0  0  0  0  0  0  0  0  0  0  0
   -6.3380   13.9620  -34.2620 C   0  0  0  0  0  0  0  0  0  0  0  0
   -5.0840   13.4680  -34.6350 C   0  0  0  0  0  0  0  0  0  0  0  0
   -4.9540   12.1340  -35.0100 O   0  0  0  0  0  0  0  0  0  0  0  0
   -3.9730   14.3200  -34.6280 C   0  0  0  0  0  0  0  0  0  0  0  0
   -4.1140   15.6560  -34.2410 C   0  0  0  0  0  0  0  0  0  0  0  0
   -3.0670   21.5120  -32.8410 C   0  0  0  0  0  0  0  0  0  0  0  0
   -3.3620   22.6740  -32.1220 C   0  0  0  0  0  0  0  0  0  0  0  0
   -1.6340   25.6790  -30.0950 H   0  0  0  0  0  0  0  0  0  0  0  0
   -1.9436   21.8369  -29.1247 H   0  0  0  0  0  0  0  0  0  0  0  0
   -1.4042   19.7706  -30.4142 H   0  0  0  0  0  0  0  0  0  0  0  0
   -2.6359   17.4366  -33.8281 H   0  0  0  0  0  0  0  0  0  0  0  0
   -4.6379   20.5388  -32.3941 H   0  0  0  0  0  0  0  0  0  0  0  0
   -9.0881   19.0394  -33.1568 H   0  0  0  0  0  0  0  0  0  0  0  0
  -10.9163   20.6057  -32.5109 H   0  0  0  0  0  0  0  0  0  0  0  0
  -10.3810   22.7440  -31.3417 H   0  0  0  0  0  0  0  0  0  0  0  0
   -8.0099   23.3216  -30.8217 H   0  0  0  0  0  0  0  0  0  0  0  0
   -6.1708   21.7638  -31.4606 H   0  0  0  0  0  0  0  0  0  0  0  0
   -7.4745   15.6808  -33.5918 H   0  0  0  0  0  0  0  0  0  0  0  0
   -7.2142   13.2970  -34.2740 H   0  0  0  0  0  0  0  0  0  0  0  0
   -4.6500   11.8720  -35.9400 H   0  0  0  0  0  0  0  0  0  0  0  0
   -2.9864   13.9371  -34.9279 H   0  0  0  0  0  0  0  0  0  0  0  0
   -3.2393   16.3230  -34.2482 H   0  0  0  0  0  0  0  0  0  0  0  0
   -3.3541   21.4363  -33.9002 H   0  0  0  0  0  0  0  0  0  0  0  0
   -3.9029   23.4985  -32.6095 H   0  0  0  0  0  0  0  0  0  0  0  0
  1  2  1  0
  2  3  2  0
  2  4  2  0
  2  5  1  0
  5  6  2  0
  6  7  1  0
  7  8  2  0
  8  9  1  0
  9 10  2  3
 10 11  1  0
 11 12  2  0
 12 13  1  0
 13 14  1  0
 14 15  2  0
 15 16  1  0
 16 17  2  0
 17 18  1  0
 18 19  2  0
 13 20  1  0
 20 21  2  0
 21 22  1  0
 22 23  2  0
 23 24  1  0
 24 25  2  0
 25 26  1  0
 25 27  1  0
 27 28  2  0
  8 29  1  0
 29 30  2  0
 30  5  1  0
 21 11  1  0
 28 22  1  0
 19 14  1  0
  1 31  1  0
  6 32  1  0
  7 33  1  0
 10 34  1  0
 12 35  1  0
 15 36  1  0
 16 37  1  0
 17 38  1  0
 18 39  1  0
 19 40  1  0
 23 41  1  0
 24 42  1  0
 26 43  1  0
 27 44  1  0
 28 45  1  0
 29 46  1  0
 30 47  1  0
M  CHG  1   1  -1
M  END
>  <UniqueID>  (44) 
43

>  <SMILES>  (44) 
[NH-]S(=O)(=O)c1ccc(N=Cc2cn(-c3ccccc3)nc2-c2ccc(O)cc2)cc1

>  <Energy>  (44) 
95.08946133220927

>  <Genealogy>  (44) 
[NH-]S(=O)(=O)c1ccc(N=Cc2cn(-c3ccccc3)nc2-c2ccc(O)cc2)cc1 (protonated)
[NH-]S(=O)(=O)c1ccc(N=Cc2cn(-c3ccccc3)nc2-c2ccc(O)cc2)cc1 (3D coordinates assigned)
[NH-]S(=O)(=O)c1ccc(N=Cc2cn(-c3ccccc3)nc2-c2ccc(O)cc2)cc1 (optimized conformer: 95.08946133220927 kcal/mol)

>  <smiles>  (44) 
NS(=O)(=O)c1ccc(N=Cc2cn(-c3ccccc3)nc2-c2ccc(O)cc2)cc1

>  <score_type>  (44) 
oracle

>  <origin>  (44) 
adgpu

>  <m_score__min__energy>  (44) 
-11.18

>  <m_primary>  (44) 
energy

$$$$
44:0
     RDKit          3D

 44 46  0  0  0  0  0  0  0  0999 V2000
   -8.2979   21.7585  -29.2065 H   0  0  0  0  0  0  0  0  0  0  0  0
   -7.7550   22.2960  -29.9980 C   0  0  0  0  0  0  0  0  0  0  0  0
   -6.4830   22.8130  -29.7370 C   0  0  0  0  0  0  0  0  0  0  0  0
   -6.0255   22.6697  -28.7470 H   0  0  0  0  0  0  0  0  0  0  0  0
   -5.7890   23.5130  -30.7320 C   0  0  0  0  0  0  0  0  0  0  0  0
   -4.1770   24.1500  -30.4090 S   0  0  0  0  0  0  0  0  0  0  0  0
   -3.1820   23.3990  -31.2510 O   0  0  0  0  0  0  0  0  0  0  0  0
   -4.1330   25.5920  -30.8320 O   0  0  0  0  0  0  0  0  0  0  0  0
   -3.7090   24.0320  -28.7260 N   0  0  0  0  0  0  0  0  0  0  0  0
   -3.8770   22.6780  -28.1610 C   0  0  0  0  0  0  0  0  0  0  0  0
   -4.1320   22.7702  -27.0950 H   0  0  0  0  0  0  0  0  0  0  0  0
   -4.6761   22.1773  -28.7274 H   0  0  0  0  0  0  0  0  0  0  0  0
   -2.6090   21.8230  -28.2910 C   0  0  0  0  0  0  0  0  0  0  0  0
   -2.7515   20.8811  -27.7411 H   0  0  0  0  0  0  0  0  0  0  0  0
   -2.4283   21.6212  -29.3571 H   0  0  0  0  0  0  0  0  0  0  0  0
   -1.4900   22.5010  -27.7640 O   0  0  0  0  0  0  0  0  0  0  0  0
   -1.2400   23.6500  -28.5440 C   0  0  0  0  0  0  0  0  0  0  0  0
   -0.3159   24.1312  -28.1912 H   0  0  0  0  0  0  0  0  0  0  0  0
   -1.1360   23.3460  -29.5960 H   0  0  0  0  0  0  0  0  0  0  0  0
   -2.4000   24.6470  -28.4330 C   0  0  0  0  0  0  0  0  0  0  0  0
   -2.4214   25.0496  -27.4095 H   0  0  0  0  0  0  0  0  0  0  0  0
   -2.2304   25.4385  -29.1778 H   0  0  0  0  0  0  0  0  0  0  0  0
   -6.3680   23.6660  -31.9990 C   0  0  0  0  0  0  0  0  0  0  0  0
   -5.8189   24.1954  -32.7916 H   0  0  0  0  0  0  0  0  0  0  0  0
   -7.6400   23.1490  -32.2600 C   0  0  0  0  0  0  0  0  0  0  0  0
   -8.0929   23.2842  -33.2533 H   0  0  0  0  0  0  0  0  0  0  0  0
   -8.3440   22.4560  -31.2570 C   0  0  0  0  0  0  0  0  0  0  0  0
   -9.6230   21.9150  -31.4650 O   0  0  0  0  0  0  0  0  0  0  0  0
   -9.9270   20.8220  -32.3330 C   0  0  0  0  0  0  0  0  0  0  0  0
   -9.8254   21.1538  -33.3768 H   0  0  0  0  0  0  0  0  0  0  0  0
  -10.9562   20.4915  -32.1294 H   0  0  0  0  0  0  0  0  0  0  0  0
   -8.9980   19.6620  -32.0940 C   0  0  0  0  0  0  0  0  0  0  0  0
   -9.0590   19.0620  -30.9890 O   0  0  0  0  0  0  0  0  0  0  0  0
   -8.0930   19.1660  -33.0950 N   0  0  0  0  0  0  0  0  0  0  0  0
   -6.8230   19.4200  -33.2340 C   0  0  0  0  0  0  0  0  0  0  0  0
   -5.8430   20.3080  -32.1810 S   0  0  0  0  0  0  0  0  0  0  0  0
   -4.4940   20.0200  -33.1510 C   0  0  0  0  0  0  0  0  0  0  0  0
   -3.1070   20.4620  -32.8330 C   0  0  0  0  0  0  0  0  0  0  0  0
   -2.9766   20.5036  -31.7416 H   0  0  0  0  0  0  0  0  0  0  0  0
   -2.3875   19.7486  -33.2613 H   0  0  0  0  0  0  0  0  0  0  0  0
   -2.9330   21.4601  -33.2613 H   0  0  0  0  0  0  0  0  0  0  0  0
   -4.8050   19.2420  -34.2120 N   0  0  0  0  0  0  0  0  0  0  0  0
   -6.0970   18.9160  -34.2560 N   0  0  0  0  0  0  0  0  0  0  0  0
   -6.4940   18.3180  -35.0130 H   0  0  0  0  0  0  0  0  0  0  0  0
  1  2  1  0
  2  3  2  0
  3  4  1  0
  3  5  1  0
  5  6  1  0
  6  7  2  0
  6  8  2  0
  6  9  1  0
  9 10  1  0
 10 11  1  0
 10 12  1  0
 10 13  1  0
 13 14  1  0
 13 15  1  0
 13 16  1  0
 16 17  1  0
 17 18  1  0
 17 19  1  0
 17 20  1  0
 20 21  1  0
 20 22  1  0
  5 23  2  0
 23 24  1  0
 23 25  1  0
 25 26  1  0
 25 27  2  0
 27 28  1  0
 28 29  1  0
 29 30  1  0
 29 31  1  0
 29 32  1  0
 32 33  2  0
 32 34  1  0
 34 35  2  0
 35 36  1  0
 36 37  1  0
 37 38  1  0
 38 39  1  0
 38 40  1  0
 38 41  1  0
 37 42  2  0
 42 43  1  0
 43 44  1  0
 27  2  1  0
 43 35  1  0
 20  9  1  0
M  END
>  <UniqueID>  (45) 
44

>  <SMILES>  (45) 
Cc1n[nH]/c(=N/C(=O)COc2ccc(S(=O)(=O)N3CCOCC3)cc2)s1

>  <Energy>  (45) 
88.2853902529991

>  <Genealogy>  (45) 
Cc1n[nH]/c(=N/C(=O)COc2ccc(S(=O)(=O)N3CCOCC3)cc2)s1 (cis-trans isomerization)
Cc1n[nH]/c(=N/C(=O)COc2ccc(S(=O)(=O)N3CCOCC3)cc2)s1 (3D coordinates assigned)
Cc1n[nH]/c(=N/C(=O)COc2ccc(S(=O)(=O)N3CCOCC3)cc2)s1 (nonaromatic ring conformer: 88.2853902529991 kcal/mol)

>  <smiles>  (45) 
Cc1n[nH]c(=NC(=O)COc2ccc(S(=O)(=O)N3CCOCC3)cc2)s1

>  <score_type>  (45) 
oracle

>  <origin>  (45) 
adgpu

>  <m_score__min__energy>  (45) 
-9.0899999999999999

>  <m_primary>  (45) 
energy

$$$$
45:0
     RDKit          3D

 52 55  0  0  0  0  0  0  0  0999 V2000
    0.2660   17.4840  -27.5230 C   0  0  0  0  0  0  0  0  0  0  0  0
   -0.9700   18.0600  -27.1120 O   0  0  0  0  0  0  0  0  0  0  0  0
   -1.4660   19.2860  -27.5810 C   0  0  0  0  0  0  0  0  0  0  0  0
   -0.7720   19.9360  -28.6060 C   0  0  0  0  0  0  0  0  0  0  0  0
   -1.2260   21.1580  -29.1090 C   0  0  0  0  0  0  0  0  0  0  0  0
   -2.3840   21.7560  -28.5860 C   0  0  0  0  0  0  0  0  0  0  0  0
   -2.8770   23.0340  -29.1450 C   0  0  0  0  0  0  0  0  0  0  0  0
   -2.2690   24.2970  -29.1620 C   0  0  0  0  0  0  0  0  0  0  0  0
   -0.9050   24.6430  -28.6550 C   0  0  0  0  0  0  0  0  0  0  0  0
   -3.1080   25.2170  -29.6990 N   0  0  0  0  0  0  0  0  0  0  0  0
   -4.2130   24.5710  -30.0300 N   0  0  0  0  0  0  0  0  0  0  0  0
   -5.3470   25.0950  -30.5610 C   0  0  0  0  0  0  0  0  0  0  0  0
   -5.4250   26.3210  -30.8370 O   0  0  0  0  0  0  0  0  0  0  0  0
   -6.4320   24.2340  -30.7840 C   0  0  0  0  0  0  0  0  0  0  0  0
   -6.3010   22.8660  -30.4430 C   0  0  0  0  0  0  0  0  0  0  0  0
   -7.4580   21.9100  -30.6310 C   0  0  0  0  0  0  0  0  0  0  0  0
   -7.5120   21.2780  -31.9760 N   0  0  0  0  0  0  0  0  0  0  0  0
   -8.7260   20.4420  -32.1920 C   0  0  0  0  0  0  0  0  0  0  0  0
   -8.4260   18.9380  -32.0750 C   0  0  0  0  0  0  0  0  0  0  0  0
   -7.4110   18.4990  -33.0620 N   0  0  0  0  0  0  0  0  0  0  0  0
   -6.7170   17.2930  -32.5800 C   0  0  0  0  0  0  0  0  0  0  0  0
   -6.4460   19.5600  -33.4420 C   0  0  0  0  0  0  0  0  0  0  0  0
   -6.2420   20.5850  -32.3180 C   0  0  0  0  0  0  0  0  0  0  0  0
   -5.1250   22.4080  -29.9200 N   0  0  0  0  0  0  0  0  0  0  0  0
   -4.1020   23.2750  -29.7250 C   0  0  0  0  0  0  0  0  0  0  0  0
   -3.0870   21.1020  -27.5620 C   0  0  0  0  0  0  0  0  0  0  0  0
   -2.6310   19.8780  -27.0600 C   0  0  0  0  0  0  0  0  0  0  0  0
    0.8555   17.2093  -26.6358 H   0  0  0  0  0  0  0  0  0  0  0  0
    0.0692   16.5848  -28.1253 H   0  0  0  0  0  0  0  0  0  0  0  0
    0.8280   18.2130  -28.1253 H   0  0  0  0  0  0  0  0  0  0  0  0
    0.1399   19.4812  -29.0203 H   0  0  0  0  0  0  0  0  0  0  0  0
   -0.6729   21.6547  -29.9197 H   0  0  0  0  0  0  0  0  0  0  0  0
   -0.9114   24.6414  -27.5550 H   0  0  0  0  0  0  0  0  0  0  0  0
   -0.1794   23.9005  -29.0186 H   0  0  0  0  0  0  0  0  0  0  0  0
   -0.6211   25.6416  -29.0186 H   0  0  0  0  0  0  0  0  0  0  0  0
   -7.3688   24.6153  -31.2165 H   0  0  0  0  0  0  0  0  0  0  0  0
   -7.3729   21.1127  -29.8780 H   0  0  0  0  0  0  0  0  0  0  0  0
   -8.3789   22.5017  -30.5217 H   0  0  0  0  0  0  0  0  0  0  0  0
   -7.5890   22.0760  -32.6530 H   0  0  0  0  0  0  0  0  0  0  0  0
   -9.4804   20.7121  -31.4384 H   0  0  0  0  0  0  0  0  0  0  0  0
   -9.0907   20.6346  -33.2117 H   0  0  0  0  0  0  0  0  0  0  0  0
   -8.0517   18.7277  -31.0623 H   0  0  0  0  0  0  0  0  0  0  0  0
   -9.3572   18.3878  -32.2755 H   0  0  0  0  0  0  0  0  0  0  0  0
   -6.7135   17.2869  -31.4800 H   0  0  0  0  0  0  0  0  0  0  0  0
   -7.2380   16.3976  -32.9500 H   0  0  0  0  0  0  0  0  0  0  0  0
   -5.6811   17.2936  -32.9500 H   0  0  0  0  0  0  0  0  0  0  0  0
   -5.4782   19.0921  -33.6752 H   0  0  0  0  0  0  0  0  0  0  0  0
   -6.8533   20.0913  -34.3148 H   0  0  0  0  0  0  0  0  0  0  0  0
   -5.8663   20.0654  -31.4242 H   0  0  0  0  0  0  0  0  0  0  0  0
   -5.5199   21.3388  -32.6650 H   0  0  0  0  0  0  0  0  0  0  0  0
   -4.0019   21.5544  -27.1517 H   0  0  0  0  0  0  0  0  0  0  0  0
   -3.1863   19.3762  -26.2539 H   0  0  0  0  0  0  0  0  0  0  0  0
  1  2  1  0
  2  3  1  0
  3  4  2  0
  4  5  1  0
  5  6  2  0
  6  7  1  0
  7  8  2  0
  8  9  1  0
  8 10  1  0
 10 11  1  0
 11 12  1  0
 12 13  2  0
 12 14  1  0
 14 15  2  0
 15 16  1  0
 16 17  1  0
 17 18  1  0
 18 19  1  0
 19 20  1  0
 20 21  1  0
 20 22  1  0
 22 23  1  0
 15 24  1  0
 24 25  2  0
  6 26  1  0
 26 27  2  0
 27  3  1  0
 25  7  1  0
 25 11  1  0
 23 17  1  0
  1 28  1  0
  1 29  1  0
  1 30  1  0
  4 31  1  0
  5 32  1  0
  9 33  1  0
  9 34  1  0
  9 35  1  0
 14 36  1  0
 16 37  1  0
 16 38  1  0
 17 39  1  0
 18 40  1  0
 18 41  1  0
 19 42  1  0
 19 43  1  0
 21 44  1  0
 21 45  1  0
 21 46  1  0
 22 47  1  0
 22 48  1  0
 23 49  1  0
 23 50  1  0
 26 51  1  0
 27 52  1  0
M  CHG  2  10  -1  17   1
M  END
>  <UniqueID>  (46) 
45

>  <SMILES>  (46) 
COc1ccc(-c2c(C)[n-]n3c(=O)cc(C[NH+]4CCN(C)CC4)nc23)cc1

>  <Energy>  (46) 
109.19196856762461

>  <Genealogy>  (46) 
COc1ccc(-c2c(C)[n-]n3c(=O)cc(C[NH+]4CCN(C)CC4)nc23)cc1 (protonated)
COc1ccc(-c2c(C)[n-]n3c(=O)cc(C[NH+]4CCN(C)CC4)nc23)cc1 (3D coordinates assigned)
COc1ccc(-c2c(C)[n-]n3c(=O)cc(C[NH+]4CCN(C)CC4)nc23)cc1 (nonaromatic ring conformer: 109.19196856762461 kcal/mol)

>  <smiles>  (46) 
COc1ccc(-c2c(C)[nH]n3c(=O)cc(CN4CCN(C)CC4)nc23)cc1

>  <score_type>  (46) 
oracle

>  <origin>  (46) 
adgpu

>  <m_score__min__energy>  (46) 
-9.6799999999999997

>  <m_primary>  (46) 
energy

$$$$
46:0
     RDKit          3D

 46 48  0  0  0  0  0  0  0  0999 V2000
   -9.0380   21.3360  -31.5560 C   0  0  0  0  0  0  0  0  0  0  0  0
   -8.5900   19.9360  -31.8290 C   0  0  0  0  0  0  0  0  0  0  0  0
   -9.1420   18.8470  -31.2610 N   0  0  0  0  0  0  0  0  0  0  0  0
   -8.5450   17.8080  -31.7710 O   0  0  0  0  0  0  0  0  0  0  0  0
   -7.6380   18.1640  -32.6510 C   0  0  0  0  0  0  0  0  0  0  0  0
   -6.7860   17.2070  -33.4180 C   0  0  0  0  0  0  0  0  0  0  0  0
   -7.6280   19.5410  -32.7390 C   0  0  0  0  0  0  0  0  0  0  0  0
   -6.7720   20.4130  -33.6120 C   0  0  0  0  0  0  0  0  0  0  0  0
   -5.4110   20.3560  -33.1900 O   0  0  0  0  0  0  0  0  0  0  0  0
   -5.0190   20.4050  -31.8470 C   0  0  0  0  0  0  0  0  0  0  0  0
   -5.0930   19.3690  -31.1290 O   0  0  0  0  0  0  0  0  0  0  0  0
   -4.5090   21.6700  -31.2770 C   0  0  0  0  0  0  0  0  0  0  0  0
   -5.1640   22.8830  -31.5480 C   0  0  0  0  0  0  0  0  0  0  0  0
   -4.6790   24.0810  -31.0200 C   0  0  0  0  0  0  0  0  0  0  0  0
   -3.5360   24.0880  -30.2170 C   0  0  0  0  0  0  0  0  0  0  0  0
   -3.0730   25.2980  -29.7120 O   0  0  0  0  0  0  0  0  0  0  0  0
   -2.8670   22.8830  -29.9350 C   0  0  0  0  0  0  0  0  0  0  0  0
   -1.4080   22.8550  -28.9310 S   0  0  0  0  0  0  0  0  0  0  0  0
   -0.1900   22.9100  -29.8100 O   0  0  0  0  0  0  0  0  0  0  0  0
   -1.3930   24.0760  -28.0530 O   0  0  0  0  0  0  0  0  0  0  0  0
   -1.3330   21.4280  -27.9280 N   0  0  0  0  0  0  0  0  0  0  0  0
   -0.7000   20.3180  -28.6530 C   0  0  0  0  0  0  0  0  0  0  0  0
   -0.6260   19.0710  -27.7460 C   0  0  0  0  0  0  0  0  0  0  0  0
   -1.3180   19.2550  -26.5230 O   0  0  0  0  0  0  0  0  0  0  0  0
   -2.6470   19.6640  -26.7800 C   0  0  0  0  0  0  0  0  0  0  0  0
   -2.6820   21.0390  -27.4810 C   0  0  0  0  0  0  0  0  0  0  0  0
   -3.3610   21.6820  -30.4660 C   0  0  0  0  0  0  0  0  0  0  0  0
   -9.0902   21.4990  -30.4694 H   0  0  0  0  0  0  0  0  0  0  0  0
   -8.3213   22.0433  -31.9989 H   0  0  0  0  0  0  0  0  0  0  0  0
  -10.0321   21.4958  -31.9989 H   0  0  0  0  0  0  0  0  0  0  0  0
   -6.2226   16.5742  -32.7165 H   0  0  0  0  0  0  0  0  0  0  0  0
   -7.4247   16.5737  -34.0512 H   0  0  0  0  0  0  0  0  0  0  0  0
   -6.0831   17.7682  -34.0512 H   0  0  0  0  0  0  0  0  0  0  0  0
   -6.8435   20.0650  -34.6531 H   0  0  0  0  0  0  0  0  0  0  0  0
   -7.1260   21.4516  -33.5353 H   0  0  0  0  0  0  0  0  0  0  0  0
   -6.0643   22.8889  -32.1800 H   0  0  0  0  0  0  0  0  0  0  0  0
   -5.2001   25.0250  -31.2376 H   0  0  0  0  0  0  0  0  0  0  0  0
   -1.2931   20.0824  -29.5489 H   0  0  0  0  0  0  0  0  0  0  0  0
    0.3183   20.6122  -28.9473 H   0  0  0  0  0  0  0  0  0  0  0  0
   -1.0710   18.2182  -28.2797 H   0  0  0  0  0  0  0  0  0  0  0  0
    0.4327   18.8883  -27.5100 H   0  0  0  0  0  0  0  0  0  0  0  0
   -3.1330   18.9189  -27.4270 H   0  0  0  0  0  0  0  0  0  0  0  0
   -3.1773   19.7487  -25.8200 H   0  0  0  0  0  0  0  0  0  0  0  0
   -3.3497   20.9831  -28.3534 H   0  0  0  0  0  0  0  0  0  0  0  0
   -3.0498   21.7913  -26.7677 H   0  0  0  0  0  0  0  0  0  0  0  0
   -2.8430   20.7372  -30.2447 H   0  0  0  0  0  0  0  0  0  0  0  0
  1  2  1  0
  2  3  2  0
  3  4  1  0
  4  5  1  0
  5  6  1  0
  5  7  2  0
  7  8  1  0
  8  9  1  0
  9 10  1  0
 10 11  2  0
 10 12  1  0
 12 13  2  0
 13 14  1  0
 14 15  2  0
 15 16  1  0
 15 17  1  0
 17 18  1  0
 18 19  2  0
 18 20  2  0
 18 21  1  0
 21 22  1  0
 22 23  1  0
 23 24  1  0
 24 25  1  0
 25 26  1  0
 17 27  2  0
  7  2  1  0
 27 12  1  0
 26 21  1  0
  1 28  1  0
  1 29  1  0
  1 30  1  0
  6 31  1  0
  6 32  1  0
  6 33  1  0
  8 34  1  0
  8 35  1  0
 13 36  1  0
 14 37  1  0
 22 38  1  0
 22 39  1  0
 23 40  1  0
 23 41  1  0
 25 42  1  0
 25 43  1  0
 26 44  1  0
 26 45  1  0
 27 46  1  0
M  CHG  1  16  -1
M  END
>  <UniqueID>  (47) 
46

>  <SMILES>  (47) 
Cc1noc(C)c1COC(=O)c1ccc([O-])c(S(=O)(=O)N2CCOCC2)c1

>  <Energy>  (47) 
81.28322182567204

>  <Genealogy>  (47) 
Cc1noc(C)c1COC(=O)c1ccc([O-])c(S(=O)(=O)N2CCOCC2)c1 (protonated)
Cc1noc(C)c1COC(=O)c1ccc([O-])c(S(=O)(=O)N2CCOCC2)c1 (3D coordinates assigned)
Cc1noc(C)c1COC(=O)c1ccc([O-])c(S(=O)(=O)N2CCOCC2)c1 (nonaromatic ring conformer: 81.28322182567204 kcal/mol)

>  <smiles>  (47) 
Cc1noc(C)c1COC(=O)c1ccc(O)c(S(=O)(=O)N2CCOCC2)c1

>  <score_type>  (47) 
oracle

>  <origin>  (47) 
adgpu

>  <m_score__min__energy>  (47) 
-11.85

>  <m_primary>  (47) 
energy

$$$$
47:0
     RDKit          3D

 67 70  0  0  0  0  0  0  0  0999 V2000
   -1.9900   19.6830  -26.2130 C   0  0  0  0  0  0  0  0  0  0  0  0
   -1.8070   19.8680  -27.7240 C   0  0  0  0  0  0  0  0  0  0  0  0
   -0.4380   19.3540  -28.1800 C   0  0  0  0  0  0  0  0  0  0  0  0
   -2.0090   21.3170  -28.1280 C   0  0  0  0  0  0  0  0  0  0  0  0
   -0.8960   22.1290  -28.4100 C   0  0  0  0  0  0  0  0  0  0  0  0
   -1.0690   23.4550  -28.8150 C   0  0  0  0  0  0  0  0  0  0  0  0
   -2.3540   23.9910  -28.9340 C   0  0  0  0  0  0  0  0  0  0  0  0
   -2.5110   25.3110  -29.3440 O   0  0  0  0  0  0  0  0  0  0  0  0
   -3.4750   23.2060  -28.6290 C   0  0  0  0  0  0  0  0  0  0  0  0
   -4.7830   23.7680  -28.7630 N   0  0  0  0  0  0  0  0  0  0  0  0
   -5.3860   24.4010  -30.2590 S   0  0  0  0  0  0  0  0  0  0  0  0
   -4.2370   24.5760  -31.2140 O   0  0  0  0  0  0  0  0  0  0  0  0
   -6.0000   25.7510  -30.0080 O   0  0  0  0  0  0  0  0  0  0  0  0
   -6.5690   23.3200  -30.9870 C   0  0  0  0  0  0  0  0  0  0  0  0
   -7.8390   23.8010  -31.3270 C   0  0  0  0  0  0  0  0  0  0  0  0
   -8.7770   22.9510  -31.9140 C   0  0  0  0  0  0  0  0  0  0  0  0
   -8.4510   21.6180  -32.1730 C   0  0  0  0  0  0  0  0  0  0  0  0
   -7.1740   21.1200  -31.8530 C   0  0  0  0  0  0  0  0  0  0  0  0
   -6.8260   19.7100  -32.1510 C   0  0  0  0  0  0  0  0  0  0  0  0
   -6.6790   18.8930  -31.2010 O   0  0  0  0  0  0  0  0  0  0  0  0
   -6.7170   19.2510  -33.5090 N   0  0  0  0  0  0  0  0  0  0  0  0
   -6.1080   18.0060  -33.8860 C   0  0  0  0  0  0  0  0  0  0  0  0
   -6.7470   16.7750  -33.6500 C   0  0  0  0  0  0  0  0  0  0  0  0
   -6.1160   15.5750  -33.9930 C   0  0  0  0  0  0  0  0  0  0  0  0
   -4.8390   15.5870  -34.5690 C   0  0  0  0  0  0  0  0  0  0  0  0
   -4.0430   14.0740  -35.0100 S   0  0  0  0  0  0  0  0  0  0  0  0
   -3.1080   14.3230  -36.1630 O   0  0  0  0  0  0  0  0  0  0  0  0
   -5.0820   13.0840  -35.4600 O   0  0  0  0  0  0  0  0  0  0  0  0
   -3.1550   13.3980  -33.6660 N   0  0  0  0  0  0  0  0  0  0  0  0
   -3.8250   13.7210  -32.3950 C   0  0  0  0  0  0  0  0  0  0  0  0
   -3.1890   12.9310  -31.2360 C   0  0  0  0  0  0  0  0  0  0  0  0
   -1.7530   12.4790  -31.5510 C   0  0  0  0  0  0  0  0  0  0  0  0
   -1.0070   13.5360  -32.3700 C   0  0  0  0  0  0  0  0  0  0  0  0
   -1.7620   13.8960  -33.6710 C   0  0  0  0  0  0  0  0  0  0  0  0
   -4.1960   16.8120  -34.7960 C   0  0  0  0  0  0  0  0  0  0  0  0
   -4.8220   18.0100  -34.4450 C   0  0  0  0  0  0  0  0  0  0  0  0
   -6.2400   21.9820  -31.2470 C   0  0  0  0  0  0  0  0  0  0  0  0
   -3.3010   21.8690  -28.2380 C   0  0  0  0  0  0  0  0  0  0  0  0
   -1.3150   20.3654  -25.6756 H   0  0  0  0  0  0  0  0  0  0  0  0
   -3.0317   19.9071  -25.9397 H   0  0  0  0  0  0  0  0  0  0  0  0
   -1.7546   18.6438  -25.9397 H   0  0  0  0  0  0  0  0  0  0  0  0
   -2.5778   19.2688  -28.2308 H   0  0  0  0  0  0  0  0  0  0  0  0
    0.1787   19.1224  -27.2991 H   0  0  0  0  0  0  0  0  0  0  0  0
   -0.5705   18.4444  -28.7842 H   0  0  0  0  0  0  0  0  0  0  0  0
    0.0609   20.1261  -28.7842 H   0  0  0  0  0  0  0  0  0  0  0  0
    0.1191   21.7169  -28.3109 H   0  0  0  0  0  0  0  0  0  0  0  0
   -0.1914   24.0786  -29.0408 H   0  0  0  0  0  0  0  0  0  0  0  0
   -8.0981   24.8519  -31.1309 H   0  0  0  0  0  0  0  0  0  0  0  0
   -9.7758   23.3319  -32.1734 H   0  0  0  0  0  0  0  0  0  0  0  0
   -9.1977   20.9523  -32.6305 H   0  0  0  0  0  0  0  0  0  0  0  0
   -7.2190   19.7860  -34.2510 H   0  0  0  0  0  0  0  0  0  0  0  0
   -7.7476   16.7563  -33.1935 H   0  0  0  0  0  0  0  0  0  0  0  0
   -6.6248   14.6171  -33.8096 H   0  0  0  0  0  0  0  0  0  0  0  0
   -3.7256   14.7984  -32.1966 H   0  0  0  0  0  0  0  0  0  0  0  0
   -4.8875   13.4470  -32.4724 H   0  0  0  0  0  0  0  0  0  0  0  0
   -3.1694   13.5709  -30.3415 H   0  0  0  0  0  0  0  0  0  0  0  0
   -3.7960   12.0282  -31.0735 H   0  0  0  0  0  0  0  0  0  0  0  0
   -1.2145   12.3108  -30.6067 H   0  0  0  0  0  0  0  0  0  0  0  0
   -1.8011   11.5515  -32.1405 H   0  0  0  0  0  0  0  0  0  0  0  0
   -0.8955   14.4448  -31.7604 H   0  0  0  0  0  0  0  0  0  0  0  0
   -0.0264   13.1224  -32.6481 H   0  0  0  0  0  0  0  0  0  0  0  0
   -1.7777   14.9905  -33.7800 H   0  0  0  0  0  0  0  0  0  0  0  0
   -1.2357   13.4171  -34.5098 H   0  0  0  0  0  0  0  0  0  0  0  0
   -3.1952   16.8296  -35.2521 H   0  0  0  0  0  0  0  0  0  0  0  0
   -4.3016   18.9653  -34.6085 H   0  0  0  0  0  0  0  0  0  0  0  0
   -5.2439   21.6026  -30.9753 H   0  0  0  0  0  0  0  0  0  0  0  0
   -4.1806   21.2470  -28.0156 H   0  0  0  0  0  0  0  0  0  0  0  0
  1  2  1  0
  2  3  1  0
  2  4  1  0
  4  5  2  0
  5  6  1  0
  6  7  2  0
  7  8  1  0
  7  9  1  0
  9 10  1  0
 10 11  1  0
 11 12  2  0
 11 13  2  0
 11 14  1  0
 14 15  2  0
 15 16  1  0
 16 17  2  0
 17 18  1  0
 18 19  1  0
 19 20  2  0
 19 21  1  0
 21 22  1  0
 22 23  2  0
 23 24  1  0
 24 25  2  0
 25 26  1  0
 26 27  2  0
 26 28  2  0
 26 29  1  0
 29 30  1  0
 30 31  1  0
 31 32  1  0
 32 33  1  0
 33 34  1  0
 25 35  1  0
 35 36  2  0
 18 37  2  0
  9 38  2  0
 38  4  1  0
 37 14  1  0
 36 22  1  0
 34 29  1  0
  1 39  1  0
  1 40  1  0
  1 41  1  0
  2 42  1  0
  3 43  1  0
  3 44  1  0
  3 45  1  0
  5 46  1  0
  6 47  1  0
 15 48  1  0
 16 49  1  0
 17 50  1  0
 21 51  1  0
 23 52  1  0
 24 53  1  0
 30 54  1  0
 30 55  1  0
 31 56  1  0
 31 57  1  0
 32 58  1  0
 32 59  1  0
 33 60  1  0
 33 61  1  0
 34 62  1  0
 34 63  1  0
 35 64  1  0
 36 65  1  0
 37 66  1  0
 38 67  1  0
M  CHG  2   8  -1  10  -1
M  END
>  <UniqueID>  (48) 
47

>  <SMILES>  (48) 
CC(C)c1ccc([O-])c([N-]S(=O)(=O)c2cccc(C(=O)Nc3ccc(S(=O)(=O)N4CCCCC4)cc3)c2)c1

>  <Energy>  (48) 
80.30722504016634

>  <Genealogy>  (48) 
CC(C)c1ccc([O-])c([N-]S(=O)(=O)c2cccc(C(=O)Nc3ccc(S(=O)(=O)N4CCCCC4)cc3)c2)c1 (protonated)
CC(C)c1ccc([O-])c([N-]S(=O)(=O)c2cccc(C(=O)Nc3ccc(S(=O)(=O)N4CCCCC4)cc3)c2)c1 (3D coordinates assigned)
CC(C)c1ccc([O-])c([N-]S(=O)(=O)c2cccc(C(=O)Nc3ccc(S(=O)(=O)N4CCCCC4)cc3)c2)c1 (nonaromatic ring conformer: 80.30722504016634 kcal/mol)

>  <smiles>  (48) 
CC(C)c1ccc(O)c(NS(=O)(=O)c2cccc(C(=O)Nc3ccc(S(=O)(=O)N4CCCCC4)cc3)c2)c1

>  <score_type>  (48) 
oracle

>  <origin>  (48) 
adgpu

>  <m_score__min__energy>  (48) 
-14.57

>  <m_primary>  (48) 
energy

$$$$
48:0
     RDKit          3D

 39 42  0  0  0  0  0  0  0  0999 V2000
   -1.4080   18.6430  -27.4820 O   0  0  0  0  0  0  0  0  0  0  0  0
   -1.1710   19.8520  -27.7410 C   0  0  0  0  0  0  0  0  0  0  0  0
    0.2110   20.4090  -27.5510 C   0  0  0  0  0  0  0  0  0  0  0  0
    0.1570   21.9000  -27.1840 C   0  0  0  0  0  0  0  0  0  0  0  0
   -0.7840   22.6750  -28.0790 C   0  0  0  0  0  0  0  0  0  0  0  0
   -0.5620   24.0340  -28.3360 C   0  0  0  0  0  0  0  0  0  0  0  0
   -1.4820   24.7700  -29.0910 C   0  0  0  0  0  0  0  0  0  0  0  0
   -1.2350   26.1140  -29.3490 O   0  0  0  0  0  0  0  0  0  0  0  0
   -2.6450   24.1610  -29.5830 C   0  0  0  0  0  0  0  0  0  0  0  0
   -3.5640   24.9460  -30.3570 N   0  0  0  0  0  0  0  0  0  0  0  0
   -5.2700   24.6580  -30.4770 S   0  0  0  0  0  0  0  0  0  0  0  0
   -5.9020   25.7640  -31.2750 O   0  0  0  0  0  0  0  0  0  0  0  0
   -5.8700   24.6540  -29.0980 O   0  0  0  0  0  0  0  0  0  0  0  0
   -5.5580   23.1270  -31.2960 C   0  0  0  0  0  0  0  0  0  0  0  0
   -6.7690   22.4420  -31.1330 C   0  0  0  0  0  0  0  0  0  0  0  0
   -6.9760   21.2150  -31.7720 C   0  0  0  0  0  0  0  0  0  0  0  0
   -5.9750   20.6570  -32.5860 C   0  0  0  0  0  0  0  0  0  0  0  0
   -6.1680   19.3560  -33.2670 C   0  0  0  0  0  0  0  0  0  0  0  0
   -7.0280   18.3330  -32.9180 C   0  0  0  0  0  0  0  0  0  0  0  0
   -6.8870   17.3270  -33.8020 N   0  0  0  0  0  0  0  0  0  0  0  0
   -5.9470   17.7810  -34.6570 C   0  0  0  0  0  0  0  0  0  0  0  0
   -5.5180   18.9810  -34.3430 O   0  0  0  0  0  0  0  0  0  0  0  0
   -4.7640   21.3530  -32.7490 C   0  0  0  0  0  0  0  0  0  0  0  0
   -4.5590   22.5790  -32.1090 C   0  0  0  0  0  0  0  0  0  0  0  0
   -2.8810   22.8020  -29.3030 C   0  0  0  0  0  0  0  0  0  0  0  0
   -1.9560   22.0620  -28.5590 C   0  0  0  0  0  0  0  0  0  0  0  0
   -2.1960   20.6750  -28.3000 N   0  0  0  0  0  0  0  0  0  0  0  0
    0.7134   19.8574  -26.7427 H   0  0  0  0  0  0  0  0  0  0  0  0
    0.7661   20.2997  -28.4944 H   0  0  0  0  0  0  0  0  0  0  0  0
   -0.1846   21.9964  -26.1428 H   0  0  0  0  0  0  0  0  0  0  0  0
    1.1667   22.3166  -27.3143 H   0  0  0  0  0  0  0  0  0  0  0  0
    0.3401   24.5251  -27.9423 H   0  0  0  0  0  0  0  0  0  0  0  0
   -7.5601   22.8706  -30.5002 H   0  0  0  0  0  0  0  0  0  0  0  0
   -7.9291   20.6828  -31.6365 H   0  0  0  0  0  0  0  0  0  0  0  0
   -7.7152   18.3391  -32.0591 H   0  0  0  0  0  0  0  0  0  0  0  0
   -5.5806   17.2085  -35.5219 H   0  0  0  0  0  0  0  0  0  0  0  0
   -3.9723   20.9298  -33.3846 H   0  0  0  0  0  0  0  0  0  0  0  0
   -3.6083   23.1154  -32.2450 H   0  0  0  0  0  0  0  0  0  0  0  0
   -3.7981   22.3190  -29.6713 H   0  0  0  0  0  0  0  0  0  0  0  0
  1  2  2  0
  2  3  1  0
  3  4  1  0
  4  5  1  0
  5  6  2  0
  6  7  1  0
  7  8  1  0
  7  9  2  0
  9 10  1  0
 10 11  1  0
 11 12  2  0
 11 13  2  0
 11 14  1  0
 14 15  2  0
 15 16  1  0
 16 17  2  0
 17 18  1  0
 18 19  2  0
 19 20  1  0
 20 21  2  0
 21 22  1  0
 17 23  1  0
 23 24  2  0
  9 25  1  0
 25 26  2  0
 26 27  1  0
 27  2  1  0
 26  5  1  0
 24 14  1  0
 22 18  1  0
  3 28  1  0
  3 29  1  0
  4 30  1  0
  4 31  1  0
  6 32  1  0
 15 33  1  0
 16 34  1  0
 19 35  1  0
 21 36  1  0
 23 37  1  0
 24 38  1  0
 25 39  1  0
M  CHG  3   8  -1  10  -1  27  -1
M  END
>  <UniqueID>  (49) 
48

>  <SMILES>  (49) 
O=C1CCc2cc([O-])c([N-]S(=O)(=O)c3ccc(-c4cnco4)cc3)cc2[N-]1

>  <Energy>  (49) 
77.30387341644358

>  <Genealogy>  (49) 
O=C1CCc2cc([O-])c([N-]S(=O)(=O)c3ccc(-c4cnco4)cc3)cc2[N-]1 (protonated)
O=C1CCc2cc([O-])c([N-]S(=O)(=O)c3ccc(-c4cnco4)cc3)cc2[N-]1 (3D coordinates assigned)
O=C1CCc2cc([O-])c([N-]S(=O)(=O)c3ccc(-c4cnco4)cc3)cc2[N-]1 (nonaromatic ring conformer: 77.30387341644358 kcal/mol)

>  <smiles>  (49) 
O=C1CCc2cc(O)c(NS(=O)(=O)c3ccc(-c4cnco4)cc3)cc2N1

>  <score_type>  (49) 
oracle

>  <origin>  (49) 
adgpu

>  <m_score__min__energy>  (49) 
-13.49

>  <m_primary>  (49) 
energy

$$$$
49:0
     RDKit          3D

 52 55  0  0  0  0  0  0  0  0999 V2000
   -7.5730   17.2540  -32.8640 C   0  0  0  0  0  0  0  0  0  0  0  0
   -7.5050   18.7310  -32.5760 C   0  0  0  0  0  0  0  0  0  0  0  0
   -8.6820   19.3980  -32.1970 C   0  0  0  0  0  0  0  0  0  0  0  0
   -8.6750   20.7710  -31.9460 C   0  0  0  0  0  0  0  0  0  0  0  0
   -7.4930   21.5040  -32.0840 C   0  0  0  0  0  0  0  0  0  0  0  0
   -7.4660   23.2330  -31.7450 S   0  0  0  0  0  0  0  0  0  0  0  0
   -6.5380   23.8920  -32.7280 O   0  0  0  0  0  0  0  0  0  0  0  0
   -8.8420   23.8110  -31.9350 O   0  0  0  0  0  0  0  0  0  0  0  0
   -6.8900   23.5320  -30.1180 N   0  0  0  0  0  0  0  0  0  0  0  0
   -6.8160   24.9730  -29.8150 C   0  0  0  0  0  0  0  0  0  0  0  0
   -5.6270   25.6610  -30.5280 C   0  0  0  0  0  0  0  0  0  0  0  0
   -4.6300   24.7570  -30.9710 O   0  0  0  0  0  0  0  0  0  0  0  0
   -4.3900   23.7740  -29.9880 C   0  0  0  0  0  0  0  0  0  0  0  0
   -5.6080   22.8410  -29.8550 C   0  0  0  0  0  0  0  0  0  0  0  0
   -6.3160   20.8540  -32.4690 C   0  0  0  0  0  0  0  0  0  0  0  0
   -6.3060   19.4730  -32.7260 C   0  0  0  0  0  0  0  0  0  0  0  0
   -4.7870   18.7130  -33.2320 S   0  0  0  0  0  0  0  0  0  0  0  0
   -4.7750   18.5900  -34.7300 O   0  0  0  0  0  0  0  0  0  0  0  0
   -4.6630   17.3370  -32.6420 O   0  0  0  0  0  0  0  0  0  0  0  0
   -3.4200   19.6710  -32.6720 C   0  0  0  0  0  0  0  0  0  0  0  0
   -2.3570   19.9520  -33.5620 C   0  0  0  0  0  0  0  0  0  0  0  0
   -1.2420   20.6940  -33.1360 C   0  0  0  0  0  0  0  0  0  0  0  0
   -1.2240   21.1420  -31.8180 C   0  0  0  0  0  0  0  0  0  0  0  0
   -0.2670   21.8640  -31.1360 C   0  0  0  0  0  0  0  0  0  0  0  0
   -0.7810   22.0010  -29.8510 C   0  0  0  0  0  0  0  0  0  0  0  0
   -0.1390   22.6550  -28.8030 O   0  0  0  0  0  0  0  0  0  0  0  0
   -1.9940   21.4100  -29.7360 N   0  0  0  0  0  0  0  0  0  0  0  0
   -2.8160   21.3080  -28.5330 C   0  0  0  0  0  0  0  0  0  0  0  0
   -2.2530   20.8780  -30.9480 C   0  0  0  0  0  0  0  0  0  0  0  0
   -3.3720   20.1410  -31.3430 C   0  0  0  0  0  0  0  0  0  0  0  0
   -7.5987   16.6964  -31.9161 H   0  0  0  0  0  0  0  0  0  0  0  0
   -8.4822   17.0348  -33.4431 H   0  0  0  0  0  0  0  0  0  0  0  0
   -6.6878   16.9522  -33.4431 H   0  0  0  0  0  0  0  0  0  0  0  0
   -9.6197   18.8317  -32.0969 H   0  0  0  0  0  0  0  0  0  0  0  0
   -9.6020   21.2774  -31.6388 H   0  0  0  0  0  0  0  0  0  0  0  0
   -7.7505   25.4521  -30.1424 H   0  0  0  0  0  0  0  0  0  0  0  0
   -6.6681   25.0825  -28.7305 H   0  0  0  0  0  0  0  0  0  0  0  0
   -6.0140   26.2068  -31.4011 H   0  0  0  0  0  0  0  0  0  0  0  0
   -5.1531   26.3283  -29.7931 H   0  0  0  0  0  0  0  0  0  0  0  0
   -3.5089   23.1814  -30.2752 H   0  0  0  0  0  0  0  0  0  0  0  0
   -4.2127   24.2701  -29.0224 H   0  0  0  0  0  0  0  0  0  0  0  0
   -5.4992   22.0160  -30.5744 H   0  0  0  0  0  0  0  0  0  0  0  0
   -5.6346   22.4763  -28.8176 H   0  0  0  0  0  0  0  0  0  0  0  0
   -5.3857   21.4319  -32.5719 H   0  0  0  0  0  0  0  0  0  0  0  0
   -2.4036   19.5860  -34.5983 H   0  0  0  0  0  0  0  0  0  0  0  0
   -0.4105   20.9137  -33.8218 H   0  0  0  0  0  0  0  0  0  0  0  0
    0.6894   22.2462  -31.5223 H   0  0  0  0  0  0  0  0  0  0  0  0
    0.8470   22.5060  -28.6240 H   0  0  0  0  0  0  0  0  0  0  0  0
   -2.1747   21.3876  -27.6429 H   0  0  0  0  0  0  0  0  0  0  0  0
   -3.5568   22.1211  -28.5251 H   0  0  0  0  0  0  0  0  0  0  0  0
   -3.3356   20.3385  -28.5251 H   0  0  0  0  0  0  0  0  0  0  0  0
   -4.1911   19.9334  -30.6387 H   0  0  0  0  0  0  0  0  0  0  0  0
  1  2  1  0
  2  3  2  0
  3  4  1  0
  4  5  2  0
  5  6  1  0
  6  7  2  0
  6  8  2  0
  6  9  1  0
  9 10  1  0
 10 11  1  0
 11 12  1  0
 12 13  1  0
 13 14  1  0
  5 15  1  0
 15 16  2  0
 16 17  1  0
 17 18  2  0
 17 19  2  0
 17 20  1  0
 20 21  2  0
 21 22  1  0
 22 23  2  0
 23 24  1  0
 24 25  2  0
 25 26  1  0
 25 27  1  0
 27 28  1  0
 27 29  1  0
 29 30  2  0
 16  2  1  0
 30 20  1  0
 14  9  1  0
 29 23  1  0
  1 31  1  0
  1 32  1  0
  1 33  1  0
  3 34  1  0
  4 35  1  0
 10 36  1  0
 10 37  1  0
 11 38  1  0
 11 39  1  0
 13 40  1  0
 13 41  1  0
 14 42  1  0
 14 43  1  0
 15 44  1  0
 21 45  1  0
 22 46  1  0
 24 47  1  0
 26 48  1  0
 28 49  1  0
 28 50  1  0
 28 51  1  0
 30 52  1  0
M  END
>  <UniqueID>  (50) 
49

>  <SMILES>  (50) 
Cc1ccc(S(=O)(=O)N2CCOCC2)cc1S(=O)(=O)c1ccc2cc(O)n(C)c2c1

>  <Energy>  (50) 
101.6569054538034

>  <Genealogy>  (50) 
Cc1ccc(S(=O)(=O)N2CCOCC2)cc1S(=O)(=O)c1ccc2cc(O)n(C)c2c1 (3D coordinates assigned)
Cc1ccc(S(=O)(=O)N2CCOCC2)cc1S(=O)(=O)c1ccc2cc(O)n(C)c2c1 (nonaromatic ring conformer: 101.6569054538034 kcal/mol)

>  <smiles>  (50) 
Cc1ccc(S(=O)(=O)N2CCOCC2)cc1S(=O)(=O)c1ccc2cc(O)n(C)c2c1

>  <score_type>  (50) 
oracle

>  <origin>  (50) 
adgpu

>  <m_score__min__energy>  (50) 
-10.279999999999999

>  <m_primary>  (50) 
energy

$$$$
