0:0
     RDKit          3D

 28 29  0  0  0  0  0  0  0  0999 V2000
   -1.3340   27.0390  -24.3730 F   0  0  0  0  0  0  0  0  0  0  0  0
   -0.7220   26.3320  -25.3540 C   0  0  0  0  0  0  0  0  0  0  0  0
    0.5770   25.8550  -25.1640 C   0  0  0  0  0  0  0  0  0  0  0  0
    1.2160   25.1420  -26.1820 C   0  0  0  0  0  0  0  0  0  0  0  0
    0.5540   24.8980  -27.3910 C   0  0  0  0  0  0  0  0  0  0  0  0
    1.1890   24.2040  -28.3690 F   0  0  0  0  0  0  0  0  0  0  0  0
   -0.7610   25.3540  -27.5810 C   0  0  0  0  0  0  0  0  0  0  0  0
   -1.4190   25.1240  -28.8400 N   0  0  0  0  0  0  0  0  0  0  0  0
   -2.7740   24.6660  -28.9810 C   0  0  0  0  0  0  0  0  0  0  0  0
   -3.4870   23.7790  -27.7890 S   0  0  0  0  0  0  0  0  0  0  0  0
   -3.4630   24.9200  -30.2170 N   0  0  0  0  0  0  0  0  0  0  0  0
   -4.7290   24.3400  -30.5560 C   0  0  0  0  0  0  0  0  0  0  0  0
   -5.9070   25.0160  -30.2120 C   0  0  0  0  0  0  0  0  0  0  0  0
   -7.1530   24.4730  -30.5350 C   0  0  0  0  0  0  0  0  0  0  0  0
   -7.2290   23.2570  -31.2190 C   0  0  0  0  0  0  0  0  0  0  0  0
   -6.0600   22.5880  -31.5880 C   0  0  0  0  0  0  0  0  0  0  0  0
   -4.8070   23.1260  -31.2670 C   0  0  0  0  0  0  0  0  0  0  0  0
   -3.3590   22.2920  -31.8170 Cl  0  0  0  0  0  0  0  0  0  0  0  0
   -1.3870   26.0900  -26.5600 C   0  0  0  0  0  0  0  0  0  0  0  0
    1.0972   26.0406  -24.2127 H   0  0  0  0  0  0  0  0  0  0  0  0
    2.2411   24.7718  -26.0330 H   0  0  0  0  0  0  0  0  0  0  0  0
   -0.8690   25.2750  -29.7140 H   0  0  0  0  0  0  0  0  0  0  0  0
   -3.0940   25.6770  -30.8370 H   0  0  0  0  0  0  0  0  0  0  0  0
   -5.8505   25.9797  -29.6846 H   0  0  0  0  0  0  0  0  0  0  0  0
   -8.0742   25.0027  -30.2508 H   0  0  0  0  0  0  0  0  0  0  0  0
   -8.2103   22.8263  -31.4670 H   0  0  0  0  0  0  0  0  0  0  0  0
   -6.1234   21.6346  -32.1330 H   0  0  0  0  0  0  0  0  0  0  0  0
   -2.4054   26.4776  -26.7106 H   0  0  0  0  0  0  0  0  0  0  0  0
  1  2  1  0
  2  3  2  0
  3  4  1  0
  4  5  2  0
  5  6  1  0
  5  7  1  0
  7  8  1  0
  8  9  1  0
  9 10  2  0
  9 11  1  0
 11 12  1  0
 12 13  2  0
 13 14  1  0
 14 15  2  0
 15 16  1  0
 16 17  2  0
 17 18  1  0
  7 19  2  0
 19  2  1  0
 17 12  1  0
  3 20  1  0
  4 21  1  0
  8 22  1  0
 11 23  1  0
 13 24  1  0
 14 25  1  0
 15 26  1  0
 16 27  1  0
 19 28  1  0
M  END
>  <UniqueID>  (1) 
1

>  <SMILES>  (1) 
Fc1ccc(F)c(NC(=S)Nc2ccccc2Cl)c1

>  <Energy>  (1) 
41.802780182516976

>  <Genealogy>  (1) 
Fc1ccc(F)c(NC(=S)Nc2ccccc2Cl)c1 (3D coordinates assigned)
Fc1ccc(F)c(NC(=S)Nc2ccccc2Cl)c1 (optimized conformer: 41.802780182516976 kcal/mol)

>  <smiles>  (1) 
Fc1ccc(F)c(NC(=S)Nc2ccccc2Cl)c1

>  <score_type>  (1) 
oracle

>  <origin>  (1) 
adgpu

>  <m_score__min__energy>  (1) 
-7.2199999999999998

>  <m_primary>  (1) 
energy

$$$$
1:0
     RDKit          3D

 41 43  0  0  0  0  0  0  0  0999 V2000
   -3.3138   17.3293  -35.2522 H   0  0  0  0  0  0  0  0  0  0  0  0
   -3.8230   18.0630  -34.6100 C   0  0  0  0  0  0  0  0  0  0  0  0
   -3.2140   19.1500  -34.0840 N   0  0  0  0  0  0  0  0  0  0  0  0
   -4.2210   19.7250  -33.3960 C   0  0  0  0  0  0  0  0  0  0  0  0
   -4.0860   20.7930  -32.6660 N   0  0  0  0  0  0  0  0  0  0  0  0
   -2.8340   21.5290  -32.5020 C   0  0  0  0  0  0  0  0  0  0  0  0
   -3.0440   22.6086  -32.5182 H   0  0  0  0  0  0  0  0  0  0  0  0
   -2.1543   21.2624  -33.3248 H   0  0  0  0  0  0  0  0  0  0  0  0
   -2.1660   21.1640  -31.1680 C   0  0  0  0  0  0  0  0  0  0  0  0
   -1.5902   20.2362  -31.3005 H   0  0  0  0  0  0  0  0  0  0  0  0
   -2.9567   21.0351  -30.4143 H   0  0  0  0  0  0  0  0  0  0  0  0
   -1.2210   22.2690  -30.6820 C   0  0  0  0  0  0  0  0  0  0  0  0
   -1.0618   22.9892  -31.4981 H   0  0  0  0  0  0  0  0  0  0  0  0
   -0.2697   21.8056  -30.3815 H   0  0  0  0  0  0  0  0  0  0  0  0
   -1.7760   22.9710  -29.5300 N   0  0  0  0  0  0  0  0  0  0  0  0
   -2.4420   24.2360  -29.6140 C   0  0  0  0  0  0  0  0  0  0  0  0
   -1.8450   25.2910  -29.2680 O   0  0  0  0  0  0  0  0  0  0  0  0
   -3.7880   24.3070  -30.0960 N   0  0  0  0  0  0  0  0  0  0  0  0
   -4.2520   25.2980  -30.8440 N   0  0  0  0  0  0  0  0  0  0  0  0
   -5.5510   25.0470  -31.0980 C   0  0  0  0  0  0  0  0  0  0  0  0
   -6.2213   25.6879  -31.6895 H   0  0  0  0  0  0  0  0  0  0  0  0
   -5.9060   23.8550  -30.4960 C   0  0  0  0  0  0  0  0  0  0  0  0
   -7.2640   23.2420  -30.4420 C   0  0  0  0  0  0  0  0  0  0  0  0
   -7.5637   23.1067  -29.3923 H   0  0  0  0  0  0  0  0  0  0  0  0
   -7.9846   23.9021  -30.9469 H   0  0  0  0  0  0  0  0  0  0  0  0
   -7.2456   22.2649  -30.9469 H   0  0  0  0  0  0  0  0  0  0  0  0
   -4.7680   23.4150  -29.8550 C   0  0  0  0  0  0  0  0  0  0  0  0
   -4.6764   22.4985  -29.2536 H   0  0  0  0  0  0  0  0  0  0  0  0
   -5.3710   19.0340  -33.5080 N   0  0  0  0  0  0  0  0  0  0  0  0
   -6.6430   19.3020  -32.8940 C   0  0  0  0  0  0  0  0  0  0  0  0
   -7.1800   20.5980  -32.9490 C   0  0  0  0  0  0  0  0  0  0  0  0
   -6.6251   21.3975  -33.4616 H   0  0  0  0  0  0  0  0  0  0  0  0
   -8.4150   20.8800  -32.3570 C   0  0  0  0  0  0  0  0  0  0  0  0
   -8.8334   21.8957  -32.4144 H   0  0  0  0  0  0  0  0  0  0  0  0
   -9.1170   19.8720  -31.6930 C   0  0  0  0  0  0  0  0  0  0  0  0
  -10.0914   20.0923  -31.2327 H   0  0  0  0  0  0  0  0  0  0  0  0
   -8.5820   18.5830  -31.6130 C   0  0  0  0  0  0  0  0  0  0  0  0
   -9.1334   17.7926  -31.0827 H   0  0  0  0  0  0  0  0  0  0  0  0
   -7.3480   18.2950  -32.2050 C   0  0  0  0  0  0  0  0  0  0  0  0
   -6.8220   17.0540  -32.0580 F   0  0  0  0  0  0  0  0  0  0  0  0
   -5.1230   17.9770  -34.2610 N   0  0  0  0  0  0  0  0  0  0  0  0
  1  2  1  0
  2  3  2  0
  3  4  1  0
  4  5  2  0
  5  6  1  0
  6  7  1  0
  6  8  1  0
  6  9  1  0
  9 10  1  0
  9 11  1  0
  9 12  1  0
 12 13  1  0
 12 14  1  0
 12 15  1  0
 15 16  1  0
 16 17  2  0
 16 18  1  0
 18 19  1  0
 19 20  2  0
 20 21  1  0
 20 22  1  0
 22 23  1  0
 23 24  1  0
 23 25  1  0
 23 26  1  0
 22 27  2  0
 27 28  1  0
  4 29  1  0
 29 30  1  0
 30 31  2  0
 31 32  1  0
 31 33  1  0
 33 34  1  0
 33 35  2  0
 35 36  1  0
 35 37  1  0
 37 38  1  0
 37 39  2  0
 39 40  1  0
 29 41  1  0
 41  2  1  0
 27 18  1  0
 39 30  1  0
M  CHG  2  15  -1  41  -1
M  END
>  <UniqueID>  (2) 
2

>  <SMILES>  (2) 
Cc1cnn(C(=O)[N-]CCC/N=c2\nc[n-]n2-c2ccccc2F)c1

>  <Energy>  (2) 
104.95855899824176

>  <Genealogy>  (2) 
Cc1cnn(C(=O)[N-]CCCN=c2nc[n-]n2-c2ccccc2F)c1 (protonated)
Cc1cnn(C(=O)[N-]CCC/N=c2\nc[n-]n2-c2ccccc2F)c1 (cis-trans isomerization)
Cc1cnn(C(=O)[N-]CCC/N=c2\nc[n-]n2-c2ccccc2F)c1 (3D coordinates assigned)
Cc1cnn(C(=O)[N-]CCC/N=c2\nc[n-]n2-c2ccccc2F)c1 (optimized conformer: 104.95855899824176 kcal/mol)

>  <smiles>  (2) 
Cc1cnn(C(=O)NCCCN=c2nc[nH]n2-c2ccccc2F)c1

>  <score_type>  (2) 
oracle

>  <origin>  (2) 
adgpu

>  <m_score__min__energy>  (2) 
-10.09

>  <m_primary>  (2) 
energy

$$$$
2:0
     RDKit          3D

 31 32  0  0  0  0  0  0  0  0999 V2000
   -2.5800   20.3650  -28.1480 N   0  0  0  0  0  0  0  0  0  0  0  0
   -3.1400   21.4760  -28.5350 C   0  0  0  0  0  0  0  0  0  0  0  0
   -3.4660   21.6230  -29.8450 N   0  0  0  0  0  0  0  0  0  0  0  0
   -4.0530   22.7870  -30.2560 C   0  0  0  0  0  0  0  0  0  0  0  0
   -4.3720   22.8570  -31.6420 N   0  0  0  0  0  0  0  0  0  0  0  0
   -4.8620   21.7030  -32.3900 C   0  0  0  0  0  0  0  0  0  0  0  0
   -6.3490   21.7010  -32.2260 C   0  0  0  0  0  0  0  0  0  0  0  0
   -7.0560   22.8240  -31.8570 C   0  0  0  0  0  0  0  0  0  0  0  0
   -8.4420   22.7030  -31.7150 C   0  0  0  0  0  0  0  0  0  0  0  0
   -9.0790   21.5040  -31.9350 C   0  0  0  0  0  0  0  0  0  0  0  0
   -8.3650   20.3660  -32.3100 C   0  0  0  0  0  0  0  0  0  0  0  0
   -6.9780   20.4700  -32.4560 C   0  0  0  0  0  0  0  0  0  0  0  0
   -4.3120   23.8010  -29.3600 C   0  0  0  0  0  0  0  0  0  0  0  0
   -4.9230   24.9730  -29.8520 N   0  0  0  0  0  0  0  0  0  0  0  0
   -4.3810   25.5210  -30.8420 O   0  0  0  0  0  0  0  0  0  0  0  0
   -6.0460   25.4920  -29.2860 O   0  0  0  0  0  0  0  0  0  0  0  0
   -3.9620   23.5970  -28.0560 C   0  0  0  0  0  0  0  0  0  0  0  0
   -4.2110   24.5540  -27.2030 N   0  0  0  0  0  0  0  0  0  0  0  0
   -3.3850   22.4610  -27.6300 N   0  0  0  0  0  0  0  0  0  0  0  0
   -2.4230   19.6470  -28.9180 H   0  0  0  0  0  0  0  0  0  0  0  0
   -3.2780   20.8760  -30.5270 H   0  0  0  0  0  0  0  0  0  0  0  0
   -4.2300   23.7970  -32.0890 H   0  0  0  0  0  0  0  0  0  0  0  0
   -4.5956   21.7964  -33.4532 H   0  0  0  0  0  0  0  0  0  0  0  0
   -4.4165   20.7673  -32.0212 H   0  0  0  0  0  0  0  0  0  0  0  0
   -6.5478   23.7834  -31.6800 H   0  0  0  0  0  0  0  0  0  0  0  0
   -9.0336   23.5829  -31.4220 H   0  0  0  0  0  0  0  0  0  0  0  0
  -10.1704   21.4415  -31.8131 H   0  0  0  0  0  0  0  0  0  0  0  0
   -8.8802   19.4103  -32.4866 H   0  0  0  0  0  0  0  0  0  0  0  0
   -6.3847   19.5914  -32.7494 H   0  0  0  0  0  0  0  0  0  0  0  0
   -4.6710   25.4440  -27.5570 H   0  0  0  0  0  0  0  0  0  0  0  0
   -3.1170   22.3040  -26.6230 H   0  0  0  0  0  0  0  0  0  0  0  0
  1  2  2  3
  2  3  1  0
  3  4  1  0
  4  5  1  0
  5  6  1  0
  6  7  1  0
  7  8  2  0
  8  9  1  0
  9 10  2  0
 10 11  1  0
 11 12  2  0
  4 13  2  0
 13 14  1  0
 14 15  2  0
 14 16  1  0
 13 17  1  0
 17 18  2  3
 17 19  1  0
 19  2  1  0
 12  7  1  0
  1 20  1  0
  3 21  1  0
  5 22  1  0
  6 23  1  0
  6 24  1  0
  8 25  1  0
  9 26  1  0
 10 27  1  0
 11 28  1  0
 12 29  1  0
 18 30  1  0
 19 31  1  0
M  CHG  2  14   1  16  -1
M  END
>  <smiles>  (3) 
N=c1[nH]c(NCc2ccccc2)c([N+](=O)[O-])c(=N)[nH]1

>  <score_type>  (3) 
oracle

>  <origin>  (3) 
adgpu

>  <m_score__min__energy>  (3) 
-6.4900000000000002

>  <m_primary>  (3) 
energy

$$$$
3:0
     RDKit          3D

 48 51  0  0  0  0  0  0  0  0999 V2000
   -0.3648   21.5218  -28.0012 H   0  0  0  0  0  0  0  0  0  0  0  0
   -0.7340   21.4260  -29.0330 C   0  0  0  0  0  0  0  0  0  0  0  0
   -0.2250   20.4310  -29.8640 C   0  0  0  0  0  0  0  0  0  0  0  0
    0.5541   19.7497  -29.4913 H   0  0  0  0  0  0  0  0  0  0  0  0
   -0.7010   20.2970  -31.1670 C   0  0  0  0  0  0  0  0  0  0  0  0
   -0.2901   19.5117  -31.8185 H   0  0  0  0  0  0  0  0  0  0  0  0
   -1.7020   21.1560  -31.6580 C   0  0  0  0  0  0  0  0  0  0  0  0
   -2.2220   20.9340  -33.0360 C   0  0  0  0  0  0  0  0  0  0  0  0
   -1.4870   21.1880  -34.0270 O   0  0  0  0  0  0  0  0  0  0  0  0
   -3.5670   20.5020  -33.2740 N   0  0  0  0  0  0  0  0  0  0  0  0
   -4.0000   19.2940  -33.5140 C   0  0  0  0  0  0  0  0  0  0  0  0
   -5.3270   19.0230  -33.5390 N   0  0  0  0  0  0  0  0  0  0  0  0
   -6.1190   19.6850  -33.3830 H   0  0  0  0  0  0  0  0  0  0  0  0
   -5.3940   17.7030  -33.7630 C   0  0  0  0  0  0  0  0  0  0  0  0
   -6.5330   16.9060  -33.8500 C   0  0  0  0  0  0  0  0  0  0  0  0
   -7.5387   17.3364  -33.7348 H   0  0  0  0  0  0  0  0  0  0  0  0
   -6.3530   15.5330  -34.0900 C   0  0  0  0  0  0  0  0  0  0  0  0
   -7.2287   14.8719  -34.1678 H   0  0  0  0  0  0  0  0  0  0  0  0
   -5.0530   14.9970  -34.2320 C   0  0  0  0  0  0  0  0  0  0  0  0
   -4.9240   13.9213  -34.4221 H   0  0  0  0  0  0  0  0  0  0  0  0
   -3.9220   15.8290  -34.1320 C   0  0  0  0  0  0  0  0  0  0  0  0
   -2.9058   15.4218  -34.2397 H   0  0  0  0  0  0  0  0  0  0  0  0
   -4.1330   17.1920  -33.8910 C   0  0  0  0  0  0  0  0  0  0  0  0
   -3.2280   18.1850  -33.7500 N   0  0  0  0  0  0  0  0  0  0  0  0
   -1.7750   18.0510  -33.8820 C   0  0  0  0  0  0  0  0  0  0  0  0
   -1.3183   18.0089  -32.8822 H   0  0  0  0  0  0  0  0  0  0  0  0
   -1.5404   17.1274  -34.4315 H   0  0  0  0  0  0  0  0  0  0  0  0
   -1.3754   18.9161  -34.4315 H   0  0  0  0  0  0  0  0  0  0  0  0
   -2.2030   22.1850  -30.8210 C   0  0  0  0  0  0  0  0  0  0  0  0
   -3.1610   23.1190  -31.3450 N   0  0  0  0  0  0  0  0  0  0  0  0
   -4.4950   23.8590  -30.5180 S   0  0  0  0  0  0  0  0  0  0  0  0
   -4.4780   25.3220  -30.8590 O   0  0  0  0  0  0  0  0  0  0  0  0
   -4.3530   23.7240  -29.0280 O   0  0  0  0  0  0  0  0  0  0  0  0
   -6.0230   23.1610  -31.0600 C   0  0  0  0  0  0  0  0  0  0  0  0
   -7.1500   23.9790  -31.2270 C   0  0  0  0  0  0  0  0  0  0  0  0
   -7.0793   25.0578  -31.0242 H   0  0  0  0  0  0  0  0  0  0  0  0
   -8.3620   23.4280  -31.6500 C   0  0  0  0  0  0  0  0  0  0  0  0
   -9.2418   24.0748  -31.7824 H   0  0  0  0  0  0  0  0  0  0  0  0
   -8.4600   22.0600  -31.9050 C   0  0  0  0  0  0  0  0  0  0  0  0
   -9.4194   21.6328  -32.2321 H   0  0  0  0  0  0  0  0  0  0  0  0
   -7.3420   21.2240  -31.7470 C   0  0  0  0  0  0  0  0  0  0  0  0
   -7.4390   19.8170  -32.0340 N   0  0  0  0  0  0  0  0  0  0  0  0
   -6.7810   18.9850  -31.3750 O   0  0  0  0  0  0  0  0  0  0  0  0
   -8.2380   19.3660  -33.0590 O   0  0  0  0  0  0  0  0  0  0  0  0
   -6.1250   21.7870  -31.3190 C   0  0  0  0  0  0  0  0  0  0  0  0
   -5.2441   21.1417  -31.1863 H   0  0  0  0  0  0  0  0  0  0  0  0
   -1.7110   22.3010  -29.5070 C   0  0  0  0  0  0  0  0  0  0  0  0
   -2.1013   23.0900  -28.8474 H   0  0  0  0  0  0  0  0  0  0  0  0
  1  2  1  0
  2  3  2  0
  3  4  1  0
  3  5  1  0
  5  6  1  0
  5  7  2  0
  7  8  1  0
  8  9  2  0
  8 10  1  0
 10 11  2  0
 11 12  1  0
 12 13  1  0
 12 14  1  0
 14 15  2  0
 15 16  1  0
 15 17  1  0
 17 18  1  0
 17 19  2  0
 19 20  1  0
 19 21  1  0
 21 22  1  0
 21 23  2  0
 23 24  1  0
 24 25  1  0
 25 26  1  0
 25 27  1  0
 25 28  1  0
  7 29  1  0
 29 30  1  0
 30 31  1  0
 31 32  2  0
 31 33  2  0
 31 34  1  0
 34 35  2  0
 35 36  1  0
 35 37  1  0
 37 38  1  0
 37 39  2  0
 39 40  1  0
 39 41  1  0
 41 42  1  0
 42 43  2  0
 42 44  1  0
 41 45  2  0
 45 46  1  0
 29 47  2  0
 47 48  1  0
 47  2  1  0
 24 11  1  0
 45 34  1  0
 23 14  1  0
M  CHG  3  30  -1  42   1  44  -1
M  END
>  <UniqueID>  (4) 
3

>  <SMILES>  (4) 
Cn1/c(=N\C(=O)c2ccccc2[N-]S(=O)(=O)c2cccc([N+](=O)[O-])c2)[nH]c2ccccc21

>  <Energy>  (4) 
107.69670900293768

>  <Genealogy>  (4) 
Cn1c(=NC(=O)c2ccccc2[N-]S(=O)(=O)c2cccc([N+](=O)[O-])c2)[nH]c2ccccc21 (protonated)
Cn1/c(=N\C(=O)c2ccccc2[N-]S(=O)(=O)c2cccc([N+](=O)[O-])c2)[nH]c2ccccc21 (cis-trans isomerization)
Cn1/c(=N\C(=O)c2ccccc2[N-]S(=O)(=O)c2cccc([N+](=O)[O-])c2)[nH]c2ccccc21 (3D coordinates assigned)
Cn1/c(=N\C(=O)c2ccccc2[N-]S(=O)(=O)c2cccc([N+](=O)[O-])c2)[nH]c2ccccc21 (optimized conformer: 107.69670900293768 kcal/mol)

>  <smiles>  (4) 
Cn1c(=NC(=O)c2ccccc2NS(=O)(=O)c2cccc([N+](=O)[O-])c2)[nH]c2ccccc21

>  <score_type>  (4) 
oracle

>  <origin>  (4) 
adgpu

>  <m_score__min__energy>  (4) 
-10.33

>  <m_primary>  (4) 
energy

$$$$
4:0
     RDKit          3D

 27 28  0  0  0  0  0  0  0  0999 V2000
   -9.4400   17.9080  -31.5460 N   0  0  0  0  0  0  0  0  0  0  0  0
   -8.2680   18.4400  -32.1760 C   0  0  0  0  0  0  0  0  0  0  0  0
   -7.2940   17.5560  -32.6680 C   0  0  0  0  0  0  0  0  0  0  0  0
   -6.1520   18.0440  -33.3070 C   0  0  0  0  0  0  0  0  0  0  0  0
   -5.9720   19.4180  -33.4660 C   0  0  0  0  0  0  0  0  0  0  0  0
   -6.9310   20.3090  -32.9790 C   0  0  0  0  0  0  0  0  0  0  0  0
   -8.0750   19.8330  -32.3240 C   0  0  0  0  0  0  0  0  0  0  0  0
   -9.2620   21.0280  -31.6930 S   0  0  0  0  0  0  0  0  0  0  0  0
   -7.9990   22.2580  -31.3600 C   0  0  0  0  0  0  0  0  0  0  0  0
   -7.3920   22.3220  -30.1010 C   0  0  0  0  0  0  0  0  0  0  0  0
   -6.4040   23.2770  -29.8460 C   0  0  0  0  0  0  0  0  0  0  0  0
   -6.0140   24.1860  -30.8470 C   0  0  0  0  0  0  0  0  0  0  0  0
   -4.9970   25.1720  -30.5890 N   0  0  0  0  0  0  0  0  0  0  0  0
   -5.2960   26.3780  -30.4640 O   0  0  0  0  0  0  0  0  0  0  0  0
   -3.6770   24.8010  -30.4720 O   0  0  0  0  0  0  0  0  0  0  0  0
   -6.6350   24.1190  -32.1070 C   0  0  0  0  0  0  0  0  0  0  0  0
   -7.6230   23.1620  -32.3600 C   0  0  0  0  0  0  0  0  0  0  0  0
   -9.7590   18.2770  -30.6230 H   0  0  0  0  0  0  0  0  0  0  0  0
   -9.9860   17.1240  -31.9650 H   0  0  0  0  0  0  0  0  0  0  0  0
   -7.4316   16.4711  -32.5492 H   0  0  0  0  0  0  0  0  0  0  0  0
   -5.3931   17.3435  -33.6856 H   0  0  0  0  0  0  0  0  0  0  0  0
   -5.0747   19.7999  -33.9750 H   0  0  0  0  0  0  0  0  0  0  0  0
   -6.7875   21.3916  -33.1104 H   0  0  0  0  0  0  0  0  0  0  0  0
   -7.6931   21.6192  -29.3102 H   0  0  0  0  0  0  0  0  0  0  0  0
   -5.9276   23.3184  -28.8554 H   0  0  0  0  0  0  0  0  0  0  0  0
   -6.3417   24.8240  -32.8988 H   0  0  0  0  0  0  0  0  0  0  0  0
   -8.1058   23.1197  -33.3475 H   0  0  0  0  0  0  0  0  0  0  0  0
  1  2  1  0
  2  3  2  0
  3  4  1  0
  4  5  2  0
  5  6  1  0
  6  7  2  0
  7  8  1  0
  8  9  1  0
  9 10  2  0
 10 11  1  0
 11 12  2  0
 12 13  1  0
 13 14  2  0
 13 15  1  0
 12 16  1  0
 16 17  2  0
  7  2  1  0
 17  9  1  0
  1 18  1  0
  1 19  1  0
  3 20  1  0
  4 21  1  0
  5 22  1  0
  6 23  1  0
 10 24  1  0
 11 25  1  0
 16 26  1  0
 17 27  1  0
M  CHG  2  13   1  15  -1
M  END
>  <UniqueID>  (5) 
4

>  <SMILES>  (5) 
Nc1ccccc1Sc1ccc([N+](=O)[O-])cc1

>  <Energy>  (5) 
24.862886038789927

>  <Genealogy>  (5) 
Nc1ccccc1Sc1ccc([N+](=O)[O-])cc1 (3D coordinates assigned)
Nc1ccccc1Sc1ccc([N+](=O)[O-])cc1 (optimized conformer: 24.862886038789927 kcal/mol)

>  <smiles>  (5) 
Nc1ccccc1Sc1ccc([N+](=O)[O-])cc1

>  <score_type>  (5) 
oracle

>  <origin>  (5) 
adgpu

>  <m_score__min__energy>  (5) 
-8.0299999999999994

>  <m_primary>  (5) 
energy

$$$$
5:0
     RDKit          3D

 33 34  0  0  0  0  0  0  0  0999 V2000
    1.4510   20.1560  -33.5250 C   0  0  0  0  0  0  0  0  0  0  0  0
    0.2450   19.6140  -32.9980 O   0  0  0  0  0  0  0  0  0  0  0  0
   -0.9350   20.3480  -32.7910 C   0  0  0  0  0  0  0  0  0  0  0  0
   -1.9910   20.3400  -33.7210 C   0  0  0  0  0  0  0  0  0  0  0  0
   -3.1480   21.0860  -33.4830 C   0  0  0  0  0  0  0  0  0  0  0  0
   -3.2650   21.8590  -32.3190 C   0  0  0  0  0  0  0  0  0  0  0  0
   -4.4540   22.6190  -32.0420 N   0  0  0  0  0  0  0  0  0  0  0  0
   -5.7870   22.1210  -32.2400 C   0  0  0  0  0  0  0  0  0  0  0  0
   -5.9830   20.9740  -32.7250 O   0  0  0  0  0  0  0  0  0  0  0  0
   -6.9650   23.0020  -31.9510 C   0  0  0  0  0  0  0  0  0  0  0  0
   -7.0030   23.4710  -30.1860 S   0  0  0  0  0  0  0  0  0  0  0  0
   -5.4220   24.3130  -30.2160 C   0  0  0  0  0  0  0  0  0  0  0  0
   -5.1120   25.2800  -31.0990 N   0  0  0  0  0  0  0  0  0  0  0  0
   -3.8740   25.6550  -30.8280 N   0  0  0  0  0  0  0  0  0  0  0  0
   -3.4770   24.9030  -29.7880 C   0  0  0  0  0  0  0  0  0  0  0  0
   -2.3370   24.9970  -29.2650 O   0  0  0  0  0  0  0  0  0  0  0  0
   -4.4160   24.0390  -29.3600 N   0  0  0  0  0  0  0  0  0  0  0  0
   -2.2240   21.8490  -31.3820 C   0  0  0  0  0  0  0  0  0  0  0  0
   -1.0530   21.1030  -31.6150 C   0  0  0  0  0  0  0  0  0  0  0  0
    0.0140   21.0880  -30.7020 O   0  0  0  0  0  0  0  0  0  0  0  0
   -0.1240   20.8550  -29.3040 C   0  0  0  0  0  0  0  0  0  0  0  0
    2.1119   20.4530  -32.6974 H   0  0  0  0  0  0  0  0  0  0  0  0
    1.9547   19.3977  -34.1425 H   0  0  0  0  0  0  0  0  0  0  0  0
    1.2184   21.0361  -34.1425 H   0  0  0  0  0  0  0  0  0  0  0  0
   -1.9050   19.7429  -34.6408 H   0  0  0  0  0  0  0  0  0  0  0  0
   -3.9712   21.0669  -34.2123 H   0  0  0  0  0  0  0  0  0  0  0  0
   -4.3400   23.6330  -31.8200 H   0  0  0  0  0  0  0  0  0  0  0  0
   -6.8946   23.9120  -32.5650 H   0  0  0  0  0  0  0  0  0  0  0  0
   -7.8862   22.4505  -32.1903 H   0  0  0  0  0  0  0  0  0  0  0  0
   -2.3225   22.4306  -30.4535 H   0  0  0  0  0  0  0  0  0  0  0  0
    0.3593   21.6710  -28.7468 H   0  0  0  0  0  0  0  0  0  0  0  0
   -1.1917   20.8147  -29.0426 H   0  0  0  0  0  0  0  0  0  0  0  0
    0.3538   19.8993  -29.0426 H   0  0  0  0  0  0  0  0  0  0  0  0
  1  2  1  0
  2  3  1  0
  3  4  2  0
  4  5  1  0
  5  6  2  0
  6  7  1  0
  7  8  1  0
  8  9  2  0
  8 10  1  0
 10 11  1  0
 11 12  1  0
 12 13  2  0
 13 14  1  0
 14 15  1  0
 15 16  2  0
 15 17  1  0
  6 18  1  0
 18 19  2  0
 19 20  1  0
 20 21  1  0
 19  3  1  0
 17 12  1  0
  1 22  1  0
  1 23  1  0
  1 24  1  0
  4 25  1  0
  5 26  1  0
  7 27  1  0
 10 28  1  0
 10 29  1  0
 18 30  1  0
 21 31  1  0
 21 32  1  0
 21 33  1  0
M  CHG  2  14  -1  17  -1
M  END
>  <UniqueID>  (6) 
5

>  <SMILES>  (6) 
COc1ccc(NC(=O)CSc2n[n-]c(=O)[n-]2)cc1OC

>  <Energy>  (6) 
62.567748759826685

>  <Genealogy>  (6) 
COc1ccc(NC(=O)CSc2n[n-]c(=O)[n-]2)cc1OC (protonated)
COc1ccc(NC(=O)CSc2n[n-]c(=O)[n-]2)cc1OC (3D coordinates assigned)
COc1ccc(NC(=O)CSc2n[n-]c(=O)[n-]2)cc1OC (optimized conformer: 62.567748759826685 kcal/mol)

>  <smiles>  (6) 
COc1ccc(NC(=O)CSc2n[nH]c(=O)[nH]2)cc1OC

>  <score_type>  (6) 
oracle

>  <origin>  (6) 
adgpu

>  <m_score__min__energy>  (6) 
-8.6999999999999993

>  <m_primary>  (6) 
energy

$$$$
6:0
     RDKit          3D

 46 48  0  0  0  0  0  0  0  0999 V2000
   -1.7260   25.8740  -25.4690 C   0  0  0  0  0  0  0  0  0  0  0  0
   -2.3370   25.2610  -26.6940 C   0  0  0  0  0  0  0  0  0  0  0  0
   -3.6510   24.7760  -26.6620 C   0  0  0  0  0  0  0  0  0  0  0  0
   -4.2120   24.1830  -27.7950 C   0  0  0  0  0  0  0  0  0  0  0  0
   -3.4690   24.0550  -28.9840 C   0  0  0  0  0  0  0  0  0  0  0  0
   -4.1160   23.4690  -30.1920 C   0  0  0  0  0  0  0  0  0  0  0  0
   -4.3120   24.2060  -31.1970 O   0  0  0  0  0  0  0  0  0  0  0  0
   -4.5140   22.0140  -30.2970 C   0  0  0  0  0  0  0  0  0  0  0  0
   -4.3050   21.4010  -31.7080 C   0  0  1  0  0  0  0  0  0  0  0  0
   -5.1470   22.0480  -32.7450 N   0  0  0  0  0  0  0  0  0  0  0  0
   -6.5550   21.8290  -32.5000 C   0  0  0  0  0  0  0  0  0  0  0  0
   -7.4000   22.9020  -32.1590 C   0  0  0  0  0  0  0  0  0  0  0  0
   -8.7570   22.6800  -31.9100 C   0  0  0  0  0  0  0  0  0  0  0  0
   -9.2860   21.3890  -31.9990 C   0  0  0  0  0  0  0  0  0  0  0  0
  -10.6030   21.1770  -31.7570 F   0  0  0  0  0  0  0  0  0  0  0  0
   -8.4560   20.3170  -32.3380 C   0  0  0  0  0  0  0  0  0  0  0  0
   -7.0980   20.5330  -32.5880 C   0  0  0  0  0  0  0  0  0  0  0  0
   -2.8240   21.3610  -32.0890 C   0  0  0  0  0  0  0  0  0  0  0  0
   -2.4850   21.2780  -33.4540 C   0  0  0  0  0  0  0  0  0  0  0  0
   -1.1500   21.1720  -33.8530 C   0  0  0  0  0  0  0  0  0  0  0  0
   -0.1340   21.1410  -32.9000 C   0  0  0  0  0  0  0  0  0  0  0  0
   -0.4490   21.2140  -31.5440 C   0  0  0  0  0  0  0  0  0  0  0  0
   -1.7820   21.3210  -31.1310 C   0  0  0  0  0  0  0  0  0  0  0  0
   -2.0360   21.3460  -29.8000 F   0  0  0  0  0  0  0  0  0  0  0  0
   -2.1350   24.5130  -28.9950 C   0  0  0  0  0  0  0  0  0  0  0  0
   -1.5780   25.1080  -27.8600 C   0  0  0  0  0  0  0  0  0  0  0  0
   -2.1746   25.4239  -24.5711 H   0  0  0  0  0  0  0  0  0  0  0  0
   -0.6415   25.6898  -25.4688 H   0  0  0  0  0  0  0  0  0  0  0  0
   -1.9138   26.9579  -25.4688 H   0  0  0  0  0  0  0  0  0  0  0  0
   -4.2439   24.8628  -25.7395 H   0  0  0  0  0  0  0  0  0  0  0  0
   -5.2467   23.8115  -27.7581 H   0  0  0  0  0  0  0  0  0  0  0  0
   -3.9129   21.4385  -29.5776 H   0  0  0  0  0  0  0  0  0  0  0  0
   -5.5923   21.9635  -30.0853 H   0  0  0  0  0  0  0  0  0  0  0  0
   -4.6502   20.3578  -31.6576 H   0  0  0  0  0  0  0  0  0  0  0  0
   -4.9190   21.6460  -33.6850 H   0  0  0  0  0  0  0  0  0  0  0  0
   -4.9600   23.0750  -32.7930 H   0  0  0  0  0  0  0  0  0  0  0  0
   -6.9901   23.9203  -32.0882 H   0  0  0  0  0  0  0  0  0  0  0  0
   -9.4108   23.5234  -31.6432 H   0  0  0  0  0  0  0  0  0  0  0  0
   -8.8723   19.3012  -32.4082 H   0  0  0  0  0  0  0  0  0  0  0  0
   -6.4496   19.6855  -32.8551 H   0  0  0  0  0  0  0  0  0  0  0  0
   -3.2800   21.2968  -34.2140 H   0  0  0  0  0  0  0  0  0  0  0  0
   -0.9004   21.1129  -34.9227 H   0  0  0  0  0  0  0  0  0  0  0  0
    0.9160   21.0590  -33.2174 H   0  0  0  0  0  0  0  0  0  0  0  0
    0.3551   21.1873  -30.7939 H   0  0  0  0  0  0  0  0  0  0  0  0
   -1.5277   24.4008  -29.9053 H   0  0  0  0  0  0  0  0  0  0  0  0
   -0.5356   25.4586  -27.8830 H   0  0  0  0  0  0  0  0  0  0  0  0
  1  2  1  0
  2  3  2  0
  3  4  1  0
  4  5  2  0
  5  6  1  0
  6  7  2  0
  6  8  1  0
  8  9  1  0
  9 10  1  0
 10 11  1  0
 11 12  2  0
 12 13  1  0
 13 14  2  0
 14 15  1  0
 14 16  1  0
 16 17  2  0
  9 18  1  0
 18 19  2  0
 19 20  1  0
 20 21  2  0
 21 22  1  0
 22 23  2  0
 23 24  1  0
  5 25  1  0
 25 26  2  0
 26  2  1  0
 17 11  1  0
 23 18  1  0
  1 27  1  0
  1 28  1  0
  1 29  1  0
  3 30  1  0
  4 31  1  0
  8 32  1  0
  8 33  1  0
  9 34  1  1
 10 35  1  0
 10 36  1  0
 12 37  1  0
 13 38  1  0
 16 39  1  0
 17 40  1  0
 19 41  1  0
 20 42  1  0
 21 43  1  0
 22 44  1  0
 25 45  1  0
 26 46  1  0
M  CHG  1  10   1
M  END
>  <UniqueID>  (7) 
6

>  <SMILES>  (7) 
Cc1ccc(C(=O)C[C@@H]([NH2+]c2ccc(F)cc2)c2ccccc2F)cc1

>  <Energy>  (7) 
53.511445124090685

>  <Genealogy>  (7) 
Cc1ccc(C(=O)CC([NH2+]c2ccc(F)cc2)c2ccccc2F)cc1 (protonated)
Cc1ccc(C(=O)C[C@@H]([NH2+]c2ccc(F)cc2)c2ccccc2F)cc1 (chirality)
Cc1ccc(C(=O)C[C@@H]([NH2+]c2ccc(F)cc2)c2ccccc2F)cc1 (3D coordinates assigned)
Cc1ccc(C(=O)C[C@@H]([NH2+]c2ccc(F)cc2)c2ccccc2F)cc1 (optimized conformer: 53.511445124090685 kcal/mol)

>  <smiles>  (7) 
Cc1ccc(C(=O)CC(Nc2ccc(F)cc2)c2ccccc2F)cc1

>  <score_type>  (7) 
oracle

>  <origin>  (7) 
adgpu

>  <m_score__min__energy>  (7) 
-7.8099999999999996

>  <m_primary>  (7) 
energy

$$$$
7:0
     RDKit          3D

 33 34  0  0  0  0  0  0  0  0999 V2000
   -2.3370   25.0810  -26.8070 C   0  0  0  0  0  0  0  0  0  0  0  0
   -1.4670   25.5830  -28.3260 S   0  0  0  0  0  0  0  0  0  0  0  0
   -1.6560   23.9730  -29.1040 C   0  0  0  0  0  0  0  0  0  0  0  0
   -0.8030   22.9260  -28.7250 C   0  0  0  0  0  0  0  0  0  0  0  0
   -0.9130   21.6740  -29.3310 C   0  0  0  0  0  0  0  0  0  0  0  0
   -1.8850   21.4560  -30.3100 C   0  0  0  0  0  0  0  0  0  0  0  0
   -2.7510   22.4890  -30.6820 C   0  0  0  0  0  0  0  0  0  0  0  0
   -2.6380   23.7600  -30.0890 C   0  0  0  0  0  0  0  0  0  0  0  0
   -3.4970   24.8460  -30.4630 N   0  0  0  0  0  0  0  0  0  0  0  0
   -5.1870   24.9600  -30.0850 S   0  0  0  0  0  0  0  0  0  0  0  0
   -5.3610   24.9830  -28.5920 O   0  0  0  0  0  0  0  0  0  0  0  0
   -5.7360   26.2340  -30.6640 O   0  0  0  0  0  0  0  0  0  0  0  0
   -6.0470   23.6000  -30.7990 C   0  0  0  0  0  0  0  0  0  0  0  0
   -5.5980   23.0490  -32.0070 C   0  0  0  0  0  0  0  0  0  0  0  0
   -6.2740   21.9680  -32.5830 C   0  0  0  0  0  0  0  0  0  0  0  0
   -7.4030   21.4240  -31.9510 C   0  0  0  0  0  0  0  0  0  0  0  0
   -8.1290   20.2730  -32.5850 C   0  0  0  0  0  0  0  0  0  0  0  0
   -7.8610   21.9900  -30.7510 C   0  0  0  0  0  0  0  0  0  0  0  0
   -7.1870   23.0720  -30.1770 C   0  0  0  0  0  0  0  0  0  0  0  0
   -1.7629   25.4123  -25.9291 H   0  0  0  0  0  0  0  0  0  0  0  0
   -3.3357   25.5417  -26.7872 H   0  0  0  0  0  0  0  0  0  0  0  0
   -2.4379   23.9858  -26.7872 H   0  0  0  0  0  0  0  0  0  0  0  0
   -0.0439   23.0927  -27.9465 H   0  0  0  0  0  0  0  0  0  0  0  0
   -0.2346   20.8592  -29.0379 H   0  0  0  0  0  0  0  0  0  0  0  0
   -1.9695   20.4696  -30.7894 H   0  0  0  0  0  0  0  0  0  0  0  0
   -3.5248   22.3070  -31.4424 H   0  0  0  0  0  0  0  0  0  0  0  0
   -4.7107   23.4681  -32.5041 H   0  0  0  0  0  0  0  0  0  0  0  0
   -5.9197   21.5432  -33.5338 H   0  0  0  0  0  0  0  0  0  0  0  0
   -8.5400   19.6215  -31.7998 H   0  0  0  0  0  0  0  0  0  0  0  0
   -8.9491   20.6563  -33.2099 H   0  0  0  0  0  0  0  0  0  0  0  0
   -7.4298   19.6979  -33.2099 H   0  0  0  0  0  0  0  0  0  0  0  0
   -8.7555   21.5798  -30.2593 H   0  0  0  0  0  0  0  0  0  0  0  0
   -7.5517   23.5096  -29.2360 H   0  0  0  0  0  0  0  0  0  0  0  0
  1  2  1  0
  2  3  1  0
  3  4  2  0
  4  5  1  0
  5  6  2  0
  6  7  1  0
  7  8  2  0
  8  9  1  0
  9 10  1  0
 10 11  2  0
 10 12  2  0
 10 13  1  0
 13 14  2  0
 14 15  1  0
 15 16  2  0
 16 17  1  0
 16 18  1  0
 18 19  2  0
  8  3  1  0
 19 13  1  0
  1 20  1  0
  1 21  1  0
  1 22  1  0
  4 23  1  0
  5 24  1  0
  6 25  1  0
  7 26  1  0
 14 27  1  0
 15 28  1  0
 17 29  1  0
 17 30  1  0
 17 31  1  0
 18 32  1  0
 19 33  1  0
M  CHG  1   9  -1
M  END
>  <UniqueID>  (8) 
7

>  <SMILES>  (8) 
CSc1ccccc1[N-]S(=O)(=O)c1ccc(C)cc1

>  <Energy>  (8) 
31.57838520167271

>  <Genealogy>  (8) 
CSc1ccccc1[N-]S(=O)(=O)c1ccc(C)cc1 (protonated)
CSc1ccccc1[N-]S(=O)(=O)c1ccc(C)cc1 (3D coordinates assigned)
CSc1ccccc1[N-]S(=O)(=O)c1ccc(C)cc1 (optimized conformer: 31.57838520167271 kcal/mol)

>  <smiles>  (8) 
CSc1ccccc1NS(=O)(=O)c1ccc(C)cc1

>  <score_type>  (8) 
oracle

>  <origin>  (8) 
adgpu

>  <m_score__min__energy>  (8) 
-8.6300000000000008

>  <m_primary>  (8) 
energy

$$$$
8:0
     RDKit          3D

 32 33  0  0  0  0  0  0  0  0999 V2000
   -8.7610   19.8150  -31.6340 C   0  0  0  0  0  0  0  0  0  0  0  0
   -8.8750   21.2570  -31.2410 C   0  0  0  0  0  0  0  0  0  0  0  0
   -9.5250   21.5650  -30.2080 O   0  0  0  0  0  0  0  0  0  0  0  0
   -8.2590   22.2960  -32.0110 N   0  0  0  0  0  0  0  0  0  0  0  0
   -7.0610   22.9800  -31.6250 C   0  0  0  0  0  0  0  0  0  0  0  0
   -7.1630   24.1700  -30.8970 C   0  0  0  0  0  0  0  0  0  0  0  0
   -6.0120   24.8610  -30.5080 C   0  0  0  0  0  0  0  0  0  0  0  0
   -4.7400   24.3500  -30.8210 C   0  0  0  0  0  0  0  0  0  0  0  0
   -3.5320   25.0370  -30.4620 N   0  0  0  0  0  0  0  0  0  0  0  0
   -2.6630   24.7340  -29.3620 C   0  0  0  0  0  0  0  0  0  0  0  0
   -2.7890   23.6570  -28.7250 O   0  0  0  0  0  0  0  0  0  0  0  0
   -1.6400   25.6560  -28.9690 N   0  0  0  0  0  0  0  0  0  0  0  0
   -1.3560   26.0870  -27.6310 C   0  0  0  0  0  0  0  0  0  0  0  0
   -1.9210   25.3790  -26.5600 C   0  0  0  0  0  0  0  0  0  0  0  0
   -1.6490   25.7560  -25.2420 C   0  0  0  0  0  0  0  0  0  0  0  0
   -0.7970   26.8330  -24.9820 C   0  0  0  0  0  0  0  0  0  0  0  0
   -0.5320   27.1950  -23.7030 F   0  0  0  0  0  0  0  0  0  0  0  0
   -0.2060   27.5270  -26.0420 C   0  0  0  0  0  0  0  0  0  0  0  0
   -0.4760   27.1520  -27.3620 C   0  0  0  0  0  0  0  0  0  0  0  0
   -4.6410   23.1580  -31.5480 C   0  0  0  0  0  0  0  0  0  0  0  0
   -5.7910   22.4630  -31.9400 C   0  0  0  0  0  0  0  0  0  0  0  0
   -5.6090   20.9180  -32.7620 Cl  0  0  0  0  0  0  0  0  0  0  0  0
   -8.7117   19.1912  -30.7293 H   0  0  0  0  0  0  0  0  0  0  0  0
   -9.6392   19.5270  -32.2305 H   0  0  0  0  0  0  0  0  0  0  0  0
   -7.8485   19.6686  -32.2305 H   0  0  0  0  0  0  0  0  0  0  0  0
   -8.1544   24.5642  -30.6292 H   0  0  0  0  0  0  0  0  0  0  0  0
   -6.1016   25.8077  -29.9551 H   0  0  0  0  0  0  0  0  0  0  0  0
   -2.5818   24.5223  -26.7586 H   0  0  0  0  0  0  0  0  0  0  0  0
   -2.1064   25.2040  -24.4076 H   0  0  0  0  0  0  0  0  0  0  0  0
    0.4720   28.3688  -25.8376 H   0  0  0  0  0  0  0  0  0  0  0  0
    0.0013   27.6915  -28.1933 H   0  0  0  0  0  0  0  0  0  0  0  0
   -3.6493   22.7634  -31.8140 H   0  0  0  0  0  0  0  0  0  0  0  0
  1  2  1  0
  2  3  2  0
  2  4  1  0
  4  5  1  0
  5  6  2  0
  6  7  1  0
  7  8  2  0
  8  9  1  0
  9 10  1  0
 10 11  2  0
 10 12  1  0
 12 13  1  0
 13 14  2  0
 14 15  1  0
 15 16  2  0
 16 17  1  0
 16 18  1  0
 18 19  2  0
  8 20  1  0
 20 21  2  0
 21 22  1  0
 21  5  1  0
 19 13  1  0
  1 23  1  0
  1 24  1  0
  1 25  1  0
  6 26  1  0
  7 27  1  0
 14 28  1  0
 15 29  1  0
 18 30  1  0
 19 31  1  0
 20 32  1  0
M  CHG  3   4  -1   9  -1  12  -1
M  END
>  <UniqueID>  (9) 
8

>  <SMILES>  (9) 
CC(=O)[N-]c1ccc([N-]C(=O)[N-]c2ccc(F)cc2)cc1Cl

>  <Energy>  (9) 
45.7921208215299

>  <Genealogy>  (9) 
CC(=O)[N-]c1ccc([N-]C(=O)[N-]c2ccc(F)cc2)cc1Cl (protonated)
CC(=O)[N-]c1ccc([N-]C(=O)[N-]c2ccc(F)cc2)cc1Cl (3D coordinates assigned)
CC(=O)[N-]c1ccc([N-]C(=O)[N-]c2ccc(F)cc2)cc1Cl (optimized conformer: 45.7921208215299 kcal/mol)

>  <smiles>  (9) 
CC(=O)Nc1ccc(NC(=O)Nc2ccc(F)cc2)cc1Cl

>  <score_type>  (9) 
oracle

>  <origin>  (9) 
adgpu

>  <m_score__min__energy>  (9) 
-10.43

>  <m_primary>  (9) 
energy

$$$$
9:0
     RDKit          3D

 23 24  0  0  0  0  0  0  0  0999 V2000
   -9.2996   22.0163  -31.0311 H   0  0  0  0  0  0  0  0  0  0  0  0
   -8.2720   21.7130  -31.2800 C   0  0  0  0  0  0  0  0  0  0  0  0
   -7.1920   22.4590  -30.8000 C   0  0  0  0  0  0  0  0  0  0  0  0
   -7.3718   23.3461  -30.1750 H   0  0  0  0  0  0  0  0  0  0  0  0
   -5.8760   22.0770  -31.1150 C   0  0  0  0  0  0  0  0  0  0  0  0
   -4.7440   22.8180  -30.6410 N   0  0  0  0  0  0  0  0  0  0  0  0
   -4.3210   22.7160  -29.4450 N   0  0  0  0  0  0  0  0  0  0  0  0
   -3.1890   23.4490  -28.9510 C   0  0  0  0  0  0  0  0  0  0  0  0
   -2.7940   24.6960  -29.4760 C   0  0  0  0  0  0  0  0  0  0  0  0
   -3.4890   25.2950  -30.5200 O   0  0  0  0  0  0  0  0  0  0  0  0
   -1.7110   25.3310  -28.9600 N   0  0  0  0  0  0  0  0  0  0  0  0
   -0.9950   24.7930  -27.9410 C   0  0  0  0  0  0  0  0  0  0  0  0
    0.3000   25.6000  -27.3530 S   0  0  0  0  0  0  0  0  0  0  0  0
   -1.3560   23.5920  -27.4150 N   0  0  0  0  0  0  0  0  0  0  0  0
   -0.8030   23.1780  -26.6290 H   0  0  0  0  0  0  0  0  0  0  0  0
   -2.4330   22.9140  -27.9000 C   0  0  0  0  0  0  0  0  0  0  0  0
   -2.7490   21.8010  -27.3970 O   0  0  0  0  0  0  0  0  0  0  0  0
   -5.6600   20.9470  -31.9110 C   0  0  0  0  0  0  0  0  0  0  0  0
   -4.6322   20.6441  -32.1598 H   0  0  0  0  0  0  0  0  0  0  0  0
   -6.7400   20.1980  -32.3940 C   0  0  0  0  0  0  0  0  0  0  0  0
   -6.4200   18.7860  -33.3900 Cl  0  0  0  0  0  0  0  0  0  0  0  0
   -8.0540   20.5830  -32.0750 C   0  0  0  0  0  0  0  0  0  0  0  0
   -9.4390   19.6710  -32.6600 Cl  0  0  0  0  0  0  0  0  0  0  0  0
  1  2  1  0
  2  3  2  0
  3  4  1  0
  3  5  1  0
  5  6  1  0
  6  7  2  0
  7  8  1  0
  8  9  2  0
  9 10  1  0
  9 11  1  0
 11 12  1  0
 12 13  2  0
 12 14  1  0
 14 15  1  0
 14 16  1  0
 16 17  2  0
  5 18  2  0
 18 19  1  0
 18 20  1  0
 20 21  1  0
 20 22  2  0
 22 23  1  0
 22  2  1  0
 16  8  1  0
M  CHG  2  10  -1  11  -1
M  END
>  <UniqueID>  (10) 
9

>  <SMILES>  (10) 
O=c1[nH]c(=S)[n-]c([O-])c1/N=N/c1ccc(Cl)c(Cl)c1

>  <Energy>  (10) 
27.905418646986966

>  <Genealogy>  (10) 
O=c1[nH]c(=S)[n-]c([O-])c1N=Nc1ccc(Cl)c(Cl)c1 (protonated)
O=c1[nH]c(=S)[n-]c([O-])c1/N=N/c1ccc(Cl)c(Cl)c1 (cis-trans isomerization)
O=c1[nH]c(=S)[n-]c([O-])c1/N=N/c1ccc(Cl)c(Cl)c1 (3D coordinates assigned)
O=c1[nH]c(=S)[n-]c([O-])c1/N=N/c1ccc(Cl)c(Cl)c1 (optimized conformer: 27.905418646986966 kcal/mol)

>  <smiles>  (10) 
O=c1[nH]c(=S)[nH]c(O)c1N=Nc1ccc(Cl)c(Cl)c1

>  <score_type>  (10) 
oracle

>  <origin>  (10) 
adgpu

>  <m_score__min__energy>  (10) 
-11.33

>  <m_primary>  (10) 
energy

$$$$
10:0
     RDKit          3D

 38 40  0  0  0  0  0  0  0  0999 V2000
   -3.8160   20.5180  -31.1220 S   0  0  0  0  0  0  0  0  0  0  0  0
   -3.9500   21.0570  -32.6720 C   0  0  0  0  0  0  0  0  0  0  0  0
   -2.8000   21.0490  -33.5320 N   0  0  0  0  0  0  0  0  0  0  0  0
   -1.7840   20.0300  -33.5210 C   0  0  0  0  0  0  0  0  0  0  0  0
   -0.4490   20.3310  -33.1960 C   0  0  0  0  0  0  0  0  0  0  0  0
    0.5150   19.3180  -33.1660 C   0  0  0  0  0  0  0  0  0  0  0  0
    0.1520   17.9970  -33.4430 C   0  0  0  0  0  0  0  0  0  0  0  0
   -1.1770   17.6870  -33.7440 C   0  0  0  0  0  0  0  0  0  0  0  0
   -2.1440   18.6970  -33.7760 C   0  0  0  0  0  0  0  0  0  0  0  0
   -5.1000   21.8250  -33.0660 N   0  0  0  0  0  0  0  0  0  0  0  0
   -6.4000   21.6940  -32.4620 C   0  0  0  0  0  0  0  0  0  0  0  0
   -7.0130   22.8120  -31.8680 C   0  0  0  0  0  0  0  0  0  0  0  0
   -8.2350   22.6830  -31.2090 C   0  0  0  0  0  0  0  0  0  0  0  0
   -8.8550   21.4370  -31.1200 C   0  0  0  0  0  0  0  0  0  0  0  0
   -8.2540   20.3150  -31.6940 C   0  0  0  0  0  0  0  0  0  0  0  0
   -7.0270   20.4280  -32.3710 C   0  0  0  0  0  0  0  0  0  0  0  0
   -6.4380   19.2230  -33.0030 C   0  0  0  0  0  0  0  0  0  0  0  0
   -6.2140   18.0620  -32.2420 C   0  0  0  0  0  0  0  0  0  0  0  0
   -5.6650   16.9220  -32.8390 C   0  0  0  0  0  0  0  0  0  0  0  0
   -5.3420   16.9290  -34.1990 C   0  0  0  0  0  0  0  0  0  0  0  0
   -5.5700   18.0750  -34.9650 C   0  0  0  0  0  0  0  0  0  0  0  0
   -6.1180   19.2160  -34.3730 C   0  0  0  0  0  0  0  0  0  0  0  0
   -2.6930   21.8380  -34.2090 H   0  0  0  0  0  0  0  0  0  0  0  0
   -0.1619   21.3673  -32.9645 H   0  0  0  0  0  0  0  0  0  0  0  0
    1.5601   19.5613  -32.9241 H   0  0  0  0  0  0  0  0  0  0  0  0
    0.9119   17.2019  -33.4241 H   0  0  0  0  0  0  0  0  0  0  0  0
   -1.4632   16.6463  -33.9562 H   0  0  0  0  0  0  0  0  0  0  0  0
   -3.1909   18.4460  -34.0019 H   0  0  0  0  0  0  0  0  0  0  0  0
   -4.9860   22.5140  -33.8430 H   0  0  0  0  0  0  0  0  0  0  0  0
   -6.5244   23.7960  -31.9238 H   0  0  0  0  0  0  0  0  0  0  0  0
   -8.7112   23.5662  -30.7582 H   0  0  0  0  0  0  0  0  0  0  0  0
   -9.8179   21.3381  -30.5974 H   0  0  0  0  0  0  0  0  0  0  0  0
   -8.7450   19.3338  -31.6158 H   0  0  0  0  0  0  0  0  0  0  0  0
   -6.4715   18.0500  -31.1726 H   0  0  0  0  0  0  0  0  0  0  0  0
   -5.4872   16.0186  -32.2371 H   0  0  0  0  0  0  0  0  0  0  0  0
   -4.9084   16.0324  -34.6660 H   0  0  0  0  0  0  0  0  0  0  0  0
   -5.3178   18.0791  -36.0357 H   0  0  0  0  0  0  0  0  0  0  0  0
   -6.3002   20.1139  -34.9817 H   0  0  0  0  0  0  0  0  0  0  0  0
  1  2  2  0
  2  3  1  0
  3  4  1  0
  4  5  2  0
  5  6  1  0
  6  7  2  0
  7  8  1  0
  8  9  2  0
  2 10  1  0
 10 11  1  0
 11 12  2  0
 12 13  1  0
 13 14  2  0
 14 15  1  0
 15 16  2  0
 16 17  1  0
 17 18  2  0
 18 19  1  0
 19 20  2  0
 20 21  1  0
 21 22  2  0
  9  4  1  0
 16 11  1  0
 22 17  1  0
  3 23  1  0
  5 24  1  0
  6 25  1  0
  7 26  1  0
  8 27  1  0
  9 28  1  0
 10 29  1  0
 12 30  1  0
 13 31  1  0
 14 32  1  0
 15 33  1  0
 18 34  1  0
 19 35  1  0
 20 36  1  0
 21 37  1  0
 22 38  1  0
M  END
>  <UniqueID>  (11) 
10

>  <SMILES>  (11) 
S=C(Nc1ccccc1)Nc1ccccc1-c1ccccc1

>  <Energy>  (11) 
57.21723715368893

>  <Genealogy>  (11) 
S=C(Nc1ccccc1)Nc1ccccc1-c1ccccc1 (3D coordinates assigned)
S=C(Nc1ccccc1)Nc1ccccc1-c1ccccc1 (optimized conformer: 57.21723715368893 kcal/mol)

>  <smiles>  (11) 
S=C(Nc1ccccc1)Nc1ccccc1-c1ccccc1

>  <score_type>  (11) 
oracle

>  <origin>  (11) 
adgpu

>  <m_score__min__energy>  (11) 
-8.2100000000000009

>  <m_primary>  (11) 
energy

$$$$
11:0
     RDKit          3D

 47 51  0  0  0  0  0  0  0  0999 V2000
   -4.9950   24.6040  -26.4130 H   0  0  0  0  0  0  0  0  0  0  0  0
   -3.9900   24.8700  -26.4310 N   0  0  0  0  0  0  0  0  0  0  0  0
   -3.1410   24.6510  -27.3940 C   0  0  0  0  0  0  0  0  0  0  0  0
   -1.8150   25.1150  -27.2360 C   0  0  0  0  0  0  0  0  0  0  0  0
   -1.3590   25.7820  -25.9900 C   0  0  0  0  0  0  0  0  0  0  0  0
   -1.2410   27.1820  -25.9380 C   0  0  0  0  0  0  0  0  0  0  0  0
   -1.4964   27.7856  -26.8214 H   0  0  0  0  0  0  0  0  0  0  0  0
   -0.8010   27.8110  -24.7700 C   0  0  0  0  0  0  0  0  0  0  0  0
   -0.7166   28.9072  -24.7353 H   0  0  0  0  0  0  0  0  0  0  0  0
   -0.4680   27.0500  -23.6460 C   0  0  0  0  0  0  0  0  0  0  0  0
   -0.1237   27.5468  -22.7270 H   0  0  0  0  0  0  0  0  0  0  0  0
   -0.5730   25.6570  -23.6910 C   0  0  0  0  0  0  0  0  0  0  0  0
   -0.3096   25.0581  -22.8068 H   0  0  0  0  0  0  0  0  0  0  0  0
   -1.0120   25.0230  -24.8570 C   0  0  0  0  0  0  0  0  0  0  0  0
   -1.0865   23.9260  -24.8890 H   0  0  0  0  0  0  0  0  0  0  0  0
   -0.9020   24.9490  -28.2840 C   0  0  0  0  0  0  0  0  0  0  0  0
    0.1271   25.3212  -28.1723 H   0  0  0  0  0  0  0  0  0  0  0  0
   -1.2710   24.3350  -29.4350 N   0  0  0  0  0  0  0  0  0  0  0  0
   -0.5520   24.2310  -30.1880 H   0  0  0  0  0  0  0  0  0  0  0  0
   -2.5320   23.8550  -29.6230 C   0  0  0  0  0  0  0  0  0  0  0  0
   -2.8560   23.2210  -30.8310 C   0  0  0  0  0  0  0  0  0  0  0  0
   -2.0918   23.1200  -31.6158 H   0  0  0  0  0  0  0  0  0  0  0  0
   -4.1370   22.7180  -31.0460 C   0  0  0  0  0  0  0  0  0  0  0  0
   -4.3781   22.2239  -31.9988 H   0  0  0  0  0  0  0  0  0  0  0  0
   -5.1190   22.8380  -30.0560 C   0  0  0  0  0  0  0  0  0  0  0  0
   -6.4720   22.2950  -30.2970 C   0  0  0  0  0  0  0  0  0  0  0  0
   -7.5680   22.6270  -29.5860 N   0  0  0  0  0  0  0  0  0  0  0  0
   -8.5730   21.9340  -30.0990 N   0  0  0  0  0  0  0  0  0  0  0  0
   -8.0520   21.2080  -31.1060 C   0  0  0  0  0  0  0  0  0  0  0  0
   -8.8340   20.2510  -31.9440 C   0  0  0  0  0  0  0  0  0  0  0  0
   -9.5180   19.6776  -31.3011 H   0  0  0  0  0  0  0  0  0  0  0  0
   -9.4116   20.8129  -32.6928 H   0  0  0  0  0  0  0  0  0  0  0  0
   -7.9000   19.3060  -32.6460 C   0  0  0  0  0  0  0  0  0  0  0  0
   -7.9220   17.9330  -32.3450 C   0  0  0  0  0  0  0  0  0  0  0  0
   -8.6449   17.5436  -31.6130 H   0  0  0  0  0  0  0  0  0  0  0  0
   -7.0280   17.0610  -32.9730 C   0  0  0  0  0  0  0  0  0  0  0  0
   -7.0533   15.9865  -32.7387 H   0  0  0  0  0  0  0  0  0  0  0  0
   -6.1030   17.5510  -33.8970 C   0  0  0  0  0  0  0  0  0  0  0  0
   -5.4041   16.8619  -34.3937 H   0  0  0  0  0  0  0  0  0  0  0  0
   -6.0650   18.9170  -34.1910 C   0  0  0  0  0  0  0  0  0  0  0  0
   -5.3323   19.3027  -34.9151 H   0  0  0  0  0  0  0  0  0  0  0  0
   -6.9570   19.7940  -33.5660 C   0  0  0  0  0  0  0  0  0  0  0  0
   -6.9202   20.8692  -33.7954 H   0  0  0  0  0  0  0  0  0  0  0  0
   -6.7650   21.4210  -31.2310 O   0  0  0  0  0  0  0  0  0  0  0  0
   -4.8050   23.4720  -28.8420 C   0  0  0  0  0  0  0  0  0  0  0  0
   -5.5772   23.5642  -28.0641 H   0  0  0  0  0  0  0  0  0  0  0  0
   -3.5110   23.9940  -28.6040 C   0  0  0  0  0  0  0  0  0  0  0  0
  1  2  1  0
  2  3  2  0
  3  4  1  0
  4  5  1  0
  5  6  2  0
  6  7  1  0
  6  8  1  0
  8  9  1  0
  8 10  2  0
 10 11  1  0
 10 12  1  0
 12 13  1  0
 12 14  2  0
 14 15  1  0
  4 16  2  0
 16 17  1  0
 16 18  1  0
 18 19  1  0
 18 20  1  0
 20 21  2  0
 21 22  1  0
 21 23  1  0
 23 24  1  0
 23 25  2  0
 25 26  1  0
 26 27  2  0
 27 28  1  0
 28 29  2  0
 29 30  1  0
 30 31  1  0
 30 32  1  0
 30 33  1  0
 33 34  2  0
 34 35  1  0
 34 36  1  0
 36 37  1  0
 36 38  2  0
 38 39  1  0
 38 40  1  0
 40 41  1  0
 40 42  2  0
 42 43  1  0
 29 44  1  0
 25 45  1  0
 45 46  1  0
 45 47  2  0
 47  3  1  0
 14  5  1  0
 47 20  1  0
 44 26  1  0
 42 33  1  0
M  END
>  <UniqueID>  (12) 
11

>  <SMILES>  (12) 
[H]/N=c1/c(-c2ccccc2)c[nH]c2ccc(-c3nnc(Cc4ccccc4)o3)cc12

>  <Energy>  (12) 
102.79745707434567

>  <Genealogy>  (12) 
[H]/N=c1/c(-c2ccccc2)c[nH]c2ccc(-c3nnc(Cc4ccccc4)o3)cc12 (cis-trans isomerization)
[H]/N=c1/c(-c2ccccc2)c[nH]c2ccc(-c3nnc(Cc4ccccc4)o3)cc12 (3D coordinates assigned)
[H]/N=c1/c(-c2ccccc2)c[nH]c2ccc(-c3nnc(Cc4ccccc4)o3)cc12 (optimized conformer: 102.79745707434567 kcal/mol)

>  <smiles>  (12) 
N=c1c(-c2ccccc2)c[nH]c2ccc(-c3nnc(Cc4ccccc4)o3)cc12

>  <score_type>  (12) 
oracle

>  <origin>  (12) 
adgpu

>  <m_score__min__energy>  (12) 
-9.75

>  <m_primary>  (12) 
energy

$$$$
12:0
     RDKit          3D

 39 40  0  0  0  0  0  0  0  0999 V2000
   -6.6010   24.8730  -29.7200 C   0  0  0  0  0  0  0  0  0  0  0  0
   -5.6290   25.1030  -30.8740 C   0  0  0  0  0  0  0  0  0  0  0  0
   -4.7170   23.9500  -31.0270 N   0  0  0  0  0  0  0  0  0  0  0  0
   -5.0570   22.8840  -31.8310 C   0  0  0  0  0  0  0  0  0  0  0  0
   -6.3430   22.8200  -32.4800 N   0  0  0  0  0  0  0  0  0  0  0  0
   -7.4560   22.0280  -31.9550 C   0  0  0  0  0  0  0  0  0  0  0  0
   -7.3200   20.5900  -32.3740 C   0  0  0  0  0  0  0  0  0  0  0  0
   -7.9940   19.5830  -31.6670 C   0  0  0  0  0  0  0  0  0  0  0  0
   -7.8390   18.2420  -32.0300 C   0  0  0  0  0  0  0  0  0  0  0  0
   -6.9880   17.8880  -33.0880 C   0  0  0  0  0  0  0  0  0  0  0  0
   -6.8510   16.4530  -33.5000 C   0  0  0  0  0  0  0  0  0  0  0  0
   -6.3150   18.8960  -33.7960 C   0  0  0  0  0  0  0  0  0  0  0  0
   -6.4700   20.2370  -33.4340 C   0  0  0  0  0  0  0  0  0  0  0  0
   -4.1460   21.8390  -32.0050 C   0  0  0  0  0  0  0  0  0  0  0  0
   -2.9300   21.8710  -31.3380 C   0  0  0  0  0  0  0  0  0  0  0  0
   -2.1100   20.9290  -31.5200 O   0  0  0  0  0  0  0  0  0  0  0  0
   -2.6340   22.9050  -30.4940 N   0  0  0  0  0  0  0  0  0  0  0  0
   -1.3360   22.9390  -29.7950 C   0  0  0  0  0  0  0  0  0  0  0  0
   -3.5150   23.9490  -30.3570 C   0  0  0  0  0  0  0  0  0  0  0  0
   -3.2140   24.9240  -29.6090 O   0  0  0  0  0  0  0  0  0  0  0  0
   -6.0714   24.9983  -28.7640 H   0  0  0  0  0  0  0  0  0  0  0  0
   -7.4229   25.6015  -29.7821 H   0  0  0  0  0  0  0  0  0  0  0  0
   -7.0092   23.8535  -29.7821 H   0  0  0  0  0  0  0  0  0  0  0  0
   -6.1993   25.2383  -31.8049 H   0  0  0  0  0  0  0  0  0  0  0  0
   -5.0309   26.0007  -30.6588 H   0  0  0  0  0  0  0  0  0  0  0  0
   -6.5130   23.3990  -33.3330 H   0  0  0  0  0  0  0  0  0  0  0  0
   -7.4563   22.0869  -30.8566 H   0  0  0  0  0  0  0  0  0  0  0  0
   -8.3990   22.4286  -32.3554 H   0  0  0  0  0  0  0  0  0  0  0  0
   -8.6474   19.8499  -30.8232 H   0  0  0  0  0  0  0  0  0  0  0  0
   -8.3869   17.4603  -31.4835 H   0  0  0  0  0  0  0  0  0  0  0  0
   -6.7904   15.8183  -32.6036 H   0  0  0  0  0  0  0  0  0  0  0  0
   -7.7251   16.1585  -34.0993 H   0  0  0  0  0  0  0  0  0  0  0  0
   -5.9370   16.3293  -34.0993 H   0  0  0  0  0  0  0  0  0  0  0  0
   -5.6622   18.6291  -34.6402 H   0  0  0  0  0  0  0  0  0  0  0  0
   -5.9238   21.0190  -33.9819 H   0  0  0  0  0  0  0  0  0  0  0  0
   -4.3916   20.9957  -32.6672 H   0  0  0  0  0  0  0  0  0  0  0  0
   -1.5047   22.9346  -28.7080 H   0  0  0  0  0  0  0  0  0  0  0  0
   -0.7440   22.0561  -30.0778 H   0  0  0  0  0  0  0  0  0  0  0  0
   -0.7911   23.8517  -30.0778 H   0  0  0  0  0  0  0  0  0  0  0  0
  1  2  1  0
  2  3  1  0
  3  4  1  0
  4  5  1  0
  5  6  1  0
  6  7  1  0
  7  8  2  0
  8  9  1  0
  9 10  2  0
 10 11  1  0
 10 12  1  0
 12 13  2  0
  4 14  2  0
 14 15  1  0
 15 16  2  0
 15 17  1  0
 17 18  1  0
 17 19  1  0
 19 20  2  0
 19  3  1  0
 13  7  1  0
  1 21  1  0
  1 22  1  0
  1 23  1  0
  2 24  1  0
  2 25  1  0
  5 26  1  0
  6 27  1  0
  6 28  1  0
  8 29  1  0
  9 30  1  0
 11 31  1  0
 11 32  1  0
 11 33  1  0
 12 34  1  0
 13 35  1  0
 14 36  1  0
 18 37  1  0
 18 38  1  0
 18 39  1  0
M  END
>  <UniqueID>  (13) 
12

>  <SMILES>  (13) 
CCn1c(NCc2ccc(C)cc2)cc(=O)n(C)c1=O

>  <Energy>  (13) 
45.1180710609434

>  <Genealogy>  (13) 
CCn1c(NCc2ccc(C)cc2)cc(=O)n(C)c1=O (3D coordinates assigned)
CCn1c(NCc2ccc(C)cc2)cc(=O)n(C)c1=O (optimized conformer: 45.1180710609434 kcal/mol)

>  <smiles>  (13) 
CCn1c(NCc2ccc(C)cc2)cc(=O)n(C)c1=O

>  <score_type>  (13) 
oracle

>  <origin>  (13) 
adgpu

>  <m_score__min__energy>  (13) 
-7.2699999999999996

>  <m_primary>  (13) 
energy

$$$$
13:0
     RDKit          3D

 45 48  0  0  0  0  0  0  0  0999 V2000
   -1.4950   26.8400  -25.1090 C   0  0  0  0  0  0  0  0  0  0  0  0
   -1.6720   25.9420  -26.2980 C   0  0  0  0  0  0  0  0  0  0  0  0
   -0.7580   25.9930  -27.3610 C   0  0  0  0  0  0  0  0  0  0  0  0
   -0.8990   25.1330  -28.4540 C   0  0  0  0  0  0  0  0  0  0  0  0
   -1.9440   24.1950  -28.4870 C   0  0  0  0  0  0  0  0  0  0  0  0
   -2.1070   23.2960  -29.6530 C   0  0  0  0  0  0  0  0  0  0  0  0
   -1.1460   22.2890  -29.8480 C   0  0  0  0  0  0  0  0  0  0  0  0
   -1.2910   21.3480  -30.8730 C   0  0  0  0  0  0  0  0  0  0  0  0
   -2.3950   21.4280  -31.7360 C   0  0  0  0  0  0  0  0  0  0  0  0
   -3.3520   22.4270  -31.5570 C   0  0  0  0  0  0  0  0  0  0  0  0
   -3.2190   23.3820  -30.5320 C   0  0  0  0  0  0  0  0  0  0  0  0
   -4.2210   24.4730  -30.4460 C   0  0  0  0  0  0  0  0  0  0  0  0
   -3.8710   25.6710  -30.6130 O   0  0  0  0  0  0  0  0  0  0  0  0
   -5.5480   24.2010  -30.1340 O   0  0  0  0  0  0  0  0  0  0  0  0
   -2.5550   20.4960  -32.7690 O   0  0  0  0  0  0  0  0  0  0  0  0
   -1.5360   19.5540  -33.1140 C   0  0  2  0  0  0  0  0  0  0  0  0
   -2.1410   18.3840  -33.8480 C   0  0  0  0  0  0  0  0  0  0  0  0
   -1.3310   17.3260  -34.2980 C   0  0  0  0  0  0  0  0  0  0  0  0
   -1.8910   16.2590  -35.0090 C   0  0  0  0  0  0  0  0  0  0  0  0
   -3.2620   16.2460  -35.2860 C   0  0  0  0  0  0  0  0  0  0  0  0
   -3.8020   15.2140  -35.9790 F   0  0  0  0  0  0  0  0  0  0  0  0
   -4.0720   17.2980  -34.8540 C   0  0  0  0  0  0  0  0  0  0  0  0
   -3.5150   18.3670  -34.1440 C   0  0  0  0  0  0  0  0  0  0  0  0
   -0.8000   19.0820  -31.8510 C   0  0  0  0  0  0  0  0  0  0  0  0
   -0.2400   20.2870  -31.0850 C   0  0  0  0  0  0  0  0  0  0  0  0
   -2.8550   24.1420  -27.4210 C   0  0  0  0  0  0  0  0  0  0  0  0
   -2.7130   25.0020  -26.3290 C   0  0  0  0  0  0  0  0  0  0  0  0
   -1.6107   26.2531  -24.1858 H   0  0  0  0  0  0  0  0  0  0  0  0
   -0.4911   27.2889  -25.1348 H   0  0  0  0  0  0  0  0  0  0  0  0
   -2.2535   27.6363  -25.1348 H   0  0  0  0  0  0  0  0  0  0  0  0
    0.0733   26.7129  -27.3343 H   0  0  0  0  0  0  0  0  0  0  0  0
   -0.1886   25.1911  -29.2918 H   0  0  0  0  0  0  0  0  0  0  0  0
   -0.2687   22.2402  -29.1862 H   0  0  0  0  0  0  0  0  0  0  0  0
   -4.2235   22.4689  -32.2269 H   0  0  0  0  0  0  0  0  0  0  0  0
   -0.8063   20.0419  -33.7770 H   0  0  0  0  0  0  0  0  0  0  0  0
   -0.2509   17.3374  -34.0898 H   0  0  0  0  0  0  0  0  0  0  0  0
   -1.2531   15.4303  -35.3502 H   0  0  0  0  0  0  0  0  0  0  0  0
   -5.1501   17.2862  -35.0723 H   0  0  0  0  0  0  0  0  0  0  0  0
   -4.1557   19.1987  -33.8156 H   0  0  0  0  0  0  0  0  0  0  0  0
   -1.5015   18.5342  -31.2046 H   0  0  0  0  0  0  0  0  0  0  0  0
    0.0314   18.4240  -32.1439 H   0  0  0  0  0  0  0  0  0  0  0  0
    0.1273   19.9477  -30.1052 H   0  0  0  0  0  0  0  0  0  0  0  0
    0.5750   20.7244  -31.6804 H   0  0  0  0  0  0  0  0  0  0  0  0
   -3.6847   23.4201  -27.4452 H   0  0  0  0  0  0  0  0  0  0  0  0
   -3.4210   24.9417  -25.4893 H   0  0  0  0  0  0  0  0  0  0  0  0
  1  2  1  0
  2  3  2  0
  3  4  1  0
  4  5  2  0
  5  6  1  0
  6  7  2  0
  7  8  1  0
  8  9  2  0
  9 10  1  0
 10 11  2  0
 11 12  1  0
 12 13  2  0
 12 14  1  0
  9 15  1  0
 15 16  1  0
 16 17  1  0
 17 18  2  0
 18 19  1  0
 19 20  2  0
 20 21  1  0
 20 22  1  0
 22 23  2  0
 16 24  1  0
 24 25  1  0
  5 26  1  0
 26 27  2  0
 27  2  1  0
 11  6  1  0
 23 17  1  0
 25  8  1  0
  1 28  1  0
  1 29  1  0
  1 30  1  0
  3 31  1  0
  4 32  1  0
  7 33  1  0
 10 34  1  0
 16 35  1  6
 18 36  1  0
 19 37  1  0
 22 38  1  0
 23 39  1  0
 24 40  1  0
 24 41  1  0
 25 42  1  0
 25 43  1  0
 26 44  1  0
 27 45  1  0
M  CHG  1  14  -1
M  END
>  <UniqueID>  (14) 
13

>  <SMILES>  (14) 
Cc1ccc(-c2cc3c(cc2C(=O)[O-])O[C@H](c2ccc(F)cc2)CC3)cc1

>  <Energy>  (14) 
58.891678969060514

>  <Genealogy>  (14) 
Cc1ccc(-c2cc3c(cc2C(=O)[O-])OC(c2ccc(F)cc2)CC3)cc1 (protonated)
Cc1ccc(-c2cc3c(cc2C(=O)[O-])O[C@H](c2ccc(F)cc2)CC3)cc1 (chirality)
Cc1ccc(-c2cc3c(cc2C(=O)[O-])O[C@H](c2ccc(F)cc2)CC3)cc1 (3D coordinates assigned)
Cc1ccc(-c2cc3c(cc2C(=O)[O-])O[C@H](c2ccc(F)cc2)CC3)cc1 (nonaromatic ring conformer: 58.891678969060514 kcal/mol)

>  <smiles>  (14) 
Cc1ccc(-c2cc3c(cc2C(=O)O)OC(c2ccc(F)cc2)CC3)cc1

>  <score_type>  (14) 
oracle

>  <origin>  (14) 
adgpu

>  <m_score__min__energy>  (14) 
-9.1799999999999997

>  <m_primary>  (14) 
energy

$$$$
14:0
     RDKit          3D

 47 50  0  0  0  0  0  0  0  0999 V2000
   -0.8940   18.6200  -27.2660 C   0  0  0  0  0  0  0  0  0  0  0  0
   -1.2270   19.1530  -28.5430 O   0  0  0  0  0  0  0  0  0  0  0  0
   -1.5610   20.4970  -28.7760 C   0  0  0  0  0  0  0  0  0  0  0  0
   -0.8750   21.3000  -29.7050 C   0  0  0  0  0  0  0  0  0  0  0  0
   -1.2330   22.5670  -29.8970 O   0  0  0  0  0  0  0  0  0  0  0  0
   -2.2410   23.1410  -29.2440 C   0  0  0  0  0  0  0  0  0  0  0  0
   -2.5650   24.5520  -29.5370 C   0  0  0  0  0  0  0  0  0  0  0  0
   -1.9470   25.4580  -28.9210 O   0  0  0  0  0  0  0  0  0  0  0  0
   -3.5860   24.9290  -30.4740 N   0  0  0  0  0  0  0  0  0  0  0  0
   -4.7850   24.1940  -30.7620 C   0  0  0  0  0  0  0  0  0  0  0  0
   -6.0210   24.8200  -30.5780 C   0  0  0  0  0  0  0  0  0  0  0  0
   -7.2070   24.1330  -30.8460 C   0  0  0  0  0  0  0  0  0  0  0  0
   -7.1660   22.8160  -31.3110 C   0  0  0  0  0  0  0  0  0  0  0  0
   -5.9330   22.1760  -31.5280 C   0  0  0  0  0  0  0  0  0  0  0  0
   -5.8860   20.7770  -32.0230 C   0  0  0  0  0  0  0  0  0  0  0  0
   -4.7160   20.2650  -32.6110 C   0  0  0  0  0  0  0  0  0  0  0  0
   -4.6700   18.9460  -33.0690 C   0  0  0  0  0  0  0  0  0  0  0  0
   -5.7890   18.1020  -32.9460 C   0  0  0  0  0  0  0  0  0  0  0  0
   -5.7160   16.7030  -33.4400 C   0  0  0  0  0  0  0  0  0  0  0  0
   -4.5260   15.9910  -33.6240 C   0  0  0  0  0  0  0  0  0  0  0  0
   -4.9130   14.4650  -34.2150 S   0  0  0  0  0  0  0  0  0  0  0  0
   -6.5660   14.7570  -34.1980 C   0  0  0  0  0  0  0  0  0  0  0  0
   -7.6030   13.8070  -34.6900 C   0  0  0  0  0  0  0  0  0  0  0  0
   -6.8410   16.0080  -33.7740 N   0  0  0  0  0  0  0  0  0  0  0  0
   -6.9610   18.6200  -32.3630 C   0  0  0  0  0  0  0  0  0  0  0  0
   -7.0070   19.9400  -31.9070 C   0  0  0  0  0  0  0  0  0  0  0  0
   -4.7440   22.8800  -31.2620 C   0  0  0  0  0  0  0  0  0  0  0  0
   -2.9580   22.4070  -28.2860 C   0  0  0  0  0  0  0  0  0  0  0  0
   -2.6140   21.0740  -28.0600 C   0  0  0  0  0  0  0  0  0  0  0  0
   -3.2530   20.3970  -27.2110 O   0  0  0  0  0  0  0  0  0  0  0  0
   -1.3012   19.2718  -26.4791 H   0  0  0  0  0  0  0  0  0  0  0  0
   -1.3234   17.6122  -27.1660 H   0  0  0  0  0  0  0  0  0  0  0  0
    0.2000   18.5640  -27.1660 H   0  0  0  0  0  0  0  0  0  0  0  0
   -0.0361   20.8772  -30.2772 H   0  0  0  0  0  0  0  0  0  0  0  0
   -6.0598   25.8594  -30.2202 H   0  0  0  0  0  0  0  0  0  0  0  0
   -8.1760   24.6300  -30.6906 H   0  0  0  0  0  0  0  0  0  0  0  0
   -8.1041   22.2766  -31.5085 H   0  0  0  0  0  0  0  0  0  0  0  0
   -3.8294   20.9084  -32.7112 H   0  0  0  0  0  0  0  0  0  0  0  0
   -3.7483   18.5628  -33.5311 H   0  0  0  0  0  0  0  0  0  0  0  0
   -3.5122   16.3648  -33.4177 H   0  0  0  0  0  0  0  0  0  0  0  0
   -8.1107   13.3419  -33.8322 H   0  0  0  0  0  0  0  0  0  0  0  0
   -8.3386   14.3511  -35.3005 H   0  0  0  0  0  0  0  0  0  0  0  0
   -7.1252   13.0266  -35.3005 H   0  0  0  0  0  0  0  0  0  0  0  0
   -7.8496   17.9791  -32.2654 H   0  0  0  0  0  0  0  0  0  0  0  0
   -7.9309   20.3272  -31.4526 H   0  0  0  0  0  0  0  0  0  0  0  0
   -3.7727   22.3979  -31.4470 H   0  0  0  0  0  0  0  0  0  0  0  0
   -3.7782   22.8755  -27.7223 H   0  0  0  0  0  0  0  0  0  0  0  0
  1  2  1  0
  2  3  1  0
  3  4  2  0
  4  5  1  0
  5  6  1  0
  6  7  1  0
  7  8  2  0
  7  9  1  0
  9 10  1  0
 10 11  2  0
 11 12  1  0
 12 13  2  0
 13 14  1  0
 14 15  1  0
 15 16  2  0
 16 17  1  0
 17 18  2  0
 18 19  1  0
 19 20  2  0
 20 21  1  0
 21 22  1  0
 22 23  1  0
 22 24  2  0
 18 25  1  0
 25 26  2  0
 14 27  2  0
  6 28  2  0
 28 29  1  0
 29 30  2  0
 29  3  1  0
 27 10  1  0
 26 15  1  0
 24 19  1  0
  1 31  1  0
  1 32  1  0
  1 33  1  0
  4 34  1  0
 11 35  1  0
 12 36  1  0
 13 37  1  0
 16 38  1  0
 17 39  1  0
 20 40  1  0
 23 41  1  0
 23 42  1  0
 23 43  1  0
 25 44  1  0
 26 45  1  0
 27 46  1  0
 28 47  1  0
M  CHG  1   9  -1
M  END
>  <UniqueID>  (15) 
14

>  <SMILES>  (15) 
COc1coc(C(=O)[N-]c2cccc(-c3ccc(-c4csc(C)n4)cc3)c2)cc1=O

>  <Energy>  (15) 
94.13889008139864

>  <Genealogy>  (15) 
COc1coc(C(=O)[N-]c2cccc(-c3ccc(-c4csc(C)n4)cc3)c2)cc1=O (protonated)
COc1coc(C(=O)[N-]c2cccc(-c3ccc(-c4csc(C)n4)cc3)c2)cc1=O (3D coordinates assigned)
COc1coc(C(=O)[N-]c2cccc(-c3ccc(-c4csc(C)n4)cc3)c2)cc1=O (optimized conformer: 94.13889008139864 kcal/mol)

>  <smiles>  (15) 
COc1coc(C(=O)Nc2cccc(-c3ccc(-c4csc(C)n4)cc3)c2)cc1=O

>  <score_type>  (15) 
oracle

>  <origin>  (15) 
adgpu

>  <m_score__min__energy>  (15) 
-10.619999999999999

>  <m_primary>  (15) 
energy

$$$$
15:0
     RDKit          3D

 36 37  0  0  0  0  0  0  0  0999 V2000
   -0.8430   21.5240  -30.8480 C   0  0  0  0  0  0  0  0  0  0  0  0
   -1.6140   22.6500  -30.4420 O   0  0  0  0  0  0  0  0  0  0  0  0
   -2.9290   22.9100  -30.8630 C   0  0  0  0  0  0  0  0  0  0  0  0
   -3.6280   22.0230  -31.7010 C   0  0  0  0  0  0  0  0  0  0  0  0
   -4.9440   22.2970  -32.0910 C   0  0  0  0  0  0  0  0  0  0  0  0
   -5.6630   21.4080  -32.9650 N   0  0  0  0  0  0  0  0  0  0  0  0
   -6.7860   20.6060  -32.5630 C   0  0  0  0  0  0  0  0  0  0  0  0
   -7.9840   21.1950  -32.1150 C   0  0  0  0  0  0  0  0  0  0  0  0
   -9.0710   20.3930  -31.7540 C   0  0  0  0  0  0  0  0  0  0  0  0
   -8.9790   19.0030  -31.8490 C   0  0  0  0  0  0  0  0  0  0  0  0
   -7.8010   18.4110  -32.3140 C   0  0  0  0  0  0  0  0  0  0  0  0
   -6.7120   19.2090  -32.6760 C   0  0  0  0  0  0  0  0  0  0  0  0
   -5.5480   23.4880  -31.6750 C   0  0  0  0  0  0  0  0  0  0  0  0
   -4.8690   24.3940  -30.8370 C   0  0  0  0  0  0  0  0  0  0  0  0
   -5.4860   25.5810  -30.4130 O   0  0  0  0  0  0  0  0  0  0  0  0
   -6.4590   25.6730  -29.3760 C   0  0  0  0  0  0  0  0  0  0  0  0
   -3.5450   24.0940  -30.4240 C   0  0  0  0  0  0  0  0  0  0  0  0
   -2.7810   24.9270  -29.5830 O   0  0  0  0  0  0  0  0  0  0  0  0
   -2.3610   24.6370  -28.2540 C   0  0  0  0  0  0  0  0  0  0  0  0
   -0.4774   20.9900  -29.9585 H   0  0  0  0  0  0  0  0  0  0  0  0
   -1.4691   20.8486  -31.4496 H   0  0  0  0  0  0  0  0  0  0  0  0
    0.0131   21.8635  -31.4496 H   0  0  0  0  0  0  0  0  0  0  0  0
   -3.1356   21.1047  -32.0535 H   0  0  0  0  0  0  0  0  0  0  0  0
   -5.3490   21.3440  -33.9600 H   0  0  0  0  0  0  0  0  0  0  0  0
   -8.0650   22.2900  -32.0488 H   0  0  0  0  0  0  0  0  0  0  0  0
  -10.0007   20.8581  -31.3944 H   0  0  0  0  0  0  0  0  0  0  0  0
   -9.8332   18.3739  -31.5580 H   0  0  0  0  0  0  0  0  0  0  0  0
   -7.7310   17.3162  -32.3951 H   0  0  0  0  0  0  0  0  0  0  0  0
   -5.7911   18.7391  -33.0518 H   0  0  0  0  0  0  0  0  0  0  0  0
   -6.5702   23.7210  -32.0078 H   0  0  0  0  0  0  0  0  0  0  0  0
   -5.9580   25.6256  -28.3979 H   0  0  0  0  0  0  0  0  0  0  0  0
   -7.0005   26.6264  -29.4648 H   0  0  0  0  0  0  0  0  0  0  0  0
   -7.1696   24.8380  -29.4648 H   0  0  0  0  0  0  0  0  0  0  0  0
   -3.0495   25.1124  -27.5399 H   0  0  0  0  0  0  0  0  0  0  0  0
   -2.3648   23.5482  -28.0976 H   0  0  0  0  0  0  0  0  0  0  0  0
   -1.3442   25.0263  -28.0976 H   0  0  0  0  0  0  0  0  0  0  0  0
  1  2  1  0
  2  3  1  0
  3  4  2  0
  4  5  1  0
  5  6  1  0
  6  7  1  0
  7  8  2  0
  8  9  1  0
  9 10  2  0
 10 11  1  0
 11 12  2  0
  5 13  2  0
 13 14  1  0
 14 15  1  0
 15 16  1  0
 14 17  2  0
 17 18  1  0
 18 19  1  0
 17  3  1  0
 12  7  1  0
  1 20  1  0
  1 21  1  0
  1 22  1  0
  4 23  1  0
  6 24  1  0
  8 25  1  0
  9 26  1  0
 10 27  1  0
 11 28  1  0
 12 29  1  0
 13 30  1  0
 16 31  1  0
 16 32  1  0
 16 33  1  0
 19 34  1  0
 19 35  1  0
 19 36  1  0
M  END
>  <UniqueID>  (16) 
15

>  <SMILES>  (16) 
COc1cc(Nc2ccccc2)cc(OC)c1OC

>  <Energy>  (16) 
42.955406112568916

>  <Genealogy>  (16) 
COc1cc(Nc2ccccc2)cc(OC)c1OC (3D coordinates assigned)
COc1cc(Nc2ccccc2)cc(OC)c1OC (optimized conformer: 42.955406112568916 kcal/mol)

>  <smiles>  (16) 
COc1cc(Nc2ccccc2)cc(OC)c1OC

>  <score_type>  (16) 
oracle

>  <origin>  (16) 
adgpu

>  <m_score__min__energy>  (16) 
-6.79

>  <m_primary>  (16) 
energy

$$$$
16:0
     RDKit          3D

 41 42  0  0  1  0  0  0  0  0999 V2000
   -3.3180   16.2350  -35.8490 C   0  0  0  0  0  0  0  0  0  0  0  0
   -4.4750   17.0500  -35.7090 N   0  0  0  0  0  0  0  0  0  0  0  0
   -4.6150   17.8310  -34.7170 C   0  0  0  0  0  0  0  0  0  0  0  0
   -5.7700   18.5510  -34.7060 N   0  0  0  0  0  0  0  0  0  0  0  0
   -6.0950   19.4030  -33.7290 C   0  0  0  0  0  0  0  0  0  0  0  0
   -7.2010   20.0600  -33.7650 N   0  0  0  0  0  0  0  0  0  0  0  0
   -7.4720   20.9420  -32.6920 C   0  0  0  0  0  0  0  0  0  0  0  0
   -6.7800   22.1320  -32.5280 C   0  0  0  0  0  0  0  0  0  0  0  0
   -7.0880   22.9690  -31.4490 C   0  0  0  0  0  0  0  0  0  0  0  0
   -6.3610   24.1710  -31.3170 N   0  0  0  0  0  0  0  0  0  0  0  0
   -4.7890   24.2750  -30.6170 S   0  0  0  0  0  0  0  0  0  0  0  0
   -4.7870   23.9180  -28.8900 C   0  0  0  0  0  0  0  0  0  0  0  0
   -3.8670   23.3420  -31.3710 O   0  0  0  0  0  0  0  0  0  0  0  0
   -4.2170   25.6670  -30.8450 O   0  0  0  0  0  0  0  0  0  0  0  0
   -8.0820   22.5590  -30.5890 C   0  0  0  0  0  0  0  0  0  0  0  0
   -8.7780   21.3750  -30.7430 C   0  0  0  0  0  0  0  0  0  0  0  0
   -8.4670   20.5710  -31.7990 C   0  0  0  0  0  0  0  0  0  0  0  0
   -9.2020   19.3000  -31.9790 C   0  0  0  0  0  0  0  0  0  0  0  0
   -5.2250   19.5400  -32.7180 N   0  0  0  0  0  0  0  0  0  0  0  0
   -4.0760   18.8570  -32.6820 C   0  0  0  0  0  0  0  0  0  0  0  0
   -3.6820   17.9480  -33.6830 C   0  0  0  0  0  0  0  0  0  0  0  0
   -2.4180   17.2390  -33.6490 C   0  0  0  0  0  0  0  0  0  0  0  0
   -1.3610   17.7010  -34.4100 F   0  0  0  0  0  0  0  0  0  0  0  0
   -1.8510   17.8420  -32.4710 F   0  0  0  0  0  0  0  0  0  0  0  0
   -2.3310   15.9860  -33.1290 F   0  0  0  0  0  0  0  0  0  0  0  0
   -2.9362   15.9661  -34.8530 H   0  0  0  0  0  0  0  0  0  0  0  0
   -3.5786   15.3200  -36.4011 H   0  0  0  0  0  0  0  0  0  0  0  0
   -2.5442   16.7885  -36.4011 H   0  0  0  0  0  0  0  0  0  0  0  0
   -6.4770   18.4640  -35.4920 H   0  0  0  0  0  0  0  0  0  0  0  0
   -5.9931   22.4170  -33.2419 H   0  0  0  0  0  0  0  0  0  0  0  0
   -6.8450   25.0450  -31.6820 H   0  0  0  0  0  0  0  0  0  0  0  0
   -4.7923   24.8594  -28.3210 H   0  0  0  0  0  0  0  0  0  0  0  0
   -5.6819   23.3309  -28.6359 H   0  0  0  0  0  0  0  0  0  0  0  0
   -3.8856   23.3410  -28.6359 H   0  0  0  0  0  0  0  0  0  0  0  0
   -8.3349   23.2064  -29.7364 H   0  0  0  0  0  0  0  0  0  0  0  0
   -9.5648   21.0880  -30.0299 H   0  0  0  0  0  0  0  0  0  0  0  0
   -9.4474   18.8757  -30.9942 H   0  0  0  0  0  0  0  0  0  0  0  0
  -10.1301   19.4892  -32.5383 H   0  0  0  0  0  0  0  0  0  0  0  0
   -8.5751   18.5899  -32.5383 H   0  0  0  0  0  0  0  0  0  0  0  0
   -5.4630   20.2050  -31.9370 H   0  0  0  0  0  0  0  0  0  0  0  0
   -3.4033   19.0133  -31.8258 H   0  0  0  0  0  0  0  0  0  0  0  0
  1  2  1  0
  2  3  2  0
  3  4  1  0
  4  5  1  0
  5  6  2  0
  6  7  1  0
  7  8  2  0
  8  9  1  0
  9 10  1  0
 10 11  1  0
 11 12  1  0
 11 13  2  0
 11 14  2  0
  9 15  2  0
 15 16  1  0
 16 17  2  0
 17 18  1  0
  5 19  1  0
 19 20  1  0
 20 21  2  0
 21 22  1  0
 22 23  1  0
 22 24  1  0
 22 25  1  0
 21  3  1  0
 17  7  1  0
  1 26  1  0
  1 27  1  0
  1 28  1  0
  4 29  1  0
  8 30  1  0
 10 31  1  0
 12 32  1  0
 12 33  1  0
 12 34  1  0
 15 35  1  0
 16 36  1  0
 18 37  1  0
 18 38  1  0
 18 39  1  0
 19 40  1  0
 20 41  1  0
M  END
>  <smiles>  (17) 
CN=c1[nH]c(=Nc2cc(NS(C)(=O)=O)ccc2C)[nH]cc1C(F)(F)F

>  <score_type>  (17) 
oracle

>  <origin>  (17) 
adgpu

>  <m_score__min__energy>  (17) 
-8.6799999999999997

>  <m_primary>  (17) 
energy

$$$$
17:0
     RDKit          3D

 52 55  0  0  0  0  0  0  0  0999 V2000
   -1.2610   20.5430  -28.8920 C   0  0  0  0  0  0  0  0  0  0  0  0
   -0.9190   21.4040  -29.9730 O   0  0  0  0  0  0  0  0  0  0  0  0
   -1.1300   21.1000  -31.3260 C   0  0  0  0  0  0  0  0  0  0  0  0
   -2.0860   21.7720  -32.1110 C   0  0  0  0  0  0  0  0  0  0  0  0
   -2.2570   21.4280  -33.4540 C   0  0  0  0  0  0  0  0  0  0  0  0
   -1.4880   20.4130  -34.0250 C   0  0  0  0  0  0  0  0  0  0  0  0
   -0.5430   19.7190  -33.2520 C   0  0  0  0  0  0  0  0  0  0  0  0
    0.2500   18.5670  -33.8380 C   0  0  0  0  0  0  0  0  0  0  0  0
   -0.3380   17.2330  -33.5530 N   0  0  0  0  0  0  0  0  0  0  0  0
   -0.3560   16.3100  -34.7250 C   0  0  0  0  0  0  0  0  0  0  0  0
   -1.7220   15.6470  -35.0060 C   0  0  0  0  0  0  0  0  0  0  0  0
   -2.8460   16.6070  -34.7530 C   0  0  0  0  0  0  0  0  0  0  0  0
   -3.9420   16.7120  -35.6170 C   0  0  0  0  0  0  0  0  0  0  0  0
   -4.9680   17.6190  -35.3380 C   0  0  0  0  0  0  0  0  0  0  0  0
   -4.9210   18.4090  -34.1750 C   0  0  0  0  0  0  0  0  0  0  0  0
   -5.9310   19.3950  -33.9030 N   0  0  0  0  0  0  0  0  0  0  0  0
   -5.9060   20.2710  -32.7660 C   0  0  0  0  0  0  0  0  0  0  0  0
   -4.8250   20.4980  -32.1600 O   0  0  0  0  0  0  0  0  0  0  0  0
   -7.1430   20.9510  -32.3340 C   0  0  0  0  0  0  0  0  0  0  0  0
   -8.3350   20.2140  -32.1520 C   0  0  0  0  0  0  0  0  0  0  0  0
   -8.3790   18.4620  -32.3410 Cl  0  0  0  0  0  0  0  0  0  0  0  0
   -9.5080   20.8650  -31.7590 C   0  0  0  0  0  0  0  0  0  0  0  0
   -9.5100   22.2420  -31.5390 C   0  0  0  0  0  0  0  0  0  0  0  0
   -8.3360   22.9790  -31.7070 C   0  0  0  0  0  0  0  0  0  0  0  0
   -7.1540   22.3440  -32.1010 C   0  0  0  0  0  0  0  0  0  0  0  0
   -5.7170   23.3360  -32.3390 Cl  0  0  0  0  0  0  0  0  0  0  0  0
   -3.8260   18.2890  -33.3070 C   0  0  0  0  0  0  0  0  0  0  0  0
   -2.7890   17.3930  -33.5990 C   0  0  0  0  0  0  0  0  0  0  0  0
   -1.5690   17.2710  -32.7290 C   0  0  0  0  0  0  0  0  0  0  0  0
   -0.3600   20.0850  -31.9070 C   0  0  0  0  0  0  0  0  0  0  0  0
   -1.0584   21.0531  -27.9387 H   0  0  0  0  0  0  0  0  0  0  0  0
   -2.3291   20.2869  -28.9510 H   0  0  0  0  0  0  0  0  0  0  0  0
   -0.6597   19.6238  -28.9510 H   0  0  0  0  0  0  0  0  0  0  0  0
   -2.6994   22.5693  -31.6660 H   0  0  0  0  0  0  0  0  0  0  0  0
   -3.0015   21.9598  -34.0646 H   0  0  0  0  0  0  0  0  0  0  0  0
   -1.6227   20.1553  -35.0859 H   0  0  0  0  0  0  0  0  0  0  0  0
    0.3000   18.6989  -34.9289 H   0  0  0  0  0  0  0  0  0  0  0  0
    1.2440   18.5880  -33.3674 H   0  0  0  0  0  0  0  0  0  0  0  0
   -0.0641   16.8837  -35.6170 H   0  0  0  0  0  0  0  0  0  0  0  0
    0.3415   15.4934  -34.4869 H   0  0  0  0  0  0  0  0  0  0  0  0
   -1.7553   15.3225  -36.0565 H   0  0  0  0  0  0  0  0  0  0  0  0
   -1.8387   14.7847  -34.3331 H   0  0  0  0  0  0  0  0  0  0  0  0
   -3.9959   16.0804  -36.5160 H   0  0  0  0  0  0  0  0  0  0  0  0
   -5.8165   17.7156  -36.0313 H   0  0  0  0  0  0  0  0  0  0  0  0
   -6.7020   19.5160  -34.5960 H   0  0  0  0  0  0  0  0  0  0  0  0
  -10.4345   20.2879  -31.6226 H   0  0  0  0  0  0  0  0  0  0  0  0
  -10.4374   22.7481  -31.2328 H   0  0  0  0  0  0  0  0  0  0  0  0
   -8.3409   24.0644  -31.5286 H   0  0  0  0  0  0  0  0  0  0  0  0
   -3.7811   18.9004  -32.3937 H   0  0  0  0  0  0  0  0  0  0  0  0
   -1.5222   18.1352  -32.0500 H   0  0  0  0  0  0  0  0  0  0  0  0
   -1.6377   16.3360  -32.1537 H   0  0  0  0  0  0  0  0  0  0  0  0
    0.3989   19.5667  -31.3025 H   0  0  0  0  0  0  0  0  0  0  0  0
  1  2  1  0
  2  3  1  0
  3  4  2  0
  4  5  1  0
  5  6  2  0
  6  7  1  0
  7  8  1  0
  8  9  1  0
  9 10  1  0
 10 11  1  0
 11 12  1  0
 12 13  2  0
 13 14  1  0
 14 15  2  0
 15 16  1  0
 16 17  1  0
 17 18  2  0
 17 19  1  0
 19 20  2  0
 20 21  1  0
 20 22  1  0
 22 23  2  0
 23 24  1  0
 24 25  2  0
 25 26  1  0
 15 27  1  0
 27 28  2  0
 28 29  1  0
  7 30  2  0
 30  3  1  0
 29  9  1  0
 28 12  1  0
 25 19  1  0
  1 31  1  0
  1 32  1  0
  1 33  1  0
  4 34  1  0
  5 35  1  0
  6 36  1  0
  8 37  1  0
  8 38  1  0
 10 39  1  0
 10 40  1  0
 11 41  1  0
 11 42  1  0
 13 43  1  0
 14 44  1  0
 16 45  1  0
 22 46  1  0
 23 47  1  0
 24 48  1  0
 27 49  1  0
 29 50  1  0
 29 51  1  0
 30 52  1  0
M  END
>  <UniqueID>  (18) 
16

>  <SMILES>  (18) 
COc1cccc(CN2CCc3ccc(NC(=O)c4c(Cl)cccc4Cl)cc3C2)c1

>  <Energy>  (18) 
75.55568712697199

>  <Genealogy>  (18) 
COc1cccc(CN2CCc3ccc(NC(=O)c4c(Cl)cccc4Cl)cc3C2)c1 (3D coordinates assigned)
COc1cccc(CN2CCc3ccc(NC(=O)c4c(Cl)cccc4Cl)cc3C2)c1 (nonaromatic ring conformer: 75.55568712697199 kcal/mol)

>  <smiles>  (18) 
COc1cccc(CN2CCc3ccc(NC(=O)c4c(Cl)cccc4Cl)cc3C2)c1

>  <score_type>  (18) 
oracle

>  <origin>  (18) 
adgpu

>  <m_score__min__energy>  (18) 
-9.2699999999999996

>  <m_primary>  (18) 
energy

$$$$
18:0
     RDKit          3D

 32 34  0  0  0  0  0  0  0  0999 V2000
   -3.5090   26.3860  -31.2210 H   0  0  0  0  0  0  0  0  0  0  0  0
   -4.1460   25.5950  -30.9760 N   0  0  0  0  0  0  0  0  0  0  0  0
   -3.8630   24.7640  -30.0240 C   0  0  0  0  0  0  0  0  0  0  0  0
   -2.7060   24.9250  -29.3230 N   0  0  0  0  0  0  0  0  0  0  0  0
   -2.3490   24.0900  -28.3120 C   0  0  0  0  0  0  0  0  0  0  0  0
   -1.4063   24.2545  -27.7695 H   0  0  0  0  0  0  0  0  0  0  0  0
   -3.1770   23.0260  -27.9630 C   0  0  0  0  0  0  0  0  0  0  0  0
   -2.8929   22.3464  -27.1460 H   0  0  0  0  0  0  0  0  0  0  0  0
   -4.3700   22.8300  -28.6590 C   0  0  0  0  0  0  0  0  0  0  0  0
   -5.0286   21.9914  -28.3890 H   0  0  0  0  0  0  0  0  0  0  0  0
   -4.7360   23.6970  -29.7030 C   0  0  0  0  0  0  0  0  0  0  0  0
   -6.0130   23.4560  -30.4190 C   0  0  0  0  0  0  0  0  0  0  0  0
   -7.0100   24.3600  -30.5550 N   0  0  0  0  0  0  0  0  0  0  0  0
   -7.9560   23.7510  -31.2490 N   0  0  0  0  0  0  0  0  0  0  0  0
   -8.8660   24.1790  -31.5300 H   0  0  0  0  0  0  0  0  0  0  0  0
   -7.5160   22.5110  -31.5100 C   0  0  0  0  0  0  0  0  0  0  0  0
   -8.1920   21.6390  -32.1970 N   0  0  0  0  0  0  0  0  0  0  0  0
   -7.7950   20.2860  -32.4780 C   0  0  0  0  0  0  0  0  0  0  0  0
   -8.3900   19.2510  -31.7480 C   0  0  0  0  0  0  0  0  0  0  0  0
   -9.1581   19.4844  -30.9959 H   0  0  0  0  0  0  0  0  0  0  0  0
   -8.0150   17.9230  -31.9680 C   0  0  0  0  0  0  0  0  0  0  0  0
   -8.4942   17.1156  -31.3948 H   0  0  0  0  0  0  0  0  0  0  0  0
   -7.0340   17.6180  -32.9130 C   0  0  0  0  0  0  0  0  0  0  0  0
   -6.7433   16.5708  -33.0831 H   0  0  0  0  0  0  0  0  0  0  0  0
   -6.4180   18.6420  -33.6460 C   0  0  0  0  0  0  0  0  0  0  0  0
   -5.3190   18.3200  -34.6160 C   0  0  0  0  0  0  0  0  0  0  0  0
   -4.4072   18.0529  -34.0616 H   0  0  0  0  0  0  0  0  0  0  0  0
   -5.6247   17.4737  -35.2487 H   0  0  0  0  0  0  0  0  0  0  0  0
   -5.1196   19.1975  -35.2487 H   0  0  0  0  0  0  0  0  0  0  0  0
   -6.7820   19.9770  -33.4100 C   0  0  0  0  0  0  0  0  0  0  0  0
   -6.2746   20.7867  -33.9548 H   0  0  0  0  0  0  0  0  0  0  0  0
   -6.3210   22.3190  -31.0100 O   0  0  0  0  0  0  0  0  0  0  0  0
  1  2  1  0
  2  3  2  0
  3  4  1  0
  4  5  1  0
  5  6  1  0
  5  7  2  0
  7  8  1  0
  7  9  1  0
  9 10  1  0
  9 11  2  0
 11 12  1  0
 12 13  2  0
 13 14  1  0
 14 15  1  0
 14 16  1  0
 16 17  2  0
 17 18  1  0
 18 19  2  0
 19 20  1  0
 19 21  1  0
 21 22  1  0
 21 23  2  0
 23 24  1  0
 23 25  1  0
 25 26  1  0
 26 27  1  0
 26 28  1  0
 26 29  1  0
 25 30  2  0
 30 31  1  0
 16 32  1  0
 11  3  1  0
 32 12  1  0
 30 18  1  0
M  CHG  1   4  -1
M  END
>  <UniqueID>  (19) 
17

>  <SMILES>  (19) 
[H]/N=c1\[n-]cccc1-c1n[nH]/c(=N/c2cccc(C)c2)o1

>  <Energy>  (19) 
77.51304976589643

>  <Genealogy>  (19) 
Cc1cccc(N=c2[nH]nc(-c3ccc[n-]c3=N)o2)c1 (protonated)
[H]/N=c1\[n-]cccc1-c1n[nH]/c(=N/c2cccc(C)c2)o1 (cis-trans isomerization)
[H]/N=c1\[n-]cccc1-c1n[nH]/c(=N/c2cccc(C)c2)o1 (3D coordinates assigned)
[H]/N=c1\[n-]cccc1-c1n[nH]/c(=N/c2cccc(C)c2)o1 (optimized conformer: 77.51304976589643 kcal/mol)

>  <smiles>  (19) 
Cc1cccc(N=c2[nH]nc(-c3ccc[nH]c3=N)o2)c1

>  <score_type>  (19) 
oracle

>  <origin>  (19) 
adgpu

>  <m_score__min__energy>  (19) 
-10.23

>  <m_primary>  (19) 
energy

$$$$
19:0
     RDKit          3D

 36 39  0  0  0  0  0  0  0  0999 V2000
   -3.8810   25.6760  -30.3860 O   0  0  0  0  0  0  0  0  0  0  0  0
   -4.6480   24.5390  -30.6420 C   0  0  0  0  0  0  0  0  0  0  0  0
   -5.7530   24.6270  -31.5020 C   0  0  0  0  0  0  0  0  0  0  0  0
   -6.5030   23.4890  -31.8060 C   0  0  0  0  0  0  0  0  0  0  0  0
   -6.1530   22.2550  -31.2590 C   0  0  0  0  0  0  0  0  0  0  0  0
   -5.0590   22.1560  -30.3970 C   0  0  0  0  0  0  0  0  0  0  0  0
   -4.3050   23.2960  -30.0640 C   0  0  0  0  0  0  0  0  0  0  0  0
   -3.1550   23.1550  -29.1410 C   0  0  0  0  0  0  0  0  0  0  0  0
   -2.4650   21.9410  -29.0100 C   0  0  0  0  0  0  0  0  0  0  0  0
   -1.3720   21.8470  -28.1310 C   0  0  0  0  0  0  0  0  0  0  0  0
   -0.6360   20.5670  -27.9650 C   0  0  0  0  0  0  0  0  0  0  0  0
   -1.1700   19.3400  -27.5700 C   0  0  0  0  0  0  0  0  0  0  0  0
   -0.2220   18.3110  -27.5010 C   0  0  0  0  0  0  0  0  0  0  0  0
    1.0630   18.7110  -27.8350 C   0  0  0  0  0  0  0  0  0  0  0  0
    1.0170   20.3450  -28.2150 S   0  0  0  0  0  0  0  0  0  0  0  0
   -0.9790   22.9910  -27.4160 C   0  0  0  0  0  0  0  0  0  0  0  0
   -1.6710   24.2020  -27.5890 C   0  0  0  0  0  0  0  0  0  0  0  0
   -1.2880   25.4390  -26.8630 C   0  0  0  0  0  0  0  0  0  0  0  0
   -1.5730   25.7030  -25.5080 C   0  0  0  0  0  0  0  0  0  0  0  0
   -1.0970   26.9280  -25.0640 C   0  0  0  0  0  0  0  0  0  0  0  0
   -0.3190   27.6850  -26.3430 S   0  0  0  0  0  0  0  0  0  0  0  0
   -0.5740   26.4700  -27.4740 C   0  0  0  0  0  0  0  0  0  0  0  0
   -2.7310   24.2410  -28.4400 N   0  0  0  0  0  0  0  0  0  0  0  0
   -3.1130   25.6610  -29.7260 H   0  0  0  0  0  0  0  0  0  0  0  0
   -6.0301   25.5976  -31.9391 H   0  0  0  0  0  0  0  0  0  0  0  0
   -7.3707   23.5661  -32.4776 H   0  0  0  0  0  0  0  0  0  0  0  0
   -6.7397   21.3581  -31.5070 H   0  0  0  0  0  0  0  0  0  0  0  0
   -4.7844   21.1781  -29.9747 H   0  0  0  0  0  0  0  0  0  0  0  0
   -2.7787   21.0635  -29.5944 H   0  0  0  0  0  0  0  0  0  0  0  0
   -2.2347   19.1944  -27.3350 H   0  0  0  0  0  0  0  0  0  0  0  0
   -0.4737   17.2808  -27.2088 H   0  0  0  0  0  0  0  0  0  0  0  0
    1.9564   18.0694  -27.8485 H   0  0  0  0  0  0  0  0  0  0  0  0
   -0.1287   22.9387  -26.7201 H   0  0  0  0  0  0  0  0  0  0  0  0
   -2.1223   25.0022  -24.8621 H   0  0  0  0  0  0  0  0  0  0  0  0
   -1.2103   27.3334  -24.0477 H   0  0  0  0  0  0  0  0  0  0  0  0
   -0.2351   26.4847  -28.5204 H   0  0  0  0  0  0  0  0  0  0  0  0
  1  2  1  0
  2  3  2  0
  3  4  1  0
  4  5  2  0
  5  6  1  0
  6  7  2  0
  7  8  1  0
  8  9  2  0
  9 10  1  0
 10 11  1  0
 11 12  2  0
 12 13  1  0
 13 14  2  0
 14 15  1  0
 10 16  2  0
 16 17  1  0
 17 18  1  0
 18 19  1  0
 19 20  2  0
 20 21  1  0
 21 22  1  0
 17 23  2  0
  7  2  1  0
 23  8  1  0
 15 11  1  0
 22 18  2  0
  1 24  1  0
  3 25  1  0
  4 26  1  0
  5 27  1  0
  6 28  1  0
  9 29  1  0
 12 30  1  0
 13 31  1  0
 14 32  1  0
 16 33  1  0
 19 34  1  0
 20 35  1  0
 22 36  1  0
M  END
>  <UniqueID>  (20) 
18

>  <SMILES>  (20) 
Oc1ccccc1-c1cc(-c2cccs2)cc(-c2ccsc2)n1

>  <Energy>  (20) 
102.35852147548896

>  <Genealogy>  (20) 
Oc1ccccc1-c1cc(-c2cccs2)cc(-c2ccsc2)n1 (3D coordinates assigned)
Oc1ccccc1-c1cc(-c2cccs2)cc(-c2ccsc2)n1 (optimized conformer: 102.35852147548896 kcal/mol)

>  <smiles>  (20) 
Oc1ccccc1-c1cc(-c2cccs2)cc(-c2ccsc2)n1

>  <score_type>  (20) 
oracle

>  <origin>  (20) 
adgpu

>  <m_score__min__energy>  (20) 
-8.9100000000000001

>  <m_primary>  (20) 
energy

$$$$
20:0
     RDKit          3D

 39 40  0  0  0  0  0  0  0  0999 V2000
   -2.5560   19.9230  -33.6560 C   0  0  0  0  0  0  0  0  0  0  0  0
   -3.9450   20.0120  -33.3640 O   0  0  0  0  0  0  0  0  0  0  0  0
   -4.5640   21.2130  -33.0030 C   0  0  0  0  0  0  0  0  0  0  0  0
   -3.9290   22.3000  -33.0880 O   0  0  0  0  0  0  0  0  0  0  0  0
   -5.9810   21.2030  -32.5720 C   0  0  0  0  0  0  0  0  0  0  0  0
   -6.7560   20.0680  -32.8690 C   0  0  0  0  0  0  0  0  0  0  0  0
   -8.1120   20.0250  -32.5470 C   0  0  0  0  0  0  0  0  0  0  0  0
   -8.7140   21.1130  -31.9200 C   0  0  0  0  0  0  0  0  0  0  0  0
   -7.9620   22.2410  -31.5990 C   0  0  0  0  0  0  0  0  0  0  0  0
   -6.5880   22.3060  -31.9100 C   0  0  0  0  0  0  0  0  0  0  0  0
   -5.7990   23.4380  -31.4840 N   0  0  0  0  0  0  0  0  0  0  0  0
   -6.3410   24.6120  -30.7940 C   0  0  0  0  0  0  0  0  0  0  0  0
   -5.2530   25.6010  -30.4720 C   0  0  0  0  0  0  0  0  0  0  0  0
   -5.5700   26.7610  -30.1010 O   0  0  0  0  0  0  0  0  0  0  0  0
   -3.8650   25.2360  -30.4740 N   0  0  0  0  0  0  0  0  0  0  0  0
   -3.2650   24.1450  -29.7640 C   0  0  0  0  0  0  0  0  0  0  0  0
   -3.2180   24.1870  -28.3650 C   0  0  0  0  0  0  0  0  0  0  0  0
   -2.6050   23.1560  -27.6470 C   0  0  0  0  0  0  0  0  0  0  0  0
   -2.0220   22.0810  -28.3230 C   0  0  0  0  0  0  0  0  0  0  0  0
   -2.0480   22.0320  -29.7250 C   0  0  0  0  0  0  0  0  0  0  0  0
   -1.3680   20.9130  -30.4580 C   0  0  0  0  0  0  0  0  0  0  0  0
   -2.6490   23.0790  -30.4400 C   0  0  0  0  0  0  0  0  0  0  0  0
   -1.9854   19.8864  -32.7163 H   0  0  0  0  0  0  0  0  0  0  0  0
   -2.3616   19.0106  -34.2388 H   0  0  0  0  0  0  0  0  0  0  0  0
   -2.2467   20.8032  -34.2388 H   0  0  0  0  0  0  0  0  0  0  0  0
   -6.2868   19.2034  -33.3614 H   0  0  0  0  0  0  0  0  0  0  0  0
   -8.7064   19.1314  -32.7883 H   0  0  0  0  0  0  0  0  0  0  0  0
   -9.7865   21.0817  -31.6775 H   0  0  0  0  0  0  0  0  0  0  0  0
   -8.4460   23.0915  -31.0967 H   0  0  0  0  0  0  0  0  0  0  0  0
   -4.7650   23.4080  -31.6230 H   0  0  0  0  0  0  0  0  0  0  0  0
   -7.0870   25.0965  -31.4411 H   0  0  0  0  0  0  0  0  0  0  0  0
   -6.8030   24.2815  -29.8520 H   0  0  0  0  0  0  0  0  0  0  0  0
   -3.6660   25.0361  -27.8280 H   0  0  0  0  0  0  0  0  0  0  0  0
   -2.5816   23.1911  -26.5478 H   0  0  0  0  0  0  0  0  0  0  0  0
   -1.5414   21.2711  -27.7546 H   0  0  0  0  0  0  0  0  0  0  0  0
   -0.9388   20.2067  -29.7322 H   0  0  0  0  0  0  0  0  0  0  0  0
   -2.1009   20.3896  -31.0896 H   0  0  0  0  0  0  0  0  0  0  0  0
   -0.5658   21.3225  -31.0896 H   0  0  0  0  0  0  0  0  0  0  0  0
   -2.6376   23.0649  -31.5399 H   0  0  0  0  0  0  0  0  0  0  0  0
  1  2  1  0
  2  3  1  0
  3  4  2  0
  3  5  1  0
  5  6  2  0
  6  7  1  0
  7  8  2  0
  8  9  1  0
  9 10  2  0
 10 11  1  0
 11 12  1  0
 12 13  1  0
 13 14  2  0
 13 15  1  0
 15 16  1  0
 16 17  2  0
 17 18  1  0
 18 19  2  0
 19 20  1  0
 20 21  1  0
 20 22  2  0
 10  5  1  0
 22 16  1  0
  1 23  1  0
  1 24  1  0
  1 25  1  0
  6 26  1  0
  7 27  1  0
  8 28  1  0
  9 29  1  0
 11 30  1  0
 12 31  1  0
 12 32  1  0
 17 33  1  0
 18 34  1  0
 19 35  1  0
 21 36  1  0
 21 37  1  0
 21 38  1  0
 22 39  1  0
M  CHG  1  15  -1
M  END
>  <UniqueID>  (21) 
19

>  <SMILES>  (21) 
COC(=O)c1ccccc1NCC(=O)[N-]c1cccc(C)c1

>  <Energy>  (21) 
45.93995911400414

>  <Genealogy>  (21) 
COC(=O)c1ccccc1NCC(=O)[N-]c1cccc(C)c1 (protonated)
COC(=O)c1ccccc1NCC(=O)[N-]c1cccc(C)c1 (3D coordinates assigned)
COC(=O)c1ccccc1NCC(=O)[N-]c1cccc(C)c1 (optimized conformer: 45.93995911400414 kcal/mol)

>  <smiles>  (21) 
COC(=O)c1ccccc1NCC(=O)Nc1cccc(C)c1

>  <score_type>  (21) 
oracle

>  <origin>  (21) 
adgpu

>  <m_score__min__energy>  (21) 
-9.1500000000000004

>  <m_primary>  (21) 
energy

$$$$
21:0
     RDKit          3D

 42 45  0  0  0  0  0  0  0  0999 V2000
   -0.6180   21.3840  -31.9370 C   0  0  0  0  0  0  0  0  0  0  0  0
   -2.0850   21.4760  -31.9870 N   0  0  0  0  0  0  0  0  0  0  0  0
   -2.6950   20.5950  -30.9620 C   0  0  0  0  0  0  0  0  0  0  0  0
   -4.1640   20.2210  -31.2620 C   0  0  0  0  0  0  0  0  0  0  0  0
   -4.7740   21.1430  -32.2290 N   0  0  0  0  0  0  0  0  0  0  0  0
   -6.0880   21.6620  -31.9890 C   0  0  0  0  0  0  0  0  0  0  0  0
   -7.1620   20.9570  -32.4350 N   0  0  0  0  0  0  0  0  0  0  0  0
   -8.4300   21.4170  -32.2850 C   0  0  0  0  0  0  0  0  0  0  0  0
   -8.6410   22.6470  -31.6670 C   0  0  0  0  0  0  0  0  0  0  0  0
   -7.5770   23.3560  -31.2110 N   0  0  0  0  0  0  0  0  0  0  0  0
   -6.3000   22.9030  -31.3430 C   0  0  0  0  0  0  0  0  0  0  0  0
   -5.2080   23.7220  -30.7790 C   0  0  0  0  0  0  0  0  0  0  0  0
   -4.8770   24.9570  -31.2030 N   0  0  0  0  0  0  0  0  0  0  0  0
   -3.8570   25.2980  -30.4770 O   0  0  0  0  0  0  0  0  0  0  0  0
   -3.5540   24.3310  -29.6460 C   0  0  0  0  0  0  0  0  0  0  0  0
   -2.4420   24.3650  -28.6630 C   0  0  0  0  0  0  0  0  0  0  0  0
   -1.1280   24.1340  -29.1180 C   0  0  0  0  0  0  0  0  0  0  0  0
   -0.0500   24.1570  -28.2300 C   0  0  0  0  0  0  0  0  0  0  0  0
   -0.2630   24.4120  -26.8770 C   0  0  0  0  0  0  0  0  0  0  0  0
   -1.5570   24.6430  -26.4060 C   0  0  0  0  0  0  0  0  0  0  0  0
   -2.6490   24.6220  -27.2840 C   0  0  0  0  0  0  0  0  0  0  0  0
   -4.2410   24.9200  -26.5930 Cl  0  0  0  0  0  0  0  0  0  0  0  0
   -4.3900   23.2840  -29.8000 N   0  0  0  0  0  0  0  0  0  0  0  0
   -4.0460   21.5700  -33.4270 C   0  0  0  0  0  0  0  0  0  0  0  0
   -2.5770   21.1610  -33.3370 C   0  0  0  0  0  0  0  0  0  0  0  0
   -0.2875   21.3633  -30.8880 H   0  0  0  0  0  0  0  0  0  0  0  0
   -0.2909   20.4636  -32.4428 H   0  0  0  0  0  0  0  0  0  0  0  0
   -0.1785   22.2563  -32.4428 H   0  0  0  0  0  0  0  0  0  0  0  0
   -2.1051   19.6683  -30.9045 H   0  0  0  0  0  0  0  0  0  0  0  0
   -2.6916   21.1530  -30.0140 H   0  0  0  0  0  0  0  0  0  0  0  0
   -4.1951   19.2013  -31.6735 H   0  0  0  0  0  0  0  0  0  0  0  0
   -4.7323   20.2851  -30.3224 H   0  0  0  0  0  0  0  0  0  0  0  0
   -9.2825   20.8242  -32.6480 H   0  0  0  0  0  0  0  0  0  0  0  0
   -9.6614   23.0407  -31.5493 H   0  0  0  0  0  0  0  0  0  0  0  0
   -0.9495   23.9333  -30.1847 H   0  0  0  0  0  0  0  0  0  0  0  0
    0.9695   23.9733  -28.5999 H   0  0  0  0  0  0  0  0  0  0  0  0
    0.5879   24.4313  -26.1801 H   0  0  0  0  0  0  0  0  0  0  0  0
   -1.7206   24.8431  -25.3368 H   0  0  0  0  0  0  0  0  0  0  0  0
   -4.4988   21.0995  -34.3122 H   0  0  0  0  0  0  0  0  0  0  0  0
   -4.1051   22.6655  -33.5066 H   0  0  0  0  0  0  0  0  0  0  0  0
   -2.4806   20.0813  -33.5242 H   0  0  0  0  0  0  0  0  0  0  0  0
   -1.9879   21.7065  -34.0889 H   0  0  0  0  0  0  0  0  0  0  0  0
  1  2  1  0
  2  3  1  0
  3  4  1  0
  4  5  1  0
  5  6  1  0
  6  7  2  0
  7  8  1  0
  8  9  2  0
  9 10  1  0
 10 11  2  0
 11 12  1  0
 12 13  2  0
 13 14  1  0
 14 15  1  0
 15 16  1  0
 16 17  2  0
 17 18  1  0
 18 19  2  0
 19 20  1  0
 20 21  2  0
 21 22  1  0
 15 23  2  0
  5 24  1  0
 24 25  1  0
 25  2  1  0
 11  6  1  0
 23 12  1  0
 21 16  1  0
  1 26  1  0
  1 27  1  0
  1 28  1  0
  3 29  1  0
  3 30  1  0
  4 31  1  0
  4 32  1  0
  8 33  1  0
  9 34  1  0
 17 35  1  0
 18 36  1  0
 19 37  1  0
 20 38  1  0
 24 39  1  0
 24 40  1  0
 25 41  1  0
 25 42  1  0
M  END
>  <UniqueID>  (22) 
20

>  <SMILES>  (22) 
CN1CCN(c2nccnc2-c2noc(-c3ccccc3Cl)n2)CC1

>  <Energy>  (22) 
95.82748252813388

>  <Genealogy>  (22) 
CN1CCN(c2nccnc2-c2noc(-c3ccccc3Cl)n2)CC1 (3D coordinates assigned)
CN1CCN(c2nccnc2-c2noc(-c3ccccc3Cl)n2)CC1 (nonaromatic ring conformer: 95.82748252813388 kcal/mol)

>  <smiles>  (22) 
CN1CCN(c2nccnc2-c2noc(-c3ccccc3Cl)n2)CC1

>  <score_type>  (22) 
oracle

>  <origin>  (22) 
adgpu

>  <m_score__min__energy>  (22) 
-8.5099999999999998

>  <m_primary>  (22) 
energy

$$$$
22:0
     RDKit          3D

 24 26  0  0  0  0  0  0  0  0999 V2000
   -9.6800   21.6110  -30.2200 F   0  0  0  0  0  0  0  0  0  0  0  0
   -9.0100   21.7050  -31.4270 C   0  0  0  0  0  0  0  0  0  0  0  0
   -9.8170   22.3560  -32.3410 F   0  0  0  0  0  0  0  0  0  0  0  0
   -8.7560   20.4240  -31.8830 F   0  0  0  0  0  0  0  0  0  0  0  0
   -7.7260   22.4780  -31.2620 C   0  0  0  0  0  0  0  0  0  0  0  0
   -7.1160   23.0970  -32.3870 C   0  0  0  0  0  0  0  0  0  0  0  0
   -5.8930   23.7830  -32.2560 C   0  0  0  0  0  0  0  0  0  0  0  0
   -5.3040   23.8130  -30.9960 C   0  0  0  0  0  0  0  0  0  0  0  0
   -4.1510   24.3880  -30.6310 N   0  0  0  0  0  0  0  0  0  0  0  0
   -4.0520   24.1030  -29.3080 C   0  0  0  0  0  0  0  0  0  0  0  0
   -2.9230   24.5380  -28.4720 C   0  0  0  0  0  0  0  0  0  0  0  0
   -2.8220   24.2450  -27.1140 C   0  0  0  0  0  0  0  0  0  0  0  0
   -1.3910   24.9270  -26.5540 S   0  0  0  0  0  0  0  0  0  0  0  0
   -0.9620   25.5620  -28.0490 C   0  0  0  0  0  0  0  0  0  0  0  0
   -1.8910   25.2650  -28.9830 N   0  0  0  0  0  0  0  0  0  0  0  0
   -5.0930   23.3710  -28.8280 N   0  0  0  0  0  0  0  0  0  0  0  0
   -5.8680   23.2060  -29.9160 C   0  0  0  0  0  0  0  0  0  0  0  0
   -7.0750   22.5190  -30.0060 C   0  0  0  0  0  0  0  0  0  0  0  0
   -7.6047   23.0395  -33.3708 H   0  0  0  0  0  0  0  0  0  0  0  0
   -5.4209   24.2768  -33.1181 H   0  0  0  0  0  0  0  0  0  0  0  0
   -3.4860   24.9260  -31.2300 H   0  0  0  0  0  0  0  0  0  0  0  0
   -3.5465   23.6719  -26.5168 H   0  0  0  0  0  0  0  0  0  0  0  0
   -0.0472   26.1418  -28.2413 H   0  0  0  0  0  0  0  0  0  0  0  0
   -7.5104   22.0223  -29.1264 H   0  0  0  0  0  0  0  0  0  0  0  0
  1  2  1  0
  2  3  1  0
  2  4  1  0
  2  5  1  0
  5  6  2  0
  6  7  1  0
  7  8  2  0
  8  9  1  0
  9 10  1  0
 10 11  1  0
 11 12  2  0
 12 13  1  0
 13 14  1  0
 14 15  2  0
 10 16  2  0
 16 17  1  0
 17 18  2  0
 18  5  1  0
 17  8  1  0
 15 11  1  0
  6 19  1  0
  7 20  1  0
  9 21  1  0
 12 22  1  0
 14 23  1  0
 18 24  1  0
M  END
>  <UniqueID>  (23) 
21

>  <SMILES>  (23) 
FC(F)(F)c1ccc2[nH]c(-c3cscn3)nc2c1

>  <Energy>  (23) 
91.9513364649351

>  <Genealogy>  (23) 
FC(F)(F)c1ccc2[nH]c(-c3cscn3)nc2c1 (3D coordinates assigned)
FC(F)(F)c1ccc2[nH]c(-c3cscn3)nc2c1 (optimized conformer: 91.9513364649351 kcal/mol)

>  <smiles>  (23) 
FC(F)(F)c1ccc2[nH]c(-c3cscn3)nc2c1

>  <score_type>  (23) 
oracle

>  <origin>  (23) 
adgpu

>  <m_score__min__energy>  (23) 
-6.1399999999999997

>  <m_primary>  (23) 
energy

$$$$
23:0
     RDKit          3D

 38 41  0  0  0  0  0  0  0  0999 V2000
   -4.5960   25.8110  -31.2350 H   0  0  0  0  0  0  0  0  0  0  0  0
   -3.8470   25.3020  -30.7150 N   0  0  0  0  0  0  0  0  0  0  0  0
   -3.7870   24.0080  -30.7030 C   0  0  0  0  0  0  0  0  0  0  0  0
   -4.7180   23.2870  -31.3840 N   0  0  0  0  0  0  0  0  0  0  0  0
   -4.7030   21.9300  -31.4270 C   0  0  0  0  0  0  0  0  0  0  0  0
   -5.7560   21.2240  -32.1810 C   0  0  0  0  0  0  0  0  0  0  0  0
   -5.5430   20.3860  -33.2730 C   0  0  0  0  0  0  0  0  0  0  0  0
   -4.5568   20.1537  -33.7014 H   0  0  0  0  0  0  0  0  0  0  0  0
   -6.7160   19.8980  -33.7330 N   0  0  0  0  0  0  0  0  0  0  0  0
   -6.8490   19.2460  -34.5390 H   0  0  0  0  0  0  0  0  0  0  0  0
   -7.6690   20.4020  -32.9330 C   0  0  0  0  0  0  0  0  0  0  0  0
   -9.0390   20.1500  -32.9960 C   0  0  0  0  0  0  0  0  0  0  0  0
   -9.4614   19.5069  -33.7821 H   0  0  0  0  0  0  0  0  0  0  0  0
   -9.8640   20.7430  -32.0240 C   0  0  0  0  0  0  0  0  0  0  0  0
  -10.9505   20.5732  -32.0515 H   0  0  0  0  0  0  0  0  0  0  0  0
   -9.3060   21.5550  -31.0130 C   0  0  0  0  0  0  0  0  0  0  0  0
   -9.9600   22.0064  -30.2524 H   0  0  0  0  0  0  0  0  0  0  0  0
   -7.9210   21.7910  -30.9710 C   0  0  0  0  0  0  0  0  0  0  0  0
   -7.4758   22.4116  -30.1794 H   0  0  0  0  0  0  0  0  0  0  0  0
   -7.1260   21.2130  -31.9660 C   0  0  0  0  0  0  0  0  0  0  0  0
   -3.7220   21.2300  -30.7140 C   0  0  0  0  0  0  0  0  0  0  0  0
   -3.7189   20.1300  -30.7192 H   0  0  0  0  0  0  0  0  0  0  0  0
   -2.7430   21.9300  -29.9930 C   0  0  0  0  0  0  0  0  0  0  0  0
   -1.7200   21.1570  -29.2470 C   0  0  0  0  0  0  0  0  0  0  0  0
   -1.9380   20.7840  -27.9090 C   0  0  0  0  0  0  0  0  0  0  0  0
   -2.8702   21.0769  -27.4039 H   0  0  0  0  0  0  0  0  0  0  0  0
   -0.9760   20.0430  -27.2180 C   0  0  0  0  0  0  0  0  0  0  0  0
   -1.1503   19.7597  -26.1695 H   0  0  0  0  0  0  0  0  0  0  0  0
    0.2070   19.6610  -27.8560 C   0  0  0  0  0  0  0  0  0  0  0  0
    0.9635   19.0799  -27.3082 H   0  0  0  0  0  0  0  0  0  0  0  0
    0.4310   20.0170  -29.1920 C   0  0  0  0  0  0  0  0  0  0  0  0
    1.6040   19.6380  -29.8410 O   0  0  0  0  0  0  0  0  0  0  0  0
    1.5860   19.1990  -30.7540 H   0  0  0  0  0  0  0  0  0  0  0  0
   -0.5320   20.7590  -29.8850 C   0  0  0  0  0  0  0  0  0  0  0  0
   -0.3583   21.0328  -30.9361 H   0  0  0  0  0  0  0  0  0  0  0  0
   -2.7650   23.3420  -29.9970 C   0  0  0  0  0  0  0  0  0  0  0  0
   -1.7360   24.1070  -29.3210 C   0  0  0  0  0  0  0  0  0  0  0  0
   -0.9140   24.7180  -28.7820 N   0  0  0  0  0  0  0  0  0  0  0  0
  1  2  1  0
  2  3  2  0
  3  4  1  0
  4  5  1  0
  5  6  1  0
  6  7  2  0
  7  8  1  0
  7  9  1  0
  9 10  1  0
  9 11  1  0
 11 12  2  0
 12 13  1  0
 12 14  1  0
 14 15  1  0
 14 16  2  0
 16 17  1  0
 16 18  1  0
 18 19  1  0
 18 20  2  0
  5 21  2  0
 21 22  1  0
 21 23  1  0
 23 24  1  0
 24 25  2  0
 25 26  1  0
 25 27  1  0
 27 28  1  0
 27 29  2  0
 29 30  1  0
 29 31  1  0
 31 32  1  0
 32 33  1  0
 31 34  2  0
 34 35  1  0
 23 36  2  0
 36 37  1  0
 37 38  3  0
 36  3  1  0
 20  6  1  0
 34 24  1  0
 20 11  1  0
M  CHG  1   4  -1
M  END
>  <UniqueID>  (24) 
22

>  <SMILES>  (24) 
[H]/N=c1\[n-]c(-c2c[nH]c3ccccc23)cc(-c2cccc(O)c2)c1C#N

>  <Energy>  (24) 
87.83992284090355

>  <Genealogy>  (24) 
N#Cc1c(-c2cccc(O)c2)cc(-c2c[nH]c3ccccc23)[n-]c1=N (protonated)
[H]/N=c1\[n-]c(-c2c[nH]c3ccccc23)cc(-c2cccc(O)c2)c1C#N (cis-trans isomerization)
[H]/N=c1\[n-]c(-c2c[nH]c3ccccc23)cc(-c2cccc(O)c2)c1C#N (3D coordinates assigned)
[H]/N=c1\[n-]c(-c2c[nH]c3ccccc23)cc(-c2cccc(O)c2)c1C#N (optimized conformer: 87.83992284090355 kcal/mol)

>  <smiles>  (24) 
N#Cc1c(-c2cccc(O)c2)cc(-c2c[nH]c3ccccc23)[nH]c1=N

>  <score_type>  (24) 
oracle

>  <origin>  (24) 
adgpu

>  <m_score__min__energy>  (24) 
-10.69

>  <m_primary>  (24) 
energy

$$$$
24:0
     RDKit          3D

 36 38  0  0  0  0  0  0  0  0999 V2000
   -3.2840   16.0680  -35.9980 N   0  0  0  0  0  0  0  0  0  0  0  0
   -4.0000   16.4740  -35.1850 C   0  0  0  0  0  0  0  0  0  0  0  0
   -4.8920   16.9760  -34.1720 C   0  0  0  0  0  0  0  0  0  0  0  0
   -5.1750   16.2020  -33.0400 C   0  0  0  0  0  0  0  0  0  0  0  0
   -6.0530   16.6850  -32.0660 C   0  0  0  0  0  0  0  0  0  0  0  0
   -6.6430   17.9430  -32.2140 C   0  0  0  0  0  0  0  0  0  0  0  0
   -6.3480   18.7390  -33.3320 C   0  0  0  0  0  0  0  0  0  0  0  0
   -6.9880   20.0180  -33.4760 N   0  0  0  0  0  0  0  0  0  0  0  0
   -6.6480   21.1870  -32.7110 C   0  0  0  0  0  0  0  0  0  0  0  0
   -7.6490   21.8540  -31.9880 C   0  0  0  0  0  0  0  0  0  0  0  0
   -7.3380   22.9770  -31.2160 C   0  0  0  0  0  0  0  0  0  0  0  0
   -6.0160   23.4370  -31.1430 C   0  0  0  0  0  0  0  0  0  0  0  0
   -5.6140   24.8440  -30.1660 S   0  0  0  0  0  0  0  0  0  0  0  0
   -4.5980   25.6750  -30.8960 O   0  0  0  0  0  0  0  0  0  0  0  0
   -6.8400   25.6780  -29.9120 O   0  0  0  0  0  0  0  0  0  0  0  0
   -4.9570   24.3370  -28.6450 N   0  0  0  0  0  0  0  0  0  0  0  0
   -3.5560   24.0960  -28.4760 C   0  0  0  0  0  0  0  0  0  0  0  0
   -3.0680   23.0430  -27.7110 C   0  0  0  0  0  0  0  0  0  0  0  0
   -1.3910   23.1200  -27.7610 S   0  0  0  0  0  0  0  0  0  0  0  0
   -1.3570   24.4820  -28.7470 C   0  0  0  0  0  0  0  0  0  0  0  0
   -2.6080   24.8900  -29.0480 N   0  0  0  0  0  0  0  0  0  0  0  0
   -5.0100   22.7650  -31.8490 C   0  0  0  0  0  0  0  0  0  0  0  0
   -5.3200   21.6420  -32.6210 C   0  0  0  0  0  0  0  0  0  0  0  0
   -5.4830   18.2380  -34.3220 C   0  0  0  0  0  0  0  0  0  0  0  0
   -4.7065   15.2143  -32.9175 H   0  0  0  0  0  0  0  0  0  0  0  0
   -6.2803   16.0733  -31.1805 H   0  0  0  0  0  0  0  0  0  0  0  0
   -7.3429   18.3118  -31.4497 H   0  0  0  0  0  0  0  0  0  0  0  0
   -7.7530   20.1050  -34.1830 H   0  0  0  0  0  0  0  0  0  0  0  0
   -8.6863   21.4902  -32.0292 H   0  0  0  0  0  0  0  0  0  0  0  0
   -8.1326   23.5009  -30.6645 H   0  0  0  0  0  0  0  0  0  0  0  0
   -5.6030   24.2270  -27.8330 H   0  0  0  0  0  0  0  0  0  0  0  0
   -3.6697   22.2964  -27.1719 H   0  0  0  0  0  0  0  0  0  0  0  0
   -0.4386   24.9743  -29.0993 H   0  0  0  0  0  0  0  0  0  0  0  0
   -3.9712   23.1228  -31.7956 H   0  0  0  0  0  0  0  0  0  0  0  0
   -4.5218   21.1114  -33.1608 H   0  0  0  0  0  0  0  0  0  0  0  0
   -5.2695   18.8395  -35.2179 H   0  0  0  0  0  0  0  0  0  0  0  0
  1  2  3  0
  2  3  1  0
  3  4  2  0
  4  5  1  0
  5  6  2  0
  6  7  1  0
  7  8  1  0
  8  9  1  0
  9 10  2  0
 10 11  1  0
 11 12  2  0
 12 13  1  0
 13 14  2  0
 13 15  2  0
 13 16  1  0
 16 17  1  0
 17 18  2  0
 18 19  1  0
 19 20  1  0
 20 21  2  0
 12 22  1  0
 22 23  2  0
  7 24  2  0
 24  3  1  0
 23  9  1  0
 21 17  1  0
  4 25  1  0
  5 26  1  0
  6 27  1  0
  8 28  1  0
 10 29  1  0
 11 30  1  0
 16 31  1  0
 18 32  1  0
 20 33  1  0
 22 34  1  0
 23 35  1  0
 24 36  1  0
M  END
>  <UniqueID>  (25) 
23

>  <SMILES>  (25) 
N#Cc1cccc(Nc2ccc(S(=O)(=O)Nc3cscn3)cc2)c1

>  <Energy>  (25) 
73.17902770436216

>  <Genealogy>  (25) 
N#Cc1cccc(Nc2ccc(S(=O)(=O)Nc3cscn3)cc2)c1 (3D coordinates assigned)
N#Cc1cccc(Nc2ccc(S(=O)(=O)Nc3cscn3)cc2)c1 (optimized conformer: 73.17902770436216 kcal/mol)

>  <smiles>  (25) 
N#Cc1cccc(Nc2ccc(S(=O)(=O)Nc3cscn3)cc2)c1

>  <score_type>  (25) 
oracle

>  <origin>  (25) 
adgpu

>  <m_score__min__energy>  (25) 
-9.5199999999999996

>  <m_primary>  (25) 
energy

$$$$
25:0
     RDKit          3D

 30 32  0  0  0  0  0  0  0  0999 V2000
   -3.3840   21.5590  -27.8350 C   0  0  0  0  0  0  0  0  0  0  0  0
   -3.3170   21.6600  -29.3310 C   0  0  0  0  0  0  0  0  0  0  0  0
   -2.9240   20.6130  -30.0700 C   0  0  0  0  0  0  0  0  0  0  0  0
   -2.6820   20.7700  -31.8550 S   0  0  0  0  0  0  0  0  0  0  0  0
   -4.2320   21.7130  -32.1940 C   0  0  1  0  0  0  0  0  0  0  0  0
   -4.2220   22.1670  -33.5230 O   0  0  0  0  0  0  0  0  0  0  0  0
   -5.4670   20.8350  -31.9620 C   0  0  0  0  0  0  0  0  0  0  0  0
   -5.3360   19.4330  -32.0010 C   0  0  0  0  0  0  0  0  0  0  0  0
   -6.4430   18.6050  -31.8210 C   0  0  0  0  0  0  0  0  0  0  0  0
   -7.7060   19.1560  -31.6140 C   0  0  0  0  0  0  0  0  0  0  0  0
   -7.8800   20.5490  -31.5980 C   0  0  0  0  0  0  0  0  0  0  0  0
   -9.1860   21.1220  -31.3980 N   0  0  0  0  0  0  0  0  0  0  0  0
   -9.9880   21.2270  -32.3500 O   0  0  0  0  0  0  0  0  0  0  0  0
   -9.5760   21.5620  -30.1540 O   0  0  0  0  0  0  0  0  0  0  0  0
   -6.7600   21.3790  -31.7840 C   0  0  0  0  0  0  0  0  0  0  0  0
   -4.1890   22.9140  -31.2830 C   0  0  0  0  0  0  0  0  0  0  0  0
   -4.6550   24.1450  -31.5900 N   0  0  0  0  0  0  0  0  0  0  0  0
   -4.5230   24.8430  -30.4970 O   0  0  0  0  0  0  0  0  0  0  0  0
   -4.0160   24.0890  -29.5520 C   0  0  0  0  0  0  0  0  0  0  0  0
   -3.7840   24.4840  -28.3790 O   0  0  0  0  0  0  0  0  0  0  0  0
   -3.7800   22.8440  -30.0020 N   0  0  0  0  0  0  0  0  0  0  0  0
   -2.8289   22.3957  -27.3858 H   0  0  0  0  0  0  0  0  0  0  0  0
   -4.4345   21.6001  -27.5114 H   0  0  0  0  0  0  0  0  0  0  0  0
   -2.9376   20.6071  -27.5114 H   0  0  0  0  0  0  0  0  0  0  0  0
   -2.7459   19.6430  -29.5828 H   0  0  0  0  0  0  0  0  0  0  0  0
   -4.6120   23.0810  -33.5320 H   0  0  0  0  0  0  0  0  0  0  0  0
   -4.3465   18.9853  -32.1759 H   0  0  0  0  0  0  0  0  0  0  0  0
   -6.3189   17.5122  -31.8425 H   0  0  0  0  0  0  0  0  0  0  0  0
   -8.5723   18.4953  -31.4622 H   0  0  0  0  0  0  0  0  0  0  0  0
   -6.8922   22.4710  -31.7911 H   0  0  0  0  0  0  0  0  0  0  0  0
  1  2  1  0
  2  3  2  0
  3  4  1  0
  4  5  1  0
  5  6  1  6
  5  7  1  0
  7  8  2  0
  8  9  1  0
  9 10  2  0
 10 11  1  0
 11 12  1  0
 12 13  2  0
 12 14  1  0
 11 15  2  0
  5 16  1  0
 16 17  2  0
 17 18  1  0
 18 19  1  0
 19 20  2  0
 19 21  1  0
 21  2  1  0
 15  7  1  0
 21 16  1  0
  1 22  1  0
  1 23  1  0
  1 24  1  0
  3 25  1  0
  6 26  1  0
  8 27  1  0
  9 28  1  0
 10 29  1  0
 15 30  1  0
M  CHG  2  12   1  14  -1
M  END
>  <UniqueID>  (26) 
24

>  <SMILES>  (26) 
CC1=CS[C@@](O)(c2cccc([N+](=O)[O-])c2)c2noc(=O)n21

>  <Energy>  (26) 
82.40166205435817

>  <Genealogy>  (26) 
CC1=CS[C@@](O)(c2cccc([N+](=O)[O-])c2)c2noc(=O)n21 (chirality)
CC1=CS[C@@](O)(c2cccc([N+](=O)[O-])c2)c2noc(=O)n21 (3D coordinates assigned)
CC1=CS[C@@](O)(c2cccc([N+](=O)[O-])c2)c2noc(=O)n21 (nonaromatic ring conformer: 82.40166205435817 kcal/mol)

>  <smiles>  (26) 
CC1=CSC(O)(c2cccc([N+](=O)[O-])c2)c2noc(=O)n21

>  <score_type>  (26) 
oracle

>  <origin>  (26) 
adgpu

>  <m_score__min__energy>  (26) 
-7.4000000000000004

>  <m_primary>  (26) 
energy

$$$$
26:0
     RDKit          3D

 47 50  0  0  0  0  0  0  0  0999 V2000
   -5.6160   26.0630  -30.1220 O   0  0  0  0  0  0  0  0  0  0  0  0
   -4.9170   25.0750  -30.4670 C   0  0  0  0  0  0  0  0  0  0  0  0
   -3.4910   25.1620  -30.3360 N   0  0  0  0  0  0  0  0  0  0  0  0
   -2.7180   24.7240  -29.2090 C   0  0  0  0  0  0  0  0  0  0  0  0
   -1.3320   24.9180  -29.2200 C   0  0  0  0  0  0  0  0  0  0  0  0
   -0.5520   24.5130  -28.1340 C   0  0  0  0  0  0  0  0  0  0  0  0
   -1.1550   23.9170  -27.0160 C   0  0  0  0  0  0  0  0  0  0  0  0
   -0.1850   23.4200  -25.6320 S   0  0  0  0  0  0  0  0  0  0  0  0
   -0.8570   22.2500  -24.9670 O   0  0  0  0  0  0  0  0  0  0  0  0
    1.1800   22.9880  -26.0930 O   0  0  0  0  0  0  0  0  0  0  0  0
   -0.0460   24.7440  -24.5030 N   0  0  0  0  0  0  0  0  0  0  0  0
    1.2620   25.4080  -24.6590 C   0  0  0  0  0  0  0  0  0  0  0  0
    1.3220   26.7270  -23.8600 C   0  0  0  0  0  0  0  0  0  0  0  0
    0.2000   26.8690  -23.0110 O   0  0  0  0  0  0  0  0  0  0  0  0
   -0.9800   26.9380  -23.7900 C   0  0  0  0  0  0  0  0  0  0  0  0
   -1.1480   25.7030  -24.7030 C   0  0  0  0  0  0  0  0  0  0  0  0
   -2.5450   23.7490  -26.9890 C   0  0  0  0  0  0  0  0  0  0  0  0
   -3.3250   24.1540  -28.0750 C   0  0  0  0  0  0  0  0  0  0  0  0
   -5.5890   23.8860  -31.0280 C   0  0  0  0  0  0  0  0  0  0  0  0
   -6.9660   23.6710  -30.8520 C   0  0  0  0  0  0  0  0  0  0  0  0
   -7.5540   22.5310  -31.4020 C   0  0  0  0  0  0  0  0  0  0  0  0
   -8.7920   22.3370  -31.2550 O   0  0  0  0  0  0  0  0  0  0  0  0
   -6.7570   21.6180  -32.1090 C   0  0  0  0  0  0  0  0  0  0  0  0
   -7.2850   20.4510  -32.6890 C   0  0  0  0  0  0  0  0  0  0  0  0
   -6.4460   19.5700  -33.3780 C   0  0  0  0  0  0  0  0  0  0  0  0
   -5.0790   19.8440  -33.4920 C   0  0  0  0  0  0  0  0  0  0  0  0
   -4.5440   21.0000  -32.9170 C   0  0  0  0  0  0  0  0  0  0  0  0
   -5.3750   21.8910  -32.2280 C   0  0  0  0  0  0  0  0  0  0  0  0
   -4.8580   22.9920  -31.6920 O   0  0  0  0  0  0  0  0  0  0  0  0
   -0.8536   25.3925  -30.0895 H   0  0  0  0  0  0  0  0  0  0  0  0
    0.5377   24.6617  -28.1555 H   0  0  0  0  0  0  0  0  0  0  0  0
   -0.1130   24.3410  -23.5370 H   0  0  0  0  0  0  0  0  0  0  0  0
    2.0515   24.7334  -24.2962 H   0  0  0  0  0  0  0  0  0  0  0  0
    1.4073   25.6412  -25.7241 H   0  0  0  0  0  0  0  0  0  0  0  0
    2.2363   26.7334  -23.2485 H   0  0  0  0  0  0  0  0  0  0  0  0
    1.3232   27.5638  -24.5740 H   0  0  0  0  0  0  0  0  0  0  0  0
   -1.8468   27.0009  -23.1157 H   0  0  0  0  0  0  0  0  0  0  0  0
   -0.9090   27.8273  -24.4335 H   0  0  0  0  0  0  0  0  0  0  0  0
   -2.1021   25.2088  -24.4676 H   0  0  0  0  0  0  0  0  0  0  0  0
   -1.1355   26.0376  -25.7508 H   0  0  0  0  0  0  0  0  0  0  0  0
   -3.0248   23.2962  -26.1088 H   0  0  0  0  0  0  0  0  0  0  0  0
   -4.4172   24.0268  -28.0433 H   0  0  0  0  0  0  0  0  0  0  0  0
   -7.5740   24.3930  -30.2871 H   0  0  0  0  0  0  0  0  0  0  0  0
   -8.3591   20.2310  -32.6006 H   0  0  0  0  0  0  0  0  0  0  0  0
   -6.8622   18.6585  -33.8319 H   0  0  0  0  0  0  0  0  0  0  0  0
   -4.4234   19.1478  -34.0356 H   0  0  0  0  0  0  0  0  0  0  0  0
   -3.4679   21.2100  -33.0061 H   0  0  0  0  0  0  0  0  0  0  0  0
  1  2  2  0
  2  3  1  0
  3  4  1  0
  4  5  2  0
  5  6  1  0
  6  7  2  0
  7  8  1  0
  8  9  2  0
  8 10  2  0
  8 11  1  0
 11 12  1  0
 12 13  1  0
 13 14  1  0
 14 15  1  0
 15 16  1  0
  7 17  1  0
 17 18  2  0
  2 19  1  0
 19 20  2  0
 20 21  1  0
 21 22  2  0
 21 23  1  0
 23 24  2  0
 24 25  1  0
 25 26  2  0
 26 27  1  0
 27 28  2  0
 28 29  1  0
 18  4  1  0
 29 19  1  0
 16 11  1  0
 28 23  1  0
  5 30  1  0
  6 31  1  0
 11 32  1  0
 12 33  1  0
 12 34  1  0
 13 35  1  0
 13 36  1  0
 15 37  1  0
 15 38  1  0
 16 39  1  0
 16 40  1  0
 17 41  1  0
 18 42  1  0
 20 43  1  0
 24 44  1  0
 25 45  1  0
 26 46  1  0
 27 47  1  0
M  CHG  2   3  -1  11   1
M  END
>  <UniqueID>  (27) 
25

>  <SMILES>  (27) 
O=C([N-]c1ccc(S(=O)(=O)[NH+]2CCOCC2)cc1)c1cc(=O)c2ccccc2o1

>  <Energy>  (27) 
68.97608586905886

>  <Genealogy>  (27) 
O=C([N-]c1ccc(S(=O)(=O)[NH+]2CCOCC2)cc1)c1cc(=O)c2ccccc2o1 (protonated)
O=C([N-]c1ccc(S(=O)(=O)[NH+]2CCOCC2)cc1)c1cc(=O)c2ccccc2o1 (3D coordinates assigned)
O=C([N-]c1ccc(S(=O)(=O)[NH+]2CCOCC2)cc1)c1cc(=O)c2ccccc2o1 (nonaromatic ring conformer: 68.97608586905886 kcal/mol)

>  <smiles>  (27) 
O=C(Nc1ccc(S(=O)(=O)N2CCOCC2)cc1)c1cc(=O)c2ccccc2o1

>  <score_type>  (27) 
oracle

>  <origin>  (27) 
adgpu

>  <m_score__min__energy>  (27) 
-11.19

>  <m_primary>  (27) 
energy

$$$$
27:0
     RDKit          3D

 28 29  0  0  0  0  0  0  0  0999 V2000
   -0.2213   26.3427  -29.1406 H   0  0  0  0  0  0  0  0  0  0  0  0
   -0.9150   25.7460  -28.5300 C   0  0  0  0  0  0  0  0  0  0  0  0
   -2.0750   25.2880  -29.0710 N   0  0  0  0  0  0  0  0  0  0  0  0
   -2.9690   24.5510  -28.3500 C   0  0  0  0  0  0  0  0  0  0  0  0
   -4.0680   24.1050  -28.8860 N   0  0  0  0  0  0  0  0  0  0  0  0
   -4.5410   24.3700  -30.2180 C   0  0  0  0  0  0  0  0  0  0  0  0
   -4.0570   25.3490  -30.8420 O   0  0  0  0  0  0  0  0  0  0  0  0
   -5.5060   23.4750  -30.9030 C   0  0  0  0  0  0  0  0  0  0  0  0
   -6.7850   23.9700  -31.2160 C   0  0  0  0  0  0  0  0  0  0  0  0
   -7.0540   25.0001  -30.9395 H   0  0  0  0  0  0  0  0  0  0  0  0
   -7.7160   23.1640  -31.8750 C   0  0  0  0  0  0  0  0  0  0  0  0
   -8.7136   23.5607  -32.1145 H   0  0  0  0  0  0  0  0  0  0  0  0
   -7.3830   21.8570  -32.2300 C   0  0  0  0  0  0  0  0  0  0  0  0
   -8.1169   21.2249  -32.7513 H   0  0  0  0  0  0  0  0  0  0  0  0
   -6.1190   21.3510  -31.9240 C   0  0  0  0  0  0  0  0  0  0  0  0
   -5.8582   20.3222  -32.2130 H   0  0  0  0  0  0  0  0  0  0  0  0
   -5.1790   22.1440  -31.2510 C   0  0  0  0  0  0  0  0  0  0  0  0
   -3.5500   21.4460  -30.9260 S   0  0  0  0  0  0  0  0  0  0  0  0
   -3.0440   21.4390  -32.6760 C   0  0  0  0  0  0  0  0  0  0  0  0
   -3.1381   20.4198  -33.0788 H   0  0  0  0  0  0  0  0  0  0  0  0
   -1.7340   21.8680  -32.7690 F   0  0  0  0  0  0  0  0  0  0  0  0
   -3.8520   22.2960  -33.4010 F   0  0  0  0  0  0  0  0  0  0  0  0
   -2.6810   24.2360  -27.0160 C   0  0  0  0  0  0  0  0  0  0  0  0
   -3.3841   23.6302  -26.4255 H   0  0  0  0  0  0  0  0  0  0  0  0
   -1.4940   24.6970  -26.4410 C   0  0  0  0  0  0  0  0  0  0  0  0
   -1.2614   24.4596  -25.3924 H   0  0  0  0  0  0  0  0  0  0  0  0
   -0.6040   25.4590  -27.1990 C   0  0  0  0  0  0  0  0  0  0  0  0
    0.3312   25.8291  -26.7536 H   0  0  0  0  0  0  0  0  0  0  0  0
  1  2  1  0
  2  3  1  0
  3  4  1  0
  4  5  2  0
  5  6  1  0
  6  7  2  0
  6  8  1  0
  8  9  2  0
  9 10  1  0
  9 11  1  0
 11 12  1  0
 11 13  2  0
 13 14  1  0
 13 15  1  0
 15 16  1  0
 15 17  2  0
 17 18  1  0
 18 19  1  0
 19 20  1  0
 19 21  1  0
 19 22  1  0
  4 23  1  0
 23 24  1  0
 23 25  2  0
 25 26  1  0
 25 27  1  0
 27 28  1  0
 27  2  2  0
 17  8  1  0
M  CHG  1   3  -1
M  END
>  <UniqueID>  (28) 
26

>  <SMILES>  (28) 
O=C(/N=c1/cccc[n-]1)c1ccccc1SC(F)F

>  <Energy>  (28) 
35.776095228080244

>  <Genealogy>  (28) 
O=C(N=c1cccc[n-]1)c1ccccc1SC(F)F (protonated)
O=C(/N=c1/cccc[n-]1)c1ccccc1SC(F)F (cis-trans isomerization)
O=C(/N=c1/cccc[n-]1)c1ccccc1SC(F)F (3D coordinates assigned)
O=C(/N=c1/cccc[n-]1)c1ccccc1SC(F)F (optimized conformer: 35.776095228080244 kcal/mol)

>  <smiles>  (28) 
O=C(N=c1cccc[nH]1)c1ccccc1SC(F)F

>  <score_type>  (28) 
oracle

>  <origin>  (28) 
adgpu

>  <m_score__min__energy>  (28) 
-8.0399999999999991

>  <m_primary>  (28) 
energy

$$$$
28:0
     RDKit          3D

 45 47  0  0  0  0  0  0  0  0999 V2000
    2.6390   23.4170  -35.8880 C   0  0  0  0  0  0  0  0  0  0  0  0
    1.4720   22.6190  -35.4030 C   0  0  0  0  0  0  0  0  0  0  0  0
    0.3040   23.0310  -35.6370 O   0  0  0  0  0  0  0  0  0  0  0  0
    1.6910   21.4490  -34.5990 N   0  0  0  0  0  0  0  0  0  0  0  0
    0.6510   20.5310  -34.2200 C   0  0  0  0  0  0  0  0  0  0  0  0
    0.9920   19.2350  -33.8090 C   0  0  0  0  0  0  0  0  0  0  0  0
   -0.0020   18.3260  -33.4280 C   0  0  0  0  0  0  0  0  0  0  0  0
   -1.3520   18.7030  -33.4520 C   0  0  0  0  0  0  0  0  0  0  0  0
   -2.3580   17.7680  -33.0290 N   0  0  0  0  0  0  0  0  0  0  0  0
   -3.7380   17.8380  -33.4260 C   0  0  0  0  0  0  0  0  0  0  0  0
   -4.5750   18.8750  -32.9840 C   0  0  0  0  0  0  0  0  0  0  0  0
   -5.9200   18.9200  -33.4010 C   0  0  0  0  0  0  0  0  0  0  0  0
   -6.7310   19.8800  -33.0470 N   0  0  0  0  0  0  0  0  0  0  0  0
   -6.3790   21.0670  -32.3180 C   0  0  0  0  0  0  0  0  0  0  0  0
   -5.2250   21.7740  -32.6740 C   0  0  0  0  0  0  0  0  0  0  0  0
   -4.8650   22.9340  -31.9810 C   0  0  0  0  0  0  0  0  0  0  0  0
   -5.6510   23.3890  -30.9130 C   0  0  0  0  0  0  0  0  0  0  0  0
   -5.2040   24.8490  -30.0380 S   0  0  0  0  0  0  0  0  0  0  0  0
   -3.8900   25.6270  -30.8450 N   0  0  0  0  0  0  0  0  0  0  0  0
   -6.3760   25.7870  -29.9740 O   0  0  0  0  0  0  0  0  0  0  0  0
   -4.7930   24.4940  -28.6350 O   0  0  0  0  0  0  0  0  0  0  0  0
   -6.7810   22.6580  -30.5250 C   0  0  0  0  0  0  0  0  0  0  0  0
   -7.1390   21.4970  -31.2150 C   0  0  0  0  0  0  0  0  0  0  0  0
   -8.2150   20.7810  -30.7990 F   0  0  0  0  0  0  0  0  0  0  0  0
   -6.4120   17.8800  -34.1970 C   0  0  0  0  0  0  0  0  0  0  0  0
   -5.5600   16.8440  -34.5880 C   0  0  0  0  0  0  0  0  0  0  0  0
   -4.2570   16.8470  -34.2000 N   0  0  0  0  0  0  0  0  0  0  0  0
   -1.6990   19.9780  -33.9290 C   0  0  0  0  0  0  0  0  0  0  0  0
   -0.7060   20.8870  -34.3050 C   0  0  0  0  0  0  0  0  0  0  0  0
    3.2031   23.8027  -35.0260 H   0  0  0  0  0  0  0  0  0  0  0  0
    3.2934   22.7764  -36.4975 H   0  0  0  0  0  0  0  0  0  0  0  0
    2.2794   24.2592  -36.4975 H   0  0  0  0  0  0  0  0  0  0  0  0
    2.6420   21.3110  -34.1900 H   0  0  0  0  0  0  0  0  0  0  0  0
    2.0486   18.9300  -33.7857 H   0  0  0  0  0  0  0  0  0  0  0  0
    0.2775   17.3113  -33.1083 H   0  0  0  0  0  0  0  0  0  0  0  0
   -2.0810   17.0090  -32.3660 H   0  0  0  0  0  0  0  0  0  0  0  0
   -4.1808   19.6519  -32.3125 H   0  0  0  0  0  0  0  0  0  0  0  0
   -4.5977   21.4153  -33.5034 H   0  0  0  0  0  0  0  0  0  0  0  0
   -3.9629   23.4908  -32.2746 H   0  0  0  0  0  0  0  0  0  0  0  0
   -3.0100   25.2730  -30.4070 H   0  0  0  0  0  0  0  0  0  0  0  0
   -7.3888   22.9992  -29.6740 H   0  0  0  0  0  0  0  0  0  0  0  0
   -7.4654   17.8779  -34.5138 H   0  0  0  0  0  0  0  0  0  0  0  0
   -5.9446   16.0235  -35.2116 H   0  0  0  0  0  0  0  0  0  0  0  0
   -2.7586   20.2627  -34.0071 H   0  0  0  0  0  0  0  0  0  0  0  0
   -0.9880   21.8859  -34.6692 H   0  0  0  0  0  0  0  0  0  0  0  0
  1  2  1  0
  2  3  2  0
  2  4  1  0
  4  5  1  0
  5  6  2  0
  6  7  1  0
  7  8  2  0
  8  9  1  0
  9 10  1  0
 10 11  2  0
 11 12  1  0
 12 13  2  3
 13 14  1  0
 14 15  2  0
 15 16  1  0
 16 17  2  0
 17 18  1  0
 18 19  1  0
 18 20  2  0
 18 21  2  0
 17 22  1  0
 22 23  2  0
 23 24  1  0
 12 25  1  0
 25 26  2  0
 26 27  1  0
  8 28  1  0
 28 29  2  0
 29  5  1  0
 27 10  1  0
 23 14  1  0
  1 30  1  0
  1 31  1  0
  1 32  1  0
  4 33  1  0
  6 34  1  0
  7 35  1  0
  9 36  1  0
 11 37  1  0
 15 38  1  0
 16 39  1  0
 19 40  1  0
 22 41  1  0
 25 42  1  0
 26 43  1  0
 28 44  1  0
 29 45  1  0
M  CHG  2  19  -1  27  -1
M  END
>  <UniqueID>  (29) 
27

>  <SMILES>  (29) 
CC(=O)Nc1ccc(Nc2cc(=Nc3ccc(S([NH-])(=O)=O)cc3F)cc[n-]2)cc1

>  <Energy>  (29) 
63.30715644112135

>  <Genealogy>  (29) 
CC(=O)Nc1ccc(Nc2cc(=Nc3ccc(S([NH-])(=O)=O)cc3F)cc[n-]2)cc1 (protonated)
CC(=O)Nc1ccc(Nc2cc(=Nc3ccc(S([NH-])(=O)=O)cc3F)cc[n-]2)cc1 (3D coordinates assigned)
CC(=O)Nc1ccc(Nc2cc(=Nc3ccc(S([NH-])(=O)=O)cc3F)cc[n-]2)cc1 (optimized conformer: 63.30715644112135 kcal/mol)

>  <smiles>  (29) 
CC(=O)Nc1ccc(Nc2cc(=Nc3ccc(S(N)(=O)=O)cc3F)cc[nH]2)cc1

>  <score_type>  (29) 
oracle

>  <origin>  (29) 
adgpu

>  <m_score__min__energy>  (29) 
-11.050000000000001

>  <m_primary>  (29) 
energy

$$$$
29:0
     RDKit          3D

 34 36  0  0  0  0  0  0  0  0999 V2000
    0.0490   19.1180  -30.4110 C   0  0  0  0  0  0  0  0  0  0  0  0
   -0.5770   20.4440  -30.1000 C   0  0  0  0  0  0  0  0  0  0  0  0
   -0.2940   21.0940  -28.8880 C   0  0  0  0  0  0  0  0  0  0  0  0
   -0.8500   22.3470  -28.6150 C   0  0  0  0  0  0  0  0  0  0  0  0
   -1.6850   22.9690  -29.5530 C   0  0  0  0  0  0  0  0  0  0  0  0
   -2.3970   24.5410  -29.2090 S   0  0  0  0  0  0  0  0  0  0  0  0
   -3.1260   24.5170  -27.8940 O   0  0  0  0  0  0  0  0  0  0  0  0
   -1.3020   25.5670  -29.1430 O   0  0  0  0  0  0  0  0  0  0  0  0
   -3.5100   24.9780  -30.4650 N   0  0  0  0  0  0  0  0  0  0  0  0
   -4.8330   24.4460  -30.6190 C   0  0  0  0  0  0  0  0  0  0  0  0
   -5.9500   25.0290  -29.9950 C   0  0  0  0  0  0  0  0  0  0  0  0
   -7.2200   24.4720  -30.1660 C   0  0  0  0  0  0  0  0  0  0  0  0
   -7.3880   23.3350  -30.9600 C   0  0  0  0  0  0  0  0  0  0  0  0
   -6.2840   22.7420  -31.5930 C   0  0  0  0  0  0  0  0  0  0  0  0
   -6.4590   21.5390  -32.4330 C   0  0  0  0  0  0  0  0  0  0  0  0
   -5.4510   20.8740  -33.0350 N   0  0  0  0  0  0  0  0  0  0  0  0
   -6.0350   19.8760  -33.6760 N   0  0  0  0  0  0  0  0  0  0  0  0
   -7.3380   19.9340  -33.4720 N   0  0  0  0  0  0  0  0  0  0  0  0
   -7.6470   20.9600  -32.6980 N   0  0  0  0  0  0  0  0  0  0  0  0
   -5.0090   23.3070  -31.4160 C   0  0  0  0  0  0  0  0  0  0  0  0
   -1.9500   22.3320  -30.7730 C   0  0  0  0  0  0  0  0  0  0  0  0
   -1.3950   21.0790  -31.0470 C   0  0  0  0  0  0  0  0  0  0  0  0
    0.2940   18.5991  -29.4725 H   0  0  0  0  0  0  0  0  0  0  0  0
   -0.6560   18.5075  -30.9943 H   0  0  0  0  0  0  0  0  0  0  0  0
    0.9684   19.2744  -30.9943 H   0  0  0  0  0  0  0  0  0  0  0  0
    0.3675   20.6155  -28.1508 H   0  0  0  0  0  0  0  0  0  0  0  0
   -0.6312   22.8470  -27.6599 H   0  0  0  0  0  0  0  0  0  0  0  0
   -5.8238   25.9258  -29.3707 H   0  0  0  0  0  0  0  0  0  0  0  0
   -8.0904   24.9303  -29.6738 H   0  0  0  0  0  0  0  0  0  0  0  0
   -8.3908   22.9019  -31.0900 H   0  0  0  0  0  0  0  0  0  0  0  0
   -8.0310   19.2610  -33.8670 H   0  0  0  0  0  0  0  0  0  0  0  0
   -4.1388   22.8493  -31.9092 H   0  0  0  0  0  0  0  0  0  0  0  0
   -2.5968   22.8198  -31.5171 H   0  0  0  0  0  0  0  0  0  0  0  0
   -1.6004   20.5881  -32.0097 H   0  0  0  0  0  0  0  0  0  0  0  0
  1  2  1  0
  2  3  2  0
  3  4  1  0
  4  5  2  0
  5  6  1  0
  6  7  2  0
  6  8  2  0
  6  9  1  0
  9 10  1  0
 10 11  2  0
 11 12  1  0
 12 13  2  0
 13 14  1  0
 14 15  1  0
 15 16  1  0
 16 17  2  0
 17 18  1  0
 18 19  1  0
 14 20  2  0
  5 21  1  0
 21 22  2  0
 22  2  1  0
 20 10  1  0
 19 15  2  0
  1 23  1  0
  1 24  1  0
  1 25  1  0
  3 26  1  0
  4 27  1  0
 11 28  1  0
 12 29  1  0
 13 30  1  0
 18 31  1  0
 20 32  1  0
 21 33  1  0
 22 34  1  0
M  CHG  1   9  -1
M  END
>  <UniqueID>  (30) 
28

>  <SMILES>  (30) 
Cc1ccc(S(=O)(=O)[N-]c2cccc(-c3nn[nH]n3)c2)cc1

>  <Energy>  (30) 
77.44563174974773

>  <Genealogy>  (30) 
Cc1ccc(S(=O)(=O)[N-]c2cccc(-c3nn[nH]n3)c2)cc1 (protonated)
Cc1ccc(S(=O)(=O)[N-]c2cccc(-c3nn[nH]n3)c2)cc1 (3D coordinates assigned)
Cc1ccc(S(=O)(=O)[N-]c2cccc(-c3nn[nH]n3)c2)cc1 (optimized conformer: 77.44563174974773 kcal/mol)

>  <smiles>  (30) 
Cc1ccc(S(=O)(=O)Nc2cccc(-c3nn[nH]n3)c2)cc1

>  <score_type>  (30) 
oracle

>  <origin>  (30) 
adgpu

>  <m_score__min__energy>  (30) 
-9.9199999999999999

>  <m_primary>  (30) 
energy

$$$$
30:0
     RDKit          3D

 30 31  0  0  0  0  0  0  0  0999 V2000
   -3.2070   19.2730  -33.6680 C   0  0  0  0  0  0  0  0  0  0  0  0
   -4.5230   19.2700  -34.2120 O   0  0  0  0  0  0  0  0  0  0  0  0
   -5.7030   19.1390  -33.4620 C   0  0  0  0  0  0  0  0  0  0  0  0
   -6.4440   17.9380  -33.4810 C   0  0  0  0  0  0  0  0  0  0  0  0
   -7.6140   17.8110  -32.7310 C   0  0  0  0  0  0  0  0  0  0  0  0
   -8.0630   18.8750  -31.9520 C   0  0  0  0  0  0  0  0  0  0  0  0
   -7.3440   20.0700  -31.9220 C   0  0  0  0  0  0  0  0  0  0  0  0
   -6.1670   20.2220  -32.6680 C   0  0  0  0  0  0  0  0  0  0  0  0
   -5.5180   21.4660  -32.5720 O   0  0  0  0  0  0  0  0  0  0  0  0
   -4.4080   21.7790  -31.7370 C   0  0  0  0  0  0  0  0  0  0  0  0
   -4.6200   23.1290  -31.1290 C   0  0  0  0  0  0  0  0  0  0  0  0
   -3.6820   24.0960  -31.1210 N   0  0  0  0  0  0  0  0  0  0  0  0
   -4.2060   25.1420  -30.4970 N   0  0  0  0  0  0  0  0  0  0  0  0
   -5.4520   24.7920  -30.1310 C   0  0  0  0  0  0  0  0  0  0  0  0
   -6.4770   25.8050  -29.3530 S   0  0  0  0  0  0  0  0  0  0  0  0
   -5.7440   23.5270  -30.4960 N   0  0  0  0  0  0  0  0  0  0  0  0
   -7.0050   22.7970  -30.3410 C   0  0  0  0  0  0  0  0  0  0  0  0
   -7.9220   23.1470  -31.4300 C   0  0  0  0  0  0  0  0  0  0  0  0
   -8.6460   23.4230  -32.2900 N   0  0  0  0  0  0  0  0  0  0  0  0
   -3.2643   19.2729  -32.5695 H   0  0  0  0  0  0  0  0  0  0  0  0
   -2.6680   18.3761  -34.0071 H   0  0  0  0  0  0  0  0  0  0  0  0
   -2.6721   20.1724  -34.0071 H   0  0  0  0  0  0  0  0  0  0  0  0
   -6.0957   17.0932  -34.0934 H   0  0  0  0  0  0  0  0  0  0  0  0
   -8.1824   16.8695  -32.7550 H   0  0  0  0  0  0  0  0  0  0  0  0
   -8.9847   18.7728  -31.3604 H   0  0  0  0  0  0  0  0  0  0  0  0
   -7.7058   20.9050  -31.3041 H   0  0  0  0  0  0  0  0  0  0  0  0
   -4.3219   21.0254  -30.9404 H   0  0  0  0  0  0  0  0  0  0  0  0
   -3.4838   21.7816  -32.3336 H   0  0  0  0  0  0  0  0  0  0  0  0
   -6.8056   21.7155  -30.3656 H   0  0  0  0  0  0  0  0  0  0  0  0
   -7.4647   23.0689  -29.3794 H   0  0  0  0  0  0  0  0  0  0  0  0
  1  2  1  0
  2  3  1  0
  3  4  2  0
  4  5  1  0
  5  6  2  0
  6  7  1  0
  7  8  2  0
  8  9  1  0
  9 10  1  0
 10 11  1  0
 11 12  2  0
 12 13  1  0
 13 14  1  0
 14 15  2  0
 14 16  1  0
 16 17  1  0
 17 18  1  0
 18 19  3  0
  8  3  1  0
 16 11  1  0
  1 20  1  0
  1 21  1  0
  1 22  1  0
  4 23  1  0
  5 24  1  0
  6 25  1  0
  7 26  1  0
 10 27  1  0
 10 28  1  0
 17 29  1  0
 17 30  1  0
M  CHG  1  13  -1
M  END
>  <UniqueID>  (31) 
29

>  <SMILES>  (31) 
COc1ccccc1OCc1n[n-]c(=S)n1CC#N

>  <Energy>  (31) 
65.03180409207374

>  <Genealogy>  (31) 
COc1ccccc1OCc1n[n-]c(=S)n1CC#N (protonated)
COc1ccccc1OCc1n[n-]c(=S)n1CC#N (3D coordinates assigned)
COc1ccccc1OCc1n[n-]c(=S)n1CC#N (optimized conformer: 65.03180409207374 kcal/mol)

>  <smiles>  (31) 
COc1ccccc1OCc1n[nH]c(=S)n1CC#N

>  <score_type>  (31) 
oracle

>  <origin>  (31) 
adgpu

>  <m_score__min__energy>  (31) 
-7.7400000000000002

>  <m_primary>  (31) 
energy

$$$$
31:0
     RDKit          3D

 40 42  0  0  0  0  0  0  0  0999 V2000
   -7.5910   14.9670  -33.9150 H   0  0  0  0  0  0  0  0  0  0  0  0
   -6.9170   15.5980  -34.4060 N   0  0  0  0  0  0  0  0  0  0  0  0
   -6.5810   16.7570  -33.9360 C   0  0  0  0  0  0  0  0  0  0  0  0
   -5.6990   17.5270  -34.6250 N   0  0  0  0  0  0  0  0  0  0  0  0
   -5.3120   18.7530  -34.1820 C   0  0  0  0  0  0  0  0  0  0  0  0
   -4.5970   19.3465  -34.7707 H   0  0  0  0  0  0  0  0  0  0  0  0
   -5.8200   19.2660  -32.9770 C   0  0  0  0  0  0  0  0  0  0  0  0
   -5.4030   20.6030  -32.4820 C   0  0  0  0  0  0  0  0  0  0  0  0
   -6.3650   21.5670  -32.1270 C   0  0  0  0  0  0  0  0  0  0  0  0
   -7.4352   21.3291  -32.2171 H   0  0  0  0  0  0  0  0  0  0  0  0
   -5.9710   22.8240  -31.6610 C   0  0  0  0  0  0  0  0  0  0  0  0
   -6.7333   23.5620  -31.3706 H   0  0  0  0  0  0  0  0  0  0  0  0
   -4.6150   23.1510  -31.5610 C   0  0  0  0  0  0  0  0  0  0  0  0
   -4.2460   24.4380  -31.0500 N   0  0  0  0  0  0  0  0  0  0  0  0
   -3.8590   24.7240  -29.7010 C   0  0  0  0  0  0  0  0  0  0  0  0
   -4.7560   24.8210  -28.8220 O   0  0  0  0  0  0  0  0  0  0  0  0
   -2.4760   24.9290  -29.3590 N   0  0  0  0  0  0  0  0  0  0  0  0
   -1.7560   24.8220  -30.1080 H   0  0  0  0  0  0  0  0  0  0  0  0
   -2.0040   25.1720  -28.0230 C   0  0  0  0  0  0  0  0  0  0  0  0
   -2.8460   25.0170  -26.9100 C   0  0  0  0  0  0  0  0  0  0  0  0
   -3.8847   24.6836  -27.0513 H   0  0  0  0  0  0  0  0  0  0  0  0
   -2.3710   25.2840  -25.6260 C   0  0  0  0  0  0  0  0  0  0  0  0
   -3.0345   25.1476  -24.7593 H   0  0  0  0  0  0  0  0  0  0  0  0
   -1.0570   25.7240  -25.4320 C   0  0  0  0  0  0  0  0  0  0  0  0
   -0.5270   26.0410  -23.7820 Cl  0  0  0  0  0  0  0  0  0  0  0  0
   -0.2020   25.9090  -26.5410 C   0  0  0  0  0  0  0  0  0  0  0  0
    1.2190   26.3960  -26.3470 C   0  0  0  0  0  0  0  0  0  0  0  0
    1.8440   25.6310  -25.3790 F   0  0  0  0  0  0  0  0  0  0  0  0
    1.9150   26.2820  -27.5370 F   0  0  0  0  0  0  0  0  0  0  0  0
    1.2590   27.7200  -25.9460 F   0  0  0  0  0  0  0  0  0  0  0  0
   -0.6950   25.6380  -27.8320 C   0  0  0  0  0  0  0  0  0  0  0  0
   -0.0433   25.7942  -28.7043 H   0  0  0  0  0  0  0  0  0  0  0  0
   -3.6500   22.1840  -31.8870 C   0  0  0  0  0  0  0  0  0  0  0  0
   -2.5811   22.4187  -31.7755 H   0  0  0  0  0  0  0  0  0  0  0  0
   -4.0400   20.9260  -32.3520 C   0  0  0  0  0  0  0  0  0  0  0  0
   -3.2752   20.1818  -32.6187 H   0  0  0  0  0  0  0  0  0  0  0  0
   -6.7330   18.4810  -32.2520 C   0  0  0  0  0  0  0  0  0  0  0  0
   -7.1474   18.8572  -31.3050 H   0  0  0  0  0  0  0  0  0  0  0  0
   -7.1160   17.2270  -32.7280 C   0  0  0  0  0  0  0  0  0  0  0  0
   -7.8310   16.6126  -32.1611 H   0  0  0  0  0  0  0  0  0  0  0  0
  1  2  1  0
  2  3  2  0
  3  4  1  0
  4  5  1  0
  5  6  1  0
  5  7  2  0
  7  8  1  0
  8  9  2  0
  9 10  1  0
  9 11  1  0
 11 12  1  0
 11 13  2  0
 13 14  1  0
 14 15  1  0
 15 16  2  0
 15 17  1  0
 17 18  1  0
 17 19  1  0
 19 20  2  0
 20 21  1  0
 20 22  1  0
 22 23  1  0
 22 24  2  0
 24 25  1  0
 24 26  1  0
 26 27  1  0
 27 28  1  0
 27 29  1  0
 27 30  1  0
 26 31  2  0
 31 32  1  0
 13 33  1  0
 33 34  1  0
 33 35  2  0
 35 36  1  0
  7 37  1  0
 37 38  1  0
 37 39  2  0
 39 40  1  0
 39  3  1  0
 35  8  1  0
 31 19  1  0
M  CHG  2   4  -1  14  -1
M  END
>  <UniqueID>  (32) 
30

>  <SMILES>  (32) 
[H]/N=c1\ccc(-c2ccc([N-]C(=O)Nc3ccc(Cl)c(C(F)(F)F)c3)cc2)c[n-]1

>  <Energy>  (32) 
59.8506298328376

>  <Genealogy>  (32) 
N=c1ccc(-c2ccc([N-]C(=O)Nc3ccc(Cl)c(C(F)(F)F)c3)cc2)c[n-]1 (protonated)
[H]/N=c1\ccc(-c2ccc([N-]C(=O)Nc3ccc(Cl)c(C(F)(F)F)c3)cc2)c[n-]1 (cis-trans isomerization)
[H]/N=c1\ccc(-c2ccc([N-]C(=O)Nc3ccc(Cl)c(C(F)(F)F)c3)cc2)c[n-]1 (3D coordinates assigned)
[H]/N=c1\ccc(-c2ccc([N-]C(=O)Nc3ccc(Cl)c(C(F)(F)F)c3)cc2)c[n-]1 (optimized conformer: 59.8506298328376 kcal/mol)

>  <smiles>  (32) 
N=c1ccc(-c2ccc(NC(=O)Nc3ccc(Cl)c(C(F)(F)F)c3)cc2)c[nH]1

>  <score_type>  (32) 
oracle

>  <origin>  (32) 
adgpu

>  <m_score__min__energy>  (32) 
-9.5600000000000005

>  <m_primary>  (32) 
energy

$$$$
32:0
     RDKit          3D

 38 40  0  0  1  0  0  0  0  0999 V2000
    0.9270   20.8030  -33.9980 C   0  0  0  0  0  0  0  0  0  0  0  0
   -0.3400   20.8890  -33.1930 C   0  0  0  0  0  0  0  0  0  0  0  0
   -0.2840   20.7170  -31.8590 N   0  0  0  0  0  0  0  0  0  0  0  0
   -1.4110   20.7870  -31.0920 C   0  0  0  0  0  0  0  0  0  0  0  0
   -1.3630   20.6070  -29.6780 N   0  0  0  0  0  0  0  0  0  0  0  0
   -0.2870   20.1760  -28.9950 C   0  0  0  0  0  0  0  0  0  0  0  0
   -0.6300   20.1340  -27.6830 N   0  0  0  0  0  0  0  0  0  0  0  0
   -1.8860   20.5350  -27.5950 N   0  0  0  0  0  0  0  0  0  0  0  0
   -2.3800   20.8370  -28.8130 C   0  0  0  0  0  0  0  0  0  0  0  0
   -2.6370   21.0400  -31.6950 C   0  0  0  0  0  0  0  0  0  0  0  0
   -2.6480   21.2110  -33.0650 C   0  0  0  0  0  0  0  0  0  0  0  0
   -3.7370   21.4480  -33.6930 N   0  0  0  0  0  0  0  0  0  0  0  0
   -4.9880   21.5480  -33.0210 C   0  0  0  0  0  0  0  0  0  0  0  0
   -5.8610   20.4670  -33.0540 C   0  0  0  0  0  0  0  0  0  0  0  0
   -7.0310   20.6120  -32.4030 N   0  0  0  0  0  0  0  0  0  0  0  0
   -7.3900   21.7260  -31.7370 C   0  0  0  0  0  0  0  0  0  0  0  0
   -8.9510   21.8030  -30.9210 Cl  0  0  0  0  0  0  0  0  0  0  0  0
   -6.5450   22.8290  -31.6820 C   0  0  0  0  0  0  0  0  0  0  0  0
   -6.8900   24.0230  -30.9900 N   0  0  0  0  0  0  0  0  0  0  0  0
   -5.7180   24.8440  -30.0550 S   0  0  0  0  0  0  0  0  0  0  0  0
   -4.9630   23.6740  -28.9510 C   0  0  0  0  0  0  0  0  0  0  0  0
   -6.2730   26.0320  -29.3300 O   0  0  0  0  0  0  0  0  0  0  0  0
   -4.6260   25.3040  -31.0060 O   0  0  0  0  0  0  0  0  0  0  0  0
   -5.3400   22.6990  -32.3440 C   0  0  0  0  0  0  0  0  0  0  0  0
   -1.5100   21.1360  -33.8100 N   0  0  0  0  0  0  0  0  0  0  0  0
    1.7900   20.7444  -33.3184 H   0  0  0  0  0  0  0  0  0  0  0  0
    0.8982   19.9047  -34.6323 H   0  0  0  0  0  0  0  0  0  0  0  0
    1.0198   21.6969  -34.6323 H   0  0  0  0  0  0  0  0  0  0  0  0
    0.6906   19.9072  -29.4216 H   0  0  0  0  0  0  0  0  0  0  0  0
   -3.3925   21.1939  -29.0529 H   0  0  0  0  0  0  0  0  0  0  0  0
   -3.5627   21.1016  -31.1039 H   0  0  0  0  0  0  0  0  0  0  0  0
   -5.6085   19.5380  -33.5861 H   0  0  0  0  0  0  0  0  0  0  0  0
   -7.8840   24.3530  -31.0900 H   0  0  0  0  0  0  0  0  0  0  0  0
   -5.1566   23.9740  -27.9105 H   0  0  0  0  0  0  0  0  0  0  0  0
   -5.3872   22.6749  -29.1295 H   0  0  0  0  0  0  0  0  0  0  0  0
   -3.8779   23.6489  -29.1295 H   0  0  0  0  0  0  0  0  0  0  0  0
   -4.6348   23.5431  -32.3316 H   0  0  0  0  0  0  0  0  0  0  0  0
   -1.5660   21.2720  -34.8460 H   0  0  0  0  0  0  0  0  0  0  0  0
  1  2  1  0
  2  3  2  0
  3  4  1  0
  4  5  1  0
  5  6  1  0
  6  7  2  0
  7  8  1  0
  8  9  2  0
  4 10  2  0
 10 11  1  0
 11 12  2  0
 12 13  1  0
 13 14  2  0
 14 15  1  0
 15 16  2  0
 16 17  1  0
 16 18  1  0
 18 19  1  0
 19 20  1  0
 20 21  1  0
 20 22  2  0
 20 23  2  0
 18 24  2  0
 11 25  1  0
 25  2  1  0
  9  5  1  0
 24 13  1  0
  1 26  1  0
  1 27  1  0
  1 28  1  0
  6 29  1  0
  9 30  1  0
 10 31  1  0
 14 32  1  0
 19 33  1  0
 21 34  1  0
 21 35  1  0
 21 36  1  0
 24 37  1  0
 25 38  1  0
M  END
>  <smiles>  (33) 
Cc1nc(-n2cnnc2)cc(=Nc2cnc(Cl)c(NS(C)(=O)=O)c2)[nH]1

>  <score_type>  (33) 
oracle

>  <origin>  (33) 
adgpu

>  <m_score__min__energy>  (33) 
-7.9800000000000004

>  <m_primary>  (33) 
energy

$$$$
33:0
     RDKit          3D

 55 58  0  0  0  0  0  0  0  0999 V2000
   -3.9815   15.3622  -32.9816 H   0  0  0  0  0  0  0  0  0  0  0  0
   -3.8930   16.4580  -33.0180 C   0  0  0  0  0  0  0  0  0  0  0  0
   -2.8130   17.0280  -33.5950 N   0  0  0  0  0  0  0  0  0  0  0  0
   -2.6450   18.3790  -33.6330 C   0  0  0  0  0  0  0  0  0  0  0  0
   -1.4920   18.8840  -34.2470 C   0  0  0  0  0  0  0  0  0  0  0  0
   -0.7409   18.1934  -34.6580 H   0  0  0  0  0  0  0  0  0  0  0  0
   -1.2950   20.2640  -34.3380 C   0  0  0  0  0  0  0  0  0  0  0  0
   -0.1140   20.7980  -35.0310 C   0  0  0  0  0  0  0  0  0  0  0  0
    1.0100   19.9800  -35.2240 C   0  0  0  0  0  0  0  0  0  0  0  0
    1.0024   18.9448  -34.8520 H   0  0  0  0  0  0  0  0  0  0  0  0
    2.1380   20.4710  -35.8850 C   0  0  0  0  0  0  0  0  0  0  0  0
    3.0196   19.8277  -36.0221 H   0  0  0  0  0  0  0  0  0  0  0  0
    2.1450   21.7810  -36.3720 C   0  0  0  0  0  0  0  0  0  0  0  0
    3.2770   22.2650  -37.0150 O   0  0  0  0  0  0  0  0  0  0  0  0
    1.0110   22.5950  -36.2330 C   0  0  0  0  0  0  0  0  0  0  0  0
    1.0290   23.8820  -36.7920 O   0  0  0  0  0  0  0  0  0  0  0  0
    1.5940   25.0080  -36.1370 C   0  0  0  0  0  0  0  0  0  0  0  0
    1.5253   24.8712  -35.0477 H   0  0  0  0  0  0  0  0  0  0  0  0
    2.6499   25.1098  -36.4279 H   0  0  0  0  0  0  0  0  0  0  0  0
    1.0444   25.9154  -36.4279 H   0  0  0  0  0  0  0  0  0  0  0  0
   -0.1120   22.1070  -35.5420 C   0  0  0  0  0  0  0  0  0  0  0  0
   -0.9919   22.7519  -35.4009 H   0  0  0  0  0  0  0  0  0  0  0  0
   -2.2420   21.1350  -33.8030 C   0  0  0  0  0  0  0  0  0  0  0  0
   -2.0882   22.2212  -33.8839 H   0  0  0  0  0  0  0  0  0  0  0  0
   -3.3810   20.6470  -33.1670 C   0  0  0  0  0  0  0  0  0  0  0  0
   -4.0970   21.3526  -32.7204 H   0  0  0  0  0  0  0  0  0  0  0  0
   -3.6310   19.2520  -33.0870 C   0  0  0  0  0  0  0  0  0  0  0  0
   -4.8110   18.6530  -32.5080 C   0  0  0  0  0  0  0  0  0  0  0  0
   -5.8450   19.2780  -32.0120 N   0  0  0  0  0  0  0  0  0  0  0  0
   -6.1260   20.6830  -31.8950 C   0  0  0  0  0  0  0  0  0  0  0  0
   -5.2010   21.5090  -31.2300 C   0  0  0  0  0  0  0  0  0  0  0  0
   -4.2936   21.0680  -30.7915 H   0  0  0  0  0  0  0  0  0  0  0  0
   -5.4250   22.8890  -31.1210 C   0  0  0  0  0  0  0  0  0  0  0  0
   -4.2780   23.8950  -30.2460 S   0  0  0  0  0  0  0  0  0  0  0  0
   -2.9050   23.2950  -30.3660 O   0  0  0  0  0  0  0  0  0  0  0  0
   -4.2460   25.2690  -30.8630 O   0  0  0  0  0  0  0  0  0  0  0  0
   -4.6820   24.0040  -28.5530 N   0  0  0  0  0  0  0  0  0  0  0  0
   -5.7260   24.0120  -28.4960 H   0  0  0  0  0  0  0  0  0  0  0  0
   -4.2170   22.8080  -27.8500 C   0  0  0  0  0  0  0  0  0  0  0  0
   -4.2810   22.9727  -26.7643 H   0  0  0  0  0  0  0  0  0  0  0  0
   -4.8473   21.9506  -28.1286 H   0  0  0  0  0  0  0  0  0  0  0  0
   -3.1731   22.6015  -28.1286 H   0  0  0  0  0  0  0  0  0  0  0  0
   -6.5880   23.4400  -31.6780 C   0  0  0  0  0  0  0  0  0  0  0  0
   -6.7668   24.5231  -31.6084 H   0  0  0  0  0  0  0  0  0  0  0  0
   -7.5230   22.6210  -32.3220 C   0  0  0  0  0  0  0  0  0  0  0  0
   -8.4445   23.0610  -32.7310 H   0  0  0  0  0  0  0  0  0  0  0  0
   -7.2920   21.2370  -32.4500 C   0  0  0  0  0  0  0  0  0  0  0  0
   -8.2820   20.4290  -33.0990 N   0  0  0  0  0  0  0  0  0  0  0  0
   -8.0880   20.0980  -34.0730 H   0  0  0  0  0  0  0  0  0  0  0  0
   -9.4810   19.9410  -32.4270 C   0  0  0  0  0  0  0  0  0  0  0  0
   -9.3398   19.9985  -31.3376 H   0  0  0  0  0  0  0  0  0  0  0  0
  -10.3423   20.5601  -32.7183 H   0  0  0  0  0  0  0  0  0  0  0  0
   -9.6651   18.8964  -32.7183 H   0  0  0  0  0  0  0  0  0  0  0  0
   -4.8930   17.2530  -32.4700 C   0  0  0  0  0  0  0  0  0  0  0  0
   -5.7644   16.7757  -31.9980 H   0  0  0  0  0  0  0  0  0  0  0  0
  1  2  1  0
  2  3  1  0
  3  4  1  0
  4  5  2  0
  5  6  1  0
  5  7  1  0
  7  8  1  0
  8  9  2  0
  9 10  1  0
  9 11  1  0
 11 12  1  0
 11 13  2  0
 13 14  1  0
 13 15  1  0
 15 16  1  0
 16 17  1  0
 17 18  1  0
 17 19  1  0
 17 20  1  0
 15 21  2  0
 21 22  1  0
  7 23  2  0
 23 24  1  0
 23 25  1  0
 25 26  1  0
 25 27  2  0
 27 28  1  0
 28 29  2  0
 29 30  1  0
 30 31  2  0
 31 32  1  0
 31 33  1  0
 33 34  1  0
 34 35  2  0
 34 36  2  0
 34 37  1  0
 37 38  1  0
 37 39  1  0
 39 40  1  0
 39 41  1  0
 39 42  1  0
 33 43  2  0
 43 44  1  0
 43 45  1  0
 45 46  1  0
 45 47  2  0
 47 48  1  0
 48 49  1  0
 48 50  1  0
 50 51  1  0
 50 52  1  0
 50 53  1  0
 28 54  1  0
 54 55  1  0
 54  2  2  0
 27  4  1  0
 47 30  1  0
 21  8  1  0
M  CHG  2   3  -1  14  -1
M  END
>  <UniqueID>  (34) 
31

>  <SMILES>  (34) 
CNc1ccc(S(=O)(=O)NC)cc1/N=c1/cc[n-]c2cc(-c3ccc([O-])c(OC)c3)ccc12

>  <Energy>  (34) 
97.28864515036483

>  <Genealogy>  (34) 
CNc1ccc(S(=O)(=O)NC)cc1N=c1cc[n-]c2cc(-c3ccc([O-])c(OC)c3)ccc12 (protonated)
CNc1ccc(S(=O)(=O)NC)cc1/N=c1/cc[n-]c2cc(-c3ccc([O-])c(OC)c3)ccc12 (cis-trans isomerization)
CNc1ccc(S(=O)(=O)NC)cc1/N=c1/cc[n-]c2cc(-c3ccc([O-])c(OC)c3)ccc12 (3D coordinates assigned)
CNc1ccc(S(=O)(=O)NC)cc1/N=c1/cc[n-]c2cc(-c3ccc([O-])c(OC)c3)ccc12 (optimized conformer: 97.28864515036483 kcal/mol)

>  <smiles>  (34) 
CNc1ccc(S(=O)(=O)NC)cc1N=c1cc[nH]c2cc(-c3ccc(O)c(OC)c3)ccc12

>  <score_type>  (34) 
oracle

>  <origin>  (34) 
adgpu

>  <m_score__min__energy>  (34) 
-11.43

>  <m_primary>  (34) 
energy

$$$$
34:0
     RDKit          3D

 51 55  0  0  0  0  0  0  0  0999 V2000
   -9.7160   20.0560  -32.1830 O   0  0  0  0  0  0  0  0  0  0  0  0
   -8.4710   20.0640  -32.3810 C   0  0  0  0  0  0  0  0  0  0  0  0
   -7.8490   18.9240  -32.8960 C   0  0  0  0  0  0  0  0  0  0  0  0
   -6.4620   18.9390  -33.1140 C   0  0  0  0  0  0  0  0  0  0  0  0
   -5.7830   17.7830  -33.6390 N   0  0  0  0  0  0  0  0  0  0  0  0
   -4.6360   17.9510  -34.5410 C   0  0  0  0  0  0  0  0  0  0  0  0
   -3.7930   16.6730  -34.5570 C   0  0  0  0  0  0  0  0  0  0  0  0
   -4.5970   15.5450  -34.8390 O   0  0  0  0  0  0  0  0  0  0  0  0
   -5.5220   15.3440  -33.7880 C   0  0  0  0  0  0  0  0  0  0  0  0
   -6.5100   16.5110  -33.7000 C   0  0  0  0  0  0  0  0  0  0  0  0
   -5.7630   20.0410  -32.8460 O   0  0  0  0  0  0  0  0  0  0  0  0
   -6.3130   21.1480  -32.3550 C   0  0  0  0  0  0  0  0  0  0  0  0
   -5.5080   22.2610  -32.0910 C   0  0  0  0  0  0  0  0  0  0  0  0
   -6.0640   23.4330  -31.5630 C   0  0  0  0  0  0  0  0  0  0  0  0
   -5.2040   24.5130  -31.3010 O   0  0  0  0  0  0  0  0  0  0  0  0
   -4.9860   25.0990  -30.0180 C   0  0  0  0  0  0  0  0  0  0  0  0
   -4.2970   24.1360  -29.0990 C   0  0  0  0  0  0  0  0  0  0  0  0
   -4.2380   24.1990  -27.7220 C   0  0  0  0  0  0  0  0  0  0  0  0
   -3.4820   23.1810  -27.2670 N   0  0  0  0  0  0  0  0  0  0  0  0
   -3.0540   22.4850  -28.3120 N   0  0  0  0  0  0  0  0  0  0  0  0
   -2.2180   21.3140  -28.1990 C   0  0  0  0  0  0  0  0  0  0  0  0
   -1.1130   21.1530  -29.0570 C   0  0  0  0  0  0  0  0  0  0  0  0
   -0.2870   20.0300  -28.9530 C   0  0  0  0  0  0  0  0  0  0  0  0
   -0.5480   19.0550  -27.9880 C   0  0  0  0  0  0  0  0  0  0  0  0
    0.5840   17.5230  -27.8430 Br  0  0  0  0  0  0  0  0  0  0  0  0
   -1.6400   19.2020  -27.1270 C   0  0  0  0  0  0  0  0  0  0  0  0
   -2.4690   20.3230  -27.2280 C   0  0  0  0  0  0  0  0  0  0  0  0
   -3.5220   23.0500  -29.4470 C   0  0  0  0  0  0  0  0  0  0  0  0
   -7.4490   23.4860  -31.3090 C   0  0  0  0  0  0  0  0  0  0  0  0
   -8.2590   22.3790  -31.5730 C   0  0  0  0  0  0  0  0  0  0  0  0
   -7.6990   21.2010  -32.0960 C   0  0  0  0  0  0  0  0  0  0  0  0
   -8.4390   18.0251  -33.1280 H   0  0  0  0  0  0  0  0  0  0  0  0
   -4.9995   18.1608  -35.5578 H   0  0  0  0  0  0  0  0  0  0  0  0
   -4.0169   18.7884  -34.1869 H   0  0  0  0  0  0  0  0  0  0  0  0
   -3.0151   16.7637  -35.3295 H   0  0  0  0  0  0  0  0  0  0  0  0
   -3.3346   16.5405  -33.5659 H   0  0  0  0  0  0  0  0  0  0  0  0
   -6.0790   14.4134  -33.9713 H   0  0  0  0  0  0  0  0  0  0  0  0
   -4.9684   15.2794  -32.8396 H   0  0  0  0  0  0  0  0  0  0  0  0
   -7.1597   16.5054  -34.5876 H   0  0  0  0  0  0  0  0  0  0  0  0
   -7.1184   16.4000  -32.7903 H   0  0  0  0  0  0  0  0  0  0  0  0
   -4.4290   22.2154  -32.2999 H   0  0  0  0  0  0  0  0  0  0  0  0
   -4.3604   25.9964  -30.1338 H   0  0  0  0  0  0  0  0  0  0  0  0
   -5.9610   25.3632  -29.5826 H   0  0  0  0  0  0  0  0  0  0  0  0
   -4.7294   24.9585  -27.0961 H   0  0  0  0  0  0  0  0  0  0  0  0
   -0.8976   21.9187  -29.8168 H   0  0  0  0  0  0  0  0  0  0  0  0
    0.5702   19.9142  -29.6326 H   0  0  0  0  0  0  0  0  0  0  0  0
   -1.8473   18.4333  -26.3680 H   0  0  0  0  0  0  0  0  0  0  0  0
   -3.3239   20.4328  -26.5446 H   0  0  0  0  0  0  0  0  0  0  0  0
   -3.3197   22.7034  -30.4712 H   0  0  0  0  0  0  0  0  0  0  0  0
   -7.8951   24.4047  -30.9003 H   0  0  0  0  0  0  0  0  0  0  0  0
   -9.3391   22.4295  -31.3708 H   0  0  0  0  0  0  0  0  0  0  0  0
  1  2  2  0
  2  3  1  0
  3  4  2  0
  4  5  1  0
  5  6  1  0
  6  7  1  0
  7  8  1  0
  8  9  1  0
  9 10  1  0
  4 11  1  0
 11 12  1  0
 12 13  2  0
 13 14  1  0
 14 15  1  0
 15 16  1  0
 16 17  1  0
 17 18  1  0
 18 19  2  0
 19 20  1  0
 20 21  1  0
 21 22  2  0
 22 23  1  0
 23 24  2  0
 24 25  1  0
 24 26  1  0
 26 27  2  0
 20 28  1  0
 14 29  2  0
 29 30  1  0
 30 31  2  0
 31  2  1  0
 10  5  1  0
 31 12  1  0
 28 17  2  0
 27 21  1  0
  3 32  1  0
  6 33  1  0
  6 34  1  0
  7 35  1  0
  7 36  1  0
  9 37  1  0
  9 38  1  0
 10 39  1  0
 10 40  1  0
 13 41  1  0
 16 42  1  0
 16 43  1  0
 18 44  1  0
 22 45  1  0
 23 46  1  0
 26 47  1  0
 27 48  1  0
 28 49  1  0
 29 50  1  0
 30 51  1  0
M  END
>  <UniqueID>  (35) 
32

>  <SMILES>  (35) 
O=c1cc(N2CCOCC2)oc2cc(OCc3cnn(-c4ccc(Br)cc4)c3)ccc12

>  <Energy>  (35) 
97.35992715186727

>  <Genealogy>  (35) 
O=c1cc(N2CCOCC2)oc2cc(OCc3cnn(-c4ccc(Br)cc4)c3)ccc12 (3D coordinates assigned)
O=c1cc(N2CCOCC2)oc2cc(OCc3cnn(-c4ccc(Br)cc4)c3)ccc12 (nonaromatic ring conformer: 97.35992715186727 kcal/mol)

>  <smiles>  (35) 
O=c1cc(N2CCOCC2)oc2cc(OCc3cnn(-c4ccc(Br)cc4)c3)ccc12

>  <score_type>  (35) 
oracle

>  <origin>  (35) 
adgpu

>  <m_score__min__energy>  (35) 
-9.7899999999999991

>  <m_primary>  (35) 
energy

$$$$
35:0
     RDKit          3D

 43 45  0  0  0  0  0  0  0  0999 V2000
   -0.2740   21.7210  -26.7420 C   0  0  0  0  0  0  0  0  0  0  0  0
   -1.5110   22.4470  -27.2040 C   0  0  0  0  0  0  0  0  0  0  0  0
   -1.4990   23.8490  -27.2770 C   0  0  0  0  0  0  0  0  0  0  0  0
   -2.6280   24.5490  -27.7040 C   0  0  0  0  0  0  0  0  0  0  0  0
   -3.7940   23.8600  -28.0770 C   0  0  0  0  0  0  0  0  0  0  0  0
   -4.9740   24.5520  -28.5290 N   0  0  0  0  0  0  0  0  0  0  0  0
   -5.3590   24.8190  -30.2000 S   0  0  0  0  0  0  0  0  0  0  0  0
   -4.2490   25.6040  -30.8410 O   0  0  0  0  0  0  0  0  0  0  0  0
   -6.6330   25.6080  -30.2950 O   0  0  0  0  0  0  0  0  0  0  0  0
   -5.5860   23.2760  -31.0190 C   0  0  0  0  0  0  0  0  0  0  0  0
   -4.5010   22.6220  -31.6140 C   0  0  0  0  0  0  0  0  0  0  0  0
   -4.6840   21.3900  -32.2480 C   0  0  0  0  0  0  0  0  0  0  0  0
   -5.9580   20.7960  -32.3010 C   0  0  0  0  0  0  0  0  0  0  0  0
   -6.1550   19.4850  -32.9710 C   0  0  0  0  0  0  0  0  0  0  0  0
   -6.9680   18.4970  -32.3840 C   0  0  0  0  0  0  0  0  0  0  0  0
   -7.1530   17.2640  -33.0180 C   0  0  0  0  0  0  0  0  0  0  0  0
   -6.5290   17.0030  -34.2400 C   0  0  0  0  0  0  0  0  0  0  0  0
   -5.7200   17.9750  -34.8310 C   0  0  0  0  0  0  0  0  0  0  0  0
   -5.5330   19.2100  -34.2030 C   0  0  0  0  0  0  0  0  0  0  0  0
   -7.0450   21.4650  -31.7060 C   0  0  0  0  0  0  0  0  0  0  0  0
   -6.8590   22.6960  -31.0730 C   0  0  0  0  0  0  0  0  0  0  0  0
   -3.8110   22.4600  -28.0000 C   0  0  0  0  0  0  0  0  0  0  0  0
   -2.6800   21.7430  -27.5740 C   0  0  0  0  0  0  0  0  0  0  0  0
   -2.7400   20.2390  -27.5100 C   0  0  0  0  0  0  0  0  0  0  0  0
   -0.2472   21.7053  -25.6424 H   0  0  0  0  0  0  0  0  0  0  0  0
   -0.2905   20.6893  -27.1232 H   0  0  0  0  0  0  0  0  0  0  0  0
    0.6187   22.2385  -27.1232 H   0  0  0  0  0  0  0  0  0  0  0  0
   -0.5905   24.4012  -26.9947 H   0  0  0  0  0  0  0  0  0  0  0  0
   -2.6049   25.6478  -27.7489 H   0  0  0  0  0  0  0  0  0  0  0  0
   -5.6910   24.8400  -27.8280 H   0  0  0  0  0  0  0  0  0  0  0  0
   -3.5010   23.0792  -31.5825 H   0  0  0  0  0  0  0  0  0  0  0  0
   -3.8249   20.8808  -32.7092 H   0  0  0  0  0  0  0  0  0  0  0  0
   -7.4608   18.6958  -31.4209 H   0  0  0  0  0  0  0  0  0  0  0  0
   -7.7913   16.4982  -32.5532 H   0  0  0  0  0  0  0  0  0  0  0  0
   -6.6750   16.0322  -34.7363 H   0  0  0  0  0  0  0  0  0  0  0  0
   -5.2284   17.7687  -35.7932 H   0  0  0  0  0  0  0  0  0  0  0  0
   -4.8953   19.9719  -34.6751 H   0  0  0  0  0  0  0  0  0  0  0  0
   -8.0480   21.0147  -31.7400 H   0  0  0  0  0  0  0  0  0  0  0  0
   -7.7160   23.2117  -30.6152 H   0  0  0  0  0  0  0  0  0  0  0  0
   -4.7247   21.9140  -28.2776 H   0  0  0  0  0  0  0  0  0  0  0  0
   -2.7528   19.9170  -26.4583 H   0  0  0  0  0  0  0  0  0  0  0  0
   -3.6529   19.8867  -28.0125 H   0  0  0  0  0  0  0  0  0  0  0  0
   -1.8580   19.8151  -28.0125 H   0  0  0  0  0  0  0  0  0  0  0  0
  1  2  1  0
  2  3  2  0
  3  4  1  0
  4  5  2  0
  5  6  1  0
  6  7  1  0
  7  8  2  0
  7  9  2  0
  7 10  1  0
 10 11  2  0
 11 12  1  0
 12 13  2  0
 13 14  1  0
 14 15  2  0
 15 16  1  0
 16 17  2  0
 17 18  1  0
 18 19  2  0
 13 20  1  0
 20 21  2  0
  5 22  1  0
 22 23  2  0
 23 24  1  0
 23  2  1  0
 21 10  1  0
 19 14  1  0
  1 25  1  0
  1 26  1  0
  1 27  1  0
  3 28  1  0
  4 29  1  0
  6 30  1  0
 11 31  1  0
 12 32  1  0
 15 33  1  0
 16 34  1  0
 17 35  1  0
 18 36  1  0
 19 37  1  0
 20 38  1  0
 21 39  1  0
 22 40  1  0
 24 41  1  0
 24 42  1  0
 24 43  1  0
M  END
>  <UniqueID>  (36) 
33

>  <SMILES>  (36) 
Cc1ccc(NS(=O)(=O)c2ccc(-c3ccccc3)cc2)cc1C

>  <Energy>  (36) 
53.441055384266065

>  <Genealogy>  (36) 
Cc1ccc(NS(=O)(=O)c2ccc(-c3ccccc3)cc2)cc1C (3D coordinates assigned)
Cc1ccc(NS(=O)(=O)c2ccc(-c3ccccc3)cc2)cc1C (optimized conformer: 53.441055384266065 kcal/mol)

>  <smiles>  (36) 
Cc1ccc(NS(=O)(=O)c2ccc(-c3ccccc3)cc2)cc1C

>  <score_type>  (36) 
oracle

>  <origin>  (36) 
adgpu

>  <m_score__min__energy>  (36) 
-9.8599999999999994

>  <m_primary>  (36) 
energy

$$$$
36:0
     RDKit          3D

 44 46  0  0  0  0  0  0  0  0999 V2000
   -4.0100   24.5450  -27.8740 O   0  0  0  0  0  0  0  0  0  0  0  0
   -2.8940   24.4920  -28.8820 S   0  0  0  0  0  0  0  0  0  0  0  0
   -1.8640   25.5070  -28.4720 O   0  0  0  0  0  0  0  0  0  0  0  0
   -3.4950   24.9350  -30.4640 N   0  0  0  0  0  0  0  0  0  0  0  0
   -4.7270   24.2620  -30.9210 C   0  0  0  0  0  0  0  0  0  0  0  0
   -4.5670   22.7250  -30.9550 C   0  0  0  0  0  0  0  0  0  0  0  0
   -5.9160   21.9990  -30.8330 C   0  0  0  0  0  0  0  0  0  0  0  0
   -6.9670   22.7800  -31.5090 N   0  0  0  0  0  0  0  0  0  0  0  0
   -8.1810   21.9910  -31.8220 C   0  0  0  0  0  0  0  0  0  0  0  0
   -7.9030   20.5380  -32.1510 C   0  0  0  0  0  0  0  0  0  0  0  0
   -8.6510   19.5140  -31.5420 C   0  0  0  0  0  0  0  0  0  0  0  0
   -8.3930   18.1740  -31.8450 C   0  0  0  0  0  0  0  0  0  0  0  0
   -7.3960   17.8440  -32.7660 C   0  0  0  0  0  0  0  0  0  0  0  0
   -6.6600   18.8540  -33.3920 C   0  0  0  0  0  0  0  0  0  0  0  0
   -6.9150   20.1950  -33.0910 C   0  0  0  0  0  0  0  0  0  0  0  0
   -7.2630   24.0610  -30.8230 C   0  0  0  0  0  0  0  0  0  0  0  0
   -6.0090   24.7030  -30.1910 C   0  0  0  0  0  0  0  0  0  0  0  0
   -2.1240   22.9050  -28.8570 C   0  0  0  0  0  0  0  0  0  0  0  0
   -1.1110   22.5800  -29.7730 C   0  0  0  0  0  0  0  0  0  0  0  0
   -0.4950   21.3270  -29.7230 C   0  0  0  0  0  0  0  0  0  0  0  0
   -0.8960   20.3840  -28.7700 C   0  0  0  0  0  0  0  0  0  0  0  0
   -0.1180   18.8140  -28.7070 Cl  0  0  0  0  0  0  0  0  0  0  0  0
   -1.9180   20.6960  -27.8690 C   0  0  0  0  0  0  0  0  0  0  0  0
   -2.5350   21.9500  -27.9150 C   0  0  0  0  0  0  0  0  0  0  0  0
   -4.8703   24.6047  -31.9564 H   0  0  0  0  0  0  0  0  0  0  0  0
   -4.0952   22.4387  -31.9066 H   0  0  0  0  0  0  0  0  0  0  0  0
   -3.9458   22.4307  -30.0962 H   0  0  0  0  0  0  0  0  0  0  0  0
   -5.8402   21.0067  -31.3016 H   0  0  0  0  0  0  0  0  0  0  0  0
   -6.1736   21.8883  -29.7693 H   0  0  0  0  0  0  0  0  0  0  0  0
   -8.8510   22.0264  -30.9503 H   0  0  0  0  0  0  0  0  0  0  0  0
   -8.6305   22.4406  -32.7197 H   0  0  0  0  0  0  0  0  0  0  0  0
   -9.4435   19.7693  -30.8232 H   0  0  0  0  0  0  0  0  0  0  0  0
   -8.9758   17.3785  -31.3576 H   0  0  0  0  0  0  0  0  0  0  0  0
   -7.1900   16.7888  -32.9987 H   0  0  0  0  0  0  0  0  0  0  0  0
   -5.8795   18.5934  -34.1220 H   0  0  0  0  0  0  0  0  0  0  0  0
   -6.3393   20.9868  -33.5925 H   0  0  0  0  0  0  0  0  0  0  0  0
   -7.6860   24.7632  -31.5564 H   0  0  0  0  0  0  0  0  0  0  0  0
   -7.9716   23.8459  -30.0096 H   0  0  0  0  0  0  0  0  0  0  0  0
   -6.0975   25.7977  -30.2518 H   0  0  0  0  0  0  0  0  0  0  0  0
   -5.9420   24.3758  -29.1429 H   0  0  0  0  0  0  0  0  0  0  0  0
   -0.8015   23.3136  -30.5319 H   0  0  0  0  0  0  0  0  0  0  0  0
    0.3071   21.0811  -30.4344 H   0  0  0  0  0  0  0  0  0  0  0  0
   -2.2375   19.9539  -27.1225 H   0  0  0  0  0  0  0  0  0  0  0  0
   -3.3453   22.1885  -27.2103 H   0  0  0  0  0  0  0  0  0  0  0  0
  1  2  2  0
  2  3  2  0
  2  4  1  0
  4  5  1  0
  5  6  1  0
  6  7  1  0
  7  8  1  0
  8  9  1  0
  9 10  1  0
 10 11  2  0
 11 12  1  0
 12 13  2  0
 13 14  1  0
 14 15  2  0
  8 16  1  0
 16 17  1  0
  2 18  1  0
 18 19  2  0
 19 20  1  0
 20 21  2  0
 21 22  1  0
 21 23  1  0
 23 24  2  0
 17  5  1  0
 24 18  1  0
 15 10  1  0
  5 25  1  0
  6 26  1  0
  6 27  1  0
  7 28  1  0
  7 29  1  0
  9 30  1  0
  9 31  1  0
 11 32  1  0
 12 33  1  0
 13 34  1  0
 14 35  1  0
 15 36  1  0
 16 37  1  0
 16 38  1  0
 17 39  1  0
 17 40  1  0
 19 41  1  0
 20 42  1  0
 23 43  1  0
 24 44  1  0
M  CHG  1   4  -1
M  END
>  <UniqueID>  (37) 
34

>  <SMILES>  (37) 
O=S(=O)([N-]C1CCN(Cc2ccccc2)CC1)c1ccc(Cl)cc1

>  <Energy>  (37) 
59.047527258227944

>  <Genealogy>  (37) 
O=S(=O)([N-]C1CCN(Cc2ccccc2)CC1)c1ccc(Cl)cc1 (protonated)
O=S(=O)([N-]C1CCN(Cc2ccccc2)CC1)c1ccc(Cl)cc1 (3D coordinates assigned)
O=S(=O)([N-]C1CCN(Cc2ccccc2)CC1)c1ccc(Cl)cc1 (nonaromatic ring conformer: 59.047527258227944 kcal/mol)

>  <smiles>  (37) 
O=S(=O)(NC1CCN(Cc2ccccc2)CC1)c1ccc(Cl)cc1

>  <score_type>  (37) 
oracle

>  <origin>  (37) 
adgpu

>  <m_score__min__energy>  (37) 
-10.65

>  <m_primary>  (37) 
energy

$$$$
37:0
     RDKit          3D

 36 39  0  0  0  0  0  0  0  0999 V2000
   -6.5390   20.7760  -31.2800 O   0  0  0  0  0  0  0  0  0  0  0  0
   -5.6920   20.3880  -32.1310 C   0  0  0  0  0  0  0  0  0  0  0  0
   -4.4720   21.1240  -32.3210 N   0  0  0  0  0  0  0  0  0  0  0  0
   -3.9450   22.0580  -31.3620 C   0  0  0  0  0  0  0  0  0  0  0  0
   -4.6260   23.2440  -31.0420 C   0  0  0  0  0  0  0  0  0  0  0  0
   -4.1070   24.1260  -30.0900 C   0  0  0  0  0  0  0  0  0  0  0  0
   -2.8980   23.8330  -29.4300 C   0  0  0  0  0  0  0  0  0  0  0  0
   -2.3260   24.7510  -28.4180 C   0  0  0  0  0  0  0  0  0  0  0  0
   -2.4780   24.6650  -27.0310 C   0  0  0  0  0  0  0  0  0  0  0  0
   -1.7670   25.7330  -26.5400 C   0  0  0  0  0  0  0  0  0  0  0  0
   -1.5540   26.1650  -25.2320 C   0  0  0  0  0  0  0  0  0  0  0  0
   -0.7670   27.3160  -25.0440 C   0  0  0  0  0  0  0  0  0  0  0  0
   -0.2190   27.9980  -26.1540 C   0  0  0  0  0  0  0  0  0  0  0  0
   -0.4550   27.5340  -27.4630 C   0  0  0  0  0  0  0  0  0  0  0  0
   -1.2380   26.3930  -27.6160 C   0  0  0  0  0  0  0  0  0  0  0  0
   -1.5780   25.7970  -28.7310 O   0  0  0  0  0  0  0  0  0  0  0  0
   -2.2320   22.6350  -29.7370 C   0  0  0  0  0  0  0  0  0  0  0  0
   -2.7540   21.7540  -30.6880 C   0  0  0  0  0  0  0  0  0  0  0  0
   -5.9960   19.2040  -32.9520 C   0  0  0  0  0  0  0  0  0  0  0  0
   -5.4920   18.9140  -34.2170 C   0  0  0  0  0  0  0  0  0  0  0  0
   -5.9570   17.6980  -34.7320 C   0  0  0  0  0  0  0  0  0  0  0  0
   -6.8230   17.0230  -33.8820 C   0  0  0  0  0  0  0  0  0  0  0  0
   -7.0070   17.9410  -32.4860 S   0  0  0  0  0  0  0  0  0  0  0  0
   -3.9950   21.0560  -33.2470 H   0  0  0  0  0  0  0  0  0  0  0  0
   -5.5754   23.4806  -31.5446 H   0  0  0  0  0  0  0  0  0  0  0  0
   -4.6466   25.0553  -29.8547 H   0  0  0  0  0  0  0  0  0  0  0  0
   -3.0407   23.9112  -26.4607 H   0  0  0  0  0  0  0  0  0  0  0  0
   -1.9861   25.6249  -24.3767 H   0  0  0  0  0  0  0  0  0  0  0  0
   -0.5769   27.6876  -24.0263 H   0  0  0  0  0  0  0  0  0  0  0  0
    0.3954   28.8964  -25.9948 H   0  0  0  0  0  0  0  0  0  0  0  0
   -0.0346   28.0559  -28.3353 H   0  0  0  0  0  0  0  0  0  0  0  0
   -1.2908   22.3880  -29.2241 H   0  0  0  0  0  0  0  0  0  0  0  0
   -2.2262   20.8146  -30.9094 H   0  0  0  0  0  0  0  0  0  0  0  0
   -4.7979   19.5742  -34.7577 H   0  0  0  0  0  0  0  0  0  0  0  0
   -5.6632   17.3126  -35.7195 H   0  0  0  0  0  0  0  0  0  0  0  0
   -7.3049   16.0556  -34.0866 H   0  0  0  0  0  0  0  0  0  0  0  0
  1  2  2  0
  2  3  1  0
  3  4  1  0
  4  5  2  0
  5  6  1  0
  6  7  2  0
  7  8  1  0
  8  9  2  0
  9 10  1  0
 10 11  2  0
 11 12  1  0
 12 13  2  0
 13 14  1  0
 14 15  2  0
 15 16  1  0
  7 17  1  0
 17 18  2  0
  2 19  1  0
 19 20  2  0
 20 21  1  0
 21 22  2  0
 22 23  1  0
 18  4  1  0
 23 19  1  0
 16  8  1  0
 15 10  1  0
  3 24  1  0
  5 25  1  0
  6 26  1  0
  9 27  1  0
 11 28  1  0
 12 29  1  0
 13 30  1  0
 14 31  1  0
 17 32  1  0
 18 33  1  0
 20 34  1  0
 21 35  1  0
 22 36  1  0
M  END
>  <UniqueID>  (38) 
35

>  <SMILES>  (38) 
O=C(Nc1ccc(-c2cc3ccccc3o2)cc1)c1cccs1

>  <Energy>  (38) 
104.87837841547443

>  <Genealogy>  (38) 
O=C(Nc1ccc(-c2cc3ccccc3o2)cc1)c1cccs1 (3D coordinates assigned)
O=C(Nc1ccc(-c2cc3ccccc3o2)cc1)c1cccs1 (optimized conformer: 104.87837841547443 kcal/mol)

>  <smiles>  (38) 
O=C(Nc1ccc(-c2cc3ccccc3o2)cc1)c1cccs1

>  <score_type>  (38) 
oracle

>  <origin>  (38) 
adgpu

>  <m_score__min__energy>  (38) 
-7.7800000000000002

>  <m_primary>  (38) 
energy

$$$$
38:0
     RDKit          3D

 55 58  0  0  0  0  0  0  0  0999 V2000
   -1.0560   26.9090  -26.2210 C   0  0  0  0  0  0  0  0  0  0  0  0
   -0.5610   26.3500  -27.5520 C   0  0  0  0  0  0  0  0  0  0  0  0
   -1.1820   25.0480  -27.8220 N   0  0  0  0  0  0  0  0  0  0  0  0
   -2.0780   24.9730  -28.8100 N   0  0  0  0  0  0  0  0  0  0  0  0
   -2.7410   23.8310  -29.1270 C   0  0  0  0  0  0  0  0  0  0  0  0
   -3.7500   23.9090  -30.2020 C   0  0  0  0  0  0  0  0  0  0  0  0
   -3.9160   24.9810  -30.8410 O   0  0  0  0  0  0  0  0  0  0  0  0
   -4.4490   22.7180  -30.5900 N   0  0  0  0  0  0  0  0  0  0  0  0
   -5.8170   22.6340  -31.0130 C   0  0  0  0  0  0  0  0  0  0  0  0
   -6.5300   23.8210  -31.2160 C   0  0  0  0  0  0  0  0  0  0  0  0
   -7.8460   23.7830  -31.6850 C   0  0  0  0  0  0  0  0  0  0  0  0
   -8.4620   22.5590  -31.9550 C   0  0  0  0  0  0  0  0  0  0  0  0
   -7.7580   21.3620  -31.7600 C   0  0  0  0  0  0  0  0  0  0  0  0
   -8.5410   19.8130  -32.0680 S   0  0  0  0  0  0  0  0  0  0  0  0
   -8.8280   19.1200  -30.7620 O   0  0  0  0  0  0  0  0  0  0  0  0
   -9.8500   20.0600  -32.7690 O   0  0  0  0  0  0  0  0  0  0  0  0
   -7.5110   18.8150  -33.0690 N   0  0  0  0  0  0  0  0  0  0  0  0
   -6.5360   19.6580  -33.7880 C   0  0  0  0  0  0  0  0  0  0  0  0
   -5.7300   18.8310  -34.8140 C   0  0  0  0  0  0  0  0  0  0  0  0
   -5.5830   17.3570  -34.4030 C   0  0  0  0  0  0  0  0  0  0  0  0
   -5.5610   17.2120  -32.8790 C   0  0  0  0  0  0  0  0  0  0  0  0
   -6.8430   17.7850  -32.2340 C   0  0  0  0  0  0  0  0  0  0  0  0
   -6.4320   21.4000  -31.3020 C   0  0  0  0  0  0  0  0  0  0  0  0
   -2.4500   22.6490  -28.4070 C   0  0  0  0  0  0  0  0  0  0  0  0
   -3.0160   21.3960  -28.7310 C   0  0  0  0  0  0  0  0  0  0  0  0
   -2.6960   20.2580  -27.9890 C   0  0  0  0  0  0  0  0  0  0  0  0
   -1.7960   20.3420  -26.9260 C   0  0  0  0  0  0  0  0  0  0  0  0
   -1.2040   21.5630  -26.6060 C   0  0  0  0  0  0  0  0  0  0  0  0
   -1.5160   22.7230  -27.3450 C   0  0  0  0  0  0  0  0  0  0  0  0
   -0.8940   23.9520  -27.0590 C   0  0  0  0  0  0  0  0  0  0  0  0
   -0.0690   24.0410  -26.1080 O   0  0  0  0  0  0  0  0  0  0  0  0
   -0.5753   26.3661  -25.3938 H   0  0  0  0  0  0  0  0  0  0  0  0
   -0.8023   27.9773  -26.1549 H   0  0  0  0  0  0  0  0  0  0  0  0
   -2.1472   26.7865  -26.1549 H   0  0  0  0  0  0  0  0  0  0  0  0
   -0.8220   27.0505  -28.3590 H   0  0  0  0  0  0  0  0  0  0  0  0
    0.5303   26.2215  -27.5016 H   0  0  0  0  0  0  0  0  0  0  0  0
   -6.0521   24.7891  -31.0053 H   0  0  0  0  0  0  0  0  0  0  0  0
   -8.3988   24.7209  -31.8421 H   0  0  0  0  0  0  0  0  0  0  0  0
   -9.4992   22.5339  -32.3205 H   0  0  0  0  0  0  0  0  0  0  0  0
   -8.1330   18.3410  -33.7690 H   0  0  0  0  0  0  0  0  0  0  0  0
   -7.0748   20.4582  -34.3165 H   0  0  0  0  0  0  0  0  0  0  0  0
   -5.8342   20.0811  -33.0542 H   0  0  0  0  0  0  0  0  0  0  0  0
   -6.2451   18.8760  -35.7849 H   0  0  0  0  0  0  0  0  0  0  0  0
   -4.7199   19.2630  -34.8692 H   0  0  0  0  0  0  0  0  0  0  0  0
   -6.4313   16.7847  -34.8066 H   0  0  0  0  0  0  0  0  0  0  0  0
   -4.6335   16.9740  -34.8053 H   0  0  0  0  0  0  0  0  0  0  0  0
   -5.4789   16.1453  -32.6231 H   0  0  0  0  0  0  0  0  0  0  0  0
   -4.6997   17.7765  -32.4923 H   0  0  0  0  0  0  0  0  0  0  0  0
   -7.5495   16.9585  -32.0677 H   0  0  0  0  0  0  0  0  0  0  0  0
   -6.5449   18.2714  -31.2935 H   0  0  0  0  0  0  0  0  0  0  0  0
   -5.8711   20.4632  -31.1683 H   0  0  0  0  0  0  0  0  0  0  0  0
   -3.7156   21.3164  -29.5761 H   0  0  0  0  0  0  0  0  0  0  0  0
   -3.1550   19.2912  -28.2432 H   0  0  0  0  0  0  0  0  0  0  0  0
   -1.5532   19.4435  -26.3396 H   0  0  0  0  0  0  0  0  0  0  0  0
   -0.4892   21.6220  -25.7720 H   0  0  0  0  0  0  0  0  0  0  0  0
  1  2  1  0
  2  3  1  0
  3  4  1  0
  4  5  2  0
  5  6  1  0
  6  7  2  0
  6  8  1  0
  8  9  1  0
  9 10  2  0
 10 11  1  0
 11 12  2  0
 12 13  1  0
 13 14  1  0
 14 15  2  0
 14 16  2  0
 14 17  1  0
 17 18  1  0
 18 19  1  0
 19 20  1  0
 20 21  1  0
 21 22  1  0
 13 23  2  0
  5 24  1  0
 24 25  2  0
 25 26  1  0
 26 27  2  0
 27 28  1  0
 28 29  2  0
 29 30  1  0
 30 31  2  0
 30  3  1  0
 23  9  1  0
 29 24  1  0
 22 17  1  0
  1 32  1  0
  1 33  1  0
  1 34  1  0
  2 35  1  0
  2 36  1  0
 10 37  1  0
 11 38  1  0
 12 39  1  0
 17 40  1  0
 18 41  1  0
 18 42  1  0
 19 43  1  0
 19 44  1  0
 20 45  1  0
 20 46  1  0
 21 47  1  0
 21 48  1  0
 22 49  1  0
 22 50  1  0
 23 51  1  0
 25 52  1  0
 26 53  1  0
 27 54  1  0
 28 55  1  0
M  CHG  2   8  -1  17   1
M  END
>  <UniqueID>  (39) 
36

>  <SMILES>  (39) 
CCn1nc(C(=O)[N-]c2cccc(S(=O)(=O)[NH+]3CCCCC3)c2)c2ccccc2c1=O

>  <Energy>  (39) 
74.14802961545536

>  <Genealogy>  (39) 
CCn1nc(C(=O)[N-]c2cccc(S(=O)(=O)[NH+]3CCCCC3)c2)c2ccccc2c1=O (protonated)
CCn1nc(C(=O)[N-]c2cccc(S(=O)(=O)[NH+]3CCCCC3)c2)c2ccccc2c1=O (3D coordinates assigned)
CCn1nc(C(=O)[N-]c2cccc(S(=O)(=O)[NH+]3CCCCC3)c2)c2ccccc2c1=O (nonaromatic ring conformer: 74.14802961545536 kcal/mol)

>  <smiles>  (39) 
CCn1nc(C(=O)Nc2cccc(S(=O)(=O)N3CCCCC3)c2)c2ccccc2c1=O

>  <score_type>  (39) 
oracle

>  <origin>  (39) 
adgpu

>  <m_score__min__energy>  (39) 
-11.51

>  <m_primary>  (39) 
energy

$$$$
39:0
     RDKit          3D

 43 45  0  0  0  0  0  0  0  0999 V2000
   -5.3160   25.6490  -30.4720 C   0  0  0  0  0  0  0  0  0  0  0  0
   -3.9160   25.3920  -30.4880 O   0  0  0  0  0  0  0  0  0  0  0  0
   -3.3210   24.2040  -30.0370 C   0  0  0  0  0  0  0  0  0  0  0  0
   -3.8710   22.9390  -30.3170 C   0  0  0  0  0  0  0  0  0  0  0  0
   -3.2500   21.7790  -29.8520 C   0  0  0  0  0  0  0  0  0  0  0  0
   -2.0680   21.8580  -29.1040 C   0  0  0  0  0  0  0  0  0  0  0  0
   -1.4300   20.6600  -28.6170 N   0  0  0  0  0  0  0  0  0  0  0  0
   -1.9970   19.9920  -27.5680 C   0  0  0  0  0  0  0  0  0  0  0  0
   -1.4330   18.8540  -27.0880 N   0  0  0  0  0  0  0  0  0  0  0  0
   -0.2970   18.3490  -27.6280 C   0  0  0  0  0  0  0  0  0  0  0  0
    0.2590   17.1760  -27.1110 C   0  0  0  0  0  0  0  0  0  0  0  0
    1.4400   16.6430  -27.6630 C   0  0  0  0  0  0  0  0  0  0  0  0
    2.0270   15.4660  -27.1700 O   0  0  0  0  0  0  0  0  0  0  0  0
    1.2980   14.3360  -26.7010 C   0  0  0  0  0  0  0  0  0  0  0  0
    2.0620   17.2970  -28.7370 C   0  0  0  0  0  0  0  0  0  0  0  0
    3.2390   16.7390  -29.2620 O   0  0  0  0  0  0  0  0  0  0  0  0
    4.4700   16.6350  -28.5550 C   0  0  0  0  0  0  0  0  0  0  0  0
    1.5000   18.4810  -29.2560 C   0  0  0  0  0  0  0  0  0  0  0  0
    0.3200   19.0100  -28.7040 C   0  0  0  0  0  0  0  0  0  0  0  0
   -0.2760   20.1900  -29.1890 C   0  0  0  0  0  0  0  0  0  0  0  0
    0.2640   20.8220  -30.1410 O   0  0  0  0  0  0  0  0  0  0  0  0
   -1.5180   23.1180  -28.8180 C   0  0  0  0  0  0  0  0  0  0  0  0
   -2.1390   24.2940  -29.2830 C   0  0  0  0  0  0  0  0  0  0  0  0
   -1.6130   25.5680  -29.0180 O   0  0  0  0  0  0  0  0  0  0  0  0
   -0.9740   25.9400  -27.8010 C   0  0  0  0  0  0  0  0  0  0  0  0
   -5.6651   25.7131  -29.4309 H   0  0  0  0  0  0  0  0  0  0  0  0
   -5.5202   26.5996  -30.9864 H   0  0  0  0  0  0  0  0  0  0  0  0
   -5.8445   24.8329  -30.9864 H   0  0  0  0  0  0  0  0  0  0  0  0
   -4.7967   22.8642  -30.9064 H   0  0  0  0  0  0  0  0  0  0  0  0
   -3.6914   20.7962  -30.0742 H   0  0  0  0  0  0  0  0  0  0  0  0
   -2.9182   20.3797  -27.1086 H   0  0  0  0  0  0  0  0  0  0  0  0
   -0.2288   16.6656  -26.2675 H   0  0  0  0  0  0  0  0  0  0  0  0
    1.2955   14.3321  -25.6010 H   0  0  0  0  0  0  0  0  0  0  0  0
    0.2630   14.3885  -27.0699 H   0  0  0  0  0  0  0  0  0  0  0  0
    1.7725   13.4147  -27.0699 H   0  0  0  0  0  0  0  0  0  0  0  0
    4.2738   16.6516  -27.4728 H   0  0  0  0  0  0  0  0  0  0  0  0
    4.9681   15.6916  -28.8229 H   0  0  0  0  0  0  0  0  0  0  0  0
    5.1194   17.4815  -28.8229 H   0  0  0  0  0  0  0  0  0  0  0  0
    1.9876   18.9942  -30.0980 H   0  0  0  0  0  0  0  0  0  0  0  0
   -0.5938   23.1874  -28.2255 H   0  0  0  0  0  0  0  0  0  0  0  0
   -1.5755   25.5899  -26.9491 H   0  0  0  0  0  0  0  0  0  0  0  0
    0.0254   25.4826  -27.7569 H   0  0  0  0  0  0  0  0  0  0  0  0
   -0.8783   27.0349  -27.7569 H   0  0  0  0  0  0  0  0  0  0  0  0
  1  2  1  0
  2  3  1  0
  3  4  2  0
  4  5  1  0
  5  6  2  0
  6  7  1  0
  7  8  1  0
  8  9  2  0
  9 10  1  0
 10 11  2  0
 11 12  1  0
 12 13  1  0
 13 14  1  0
 12 15  2  0
 15 16  1  0
 16 17  1  0
 15 18  1  0
 18 19  2  0
 19 20  1  0
 20 21  2  0
  6 22  1  0
 22 23  2  0
 23 24  1  0
 24 25  1  0
 23  3  1  0
 20  7  1  0
 19 10  1  0
  1 26  1  0
  1 27  1  0
  1 28  1  0
  4 29  1  0
  5 30  1  0
  8 31  1  0
 11 32  1  0
 14 33  1  0
 14 34  1  0
 14 35  1  0
 17 36  1  0
 17 37  1  0
 17 38  1  0
 18 39  1  0
 22 40  1  0
 25 41  1  0
 25 42  1  0
 25 43  1  0
M  END
>  <UniqueID>  (40) 
37

>  <SMILES>  (40) 
COc1ccc(-n2cnc3cc(OC)c(OC)cc3c2=O)cc1OC

>  <Energy>  (40) 
56.258653818492036

>  <Genealogy>  (40) 
COc1ccc(-n2cnc3cc(OC)c(OC)cc3c2=O)cc1OC (3D coordinates assigned)
COc1ccc(-n2cnc3cc(OC)c(OC)cc3c2=O)cc1OC (optimized conformer: 56.258653818492036 kcal/mol)

>  <smiles>  (40) 
COc1ccc(-n2cnc3cc(OC)c(OC)cc3c2=O)cc1OC

>  <score_type>  (40) 
oracle

>  <origin>  (40) 
adgpu

>  <m_score__min__energy>  (40) 
-6.9299999999999997

>  <m_primary>  (40) 
energy

$$$$
40:0
     RDKit          3D

 55 58  0  0  0  0  0  0  0  0999 V2000
   -2.7680   25.6630  -29.3460 H   0  0  0  0  0  0  0  0  0  0  0  0
   -1.8090   25.6920  -28.9360 N   0  0  0  0  0  0  0  0  0  0  0  0
   -0.9400   24.5650  -29.0250 C   0  0  0  0  0  0  0  0  0  0  0  0
    0.1510   24.5680  -28.3950 O   0  0  0  0  0  0  0  0  0  0  0  0
   -1.3160   23.4080  -29.8530 C   0  0  0  0  0  0  0  0  0  0  0  0
   -0.4750   22.4340  -30.3550 C   0  0  0  0  0  0  0  0  0  0  0  0
    0.6107   22.3780  -30.1875 H   0  0  0  0  0  0  0  0  0  0  0  0
   -1.2060   21.5580  -31.0880 N   0  0  0  0  0  0  0  0  0  0  0  0
   -0.7030   20.4290  -31.9110 C   0  0  2  0  0  0  0  0  0  0  0  0
    0.7670   20.1300  -31.5020 C   0  0  0  0  0  0  0  0  0  0  0  0
    1.2690   21.0827  -31.2779 H   0  0  0  0  0  0  0  0  0  0  0  0
    1.2415   19.6032  -32.3430 H   0  0  0  0  0  0  0  0  0  0  0  0
    0.8700   19.2570  -30.3220 C   0  0  0  0  0  0  0  0  0  0  0  0
    0.9510   18.5690  -29.3950 N   0  0  0  0  0  0  0  0  0  0  0  0
   -0.7210   20.8490  -33.4210 C   0  0  0  0  0  0  0  0  0  0  0  0
    0.2440   21.3136  -33.6717 H   0  0  0  0  0  0  0  0  0  0  0  0
   -1.5526   21.5540  -33.5672 H   0  0  0  0  0  0  0  0  0  0  0  0
   -0.9490   19.6490  -34.3500 C   0  0  0  0  0  0  0  0  0  0  0  0
   -0.1736   18.8940  -34.1534 H   0  0  0  0  0  0  0  0  0  0  0  0
   -0.8981   20.0062  -35.3892 H   0  0  0  0  0  0  0  0  0  0  0  0
   -2.2880   19.0320  -34.1370 N   0  0  1  0  0  0  0  0  0  0  0  0
   -2.9800   19.5680  -34.7130 H   0  0  0  0  0  0  0  0  0  0  0  0
   -2.3080   17.6260  -34.6100 C   0  0  0  0  0  0  0  0  0  0  0  0
   -2.4012   17.6218  -35.7060 H   0  0  0  0  0  0  0  0  0  0  0  0
   -1.3720   17.1467  -34.2872 H   0  0  0  0  0  0  0  0  0  0  0  0
   -3.4590   16.8440  -34.0200 C   0  0  0  0  0  0  0  0  0  0  0  0
   -3.2710   15.5190  -33.5980 C   0  0  0  0  0  0  0  0  0  0  0  0
   -2.2901   15.0347  -33.7131 H   0  0  0  0  0  0  0  0  0  0  0  0
   -4.3380   14.8200  -33.0310 C   0  0  0  0  0  0  0  0  0  0  0  0
   -4.1690   13.5390  -32.6210 F   0  0  0  0  0  0  0  0  0  0  0  0
   -5.5480   15.4210  -32.8860 N   0  0  0  0  0  0  0  0  0  0  0  0
   -5.7590   16.7050  -33.2810 C   0  0  0  0  0  0  0  0  0  0  0  0
   -7.3390   17.4320  -33.0650 Cl  0  0  0  0  0  0  0  0  0  0  0  0
   -4.7180   17.4410  -33.8550 C   0  0  0  0  0  0  0  0  0  0  0  0
   -4.8848   18.4802  -34.1748 H   0  0  0  0  0  0  0  0  0  0  0  0
   -2.7530   19.1180  -32.7220 C   0  0  0  0  0  0  0  0  0  0  0  0
   -3.3834   18.2435  -32.5034 H   0  0  0  0  0  0  0  0  0  0  0  0
   -3.3145   20.0572  -32.6095 H   0  0  0  0  0  0  0  0  0  0  0  0
   -1.5860   19.1470  -31.7240 C   0  0  0  0  0  0  0  0  0  0  0  0
   -0.9601   18.2559  -31.8796 H   0  0  0  0  0  0  0  0  0  0  0  0
   -2.0023   19.1596  -30.7059 H   0  0  0  0  0  0  0  0  0  0  0  0
   -2.4700   21.9620  -31.1050 N   0  0  0  0  0  0  0  0  0  0  0  0
   -2.5610   23.0660  -30.3400 C   0  0  0  0  0  0  0  0  0  0  0  0
   -3.6520   23.7500  -30.1520 N   0  0  0  0  0  0  0  0  0  0  0  0
   -4.9670   23.4110  -30.6240 C   0  0  0  0  0  0  0  0  0  0  0  0
   -5.1190   23.0210  -31.9620 C   0  0  0  0  0  0  0  0  0  0  0  0
   -4.2374   22.9610  -32.6171 H   0  0  0  0  0  0  0  0  0  0  0  0
   -6.3830   22.7080  -32.4690 C   0  0  0  0  0  0  0  0  0  0  0  0
   -6.4907   22.3892  -33.5163 H   0  0  0  0  0  0  0  0  0  0  0  0
   -7.5100   22.7990  -31.6490 C   0  0  0  0  0  0  0  0  0  0  0  0
   -8.7360   22.4970  -32.1430 F   0  0  0  0  0  0  0  0  0  0  0  0
   -7.3750   23.2150  -30.3210 C   0  0  0  0  0  0  0  0  0  0  0  0
   -8.2635   23.2953  -29.6775 H   0  0  0  0  0  0  0  0  0  0  0  0
   -6.1120   23.5290  -29.8100 C   0  0  0  0  0  0  0  0  0  0  0  0
   -6.0113   23.8694  -28.7689 H   0  0  0  0  0  0  0  0  0  0  0  0
  1  2  1  0
  2  3  1  0
  3  4  2  0
  3  5  1  0
  5  6  2  0
  6  7  1  0
  6  8  1  0
  8  9  1  0
  9 10  1  1
 10 11  1  0
 10 12  1  0
 10 13  1  0
 13 14  3  0
  9 15  1  0
 15 16  1  0
 15 17  1  0
 15 18  1  0
 18 19  1  0
 18 20  1  0
 18 21  1  0
 21 22  1  6
 21 23  1  0
 23 24  1  0
 23 25  1  0
 23 26  1  0
 26 27  2  0
 27 28  1  0
 27 29  1  0
 29 30  1  0
 29 31  2  0
 31 32  1  0
 32 33  1  0
 32 34  2  0
 34 35  1  0
 21 36  1  0
 36 37  1  0
 36 38  1  0
 36 39  1  0
 39 40  1  0
 39 41  1  0
  8 42  1  0
 42 43  1  0
 43 44  2  0
 44 45  1  0
 45 46  2  0
 46 47  1  0
 46 48  1  0
 48 49  1  0
 48 50  2  0
 50 51  1  0
 50 52  1  0
 52 53  1  0
 52 54  2  0
 54 55  1  0
 43  5  1  0
 54 45  1  0
 39  9  1  0
 34 26  1  0
M  CHG  3   2  -1  21   1  42  -1
M  END
>  <UniqueID>  (41) 
38

>  <SMILES>  (41) 
N#CCC1(n2cc(C([NH-])=O)/c(=N/c3ccc(F)cc3)[n-]2)CC[NH+](Cc2cc(F)nc(Cl)c2)CC1

>  <Energy>  (41) 
107.8185601670637

>  <Genealogy>  (41) 
N#CCC1(n2cc(C([NH-])=O)c(=Nc3ccc(F)cc3)[n-]2)CC[NH+](Cc2cc(F)nc(Cl)c2)CC1 (protonated)
N#CCC1(n2cc(C([NH-])=O)/c(=N/c3ccc(F)cc3)[n-]2)CC[NH+](Cc2cc(F)nc(Cl)c2)CC1 (cis-trans isomerization)
N#CCC1(n2cc(C([NH-])=O)/c(=N/c3ccc(F)cc3)[n-]2)CC[NH+](Cc2cc(F)nc(Cl)c2)CC1 (3D coordinates assigned)
N#CCC1(n2cc(C([NH-])=O)/c(=N/c3ccc(F)cc3)[n-]2)CC[NH+](Cc2cc(F)nc(Cl)c2)CC1 (nonaromatic ring conformer: 107.8185601670637 kcal/mol)

>  <smiles>  (41) 
N#CCC1(n2cc(C(N)=O)c(=Nc3ccc(F)cc3)[nH]2)CCN(Cc2cc(F)nc(Cl)c2)CC1

>  <score_type>  (41) 
oracle

>  <origin>  (41) 
adgpu

>  <m_score__min__energy>  (41) 
-11.369999999999999

>  <m_primary>  (41) 
energy

$$$$
41:0
     RDKit          3D

 49 52  0  0  0  0  0  0  0  0999 V2000
    1.3480   18.5260  -31.3070 C   0  0  0  0  0  0  0  0  0  0  0  0
    0.6630   19.0240  -32.4520 O   0  0  0  0  0  0  0  0  0  0  0  0
   -0.6830   19.4190  -32.4600 C   0  0  0  0  0  0  0  0  0  0  0  0
   -1.3080   19.6730  -31.2350 C   0  0  0  0  0  0  0  0  0  0  0  0
   -2.6480   20.0690  -31.1900 C   0  0  0  0  0  0  0  0  0  0  0  0
   -3.3810   20.2160  -32.3760 C   0  0  0  0  0  0  0  0  0  0  0  0
   -4.8110   20.6070  -32.3260 C   0  0  0  0  0  0  0  0  0  0  0  0
   -5.8080   19.6930  -32.7500 C   0  0  0  0  0  0  0  0  0  0  0  0
   -5.4730   18.3580  -33.2990 C   0  0  0  0  0  0  0  0  0  0  0  0
   -5.3720   17.2390  -32.4600 C   0  0  0  0  0  0  0  0  0  0  0  0
   -5.0620   15.9880  -32.9960 C   0  0  0  0  0  0  0  0  0  0  0  0
   -4.8480   15.8680  -34.3730 C   0  0  0  0  0  0  0  0  0  0  0  0
   -4.5300   14.5910  -34.9500 C   0  0  0  0  0  0  0  0  0  0  0  0
   -4.2730   13.5630  -35.4160 N   0  0  0  0  0  0  0  0  0  0  0  0
   -4.9360   16.9640  -35.1720 N   0  0  0  0  0  0  0  0  0  0  0  0
   -5.2360   18.1920  -34.6720 C   0  0  0  0  0  0  0  0  0  0  0  0
   -7.1550   20.0640  -32.6590 C   0  0  0  0  0  0  0  0  0  0  0  0
   -7.5040   21.2870  -32.1900 N   0  0  0  0  0  0  0  0  0  0  0  0
   -6.5800   22.1930  -31.7780 C   0  0  0  0  0  0  0  0  0  0  0  0
   -7.0050   23.4330  -31.2970 C   0  0  0  0  0  0  0  0  0  0  0  0
   -6.0720   24.3820  -30.8410 C   0  0  0  0  0  0  0  0  0  0  0  0
   -6.4650   25.6390  -30.3540 O   0  0  0  0  0  0  0  0  0  0  0  0
   -6.4890   26.0010  -28.9780 C   0  0  0  0  0  0  0  0  0  0  0  0
   -4.7050   24.0750  -30.8640 C   0  0  0  0  0  0  0  0  0  0  0  0
   -3.8010   25.0420  -30.3950 O   0  0  0  0  0  0  0  0  0  0  0  0
   -2.9320   24.8650  -29.2800 C   0  0  0  0  0  0  0  0  0  0  0  0
   -4.2760   22.8250  -31.3500 C   0  0  0  0  0  0  0  0  0  0  0  0
   -5.2040   21.8760  -31.8250 C   0  0  0  0  0  0  0  0  0  0  0  0
   -2.7600   19.9590  -33.6080 C   0  0  0  0  0  0  0  0  0  0  0  0
   -1.4200   19.5650  -33.6520 C   0  0  0  0  0  0  0  0  0  0  0  0
    0.8500   18.8881  -30.3955 H   0  0  0  0  0  0  0  0  0  0  0  0
    1.3334   17.4262  -31.3206 H   0  0  0  0  0  0  0  0  0  0  0  0
    2.3897   18.8791  -31.3206 H   0  0  0  0  0  0  0  0  0  0  0  0
   -0.7407   19.5603  -30.2993 H   0  0  0  0  0  0  0  0  0  0  0  0
   -3.1290   20.2660  -30.2205 H   0  0  0  0  0  0  0  0  0  0  0  0
   -5.5373   17.3472  -31.3779 H   0  0  0  0  0  0  0  0  0  0  0  0
   -4.9868   15.1062  -32.3427 H   0  0  0  0  0  0  0  0  0  0  0  0
   -5.2932   19.0590  -35.3465 H   0  0  0  0  0  0  0  0  0  0  0  0
   -7.9373   19.3565  -32.9710 H   0  0  0  0  0  0  0  0  0  0  0  0
   -8.0789   23.6699  -31.2744 H   0  0  0  0  0  0  0  0  0  0  0  0
   -6.4288   25.0936  -28.3591 H   0  0  0  0  0  0  0  0  0  0  0  0
   -5.6322   26.6540  -28.7556 H   0  0  0  0  0  0  0  0  0  0  0  0
   -7.4245   26.5352  -28.7556 H   0  0  0  0  0  0  0  0  0  0  0  0
   -3.5037   24.9814  -28.3475 H   0  0  0  0  0  0  0  0  0  0  0  0
   -2.4899   23.8584  -29.3158 H   0  0  0  0  0  0  0  0  0  0  0  0
   -2.1314   25.6185  -29.3158 H   0  0  0  0  0  0  0  0  0  0  0  0
   -3.2024   22.5858  -31.3592 H   0  0  0  0  0  0  0  0  0  0  0  0
   -3.3301   20.0681  -34.5424 H   0  0  0  0  0  0  0  0  0  0  0  0
   -0.9386   19.3680  -34.6212 H   0  0  0  0  0  0  0  0  0  0  0  0
  1  2  1  0
  2  3  1  0
  3  4  2  0
  4  5  1  0
  5  6  2  0
  6  7  1  0
  7  8  1  0
  8  9  1  0
  9 10  2  0
 10 11  1  0
 11 12  2  0
 12 13  1  0
 13 14  3  0
 12 15  1  0
 15 16  2  0
  8 17  2  0
 17 18  1  0
 18 19  2  0
 19 20  1  0
 20 21  2  0
 21 22  1  0
 22 23  1  0
 21 24  1  0
 24 25  1  0
 25 26  1  0
 24 27  2  0
 27 28  1  0
  6 29  1  0
 29 30  2  0
 30  3  1  0
 28  7  2  0
 16  9  1  0
 28 19  1  0
  1 31  1  0
  1 32  1  0
  1 33  1  0
  4 34  1  0
  5 35  1  0
 10 36  1  0
 11 37  1  0
 16 38  1  0
 17 39  1  0
 20 40  1  0
 23 41  1  0
 23 42  1  0
 23 43  1  0
 26 44  1  0
 26 45  1  0
 26 46  1  0
 27 47  1  0
 29 48  1  0
 30 49  1  0
M  END
>  <UniqueID>  (42) 
39

>  <SMILES>  (42) 
COc1ccc(-c2c(-c3ccc(C#N)nc3)cnc3cc(OC)c(OC)cc23)cc1

>  <Energy>  (42) 
70.28620566280257

>  <Genealogy>  (42) 
COc1ccc(-c2c(-c3ccc(C#N)nc3)cnc3cc(OC)c(OC)cc23)cc1 (3D coordinates assigned)
COc1ccc(-c2c(-c3ccc(C#N)nc3)cnc3cc(OC)c(OC)cc23)cc1 (optimized conformer: 70.28620566280257 kcal/mol)

>  <smiles>  (42) 
COc1ccc(-c2c(-c3ccc(C#N)nc3)cnc3cc(OC)c(OC)cc23)cc1

>  <score_type>  (42) 
oracle

>  <origin>  (42) 
adgpu

>  <m_score__min__energy>  (42) 
-7.5

>  <m_primary>  (42) 
energy

$$$$
42:0
     RDKit          3D

 40 42  0  0  0  0  0  0  0  0999 V2000
   -1.4710   25.8200  -24.9390 C   0  0  0  0  0  0  0  0  0  0  0  0
   -1.6030   25.2630  -26.2920 N   0  0  0  0  0  0  0  0  0  0  0  0
   -0.4780   25.0110  -27.0270 C   0  0  0  0  0  0  0  0  0  0  0  0
   -0.5720   24.4710  -28.3080 C   0  0  0  0  0  0  0  0  0  0  0  0
   -1.8240   24.1760  -28.8380 C   0  0  0  0  0  0  0  0  0  0  0  0
   -2.9790   24.4100  -28.0790 C   0  0  0  0  0  0  0  0  0  0  0  0
   -4.2910   24.1070  -28.5790 N   0  0  0  0  0  0  0  0  0  0  0  0
   -4.9640   24.7230  -30.0550 S   0  0  0  0  0  0  0  0  0  0  0  0
   -3.8790   25.4010  -30.8450 O   0  0  0  0  0  0  0  0  0  0  0  0
   -6.0320   25.7290  -29.7290 O   0  0  0  0  0  0  0  0  0  0  0  0
   -5.6830   23.4060  -30.9750 C   0  0  0  0  0  0  0  0  0  0  0  0
   -4.8860   22.5780  -31.7780 C   0  0  0  0  0  0  0  0  0  0  0  0
   -5.4640   21.5210  -32.4860 C   0  0  0  0  0  0  0  0  0  0  0  0
   -6.8500   21.2910  -32.4140 C   0  0  0  0  0  0  0  0  0  0  0  0
   -7.4670   20.2290  -33.0920 O   0  0  0  0  0  0  0  0  0  0  0  0
   -6.8490   19.0260  -33.4660 C   0  0  0  0  0  0  0  0  0  0  0  0
   -5.9970   18.9400  -34.5840 C   0  0  0  0  0  0  0  0  0  0  0  0
   -5.4150   17.7160  -34.9310 C   0  0  0  0  0  0  0  0  0  0  0  0
   -5.6870   16.5720  -34.1770 C   0  0  0  0  0  0  0  0  0  0  0  0
   -6.5480   16.6470  -33.0790 C   0  0  0  0  0  0  0  0  0  0  0  0
   -7.1310   17.8690  -32.7290 C   0  0  0  0  0  0  0  0  0  0  0  0
   -7.6370   22.1140  -31.6010 C   0  0  0  0  0  0  0  0  0  0  0  0
   -7.0600   23.1680  -30.8890 C   0  0  0  0  0  0  0  0  0  0  0  0
   -2.8450   24.9580  -26.7930 C   0  0  0  0  0  0  0  0  0  0  0  0
   -3.8800   25.1680  -26.1000 O   0  0  0  0  0  0  0  0  0  0  0  0
   -1.6583   25.0296  -24.1972 H   0  0  0  0  0  0  0  0  0  0  0  0
   -0.4540   26.2166  -24.8034 H   0  0  0  0  0  0  0  0  0  0  0  0
   -2.2019   26.6308  -24.8034 H   0  0  0  0  0  0  0  0  0  0  0  0
    0.5114   25.2369  -26.6027 H   0  0  0  0  0  0  0  0  0  0  0  0
    0.3375   24.2793  -28.8962 H   0  0  0  0  0  0  0  0  0  0  0  0
   -1.9076   23.7592  -29.8525 H   0  0  0  0  0  0  0  0  0  0  0  0
   -3.8037   22.7608  -31.8508 H   0  0  0  0  0  0  0  0  0  0  0  0
   -4.8319   20.8653  -33.1029 H   0  0  0  0  0  0  0  0  0  0  0  0
   -5.7887   19.8370  -35.1857 H   0  0  0  0  0  0  0  0  0  0  0  0
   -4.7421   17.6544  -35.7990 H   0  0  0  0  0  0  0  0  0  0  0  0
   -5.2233   15.6119  -34.4476 H   0  0  0  0  0  0  0  0  0  0  0  0
   -6.7673   15.7444  -32.4897 H   0  0  0  0  0  0  0  0  0  0  0  0
   -7.8154   17.9218  -31.8694 H   0  0  0  0  0  0  0  0  0  0  0  0
   -8.7185   21.9295  -31.5220 H   0  0  0  0  0  0  0  0  0  0  0  0
   -7.6895   23.8132  -30.2586 H   0  0  0  0  0  0  0  0  0  0  0  0
  1  2  1  0
  2  3  1  0
  3  4  2  0
  4  5  1  0
  5  6  2  0
  6  7  1  0
  7  8  1  0
  8  9  2  0
  8 10  2  0
  8 11  1  0
 11 12  2  0
 12 13  1  0
 13 14  2  0
 14 15  1  0
 15 16  1  0
 16 17  2  0
 17 18  1  0
 18 19  2  0
 19 20  1  0
 20 21  2  0
 14 22  1  0
 22 23  2  0
  6 24  1  0
 24 25  2  0
 24  2  1  0
 23 11  1  0
 21 16  1  0
  1 26  1  0
  1 27  1  0
  1 28  1  0
  3 29  1  0
  4 30  1  0
  5 31  1  0
 12 32  1  0
 13 33  1  0
 17 34  1  0
 18 35  1  0
 19 36  1  0
 20 37  1  0
 21 38  1  0
 22 39  1  0
 23 40  1  0
M  CHG  1   7  -1
M  END
>  <UniqueID>  (43) 
40

>  <SMILES>  (43) 
Cn1cccc([N-]S(=O)(=O)c2ccc(Oc3ccccc3)cc2)c1=O

>  <Energy>  (43) 
54.71182980061636

>  <Genealogy>  (43) 
Cn1cccc([N-]S(=O)(=O)c2ccc(Oc3ccccc3)cc2)c1=O (protonated)
Cn1cccc([N-]S(=O)(=O)c2ccc(Oc3ccccc3)cc2)c1=O (3D coordinates assigned)
Cn1cccc([N-]S(=O)(=O)c2ccc(Oc3ccccc3)cc2)c1=O (optimized conformer: 54.71182980061636 kcal/mol)

>  <smiles>  (43) 
Cn1cccc(NS(=O)(=O)c2ccc(Oc3ccccc3)cc2)c1=O

>  <score_type>  (43) 
oracle

>  <origin>  (43) 
adgpu

>  <m_score__min__energy>  (43) 
-10.5

>  <m_primary>  (43) 
energy

$$$$
43:0
     RDKit          3D

 34 36  0  0  0  0  0  0  0  0999 V2000
   -3.5860   15.4590  -34.8630 C   0  0  0  0  0  0  0  0  0  0  0  0
   -4.6870   15.6350  -33.9770 O   0  0  0  0  0  0  0  0  0  0  0  0
   -5.2610   16.8760  -33.6670 C   0  0  0  0  0  0  0  0  0  0  0  0
   -5.3620   17.9190  -34.6070 C   0  0  0  0  0  0  0  0  0  0  0  0
   -5.9350   19.1410  -34.2450 C   0  0  0  0  0  0  0  0  0  0  0  0
   -6.4120   19.3400  -32.9430 C   0  0  0  0  0  0  0  0  0  0  0  0
   -6.9550   20.6110  -32.5570 N   0  0  0  0  0  0  0  0  0  0  0  0
   -6.2990   21.7770  -32.3670 C   0  0  0  0  0  0  0  0  0  0  0  0
   -4.8150   21.9720  -32.5020 C   0  0  0  0  0  0  0  0  0  0  0  0
   -4.3320   23.0140  -31.5340 C   0  0  0  0  0  0  0  0  0  0  0  0
   -3.2160   22.7820  -30.7210 C   0  0  0  0  0  0  0  0  0  0  0  0
   -2.8370   23.7670  -29.8080 C   0  0  0  0  0  0  0  0  0  0  0  0
   -1.8440   23.5790  -29.0570 O   0  0  0  0  0  0  0  0  0  0  0  0
   -3.5420   24.9280  -29.7300 N   0  0  0  0  0  0  0  0  0  0  0  0
   -4.6200   25.1420  -30.5340 C   0  0  0  0  0  0  0  0  0  0  0  0
   -5.2640   26.2210  -30.4550 O   0  0  0  0  0  0  0  0  0  0  0  0
   -5.0060   24.1900  -31.4230 N   0  0  0  0  0  0  0  0  0  0  0  0
   -7.1370   22.7450  -31.9440 N   0  0  0  0  0  0  0  0  0  0  0  0
   -8.3460   22.2090  -31.8630 N   0  0  0  0  0  0  0  0  0  0  0  0
   -8.2250   20.9180  -32.2260 C   0  0  0  0  0  0  0  0  0  0  0  0
   -9.4890   19.8790  -32.2880 S   0  0  0  0  0  0  0  0  0  0  0  0
   -6.3220   18.2990  -32.0080 C   0  0  0  0  0  0  0  0  0  0  0  0
   -5.7480   17.0770  -32.3690 C   0  0  0  0  0  0  0  0  0  0  0  0
   -2.6654   15.3118  -34.2792 H   0  0  0  0  0  0  0  0  0  0  0  0
   -3.7629   14.5777  -35.4971 H   0  0  0  0  0  0  0  0  0  0  0  0
   -3.4793   16.3515  -35.4971 H   0  0  0  0  0  0  0  0  0  0  0  0
   -4.9882   17.7714  -35.6310 H   0  0  0  0  0  0  0  0  0  0  0  0
   -6.0119   19.9504  -34.9859 H   0  0  0  0  0  0  0  0  0  0  0  0
   -4.3043   21.0202  -32.2942 H   0  0  0  0  0  0  0  0  0  0  0  0
   -4.5914   22.3062  -33.5259 H   0  0  0  0  0  0  0  0  0  0  0  0
   -2.6495   21.8424  -30.8003 H   0  0  0  0  0  0  0  0  0  0  0  0
   -3.2530   25.6650  -29.0460 H   0  0  0  0  0  0  0  0  0  0  0  0
   -6.7045   18.4446  -30.9870 H   0  0  0  0  0  0  0  0  0  0  0  0
   -5.6781   16.2668  -31.6283 H   0  0  0  0  0  0  0  0  0  0  0  0
  1  2  1  0
  2  3  1  0
  3  4  2  0
  4  5  1  0
  5  6  2  0
  6  7  1  0
  7  8  1  0
  8  9  1  0
  9 10  1  0
 10 11  2  0
 11 12  1  0
 12 13  2  0
 12 14  1  0
 14 15  1  0
 15 16  2  0
 15 17  1  0
  8 18  2  0
 18 19  1  0
 19 20  1  0
 20 21  2  0
  6 22  1  0
 22 23  2  0
 23  3  1  0
 20  7  1  0
 17 10  1  0
  1 24  1  0
  1 25  1  0
  1 26  1  0
  4 27  1  0
  5 28  1  0
  9 29  1  0
  9 30  1  0
 11 31  1  0
 14 32  1  0
 22 33  1  0
 23 34  1  0
M  CHG  2  17  -1  19  -1
M  END
>  <UniqueID>  (44) 
41

>  <SMILES>  (44) 
COc1ccc(-n2c(Cc3cc(=O)[nH]c(=O)[n-]3)n[n-]c2=S)cc1

>  <Energy>  (44) 
75.71251115149256

>  <Genealogy>  (44) 
COc1ccc(-n2c(Cc3cc(=O)[nH]c(=O)[n-]3)n[n-]c2=S)cc1 (protonated)
COc1ccc(-n2c(Cc3cc(=O)[nH]c(=O)[n-]3)n[n-]c2=S)cc1 (3D coordinates assigned)
COc1ccc(-n2c(Cc3cc(=O)[nH]c(=O)[n-]3)n[n-]c2=S)cc1 (optimized conformer: 75.71251115149256 kcal/mol)

>  <smiles>  (44) 
COc1ccc(-n2c(Cc3cc(=O)[nH]c(=O)[nH]3)n[nH]c2=S)cc1

>  <score_type>  (44) 
oracle

>  <origin>  (44) 
adgpu

>  <m_score__min__energy>  (44) 
-9.1500000000000004

>  <m_primary>  (44) 
energy

$$$$
44:0
     RDKit          3D

 45 47  0  0  0  0  0  0  0  0999 V2000
   -8.8200   19.5220  -32.3500 C   0  0  0  0  0  0  0  0  0  0  0  0
   -7.9250   20.7240  -32.2610 C   0  0  0  0  0  0  0  0  0  0  0  0
   -8.4530   21.9730  -31.9110 C   0  0  0  0  0  0  0  0  0  0  0  0
   -7.6120   23.0800  -31.7760 C   0  0  0  0  0  0  0  0  0  0  0  0
   -6.2290   22.9580  -31.9950 C   0  0  0  0  0  0  0  0  0  0  0  0
   -5.3520   24.0730  -31.7830 N   0  0  0  0  0  0  0  0  0  0  0  0
   -4.7550   24.4520  -30.5370 C   0  0  0  0  0  0  0  0  0  0  0  0
   -3.8270   25.3060  -30.5010 O   0  0  0  0  0  0  0  0  0  0  0  0
   -5.2010   23.7810  -29.2760 C   0  0  0  0  0  0  0  0  0  0  0  0
   -4.6930   24.5150  -28.1110 N   0  0  0  0  0  0  0  0  0  0  0  0
   -3.4860   23.8640  -27.5900 C   0  0  0  0  0  0  0  0  0  0  0  0
   -2.4240   24.8860  -27.3400 C   0  0  0  0  0  0  0  0  0  0  0  0
   -2.1490   25.4900  -26.1200 C   0  0  0  0  0  0  0  0  0  0  0  0
   -1.0600   26.3690  -26.1750 C   0  0  0  0  0  0  0  0  0  0  0  0
   -0.4700   26.4460  -27.4290 C   0  0  0  0  0  0  0  0  0  0  0  0
   -1.3000   25.4180  -28.4710 S   0  0  0  0  0  0  0  0  0  0  0  0
   -5.6880   21.6950  -32.3380 C   0  0  0  0  0  0  0  0  0  0  0  0
   -4.2320   21.5030  -32.5490 C   0  0  0  0  0  0  0  0  0  0  0  0
   -3.8060   21.3640  -33.7290 O   0  0  0  0  0  0  0  0  0  0  0  0
   -3.2630   21.4750  -31.4240 C   0  0  0  0  0  0  0  0  0  0  0  0
   -1.9370   21.9190  -31.5950 C   0  0  0  0  0  0  0  0  0  0  0  0
   -1.0410   21.9020  -30.5220 C   0  0  0  0  0  0  0  0  0  0  0  0
   -1.4500   21.4220  -29.2770 C   0  0  0  0  0  0  0  0  0  0  0  0
   -2.7560   20.9590  -29.1010 C   0  0  0  0  0  0  0  0  0  0  0  0
   -3.6570   20.9810  -30.1680 C   0  0  0  0  0  0  0  0  0  0  0  0
   -6.5430   20.5850  -32.4490 C   0  0  0  0  0  0  0  0  0  0  0  0
   -9.0753   19.1791  -31.3365 H   0  0  0  0  0  0  0  0  0  0  0  0
   -9.7406   19.7895  -32.8894 H   0  0  0  0  0  0  0  0  0  0  0  0
   -8.2999   18.7167  -32.8894 H   0  0  0  0  0  0  0  0  0  0  0  0
   -9.5344   22.0827  -31.7417 H   0  0  0  0  0  0  0  0  0  0  0  0
   -8.0357   24.0557  -31.4959 H   0  0  0  0  0  0  0  0  0  0  0  0
   -6.3003   23.7609  -29.2431 H   0  0  0  0  0  0  0  0  0  0  0  0
   -4.8087   22.7536  -29.2551 H   0  0  0  0  0  0  0  0  0  0  0  0
   -4.4170   25.4750  -28.4340 H   0  0  0  0  0  0  0  0  0  0  0  0
   -3.7267   23.3501  -26.6477 H   0  0  0  0  0  0  0  0  0  0  0  0
   -3.1204   23.1351  -28.3283 H   0  0  0  0  0  0  0  0  0  0  0  0
   -2.7273   25.2977  -25.2043 H   0  0  0  0  0  0  0  0  0  0  0  0
   -0.7058   26.9439  -25.3066 H   0  0  0  0  0  0  0  0  0  0  0  0
    0.3936   27.0727  -27.6963 H   0  0  0  0  0  0  0  0  0  0  0  0
   -1.6045   22.2813  -32.5790 H   0  0  0  0  0  0  0  0  0  0  0  0
   -0.0125   22.2673  -30.6592 H   0  0  0  0  0  0  0  0  0  0  0  0
   -0.7436   21.4083  -28.4339 H   0  0  0  0  0  0  0  0  0  0  0  0
   -3.0754   20.5764  -28.1204 H   0  0  0  0  0  0  0  0  0  0  0  0
   -4.6823   20.6092  -30.0246 H   0  0  0  0  0  0  0  0  0  0  0  0
   -6.1230   19.5964  -32.6860 H   0  0  0  0  0  0  0  0  0  0  0  0
  1  2  1  0
  2  3  2  0
  3  4  1  0
  4  5  2  0
  5  6  1  0
  6  7  1  0
  7  8  2  0
  7  9  1  0
  9 10  1  0
 10 11  1  0
 11 12  1  0
 12 13  2  0
 13 14  1  0
 14 15  2  0
 15 16  1  0
  5 17  1  0
 17 18  1  0
 18 19  2  0
 18 20  1  0
 20 21  2  0
 21 22  1  0
 22 23  2  0
 23 24  1  0
 24 25  2  0
 17 26  2  0
 26  2  1  0
 16 12  1  0
 25 20  1  0
  1 27  1  0
  1 28  1  0
  1 29  1  0
  3 30  1  0
  4 31  1  0
  9 32  1  0
  9 33  1  0
 10 34  1  0
 11 35  1  0
 11 36  1  0
 13 37  1  0
 14 38  1  0
 15 39  1  0
 21 40  1  0
 22 41  1  0
 23 42  1  0
 24 43  1  0
 25 44  1  0
 26 45  1  0
M  CHG  1   6  -1
M  END
>  <UniqueID>  (45) 
42

>  <SMILES>  (45) 
Cc1ccc([N-]C(=O)CNCc2cccs2)c(C(=O)c2ccccc2)c1

>  <Energy>  (45) 
75.20812821338066

>  <Genealogy>  (45) 
Cc1ccc([N-]C(=O)CNCc2cccs2)c(C(=O)c2ccccc2)c1 (protonated)
Cc1ccc([N-]C(=O)CNCc2cccs2)c(C(=O)c2ccccc2)c1 (3D coordinates assigned)
Cc1ccc([N-]C(=O)CNCc2cccs2)c(C(=O)c2ccccc2)c1 (optimized conformer: 75.20812821338066 kcal/mol)

>  <smiles>  (45) 
Cc1ccc(NC(=O)CNCc2cccs2)c(C(=O)c2ccccc2)c1

>  <score_type>  (45) 
oracle

>  <origin>  (45) 
adgpu

>  <m_score__min__energy>  (45) 
-9.9000000000000004

>  <m_primary>  (45) 
energy

$$$$
45:0
     RDKit          3D

 29 31  0  0  0  0  0  0  0  0999 V2000
   -9.6720   22.2560  -32.2890 O   0  0  0  0  0  0  0  0  0  0  0  0
   -8.3150   21.8820  -31.7590 S   0  0  0  0  0  0  0  0  0  0  0  0
   -8.3060   22.0490  -30.2660 O   0  0  0  0  0  0  0  0  0  0  0  0
   -7.1190   22.9270  -32.4570 N   0  0  0  0  0  0  0  0  0  0  0  0
   -6.0180   23.5260  -31.7540 C   0  0  0  0  0  0  0  0  0  0  0  0
   -6.1330   24.8020  -31.1750 C   0  0  0  0  0  0  0  0  0  0  0  0
   -5.0560   25.3770  -30.5010 C   0  0  0  0  0  0  0  0  0  0  0  0
   -3.8440   24.6960  -30.3870 C   0  0  0  0  0  0  0  0  0  0  0  0
   -2.7920   25.2990  -29.7070 O   0  0  0  0  0  0  0  0  0  0  0  0
   -3.7010   23.4160  -30.9530 C   0  0  0  0  0  0  0  0  0  0  0  0
   -2.4860   22.7140  -30.8470 C   0  0  0  0  0  0  0  0  0  0  0  0
   -2.3520   21.4460  -31.4140 C   0  0  0  0  0  0  0  0  0  0  0  0
   -3.4220   20.8620  -32.0920 C   0  0  0  0  0  0  0  0  0  0  0  0
   -4.6370   21.5430  -32.2070 C   0  0  0  0  0  0  0  0  0  0  0  0
   -4.7950   22.8240  -31.6430 C   0  0  0  0  0  0  0  0  0  0  0  0
   -7.9480   20.2130  -32.1480 C   0  0  0  0  0  0  0  0  0  0  0  0
   -8.4460   19.1000  -31.4870 C   0  0  0  0  0  0  0  0  0  0  0  0
   -7.9610   17.8950  -32.0080 C   0  0  0  0  0  0  0  0  0  0  0  0
   -7.0830   18.0620  -33.0730 C   0  0  0  0  0  0  0  0  0  0  0  0
   -6.9090   19.7090  -33.3680 S   0  0  0  0  0  0  0  0  0  0  0  0
   -7.0821   25.3524  -31.2544 H   0  0  0  0  0  0  0  0  0  0  0  0
   -5.1633   26.3768  -30.0551 H   0  0  0  0  0  0  0  0  0  0  0  0
   -1.6371   23.1673  -30.3142 H   0  0  0  0  0  0  0  0  0  0  0  0
   -1.3985   20.9047  -31.3259 H   0  0  0  0  0  0  0  0  0  0  0  0
   -3.3092   19.8626  -32.5374 H   0  0  0  0  0  0  0  0  0  0  0  0
   -5.4764   21.0750  -32.7421 H   0  0  0  0  0  0  0  0  0  0  0  0
   -9.1482   19.1583  -30.6423 H   0  0  0  0  0  0  0  0  0  0  0  0
   -8.2473   16.9093  -31.6124 H   0  0  0  0  0  0  0  0  0  0  0  0
   -6.5859   17.2534  -33.6290 H   0  0  0  0  0  0  0  0  0  0  0  0
  1  2  2  0
  2  3  2  0
  2  4  1  0
  4  5  1  0
  5  6  2  0
  6  7  1  0
  7  8  2  0
  8  9  1  0
  8 10  1  0
 10 11  2  0
 11 12  1  0
 12 13  2  0
 13 14  1  0
 14 15  2  0
  2 16  1  0
 16 17  2  0
 17 18  1  0
 18 19  2  0
 19 20  1  0
 15  5  1  0
 20 16  1  0
 15 10  1  0
  6 21  1  0
  7 22  1  0
 11 23  1  0
 12 24  1  0
 13 25  1  0
 14 26  1  0
 17 27  1  0
 18 28  1  0
 19 29  1  0
M  CHG  2   4  -1   9  -1
M  END
>  <UniqueID>  (46) 
43

>  <SMILES>  (46) 
O=S(=O)([N-]c1ccc([O-])c2ccccc12)c1cccs1

>  <Energy>  (46) 
66.14840485987034

>  <Genealogy>  (46) 
O=S(=O)([N-]c1ccc([O-])c2ccccc12)c1cccs1 (protonated)
O=S(=O)([N-]c1ccc([O-])c2ccccc12)c1cccs1 (3D coordinates assigned)
O=S(=O)([N-]c1ccc([O-])c2ccccc12)c1cccs1 (optimized conformer: 66.14840485987034 kcal/mol)

>  <smiles>  (46) 
O=S(=O)(Nc1ccc(O)c2ccccc12)c1cccs1

>  <score_type>  (46) 
oracle

>  <origin>  (46) 
adgpu

>  <m_score__min__energy>  (46) 
-11.06

>  <m_primary>  (46) 
energy

$$$$
46:0
     RDKit          3D

 27 28  0  0  0  0  0  0  0  0999 V2000
   -7.2880   22.4910  -30.8610 O   0  0  0  0  0  0  0  0  0  0  0  0
   -6.4850   23.5950  -30.5980 C   0  0  0  0  0  0  0  0  0  0  0  0
   -6.9310   24.7840  -30.0550 C   0  0  0  0  0  0  0  0  0  0  0  0
   -5.8160   25.5940  -29.9380 C   0  0  0  0  0  0  0  0  0  0  0  0
   -4.7530   24.8520  -30.4150 C   0  0  0  0  0  0  0  0  0  0  0  0
   -3.4340   25.2870  -30.4560 O   0  0  0  0  0  0  0  0  0  0  0  0
   -5.1600   23.6370  -30.8310 N   0  0  0  0  0  0  0  0  0  0  0  0
   -4.3190   22.5510  -31.3310 C   0  0  0  0  0  0  0  0  0  0  0  0
   -4.8100   22.0930  -32.7000 C   0  0  0  0  0  0  0  0  0  0  0  0
   -4.2520   20.3880  -33.0220 S   0  0  0  0  0  0  0  0  0  0  0  0
   -5.8380   19.6630  -32.6030 C   0  0  0  0  0  0  0  0  0  0  0  0
   -7.0230   20.3390  -32.9170 C   0  0  0  0  0  0  0  0  0  0  0  0
   -8.2590   19.7740  -32.5890 C   0  0  0  0  0  0  0  0  0  0  0  0
   -8.3140   18.5340  -31.9420 C   0  0  0  0  0  0  0  0  0  0  0  0
   -9.5120   17.9860  -31.6240 F   0  0  0  0  0  0  0  0  0  0  0  0
   -7.1310   17.8600  -31.6230 C   0  0  0  0  0  0  0  0  0  0  0  0
   -5.8930   18.4240  -31.9510 C   0  0  0  0  0  0  0  0  0  0  0  0
   -7.9639   25.0358  -29.7727 H   0  0  0  0  0  0  0  0  0  0  0  0
   -5.7825   26.6208  -29.5448 H   0  0  0  0  0  0  0  0  0  0  0  0
   -3.2811   22.9051  -31.4169 H   0  0  0  0  0  0  0  0  0  0  0  0
   -4.3701   21.7051  -30.6297 H   0  0  0  0  0  0  0  0  0  0  0  0
   -5.9092   22.1274  -32.7233 H   0  0  0  0  0  0  0  0  0  0  0  0
   -4.4002   22.7598  -33.4729 H   0  0  0  0  0  0  0  0  0  0  0  0
   -6.9816   21.3153  -33.4221 H   0  0  0  0  0  0  0  0  0  0  0  0
   -9.1894   20.3046  -32.8397 H   0  0  0  0  0  0  0  0  0  0  0  0
   -7.1736   16.8858  -31.1139 H   0  0  0  0  0  0  0  0  0  0  0  0
   -4.9629   17.8945  -31.6969 H   0  0  0  0  0  0  0  0  0  0  0  0
  1  2  1  0
  2  3  2  0
  3  4  1  0
  4  5  2  0
  5  6  1  0
  5  7  1  0
  7  8  1  0
  8  9  1  0
  9 10  1  0
 10 11  1  0
 11 12  2  0
 12 13  1  0
 13 14  2  0
 14 15  1  0
 14 16  1  0
 16 17  2  0
  7  2  1  0
 17 11  1  0
  3 18  1  0
  4 19  1  0
  8 20  1  0
  8 21  1  0
  9 22  1  0
  9 23  1  0
 12 24  1  0
 13 25  1  0
 16 26  1  0
 17 27  1  0
M  CHG  2   1  -1   6  -1
M  END
>  <UniqueID>  (47) 
44

>  <SMILES>  (47) 
[O-]c1ccc([O-])n1CCSc1ccc(F)cc1

>  <Energy>  (47) 
48.25843646059451

>  <Genealogy>  (47) 
[O-]c1ccc([O-])n1CCSc1ccc(F)cc1 (protonated)
[O-]c1ccc([O-])n1CCSc1ccc(F)cc1 (3D coordinates assigned)
[O-]c1ccc([O-])n1CCSc1ccc(F)cc1 (optimized conformer: 48.25843646059451 kcal/mol)

>  <smiles>  (47) 
Oc1ccc(O)n1CCSc1ccc(F)cc1

>  <score_type>  (47) 
oracle

>  <origin>  (47) 
adgpu

>  <m_score__min__energy>  (47) 
-9.3399999999999999

>  <m_primary>  (47) 
energy

$$$$
47:0
     RDKit          3D

 51 54  0  0  0  0  0  0  0  0999 V2000
    2.1630   20.4750  -34.5050 C   0  0  0  0  0  0  0  0  0  0  0  0
    0.7890   20.6170  -33.9200 C   0  0  0  0  0  0  0  0  0  0  0  0
   -0.3370   20.6310  -34.7540 C   0  0  0  0  0  0  0  0  0  0  0  0
   -1.6160   20.8000  -34.2140 C   0  0  0  0  0  0  0  0  0  0  0  0
   -1.7900   20.9750  -32.8270 C   0  0  0  0  0  0  0  0  0  0  0  0
   -3.1010   21.1490  -32.2480 N   0  0  0  0  0  0  0  0  0  0  0  0
   -3.4950   22.1180  -31.3950 C   0  0  0  0  0  0  0  0  0  0  0  0
   -4.8340   21.9230  -31.0900 C   0  0  0  0  0  0  0  0  0  0  0  0
   -5.7340   22.7840  -30.2250 C   0  0  0  0  0  0  0  0  0  0  0  0
   -4.9880   23.6440  -29.2650 N   0  0  1  0  0  0  0  0  0  0  0  0
   -4.1150   22.8010  -28.4140 C   0  0  0  0  0  0  0  0  0  0  0  0
   -3.2670   23.6540  -27.4620 C   0  0  0  0  0  0  0  0  0  0  0  0
   -2.3120   24.5240  -28.2720 C   0  0  0  0  0  0  0  0  0  0  0  0
   -3.0260   25.2080  -29.3420 N   0  0  0  0  0  0  0  0  0  0  0  0
   -4.2050   24.6640  -29.9480 C   0  0  0  0  0  0  0  0  0  0  0  0
   -4.6090   25.1710  -31.0300 O   0  0  0  0  0  0  0  0  0  0  0  0
   -5.1850   20.7790  -31.8010 C   0  0  0  0  0  0  0  0  0  0  0  0
   -6.5110   20.1270  -31.8770 C   0  0  0  0  0  0  0  0  0  0  0  0
   -6.6350   18.7330  -31.9860 C   0  0  0  0  0  0  0  0  0  0  0  0
   -7.8960   18.1400  -32.0780 C   0  0  0  0  0  0  0  0  0  0  0  0
   -9.0460   18.9310  -32.0680 C   0  0  0  0  0  0  0  0  0  0  0  0
   -8.9420   20.3260  -31.9630 C   0  0  0  0  0  0  0  0  0  0  0  0
  -10.1740   21.1820  -32.0010 C   0  0  0  0  0  0  0  0  0  0  0  0
   -7.6720   20.9200  -31.8890 C   0  0  0  0  0  0  0  0  0  0  0  0
   -4.1200   20.3420  -32.5000 N   0  0  0  0  0  0  0  0  0  0  0  0
   -0.6520   20.9720  -31.9990 C   0  0  0  0  0  0  0  0  0  0  0  0
    0.6250   20.8040  -32.5410 C   0  0  0  0  0  0  0  0  0  0  0  0
    2.9011   20.3987  -33.6930 H   0  0  0  0  0  0  0  0  0  0  0  0
    2.2054   19.5677  -35.1255 H   0  0  0  0  0  0  0  0  0  0  0  0
    2.3900   21.3545  -35.1255 H   0  0  0  0  0  0  0  0  0  0  0  0
   -0.2142   20.5083  -35.8402 H   0  0  0  0  0  0  0  0  0  0  0  0
   -2.4932   20.7962  -34.8777 H   0  0  0  0  0  0  0  0  0  0  0  0
   -2.8599   22.9277  -31.0064 H   0  0  0  0  0  0  0  0  0  0  0  0
   -6.3318   23.4328  -30.8821 H   0  0  0  0  0  0  0  0  0  0  0  0
   -6.3603   22.1026  -29.6304 H   0  0  0  0  0  0  0  0  0  0  0  0
   -5.6620   24.1260  -28.6250 H   0  0  0  0  0  0  0  0  0  0  0  0
   -4.7433   22.1203  -27.8208 H   0  0  0  0  0  0  0  0  0  0  0  0
   -3.4360   22.2353  -29.0689 H   0  0  0  0  0  0  0  0  0  0  0  0
   -3.9263   24.2962  -26.8596 H   0  0  0  0  0  0  0  0  0  0  0  0
   -2.6884   22.9957  -26.7973 H   0  0  0  0  0  0  0  0  0  0  0  0
   -1.8524   25.2713  -27.6084 H   0  0  0  0  0  0  0  0  0  0  0  0
   -1.5367   23.8822  -28.7159 H   0  0  0  0  0  0  0  0  0  0  0  0
   -5.7330   18.1036  -31.9990 H   0  0  0  0  0  0  0  0  0  0  0  0
   -7.9832   17.0464  -32.1586 H   0  0  0  0  0  0  0  0  0  0  0  0
  -10.0368   18.4591  -32.1427 H   0  0  0  0  0  0  0  0  0  0  0  0
  -10.4966   21.4061  -30.9735 H   0  0  0  0  0  0  0  0  0  0  0  0
   -9.9518   22.1212  -32.5287 H   0  0  0  0  0  0  0  0  0  0  0  0
  -10.9767   20.6461  -32.5287 H   0  0  0  0  0  0  0  0  0  0  0  0
   -7.5845   22.0154  -31.8400 H   0  0  0  0  0  0  0  0  0  0  0  0
   -0.7690   21.1034  -30.9132 H   0  0  0  0  0  0  0  0  0  0  0  0
    1.5056   20.8186  -31.8820 H   0  0  0  0  0  0  0  0  0  0  0  0
  1  2  1  0
  2  3  2  0
  3  4  1  0
  4  5  2  0
  5  6  1  0
  6  7  1  0
  7  8  2  0
  8  9  1  0
  9 10  1  0
 10 11  1  0
 11 12  1  0
 12 13  1  0
 13 14  1  0
 14 15  1  0
 15 16  2  0
  8 17  1  0
 17 18  1  0
 18 19  2  0
 19 20  1  0
 20 21  2  0
 21 22  1  0
 22 23  1  0
 22 24  2  0
 17 25  2  0
  5 26  1  0
 26 27  2  0
 27  2  1  0
 25  6  1  0
 15 10  1  0
 24 18  1  0
  1 28  1  0
  1 29  1  0
  1 30  1  0
  3 31  1  0
  4 32  1  0
  7 33  1  0
  9 34  1  0
  9 35  1  0
 10 36  1  1
 11 37  1  0
 11 38  1  0
 12 39  1  0
 12 40  1  0
 13 41  1  0
 13 42  1  0
 19 43  1  0
 20 44  1  0
 21 45  1  0
 23 46  1  0
 23 47  1  0
 23 48  1  0
 24 49  1  0
 26 50  1  0
 27 51  1  0
M  CHG  2  10   1  14  -1
M  END
>  <UniqueID>  (48) 
45

>  <SMILES>  (48) 
Cc1ccc(-n2cc(C[N@H+]3CCC[N-]C3=O)c(-c3cccc(C)c3)n2)cc1

>  <Energy>  (48) 
96.69548277492922

>  <Genealogy>  (48) 
Cc1ccc(-n2cc(C[NH+]3CCC[N-]C3=O)c(-c3cccc(C)c3)n2)cc1 (protonated)
Cc1ccc(-n2cc(C[N@H+]3CCC[N-]C3=O)c(-c3cccc(C)c3)n2)cc1 (chirality)
Cc1ccc(-n2cc(C[N@H+]3CCC[N-]C3=O)c(-c3cccc(C)c3)n2)cc1 (3D coordinates assigned)
Cc1ccc(-n2cc(C[N@H+]3CCC[N-]C3=O)c(-c3cccc(C)c3)n2)cc1 (nonaromatic ring conformer: 96.69548277492922 kcal/mol)

>  <smiles>  (48) 
Cc1ccc(-n2cc(CN3CCCNC3=O)c(-c3cccc(C)c3)n2)cc1

>  <score_type>  (48) 
oracle

>  <origin>  (48) 
adgpu

>  <m_score__min__energy>  (48) 
-10.619999999999999

>  <m_primary>  (48) 
energy

$$$$
48:0
     RDKit          3D

 43 45  0  0  0  0  0  0  0  0999 V2000
  -10.0060   21.2410  -31.9520 C   0  0  0  0  0  0  0  0  0  0  0  0
   -8.5440   21.1010  -31.9740 N   0  0  0  0  0  0  0  0  0  0  0  0
   -7.7590   22.1640  -31.6230 C   0  0  0  0  0  0  0  0  0  0  0  0
   -6.3590   22.0370  -31.6120 C   0  0  0  0  0  0  0  0  0  0  0  0
   -5.4990   23.1370  -31.2460 N   0  0  0  0  0  0  0  0  0  0  0  0
   -4.0450   22.9560  -31.1280 C   0  0  0  0  0  0  0  0  0  0  0  0
   -3.4580   23.9850  -30.1570 C   0  0  0  0  0  0  0  0  0  0  0  0
   -3.8740   25.2930  -30.4960 O   0  0  0  0  0  0  0  0  0  0  0  0
   -5.2720   25.4050  -30.3160 C   0  0  0  0  0  0  0  0  0  0  0  0
   -6.0200   24.5090  -31.3060 C   0  0  0  0  0  0  0  0  0  0  0  0
   -5.8130   20.8380  -31.9440 N   0  0  0  0  0  0  0  0  0  0  0  0
   -6.5730   19.7690  -32.2950 C   0  0  0  0  0  0  0  0  0  0  0  0
   -5.8950   18.4630  -32.6090 C   0  0  0  0  0  0  0  0  0  0  0  0
   -5.1800   18.5400  -33.9610 C   0  0  0  0  0  0  0  0  0  0  0  0
   -3.7590   19.0050  -33.7820 C   0  0  0  0  0  0  0  0  0  0  0  0
   -2.6940   18.1010  -33.9320 C   0  0  0  0  0  0  0  0  0  0  0  0
   -1.3740   18.5410  -33.7960 C   0  0  0  0  0  0  0  0  0  0  0  0
   -1.1080   19.8850  -33.5200 C   0  0  0  0  0  0  0  0  0  0  0  0
   -2.1620   20.7930  -33.3830 C   0  0  0  0  0  0  0  0  0  0  0  0
   -3.4840   20.3570  -33.5190 C   0  0  0  0  0  0  0  0  0  0  0  0
   -7.9730   19.8980  -32.2970 C   0  0  0  0  0  0  0  0  0  0  0  0
   -8.6970   18.9060  -32.5900 O   0  0  0  0  0  0  0  0  0  0  0  0
  -10.3555   21.2745  -30.9095 H   0  0  0  0  0  0  0  0  0  0  0  0
  -10.2931   22.1707  -32.4650 H   0  0  0  0  0  0  0  0  0  0  0  0
  -10.4643   20.3826  -32.4650 H   0  0  0  0  0  0  0  0  0  0  0  0
   -8.2246   23.1220  -31.3482 H   0  0  0  0  0  0  0  0  0  0  0  0
   -3.8346   21.9431  -30.7541 H   0  0  0  0  0  0  0  0  0  0  0  0
   -3.5857   23.0955  -32.1177 H   0  0  0  0  0  0  0  0  0  0  0  0
   -3.7974   23.7521  -29.1369 H   0  0  0  0  0  0  0  0  0  0  0  0
   -2.3606   23.9386  -30.2167 H   0  0  0  0  0  0  0  0  0  0  0  0
   -5.5291   25.1024  -29.2901 H   0  0  0  0  0  0  0  0  0  0  0  0
   -5.5680   26.4497  -30.4921 H   0  0  0  0  0  0  0  0  0  0  0  0
   -7.0903   24.5022  -31.0521 H   0  0  0  0  0  0  0  0  0  0  0  0
   -5.8765   24.9021  -32.3233 H   0  0  0  0  0  0  0  0  0  0  0  0
   -5.1590   18.2393  -31.8227 H   0  0  0  0  0  0  0  0  0  0  0  0
   -6.6556   17.6697  -32.6541 H   0  0  0  0  0  0  0  0  0  0  0  0
   -5.1785   17.5434  -34.4267 H   0  0  0  0  0  0  0  0  0  0  0  0
   -5.7106   19.2586  -34.6029 H   0  0  0  0  0  0  0  0  0  0  0  0
   -2.8994   17.0440  -34.1571 H   0  0  0  0  0  0  0  0  0  0  0  0
   -0.5434   17.8283  -33.9064 H   0  0  0  0  0  0  0  0  0  0  0  0
   -0.0688   20.2285  -33.4105 H   0  0  0  0  0  0  0  0  0  0  0  0
   -1.9515   21.8511  -33.1681 H   0  0  0  0  0  0  0  0  0  0  0  0
   -4.3111   21.0754  -33.4197 H   0  0  0  0  0  0  0  0  0  0  0  0
  1  2  1  0
  2  3  1  0
  3  4  2  0
  4  5  1  0
  5  6  1  0
  6  7  1  0
  7  8  1  0
  8  9  1  0
  9 10  1  0
  4 11  1  0
 11 12  2  0
 12 13  1  0
 13 14  1  0
 14 15  1  0
 15 16  2  0
 16 17  1  0
 17 18  2  0
 18 19  1  0
 19 20  2  0
 12 21  1  0
 21 22  2  0
 21  2  1  0
 10  5  1  0
 20 15  1  0
  1 23  1  0
  1 24  1  0
  1 25  1  0
  3 26  1  0
  6 27  1  0
  6 28  1  0
  7 29  1  0
  7 30  1  0
  9 31  1  0
  9 32  1  0
 10 33  1  0
 10 34  1  0
 13 35  1  0
 13 36  1  0
 14 37  1  0
 14 38  1  0
 16 39  1  0
 17 40  1  0
 18 41  1  0
 19 42  1  0
 20 43  1  0
M  END
>  <UniqueID>  (49) 
46

>  <SMILES>  (49) 
Cn1cc(N2CCOCC2)nc(CCc2ccccc2)c1=O

>  <Energy>  (49) 
47.966781971381764

>  <Genealogy>  (49) 
Cn1cc(N2CCOCC2)nc(CCc2ccccc2)c1=O (3D coordinates assigned)
Cn1cc(N2CCOCC2)nc(CCc2ccccc2)c1=O (nonaromatic ring conformer: 47.966781971381764 kcal/mol)

>  <smiles>  (49) 
Cn1cc(N2CCOCC2)nc(CCc2ccccc2)c1=O

>  <score_type>  (49) 
oracle

>  <origin>  (49) 
adgpu

>  <m_score__min__energy>  (49) 
-7.7599999999999998

>  <m_primary>  (49) 
energy

$$$$
49:0
     RDKit          3D

 42 43  0  0  0  0  0  0  0  0999 V2000
   -8.3480   18.2000  -31.9490 C   0  0  0  0  0  0  0  0  0  0  0  0
   -6.8670   18.5570  -31.8970 C   0  0  0  0  0  0  0  0  0  0  0  0
   -6.5950   19.7430  -32.7240 N   0  0  0  0  0  0  0  0  0  0  0  0
   -5.9740   19.5990  -34.0490 C   0  0  0  0  0  0  0  0  0  0  0  0
   -5.7430   18.1270  -34.3710 C   0  0  0  0  0  0  0  0  0  0  0  0
   -6.9340   21.0530  -32.2310 C   0  0  0  0  0  0  0  0  0  0  0  0
   -8.2760   21.4050  -32.0230 C   0  0  0  0  0  0  0  0  0  0  0  0
   -8.6050   22.6740  -31.5440 C   0  0  0  0  0  0  0  0  0  0  0  0
   -7.5990   23.6040  -31.2710 C   0  0  0  0  0  0  0  0  0  0  0  0
   -6.2480   23.2710  -31.4740 C   0  0  0  0  0  0  0  0  0  0  0  0
   -5.1770   24.2530  -31.1900 C   0  0  0  0  0  0  0  0  0  0  0  0
   -5.4300   25.4880  -31.2200 O   0  0  0  0  0  0  0  0  0  0  0  0
   -3.8720   23.8010  -30.9460 O   0  0  0  0  0  0  0  0  0  0  0  0
   -3.5020   22.8650  -29.9690 C   0  0  0  0  0  0  0  0  0  0  0  0
   -3.7860   23.0580  -28.6040 C   0  0  0  0  0  0  0  0  0  0  0  0
   -3.4130   22.0960  -27.6610 C   0  0  0  0  0  0  0  0  0  0  0  0
   -2.7740   20.9160  -28.0680 C   0  0  0  0  0  0  0  0  0  0  0  0
   -2.3400   19.9030  -27.0510 C   0  0  0  0  0  0  0  0  0  0  0  0
   -2.4930   20.7190  -29.4270 C   0  0  0  0  0  0  0  0  0  0  0  0
   -2.8660   21.6810  -30.3730 C   0  0  0  0  0  0  0  0  0  0  0  0
   -2.4800   21.3700  -32.2220 Br  0  0  0  0  0  0  0  0  0  0  0  0
   -5.9250   21.9890  -31.9550 C   0  0  0  0  0  0  0  0  0  0  0  0
   -8.7386   18.1058  -30.9250 H   0  0  0  0  0  0  0  0  0  0  0  0
   -8.8975   18.9914  -32.4798 H   0  0  0  0  0  0  0  0  0  0  0  0
   -8.4766   17.2451  -32.4798 H   0  0  0  0  0  0  0  0  0  0  0  0
   -6.5816   18.7681  -30.8559 H   0  0  0  0  0  0  0  0  0  0  0  0
   -6.2824   17.7100  -32.2854 H   0  0  0  0  0  0  0  0  0  0  0  0
   -6.6374   20.0365  -34.8096 H   0  0  0  0  0  0  0  0  0  0  0  0
   -5.0052   20.1200  -34.0473 H   0  0  0  0  0  0  0  0  0  0  0  0
   -5.6535   17.5565  -33.4348 H   0  0  0  0  0  0  0  0  0  0  0  0
   -6.5917   17.7419  -34.9553 H   0  0  0  0  0  0  0  0  0  0  0  0
   -4.8171   18.0204  -34.9553 H   0  0  0  0  0  0  0  0  0  0  0  0
   -9.0725   20.6776  -32.2384 H   0  0  0  0  0  0  0  0  0  0  0  0
   -9.6592   22.9425  -31.3810 H   0  0  0  0  0  0  0  0  0  0  0  0
   -7.8653   24.6028  -30.8950 H   0  0  0  0  0  0  0  0  0  0  0  0
   -4.3046   23.9714  -28.2774 H   0  0  0  0  0  0  0  0  0  0  0  0
   -3.6218   22.2654  -26.5944 H   0  0  0  0  0  0  0  0  0  0  0  0
   -2.5109   20.3018  -26.0402 H   0  0  0  0  0  0  0  0  0  0  0  0
   -2.9210   18.9784  -27.1834 H   0  0  0  0  0  0  0  0  0  0  0  0
   -1.2698   19.6858  -27.1834 H   0  0  0  0  0  0  0  0  0  0  0  0
   -1.9767   19.8036  -29.7518 H   0  0  0  0  0  0  0  0  0  0  0  0
   -4.8713   21.7174  -32.1164 H   0  0  0  0  0  0  0  0  0  0  0  0
  1  2  1  0
  2  3  1  0
  3  4  1  0
  4  5  1  0
  3  6  1  0
  6  7  2  0
  7  8  1  0
  8  9  2  0
  9 10  1  0
 10 11  1  0
 11 12  2  0
 11 13  1  0
 13 14  1  0
 14 15  2  0
 15 16  1  0
 16 17  2  0
 17 18  1  0
 17 19  1  0
 19 20  2  0
 20 21  1  0
 10 22  2  0
 22  6  1  0
 20 14  1  0
  1 23  1  0
  1 24  1  0
  1 25  1  0
  2 26  1  0
  2 27  1  0
  4 28  1  0
  4 29  1  0
  5 30  1  0
  5 31  1  0
  5 32  1  0
  7 33  1  0
  8 34  1  0
  9 35  1  0
 15 36  1  0
 16 37  1  0
 18 38  1  0
 18 39  1  0
 18 40  1  0
 19 41  1  0
 22 42  1  0
M  END
>  <UniqueID>  (50) 
47

>  <SMILES>  (50) 
CCN(CC)c1cccc(C(=O)Oc2ccc(C)cc2Br)c1

>  <Energy>  (50) 
43.541559002793086

>  <Genealogy>  (50) 
CCN(CC)c1cccc(C(=O)Oc2ccc(C)cc2Br)c1 (3D coordinates assigned)
CCN(CC)c1cccc(C(=O)Oc2ccc(C)cc2Br)c1 (optimized conformer: 43.541559002793086 kcal/mol)

>  <smiles>  (50) 
CCN(CC)c1cccc(C(=O)Oc2ccc(C)cc2Br)c1

>  <score_type>  (50) 
oracle

>  <origin>  (50) 
adgpu

>  <m_score__min__energy>  (50) 
-8.0299999999999994

>  <m_primary>  (50) 
energy

$$$$
