0:0
     RDKit          3D

 68 72  0  0  0  0  0  0  0  0999 V2000
    3.3025   19.6148  -27.3938 H   0  0  0  0  0  0  0  0  0  0  0  0
    2.3420   19.3350  -27.8510 C   0  0  0  0  0  0  0  0  0  0  0  0
    1.4380   20.1820  -28.2880 O   0  0  0  0  0  0  0  0  0  0  0  0
    0.4240   19.4990  -28.7690 C   0  0  0  0  0  0  0  0  0  0  0  0
   -0.8200   20.1190  -29.3250 C   0  0  0  0  0  0  0  0  0  0  0  0
   -1.5317   19.3249  -29.5948 H   0  0  0  0  0  0  0  0  0  0  0  0
   -0.5581   20.7092  -30.2155 H   0  0  0  0  0  0  0  0  0  0  0  0
   -1.4360   21.0030  -28.3320 N   0  0  0  0  0  0  0  0  0  0  0  0
   -1.4260   22.4200  -28.5220 C   0  0  0  0  0  0  0  0  0  0  0  0
   -2.4770   23.0360  -29.1350 N   0  0  0  0  0  0  0  0  0  0  0  0
   -2.5420   24.4010  -29.2480 C   0  0  0  0  0  0  0  0  0  0  0  0
   -3.5470   24.9900  -29.8300 N   0  0  0  0  0  0  0  0  0  0  0  0
   -4.7420   24.3950  -30.3730 C   0  0  0  0  0  0  0  0  0  0  0  0
   -6.0350   24.8120  -29.9920 C   0  0  0  0  0  0  0  0  0  0  0  0
   -6.1537   25.6287  -29.2647 H   0  0  0  0  0  0  0  0  0  0  0  0
   -7.1640   24.1950  -30.5320 C   0  0  0  0  0  0  0  0  0  0  0  0
   -8.1665   24.5008  -30.1982 H   0  0  0  0  0  0  0  0  0  0  0  0
   -7.0280   23.1870  -31.4980 C   0  0  0  0  0  0  0  0  0  0  0  0
   -8.2150   22.4780  -32.0170 C   0  0  0  0  0  0  0  0  0  0  0  0
   -9.3350   23.0660  -32.0530 O   0  0  0  0  0  0  0  0  0  0  0  0
   -8.0940   21.1280  -32.4830 N   0  0  0  0  0  0  0  0  0  0  0  0
   -7.7260   19.9990  -31.6260 C   0  0  1  0  0  0  0  0  0  0  0  0
   -8.1184   20.1935  -30.6169 H   0  0  0  0  0  0  0  0  0  0  0  0
   -8.3610   18.6670  -32.0980 C   0  0  0  0  0  0  0  0  0  0  0  0
   -9.3107   18.8933  -32.6047 H   0  0  0  0  0  0  0  0  0  0  0  0
   -8.5062   18.0411  -31.2051 H   0  0  0  0  0  0  0  0  0  0  0  0
   -7.4620   17.8720  -33.0730 C   0  0  0  0  0  0  0  0  0  0  0  0
   -8.1010   17.3202  -33.7781 H   0  0  0  0  0  0  0  0  0  0  0  0
   -6.8407   17.1824  -32.4828 H   0  0  0  0  0  0  0  0  0  0  0  0
   -6.5650   18.7630  -33.8360 N   0  0  2  0  0  0  0  0  0  0  0  0
   -7.1450   19.4780  -34.3340 H   0  0  0  0  0  0  0  0  0  0  0  0
   -5.8490   18.0000  -34.8750 C   0  0  0  0  0  0  0  0  0  0  0  0
   -5.1709   17.2774  -34.3974 H   0  0  0  0  0  0  0  0  0  0  0  0
   -6.5759   17.4621  -35.5013 H   0  0  0  0  0  0  0  0  0  0  0  0
   -5.2660   18.6913  -35.5013 H   0  0  0  0  0  0  0  0  0  0  0  0
   -5.5930   19.4570  -32.9470 C   0  0  0  0  0  0  0  0  0  0  0  0
   -5.2319   20.3589  -33.4630 H   0  0  0  0  0  0  0  0  0  0  0  0
   -4.7825   18.7440  -32.7355 H   0  0  0  0  0  0  0  0  0  0  0  0
   -6.1940   19.8800  -31.5840 C   0  0  0  0  0  0  0  0  0  0  0  0
   -5.7723   20.8556  -31.3004 H   0  0  0  0  0  0  0  0  0  0  0  0
   -5.9399   19.1002  -30.8510 H   0  0  0  0  0  0  0  0  0  0  0  0
   -5.7460   22.8190  -31.9330 C   0  0  0  0  0  0  0  0  0  0  0  0
   -5.6352   22.0584  -32.7199 H   0  0  0  0  0  0  0  0  0  0  0  0
   -4.6000   23.4140  -31.3720 C   0  0  0  0  0  0  0  0  0  0  0  0
   -3.3010   23.0470  -31.7680 O   0  0  0  0  0  0  0  0  0  0  0  0
   -2.8810   21.7120  -32.0300 C   0  0  0  0  0  0  0  0  0  0  0  0
   -2.7156   21.1862  -31.0781 H   0  0  0  0  0  0  0  0  0  0  0  0
   -3.6582   21.1897  -32.6072 H   0  0  0  0  0  0  0  0  0  0  0  0
   -1.9447   21.7288  -32.6072 H   0  0  0  0  0  0  0  0  0  0  0  0
   -1.5240   25.1670  -28.7560 N   0  0  0  0  0  0  0  0  0  0  0  0
   -0.4700   24.5680  -28.1500 C   0  0  0  0  0  0  0  0  0  0  0  0
   -0.4070   23.2220  -28.0100 C   0  0  0  0  0  0  0  0  0  0  0  0
    0.7370   22.8260  -27.2850 N   0  0  0  0  0  0  0  0  0  0  0  0
    0.9620   21.8540  -26.9750 H   0  0  0  0  0  0  0  0  0  0  0  0
    1.5060   24.0230  -26.9450 C   0  0  0  0  0  0  0  0  0  0  0  0
    2.5013   23.9830  -27.4117 H   0  0  0  0  0  0  0  0  0  0  0  0
    1.6578   24.1088  -25.8589 H   0  0  0  0  0  0  0  0  0  0  0  0
    0.6960   25.2270  -27.5030 C   0  0  0  0  0  0  0  0  0  0  0  0
    1.2865   25.7962  -28.2360 H   0  0  0  0  0  0  0  0  0  0  0  0
    0.4108   25.9558  -26.7300 H   0  0  0  0  0  0  0  0  0  0  0  0
   -2.0210   20.4700  -27.1000 C   0  0  0  0  0  0  0  0  0  0  0  0
   -1.5225   20.9242  -26.2310 H   0  0  0  0  0  0  0  0  0  0  0  0
   -3.0949   20.7066  -27.0718 H   0  0  0  0  0  0  0  0  0  0  0  0
   -1.8851   19.3788  -27.0718 H   0  0  0  0  0  0  0  0  0  0  0  0
    0.6650   18.1450  -28.6450 C   0  0  0  0  0  0  0  0  0  0  0  0
    0.0048   17.3215  -28.9549 H   0  0  0  0  0  0  0  0  0  0  0  0
    1.9050   18.0400  -28.0520 C   0  0  0  0  0  0  0  0  0  0  0  0
    2.4380   17.1136  -27.7918 H   0  0  0  0  0  0  0  0  0  0  0  0
  1  2  1  0
  2  3  1  0
  3  4  1  0
  4  5  1  0
  5  6  1  0
  5  7  1  0
  5  8  1  0
  8  9  1  0
  9 10  2  0
 10 11  1  0
 11 12  2  0
 12 13  1  0
 13 14  2  0
 14 15  1  0
 14 16  1  0
 16 17  1  0
 16 18  2  0
 18 19  1  0
 19 20  2  0
 19 21  1  0
 21 22  1  0
 22 23  1  1
 22 24  1  0
 24 25  1  0
 24 26  1  0
 24 27  1  0
 27 28  1  0
 27 29  1  0
 27 30  1  0
 30 31  1  6
 30 32  1  0
 32 33  1  0
 32 34  1  0
 32 35  1  0
 30 36  1  0
 36 37  1  0
 36 38  1  0
 36 39  1  0
 39 40  1  0
 39 41  1  0
 18 42  1  0
 42 43  1  0
 42 44  2  0
 44 45  1  0
 45 46  1  0
 46 47  1  0
 46 48  1  0
 46 49  1  0
 11 50  1  0
 50 51  1  0
 51 52  2  0
 52 53  1  0
 53 54  1  0
 53 55  1  0
 55 56  1  0
 55 57  1  0
 55 58  1  0
 58 59  1  0
 58 60  1  0
  8 61  1  0
 61 62  1  0
 61 63  1  0
 61 64  1  0
  4 65  2  0
 65 66  1  0
 65 67  1  0
 67 68  1  0
 67  2  2  0
 52  9  1  0
 44 13  1  0
 58 51  1  0
 39 22  1  0
M  CHG  3  21  -1  30   1  50  -1
M  END
>  <UniqueID>  (1) 
1

>  <SMILES>  (1) 
COc1cc(C(=O)[N-]C2CC[NH+](C)CC2)ccc1/N=c1\nc(N(C)Cc2ccco2)c2c([n-]1)CCN2

>  <Energy>  (1) 
135.9307719735006

>  <Genealogy>  (1) 
COc1cc(C(=O)[N-]C2CC[NH+](C)CC2)ccc1N=c1nc(N(C)Cc2ccco2)c2c([n-]1)CCN2 (protonated)
COc1cc(C(=O)[N-]C2CC[NH+](C)CC2)ccc1/N=c1\nc(N(C)Cc2ccco2)c2c([n-]1)CCN2 (cis-trans isomerization)
COc1cc(C(=O)[N-]C2CC[NH+](C)CC2)ccc1/N=c1\nc(N(C)Cc2ccco2)c2c([n-]1)CCN2 (3D coordinates assigned)
COc1cc(C(=O)[N-]C2CC[NH+](C)CC2)ccc1/N=c1\nc(N(C)Cc2ccco2)c2c([n-]1)CCN2 (nonaromatic ring conformer: 135.9307719735006 kcal/mol)

>  <smiles>  (1) 
COc1cc(C(=O)NC2CCN(C)CC2)ccc1N=c1nc(N(C)Cc2ccco2)c2c([nH]1)CCN2

>  <score_type>  (1) 
oracle

>  <origin>  (1) 
adgpu

>  <m_score__min__energy>  (1) 
-10.23

>  <m_primary>  (1) 
energy

$$$$
1:0
     RDKit          3D

 55 58  0  0  0  0  0  0  0  0999 V2000
   -2.1130   16.2130  -33.9280 C   0  0  0  0  0  0  0  0  0  0  0  0
   -3.6610   15.8840  -34.7390 S   0  0  0  0  0  0  0  0  0  0  0  0
   -4.0470   14.4470  -34.5230 O   0  0  0  0  0  0  0  0  0  0  0  0
   -3.5160   16.1270  -36.2140 O   0  0  0  0  0  0  0  0  0  0  0  0
   -4.9040   16.9380  -34.0750 C   0  0  0  0  0  0  0  0  0  0  0  0
   -5.7930   16.4590  -33.1040 C   0  0  0  0  0  0  0  0  0  0  0  0
   -6.7880   17.2950  -32.5880 C   0  0  0  0  0  0  0  0  0  0  0  0
   -6.9100   18.6130  -33.0490 C   0  0  0  0  0  0  0  0  0  0  0  0
   -8.1450   19.6740  -32.3810 S   0  0  0  0  0  0  0  0  0  0  0  0
   -8.8650   18.9810  -31.2590 O   0  0  0  0  0  0  0  0  0  0  0  0
   -9.1530   20.0170  -33.4420 O   0  0  0  0  0  0  0  0  0  0  0  0
   -7.3770   21.1400  -31.7870 C   0  0  0  0  0  0  0  0  0  0  0  0
   -8.0300   22.3740  -31.9030 C   0  0  0  0  0  0  0  0  0  0  0  0
   -7.4090   23.5450  -31.4570 C   0  0  0  0  0  0  0  0  0  0  0  0
   -6.1240   23.4920  -30.8990 C   0  0  0  0  0  0  0  0  0  0  0  0
   -5.3320   24.9630  -30.3480 S   0  0  0  0  0  0  0  0  0  0  0  0
   -5.7450   25.2580  -28.9350 O   0  0  0  0  0  0  0  0  0  0  0  0
   -5.7350   26.1160  -31.2260 O   0  0  0  0  0  0  0  0  0  0  0  0
   -3.6100   24.7670  -30.4130 N   0  0  0  0  0  0  0  0  0  0  0  0
   -2.9140   23.7610  -29.6720 C   0  0  0  0  0  0  0  0  0  0  0  0
   -2.1710   22.8080  -30.3770 C   0  0  0  0  0  0  0  0  0  0  0  0
   -1.5040   21.7750  -29.7020 C   0  0  0  0  0  0  0  0  0  0  0  0
   -1.6070   21.6820  -28.3000 C   0  0  0  0  0  0  0  0  0  0  0  0
   -2.3150   22.6630  -27.5910 C   0  0  0  0  0  0  0  0  0  0  0  0
   -2.9540   23.7100  -28.2630 C   0  0  0  0  0  0  0  0  0  0  0  0
   -3.5870   24.6950  -27.5060 O   0  0  0  0  0  0  0  0  0  0  0  0
   -0.8650   20.6050  -27.5410 C   0  0  0  0  0  0  0  0  0  0  0  0
   -0.5360   19.4510  -28.3880 N   0  0  0  0  0  0  0  0  0  0  0  0
    0.1540   19.8830  -29.6100 C   0  0  0  0  0  0  0  0  0  0  0  0
   -0.7750   20.7230  -30.4960 C   0  0  0  0  0  0  0  0  0  0  0  0
   -5.4700   22.2580  -30.7840 C   0  0  0  0  0  0  0  0  0  0  0  0
   -6.0910   21.0870  -31.2300 C   0  0  0  0  0  0  0  0  0  0  0  0
   -6.0200   19.0920  -34.0200 C   0  0  0  0  0  0  0  0  0  0  0  0
   -5.0250   18.2560  -34.5340 C   0  0  0  0  0  0  0  0  0  0  0  0
   -2.2565   16.1825  -32.8378 H   0  0  0  0  0  0  0  0  0  0  0  0
   -1.3758   15.4515  -34.2223 H   0  0  0  0  0  0  0  0  0  0  0  0
   -1.7492   17.2085  -34.2223 H   0  0  0  0  0  0  0  0  0  0  0  0
   -5.7080   15.4222  -32.7465 H   0  0  0  0  0  0  0  0  0  0  0  0
   -7.4769   16.9172  -31.8181 H   0  0  0  0  0  0  0  0  0  0  0  0
   -9.0354   22.4221  -32.3467 H   0  0  0  0  0  0  0  0  0  0  0  0
   -7.9300   24.5099  -31.5442 H   0  0  0  0  0  0  0  0  0  0  0  0
   -2.1091   22.8695  -31.4735 H   0  0  0  0  0  0  0  0  0  0  0  0
   -2.3684   22.6085  -26.4937 H   0  0  0  0  0  0  0  0  0  0  0  0
   -4.2670   25.3320  -27.8990 H   0  0  0  0  0  0  0  0  0  0  0  0
    0.0688   21.0308  -27.1453 H   0  0  0  0  0  0  0  0  0  0  0  0
   -1.5207   20.2518  -26.7315 H   0  0  0  0  0  0  0  0  0  0  0  0
   -1.4230   18.9580  -28.6510 H   0  0  0  0  0  0  0  0  0  0  0  0
    1.0312   20.4867  -29.3340 H   0  0  0  0  0  0  0  0  0  0  0  0
    0.4635   18.9901  -30.1729 H   0  0  0  0  0  0  0  0  0  0  0  0
   -0.1745   21.2166  -31.2743 H   0  0  0  0  0  0  0  0  0  0  0  0
   -1.5232   20.0507  -30.9412 H   0  0  0  0  0  0  0  0  0  0  0  0
   -4.4642   22.2102  -30.3412 H   0  0  0  0  0  0  0  0  0  0  0  0
   -5.5696   20.1222  -31.1437 H   0  0  0  0  0  0  0  0  0  0  0  0
   -6.1049   20.1285  -34.3784 H   0  0  0  0  0  0  0  0  0  0  0  0
   -4.3342   18.6344  -35.3019 H   0  0  0  0  0  0  0  0  0  0  0  0
  1  2  1  0
  2  3  2  0
  2  4  2  0
  2  5  1  0
  5  6  2  0
  6  7  1  0
  7  8  2  0
  8  9  1  0
  9 10  2  0
  9 11  2  0
  9 12  1  0
 12 13  2  0
 13 14  1  0
 14 15  2  0
 15 16  1  0
 16 17  2  0
 16 18  2  0
 16 19  1  0
 19 20  1  0
 20 21  2  0
 21 22  1  0
 22 23  2  0
 23 24  1  0
 24 25  2  0
 25 26  1  0
 23 27  1  0
 27 28  1  0
 28 29  1  0
 29 30  1  0
 15 31  1  0
 31 32  2  0
  8 33  1  0
 33 34  2  0
 34  5  1  0
 32 12  1  0
 25 20  1  0
 30 22  1  0
  1 35  1  0
  1 36  1  0
  1 37  1  0
  6 38  1  0
  7 39  1  0
 13 40  1  0
 14 41  1  0
 21 42  1  0
 24 43  1  0
 26 44  1  0
 27 45  1  0
 27 46  1  0
 28 47  1  0
 29 48  1  0
 29 49  1  0
 30 50  1  0
 30 51  1  0
 31 52  1  0
 32 53  1  0
 33 54  1  0
 34 55  1  0
M  CHG  1  19  -1
M  END
>  <UniqueID>  (2) 
2

>  <SMILES>  (2) 
CS(=O)(=O)c1ccc(S(=O)(=O)c2ccc(S(=O)(=O)[N-]c3cc4c(cc3O)CNCC4)cc2)cc1

>  <Energy>  (2) 
69.82050321200421

>  <Genealogy>  (2) 
CS(=O)(=O)c1ccc(S(=O)(=O)c2ccc(S(=O)(=O)[N-]c3cc4c(cc3O)CNCC4)cc2)cc1 (protonated)
CS(=O)(=O)c1ccc(S(=O)(=O)c2ccc(S(=O)(=O)[N-]c3cc4c(cc3O)CNCC4)cc2)cc1 (3D coordinates assigned)
CS(=O)(=O)c1ccc(S(=O)(=O)c2ccc(S(=O)(=O)[N-]c3cc4c(cc3O)CNCC4)cc2)cc1 (nonaromatic ring conformer: 69.82050321200421 kcal/mol)

>  <smiles>  (2) 
CS(=O)(=O)c1ccc(S(=O)(=O)c2ccc(S(=O)(=O)Nc3cc4c(cc3O)CNCC4)cc2)cc1

>  <score_type>  (2) 
oracle

>  <origin>  (2) 
adgpu

>  <m_score__min__energy>  (2) 
-14.359999999999999

>  <m_primary>  (2) 
energy

$$$$
2:0
     RDKit          3D

 53 57  0  0  0  0  0  0  0  0999 V2000
    2.2280   14.1100  -26.7780 C   0  0  0  0  0  0  0  0  0  0  0  0
    1.7300   15.2110  -27.6530 C   0  0  0  0  0  0  0  0  0  0  0  0
    1.7930   15.1850  -29.0010 N   0  0  0  0  0  0  0  0  0  0  0  0
    1.2200   16.2830  -29.5640 C   0  0  0  0  0  0  0  0  0  0  0  0
    0.6770   17.1990  -28.6580 C   0  0  0  0  0  0  0  0  0  0  0  0
   -0.0080   18.4790  -28.9800 C   0  0  0  0  0  0  0  0  0  0  0  0
    0.3570   19.2040  -30.1310 C   0  0  0  0  0  0  0  0  0  0  0  0
   -0.2690   20.4120  -30.4450 C   0  0  0  0  0  0  0  0  0  0  0  0
   -1.2750   20.9240  -29.6150 C   0  0  0  0  0  0  0  0  0  0  0  0
   -1.8940   22.1460  -29.9140 C   0  0  0  0  0  0  0  0  0  0  0  0
   -2.8830   22.6620  -29.0680 C   0  0  0  0  0  0  0  0  0  0  0  0
   -3.5720   24.2540  -29.3740 S   0  0  0  0  0  0  0  0  0  0  0  0
   -4.6500   24.5330  -28.3630 O   0  0  0  0  0  0  0  0  0  0  0  0
   -2.4970   25.2950  -29.2310 O   0  0  0  0  0  0  0  0  0  0  0  0
   -4.2540   24.3500  -30.9670 N   0  0  0  0  0  0  0  0  0  0  0  0
   -5.0690   23.3140  -31.5220 C   0  0  0  0  0  0  0  0  0  0  0  0
   -6.4580   23.3100  -31.3260 C   0  0  0  0  0  0  0  0  0  0  0  0
   -7.2470   22.2600  -31.8210 C   0  0  0  0  0  0  0  0  0  0  0  0
   -6.6340   21.2000  -32.5180 C   0  0  0  0  0  0  0  0  0  0  0  0
   -5.2540   21.2460  -32.7720 C   0  0  0  0  0  0  0  0  0  0  0  0
   -4.4750   22.2950  -32.2770 C   0  0  0  0  0  0  0  0  0  0  0  0
   -3.1090   22.3140  -32.5280 O   0  0  0  0  0  0  0  0  0  0  0  0
   -7.4560   20.0670  -33.0890 C   0  0  0  0  0  0  0  0  0  0  0  0
   -8.7660   19.9110  -32.4280 N   0  0  0  0  0  0  0  0  0  0  0  0
   -8.6530   19.2420  -31.1230 C   0  0  0  0  0  0  0  0  0  0  0  0
   -9.4820   21.1970  -32.3450 C   0  0  0  0  0  0  0  0  0  0  0  0
   -8.7210   22.2400  -31.5100 C   0  0  0  0  0  0  0  0  0  0  0  0
   -3.2690   21.9410  -27.9280 C   0  0  0  0  0  0  0  0  0  0  0  0
   -2.6600   20.7220  -27.6220 C   0  0  0  0  0  0  0  0  0  0  0  0
   -1.6560   20.2080  -28.4560 C   0  0  0  0  0  0  0  0  0  0  0  0
   -1.0210   18.9940  -28.1460 C   0  0  0  0  0  0  0  0  0  0  0  0
    0.9370   16.5850  -27.1050 S   0  0  0  0  0  0  0  0  0  0  0  0
    2.0997   14.3936  -25.7230 H   0  0  0  0  0  0  0  0  0  0  0  0
    1.6574   13.1922  -26.9830 H   0  0  0  0  0  0  0  0  0  0  0  0
    3.2941   13.9325  -26.9830 H   0  0  0  0  0  0  0  0  0  0  0  0
    1.1864   16.4387  -30.6524 H   0  0  0  0  0  0  0  0  0  0  0  0
    1.1455   18.8135  -30.7912 H   0  0  0  0  0  0  0  0  0  0  0  0
    0.0291   20.9643  -31.3484 H   0  0  0  0  0  0  0  0  0  0  0  0
   -1.6013   22.7017  -30.8171 H   0  0  0  0  0  0  0  0  0  0  0  0
   -6.9334   24.1376  -30.7792 H   0  0  0  0  0  0  0  0  0  0  0  0
   -4.7820   20.4494  -33.3658 H   0  0  0  0  0  0  0  0  0  0  0  0
   -7.6246   20.2614  -34.1585 H   0  0  0  0  0  0  0  0  0  0  0  0
   -6.8923   19.1371  -32.9229 H   0  0  0  0  0  0  0  0  0  0  0  0
   -8.7781   19.9825  -30.3193 H   0  0  0  0  0  0  0  0  0  0  0  0
   -9.4338   18.4720  -31.0369 H   0  0  0  0  0  0  0  0  0  0  0  0
   -7.6626   18.7712  -31.0369 H   0  0  0  0  0  0  0  0  0  0  0  0
   -9.6189   21.5912  -33.3628 H   0  0  0  0  0  0  0  0  0  0  0  0
  -10.4471   21.0117  -31.8507 H   0  0  0  0  0  0  0  0  0  0  0  0
   -9.1400   23.2350  -31.7205 H   0  0  0  0  0  0  0  0  0  0  0  0
   -8.8365   21.9701  -30.4499 H   0  0  0  0  0  0  0  0  0  0  0  0
   -4.0565   22.3385  -27.2709 H   0  0  0  0  0  0  0  0  0  0  0  0
   -2.9681   20.1640  -26.7255 H   0  0  0  0  0  0  0  0  0  0  0  0
   -1.3172   18.4396  -27.2433 H   0  0  0  0  0  0  0  0  0  0  0  0
  1  2  1  0
  2  3  2  0
  3  4  1  0
  4  5  2  0
  5  6  1  0
  6  7  2  0
  7  8  1  0
  8  9  2  0
  9 10  1  0
 10 11  2  0
 11 12  1  0
 12 13  2  0
 12 14  2  0
 12 15  1  0
 15 16  1  0
 16 17  2  0
 17 18  1  0
 18 19  2  0
 19 20  1  0
 20 21  2  0
 21 22  1  0
 19 23  1  0
 23 24  1  0
 24 25  1  0
 24 26  1  0
 26 27  1  0
 11 28  1  0
 28 29  2  0
 29 30  1  0
 30 31  2  0
  5 32  1  0
 32  2  1  0
 31  6  1  0
 30  9  1  0
 21 16  1  0
 27 18  1  0
  1 33  1  0
  1 34  1  0
  1 35  1  0
  4 36  1  0
  7 37  1  0
  8 38  1  0
 10 39  1  0
 17 40  1  0
 20 41  1  0
 23 42  1  0
 23 43  1  0
 25 44  1  0
 25 45  1  0
 25 46  1  0
 26 47  1  0
 26 48  1  0
 27 49  1  0
 27 50  1  0
 28 51  1  0
 29 52  1  0
 31 53  1  0
M  CHG  2  15  -1  22  -1
M  END
>  <UniqueID>  (3) 
3

>  <SMILES>  (3) 
Cc1ncc(-c2ccc3cc(S(=O)(=O)[N-]c4cc5c(cc4[O-])CN(C)CC5)ccc3c2)s1

>  <Energy>  (3) 
104.80784319510383

>  <Genealogy>  (3) 
Cc1ncc(-c2ccc3cc(S(=O)(=O)[N-]c4cc5c(cc4[O-])CN(C)CC5)ccc3c2)s1 (protonated)
Cc1ncc(-c2ccc3cc(S(=O)(=O)[N-]c4cc5c(cc4[O-])CN(C)CC5)ccc3c2)s1 (3D coordinates assigned)
Cc1ncc(-c2ccc3cc(S(=O)(=O)[N-]c4cc5c(cc4[O-])CN(C)CC5)ccc3c2)s1 (nonaromatic ring conformer: 104.80784319510383 kcal/mol)

>  <smiles>  (3) 
Cc1ncc(-c2ccc3cc(S(=O)(=O)Nc4cc5c(cc4O)CN(C)CC5)ccc3c2)s1

>  <score_type>  (3) 
oracle

>  <origin>  (3) 
adgpu

>  <m_score__min__energy>  (3) 
-15.109999999999999

>  <m_primary>  (3) 
energy

$$$$
3:0
     RDKit          3D

 55 58  0  0  0  0  0  0  0  0999 V2000
    0.7990   20.6530  -32.7000 C   0  0  0  0  0  0  0  0  0  0  0  0
   -0.7060   20.6260  -32.6290 C   0  0  0  0  0  0  0  0  0  0  0  0
   -1.3380   20.7620  -31.3820 C   0  0  0  0  0  0  0  0  0  0  0  0
   -2.7320   20.6890  -31.2670 C   0  0  0  0  0  0  0  0  0  0  0  0
   -3.4850   20.8330  -29.6350 S   0  0  0  0  0  0  0  0  0  0  0  0
   -2.8800   22.5040  -29.3740 C   0  0  0  0  0  0  0  0  0  0  0  0
   -1.5470   22.7260  -29.0120 C   0  0  0  0  0  0  0  0  0  0  0  0
   -1.0640   24.0310  -28.8770 C   0  0  0  0  0  0  0  0  0  0  0  0
   -1.9240   25.1200  -29.0700 C   0  0  0  0  0  0  0  0  0  0  0  0
   -1.4430   26.4160  -28.9390 O   0  0  0  0  0  0  0  0  0  0  0  0
   -3.2690   24.9010  -29.3940 C   0  0  0  0  0  0  0  0  0  0  0  0
   -3.7430   23.5950  -29.5550 C   0  0  0  0  0  0  0  0  0  0  0  0
   -3.5180   20.5210  -32.4250 C   0  0  0  0  0  0  0  0  0  0  0  0
   -4.9900   20.6240  -32.3810 C   0  0  0  0  0  0  0  0  0  0  0  0
   -5.6800   21.7780  -32.0690 C   0  0  0  0  0  0  0  0  0  0  0  0
   -6.9680   21.5610  -32.1600 O   0  0  0  0  0  0  0  0  0  0  0  0
   -7.1670   20.3150  -32.5250 C   0  0  0  0  0  0  0  0  0  0  0  0
   -8.5300   19.7380  -32.7340 C   0  0  0  0  0  0  0  0  0  0  0  0
   -5.9480   19.6610  -32.6750 C   0  0  0  0  0  0  0  0  0  0  0  0
   -5.7360   18.2250  -32.9830 C   0  0  0  0  0  0  0  0  0  0  0  0
   -5.5860   17.7810  -34.3060 C   0  0  0  0  0  0  0  0  0  0  0  0
   -5.3200   16.4360  -34.5810 C   0  0  0  0  0  0  0  0  0  0  0  0
   -5.2110   15.5110  -33.5340 C   0  0  0  0  0  0  0  0  0  0  0  0
   -4.8650   13.8170  -33.8580 S   0  0  0  0  0  0  0  0  0  0  0  0
   -4.6210   12.9560  -32.3220 C   0  0  0  0  0  0  0  0  0  0  0  0
   -3.6240   13.7150  -34.7010 O   0  0  0  0  0  0  0  0  0  0  0  0
   -6.0090   13.1810  -34.5980 O   0  0  0  0  0  0  0  0  0  0  0  0
   -5.3840   15.9420  -32.2130 C   0  0  0  0  0  0  0  0  0  0  0  0
   -5.6450   17.2870  -31.9370 C   0  0  0  0  0  0  0  0  0  0  0  0
   -2.8920   20.4260  -33.6760 C   0  0  0  0  0  0  0  0  0  0  0  0
   -1.4920   20.4390  -33.7880 C   0  0  0  0  0  0  0  0  0  0  0  0
   -0.8610   20.2830  -35.1470 C   0  0  0  0  0  0  0  0  0  0  0  0
    1.2141   20.6604  -31.6813 H   0  0  0  0  0  0  0  0  0  0  0  0
    1.1569   19.7611  -33.2352 H   0  0  0  0  0  0  0  0  0  0  0  0
    1.1247   21.5571  -33.2352 H   0  0  0  0  0  0  0  0  0  0  0  0
   -0.7285   20.9285  -30.4815 H   0  0  0  0  0  0  0  0  0  0  0  0
   -0.8774   21.8718  -28.8332 H   0  0  0  0  0  0  0  0  0  0  0  0
   -0.0085   24.2028  -28.6192 H   0  0  0  0  0  0  0  0  0  0  0  0
   -3.9511   25.7545  -29.5216 H   0  0  0  0  0  0  0  0  0  0  0  0
   -4.7955   23.4229  -29.8243 H   0  0  0  0  0  0  0  0  0  0  0  0
   -5.2177   22.7353  -31.7866 H   0  0  0  0  0  0  0  0  0  0  0  0
   -8.9979   19.5399  -31.7584 H   0  0  0  0  0  0  0  0  0  0  0  0
   -9.1477   20.4518  -33.2987 H   0  0  0  0  0  0  0  0  0  0  0  0
   -8.4474   18.7976  -33.2987 H   0  0  0  0  0  0  0  0  0  0  0  0
   -5.6786   18.4982  -35.1348 H   0  0  0  0  0  0  0  0  0  0  0  0
   -5.1960   16.1032  -35.6221 H   0  0  0  0  0  0  0  0  0  0  0  0
   -4.8150   13.6406  -31.4831 H   0  0  0  0  0  0  0  0  0  0  0  0
   -5.3126   12.1025  -32.2662 H   0  0  0  0  0  0  0  0  0  0  0  0
   -3.5844   12.5922  -32.2662 H   0  0  0  0  0  0  0  0  0  0  0  0
   -5.3141   15.2179  -31.3879 H   0  0  0  0  0  0  0  0  0  0  0  0
   -5.7802   17.6149  -30.8957 H   0  0  0  0  0  0  0  0  0  0  0  0
   -3.5070   20.3399  -34.5840 H   0  0  0  0  0  0  0  0  0  0  0  0
    0.2008   20.0205  -35.0303 H   0  0  0  0  0  0  0  0  0  0  0  0
   -1.3771   19.4854  -35.7015 H   0  0  0  0  0  0  0  0  0  0  0  0
   -0.9460   21.2292  -35.7015 H   0  0  0  0  0  0  0  0  0  0  0  0
  1  2  1  0
  2  3  2  0
  3  4  1  0
  4  5  1  0
  5  6  1  0
  6  7  2  0
  7  8  1  0
  8  9  2  0
  9 10  1  0
  9 11  1  0
 11 12  2  0
  4 13  2  0
 13 14  1  0
 14 15  2  0
 15 16  1  0
 16 17  1  0
 17 18  1  0
 17 19  2  0
 19 20  1  0
 20 21  2  0
 21 22  1  0
 22 23  2  0
 23 24  1  0
 24 25  1  0
 24 26  2  0
 24 27  2  0
 23 28  1  0
 28 29  2  0
 13 30  1  0
 30 31  2  0
 31 32  1  0
 31  2  1  0
 12  6  1  0
 19 14  1  0
 29 20  1  0
  1 33  1  0
  1 34  1  0
  1 35  1  0
  3 36  1  0
  7 37  1  0
  8 38  1  0
 11 39  1  0
 12 40  1  0
 15 41  1  0
 18 42  1  0
 18 43  1  0
 18 44  1  0
 21 45  1  0
 22 46  1  0
 25 47  1  0
 25 48  1  0
 25 49  1  0
 28 50  1  0
 29 51  1  0
 30 52  1  0
 32 53  1  0
 32 54  1  0
 32 55  1  0
M  CHG  1  10  -1
M  END
>  <UniqueID>  (4) 
4

>  <SMILES>  (4) 
Cc1cc(Sc2ccc([O-])cc2)c(-c2coc(C)c2-c2ccc(S(C)(=O)=O)cc2)cc1C

>  <Energy>  (4) 
91.45583214428422

>  <Genealogy>  (4) 
Cc1cc(Sc2ccc([O-])cc2)c(-c2coc(C)c2-c2ccc(S(C)(=O)=O)cc2)cc1C (protonated)
Cc1cc(Sc2ccc([O-])cc2)c(-c2coc(C)c2-c2ccc(S(C)(=O)=O)cc2)cc1C (3D coordinates assigned)
Cc1cc(Sc2ccc([O-])cc2)c(-c2coc(C)c2-c2ccc(S(C)(=O)=O)cc2)cc1C (optimized conformer: 91.45583214428422 kcal/mol)

>  <smiles>  (4) 
Cc1cc(Sc2ccc(O)cc2)c(-c2coc(C)c2-c2ccc(S(C)(=O)=O)cc2)cc1C

>  <score_type>  (4) 
oracle

>  <origin>  (4) 
adgpu

>  <m_score__min__energy>  (4) 
-11.74

>  <m_primary>  (4) 
energy

$$$$
4:0
     RDKit          3D

 45 48  0  0  0  0  0  0  0  0999 V2000
    0.0700   19.7970  -28.0870 C   0  0  0  0  0  0  0  0  0  0  0  0
   -0.5160   20.4520  -26.9060 N   0  0  0  0  0  0  0  0  0  0  0  0
   -1.9560   20.1690  -26.7530 C   0  0  0  0  0  0  0  0  0  0  0  0
   -2.7960   20.7610  -27.8940 C   0  0  0  0  0  0  0  0  0  0  0  0
   -2.3840   22.1690  -28.2370 C   0  0  0  0  0  0  0  0  0  0  0  0
   -3.2190   22.9430  -29.0570 C   0  0  0  0  0  0  0  0  0  0  0  0
   -2.8410   24.2410  -29.4440 C   0  0  0  0  0  0  0  0  0  0  0  0
   -3.6790   25.0610  -30.2720 N   0  0  0  0  0  0  0  0  0  0  0  0
   -5.4030   24.9320  -30.3990 S   0  0  0  0  0  0  0  0  0  0  0  0
   -5.9210   26.0630  -31.2440 O   0  0  0  0  0  0  0  0  0  0  0  0
   -6.0160   25.0400  -29.0310 O   0  0  0  0  0  0  0  0  0  0  0  0
   -5.8320   23.4090  -31.1680 C   0  0  0  0  0  0  0  0  0  0  0  0
   -4.8410   22.6800  -31.8640 C   0  0  0  0  0  0  0  0  0  0  0  0
   -5.1500   21.4580  -32.4840 C   0  0  0  0  0  0  0  0  0  0  0  0
   -6.4590   20.9850  -32.3960 C   0  0  0  0  0  0  0  0  0  0  0  0
   -7.4260   21.6950  -31.7050 C   0  0  0  0  0  0  0  0  0  0  0  0
   -7.1450   22.9090  -31.0830 C   0  0  0  0  0  0  0  0  0  0  0  0
   -8.6560   20.9220  -31.7450 C   0  0  0  0  0  0  0  0  0  0  0  0
   -9.7570   21.2130  -31.2070 O   0  0  0  0  0  0  0  0  0  0  0  0
   -8.3340   19.7200  -32.4990 C   0  0  0  0  0  0  0  0  0  0  0  0
   -9.1200   18.7580  -32.7120 O   0  0  0  0  0  0  0  0  0  0  0  0
   -6.9760   19.7650  -32.9410 N   0  0  0  0  0  0  0  0  0  0  0  0
   -6.1940   18.6270  -33.4120 C   0  0  0  0  0  0  0  0  0  0  0  0
   -1.6180   24.7580  -28.9990 C   0  0  0  0  0  0  0  0  0  0  0  0
   -1.2310   26.0450  -29.3570 O   0  0  0  0  0  0  0  0  0  0  0  0
   -0.7780   23.9870  -28.1900 C   0  0  0  0  0  0  0  0  0  0  0  0
   -1.1420   22.6860  -27.8210 C   0  0  0  0  0  0  0  0  0  0  0  0
   -0.2460   21.9030  -26.8860 C   0  0  0  0  0  0  0  0  0  0  0  0
    0.7707   19.0138  -27.7620 H   0  0  0  0  0  0  0  0  0  0  0  0
   -0.7308   19.3450  -28.6907 H   0  0  0  0  0  0  0  0  0  0  0  0
    0.6079   20.5427  -28.6907 H   0  0  0  0  0  0  0  0  0  0  0  0
   -2.1015   19.0788  -26.7368 H   0  0  0  0  0  0  0  0  0  0  0  0
   -2.2905   20.6356  -25.8147 H   0  0  0  0  0  0  0  0  0  0  0  0
   -2.6749   20.1297  -28.7866 H   0  0  0  0  0  0  0  0  0  0  0  0
   -3.8439   20.7890  -27.5606 H   0  0  0  0  0  0  0  0  0  0  0  0
   -4.1790   22.5303  -29.4006 H   0  0  0  0  0  0  0  0  0  0  0  0
   -3.8157   23.0743  -31.9208 H   0  0  0  0  0  0  0  0  0  0  0  0
   -4.3795   20.8889  -33.0249 H   0  0  0  0  0  0  0  0  0  0  0  0
   -7.9267   23.4613  -30.5409 H   0  0  0  0  0  0  0  0  0  0  0  0
   -5.8078   18.0650  -32.5488 H   0  0  0  0  0  0  0  0  0  0  0  0
   -6.8325   17.9703  -34.0212 H   0  0  0  0  0  0  0  0  0  0  0  0
   -5.3520   18.9876  -34.0212 H   0  0  0  0  0  0  0  0  0  0  0  0
    0.1771   24.4059  -27.8403 H   0  0  0  0  0  0  0  0  0  0  0  0
    0.8001   22.0687  -27.1830 H   0  0  0  0  0  0  0  0  0  0  0  0
   -0.4454   22.2599  -25.8648 H   0  0  0  0  0  0  0  0  0  0  0  0
  1  2  1  0
  2  3  1  0
  3  4  1  0
  4  5  1  0
  5  6  2  0
  6  7  1  0
  7  8  1  0
  8  9  1  0
  9 10  2  0
  9 11  2  0
  9 12  1  0
 12 13  2  0
 13 14  1  0
 14 15  2  0
 15 16  1  0
 16 17  2  0
 16 18  1  0
 18 19  2  0
 18 20  1  0
 20 21  2  0
 20 22  1  0
 22 23  1  0
  7 24  2  0
 24 25  1  0
 24 26  1  0
 26 27  2  0
 27 28  1  0
 28  2  1  0
 27  5  1  0
 17 12  1  0
 22 15  1  0
  1 29  1  0
  1 30  1  0
  1 31  1  0
  3 32  1  0
  3 33  1  0
  4 34  1  0
  4 35  1  0
  6 36  1  0
 13 37  1  0
 14 38  1  0
 17 39  1  0
 23 40  1  0
 23 41  1  0
 23 42  1  0
 26 43  1  0
 28 44  1  0
 28 45  1  0
M  CHG  2   8  -1  25  -1
M  END
>  <UniqueID>  (5) 
5

>  <SMILES>  (5) 
CN1CCc2cc([N-]S(=O)(=O)c3ccc4c(c3)C(=O)C(=O)N4C)c([O-])cc2C1

>  <Energy>  (5) 
87.95609229328672

>  <Genealogy>  (5) 
CN1CCc2cc([N-]S(=O)(=O)c3ccc4c(c3)C(=O)C(=O)N4C)c([O-])cc2C1 (protonated)
CN1CCc2cc([N-]S(=O)(=O)c3ccc4c(c3)C(=O)C(=O)N4C)c([O-])cc2C1 (3D coordinates assigned)
CN1CCc2cc([N-]S(=O)(=O)c3ccc4c(c3)C(=O)C(=O)N4C)c([O-])cc2C1 (nonaromatic ring conformer: 87.95609229328672 kcal/mol)

>  <smiles>  (5) 
CN1CCc2cc(NS(=O)(=O)c3ccc4c(c3)C(=O)C(=O)N4C)c(O)cc2C1

>  <score_type>  (5) 
oracle

>  <origin>  (5) 
adgpu

>  <m_score__min__energy>  (5) 
-15.17

>  <m_primary>  (5) 
energy

$$$$
5:0
     RDKit          3D

 64 67  0  0  0  0  0  0  0  0999 V2000
   -6.7470   16.8890  -33.5180 C   0  0  0  0  0  0  0  0  0  0  0  0
   -6.5490   17.8540  -32.3530 C   0  0  0  0  0  0  0  0  0  0  0  0
   -6.4190   19.2690  -32.8440 C   0  0  0  0  0  0  0  0  0  0  0  0
   -5.6050   19.5200  -33.7720 O   0  0  0  0  0  0  0  0  0  0  0  0
   -7.2330   20.3220  -32.2960 N   0  0  0  0  0  0  0  0  0  0  0  0
   -8.6960   20.3600  -32.3710 C   0  0  0  0  0  0  0  0  0  0  0  0
   -9.1100   21.8120  -32.0180 C   0  0  0  0  0  0  0  0  0  0  0  0
   -7.8190   22.4620  -31.6680 C   0  0  0  0  0  0  0  0  0  0  0  0
   -7.6170   23.7610  -31.2000 C   0  0  0  0  0  0  0  0  0  0  0  0
   -6.3060   24.1700  -30.8950 C   0  0  0  0  0  0  0  0  0  0  0  0
   -6.0640   25.4650  -30.4450 O   0  0  0  0  0  0  0  0  0  0  0  0
   -5.2310   23.2680  -31.0530 C   0  0  0  0  0  0  0  0  0  0  0  0
   -3.8950   23.6980  -30.7980 N   0  0  0  0  0  0  0  0  0  0  0  0
   -3.4500   24.2390  -29.2180 S   0  0  0  0  0  0  0  0  0  0  0  0
   -4.6400   24.8350  -28.5290 O   0  0  0  0  0  0  0  0  0  0  0  0
   -2.3860   25.2880  -29.3400 O   0  0  0  0  0  0  0  0  0  0  0  0
   -2.8430   22.8760  -28.2850 C   0  0  0  0  0  0  0  0  0  0  0  0
   -3.2860   21.5700  -28.5450 C   0  0  0  0  0  0  0  0  0  0  0  0
   -2.8330   20.5070  -27.7600 C   0  0  0  0  0  0  0  0  0  0  0  0
   -1.9390   20.7400  -26.7110 C   0  0  0  0  0  0  0  0  0  0  0  0
   -1.4760   22.0400  -26.4510 C   0  0  0  0  0  0  0  0  0  0  0  0
   -0.5000   22.2700  -25.3660 C   0  0  0  0  0  0  0  0  0  0  0  0
   -0.6480   21.6380  -24.2850 O   0  0  0  0  0  0  0  0  0  0  0  0
    0.6400   23.1510  -25.5280 N   0  0  0  0  0  0  0  0  0  0  0  0
    1.4250   23.0480  -26.7620 C   0  0  0  0  0  0  0  0  0  0  0  0
    1.0050   24.1620  -24.5160 C   0  0  0  0  0  0  0  0  0  0  0  0
    0.2130   25.4330  -24.6930 C   0  0  0  0  0  0  0  0  0  0  0  0
   -0.4900   25.9840  -23.6100 C   0  0  0  0  0  0  0  0  0  0  0  0
   -1.1850   27.1870  -23.7620 C   0  0  0  0  0  0  0  0  0  0  0  0
   -1.1810   27.8510  -24.9940 C   0  0  0  0  0  0  0  0  0  0  0  0
   -0.4750   27.3150  -26.0820 C   0  0  0  0  0  0  0  0  0  0  0  0
   -0.4670   28.0210  -27.4060 C   0  0  0  0  0  0  0  0  0  0  0  0
    0.1910   26.0910  -25.9370 C   0  0  0  0  0  0  0  0  0  0  0  0
   -1.9460   23.1070  -27.2310 C   0  0  0  0  0  0  0  0  0  0  0  0
   -5.4660   21.9630  -31.5240 C   0  0  0  0  0  0  0  0  0  0  0  0
   -6.7770   21.5920  -31.8430 C   0  0  0  0  0  0  0  0  0  0  0  0
   -6.9538   15.8813  -33.1283 H   0  0  0  0  0  0  0  0  0  0  0  0
   -7.5948   17.2255  -34.1328 H   0  0  0  0  0  0  0  0  0  0  0  0
   -5.8352   16.8644  -34.1328 H   0  0  0  0  0  0  0  0  0  0  0  0
   -7.4145   17.7854  -31.6775 H   0  0  0  0  0  0  0  0  0  0  0  0
   -5.6249   17.5798  -31.8230 H   0  0  0  0  0  0  0  0  0  0  0  0
   -9.0325   20.1038  -33.3864 H   0  0  0  0  0  0  0  0  0  0  0  0
   -9.1516   19.6344  -31.6811 H   0  0  0  0  0  0  0  0  0  0  0  0
   -9.5797   22.3082  -32.8801 H   0  0  0  0  0  0  0  0  0  0  0  0
   -9.8506   21.8625  -31.2063 H   0  0  0  0  0  0  0  0  0  0  0  0
   -8.4646   24.4503  -31.0723 H   0  0  0  0  0  0  0  0  0  0  0  0
   -5.2990   25.6700  -29.8130 H   0  0  0  0  0  0  0  0  0  0  0  0
   -3.9911   21.3831  -29.3683 H   0  0  0  0  0  0  0  0  0  0  0  0
   -3.1806   19.4843  -27.9678 H   0  0  0  0  0  0  0  0  0  0  0  0
   -1.5967   19.9016  -26.0866 H   0  0  0  0  0  0  0  0  0  0  0  0
    2.4868   22.9087  -26.5106 H   0  0  0  0  0  0  0  0  0  0  0  0
    1.0717   22.1885  -27.3506 H   0  0  0  0  0  0  0  0  0  0  0  0
    1.3054   23.9695  -27.3506 H   0  0  0  0  0  0  0  0  0  0  0  0
    0.8055   23.7532  -23.5144 H   0  0  0  0  0  0  0  0  0  0  0  0
    2.0720   24.4009  -24.6364 H   0  0  0  0  0  0  0  0  0  0  0  0
   -0.4939   25.4674  -22.6389 H   0  0  0  0  0  0  0  0  0  0  0  0
   -1.7366   27.6131  -22.9110 H   0  0  0  0  0  0  0  0  0  0  0  0
   -1.7327   28.7956  -25.1098 H   0  0  0  0  0  0  0  0  0  0  0  0
   -0.4547   29.1086  -27.2415 H   0  0  0  0  0  0  0  0  0  0  0  0
    0.4279   27.7258  -27.9735 H   0  0  0  0  0  0  0  0  0  0  0  0
   -1.3683   27.7462  -27.9735 H   0  0  0  0  0  0  0  0  0  0  0  0
    0.7005   25.6409  -26.8018 H   0  0  0  0  0  0  0  0  0  0  0  0
   -1.6091   24.1316  -27.0149 H   0  0  0  0  0  0  0  0  0  0  0  0
   -4.6367   21.2496  -31.6390 H   0  0  0  0  0  0  0  0  0  0  0  0
  1  2  1  0
  2  3  1  0
  3  4  2  0
  3  5  1  0
  5  6  1  0
  6  7  1  0
  7  8  1  0
  8  9  2  0
  9 10  1  0
 10 11  1  0
 10 12  2  0
 12 13  1  0
 13 14  1  0
 14 15  2  0
 14 16  2  0
 14 17  1  0
 17 18  2  0
 18 19  1  0
 19 20  2  0
 20 21  1  0
 21 22  1  0
 22 23  2  0
 22 24  1  0
 24 25  1  0
 24 26  1  0
 26 27  1  0
 27 28  2  0
 28 29  1  0
 29 30  2  0
 30 31  1  0
 31 32  1  0
 31 33  2  0
 21 34  2  0
 12 35  1  0
 35 36  2  0
 36  5  1  0
 36  8  1  0
 34 17  1  0
 33 27  1  0
  1 37  1  0
  1 38  1  0
  1 39  1  0
  2 40  1  0
  2 41  1  0
  6 42  1  0
  6 43  1  0
  7 44  1  0
  7 45  1  0
  9 46  1  0
 11 47  1  0
 18 48  1  0
 19 49  1  0
 20 50  1  0
 25 51  1  0
 25 52  1  0
 25 53  1  0
 26 54  1  0
 26 55  1  0
 28 56  1  0
 29 57  1  0
 30 58  1  0
 32 59  1  0
 32 60  1  0
 32 61  1  0
 33 62  1  0
 34 63  1  0
 35 64  1  0
M  CHG  1  13  -1
M  END
>  <UniqueID>  (6) 
6

>  <SMILES>  (6) 
CCC(=O)N1CCc2cc(O)c([N-]S(=O)(=O)c3cccc(C(=O)N(C)Cc4cccc(C)c4)c3)cc21

>  <Energy>  (6) 
88.67636658835556

>  <Genealogy>  (6) 
CCC(=O)N1CCc2cc(O)c([N-]S(=O)(=O)c3cccc(C(=O)N(C)Cc4cccc(C)c4)c3)cc21 (protonated)
CCC(=O)N1CCc2cc(O)c([N-]S(=O)(=O)c3cccc(C(=O)N(C)Cc4cccc(C)c4)c3)cc21 (3D coordinates assigned)
CCC(=O)N1CCc2cc(O)c([N-]S(=O)(=O)c3cccc(C(=O)N(C)Cc4cccc(C)c4)c3)cc21 (nonaromatic ring conformer: 88.67636658835556 kcal/mol)

>  <smiles>  (6) 
CCC(=O)N1CCc2cc(O)c(NS(=O)(=O)c3cccc(C(=O)N(C)Cc4cccc(C)c4)c3)cc21

>  <score_type>  (6) 
oracle

>  <origin>  (6) 
adgpu

>  <m_score__min__energy>  (6) 
-12.220000000000001

>  <m_primary>  (6) 
energy

$$$$
6:0
     RDKit          3D

 59 62  0  0  0  0  0  0  0  0999 V2000
   -5.8100   17.0460  -31.7610 C   0  0  0  0  0  0  0  0  0  0  0  0
   -6.1220   18.3170  -31.1980 O   0  0  0  0  0  0  0  0  0  0  0  0
   -7.1920   19.1330  -31.6000 C   0  0  0  0  0  0  0  0  0  0  0  0
   -8.4210   18.5800  -32.0120 C   0  0  0  0  0  0  0  0  0  0  0  0
   -9.4850   19.4070  -32.3790 C   0  0  0  0  0  0  0  0  0  0  0  0
   -9.3410   20.7920  -32.3330 C   0  0  0  0  0  0  0  0  0  0  0  0
   -8.1310   21.3550  -31.9290 C   0  0  0  0  0  0  0  0  0  0  0  0
   -7.0420   20.5420  -31.5770 C   0  0  0  0  0  0  0  0  0  0  0  0
   -5.8140   21.1770  -31.1760 N   0  0  0  0  0  0  0  0  0  0  0  0
   -4.5750   21.0670  -31.8890 C   0  0  0  0  0  0  0  0  0  0  0  0
   -4.4080   20.0010  -32.7790 C   0  0  0  0  0  0  0  0  0  0  0  0
   -3.2410   19.8810  -33.5350 C   0  0  0  0  0  0  0  0  0  0  0  0
   -2.2130   20.8280  -33.4130 C   0  0  0  0  0  0  0  0  0  0  0  0
   -0.9720   20.6880  -34.2170 C   0  0  0  0  0  0  0  0  0  0  0  0
   -0.3660   19.5800  -34.2330 O   0  0  0  0  0  0  0  0  0  0  0  0
   -0.4500   21.7860  -34.9820 N   0  0  0  0  0  0  0  0  0  0  0  0
    0.8670   21.7180  -35.6060 C   0  0  0  0  0  0  0  0  0  0  0  0
    1.7360   22.9360  -35.3470 C   0  0  0  0  0  0  0  0  0  0  0  0
    2.0010   21.6410  -34.5980 C   0  0  0  0  0  0  0  0  0  0  0  0
   -2.3650   21.8790  -32.4920 C   0  0  0  0  0  0  0  0  0  0  0  0
   -3.5270   22.0000  -31.7160 C   0  0  0  0  0  0  0  0  0  0  0  0
   -3.6100   23.3090  -30.5260 S   0  0  0  0  0  0  0  0  0  0  0  0
   -4.4410   22.9030  -29.3420 O   0  0  0  0  0  0  0  0  0  0  0  0
   -4.2360   24.5150  -31.1670 O   0  0  0  0  0  0  0  0  0  0  0  0
   -2.0050   23.7250  -30.0110 N   0  0  0  0  0  0  0  0  0  0  0  0
   -1.6720   24.2690  -28.7250 C   0  0  0  0  0  0  0  0  0  0  0  0
   -1.2790   25.6120  -28.5920 C   0  0  0  0  0  0  0  0  0  0  0  0
   -0.9300   26.1300  -27.3420 C   0  0  0  0  0  0  0  0  0  0  0  0
   -0.9780   25.3170  -26.2010 C   0  0  0  0  0  0  0  0  0  0  0  0
   -0.5820   25.8600  -24.8610 C   0  0  0  0  0  0  0  0  0  0  0  0
   -1.3400   23.9680  -26.3300 C   0  0  0  0  0  0  0  0  0  0  0  0
   -1.6670   23.4310  -27.5880 C   0  0  0  0  0  0  0  0  0  0  0  0
   -2.1010   21.9920  -27.6670 C   0  0  0  0  0  0  0  0  0  0  0  0
   -5.6320   16.3209  -30.9532 H   0  0  0  0  0  0  0  0  0  0  0  0
   -6.6508   16.7038  -32.3822 H   0  0  0  0  0  0  0  0  0  0  0  0
   -4.9063   17.1320  -32.3822 H   0  0  0  0  0  0  0  0  0  0  0  0
   -8.5434   17.4873  -32.0448 H   0  0  0  0  0  0  0  0  0  0  0  0
  -10.4378   18.9643  -32.7048 H   0  0  0  0  0  0  0  0  0  0  0  0
  -10.1824   21.4418  -32.6156 H   0  0  0  0  0  0  0  0  0  0  0  0
   -8.0285   22.4494  -31.8856 H   0  0  0  0  0  0  0  0  0  0  0  0
   -5.8030   21.7100  -30.2770 H   0  0  0  0  0  0  0  0  0  0  0  0
   -5.2045   19.2496  -32.8841 H   0  0  0  0  0  0  0  0  0  0  0  0
   -3.1263   19.0376  -34.2318 H   0  0  0  0  0  0  0  0  0  0  0  0
   -1.0640   22.5980  -35.2170 H   0  0  0  0  0  0  0  0  0  0  0  0
    0.5717   21.1516  -36.5015 H   0  0  0  0  0  0  0  0  0  0  0  0
    2.4427   23.2810  -36.1161 H   0  0  0  0  0  0  0  0  0  0  0  0
    1.5457   23.9790  -35.0539 H   0  0  0  0  0  0  0  0  0  0  0  0
    2.8994   21.0482  -34.8249 H   0  0  0  0  0  0  0  0  0  0  0  0
    2.0820   21.3578  -33.5382 H   0  0  0  0  0  0  0  0  0  0  0  0
   -1.5591   22.6189  -32.3780 H   0  0  0  0  0  0  0  0  0  0  0  0
   -1.2459   26.2609  -29.4796 H   0  0  0  0  0  0  0  0  0  0  0  0
   -0.6162   27.1805  -27.2529 H   0  0  0  0  0  0  0  0  0  0  0  0
   -1.0314   25.2438  -24.0683 H   0  0  0  0  0  0  0  0  0  0  0  0
    0.5136   25.8381  -24.7657 H   0  0  0  0  0  0  0  0  0  0  0  0
   -0.9377   26.8965  -24.7657 H   0  0  0  0  0  0  0  0  0  0  0  0
   -1.3684   23.3240  -25.4387 H   0  0  0  0  0  0  0  0  0  0  0  0
   -2.2224   21.5893  -26.6506 H   0  0  0  0  0  0  0  0  0  0  0  0
   -3.0588   21.9268  -28.2041 H   0  0  0  0  0  0  0  0  0  0  0  0
   -1.3390   21.4082  -28.2041 H   0  0  0  0  0  0  0  0  0  0  0  0
  1  2  1  0
  2  3  1  0
  3  4  2  0
  4  5  1  0
  5  6  2  0
  6  7  1  0
  7  8  2  0
  8  9  1  0
  9 10  1  0
 10 11  2  0
 11 12  1  0
 12 13  2  0
 13 14  1  0
 14 15  2  0
 14 16  1  0
 16 17  1  0
 17 18  1  0
 18 19  1  0
 13 20  1  0
 20 21  2  0
 21 22  1  0
 22 23  2  0
 22 24  2  0
 22 25  1  0
 25 26  1  0
 26 27  2  0
 27 28  1  0
 28 29  2  0
 29 30  1  0
 29 31  1  0
 31 32  2  0
 32 33  1  0
  8  3  1  0
 21 10  1  0
 32 26  1  0
 19 17  1  0
  1 34  1  0
  1 35  1  0
  1 36  1  0
  4 37  1  0
  5 38  1  0
  6 39  1  0
  7 40  1  0
  9 41  1  0
 11 42  1  0
 12 43  1  0
 16 44  1  0
 17 45  1  0
 18 46  1  0
 18 47  1  0
 19 48  1  0
 19 49  1  0
 20 50  1  0
 27 51  1  0
 28 52  1  0
 30 53  1  0
 30 54  1  0
 30 55  1  0
 31 56  1  0
 33 57  1  0
 33 58  1  0
 33 59  1  0
M  CHG  1  25  -1
M  END
>  <UniqueID>  (7) 
7

>  <SMILES>  (7) 
COc1ccccc1Nc1ccc(C(=O)NC2CC2)cc1S(=O)(=O)[N-]c1ccc(C)cc1C

>  <Energy>  (7) 
340.8250215853618

>  <Genealogy>  (7) 
COc1ccccc1Nc1ccc(C(=O)NC2CC2)cc1S(=O)(=O)[N-]c1ccc(C)cc1C (protonated)
COc1ccccc1Nc1ccc(C(=O)NC2CC2)cc1S(=O)(=O)[N-]c1ccc(C)cc1C (3D coordinates assigned)
COc1ccccc1Nc1ccc(C(=O)NC2CC2)cc1S(=O)(=O)[N-]c1ccc(C)cc1C (nonaromatic ring conformer: 340.8250215853618 kcal/mol)

>  <smiles>  (7) 
COc1ccccc1Nc1ccc(C(=O)NC2CC2)cc1S(=O)(=O)Nc1ccc(C)cc1C

>  <score_type>  (7) 
oracle

>  <origin>  (7) 
adgpu

>  <m_score__min__energy>  (7) 
-11.130000000000001

>  <m_primary>  (7) 
energy

$$$$
7:0
     RDKit          3D

 49 52  0  0  0  0  0  0  0  0999 V2000
   -5.7120   25.7800  -30.5300 O   0  0  0  0  0  0  0  0  0  0  0  0
   -4.7810   24.9330  -30.5880 C   0  0  0  0  0  0  0  0  0  0  0  0
   -3.4830   25.2990  -30.1020 N   0  0  0  0  0  0  0  0  0  0  0  0
   -2.5760   24.4270  -29.3520 C   0  0  0  0  0  0  0  0  0  0  0  0
   -1.5510   25.2650  -28.5680 C   0  0  0  0  0  0  0  0  0  0  0  0
   -0.5330   24.3700  -27.8310 C   0  0  0  0  0  0  0  0  0  0  0  0
   -1.1100   23.0070  -27.3870 C   0  0  0  0  0  0  0  0  0  0  0  0
   -0.4790   22.6010  -26.2250 F   0  0  0  0  0  0  0  0  0  0  0  0
   -0.8650   22.0560  -28.3660 F   0  0  0  0  0  0  0  0  0  0  0  0
   -2.6210   23.0920  -27.1380 C   0  0  0  0  0  0  0  0  0  0  0  0
   -3.3980   23.5300  -28.3980 C   0  0  0  0  0  0  0  0  0  0  0  0
   -5.0560   23.6060  -31.1710 C   0  0  0  0  0  0  0  0  0  0  0  0
   -4.0120   22.8530  -31.7280 C   0  0  0  0  0  0  0  0  0  0  0  0
   -4.2580   21.6230  -32.2540 N   0  0  0  0  0  0  0  0  0  0  0  0
   -5.5090   21.0910  -32.2750 C   0  0  0  0  0  0  0  0  0  0  0  0
   -5.7190   19.8180  -32.8180 C   0  0  0  0  0  0  0  0  0  0  0  0
   -7.0120   19.2630  -32.8490 C   0  0  0  0  0  0  0  0  0  0  0  0
   -7.2570   17.9530  -33.3890 N   0  0  0  0  0  0  0  0  0  0  0  0
   -6.1950   16.6050  -33.1340 S   0  0  0  0  0  0  0  0  0  0  0  0
   -6.0390   16.3590  -31.6610 O   0  0  0  0  0  0  0  0  0  0  0  0
   -6.7830   15.3780  -33.7770 O   0  0  0  0  0  0  0  0  0  0  0  0
   -4.6180   16.9550  -33.8210 C   0  0  0  0  0  0  0  0  0  0  0  0
   -3.5710   17.5730  -33.1700 C   0  0  0  0  0  0  0  0  0  0  0  0
   -2.5560   17.6710  -34.1000 C   0  0  0  0  0  0  0  0  0  0  0  0
   -2.9490   17.1430  -35.2750 N   0  0  0  0  0  0  0  0  0  0  0  0
   -4.2110   16.7050  -35.1130 C   0  0  0  0  0  0  0  0  0  0  0  0
   -8.0910   20.0110  -32.3490 C   0  0  0  0  0  0  0  0  0  0  0  0
   -7.8850   21.2810  -31.8010 C   0  0  0  0  0  0  0  0  0  0  0  0
   -6.5960   21.8240  -31.7550 C   0  0  0  0  0  0  0  0  0  0  0  0
   -6.3590   23.0910  -31.2080 C   0  0  0  0  0  0  0  0  0  0  0  0
   -2.0219   23.7871  -30.0545 H   0  0  0  0  0  0  0  0  0  0  0  0
   -1.0109   25.9172  -29.2701 H   0  0  0  0  0  0  0  0  0  0  0  0
   -2.0932   25.8600  -27.8183 H   0  0  0  0  0  0  0  0  0  0  0  0
    0.3171   24.1844  -28.5039 H   0  0  0  0  0  0  0  0  0  0  0  0
   -0.2365   24.9061  -26.9174 H   0  0  0  0  0  0  0  0  0  0  0  0
   -2.9842   22.1021  -26.8246 H   0  0  0  0  0  0  0  0  0  0  0  0
   -2.7917   23.8479  -26.3573 H   0  0  0  0  0  0  0  0  0  0  0  0
   -3.7058   22.6282  -28.9476 H   0  0  0  0  0  0  0  0  0  0  0  0
   -4.2573   24.1255  -28.0560 H   0  0  0  0  0  0  0  0  0  0  0  0
   -2.9897   23.2590  -31.7395 H   0  0  0  0  0  0  0  0  0  0  0  0
   -4.8692   19.2486  -33.2225 H   0  0  0  0  0  0  0  0  0  0  0  0
   -8.1740   17.7560  -33.8510 H   0  0  0  0  0  0  0  0  0  0  0  0
   -3.5494   17.9168  -32.1253 H   0  0  0  0  0  0  0  0  0  0  0  0
   -1.5684   18.1162  -33.9091 H   0  0  0  0  0  0  0  0  0  0  0  0
   -2.3850   17.0930  -36.1520 H   0  0  0  0  0  0  0  0  0  0  0  0
   -4.8219   16.2229  -35.8904 H   0  0  0  0  0  0  0  0  0  0  0  0
   -9.1079   19.5936  -32.3890 H   0  0  0  0  0  0  0  0  0  0  0  0
   -8.7369   21.8537  -31.4057 H   0  0  0  0  0  0  0  0  0  0  0  0
   -7.1956   23.6822  -30.8073 H   0  0  0  0  0  0  0  0  0  0  0  0
  1  2  2  0
  2  3  1  0
  3  4  1  0
  4  5  1  0
  5  6  1  0
  6  7  1  0
  7  8  1  0
  7  9  1  0
  7 10  1  0
 10 11  1  0
  2 12  1  0
 12 13  2  0
 13 14  1  0
 14 15  2  0
 15 16  1  0
 16 17  2  0
 17 18  1  0
 18 19  1  0
 19 20  2  0
 19 21  2  0
 19 22  1  0
 22 23  1  0
 23 24  2  0
 24 25  1  0
 25 26  1  0
 17 27  1  0
 27 28  2  0
 28 29  1  0
 29 30  2  0
 11  4  1  0
 30 12  1  0
 29 15  1  0
 26 22  2  0
  4 31  1  0
  5 32  1  0
  5 33  1  0
  6 34  1  0
  6 35  1  0
 10 36  1  0
 10 37  1  0
 11 38  1  0
 11 39  1  0
 13 40  1  0
 16 41  1  0
 18 42  1  0
 23 43  1  0
 24 44  1  0
 25 45  1  0
 26 46  1  0
 27 47  1  0
 28 48  1  0
 30 49  1  0
M  CHG  1   3  -1
M  END
>  <UniqueID>  (8) 
8

>  <SMILES>  (8) 
O=C([N-]C1CCC(F)(F)CC1)c1cnc2cc(NS(=O)(=O)c3cc[nH]c3)ccc2c1

>  <Energy>  (8) 
89.53399146026358

>  <Genealogy>  (8) 
O=C([N-]C1CCC(F)(F)CC1)c1cnc2cc(NS(=O)(=O)c3cc[nH]c3)ccc2c1 (protonated)
O=C([N-]C1CCC(F)(F)CC1)c1cnc2cc(NS(=O)(=O)c3cc[nH]c3)ccc2c1 (3D coordinates assigned)
O=C([N-]C1CCC(F)(F)CC1)c1cnc2cc(NS(=O)(=O)c3cc[nH]c3)ccc2c1 (nonaromatic ring conformer: 89.53399146026358 kcal/mol)

>  <smiles>  (8) 
O=C(NC1CCC(F)(F)CC1)c1cnc2cc(NS(=O)(=O)c3cc[nH]c3)ccc2c1

>  <score_type>  (8) 
oracle

>  <origin>  (8) 
adgpu

>  <m_score__min__energy>  (8) 
-10.69

>  <m_primary>  (8) 
energy

$$$$
8:0
     RDKit          3D

 72 76  0  0  0  0  0  0  0  0999 V2000
   -4.7080   26.0410  -29.3690 H   0  0  0  0  0  0  0  0  0  0  0  0
   -4.5680   25.5160  -30.2240 O   0  0  0  0  0  0  0  0  0  0  0  0
   -3.6860   24.4390  -30.2960 C   0  0  0  0  0  0  0  0  0  0  0  0
   -4.0820   23.2780  -30.9680 C   0  0  0  0  0  0  0  0  0  0  0  0
   -5.0790   23.2268  -31.4300 H   0  0  0  0  0  0  0  0  0  0  0  0
   -3.2190   22.1830  -31.0560 C   0  0  0  0  0  0  0  0  0  0  0  0
   -3.5363   21.2772  -31.5935 H   0  0  0  0  0  0  0  0  0  0  0  0
   -1.9480   22.2340  -30.4610 C   0  0  0  0  0  0  0  0  0  0  0  0
   -1.0050   21.0670  -30.5820 C   0  0  0  0  0  0  0  0  0  0  0  0
   -1.5502   20.1372  -30.3621 H   0  0  0  0  0  0  0  0  0  0  0  0
   -0.1797   21.2020  -29.8673 H   0  0  0  0  0  0  0  0  0  0  0  0
   -0.4260   20.9880  -31.9950 C   0  0  0  0  0  0  0  0  0  0  0  0
    0.6148   20.6352  -31.9480 H   0  0  0  0  0  0  0  0  0  0  0  0
   -0.4486   21.9835  -32.4625 H   0  0  0  0  0  0  0  0  0  0  0  0
   -1.2220   20.0570  -32.7810 N   0  0  0  0  0  0  0  0  0  0  0  0
   -0.9140   19.0380  -33.5470 C   0  0  0  0  0  0  0  0  0  0  0  0
    0.4220   18.6310  -33.8860 C   0  0  0  0  0  0  0  0  0  0  0  0
    1.8810   19.6490  -33.7490 S   0  0  0  0  0  0  0  0  0  0  0  0
    3.0940   18.9350  -34.2730 O   0  0  0  0  0  0  0  0  0  0  0  0
    2.1010   20.0350  -32.3130 O   0  0  0  0  0  0  0  0  0  0  0  0
    1.7140   21.1550  -34.6590 C   0  0  0  0  0  0  0  0  0  0  0  0
    2.8460   21.9220  -34.9640 C   0  0  0  0  0  0  0  0  0  0  0  0
    3.8426   21.5764  -34.6521 H   0  0  0  0  0  0  0  0  0  0  0  0
    2.7130   23.1260  -35.6640 C   0  0  0  0  0  0  0  0  0  0  0  0
    3.6068   23.7181  -35.9102 H   0  0  0  0  0  0  0  0  0  0  0  0
    1.4450   23.5810  -36.0530 C   0  0  0  0  0  0  0  0  0  0  0  0
    1.3060   24.8540  -36.8350 C   0  0  0  0  0  0  0  0  0  0  0  0
    1.2134   25.7024  -36.1410 H   0  0  0  0  0  0  0  0  0  0  0  0
    2.1942   24.9939  -37.4687 H   0  0  0  0  0  0  0  0  0  0  0  0
    0.4085   24.7989  -37.4687 H   0  0  0  0  0  0  0  0  0  0  0  0
    0.3130   22.8060  -35.7570 C   0  0  0  0  0  0  0  0  0  0  0  0
   -0.6826   23.1461  -36.0781 H   0  0  0  0  0  0  0  0  0  0  0  0
    0.4450   21.6040  -35.0560 C   0  0  0  0  0  0  0  0  0  0  0  0
   -0.4479   21.0085  -34.8149 H   0  0  0  0  0  0  0  0  0  0  0  0
    0.5940   17.3910  -34.5280 C   0  0  0  0  0  0  0  0  0  0  0  0
    1.6119   17.0224  -34.7228 H   0  0  0  0  0  0  0  0  0  0  0  0
   -0.4660   16.6420  -34.9110 N   0  0  0  0  0  0  0  0  0  0  0  0
   -1.7390   17.0390  -34.6940 C   0  0  0  0  0  0  0  0  0  0  0  0
   -2.7910   16.2320  -35.1380 C   0  0  0  0  0  0  0  0  0  0  0  0
   -2.5749   15.2983  -35.6780 H   0  0  0  0  0  0  0  0  0  0  0  0
   -4.1130   16.6060  -34.8990 C   0  0  0  0  0  0  0  0  0  0  0  0
   -4.9358   15.9739  -35.2642 H   0  0  0  0  0  0  0  0  0  0  0  0
   -4.3970   17.7830  -34.1960 C   0  0  0  0  0  0  0  0  0  0  0  0
   -6.0690   18.2220  -33.8400 S   0  0  0  0  0  0  0  0  0  0  0  0
   -6.5040   19.3140  -34.7800 O   0  0  0  0  0  0  0  0  0  0  0  0
   -6.9470   17.0270  -34.0890 O   0  0  0  0  0  0  0  0  0  0  0  0
   -6.2860   18.7570  -32.1860 N   0  0  0  0  0  0  0  0  0  0  0  0
   -7.5640   18.3200  -31.5900 C   0  0  0  0  0  0  0  0  0  0  0  0
   -7.7949   17.3134  -31.9686 H   0  0  0  0  0  0  0  0  0  0  0  0
   -7.4285   18.3440  -30.4986 H   0  0  0  0  0  0  0  0  0  0  0  0
   -8.7590   19.2430  -31.9090 C   0  0  0  0  0  0  0  0  0  0  0  0
   -9.2280   18.8938  -32.8407 H   0  0  0  0  0  0  0  0  0  0  0  0
   -9.4426   19.1913  -31.0488 H   0  0  0  0  0  0  0  0  0  0  0  0
   -8.3700   20.7260  -32.0860 C   0  0  0  0  0  0  0  0  0  0  0  0
   -8.2303   20.9134  -33.1609 H   0  0  0  0  0  0  0  0  0  0  0  0
   -9.4870   21.6540  -31.5900 C   0  0  0  0  0  0  0  0  0  0  0  0
   -9.4961   21.6615  -30.4901 H   0  0  0  0  0  0  0  0  0  0  0  0
   -9.3089   22.6737  -31.9622 H   0  0  0  0  0  0  0  0  0  0  0  0
  -10.4568   21.2920  -31.9622 H   0  0  0  0  0  0  0  0  0  0  0  0
   -7.0500   21.0300  -31.3740 C   0  0  0  0  0  0  0  0  0  0  0  0
   -6.8078   22.0962  -31.4949 H   0  0  0  0  0  0  0  0  0  0  0  0
   -7.1520   20.7899  -30.3054 H   0  0  0  0  0  0  0  0  0  0  0  0
   -5.9210   20.1800  -31.9770 C   0  0  0  0  0  0  0  0  0  0  0  0
   -5.6431   20.6127  -32.9494 H   0  0  0  0  0  0  0  0  0  0  0  0
   -5.0905   20.1941  -31.2558 H   0  0  0  0  0  0  0  0  0  0  0  0
   -3.3450   18.6090  -33.7770 C   0  0  0  0  0  0  0  0  0  0  0  0
   -3.5699   19.5526  -33.2583 H   0  0  0  0  0  0  0  0  0  0  0  0
   -1.9980   18.2460  -34.0120 C   0  0  0  0  0  0  0  0  0  0  0  0
   -1.5450   23.4050  -29.7960 C   0  0  0  0  0  0  0  0  0  0  0  0
   -0.5449   23.4598  -29.3412 H   0  0  0  0  0  0  0  0  0  0  0  0
   -2.4100   24.5010  -29.7100 C   0  0  0  0  0  0  0  0  0  0  0  0
   -1.9960   25.6480  -29.0430 O   0  0  0  0  0  0  0  0  0  0  0  0
  1  2  1  0
  2  3  1  0
  3  4  2  0
  4  5  1  0
  4  6  1  0
  6  7  1  0
  6  8  2  0
  8  9  1  0
  9 10  1  0
  9 11  1  0
  9 12  1  0
 12 13  1  0
 12 14  1  0
 12 15  1  0
 15 16  2  0
 16 17  1  0
 17 18  1  0
 18 19  2  0
 18 20  2  0
 18 21  1  0
 21 22  2  0
 22 23  1  0
 22 24  1  0
 24 25  1  0
 24 26  2  0
 26 27  1  0
 27 28  1  0
 27 29  1  0
 27 30  1  0
 26 31  1  0
 31 32  1  0
 31 33  2  0
 33 34  1  0
 17 35  2  0
 35 36  1  0
 35 37  1  0
 37 38  1  0
 38 39  2  0
 39 40  1  0
 39 41  1  0
 41 42  1  0
 41 43  2  0
 43 44  1  0
 44 45  2  0
 44 46  2  0
 44 47  1  0
 47 48  1  0
 48 49  1  0
 48 50  1  0
 48 51  1  0
 51 52  1  0
 51 53  1  0
 51 54  1  0
 54 55  1  0
 54 56  1  0
 56 57  1  0
 56 58  1  0
 56 59  1  0
 54 60  1  0
 60 61  1  0
 60 62  1  0
 60 63  1  0
 63 64  1  0
 63 65  1  0
 43 66  1  0
 66 67  1  0
 66 68  2  0
  8 69  1  0
 69 70  1  0
 69 71  2  0
 71 72  1  0
 71  3  1  0
 68 16  1  0
 33 21  1  0
 68 38  1  0
 63 47  1  0
M  CHG  2  37  -1  72  -1
M  END
>  <UniqueID>  (9) 
9

>  <SMILES>  (9) 
Cc1ccc(S(=O)(=O)c2c[n-]c3ccc(S(=O)(=O)N4CCC(C)CC4)cc3/c2=N/CCc2ccc(O)c([O-])c2)cc1

>  <Energy>  (9) 
103.26586848850269

>  <Genealogy>  (9) 
Cc1ccc(S(=O)(=O)c2c[n-]c3ccc(S(=O)(=O)N4CCC(C)CC4)cc3c2=NCCc2ccc(O)c([O-])c2)cc1 (protonated)
Cc1ccc(S(=O)(=O)c2c[n-]c3ccc(S(=O)(=O)N4CCC(C)CC4)cc3/c2=N/CCc2ccc(O)c([O-])c2)cc1 (cis-trans isomerization)
Cc1ccc(S(=O)(=O)c2c[n-]c3ccc(S(=O)(=O)N4CCC(C)CC4)cc3/c2=N/CCc2ccc(O)c([O-])c2)cc1 (3D coordinates assigned)
Cc1ccc(S(=O)(=O)c2c[n-]c3ccc(S(=O)(=O)N4CCC(C)CC4)cc3/c2=N/CCc2ccc(O)c([O-])c2)cc1 (nonaromatic ring conformer: 103.26586848850269 kcal/mol)

>  <smiles>  (9) 
Cc1ccc(S(=O)(=O)c2c[nH]c3ccc(S(=O)(=O)N4CCC(C)CC4)cc3c2=NCCc2ccc(O)c(O)c2)cc1

>  <score_type>  (9) 
oracle

>  <origin>  (9) 
adgpu

>  <m_score__min__energy>  (9) 
-14.640000000000001

>  <m_primary>  (9) 
energy

$$$$
9:0
     RDKit          3D

 44 46  0  0  0  0  0  0  0  0999 V2000
    0.8840   20.8950  -36.5710 O   0  0  0  0  0  0  0  0  0  0  0  0
    0.7680   21.6940  -35.5990 C   0  0  0  0  0  0  0  0  0  0  0  0
    0.9890   23.0490  -35.8040 O   0  0  0  0  0  0  0  0  0  0  0  0
    0.3710   21.2020  -34.2620 C   0  0  0  0  0  0  0  0  0  0  0  0
    1.2310   20.3770  -33.5170 C   0  0  0  0  0  0  0  0  0  0  0  0
    0.8350   19.8830  -32.2720 C   0  0  0  0  0  0  0  0  0  0  0  0
   -0.4280   20.1900  -31.7540 C   0  0  0  0  0  0  0  0  0  0  0  0
   -0.7940   19.6550  -30.5140 O   0  0  0  0  0  0  0  0  0  0  0  0
   -1.3060   21.0100  -32.4880 C   0  0  0  0  0  0  0  0  0  0  0  0
   -2.6100   21.2870  -31.9550 N   0  0  0  0  0  0  0  0  0  0  0  0
   -2.9560   22.3330  -30.6060 S   0  0  0  0  0  0  0  0  0  0  0  0
   -1.8450   23.3390  -30.4590 O   0  0  0  0  0  0  0  0  0  0  0  0
   -3.0390   21.5040  -29.3570 O   0  0  0  0  0  0  0  0  0  0  0  0
   -4.5040   23.1440  -30.8300 C   0  0  0  0  0  0  0  0  0  0  0  0
   -5.6510   22.3980  -31.1450 C   0  0  0  0  0  0  0  0  0  0  0  0
   -6.9110   23.0150  -31.1820 C   0  0  0  0  0  0  0  0  0  0  0  0
   -8.3780   22.0910  -31.5010 S   0  0  0  0  0  0  0  0  0  0  0  0
   -9.4260   23.0530  -31.9920 O   0  0  0  0  0  0  0  0  0  0  0  0
   -8.8490   21.4630  -30.2150 O   0  0  0  0  0  0  0  0  0  0  0  0
   -8.1290   20.8470  -32.7140 N   0  0  0  0  0  0  0  0  0  0  0  0
   -6.9610   20.0210  -32.3910 C   0  0  0  0  0  0  0  0  0  0  0  0
   -7.4340   18.8240  -31.5910 C   0  0  0  0  0  0  0  0  0  0  0  0
   -8.9010   18.6770  -31.9330 C   0  0  0  0  0  0  0  0  0  0  0  0
   -9.2670   19.9190  -32.7390 C   0  0  0  0  0  0  0  0  0  0  0  0
   -7.0090   24.3940  -30.9660 C   0  0  0  0  0  0  0  0  0  0  0  0
   -5.8640   25.1490  -30.7080 C   0  0  0  0  0  0  0  0  0  0  0  0
   -4.6130   24.5290  -30.6300 C   0  0  0  0  0  0  0  0  0  0  0  0
   -3.4880   25.2950  -30.3450 O   0  0  0  0  0  0  0  0  0  0  0  0
   -0.8880   21.5340  -33.7280 C   0  0  0  0  0  0  0  0  0  0  0  0
    2.2226   20.1186  -33.9171 H   0  0  0  0  0  0  0  0  0  0  0  0
    1.5218   19.2473  -31.6939 H   0  0  0  0  0  0  0  0  0  0  0  0
   -1.5990   19.9850  -29.9960 H   0  0  0  0  0  0  0  0  0  0  0  0
   -5.5615   21.3238  -31.3641 H   0  0  0  0  0  0  0  0  0  0  0  0
   -6.4772   19.6812  -33.3186 H   0  0  0  0  0  0  0  0  0  0  0  0
   -6.2330   20.6040  -31.8078 H   0  0  0  0  0  0  0  0  0  0  0  0
   -6.8772   17.9208  -31.8814 H   0  0  0  0  0  0  0  0  0  0  0  0
   -7.2738   18.9601  -30.5113 H   0  0  0  0  0  0  0  0  0  0  0  0
   -9.0654   17.7694  -32.5323 H   0  0  0  0  0  0  0  0  0  0  0  0
   -9.5200   18.5848  -31.0284 H   0  0  0  0  0  0  0  0  0  0  0  0
   -9.4899   19.6341  -33.7778 H   0  0  0  0  0  0  0  0  0  0  0  0
  -10.1544   20.4013  -32.3032 H   0  0  0  0  0  0  0  0  0  0  0  0
   -7.9927   24.8851  -30.9997 H   0  0  0  0  0  0  0  0  0  0  0  0
   -5.9459   26.2366  -30.5654 H   0  0  0  0  0  0  0  0  0  0  0  0
   -1.5535   22.2102  -34.2847 H   0  0  0  0  0  0  0  0  0  0  0  0
  1  2  2  0
  2  3  1  0
  2  4  1  0
  4  5  2  0
  5  6  1  0
  6  7  2  0
  7  8  1  0
  7  9  1  0
  9 10  1  0
 10 11  1  0
 11 12  2  0
 11 13  2  0
 11 14  1  0
 14 15  2  0
 15 16  1  0
 16 17  1  0
 17 18  2  0
 17 19  2  0
 17 20  1  0
 20 21  1  0
 21 22  1  0
 22 23  1  0
 23 24  1  0
 16 25  2  0
 25 26  1  0
 26 27  2  0
 27 28  1  0
  9 29  2  0
 29  4  1  0
 27 14  1  0
 24 20  1  0
  5 30  1  0
  6 31  1  0
  8 32  1  0
 15 33  1  0
 21 34  1  0
 21 35  1  0
 22 36  1  0
 22 37  1  0
 23 38  1  0
 23 39  1  0
 24 40  1  0
 24 41  1  0
 25 42  1  0
 26 43  1  0
 29 44  1  0
M  CHG  3   3  -1  10  -1  28  -1
M  END
>  <UniqueID>  (10) 
10

>  <SMILES>  (10) 
O=C([O-])c1ccc(O)c([N-]S(=O)(=O)c2cc(S(=O)(=O)N3CCCC3)ccc2[O-])c1

>  <Energy>  (10) 
52.470687845235084

>  <Genealogy>  (10) 
O=C([O-])c1ccc(O)c([N-]S(=O)(=O)c2cc(S(=O)(=O)N3CCCC3)ccc2[O-])c1 (protonated)
O=C([O-])c1ccc(O)c([N-]S(=O)(=O)c2cc(S(=O)(=O)N3CCCC3)ccc2[O-])c1 (3D coordinates assigned)
O=C([O-])c1ccc(O)c([N-]S(=O)(=O)c2cc(S(=O)(=O)N3CCCC3)ccc2[O-])c1 (nonaromatic ring conformer: 52.470687845235084 kcal/mol)

>  <smiles>  (10) 
O=C(O)c1ccc(O)c(NS(=O)(=O)c2cc(S(=O)(=O)N3CCCC3)ccc2O)c1

>  <score_type>  (10) 
oracle

>  <origin>  (10) 
adgpu

>  <m_score__min__energy>  (10) 
-14.17

>  <m_primary>  (10) 
energy

$$$$
10:0
     RDKit          3D

 51 53  0  0  0  0  0  0  0  0999 V2000
   -0.8360   22.5110  -28.4580 C   0  0  0  0  0  0  0  0  0  0  0  0
   -2.1880   23.1200  -28.6790 C   0  0  0  0  0  0  0  0  0  0  0  0
   -3.3040   22.6290  -27.9880 C   0  0  0  0  0  0  0  0  0  0  0  0
   -4.5750   23.1500  -28.2390 C   0  0  0  0  0  0  0  0  0  0  0  0
   -4.7520   24.1730  -29.1860 C   0  0  0  0  0  0  0  0  0  0  0  0
   -6.1430   24.6760  -29.4720 C   0  0  0  0  0  0  0  0  0  0  0  0
   -6.9700   23.5870  -29.9860 N   0  0  0  0  0  0  0  0  0  0  0  0
   -6.9120   23.1550  -31.3550 C   0  0  0  0  0  0  0  0  0  0  0  0
   -6.1880   23.7780  -32.1780 O   0  0  0  0  0  0  0  0  0  0  0  0
   -7.7110   21.9940  -31.8120 C   0  0  0  0  0  0  0  0  0  0  0  0
   -9.0990   21.9810  -31.5950 C   0  0  0  0  0  0  0  0  0  0  0  0
   -9.8740   20.9080  -32.0360 C   0  0  0  0  0  0  0  0  0  0  0  0
   -9.2590   19.8490  -32.6960 C   0  0  0  0  0  0  0  0  0  0  0  0
   -7.9170   19.8620  -32.9010 N   0  0  0  0  0  0  0  0  0  0  0  0
   -7.1290   20.8910  -32.4820 C   0  0  0  0  0  0  0  0  0  0  0  0
   -5.3590   20.7600  -32.7690 S   0  0  0  0  0  0  0  0  0  0  0  0
   -5.4540   19.0170  -33.1760 C   0  0  0  0  0  0  0  0  0  0  0  0
   -5.6110   18.0680  -32.1610 C   0  0  0  0  0  0  0  0  0  0  0  0
   -5.6890   16.7080  -32.4760 C   0  0  0  0  0  0  0  0  0  0  0  0
   -5.6140   16.2810  -33.8160 C   0  0  0  0  0  0  0  0  0  0  0  0
   -5.6980   14.8100  -34.1770 C   0  0  0  0  0  0  0  0  0  0  0  0
   -7.1500   14.3840  -34.4250 C   0  0  0  0  0  0  0  0  0  0  0  0
   -5.0430   13.9390  -33.0990 C   0  0  0  0  0  0  0  0  0  0  0  0
   -5.4620   17.2450  -34.8290 C   0  0  0  0  0  0  0  0  0  0  0  0
   -5.3840   18.6030  -34.5100 C   0  0  0  0  0  0  0  0  0  0  0  0
   -3.6320   24.6610  -29.8870 C   0  0  0  0  0  0  0  0  0  0  0  0
   -3.7700   25.6660  -30.8390 O   0  0  0  0  0  0  0  0  0  0  0  0
   -2.3610   24.1300  -29.6360 C   0  0  0  0  0  0  0  0  0  0  0  0
   -0.6447   22.4248  -27.3782 H   0  0  0  0  0  0  0  0  0  0  0  0
   -0.8045   21.5118  -28.9168 H   0  0  0  0  0  0  0  0  0  0  0  0
   -0.0668   23.1496  -28.9168 H   0  0  0  0  0  0  0  0  0  0  0  0
   -3.1780   21.8288  -27.2438 H   0  0  0  0  0  0  0  0  0  0  0  0
   -5.4441   22.7567  -27.6914 H   0  0  0  0  0  0  0  0  0  0  0  0
   -6.5879   25.0652  -28.5444 H   0  0  0  0  0  0  0  0  0  0  0  0
   -6.0908   25.4770  -30.2242 H   0  0  0  0  0  0  0  0  0  0  0  0
   -7.5340   23.0390  -29.2980 H   0  0  0  0  0  0  0  0  0  0  0  0
   -9.5781   22.8228  -31.0737 H   0  0  0  0  0  0  0  0  0  0  0  0
  -10.9604   20.8994  -31.8636 H   0  0  0  0  0  0  0  0  0  0  0  0
   -9.8609   19.0000  -33.0522 H   0  0  0  0  0  0  0  0  0  0  0  0
   -5.6733   18.3924  -31.1118 H   0  0  0  0  0  0  0  0  0  0  0  0
   -5.8097   15.9669  -31.6722 H   0  0  0  0  0  0  0  0  0  0  0  0
   -5.1403   14.6614  -35.1134 H   0  0  0  0  0  0  0  0  0  0  0  0
   -7.6581   14.2349  -33.4609 H   0  0  0  0  0  0  0  0  0  0  0  0
   -7.6696   15.1676  -34.9960 H   0  0  0  0  0  0  0  0  0  0  0  0
   -7.1639   13.4439  -34.9960 H   0  0  0  0  0  0  0  0  0  0  0  0
   -5.3247   14.3136  -32.1038 H   0  0  0  0  0  0  0  0  0  0  0  0
   -5.3850   12.8994  -33.2098 H   0  0  0  0  0  0  0  0  0  0  0  0
   -3.9493   13.9790  -33.2098 H   0  0  0  0  0  0  0  0  0  0  0  0
   -5.4041   16.9272  -35.8805 H   0  0  0  0  0  0  0  0  0  0  0  0
   -5.2672   19.3486  -35.3103 H   0  0  0  0  0  0  0  0  0  0  0  0
   -1.4916   24.5081  -30.1938 H   0  0  0  0  0  0  0  0  0  0  0  0
  1  2  1  0
  2  3  2  0
  3  4  1  0
  4  5  2  0
  5  6  1  0
  6  7  1  0
  7  8  1  0
  8  9  2  0
  8 10  1  0
 10 11  2  0
 11 12  1  0
 12 13  2  0
 13 14  1  0
 14 15  2  0
 15 16  1  0
 16 17  1  0
 17 18  2  0
 18 19  1  0
 19 20  2  0
 20 21  1  0
 21 22  1  0
 21 23  1  0
 20 24  1  0
 24 25  2  0
  5 26  1  0
 26 27  1  0
 26 28  2  0
 28  2  1  0
 15 10  1  0
 25 17  1  0
  1 29  1  0
  1 30  1  0
  1 31  1  0
  3 32  1  0
  4 33  1  0
  6 34  1  0
  6 35  1  0
  7 36  1  0
 11 37  1  0
 12 38  1  0
 13 39  1  0
 18 40  1  0
 19 41  1  0
 21 42  1  0
 22 43  1  0
 22 44  1  0
 22 45  1  0
 23 46  1  0
 23 47  1  0
 23 48  1  0
 24 49  1  0
 25 50  1  0
 28 51  1  0
M  CHG  1  27  -1
M  END
>  <UniqueID>  (11) 
11

>  <SMILES>  (11) 
Cc1ccc(CNC(=O)c2cccnc2Sc2ccc(C(C)C)cc2)c([O-])c1

>  <Energy>  (11) 
44.83638561017165

>  <Genealogy>  (11) 
Cc1ccc(CNC(=O)c2cccnc2Sc2ccc(C(C)C)cc2)c([O-])c1 (protonated)
Cc1ccc(CNC(=O)c2cccnc2Sc2ccc(C(C)C)cc2)c([O-])c1 (3D coordinates assigned)
Cc1ccc(CNC(=O)c2cccnc2Sc2ccc(C(C)C)cc2)c([O-])c1 (optimized conformer: 44.83638561017165 kcal/mol)

>  <smiles>  (11) 
Cc1ccc(CNC(=O)c2cccnc2Sc2ccc(C(C)C)cc2)c(O)c1

>  <score_type>  (11) 
oracle

>  <origin>  (11) 
adgpu

>  <m_score__min__energy>  (11) 
-12.619999999999999

>  <m_primary>  (11) 
energy

$$$$
11:0
     RDKit          3D

 51 54  0  0  0  0  0  0  0  0999 V2000
   -6.2071   25.0820  -31.3252 H   0  0  0  0  0  0  0  0  0  0  0  0
   -6.0520   23.9930  -31.3210 C   0  0  0  0  0  0  0  0  0  0  0  0
   -7.1010   23.1390  -31.6720 C   0  0  0  0  0  0  0  0  0  0  0  0
   -8.0712   23.5588  -31.9760 H   0  0  0  0  0  0  0  0  0  0  0  0
   -6.9210   21.7480  -31.6380 C   0  0  0  0  0  0  0  0  0  0  0  0
   -8.2530   20.6680  -32.0580 S   0  0  0  0  0  0  0  0  0  0  0  0
   -9.3790   21.4760  -32.6430 O   0  0  0  0  0  0  0  0  0  0  0  0
   -8.7600   20.0000  -30.8120 O   0  0  0  0  0  0  0  0  0  0  0  0
   -7.7530   19.4470  -33.2060 N   0  0  0  0  0  0  0  0  0  0  0  0
   -7.7530   18.0930  -32.6000 C   0  0  0  0  0  0  0  0  0  0  0  0
   -8.3506   18.1219  -31.6769 H   0  0  0  0  0  0  0  0  0  0  0  0
   -8.1771   17.4001  -33.3416 H   0  0  0  0  0  0  0  0  0  0  0  0
   -6.3430   17.5910  -32.2550 C   0  0  0  0  0  0  0  0  0  0  0  0
   -5.8941   18.2653  -31.5108 H   0  0  0  0  0  0  0  0  0  0  0  0
   -6.4250   16.5701  -31.8536 H   0  0  0  0  0  0  0  0  0  0  0  0
   -5.4460   17.5530  -33.5030 C   0  0  0  0  0  0  0  0  0  0  0  0
   -4.4016   17.6985  -33.1899 H   0  0  0  0  0  0  0  0  0  0  0  0
   -5.5939   16.5768  -33.9880 H   0  0  0  0  0  0  0  0  0  0  0  0
   -5.8080   18.6410  -34.5300 C   0  0  0  0  0  0  0  0  0  0  0  0
   -4.8903   18.9809  -35.0322 H   0  0  0  0  0  0  0  0  0  0  0  0
   -6.5116   18.2134  -35.2595 H   0  0  0  0  0  0  0  0  0  0  0  0
   -6.4790   19.8380  -33.8500 C   0  0  0  0  0  0  0  0  0  0  0  0
   -5.8000   20.2421  -33.0847 H   0  0  0  0  0  0  0  0  0  0  0  0
   -6.6964   20.5958  -34.6172 H   0  0  0  0  0  0  0  0  0  0  0  0
   -5.6790   21.2230  -31.2530 C   0  0  0  0  0  0  0  0  0  0  0  0
   -5.5296   20.1335  -31.2260 H   0  0  0  0  0  0  0  0  0  0  0  0
   -4.6290   22.0790  -30.9030 C   0  0  0  0  0  0  0  0  0  0  0  0
   -3.6648   21.6598  -30.5795 H   0  0  0  0  0  0  0  0  0  0  0  0
   -4.8010   23.4660  -30.9630 C   0  0  0  0  0  0  0  0  0  0  0  0
   -3.7370   24.3280  -30.5360 N   0  0  0  0  0  0  0  0  0  0  0  0
   -3.2850   24.5220  -29.3270 C   0  0  0  0  0  0  0  0  0  0  0  0
   -2.1750   25.2970  -29.1830 N   0  0  0  0  0  0  0  0  0  0  0  0
   -1.6260   25.5530  -27.9680 C   0  0  0  0  0  0  0  0  0  0  0  0
   -0.4770   26.3440  -27.8560 C   0  0  0  0  0  0  0  0  0  0  0  0
   -0.0109   26.7680  -28.7577 H   0  0  0  0  0  0  0  0  0  0  0  0
    0.0800   26.5960  -26.5940 C   0  0  0  0  0  0  0  0  0  0  0  0
    1.5360   27.5750  -26.4510 S   0  0  0  0  0  0  0  0  0  0  0  0
    2.6740   26.9010  -27.1660 O   0  0  0  0  0  0  0  0  0  0  0  0
    1.3070   28.9240  -27.0740 O   0  0  0  0  0  0  0  0  0  0  0  0
    1.9480   27.7740  -24.7330 C   0  0  0  0  0  0  0  0  0  0  0  0
    1.1306   27.3792  -24.1118 H   0  0  0  0  0  0  0  0  0  0  0  0
    2.8748   27.2242  -24.5121 H   0  0  0  0  0  0  0  0  0  0  0  0
    2.0935   28.8417  -24.5121 H   0  0  0  0  0  0  0  0  0  0  0  0
   -0.5120   26.0430  -25.4480 C   0  0  0  0  0  0  0  0  0  0  0  0
   -0.0700   26.2314  -24.4585 H   0  0  0  0  0  0  0  0  0  0  0  0
   -1.6620   25.2530  -25.5580 C   0  0  0  0  0  0  0  0  0  0  0  0
   -2.1257   24.8259  -24.6566 H   0  0  0  0  0  0  0  0  0  0  0  0
   -2.2200   25.0080  -26.8160 C   0  0  0  0  0  0  0  0  0  0  0  0
   -3.3420   24.2540  -26.9420 N   0  0  0  0  0  0  0  0  0  0  0  0
   -3.8990   24.0020  -28.1560 C   0  0  0  0  0  0  0  0  0  0  0  0
   -4.9690   23.3390  -28.2030 O   0  0  0  0  0  0  0  0  0  0  0  0
  1  2  1  0
  2  3  2  0
  3  4  1  0
  3  5  1  0
  5  6  1  0
  6  7  2  0
  6  8  2  0
  6  9  1  0
  9 10  1  0
 10 11  1  0
 10 12  1  0
 10 13  1  0
 13 14  1  0
 13 15  1  0
 13 16  1  0
 16 17  1  0
 16 18  1  0
 16 19  1  0
 19 20  1  0
 19 21  1  0
 19 22  1  0
 22 23  1  0
 22 24  1  0
  5 25  2  0
 25 26  1  0
 25 27  1  0
 27 28  1  0
 27 29  2  0
 29 30  1  0
 30 31  2  0
 31 32  1  0
 32 33  1  0
 33 34  2  0
 34 35  1  0
 34 36  1  0
 36 37  1  0
 37 38  2  0
 37 39  2  0
 37 40  1  0
 40 41  1  0
 40 42  1  0
 40 43  1  0
 36 44  2  0
 44 45  1  0
 44 46  1  0
 46 47  1  0
 46 48  2  0
 48 49  1  0
 49 50  1  0
 50 51  2  0
 29  2  1  0
 50 31  1  0
 22  9  1  0
 48 33  1  0
M  CHG  2  32  -1  49  -1
M  END
>  <UniqueID>  (12) 
12

>  <SMILES>  (12) 
CS(=O)(=O)c1ccc2[n-]c(=O)/c(=N\c3ccc(S(=O)(=O)N4CCCCC4)cc3)[n-]c2c1

>  <Energy>  (12) 
73.26298492666564

>  <Genealogy>  (12) 
CS(=O)(=O)c1ccc2[n-]c(=O)c(=Nc3ccc(S(=O)(=O)N4CCCCC4)cc3)[n-]c2c1 (protonated)
CS(=O)(=O)c1ccc2[n-]c(=O)/c(=N\c3ccc(S(=O)(=O)N4CCCCC4)cc3)[n-]c2c1 (cis-trans isomerization)
CS(=O)(=O)c1ccc2[n-]c(=O)/c(=N\c3ccc(S(=O)(=O)N4CCCCC4)cc3)[n-]c2c1 (3D coordinates assigned)
CS(=O)(=O)c1ccc2[n-]c(=O)/c(=N\c3ccc(S(=O)(=O)N4CCCCC4)cc3)[n-]c2c1 (nonaromatic ring conformer: 73.26298492666564 kcal/mol)

>  <smiles>  (12) 
CS(=O)(=O)c1ccc2[nH]c(=O)c(=Nc3ccc(S(=O)(=O)N4CCCCC4)cc3)[nH]c2c1

>  <score_type>  (12) 
oracle

>  <origin>  (12) 
adgpu

>  <m_score__min__energy>  (12) 
-11.68

>  <m_primary>  (12) 
energy

$$$$
12:0
     RDKit          3D

 47 50  0  0  0  0  0  0  0  0999 V2000
    0.5910   22.3740  -25.8690 O   0  0  0  0  0  0  0  0  0  0  0  0
   -0.4480   22.1010  -26.5270 C   0  0  0  0  0  0  0  0  0  0  0  0
   -1.1540   20.8600  -26.4150 N   0  0  0  0  0  0  0  0  0  0  0  0
   -2.2190   21.0080  -27.3600 C   0  0  0  0  0  0  0  0  0  0  0  0
   -3.0880   20.1210  -27.5760 O   0  0  0  0  0  0  0  0  0  0  0  0
   -2.1560   22.3050  -28.0230 C   0  0  0  0  0  0  0  0  0  0  0  0
   -2.9660   22.8730  -29.0050 C   0  0  0  0  0  0  0  0  0  0  0  0
   -2.6720   24.1810  -29.4430 C   0  0  0  0  0  0  0  0  0  0  0  0
   -3.5080   24.7730  -30.4420 N   0  0  0  0  0  0  0  0  0  0  0  0
   -5.2340   24.8910  -30.2900 S   0  0  0  0  0  0  0  0  0  0  0  0
   -5.7310   25.9970  -31.1790 O   0  0  0  0  0  0  0  0  0  0  0  0
   -5.6150   25.2060  -28.8670 O   0  0  0  0  0  0  0  0  0  0  0  0
   -5.9630   23.3750  -30.8140 C   0  0  0  0  0  0  0  0  0  0  0  0
   -5.5630   22.7630  -32.0110 C   0  0  0  0  0  0  0  0  0  0  0  0
   -6.2140   21.6120  -32.4640 C   0  0  0  0  0  0  0  0  0  0  0  0
   -7.2760   21.0660  -31.7260 C   0  0  0  0  0  0  0  0  0  0  0  0
   -8.1730   19.6800  -32.3490 S   0  0  0  0  0  0  0  0  0  0  0  0
   -9.0350   19.1120  -31.2550 O   0  0  0  0  0  0  0  0  0  0  0  0
   -9.0730   20.1320  -33.4650 O   0  0  0  0  0  0  0  0  0  0  0  0
   -7.0910   18.4430  -32.9510 N   0  0  0  0  0  0  0  0  0  0  0  0
   -6.2930   17.8710  -31.8420 C   0  0  0  0  0  0  0  0  0  0  0  0
   -5.0580   17.1310  -32.3670 C   0  0  0  0  0  0  0  0  0  0  0  0
   -4.1100   18.0980  -33.0970 C   0  0  0  0  0  0  0  0  0  0  0  0
   -4.8460   19.2990  -33.7170 C   0  0  0  0  0  0  0  0  0  0  0  0
   -6.2900   18.9310  -34.1030 C   0  0  0  0  0  0  0  0  0  0  0  0
   -7.6520   21.6610  -30.5110 C   0  0  0  0  0  0  0  0  0  0  0  0
   -7.0020   22.8140  -30.0610 C   0  0  0  0  0  0  0  0  0  0  0  0
   -1.5540   24.8720  -28.9000 C   0  0  0  0  0  0  0  0  0  0  0  0
   -1.2150   26.1410  -29.3500 O   0  0  0  0  0  0  0  0  0  0  0  0
   -0.7520   24.2640  -27.9170 C   0  0  0  0  0  0  0  0  0  0  0  0
   -1.0780   22.9780  -27.5050 C   0  0  0  0  0  0  0  0  0  0  0  0
   -3.8140   22.3146  -29.4281 H   0  0  0  0  0  0  0  0  0  0  0  0
   -4.7345   23.1901  -32.5950 H   0  0  0  0  0  0  0  0  0  0  0  0
   -5.8934   21.1330  -33.4009 H   0  0  0  0  0  0  0  0  0  0  0  0
   -5.9672   18.6853  -31.1782 H   0  0  0  0  0  0  0  0  0  0  0  0
   -6.9223   17.1520  -31.2970 H   0  0  0  0  0  0  0  0  0  0  0  0
   -4.5248   16.6738  -31.5205 H   0  0  0  0  0  0  0  0  0  0  0  0
   -5.3863   16.3570  -33.0763 H   0  0  0  0  0  0  0  0  0  0  0  0
   -3.3682   18.4738  -32.3769 H   0  0  0  0  0  0  0  0  0  0  0  0
   -3.6352   17.5404  -33.9178 H   0  0  0  0  0  0  0  0  0  0  0  0
   -4.8687   20.1213  -32.9867 H   0  0  0  0  0  0  0  0  0  0  0  0
   -4.3095   19.6026  -34.6281 H   0  0  0  0  0  0  0  0  0  0  0  0
   -6.7805   19.8238  -34.5182 H   0  0  0  0  0  0  0  0  0  0  0  0
   -6.2368   18.1137  -34.8373 H   0  0  0  0  0  0  0  0  0  0  0  0
   -8.4608   21.2183  -29.9111 H   0  0  0  0  0  0  0  0  0  0  0  0
   -7.3073   23.2816  -29.1133 H   0  0  0  0  0  0  0  0  0  0  0  0
    0.1107   24.7931  -27.4859 H   0  0  0  0  0  0  0  0  0  0  0  0
  1  2  2  0
  2  3  1  0
  3  4  1  0
  4  5  2  0
  4  6  1  0
  6  7  2  0
  7  8  1  0
  8  9  1  0
  9 10  1  0
 10 11  2  0
 10 12  2  0
 10 13  1  0
 13 14  2  0
 14 15  1  0
 15 16  2  0
 16 17  1  0
 17 18  2  0
 17 19  2  0
 17 20  1  0
 20 21  1  0
 21 22  1  0
 22 23  1  0
 23 24  1  0
 24 25  1  0
 16 26  1  0
 26 27  2  0
  8 28  2  0
 28 29  1  0
 28 30  1  0
 30 31  2  0
 31  2  1  0
 31  6  1  0
 27 13  1  0
 25 20  1  0
  7 32  1  0
 14 33  1  0
 15 34  1  0
 21 35  1  0
 21 36  1  0
 22 37  1  0
 22 38  1  0
 23 39  1  0
 23 40  1  0
 24 41  1  0
 24 42  1  0
 25 43  1  0
 25 44  1  0
 26 45  1  0
 27 46  1  0
 30 47  1  0
M  CHG  3   3  -1   9  -1  29  -1
M  END
>  <UniqueID>  (13) 
13

>  <SMILES>  (13) 
O=C1[N-]C(=O)c2cc([N-]S(=O)(=O)c3ccc(S(=O)(=O)N4CCCCC4)cc3)c([O-])cc21

>  <Energy>  (13) 
89.74552685210766

>  <Genealogy>  (13) 
O=C1[N-]C(=O)c2cc([N-]S(=O)(=O)c3ccc(S(=O)(=O)N4CCCCC4)cc3)c([O-])cc21 (protonated)
O=C1[N-]C(=O)c2cc([N-]S(=O)(=O)c3ccc(S(=O)(=O)N4CCCCC4)cc3)c([O-])cc21 (3D coordinates assigned)
O=C1[N-]C(=O)c2cc([N-]S(=O)(=O)c3ccc(S(=O)(=O)N4CCCCC4)cc3)c([O-])cc21 (nonaromatic ring conformer: 89.74552685210766 kcal/mol)

>  <smiles>  (13) 
O=C1NC(=O)c2cc(NS(=O)(=O)c3ccc(S(=O)(=O)N4CCCCC4)cc3)c(O)cc21

>  <score_type>  (13) 
oracle

>  <origin>  (13) 
adgpu

>  <m_score__min__energy>  (13) 
-15.73

>  <m_primary>  (13) 
energy

$$$$
13:0
     RDKit          3D

 47 49  0  0  1  0  0  0  0  0999 V2000
   -8.3180   22.3090  -30.4520 C   0  0  0  0  0  0  0  0  0  0  0  0
   -8.8360   21.8140  -31.7860 C   0  0  0  0  0  0  0  0  0  0  0  0
   -8.2630   20.4700  -32.1160 C   0  0  0  0  0  0  0  0  0  0  0  0
   -8.6640   19.4180  -31.3200 C   0  0  0  0  0  0  0  0  0  0  0  0
   -8.1440   18.1740  -31.6130 C   0  0  0  0  0  0  0  0  0  0  0  0
   -7.2600   18.0380  -32.6730 C   0  0  0  0  0  0  0  0  0  0  0  0
   -6.8660   19.0960  -33.4620 C   0  0  0  0  0  0  0  0  0  0  0  0
   -5.9160   18.9520  -34.6010 C   0  0  0  0  0  0  0  0  0  0  0  0
   -4.6140   18.6140  -34.1350 N   0  0  0  0  0  0  0  0  0  0  0  0
   -3.9100   19.3160  -33.3470 C   0  0  0  0  0  0  0  0  0  0  0  0
   -4.3820   20.5280  -32.8550 C   0  0  0  0  0  0  0  0  0  0  0  0
   -3.6190   21.2790  -32.0070 C   0  0  0  0  0  0  0  0  0  0  0  0
   -4.0720   22.5540  -31.4670 C   0  0  0  0  0  0  0  0  0  0  0  0
   -5.3250   23.0730  -31.7060 C   0  0  0  0  0  0  0  0  0  0  0  0
   -5.7520   24.2880  -31.1890 C   0  0  0  0  0  0  0  0  0  0  0  0
   -4.9190   25.0350  -30.4010 C   0  0  0  0  0  0  0  0  0  0  0  0
   -3.6630   24.5400  -30.1460 C   0  0  0  0  0  0  0  0  0  0  0  0
   -2.8090   25.2970  -29.3440 O   0  0  0  0  0  0  0  0  0  0  0  0
   -2.2650   24.7400  -28.1810 C   0  0  0  0  0  0  0  0  0  0  0  0
   -3.2380   23.3210  -30.6660 C   0  0  0  0  0  0  0  0  0  0  0  0
   -2.4000   20.7760  -31.6840 N   0  0  0  0  0  0  0  0  0  0  0  0
   -1.9580   19.5970  -32.1710 C   0  0  0  0  0  0  0  0  0  0  0  0
   -0.6140   19.0750  -31.7940 C   0  0  0  0  0  0  0  0  0  0  0  0
   -2.7000   18.8700  -32.9950 N   0  0  0  0  0  0  0  0  0  0  0  0
   -7.4090   20.3050  -33.1310 N   0  0  0  0  0  0  0  0  0  0  0  0
   -8.8531   21.7976  -29.6383 H   0  0  0  0  0  0  0  0  0  0  0  0
   -7.2418   22.0951  -30.3743 H   0  0  0  0  0  0  0  0  0  0  0  0
   -8.4828   23.3938  -30.3743 H   0  0  0  0  0  0  0  0  0  0  0  0
   -9.9324   21.7369  -31.7406 H   0  0  0  0  0  0  0  0  0  0  0  0
   -8.5332   22.5268  -32.5672 H   0  0  0  0  0  0  0  0  0  0  0  0
   -9.3679   19.5641  -30.4875 H   0  0  0  0  0  0  0  0  0  0  0  0
   -8.4280   17.2980  -31.0113 H   0  0  0  0  0  0  0  0  0  0  0  0
   -6.8550   17.0394  -32.8937 H   0  0  0  0  0  0  0  0  0  0  0  0
   -6.2758   18.1584  -35.2723 H   0  0  0  0  0  0  0  0  0  0  0  0
   -5.8603   19.9112  -35.1365 H   0  0  0  0  0  0  0  0  0  0  0  0
   -5.3792   20.8852  -33.1516 H   0  0  0  0  0  0  0  0  0  0  0  0
   -6.0196   22.4978  -32.3359 H   0  0  0  0  0  0  0  0  0  0  0  0
   -6.7652   24.6525  -31.4137 H   0  0  0  0  0  0  0  0  0  0  0  0
   -5.2444   26.0001  -29.9854 H   0  0  0  0  0  0  0  0  0  0  0  0
   -2.7246   25.2106  -27.2994 H   0  0  0  0  0  0  0  0  0  0  0  0
   -2.4639   23.6583  -28.1648 H   0  0  0  0  0  0  0  0  0  0  0  0
   -1.1789   24.9133  -28.1648 H   0  0  0  0  0  0  0  0  0  0  0  0
   -2.2243   22.9596  -30.4383 H   0  0  0  0  0  0  0  0  0  0  0  0
   -1.7380   21.2690  -31.0430 H   0  0  0  0  0  0  0  0  0  0  0  0
   -0.5279   19.0416  -30.6979 H   0  0  0  0  0  0  0  0  0  0  0  0
   -0.4862   18.0619  -32.2029 H   0  0  0  0  0  0  0  0  0  0  0  0
    0.1641   19.7363  -32.2029 H   0  0  0  0  0  0  0  0  0  0  0  0
  1  2  1  0
  2  3  1  0
  3  4  2  0
  4  5  1  0
  5  6  2  0
  6  7  1  0
  7  8  1  0
  8  9  1  0
  9 10  2  0
 10 11  1  0
 11 12  2  0
 12 13  1  0
 13 14  2  0
 14 15  1  0
 15 16  2  0
 16 17  1  0
 17 18  1  0
 18 19  1  0
 17 20  2  0
 12 21  1  0
 21 22  1  0
 22 23  1  0
 22 24  2  0
  7 25  2  0
 25  3  1  0
 24 10  1  0
 20 13  1  0
  1 26  1  0
  1 27  1  0
  1 28  1  0
  2 29  1  0
  2 30  1  0
  4 31  1  0
  5 32  1  0
  6 33  1  0
  8 34  1  0
  8 35  1  0
 11 36  1  0
 14 37  1  0
 15 38  1  0
 16 39  1  0
 19 40  1  0
 19 41  1  0
 19 42  1  0
 20 43  1  0
 21 44  1  0
 23 45  1  0
 23 46  1  0
 23 47  1  0
M  END
>  <smiles>  (14) 
CCc1cccc(CN=c2cc(-c3cccc(OC)c3)[nH]c(C)n2)n1

>  <score_type>  (14) 
oracle

>  <origin>  (14) 
adgpu

>  <m_score__min__energy>  (14) 
-8.8599999999999994

>  <m_primary>  (14) 
energy

$$$$
14:0
     RDKit          3D

 67 71  0  0  0  0  0  0  0  0999 V2000
   -7.6070   23.0320  -31.9840 C   0  0  0  0  0  0  0  0  0  0  0  0
   -7.0200   23.0980  -30.5740 C   0  0  0  0  0  0  0  0  0  0  0  0
   -6.8540   24.5440  -30.0700 C   0  0  0  0  0  0  0  0  0  0  0  0
   -5.3960   24.9290  -29.7780 C   0  0  0  0  0  0  0  0  0  0  0  0
   -4.4330   23.8510  -30.2010 C   0  0  0  0  0  0  0  0  0  0  0  0
   -4.2410   23.5340  -31.5090 N   0  0  0  0  0  0  0  0  0  0  0  0
   -3.2900   22.5830  -31.4560 C   0  0  0  0  0  0  0  0  0  0  0  0
   -2.7040   21.9140  -32.5290 C   0  0  0  0  0  0  0  0  0  0  0  0
   -1.6860   20.9790  -32.2480 C   0  0  0  0  0  0  0  0  0  0  0  0
   -0.9480   20.0580  -33.5570 S   0  0  0  0  0  0  0  0  0  0  0  0
   -1.1950   20.7620  -34.8610 O   0  0  0  0  0  0  0  0  0  0  0  0
    0.5360   19.9450  -33.3550 O   0  0  0  0  0  0  0  0  0  0  0  0
   -1.6810   18.4880  -33.6210 N   0  0  0  0  0  0  0  0  0  0  0  0
   -3.0830   18.2530  -33.4520 C   0  0  0  0  0  0  0  0  0  0  0  0
   -4.0320   19.2620  -33.7020 C   0  0  0  0  0  0  0  0  0  0  0  0
   -5.4000   18.9990  -33.5430 C   0  0  0  0  0  0  0  0  0  0  0  0
   -5.8290   17.7270  -33.1490 C   0  0  0  0  0  0  0  0  0  0  0  0
   -4.8850   16.7200  -32.8950 C   0  0  0  0  0  0  0  0  0  0  0  0
   -3.5150   16.9840  -33.0330 C   0  0  0  0  0  0  0  0  0  0  0  0
   -2.5770   15.9830  -32.7690 O   0  0  0  0  0  0  0  0  0  0  0  0
   -7.3100   17.4330  -33.1200 C   0  0  0  0  0  0  0  0  0  0  0  0
   -8.1480   18.5810  -32.6640 N   0  0  0  0  0  0  0  0  0  0  0  0
   -8.7380   18.3200  -31.3400 C   0  0  0  0  0  0  0  0  0  0  0  0
   -7.5060   19.9220  -32.6890 C   0  0  0  0  0  0  0  0  0  0  0  0
   -6.4390   20.0470  -33.7820 C   0  0  0  0  0  0  0  0  0  0  0  0
   -1.2940   20.7420  -30.9080 C   0  0  0  0  0  0  0  0  0  0  0  0
   -1.9160   21.4250  -29.8470 C   0  0  0  0  0  0  0  0  0  0  0  0
   -2.9220   22.3410  -30.1650 C   0  0  0  0  0  0  0  0  0  0  0  0
   -3.6460   23.1310  -29.3500 N   0  0  0  0  0  0  0  0  0  0  0  0
   -3.5680   23.2230  -27.8890 C   0  0  0  0  0  0  0  0  0  0  0  0
   -2.6480   24.3410  -27.4680 C   0  0  0  0  0  0  0  0  0  0  0  0
   -1.5240   24.6710  -28.2460 C   0  0  0  0  0  0  0  0  0  0  0  0
   -0.6560   25.6880  -27.8350 C   0  0  0  0  0  0  0  0  0  0  0  0
   -0.8940   26.3690  -26.6400 C   0  0  0  0  0  0  0  0  0  0  0  0
   -1.9970   26.0350  -25.8530 C   0  0  0  0  0  0  0  0  0  0  0  0
   -2.8730   25.0270  -26.2620 C   0  0  0  0  0  0  0  0  0  0  0  0
   -8.6983   22.9093  -31.9215 H   0  0  0  0  0  0  0  0  0  0  0  0
   -7.3729   23.9621  -32.5226 H   0  0  0  0  0  0  0  0  0  0  0  0
   -7.1722   22.1771  -32.5226 H   0  0  0  0  0  0  0  0  0  0  0  0
   -7.6904   22.5602  -29.8875 H   0  0  0  0  0  0  0  0  0  0  0  0
   -6.0208   22.6392  -30.6067 H   0  0  0  0  0  0  0  0  0  0  0  0
   -7.2473   25.2272  -30.8372 H   0  0  0  0  0  0  0  0  0  0  0  0
   -7.4045   24.6203  -29.1207 H   0  0  0  0  0  0  0  0  0  0  0  0
   -5.1565   25.8535  -30.3239 H   0  0  0  0  0  0  0  0  0  0  0  0
   -5.2926   25.0704  -28.6920 H   0  0  0  0  0  0  0  0  0  0  0  0
   -3.0253   22.1090  -33.5628 H   0  0  0  0  0  0  0  0  0  0  0  0
   -3.6993   20.2601  -34.0232 H   0  0  0  0  0  0  0  0  0  0  0  0
   -5.2215   15.7192  -32.5863 H   0  0  0  0  0  0  0  0  0  0  0  0
   -1.5830   16.1380  -32.9070 H   0  0  0  0  0  0  0  0  0  0  0  0
   -7.6274   17.1550  -34.1359 H   0  0  0  0  0  0  0  0  0  0  0  0
   -7.4592   16.6214  -32.3927 H   0  0  0  0  0  0  0  0  0  0  0  0
   -8.0323   18.6322  -30.5561 H   0  0  0  0  0  0  0  0  0  0  0  0
   -9.6745   18.8878  -31.2375 H   0  0  0  0  0  0  0  0  0  0  0  0
   -8.9478   17.2451  -31.2375 H   0  0  0  0  0  0  0  0  0  0  0  0
   -8.2825   20.6806  -32.8669 H   0  0  0  0  0  0  0  0  0  0  0  0
   -7.0074   20.0696  -31.7197 H   0  0  0  0  0  0  0  0  0  0  0  0
   -6.8987   19.8970  -34.7700 H   0  0  0  0  0  0  0  0  0  0  0  0
   -5.9826   21.0475  -33.7546 H   0  0  0  0  0  0  0  0  0  0  0  0
   -0.4951   20.0166  -30.6946 H   0  0  0  0  0  0  0  0  0  0  0  0
   -1.6205   21.2441  -28.8030 H   0  0  0  0  0  0  0  0  0  0  0  0
   -4.5737   23.4133  -27.4860 H   0  0  0  0  0  0  0  0  0  0  0  0
   -3.1702   22.2748  -27.4982 H   0  0  0  0  0  0  0  0  0  0  0  0
   -1.3266   24.1272  -29.1816 H   0  0  0  0  0  0  0  0  0  0  0  0
    0.2145   25.9512  -28.4538 H   0  0  0  0  0  0  0  0  0  0  0  0
   -0.2116   27.1696  -26.3184 H   0  0  0  0  0  0  0  0  0  0  0  0
   -2.1771   26.5674  -24.9074 H   0  0  0  0  0  0  0  0  0  0  0  0
   -3.7417   24.7692  -25.6384 H   0  0  0  0  0  0  0  0  0  0  0  0
  1  2  1  0
  2  3  1  0
  3  4  1  0
  4  5  1  0
  5  6  2  0
  6  7  1  0
  7  8  2  0
  8  9  1  0
  9 10  1  0
 10 11  2  0
 10 12  2  0
 10 13  1  0
 13 14  1  0
 14 15  2  0
 15 16  1  0
 16 17  2  0
 17 18  1  0
 18 19  2  0
 19 20  1  0
 17 21  1  0
 21 22  1  0
 22 23  1  0
 22 24  1  0
 24 25  1  0
  9 26  2  0
 26 27  1  0
 27 28  2  0
 28 29  1  0
 29 30  1  0
 30 31  1  0
 31 32  2  0
 32 33  1  0
 33 34  2  0
 34 35  1  0
 35 36  2  0
 29  5  1  0
 36 31  1  0
 28  7  1  0
 19 14  1  0
 25 16  1  0
  1 37  1  0
  1 38  1  0
  1 39  1  0
  2 40  1  0
  2 41  1  0
  3 42  1  0
  3 43  1  0
  4 44  1  0
  4 45  1  0
  8 46  1  0
 15 47  1  0
 18 48  1  0
 20 49  1  0
 21 50  1  0
 21 51  1  0
 23 52  1  0
 23 53  1  0
 23 54  1  0
 24 55  1  0
 24 56  1  0
 25 57  1  0
 25 58  1  0
 26 59  1  0
 27 60  1  0
 30 61  1  0
 30 62  1  0
 32 63  1  0
 33 64  1  0
 34 65  1  0
 35 66  1  0
 36 67  1  0
M  CHG  1  13  -1
M  END
>  <UniqueID>  (15) 
14

>  <SMILES>  (15) 
CCCCc1nc2cc(S(=O)(=O)[N-]c3cc4c(cc3O)CN(C)CC4)ccc2n1Cc1ccccc1

>  <Energy>  (15) 
117.84750538392244

>  <Genealogy>  (15) 
CCCCc1nc2cc(S(=O)(=O)[N-]c3cc4c(cc3O)CN(C)CC4)ccc2n1Cc1ccccc1 (protonated)
CCCCc1nc2cc(S(=O)(=O)[N-]c3cc4c(cc3O)CN(C)CC4)ccc2n1Cc1ccccc1 (3D coordinates assigned)
CCCCc1nc2cc(S(=O)(=O)[N-]c3cc4c(cc3O)CN(C)CC4)ccc2n1Cc1ccccc1 (nonaromatic ring conformer: 117.84750538392244 kcal/mol)

>  <smiles>  (15) 
CCCCc1nc2cc(S(=O)(=O)Nc3cc4c(cc3O)CN(C)CC4)ccc2n1Cc1ccccc1

>  <score_type>  (15) 
oracle

>  <origin>  (15) 
adgpu

>  <m_score__min__energy>  (15) 
-12.119999999999999

>  <m_primary>  (15) 
energy

$$$$
15:0
     RDKit          3D

 48 50  0  0  0  0  0  0  0  0999 V2000
   -8.4230   23.4140  -32.2680 C   0  0  0  0  0  0  0  0  0  0  0  0
   -7.0090   23.5320  -32.3870 O   0  0  0  0  0  0  0  0  0  0  0  0
   -6.1170   23.5850  -31.3030 C   0  0  0  0  0  0  0  0  0  0  0  0
   -6.0730   24.6960  -30.4380 C   0  0  0  0  0  0  0  0  0  0  0  0
   -5.1720   24.7310  -29.3740 C   0  0  0  0  0  0  0  0  0  0  0  0
   -4.3030   23.6590  -29.1480 C   0  0  0  0  0  0  0  0  0  0  0  0
   -3.3680   23.7230  -28.0560 N   0  0  0  0  0  0  0  0  0  0  0  0
   -2.3380   24.7200  -27.9450 C   0  0  0  0  0  0  0  0  0  0  0  0
   -1.9690   25.3580  -28.9680 O   0  0  0  0  0  0  0  0  0  0  0  0
   -1.7030   24.9930  -26.6300 C   0  0  0  0  0  0  0  0  0  0  0  0
   -1.9250   26.2440  -26.0250 C   0  0  0  0  0  0  0  0  0  0  0  0
   -1.3240   26.5650  -24.8070 C   0  0  0  0  0  0  0  0  0  0  0  0
   -0.4920   25.6450  -24.1740 C   0  0  0  0  0  0  0  0  0  0  0  0
   -0.2620   24.3960  -24.7540 C   0  0  0  0  0  0  0  0  0  0  0  0
   -0.8680   24.0480  -25.9740 C   0  0  0  0  0  0  0  0  0  0  0  0
   -0.6080   22.6770  -26.5420 C   0  0  0  0  0  0  0  0  0  0  0  0
   -4.3240   22.5630  -30.0230 C   0  0  0  0  0  0  0  0  0  0  0  0
   -5.2390   22.5020  -31.0860 C   0  0  0  0  0  0  0  0  0  0  0  0
   -5.2840   21.1070  -32.1920 S   0  0  0  0  0  0  0  0  0  0  0  0
   -4.5070   19.9860  -31.5610 O   0  0  0  0  0  0  0  0  0  0  0  0
   -4.5980   21.5030  -33.4710 O   0  0  0  0  0  0  0  0  0  0  0  0
   -6.8740   20.5120  -32.6190 N   0  0  0  0  0  0  0  0  0  0  0  0
   -6.8480   19.2130  -33.2970 C   0  0  0  0  0  0  0  0  0  0  0  0
   -7.9450   18.3450  -32.6890 C   0  0  0  0  0  0  0  0  0  0  0  0
   -8.7080   19.2500  -31.7420 C   0  0  0  0  0  0  0  0  0  0  0  0
   -7.7750   20.4150  -31.4690 C   0  0  0  0  0  0  0  0  0  0  0  0
   -8.7007   23.3908  -31.2039 H   0  0  0  0  0  0  0  0  0  0  0  0
   -8.9050   24.2750  -32.7541 H   0  0  0  0  0  0  0  0  0  0  0  0
   -8.7556   22.4850  -32.7541 H   0  0  0  0  0  0  0  0  0  0  0  0
   -6.7550   25.5431  -30.6031 H   0  0  0  0  0  0  0  0  0  0  0  0
   -5.1448   25.6067  -28.7089 H   0  0  0  0  0  0  0  0  0  0  0  0
   -3.3860   22.9560  -27.3460 H   0  0  0  0  0  0  0  0  0  0  0  0
   -2.5800   26.9775  -26.5179 H   0  0  0  0  0  0  0  0  0  0  0  0
   -1.5079   27.5467  -24.3461 H   0  0  0  0  0  0  0  0  0  0  0  0
   -0.0157   25.9025  -23.2165 H   0  0  0  0  0  0  0  0  0  0  0  0
    0.4006   23.6763  -24.2509 H   0  0  0  0  0  0  0  0  0  0  0  0
   -0.4719   21.9592  -25.7197 H   0  0  0  0  0  0  0  0  0  0  0  0
   -1.4636   22.3681  -27.1605 H   0  0  0  0  0  0  0  0  0  0  0  0
    0.3013   22.7027  -27.1605 H   0  0  0  0  0  0  0  0  0  0  0  0
   -3.6120   21.7379  -29.8739 H   0  0  0  0  0  0  0  0  0  0  0  0
   -7.0323   19.3492  -34.3729 H   0  0  0  0  0  0  0  0  0  0  0  0
   -5.8659   18.7341  -33.1702 H   0  0  0  0  0  0  0  0  0  0  0  0
   -8.6124   17.9636  -33.4759 H   0  0  0  0  0  0  0  0  0  0  0  0
   -7.5281   17.4710  -32.1671 H   0  0  0  0  0  0  0  0  0  0  0  0
   -9.6386   19.6024  -32.2108 H   0  0  0  0  0  0  0  0  0  0  0  0
   -8.9969   18.7286  -30.8175 H   0  0  0  0  0  0  0  0  0  0  0  0
   -8.3520   21.3452  -31.3602 H   0  0  0  0  0  0  0  0  0  0  0  0
   -7.2114   20.2601  -30.5372 H   0  0  0  0  0  0  0  0  0  0  0  0
  1  2  1  0
  2  3  1  0
  3  4  2  0
  4  5  1  0
  5  6  2  0
  6  7  1  0
  7  8  1  0
  8  9  2  0
  8 10  1  0
 10 11  2  0
 11 12  1  0
 12 13  2  0
 13 14  1  0
 14 15  2  0
 15 16  1  0
  6 17  1  0
 17 18  2  0
 18 19  1  0
 19 20  2  0
 19 21  2  0
 19 22  1  0
 22 23  1  0
 23 24  1  0
 24 25  1  0
 25 26  1  0
 18  3  1  0
 26 22  1  0
 15 10  1  0
  1 27  1  0
  1 28  1  0
  1 29  1  0
  4 30  1  0
  5 31  1  0
  7 32  1  0
 11 33  1  0
 12 34  1  0
 13 35  1  0
 14 36  1  0
 16 37  1  0
 16 38  1  0
 16 39  1  0
 17 40  1  0
 23 41  1  0
 23 42  1  0
 24 43  1  0
 24 44  1  0
 25 45  1  0
 25 46  1  0
 26 47  1  0
 26 48  1  0
M  END
>  <UniqueID>  (16) 
15

>  <SMILES>  (16) 
COc1ccc(NC(=O)c2ccccc2C)cc1S(=O)(=O)N1CCCC1

>  <Energy>  (16) 
60.72766319941745

>  <Genealogy>  (16) 
COc1ccc(NC(=O)c2ccccc2C)cc1S(=O)(=O)N1CCCC1 (3D coordinates assigned)
COc1ccc(NC(=O)c2ccccc2C)cc1S(=O)(=O)N1CCCC1 (nonaromatic ring conformer: 60.72766319941745 kcal/mol)

>  <smiles>  (16) 
COc1ccc(NC(=O)c2ccccc2C)cc1S(=O)(=O)N1CCCC1

>  <score_type>  (16) 
oracle

>  <origin>  (16) 
adgpu

>  <m_score__min__energy>  (16) 
-8.7599999999999998

>  <m_primary>  (16) 
energy

$$$$
16:0
     RDKit          3D

 45 47  0  0  0  0  0  0  0  0999 V2000
   -4.1832   16.4167  -34.6436 H   0  0  0  0  0  0  0  0  0  0  0  0
   -4.6010   17.3580  -34.2570 C   0  0  0  0  0  0  0  0  0  0  0  0
   -5.9710   17.4650  -34.0120 C   0  0  0  0  0  0  0  0  0  0  0  0
   -6.6303   16.6027  -34.1901 H   0  0  0  0  0  0  0  0  0  0  0  0
   -6.5050   18.6660  -33.5410 C   0  0  0  0  0  0  0  0  0  0  0  0
   -7.5826   18.7386  -33.3325 H   0  0  0  0  0  0  0  0  0  0  0  0
   -5.6790   19.7820  -33.3310 C   0  0  0  0  0  0  0  0  0  0  0  0
   -6.2730   21.0050  -32.8640 N   0  0  0  0  0  0  0  0  0  0  0  0
   -5.8240   21.9000  -33.1620 H   0  0  0  0  0  0  0  0  0  0  0  0
   -7.2040   21.0510  -31.7710 C   0  0  0  0  0  0  0  0  0  0  0  0
   -7.6080   19.9880  -31.2260 O   0  0  0  0  0  0  0  0  0  0  0  0
   -7.6530   22.3710  -31.2190 C   0  0  0  0  0  0  0  0  0  0  0  0
   -7.2309   22.5022  -30.2117 H   0  0  0  0  0  0  0  0  0  0  0  0
   -8.7523   22.3793  -31.1797 H   0  0  0  0  0  0  0  0  0  0  0  0
   -7.0970   23.7490  -32.2850 S   0  0  0  0  0  0  0  0  0  0  0  0
   -5.5660   24.0230  -31.3980 C   0  0  0  0  0  0  0  0  0  0  0  0
   -5.0360   25.2440  -31.1700 N   0  0  0  0  0  0  0  0  0  0  0  0
   -3.8680   25.1970  -30.5300 N   0  0  0  0  0  0  0  0  0  0  0  0
   -3.4630   23.9390  -30.2460 C   0  0  0  0  0  0  0  0  0  0  0  0
   -2.3170   23.7010  -29.6740 N   0  0  0  0  0  0  0  0  0  0  0  0
   -1.7040   22.4420  -29.3520 C   0  0  0  0  0  0  0  0  0  0  0  0
   -1.2430   21.6130  -30.3110 N   0  0  0  0  0  0  0  0  0  0  0  0
   -0.7460   20.4500  -29.8030 C   0  0  0  0  0  0  0  0  0  0  0  0
   -0.1990   19.3900  -30.7050 C   0  0  0  0  0  0  0  0  0  0  0  0
    0.2220   18.5742  -30.0989 H   0  0  0  0  0  0  0  0  0  0  0  0
   -1.0064   18.9962  -31.3398 H   0  0  0  0  0  0  0  0  0  0  0  0
    0.5898   19.8199  -31.3398 H   0  0  0  0  0  0  0  0  0  0  0  0
   -0.8140   20.3470  -28.4070 C   0  0  0  0  0  0  0  0  0  0  0  0
   -0.3960   19.2180  -27.5590 C   0  0  0  0  0  0  0  0  0  0  0  0
    0.8030   18.8270  -27.5970 O   0  0  0  0  0  0  0  0  0  0  0  0
   -1.3180   18.5810  -26.7210 O   0  0  0  0  0  0  0  0  0  0  0  0
   -2.3450   19.2710  -26.0120 C   0  0  0  0  0  0  0  0  0  0  0  0
   -2.3649   20.3220  -26.3360 H   0  0  0  0  0  0  0  0  0  0  0  0
   -2.1351   19.2098  -24.9339 H   0  0  0  0  0  0  0  0  0  0  0  0
   -3.7040   18.6360  -26.2860 C   0  0  0  0  0  0  0  0  0  0  0  0
   -4.1996   18.4044  -25.3317 H   0  0  0  0  0  0  0  0  0  0  0  0
   -4.3266   19.3365  -26.8620 H   0  0  0  0  0  0  0  0  0  0  0  0
   -3.5662   17.7091  -26.8620 H   0  0  0  0  0  0  0  0  0  0  0  0
   -1.5100   21.7620  -27.8210 S   0  0  0  0  0  0  0  0  0  0  0  0
   -4.5900   22.8000  -30.7840 S   0  0  0  0  0  0  0  0  0  0  0  0
   -4.2860   19.6570  -33.5390 C   0  0  0  0  0  0  0  0  0  0  0  0
   -3.3790   20.7310  -33.2120 C   0  0  0  0  0  0  0  0  0  0  0  0
   -2.6490   21.5900  -32.9510 N   0  0  0  0  0  0  0  0  0  0  0  0
   -3.7600   18.4470  -34.0110 C   0  0  0  0  0  0  0  0  0  0  0  0
   -2.6785   18.3536  -34.1890 H   0  0  0  0  0  0  0  0  0  0  0  0
  1  2  1  0
  2  3  2  0
  3  4  1  0
  3  5  1  0
  5  6  1  0
  5  7  2  0
  7  8  1  0
  8  9  1  0
  8 10  1  0
 10 11  2  0
 10 12  1  0
 12 13  1  0
 12 14  1  0
 12 15  1  0
 15 16  1  0
 16 17  2  0
 17 18  1  0
 18 19  1  0
 19 20  2  0
 20 21  1  0
 21 22  2  0
 22 23  1  0
 23 24  1  0
 24 25  1  0
 24 26  1  0
 24 27  1  0
 23 28  2  0
 28 29  1  0
 29 30  2  0
 29 31  1  0
 31 32  1  0
 32 33  1  0
 32 34  1  0
 32 35  1  0
 35 36  1  0
 35 37  1  0
 35 38  1  0
 28 39  1  0
 19 40  1  0
  7 41  1  0
 41 42  1  0
 42 43  3  0
 41 44  2  0
 44 45  1  0
 44  2  1  0
 40 16  1  0
 39 21  1  0
M  CHG  1  18  -1
M  END
>  <UniqueID>  (17) 
16

>  <SMILES>  (17) 
CCOC(=O)c1sc(/N=c2/[n-]nc(SCC(=O)Nc3ccccc3C#N)s2)nc1C

>  <Energy>  (17) 
109.07411043052848

>  <Genealogy>  (17) 
CCOC(=O)c1sc(N=c2[n-]nc(SCC(=O)Nc3ccccc3C#N)s2)nc1C (protonated)
CCOC(=O)c1sc(/N=c2/[n-]nc(SCC(=O)Nc3ccccc3C#N)s2)nc1C (cis-trans isomerization)
CCOC(=O)c1sc(/N=c2/[n-]nc(SCC(=O)Nc3ccccc3C#N)s2)nc1C (3D coordinates assigned)
CCOC(=O)c1sc(/N=c2/[n-]nc(SCC(=O)Nc3ccccc3C#N)s2)nc1C (optimized conformer: 109.07411043052848 kcal/mol)

>  <smiles>  (17) 
CCOC(=O)c1sc(N=c2[nH]nc(SCC(=O)Nc3ccccc3C#N)s2)nc1C

>  <score_type>  (17) 
oracle

>  <origin>  (17) 
adgpu

>  <m_score__min__energy>  (17) 
-10.68

>  <m_primary>  (17) 
energy

$$$$
17:0
     RDKit          3D

 55 58  0  0  0  0  0  0  0  0999 V2000
   -3.8760   21.0440  -31.0290 C   0  0  0  0  0  0  0  0  0  0  0  0
   -2.5630   21.1200  -31.7320 C   0  0  0  0  0  0  0  0  0  0  0  0
   -1.3160   21.0970  -31.1150 C   0  0  0  0  0  0  0  0  0  0  0  0
   -0.2530   21.1380  -32.0240 C   0  0  0  0  0  0  0  0  0  0  0  0
   -0.6720   21.1730  -33.3450 C   0  0  0  0  0  0  0  0  0  0  0  0
    0.3850   21.2990  -34.7370 S   0  0  0  0  0  0  0  0  0  0  0  0
    1.8100   21.0590  -34.3270 O   0  0  0  0  0  0  0  0  0  0  0  0
    0.2670   22.6760  -35.3220 O   0  0  0  0  0  0  0  0  0  0  0  0
   -0.0980   20.1250  -35.9150 N   0  0  0  0  0  0  0  0  0  0  0  0
    0.2540   18.7520  -35.7500 C   0  0  0  0  0  0  0  0  0  0  0  0
   -0.7120   17.8470  -35.2950 C   0  0  0  0  0  0  0  0  0  0  0  0
   -0.3700   16.5060  -35.0430 C   0  0  0  0  0  0  0  0  0  0  0  0
   -1.3860   15.5570  -34.5310 C   0  0  0  0  0  0  0  0  0  0  0  0
   -1.0560   14.3690  -34.2740 O   0  0  0  0  0  0  0  0  0  0  0  0
   -2.7400   15.9750  -34.3010 N   0  0  0  0  0  0  0  0  0  0  0  0
   -3.4170   15.5570  -33.0650 C   0  0  0  0  0  0  0  0  0  0  0  0
   -4.7450   16.3050  -32.8720 C   0  0  0  0  0  0  0  0  0  0  0  0
   -4.5910   17.7690  -33.3200 C   0  0  0  0  0  0  0  0  0  0  0  0
   -5.8140   18.5930  -32.9640 C   0  0  0  0  0  0  0  0  0  0  0  0
   -5.9070   19.9510  -33.3270 C   0  0  0  0  0  0  0  0  0  0  0  0
   -7.0410   20.6980  -32.9940 C   0  0  0  0  0  0  0  0  0  0  0  0
   -8.0960   20.1010  -32.2960 C   0  0  0  0  0  0  0  0  0  0  0  0
   -9.2640   20.8710  -31.9560 C   0  0  0  0  0  0  0  0  0  0  0  0
  -10.2030   21.4890  -31.6820 N   0  0  0  0  0  0  0  0  0  0  0  0
   -8.0130   18.7520  -31.9310 C   0  0  0  0  0  0  0  0  0  0  0  0
   -6.8790   18.0030  -32.2620 C   0  0  0  0  0  0  0  0  0  0  0  0
   -4.2580   17.8670  -34.8290 C   0  0  0  0  0  0  0  0  0  0  0  0
   -3.5030   16.6400  -35.3660 C   0  0  0  0  0  0  0  0  0  0  0  0
    0.9430   16.0750  -35.2970 C   0  0  0  0  0  0  0  0  0  0  0  0
    1.9040   16.9740  -35.7630 C   0  0  0  0  0  0  0  0  0  0  0  0
    1.5680   18.3140  -35.9850 C   0  0  0  0  0  0  0  0  0  0  0  0
    2.5310   19.2110  -36.4460 O   0  0  0  0  0  0  0  0  0  0  0  0
   -2.3530   21.1730  -33.4010 S   0  0  0  0  0  0  0  0  0  0  0  0
   -3.7108   21.0536  -29.9415 H   0  0  0  0  0  0  0  0  0  0  0  0
   -4.4948   21.9078  -31.3135 H   0  0  0  0  0  0  0  0  0  0  0  0
   -4.3910   20.1145  -31.3135 H   0  0  0  0  0  0  0  0  0  0  0  0
   -1.1798   21.0513  -30.0244 H   0  0  0  0  0  0  0  0  0  0  0  0
    0.8047   21.1420  -31.7219 H   0  0  0  0  0  0  0  0  0  0  0  0
   -1.7457   18.1867  -35.1334 H   0  0  0  0  0  0  0  0  0  0  0  0
   -3.6188   14.4768  -33.1153 H   0  0  0  0  0  0  0  0  0  0  0  0
   -2.7605   15.7925  -32.2144 H   0  0  0  0  0  0  0  0  0  0  0  0
   -5.5277   15.8198  -33.4736 H   0  0  0  0  0  0  0  0  0  0  0  0
   -5.0241   16.2791  -31.8083 H   0  0  0  0  0  0  0  0  0  0  0  0
   -3.7399   18.1938  -32.7675 H   0  0  0  0  0  0  0  0  0  0  0  0
   -5.0815   20.4271  -33.8764 H   0  0  0  0  0  0  0  0  0  0  0  0
   -7.1037   21.7579  -33.2816 H   0  0  0  0  0  0  0  0  0  0  0  0
   -8.8415   18.2800  -31.3826 H   0  0  0  0  0  0  0  0  0  0  0  0
   -6.8203   16.9439  -31.9706 H   0  0  0  0  0  0  0  0  0  0  0  0
   -5.1995   17.9700  -35.3884 H   0  0  0  0  0  0  0  0  0  0  0  0
   -3.5998   18.7383  -34.9615 H   0  0  0  0  0  0  0  0  0  0  0  0
   -4.2289   15.9277  -35.7852 H   0  0  0  0  0  0  0  0  0  0  0  0
   -2.7978   16.9773  -36.1399 H   0  0  0  0  0  0  0  0  0  0  0  0
    1.2154   15.0228  -35.1276 H   0  0  0  0  0  0  0  0  0  0  0  0
    2.9299   16.6274  -35.9565 H   0  0  0  0  0  0  0  0  0  0  0  0
    2.4910   20.1970  -36.2130 H   0  0  0  0  0  0  0  0  0  0  0  0
  1  2  1  0
  2  3  2  0
  3  4  1  0
  4  5  2  0
  5  6  1  0
  6  7  2  0
  6  8  2  0
  6  9  1  0
  9 10  1  0
 10 11  2  0
 11 12  1  0
 12 13  1  0
 13 14  2  0
 13 15  1  0
 15 16  1  0
 16 17  1  0
 17 18  1  0
 18 19  1  0
 19 20  2  0
 20 21  1  0
 21 22  2  0
 22 23  1  0
 23 24  3  0
 22 25  1  0
 25 26  2  0
 18 27  1  0
 27 28  1  0
 12 29  2  0
 29 30  1  0
 30 31  2  0
 31 32  1  0
  5 33  1  0
 33  2  1  0
 31 10  1  0
 28 15  1  0
 26 19  1  0
  1 34  1  0
  1 35  1  0
  1 36  1  0
  3 37  1  0
  4 38  1  0
 11 39  1  0
 16 40  1  0
 16 41  1  0
 17 42  1  0
 17 43  1  0
 18 44  1  0
 20 45  1  0
 21 46  1  0
 25 47  1  0
 26 48  1  0
 27 49  1  0
 27 50  1  0
 28 51  1  0
 28 52  1  0
 29 53  1  0
 30 54  1  0
 32 55  1  0
M  CHG  1   9  -1
M  END
>  <UniqueID>  (18) 
17

>  <SMILES>  (18) 
Cc1ccc(S(=O)(=O)[N-]c2cc(C(=O)N3CCC(c4ccc(C#N)cc4)CC3)ccc2O)s1

>  <Energy>  (18) 
98.15204787121598

>  <Genealogy>  (18) 
Cc1ccc(S(=O)(=O)[N-]c2cc(C(=O)N3CCC(c4ccc(C#N)cc4)CC3)ccc2O)s1 (protonated)
Cc1ccc(S(=O)(=O)[N-]c2cc(C(=O)N3CCC(c4ccc(C#N)cc4)CC3)ccc2O)s1 (3D coordinates assigned)
Cc1ccc(S(=O)(=O)[N-]c2cc(C(=O)N3CCC(c4ccc(C#N)cc4)CC3)ccc2O)s1 (nonaromatic ring conformer: 98.15204787121598 kcal/mol)

>  <smiles>  (18) 
Cc1ccc(S(=O)(=O)Nc2cc(C(=O)N3CCC(c4ccc(C#N)cc4)CC3)ccc2O)s1

>  <score_type>  (18) 
oracle

>  <origin>  (18) 
adgpu

>  <m_score__min__energy>  (18) 
-10.91

>  <m_primary>  (18) 
energy

$$$$
18:0
     RDKit          3D

 55 58  0  0  0  0  0  0  0  0999 V2000
    0.5980   22.0900  -27.7310 C   0  0  0  0  0  0  0  0  0  0  0  0
   -0.4260   22.2300  -28.8180 C   0  0  0  0  0  0  0  0  0  0  0  0
   -0.7190   21.1380  -29.5750 N   0  0  0  0  0  0  0  0  0  0  0  0
   -1.6510   21.1770  -30.5610 C   0  0  0  0  0  0  0  0  0  0  0  0
   -1.9270   20.0420  -31.3290 C   0  0  0  0  0  0  0  0  0  0  0  0
   -2.8970   20.0930  -32.3490 C   0  0  0  0  0  0  0  0  0  0  0  0
   -3.2010   18.9020  -33.1790 C   0  0  0  0  0  0  0  0  0  0  0  0
   -2.6320   18.7700  -34.2970 O   0  0  0  0  0  0  0  0  0  0  0  0
   -4.1410   17.9070  -32.7380 N   0  0  0  0  0  0  0  0  0  0  0  0
   -4.3860   16.6770  -33.4880 C   0  0  0  0  0  0  0  0  0  0  0  0
   -5.7950   16.6890  -34.0880 C   0  0  0  0  0  0  0  0  0  0  0  0
   -6.6180   17.7940  -33.4840 C   0  0  0  0  0  0  0  0  0  0  0  0
   -7.5030   17.5220  -32.4270 C   0  0  0  0  0  0  0  0  0  0  0  0
   -8.2440   18.5550  -31.8440 C   0  0  0  0  0  0  0  0  0  0  0  0
   -8.1000   19.8660  -32.3050 C   0  0  0  0  0  0  0  0  0  0  0  0
   -7.2130   20.1470  -33.3470 C   0  0  0  0  0  0  0  0  0  0  0  0
   -6.4690   19.1170  -33.9330 C   0  0  0  0  0  0  0  0  0  0  0  0
   -3.5660   21.3080  -32.5950 C   0  0  0  0  0  0  0  0  0  0  0  0
   -3.2900   22.4430  -31.8260 C   0  0  0  0  0  0  0  0  0  0  0  0
   -2.3360   22.3800  -30.8080 C   0  0  0  0  0  0  0  0  0  0  0  0
   -2.0560   23.4720  -30.0520 N   0  0  0  0  0  0  0  0  0  0  0  0
   -1.1270   23.4360  -29.0580 C   0  0  0  0  0  0  0  0  0  0  0  0
   -0.8320   24.9170  -28.1460 S   0  0  0  0  0  0  0  0  0  0  0  0
   -1.2370   26.1210  -28.9500 O   0  0  0  0  0  0  0  0  0  0  0  0
    0.6390   25.0170  -27.8480 O   0  0  0  0  0  0  0  0  0  0  0  0
   -1.7330   24.8610  -26.6060 C   0  0  0  0  0  0  0  0  0  0  0  0
   -1.1980   25.8890  -25.6490 C   0  0  0  0  0  0  0  0  0  0  0  0
   -0.8360   25.5200  -24.3420 C   0  0  0  0  0  0  0  0  0  0  0  0
   -0.3080   26.4710  -23.4630 C   0  0  0  0  0  0  0  0  0  0  0  0
   -0.1300   27.7920  -23.8850 C   0  0  0  0  0  0  0  0  0  0  0  0
   -0.4760   28.1640  -25.1870 C   0  0  0  0  0  0  0  0  0  0  0  0
   -1.0050   27.2150  -26.0680 C   0  0  0  0  0  0  0  0  0  0  0  0
    0.1037   22.1576  -26.7507 H   0  0  0  0  0  0  0  0  0  0  0  0
    1.0990   21.1150  -27.8226 H   0  0  0  0  0  0  0  0  0  0  0  0
    1.3423   22.8947  -27.8226 H   0  0  0  0  0  0  0  0  0  0  0  0
   -1.3842   19.1049  -31.1359 H   0  0  0  0  0  0  0  0  0  0  0  0
   -4.6900   18.0580  -31.8630 H   0  0  0  0  0  0  0  0  0  0  0  0
   -3.6475   16.5938  -34.2990 H   0  0  0  0  0  0  0  0  0  0  0  0
   -4.2962   15.8191  -32.8054 H   0  0  0  0  0  0  0  0  0  0  0  0
   -5.7239   16.8437  -35.1747 H   0  0  0  0  0  0  0  0  0  0  0  0
   -6.2808   15.7261  -33.8719 H   0  0  0  0  0  0  0  0  0  0  0  0
   -7.6135   16.4922  -32.0565 H   0  0  0  0  0  0  0  0  0  0  0  0
   -8.9408   18.3351  -31.0218 H   0  0  0  0  0  0  0  0  0  0  0  0
   -8.6853   20.6772  -31.8473 H   0  0  0  0  0  0  0  0  0  0  0  0
   -7.0992   21.1800  -33.7075 H   0  0  0  0  0  0  0  0  0  0  0  0
   -5.7654   19.3437  -34.7476 H   0  0  0  0  0  0  0  0  0  0  0  0
   -4.3132   21.3646  -33.4003 H   0  0  0  0  0  0  0  0  0  0  0  0
   -3.8238   23.3845  -32.0228 H   0  0  0  0  0  0  0  0  0  0  0  0
   -2.7962   25.0652  -26.8004 H   0  0  0  0  0  0  0  0  0  0  0  0
   -1.6157   23.8625  -26.1598 H   0  0  0  0  0  0  0  0  0  0  0  0
   -0.9684   24.4799  -24.0094 H   0  0  0  0  0  0  0  0  0  0  0  0
   -0.0325   26.1795  -22.4387 H   0  0  0  0  0  0  0  0  0  0  0  0
    0.2828   28.5394  -23.1915 H   0  0  0  0  0  0  0  0  0  0  0  0
   -0.3323   29.2029  -25.5189 H   0  0  0  0  0  0  0  0  0  0  0  0
   -1.2711   27.5090  -27.0940 H   0  0  0  0  0  0  0  0  0  0  0  0
  1  2  1  0
  2  3  2  0
  3  4  1  0
  4  5  2  0
  5  6  1  0
  6  7  1  0
  7  8  2  0
  7  9  1  0
  9 10  1  0
 10 11  1  0
 11 12  1  0
 12 13  2  0
 13 14  1  0
 14 15  2  0
 15 16  1  0
 16 17  2  0
  6 18  2  0
 18 19  1  0
 19 20  2  0
 20 21  1  0
 21 22  2  0
 22 23  1  0
 23 24  2  0
 23 25  2  0
 23 26  1  0
 26 27  1  0
 27 28  2  0
 28 29  1  0
 29 30  2  0
 30 31  1  0
 31 32  2  0
 22  2  1  0
 32 27  1  0
 20  4  1  0
 17 12  1  0
  1 33  1  0
  1 34  1  0
  1 35  1  0
  5 36  1  0
  9 37  1  0
 10 38  1  0
 10 39  1  0
 11 40  1  0
 11 41  1  0
 13 42  1  0
 14 43  1  0
 15 44  1  0
 16 45  1  0
 17 46  1  0
 18 47  1  0
 19 48  1  0
 26 49  1  0
 26 50  1  0
 28 51  1  0
 29 52  1  0
 30 53  1  0
 31 54  1  0
 32 55  1  0
M  END
>  <UniqueID>  (19) 
18

>  <SMILES>  (19) 
Cc1nc2cc(C(=O)NCCc3ccccc3)ccc2nc1S(=O)(=O)Cc1ccccc1

>  <Energy>  (19) 
58.39107657618888

>  <Genealogy>  (19) 
Cc1nc2cc(C(=O)NCCc3ccccc3)ccc2nc1S(=O)(=O)Cc1ccccc1 (3D coordinates assigned)
Cc1nc2cc(C(=O)NCCc3ccccc3)ccc2nc1S(=O)(=O)Cc1ccccc1 (optimized conformer: 58.39107657618888 kcal/mol)

>  <smiles>  (19) 
Cc1nc2cc(C(=O)NCCc3ccccc3)ccc2nc1S(=O)(=O)Cc1ccccc1

>  <score_type>  (19) 
oracle

>  <origin>  (19) 
adgpu

>  <m_score__min__energy>  (19) 
-10.699999999999999

>  <m_primary>  (19) 
energy

$$$$
19:0
     RDKit          3D

 54 57  0  0  0  0  0  0  0  0999 V2000
   -2.2920   19.7990  -26.4510 C   0  0  0  0  0  0  0  0  0  0  0  0
   -1.6130   19.7710  -27.7580 N   0  0  0  0  0  0  0  0  0  0  0  0
   -0.2010   20.1910  -27.6760 C   0  0  0  0  0  0  0  0  0  0  0  0
   -0.0530   21.6640  -27.2680 C   0  0  0  0  0  0  0  0  0  0  0  0
   -0.9990   22.5580  -28.0260 C   0  0  0  0  0  0  0  0  0  0  0  0
   -0.7950   23.9440  -28.0100 C   0  0  0  0  0  0  0  0  0  0  0  0
   -1.6480   24.8000  -28.7110 C   0  0  0  0  0  0  0  0  0  0  0  0
   -1.3850   26.1680  -28.7000 O   0  0  0  0  0  0  0  0  0  0  0  0
   -2.7340   24.2730  -29.4310 C   0  0  0  0  0  0  0  0  0  0  0  0
   -3.5390   25.1370  -30.2400 N   0  0  0  0  0  0  0  0  0  0  0  0
   -5.2720   25.1310  -30.2280 S   0  0  0  0  0  0  0  0  0  0  0  0
   -5.7580   25.4770  -28.8510 O   0  0  0  0  0  0  0  0  0  0  0  0
   -5.7780   26.1500  -31.2030 O   0  0  0  0  0  0  0  0  0  0  0  0
   -5.8510   23.5400  -30.7150 C   0  0  0  0  0  0  0  0  0  0  0  0
   -7.0060   23.0180  -30.1200 C   0  0  0  0  0  0  0  0  0  0  0  0
   -7.5710   21.8340  -30.5940 C   0  0  0  0  0  0  0  0  0  0  0  0
   -6.9820   21.1540  -31.6660 C   0  0  0  0  0  0  0  0  0  0  0  0
   -7.7390   19.6970  -32.3170 S   0  0  0  0  0  0  0  0  0  0  0  0
   -8.5350   19.0260  -31.2310 O   0  0  0  0  0  0  0  0  0  0  0  0
   -8.6940   20.0930  -33.4120 O   0  0  0  0  0  0  0  0  0  0  0  0
   -6.5820   18.5550  -32.9570 N   0  0  0  0  0  0  0  0  0  0  0  0
   -7.1690   17.2340  -33.1500 C   0  0  0  0  0  0  0  0  0  0  0  0
   -6.2780   16.5330  -34.1560 C   0  0  0  0  0  0  0  0  0  0  0  0
   -5.6590   17.6570  -34.9720 C   0  0  0  0  0  0  0  0  0  0  0  0
   -6.0710   18.9450  -34.2680 C   0  0  0  0  0  0  0  0  0  0  0  0
   -5.8140   21.6650  -32.2490 C   0  0  0  0  0  0  0  0  0  0  0  0
   -5.2490   22.8500  -31.7740 C   0  0  0  0  0  0  0  0  0  0  0  0
   -2.9820   22.8940  -29.3840 C   0  0  0  0  0  0  0  0  0  0  0  0
   -2.1230   22.0320  -28.6890 C   0  0  0  0  0  0  0  0  0  0  0  0
   -2.3490   20.5400  -28.7830 C   0  0  0  0  0  0  0  0  0  0  0  0
   -1.5416   19.7681  -25.6473 H   0  0  0  0  0  0  0  0  0  0  0  0
   -2.8837   20.7223  -26.3649 H   0  0  0  0  0  0  0  0  0  0  0  0
   -2.9577   18.9275  -26.3649 H   0  0  0  0  0  0  0  0  0  0  0  0
    0.3115   19.5646  -26.9311 H   0  0  0  0  0  0  0  0  0  0  0  0
    0.2435   20.0727  -28.6752 H   0  0  0  0  0  0  0  0  0  0  0  0
   -0.2620   21.7571  -26.1920 H   0  0  0  0  0  0  0  0  0  0  0  0
    0.9742   21.9798  -27.5030 H   0  0  0  0  0  0  0  0  0  0  0  0
    0.0465   24.3631  -27.4389 H   0  0  0  0  0  0  0  0  0  0  0  0
   -2.0800   26.8580  -28.9590 H   0  0  0  0  0  0  0  0  0  0  0  0
   -7.4707   23.5449  -29.2735 H   0  0  0  0  0  0  0  0  0  0  0  0
   -8.4816   21.4339  -30.1241 H   0  0  0  0  0  0  0  0  0  0  0  0
   -7.1859   16.6792  -32.2003 H   0  0  0  0  0  0  0  0  0  0  0  0
   -8.2085   17.2991  -33.5039 H   0  0  0  0  0  0  0  0  0  0  0  0
   -5.4981   15.9504  -33.6438 H   0  0  0  0  0  0  0  0  0  0  0  0
   -6.8366   15.8223  -34.7828 H   0  0  0  0  0  0  0  0  0  0  0  0
   -4.5633   17.5616  -34.9889 H   0  0  0  0  0  0  0  0  0  0  0  0
   -5.9983   17.6369  -36.0182 H   0  0  0  0  0  0  0  0  0  0  0  0
   -5.2027   19.6108  -34.1549 H   0  0  0  0  0  0  0  0  0  0  0  0
   -6.8325   19.4887  -34.8464 H   0  0  0  0  0  0  0  0  0  0  0  0
   -5.3403   21.1296  -33.0850 H   0  0  0  0  0  0  0  0  0  0  0  0
   -4.3293   23.2422  -32.2326 H   0  0  0  0  0  0  0  0  0  0  0  0
   -3.8626   22.4831  -29.8995 H   0  0  0  0  0  0  0  0  0  0  0  0
   -3.4243   20.3416  -28.6629 H   0  0  0  0  0  0  0  0  0  0  0  0
   -1.9744   20.2152  -29.7649 H   0  0  0  0  0  0  0  0  0  0  0  0
  1  2  1  0
  2  3  1  0
  3  4  1  0
  4  5  1  0
  5  6  2  0
  6  7  1  0
  7  8  1  0
  7  9  2  0
  9 10  1  0
 10 11  1  0
 11 12  2  0
 11 13  2  0
 11 14  1  0
 14 15  2  0
 15 16  1  0
 16 17  2  0
 17 18  1  0
 18 19  2  0
 18 20  2  0
 18 21  1  0
 21 22  1  0
 22 23  1  0
 23 24  1  0
 24 25  1  0
 17 26  1  0
 26 27  2  0
  9 28  1  0
 28 29  2  0
 29 30  1  0
 30  2  1  0
 29  5  1  0
 27 14  1  0
 25 21  1  0
  1 31  1  0
  1 32  1  0
  1 33  1  0
  3 34  1  0
  3 35  1  0
  4 36  1  0
  4 37  1  0
  6 38  1  0
  8 39  1  0
 15 40  1  0
 16 41  1  0
 22 42  1  0
 22 43  1  0
 23 44  1  0
 23 45  1  0
 24 46  1  0
 24 47  1  0
 25 48  1  0
 25 49  1  0
 26 50  1  0
 27 51  1  0
 28 52  1  0
 30 53  1  0
 30 54  1  0
M  CHG  1  10  -1
M  END
>  <UniqueID>  (20) 
19

>  <SMILES>  (20) 
CN1CCc2cc(O)c([N-]S(=O)(=O)c3ccc(S(=O)(=O)N4CCCC4)cc3)cc2C1

>  <Energy>  (20) 
67.04814025458742

>  <Genealogy>  (20) 
CN1CCc2cc(O)c([N-]S(=O)(=O)c3ccc(S(=O)(=O)N4CCCC4)cc3)cc2C1 (protonated)
CN1CCc2cc(O)c([N-]S(=O)(=O)c3ccc(S(=O)(=O)N4CCCC4)cc3)cc2C1 (3D coordinates assigned)
CN1CCc2cc(O)c([N-]S(=O)(=O)c3ccc(S(=O)(=O)N4CCCC4)cc3)cc2C1 (nonaromatic ring conformer: 67.04814025458742 kcal/mol)

>  <smiles>  (20) 
CN1CCc2cc(O)c(NS(=O)(=O)c3ccc(S(=O)(=O)N4CCCC4)cc3)cc2C1

>  <score_type>  (20) 
oracle

>  <origin>  (20) 
adgpu

>  <m_score__min__energy>  (20) 
-13.779999999999999

>  <m_primary>  (20) 
energy

$$$$
20:0
     RDKit          3D

 50 52  0  0  0  0  0  0  0  0999 V2000
   -2.3850   20.7170  -27.4990 C   0  0  0  0  0  0  0  0  0  0  0  0
   -1.9500   22.1250  -27.0820 C   0  0  0  0  0  0  0  0  0  0  0  0
   -0.4230   22.2450  -27.0490 C   0  0  0  0  0  0  0  0  0  0  0  0
   -2.5240   23.1260  -27.9880 N   0  0  0  0  0  0  0  0  0  0  0  0
   -1.9000   24.1810  -28.5570 C   0  0  0  0  0  0  0  0  0  0  0  0
   -2.7230   24.9080  -29.3410 N   0  0  0  0  0  0  0  0  0  0  0  0
   -3.9060   24.2700  -29.2470 C   0  0  0  0  0  0  0  0  0  0  0  0
   -5.3620   24.7690  -30.0820 S   0  0  0  0  0  0  0  0  0  0  0  0
   -4.9980   25.6850  -31.2170 O   0  0  0  0  0  0  0  0  0  0  0  0
   -6.2560   25.5200  -29.1340 O   0  0  0  0  0  0  0  0  0  0  0  0
   -6.1950   23.3490  -30.7010 C   0  0  0  0  0  0  0  0  0  0  0  0
   -5.5470   22.1070  -30.7120 C   0  0  0  0  0  0  0  0  0  0  0  0
   -6.1990   20.9770  -31.2150 C   0  0  0  0  0  0  0  0  0  0  0  0
   -7.5030   21.0830  -31.7190 C   0  0  0  0  0  0  0  0  0  0  0  0
   -8.3450   19.6610  -32.3320 S   0  0  0  0  0  0  0  0  0  0  0  0
   -9.5720   20.0810  -33.0930 O   0  0  0  0  0  0  0  0  0  0  0  0
   -8.7730   18.8130  -31.1660 O   0  0  0  0  0  0  0  0  0  0  0  0
   -7.2800   18.7450  -33.3700 N   0  0  0  0  0  0  0  0  0  0  0  0
   -6.7960   17.5430  -32.6630 C   0  0  0  0  0  0  0  0  0  0  0  0
   -5.9980   16.6210  -33.6100 C   0  0  0  0  0  0  0  0  0  0  0  0
   -5.3590   17.3840  -34.7810 C   0  0  0  0  0  0  0  0  0  0  0  0
   -4.9530   18.7980  -34.3610 C   0  0  0  0  0  0  0  0  0  0  0  0
   -6.1580   19.6040  -33.8220 C   0  0  0  0  0  0  0  0  0  0  0  0
   -8.1500   22.3250  -31.7090 C   0  0  0  0  0  0  0  0  0  0  0  0
   -7.4980   23.4540  -31.2080 C   0  0  0  0  0  0  0  0  0  0  0  0
   -3.7940   23.1750  -28.4220 C   0  0  0  0  0  0  0  0  0  0  0  0
   -2.5725   20.1101  -26.6009 H   0  0  0  0  0  0  0  0  0  0  0  0
   -3.3056   20.7799  -28.0978 H   0  0  0  0  0  0  0  0  0  0  0  0
   -1.5893   20.2497  -28.0978 H   0  0  0  0  0  0  0  0  0  0  0  0
   -2.3264   22.3108  -26.0652 H   0  0  0  0  0  0  0  0  0  0  0  0
   -0.0798   22.2720  -26.0043 H   0  0  0  0  0  0  0  0  0  0  0  0
    0.0240   21.3792  -27.5595 H   0  0  0  0  0  0  0  0  0  0  0  0
   -0.1168   23.1700  -27.5595 H   0  0  0  0  0  0  0  0  0  0  0  0
   -0.8382   24.4206  -28.3985 H   0  0  0  0  0  0  0  0  0  0  0  0
   -4.5215   22.0205  -30.3235 H   0  0  0  0  0  0  0  0  0  0  0  0
   -5.6879   20.0030  -31.2153 H   0  0  0  0  0  0  0  0  0  0  0  0
   -7.8450   18.4500  -34.2010 H   0  0  0  0  0  0  0  0  0  0  0  0
   -6.1454   17.8532  -31.8320 H   0  0  0  0  0  0  0  0  0  0  0  0
   -7.6669   16.9860  -32.2870 H   0  0  0  0  0  0  0  0  0  0  0  0
   -5.2006   16.1294  -33.0333 H   0  0  0  0  0  0  0  0  0  0  0  0
   -6.7025   15.8905  -34.0343 H   0  0  0  0  0  0  0  0  0  0  0  0
   -4.4654   16.8393  -35.1197 H   0  0  0  0  0  0  0  0  0  0  0  0
   -6.0970   17.4592  -35.5932 H   0  0  0  0  0  0  0  0  0  0  0  0
   -4.1887   18.7299  -33.5728 H   0  0  0  0  0  0  0  0  0  0  0  0
   -4.5611   19.3191  -35.2469 H   0  0  0  0  0  0  0  0  0  0  0  0
   -5.8189   20.2129  -32.9709 H   0  0  0  0  0  0  0  0  0  0  0  0
   -6.5334   20.2238  -34.6496 H   0  0  0  0  0  0  0  0  0  0  0  0
   -9.1756   22.4117  -32.0972 H   0  0  0  0  0  0  0  0  0  0  0  0
   -8.0083   24.4285  -31.2112 H   0  0  0  0  0  0  0  0  0  0  0  0
   -4.5974   22.4689  -28.1649 H   0  0  0  0  0  0  0  0  0  0  0  0
  1  2  1  0
  2  3  1  0
  2  4  1  0
  4  5  1  0
  5  6  2  0
  6  7  1  0
  7  8  1  0
  8  9  2  0
  8 10  2  0
  8 11  1  0
 11 12  2  0
 12 13  1  0
 13 14  2  0
 14 15  1  0
 15 16  2  0
 15 17  2  0
 15 18  1  0
 18 19  1  0
 19 20  1  0
 20 21  1  0
 21 22  1  0
 22 23  1  0
 14 24  1  0
 24 25  2  0
  7 26  2  0
 26  4  1  0
 25 11  1  0
 23 18  1  0
  1 27  1  0
  1 28  1  0
  1 29  1  0
  2 30  1  0
  3 31  1  0
  3 32  1  0
  3 33  1  0
  5 34  1  0
 12 35  1  0
 13 36  1  0
 18 37  1  0
 19 38  1  0
 19 39  1  0
 20 40  1  0
 20 41  1  0
 21 42  1  0
 21 43  1  0
 22 44  1  0
 22 45  1  0
 23 46  1  0
 23 47  1  0
 24 48  1  0
 25 49  1  0
 26 50  1  0
M  CHG  1  18   1
M  END
>  <UniqueID>  (21) 
20

>  <SMILES>  (21) 
CC(C)n1cnc(S(=O)(=O)c2ccc(S(=O)(=O)[NH+]3CCCCC3)cc2)c1

>  <Energy>  (21) 
79.88657813611398

>  <Genealogy>  (21) 
CC(C)n1cnc(S(=O)(=O)c2ccc(S(=O)(=O)[NH+]3CCCCC3)cc2)c1 (protonated)
CC(C)n1cnc(S(=O)(=O)c2ccc(S(=O)(=O)[NH+]3CCCCC3)cc2)c1 (3D coordinates assigned)
CC(C)n1cnc(S(=O)(=O)c2ccc(S(=O)(=O)[NH+]3CCCCC3)cc2)c1 (nonaromatic ring conformer: 79.88657813611398 kcal/mol)

>  <smiles>  (21) 
CC(C)n1cnc(S(=O)(=O)c2ccc(S(=O)(=O)N3CCCCC3)cc2)c1

>  <score_type>  (21) 
oracle

>  <origin>  (21) 
adgpu

>  <m_score__min__energy>  (21) 
-9.6500000000000004

>  <m_primary>  (21) 
energy

$$$$
21:0
     RDKit          3D

 67 70  0  0  0  0  0  0  0  0999 V2000
   -3.0500   19.8570  -32.2800 C   0  0  0  0  0  0  0  0  0  0  0  0
   -4.0720   19.3480  -33.2090 N   0  0  0  0  0  0  0  0  0  0  0  0
   -4.5840   18.0250  -32.7720 C   0  0  0  0  0  0  0  0  0  0  0  0
   -5.9470   18.1330  -32.0750 C   0  0  0  0  0  0  0  0  0  0  0  0
   -6.9650   18.7020  -32.9830 N   0  0  0  0  0  0  0  0  0  0  0  0
   -8.3240   19.3140  -32.0670 S   0  0  0  0  0  0  0  0  0  0  0  0
   -8.4340   18.5570  -30.7720 O   0  0  0  0  0  0  0  0  0  0  0  0
   -9.5910   19.0890  -32.8460 O   0  0  0  0  0  0  0  0  0  0  0  0
   -8.1540   21.0370  -31.7200 C   0  0  0  0  0  0  0  0  0  0  0  0
   -8.9840   21.9700  -32.3560 C   0  0  0  0  0  0  0  0  0  0  0  0
   -8.8750   23.3290  -32.0550 C   0  0  0  0  0  0  0  0  0  0  0  0
   -7.9260   23.7670  -31.1270 C   0  0  0  0  0  0  0  0  0  0  0  0
   -7.0660   22.8510  -30.5040 C   0  0  0  0  0  0  0  0  0  0  0  0
   -6.1170   23.3260  -29.5330 N   0  0  0  0  0  0  0  0  0  0  0  0
   -4.6900   23.3170  -29.7290 C   0  0  0  0  0  0  0  0  0  0  0  0
   -4.2080   22.9950  -30.8500 O   0  0  0  0  0  0  0  0  0  0  0  0
   -3.7650   23.6930  -28.6360 C   0  0  0  0  0  0  0  0  0  0  0  0
   -4.1780   24.5310  -27.5830 C   0  0  0  0  0  0  0  0  0  0  0  0
   -3.2820   24.8920  -26.5740 C   0  0  0  0  0  0  0  0  0  0  0  0
   -1.9670   24.4250  -26.6020 C   0  0  0  0  0  0  0  0  0  0  0  0
   -1.5390   23.5910  -27.6420 C   0  0  0  0  0  0  0  0  0  0  0  0
    0.1280   23.0200  -27.6840 S   0  0  0  0  0  0  0  0  0  0  0  0
    0.7400   23.1380  -26.3150 O   0  0  0  0  0  0  0  0  0  0  0  0
    0.9090   23.8870  -28.6320 O   0  0  0  0  0  0  0  0  0  0  0  0
    0.1880   21.3590  -28.2250 N   0  0  0  0  0  0  0  0  0  0  0  0
   -1.0040   20.6400  -27.7250 C   0  0  0  0  0  0  0  0  0  0  0  0
   -1.0920   19.1770  -28.1980 C   0  0  0  0  0  0  0  0  0  0  0  0
   -0.1050   18.2290  -27.4960 C   0  0  0  0  0  0  0  0  0  0  0  0
    1.3100   18.1630  -28.1160 C   0  0  0  0  0  0  0  0  0  0  0  0
    1.8280   19.5070  -28.6630 C   0  0  0  0  0  0  0  0  0  0  0  0
    1.4550   20.7330  -27.7920 C   0  0  0  0  0  0  0  0  0  0  0  0
   -2.4360   23.2360  -28.6590 C   0  0  0  0  0  0  0  0  0  0  0  0
   -7.1980   21.4800  -30.7940 C   0  0  0  0  0  0  0  0  0  0  0  0
   -6.4330   19.7200  -33.9190 C   0  0  0  0  0  0  0  0  0  0  0  0
   -5.1340   20.3620  -33.4080 C   0  0  0  0  0  0  0  0  0  0  0  0
   -3.3813   19.6920  -31.2441 H   0  0  0  0  0  0  0  0  0  0  0  0
   -2.1021   19.3257  -32.4508 H   0  0  0  0  0  0  0  0  0  0  0  0
   -2.9029   20.9337  -32.4508 H   0  0  0  0  0  0  0  0  0  0  0  0
   -4.6875   17.3761  -33.6542 H   0  0  0  0  0  0  0  0  0  0  0  0
   -3.8673   17.6070  -32.0498 H   0  0  0  0  0  0  0  0  0  0  0  0
   -6.2688   17.1301  -31.7578 H   0  0  0  0  0  0  0  0  0  0  0  0
   -5.8431   18.7986  -31.2054 H   0  0  0  0  0  0  0  0  0  0  0  0
   -9.7243   21.6303  -33.0953 H   0  0  0  0  0  0  0  0  0  0  0  0
   -9.5367   24.0558  -32.5488 H   0  0  0  0  0  0  0  0  0  0  0  0
   -7.8532   24.8373  -30.8837 H   0  0  0  0  0  0  0  0  0  0  0  0
   -6.5050   23.7370  -28.6560 H   0  0  0  0  0  0  0  0  0  0  0  0
   -5.2125   24.9038  -27.5546 H   0  0  0  0  0  0  0  0  0  0  0  0
   -3.6139   25.5465  -25.7546 H   0  0  0  0  0  0  0  0  0  0  0  0
   -1.2653   24.7128  -25.8052 H   0  0  0  0  0  0  0  0  0  0  0  0
   -0.9777   20.6478  -26.6253 H   0  0  0  0  0  0  0  0  0  0  0  0
   -1.8847   21.1606  -28.1291 H   0  0  0  0  0  0  0  0  0  0  0  0
   -2.1131   18.8139  -28.0094 H   0  0  0  0  0  0  0  0  0  0  0  0
   -0.8299   19.1730  -29.2663 H   0  0  0  0  0  0  0  0  0  0  0  0
   -0.0024   18.5593  -26.4518 H   0  0  0  0  0  0  0  0  0  0  0  0
   -0.5286   17.2194  -27.6022 H   0  0  0  0  0  0  0  0  0  0  0  0
    2.0091   17.8142  -27.3416 H   0  0  0  0  0  0  0  0  0  0  0  0
    1.2452   17.4784  -28.9746 H   0  0  0  0  0  0  0  0  0  0  0  0
    2.9246   19.4525  -28.7304 H   0  0  0  0  0  0  0  0  0  0  0  0
    1.3479   19.6564  -29.6414 H   0  0  0  0  0  0  0  0  0  0  0  0
    1.3501   20.4066  -26.7468 H   0  0  0  0  0  0  0  0  0  0  0  0
    2.2553   21.4800  -27.8989 H   0  0  0  0  0  0  0  0  0  0  0  0
   -2.0961   22.5928  -29.4841 H   0  0  0  0  0  0  0  0  0  0  0  0
   -6.5465   20.7504  -30.2907 H   0  0  0  0  0  0  0  0  0  0  0  0
   -6.2323   19.2389  -34.8876 H   0  0  0  0  0  0  0  0  0  0  0  0
   -7.1865   20.5159  -34.0133 H   0  0  0  0  0  0  0  0  0  0  0  0
   -4.7878   21.1034  -34.1432 H   0  0  0  0  0  0  0  0  0  0  0  0
   -5.3418   20.8405  -32.4396 H   0  0  0  0  0  0  0  0  0  0  0  0
  1  2  1  0
  2  3  1  0
  3  4  1  0
  4  5  1  0
  5  6  1  0
  6  7  2  0
  6  8  2  0
  6  9  1  0
  9 10  2  0
 10 11  1  0
 11 12  2  0
 12 13  1  0
 13 14  1  0
 14 15  1  0
 15 16  2  0
 15 17  1  0
 17 18  2  0
 18 19  1  0
 19 20  2  0
 20 21  1  0
 21 22  1  0
 22 23  2  0
 22 24  2  0
 22 25  1  0
 25 26  1  0
 26 27  1  0
 27 28  1  0
 28 29  1  0
 29 30  1  0
 30 31  1  0
 21 32  2  0
 13 33  2  0
  5 34  1  0
 34 35  1  0
 35  2  1  0
 33  9  1  0
 32 17  1  0
 31 25  1  0
  1 36  1  0
  1 37  1  0
  1 38  1  0
  3 39  1  0
  3 40  1  0
  4 41  1  0
  4 42  1  0
 10 43  1  0
 11 44  1  0
 12 45  1  0
 14 46  1  0
 18 47  1  0
 19 48  1  0
 20 49  1  0
 26 50  1  0
 26 51  1  0
 27 52  1  0
 27 53  1  0
 28 54  1  0
 28 55  1  0
 29 56  1  0
 29 57  1  0
 30 58  1  0
 30 59  1  0
 31 60  1  0
 31 61  1  0
 32 62  1  0
 33 63  1  0
 34 64  1  0
 34 65  1  0
 35 66  1  0
 35 67  1  0
M  END
>  <UniqueID>  (22) 
21

>  <SMILES>  (22) 
CN1CCN(S(=O)(=O)c2cccc(NC(=O)c3cccc(S(=O)(=O)N4CCCCCC4)c3)c2)CC1

>  <Energy>  (22) 
91.9631720447849

>  <Genealogy>  (22) 
CN1CCN(S(=O)(=O)c2cccc(NC(=O)c3cccc(S(=O)(=O)N4CCCCCC4)c3)c2)CC1 (3D coordinates assigned)
CN1CCN(S(=O)(=O)c2cccc(NC(=O)c3cccc(S(=O)(=O)N4CCCCCC4)c3)c2)CC1 (nonaromatic ring conformer: 91.9631720447849 kcal/mol)

>  <smiles>  (22) 
CN1CCN(S(=O)(=O)c2cccc(NC(=O)c3cccc(S(=O)(=O)N4CCCCCC4)c3)c2)CC1

>  <score_type>  (22) 
oracle

>  <origin>  (22) 
adgpu

>  <m_score__min__energy>  (22) 
-10.44

>  <m_primary>  (22) 
energy

$$$$
22:0
     RDKit          3D

 49 51  0  0  0  0  0  0  0  0999 V2000
    0.5280   21.9380  -36.0720 C   0  0  0  0  0  0  0  0  0  0  0  0
    0.5560   21.9360  -34.6490 O   0  0  0  0  0  0  0  0  0  0  0  0
   -0.3140   21.1950  -33.8360 C   0  0  0  0  0  0  0  0  0  0  0  0
   -0.2000   21.1690  -32.4320 C   0  0  0  0  0  0  0  0  0  0  0  0
   -1.0960   20.4120  -31.6680 C   0  0  0  0  0  0  0  0  0  0  0  0
   -2.1160   19.6890  -32.2950 C   0  0  0  0  0  0  0  0  0  0  0  0
   -2.2540   19.7290  -33.6920 C   0  0  0  0  0  0  0  0  0  0  0  0
   -3.2700   18.9720  -34.3660 N   0  0  0  0  0  0  0  0  0  0  0  0
   -4.6440   18.8610  -33.9750 C   0  0  0  0  0  0  0  0  0  0  0  0
   -5.5000   18.6100  -34.8630 O   0  0  0  0  0  0  0  0  0  0  0  0
   -5.1070   19.2110  -32.5720 C   0  0  2  0  0  0  0  0  0  0  0  0
   -6.3190   18.3510  -32.1350 C   0  0  0  0  0  0  0  0  0  0  0  0
   -7.6480   19.0570  -32.4160 C   0  0  0  0  0  0  0  0  0  0  0  0
   -7.7210   20.4460  -31.7400 C   0  0  0  0  0  0  0  0  0  0  0  0
   -6.3870   21.0120  -31.4160 N   0  0  2  0  0  0  0  0  0  0  0  0
   -6.5150   22.7410  -31.1720 S   0  0  0  0  0  0  0  0  0  0  0  0
   -6.8900   23.4090  -32.4670 O   0  0  0  0  0  0  0  0  0  0  0  0
   -7.6080   23.0320  -30.1780 O   0  0  0  0  0  0  0  0  0  0  0  0
   -4.9650   23.3930  -30.5800 C   0  0  0  0  0  0  0  0  0  0  0  0
   -4.7150   24.7880  -30.5080 C   0  0  0  0  0  0  0  0  0  0  0  0
   -5.7400   25.8170  -30.8860 C   0  0  0  0  0  0  0  0  0  0  0  0
   -3.5140   25.2290  -30.0490 N   0  0  0  0  0  0  0  0  0  0  0  0
   -2.5360   24.3680  -29.6800 C   0  0  0  0  0  0  0  0  0  0  0  0
   -1.4310   24.8090  -29.2710 O   0  0  0  0  0  0  0  0  0  0  0  0
   -2.7440   23.0290  -29.7550 N   0  0  0  0  0  0  0  0  0  0  0  0
   -3.9260   22.5250  -30.1930 C   0  0  0  0  0  0  0  0  0  0  0  0
   -4.0710   21.2750  -30.2480 O   0  0  0  0  0  0  0  0  0  0  0  0
   -5.4060   20.7300  -32.4800 C   0  0  0  0  0  0  0  0  0  0  0  0
   -1.3340   20.4590  -34.4550 C   0  0  0  0  0  0  0  0  0  0  0  0
   -0.5135   22.0123  -36.4181 H   0  0  0  0  0  0  0  0  0  0  0  0
    1.1019   22.7975  -36.4488 H   0  0  0  0  0  0  0  0  0  0  0  0
    0.9740   21.0057  -36.4488 H   0  0  0  0  0  0  0  0  0  0  0  0
    0.5947   21.7448  -31.9351 H   0  0  0  0  0  0  0  0  0  0  0  0
   -0.9977   20.3857  -30.5727 H   0  0  0  0  0  0  0  0  0  0  0  0
   -2.8121   19.0873  -31.6922 H   0  0  0  0  0  0  0  0  0  0  0  0
   -4.2959   18.9765  -31.8669 H   0  0  0  0  0  0  0  0  0  0  0  0
   -6.2977   17.3995  -32.6865 H   0  0  0  0  0  0  0  0  0  0  0  0
   -6.2446   18.1813  -31.0507 H   0  0  0  0  0  0  0  0  0  0  0  0
   -7.7593   19.1848  -33.5029 H   0  0  0  0  0  0  0  0  0  0  0  0
   -8.4565   18.4356  -32.0033 H   0  0  0  0  0  0  0  0  0  0  0  0
   -8.2384   21.1386  -32.4201 H   0  0  0  0  0  0  0  0  0  0  0  0
   -8.2603   20.3181  -30.7899 H   0  0  0  0  0  0  0  0  0  0  0  0
   -6.0440   20.5940  -30.5170 H   0  0  0  0  0  0  0  0  0  0  0  0
   -6.1748   26.2535  -29.9747 H   0  0  0  0  0  0  0  0  0  0  0  0
   -5.2619   26.6097  -31.4802 H   0  0  0  0  0  0  0  0  0  0  0  0
   -6.5346   25.3420  -31.4802 H   0  0  0  0  0  0  0  0  0  0  0  0
   -5.8101   21.0760  -33.4428 H   0  0  0  0  0  0  0  0  0  0  0  0
   -4.4704   21.2576  -32.2428 H   0  0  0  0  0  0  0  0  0  0  0  0
   -1.4126   20.4548  -35.5522 H   0  0  0  0  0  0  0  0  0  0  0  0
  1  2  1  0
  2  3  1  0
  3  4  2  0
  4  5  1  0
  5  6  2  0
  6  7  1  0
  7  8  1  0
  8  9  1  0
  9 10  2  0
  9 11  1  0
 11 12  1  0
 12 13  1  0
 13 14  1  0
 14 15  1  0
 15 16  1  0
 16 17  2  0
 16 18  2  0
 16 19  1  0
 19 20  2  0
 20 21  1  0
 20 22  1  0
 22 23  1  0
 23 24  2  0
 23 25  1  0
 25 26  1  0
 26 27  2  0
 15 28  1  0
  7 29  2  0
 29  3  1  0
 28 11  1  0
 26 19  1  0
  1 30  1  0
  1 31  1  0
  1 32  1  0
  4 33  1  0
  5 34  1  0
  6 35  1  0
 11 36  1  1
 12 37  1  0
 12 38  1  0
 13 39  1  0
 13 40  1  0
 14 41  1  0
 14 42  1  0
 15 43  1  1
 21 44  1  0
 21 45  1  0
 21 46  1  0
 28 47  1  0
 28 48  1  0
 29 49  1  0
M  CHG  4   8  -1  15   1  22  -1  25  -1
M  END
>  <UniqueID>  (23) 
22

>  <SMILES>  (23) 
COc1cccc([N-]C(=O)[C@@H]2CCC[N@H+](S(=O)(=O)c3c(C)[n-]c(=O)[n-]c3=O)C2)c1

>  <Energy>  (23) 
63.409467548618395

>  <Genealogy>  (23) 
COc1cccc([N-]C(=O)C2CCC[NH+](S(=O)(=O)c3c(C)[n-]c(=O)[n-]c3=O)C2)c1 (protonated)
COc1cccc([N-]C(=O)[C@@H]2CCC[N@H+](S(=O)(=O)c3c(C)[n-]c(=O)[n-]c3=O)C2)c1 (chirality)
COc1cccc([N-]C(=O)[C@@H]2CCC[N@H+](S(=O)(=O)c3c(C)[n-]c(=O)[n-]c3=O)C2)c1 (3D coordinates assigned)
COc1cccc([N-]C(=O)[C@@H]2CCC[N@H+](S(=O)(=O)c3c(C)[n-]c(=O)[n-]c3=O)C2)c1 (nonaromatic ring conformer: 63.409467548618395 kcal/mol)

>  <smiles>  (23) 
COc1cccc(NC(=O)C2CCCN(S(=O)(=O)c3c(C)[nH]c(=O)[nH]c3=O)C2)c1

>  <score_type>  (23) 
oracle

>  <origin>  (23) 
adgpu

>  <m_score__min__energy>  (23) 
-10.83

>  <m_primary>  (23) 
energy

$$$$
23:0
     RDKit          3D

 54 57  0  0  0  0  0  0  0  0999 V2000
   -2.8700   18.9040  -25.7560 C   0  0  0  0  0  0  0  0  0  0  0  0
   -1.9460   19.0810  -26.9340 C   0  0  0  0  0  0  0  0  0  0  0  0
   -0.8690   18.1950  -27.0900 C   0  0  0  0  0  0  0  0  0  0  0  0
   -0.0010   18.3380  -28.1720 C   0  0  0  0  0  0  0  0  0  0  0  0
    0.9660   17.5450  -28.3150 O   0  0  0  0  0  0  0  0  0  0  0  0
   -0.1970   19.3310  -29.0740 N   0  0  0  0  0  0  0  0  0  0  0  0
   -1.2240   20.2200  -28.9710 C   0  0  0  0  0  0  0  0  0  0  0  0
   -1.3830   21.2330  -29.9430 C   0  0  0  0  0  0  0  0  0  0  0  0
   -0.4460   21.2910  -31.1280 C   0  0  0  0  0  0  0  0  0  0  0  0
   -2.4190   22.1850  -29.7850 C   0  0  0  0  0  0  0  0  0  0  0  0
   -2.5950   23.2770  -30.6980 N   0  0  0  0  0  0  0  0  0  0  0  0
   -3.5070   24.3580  -30.4820 C   0  0  0  0  0  0  0  0  0  0  0  0
   -3.2090   25.2940  -29.6930 O   0  0  0  0  0  0  0  0  0  0  0  0
   -4.7510   24.3710  -31.1890 N   0  0  0  0  0  0  0  0  0  0  0  0
   -5.7990   23.4040  -31.0370 C   0  0  0  0  0  0  0  0  0  0  0  0
   -6.7070   23.5760  -29.9880 C   0  0  0  0  0  0  0  0  0  0  0  0
   -7.7460   22.6690  -29.8010 C   0  0  0  0  0  0  0  0  0  0  0  0
   -7.8910   21.5840  -30.6620 C   0  0  0  0  0  0  0  0  0  0  0  0
   -7.0180   21.4020  -31.7470 C   0  0  0  0  0  0  0  0  0  0  0  0
   -7.2780   19.9750  -32.7730 S   0  0  0  0  0  0  0  0  0  0  0  0
   -7.0960   20.3960  -34.2050 O   0  0  0  0  0  0  0  0  0  0  0  0
   -8.6900   19.4730  -32.6490 O   0  0  0  0  0  0  0  0  0  0  0  0
   -6.1530   18.6720  -32.4370 N   0  0  0  0  0  0  0  0  0  0  0  0
   -5.7400   17.9440  -33.6550 C   0  0  0  0  0  0  0  0  0  0  0  0
   -4.3670   18.3930  -34.1860 C   0  0  0  0  0  0  0  0  0  0  0  0
   -4.0850   19.7140  -33.7850 O   0  0  0  0  0  0  0  0  0  0  0  0
   -3.8780   19.7500  -32.3880 C   0  0  0  0  0  0  0  0  0  0  0  0
   -5.0210   19.0810  -31.5890 C   0  0  0  0  0  0  0  0  0  0  0  0
   -5.9730   22.3440  -31.9550 C   0  0  0  0  0  0  0  0  0  0  0  0
   -5.1270   22.2900  -33.0650 O   0  0  0  0  0  0  0  0  0  0  0  0
   -3.3280   22.0540  -28.7340 C   0  0  0  0  0  0  0  0  0  0  0  0
   -3.1910   21.0360  -27.7920 C   0  0  0  0  0  0  0  0  0  0  0  0
   -2.1330   20.1150  -27.8860 C   0  0  0  0  0  0  0  0  0  0  0  0
   -2.2988   19.0134  -24.8223 H   0  0  0  0  0  0  0  0  0  0  0  0
   -3.6617   19.6668  -25.7931 H   0  0  0  0  0  0  0  0  0  0  0  0
   -3.3237   17.9026  -25.7931 H   0  0  0  0  0  0  0  0  0  0  0  0
   -0.7096   17.3883  -26.3593 H   0  0  0  0  0  0  0  0  0  0  0  0
    0.5926   21.3553  -30.7714 H   0  0  0  0  0  0  0  0  0  0  0  0
   -0.5689   20.3835  -31.7374 H   0  0  0  0  0  0  0  0  0  0  0  0
   -0.6799   22.1764  -31.7374 H   0  0  0  0  0  0  0  0  0  0  0  0
   -6.5997   24.4329  -29.3067 H   0  0  0  0  0  0  0  0  0  0  0  0
   -8.4543   22.8095  -28.9712 H   0  0  0  0  0  0  0  0  0  0  0  0
   -8.7006   20.8595  -30.4899 H   0  0  0  0  0  0  0  0  0  0  0  0
   -5.6920   16.8700  -33.4223 H   0  0  0  0  0  0  0  0  0  0  0  0
   -6.4828   18.1614  -34.4367 H   0  0  0  0  0  0  0  0  0  0  0  0
   -3.5901   17.7221  -33.7907 H   0  0  0  0  0  0  0  0  0  0  0  0
   -4.3829   18.3531  -35.2852 H   0  0  0  0  0  0  0  0  0  0  0  0
   -2.9379   19.2265  -32.1596 H   0  0  0  0  0  0  0  0  0  0  0  0
   -3.8430   20.8078  -32.0882 H   0  0  0  0  0  0  0  0  0  0  0  0
   -4.6207   18.1892  -31.0846 H   0  0  0  0  0  0  0  0  0  0  0  0
   -5.3992   19.8238  -30.8712 H   0  0  0  0  0  0  0  0  0  0  0  0
   -5.1910   21.5990  -33.7950 H   0  0  0  0  0  0  0  0  0  0  0  0
   -4.1639   22.7639  -28.6480 H   0  0  0  0  0  0  0  0  0  0  0  0
   -3.9160   20.9526  -26.9689 H   0  0  0  0  0  0  0  0  0  0  0  0
  1  2  1  0
  2  3  2  0
  3  4  1  0
  4  5  2  0
  4  6  1  0
  6  7  1  0
  7  8  2  0
  8  9  1  0
  8 10  1  0
 10 11  1  0
 11 12  1  0
 12 13  2  0
 12 14  1  0
 14 15  1  0
 15 16  2  0
 16 17  1  0
 17 18  2  0
 18 19  1  0
 19 20  1  0
 20 21  2  0
 20 22  2  0
 20 23  1  0
 23 24  1  0
 24 25  1  0
 25 26  1  0
 26 27  1  0
 27 28  1  0
 19 29  2  0
 29 30  1  0
 10 31  2  0
 31 32  1  0
 32 33  2  0
 33  2  1  0
 33  7  1  0
 29 15  1  0
 28 23  1  0
  1 34  1  0
  1 35  1  0
  1 36  1  0
  3 37  1  0
  9 38  1  0
  9 39  1  0
  9 40  1  0
 16 41  1  0
 17 42  1  0
 18 43  1  0
 24 44  1  0
 24 45  1  0
 25 46  1  0
 25 47  1  0
 27 48  1  0
 27 49  1  0
 28 50  1  0
 28 51  1  0
 30 52  1  0
 31 53  1  0
 32 54  1  0
M  CHG  3   6  -1  11  -1  14  -1
M  END
>  <UniqueID>  (24) 
23

>  <SMILES>  (24) 
Cc1cc(=O)[n-]c2c(C)c([N-]C(=O)[N-]c3cccc(S(=O)(=O)N4CCOCC4)c3O)ccc12

>  <Energy>  (24) 
91.0433642668736

>  <Genealogy>  (24) 
Cc1cc(=O)[n-]c2c(C)c([N-]C(=O)[N-]c3cccc(S(=O)(=O)N4CCOCC4)c3O)ccc12 (protonated)
Cc1cc(=O)[n-]c2c(C)c([N-]C(=O)[N-]c3cccc(S(=O)(=O)N4CCOCC4)c3O)ccc12 (3D coordinates assigned)
Cc1cc(=O)[n-]c2c(C)c([N-]C(=O)[N-]c3cccc(S(=O)(=O)N4CCOCC4)c3O)ccc12 (nonaromatic ring conformer: 91.0433642668736 kcal/mol)

>  <smiles>  (24) 
Cc1cc(=O)[nH]c2c(C)c(NC(=O)Nc3cccc(S(=O)(=O)N4CCOCC4)c3O)ccc12

>  <score_type>  (24) 
oracle

>  <origin>  (24) 
adgpu

>  <m_score__min__energy>  (24) 
-13.779999999999999

>  <m_primary>  (24) 
energy

$$$$
24:0
     RDKit          3D

 68 72  0  0  0  0  0  0  0  0999 V2000
   -3.6050   21.7950  -33.2650 O   0  0  0  0  0  0  0  0  0  0  0  0
   -2.7670   21.9350  -32.3340 C   0  0  0  0  0  0  0  0  0  0  0  0
   -3.0250   22.8640  -31.2680 N   0  0  0  0  0  0  0  0  0  0  0  0
   -4.3300   23.3950  -30.9810 C   0  0  0  0  0  0  0  0  0  0  0  0
   -5.4890   22.6960  -31.3630 C   0  0  0  0  0  0  0  0  0  0  0  0
   -6.7580   23.2010  -31.0510 C   0  0  0  0  0  0  0  0  0  0  0  0
   -8.1950   22.2800  -31.4900 S   0  0  0  0  0  0  0  0  0  0  0  0
   -8.9640   21.9110  -30.2510 O   0  0  0  0  0  0  0  0  0  0  0  0
   -9.0750   23.1290  -32.3660 O   0  0  0  0  0  0  0  0  0  0  0  0
   -7.7100   20.8490  -32.3620 N   0  0  0  0  0  0  0  0  0  0  0  0
   -6.7700   20.0440  -31.5810 C   0  0  0  0  0  0  0  0  0  0  0  0
   -6.9360   18.6070  -32.0520 C   0  0  0  0  0  0  0  0  0  0  0  0
   -8.2970   18.5580  -32.7280 C   0  0  0  0  0  0  0  0  0  0  0  0
   -8.8520   19.9710  -32.6260 C   0  0  0  0  0  0  0  0  0  0  0  0
   -6.8720   24.4010  -30.3390 C   0  0  0  0  0  0  0  0  0  0  0  0
   -5.7250   25.0940  -29.9450 C   0  0  0  0  0  0  0  0  0  0  0  0
   -4.4580   24.5930  -30.2580 C   0  0  0  0  0  0  0  0  0  0  0  0
   -3.3270   25.2960  -29.8530 O   0  0  0  0  0  0  0  0  0  0  0  0
   -1.5150   21.1480  -32.3490 C   0  0  0  0  0  0  0  0  0  0  0  0
   -0.9710   20.7600  -33.5860 C   0  0  0  0  0  0  0  0  0  0  0  0
    0.2630   20.1010  -33.6520 C   0  0  0  0  0  0  0  0  0  0  0  0
    0.9570   19.6590  -35.2170 S   0  0  0  0  0  0  0  0  0  0  0  0
    2.1270   18.7430  -34.9930 O   0  0  0  0  0  0  0  0  0  0  0  0
   -0.0740   18.9090  -36.0160 O   0  0  0  0  0  0  0  0  0  0  0  0
    1.4900   21.0480  -36.1360 N   0  0  0  0  0  0  0  0  0  0  0  0
    2.7580   21.5850  -35.6470 C   0  0  0  0  0  0  0  0  0  0  0  0
    2.7880   23.0520  -36.0510 C   0  0  0  0  0  0  0  0  0  0  0  0
    1.3400   23.4190  -36.3400 C   0  0  0  0  0  0  0  0  0  0  0  0
    0.5430   22.1570  -36.0550 C   0  0  0  0  0  0  0  0  0  0  0  0
    0.9470   19.7970  -32.4690 C   0  0  0  0  0  0  0  0  0  0  0  0
    0.4110   20.1620  -31.2350 C   0  0  0  0  0  0  0  0  0  0  0  0
   -0.8160   20.8380  -31.1590 C   0  0  0  0  0  0  0  0  0  0  0  0
   -1.3630   21.1530  -29.8690 N   0  0  0  0  0  0  0  0  0  0  0  0
   -0.7780   22.1370  -28.9790 C   0  0  0  0  0  0  0  0  0  0  0  0
   -1.6340   22.1020  -27.7200 C   0  0  0  0  0  0  0  0  0  0  0  0
   -2.3890   20.7750  -27.7670 C   0  0  0  0  0  0  0  0  0  0  0  0
   -2.3850   20.3430  -29.2290 C   0  0  0  0  0  0  0  0  0  0  0  0
   -2.2080   23.2300  -30.7290 H   0  0  0  0  0  0  0  0  0  0  0  0
   -5.3985   21.7462  -31.9105 H   0  0  0  0  0  0  0  0  0  0  0  0
   -5.7393   20.3852  -31.7580 H   0  0  0  0  0  0  0  0  0  0  0  0
   -6.9692   20.1346  -30.5030 H   0  0  0  0  0  0  0  0  0  0  0  0
   -6.1421   18.3418  -32.7657 H   0  0  0  0  0  0  0  0  0  0  0  0
   -6.8676   17.8929  -31.2181 H   0  0  0  0  0  0  0  0  0  0  0  0
   -8.1924   18.2611  -33.7820 H   0  0  0  0  0  0  0  0  0  0  0  0
   -8.9627   17.8225  -32.2527 H   0  0  0  0  0  0  0  0  0  0  0  0
   -9.3404   20.2563  -33.5694 H   0  0  0  0  0  0  0  0  0  0  0  0
   -9.6041   20.0459  -31.8268 H   0  0  0  0  0  0  0  0  0  0  0  0
   -7.8667   24.7989  -30.0894 H   0  0  0  0  0  0  0  0  0  0  0  0
   -5.8190   26.0371  -29.3866 H   0  0  0  0  0  0  0  0  0  0  0  0
   -1.5214   20.9767  -34.5134 H   0  0  0  0  0  0  0  0  0  0  0  0
    2.8142   21.4906  -34.5525 H   0  0  0  0  0  0  0  0  0  0  0  0
    3.6127   21.0373  -36.0706 H   0  0  0  0  0  0  0  0  0  0  0  0
    3.1857   23.6691  -35.2318 H   0  0  0  0  0  0  0  0  0  0  0  0
    3.4363   23.2239  -36.9229 H   0  0  0  0  0  0  0  0  0  0  0  0
    1.0118   24.2386  -35.6839 H   0  0  0  0  0  0  0  0  0  0  0  0
    1.2032   23.7660  -37.3748 H   0  0  0  0  0  0  0  0  0  0  0  0
    0.0985   22.2059  -35.0500 H   0  0  0  0  0  0  0  0  0  0  0  0
   -0.2807   22.0331  -36.7735 H   0  0  0  0  0  0  0  0  0  0  0  0
    1.9106   19.2684  -32.5133 H   0  0  0  0  0  0  0  0  0  0  0  0
    0.9558   19.9174  -30.3112 H   0  0  0  0  0  0  0  0  0  0  0  0
    0.2635   21.8725  -28.7439 H   0  0  0  0  0  0  0  0  0  0  0  0
   -0.7581   23.1388  -29.4328 H   0  0  0  0  0  0  0  0  0  0  0  0
   -0.9986   22.1497  -26.8233 H   0  0  0  0  0  0  0  0  0  0  0  0
   -2.3229   22.9584  -27.6748 H   0  0  0  0  0  0  0  0  0  0  0  0
   -1.8810   20.0236  -27.1447 H   0  0  0  0  0  0  0  0  0  0  0  0
   -3.4133   20.8794  -27.3797 H   0  0  0  0  0  0  0  0  0  0  0  0
   -2.1379   19.2745  -29.3137 H   0  0  0  0  0  0  0  0  0  0  0  0
   -3.3699   20.4818  -29.6988 H   0  0  0  0  0  0  0  0  0  0  0  0
  1  2  2  0
  2  3  1  0
  3  4  1  0
  4  5  2  0
  5  6  1  0
  6  7  1  0
  7  8  2  0
  7  9  2  0
  7 10  1  0
 10 11  1  0
 11 12  1  0
 12 13  1  0
 13 14  1  0
  6 15  2  0
 15 16  1  0
 16 17  2  0
 17 18  1  0
  2 19  1  0
 19 20  2  0
 20 21  1  0
 21 22  1  0
 22 23  2  0
 22 24  2  0
 22 25  1  0
 25 26  1  0
 26 27  1  0
 27 28  1  0
 28 29  1  0
 21 30  2  0
 30 31  1  0
 31 32  2  0
 32 33  1  0
 33 34  1  0
 34 35  1  0
 35 36  1  0
 36 37  1  0
 17  4  1  0
 32 19  1  0
 37 33  1  0
 14 10  1  0
 29 25  1  0
  3 38  1  0
  5 39  1  0
 11 40  1  0
 11 41  1  0
 12 42  1  0
 12 43  1  0
 13 44  1  0
 13 45  1  0
 14 46  1  0
 14 47  1  0
 15 48  1  0
 16 49  1  0
 20 50  1  0
 26 51  1  0
 26 52  1  0
 27 53  1  0
 27 54  1  0
 28 55  1  0
 28 56  1  0
 29 57  1  0
 29 58  1  0
 30 59  1  0
 31 60  1  0
 34 61  1  0
 34 62  1  0
 35 63  1  0
 35 64  1  0
 36 65  1  0
 36 66  1  0
 37 67  1  0
 37 68  1  0
M  CHG  1  18  -1
M  END
>  <UniqueID>  (25) 
24

>  <SMILES>  (25) 
O=C(Nc1cc(S(=O)(=O)N2CCCC2)ccc1[O-])c1cc(S(=O)(=O)N2CCCC2)ccc1N1CCCC1

>  <Energy>  (25) 
84.73020542970224

>  <Genealogy>  (25) 
O=C(Nc1cc(S(=O)(=O)N2CCCC2)ccc1[O-])c1cc(S(=O)(=O)N2CCCC2)ccc1N1CCCC1 (protonated)
O=C(Nc1cc(S(=O)(=O)N2CCCC2)ccc1[O-])c1cc(S(=O)(=O)N2CCCC2)ccc1N1CCCC1 (3D coordinates assigned)
O=C(Nc1cc(S(=O)(=O)N2CCCC2)ccc1[O-])c1cc(S(=O)(=O)N2CCCC2)ccc1N1CCCC1 (nonaromatic ring conformer: 84.73020542970224 kcal/mol)

>  <smiles>  (25) 
O=C(Nc1cc(S(=O)(=O)N2CCCC2)ccc1O)c1cc(S(=O)(=O)N2CCCC2)ccc1N1CCCC1

>  <score_type>  (25) 
oracle

>  <origin>  (25) 
adgpu

>  <m_score__min__energy>  (25) 
-13.76

>  <m_primary>  (25) 
energy

$$$$
25:0
     RDKit          3D

 38 40  0  0  0  0  0  0  0  0999 V2000
   -4.2160   22.2652  -31.3647 H   0  0  0  0  0  0  0  0  0  0  0  0
   -4.7010   23.0290  -30.7390 C   0  0  0  0  0  0  0  0  0  0  0  0
   -3.8640   24.0680  -30.1030 C   0  0  0  0  0  0  0  0  0  0  0  0
   -3.8640   25.2440  -30.5600 O   0  0  0  0  0  0  0  0  0  0  0  0
   -2.9790   23.7420  -28.9600 C   0  0  0  0  0  0  0  0  0  0  0  0
   -3.2050   22.5560  -28.2430 C   0  0  0  0  0  0  0  0  0  0  0  0
   -4.0238   21.8864  -28.5451 H   0  0  0  0  0  0  0  0  0  0  0  0
   -2.4040   22.2160  -27.1520 C   0  0  0  0  0  0  0  0  0  0  0  0
   -2.6004   21.2871  -26.5965 H   0  0  0  0  0  0  0  0  0  0  0  0
   -1.3520   23.0520  -26.7620 C   0  0  0  0  0  0  0  0  0  0  0  0
   -0.5470   22.7140  -25.6630 C   0  0  0  0  0  0  0  0  0  0  0  0
   -0.7473   21.7901  -25.1006 H   0  0  0  0  0  0  0  0  0  0  0  0
    0.5070   23.5460  -25.2810 C   0  0  0  0  0  0  0  0  0  0  0  0
    1.1342   23.2761  -24.4186 H   0  0  0  0  0  0  0  0  0  0  0  0
    0.7670   24.7200  -25.9910 C   0  0  0  0  0  0  0  0  0  0  0  0
    1.5989   25.3718  -25.6859 H   0  0  0  0  0  0  0  0  0  0  0  0
   -0.0250   25.0700  -27.0870 C   0  0  0  0  0  0  0  0  0  0  0  0
    0.1873   25.9956  -27.6422 H   0  0  0  0  0  0  0  0  0  0  0  0
   -1.0940   24.2440  -27.4850 C   0  0  0  0  0  0  0  0  0  0  0  0
   -1.9030   24.5780  -28.5900 C   0  0  0  0  0  0  0  0  0  0  0  0
   -1.6200   25.7220  -29.3340 O   0  0  0  0  0  0  0  0  0  0  0  0
   -6.0320   22.9860  -30.5790 C   0  0  0  0  0  0  0  0  0  0  0  0
   -6.5042   23.7482  -29.9418 H   0  0  0  0  0  0  0  0  0  0  0  0
   -6.9020   21.9660  -31.2150 C   0  0  0  0  0  0  0  0  0  0  0  0
   -8.2800   22.0040  -30.9560 C   0  0  0  0  0  0  0  0  0  0  0  0
   -8.6900   22.7847  -30.2984 H   0  0  0  0  0  0  0  0  0  0  0  0
   -9.1360   21.0590  -31.5260 C   0  0  0  0  0  0  0  0  0  0  0  0
  -10.2161   21.1044  -31.3227 H   0  0  0  0  0  0  0  0  0  0  0  0
   -8.6250   20.0570  -32.3530 C   0  0  0  0  0  0  0  0  0  0  0  0
   -9.4890   19.1240  -32.9150 O   0  0  0  0  0  0  0  0  0  0  0  0
   -7.2490   19.9850  -32.6130 C   0  0  0  0  0  0  0  0  0  0  0  0
   -6.7780   18.9540  -33.4400 O   0  0  0  0  0  0  0  0  0  0  0  0
   -6.8960   17.5660  -33.1460 C   0  0  0  0  0  0  0  0  0  0  0  0
   -6.9082   17.4219  -32.0555 H   0  0  0  0  0  0  0  0  0  0  0  0
   -7.8304   17.1779  -33.5777 H   0  0  0  0  0  0  0  0  0  0  0  0
   -6.0405   17.0257  -33.5777 H   0  0  0  0  0  0  0  0  0  0  0  0
   -6.3890   20.9410  -32.0360 C   0  0  0  0  0  0  0  0  0  0  0  0
   -5.3072   20.8869  -32.2280 H   0  0  0  0  0  0  0  0  0  0  0  0
  1  2  1  0
  2  3  1  0
  3  4  2  0
  3  5  1  0
  5  6  2  0
  6  7  1  0
  6  8  1  0
  8  9  1  0
  8 10  2  0
 10 11  1  0
 11 12  1  0
 11 13  2  0
 13 14  1  0
 13 15  1  0
 15 16  1  0
 15 17  2  0
 17 18  1  0
 17 19  1  0
 19 20  2  0
 20 21  1  0
  2 22  2  0
 22 23  1  0
 22 24  1  0
 24 25  2  0
 25 26  1  0
 25 27  1  0
 27 28  1  0
 27 29  2  0
 29 30  1  0
 29 31  1  0
 31 32  1  0
 32 33  1  0
 33 34  1  0
 33 35  1  0
 33 36  1  0
 31 37  2  0
 37 38  1  0
 20  5  1  0
 37 24  1  0
 19 10  1  0
M  CHG  2  21  -1  30  -1
M  END
>  <UniqueID>  (26) 
25

>  <SMILES>  (26) 
COc1cc(/C=C/C(=O)c2ccc3ccccc3c2[O-])ccc1[O-]

>  <Energy>  (26) 
51.482553893572046

>  <Genealogy>  (26) 
COc1cc(C=CC(=O)c2ccc3ccccc3c2[O-])ccc1[O-] (protonated)
COc1cc(/C=C/C(=O)c2ccc3ccccc3c2[O-])ccc1[O-] (cis-trans isomerization)
COc1cc(/C=C/C(=O)c2ccc3ccccc3c2[O-])ccc1[O-] (3D coordinates assigned)
COc1cc(/C=C/C(=O)c2ccc3ccccc3c2[O-])ccc1[O-] (optimized conformer: 51.482553893572046 kcal/mol)

>  <smiles>  (26) 
COc1cc(C=CC(=O)c2ccc3ccccc3c2O)ccc1O

>  <score_type>  (26) 
oracle

>  <origin>  (26) 
adgpu

>  <m_score__min__energy>  (26) 
-11.800000000000001

>  <m_primary>  (26) 
energy

$$$$
26:0
     RDKit          3D

 53 56  0  0  0  0  0  0  0  0999 V2000
   -4.8420   16.4870  -33.1360 C   0  0  0  0  0  0  0  0  0  0  0  0
   -6.3910   17.0730  -33.7880 S   0  0  0  0  0  0  0  0  0  0  0  0
   -7.1050   15.9360  -34.4640 O   0  0  0  0  0  0  0  0  0  0  0  0
   -6.1010   18.1480  -34.7990 O   0  0  0  0  0  0  0  0  0  0  0  0
   -7.3880   17.7310  -32.5110 N   0  0  0  0  0  0  0  0  0  0  0  0
   -8.3250   18.7380  -33.0630 C   0  0  0  0  0  0  0  0  0  0  0  0
   -8.8100   19.7250  -31.9970 C   0  0  0  0  0  0  0  0  0  0  0  0
   -7.6610   20.4070  -31.3930 N   0  0  0  0  0  0  0  0  0  0  0  0
   -7.8580   21.6450  -30.6840 C   0  0  0  0  0  0  0  0  0  0  0  0
   -8.9430   21.8400  -30.0710 O   0  0  0  0  0  0  0  0  0  0  0  0
   -6.8140   22.6940  -30.6580 C   0  0  0  0  0  0  0  0  0  0  0  0
   -7.1230   23.9980  -30.2370 C   0  0  0  0  0  0  0  0  0  0  0  0
   -6.1340   24.9840  -30.2060 C   0  0  0  0  0  0  0  0  0  0  0  0
   -4.8250   24.6770  -30.5830 C   0  0  0  0  0  0  0  0  0  0  0  0
   -3.8540   25.6720  -30.5550 O   0  0  0  0  0  0  0  0  0  0  0  0
   -4.4890   23.3760  -30.9830 C   0  0  0  0  0  0  0  0  0  0  0  0
   -3.1290   23.0960  -31.3420 N   0  0  0  0  0  0  0  0  0  0  0  0
   -2.1880   21.7620  -30.7550 S   0  0  0  0  0  0  0  0  0  0  0  0
   -3.0100   20.5040  -30.7790 O   0  0  0  0  0  0  0  0  0  0  0  0
   -0.9730   21.5960  -31.6230 O   0  0  0  0  0  0  0  0  0  0  0  0
   -1.6830   22.0860  -29.1000 C   0  0  0  0  0  0  0  0  0  0  0  0
   -1.1460   21.0670  -28.3040 C   0  0  0  0  0  0  0  0  0  0  0  0
   -0.7480   21.3290  -27.0310 N   0  0  0  0  0  0  0  0  0  0  0  0
   -0.8520   22.5730  -26.4900 C   0  0  0  0  0  0  0  0  0  0  0  0
   -0.4320   22.8050  -25.1750 C   0  0  0  0  0  0  0  0  0  0  0  0
   -0.5330   24.0870  -24.6240 C   0  0  0  0  0  0  0  0  0  0  0  0
   -1.0530   25.1410  -25.3840 C   0  0  0  0  0  0  0  0  0  0  0  0
   -1.1740   26.7460  -24.6840 Cl  0  0  0  0  0  0  0  0  0  0  0  0
   -1.4770   24.9170  -26.6990 C   0  0  0  0  0  0  0  0  0  0  0  0
   -1.3800   23.6330  -27.2580 C   0  0  0  0  0  0  0  0  0  0  0  0
   -1.7940   23.3780  -28.5720 C   0  0  0  0  0  0  0  0  0  0  0  0
   -5.4900   22.3850  -31.0160 C   0  0  0  0  0  0  0  0  0  0  0  0
   -6.3560   19.7330  -31.3800 C   0  0  0  0  0  0  0  0  0  0  0  0
   -6.5510   18.2100  -31.3840 C   0  0  0  0  0  0  0  0  0  0  0  0
   -4.8782   16.5007  -32.0367 H   0  0  0  0  0  0  0  0  0  0  0  0
   -4.6630   15.4590  -33.4842 H   0  0  0  0  0  0  0  0  0  0  0  0
   -4.0274   17.1391  -33.4842 H   0  0  0  0  0  0  0  0  0  0  0  0
   -7.8129   19.2994  -33.8584 H   0  0  0  0  0  0  0  0  0  0  0  0
   -9.2040   18.2030  -33.4517 H   0  0  0  0  0  0  0  0  0  0  0  0
   -9.4730   20.4690  -32.4627 H   0  0  0  0  0  0  0  0  0  0  0  0
   -9.3586   19.1769  -31.2169 H   0  0  0  0  0  0  0  0  0  0  0  0
   -8.1501   24.2442  -29.9298 H   0  0  0  0  0  0  0  0  0  0  0  0
   -6.3870   26.0049  -29.8838 H   0  0  0  0  0  0  0  0  0  0  0  0
   -1.0457   20.0499  -28.7106 H   0  0  0  0  0  0  0  0  0  0  0  0
   -0.0225   21.9792  -24.5747 H   0  0  0  0  0  0  0  0  0  0  0  0
   -0.2027   24.2671  -23.5903 H   0  0  0  0  0  0  0  0  0  0  0  0
   -1.8860   25.7468  -27.2941 H   0  0  0  0  0  0  0  0  0  0  0  0
   -2.2055   24.1914  -29.1877 H   0  0  0  0  0  0  0  0  0  0  0  0
   -5.2334   21.3608  -31.3245 H   0  0  0  0  0  0  0  0  0  0  0  0
   -5.7842   20.0293  -32.2717 H   0  0  0  0  0  0  0  0  0  0  0  0
   -5.8084   20.0243  -30.4716 H   0  0  0  0  0  0  0  0  0  0  0  0
   -5.5631   17.7312  -31.4541 H   0  0  0  0  0  0  0  0  0  0  0  0
   -7.0736   17.9449  -30.4530 H   0  0  0  0  0  0  0  0  0  0  0  0
  1  2  1  0
  2  3  2  0
  2  4  2  0
  2  5  1  0
  5  6  1  0
  6  7  1  0
  7  8  1  0
  8  9  1  0
  9 10  2  0
  9 11  1  0
 11 12  2  0
 12 13  1  0
 13 14  2  0
 14 15  1  0
 14 16  1  0
 16 17  1  0
 17 18  1  0
 18 19  2  0
 18 20  2  0
 18 21  1  0
 21 22  2  0
 22 23  1  0
 23 24  2  0
 24 25  1  0
 25 26  2  0
 26 27  1  0
 27 28  1  0
 27 29  2  0
 29 30  1  0
 30 31  2  0
 16 32  2  0
  8 33  1  0
 33 34  1  0
 34  5  1  0
 32 11  1  0
 31 21  1  0
 30 24  1  0
  1 35  1  0
  1 36  1  0
  1 37  1  0
  6 38  1  0
  6 39  1  0
  7 40  1  0
  7 41  1  0
 12 42  1  0
 13 43  1  0
 22 44  1  0
 25 45  1  0
 26 46  1  0
 29 47  1  0
 31 48  1  0
 32 49  1  0
 33 50  1  0
 33 51  1  0
 34 52  1  0
 34 53  1  0
M  CHG  2  15  -1  17  -1
M  END
>  <UniqueID>  (27) 
26

>  <SMILES>  (27) 
CS(=O)(=O)N1CCN(C(=O)c2ccc([O-])c([N-]S(=O)(=O)c3cnc4ccc(Cl)cc4c3)c2)CC1

>  <Energy>  (27) 
69.69724026959999

>  <Genealogy>  (27) 
CS(=O)(=O)N1CCN(C(=O)c2ccc([O-])c([N-]S(=O)(=O)c3cnc4ccc(Cl)cc4c3)c2)CC1 (protonated)
CS(=O)(=O)N1CCN(C(=O)c2ccc([O-])c([N-]S(=O)(=O)c3cnc4ccc(Cl)cc4c3)c2)CC1 (3D coordinates assigned)
CS(=O)(=O)N1CCN(C(=O)c2ccc([O-])c([N-]S(=O)(=O)c3cnc4ccc(Cl)cc4c3)c2)CC1 (nonaromatic ring conformer: 69.69724026959999 kcal/mol)

>  <smiles>  (27) 
CS(=O)(=O)N1CCN(C(=O)c2ccc(O)c(NS(=O)(=O)c3cnc4ccc(Cl)cc4c3)c2)CC1

>  <score_type>  (27) 
oracle

>  <origin>  (27) 
adgpu

>  <m_score__min__energy>  (27) 
-14.539999999999999

>  <m_primary>  (27) 
energy

$$$$
27:0
     RDKit          3D

 54 57  0  0  0  0  0  0  0  0999 V2000
   -5.8160   25.3240  -28.7870 O   0  0  0  0  0  0  0  0  0  0  0  0
   -5.2420   24.9810  -30.1420 S   0  0  0  0  0  0  0  0  0  0  0  0
   -5.7140   25.9970  -31.1470 O   0  0  0  0  0  0  0  0  0  0  0  0
   -3.4960   25.0330  -30.0490 N   0  0  0  0  0  0  0  0  0  0  0  0
   -2.7230   24.1540  -29.2200 C   0  0  0  0  0  0  0  0  0  0  0  0
   -3.1550   22.8360  -28.9670 C   0  0  0  0  0  0  0  0  0  0  0  0
   -2.4500   22.0190  -28.0760 C   0  0  0  0  0  0  0  0  0  0  0  0
   -1.2810   22.5100  -27.4510 C   0  0  0  0  0  0  0  0  0  0  0  0
   -0.7980   23.7900  -27.7810 C   0  0  0  0  0  0  0  0  0  0  0  0
   -1.5170   24.6130  -28.6530 C   0  0  0  0  0  0  0  0  0  0  0  0
   -1.0320   25.8970  -28.9230 O   0  0  0  0  0  0  0  0  0  0  0  0
   -0.4860   21.6290  -26.5150 C   0  0  0  0  0  0  0  0  0  0  0  0
   -1.3160   20.5660  -25.9220 N   0  0  0  0  0  0  0  0  0  0  0  0
   -1.9970   19.7960  -26.9750 C   0  0  0  0  0  0  0  0  0  0  0  0
   -3.0200   20.6670  -27.7160 C   0  0  0  0  0  0  0  0  0  0  0  0
   -5.8220   23.3780  -30.5940 C   0  0  0  0  0  0  0  0  0  0  0  0
   -4.9460   22.4700  -31.2110 C   0  0  0  0  0  0  0  0  0  0  0  0
   -5.4130   21.2340  -31.6630 C   0  0  0  0  0  0  0  0  0  0  0  0
   -6.7630   20.8890  -31.4930 C   0  0  0  0  0  0  0  0  0  0  0  0
   -7.3690   19.3270  -32.0330 S   0  0  0  0  0  0  0  0  0  0  0  0
   -8.3280   18.8150  -30.9960 O   0  0  0  0  0  0  0  0  0  0  0  0
   -8.1130   19.4910  -33.3310 O   0  0  0  0  0  0  0  0  0  0  0  0
   -6.0270   18.2140  -32.2050 N   0  0  0  0  0  0  0  0  0  0  0  0
   -4.9880   18.6980  -33.1380 C   0  0  0  0  0  0  0  0  0  0  0  0
   -5.3610   18.4980  -34.6150 C   0  0  0  0  0  0  0  0  0  0  0  0
   -5.7430   17.0420  -34.8880 C   0  0  0  0  0  0  0  0  0  0  0  0
   -6.8570   16.5950  -33.9430 C   0  0  0  0  0  0  0  0  0  0  0  0
   -6.4620   16.8270  -32.4770 C   0  0  0  0  0  0  0  0  0  0  0  0
   -7.6310   21.7840  -30.8540 C   0  0  0  0  0  0  0  0  0  0  0  0
   -7.1650   23.0250  -30.4110 C   0  0  0  0  0  0  0  0  0  0  0  0
   -4.0513   22.4477  -29.4728 H   0  0  0  0  0  0  0  0  0  0  0  0
    0.1501   24.1448  -27.3506 H   0  0  0  0  0  0  0  0  0  0  0  0
   -1.6070   26.6190  -29.3430 H   0  0  0  0  0  0  0  0  0  0  0  0
    0.3376   21.1648  -27.0774 H   0  0  0  0  0  0  0  0  0  0  0  0
   -0.1036   22.2582  -25.6978 H   0  0  0  0  0  0  0  0  0  0  0  0
   -2.0460   21.0060  -25.3080 H   0  0  0  0  0  0  0  0  0  0  0  0
   -1.2492   19.4289  -27.6933 H   0  0  0  0  0  0  0  0  0  0  0  0
   -2.5267   18.9532  -26.5070 H   0  0  0  0  0  0  0  0  0  0  0  0
   -3.3242   20.1517  -28.6390 H   0  0  0  0  0  0  0  0  0  0  0  0
   -3.8806   20.8254  -27.0495 H   0  0  0  0  0  0  0  0  0  0  0  0
   -3.8858   22.7340  -31.3389 H   0  0  0  0  0  0  0  0  0  0  0  0
   -4.7230   20.5308  -32.1522 H   0  0  0  0  0  0  0  0  0  0  0  0
   -4.8305   19.7719  -32.9594 H   0  0  0  0  0  0  0  0  0  0  0  0
   -4.0780   18.1100  -32.9479 H   0  0  0  0  0  0  0  0  0  0  0  0
   -6.2142   19.1468  -34.8623 H   0  0  0  0  0  0  0  0  0  0  0  0
   -4.4904   18.7558  -35.2359 H   0  0  0  0  0  0  0  0  0  0  0  0
   -6.0904   16.9477  -35.9274 H   0  0  0  0  0  0  0  0  0  0  0  0
   -4.8607   16.4059  -34.7239 H   0  0  0  0  0  0  0  0  0  0  0  0
   -7.7688   17.1690  -34.1649 H   0  0  0  0  0  0  0  0  0  0  0  0
   -7.0325   15.5194  -34.0924 H   0  0  0  0  0  0  0  0  0  0  0  0
   -7.3305   16.6015  -31.8407 H   0  0  0  0  0  0  0  0  0  0  0  0
   -5.6090   16.1675  -32.2592 H   0  0  0  0  0  0  0  0  0  0  0  0
   -8.6848   21.5086  -30.7001 H   0  0  0  0  0  0  0  0  0  0  0  0
   -7.8544   23.7259  -29.9176 H   0  0  0  0  0  0  0  0  0  0  0  0
  1  2  2  0
  2  3  2  0
  2  4  1  0
  4  5  1  0
  5  6  2  0
  6  7  1  0
  7  8  2  0
  8  9  1  0
  9 10  2  0
 10 11  1  0
  8 12  1  0
 12 13  1  0
 13 14  1  0
 14 15  1  0
  2 16  1  0
 16 17  2  0
 17 18  1  0
 18 19  2  0
 19 20  1  0
 20 21  2  0
 20 22  2  0
 20 23  1  0
 23 24  1  0
 24 25  1  0
 25 26  1  0
 26 27  1  0
 27 28  1  0
 19 29  1  0
 29 30  2  0
 10  5  1  0
 30 16  1  0
 15  7  1  0
 28 23  1  0
  6 31  1  0
  9 32  1  0
 11 33  1  0
 12 34  1  0
 12 35  1  0
 13 36  1  0
 14 37  1  0
 14 38  1  0
 15 39  1  0
 15 40  1  0
 17 41  1  0
 18 42  1  0
 24 43  1  0
 24 44  1  0
 25 45  1  0
 25 46  1  0
 26 47  1  0
 26 48  1  0
 27 49  1  0
 27 50  1  0
 28 51  1  0
 28 52  1  0
 29 53  1  0
 30 54  1  0
M  CHG  1   4  -1
M  END
>  <UniqueID>  (28) 
27

>  <SMILES>  (28) 
O=S(=O)([N-]c1cc2c(cc1O)CNCC2)c1ccc(S(=O)(=O)N2CCCCC2)cc1

>  <Energy>  (28) 
64.52998120624538

>  <Genealogy>  (28) 
O=S(=O)([N-]c1cc2c(cc1O)CNCC2)c1ccc(S(=O)(=O)N2CCCCC2)cc1 (protonated)
O=S(=O)([N-]c1cc2c(cc1O)CNCC2)c1ccc(S(=O)(=O)N2CCCCC2)cc1 (3D coordinates assigned)
O=S(=O)([N-]c1cc2c(cc1O)CNCC2)c1ccc(S(=O)(=O)N2CCCCC2)cc1 (nonaromatic ring conformer: 64.52998120624538 kcal/mol)

>  <smiles>  (28) 
O=S(=O)(Nc1cc2c(cc1O)CNCC2)c1ccc(S(=O)(=O)N2CCCCC2)cc1

>  <score_type>  (28) 
oracle

>  <origin>  (28) 
adgpu

>  <m_score__min__energy>  (28) 
-12.99

>  <m_primary>  (28) 
energy

$$$$
28:0
     RDKit          3D

 65 68  0  0  0  0  0  0  0  0999 V2000
   -5.3620   25.4310  -31.3420 O   0  0  0  0  0  0  0  0  0  0  0  0
   -4.7100   24.6610  -30.5880 C   0  0  0  0  0  0  0  0  0  0  0  0
   -5.0450   23.1960  -30.5510 C   0  0  0  0  0  0  0  0  0  0  0  0
   -6.2800   22.9840  -29.8000 N   0  0  0  0  0  0  0  0  0  0  0  0
   -7.5320   22.4080  -30.8590 S   0  0  0  0  0  0  0  0  0  0  0  0
   -8.7420   22.0440  -30.0460 O   0  0  0  0  0  0  0  0  0  0  0  0
   -7.9130   23.5030  -31.8150 O   0  0  0  0  0  0  0  0  0  0  0  0
   -6.9840   21.0030  -31.7750 C   0  0  0  0  0  0  0  0  0  0  0  0
   -5.9400   21.1260  -32.7010 C   0  0  0  0  0  0  0  0  0  0  0  0
   -5.5380   20.0230  -33.4580 C   0  0  0  0  0  0  0  0  0  0  0  0
   -6.1790   18.7860  -33.3000 C   0  0  0  0  0  0  0  0  0  0  0  0
   -5.6990   17.4020  -34.2830 S   0  0  0  0  0  0  0  0  0  0  0  0
   -5.6210   17.8210  -35.7250 O   0  0  0  0  0  0  0  0  0  0  0  0
   -6.7420   16.3250  -34.1670 O   0  0  0  0  0  0  0  0  0  0  0  0
   -4.1510   16.7630  -33.7760 N   0  0  0  0  0  0  0  0  0  0  0  0
   -3.3560   17.7760  -33.0400 C   0  0  0  0  0  0  0  0  0  0  0  0
   -2.2320   18.3900  -33.8870 C   0  0  0  0  0  0  0  0  0  0  0  0
   -1.2680   17.3080  -34.4060 C   0  0  0  0  0  0  0  0  0  0  0  0
   -1.9600   15.9530  -34.6320 C   0  0  0  0  0  0  0  0  0  0  0  0
   -3.4520   16.1390  -34.9220 C   0  0  0  0  0  0  0  0  0  0  0  0
   -7.2170   18.6620  -32.3650 C   0  0  0  0  0  0  0  0  0  0  0  0
   -7.6220   19.7670  -31.6100 C   0  0  0  0  0  0  0  0  0  0  0  0
   -3.6610   25.2070  -29.7790 N   0  0  0  0  0  0  0  0  0  0  0  0
   -2.5350   24.4520  -29.3170 C   0  0  0  0  0  0  0  0  0  0  0  0
   -2.6350   23.0590  -29.2270 C   0  0  0  0  0  0  0  0  0  0  0  0
   -1.5250   22.2920  -28.8470 C   0  0  0  0  0  0  0  0  0  0  0  0
   -1.6160   20.5300  -28.8620 S   0  0  0  0  0  0  0  0  0  0  0  0
   -0.4030   19.9670  -28.1750 O   0  0  0  0  0  0  0  0  0  0  0  0
   -2.8300   20.0910  -28.0920 O   0  0  0  0  0  0  0  0  0  0  0  0
   -1.6990   19.8970  -30.4920 N   0  0  0  0  0  0  0  0  0  0  0  0
   -0.5280   20.3010  -31.2770 C   0  0  0  0  0  0  0  0  0  0  0  0
   -0.9050   21.5160  -32.1100 C   0  0  0  0  0  0  0  0  0  0  0  0
   -2.4190   21.5670  -32.1010 C   0  0  0  0  0  0  0  0  0  0  0  0
   -2.8690   20.4180  -31.2070 C   0  0  0  0  0  0  0  0  0  0  0  0
   -0.3270   22.9330  -28.5020 C   0  0  0  0  0  0  0  0  0  0  0  0
   -0.2330   24.3250  -28.5590 C   0  0  0  0  0  0  0  0  0  0  0  0
   -1.3310   25.0870  -28.9690 C   0  0  0  0  0  0  0  0  0  0  0  0
   -1.2250   26.4730  -29.0150 O   0  0  0  0  0  0  0  0  0  0  0  0
   -5.1757   22.8263  -31.5787 H   0  0  0  0  0  0  0  0  0  0  0  0
   -4.2257   22.6509  -30.0594 H   0  0  0  0  0  0  0  0  0  0  0  0
   -5.4351   22.0944  -32.8324 H   0  0  0  0  0  0  0  0  0  0  0  0
   -4.7153   20.1253  -34.1810 H   0  0  0  0  0  0  0  0  0  0  0  0
   -4.0303   18.5822  -32.7155 H   0  0  0  0  0  0  0  0  0  0  0  0
   -2.8836   17.2665  -32.1872 H   0  0  0  0  0  0  0  0  0  0  0  0
   -2.6763   18.9156  -34.7451 H   0  0  0  0  0  0  0  0  0  0  0  0
   -1.6629   19.0879  -33.2553 H   0  0  0  0  0  0  0  0  0  0  0  0
   -0.8395   17.6475  -35.3605 H   0  0  0  0  0  0  0  0  0  0  0  0
   -0.4921   17.1604  -33.6404 H   0  0  0  0  0  0  0  0  0  0  0  0
   -1.4880   15.4465  -35.4868 H   0  0  0  0  0  0  0  0  0  0  0  0
   -1.8537   15.3491  -33.7187 H   0  0  0  0  0  0  0  0  0  0  0  0
   -3.5672   16.7838  -35.8057 H   0  0  0  0  0  0  0  0  0  0  0  0
   -3.8961   15.1487  -35.1010 H   0  0  0  0  0  0  0  0  0  0  0  0
   -7.7147   17.6911  -32.2250 H   0  0  0  0  0  0  0  0  0  0  0  0
   -8.4431   19.6655  -30.8851 H   0  0  0  0  0  0  0  0  0  0  0  0
   -3.5900   22.5633  -29.4557 H   0  0  0  0  0  0  0  0  0  0  0  0
    0.3019   20.5564  -30.6017 H   0  0  0  0  0  0  0  0  0  0  0  0
   -0.2097   19.4771  -31.9326 H   0  0  0  0  0  0  0  0  0  0  0  0
   -0.4880   22.4309  -31.6639 H   0  0  0  0  0  0  0  0  0  0  0  0
   -0.5077   21.4452  -33.1333 H   0  0  0  0  0  0  0  0  0  0  0  0
   -2.7673   22.5278  -31.6940 H   0  0  0  0  0  0  0  0  0  0  0  0
   -2.8327   21.4755  -33.1161 H   0  0  0  0  0  0  0  0  0  0  0  0
   -3.6142   20.7808  -30.4838 H   0  0  0  0  0  0  0  0  0  0  0  0
   -3.3226   19.6225  -31.8164 H   0  0  0  0  0  0  0  0  0  0  0  0
    0.5419   22.3374  -28.1853 H   0  0  0  0  0  0  0  0  0  0  0  0
    0.7073   24.8232  -28.2806 H   0  0  0  0  0  0  0  0  0  0  0  0
  1  2  2  0
  2  3  1  0
  3  4  1  0
  4  5  1  0
  5  6  2  0
  5  7  2  0
  5  8  1  0
  8  9  2  0
  9 10  1  0
 10 11  2  0
 11 12  1  0
 12 13  2  0
 12 14  2  0
 12 15  1  0
 15 16  1  0
 16 17  1  0
 17 18  1  0
 18 19  1  0
 19 20  1  0
 11 21  1  0
 21 22  2  0
  2 23  1  0
 23 24  1  0
 24 25  2  0
 25 26  1  0
 26 27  1  0
 27 28  2  0
 27 29  2  0
 27 30  1  0
 30 31  1  0
 31 32  1  0
 32 33  1  0
 33 34  1  0
 26 35  2  0
 35 36  1  0
 36 37  2  0
 37 38  1  0
 22  8  1  0
 37 24  1  0
 20 15  1  0
 34 30  1  0
  3 39  1  0
  3 40  1  0
  9 41  1  0
 10 42  1  0
 16 43  1  0
 16 44  1  0
 17 45  1  0
 17 46  1  0
 18 47  1  0
 18 48  1  0
 19 49  1  0
 19 50  1  0
 20 51  1  0
 20 52  1  0
 21 53  1  0
 22 54  1  0
 25 55  1  0
 31 56  1  0
 31 57  1  0
 32 58  1  0
 32 59  1  0
 33 60  1  0
 33 61  1  0
 34 62  1  0
 34 63  1  0
 35 64  1  0
 36 65  1  0
M  CHG  3   4  -1  23  -1  38  -1
M  END
>  <UniqueID>  (29) 
28

>  <SMILES>  (29) 
O=C(C[N-]S(=O)(=O)c1ccc(S(=O)(=O)N2CCCCC2)cc1)[N-]c1cc(S(=O)(=O)N2CCCC2)ccc1[O-]

>  <Energy>  (29) 
71.37597129356655

>  <Genealogy>  (29) 
O=C(C[N-]S(=O)(=O)c1ccc(S(=O)(=O)N2CCCCC2)cc1)[N-]c1cc(S(=O)(=O)N2CCCC2)ccc1[O-] (protonated)
O=C(C[N-]S(=O)(=O)c1ccc(S(=O)(=O)N2CCCCC2)cc1)[N-]c1cc(S(=O)(=O)N2CCCC2)ccc1[O-] (3D coordinates assigned)
O=C(C[N-]S(=O)(=O)c1ccc(S(=O)(=O)N2CCCCC2)cc1)[N-]c1cc(S(=O)(=O)N2CCCC2)ccc1[O-] (nonaromatic ring conformer: 71.37597129356655 kcal/mol)

>  <smiles>  (29) 
O=C(CNS(=O)(=O)c1ccc(S(=O)(=O)N2CCCCC2)cc1)Nc1cc(S(=O)(=O)N2CCCC2)ccc1O

>  <score_type>  (29) 
oracle

>  <origin>  (29) 
adgpu

>  <m_score__min__energy>  (29) 
-15.33

>  <m_primary>  (29) 
energy

$$$$
29:0
     RDKit          3D

 49 53  0  0  0  0  0  0  0  0999 V2000
   -7.0590   22.9650  -30.2810 O   0  0  0  0  0  0  0  0  0  0  0  0
   -5.8870   23.4140  -31.1100 S   0  0  0  0  0  0  0  0  0  0  0  0
   -6.1160   24.8080  -31.6200 O   0  0  0  0  0  0  0  0  0  0  0  0
   -5.6820   22.3340  -32.4510 N   0  0  0  0  0  0  0  0  0  0  0  0
   -4.6150   21.3900  -32.6340 C   0  0  0  0  0  0  0  0  0  0  0  0
   -3.3520   21.8940  -32.9690 C   0  0  0  0  0  0  0  0  0  0  0  0
   -2.2670   21.0300  -33.1700 C   0  0  0  0  0  0  0  0  0  0  0  0
   -2.4490   19.6490  -33.0520 C   0  0  0  0  0  0  0  0  0  0  0  0
   -3.7020   19.1330  -32.7040 C   0  0  0  0  0  0  0  0  0  0  0  0
   -4.7830   19.9940  -32.4810 C   0  0  0  0  0  0  0  0  0  0  0  0
   -5.9950   19.4470  -32.0860 O   0  0  0  0  0  0  0  0  0  0  0  0
   -1.2620   18.7670  -33.2780 C   0  0  0  0  0  0  0  0  0  0  0  0
   -0.1050   19.3880  -32.6090 N   0  0  0  0  0  0  0  0  0  0  0  0
    1.0290   18.4630  -32.4470 C   0  0  0  0  0  0  0  0  0  0  0  0
    1.6740   18.1240  -33.7910 C   0  0  0  0  0  0  0  0  0  0  0  0
    1.9960   19.3710  -34.5640 C   0  0  0  0  0  0  0  0  0  0  0  0
    2.9480   19.3020  -35.5930 C   0  0  0  0  0  0  0  0  0  0  0  0
    3.2870   20.4430  -36.3210 C   0  0  0  0  0  0  0  0  0  0  0  0
    2.6880   21.6640  -36.0190 C   0  0  0  0  0  0  0  0  0  0  0  0
    1.7310   21.7420  -35.0060 C   0  0  0  0  0  0  0  0  0  0  0  0
    1.3370   20.5910  -34.2940 C   0  0  0  0  0  0  0  0  0  0  0  0
    0.2900   20.7060  -33.1860 C   0  0  1  0  0  0  0  0  0  0  0  0
   -0.9400   21.5540  -33.6560 C   0  0  0  0  0  0  0  0  0  0  0  0
   -4.4310   23.4190  -30.1160 C   0  0  0  0  0  0  0  0  0  0  0  0
   -4.0880   22.2860  -29.3610 C   0  0  0  0  0  0  0  0  0  0  0  0
   -2.9190   22.2740  -28.5960 C   0  0  0  0  0  0  0  0  0  0  0  0
   -2.0840   23.3950  -28.5760 C   0  0  0  0  0  0  0  0  0  0  0  0
   -2.4170   24.5300  -29.3200 C   0  0  0  0  0  0  0  0  0  0  0  0
   -1.5810   25.6420  -29.2930 O   0  0  0  0  0  0  0  0  0  0  0  0
   -3.5860   24.5450  -30.0950 C   0  0  0  0  0  0  0  0  0  0  0  0
   -3.8980   25.6750  -30.8450 O   0  0  0  0  0  0  0  0  0  0  0  0
   -3.2101   22.9796  -33.0755 H   0  0  0  0  0  0  0  0  0  0  0  0
   -3.8383   18.0460  -32.6052 H   0  0  0  0  0  0  0  0  0  0  0  0
   -1.4499   17.7704  -32.8521 H   0  0  0  0  0  0  0  0  0  0  0  0
   -1.0675   18.6531  -34.3547 H   0  0  0  0  0  0  0  0  0  0  0  0
    1.7826   18.9322  -31.7974 H   0  0  0  0  0  0  0  0  0  0  0  0
    0.6521   17.5308  -32.0009 H   0  0  0  0  0  0  0  0  0  0  0  0
    2.6024   17.5617  -33.6127 H   0  0  0  0  0  0  0  0  0  0  0  0
    0.9649   17.5216  -34.3777 H   0  0  0  0  0  0  0  0  0  0  0  0
    3.4303   18.3415  -35.8272 H   0  0  0  0  0  0  0  0  0  0  0  0
    4.0266   20.3785  -37.1327 H   0  0  0  0  0  0  0  0  0  0  0  0
    2.9696   22.5676  -36.5795 H   0  0  0  0  0  0  0  0  0  0  0  0
    1.2785   22.7140  -34.7601 H   0  0  0  0  0  0  0  0  0  0  0  0
    0.7652   21.2488  -32.3556 H   0  0  0  0  0  0  0  0  0  0  0  0
   -0.8155   22.5809  -33.2819 H   0  0  0  0  0  0  0  0  0  0  0  0
   -0.9606   21.5033  -34.7546 H   0  0  0  0  0  0  0  0  0  0  0  0
   -4.7435   21.4027  -29.3719 H   0  0  0  0  0  0  0  0  0  0  0  0
   -2.6554   21.3818  -28.0090 H   0  0  0  0  0  0  0  0  0  0  0  0
   -1.1636   23.3836  -27.9738 H   0  0  0  0  0  0  0  0  0  0  0  0
  1  2  2  0
  2  3  2  0
  2  4  1  0
  4  5  1  0
  5  6  2  0
  6  7  1  0
  7  8  2  0
  8  9  1  0
  9 10  2  0
 10 11  1  0
  8 12  1  0
 12 13  1  0
 13 14  1  0
 14 15  1  0
 15 16  1  0
 16 17  2  0
 17 18  1  0
 18 19  2  0
 19 20  1  0
 20 21  2  0
 21 22  1  0
 22 23  1  0
  2 24  1  0
 24 25  2  0
 25 26  1  0
 26 27  2  0
 27 28  1  0
 28 29  1  0
 28 30  2  0
 30 31  1  0
 10  5  1  0
 22 13  1  0
 30 24  1  0
 23  7  1  0
 21 16  1  0
  6 32  1  0
  9 33  1  0
 12 34  1  0
 12 35  1  0
 14 36  1  0
 14 37  1  0
 15 38  1  0
 15 39  1  0
 17 40  1  0
 18 41  1  0
 19 42  1  0
 20 43  1  0
 22 44  1  1
 23 45  1  0
 23 46  1  0
 25 47  1  0
 26 48  1  0
 27 49  1  0
M  CHG  4   4  -1  11  -1  29  -1  31  -1
M  END
>  <UniqueID>  (30) 
29

>  <SMILES>  (30) 
O=S(=O)([N-]c1cc2c(cc1[O-])CN1CCc3ccccc3[C@H]1C2)c1cccc([O-])c1[O-]

>  <Energy>  (30) 
79.96683307663882

>  <Genealogy>  (30) 
O=S(=O)([N-]c1cc2c(cc1[O-])CN1CCc3ccccc3C1C2)c1cccc([O-])c1[O-] (protonated)
O=S(=O)([N-]c1cc2c(cc1[O-])CN1CCc3ccccc3[C@H]1C2)c1cccc([O-])c1[O-] (chirality)
O=S(=O)([N-]c1cc2c(cc1[O-])CN1CCc3ccccc3[C@H]1C2)c1cccc([O-])c1[O-] (3D coordinates assigned)
O=S(=O)([N-]c1cc2c(cc1[O-])CN1CCc3ccccc3[C@H]1C2)c1cccc([O-])c1[O-] (nonaromatic ring conformer: 79.96683307663882 kcal/mol)

>  <smiles>  (30) 
O=S(=O)(Nc1cc2c(cc1O)CN1CCc3ccccc3C1C2)c1cccc(O)c1O

>  <score_type>  (30) 
oracle

>  <origin>  (30) 
adgpu

>  <m_score__min__energy>  (30) 
-15.6

>  <m_primary>  (30) 
energy

$$$$
30:0
     RDKit          3D

 58 61  0  0  0  0  0  0  0  0999 V2000
   -0.8220   22.6550  -31.0390 O   0  0  0  0  0  0  0  0  0  0  0  0
   -1.6560   21.6940  -30.2390 S   0  0  0  0  0  0  0  0  0  0  0  0
   -0.7490   20.9960  -29.2640 O   0  0  0  0  0  0  0  0  0  0  0  0
   -2.8700   22.5310  -29.3200 N   0  0  0  0  0  0  0  0  0  0  0  0
   -4.0190   23.2350  -29.8190 C   0  0  0  0  0  0  0  0  0  0  0  0
   -5.2270   22.5820  -30.1320 C   0  0  0  0  0  0  0  0  0  0  0  0
   -6.3340   23.3130  -30.5820 C   0  0  0  0  0  0  0  0  0  0  0  0
   -7.8410   22.4810  -30.9600 S   0  0  0  0  0  0  0  0  0  0  0  0
   -8.6610   23.3170  -31.9060 O   0  0  0  0  0  0  0  0  0  0  0  0
   -8.6250   22.2950  -29.6900 O   0  0  0  0  0  0  0  0  0  0  0  0
   -7.4930   20.9250  -31.6700 N   0  0  0  0  0  0  0  0  0  0  0  0
   -6.9040   21.1020  -33.0100 C   0  0  0  0  0  0  0  0  0  0  0  0
   -6.8490   19.7610  -33.7680 C   0  0  0  0  0  0  0  0  0  0  0  0
   -7.1050   18.6750  -32.9000 O   0  0  0  0  0  0  0  0  0  0  0  0
   -8.4300   18.7600  -32.4060 C   0  0  0  0  0  0  0  0  0  0  0  0
   -8.7260   20.1290  -31.7570 C   0  0  0  0  0  0  0  0  0  0  0  0
   -6.2290   24.6990  -30.7510 C   0  0  0  0  0  0  0  0  0  0  0  0
   -5.0280   25.3500  -30.4670 C   0  0  0  0  0  0  0  0  0  0  0  0
   -3.9270   24.6230  -30.0020 C   0  0  0  0  0  0  0  0  0  0  0  0
   -2.7380   25.2880  -29.7220 O   0  0  0  0  0  0  0  0  0  0  0  0
   -2.4040   20.4950  -31.3000 C   0  0  0  0  0  0  0  0  0  0  0  0
   -1.6280   19.7820  -32.2240 C   0  0  0  0  0  0  0  0  0  0  0  0
   -2.2210   18.8440  -33.0720 C   0  0  0  0  0  0  0  0  0  0  0  0
   -3.5980   18.6060  -33.0060 C   0  0  0  0  0  0  0  0  0  0  0  0
   -4.3310   17.4510  -34.1160 S   0  0  0  0  0  0  0  0  0  0  0  0
   -3.2720   16.5580  -34.7030 O   0  0  0  0  0  0  0  0  0  0  0  0
   -4.9940   18.2150  -35.2290 O   0  0  0  0  0  0  0  0  0  0  0  0
   -5.5150   16.5030  -33.2410 N   0  0  0  0  0  0  0  0  0  0  0  0
   -4.9630   15.9530  -31.9830 C   0  0  0  0  0  0  0  0  0  0  0  0
   -4.5450   14.4780  -32.1130 C   0  0  0  0  0  0  0  0  0  0  0  0
   -4.0860   14.2130  -33.4180 O   0  0  0  0  0  0  0  0  0  0  0  0
   -5.1640   14.2730  -34.3370 C   0  0  0  0  0  0  0  0  0  0  0  0
   -6.1210   15.4640  -34.0930 C   0  0  0  0  0  0  0  0  0  0  0  0
   -4.3790   19.3120  -32.0810 C   0  0  0  0  0  0  0  0  0  0  0  0
   -3.7850   20.2520  -31.2330 C   0  0  0  0  0  0  0  0  0  0  0  0
   -5.3017   21.4900  -30.0223 H   0  0  0  0  0  0  0  0  0  0  0  0
   -7.5172   21.8140  -33.5818 H   0  0  0  0  0  0  0  0  0  0  0  0
   -5.8786   21.4835  -32.8957 H   0  0  0  0  0  0  0  0  0  0  0  0
   -7.6053   19.7685  -34.5668 H   0  0  0  0  0  0  0  0  0  0  0  0
   -5.8409   19.6399  -34.1912 H   0  0  0  0  0  0  0  0  0  0  0  0
   -9.1295   18.6055  -33.2408 H   0  0  0  0  0  0  0  0  0  0  0  0
   -8.5512   17.9874  -31.6325 H   0  0  0  0  0  0  0  0  0  0  0  0
   -9.4650   20.6687  -32.3675 H   0  0  0  0  0  0  0  0  0  0  0  0
   -9.1227   19.9684  -30.7437 H   0  0  0  0  0  0  0  0  0  0  0  0
   -7.0949   25.2757  -31.1083 H   0  0  0  0  0  0  0  0  0  0  0  0
   -4.9467   26.4377  -30.6091 H   0  0  0  0  0  0  0  0  0  0  0  0
   -0.5444   19.9624  -32.2817 H   0  0  0  0  0  0  0  0  0  0  0  0
   -1.6031   18.2904  -33.7943 H   0  0  0  0  0  0  0  0  0  0  0  0
   -4.0809   16.5449  -31.6973 H   0  0  0  0  0  0  0  0  0  0  0  0
   -5.7542   16.0082  -31.2208 H   0  0  0  0  0  0  0  0  0  0  0  0
   -3.7397   14.2644  -31.3948 H   0  0  0  0  0  0  0  0  0  0  0  0
   -5.4159   13.8396  -31.9036 H   0  0  0  0  0  0  0  0  0  0  0  0
   -4.7506   14.3616  -35.3525 H   0  0  0  0  0  0  0  0  0  0  0  0
   -5.7530   13.3536  -34.2035 H   0  0  0  0  0  0  0  0  0  0  0  0
   -6.3840   15.9110  -35.0631 H   0  0  0  0  0  0  0  0  0  0  0  0
   -7.0111   15.0796  -33.5734 H   0  0  0  0  0  0  0  0  0  0  0  0
   -5.4616   19.1263  -32.0219 H   0  0  0  0  0  0  0  0  0  0  0  0
   -4.4031   20.8039  -30.5096 H   0  0  0  0  0  0  0  0  0  0  0  0
  1  2  2  0
  2  3  2  0
  2  4  1  0
  4  5  1  0
  5  6  2  0
  6  7  1  0
  7  8  1  0
  8  9  2  0
  8 10  2  0
  8 11  1  0
 11 12  1  0
 12 13  1  0
 13 14  1  0
 14 15  1  0
 15 16  1  0
  7 17  2  0
 17 18  1  0
 18 19  2  0
 19 20  1  0
  2 21  1  0
 21 22  2  0
 22 23  1  0
 23 24  2  0
 24 25  1  0
 25 26  2  0
 25 27  2  0
 25 28  1  0
 28 29  1  0
 29 30  1  0
 30 31  1  0
 31 32  1  0
 32 33  1  0
 24 34  1  0
 34 35  2  0
 19  5  1  0
 35 21  1  0
 16 11  1  0
 33 28  1  0
  6 36  1  0
 12 37  1  0
 12 38  1  0
 13 39  1  0
 13 40  1  0
 15 41  1  0
 15 42  1  0
 16 43  1  0
 16 44  1  0
 17 45  1  0
 18 46  1  0
 22 47  1  0
 23 48  1  0
 29 49  1  0
 29 50  1  0
 30 51  1  0
 30 52  1  0
 32 53  1  0
 32 54  1  0
 33 55  1  0
 33 56  1  0
 34 57  1  0
 35 58  1  0
M  CHG  2   4  -1  20  -1
M  END
>  <UniqueID>  (31) 
30

>  <SMILES>  (31) 
O=S(=O)([N-]c1cc(S(=O)(=O)N2CCOCC2)ccc1[O-])c1ccc(S(=O)(=O)N2CCOCC2)cc1

>  <Energy>  (31) 
84.13403258581609

>  <Genealogy>  (31) 
O=S(=O)([N-]c1cc(S(=O)(=O)N2CCOCC2)ccc1[O-])c1ccc(S(=O)(=O)N2CCOCC2)cc1 (protonated)
O=S(=O)([N-]c1cc(S(=O)(=O)N2CCOCC2)ccc1[O-])c1ccc(S(=O)(=O)N2CCOCC2)cc1 (3D coordinates assigned)
O=S(=O)([N-]c1cc(S(=O)(=O)N2CCOCC2)ccc1[O-])c1ccc(S(=O)(=O)N2CCOCC2)cc1 (nonaromatic ring conformer: 84.13403258581609 kcal/mol)

>  <smiles>  (31) 
O=S(=O)(Nc1cc(S(=O)(=O)N2CCOCC2)ccc1O)c1ccc(S(=O)(=O)N2CCOCC2)cc1

>  <score_type>  (31) 
oracle

>  <origin>  (31) 
adgpu

>  <m_score__min__energy>  (31) 
-15.33

>  <m_primary>  (31) 
energy

$$$$
31:0
     RDKit          3D

 68 71  0  0  0  0  0  0  0  0999 V2000
    0.6660   23.8560  -36.1110 C   0  0  0  0  0  0  0  0  0  0  0  0
    1.1280   22.7590  -35.2400 N   0  0  0  0  0  0  0  0  0  0  0  0
    2.5010   22.3770  -35.6170 C   0  0  0  0  0  0  0  0  0  0  0  0
    0.2230   21.5910  -35.3290 C   0  0  0  0  0  0  0  0  0  0  0  0
    0.1300   20.8760  -33.9760 C   0  0  0  0  0  0  0  0  0  0  0  0
   -1.2700   20.6690  -33.5830 N   0  0  0  0  0  0  0  0  0  0  0  0
   -1.8990   21.4010  -32.5110 C   0  0  0  0  0  0  0  0  0  0  0  0
   -1.2110   21.6160  -31.3020 C   0  0  0  0  0  0  0  0  0  0  0  0
   -1.8490   22.1910  -30.2000 C   0  0  0  0  0  0  0  0  0  0  0  0
   -1.0160   22.2650  -28.6480 S   0  0  0  0  0  0  0  0  0  0  0  0
   -1.9990   22.4750  -27.5290 O   0  0  0  0  0  0  0  0  0  0  0  0
   -0.2830   20.9750  -28.4040 O   0  0  0  0  0  0  0  0  0  0  0  0
    0.1340   23.5620  -28.7030 N   0  0  0  0  0  0  0  0  0  0  0  0
    0.0400   24.7060  -27.8500 C   0  0  0  0  0  0  0  0  0  0  0  0
    0.8190   24.8030  -26.6870 C   0  0  0  0  0  0  0  0  0  0  0  0
    0.6980   25.9220  -25.8460 C   0  0  0  0  0  0  0  0  0  0  0  0
   -0.2310   26.9300  -26.1480 C   0  0  0  0  0  0  0  0  0  0  0  0
   -0.9910   26.8390  -27.3250 C   0  0  0  0  0  0  0  0  0  0  0  0
   -0.8450   25.7420  -28.1800 C   0  0  0  0  0  0  0  0  0  0  0  0
   -1.5960   25.6730  -29.3470 O   0  0  0  0  0  0  0  0  0  0  0  0
   -0.4470   28.0970  -25.2040 C   0  0  0  0  0  0  0  0  0  0  0  0
    0.6360   28.3140  -24.1970 N   0  0  0  0  0  0  0  0  0  0  0  0
    0.9440   29.7480  -24.0560 C   0  0  0  0  0  0  0  0  0  0  0  0
    1.8770   27.5510  -24.4370 C   0  0  0  0  0  0  0  0  0  0  0  0
    1.5610   26.0690  -24.6340 C   0  0  0  0  0  0  0  0  0  0  0  0
   -3.1830   22.5920  -30.3090 C   0  0  0  0  0  0  0  0  0  0  0  0
   -3.8780   22.4330  -31.5140 C   0  0  0  0  0  0  0  0  0  0  0  0
   -5.5650   22.9430  -31.6250 S   0  0  0  0  0  0  0  0  0  0  0  0
   -5.9100   23.7690  -30.4170 O   0  0  0  0  0  0  0  0  0  0  0  0
   -5.7850   23.7860  -32.8490 O   0  0  0  0  0  0  0  0  0  0  0  0
   -6.6100   21.5340  -31.7160 C   0  0  0  0  0  0  0  0  0  0  0  0
   -6.0730   20.2650  -31.9860 C   0  0  0  0  0  0  0  0  0  0  0  0
   -6.9090   19.1450  -32.0390 C   0  0  0  0  0  0  0  0  0  0  0  0
   -8.2850   19.2870  -31.8370 C   0  0  0  0  0  0  0  0  0  0  0  0
   -8.8270   20.5490  -31.5820 C   0  0  0  0  0  0  0  0  0  0  0  0
   -7.9930   21.6730  -31.5200 C   0  0  0  0  0  0  0  0  0  0  0  0
   -3.2370   21.8500  -32.6240 C   0  0  0  0  0  0  0  0  0  0  0  0
   -3.9480   21.7450  -33.8240 O   0  0  0  0  0  0  0  0  0  0  0  0
    0.3134   24.6931  -35.4906 H   0  0  0  0  0  0  0  0  0  0  0  0
    1.4977   24.1951  -36.7460 H   0  0  0  0  0  0  0  0  0  0  0  0
   -0.1577   23.4979  -36.7460 H   0  0  0  0  0  0  0  0  0  0  0  0
    3.0980   22.2109  -34.7082 H   0  0  0  0  0  0  0  0  0  0  0  0
    2.4740   21.4523  -36.2121 H   0  0  0  0  0  0  0  0  0  0  0  0
    2.9555   23.1828  -36.2121 H   0  0  0  0  0  0  0  0  0  0  0  0
   -0.7793   21.9322  -35.6272 H   0  0  0  0  0  0  0  0  0  0  0  0
    0.6233   20.8883  -36.0746 H   0  0  0  0  0  0  0  0  0  0  0  0
    0.6305   19.8993  -34.0506 H   0  0  0  0  0  0  0  0  0  0  0  0
    0.6177   21.5030  -33.2150 H   0  0  0  0  0  0  0  0  0  0  0  0
   -1.8340   19.9530  -34.1100 H   0  0  0  0  0  0  0  0  0  0  0  0
   -0.1527   21.3263  -31.2234 H   0  0  0  0  0  0  0  0  0  0  0  0
    1.5268   24.0003  -26.4328 H   0  0  0  0  0  0  0  0  0  0  0  0
   -1.7062   27.6361  -27.5764 H   0  0  0  0  0  0  0  0  0  0  0  0
   -0.5364   29.0113  -25.8091 H   0  0  0  0  0  0  0  0  0  0  0  0
   -1.3536   27.8584  -24.6285 H   0  0  0  0  0  0  0  0  0  0  0  0
    0.9998   30.0078  -22.9886 H   0  0  0  0  0  0  0  0  0  0  0  0
    1.9092   29.9648  -24.5371 H   0  0  0  0  0  0  0  0  0  0  0  0
    0.1529   30.3420  -24.5371 H   0  0  0  0  0  0  0  0  0  0  0  0
    2.3724   27.9391  -25.3392 H   0  0  0  0  0  0  0  0  0  0  0  0
    2.5386   27.6621  -23.5653 H   0  0  0  0  0  0  0  0  0  0  0  0
    2.4957   25.5063  -24.7742 H   0  0  0  0  0  0  0  0  0  0  0  0
    1.0374   25.6758  -23.7501 H   0  0  0  0  0  0  0  0  0  0  0  0
   -3.6915   23.0364  -29.4407 H   0  0  0  0  0  0  0  0  0  0  0  0
   -4.9922   20.1515  -32.1562 H   0  0  0  0  0  0  0  0  0  0  0  0
   -6.4832   18.1509  -32.2399 H   0  0  0  0  0  0  0  0  0  0  0  0
   -8.9409   18.4050  -31.8789 H   0  0  0  0  0  0  0  0  0  0  0  0
   -9.9107   20.6604  -31.4296 H   0  0  0  0  0  0  0  0  0  0  0  0
   -8.4223   22.6653  -31.3176 H   0  0  0  0  0  0  0  0  0  0  0  0
   -4.5920   22.4480  -34.1600 H   0  0  0  0  0  0  0  0  0  0  0  0
  1  2  1  0
  2  3  1  0
  2  4  1  0
  4  5  1  0
  5  6  1  0
  6  7  1  0
  7  8  2  0
  8  9  1  0
  9 10  1  0
 10 11  2  0
 10 12  2  0
 10 13  1  0
 13 14  1  0
 14 15  2  0
 15 16  1  0
 16 17  2  0
 17 18  1  0
 18 19  2  0
 19 20  1  0
 17 21  1  0
 21 22  1  0
 22 23  1  0
 22 24  1  0
 24 25  1  0
  9 26  2  0
 26 27  1  0
 27 28  1  0
 28 29  2  0
 28 30  2  0
 28 31  1  0
 31 32  2  0
 32 33  1  0
 33 34  2  0
 34 35  1  0
 35 36  2  0
 27 37  2  0
 37 38  1  0
 37  7  1  0
 19 14  1  0
 36 31  1  0
 25 16  1  0
  1 39  1  0
  1 40  1  0
  1 41  1  0
  3 42  1  0
  3 43  1  0
  3 44  1  0
  4 45  1  0
  4 46  1  0
  5 47  1  0
  5 48  1  0
  6 49  1  0
  8 50  1  0
 15 51  1  0
 18 52  1  0
 21 53  1  0
 21 54  1  0
 23 55  1  0
 23 56  1  0
 23 57  1  0
 24 58  1  0
 24 59  1  0
 25 60  1  0
 25 61  1  0
 26 62  1  0
 32 63  1  0
 33 64  1  0
 34 65  1  0
 35 66  1  0
 36 67  1  0
 38 68  1  0
M  CHG  2  13  -1  20  -1
M  END
>  <UniqueID>  (32) 
31

>  <SMILES>  (32) 
CN(C)CCNc1cc(S(=O)(=O)[N-]c2cc3c(cc2[O-])CN(C)CC3)cc(S(=O)(=O)c2ccccc2)c1O

>  <Energy>  (32) 
89.09032288770705

>  <Genealogy>  (32) 
CN(C)CCNc1cc(S(=O)(=O)[N-]c2cc3c(cc2[O-])CN(C)CC3)cc(S(=O)(=O)c2ccccc2)c1O (protonated)
CN(C)CCNc1cc(S(=O)(=O)[N-]c2cc3c(cc2[O-])CN(C)CC3)cc(S(=O)(=O)c2ccccc2)c1O (3D coordinates assigned)
CN(C)CCNc1cc(S(=O)(=O)[N-]c2cc3c(cc2[O-])CN(C)CC3)cc(S(=O)(=O)c2ccccc2)c1O (nonaromatic ring conformer: 89.09032288770705 kcal/mol)

>  <smiles>  (32) 
CN(C)CCNc1cc(S(=O)(=O)Nc2cc3c(cc2O)CN(C)CC3)cc(S(=O)(=O)c2ccccc2)c1O

>  <score_type>  (32) 
oracle

>  <origin>  (32) 
adgpu

>  <m_score__min__energy>  (32) 
-14.26

>  <m_primary>  (32) 
energy

$$$$
32:0
     RDKit          3D

 61 64  0  0  1  0  0  0  0  0999 V2000
   -7.6040   23.7980  -30.9150 C   0  0  0  0  0  0  0  0  0  0  0  0
   -8.1930   23.1270  -32.0590 N   0  0  0  0  0  0  0  0  0  0  0  0
   -8.8410   21.6020  -31.6630 S   0  0  0  0  0  0  0  0  0  0  0  0
  -10.2170   21.5040  -32.2780 O   0  0  0  0  0  0  0  0  0  0  0  0
   -9.0460   21.5420  -30.1710 O   0  0  0  0  0  0  0  0  0  0  0  0
   -7.9180   20.2560  -32.2730 C   0  0  0  0  0  0  0  0  0  0  0  0
   -7.1970   20.4180  -33.4640 C   0  0  0  0  0  0  0  0  0  0  0  0
   -6.4680   19.3360  -33.9320 C   0  0  0  0  0  0  0  0  0  0  0  0
   -6.4320   18.1300  -33.2710 C   0  0  0  0  0  0  0  0  0  0  0  0
   -5.7070   16.9950  -33.7150 N   0  0  0  0  0  0  0  0  0  0  0  0
   -4.4680   17.1130  -33.9840 C   0  0  0  0  0  0  0  0  0  0  0  0
   -3.7710   18.2980  -33.8710 C   0  0  0  0  0  0  0  0  0  0  0  0
   -2.4140   18.2810  -34.1950 C   0  0  0  0  0  0  0  0  0  0  0  0
   -1.6280   19.4640  -34.1030 N   0  0  0  0  0  0  0  0  0  0  0  0
   -1.7050   20.3780  -33.0220 C   0  0  0  0  0  0  0  0  0  0  0  0
   -0.5900   20.5320  -32.1930 C   0  0  0  0  0  0  0  0  0  0  0  0
   -0.5950   21.3920  -31.1150 C   0  0  0  0  0  0  0  0  0  0  0  0
   -1.7430   22.1110  -30.8640 C   0  0  0  0  0  0  0  0  0  0  0  0
   -2.8680   21.9670  -31.6860 C   0  0  0  0  0  0  0  0  0  0  0  0
   -4.2960   22.9140  -31.2880 S   0  0  0  0  0  0  0  0  0  0  0  0
   -5.0330   22.3130  -29.7790 C   0  0  0  0  0  0  0  0  0  0  0  0
   -3.9640   24.3610  -31.0500 O   0  0  0  0  0  0  0  0  0  0  0  0
   -5.2830   22.7200  -32.4060 O   0  0  0  0  0  0  0  0  0  0  0  0
   -2.8400   21.1100  -32.7490 C   0  0  0  0  0  0  0  0  0  0  0  0
   -1.8490   17.1360  -34.5970 N   0  0  0  0  0  0  0  0  0  0  0  0
   -2.5100   15.9880  -34.7100 C   0  0  0  0  0  0  0  0  0  0  0  0
   -1.9980   14.8680  -35.0830 N   0  0  0  0  0  0  0  0  0  0  0  0
   -0.6140   14.8400  -35.4030 C   0  0  0  0  0  0  0  0  0  0  0  0
    0.3830   14.6560  -34.4700 C   0  0  0  0  0  0  0  0  0  0  0  0
    1.7090   14.6450  -34.8630 C   0  0  0  0  0  0  0  0  0  0  0  0
    1.9830   14.8260  -36.2120 C   0  0  0  0  0  0  0  0  0  0  0  0
    3.3430   14.8300  -36.7100 C   0  0  0  0  0  0  0  0  0  0  0  0
    4.4360   14.8140  -37.1120 N   0  0  0  0  0  0  0  0  0  0  0  0
    0.9940   15.0110  -37.1560 C   0  0  0  0  0  0  0  0  0  0  0  0
   -0.3130   15.0200  -36.7610 C   0  0  0  0  0  0  0  0  0  0  0  0
   -3.8320   15.9800  -34.4000 N   0  0  0  0  0  0  0  0  0  0  0  0
   -7.1570   17.9930  -32.0890 C   0  0  0  0  0  0  0  0  0  0  0  0
   -7.8920   19.0520  -31.6010 C   0  0  0  0  0  0  0  0  0  0  0  0
   -7.9945   23.3531  -29.9879 H   0  0  0  0  0  0  0  0  0  0  0  0
   -6.5105   23.6823  -30.9450 H   0  0  0  0  0  0  0  0  0  0  0  0
   -7.8605   24.8673  -30.9450 H   0  0  0  0  0  0  0  0  0  0  0  0
   -7.4170   22.9600  -32.7380 H   0  0  0  0  0  0  0  0  0  0  0  0
   -7.2093   21.3730  -34.0097 H   0  0  0  0  0  0  0  0  0  0  0  0
   -5.8974   19.4456  -34.8660 H   0  0  0  0  0  0  0  0  0  0  0  0
   -4.2665   19.2219  -33.5379 H   0  0  0  0  0  0  0  0  0  0  0  0
   -0.9660   19.6380  -34.8910 H   0  0  0  0  0  0  0  0  0  0  0  0
    0.3185   19.9498  -32.4069 H   0  0  0  0  0  0  0  0  0  0  0  0
    0.2922   21.5008  -30.4739 H   0  0  0  0  0  0  0  0  0  0  0  0
   -1.7765   22.8042  -30.0106 H   0  0  0  0  0  0  0  0  0  0  0  0
   -4.5045   22.7439  -28.9159 H   0  0  0  0  0  0  0  0  0  0  0  0
   -6.0921   22.6083  -29.7453 H   0  0  0  0  0  0  0  0  0  0  0  0
   -4.9569   21.2162  -29.7453 H   0  0  0  0  0  0  0  0  0  0  0  0
   -3.7275   21.0036  -33.3901 H   0  0  0  0  0  0  0  0  0  0  0  0
   -0.8420   17.1560  -34.8280 H   0  0  0  0  0  0  0  0  0  0  0  0
    0.1237   14.5175  -33.4100 H   0  0  0  0  0  0  0  0  0  0  0  0
    2.5181   14.4980  -34.1324 H   0  0  0  0  0  0  0  0  0  0  0  0
    1.2556   15.1497  -38.2154 H   0  0  0  0  0  0  0  0  0  0  0  0
   -1.1176   15.1662  -37.4967 H   0  0  0  0  0  0  0  0  0  0  0  0
   -4.3670   15.0910  -34.4840 H   0  0  0  0  0  0  0  0  0  0  0  0
   -7.1427   17.0376  -31.5441 H   0  0  0  0  0  0  0  0  0  0  0  0
   -8.4626   18.9358  -30.6678 H   0  0  0  0  0  0  0  0  0  0  0  0
  1  2  1  0
  2  3  1  0
  3  4  2  0
  3  5  2  0
  3  6  1  0
  6  7  2  0
  7  8  1  0
  8  9  2  0
  9 10  1  0
 10 11  2  0
 11 12  1  0
 12 13  2  0
 13 14  1  0
 14 15  1  0
 15 16  2  0
 16 17  1  0
 17 18  2  0
 18 19  1  0
 19 20  1  0
 20 21  1  0
 20 22  2  0
 20 23  2  0
 19 24  2  0
 13 25  1  0
 25 26  1  0
 26 27  2  0
 27 28  1  0
 28 29  2  0
 29 30  1  0
 30 31  2  0
 31 32  1  0
 32 33  3  0
 31 34  1  0
 34 35  2  0
 26 36  1  0
  9 37  1  0
 37 38  2  0
 38  6  1  0
 36 11  1  0
 24 15  1  0
 35 28  1  0
  1 39  1  0
  1 40  1  0
  1 41  1  0
  2 42  1  0
  7 43  1  0
  8 44  1  0
 12 45  1  0
 14 46  1  0
 16 47  1  0
 17 48  1  0
 18 49  1  0
 21 50  1  0
 21 51  1  0
 21 52  1  0
 24 53  1  0
 25 54  1  0
 29 55  1  0
 30 56  1  0
 34 57  1  0
 35 58  1  0
 36 59  1  0
 37 60  1  0
 38 61  1  0
M  END
>  <smiles>  (33) 
CNS(=O)(=O)c1ccc(N=c2cc(Nc3cccc(S(C)(=O)=O)c3)[nH]c(=Nc3ccc(C#N)cc3)[nH]2)cc1

>  <score_type>  (33) 
oracle

>  <origin>  (33) 
adgpu

>  <m_score__min__energy>  (33) 
-10.859999999999999

>  <m_primary>  (33) 
energy

$$$$
33:0
     RDKit          3D

 48 50  0  0  0  0  0  0  0  0999 V2000
   -3.2680   21.3120  -29.3700 O   0  0  0  0  0  0  0  0  0  0  0  0
   -3.5470   22.5330  -29.2190 C   0  0  0  0  0  0  0  0  0  0  0  0
   -2.8010   23.3270  -28.2810 N   0  0  0  0  0  0  0  0  0  0  0  0
   -1.7880   22.7520  -27.3950 C   0  0  0  0  0  0  0  0  0  0  0  0
   -1.2430   23.8050  -26.4150 C   0  0  1  0  0  0  0  0  0  0  0  0
    0.0460   24.4540  -26.9210 C   0  0  0  0  0  0  0  0  0  0  0  0
   -0.3910   25.8210  -27.3430 C   0  0  0  0  0  0  0  0  0  0  0  0
   -1.6290   26.0480  -26.5070 C   0  0  0  0  0  0  0  0  0  0  0  0
   -2.2240   24.8040  -26.2270 O   0  0  0  0  0  0  0  0  0  0  0  0
   -4.6180   23.1370  -30.0400 C   0  0  0  0  0  0  0  0  0  0  0  0
   -5.7460   22.3660  -30.3720 C   0  0  0  0  0  0  0  0  0  0  0  0
   -6.7760   22.9070  -31.1540 C   0  0  0  0  0  0  0  0  0  0  0  0
   -8.1960   21.9430  -31.5560 S   0  0  0  0  0  0  0  0  0  0  0  0
   -9.3300   22.8470  -31.9520 O   0  0  0  0  0  0  0  0  0  0  0  0
   -8.6110   21.1780  -30.3290 O   0  0  0  0  0  0  0  0  0  0  0  0
   -7.8350   20.8140  -32.8450 N   0  0  0  0  0  0  0  0  0  0  0  0
   -8.6130   19.5640  -32.7250 C   0  0  0  0  0  0  0  0  0  0  0  0
   -8.1060   18.6510  -31.5940 C   0  0  0  0  0  0  0  0  0  0  0  0
   -6.5710   18.6230  -31.4810 C   0  0  0  0  0  0  0  0  0  0  0  0
   -5.8960   19.1800  -32.7340 C   0  0  0  0  0  0  0  0  0  0  0  0
   -6.3740   20.6170  -33.0150 C   0  0  0  0  0  0  0  0  0  0  0  0
   -6.6890   24.2330  -31.5930 C   0  0  0  0  0  0  0  0  0  0  0  0
   -5.5830   25.0130  -31.2550 C   0  0  0  0  0  0  0  0  0  0  0  0
   -4.5520   24.4780  -30.4740 C   0  0  0  0  0  0  0  0  0  0  0  0
   -3.4880   25.2970  -30.1110 O   0  0  0  0  0  0  0  0  0  0  0  0
   -2.9750   24.3540  -28.2230 H   0  0  0  0  0  0  0  0  0  0  0  0
   -2.2385   21.9280  -26.8222 H   0  0  0  0  0  0  0  0  0  0  0  0
   -0.9539   22.3856  -28.0115 H   0  0  0  0  0  0  0  0  0  0  0  0
   -1.0094   23.2976  -25.4674 H   0  0  0  0  0  0  0  0  0  0  0  0
    0.7975   24.5117  -26.1198 H   0  0  0  0  0  0  0  0  0  0  0  0
    0.5195   23.8861  -27.7354 H   0  0  0  0  0  0  0  0  0  0  0  0
    0.3818   26.5711  -27.1189 H   0  0  0  0  0  0  0  0  0  0  0  0
   -0.5734   25.9060  -28.4244 H   0  0  0  0  0  0  0  0  0  0  0  0
   -1.3528   26.5455  -25.5656 H   0  0  0  0  0  0  0  0  0  0  0  0
   -2.3379   26.6852  -27.0560 H   0  0  0  0  0  0  0  0  0  0  0  0
   -5.8209   21.3284  -30.0147 H   0  0  0  0  0  0  0  0  0  0  0  0
   -9.6633   19.8219  -32.5242 H   0  0  0  0  0  0  0  0  0  0  0  0
   -8.5013   19.0128  -33.6703 H   0  0  0  0  0  0  0  0  0  0  0  0
   -8.5204   19.0116  -30.6410 H   0  0  0  0  0  0  0  0  0  0  0  0
   -8.4359   17.6277  -31.8265 H   0  0  0  0  0  0  0  0  0  0  0  0
   -6.2673   19.2288  -30.6145 H   0  0  0  0  0  0  0  0  0  0  0  0
   -6.2574   17.5753  -31.3625 H   0  0  0  0  0  0  0  0  0  0  0  0
   -4.8060   19.1842  -32.5857 H   0  0  0  0  0  0  0  0  0  0  0  0
   -6.1613   18.5443  -33.5916 H   0  0  0  0  0  0  0  0  0  0  0  0
   -5.8514   21.2959  -32.3252 H   0  0  0  0  0  0  0  0  0  0  0  0
   -6.1466   20.8260  -34.0707 H   0  0  0  0  0  0  0  0  0  0  0  0
   -7.4953   24.6615  -32.2065 H   0  0  0  0  0  0  0  0  0  0  0  0
   -5.5208   26.0543  -31.6042 H   0  0  0  0  0  0  0  0  0  0  0  0
  1  2  2  0
  2  3  1  0
  3  4  1  0
  4  5  1  0
  5  6  1  0
  6  7  1  0
  7  8  1  0
  8  9  1  0
  2 10  1  0
 10 11  2  0
 11 12  1  0
 12 13  1  0
 13 14  2  0
 13 15  2  0
 13 16  1  0
 16 17  1  0
 17 18  1  0
 18 19  1  0
 19 20  1  0
 20 21  1  0
 12 22  2  0
 22 23  1  0
 23 24  2  0
 24 25  1  0
  9  5  1  0
 24 10  1  0
 21 16  1  0
  3 26  1  0
  4 27  1  0
  4 28  1  0
  5 29  1  1
  6 30  1  0
  6 31  1  0
  7 32  1  0
  7 33  1  0
  8 34  1  0
  8 35  1  0
 11 36  1  0
 17 37  1  0
 17 38  1  0
 18 39  1  0
 18 40  1  0
 19 41  1  0
 19 42  1  0
 20 43  1  0
 20 44  1  0
 21 45  1  0
 21 46  1  0
 22 47  1  0
 23 48  1  0
M  CHG  1  25  -1
M  END
>  <UniqueID>  (34) 
32

>  <SMILES>  (34) 
O=C(NC[C@H]1CCCO1)c1cc(S(=O)(=O)N2CCCCC2)ccc1[O-]

>  <Energy>  (34) 
55.95276855233352

>  <Genealogy>  (34) 
O=C(NCC1CCCO1)c1cc(S(=O)(=O)N2CCCCC2)ccc1[O-] (protonated)
O=C(NC[C@H]1CCCO1)c1cc(S(=O)(=O)N2CCCCC2)ccc1[O-] (chirality)
O=C(NC[C@H]1CCCO1)c1cc(S(=O)(=O)N2CCCCC2)ccc1[O-] (3D coordinates assigned)
O=C(NC[C@H]1CCCO1)c1cc(S(=O)(=O)N2CCCCC2)ccc1[O-] (nonaromatic ring conformer: 55.95276855233352 kcal/mol)

>  <smiles>  (34) 
O=C(NCC1CCCO1)c1cc(S(=O)(=O)N2CCCCC2)ccc1O

>  <score_type>  (34) 
oracle

>  <origin>  (34) 
adgpu

>  <m_score__min__energy>  (34) 
-11.630000000000001

>  <m_primary>  (34) 
energy

$$$$
34:0
     RDKit          3D

 50 53  0  0  1  0  0  0  0  0999 V2000
   -7.2320   15.1860  -34.3120 O   0  0  0  0  0  0  0  0  0  0  0  0
   -6.1840   15.8730  -34.1990 C   0  0  0  0  0  0  0  0  0  0  0  0
   -4.9980   15.2910  -34.5750 O   0  0  0  0  0  0  0  0  0  0  0  0
   -6.2710   17.2240  -33.6900 C   0  0  0  0  0  0  0  0  0  0  0  0
   -5.3030   18.1670  -34.0110 C   0  0  0  0  0  0  0  0  0  0  0  0
   -5.3690   19.4660  -33.5320 C   0  0  0  0  0  0  0  0  0  0  0  0
   -6.4190   19.8820  -32.7020 C   0  0  0  0  0  0  0  0  0  0  0  0
   -6.4090   21.2170  -32.2590 N   0  0  0  0  0  0  0  0  0  0  0  0
   -7.5470   22.0550  -32.4510 C   0  0  0  0  0  0  0  0  0  0  0  0
   -7.8570   22.6790  -31.1130 C   0  0  0  0  0  0  0  0  0  0  0  0
   -6.6620   23.5380  -30.8500 C   0  0  0  0  0  0  0  0  0  0  0  0
   -6.8990   24.7600  -30.3680 N   0  0  0  0  0  0  0  0  0  0  0  0
   -5.8480   25.5490  -30.1150 C   0  0  0  0  0  0  0  0  0  0  0  0
   -4.5970   25.1470  -30.3280 N   0  0  0  0  0  0  0  0  0  0  0  0
   -4.3530   23.8980  -30.8190 C   0  0  0  0  0  0  0  0  0  0  0  0
   -3.1270   23.6060  -30.9740 N   0  0  0  0  0  0  0  0  0  0  0  0
   -2.7230   22.3510  -31.4720 C   0  0  0  0  0  0  0  0  0  0  0  0
   -2.4660   21.6520  -30.1350 C   0  0  0  0  0  0  0  0  0  0  0  0
   -3.2120   21.9530  -29.0170 C   0  0  0  0  0  0  0  0  0  0  0  0
   -2.9980   21.3480  -27.7840 C   0  0  0  0  0  0  0  0  0  0  0  0
   -1.9880   20.4150  -27.7370 C   0  0  0  0  0  0  0  0  0  0  0  0
   -1.7370   19.7520  -26.4320 C   0  0  0  0  0  0  0  0  0  0  0  0
   -2.9200   19.2530  -25.8800 F   0  0  0  0  0  0  0  0  0  0  0  0
   -1.2470   20.6350  -25.4840 F   0  0  0  0  0  0  0  0  0  0  0  0
   -0.8430   18.6960  -26.5850 F   0  0  0  0  0  0  0  0  0  0  0  0
   -1.2220   20.0800  -28.8110 C   0  0  0  0  0  0  0  0  0  0  0  0
   -1.4750   20.7090  -30.0090 C   0  0  0  0  0  0  0  0  0  0  0  0
   -5.4080   23.0190  -31.1080 C   0  0  0  0  0  0  0  0  0  0  0  0
   -5.1390   21.6830  -31.6370 C   0  0  0  0  0  0  0  0  0  0  0  0
   -7.3580   18.9320  -32.4030 C   0  0  0  0  0  0  0  0  0  0  0  0
   -8.7220   19.3130  -31.3820 Cl  0  0  0  0  0  0  0  0  0  0  0  0
   -7.2910   17.6230  -32.8860 C   0  0  0  0  0  0  0  0  0  0  0  0
   -4.4490   15.6710  -35.3570 H   0  0  0  0  0  0  0  0  0  0  0  0
   -4.4643   17.8761  -34.6606 H   0  0  0  0  0  0  0  0  0  0  0  0
   -4.5826   20.1838  -33.8084 H   0  0  0  0  0  0  0  0  0  0  0  0
   -7.3213   22.8371  -33.1908 H   0  0  0  0  0  0  0  0  0  0  0  0
   -8.4047   21.4775  -32.8263 H   0  0  0  0  0  0  0  0  0  0  0  0
   -8.7742   23.2842  -31.1633 H   0  0  0  0  0  0  0  0  0  0  0  0
   -8.0358   21.9357  -30.3221 H   0  0  0  0  0  0  0  0  0  0  0  0
   -7.8870   25.0910  -30.1950 H   0  0  0  0  0  0  0  0  0  0  0  0
   -6.0232   26.5602  -29.7191 H   0  0  0  0  0  0  0  0  0  0  0  0
   -3.5181   21.8590  -32.0514 H   0  0  0  0  0  0  0  0  0  0  0  0
   -1.8775   22.3646  -32.1755 H   0  0  0  0  0  0  0  0  0  0  0  0
   -4.0110   22.7040  -29.1035 H   0  0  0  0  0  0  0  0  0  0  0  0
   -3.6002   21.6001  -26.8987 H   0  0  0  0  0  0  0  0  0  0  0  0
   -0.4237   19.3282  -28.7242 H   0  0  0  0  0  0  0  0  0  0  0  0
   -0.8676   20.4497  -30.8887 H   0  0  0  0  0  0  0  0  0  0  0  0
   -4.3389   21.7256  -32.3906 H   0  0  0  0  0  0  0  0  0  0  0  0
   -4.8073   20.9977  -30.8431 H   0  0  0  0  0  0  0  0  0  0  0  0
   -8.0766   16.9038  -32.6110 H   0  0  0  0  0  0  0  0  0  0  0  0
  1  2  2  0
  2  3  1  0
  2  4  1  0
  4  5  2  0
  5  6  1  0
  6  7  2  0
  7  8  1  0
  8  9  1  0
  9 10  1  0
 10 11  1  0
 11 12  1  0
 12 13  1  0
 13 14  2  0
 14 15  1  0
 15 16  2  0
 16 17  1  0
 17 18  1  0
 18 19  2  0
 19 20  1  0
 20 21  2  0
 21 22  1  0
 22 23  1  0
 22 24  1  0
 22 25  1  0
 21 26  1  0
 26 27  2  0
 15 28  1  0
 28 29  1  0
  7 30  1  0
 30 31  1  0
 30 32  2  0
 32  4  1  0
 29  8  1  0
 28 11  2  0
 27 18  1  0
  3 33  1  0
  5 34  1  0
  6 35  1  0
  9 36  1  0
  9 37  1  0
 10 38  1  0
 10 39  1  0
 12 40  1  0
 13 41  1  0
 17 42  1  0
 17 43  1  0
 19 44  1  0
 20 45  1  0
 26 46  1  0
 27 47  1  0
 29 48  1  0
 29 49  1  0
 32 50  1  0
M  END
>  <smiles>  (35) 
O=C(O)c1ccc(N2CCc3[nH]cnc(=NCc4ccc(C(F)(F)F)cc4)c3C2)c(Cl)c1

>  <score_type>  (35) 
oracle

>  <origin>  (35) 
adgpu

>  <m_score__min__energy>  (35) 
-9.2699999999999996

>  <m_primary>  (35) 
energy

$$$$
35:0
     RDKit          3D

 60 64  0  0  0  0  0  0  0  0999 V2000
   -7.2580   22.9400  -30.6960 C   0  0  0  0  0  0  0  0  0  0  0  0
   -8.6240   21.9600  -31.2730 S   0  0  0  0  0  0  0  0  0  0  0  0
   -9.4490   22.7600  -32.2370 O   0  0  0  0  0  0  0  0  0  0  0  0
   -9.4890   21.5550  -30.1090 O   0  0  0  0  0  0  0  0  0  0  0  0
   -7.9990   20.5180  -32.0700 C   0  0  0  0  0  0  0  0  0  0  0  0
   -8.4810   19.2510  -31.7110 C   0  0  0  0  0  0  0  0  0  0  0  0
   -7.9810   18.1020  -32.3330 C   0  0  0  0  0  0  0  0  0  0  0  0
   -7.0010   18.2110  -33.3340 C   0  0  0  0  0  0  0  0  0  0  0  0
   -6.4900   17.0050  -34.0190 C   0  0  0  0  0  0  0  0  0  0  0  0
   -7.0950   15.9020  -33.8800 O   0  0  0  0  0  0  0  0  0  0  0  0
   -5.2980   17.0380  -34.8130 N   0  0  0  0  0  0  0  0  0  0  0  0
   -3.9630   17.2060  -34.3110 C   0  0  0  0  0  0  0  0  0  0  0  0
   -2.9740   16.2260  -34.5170 C   0  0  0  0  0  0  0  0  0  0  0  0
   -1.6900   16.4070  -34.0010 C   0  0  0  0  0  0  0  0  0  0  0  0
   -1.3830   17.5550  -33.2690 C   0  0  0  0  0  0  0  0  0  0  0  0
   -2.3690   18.5290  -33.0270 C   0  0  0  0  0  0  0  0  0  0  0  0
   -2.0530   19.7610  -32.2730 C   0  0  0  0  0  0  0  0  0  0  0  0
   -2.8800   20.1240  -31.2470 N   0  0  0  0  0  0  0  0  0  0  0  0
   -2.6760   21.2580  -30.5270 C   0  0  0  0  0  0  0  0  0  0  0  0
   -3.5490   21.6220  -29.4930 C   0  0  0  0  0  0  0  0  0  0  0  0
   -3.3220   22.8000  -28.7640 C   0  0  0  0  0  0  0  0  0  0  0  0
   -2.2150   23.6220  -29.0580 C   0  0  0  0  0  0  0  0  0  0  0  0
   -1.9680   24.8610  -28.2870 C   0  0  0  0  0  0  0  0  0  0  0  0
   -2.0610   24.8670  -27.0290 O   0  0  0  0  0  0  0  0  0  0  0  0
   -1.6120   26.0350  -28.9390 O   0  0  0  0  0  0  0  0  0  0  0  0
   -1.3440   23.2500  -30.1000 C   0  0  0  0  0  0  0  0  0  0  0  0
   -1.5740   22.0780  -30.8310 C   0  0  0  0  0  0  0  0  0  0  0  0
   -0.7350   21.7140  -31.8350 N   0  0  0  0  0  0  0  0  0  0  0  0
   -0.9380   20.5850  -32.5740 C   0  0  0  0  0  0  0  0  0  0  0  0
    0.0570   20.2140  -33.5490 N   0  0  0  0  0  0  0  0  0  0  0  0
   -0.2030   20.5850  -34.9570 C   0  0  0  0  0  0  0  0  0  0  0  0
    1.0840   20.7010  -35.8080 C   0  0  0  0  0  0  0  0  0  0  0  0
    2.2230   20.9660  -35.0170 O   0  0  0  0  0  0  0  0  0  0  0  0
    2.4460   19.8660  -34.1620 C   0  0  0  0  0  0  0  0  0  0  0  0
    1.3960   19.8460  -33.0560 C   0  0  0  0  0  0  0  0  0  0  0  0
   -3.6560   18.3470  -33.5610 C   0  0  0  0  0  0  0  0  0  0  0  0
   -6.5090   19.4810  -33.6800 C   0  0  0  0  0  0  0  0  0  0  0  0
   -7.0040   20.6250  -33.0510 C   0  0  0  0  0  0  0  0  0  0  0  0
   -7.2498   22.9459  -29.5960 H   0  0  0  0  0  0  0  0  0  0  0  0
   -6.3159   22.5105  -31.0674 H   0  0  0  0  0  0  0  0  0  0  0  0
   -7.3630   23.9701  -31.0674 H   0  0  0  0  0  0  0  0  0  0  0  0
   -9.2564   19.1601  -30.9361 H   0  0  0  0  0  0  0  0  0  0  0  0
   -8.3559   17.1109  -32.0377 H   0  0  0  0  0  0  0  0  0  0  0  0
   -3.2136   15.3155  -35.0859 H   0  0  0  0  0  0  0  0  0  0  0  0
   -0.9176   15.6426  -34.1717 H   0  0  0  0  0  0  0  0  0  0  0  0
   -0.3645   17.6991  -32.8792 H   0  0  0  0  0  0  0  0  0  0  0  0
   -4.4125   20.9844  -29.2525 H   0  0  0  0  0  0  0  0  0  0  0  0
   -4.0134   23.0840  -27.9569 H   0  0  0  0  0  0  0  0  0  0  0  0
   -0.4779   23.8838  -30.3412 H   0  0  0  0  0  0  0  0  0  0  0  0
   -0.8504   19.8175  -35.4063 H   0  0  0  0  0  0  0  0  0  0  0  0
   -0.6787   21.5768  -34.9496 H   0  0  0  0  0  0  0  0  0  0  0  0
    1.2391   19.7547  -36.3469 H   0  0  0  0  0  0  0  0  0  0  0  0
    0.9536   21.5415  -36.5055 H   0  0  0  0  0  0  0  0  0  0  0  0
    2.3817   18.9340  -34.7427 H   0  0  0  0  0  0  0  0  0  0  0  0
    3.4452   19.9552  -33.7107 H   0  0  0  0  0  0  0  0  0  0  0  0
    1.3500   18.8328  -32.6302 H   0  0  0  0  0  0  0  0  0  0  0  0
    1.6910   20.5872  -32.2986 H   0  0  0  0  0  0  0  0  0  0  0  0
   -4.4301   19.1091  -33.3878 H   0  0  0  0  0  0  0  0  0  0  0  0
   -5.7296   19.5744  -34.4506 H   0  0  0  0  0  0  0  0  0  0  0  0
   -6.6112   21.6148  -33.3267 H   0  0  0  0  0  0  0  0  0  0  0  0
  1  2  1  0
  2  3  2  0
  2  4  2  0
  2  5  1  0
  5  6  2  0
  6  7  1  0
  7  8  2  0
  8  9  1  0
  9 10  2  0
  9 11  1  0
 11 12  1  0
 12 13  2  0
 13 14  1  0
 14 15  2  0
 15 16  1  0
 16 17  1  0
 17 18  2  0
 18 19  1  0
 19 20  2  0
 20 21  1  0
 21 22  2  0
 22 23  1  0
 23 24  2  0
 23 25  1  0
 22 26  1  0
 26 27  2  0
 27 28  1  0
 28 29  2  0
 29 30  1  0
 30 31  1  0
 31 32  1  0
 32 33  1  0
 33 34  1  0
 34 35  1  0
 16 36  2  0
  8 37  1  0
 37 38  2  0
 38  5  1  0
 36 12  1  0
 29 17  1  0
 35 30  1  0
 27 19  1  0
  1 39  1  0
  1 40  1  0
  1 41  1  0
  6 42  1  0
  7 43  1  0
 13 44  1  0
 14 45  1  0
 15 46  1  0
 20 47  1  0
 21 48  1  0
 26 49  1  0
 31 50  1  0
 31 51  1  0
 32 52  1  0
 32 53  1  0
 34 54  1  0
 34 55  1  0
 35 56  1  0
 35 57  1  0
 36 58  1  0
 37 59  1  0
 38 60  1  0
M  CHG  2  11  -1  25  -1
M  END
>  <UniqueID>  (36) 
33

>  <SMILES>  (36) 
CS(=O)(=O)c1ccc(C(=O)[N-]c2cccc(-c3nc4ccc(C(=O)[O-])cc4nc3N3CCOCC3)c2)cc1

>  <Energy>  (36) 
90.25669476636745

>  <Genealogy>  (36) 
CS(=O)(=O)c1ccc(C(=O)[N-]c2cccc(-c3nc4ccc(C(=O)[O-])cc4nc3N3CCOCC3)c2)cc1 (protonated)
CS(=O)(=O)c1ccc(C(=O)[N-]c2cccc(-c3nc4ccc(C(=O)[O-])cc4nc3N3CCOCC3)c2)cc1 (3D coordinates assigned)
CS(=O)(=O)c1ccc(C(=O)[N-]c2cccc(-c3nc4ccc(C(=O)[O-])cc4nc3N3CCOCC3)c2)cc1 (nonaromatic ring conformer: 90.25669476636745 kcal/mol)

>  <smiles>  (36) 
CS(=O)(=O)c1ccc(C(=O)Nc2cccc(-c3nc4ccc(C(=O)O)cc4nc3N3CCOCC3)c2)cc1

>  <score_type>  (36) 
oracle

>  <origin>  (36) 
adgpu

>  <m_score__min__energy>  (36) 
-12.109999999999999

>  <m_primary>  (36) 
energy

$$$$
36:0
     RDKit          3D

 46 49  0  0  0  0  0  0  0  0999 V2000
   -9.9240   21.1880  -32.0480 C   0  0  0  0  0  0  0  0  0  0  0  0
   -8.4350   21.2470  -32.0030 C   0  0  0  0  0  0  0  0  0  0  0  0
   -7.5730   20.2510  -32.4190 C   0  0  0  0  0  0  0  0  0  0  0  0
   -6.3180   20.7460  -32.1290 C   0  0  0  0  0  0  0  0  0  0  0  0
   -5.0470   20.0730  -32.4720 C   0  0  0  0  0  0  0  0  0  0  0  0
   -3.8570   20.8130  -32.4780 C   0  0  0  0  0  0  0  0  0  0  0  0
   -2.6320   20.2140  -32.8220 C   0  0  0  0  0  0  0  0  0  0  0  0
   -1.4280   21.0690  -32.8970 C   0  0  0  0  0  0  0  0  0  0  0  0
   -1.3970   22.1750  -32.2920 O   0  0  0  0  0  0  0  0  0  0  0  0
   -0.2950   20.6260  -33.6570 N   0  0  0  0  0  0  0  0  0  0  0  0
    0.5130   21.4250  -34.5340 C   0  0  0  0  0  0  0  0  0  0  0  0
    1.9050   21.2480  -34.6360 C   0  0  0  0  0  0  0  0  0  0  0  0
    2.6510   22.0320  -35.5230 C   0  0  0  0  0  0  0  0  0  0  0  0
    2.0140   22.9850  -36.3240 C   0  0  0  0  0  0  0  0  0  0  0  0
    2.7570   23.7630  -37.2020 O   0  0  0  0  0  0  0  0  0  0  0  0
    0.6280   23.1500  -36.2430 C   0  0  0  0  0  0  0  0  0  0  0  0
   -0.1200   22.3660  -35.3570 C   0  0  0  0  0  0  0  0  0  0  0  0
   -2.6040   18.8280  -33.1150 C   0  0  0  0  0  0  0  0  0  0  0  0
   -1.4190   18.1390  -33.3800 O   0  0  0  0  0  0  0  0  0  0  0  0
   -3.7950   18.0950  -33.1070 C   0  0  0  0  0  0  0  0  0  0  0  0
   -5.0080   18.7020  -32.7770 C   0  0  0  0  0  0  0  0  0  0  0  0
   -6.1630   17.9280  -32.7290 O   0  0  0  0  0  0  0  0  0  0  0  0
   -6.4530   21.9610  -31.5410 N   0  0  0  0  0  0  0  0  0  0  0  0
   -5.4210   22.8010  -30.9930 C   0  0  0  0  0  0  0  0  0  0  0  0
   -5.3780   24.1630  -31.3310 C   0  0  0  0  0  0  0  0  0  0  0  0
   -4.3880   24.9930  -30.7980 C   0  0  0  0  0  0  0  0  0  0  0  0
   -3.4410   24.4730  -29.9110 C   0  0  0  0  0  0  0  0  0  0  0  0
   -2.4560   25.2990  -29.3810 O   0  0  0  0  0  0  0  0  0  0  0  0
   -3.4880   23.1230  -29.5520 C   0  0  0  0  0  0  0  0  0  0  0  0
   -4.4770   22.2900  -30.0840 C   0  0  0  0  0  0  0  0  0  0  0  0
   -7.7390   22.2660  -31.4630 N   0  0  0  0  0  0  0  0  0  0  0  0
  -10.3215   21.1722  -31.0224 H   0  0  0  0  0  0  0  0  0  0  0  0
  -10.3101   22.0715  -32.5774 H   0  0  0  0  0  0  0  0  0  0  0  0
  -10.2390   20.2767  -32.5774 H   0  0  0  0  0  0  0  0  0  0  0  0
   -7.8286   19.2841  -32.8769 H   0  0  0  0  0  0  0  0  0  0  0  0
   -3.8814   21.8794  -32.2094 H   0  0  0  0  0  0  0  0  0  0  0  0
    2.4084   20.4910  -34.0166 H   0  0  0  0  0  0  0  0  0  0  0  0
    3.7408   21.8984  -35.5904 H   0  0  0  0  0  0  0  0  0  0  0  0
    0.1252   23.8962  -36.8758 H   0  0  0  0  0  0  0  0  0  0  0  0
   -1.2119   22.4894  -35.3064 H   0  0  0  0  0  0  0  0  0  0  0  0
   -0.5430   18.5960  -33.5910 H   0  0  0  0  0  0  0  0  0  0  0  0
   -3.7757   17.0257  -33.3642 H   0  0  0  0  0  0  0  0  0  0  0  0
   -6.1281   24.5793  -32.0195 H   0  0  0  0  0  0  0  0  0  0  0  0
   -4.3540   26.0565  -31.0768 H   0  0  0  0  0  0  0  0  0  0  0  0
   -2.7458   22.7153  -28.8499 H   0  0  0  0  0  0  0  0  0  0  0  0
   -4.5170   21.2306  -29.7904 H   0  0  0  0  0  0  0  0  0  0  0  0
  1  2  1  0
  2  3  1  0
  3  4  2  0
  4  5  1  0
  5  6  2  0
  6  7  1  0
  7  8  1  0
  8  9  2  0
  8 10  1  0
 10 11  1  0
 11 12  2  0
 12 13  1  0
 13 14  2  0
 14 15  1  0
 14 16  1  0
 16 17  2  0
  7 18  2  0
 18 19  1  0
 18 20  1  0
 20 21  2  0
 21 22  1  0
  4 23  1  0
 23 24  1  0
 24 25  2  0
 25 26  1  0
 26 27  2  0
 27 28  1  0
 27 29  1  0
 29 30  2  0
 23 31  1  0
 31  2  2  0
 21  5  1  0
 30 24  1  0
 17 11  1  0
  1 32  1  0
  1 33  1  0
  1 34  1  0
  3 35  1  0
  6 36  1  0
 12 37  1  0
 13 38  1  0
 16 39  1  0
 17 40  1  0
 19 41  1  0
 20 42  1  0
 25 43  1  0
 26 44  1  0
 29 45  1  0
 30 46  1  0
M  CHG  4  10  -1  15  -1  22  -1  28  -1
M  END
>  <UniqueID>  (37) 
34

>  <SMILES>  (37) 
Cc1cc(-c2cc(C(=O)[N-]c3ccc([O-])cc3)c(O)cc2[O-])n(-c2ccc([O-])cc2)n1

>  <Energy>  (37) 
99.1377508786235

>  <Genealogy>  (37) 
Cc1cc(-c2cc(C(=O)[N-]c3ccc([O-])cc3)c(O)cc2[O-])n(-c2ccc([O-])cc2)n1 (protonated)
Cc1cc(-c2cc(C(=O)[N-]c3ccc([O-])cc3)c(O)cc2[O-])n(-c2ccc([O-])cc2)n1 (3D coordinates assigned)
Cc1cc(-c2cc(C(=O)[N-]c3ccc([O-])cc3)c(O)cc2[O-])n(-c2ccc([O-])cc2)n1 (optimized conformer: 99.1377508786235 kcal/mol)

>  <smiles>  (37) 
Cc1cc(-c2cc(C(=O)Nc3ccc(O)cc3)c(O)cc2O)n(-c2ccc(O)cc2)n1

>  <score_type>  (37) 
oracle

>  <origin>  (37) 
adgpu

>  <m_score__min__energy>  (37) 
-12.02

>  <m_primary>  (37) 
energy

$$$$
37:0
     RDKit          3D

 75 78  0  0  0  0  0  0  0  0999 V2000
   -5.1270   25.7820  -30.4620 C   0  0  0  0  0  0  0  0  0  0  0  0
   -4.9120   24.5920  -31.2110 O   0  0  0  0  0  0  0  0  0  0  0  0
   -5.8350   23.5390  -31.3190 C   0  0  0  0  0  0  0  0  0  0  0  0
   -7.2240   23.7590  -31.2720 C   0  0  0  0  0  0  0  0  0  0  0  0
   -8.1150   22.6910  -31.4030 C   0  0  0  0  0  0  0  0  0  0  0  0
   -7.6380   21.3890  -31.5990 C   0  0  0  0  0  0  0  0  0  0  0  0
   -8.6030   20.2540  -31.8300 C   0  0  0  0  0  0  0  0  0  0  0  0
   -7.9540   18.9420  -31.6690 N   0  0  0  0  0  0  0  0  0  0  0  0
   -7.5830   18.3130  -32.9610 C   0  0  0  0  0  0  0  0  0  0  0  0
   -6.8170   16.9900  -32.7090 C   0  0  0  0  0  0  0  0  0  0  0  0
   -5.3070   17.2330  -32.6790 C   0  0  0  0  0  0  0  0  0  0  0  0
   -4.8070   17.6850  -34.0000 N   0  0  0  0  0  0  0  0  0  0  0  0
   -3.4990   18.3450  -33.8510 C   0  0  0  0  0  0  0  0  0  0  0  0
   -5.7660   18.5400  -34.7490 C   0  0  0  0  0  0  0  0  0  0  0  0
   -6.7330   19.2910  -33.8220 C   0  0  0  0  0  0  0  0  0  0  0  0
   -6.2530   21.1670  -31.6610 C   0  0  0  0  0  0  0  0  0  0  0  0
   -5.3520   22.2250  -31.4700 C   0  0  0  0  0  0  0  0  0  0  0  0
   -3.9020   21.9620  -31.5420 C   0  0  0  0  0  0  0  0  0  0  0  0
   -3.3790   21.5620  -32.7830 C   0  0  0  0  0  0  0  0  0  0  0  0
   -2.0090   21.3680  -32.9510 C   0  0  0  0  0  0  0  0  0  0  0  0
   -1.1400   21.5800  -31.8830 C   0  0  0  0  0  0  0  0  0  0  0  0
   -1.6420   21.9670  -30.6410 C   0  0  0  0  0  0  0  0  0  0  0  0
   -3.0220   22.1370  -30.4360 C   0  0  0  0  0  0  0  0  0  0  0  0
   -3.5580   22.5540  -28.7880 S   0  0  0  0  0  0  0  0  0  0  0  0
   -5.0610   22.6420  -28.8010 O   0  0  0  0  0  0  0  0  0  0  0  0
   -3.1750   21.4910  -27.8010 O   0  0  0  0  0  0  0  0  0  0  0  0
   -2.8940   24.0800  -28.2360 N   0  0  0  0  0  0  0  0  0  0  0  0
   -3.2390   24.2970  -26.8240 C   0  0  0  0  0  0  0  0  0  0  0  0
   -2.7390   25.6650  -26.3390 C   0  0  0  0  0  0  0  0  0  0  0  0
   -1.3000   26.0280  -26.8080 C   0  0  0  0  0  0  0  0  0  0  0  0
   -0.5420   26.6660  -25.6900 N   0  0  0  0  0  0  0  0  0  0  0  0
   -0.8510   25.9990  -24.4070 C   0  0  0  0  0  0  0  0  0  0  0  0
   -0.8430   28.1050  -25.5430 C   0  0  0  0  0  0  0  0  0  0  0  0
   -0.6000   24.7650  -27.3620 C   0  0  0  0  0  0  0  0  0  0  0  0
   -1.4280   24.0960  -28.4780 C   0  0  0  0  0  0  0  0  0  0  0  0
   -5.0853   25.5514  -29.3873 H   0  0  0  0  0  0  0  0  0  0  0  0
   -4.3471   26.5171  -30.7098 H   0  0  0  0  0  0  0  0  0  0  0  0
   -6.1148   26.1978  -30.7098 H   0  0  0  0  0  0  0  0  0  0  0  0
   -7.6110   24.7790  -31.1311 H   0  0  0  0  0  0  0  0  0  0  0  0
   -9.1985   22.8740  -31.3519 H   0  0  0  0  0  0  0  0  0  0  0  0
   -9.4272   20.3346  -31.1059 H   0  0  0  0  0  0  0  0  0  0  0  0
   -8.9749   20.3267  -32.8627 H   0  0  0  0  0  0  0  0  0  0  0  0
   -7.0930   19.1180  -31.0980 H   0  0  0  0  0  0  0  0  0  0  0  0
   -8.5025   18.0821  -33.5189 H   0  0  0  0  0  0  0  0  0  0  0  0
   -7.1335   16.5684  -31.7436 H   0  0  0  0  0  0  0  0  0  0  0  0
   -7.0450   16.2898  -33.5262 H   0  0  0  0  0  0  0  0  0  0  0  0
   -5.0833   18.0050  -31.9280 H   0  0  0  0  0  0  0  0  0  0  0  0
   -4.8082   16.2861  -32.4247 H   0  0  0  0  0  0  0  0  0  0  0  0
   -3.2670   18.4621  -32.7821 H   0  0  0  0  0  0  0  0  0  0  0  0
   -2.7219   17.7311  -34.3298 H   0  0  0  0  0  0  0  0  0  0  0  0
   -3.5311   19.3348  -34.3298 H   0  0  0  0  0  0  0  0  0  0  0  0
   -5.1977   19.2760  -35.3368 H   0  0  0  0  0  0  0  0  0  0  0  0
   -6.3658   17.8822  -35.3952 H   0  0  0  0  0  0  0  0  0  0  0  0
   -6.1515   19.9418  -33.1524 H   0  0  0  0  0  0  0  0  0  0  0  0
   -7.4189   19.8806  -34.4480 H   0  0  0  0  0  0  0  0  0  0  0  0
   -5.8713   20.1549  -31.8610 H   0  0  0  0  0  0  0  0  0  0  0  0
   -4.0589   21.3999  -33.6324 H   0  0  0  0  0  0  0  0  0  0  0  0
   -1.6142   21.0476  -33.9264 H   0  0  0  0  0  0  0  0  0  0  0  0
   -0.0573   21.4420  -32.0196 H   0  0  0  0  0  0  0  0  0  0  0  0
   -0.9460   22.1422  -29.8074 H   0  0  0  0  0  0  0  0  0  0  0  0
   -4.3322   24.2525  -26.7099 H   0  0  0  0  0  0  0  0  0  0  0  0
   -2.7562   23.5138  -26.2211 H   0  0  0  0  0  0  0  0  0  0  0  0
   -3.4278   26.4359  -26.7148 H   0  0  0  0  0  0  0  0  0  0  0  0
   -2.7076   25.6159  -25.2405 H   0  0  0  0  0  0  0  0  0  0  0  0
   -1.3419   26.7636  -27.6248 H   0  0  0  0  0  0  0  0  0  0  0  0
   -0.5494   26.6501  -23.5733 H   0  0  0  0  0  0  0  0  0  0  0  0
   -1.9317   25.8029  -24.3466 H   0  0  0  0  0  0  0  0  0  0  0  0
   -0.3018   25.0478  -24.3466 H   0  0  0  0  0  0  0  0  0  0  0  0
   -0.8966   28.3611  -24.4746 H   0  0  0  0  0  0  0  0  0  0  0  0
   -0.0491   28.6965  -26.0225 H   0  0  0  0  0  0  0  0  0  0  0  0
   -1.8074   28.3287  -26.0225 H   0  0  0  0  0  0  0  0  0  0  0  0
    0.3811   25.0509  -27.7689 H   0  0  0  0  0  0  0  0  0  0  0  0
   -0.4907   24.0446  -26.5379 H   0  0  0  0  0  0  0  0  0  0  0  0
   -1.2411   24.6390  -29.4162 H   0  0  0  0  0  0  0  0  0  0  0  0
   -1.1070   23.0446  -28.5165 H   0  0  0  0  0  0  0  0  0  0  0  0
  1  2  1  0
  2  3  1  0
  3  4  2  0
  4  5  1  0
  5  6  2  0
  6  7  1  0
  7  8  1  0
  8  9  1  0
  9 10  1  0
 10 11  1  0
 11 12  1  0
 12 13  1  0
 12 14  1  0
 14 15  1  0
  6 16  1  0
 16 17  2  0
 17 18  1  0
 18 19  2  0
 19 20  1  0
 20 21  2  0
 21 22  1  0
 22 23  2  0
 23 24  1  0
 24 25  2  0
 24 26  2  0
 24 27  1  0
 27 28  1  0
 28 29  1  0
 29 30  1  0
 30 31  1  0
 31 32  1  0
 31 33  1  0
 30 34  1  0
 34 35  1  0
 17  3  1  0
 23 18  1  0
 35 27  1  0
 15  9  1  0
  1 36  1  0
  1 37  1  0
  1 38  1  0
  4 39  1  0
  5 40  1  0
  7 41  1  0
  7 42  1  0
  8 43  1  0
  9 44  1  0
 10 45  1  0
 10 46  1  0
 11 47  1  0
 11 48  1  0
 13 49  1  0
 13 50  1  0
 13 51  1  0
 14 52  1  0
 14 53  1  0
 15 54  1  0
 15 55  1  0
 16 56  1  0
 19 57  1  0
 20 58  1  0
 21 59  1  0
 22 60  1  0
 28 61  1  0
 28 62  1  0
 29 63  1  0
 29 64  1  0
 30 65  1  0
 32 66  1  0
 32 67  1  0
 32 68  1  0
 33 69  1  0
 33 70  1  0
 33 71  1  0
 34 72  1  0
 34 73  1  0
 35 74  1  0
 35 75  1  0
M  END
>  <UniqueID>  (38) 
35

>  <SMILES>  (38) 
COc1ccc(CNC2CCN(C)CC2)cc1-c1ccccc1S(=O)(=O)N1CCC(N(C)C)CC1

>  <Energy>  (38) 
105.76384733100463

>  <Genealogy>  (38) 
COc1ccc(CNC2CCN(C)CC2)cc1-c1ccccc1S(=O)(=O)N1CCC(N(C)C)CC1 (3D coordinates assigned)
COc1ccc(CNC2CCN(C)CC2)cc1-c1ccccc1S(=O)(=O)N1CCC(N(C)C)CC1 (nonaromatic ring conformer: 105.76384733100463 kcal/mol)

>  <smiles>  (38) 
COc1ccc(CNC2CCN(C)CC2)cc1-c1ccccc1S(=O)(=O)N1CCC(N(C)C)CC1

>  <score_type>  (38) 
oracle

>  <origin>  (38) 
adgpu

>  <m_score__min__energy>  (38) 
-10.449999999999999

>  <m_primary>  (38) 
energy

$$$$
38:0
     RDKit          3D

 70 75  0  0  0  0  0  0  0  0999 V2000
   -0.1900   19.4990  -27.8790 C   0  0  0  0  0  0  0  0  0  0  0  0
   -0.9250   20.1390  -26.7740 N   0  0  0  0  0  0  0  0  0  0  0  0
   -2.3620   19.8000  -26.7730 C   0  0  0  0  0  0  0  0  0  0  0  0
   -3.0900   20.3450  -28.0100 C   0  0  0  0  0  0  0  0  0  0  0  0
   -2.7040   21.7680  -28.3170 C   0  0  0  0  0  0  0  0  0  0  0  0
   -3.4780   22.5010  -29.2280 C   0  0  0  0  0  0  0  0  0  0  0  0
   -3.1200   23.8130  -29.5850 C   0  0  0  0  0  0  0  0  0  0  0  0
   -3.9040   24.5650  -30.5300 N   0  0  0  0  0  0  0  0  0  0  0  0
   -5.6310   24.7020  -30.4250 S   0  0  0  0  0  0  0  0  0  0  0  0
   -6.0230   24.8800  -28.9840 O   0  0  0  0  0  0  0  0  0  0  0  0
   -6.0870   25.8990  -31.2100 O   0  0  0  0  0  0  0  0  0  0  0  0
   -6.3790   23.2600  -31.1040 C   0  0  0  0  0  0  0  0  0  0  0  0
   -7.7840   23.1150  -31.1110 C   0  0  0  0  0  0  0  0  0  0  0  0
   -8.3750   21.9430  -31.6110 C   0  0  0  0  0  0  0  0  0  0  0  0
   -7.5410   20.9400  -32.0950 C   0  0  0  0  0  0  0  0  0  0  0  0
   -7.9740   19.4550  -32.7490 S   0  0  0  0  0  0  0  0  0  0  0  0
   -6.3810   18.9690  -33.0400 C   0  0  0  0  0  0  0  0  0  0  0  0
   -5.9160   17.4610  -33.8050 S   0  0  0  0  0  0  0  0  0  0  0  0
   -6.7760   16.3470  -33.2740 O   0  0  0  0  0  0  0  0  0  0  0  0
   -6.1170   17.5560  -35.2910 O   0  0  0  0  0  0  0  0  0  0  0  0
   -4.2150   17.1520  -33.4720 C   0  0  0  0  0  0  0  0  0  0  0  0
   -3.7960   15.8530  -33.1670 C   0  0  0  0  0  0  0  0  0  0  0  0
   -2.4460   15.5900  -32.9240 C   0  0  0  0  0  0  0  0  0  0  0  0
   -1.5070   16.6210  -32.9920 C   0  0  0  0  0  0  0  0  0  0  0  0
   -1.9100   17.9330  -33.3020 C   0  0  0  0  0  0  0  0  0  0  0  0
   -0.8980   19.0640  -33.3780 C   0  0  0  0  0  0  0  0  0  0  0  0
   -0.6160   19.4480  -34.8460 C   0  0  0  0  0  0  0  0  0  0  0  0
    0.1630   20.7690  -34.9110 C   0  0  0  0  0  0  0  0  0  0  0  0
   -0.5200   21.8960  -34.2350 N   0  0  0  0  0  0  0  0  0  0  0  0
   -1.6550   21.5110  -33.3790 C   0  0  0  0  0  0  0  0  0  0  0  0
   -1.3220   20.2850  -32.5200 C   0  0  0  0  0  0  0  0  0  0  0  0
   -3.2720   18.1880  -33.5440 C   0  0  0  0  0  0  0  0  0  0  0  0
   -5.4950   19.9620  -32.6340 C   0  0  0  0  0  0  0  0  0  0  0  0
   -6.1600   21.0710  -32.1020 C   0  0  0  0  0  0  0  0  0  0  0  0
   -5.5610   22.2320  -31.6090 C   0  0  0  0  0  0  0  0  0  0  0  0
   -1.9800   24.3910  -29.0020 C   0  0  0  0  0  0  0  0  0  0  0  0
   -1.6040   25.6910  -29.3240 O   0  0  0  0  0  0  0  0  0  0  0  0
   -1.2010   23.6610  -28.1010 C   0  0  0  0  0  0  0  0  0  0  0  0
   -1.5410   22.3420  -27.7700 C   0  0  0  0  0  0  0  0  0  0  0  0
   -0.7150   21.6000  -26.7430 C   0  0  0  0  0  0  0  0  0  0  0  0
    0.5795   18.8290  -27.4680 H   0  0  0  0  0  0  0  0  0  0  0  0
   -0.8902   18.9178  -28.4970 H   0  0  0  0  0  0  0  0  0  0  0  0
    0.2894   20.2725  -28.4970 H   0  0  0  0  0  0  0  0  0  0  0  0
   -2.4672   18.7052  -26.7544 H   0  0  0  0  0  0  0  0  0  0  0  0
   -2.8162   20.2624  -25.8842 H   0  0  0  0  0  0  0  0  0  0  0  0
   -2.8376   19.7150  -28.8757 H   0  0  0  0  0  0  0  0  0  0  0  0
   -4.1699   20.3257  -27.8017 H   0  0  0  0  0  0  0  0  0  0  0  0
   -4.3763   22.0440  -29.6688 H   0  0  0  0  0  0  0  0  0  0  0  0
   -3.4540   24.9230  -31.4010 H   0  0  0  0  0  0  0  0  0  0  0  0
   -8.4191   23.9248  -30.7226 H   0  0  0  0  0  0  0  0  0  0  0  0
   -9.4682   21.8214  -31.6197 H   0  0  0  0  0  0  0  0  0  0  0  0
   -4.5315   15.0365  -33.1184 H   0  0  0  0  0  0  0  0  0  0  0  0
   -2.1217   14.5680  -32.6784 H   0  0  0  0  0  0  0  0  0  0  0  0
   -0.4451   16.4062  -32.8020 H   0  0  0  0  0  0  0  0  0  0  0  0
    0.0452   18.7005  -32.9440 H   0  0  0  0  0  0  0  0  0  0  0  0
   -0.0227   18.6531  -35.3214 H   0  0  0  0  0  0  0  0  0  0  0  0
   -1.5732   19.5708  -35.3739 H   0  0  0  0  0  0  0  0  0  0  0  0
    1.1421   20.6189  -34.4326 H   0  0  0  0  0  0  0  0  0  0  0  0
    0.2525   21.0379  -35.9739 H   0  0  0  0  0  0  0  0  0  0  0  0
   -0.8800   22.5580  -34.9630 H   0  0  0  0  0  0  0  0  0  0  0  0
   -1.9054   22.3534  -32.7174 H   0  0  0  0  0  0  0  0  0  0  0  0
   -2.5055   21.2561  -34.0283 H   0  0  0  0  0  0  0  0  0  0  0  0
   -0.4971   20.5430  -31.8396 H   0  0  0  0  0  0  0  0  0  0  0  0
   -2.2291   20.0070  -31.9634 H   0  0  0  0  0  0  0  0  0  0  0  0
   -3.6003   19.2082  -33.7917 H   0  0  0  0  0  0  0  0  0  0  0  0
   -4.4012   19.8839  -32.7212 H   0  0  0  0  0  0  0  0  0  0  0  0
   -4.4665   22.3415  -31.6152 H   0  0  0  0  0  0  0  0  0  0  0  0
   -0.3130   24.1253  -27.6473 H   0  0  0  0  0  0  0  0  0  0  0  0
    0.3485   21.8046  -26.9355 H   0  0  0  0  0  0  0  0  0  0  0  0
   -1.0307   21.9549  -25.7509 H   0  0  0  0  0  0  0  0  0  0  0  0
  1  2  1  0
  2  3  1  0
  3  4  1  0
  4  5  1  0
  5  6  2  0
  6  7  1  0
  7  8  1  0
  8  9  1  0
  9 10  2  0
  9 11  2  0
  9 12  1  0
 12 13  2  0
 13 14  1  0
 14 15  2  0
 15 16  1  0
 16 17  1  0
 17 18  1  0
 18 19  2  0
 18 20  2  0
 18 21  1  0
 21 22  2  0
 22 23  1  0
 23 24  2  0
 24 25  1  0
 25 26  1  0
 26 27  1  0
 27 28  1  0
 28 29  1  0
 29 30  1  0
 30 31  1  0
 25 32  2  0
 17 33  2  0
 33 34  1  0
 34 35  2  0
  7 36  2  0
 36 37  1  0
 36 38  1  0
 38 39  2  0
 39 40  1  0
 40  2  1  0
 39  5  1  0
 35 12  1  0
 34 15  1  0
 32 21  1  0
 31 26  1  0
  1 41  1  0
  1 42  1  0
  1 43  1  0
  3 44  1  0
  3 45  1  0
  4 46  1  0
  4 47  1  0
  6 48  1  0
  8 49  1  0
 13 50  1  0
 14 51  1  0
 22 52  1  0
 23 53  1  0
 24 54  1  0
 26 55  1  0
 27 56  1  0
 27 57  1  0
 28 58  1  0
 28 59  1  0
 29 60  1  0
 30 61  1  0
 30 62  1  0
 31 63  1  0
 31 64  1  0
 32 65  1  0
 33 66  1  0
 35 67  1  0
 38 68  1  0
 40 69  1  0
 40 70  1  0
M  CHG  1  37  -1
M  END
>  <UniqueID>  (39) 
36

>  <SMILES>  (39) 
CN1CCc2cc(NS(=O)(=O)c3ccc4sc(S(=O)(=O)c5cccc(C6CCNCC6)c5)cc4c3)c([O-])cc2C1

>  <Energy>  (39) 
123.49102260594572

>  <Genealogy>  (39) 
CN1CCc2cc(NS(=O)(=O)c3ccc4sc(S(=O)(=O)c5cccc(C6CCNCC6)c5)cc4c3)c([O-])cc2C1 (protonated)
CN1CCc2cc(NS(=O)(=O)c3ccc4sc(S(=O)(=O)c5cccc(C6CCNCC6)c5)cc4c3)c([O-])cc2C1 (3D coordinates assigned)
CN1CCc2cc(NS(=O)(=O)c3ccc4sc(S(=O)(=O)c5cccc(C6CCNCC6)c5)cc4c3)c([O-])cc2C1 (nonaromatic ring conformer: 123.49102260594572 kcal/mol)

>  <smiles>  (39) 
CN1CCc2cc(NS(=O)(=O)c3ccc4sc(S(=O)(=O)c5cccc(C6CCNCC6)c5)cc4c3)c(O)cc2C1

>  <score_type>  (39) 
oracle

>  <origin>  (39) 
adgpu

>  <m_score__min__energy>  (39) 
-17.309999999999999

>  <m_primary>  (39) 
energy

$$$$
39:0
     RDKit          3D

 44 47  0  0  0  0  0  0  0  0999 V2000
   -0.8470   28.7310  -25.3990 C   0  0  0  0  0  0  0  0  0  0  0  0
   -0.7310   27.3070  -24.9760 C   0  0  0  0  0  0  0  0  0  0  0  0
   -0.7480   26.2040  -25.8100 C   0  0  0  0  0  0  0  0  0  0  0  0
   -0.6410   25.1410  -24.9280 C   0  0  0  0  0  0  0  0  0  0  0  0
   -0.6450   23.8730  -25.2160 N   0  0  0  0  0  0  0  0  0  0  0  0
   -0.6600   23.3080  -26.5350 C   0  0  0  0  0  0  0  0  0  0  0  0
    0.3450   22.6580  -26.9220 O   0  0  0  0  0  0  0  0  0  0  0  0
   -1.7860   23.5320  -27.4720 C   0  0  0  0  0  0  0  0  0  0  0  0
   -3.0370   23.9700  -27.0010 C   0  0  0  0  0  0  0  0  0  0  0  0
   -4.0930   24.1800  -27.8910 C   0  0  0  0  0  0  0  0  0  0  0  0
   -3.9180   23.9570  -29.2630 C   0  0  0  0  0  0  0  0  0  0  0  0
   -5.2640   24.2280  -30.3670 S   0  0  0  0  0  0  0  0  0  0  0  0
   -6.5090   24.4800  -29.5670 O   0  0  0  0  0  0  0  0  0  0  0  0
   -4.9910   25.4330  -31.2200 O   0  0  0  0  0  0  0  0  0  0  0  0
   -5.5270   22.8400  -31.3740 N   0  0  0  0  0  0  0  0  0  0  0  0
   -4.5030   22.2410  -32.2250 C   0  0  0  0  0  0  0  0  0  0  0  0
   -5.1830   21.0350  -32.9200 C   0  0  0  0  0  0  0  0  0  0  0  0
   -6.5780   21.0760  -32.3980 C   0  0  0  0  0  0  0  0  0  0  0  0
   -7.6400   20.2310  -32.7180 C   0  0  0  0  0  0  0  0  0  0  0  0
   -8.8890   20.4680  -32.1190 C   0  0  0  0  0  0  0  0  0  0  0  0
   -9.0510   21.5410  -31.2220 C   0  0  0  0  0  0  0  0  0  0  0  0
   -7.9670   22.3760  -30.9130 C   0  0  0  0  0  0  0  0  0  0  0  0
   -6.7320   22.1090  -31.5140 C   0  0  0  0  0  0  0  0  0  0  0  0
   -2.6690   23.5350  -29.7390 C   0  0  0  0  0  0  0  0  0  0  0  0
   -1.6090   23.3280  -28.8510 C   0  0  0  0  0  0  0  0  0  0  0  0
   -0.5840   25.6080  -23.6690 N   0  0  0  0  0  0  0  0  0  0  0  0
   -0.6390   26.9060  -23.7260 O   0  0  0  0  0  0  0  0  0  0  0  0
   -0.8994   29.3749  -24.5087 H   0  0  0  0  0  0  0  0  0  0  0  0
    0.0316   29.0076  -26.0003 H   0  0  0  0  0  0  0  0  0  0  0  0
   -1.7588   28.8618  -26.0003 H   0  0  0  0  0  0  0  0  0  0  0  0
   -0.8272   26.1772  -26.9068 H   0  0  0  0  0  0  0  0  0  0  0  0
   -3.1846   24.1482  -25.9256 H   0  0  0  0  0  0  0  0  0  0  0  0
   -5.0674   24.5224  -27.5125 H   0  0  0  0  0  0  0  0  0  0  0  0
   -4.1542   22.9676  -32.9736 H   0  0  0  0  0  0  0  0  0  0  0  0
   -3.6241   21.9289  -31.6418 H   0  0  0  0  0  0  0  0  0  0  0  0
   -5.1686   21.1517  -34.0137 H   0  0  0  0  0  0  0  0  0  0  0  0
   -4.6763   20.0803  -32.7156 H   0  0  0  0  0  0  0  0  0  0  0  0
   -7.5033   19.3979  -33.4232 H   0  0  0  0  0  0  0  0  0  0  0  0
   -9.7421   19.8136  -32.3515 H   0  0  0  0  0  0  0  0  0  0  0  0
  -10.0326   21.7255  -30.7611 H   0  0  0  0  0  0  0  0  0  0  0  0
   -8.0849   23.2189  -30.2162 H   0  0  0  0  0  0  0  0  0  0  0  0
   -2.5221   23.3659  -30.8160 H   0  0  0  0  0  0  0  0  0  0  0  0
   -0.6304   23.0034  -29.2343 H   0  0  0  0  0  0  0  0  0  0  0  0
   -0.5150   25.0470  -22.7900 H   0  0  0  0  0  0  0  0  0  0  0  0
  1  2  1  0
  2  3  2  0
  3  4  1  0
  4  5  2  3
  5  6  1  0
  6  7  2  0
  6  8  1  0
  8  9  2  0
  9 10  1  0
 10 11  2  0
 11 12  1  0
 12 13  2  0
 12 14  2  0
 12 15  1  0
 15 16  1  0
 16 17  1  0
 17 18  1  0
 18 19  2  0
 19 20  1  0
 20 21  2  0
 21 22  1  0
 22 23  2  0
 11 24  1  0
 24 25  2  0
  4 26  1  0
 26 27  1  0
 27  2  1  0
 25  8  1  0
 23 15  1  0
 23 18  1  0
  1 28  1  0
  1 29  1  0
  1 30  1  0
  3 31  1  0
  9 32  1  0
 10 33  1  0
 16 34  1  0
 16 35  1  0
 17 36  1  0
 17 37  1  0
 19 38  1  0
 20 39  1  0
 21 40  1  0
 22 41  1  0
 24 42  1  0
 25 43  1  0
 26 44  1  0
M  END
>  <UniqueID>  (40) 
37

>  <SMILES>  (40) 
Cc1cc(=NC(=O)c2ccc(S(=O)(=O)N3CCc4ccccc43)cc2)[nH]o1

>  <Energy>  (40) 
103.09056307571082

>  <Genealogy>  (40) 
Cc1cc(=NC(=O)c2ccc(S(=O)(=O)N3CCc4ccccc43)cc2)[nH]o1 (3D coordinates assigned)
Cc1cc(=NC(=O)c2ccc(S(=O)(=O)N3CCc4ccccc43)cc2)[nH]o1 (nonaromatic ring conformer: 103.09056307571082 kcal/mol)

>  <smiles>  (40) 
Cc1cc(=NC(=O)c2ccc(S(=O)(=O)N3CCc4ccccc43)cc2)[nH]o1

>  <score_type>  (40) 
oracle

>  <origin>  (40) 
adgpu

>  <m_score__min__energy>  (40) 
-9.5999999999999996

>  <m_primary>  (40) 
energy

$$$$
40:0
     RDKit          3D

 55 58  0  0  0  0  0  0  0  0999 V2000
   -5.9990   18.9800  -34.9630 C   0  0  0  0  0  0  0  0  0  0  0  0
   -5.5800   17.7550  -34.1860 C   0  0  0  0  0  0  0  0  0  0  0  0
   -6.4500   16.6470  -34.1390 C   0  0  0  0  0  0  0  0  0  0  0  0
   -6.0990   15.4940  -33.4330 C   0  0  0  0  0  0  0  0  0  0  0  0
   -4.8750   15.4310  -32.7650 C   0  0  0  0  0  0  0  0  0  0  0  0
   -4.0060   16.5250  -32.7860 C   0  0  0  0  0  0  0  0  0  0  0  0
   -4.3520   17.7040  -33.4740 C   0  0  0  0  0  0  0  0  0  0  0  0
   -3.3840   18.8650  -33.4530 C   0  0  0  0  0  0  0  0  0  0  0  0
   -4.0910   20.1490  -33.1210 C   0  0  0  0  0  0  0  0  0  0  0  0
   -3.7400   21.2140  -33.7060 O   0  0  0  0  0  0  0  0  0  0  0  0
   -5.1580   20.1560  -32.1610 N   0  0  0  0  0  0  0  0  0  0  0  0
   -5.9320   21.3200  -31.8260 C   0  0  0  0  0  0  0  0  0  0  0  0
   -7.2650   21.4580  -32.2450 C   0  0  0  0  0  0  0  0  0  0  0  0
   -7.9690   22.6290  -31.9640 C   0  0  0  0  0  0  0  0  0  0  0  0
   -7.3460   23.6760  -31.2820 C   0  0  0  0  0  0  0  0  0  0  0  0
   -6.0130   23.5580  -30.8740 C   0  0  0  0  0  0  0  0  0  0  0  0
   -5.1970   24.9240  -30.1090 S   0  0  0  0  0  0  0  0  0  0  0  0
   -5.3770   24.8720  -28.6140 O   0  0  0  0  0  0  0  0  0  0  0  0
   -5.8100   26.1970  -30.6330 O   0  0  0  0  0  0  0  0  0  0  0  0
   -3.4960   24.9180  -30.4800 N   0  0  0  0  0  0  0  0  0  0  0  0
   -2.5170   24.1860  -29.7220 C   0  0  0  0  0  0  0  0  0  0  0  0
   -2.5030   22.7810  -29.7070 C   0  0  0  0  0  0  0  0  0  0  0  0
   -1.4790   22.0830  -29.0510 C   0  0  0  0  0  0  0  0  0  0  0  0
   -0.5040   22.7980  -28.3230 C   0  0  0  0  0  0  0  0  0  0  0  0
   -0.5500   24.2000  -28.3010 C   0  0  0  0  0  0  0  0  0  0  0  0
   -1.5510   24.8900  -28.9900 C   0  0  0  0  0  0  0  0  0  0  0  0
   -1.5670   26.2820  -28.9680 O   0  0  0  0  0  0  0  0  0  0  0  0
    0.6510   22.0800  -27.6600 C   0  0  0  0  0  0  0  0  0  0  0  0
    0.3740   20.6510  -27.4370 N   0  0  0  0  0  0  0  0  0  0  0  0
   -0.1050   20.0110  -28.6650 C   0  0  0  0  0  0  0  0  0  0  0  0
   -1.4710   20.5770  -29.0740 C   0  0  0  0  0  0  0  0  0  0  0  0
   -5.3130   22.3760  -31.1430 C   0  0  0  0  0  0  0  0  0  0  0  0
   -6.2735   19.7824  -34.2624 H   0  0  0  0  0  0  0  0  0  0  0  0
   -5.1646   19.3157  -35.5963 H   0  0  0  0  0  0  0  0  0  0  0  0
   -6.8642   18.7343  -35.5963 H   0  0  0  0  0  0  0  0  0  0  0  0
   -7.4157   16.6908  -34.6639 H   0  0  0  0  0  0  0  0  0  0  0  0
   -6.7868   14.6361  -33.4034 H   0  0  0  0  0  0  0  0  0  0  0  0
   -4.5937   14.5175  -32.2205 H   0  0  0  0  0  0  0  0  0  0  0  0
   -3.0419   16.4647  -32.2598 H   0  0  0  0  0  0  0  0  0  0  0  0
   -2.6097   18.6743  -32.6953 H   0  0  0  0  0  0  0  0  0  0  0  0
   -2.9309   18.9619  -34.4507 H   0  0  0  0  0  0  0  0  0  0  0  0
   -5.4820   19.2350  -31.7820 H   0  0  0  0  0  0  0  0  0  0  0  0
   -7.7549   20.6414  -32.7957 H   0  0  0  0  0  0  0  0  0  0  0  0
   -9.0178   22.7278  -32.2806 H   0  0  0  0  0  0  0  0  0  0  0  0
   -7.9057   24.5977  -31.0645 H   0  0  0  0  0  0  0  0  0  0  0  0
   -3.3034   22.2231  -30.2150 H   0  0  0  0  0  0  0  0  0  0  0  0
    0.2089   24.7613  -27.7362 H   0  0  0  0  0  0  0  0  0  0  0  0
    1.5387   22.1710  -28.3032 H   0  0  0  0  0  0  0  0  0  0  0  0
    0.8140   22.5460  -26.6770 H   0  0  0  0  0  0  0  0  0  0  0  0
   -0.3570   20.5570  -26.6900 H   0  0  0  0  0  0  0  0  0  0  0  0
    0.6183   20.1938  -29.4733 H   0  0  0  0  0  0  0  0  0  0  0  0
   -0.2095   18.9311  -28.4835 H   0  0  0  0  0  0  0  0  0  0  0  0
   -1.7085   20.2347  -30.0920 H   0  0  0  0  0  0  0  0  0  0  0  0
   -2.2206   20.2189  -28.3530 H   0  0  0  0  0  0  0  0  0  0  0  0
   -4.2678   22.2750  -30.8155 H   0  0  0  0  0  0  0  0  0  0  0  0
  1  2  1  0
  2  3  2  0
  3  4  1  0
  4  5  2  0
  5  6  1  0
  6  7  2  0
  7  8  1  0
  8  9  1  0
  9 10  2  0
  9 11  1  0
 11 12  1  0
 12 13  2  0
 13 14  1  0
 14 15  2  0
 15 16  1  0
 16 17  1  0
 17 18  2  0
 17 19  2  0
 17 20  1  0
 20 21  1  0
 21 22  2  0
 22 23  1  0
 23 24  2  0
 24 25  1  0
 25 26  2  0
 26 27  1  0
 24 28  1  0
 28 29  1  0
 29 30  1  0
 30 31  1  0
 16 32  2  0
  7  2  1  0
 32 12  1  0
 26 21  1  0
 31 23  1  0
  1 33  1  0
  1 34  1  0
  1 35  1  0
  3 36  1  0
  4 37  1  0
  5 38  1  0
  6 39  1  0
  8 40  1  0
  8 41  1  0
 11 42  1  0
 13 43  1  0
 14 44  1  0
 15 45  1  0
 22 46  1  0
 25 47  1  0
 28 48  1  0
 28 49  1  0
 29 50  1  0
 30 51  1  0
 30 52  1  0
 31 53  1  0
 31 54  1  0
 32 55  1  0
M  CHG  2  20  -1  27  -1
M  END
>  <UniqueID>  (41) 
38

>  <SMILES>  (41) 
Cc1ccccc1CC(=O)Nc1cccc(S(=O)(=O)[N-]c2cc3c(cc2[O-])CNCC3)c1

>  <Energy>  (41) 
69.07961666751818

>  <Genealogy>  (41) 
Cc1ccccc1CC(=O)Nc1cccc(S(=O)(=O)[N-]c2cc3c(cc2[O-])CNCC3)c1 (protonated)
Cc1ccccc1CC(=O)Nc1cccc(S(=O)(=O)[N-]c2cc3c(cc2[O-])CNCC3)c1 (3D coordinates assigned)
Cc1ccccc1CC(=O)Nc1cccc(S(=O)(=O)[N-]c2cc3c(cc2[O-])CNCC3)c1 (nonaromatic ring conformer: 69.07961666751818 kcal/mol)

>  <smiles>  (41) 
Cc1ccccc1CC(=O)Nc1cccc(S(=O)(=O)Nc2cc3c(cc2O)CNCC3)c1

>  <score_type>  (41) 
oracle

>  <origin>  (41) 
adgpu

>  <m_score__min__energy>  (41) 
-14.710000000000001

>  <m_primary>  (41) 
energy

$$$$
41:0
     RDKit          3D

 45 47  0  0  0  0  0  0  0  0999 V2000
   -3.8990   21.6030  -32.9840 N   0  0  0  0  0  0  0  0  0  0  0  0
   -5.0290   21.5510  -32.7430 C   0  0  0  0  0  0  0  0  0  0  0  0
   -6.4370   21.4890  -32.4420 C   0  0  0  0  0  0  0  0  0  0  0  0
   -7.1510   20.3200  -32.7380 C   0  0  0  0  0  0  0  0  0  0  0  0
   -8.5160   20.2390  -32.4530 C   0  0  0  0  0  0  0  0  0  0  0  0
   -9.1750   21.3250  -31.8740 C   0  0  0  0  0  0  0  0  0  0  0  0
   -8.4710   22.4960  -31.5760 C   0  0  0  0  0  0  0  0  0  0  0  0
   -7.0910   22.5890  -31.8550 C   0  0  0  0  0  0  0  0  0  0  0  0
   -6.3440   23.7480  -31.5700 O   0  0  0  0  0  0  0  0  0  0  0  0
   -6.2150   24.3540  -30.2840 C   0  0  0  0  0  0  0  0  0  0  0  0
   -5.2730   25.5160  -30.3390 C   0  0  0  0  0  0  0  0  0  0  0  0
   -5.7260   26.6870  -30.2600 O   0  0  0  0  0  0  0  0  0  0  0  0
   -3.8690   25.2770  -30.5030 N   0  0  0  0  0  0  0  0  0  0  0  0
   -3.0890   24.2250  -29.9130 C   0  0  0  0  0  0  0  0  0  0  0  0
   -3.2080   22.8820  -30.3170 C   0  0  0  0  0  0  0  0  0  0  0  0
   -2.4090   21.8980  -29.7280 C   0  0  0  0  0  0  0  0  0  0  0  0
   -1.4760   22.2430  -28.7490 C   0  0  0  0  0  0  0  0  0  0  0  0
   -1.3350   23.5800  -28.3540 C   0  0  0  0  0  0  0  0  0  0  0  0
   -0.1170   24.0360  -27.1650 S   0  0  0  0  0  0  0  0  0  0  0  0
    0.6000   22.8030  -26.6960 O   0  0  0  0  0  0  0  0  0  0  0  0
    0.8870   24.9650  -27.7940 O   0  0  0  0  0  0  0  0  0  0  0  0
   -0.9020   24.8060  -25.8100 N   0  0  0  0  0  0  0  0  0  0  0  0
   -1.2570   26.1930  -26.1160 C   0  0  0  0  0  0  0  0  0  0  0  0
   -1.2460   26.9510  -24.7940 C   0  0  0  0  0  0  0  0  0  0  0  0
   -0.4940   26.0570  -23.8200 C   0  0  0  0  0  0  0  0  0  0  0  0
   -0.0150   24.8780  -24.6510 C   0  0  0  0  0  0  0  0  0  0  0  0
   -2.1340   24.5650  -28.9470 C   0  0  0  0  0  0  0  0  0  0  0  0
   -6.6348   19.4635  -33.1962 H   0  0  0  0  0  0  0  0  0  0  0  0
   -9.0722   19.3187  -32.6850 H   0  0  0  0  0  0  0  0  0  0  0  0
  -10.2503   21.2595  -31.6517 H   0  0  0  0  0  0  0  0  0  0  0  0
   -8.9959   23.3492  -31.1216 H   0  0  0  0  0  0  0  0  0  0  0  0
   -7.2024   24.7051  -29.9495 H   0  0  0  0  0  0  0  0  0  0  0  0
   -5.8165   23.6086  -29.5801 H   0  0  0  0  0  0  0  0  0  0  0  0
   -3.9316   22.6061  -31.0982 H   0  0  0  0  0  0  0  0  0  0  0  0
   -2.5159   20.8478  -30.0372 H   0  0  0  0  0  0  0  0  0  0  0  0
   -0.8508   21.4647  -28.2871 H   0  0  0  0  0  0  0  0  0  0  0  0
   -0.5216   26.6284  -26.8085 H   0  0  0  0  0  0  0  0  0  0  0  0
   -2.2447   26.2513  -26.5967 H   0  0  0  0  0  0  0  0  0  0  0  0
   -0.7295   27.9155  -24.9080 H   0  0  0  0  0  0  0  0  0  0  0  0
   -2.2643   27.1728  -24.4420 H   0  0  0  0  0  0  0  0  0  0  0  0
    0.3610   26.5946  -23.3841 H   0  0  0  0  0  0  0  0  0  0  0  0
   -1.1289   25.7377  -22.9804 H   0  0  0  0  0  0  0  0  0  0  0  0
    1.0238   25.0378  -24.9757 H   0  0  0  0  0  0  0  0  0  0  0  0
   -0.0387   23.9438  -24.0707 H   0  0  0  0  0  0  0  0  0  0  0  0
   -2.0102   25.6171  -28.6509 H   0  0  0  0  0  0  0  0  0  0  0  0
  1  2  3  0
  2  3  1  0
  3  4  2  0
  4  5  1  0
  5  6  2  0
  6  7  1  0
  7  8  2  0
  8  9  1  0
  9 10  1  0
 10 11  1  0
 11 12  2  0
 11 13  1  0
 13 14  1  0
 14 15  2  0
 15 16  1  0
 16 17  2  0
 17 18  1  0
 18 19  1  0
 19 20  2  0
 19 21  2  0
 19 22  1  0
 22 23  1  0
 23 24  1  0
 24 25  1  0
 25 26  1  0
 18 27  2  0
  8  3  1  0
 27 14  1  0
 26 22  1  0
  4 28  1  0
  5 29  1  0
  6 30  1  0
  7 31  1  0
 10 32  1  0
 10 33  1  0
 15 34  1  0
 16 35  1  0
 17 36  1  0
 23 37  1  0
 23 38  1  0
 24 39  1  0
 24 40  1  0
 25 41  1  0
 25 42  1  0
 26 43  1  0
 26 44  1  0
 27 45  1  0
M  CHG  1  13  -1
M  END
>  <UniqueID>  (42) 
39

>  <SMILES>  (42) 
N#Cc1ccccc1OCC(=O)[N-]c1cccc(S(=O)(=O)N2CCCC2)c1

>  <Energy>  (42) 
49.17187547638217

>  <Genealogy>  (42) 
N#Cc1ccccc1OCC(=O)[N-]c1cccc(S(=O)(=O)N2CCCC2)c1 (protonated)
N#Cc1ccccc1OCC(=O)[N-]c1cccc(S(=O)(=O)N2CCCC2)c1 (3D coordinates assigned)
N#Cc1ccccc1OCC(=O)[N-]c1cccc(S(=O)(=O)N2CCCC2)c1 (nonaromatic ring conformer: 49.17187547638217 kcal/mol)

>  <smiles>  (42) 
N#Cc1ccccc1OCC(=O)Nc1cccc(S(=O)(=O)N2CCCC2)c1

>  <score_type>  (42) 
oracle

>  <origin>  (42) 
adgpu

>  <m_score__min__energy>  (42) 
-10.869999999999999

>  <m_primary>  (42) 
energy

$$$$
42:0
     RDKit          3D

 62 65  0  0  0  0  0  0  0  0999 V2000
   -2.9040   23.0820  -27.7180 C   0  0  0  0  0  0  0  0  0  0  0  0
   -2.3790   23.5320  -29.3580 S   0  0  0  0  0  0  0  0  0  0  0  0
   -0.8770   23.5430  -29.4240 O   0  0  0  0  0  0  0  0  0  0  0  0
   -2.8890   24.9090  -29.6830 O   0  0  0  0  0  0  0  0  0  0  0  0
   -3.0080   22.3610  -30.5130 C   0  0  0  0  0  0  0  0  0  0  0  0
   -3.0290   22.6770  -31.8790 C   0  0  0  0  0  0  0  0  0  0  0  0
   -3.5050   21.7500  -32.8080 C   0  0  0  0  0  0  0  0  0  0  0  0
   -3.9790   20.5050  -32.3800 C   0  0  0  0  0  0  0  0  0  0  0  0
   -4.5910   19.3230  -33.5770 S   0  0  0  0  0  0  0  0  0  0  0  0
   -6.1970   19.1650  -32.7780 C   0  0  0  0  0  0  0  0  0  0  0  0
   -6.8820   20.3400  -32.4470 C   0  0  0  0  0  0  0  0  0  0  0  0
   -8.1360   20.2880  -31.8270 C   0  0  0  0  0  0  0  0  0  0  0  0
   -8.9760   21.7810  -31.3990 S   0  0  0  0  0  0  0  0  0  0  0  0
   -9.8310   22.2120  -32.5590 O   0  0  0  0  0  0  0  0  0  0  0  0
   -9.8800   21.5230  -30.2250 O   0  0  0  0  0  0  0  0  0  0  0  0
   -7.8530   23.0590  -30.9960 N   0  0  0  0  0  0  0  0  0  0  0  0
   -6.9010   23.2740  -32.1020 C   0  0  0  0  0  0  0  0  0  0  0  0
   -6.0390   24.5300  -31.8570 C   0  0  0  0  0  0  0  0  0  0  0  0
   -5.8630   24.8450  -30.3610 C   0  0  0  0  0  0  0  0  0  0  0  0
   -5.8610   23.5650  -29.5240 C   0  0  0  0  0  0  0  0  0  0  0  0
   -7.1560   22.7450  -29.7250 C   0  0  0  0  0  0  0  0  0  0  0  0
   -8.7100   19.0460  -31.5400 C   0  0  0  0  0  0  0  0  0  0  0  0
   -8.0370   17.8670  -31.8640 C   0  0  0  0  0  0  0  0  0  0  0  0
   -6.7760   17.9090  -32.4830 C   0  0  0  0  0  0  0  0  0  0  0  0
   -6.1100   16.6730  -32.8040 N   0  0  0  0  0  0  0  0  0  0  0  0
   -5.3560   15.9670  -31.7610 C   0  0  0  0  0  0  0  0  0  0  0  0
   -4.7580   14.6690  -32.3130 C   0  0  0  0  0  0  0  0  0  0  0  0
   -4.0050   14.9270  -33.5480 N   0  0  0  0  0  0  0  0  0  0  0  0
   -4.7750   15.6300  -34.5990 C   0  0  0  0  0  0  0  0  0  0  0  0
   -6.1670   16.1150  -34.1580 C   0  0  0  0  0  0  0  0  0  0  0  0
   -3.9440   20.1800  -31.0190 C   0  0  0  0  0  0  0  0  0  0  0  0
   -3.4610   21.1050  -30.0870 C   0  0  0  0  0  0  0  0  0  0  0  0
   -2.2866   23.6112  -26.9772 H   0  0  0  0  0  0  0  0  0  0  0  0
   -3.9594   23.3603  -27.5816 H   0  0  0  0  0  0  0  0  0  0  0  0
   -2.7904   21.9964  -27.5816 H   0  0  0  0  0  0  0  0  0  0  0  0
   -2.6691   23.6590  -32.2199 H   0  0  0  0  0  0  0  0  0  0  0  0
   -3.5074   21.9990  -33.8794 H   0  0  0  0  0  0  0  0  0  0  0  0
   -6.4295   21.3159  -32.6768 H   0  0  0  0  0  0  0  0  0  0  0  0
   -8.4240   23.9270  -30.8670 H   0  0  0  0  0  0  0  0  0  0  0  0
   -6.2424   22.3968  -32.1847 H   0  0  0  0  0  0  0  0  0  0  0  0
   -7.4718   23.4180  -33.0312 H   0  0  0  0  0  0  0  0  0  0  0  0
   -5.0462   24.3681  -32.3020 H   0  0  0  0  0  0  0  0  0  0  0  0
   -6.5563   25.3841  -32.3185 H   0  0  0  0  0  0  0  0  0  0  0  0
   -4.9081   25.3711  -30.2148 H   0  0  0  0  0  0  0  0  0  0  0  0
   -6.7051   25.4734  -30.0354 H   0  0  0  0  0  0  0  0  0  0  0  0
   -4.9995   22.9480  -29.8192 H   0  0  0  0  0  0  0  0  0  0  0  0
   -5.7984   23.8503  -28.4635 H   0  0  0  0  0  0  0  0  0  0  0  0
   -6.8971   21.6759  -29.7227 H   0  0  0  0  0  0  0  0  0  0  0  0
   -7.8396   23.0054  -28.9035 H   0  0  0  0  0  0  0  0  0  0  0  0
   -9.6969   18.9977  -31.0565 H   0  0  0  0  0  0  0  0  0  0  0  0
   -8.4981   16.8955  -31.6326 H   0  0  0  0  0  0  0  0  0  0  0  0
   -4.5433   16.6150  -31.4011 H   0  0  0  0  0  0  0  0  0  0  0  0
   -6.0394   15.7196  -30.9353 H   0  0  0  0  0  0  0  0  0  0  0  0
   -4.0816   14.2352  -31.5618 H   0  0  0  0  0  0  0  0  0  0  0  0
   -5.5773   13.9704  -32.5383 H   0  0  0  0  0  0  0  0  0  0  0  0
   -3.1690   15.5040  -33.3000 H   0  0  0  0  0  0  0  0  0  0  0  0
   -4.1933   16.5058  -34.9225 H   0  0  0  0  0  0  0  0  0  0  0  0
   -4.9405   14.8998  -35.4049 H   0  0  0  0  0  0  0  0  0  0  0  0
   -6.5179   16.8905  -34.8548 H   0  0  0  0  0  0  0  0  0  0  0  0
   -6.8597   15.2605  -34.1622 H   0  0  0  0  0  0  0  0  0  0  0  0
   -4.2972   19.1945  -30.6812 H   0  0  0  0  0  0  0  0  0  0  0  0
   -3.4368   20.8460  -29.0182 H   0  0  0  0  0  0  0  0  0  0  0  0
  1  2  1  0
  2  3  2  0
  2  4  2  0
  2  5  1  0
  5  6  2  0
  6  7  1  0
  7  8  2  0
  8  9  1  0
  9 10  1  0
 10 11  2  0
 11 12  1  0
 12 13  1  0
 13 14  2  0
 13 15  2  0
 13 16  1  0
 16 17  1  0
 17 18  1  0
 18 19  1  0
 19 20  1  0
 20 21  1  0
 12 22  2  0
 22 23  1  0
 23 24  2  0
 24 25  1  0
 25 26  1  0
 26 27  1  0
 27 28  1  0
 28 29  1  0
 29 30  1  0
  8 31  1  0
 31 32  2  0
 32  5  1  0
 24 10  1  0
 30 25  1  0
 21 16  1  0
  1 33  1  0
  1 34  1  0
  1 35  1  0
  6 36  1  0
  7 37  1  0
 11 38  1  0
 16 39  1  0
 17 40  1  0
 17 41  1  0
 18 42  1  0
 18 43  1  0
 19 44  1  0
 19 45  1  0
 20 46  1  0
 20 47  1  0
 21 48  1  0
 21 49  1  0
 22 50  1  0
 23 51  1  0
 26 52  1  0
 26 53  1  0
 27 54  1  0
 27 55  1  0
 28 56  1  0
 29 57  1  0
 29 58  1  0
 30 59  1  0
 30 60  1  0
 31 61  1  0
 32 62  1  0
M  CHG  1  16   1
M  END
>  <UniqueID>  (43) 
40

>  <SMILES>  (43) 
CS(=O)(=O)c1ccc(Sc2cc(S(=O)(=O)[NH+]3CCCCC3)ccc2N2CCNCC2)cc1

>  <Energy>  (43) 
67.77566256273147

>  <Genealogy>  (43) 
CS(=O)(=O)c1ccc(Sc2cc(S(=O)(=O)[NH+]3CCCCC3)ccc2N2CCNCC2)cc1 (protonated)
CS(=O)(=O)c1ccc(Sc2cc(S(=O)(=O)[NH+]3CCCCC3)ccc2N2CCNCC2)cc1 (3D coordinates assigned)
CS(=O)(=O)c1ccc(Sc2cc(S(=O)(=O)[NH+]3CCCCC3)ccc2N2CCNCC2)cc1 (nonaromatic ring conformer: 67.77566256273147 kcal/mol)

>  <smiles>  (43) 
CS(=O)(=O)c1ccc(Sc2cc(S(=O)(=O)N3CCCCC3)ccc2N2CCNCC2)cc1

>  <score_type>  (43) 
oracle

>  <origin>  (43) 
adgpu

>  <m_score__min__energy>  (43) 
-9.9399999999999995

>  <m_primary>  (43) 
energy

$$$$
43:0
     RDKit          3D

 58 61  0  0  0  0  0  0  0  0999 V2000
   -2.5480   19.3660  -33.5670 C   0  0  0  0  0  0  0  0  0  0  0  0
   -3.0620   20.5760  -32.9410 N   0  0  0  0  0  0  0  0  0  0  0  0
   -2.3380   21.2550  -31.9060 C   0  0  0  0  0  0  0  0  0  0  0  0
   -1.1280   20.9660  -31.6930 O   0  0  0  0  0  0  0  0  0  0  0  0
   -2.9810   22.3230  -31.1060 C   0  0  0  0  0  0  0  0  0  0  0  0
   -2.1720   23.2470  -30.4230 C   0  0  0  0  0  0  0  0  0  0  0  0
   -2.7350   24.2650  -29.6460 C   0  0  0  0  0  0  0  0  0  0  0  0
   -1.8550   25.1710  -28.9650 N   0  0  0  0  0  0  0  0  0  0  0  0
   -0.5960   24.7070  -27.8680 S   0  0  0  0  0  0  0  0  0  0  0  0
   -0.4420   25.7540  -26.8020 O   0  0  0  0  0  0  0  0  0  0  0  0
    0.7040   24.5460  -28.6070 O   0  0  0  0  0  0  0  0  0  0  0  0
   -1.0280   23.1810  -27.1140 C   0  0  0  0  0  0  0  0  0  0  0  0
   -1.6660   22.1210  -27.7270 C   0  0  0  0  0  0  0  0  0  0  0  0
   -1.7800   21.1530  -26.7470 C   0  0  0  0  0  0  0  0  0  0  0  0
   -2.4060   19.8090  -26.9130 C   0  0  0  0  0  0  0  0  0  0  0  0
   -1.2510   21.5790  -25.6190 O   0  0  0  0  0  0  0  0  0  0  0  0
   -0.7870   22.7940  -25.8090 C   0  0  0  0  0  0  0  0  0  0  0  0
   -0.1090   23.6060  -24.7520 C   0  0  0  0  0  0  0  0  0  0  0  0
   -4.1320   24.3700  -29.5490 C   0  0  0  0  0  0  0  0  0  0  0  0
   -4.9550   23.4450  -30.2060 C   0  0  0  0  0  0  0  0  0  0  0  0
   -6.3480   23.5150  -30.0920 C   0  0  0  0  0  0  0  0  0  0  0  0
   -7.1500   22.5640  -30.7200 C   0  0  0  0  0  0  0  0  0  0  0  0
   -6.5540   21.5320  -31.4690 C   0  0  0  0  0  0  0  0  0  0  0  0
   -7.3500   20.5120  -32.1190 N   0  0  0  0  0  0  0  0  0  0  0  0
   -8.8120   20.6460  -32.2260 C   0  0  0  0  0  0  0  0  0  0  0  0
   -9.4560   19.3350  -32.6890 C   0  0  0  0  0  0  0  0  0  0  0  0
   -8.8320   18.2160  -31.9780 N   0  0  0  0  0  0  0  0  0  0  0  0
   -7.4060   18.0300  -32.3360 C   0  0  1  0  0  0  0  0  0  0  0  0
   -7.2350   16.9580  -33.4240 C   0  0  0  0  0  0  0  0  0  0  0  0
   -6.7090   19.3510  -32.7590 C   0  0  0  0  0  0  0  0  0  0  0  0
   -5.1970   21.4960  -31.5720 N   0  0  0  0  0  0  0  0  0  0  0  0
   -4.3830   22.4150  -30.9830 C   0  0  0  0  0  0  0  0  0  0  0  0
   -2.2442   18.6509  -32.7883 H   0  0  0  0  0  0  0  0  0  0  0  0
   -3.3324   18.9153  -34.1928 H   0  0  0  0  0  0  0  0  0  0  0  0
   -1.6791   19.6176  -34.1928 H   0  0  0  0  0  0  0  0  0  0  0  0
   -3.9740   20.9630  -33.2760 H   0  0  0  0  0  0  0  0  0  0  0  0
   -1.0776   23.1685  -30.5006 H   0  0  0  0  0  0  0  0  0  0  0  0
   -2.0095   22.0600  -28.7702 H   0  0  0  0  0  0  0  0  0  0  0  0
   -2.6086   19.3741  -25.9231 H   0  0  0  0  0  0  0  0  0  0  0  0
   -3.3497   19.9102  -27.4691 H   0  0  0  0  0  0  0  0  0  0  0  0
   -1.7213   19.1518  -27.4691 H   0  0  0  0  0  0  0  0  0  0  0  0
   -0.4126   23.2424  -23.7592 H   0  0  0  0  0  0  0  0  0  0  0  0
    0.9816   23.5108  -24.8596 H   0  0  0  0  0  0  0  0  0  0  0  0
   -0.3973   24.6621  -24.8596 H   0  0  0  0  0  0  0  0  0  0  0  0
   -4.5815   25.1801  -28.9560 H   0  0  0  0  0  0  0  0  0  0  0  0
   -6.8108   24.3223  -29.5055 H   0  0  0  0  0  0  0  0  0  0  0  0
   -8.2450   22.6196  -30.6307 H   0  0  0  0  0  0  0  0  0  0  0  0
   -9.2204   20.9183  -31.2416 H   0  0  0  0  0  0  0  0  0  0  0  0
   -9.0370   21.4259  -32.9684 H   0  0  0  0  0  0  0  0  0  0  0  0
  -10.5335   19.3562  -32.4688 H   0  0  0  0  0  0  0  0  0  0  0  0
   -9.3097   19.2130  -33.7724 H   0  0  0  0  0  0  0  0  0  0  0  0
   -9.3860   17.3440  -32.1580 H   0  0  0  0  0  0  0  0  0  0  0  0
   -6.9070   17.6837  -31.4189 H   0  0  0  0  0  0  0  0  0  0  0  0
   -7.0786   15.9773  -32.9511 H   0  0  0  0  0  0  0  0  0  0  0  0
   -8.1390   16.9233  -34.0498 H   0  0  0  0  0  0  0  0  0  0  0  0
   -6.3651   17.2062  -34.0498 H   0  0  0  0  0  0  0  0  0  0  0  0
   -5.6516   19.3124  -32.4585 H   0  0  0  0  0  0  0  0  0  0  0  0
   -6.7947   19.4596  -33.8503 H   0  0  0  0  0  0  0  0  0  0  0  0
  1  2  1  0
  2  3  1  0
  3  4  2  0
  3  5  1  0
  5  6  2  0
  6  7  1  0
  7  8  1  0
  8  9  1  0
  9 10  2  0
  9 11  2  0
  9 12  1  0
 12 13  1  0
 13 14  2  0
 14 15  1  0
 14 16  1  0
 16 17  1  0
 17 18  1  0
  7 19  2  0
 19 20  1  0
 20 21  2  0
 21 22  1  0
 22 23  2  0
 23 24  1  0
 24 25  1  0
 25 26  1  0
 26 27  1  0
 27 28  1  0
 28 29  1  0
 28 30  1  0
 23 31  1  0
 31 32  2  0
 32  5  1  0
 17 12  2  0
 32 20  1  0
 30 24  1  0
  1 33  1  0
  1 34  1  0
  1 35  1  0
  2 36  1  0
  6 37  1  0
 13 38  1  0
 15 39  1  0
 15 40  1  0
 15 41  1  0
 18 42  1  0
 18 43  1  0
 18 44  1  0
 19 45  1  0
 21 46  1  0
 22 47  1  0
 25 48  1  0
 25 49  1  0
 26 50  1  0
 26 51  1  0
 27 52  1  0
 28 53  1  1
 29 54  1  0
 29 55  1  0
 29 56  1  0
 30 57  1  0
 30 58  1  0
M  CHG  1   8  -1
M  END
>  <UniqueID>  (44) 
41

>  <SMILES>  (44) 
CNC(=O)c1cc([N-]S(=O)(=O)c2cc(C)oc2C)cc2ccc(N3CCN[C@@H](C)C3)nc12

>  <Energy>  (44) 
98.21662034473015

>  <Genealogy>  (44) 
CNC(=O)c1cc([N-]S(=O)(=O)c2cc(C)oc2C)cc2ccc(N3CCNC(C)C3)nc12 (protonated)
CNC(=O)c1cc([N-]S(=O)(=O)c2cc(C)oc2C)cc2ccc(N3CCN[C@@H](C)C3)nc12 (chirality)
CNC(=O)c1cc([N-]S(=O)(=O)c2cc(C)oc2C)cc2ccc(N3CCN[C@@H](C)C3)nc12 (3D coordinates assigned)
CNC(=O)c1cc([N-]S(=O)(=O)c2cc(C)oc2C)cc2ccc(N3CCN[C@@H](C)C3)nc12 (nonaromatic ring conformer: 98.21662034473015 kcal/mol)

>  <smiles>  (44) 
CNC(=O)c1cc(NS(=O)(=O)c2cc(C)oc2C)cc2ccc(N3CCNC(C)C3)nc12

>  <score_type>  (44) 
oracle

>  <origin>  (44) 
adgpu

>  <m_score__min__energy>  (44) 
-11.07

>  <m_primary>  (44) 
energy

$$$$
44:0
     RDKit          3D

 53 56  0  0  0  0  0  0  0  0999 V2000
   -4.5180   19.0070  -32.8630 C   0  0  0  0  0  0  0  0  0  0  0  0
   -6.1050   18.6810  -33.6010 S   0  0  0  0  0  0  0  0  0  0  0  0
   -6.4510   17.2340  -33.3910 O   0  0  0  0  0  0  0  0  0  0  0  0
   -6.0290   18.9750  -35.0720 O   0  0  0  0  0  0  0  0  0  0  0  0
   -7.3220   19.6790  -32.8730 N   0  0  0  0  0  0  0  0  0  0  0  0
   -8.7260   19.3080  -32.7160 C   0  0  0  0  0  0  0  0  0  0  0  0
   -9.4120   20.5260  -32.0500 C   0  0  0  0  0  0  0  0  0  0  0  0
   -8.3020   21.5090  -31.9000 C   0  0  0  0  0  0  0  0  0  0  0  0
   -8.3520   22.7880  -31.3450 C   0  0  0  0  0  0  0  0  0  0  0  0
   -7.1710   23.5450  -31.2950 C   0  0  0  0  0  0  0  0  0  0  0  0
   -5.9580   23.0190  -31.8050 C   0  0  0  0  0  0  0  0  0  0  0  0
   -4.7270   23.7540  -31.7430 N   0  0  0  0  0  0  0  0  0  0  0  0
   -3.6250   23.4870  -30.8700 C   0  0  0  0  0  0  0  0  0  0  0  0
   -2.7700   22.6110  -31.1690 O   0  0  0  0  0  0  0  0  0  0  0  0
   -3.5700   24.1540  -29.6050 N   0  0  0  0  0  0  0  0  0  0  0  0
   -2.6400   23.8940  -28.5410 C   0  0  0  0  0  0  0  0  0  0  0  0
   -2.6500   22.6820  -27.8300 C   0  0  0  0  0  0  0  0  0  0  0  0
   -1.7200   22.4540  -26.8140 C   0  0  0  0  0  0  0  0  0  0  0  0
   -0.7630   23.4210  -26.5100 C   0  0  0  0  0  0  0  0  0  0  0  0
   -0.7130   24.6230  -27.2300 C   0  0  0  0  0  0  0  0  0  0  0  0
    0.5240   25.8270  -26.8240 S   0  0  0  0  0  0  0  0  0  0  0  0
    0.1540   27.1360  -27.4640 O   0  0  0  0  0  0  0  0  0  0  0  0
    1.8490   25.3990  -27.3900 O   0  0  0  0  0  0  0  0  0  0  0  0
    0.6960   26.0730  -25.1020 N   0  0  0  0  0  0  0  0  0  0  0  0
    1.2510   27.3880  -24.7870 C   0  0  0  0  0  0  0  0  0  0  0  0
    0.7710   27.7350  -23.3840 C   0  0  0  0  0  0  0  0  0  0  0  0
   -0.3980   26.7980  -23.1130 C   0  0  0  0  0  0  0  0  0  0  0  0
   -0.5860   26.0160  -24.4030 C   0  0  0  0  0  0  0  0  0  0  0  0
   -1.6590   24.8560  -28.2490 C   0  0  0  0  0  0  0  0  0  0  0  0
   -1.6340   26.0440  -28.9750 O   0  0  0  0  0  0  0  0  0  0  0  0
   -5.9390   21.7160  -32.3370 C   0  0  0  0  0  0  0  0  0  0  0  0
   -7.1320   20.9900  -32.3770 C   0  0  0  0  0  0  0  0  0  0  0  0
   -4.6123   18.9876  -31.7672 H   0  0  0  0  0  0  0  0  0  0  0  0
   -3.7999   18.2376  -33.1829 H   0  0  0  0  0  0  0  0  0  0  0  0
   -4.1613   19.9972  -33.1829 H   0  0  0  0  0  0  0  0  0  0  0  0
   -9.1797   19.1017  -33.6966 H   0  0  0  0  0  0  0  0  0  0  0  0
   -8.8389   18.3977  -32.1089 H   0  0  0  0  0  0  0  0  0  0  0  0
  -10.2096   20.9281  -32.6920 H   0  0  0  0  0  0  0  0  0  0  0  0
   -9.8963   20.2764  -31.0944 H   0  0  0  0  0  0  0  0  0  0  0  0
   -9.2968   23.1945  -30.9549 H   0  0  0  0  0  0  0  0  0  0  0  0
   -7.1872   24.5538  -30.8568 H   0  0  0  0  0  0  0  0  0  0  0  0
   -3.3938   21.9095  -28.0750 H   0  0  0  0  0  0  0  0  0  0  0  0
   -1.7425   21.5088  -26.2518 H   0  0  0  0  0  0  0  0  0  0  0  0
   -0.0419   23.2397  -25.6994 H   0  0  0  0  0  0  0  0  0  0  0  0
    2.3501   27.3532  -24.8149 H   0  0  0  0  0  0  0  0  0  0  0  0
    0.9244   28.1430  -25.5173 H   0  0  0  0  0  0  0  0  0  0  0  0
    1.5742   27.5702  -22.6508 H   0  0  0  0  0  0  0  0  0  0  0  0
    0.4757   28.7915  -23.3024 H   0  0  0  0  0  0  0  0  0  0  0  0
   -0.1634   26.1186  -22.2803 H   0  0  0  0  0  0  0  0  0  0  0  0
   -1.3078   27.3461  -22.8270 H   0  0  0  0  0  0  0  0  0  0  0  0
   -0.8538   24.9724  -24.1812 H   0  0  0  0  0  0  0  0  0  0  0  0
   -1.3964   26.4389  -25.0148 H   0  0  0  0  0  0  0  0  0  0  0  0
   -5.0031   21.2778  -32.7139 H   0  0  0  0  0  0  0  0  0  0  0  0
  1  2  1  0
  2  3  2  0
  2  4  2  0
  2  5  1  0
  5  6  1  0
  6  7  1  0
  7  8  1  0
  8  9  2  0
  9 10  1  0
 10 11  2  0
 11 12  1  0
 12 13  1  0
 13 14  2  0
 13 15  1  0
 15 16  1  0
 16 17  2  0
 17 18  1  0
 18 19  2  0
 19 20  1  0
 20 21  1  0
 21 22  2  0
 21 23  2  0
 21 24  1  0
 24 25  1  0
 25 26  1  0
 26 27  1  0
 27 28  1  0
 20 29  2  0
 29 30  1  0
 11 31  1  0
 31 32  2  0
 32  5  1  0
 32  8  1  0
 29 16  1  0
 28 24  1  0
  1 33  1  0
  1 34  1  0
  1 35  1  0
  6 36  1  0
  6 37  1  0
  7 38  1  0
  7 39  1  0
  9 40  1  0
 10 41  1  0
 17 42  1  0
 18 43  1  0
 19 44  1  0
 25 45  1  0
 25 46  1  0
 26 47  1  0
 26 48  1  0
 27 49  1  0
 27 50  1  0
 28 51  1  0
 28 52  1  0
 31 53  1  0
M  CHG  3  12  -1  15  -1  30  -1
M  END
>  <UniqueID>  (45) 
42

>  <SMILES>  (45) 
CS(=O)(=O)N1CCc2ccc([N-]C(=O)[N-]c3cccc(S(=O)(=O)N4CCCC4)c3[O-])cc21

>  <Energy>  (45) 
76.36322730032431

>  <Genealogy>  (45) 
CS(=O)(=O)N1CCc2ccc([N-]C(=O)[N-]c3cccc(S(=O)(=O)N4CCCC4)c3[O-])cc21 (protonated)
CS(=O)(=O)N1CCc2ccc([N-]C(=O)[N-]c3cccc(S(=O)(=O)N4CCCC4)c3[O-])cc21 (3D coordinates assigned)
CS(=O)(=O)N1CCc2ccc([N-]C(=O)[N-]c3cccc(S(=O)(=O)N4CCCC4)c3[O-])cc21 (nonaromatic ring conformer: 76.36322730032431 kcal/mol)

>  <smiles>  (45) 
CS(=O)(=O)N1CCc2ccc(NC(=O)Nc3cccc(S(=O)(=O)N4CCCC4)c3O)cc21

>  <score_type>  (45) 
oracle

>  <origin>  (45) 
adgpu

>  <m_score__min__energy>  (45) 
-17.09

>  <m_primary>  (45) 
energy

$$$$
45:0
     RDKit          3D

 51 54  0  0  0  0  0  0  0  0999 V2000
   -9.4720   18.0010  -31.6400 C   0  0  0  0  0  0  0  0  0  0  0  0
   -8.4360   19.0420  -31.5610 N   0  0  0  0  0  0  0  0  0  0  0  0
   -7.0900   18.4260  -31.5600 C   0  0  0  0  0  0  0  0  0  0  0  0
   -5.9650   19.4480  -31.8310 C   0  0  0  0  0  0  0  0  0  0  0  0
   -6.4580   20.8240  -31.7220 N   0  0  0  0  0  0  0  0  0  0  0  0
   -5.5830   21.8490  -31.2300 C   0  0  0  0  0  0  0  0  0  0  0  0
   -6.0230   22.6750  -30.1870 C   0  0  0  0  0  0  0  0  0  0  0  0
   -5.2000   23.6850  -29.6890 C   0  0  0  0  0  0  0  0  0  0  0  0
   -3.9180   23.8750  -30.2130 C   0  0  0  0  0  0  0  0  0  0  0  0
   -3.1030   24.9180  -29.6660 N   0  0  0  0  0  0  0  0  0  0  0  0
   -1.7880   24.6830  -28.5570 S   0  0  0  0  0  0  0  0  0  0  0  0
   -0.5110   25.2620  -29.0960 O   0  0  0  0  0  0  0  0  0  0  0  0
   -2.1140   25.4020  -27.2780 O   0  0  0  0  0  0  0  0  0  0  0  0
   -1.6050   22.9560  -28.2200 C   0  0  0  0  0  0  0  0  0  0  0  0
   -1.9450   22.4680  -26.9480 C   0  0  0  0  0  0  0  0  0  0  0  0
   -1.8420   21.1060  -26.6570 C   0  0  0  0  0  0  0  0  0  0  0  0
   -1.4060   20.2090  -27.6330 C   0  0  0  0  0  0  0  0  0  0  0  0
   -1.0720   20.6720  -28.9120 C   0  0  0  0  0  0  0  0  0  0  0  0
   -0.6460   19.7860  -29.9120 C   0  0  0  0  0  0  0  0  0  0  0  0
   -0.3280   20.2710  -31.1820 C   0  0  0  0  0  0  0  0  0  0  0  0
   -0.4330   21.6380  -31.4390 C   0  0  0  0  0  0  0  0  0  0  0  0
   -0.8430   22.4880  -30.4590 N   0  0  0  0  0  0  0  0  0  0  0  0
   -1.1690   22.0520  -29.2110 C   0  0  0  0  0  0  0  0  0  0  0  0
   -3.4840   23.0730  -31.2810 C   0  0  0  0  0  0  0  0  0  0  0  0
   -4.2960   22.0390  -31.7860 C   0  0  0  0  0  0  0  0  0  0  0  0
   -3.8140   21.1940  -32.9500 C   0  0  0  0  0  0  0  0  0  0  0  0
   -4.8440   20.8920  -33.8240 F   0  0  0  0  0  0  0  0  0  0  0  0
   -2.8390   21.8660  -33.6610 F   0  0  0  0  0  0  0  0  0  0  0  0
   -3.2910   20.0090  -32.4700 F   0  0  0  0  0  0  0  0  0  0  0  0
   -7.6910   21.2140  -32.4110 C   0  0  0  0  0  0  0  0  0  0  0  0
   -8.5750   19.9930  -32.6780 C   0  0  0  0  0  0  0  0  0  0  0  0
   -9.7696   17.7020  -30.6241 H   0  0  0  0  0  0  0  0  0  0  0  0
  -10.3472   18.3948  -32.1775 H   0  0  0  0  0  0  0  0  0  0  0  0
   -9.0740   17.1277  -32.1775 H   0  0  0  0  0  0  0  0  0  0  0  0
   -6.9157   17.9636  -30.5773 H   0  0  0  0  0  0  0  0  0  0  0  0
   -7.0650   17.6827  -32.3705 H   0  0  0  0  0  0  0  0  0  0  0  0
   -5.1593   19.2969  -31.0975 H   0  0  0  0  0  0  0  0  0  0  0  0
   -5.5936   19.2923  -32.8546 H   0  0  0  0  0  0  0  0  0  0  0  0
   -7.0248   22.5258  -29.7579 H   0  0  0  0  0  0  0  0  0  0  0  0
   -5.5618   24.3358  -28.8793 H   0  0  0  0  0  0  0  0  0  0  0  0
   -2.2959   23.1654  -26.1731 H   0  0  0  0  0  0  0  0  0  0  0  0
   -2.1057   20.7387  -25.6542 H   0  0  0  0  0  0  0  0  0  0  0  0
   -1.3246   19.1375  -27.3977 H   0  0  0  0  0  0  0  0  0  0  0  0
   -0.5625   18.7106  -29.6962 H   0  0  0  0  0  0  0  0  0  0  0  0
    0.0023   19.5814  -31.9728 H   0  0  0  0  0  0  0  0  0  0  0  0
   -0.1838   22.0296  -32.4362 H   0  0  0  0  0  0  0  0  0  0  0  0
   -2.4961   23.2549  -31.7293 H   0  0  0  0  0  0  0  0  0  0  0  0
   -8.2437   21.9290  -31.7838 H   0  0  0  0  0  0  0  0  0  0  0  0
   -7.4258   21.6742  -33.3742 H   0  0  0  0  0  0  0  0  0  0  0  0
   -9.6249   20.3101  -32.7630 H   0  0  0  0  0  0  0  0  0  0  0  0
   -8.2649   19.5097  -33.6162 H   0  0  0  0  0  0  0  0  0  0  0  0
  1  2  1  0
  2  3  1  0
  3  4  1  0
  4  5  1  0
  5  6  1  0
  6  7  2  0
  7  8  1  0
  8  9  2  0
  9 10  1  0
 10 11  1  0
 11 12  2  0
 11 13  2  0
 11 14  1  0
 14 15  2  0
 15 16  1  0
 16 17  2  0
 17 18  1  0
 18 19  2  0
 19 20  1  0
 20 21  2  0
 21 22  1  0
 22 23  2  0
  9 24  1  0
 24 25  2  0
 25 26  1  0
 26 27  1  0
 26 28  1  0
 26 29  1  0
  5 30  1  0
 30 31  1  0
 31  2  1  0
 25  6  1  0
 23 14  1  0
 23 18  1  0
  1 32  1  0
  1 33  1  0
  1 34  1  0
  3 35  1  0
  3 36  1  0
  4 37  1  0
  4 38  1  0
  7 39  1  0
  8 40  1  0
 15 41  1  0
 16 42  1  0
 17 43  1  0
 19 44  1  0
 20 45  1  0
 21 46  1  0
 24 47  1  0
 30 48  1  0
 30 49  1  0
 31 50  1  0
 31 51  1  0
M  CHG  1  10  -1
M  END
>  <UniqueID>  (46) 
43

>  <SMILES>  (46) 
CN1CCN(c2ccc([N-]S(=O)(=O)c3cccc4cccnc34)cc2C(F)(F)F)CC1

>  <Energy>  (46) 
75.53107238111829

>  <Genealogy>  (46) 
CN1CCN(c2ccc([N-]S(=O)(=O)c3cccc4cccnc34)cc2C(F)(F)F)CC1 (protonated)
CN1CCN(c2ccc([N-]S(=O)(=O)c3cccc4cccnc34)cc2C(F)(F)F)CC1 (3D coordinates assigned)
CN1CCN(c2ccc([N-]S(=O)(=O)c3cccc4cccnc34)cc2C(F)(F)F)CC1 (nonaromatic ring conformer: 75.53107238111829 kcal/mol)

>  <smiles>  (46) 
CN1CCN(c2ccc(NS(=O)(=O)c3cccc4cccnc34)cc2C(F)(F)F)CC1

>  <score_type>  (46) 
oracle

>  <origin>  (46) 
adgpu

>  <m_score__min__energy>  (46) 
-9.8499999999999996

>  <m_primary>  (46) 
energy

$$$$
46:0
     RDKit          3D

 48 50  0  0  1  0  0  0  0  0999 V2000
   -9.5270   21.7930  -31.9530 C   0  0  0  0  0  0  0  0  0  0  0  0
   -7.9700   20.9040  -32.0240 S   0  0  0  0  0  0  0  0  0  0  0  0
   -7.7520   20.4160  -33.4230 O   0  0  0  0  0  0  0  0  0  0  0  0
   -8.0200   19.6990  -31.1270 O   0  0  0  0  0  0  0  0  0  0  0  0
   -6.6420   21.9370  -31.5600 C   0  0  0  0  0  0  0  0  0  0  0  0
   -5.3440   21.6720  -31.9910 C   0  0  0  0  0  0  0  0  0  0  0  0
   -4.3170   22.5150  -31.6010 C   0  0  0  0  0  0  0  0  0  0  0  0
   -4.5610   23.6270  -30.7810 C   0  0  0  0  0  0  0  0  0  0  0  0
   -3.5010   24.4940  -30.4140 N   0  0  0  0  0  0  0  0  0  0  0  0
   -2.7690   24.3760  -29.3720 C   0  0  0  0  0  0  0  0  0  0  0  0
   -1.7880   25.2620  -29.1240 N   0  0  0  0  0  0  0  0  0  0  0  0
   -1.0100   25.1310  -28.0100 C   0  0  0  0  0  0  0  0  0  0  0  0
   -0.1080   25.9860  -27.8280 N   0  0  0  0  0  0  0  0  0  0  0  0
    0.8100   26.0270  -26.7260 C   0  0  0  0  0  0  0  0  0  0  0  0
    0.5570   27.3750  -26.0260 C   0  0  0  0  0  0  0  0  0  0  0  0
    0.9490   27.2980  -24.5940 C   0  0  0  0  0  0  0  0  0  0  0  0
    0.0230   26.5620  -23.6940 C   0  0  0  0  0  0  0  0  0  0  0  0
   -1.3630   26.6420  -23.9940 N   0  0  0  0  0  0  0  0  0  0  0  0
   -1.7180   26.7970  -25.3630 C   0  0  0  0  0  0  0  0  0  0  0  0
   -0.8920   27.7810  -26.1220 C   0  0  0  0  0  0  0  0  0  0  0  0
   -1.1940   24.1320  -27.1370 N   0  0  0  0  0  0  0  0  0  0  0  0
   -2.1740   23.2580  -27.3950 C   0  0  0  0  0  0  0  0  0  0  0  0
   -2.9930   23.3350  -28.5010 C   0  0  0  0  0  0  0  0  0  0  0  0
   -4.2200   22.1430  -28.7180 Cl  0  0  0  0  0  0  0  0  0  0  0  0
   -5.8720   23.8840  -30.3520 C   0  0  0  0  0  0  0  0  0  0  0  0
   -6.9160   23.0370  -30.7420 C   0  0  0  0  0  0  0  0  0  0  0  0
   -9.8095   21.9543  -30.9022 H   0  0  0  0  0  0  0  0  0  0  0  0
   -9.4177   22.7648  -32.4566 H   0  0  0  0  0  0  0  0  0  0  0  0
  -10.3083   21.2049  -32.4566 H   0  0  0  0  0  0  0  0  0  0  0  0
   -5.1374   20.8034  -32.6335 H   0  0  0  0  0  0  0  0  0  0  0  0
   -3.2911   22.3091  -31.9403 H   0  0  0  0  0  0  0  0  0  0  0  0
   -1.6090   26.0670  -29.7900 H   0  0  0  0  0  0  0  0  0  0  0  0
    0.6175   25.1933  -26.0347 H   0  0  0  0  0  0  0  0  0  0  0  0
    1.8532   25.9322  -27.0617 H   0  0  0  0  0  0  0  0  0  0  0  0
    1.1699   28.1316  -26.5377 H   0  0  0  0  0  0  0  0  0  0  0  0
    1.9301   26.8034  -24.5417 H   0  0  0  0  0  0  0  0  0  0  0  0
    0.9429   28.3371  -24.2331 H   0  0  0  0  0  0  0  0  0  0  0  0
    0.3080   25.4999  -23.7204 H   0  0  0  0  0  0  0  0  0  0  0  0
    0.1324   27.0456  -22.7121 H   0  0  0  0  0  0  0  0  0  0  0  0
   -1.9470   27.1720  -23.3170 H   0  0  0  0  0  0  0  0  0  0  0  0
   -1.6188   25.8177  -25.8541 H   0  0  0  0  0  0  0  0  0  0  0  0
   -2.7461   27.1881  -25.3712 H   0  0  0  0  0  0  0  0  0  0  0  0
   -1.2043   27.7904  -27.1767 H   0  0  0  0  0  0  0  0  0  0  0  0
   -1.0271   28.7875  -25.6992 H   0  0  0  0  0  0  0  0  0  0  0  0
   -0.6300   24.0040  -26.2900 H   0  0  0  0  0  0  0  0  0  0  0  0
   -2.3348   22.4329  -26.6855 H   0  0  0  0  0  0  0  0  0  0  0  0
   -6.0795   24.7518  -29.7087 H   0  0  0  0  0  0  0  0  0  0  0  0
   -7.9448   23.2356  -30.4072 H   0  0  0  0  0  0  0  0  0  0  0  0
  1  2  1  0
  2  3  2  0
  2  4  2  0
  2  5  1  0
  5  6  2  0
  6  7  1  0
  7  8  2  0
  8  9  1  0
  9 10  2  0
 10 11  1  0
 11 12  1  0
 12 13  2  0
 13 14  1  0
 14 15  1  0
 15 16  1  0
 16 17  1  0
 17 18  1  0
 18 19  1  0
 19 20  1  0
 12 21  1  0
 21 22  1  0
 22 23  2  0
 23 24  1  0
  8 25  1  0
 25 26  2  0
 26  5  1  0
 23 10  1  0
 20 15  1  0
  1 27  1  0
  1 28  1  0
  1 29  1  0
  6 30  1  0
  7 31  1  0
 11 32  1  0
 14 33  1  0
 14 34  1  0
 15 35  1  0
 16 36  1  0
 16 37  1  0
 17 38  1  0
 17 39  1  0
 18 40  1  0
 19 41  1  0
 19 42  1  0
 20 43  1  0
 20 44  1  0
 21 45  1  0
 22 46  1  0
 25 47  1  0
 26 48  1  0
M  END
>  <smiles>  (47) 
CS(=O)(=O)c1ccc(N=c2[nH]c(=NCC3CCNCC3)[nH]cc2Cl)cc1

>  <score_type>  (47) 
oracle

>  <origin>  (47) 
adgpu

>  <m_score__min__energy>  (47) 
-9.8699999999999992

>  <m_primary>  (47) 
energy

$$$$
47:0
     RDKit          3D

 56 59  0  0  0  0  0  0  0  0999 V2000
   -0.8760   18.1360  -27.3900 C   0  0  0  0  0  0  0  0  0  0  0  0
   -0.8280   19.5000  -27.9410 N   0  0  0  0  0  0  0  0  0  0  0  0
    0.3840   20.1990  -27.4800 C   0  0  0  0  0  0  0  0  0  0  0  0
    0.5510   21.4980  -28.2710 C   0  0  0  0  0  0  0  0  0  0  0  0
   -0.7320   22.2880  -28.3240 C   0  0  0  0  0  0  0  0  0  0  0  0
   -0.7060   23.6130  -28.7830 C   0  0  0  0  0  0  0  0  0  0  0  0
   -1.8870   24.3530  -28.8690 C   0  0  0  0  0  0  0  0  0  0  0  0
   -1.8370   25.6690  -29.3210 O   0  0  0  0  0  0  0  0  0  0  0  0
   -3.1110   23.7860  -28.4880 C   0  0  0  0  0  0  0  0  0  0  0  0
   -4.2970   24.5910  -28.5410 N   0  0  0  0  0  0  0  0  0  0  0  0
   -5.1640   24.9650  -29.9950 S   0  0  0  0  0  0  0  0  0  0  0  0
   -6.1630   26.0490  -29.7030 O   0  0  0  0  0  0  0  0  0  0  0  0
   -4.2130   25.4620  -31.0510 O   0  0  0  0  0  0  0  0  0  0  0  0
   -6.0300   23.5270  -30.5360 C   0  0  0  0  0  0  0  0  0  0  0  0
   -7.0820   22.9850  -29.7800 C   0  0  0  0  0  0  0  0  0  0  0  0
   -7.8040   21.8900  -30.2640 C   0  0  0  0  0  0  0  0  0  0  0  0
   -7.4730   21.3180  -31.4980 C   0  0  0  0  0  0  0  0  0  0  0  0
   -8.4050   19.9590  -32.1150 S   0  0  0  0  0  0  0  0  0  0  0  0
   -9.4450   20.4490  -33.0850 O   0  0  0  0  0  0  0  0  0  0  0  0
   -9.0840   19.2770  -30.9600 O   0  0  0  0  0  0  0  0  0  0  0  0
   -7.3370   18.8370  -32.9260 N   0  0  0  0  0  0  0  0  0  0  0  0
   -6.4110   18.1920  -31.9610 C   0  0  0  0  0  0  0  0  0  0  0  0
   -4.9890   18.7710  -32.0110 C   0  0  0  0  0  0  0  0  0  0  0  0
   -4.3840   18.6350  -33.4200 C   0  0  0  0  0  0  0  0  0  0  0  0
   -5.4420   18.7280  -34.5340 C   0  0  0  0  0  0  0  0  0  0  0  0
   -6.6700   19.5100  -34.0650 C   0  0  0  0  0  0  0  0  0  0  0  0
   -6.4180   21.8530  -32.2480 C   0  0  0  0  0  0  0  0  0  0  0  0
   -5.7010   22.9550  -31.7720 C   0  0  0  0  0  0  0  0  0  0  0  0
   -3.1440   22.4480  -28.0600 C   0  0  0  0  0  0  0  0  0  0  0  0
   -1.9680   21.6890  -28.0020 C   0  0  0  0  0  0  0  0  0  0  0  0
   -2.0340   20.2500  -27.5380 C   0  0  0  0  0  0  0  0  0  0  0  0
   -0.8743   18.1842  -26.2911 H   0  0  0  0  0  0  0  0  0  0  0  0
   -1.7924   17.6338  -27.7336 H   0  0  0  0  0  0  0  0  0  0  0  0
    0.0028   17.5706  -27.7336 H   0  0  0  0  0  0  0  0  0  0  0  0
    0.2894   20.4307  -26.4089 H   0  0  0  0  0  0  0  0  0  0  0  0
    1.2625   19.5561  -27.6380 H   0  0  0  0  0  0  0  0  0  0  0  0
    1.3274   22.1110  -27.7898 H   0  0  0  0  0  0  0  0  0  0  0  0
    0.8360   21.2378  -29.3011 H   0  0  0  0  0  0  0  0  0  0  0  0
    0.2497   24.0716  -29.0768 H   0  0  0  0  0  0  0  0  0  0  0  0
   -7.3387   23.4232  -28.8043 H   0  0  0  0  0  0  0  0  0  0  0  0
   -8.6348   21.4766  -29.6733 H   0  0  0  0  0  0  0  0  0  0  0  0
   -6.8104   18.3319  -30.9457 H   0  0  0  0  0  0  0  0  0  0  0  0
   -6.3418   17.1286  -32.2336 H   0  0  0  0  0  0  0  0  0  0  0  0
   -5.0248   19.8357  -31.7367 H   0  0  0  0  0  0  0  0  0  0  0  0
   -4.3588   18.2106  -31.3048 H   0  0  0  0  0  0  0  0  0  0  0  0
   -3.6482   19.4395  -33.5659 H   0  0  0  0  0  0  0  0  0  0  0  0
   -3.9190   17.6403  -33.4866 H   0  0  0  0  0  0  0  0  0  0  0  0
   -5.0029   19.2373  -35.4045 H   0  0  0  0  0  0  0  0  0  0  0  0
   -5.7584   17.7088  -34.8006 H   0  0  0  0  0  0  0  0  0  0  0  0
   -6.3552   20.5163  -33.7516 H   0  0  0  0  0  0  0  0  0  0  0  0
   -7.3840   19.5666  -34.8999 H   0  0  0  0  0  0  0  0  0  0  0  0
   -6.1522   21.4040  -33.2164 H   0  0  0  0  0  0  0  0  0  0  0  0
   -4.8773   23.3736  -32.3689 H   0  0  0  0  0  0  0  0  0  0  0  0
   -4.1017   21.9925  -27.7679 H   0  0  0  0  0  0  0  0  0  0  0  0
   -2.1180   20.2307  -26.4414 H   0  0  0  0  0  0  0  0  0  0  0  0
   -2.9098   19.7750  -28.0041 H   0  0  0  0  0  0  0  0  0  0  0  0
  1  2  1  0
  2  3  1  0
  3  4  1  0
  4  5  1  0
  5  6  2  0
  6  7  1  0
  7  8  1  0
  7  9  2  0
  9 10  1  0
 10 11  1  0
 11 12  2  0
 11 13  2  0
 11 14  1  0
 14 15  2  0
 15 16  1  0
 16 17  2  0
 17 18  1  0
 18 19  2  0
 18 20  2  0
 18 21  1  0
 21 22  1  0
 22 23  1  0
 23 24  1  0
 24 25  1  0
 25 26  1  0
 17 27  1  0
 27 28  2  0
  9 29  1  0
 29 30  2  0
 30 31  1  0
 31  2  1  0
 30  5  1  0
 28 14  1  0
 26 21  1  0
  1 32  1  0
  1 33  1  0
  1 34  1  0
  3 35  1  0
  3 36  1  0
  4 37  1  0
  4 38  1  0
  6 39  1  0
 15 40  1  0
 16 41  1  0
 22 42  1  0
 22 43  1  0
 23 44  1  0
 23 45  1  0
 24 46  1  0
 24 47  1  0
 25 48  1  0
 25 49  1  0
 26 50  1  0
 26 51  1  0
 27 52  1  0
 28 53  1  0
 29 54  1  0
 31 55  1  0
 31 56  1  0
M  CHG  2   8  -1  10  -1
M  END
>  <UniqueID>  (48) 
44

>  <SMILES>  (48) 
CN1CCc2cc([O-])c([N-]S(=O)(=O)c3ccc(S(=O)(=O)N4CCCCC4)cc3)cc2C1

>  <Energy>  (48) 
69.44762433993826

>  <Genealogy>  (48) 
CN1CCc2cc([O-])c([N-]S(=O)(=O)c3ccc(S(=O)(=O)N4CCCCC4)cc3)cc2C1 (protonated)
CN1CCc2cc([O-])c([N-]S(=O)(=O)c3ccc(S(=O)(=O)N4CCCCC4)cc3)cc2C1 (3D coordinates assigned)
CN1CCc2cc([O-])c([N-]S(=O)(=O)c3ccc(S(=O)(=O)N4CCCCC4)cc3)cc2C1 (nonaromatic ring conformer: 69.44762433993826 kcal/mol)

>  <smiles>  (48) 
CN1CCc2cc(O)c(NS(=O)(=O)c3ccc(S(=O)(=O)N4CCCCC4)cc3)cc2C1

>  <score_type>  (48) 
oracle

>  <origin>  (48) 
adgpu

>  <m_score__min__energy>  (48) 
-16.129999999999999

>  <m_primary>  (48) 
energy

$$$$
48:0
     RDKit          3D

 50 52  0  0  0  0  0  0  0  0999 V2000
   -0.4230   27.6370  -24.3530 C   0  0  0  0  0  0  0  0  0  0  0  0
   -0.7650   26.3160  -24.9750 C   0  0  0  0  0  0  0  0  0  0  0  0
    0.1190   25.2310  -24.8630 C   0  0  0  0  0  0  0  0  0  0  0  0
   -0.1860   24.0100  -25.4710 C   0  0  0  0  0  0  0  0  0  0  0  0
   -1.3680   23.8620  -26.2140 C   0  0  0  0  0  0  0  0  0  0  0  0
   -1.6790   22.6020  -26.8310 N   0  0  0  0  0  0  0  0  0  0  0  0
   -2.0130   22.3700  -28.1210 C   0  0  0  0  0  0  0  0  0  0  0  0
   -2.1260   23.6180  -29.4090 S   0  0  0  0  0  0  0  0  0  0  0  0
   -3.9350   23.4730  -29.6460 C   0  0  0  0  0  0  0  0  0  0  0  0
   -4.4540   24.4630  -30.6550 C   0  0  0  0  0  0  0  0  0  0  0  0
   -4.2560   25.6910  -30.4590 O   0  0  0  0  0  0  0  0  0  0  0  0
   -5.2150   24.0670  -31.8050 N   0  0  0  0  0  0  0  0  0  0  0  0
   -6.1980   23.0260  -31.8610 C   0  0  0  0  0  0  0  0  0  0  0  0
   -7.5300   23.2690  -31.4890 C   0  0  0  0  0  0  0  0  0  0  0  0
   -8.4730   22.2400  -31.5360 C   0  0  0  0  0  0  0  0  0  0  0  0
   -8.0930   20.9470  -31.9240 C   0  0  0  0  0  0  0  0  0  0  0  0
   -9.1090   19.8470  -32.0000 C   0  0  0  0  0  0  0  0  0  0  0  0
   -6.7610   20.7020  -32.2880 C   0  0  0  0  0  0  0  0  0  0  0  0
   -5.8130   21.7310  -32.2430 C   0  0  0  0  0  0  0  0  0  0  0  0
   -3.9990   21.3460  -32.7270 Br  0  0  0  0  0  0  0  0  0  0  0  0
   -2.0750   21.0060  -28.3320 C   0  0  0  0  0  0  0  0  0  0  0  0
   -1.8060   20.3850  -27.1680 N   0  0  0  0  0  0  0  0  0  0  0  0
   -1.6730   18.9450  -26.9580 C   0  0  0  0  0  0  0  0  0  0  0  0
   -2.7310   18.4430  -25.9760 C   0  0  0  0  0  0  0  0  0  0  0  0
   -3.9930   18.9360  -26.3330 O   0  0  0  0  0  0  0  0  0  0  0  0
   -1.5490   21.3740  -26.2860 C   0  0  0  0  0  0  0  0  0  0  0  0
   -1.2190   21.1700  -25.0870 O   0  0  0  0  0  0  0  0  0  0  0  0
   -2.2440   24.9490  -26.3340 C   0  0  0  0  0  0  0  0  0  0  0  0
   -1.9400   26.1720  -25.7270 C   0  0  0  0  0  0  0  0  0  0  0  0
   -0.4472   27.5436  -23.2572 H   0  0  0  0  0  0  0  0  0  0  0  0
    0.5840   27.9431  -24.6728 H   0  0  0  0  0  0  0  0  0  0  0  0
   -1.1550   28.3933  -24.6728 H   0  0  0  0  0  0  0  0  0  0  0  0
    1.0544   25.3422  -24.2950 H   0  0  0  0  0  0  0  0  0  0  0  0
    0.5042   23.1599  -25.3667 H   0  0  0  0  0  0  0  0  0  0  0  0
   -4.1668   22.4559  -29.9950 H   0  0  0  0  0  0  0  0  0  0  0  0
   -4.4214   23.6842  -28.6823 H   0  0  0  0  0  0  0  0  0  0  0  0
   -7.8319   24.2740  -31.1592 H   0  0  0  0  0  0  0  0  0  0  0  0
   -9.5198   22.4448  -31.2672 H   0  0  0  0  0  0  0  0  0  0  0  0
   -9.3931   19.5394  -30.9828 H   0  0  0  0  0  0  0  0  0  0  0  0
   -9.9994   20.2067  -32.5365 H   0  0  0  0  0  0  0  0  0  0  0  0
   -8.6799   18.9879  -32.5365 H   0  0  0  0  0  0  0  0  0  0  0  0
   -6.4592   19.6947  -32.6110 H   0  0  0  0  0  0  0  0  0  0  0  0
   -2.3048   20.5119  -29.2875 H   0  0  0  0  0  0  0  0  0  0  0  0
   -1.7982   18.4266  -27.9201 H   0  0  0  0  0  0  0  0  0  0  0  0
   -0.6764   18.7387  -26.5406 H   0  0  0  0  0  0  0  0  0  0  0  0
   -2.7516   17.3433  -25.9944 H   0  0  0  0  0  0  0  0  0  0  0  0
   -2.4797   18.7962  -24.9650 H   0  0  0  0  0  0  0  0  0  0  0  0
   -4.4910   19.0490  -25.4840 H   0  0  0  0  0  0  0  0  0  0  0  0
   -3.1757   24.8400  -26.9086 H   0  0  0  0  0  0  0  0  0  0  0  0
   -2.6257   27.0247  -25.8400 H   0  0  0  0  0  0  0  0  0  0  0  0
  1  2  1  0
  2  3  2  0
  3  4  1  0
  4  5  2  0
  5  6  1  0
  6  7  1  0
  7  8  1  0
  8  9  1  0
  9 10  1  0
 10 11  2  0
 10 12  1  0
 12 13  1  0
 13 14  2  0
 14 15  1  0
 15 16  2  0
 16 17  1  0
 16 18  1  0
 18 19  2  0
 19 20  1  0
  7 21  2  0
 21 22  1  0
 22 23  1  0
 23 24  1  0
 24 25  1  0
 22 26  1  0
 26 27  2  0
  5 28  1  0
 28 29  2  0
 29  2  1  0
 26  6  1  0
 19 13  1  0
  1 30  1  0
  1 31  1  0
  1 32  1  0
  3 33  1  0
  4 34  1  0
  9 35  1  0
  9 36  1  0
 14 37  1  0
 15 38  1  0
 17 39  1  0
 17 40  1  0
 17 41  1  0
 18 42  1  0
 21 43  1  0
 23 44  1  0
 23 45  1  0
 24 46  1  0
 24 47  1  0
 25 48  1  0
 28 49  1  0
 29 50  1  0
M  CHG  1  12  -1
M  END
>  <UniqueID>  (49) 
45

>  <SMILES>  (49) 
Cc1ccc(-n2c(SCC(=O)[N-]c3ccc(C)cc3Br)cn(CCO)c2=O)cc1

>  <Energy>  (49) 
87.1727113633143

>  <Genealogy>  (49) 
Cc1ccc(-n2c(SCC(=O)[N-]c3ccc(C)cc3Br)cn(CCO)c2=O)cc1 (protonated)
Cc1ccc(-n2c(SCC(=O)[N-]c3ccc(C)cc3Br)cn(CCO)c2=O)cc1 (3D coordinates assigned)
Cc1ccc(-n2c(SCC(=O)[N-]c3ccc(C)cc3Br)cn(CCO)c2=O)cc1 (optimized conformer: 87.1727113633143 kcal/mol)

>  <smiles>  (49) 
Cc1ccc(-n2c(SCC(=O)Nc3ccc(C)cc3Br)cn(CCO)c2=O)cc1

>  <score_type>  (49) 
oracle

>  <origin>  (49) 
adgpu

>  <m_score__min__energy>  (49) 
-10.58

>  <m_primary>  (49) 
energy

$$$$
