0:0
     RDKit          3D

 38 39  0  0  0  0  0  0  0  0999 V2000
   -6.3670   19.6590  -33.3670 C   0  0  0  0  0  0  0  0  0  0  0  0
   -4.8880   20.0180  -33.4670 C   0  0  0  0  0  0  0  0  0  0  0  0
   -4.3640   20.5700  -32.1410 C   0  0  0  0  0  0  0  0  0  0  0  0
   -3.7550   22.2810  -32.3420 S   0  0  0  0  0  0  0  0  0  0  0  0
   -5.2230   23.0610  -31.6580 C   0  0  0  0  0  0  0  0  0  0  0  0
   -6.4360   22.5220  -31.9480 N   0  0  0  0  0  0  0  0  0  0  0  0
   -7.5890   23.0960  -31.5160 C   0  0  0  0  0  0  0  0  0  0  0  0
   -8.9040   22.4980  -31.8880 C   0  0  0  0  0  0  0  0  0  0  0  0
   -7.5430   24.2570  -30.8110 N   0  0  0  0  0  0  0  0  0  0  0  0
   -6.3570   24.8340  -30.4920 C   0  0  0  0  0  0  0  0  0  0  0  0
   -5.1570   24.2350  -30.8790 C   0  0  0  0  0  0  0  0  0  0  0  0
   -3.9180   24.8700  -30.5370 N   0  0  0  0  0  0  0  0  0  0  0  0
   -3.0900   24.5010  -29.4300 C   0  0  0  0  0  0  0  0  0  0  0  0
   -3.2890   23.3940  -28.8620 O   0  0  0  0  0  0  0  0  0  0  0  0
   -1.9970   25.3400  -29.0210 N   0  0  0  0  0  0  0  0  0  0  0  0
   -1.3510   25.2510  -27.7400 C   0  0  0  0  0  0  0  0  0  0  0  0
   -2.0350   25.6830  -26.5930 C   0  0  0  0  0  0  0  0  0  0  0  0
   -1.4370   25.5810  -25.3320 C   0  0  0  0  0  0  0  0  0  0  0  0
   -0.1580   25.0350  -25.2050 C   0  0  0  0  0  0  0  0  0  0  0  0
    0.5230   24.5820  -26.3390 C   0  0  0  0  0  0  0  0  0  0  0  0
   -0.0700   24.6820  -27.6010 C   0  0  0  0  0  0  0  0  0  0  0  0
   -6.6565   19.5887  -32.3081 H   0  0  0  0  0  0  0  0  0  0  0  0
   -6.9674   20.4375  -33.8604 H   0  0  0  0  0  0  0  0  0  0  0  0
   -6.5437   18.6919  -33.8604 H   0  0  0  0  0  0  0  0  0  0  0  0
   -4.3166   19.1160  -33.7314 H   0  0  0  0  0  0  0  0  0  0  0  0
   -4.7681   20.7922  -34.2392 H   0  0  0  0  0  0  0  0  0  0  0  0
   -5.1777   20.5620  -31.4009 H   0  0  0  0  0  0  0  0  0  0  0  0
   -3.5301   19.9377  -31.8021 H   0  0  0  0  0  0  0  0  0  0  0  0
   -9.4627   22.2439  -30.9751 H   0  0  0  0  0  0  0  0  0  0  0  0
   -9.4813   23.2221  -32.4816 H   0  0  0  0  0  0  0  0  0  0  0  0
   -8.7377   21.5870  -32.4816 H   0  0  0  0  0  0  0  0  0  0  0  0
   -6.3411   25.7773  -29.9263 H   0  0  0  0  0  0  0  0  0  0  0  0
   -1.6100   26.0130  -29.7210 H   0  0  0  0  0  0  0  0  0  0  0  0
   -3.0469   26.1042  -26.6859 H   0  0  0  0  0  0  0  0  0  0  0  0
   -1.9754   25.9316  -24.4391 H   0  0  0  0  0  0  0  0  0  0  0  0
    0.3132   24.9614  -24.2138 H   0  0  0  0  0  0  0  0  0  0  0  0
    1.5278   24.1459  -26.2379 H   0  0  0  0  0  0  0  0  0  0  0  0
    0.4658   24.3149  -28.4888 H   0  0  0  0  0  0  0  0  0  0  0  0
  1  2  1  0
  2  3  1  0
  3  4  1  0
  4  5  1  0
  5  6  2  0
  6  7  1  0
  7  8  1  0
  7  9  2  0
  9 10  1  0
 10 11  2  0
 11 12  1  0
 12 13  1  0
 13 14  2  0
 13 15  1  0
 15 16  1  0
 16 17  2  0
 17 18  1  0
 18 19  2  0
 19 20  1  0
 20 21  2  0
 11  5  1  0
 21 16  1  0
  1 22  1  0
  1 23  1  0
  1 24  1  0
  2 25  1  0
  2 26  1  0
  3 27  1  0
  3 28  1  0
  8 29  1  0
  8 30  1  0
  8 31  1  0
 10 32  1  0
 15 33  1  0
 17 34  1  0
 18 35  1  0
 19 36  1  0
 20 37  1  0
 21 38  1  0
M  CHG  1  12  -1
M  END
>  <UniqueID>  (1) 
1

>  <SMILES>  (1) 
CCCSc1nc(C)ncc1[N-]C(=O)Nc1ccccc1

>  <Energy>  (1) 
38.220423444278445

>  <Genealogy>  (1) 
CCCSc1nc(C)ncc1[N-]C(=O)Nc1ccccc1 (protonated)
CCCSc1nc(C)ncc1[N-]C(=O)Nc1ccccc1 (3D coordinates assigned)
CCCSc1nc(C)ncc1[N-]C(=O)Nc1ccccc1 (optimized conformer: 38.220423444278445 kcal/mol)

>  <smiles>  (1) 
CCCSc1nc(C)ncc1NC(=O)Nc1ccccc1

>  <score_type>  (1) 
oracle

>  <origin>  (1) 
adgpu

>  <m_score__min__energy>  (1) 
-8.7899999999999991

>  <m_primary>  (1) 
energy

$$$$
1:0
     RDKit          3D

 50 53  0  0  0  0  0  0  0  0999 V2000
   -2.2776   20.4940  -34.2344 H   0  0  0  0  0  0  0  0  0  0  0  0
   -2.9390   20.9630  -33.4910 C   0  0  0  0  0  0  0  0  0  0  0  0
   -4.2860   20.9130  -33.5080 N   0  0  0  0  0  0  0  0  0  0  0  0
   -4.6630   21.6170  -32.4180 C   0  0  0  0  0  0  0  0  0  0  0  0
   -6.0850   21.8870  -32.1150 C   0  0  0  0  0  0  0  0  0  0  0  0
   -6.6080   23.1900  -32.2010 C   0  0  0  0  0  0  0  0  0  0  0  0
   -5.9516   24.0264  -32.4833 H   0  0  0  0  0  0  0  0  0  0  0  0
   -7.9590   23.4260  -31.9290 C   0  0  0  0  0  0  0  0  0  0  0  0
   -8.3598   24.4489  -31.9851 H   0  0  0  0  0  0  0  0  0  0  0  0
   -8.8010   22.3650  -31.5860 C   0  0  0  0  0  0  0  0  0  0  0  0
   -9.8623   22.5533  -31.3665 H   0  0  0  0  0  0  0  0  0  0  0  0
   -8.2940   21.0650  -31.5220 C   0  0  0  0  0  0  0  0  0  0  0  0
   -8.9587   20.2294  -31.2577 H   0  0  0  0  0  0  0  0  0  0  0  0
   -6.9440   20.8230  -31.7930 C   0  0  0  0  0  0  0  0  0  0  0  0
   -6.5529   19.7956  -31.7540 H   0  0  0  0  0  0  0  0  0  0  0  0
   -3.6020   22.0920  -31.7180 N   0  0  0  0  0  0  0  0  0  0  0  0
   -3.5700   22.7890  -30.4620 C   0  0  0  0  0  0  0  0  0  0  0  0
   -2.4540   23.4800  -30.1060 N   0  0  0  0  0  0  0  0  0  0  0  0
   -2.3690   24.1300  -28.9150 C   0  0  0  0  0  0  0  0  0  0  0  0
   -1.2930   24.8060  -28.6370 N   0  0  0  0  0  0  0  0  0  0  0  0
   -1.0060   25.5100  -27.4170 C   0  0  0  0  0  0  0  0  0  0  0  0
   -0.6170   26.8620  -27.4080 C   0  0  0  0  0  0  0  0  0  0  0  0
   -0.4997   27.4043  -28.3578 H   0  0  0  0  0  0  0  0  0  0  0  0
   -0.3790   27.5190  -26.1980 C   0  0  0  0  0  0  0  0  0  0  0  0
   -0.0572   28.5709  -26.2011 H   0  0  0  0  0  0  0  0  0  0  0  0
   -0.5480   26.8450  -24.9790 C   0  0  0  0  0  0  0  0  0  0  0  0
   -0.2690   27.5540  -23.6740 C   0  0  0  0  0  0  0  0  0  0  0  0
   -1.0281   27.2532  -22.9370 H   0  0  0  0  0  0  0  0  0  0  0  0
   -0.3040   28.6373  -23.8615 H   0  0  0  0  0  0  0  0  0  0  0  0
    1.0730   27.2250  -23.1400 N   0  0  0  0  0  0  0  0  0  0  0  0
    0.9780   26.5310  -22.3600 H   0  0  0  0  0  0  0  0  0  0  0  0
    1.7560   28.4240  -22.6210 C   0  0  0  0  0  0  0  0  0  0  0  0
    1.7452   28.4050  -21.5212 H   0  0  0  0  0  0  0  0  0  0  0  0
    2.7966   28.4363  -22.9773 H   0  0  0  0  0  0  0  0  0  0  0  0
    1.2358   29.3254  -22.9773 H   0  0  0  0  0  0  0  0  0  0  0  0
    1.8940   26.6040  -24.1940 C   0  0  0  0  0  0  0  0  0  0  0  0
    2.6901   26.0019  -23.7317 H   0  0  0  0  0  0  0  0  0  0  0  0
    1.2606   25.9569  -24.8186 H   0  0  0  0  0  0  0  0  0  0  0  0
    2.3443   27.3895  -24.8186 H   0  0  0  0  0  0  0  0  0  0  0  0
   -0.9630   25.5040  -24.9880 C   0  0  0  0  0  0  0  0  0  0  0  0
   -1.1015   24.9672  -24.0379 H   0  0  0  0  0  0  0  0  0  0  0  0
   -1.2010   24.8480  -26.1990 C   0  0  0  0  0  0  0  0  0  0  0  0
   -1.5444   23.8030  -26.1950 H   0  0  0  0  0  0  0  0  0  0  0  0
   -3.4260   24.0970  -28.0570 N   0  0  0  0  0  0  0  0  0  0  0  0
   -4.5550   23.4050  -28.3580 C   0  0  0  0  0  0  0  0  0  0  0  0
   -5.3943   23.3837  -27.6473 H   0  0  0  0  0  0  0  0  0  0  0  0
   -4.6480   22.7220  -29.5690 C   0  0  0  0  0  0  0  0  0  0  0  0
   -5.5488   22.1423  -29.8189 H   0  0  0  0  0  0  0  0  0  0  0  0
   -2.5180   21.6900  -32.4020 C   0  0  0  0  0  0  0  0  0  0  0  0
   -1.4725   21.9054  -32.1366 H   0  0  0  0  0  0  0  0  0  0  0  0
  1  2  1  0
  2  3  1  0
  3  4  2  0
  4  5  1  0
  5  6  2  0
  6  7  1  0
  6  8  1  0
  8  9  1  0
  8 10  2  0
 10 11  1  0
 10 12  1  0
 12 13  1  0
 12 14  2  0
 14 15  1  0
  4 16  1  0
 16 17  1  0
 17 18  2  0
 18 19  1  0
 19 20  2  0
 20 21  1  0
 21 22  2  0
 22 23  1  0
 22 24  1  0
 24 25  1  0
 24 26  2  0
 26 27  1  0
 27 28  1  0
 27 29  1  0
 27 30  1  0
 30 31  1  0
 30 32  1  0
 32 33  1  0
 32 34  1  0
 32 35  1  0
 30 36  1  0
 36 37  1  0
 36 38  1  0
 36 39  1  0
 26 40  1  0
 40 41  1  0
 40 42  2  0
 42 43  1  0
 19 44  1  0
 44 45  1  0
 45 46  1  0
 45 47  2  0
 47 48  1  0
 16 49  1  0
 49 50  1  0
 49  2  2  0
 14  5  1  0
 47 17  1  0
 42 21  1  0
M  CHG  2  30   1  44  -1
M  END
>  <UniqueID>  (2) 
2

>  <SMILES>  (2) 
C[NH+](C)Cc1ccc(/N=c2/nc(-n3ccnc3-c3ccccc3)cc[n-]2)cc1

>  <Energy>  (2) 
99.77224995514125

>  <Genealogy>  (2) 
C[NH+](C)Cc1ccc(N=c2nc(-n3ccnc3-c3ccccc3)cc[n-]2)cc1 (protonated)
C[NH+](C)Cc1ccc(/N=c2/nc(-n3ccnc3-c3ccccc3)cc[n-]2)cc1 (cis-trans isomerization)
C[NH+](C)Cc1ccc(/N=c2/nc(-n3ccnc3-c3ccccc3)cc[n-]2)cc1 (3D coordinates assigned)
C[NH+](C)Cc1ccc(/N=c2/nc(-n3ccnc3-c3ccccc3)cc[n-]2)cc1 (optimized conformer: 99.77224995514125 kcal/mol)

>  <smiles>  (2) 
CN(C)Cc1ccc(N=c2nc(-n3ccnc3-c3ccccc3)cc[nH]2)cc1

>  <score_type>  (2) 
oracle

>  <origin>  (2) 
adgpu

>  <m_score__min__energy>  (2) 
-10.09

>  <m_primary>  (2) 
energy

$$$$
2:0
     RDKit          3D

 50 53  0  0  0  0  0  0  0  0999 V2000
   -6.7210   24.3610  -30.1900 O   0  0  0  0  0  0  0  0  0  0  0  0
   -5.2440   24.4070  -30.4710 S   0  0  0  0  0  0  0  0  0  0  0  0
   -4.9290   25.6740  -31.2220 O   0  0  0  0  0  0  0  0  0  0  0  0
   -4.3680   24.3860  -28.9720 N   0  0  0  0  0  0  0  0  0  0  0  0
   -3.1450   23.6610  -28.7690 C   0  0  0  0  0  0  0  0  0  0  0  0
   -3.1410   22.3100  -28.3780 C   0  0  0  0  0  0  0  0  0  0  0  0
   -1.9440   21.6590  -28.0390 C   0  0  0  0  0  0  0  0  0  0  0  0
   -0.7220   22.3530  -28.1600 C   0  0  0  0  0  0  0  0  0  0  0  0
   -0.7240   23.6880  -28.5990 C   0  0  0  0  0  0  0  0  0  0  0  0
   -1.9260   24.3350  -28.9080 C   0  0  0  0  0  0  0  0  0  0  0  0
   -1.9070   25.6580  -29.3420 O   0  0  0  0  0  0  0  0  0  0  0  0
    0.5770   21.6800  -27.8050 C   0  0  0  0  0  0  0  0  0  0  0  0
    0.4880   20.1850  -28.0980 C   0  0  0  0  0  0  0  0  0  0  0  0
   -0.6410   19.5610  -27.2730 C   0  0  0  0  0  0  0  0  0  0  0  0
   -2.0110   20.2350  -27.5130 C   0  0  0  0  0  0  0  0  0  0  0  0
   -4.8080   22.9820  -31.4100 C   0  0  0  0  0  0  0  0  0  0  0  0
   -5.8070   22.0760  -31.7860 C   0  0  0  0  0  0  0  0  0  0  0  0
   -5.4650   20.8720  -32.4040 C   0  0  0  0  0  0  0  0  0  0  0  0
   -4.1250   20.5590  -32.6410 C   0  0  0  0  0  0  0  0  0  0  0  0
   -3.8070   19.3370  -33.2240 O   0  0  0  0  0  0  0  0  0  0  0  0
   -3.1140   21.4720  -32.2860 C   0  0  0  0  0  0  0  0  0  0  0  0
   -1.4150   21.0880  -32.5820 S   0  0  0  0  0  0  0  0  0  0  0  0
   -1.2370   19.5950  -32.5720 O   0  0  0  0  0  0  0  0  0  0  0  0
   -0.5650   21.6850  -31.4940 O   0  0  0  0  0  0  0  0  0  0  0  0
   -0.9000   21.7270  -34.1100 N   0  0  0  0  0  0  0  0  0  0  0  0
    0.0240   21.0200  -34.9380 C   0  0  0  0  0  0  0  0  0  0  0  0
   -0.1130   19.6370  -35.1240 C   0  0  0  0  0  0  0  0  0  0  0  0
    0.8150   18.9380  -35.9080 C   0  0  0  0  0  0  0  0  0  0  0  0
    1.8860   19.6160  -36.4990 C   0  0  0  0  0  0  0  0  0  0  0  0
    2.0250   20.9960  -36.3160 C   0  0  0  0  0  0  0  0  0  0  0  0
    1.0930   21.7000  -35.5390 C   0  0  0  0  0  0  0  0  0  0  0  0
    1.2450   23.0690  -35.3530 O   0  0  0  0  0  0  0  0  0  0  0  0
   -3.4650   22.6880  -31.6830 C   0  0  0  0  0  0  0  0  0  0  0  0
   -4.0899   21.7550  -28.3372 H   0  0  0  0  0  0  0  0  0  0  0  0
    0.2281   24.2295  -28.7007 H   0  0  0  0  0  0  0  0  0  0  0  0
    1.3900   22.1202  -28.4011 H   0  0  0  0  0  0  0  0  0  0  0  0
    0.7782   21.8264  -26.7335 H   0  0  0  0  0  0  0  0  0  0  0  0
    0.2844   20.0342  -29.1684 H   0  0  0  0  0  0  0  0  0  0  0  0
    1.4411   19.7052  -27.8307 H   0  0  0  0  0  0  0  0  0  0  0  0
   -0.7227   18.4970  -27.5398 H   0  0  0  0  0  0  0  0  0  0  0  0
   -0.3879   19.7011  -26.2117 H   0  0  0  0  0  0  0  0  0  0  0  0
   -2.5667   19.6277  -28.2427 H   0  0  0  0  0  0  0  0  0  0  0  0
   -2.5006   20.2937  -26.5297 H   0  0  0  0  0  0  0  0  0  0  0  0
   -6.8638   22.3135  -31.5940 H   0  0  0  0  0  0  0  0  0  0  0  0
   -6.2540   20.1672  -32.7054 H   0  0  0  0  0  0  0  0  0  0  0  0
   -0.9500   19.0999  -34.6539 H   0  0  0  0  0  0  0  0  0  0  0  0
    0.7008   17.8544  -36.0587 H   0  0  0  0  0  0  0  0  0  0  0  0
    2.6183   19.0647  -37.1071 H   0  0  0  0  0  0  0  0  0  0  0  0
    2.8663   21.5298  -36.7821 H   0  0  0  0  0  0  0  0  0  0  0  0
   -2.6820   23.4155  -31.4227 H   0  0  0  0  0  0  0  0  0  0  0  0
  1  2  2  0
  2  3  2  0
  2  4  1  0
  4  5  1  0
  5  6  2  0
  6  7  1  0
  7  8  2  0
  8  9  1  0
  9 10  2  0
 10 11  1  0
  8 12  1  0
 12 13  1  0
 13 14  1  0
 14 15  1  0
  2 16  1  0
 16 17  2  0
 17 18  1  0
 18 19  2  0
 19 20  1  0
 19 21  1  0
 21 22  1  0
 22 23  2  0
 22 24  2  0
 22 25  1  0
 25 26  1  0
 26 27  2  0
 27 28  1  0
 28 29  2  0
 29 30  1  0
 30 31  2  0
 31 32  1  0
 21 33  2  0
 10  5  1  0
 33 16  1  0
 15  7  1  0
 31 26  1  0
  6 34  1  0
  9 35  1  0
 12 36  1  0
 12 37  1  0
 13 38  1  0
 13 39  1  0
 14 40  1  0
 14 41  1  0
 15 42  1  0
 15 43  1  0
 17 44  1  0
 18 45  1  0
 27 46  1  0
 28 47  1  0
 29 48  1  0
 30 49  1  0
 33 50  1  0
M  CHG  5   4  -1  11  -1  20  -1  25  -1  32  -1
M  END
>  <UniqueID>  (3) 
3

>  <SMILES>  (3) 
O=S(=O)([N-]c1cc2c(cc1[O-])CCCC2)c1ccc([O-])c(S(=O)(=O)[N-]c2ccccc2[O-])c1

>  <Energy>  (3) 
69.89555111516354

>  <Genealogy>  (3) 
O=S(=O)([N-]c1cc2c(cc1[O-])CCCC2)c1ccc([O-])c(S(=O)(=O)[N-]c2ccccc2[O-])c1 (protonated)
O=S(=O)([N-]c1cc2c(cc1[O-])CCCC2)c1ccc([O-])c(S(=O)(=O)[N-]c2ccccc2[O-])c1 (3D coordinates assigned)
O=S(=O)([N-]c1cc2c(cc1[O-])CCCC2)c1ccc([O-])c(S(=O)(=O)[N-]c2ccccc2[O-])c1 (nonaromatic ring conformer: 69.89555111516354 kcal/mol)

>  <smiles>  (3) 
O=S(=O)(Nc1cc2c(cc1O)CCCC2)c1ccc(O)c(S(=O)(=O)Nc2ccccc2O)c1

>  <score_type>  (3) 
oracle

>  <origin>  (3) 
adgpu

>  <m_score__min__energy>  (3) 
-16.579999999999998

>  <m_primary>  (3) 
energy

$$$$
3:0
     RDKit          3D

 52 55  0  0  0  0  0  0  0  0999 V2000
   -1.6750   18.3670  -34.3500 C   0  0  0  0  0  0  0  0  0  0  0  0
   -1.7750   19.3600  -33.2340 C   0  0  0  0  0  0  0  0  0  0  0  0
   -2.3970   20.6000  -33.4500 C   0  0  0  0  0  0  0  0  0  0  0  0
   -2.4850   21.5320  -32.4140 C   0  0  0  0  0  0  0  0  0  0  0  0
   -1.9370   21.2430  -31.1560 C   0  0  0  0  0  0  0  0  0  0  0  0
   -2.1210   22.3750  -29.8210 S   0  0  0  0  0  0  0  0  0  0  0  0
   -2.5800   21.6170  -28.6080 O   0  0  0  0  0  0  0  0  0  0  0  0
   -0.8120   23.0450  -29.5110 O   0  0  0  0  0  0  0  0  0  0  0  0
   -3.3090   23.6050  -30.2340 C   0  0  0  0  0  0  0  0  0  0  0  0
   -3.1010   24.9270  -30.0730 N   0  0  0  0  0  0  0  0  0  0  0  0
   -4.1970   25.5720  -30.4540 N   0  0  0  0  0  0  0  0  0  0  0  0
   -5.1170   24.6690  -30.8590 C   0  0  0  0  0  0  0  0  0  0  0  0
   -4.5800   23.4050  -30.7320 C   0  0  0  0  0  0  0  0  0  0  0  0
   -5.2110   22.1550  -31.0390 N   0  0  0  0  0  0  0  0  0  0  0  0
   -5.7020   21.8260  -32.3740 C   0  0  0  0  0  0  0  0  0  0  0  0
   -7.1400   21.3580  -32.3450 C   0  0  0  0  0  0  0  0  0  0  0  0
   -8.1390   22.2790  -31.9780 C   0  0  0  0  0  0  0  0  0  0  0  0
   -9.4770   21.8880  -31.9030 C   0  0  0  0  0  0  0  0  0  0  0  0
   -9.8380   20.5700  -32.1800 C   0  0  0  0  0  0  0  0  0  0  0  0
   -8.8610   19.6380  -32.5330 C   0  0  0  0  0  0  0  0  0  0  0  0
   -7.5110   20.0150  -32.6150 C   0  0  0  0  0  0  0  0  0  0  0  0
   -6.5450   19.0180  -32.9870 N   0  0  0  0  0  0  0  0  0  0  0  0
   -5.8530   19.1550  -34.2820 C   0  0  0  0  0  0  0  0  0  0  0  0
   -5.4690   17.7910  -34.9170 C   0  0  0  0  0  0  0  0  0  0  0  0
   -6.0110   16.6890  -34.2180 O   0  0  0  0  0  0  0  0  0  0  0  0
   -5.6060   16.7480  -32.8690 C   0  0  0  0  0  0  0  0  0  0  0  0
   -6.4150   17.8210  -32.1540 C   0  0  0  0  0  0  0  0  0  0  0  0
   -1.2850   20.0210  -30.9500 C   0  0  0  0  0  0  0  0  0  0  0  0
   -1.2040   19.0810  -31.9810 C   0  0  0  0  0  0  0  0  0  0  0  0
   -1.5731   17.3546  -33.9320 H   0  0  0  0  0  0  0  0  0  0  0  0
   -2.5829   18.4184  -34.9690 H   0  0  0  0  0  0  0  0  0  0  0  0
   -0.7956   18.5984  -34.9690 H   0  0  0  0  0  0  0  0  0  0  0  0
   -2.8164   20.8381  -34.4386 H   0  0  0  0  0  0  0  0  0  0  0  0
   -2.9859   22.4962  -32.5853 H   0  0  0  0  0  0  0  0  0  0  0  0
   -6.1263   24.9031  -31.2285 H   0  0  0  0  0  0  0  0  0  0  0  0
   -5.3800   21.4670  -30.2750 H   0  0  0  0  0  0  0  0  0  0  0  0
   -5.6318   22.7210  -33.0096 H   0  0  0  0  0  0  0  0  0  0  0  0
   -5.0845   21.0078  -32.7730 H   0  0  0  0  0  0  0  0  0  0  0  0
   -7.8624   23.3184  -31.7477 H   0  0  0  0  0  0  0  0  0  0  0  0
  -10.2482   22.6213  -31.6248 H   0  0  0  0  0  0  0  0  0  0  0  0
  -10.8931   20.2647  -32.1203 H   0  0  0  0  0  0  0  0  0  0  0  0
   -9.1511   18.5991  -32.7488 H   0  0  0  0  0  0  0  0  0  0  0  0
   -6.5158   19.6904  -34.9777 H   0  0  0  0  0  0  0  0  0  0  0  0
   -4.9182   19.7044  -34.0969 H   0  0  0  0  0  0  0  0  0  0  0  0
   -5.8411   17.7681  -35.9519 H   0  0  0  0  0  0  0  0  0  0  0  0
   -4.3733   17.7031  -34.8749 H   0  0  0  0  0  0  0  0  0  0  0  0
   -5.7803   15.7738  -32.3889 H   0  0  0  0  0  0  0  0  0  0  0  0
   -4.5348   16.9920  -32.8134 H   0  0  0  0  0  0  0  0  0  0  0  0
   -7.4174   17.4272  -31.9301 H   0  0  0  0  0  0  0  0  0  0  0  0
   -5.8936   18.0940  -31.2247 H   0  0  0  0  0  0  0  0  0  0  0  0
   -0.8341   19.7997  -29.9714 H   0  0  0  0  0  0  0  0  0  0  0  0
   -0.6928   18.1219  -31.8113 H   0  0  0  0  0  0  0  0  0  0  0  0
  1  2  1  0
  2  3  2  0
  3  4  1  0
  4  5  2  0
  5  6  1  0
  6  7  2  0
  6  8  2  0
  6  9  1  0
  9 10  2  0
 10 11  1  0
 11 12  1  0
 12 13  2  0
 13 14  1  0
 14 15  1  0
 15 16  1  0
 16 17  2  0
 17 18  1  0
 18 19  2  0
 19 20  1  0
 20 21  2  0
 21 22  1  0
 22 23  1  0
 23 24  1  0
 24 25  1  0
 25 26  1  0
 26 27  1  0
  5 28  1  0
 28 29  2  0
 29  2  1  0
 13  9  1  0
 21 16  1  0
 27 22  1  0
  1 30  1  0
  1 31  1  0
  1 32  1  0
  3 33  1  0
  4 34  1  0
 12 35  1  0
 14 36  1  0
 15 37  1  0
 15 38  1  0
 17 39  1  0
 18 40  1  0
 19 41  1  0
 20 42  1  0
 23 43  1  0
 23 44  1  0
 24 45  1  0
 24 46  1  0
 26 47  1  0
 26 48  1  0
 27 49  1  0
 27 50  1  0
 28 51  1  0
 29 52  1  0
M  CHG  1  11  -1
M  END
>  <UniqueID>  (4) 
4

>  <SMILES>  (4) 
Cc1ccc(S(=O)(=O)c2n[n-]cc2NCc2ccccc2N2CCOCC2)cc1

>  <Energy>  (4) 
95.5158931953845

>  <Genealogy>  (4) 
Cc1ccc(S(=O)(=O)c2n[n-]cc2NCc2ccccc2N2CCOCC2)cc1 (protonated)
Cc1ccc(S(=O)(=O)c2n[n-]cc2NCc2ccccc2N2CCOCC2)cc1 (3D coordinates assigned)
Cc1ccc(S(=O)(=O)c2n[n-]cc2NCc2ccccc2N2CCOCC2)cc1 (nonaromatic ring conformer: 95.5158931953845 kcal/mol)

>  <smiles>  (4) 
Cc1ccc(S(=O)(=O)c2n[nH]cc2NCc2ccccc2N2CCOCC2)cc1

>  <score_type>  (4) 
oracle

>  <origin>  (4) 
adgpu

>  <m_score__min__energy>  (4) 
-11.289999999999999

>  <m_primary>  (4) 
energy

$$$$
4:0
     RDKit          3D

 53 56  0  0  0  0  0  0  0  0999 V2000
   -1.7060   16.9960  -35.4430 O   0  0  0  0  0  0  0  0  0  0  0  0
   -2.5240   17.2650  -34.5210 C   0  0  0  0  0  0  0  0  0  0  0  0
   -3.5830   16.2800  -34.1880 C   0  0  0  0  0  0  0  0  0  0  0  0
   -3.2570   15.1000  -33.4920 C   0  0  0  0  0  0  0  0  0  0  0  0
   -4.2510   14.1730  -33.1640 C   0  0  0  0  0  0  0  0  0  0  0  0
   -5.5780   14.4110  -33.5250 C   0  0  0  0  0  0  0  0  0  0  0  0
   -5.9170   15.5850  -34.2040 C   0  0  0  0  0  0  0  0  0  0  0  0
   -4.9280   16.5170  -34.5320 C   0  0  0  0  0  0  0  0  0  0  0  0
   -2.3970   18.5580  -33.8110 C   0  0  0  0  0  0  0  0  0  0  0  0
   -3.3200   18.9240  -32.8180 C   0  0  0  0  0  0  0  0  0  0  0  0
   -3.1940   20.1440  -32.1490 C   0  0  0  0  0  0  0  0  0  0  0  0
   -2.1380   21.0110  -32.4480 C   0  0  0  0  0  0  0  0  0  0  0  0
   -2.0130   22.2270  -31.6960 N   0  0  0  0  0  0  0  0  0  0  0  0
   -2.6780   22.5360  -30.4620 C   0  0  0  0  0  0  0  0  0  0  0  0
   -2.0630   22.3280  -29.3830 O   0  0  0  0  0  0  0  0  0  0  0  0
   -4.0210   23.1720  -30.4230 C   0  0  0  0  0  0  0  0  0  0  0  0
   -5.1640   22.4340  -30.7780 C   0  0  0  0  0  0  0  0  0  0  0  0
   -6.4330   23.0260  -30.7670 C   0  0  0  0  0  0  0  0  0  0  0  0
   -7.8560   22.0760  -31.2010 S   0  0  0  0  0  0  0  0  0  0  0  0
   -8.7810   22.0120  -30.0170 O   0  0  0  0  0  0  0  0  0  0  0  0
   -8.5850   22.7600  -32.3250 O   0  0  0  0  0  0  0  0  0  0  0  0
   -7.4340   20.4560  -31.7020 N   0  0  0  0  0  0  0  0  0  0  0  0
   -8.6080   19.5680  -31.6110 C   0  0  0  0  0  0  0  0  0  0  0  0
   -8.3210   18.2110  -32.2840 C   0  0  0  0  0  0  0  0  0  0  0  0
   -6.9390   18.0540  -32.5420 O   0  0  0  0  0  0  0  0  0  0  0  0
   -6.5130   19.0220  -33.4870 C   0  0  0  0  0  0  0  0  0  0  0  0
   -6.9030   20.4580  -33.0720 C   0  0  0  0  0  0  0  0  0  0  0  0
   -6.5630   24.3730  -30.4070 C   0  0  0  0  0  0  0  0  0  0  0  0
   -5.4360   25.1200  -30.0650 C   0  0  0  0  0  0  0  0  0  0  0  0
   -4.1680   24.5310  -30.0720 C   0  0  0  0  0  0  0  0  0  0  0  0
   -3.0660   25.2980  -29.7170 O   0  0  0  0  0  0  0  0  0  0  0  0
   -1.2470   20.6800  -33.4890 C   0  0  0  0  0  0  0  0  0  0  0  0
   -0.2480   21.5640  -33.8800 O   0  0  0  0  0  0  0  0  0  0  0  0
   -1.3760   19.4570  -34.1590 C   0  0  0  0  0  0  0  0  0  0  0  0
   -2.2131   14.9062  -33.2044 H   0  0  0  0  0  0  0  0  0  0  0  0
   -3.9865   13.2541  -32.6202 H   0  0  0  0  0  0  0  0  0  0  0  0
   -6.3567   13.6752  -33.2754 H   0  0  0  0  0  0  0  0  0  0  0  0
   -6.9643   15.7759  -34.4808 H   0  0  0  0  0  0  0  0  0  0  0  0
   -5.2020   17.4411  -35.0620 H   0  0  0  0  0  0  0  0  0  0  0  0
   -4.1480   18.2454  -32.5651 H   0  0  0  0  0  0  0  0  0  0  0  0
   -3.9305   20.4247  -31.3817 H   0  0  0  0  0  0  0  0  0  0  0  0
   -5.0600   21.3780  -31.0681 H   0  0  0  0  0  0  0  0  0  0  0  0
   -8.8525   19.4007  -30.5516 H   0  0  0  0  0  0  0  0  0  0  0  0
   -9.4530   20.0464  -32.1278 H   0  0  0  0  0  0  0  0  0  0  0  0
   -8.6567   17.4017  -31.6189 H   0  0  0  0  0  0  0  0  0  0  0  0
   -8.8621   18.1736  -33.2410 H   0  0  0  0  0  0  0  0  0  0  0  0
   -5.4185   18.9661  -33.5817 H   0  0  0  0  0  0  0  0  0  0  0  0
   -7.0108   18.8011  -34.4427 H   0  0  0  0  0  0  0  0  0  0  0  0
   -6.0145   21.1049  -33.1178 H   0  0  0  0  0  0  0  0  0  0  0  0
   -7.6744   20.8365  -33.7588 H   0  0  0  0  0  0  0  0  0  0  0  0
   -7.5572   24.8435  -30.3939 H   0  0  0  0  0  0  0  0  0  0  0  0
   -5.5454   26.1789  -29.7881 H   0  0  0  0  0  0  0  0  0  0  0  0
   -0.6722   19.1987  -34.9639 H   0  0  0  0  0  0  0  0  0  0  0  0
  1  2  2  0
  2  3  1  0
  3  4  2  0
  4  5  1  0
  5  6  2  0
  6  7  1  0
  7  8  2  0
  2  9  1  0
  9 10  2  0
 10 11  1  0
 11 12  2  0
 12 13  1  0
 13 14  1  0
 14 15  2  0
 14 16  1  0
 16 17  2  0
 17 18  1  0
 18 19  1  0
 19 20  2  0
 19 21  2  0
 19 22  1  0
 22 23  1  0
 23 24  1  0
 24 25  1  0
 25 26  1  0
 26 27  1  0
 18 28  2  0
 28 29  1  0
 29 30  2  0
 30 31  1  0
 12 32  1  0
 32 33  1  0
 32 34  2  0
  8  3  1  0
 34  9  1  0
 30 16  1  0
 27 22  1  0
  4 35  1  0
  5 36  1  0
  6 37  1  0
  7 38  1  0
  8 39  1  0
 10 40  1  0
 11 41  1  0
 17 42  1  0
 23 43  1  0
 23 44  1  0
 24 45  1  0
 24 46  1  0
 26 47  1  0
 26 48  1  0
 27 49  1  0
 27 50  1  0
 28 51  1  0
 29 52  1  0
 34 53  1  0
M  CHG  3  13  -1  31  -1  33  -1
M  END
>  <UniqueID>  (5) 
5

>  <SMILES>  (5) 
O=C(c1ccccc1)c1ccc([N-]C(=O)c2cc(S(=O)(=O)N3CCOCC3)ccc2[O-])c([O-])c1

>  <Energy>  (5) 
78.9329182186411

>  <Genealogy>  (5) 
O=C(c1ccccc1)c1ccc([N-]C(=O)c2cc(S(=O)(=O)N3CCOCC3)ccc2[O-])c([O-])c1 (protonated)
O=C(c1ccccc1)c1ccc([N-]C(=O)c2cc(S(=O)(=O)N3CCOCC3)ccc2[O-])c([O-])c1 (3D coordinates assigned)
O=C(c1ccccc1)c1ccc([N-]C(=O)c2cc(S(=O)(=O)N3CCOCC3)ccc2[O-])c([O-])c1 (nonaromatic ring conformer: 78.9329182186411 kcal/mol)

>  <smiles>  (5) 
O=C(c1ccccc1)c1ccc(NC(=O)c2cc(S(=O)(=O)N3CCOCC3)ccc2O)c(O)c1

>  <score_type>  (5) 
oracle

>  <origin>  (5) 
adgpu

>  <m_score__min__energy>  (5) 
-16.890000000000001

>  <m_primary>  (5) 
energy

$$$$
5:0
     RDKit          3D

 61 64  0  0  0  0  0  0  0  0999 V2000
    4.3550   21.0210  -35.5940 C   0  0  0  0  0  0  0  0  0  0  0  0
    2.9090   21.2220  -35.5530 N   0  0  0  0  0  0  0  0  0  0  0  0
    2.3700   22.5430  -35.6780 C   0  0  0  0  0  0  0  0  0  0  0  0
    1.0400   22.7290  -36.0860 C   0  0  0  0  0  0  0  0  0  0  0  0
    0.5030   24.0190  -36.1670 C   0  0  0  0  0  0  0  0  0  0  0  0
    1.2940   25.1310  -35.8460 C   0  0  0  0  0  0  0  0  0  0  0  0
    0.7400   26.4570  -35.9250 C   0  0  0  0  0  0  0  0  0  0  0  0
    0.2940   27.5230  -35.9890 N   0  0  0  0  0  0  0  0  0  0  0  0
    2.6240   24.9490  -35.4420 C   0  0  0  0  0  0  0  0  0  0  0  0
    3.1580   23.6600  -35.3540 C   0  0  0  0  0  0  0  0  0  0  0  0
    1.8160   19.8730  -35.4610 S   0  0  0  0  0  0  0  0  0  0  0  0
    1.3750   19.4570  -36.8360 O   0  0  0  0  0  0  0  0  0  0  0  0
    2.4990   18.7050  -34.8040 O   0  0  0  0  0  0  0  0  0  0  0  0
    0.4030   20.3580  -34.5290 C   0  0  0  0  0  0  0  0  0  0  0  0
    0.5530   21.1620  -33.3930 C   0  0  0  0  0  0  0  0  0  0  0  0
   -0.5600   21.5120  -32.6250 C   0  0  0  0  0  0  0  0  0  0  0  0
   -1.8430   21.0480  -32.9720 C   0  0  0  0  0  0  0  0  0  0  0  0
   -3.0310   21.4120  -32.1610 C   0  0  0  0  0  0  0  0  0  0  0  0
   -3.8650   20.5190  -31.8440 O   0  0  0  0  0  0  0  0  0  0  0  0
   -3.2280   22.7590  -31.6980 N   0  0  0  0  0  0  0  0  0  0  0  0
   -4.4970   23.2530  -31.2410 C   0  0  0  0  0  0  0  0  0  0  0  0
   -5.6340   22.4410  -31.3690 C   0  0  0  0  0  0  0  0  0  0  0  0
   -6.8860   22.8930  -30.9280 C   0  0  0  0  0  0  0  0  0  0  0  0
   -8.3210   21.8890  -31.1270 S   0  0  0  0  0  0  0  0  0  0  0  0
   -9.1430   21.9190  -29.8670 O   0  0  0  0  0  0  0  0  0  0  0  0
   -9.1510   22.4460  -32.2500 O   0  0  0  0  0  0  0  0  0  0  0  0
   -7.8460   20.2510  -31.5020 N   0  0  0  0  0  0  0  0  0  0  0  0
   -9.0270   19.3720  -31.5000 C   0  0  0  0  0  0  0  0  0  0  0  0
   -8.6380   17.9450  -31.9410 C   0  0  0  0  0  0  0  0  0  0  0  0
   -7.2510   17.8390  -32.2120 O   0  0  0  0  0  0  0  0  0  0  0  0
   -6.8950   18.7520  -33.2320 C   0  0  0  0  0  0  0  0  0  0  0  0
   -7.1880   20.2100  -32.8170 C   0  0  0  0  0  0  0  0  0  0  0  0
   -7.0000   24.1650  -30.3540 C   0  0  0  0  0  0  0  0  0  0  0  0
   -5.8690   24.9680  -30.1940 C   0  0  0  0  0  0  0  0  0  0  0  0
   -4.6170   24.5140  -30.6220 C   0  0  0  0  0  0  0  0  0  0  0  0
   -3.4980   25.3090  -30.4020 O   0  0  0  0  0  0  0  0  0  0  0  0
   -1.9850   20.2400  -34.1160 C   0  0  0  0  0  0  0  0  0  0  0  0
   -0.8700   19.8950  -34.8850 C   0  0  0  0  0  0  0  0  0  0  0  0
    4.7469   20.9665  -34.5676 H   0  0  0  0  0  0  0  0  0  0  0  0
    4.5800   20.0829  -36.1226 H   0  0  0  0  0  0  0  0  0  0  0  0
    4.8273   21.8621  -36.1226 H   0  0  0  0  0  0  0  0  0  0  0  0
    0.4181   21.8588  -36.3427 H   0  0  0  0  0  0  0  0  0  0  0  0
   -0.5411   24.1605  -36.4830 H   0  0  0  0  0  0  0  0  0  0  0  0
    3.2476   25.8206  -35.1942 H   0  0  0  0  0  0  0  0  0  0  0  0
    4.1997   23.5198  -35.0297 H   0  0  0  0  0  0  0  0  0  0  0  0
    1.5521   21.5199  -33.1037 H   0  0  0  0  0  0  0  0  0  0  0  0
   -0.4329   22.1554  -31.7419 H   0  0  0  0  0  0  0  0  0  0  0  0
   -2.3810   23.3460  -31.5180 H   0  0  0  0  0  0  0  0  0  0  0  0
   -5.5425   21.4415  -31.8191 H   0  0  0  0  0  0  0  0  0  0  0  0
   -9.4492   19.3350  -30.4849 H   0  0  0  0  0  0  0  0  0  0  0  0
   -9.7704   19.7725  -32.2049 H   0  0  0  0  0  0  0  0  0  0  0  0
   -8.8990   17.2402  -31.1378 H   0  0  0  0  0  0  0  0  0  0  0  0
   -9.1865   17.7107  -32.8653 H   0  0  0  0  0  0  0  0  0  0  0  0
   -5.8203   18.6500  -33.4433 H   0  0  0  0  0  0  0  0  0  0  0  0
   -7.4944   18.5213  -34.1250 H   0  0  0  0  0  0  0  0  0  0  0  0
   -6.2417   20.7685  -32.7655 H   0  0  0  0  0  0  0  0  0  0  0  0
   -7.8571   20.6637  -33.5630 H   0  0  0  0  0  0  0  0  0  0  0  0
   -7.9840   24.5330  -30.0280 H   0  0  0  0  0  0  0  0  0  0  0  0
   -5.9628   25.9609  -29.7299 H   0  0  0  0  0  0  0  0  0  0  0  0
   -2.9818   19.8771  -34.4071 H   0  0  0  0  0  0  0  0  0  0  0  0
   -0.9927   19.2575  -35.7730 H   0  0  0  0  0  0  0  0  0  0  0  0
  1  2  1  0
  2  3  1  0
  3  4  2  0
  4  5  1  0
  5  6  2  0
  6  7  1  0
  7  8  3  0
  6  9  1  0
  9 10  2  0
  2 11  1  0
 11 12  2  0
 11 13  2  0
 11 14  1  0
 14 15  2  0
 15 16  1  0
 16 17  2  0
 17 18  1  0
 18 19  2  0
 18 20  1  0
 20 21  1  0
 21 22  2  0
 22 23  1  0
 23 24  1  0
 24 25  2  0
 24 26  2  0
 24 27  1  0
 27 28  1  0
 28 29  1  0
 29 30  1  0
 30 31  1  0
 31 32  1  0
 23 33  2  0
 33 34  1  0
 34 35  2  0
 35 36  1  0
 17 37  1  0
 37 38  2  0
 10  3  1  0
 38 14  1  0
 35 21  1  0
 32 27  1  0
  1 39  1  0
  1 40  1  0
  1 41  1  0
  4 42  1  0
  5 43  1  0
  9 44  1  0
 10 45  1  0
 15 46  1  0
 16 47  1  0
 20 48  1  0
 22 49  1  0
 28 50  1  0
 28 51  1  0
 29 52  1  0
 29 53  1  0
 31 54  1  0
 31 55  1  0
 32 56  1  0
 32 57  1  0
 33 58  1  0
 34 59  1  0
 37 60  1  0
 38 61  1  0
M  CHG  1  36  -1
M  END
>  <UniqueID>  (6) 
6

>  <SMILES>  (6) 
CN(c1ccc(C#N)cc1)S(=O)(=O)c1ccc(C(=O)Nc2cc(S(=O)(=O)N3CCOCC3)ccc2[O-])cc1

>  <Energy>  (6) 
83.18329190397328

>  <Genealogy>  (6) 
CN(c1ccc(C#N)cc1)S(=O)(=O)c1ccc(C(=O)Nc2cc(S(=O)(=O)N3CCOCC3)ccc2[O-])cc1 (protonated)
CN(c1ccc(C#N)cc1)S(=O)(=O)c1ccc(C(=O)Nc2cc(S(=O)(=O)N3CCOCC3)ccc2[O-])cc1 (3D coordinates assigned)
CN(c1ccc(C#N)cc1)S(=O)(=O)c1ccc(C(=O)Nc2cc(S(=O)(=O)N3CCOCC3)ccc2[O-])cc1 (nonaromatic ring conformer: 83.18329190397328 kcal/mol)

>  <smiles>  (6) 
CN(c1ccc(C#N)cc1)S(=O)(=O)c1ccc(C(=O)Nc2cc(S(=O)(=O)N3CCOCC3)ccc2O)cc1

>  <score_type>  (6) 
oracle

>  <origin>  (6) 
adgpu

>  <m_score__min__energy>  (6) 
-13.23

>  <m_primary>  (6) 
energy

$$$$
6:0
     RDKit          3D

 49 51  0  0  0  0  0  0  0  0999 V2000
   -9.1220   20.0850  -31.7360 C   0  0  0  0  0  0  0  0  0  0  0  0
   -7.8270   19.5330  -32.2570 C   0  0  0  0  0  0  0  0  0  0  0  0
   -7.1920   20.1240  -33.3610 C   0  0  0  0  0  0  0  0  0  0  0  0
   -5.9780   19.6150  -33.8310 C   0  0  0  0  0  0  0  0  0  0  0  0
   -5.3870   18.5100  -33.2080 C   0  0  0  0  0  0  0  0  0  0  0  0
   -3.8850   17.8440  -33.8520 S   0  0  0  0  0  0  0  0  0  0  0  0
   -3.6110   16.5640  -33.1150 O   0  0  0  0  0  0  0  0  0  0  0  0
   -4.0460   17.5300  -35.3150 O   0  0  0  0  0  0  0  0  0  0  0  0
   -2.5690   18.9910  -33.6310 N   0  0  2  0  0  0  0  0  0  0  0  0
   -1.3420   18.5300  -34.3270 C   0  0  0  0  0  0  0  0  0  0  0  0
   -0.2890   19.6100  -34.4390 C   0  0  0  0  0  0  0  0  0  0  0  0
    1.0390   19.3520  -34.0570 C   0  0  0  0  0  0  0  0  0  0  0  0
    2.0160   20.3450  -34.1870 C   0  0  0  0  0  0  0  0  0  0  0  0
    1.6750   21.6000  -34.6970 C   0  0  0  0  0  0  0  0  0  0  0  0
    0.3530   21.8730  -35.0580 C   0  0  0  0  0  0  0  0  0  0  0  0
   -0.6290   20.8870  -34.9190 C   0  0  0  0  0  0  0  0  0  0  0  0
   -2.2800   19.1780  -32.1870 C   0  0  0  0  0  0  0  0  0  0  0  0
   -2.6000   20.5800  -31.7080 C   0  0  0  0  0  0  0  0  0  0  0  0
   -3.7380   21.2500  -32.1860 C   0  0  0  0  0  0  0  0  0  0  0  0
   -4.0340   22.5450  -31.7510 C   0  0  0  0  0  0  0  0  0  0  0  0
   -3.1860   23.2020  -30.8440 C   0  0  0  0  0  0  0  0  0  0  0  0
   -3.4960   24.5720  -30.3790 C   0  0  0  0  0  0  0  0  0  0  0  0
   -4.4860   25.1990  -30.8450 O   0  0  0  0  0  0  0  0  0  0  0  0
   -2.7020   25.1880  -29.4170 O   0  0  0  0  0  0  0  0  0  0  0  0
   -2.0330   22.5420  -30.3880 C   0  0  0  0  0  0  0  0  0  0  0  0
   -1.7400   21.2440  -30.8210 C   0  0  0  0  0  0  0  0  0  0  0  0
   -6.0010   17.9430  -32.0820 C   0  0  0  0  0  0  0  0  0  0  0  0
   -7.2140   18.4530  -31.6070 C   0  0  0  0  0  0  0  0  0  0  0  0
   -9.1072   20.0787  -30.6361 H   0  0  0  0  0  0  0  0  0  0  0  0
   -9.2517   21.1166  -32.0950 H   0  0  0  0  0  0  0  0  0  0  0  0
   -9.9561   19.4642  -32.0950 H   0  0  0  0  0  0  0  0  0  0  0  0
   -7.6517   20.9910  -33.8580 H   0  0  0  0  0  0  0  0  0  0  0  0
   -5.4849   20.0852  -34.6946 H   0  0  0  0  0  0  0  0  0  0  0  0
   -2.8580   19.9040  -34.0460 H   0  0  0  0  0  0  0  0  0  0  0  0
   -0.9182   17.6830  -33.7676 H   0  0  0  0  0  0  0  0  0  0  0  0
   -1.6300   18.2420  -35.3488 H   0  0  0  0  0  0  0  0  0  0  0  0
    1.3112   18.3653  -33.6542 H   0  0  0  0  0  0  0  0  0  0  0  0
    3.0538   20.1372  -33.8873 H   0  0  0  0  0  0  0  0  0  0  0  0
    2.4478   22.3739  -34.8145 H   0  0  0  0  0  0  0  0  0  0  0  0
    0.0845   22.8643  -35.4519 H   0  0  0  0  0  0  0  0  0  0  0  0
   -1.6721   21.1116  -35.1864 H   0  0  0  0  0  0  0  0  0  0  0  0
   -2.8841   18.4618  -31.6107 H   0  0  0  0  0  0  0  0  0  0  0  0
   -1.2031   19.0112  -32.0373 H   0  0  0  0  0  0  0  0  0  0  0  0
   -4.4015   20.7518  -32.9083 H   0  0  0  0  0  0  0  0  0  0  0  0
   -4.9367   23.0529  -32.1213 H   0  0  0  0  0  0  0  0  0  0  0  0
   -1.3554   23.0492  -29.6854 H   0  0  0  0  0  0  0  0  0  0  0  0
   -0.8293   20.7412  -30.4634 H   0  0  0  0  0  0  0  0  0  0  0  0
   -5.5265   17.0930  -31.5697 H   0  0  0  0  0  0  0  0  0  0  0  0
   -7.6880   18.0053  -30.7211 H   0  0  0  0  0  0  0  0  0  0  0  0
  1  2  1  0
  2  3  2  0
  3  4  1  0
  4  5  2  0
  5  6  1  0
  6  7  2  0
  6  8  2  0
  6  9  1  0
  9 10  1  0
 10 11  1  0
 11 12  2  0
 12 13  1  0
 13 14  2  0
 14 15  1  0
 15 16  2  0
  9 17  1  0
 17 18  1  0
 18 19  2  0
 19 20  1  0
 20 21  2  0
 21 22  1  0
 22 23  2  0
 22 24  1  0
 21 25  1  0
 25 26  2  0
  5 27  1  0
 27 28  2  0
 28  2  1  0
 16 11  1  0
 26 18  1  0
  1 29  1  0
  1 30  1  0
  1 31  1  0
  3 32  1  0
  4 33  1  0
  9 34  1  6
 10 35  1  0
 10 36  1  0
 12 37  1  0
 13 38  1  0
 14 39  1  0
 15 40  1  0
 16 41  1  0
 17 42  1  0
 17 43  1  0
 19 44  1  0
 20 45  1  0
 25 46  1  0
 26 47  1  0
 27 48  1  0
 28 49  1  0
M  CHG  2   9   1  24  -1
M  END
>  <UniqueID>  (7) 
7

>  <SMILES>  (7) 
Cc1ccc(S(=O)(=O)[N@H+](Cc2ccccc2)Cc2ccc(C(=O)[O-])cc2)cc1

>  <Energy>  (7) 
50.302817326674145

>  <Genealogy>  (7) 
Cc1ccc(S(=O)(=O)[NH+](Cc2ccccc2)Cc2ccc(C(=O)[O-])cc2)cc1 (protonated)
Cc1ccc(S(=O)(=O)[N@H+](Cc2ccccc2)Cc2ccc(C(=O)[O-])cc2)cc1 (chirality)
Cc1ccc(S(=O)(=O)[N@H+](Cc2ccccc2)Cc2ccc(C(=O)[O-])cc2)cc1 (3D coordinates assigned)
Cc1ccc(S(=O)(=O)[N@H+](Cc2ccccc2)Cc2ccc(C(=O)[O-])cc2)cc1 (optimized conformer: 50.302817326674145 kcal/mol)

>  <smiles>  (7) 
Cc1ccc(S(=O)(=O)N(Cc2ccccc2)Cc2ccc(C(=O)O)cc2)cc1

>  <score_type>  (7) 
oracle

>  <origin>  (7) 
adgpu

>  <m_score__min__energy>  (7) 
-10.18

>  <m_primary>  (7) 
energy

$$$$
7:0
     RDKit          3D

 61 64  0  0  0  0  0  0  0  0999 V2000
   -5.6880   15.7940  -32.6470 O   0  0  0  0  0  0  0  0  0  0  0  0
   -6.0130   16.7190  -33.7870 S   0  0  0  0  0  0  0  0  0  0  0  0
   -7.1240   16.1110  -34.5970 O   0  0  0  0  0  0  0  0  0  0  0  0
   -4.6090   16.9070  -34.7890 N   0  0  0  0  0  0  0  0  0  0  0  0
   -3.3690   17.4890  -34.3420 C   0  0  0  0  0  0  0  0  0  0  0  0
   -2.1930   16.7260  -34.2010 C   0  0  0  0  0  0  0  0  0  0  0  0
   -1.0100   17.3270  -33.7590 C   0  0  0  0  0  0  0  0  0  0  0  0
   -0.9840   18.6890  -33.4560 C   0  0  0  0  0  0  0  0  0  0  0  0
   -2.1430   19.4640  -33.5910 C   0  0  0  0  0  0  0  0  0  0  0  0
   -2.1050   21.1910  -33.2180 S   0  0  0  0  0  0  0  0  0  0  0  0
   -3.3420   21.8410  -33.7750 O   0  0  0  0  0  0  0  0  0  0  0  0
   -0.9110   21.8170  -33.8810 O   0  0  0  0  0  0  0  0  0  0  0  0
   -2.0250   21.4740  -31.4950 N   0  0  0  0  0  0  0  0  0  0  0  0
   -2.8020   20.4570  -30.7680 C   0  0  0  0  0  0  0  0  0  0  0  0
   -2.9460   20.8580  -29.2870 C   0  0  0  0  0  0  0  0  0  0  0  0
   -1.8170   21.7920  -28.8150 C   0  0  0  0  0  0  0  0  0  0  0  0
   -0.4920   21.4440  -29.5010 C   0  0  0  0  0  0  0  0  0  0  0  0
   -0.6170   21.4850  -31.0430 C   0  0  0  0  0  0  0  0  0  0  0  0
   -3.3300   18.8610  -34.0330 C   0  0  0  0  0  0  0  0  0  0  0  0
   -6.4890   18.2800  -33.1300 C   0  0  0  0  0  0  0  0  0  0  0  0
   -6.2190   19.4650  -33.8300 C   0  0  0  0  0  0  0  0  0  0  0  0
   -6.6090   20.6990  -33.3010 C   0  0  0  0  0  0  0  0  0  0  0  0
   -7.2840   20.7600  -32.0720 C   0  0  0  0  0  0  0  0  0  0  0  0
   -7.8160   22.3150  -31.4220 S   0  0  0  0  0  0  0  0  0  0  0  0
   -8.8570   22.9050  -32.3350 O   0  0  0  0  0  0  0  0  0  0  0  0
   -8.4520   22.0940  -30.0780 O   0  0  0  0  0  0  0  0  0  0  0  0
   -6.4880   23.4410  -31.2610 N   0  0  0  0  0  0  0  0  0  0  0  0
   -5.2970   22.7610  -30.7340 C   0  0  0  0  0  0  0  0  0  0  0  0
   -4.1280   23.7640  -30.6120 C   0  0  0  0  0  0  0  0  0  0  0  0
   -4.5330   25.0960  -30.8820 O   0  0  0  0  0  0  0  0  0  0  0  0
   -5.6330   25.4390  -30.0580 C   0  0  0  0  0  0  0  0  0  0  0  0
   -6.8630   24.5610  -30.3780 C   0  0  0  0  0  0  0  0  0  0  0  0
   -7.5490   19.5750  -31.3710 C   0  0  0  0  0  0  0  0  0  0  0  0
   -7.1530   18.3410  -31.8990 C   0  0  0  0  0  0  0  0  0  0  0  0
   -4.6890   16.5850  -35.7800 H   0  0  0  0  0  0  0  0  0  0  0  0
   -2.2053   15.6523  -34.4397 H   0  0  0  0  0  0  0  0  0  0  0  0
   -0.0966   16.7238  -33.6498 H   0  0  0  0  0  0  0  0  0  0  0  0
   -0.0500   19.1557  -33.1099 H   0  0  0  0  0  0  0  0  0  0  0  0
   -3.8010   20.3707  -31.2202 H   0  0  0  0  0  0  0  0  0  0  0  0
   -2.2780   19.4918  -30.8300 H   0  0  0  0  0  0  0  0  0  0  0  0
   -3.9087   21.3732  -29.1533 H   0  0  0  0  0  0  0  0  0  0  0  0
   -2.8915   19.9385  -28.6857 H   0  0  0  0  0  0  0  0  0  0  0  0
   -2.0851   22.8310  -29.0571 H   0  0  0  0  0  0  0  0  0  0  0  0
   -1.6918   21.6687  -27.7291 H   0  0  0  0  0  0  0  0  0  0  0  0
    0.2734   22.1686  -29.1861 H   0  0  0  0  0  0  0  0  0  0  0  0
   -0.2121   20.4216  -29.2070 H   0  0  0  0  0  0  0  0  0  0  0  0
   -0.1346   22.4020  -31.4122 H   0  0  0  0  0  0  0  0  0  0  0  0
   -0.1293   20.5838  -31.4431 H   0  0  0  0  0  0  0  0  0  0  0  0
   -4.2411   19.4681  -34.1393 H   0  0  0  0  0  0  0  0  0  0  0  0
   -5.6987   19.4234  -34.7983 H   0  0  0  0  0  0  0  0  0  0  0  0
   -6.3859   21.6256  -33.8501 H   0  0  0  0  0  0  0  0  0  0  0  0
   -5.5245   22.3439  -29.7419 H   0  0  0  0  0  0  0  0  0  0  0  0
   -5.0089   21.9517  -31.4211 H   0  0  0  0  0  0  0  0  0  0  0  0
   -3.7262   23.7166  -29.5891 H   0  0  0  0  0  0  0  0  0  0  0  0
   -3.3663   23.4860  -31.3553 H   0  0  0  0  0  0  0  0  0  0  0  0
   -5.3519   25.2932  -29.0046 H   0  0  0  0  0  0  0  0  0  0  0  0
   -5.8959   26.4904  -30.2462 H   0  0  0  0  0  0  0  0  0  0  0  0
   -7.2739   24.1594  -29.4400 H   0  0  0  0  0  0  0  0  0  0  0  0
   -7.6151   25.1789  -30.8903 H   0  0  0  0  0  0  0  0  0  0  0  0
   -8.0698   19.6154  -30.4030 H   0  0  0  0  0  0  0  0  0  0  0  0
   -7.3644   17.4149  -31.3444 H   0  0  0  0  0  0  0  0  0  0  0  0
  1  2  2  0
  2  3  2  0
  2  4  1  0
  4  5  1  0
  5  6  2  0
  6  7  1  0
  7  8  2  0
  8  9  1  0
  9 10  1  0
 10 11  2  0
 10 12  2  0
 10 13  1  0
 13 14  1  0
 14 15  1  0
 15 16  1  0
 16 17  1  0
 17 18  1  0
  9 19  2  0
  2 20  1  0
 20 21  2  0
 21 22  1  0
 22 23  2  0
 23 24  1  0
 24 25  2  0
 24 26  2  0
 24 27  1  0
 27 28  1  0
 28 29  1  0
 29 30  1  0
 30 31  1  0
 31 32  1  0
 23 33  1  0
 33 34  2  0
 19  5  1  0
 34 20  1  0
 18 13  1  0
 32 27  1  0
  4 35  1  0
  6 36  1  0
  7 37  1  0
  8 38  1  0
 14 39  1  0
 14 40  1  0
 15 41  1  0
 15 42  1  0
 16 43  1  0
 16 44  1  0
 17 45  1  0
 17 46  1  0
 18 47  1  0
 18 48  1  0
 19 49  1  0
 21 50  1  0
 22 51  1  0
 28 52  1  0
 28 53  1  0
 29 54  1  0
 29 55  1  0
 31 56  1  0
 31 57  1  0
 32 58  1  0
 32 59  1  0
 33 60  1  0
 34 61  1  0
M  END
>  <UniqueID>  (8) 
8

>  <SMILES>  (8) 
O=S(=O)(Nc1cccc(S(=O)(=O)N2CCCCC2)c1)c1ccc(S(=O)(=O)N2CCOCC2)cc1

>  <Energy>  (8) 
75.17276448205186

>  <Genealogy>  (8) 
O=S(=O)(Nc1cccc(S(=O)(=O)N2CCCCC2)c1)c1ccc(S(=O)(=O)N2CCOCC2)cc1 (3D coordinates assigned)
O=S(=O)(Nc1cccc(S(=O)(=O)N2CCCCC2)c1)c1ccc(S(=O)(=O)N2CCOCC2)cc1 (nonaromatic ring conformer: 75.17276448205186 kcal/mol)

>  <smiles>  (8) 
O=S(=O)(Nc1cccc(S(=O)(=O)N2CCCCC2)c1)c1ccc(S(=O)(=O)N2CCOCC2)cc1

>  <score_type>  (8) 
oracle

>  <origin>  (8) 
adgpu

>  <m_score__min__energy>  (8) 
-12.630000000000001

>  <m_primary>  (8) 
energy

$$$$
8:0
     RDKit          3D

 62 66  0  0  0  0  0  0  0  0999 V2000
    1.1470   23.0960  -25.8550 O   0  0  0  0  0  0  0  0  0  0  0  0
   -0.0080   23.9840  -25.4840 S   0  0  0  0  0  0  0  0  0  0  0  0
   -0.7970   23.2920  -24.4070 O   0  0  0  0  0  0  0  0  0  0  0  0
   -1.0360   24.2140  -26.9010 C   0  0  0  0  0  0  0  0  0  0  0  0
   -2.4220   24.3580  -26.7480 C   0  0  0  0  0  0  0  0  0  0  0  0
   -3.2390   24.5350  -27.8690 C   0  0  0  0  0  0  0  0  0  0  0  0
   -2.6750   24.5880  -29.1560 C   0  0  0  0  0  0  0  0  0  0  0  0
   -3.4630   24.7520  -30.3050 O   0  0  0  0  0  0  0  0  0  0  0  0
   -4.6690   24.0830  -30.5630 C   0  0  0  0  0  0  0  0  0  0  0  0
   -4.8440   22.7220  -30.2520 C   0  0  0  0  0  0  0  0  0  0  0  0
   -6.0630   22.0910  -30.5150 C   0  0  0  0  0  0  0  0  0  0  0  0
   -7.1240   22.8120  -31.0750 C   0  0  0  0  0  0  0  0  0  0  0  0
   -8.6430   21.9920  -31.4300 S   0  0  0  0  0  0  0  0  0  0  0  0
   -9.4970   22.8540  -32.3210 O   0  0  0  0  0  0  0  0  0  0  0  0
   -9.3770   21.7630  -30.1390 O   0  0  0  0  0  0  0  0  0  0  0  0
   -8.3170   20.4650  -32.2110 N   0  0  2  0  0  0  0  0  0  0  0  0
   -8.4800   19.3640  -31.2440 C   0  0  0  0  0  0  0  0  0  0  0  0
   -8.3760   18.0070  -31.9520 C   0  0  0  0  0  0  0  0  0  0  0  0
   -7.1960   17.9480  -32.8860 C   0  0  0  0  0  0  0  0  0  0  0  0
   -6.7800   16.7060  -33.3900 C   0  0  0  0  0  0  0  0  0  0  0  0
   -5.7230   16.6320  -34.3000 C   0  0  0  0  0  0  0  0  0  0  0  0
   -5.0780   17.7960  -34.7210 C   0  0  0  0  0  0  0  0  0  0  0  0
   -5.4910   19.0390  -34.2350 C   0  0  0  0  0  0  0  0  0  0  0  0
   -6.5610   19.1280  -33.3320 C   0  0  0  0  0  0  0  0  0  0  0  0
   -6.9500   20.4740  -32.7670 C   0  0  0  0  0  0  0  0  0  0  0  0
   -6.9580   24.1730  -31.3680 C   0  0  0  0  0  0  0  0  0  0  0  0
   -5.7390   24.8050  -31.1040 C   0  0  0  0  0  0  0  0  0  0  0  0
   -1.2940   24.4260  -29.3060 C   0  0  0  0  0  0  0  0  0  0  0  0
   -0.4760   24.2470  -28.1860 C   0  0  0  0  0  0  0  0  0  0  0  0
    0.6050   25.4990  -24.8710 N   0  0  0  0  0  0  0  0  0  0  0  0
    1.9680   25.3290  -24.3400 C   0  0  0  0  0  0  0  0  0  0  0  0
    2.4230   26.5970  -23.5900 C   0  0  0  0  0  0  0  0  0  0  0  0
    1.5450   27.6780  -23.8390 O   0  0  0  0  0  0  0  0  0  0  0  0
    0.2600   27.3840  -23.3180 C   0  0  0  0  0  0  0  0  0  0  0  0
   -0.2830   26.0320  -23.8290 C   0  0  0  0  0  0  0  0  0  0  0  0
   -2.8683   24.3317  -25.7430 H   0  0  0  0  0  0  0  0  0  0  0  0
   -4.3274   24.6332  -27.7435 H   0  0  0  0  0  0  0  0  0  0  0  0
   -4.0184   22.1525  -29.8002 H   0  0  0  0  0  0  0  0  0  0  0  0
   -6.1891   21.0236  -30.2810 H   0  0  0  0  0  0  0  0  0  0  0  0
   -9.0080   20.3550  -32.9910 H   0  0  0  0  0  0  0  0  0  0  0  0
   -7.6926   19.4345  -30.4791 H   0  0  0  0  0  0  0  0  0  0  0  0
   -9.4720   19.4458  -30.7758 H   0  0  0  0  0  0  0  0  0  0  0  0
   -8.2685   17.2177  -31.1934 H   0  0  0  0  0  0  0  0  0  0  0  0
   -9.2892   17.8635  -32.5481 H   0  0  0  0  0  0  0  0  0  0  0  0
   -7.2890   15.7860  -33.0667 H   0  0  0  0  0  0  0  0  0  0  0  0
   -5.3982   15.6544  -34.6857 H   0  0  0  0  0  0  0  0  0  0  0  0
   -4.2441   17.7346  -35.4358 H   0  0  0  0  0  0  0  0  0  0  0  0
   -4.9742   19.9532  -34.5623 H   0  0  0  0  0  0  0  0  0  0  0  0
   -6.2431   20.7416  -31.9678 H   0  0  0  0  0  0  0  0  0  0  0  0
   -6.9206   21.2080  -33.5858 H   0  0  0  0  0  0  0  0  0  0  0  0
   -7.7889   24.7451  -31.8067 H   0  0  0  0  0  0  0  0  0  0  0  0
   -5.6202   25.8764  -31.3229 H   0  0  0  0  0  0  0  0  0  0  0  0
   -0.8483   24.4395  -30.3116 H   0  0  0  0  0  0  0  0  0  0  0  0
    0.6105   24.1317  -28.3136 H   0  0  0  0  0  0  0  0  0  0  0  0
    1.9815   24.4751  -23.6467 H   0  0  0  0  0  0  0  0  0  0  0  0
    2.6549   25.1495  -25.1802 H   0  0  0  0  0  0  0  0  0  0  0  0
    2.4398   26.3891  -22.5100 H   0  0  0  0  0  0  0  0  0  0  0  0
    3.4266   26.8726  -23.9460 H   0  0  0  0  0  0  0  0  0  0  0  0
    0.3228   27.3481  -22.2204 H   0  0  0  0  0  0  0  0  0  0  0  0
   -0.4288   28.1728  -23.6548 H   0  0  0  0  0  0  0  0  0  0  0  0
   -0.3330   25.3193  -22.9926 H   0  0  0  0  0  0  0  0  0  0  0  0
   -1.2880   26.1810  -24.2506 H   0  0  0  0  0  0  0  0  0  0  0  0
  1  2  2  0
  2  3  2  0
  2  4  1  0
  4  5  2  0
  5  6  1  0
  6  7  2  0
  7  8  1  0
  8  9  1  0
  9 10  2  0
 10 11  1  0
 11 12  2  0
 12 13  1  0
 13 14  2  0
 13 15  2  0
 13 16  1  0
 16 17  1  0
 17 18  1  0
 18 19  1  0
 19 20  2  0
 20 21  1  0
 21 22  2  0
 22 23  1  0
 23 24  2  0
 24 25  1  0
 12 26  1  0
 26 27  2  0
  7 28  1  0
 28 29  2  0
  2 30  1  0
 30 31  1  0
 31 32  1  0
 32 33  1  0
 33 34  1  0
 34 35  1  0
 29  4  1  0
 35 30  1  0
 27  9  1  0
 25 16  1  0
 24 19  1  0
  5 36  1  0
  6 37  1  0
 10 38  1  0
 11 39  1  0
 16 40  1  6
 17 41  1  0
 17 42  1  0
 18 43  1  0
 18 44  1  0
 20 45  1  0
 21 46  1  0
 22 47  1  0
 23 48  1  0
 25 49  1  0
 25 50  1  0
 26 51  1  0
 27 52  1  0
 28 53  1  0
 29 54  1  0
 31 55  1  0
 31 56  1  0
 32 57  1  0
 32 58  1  0
 34 59  1  0
 34 60  1  0
 35 61  1  0
 35 62  1  0
M  CHG  1  16   1
M  END
>  <UniqueID>  (9) 
9

>  <SMILES>  (9) 
O=S(=O)(c1ccc(Oc2ccc(S(=O)(=O)[N@@H+]3CCc4ccccc4C3)cc2)cc1)N1CCOCC1

>  <Energy>  (9) 
81.28030784557902

>  <Genealogy>  (9) 
O=S(=O)(c1ccc(Oc2ccc(S(=O)(=O)[NH+]3CCc4ccccc4C3)cc2)cc1)N1CCOCC1 (protonated)
O=S(=O)(c1ccc(Oc2ccc(S(=O)(=O)[N@@H+]3CCc4ccccc4C3)cc2)cc1)N1CCOCC1 (chirality)
O=S(=O)(c1ccc(Oc2ccc(S(=O)(=O)[N@@H+]3CCc4ccccc4C3)cc2)cc1)N1CCOCC1 (3D coordinates assigned)
O=S(=O)(c1ccc(Oc2ccc(S(=O)(=O)[N@@H+]3CCc4ccccc4C3)cc2)cc1)N1CCOCC1 (nonaromatic ring conformer: 81.28030784557902 kcal/mol)

>  <smiles>  (9) 
O=S(=O)(c1ccc(Oc2ccc(S(=O)(=O)N3CCc4ccccc4C3)cc2)cc1)N1CCOCC1

>  <score_type>  (9) 
oracle

>  <origin>  (9) 
adgpu

>  <m_score__min__energy>  (9) 
-11.16

>  <m_primary>  (9) 
energy

$$$$
9:0
     RDKit          3D

 42 44  0  0  0  0  0  0  0  0999 V2000
   -6.4400   17.1290  -33.8520 C   0  0  0  0  0  0  0  0  0  0  0  0
   -5.5310   18.1870  -34.1440 O   0  0  0  0  0  0  0  0  0  0  0  0
   -5.4820   19.4100  -33.4550 C   0  0  0  0  0  0  0  0  0  0  0  0
   -6.6200   20.2300  -33.3200 C   0  0  0  0  0  0  0  0  0  0  0  0
   -6.5450   21.4390  -32.6270 C   0  0  0  0  0  0  0  0  0  0  0  0
   -5.3380   21.8490  -32.0450 C   0  0  0  0  0  0  0  0  0  0  0  0
   -5.2500   23.1270  -31.3110 C   0  0  0  0  0  0  0  0  0  0  0  0
   -4.1320   23.8720  -31.2030 N   0  0  0  0  0  0  0  0  0  0  0  0
   -4.4560   24.9300  -30.4750 N   0  0  0  0  0  0  0  0  0  0  0  0
   -5.7570   24.7880  -30.1640 C   0  0  0  0  0  0  0  0  0  0  0  0
   -6.5410   25.7750  -29.3680 C   0  0  0  0  0  0  0  0  0  0  0  0
   -6.2540   23.6880  -30.6760 O   0  0  0  0  0  0  0  0  0  0  0  0
   -4.2050   21.0340  -32.1710 C   0  0  0  0  0  0  0  0  0  0  0  0
   -4.2650   19.8270  -32.8840 C   0  0  0  0  0  0  0  0  0  0  0  0
   -2.7940   18.8600  -33.0540 S   0  0  0  0  0  0  0  0  0  0  0  0
   -2.0550   19.2100  -34.3150 O   0  0  0  0  0  0  0  0  0  0  0  0
   -3.1750   17.4070  -33.0940 O   0  0  0  0  0  0  0  0  0  0  0  0
   -1.7430   19.1370  -31.6990 N   0  0  0  0  0  0  0  0  0  0  0  0
   -1.7210   20.3610  -30.9430 C   0  0  0  0  0  0  0  0  0  0  0  0
   -2.3230   20.4620  -29.6750 C   0  0  0  0  0  0  0  0  0  0  0  0
   -2.2700   21.6600  -28.9580 C   0  0  0  0  0  0  0  0  0  0  0  0
   -1.6140   22.7840  -29.4910 C   0  0  0  0  0  0  0  0  0  0  0  0
   -1.5560   24.0520  -28.7260 C   0  0  0  0  0  0  0  0  0  0  0  0
   -1.9820   25.2780  -29.3190 N   0  0  0  0  0  0  0  0  0  0  0  0
   -1.1290   24.0620  -27.5400 O   0  0  0  0  0  0  0  0  0  0  0  0
   -1.0170   22.6830  -30.7590 C   0  0  0  0  0  0  0  0  0  0  0  0
   -1.0750   21.4850  -31.4770 C   0  0  0  0  0  0  0  0  0  0  0  0
   -6.5354   17.0180  -32.7618 H   0  0  0  0  0  0  0  0  0  0  0  0
   -7.4244   17.3615  -34.2844 H   0  0  0  0  0  0  0  0  0  0  0  0
   -6.0619   16.1909  -34.2844 H   0  0  0  0  0  0  0  0  0  0  0  0
   -7.5754   19.9145  -33.7646 H   0  0  0  0  0  0  0  0  0  0  0  0
   -7.4387   22.0739  -32.5371 H   0  0  0  0  0  0  0  0  0  0  0  0
   -6.3894   25.5842  -28.2953 H   0  0  0  0  0  0  0  0  0  0  0  0
   -6.2028   26.7932  -29.6107 H   0  0  0  0  0  0  0  0  0  0  0  0
   -7.6093   25.6759  -29.6107 H   0  0  0  0  0  0  0  0  0  0  0  0
   -3.2577   21.3440  -31.7056 H   0  0  0  0  0  0  0  0  0  0  0  0
   -1.1820   18.3220  -31.3610 H   0  0  0  0  0  0  0  0  0  0  0  0
   -2.8393   19.5910  -29.2450 H   0  0  0  0  0  0  0  0  0  0  0  0
   -2.7454   21.7246  -27.9682 H   0  0  0  0  0  0  0  0  0  0  0  0
   -2.6730   25.2820  -30.1030 H   0  0  0  0  0  0  0  0  0  0  0  0
   -0.5001   23.5532  -31.1899 H   0  0  0  0  0  0  0  0  0  0  0  0
   -0.6089   21.4235  -32.4715 H   0  0  0  0  0  0  0  0  0  0  0  0
  1  2  1  0
  2  3  1  0
  3  4  2  0
  4  5  1  0
  5  6  2  0
  6  7  1  0
  7  8  2  0
  8  9  1  0
  9 10  2  0
 10 11  1  0
 10 12  1  0
  6 13  1  0
 13 14  2  0
 14 15  1  0
 15 16  2  0
 15 17  2  0
 15 18  1  0
 18 19  1  0
 19 20  2  0
 20 21  1  0
 21 22  2  0
 22 23  1  0
 23 24  1  0
 23 25  2  0
 22 26  1  0
 26 27  2  0
 14  3  1  0
 27 19  1  0
 12  7  1  0
  1 28  1  0
  1 29  1  0
  1 30  1  0
  4 31  1  0
  5 32  1  0
 11 33  1  0
 11 34  1  0
 11 35  1  0
 13 36  1  0
 18 37  1  0
 20 38  1  0
 21 39  1  0
 24 40  1  0
 26 41  1  0
 27 42  1  0
M  CHG  1  24  -1
M  END
>  <UniqueID>  (10) 
10

>  <SMILES>  (10) 
COc1ccc(-c2nnc(C)o2)cc1S(=O)(=O)Nc1ccc(C([NH-])=O)cc1

>  <Energy>  (10) 
80.3776041185158

>  <Genealogy>  (10) 
COc1ccc(-c2nnc(C)o2)cc1S(=O)(=O)Nc1ccc(C([NH-])=O)cc1 (protonated)
COc1ccc(-c2nnc(C)o2)cc1S(=O)(=O)Nc1ccc(C([NH-])=O)cc1 (3D coordinates assigned)
COc1ccc(-c2nnc(C)o2)cc1S(=O)(=O)Nc1ccc(C([NH-])=O)cc1 (optimized conformer: 80.3776041185158 kcal/mol)

>  <smiles>  (10) 
COc1ccc(-c2nnc(C)o2)cc1S(=O)(=O)Nc1ccc(C(N)=O)cc1

>  <score_type>  (10) 
oracle

>  <origin>  (10) 
adgpu

>  <m_score__min__energy>  (10) 
-11.16

>  <m_primary>  (10) 
energy

$$$$
10:0
     RDKit          3D

 52 55  0  0  0  0  0  0  0  0999 V2000
   -2.9960   18.4370  -33.1570 C   0  0  0  0  0  0  0  0  0  0  0  0
   -4.4110   18.6360  -33.5820 C   0  0  0  0  0  0  0  0  0  0  0  0
   -5.4030   19.2550  -32.8420 C   0  0  0  0  0  0  0  0  0  0  0  0
   -6.5010   19.1990  -33.6870 C   0  0  0  0  0  0  0  0  0  0  0  0
   -7.6910   19.6770  -33.4660 N   0  0  0  0  0  0  0  0  0  0  0  0
   -8.1430   20.2800  -32.2440 C   0  0  0  0  0  0  0  0  0  0  0  0
   -9.1060   19.7470  -31.6300 O   0  0  0  0  0  0  0  0  0  0  0  0
   -7.4690   21.4620  -31.6530 C   0  0  0  0  0  0  0  0  0  0  0  0
   -7.7940   21.8850  -30.3540 C   0  0  0  0  0  0  0  0  0  0  0  0
   -7.1560   22.9920  -29.7880 C   0  0  0  0  0  0  0  0  0  0  0  0
   -6.1720   23.6840  -30.5070 C   0  0  0  0  0  0  0  0  0  0  0  0
   -5.3420   25.0630  -29.7800 S   0  0  0  0  0  0  0  0  0  0  0  0
   -4.9840   26.0510  -30.8550 O   0  0  0  0  0  0  0  0  0  0  0  0
   -6.2680   25.7450  -28.8110 O   0  0  0  0  0  0  0  0  0  0  0  0
   -3.8870   24.5650  -28.9460 N   0  0  0  0  0  0  0  0  0  0  0  0
   -4.2280   23.8580  -27.6920 C   0  0  0  0  0  0  0  0  0  0  0  0
   -3.0750   22.9850  -27.1910 C   0  0  0  0  0  0  0  0  0  0  0  0
   -2.7080   22.0020  -28.2190 N   0  0  0  0  0  0  0  0  0  0  0  0
   -2.1140   20.7380  -27.8470 C   0  0  0  0  0  0  0  0  0  0  0  0
   -2.7990   19.8460  -27.0000 C   0  0  0  0  0  0  0  0  0  0  0  0
   -2.2220   18.6240  -26.6410 C   0  0  0  0  0  0  0  0  0  0  0  0
   -0.9590   18.2770  -27.1230 C   0  0  0  0  0  0  0  0  0  0  0  0
   -0.2670   19.1510  -27.9650 C   0  0  0  0  0  0  0  0  0  0  0  0
    1.3190   18.7110  -28.5740 Cl  0  0  0  0  0  0  0  0  0  0  0  0
   -0.8400   20.3770  -28.3250 C   0  0  0  0  0  0  0  0  0  0  0  0
   -2.9840   22.3120  -29.6280 C   0  0  0  0  0  0  0  0  0  0  0  0
   -2.9680   23.8320  -29.8490 C   0  0  0  0  0  0  0  0  0  0  0  0
   -5.8410   23.2640  -31.8020 C   0  0  0  0  0  0  0  0  0  0  0  0
   -6.4770   22.1570  -32.3690 C   0  0  0  0  0  0  0  0  0  0  0  0
   -6.1510   18.6020  -34.8390 N   0  0  0  0  0  0  0  0  0  0  0  0
   -4.8970   18.2740  -34.7490 O   0  0  0  0  0  0  0  0  0  0  0  0
   -2.9408   18.4292  -32.0584 H   0  0  0  0  0  0  0  0  0  0  0  0
   -2.6267   17.4781  -33.5495 H   0  0  0  0  0  0  0  0  0  0  0  0
   -2.3765   19.2569  -33.5495 H   0  0  0  0  0  0  0  0  0  0  0  0
   -5.3368   19.6856  -31.8319 H   0  0  0  0  0  0  0  0  0  0  0  0
   -8.5566   21.3408  -29.7776 H   0  0  0  0  0  0  0  0  0  0  0  0
   -7.4272   23.3215  -28.7742 H   0  0  0  0  0  0  0  0  0  0  0  0
   -4.4704   24.6028  -26.9196 H   0  0  0  0  0  0  0  0  0  0  0  0
   -5.0862   23.2009  -27.8964 H   0  0  0  0  0  0  0  0  0  0  0  0
   -2.2059   23.6214  -26.9683 H   0  0  0  0  0  0  0  0  0  0  0  0
   -3.3915   22.4553  -26.2804 H   0  0  0  0  0  0  0  0  0  0  0  0
   -3.7955   20.1124  -26.6178 H   0  0  0  0  0  0  0  0  0  0  0  0
   -2.7646   17.9347  -25.9773 H   0  0  0  0  0  0  0  0  0  0  0  0
   -0.5081   17.3145  -26.8397 H   0  0  0  0  0  0  0  0  0  0  0  0
   -0.2905   21.0631  -28.9863 H   0  0  0  0  0  0  0  0  0  0  0  0
   -2.2148   21.8446  -30.2604 H   0  0  0  0  0  0  0  0  0  0  0  0
   -3.9771   21.9208  -29.8940 H   0  0  0  0  0  0  0  0  0  0  0  0
   -1.9450   24.1989  -29.6790 H   0  0  0  0  0  0  0  0  0  0  0  0
   -3.3080   24.0153  -30.8790 H   0  0  0  0  0  0  0  0  0  0  0  0
   -5.0764   23.8088  -32.3752 H   0  0  0  0  0  0  0  0  0  0  0  0
   -6.2007   21.8267  -33.3812 H   0  0  0  0  0  0  0  0  0  0  0  0
   -6.7600   18.4270  -35.6690 H   0  0  0  0  0  0  0  0  0  0  0  0
  1  2  1  0
  2  3  2  0
  3  4  1  0
  4  5  2  3
  5  6  1  0
  6  7  2  0
  6  8  1  0
  8  9  2  0
  9 10  1  0
 10 11  2  0
 11 12  1  0
 12 13  2  0
 12 14  2  0
 12 15  1  0
 15 16  1  0
 16 17  1  0
 17 18  1  0
 18 19  1  0
 19 20  2  0
 20 21  1  0
 21 22  2  0
 22 23  1  0
 23 24  1  0
 23 25  2  0
 18 26  1  0
 26 27  1  0
 11 28  1  0
 28 29  2  0
  4 30  1  0
 30 31  1  0
 31  2  1  0
 29  8  1  0
 27 15  1  0
 25 19  1  0
  1 32  1  0
  1 33  1  0
  1 34  1  0
  3 35  1  0
  9 36  1  0
 10 37  1  0
 16 38  1  0
 16 39  1  0
 17 40  1  0
 17 41  1  0
 20 42  1  0
 21 43  1  0
 22 44  1  0
 25 45  1  0
 26 46  1  0
 26 47  1  0
 27 48  1  0
 27 49  1  0
 28 50  1  0
 29 51  1  0
 30 52  1  0
M  END
>  <UniqueID>  (11) 
11

>  <SMILES>  (11) 
Cc1cc(=NC(=O)c2ccc(S(=O)(=O)N3CCN(c4cccc(Cl)c4)CC3)cc2)[nH]o1

>  <Energy>  (11) 
101.74836017585064

>  <Genealogy>  (11) 
Cc1cc(=NC(=O)c2ccc(S(=O)(=O)N3CCN(c4cccc(Cl)c4)CC3)cc2)[nH]o1 (3D coordinates assigned)
Cc1cc(=NC(=O)c2ccc(S(=O)(=O)N3CCN(c4cccc(Cl)c4)CC3)cc2)[nH]o1 (nonaromatic ring conformer: 101.74836017585064 kcal/mol)

>  <smiles>  (11) 
Cc1cc(=NC(=O)c2ccc(S(=O)(=O)N3CCN(c4cccc(Cl)c4)CC3)cc2)[nH]o1

>  <score_type>  (11) 
oracle

>  <origin>  (11) 
adgpu

>  <m_score__min__energy>  (11) 
-10.6

>  <m_primary>  (11) 
energy

$$$$
11:0
     RDKit          3D

 48 50  0  0  0  0  0  0  0  0999 V2000
   -6.8640   25.3140  -29.4050 C   0  0  0  0  0  0  0  0  0  0  0  0
   -5.6700   25.1380  -30.7640 S   0  0  0  0  0  0  0  0  0  0  0  0
   -6.4860   23.6950  -31.4440 C   0  0  0  0  0  0  0  0  0  0  0  0
   -7.7650   23.6860  -31.8560 N   0  0  0  0  0  0  0  0  0  0  0  0
   -8.0720   22.4860  -32.3220 N   0  0  0  0  0  0  0  0  0  0  0  0
   -6.9800   21.7040  -32.1990 C   0  0  0  0  0  0  0  0  0  0  0  0
   -6.9500   20.2880  -32.6060 C   0  0  0  0  0  0  0  0  0  0  0  0
   -7.7610   19.3440  -31.9570 C   0  0  0  0  0  0  0  0  0  0  0  0
   -7.7130   17.9980  -32.3310 C   0  0  0  0  0  0  0  0  0  0  0  0
   -6.8640   17.5790  -33.3660 C   0  0  0  0  0  0  0  0  0  0  0  0
   -6.8200   16.1300  -33.7520 C   0  0  0  0  0  0  0  0  0  0  0  0
   -6.0610   18.5250  -34.0240 C   0  0  0  0  0  0  0  0  0  0  0  0
   -6.1130   19.8740  -33.6520 C   0  0  0  0  0  0  0  0  0  0  0  0
   -5.9410   22.4420  -31.6490 C   0  0  0  0  0  0  0  0  0  0  0  0
   -4.2610   21.9460  -31.4300 S   0  0  0  0  0  0  0  0  0  0  0  0
   -4.1740   20.4640  -31.1990 O   0  0  0  0  0  0  0  0  0  0  0  0
   -3.4810   22.2940  -32.6680 O   0  0  0  0  0  0  0  0  0  0  0  0
   -3.5960   22.7680  -30.0220 C   0  0  0  0  0  0  0  0  0  0  0  0
   -2.3160   23.3280  -30.0900 C   0  0  0  0  0  0  0  0  0  0  0  0
   -1.7400   23.9090  -28.9580 C   0  0  0  0  0  0  0  0  0  0  0  0
   -2.4400   23.9450  -27.7390 C   0  0  0  0  0  0  0  0  0  0  0  0
   -1.7760   24.5350  -26.5090 C   0  0  0  0  0  0  0  0  0  0  0  0
   -0.3600   25.0440  -26.8180 C   0  0  0  0  0  0  0  0  0  0  0  0
   -2.6430   25.6460  -25.9040 C   0  0  0  0  0  0  0  0  0  0  0  0
   -3.7220   23.3760  -27.6750 C   0  0  0  0  0  0  0  0  0  0  0  0
   -4.3030   22.8030  -28.8110 C   0  0  0  0  0  0  0  0  0  0  0  0
   -6.3377   25.2364  -28.4422 H   0  0  0  0  0  0  0  0  0  0  0  0
   -7.3575   26.2946  -29.4752 H   0  0  0  0  0  0  0  0  0  0  0  0
   -7.6194   24.5175  -29.4752 H   0  0  0  0  0  0  0  0  0  0  0  0
   -8.4270   24.4920  -31.8320 H   0  0  0  0  0  0  0  0  0  0  0  0
   -8.4371   19.6647  -31.1508 H   0  0  0  0  0  0  0  0  0  0  0  0
   -8.3447   17.2631  -31.8106 H   0  0  0  0  0  0  0  0  0  0  0  0
   -6.8011   15.5091  -32.8442 H   0  0  0  0  0  0  0  0  0  0  0  0
   -7.7110   15.8819  -34.3474 H   0  0  0  0  0  0  0  0  0  0  0  0
   -5.9156   15.9365  -34.3474 H   0  0  0  0  0  0  0  0  0  0  0  0
   -5.3891   18.2052  -34.8341 H   0  0  0  0  0  0  0  0  0  0  0  0
   -5.4943   20.6124  -34.1829 H   0  0  0  0  0  0  0  0  0  0  0  0
   -1.7605   23.3107  -31.0393 H   0  0  0  0  0  0  0  0  0  0  0  0
   -0.7307   24.3419  -29.0206 H   0  0  0  0  0  0  0  0  0  0  0  0
   -1.6782   23.7310  -25.7647 H   0  0  0  0  0  0  0  0  0  0  0  0
    0.1743   25.2361  -25.8759 H   0  0  0  0  0  0  0  0  0  0  0  0
    0.1837   24.2850  -27.3997 H   0  0  0  0  0  0  0  0  0  0  0  0
   -0.4240   25.9754  -27.3997 H   0  0  0  0  0  0  0  0  0  0  0  0
   -2.5986   25.5891  -24.8064 H   0  0  0  0  0  0  0  0  0  0  0  0
   -2.2681   26.6254  -26.2358 H   0  0  0  0  0  0  0  0  0  0  0  0
   -3.6842   25.5203  -26.2358 H   0  0  0  0  0  0  0  0  0  0  0  0
   -4.2740   23.3809  -26.7236 H   0  0  0  0  0  0  0  0  0  0  0  0
   -5.3164   22.3790  -28.7546 H   0  0  0  0  0  0  0  0  0  0  0  0
  1  2  1  0
  2  3  1  0
  3  4  1  0
  4  5  1  0
  5  6  2  0
  6  7  1  0
  7  8  2  0
  8  9  1  0
  9 10  2  0
 10 11  1  0
 10 12  1  0
 12 13  2  0
  6 14  1  0
 14 15  1  0
 15 16  2  0
 15 17  2  0
 15 18  1  0
 18 19  2  0
 19 20  1  0
 20 21  2  0
 21 22  1  0
 22 23  1  0
 22 24  1  0
 21 25  1  0
 25 26  2  0
 14  3  2  0
 26 18  1  0
 13  7  1  0
  1 27  1  0
  1 28  1  0
  1 29  1  0
  4 30  1  0
  8 31  1  0
  9 32  1  0
 11 33  1  0
 11 34  1  0
 11 35  1  0
 12 36  1  0
 13 37  1  0
 19 38  1  0
 20 39  1  0
 22 40  1  0
 23 41  1  0
 23 42  1  0
 23 43  1  0
 24 44  1  0
 24 45  1  0
 24 46  1  0
 25 47  1  0
 26 48  1  0
M  END
>  <UniqueID>  (12) 
12

>  <SMILES>  (12) 
CSc1[nH]nc(-c2ccc(C)cc2)c1S(=O)(=O)c1ccc(C(C)C)cc1

>  <Energy>  (12) 
74.9335114632674

>  <Genealogy>  (12) 
CSc1[nH]nc(-c2ccc(C)cc2)c1S(=O)(=O)c1ccc(C(C)C)cc1 (3D coordinates assigned)
CSc1[nH]nc(-c2ccc(C)cc2)c1S(=O)(=O)c1ccc(C(C)C)cc1 (optimized conformer: 74.9335114632674 kcal/mol)

>  <smiles>  (12) 
CSc1[nH]nc(-c2ccc(C)cc2)c1S(=O)(=O)c1ccc(C(C)C)cc1

>  <score_type>  (12) 
oracle

>  <origin>  (12) 
adgpu

>  <m_score__min__energy>  (12) 
-9.1699999999999999

>  <m_primary>  (12) 
energy

$$$$
12:0
     RDKit          3D

 44 46  0  0  0  0  0  0  0  0999 V2000
    0.0750   23.7680  -29.1110 O   0  0  0  0  0  0  0  0  0  0  0  0
   -1.1150   22.9590  -29.5460 S   0  0  0  0  0  0  0  0  0  0  0  0
   -0.8060   22.3010  -30.8630 O   0  0  0  0  0  0  0  0  0  0  0  0
   -2.4740   24.0150  -29.7430 N   0  0  0  0  0  0  0  0  0  0  0  0
   -3.6650   23.7000  -30.4790 C   0  0  0  0  0  0  0  0  0  0  0  0
   -3.9850   22.3810  -30.8490 C   0  0  0  0  0  0  0  0  0  0  0  0
   -5.1620   22.1060  -31.5620 C   0  0  0  0  0  0  0  0  0  0  0  0
   -5.5410   20.4500  -32.0370 S   0  0  0  0  0  0  0  0  0  0  0  0
   -4.3740   19.5630  -31.7080 O   0  0  0  0  0  0  0  0  0  0  0  0
   -5.7490   20.4020  -33.5260 O   0  0  0  0  0  0  0  0  0  0  0  0
   -6.9710   19.8420  -31.2330 N   0  0  0  0  0  0  0  0  0  0  0  0
   -7.4590   18.5770  -31.8310 C   0  0  0  0  0  0  0  0  0  0  0  0
   -8.9770   18.5450  -32.0360 C   0  0  0  0  0  0  0  0  0  0  0  0
   -9.4050   19.7690  -32.8370 C   0  0  0  0  0  0  0  0  0  0  0  0
   -8.9920   21.0780  -32.1480 C   0  0  0  0  0  0  0  0  0  0  0  0
   -7.9830   20.8950  -30.9930 C   0  0  0  0  0  0  0  0  0  0  0  0
   -6.0150   23.1580  -31.9180 C   0  0  0  0  0  0  0  0  0  0  0  0
   -5.7050   24.4710  -31.5510 C   0  0  0  0  0  0  0  0  0  0  0  0
   -4.5370   24.7420  -30.8320 C   0  0  0  0  0  0  0  0  0  0  0  0
   -4.2480   26.0540  -30.4650 O   0  0  0  0  0  0  0  0  0  0  0  0
   -1.4680   21.7530  -28.3150 C   0  0  0  0  0  0  0  0  0  0  0  0
   -0.9410   21.8930  -27.0230 C   0  0  0  0  0  0  0  0  0  0  0  0
   -1.2070   20.9290  -26.0460 C   0  0  0  0  0  0  0  0  0  0  0  0
   -1.9970   19.8190  -26.3560 C   0  0  0  0  0  0  0  0  0  0  0  0
   -2.5240   19.6750  -27.6420 C   0  0  0  0  0  0  0  0  0  0  0  0
   -2.2620   20.6380  -28.6220 C   0  0  0  0  0  0  0  0  0  0  0  0
   -3.3071   21.5585  -30.5772 H   0  0  0  0  0  0  0  0  0  0  0  0
   -6.9725   18.4433  -32.8085 H   0  0  0  0  0  0  0  0  0  0  0  0
   -7.2098   17.7688  -31.1277 H   0  0  0  0  0  0  0  0  0  0  0  0
   -9.2543   17.6324  -32.5839 H   0  0  0  0  0  0  0  0  0  0  0  0
   -9.4803   18.5513  -31.0579 H   0  0  0  0  0  0  0  0  0  0  0  0
   -8.9344   19.7262  -33.8303 H   0  0  0  0  0  0  0  0  0  0  0  0
  -10.5020   19.7574  -32.9168 H   0  0  0  0  0  0  0  0  0  0  0  0
   -8.5367   21.7362  -32.9026 H   0  0  0  0  0  0  0  0  0  0  0  0
   -9.9047   21.5038  -31.7057 H   0  0  0  0  0  0  0  0  0  0  0  0
   -7.4581   21.8493  -30.8390 H   0  0  0  0  0  0  0  0  0  0  0  0
   -8.5634   20.5811  -30.1129 H   0  0  0  0  0  0  0  0  0  0  0  0
   -6.9323   22.9506  -32.4885 H   0  0  0  0  0  0  0  0  0  0  0  0
   -6.3816   25.2927  -31.8286 H   0  0  0  0  0  0  0  0  0  0  0  0
   -0.3161   22.7643  -26.7774 H   0  0  0  0  0  0  0  0  0  0  0  0
   -0.7942   21.0444  -25.0329 H   0  0  0  0  0  0  0  0  0  0  0  0
   -2.2039   19.0590  -25.5881 H   0  0  0  0  0  0  0  0  0  0  0  0
   -3.1470   18.8014  -27.8845 H   0  0  0  0  0  0  0  0  0  0  0  0
   -2.6785   20.5210  -29.6333 H   0  0  0  0  0  0  0  0  0  0  0  0
  1  2  2  0
  2  3  2  0
  2  4  1  0
  4  5  1  0
  5  6  2  0
  6  7  1  0
  7  8  1  0
  8  9  2  0
  8 10  2  0
  8 11  1  0
 11 12  1  0
 12 13  1  0
 13 14  1  0
 14 15  1  0
 15 16  1  0
  7 17  2  0
 17 18  1  0
 18 19  2  0
 19 20  1  0
  2 21  1  0
 21 22  2  0
 22 23  1  0
 23 24  2  0
 24 25  1  0
 25 26  2  0
 19  5  1  0
 26 21  1  0
 16 11  1  0
  6 27  1  0
 12 28  1  0
 12 29  1  0
 13 30  1  0
 13 31  1  0
 14 32  1  0
 14 33  1  0
 15 34  1  0
 15 35  1  0
 16 36  1  0
 16 37  1  0
 17 38  1  0
 18 39  1  0
 22 40  1  0
 23 41  1  0
 24 42  1  0
 25 43  1  0
 26 44  1  0
M  CHG  2   4  -1  20  -1
M  END
>  <UniqueID>  (13) 
13

>  <SMILES>  (13) 
O=S(=O)([N-]c1cc(S(=O)(=O)N2CCCCC2)ccc1[O-])c1ccccc1

>  <Energy>  (13) 
53.01609746184474

>  <Genealogy>  (13) 
O=S(=O)([N-]c1cc(S(=O)(=O)N2CCCCC2)ccc1[O-])c1ccccc1 (protonated)
O=S(=O)([N-]c1cc(S(=O)(=O)N2CCCCC2)ccc1[O-])c1ccccc1 (3D coordinates assigned)
O=S(=O)([N-]c1cc(S(=O)(=O)N2CCCCC2)ccc1[O-])c1ccccc1 (nonaromatic ring conformer: 53.01609746184474 kcal/mol)

>  <smiles>  (13) 
O=S(=O)(Nc1cc(S(=O)(=O)N2CCCCC2)ccc1O)c1ccccc1

>  <score_type>  (13) 
oracle

>  <origin>  (13) 
adgpu

>  <m_score__min__energy>  (13) 
-13.199999999999999

>  <m_primary>  (13) 
energy

$$$$
13:0
     RDKit          3D

 50 54  0  0  0  0  0  0  0  0999 V2000
   -9.5950   19.3860  -33.9830 H   0  0  0  0  0  0  0  0  0  0  0  0
   -9.4570   19.8220  -33.0440 N   0  0  0  0  0  0  0  0  0  0  0  0
   -7.9580   19.2230  -32.4230 S   0  0  0  0  0  0  0  0  0  0  0  0
   -7.2820   18.3790  -33.4650 O   0  0  0  0  0  0  0  0  0  0  0  0
   -8.2400   18.3860  -31.2070 O   0  0  0  0  0  0  0  0  0  0  0  0
   -6.9130   20.5720  -31.9930 C   0  0  0  0  0  0  0  0  0  0  0  0
   -7.3710   21.5770  -31.1300 C   0  0  0  0  0  0  0  0  0  0  0  0
   -8.3926   21.5282  -30.7252 H   0  0  0  0  0  0  0  0  0  0  0  0
   -6.5340   22.6410  -30.7820 C   0  0  0  0  0  0  0  0  0  0  0  0
   -6.8971   23.4193  -30.0947 H   0  0  0  0  0  0  0  0  0  0  0  0
   -5.2370   22.7230  -31.3020 C   0  0  0  0  0  0  0  0  0  0  0  0
   -4.3990   23.8180  -30.8920 N   0  0  0  0  0  0  0  0  0  0  0  0
   -3.4290   23.7780  -30.0250 C   0  0  0  0  0  0  0  0  0  0  0  0
   -3.0370   22.6070  -29.4540 N   0  0  0  0  0  0  0  0  0  0  0  0
   -1.9950   22.5510  -28.5840 C   0  0  0  0  0  0  0  0  0  0  0  0
   -1.6570   21.2860  -27.9960 N   0  0  0  0  0  0  0  0  0  0  0  0
   -0.8260   20.4050  -28.4720 C   0  0  0  0  0  0  0  0  0  0  0  0
   -0.2000   20.4990  -29.6610 N   0  0  0  0  0  0  0  0  0  0  0  0
    0.5210   19.3990  -29.8070 N   0  0  0  0  0  0  0  0  0  0  0  0
    1.1150   19.1970  -30.6420 H   0  0  0  0  0  0  0  0  0  0  0  0
    0.3560   18.6010  -28.7350 C   0  0  0  0  0  0  0  0  0  0  0  0
    1.0350   17.2610  -28.5960 C   0  0  0  0  0  0  0  0  0  0  0  0
    1.0355   17.0498  -29.6755 H   0  0  0  0  0  0  0  0  0  0  0  0
    0.6980   16.4670  -27.3430 C   0  0  0  0  0  0  0  0  0  0  0  0
   -0.0422   16.8557  -26.6281 H   0  0  0  0  0  0  0  0  0  0  0  0
    0.3549   15.4416  -27.1408 H   0  0  0  0  0  0  0  0  0  0  0  0
    2.0560   17.1410  -27.4740 C   0  0  0  0  0  0  0  0  0  0  0  0
    2.2974   18.0169  -26.8540 H   0  0  0  0  0  0  0  0  0  0  0  0
    3.1012   16.8048  -27.4059 H   0  0  0  0  0  0  0  0  0  0  0  0
   -0.5140   19.2170  -27.8480 C   0  0  0  0  0  0  0  0  0  0  0  0
   -0.8706   18.8451  -26.8761 H   0  0  0  0  0  0  0  0  0  0  0  0
   -1.3320   23.7390  -28.2380 C   0  0  0  0  0  0  0  0  0  0  0  0
   -0.4975   23.7256  -27.5215 H   0  0  0  0  0  0  0  0  0  0  0  0
   -1.7500   24.9380  -28.8190 C   0  0  0  0  0  0  0  0  0  0  0  0
   -1.0250   26.1440  -28.5330 N   0  0  0  0  0  0  0  0  0  0  0  0
   -0.8860   26.7630  -27.3930 C   0  0  0  0  0  0  0  0  0  0  0  0
   -0.2360   27.9600  -27.3880 N   0  0  0  0  0  0  0  0  0  0  0  0
   -0.0330   28.6750  -26.2490 C   0  0  0  0  0  0  0  0  0  0  0  0
    0.4900   29.6417  -26.2930 H   0  0  0  0  0  0  0  0  0  0  0  0
   -0.4870   28.1840  -25.0260 C   0  0  0  0  0  0  0  0  0  0  0  0
   -0.3328   28.7615  -24.1026 H   0  0  0  0  0  0  0  0  0  0  0  0
   -1.1390   26.9520  -24.9870 C   0  0  0  0  0  0  0  0  0  0  0  0
   -1.4974   26.5494  -24.0281 H   0  0  0  0  0  0  0  0  0  0  0  0
   -1.3370   26.2290  -26.1660 C   0  0  0  0  0  0  0  0  0  0  0  0
   -1.8403   25.2513  -26.1387 H   0  0  0  0  0  0  0  0  0  0  0  0
   -2.7690   24.9240  -29.7210 N   0  0  0  0  0  0  0  0  0  0  0  0
   -4.7650   21.6930  -32.1360 C   0  0  0  0  0  0  0  0  0  0  0  0
   -3.7331   21.7244  -32.5156 H   0  0  0  0  0  0  0  0  0  0  0  0
   -5.6040   20.6290  -32.4840 C   0  0  0  0  0  0  0  0  0  0  0  0
   -5.2329   19.8334  -33.1468 H   0  0  0  0  0  0  0  0  0  0  0  0
  1  2  1  0
  2  3  1  0
  3  4  2  0
  3  5  2  0
  3  6  1  0
  6  7  2  0
  7  8  1  0
  7  9  1  0
  9 10  1  0
  9 11  2  0
 11 12  1  0
 12 13  2  0
 13 14  1  0
 14 15  2  0
 15 16  1  0
 16 17  2  3
 17 18  1  0
 18 19  1  0
 19 20  1  0
 19 21  1  0
 21 22  1  0
 22 23  1  0
 22 24  1  0
 24 25  1  0
 24 26  1  0
 24 27  1  0
 27 28  1  0
 27 29  1  0
 21 30  2  0
 30 31  1  0
 15 32  1  0
 32 33  1  0
 32 34  2  0
 34 35  1  0
 35 36  2  0
 36 37  1  0
 37 38  1  0
 38 39  1  0
 38 40  2  0
 40 41  1  0
 40 42  1  0
 42 43  1  0
 42 44  2  0
 44 45  1  0
 34 46  1  0
 11 47  1  0
 47 48  1  0
 47 49  2  0
 49 50  1  0
 49  6  1  0
 46 13  1  0
 30 17  1  0
 44 36  1  0
 27 22  1  0
M  CHG  4   2  -1  18  -1  37  -1  46  -1
M  END
>  <UniqueID>  (14) 
14

>  <SMILES>  (14) 
[NH-]S(=O)(=O)c1ccc(/N=c2\nc(N=c3cc(C4CC4)[nH][n-]3)cc(/N=c3\cccc[n-]3)[n-]2)cc1

>  <Energy>  (14) 
372.5347941807664

>  <Genealogy>  (14) 
[NH-]S(=O)(=O)c1ccc(N=c2nc(N=c3cc(C4CC4)[nH][n-]3)cc(N=c3cccc[n-]3)[n-]2)cc1 (protonated)
[NH-]S(=O)(=O)c1ccc(/N=c2\nc(N=c3cc(C4CC4)[nH][n-]3)cc(/N=c3\cccc[n-]3)[n-]2)cc1 (cis-trans isomerization)
[NH-]S(=O)(=O)c1ccc(/N=c2\nc(N=c3cc(C4CC4)[nH][n-]3)cc(/N=c3\cccc[n-]3)[n-]2)cc1 (3D coordinates assigned)
[NH-]S(=O)(=O)c1ccc(/N=c2\nc(N=c3cc(C4CC4)[nH][n-]3)cc(/N=c3\cccc[n-]3)[n-]2)cc1 (nonaromatic ring conformer: 372.5347941807664 kcal/mol)

>  <smiles>  (14) 
NS(=O)(=O)c1ccc(N=c2nc(N=c3cc(C4CC4)[nH][nH]3)cc(N=c3cccc[nH]3)[nH]2)cc1

>  <score_type>  (14) 
oracle

>  <origin>  (14) 
adgpu

>  <m_score__min__energy>  (14) 
-11.949999999999999

>  <m_primary>  (14) 
energy

$$$$
14:0
     RDKit          3D

 31 33  0  0  0  0  0  0  0  0999 V2000
   -9.4690   19.5170  -32.3940 C   0  0  0  0  0  0  0  0  0  0  0  0
   -8.4320   20.5280  -32.0030 C   0  0  0  0  0  0  0  0  0  0  0  0
   -7.1490   20.1120  -31.6170 C   0  0  0  0  0  0  0  0  0  0  0  0
   -6.1940   21.0520  -31.2190 C   0  0  0  0  0  0  0  0  0  0  0  0
   -6.5120   22.4170  -31.1910 C   0  0  0  0  0  0  0  0  0  0  0  0
   -5.5260   23.3850  -30.7910 N   0  0  0  0  0  0  0  0  0  0  0  0
   -4.1970   23.4080  -31.0680 C   0  0  0  0  0  0  0  0  0  0  0  0
   -3.4280   22.3210  -31.7130 C   0  0  0  0  0  0  0  0  0  0  0  0
   -3.7710   21.8950  -33.0050 C   0  0  0  0  0  0  0  0  0  0  0  0
   -3.0340   20.8770  -33.6150 C   0  0  0  0  0  0  0  0  0  0  0  0
   -1.9820   20.3120  -32.9660 N   0  0  0  0  0  0  0  0  0  0  0  0
   -1.6140   20.7160  -31.7210 C   0  0  0  0  0  0  0  0  0  0  0  0
   -2.3240   21.7320  -31.0750 C   0  0  0  0  0  0  0  0  0  0  0  0
   -3.6280   24.5630  -30.6620 N   0  0  0  0  0  0  0  0  0  0  0  0
   -4.5950   25.2850  -30.1160 N   0  0  0  0  0  0  0  0  0  0  0  0
   -5.7330   24.5780  -30.1930 C   0  0  0  0  0  0  0  0  0  0  0  0
   -7.1950   25.1670  -29.7390 S   0  0  0  0  0  0  0  0  0  0  0  0
   -7.8020   22.8310  -31.5590 C   0  0  0  0  0  0  0  0  0  0  0  0
   -8.7580   21.8920  -31.9570 C   0  0  0  0  0  0  0  0  0  0  0  0
   -9.9160   19.0812  -31.4883 H   0  0  0  0  0  0  0  0  0  0  0  0
  -10.2527   20.0073  -32.9902 H   0  0  0  0  0  0  0  0  0  0  0  0
   -8.9987   18.7211  -32.9902 H   0  0  0  0  0  0  0  0  0  0  0  0
   -6.8936   19.0421  -31.6276 H   0  0  0  0  0  0  0  0  0  0  0  0
   -5.1874   20.7188  -30.9262 H   0  0  0  0  0  0  0  0  0  0  0  0
   -4.6155   22.3600  -33.5347 H   0  0  0  0  0  0  0  0  0  0  0  0
   -3.3059   20.5318  -34.6234 H   0  0  0  0  0  0  0  0  0  0  0  0
   -0.7561   20.2425  -31.2213 H   0  0  0  0  0  0  0  0  0  0  0  0
   -2.0199   22.0683  -30.0728 H   0  0  0  0  0  0  0  0  0  0  0  0
   -4.4710   26.2450  -29.7250 H   0  0  0  0  0  0  0  0  0  0  0  0
   -8.0618   23.8996  -31.5340 H   0  0  0  0  0  0  0  0  0  0  0  0
   -9.7693   22.2235  -32.2351 H   0  0  0  0  0  0  0  0  0  0  0  0
  1  2  1  0
  2  3  2  0
  3  4  1  0
  4  5  2  0
  5  6  1  0
  6  7  1  0
  7  8  1  0
  8  9  2  0
  9 10  1  0
 10 11  2  0
 11 12  1  0
 12 13  2  0
  7 14  2  0
 14 15  1  0
 15 16  1  0
 16 17  2  0
  5 18  1  0
 18 19  2  0
 19  2  1  0
 16  6  1  0
 13  8  1  0
  1 20  1  0
  1 21  1  0
  1 22  1  0
  3 23  1  0
  4 24  1  0
  9 25  1  0
 10 26  1  0
 12 27  1  0
 13 28  1  0
 15 29  1  0
 18 30  1  0
 19 31  1  0
M  END
>  <UniqueID>  (15) 
15

>  <SMILES>  (15) 
Cc1ccc(-n2c(-c3ccncc3)n[nH]c2=S)cc1

>  <Energy>  (15) 
79.90884707035111

>  <Genealogy>  (15) 
Cc1ccc(-n2c(-c3ccncc3)n[nH]c2=S)cc1 (3D coordinates assigned)
Cc1ccc(-n2c(-c3ccncc3)n[nH]c2=S)cc1 (optimized conformer: 79.90884707035111 kcal/mol)

>  <smiles>  (15) 
Cc1ccc(-n2c(-c3ccncc3)n[nH]c2=S)cc1

>  <score_type>  (15) 
oracle

>  <origin>  (15) 
adgpu

>  <m_score__min__energy>  (15) 
-7.4699999999999998

>  <m_primary>  (15) 
energy

$$$$
15:0
     RDKit          3D

 27 29  0  0  0  0  0  0  0  0999 V2000
   -1.9680   25.5600  -29.3010 O   0  0  0  0  0  0  0  0  0  0  0  0
   -3.1240   24.9230  -29.7330 C   0  0  0  0  0  0  0  0  0  0  0  0
   -3.7200   23.8610  -29.0820 C   0  0  0  0  0  0  0  0  0  0  0  0
   -4.8240   23.5500  -29.8470 C   0  0  0  0  0  0  0  0  0  0  0  0
   -5.8110   22.5470  -29.5590 N   0  0  0  0  0  0  0  0  0  0  0  0
   -6.7340   22.0520  -30.5450 C   0  0  0  0  0  0  0  0  0  0  0  0
   -8.1080   22.3110  -30.4000 C   0  0  0  0  0  0  0  0  0  0  0  0
   -9.0310   21.8010  -31.3150 C   0  0  0  0  0  0  0  0  0  0  0  0
   -8.5990   21.0160  -32.3850 C   0  0  0  0  0  0  0  0  0  0  0  0
   -7.2380   20.7390  -32.5470 C   0  0  0  0  0  0  0  0  0  0  0  0
   -6.8270   19.9750  -33.5950 N   0  0  0  0  0  0  0  0  0  0  0  0
   -5.5160   19.6870  -33.8010 C   0  0  0  0  0  0  0  0  0  0  0  0
   -4.5450   20.1830  -32.9320 C   0  0  0  0  0  0  0  0  0  0  0  0
   -4.9310   20.9710  -31.8450 C   0  0  0  0  0  0  0  0  0  0  0  0
   -6.2920   21.2560  -31.6270 C   0  0  0  0  0  0  0  0  0  0  0  0
   -4.8420   24.4420  -30.9050 C   0  0  0  0  0  0  0  0  0  0  0  0
   -5.7920   24.4920  -31.9200 O   0  0  0  0  0  0  0  0  0  0  0  0
   -3.7960   25.2880  -30.8440 N   0  0  0  0  0  0  0  0  0  0  0  0
   -3.3868   23.3704  -28.1556 H   0  0  0  0  0  0  0  0  0  0  0  0
   -5.8530   22.1470  -28.5970 H   0  0  0  0  0  0  0  0  0  0  0  0
   -8.4600   22.9224  -29.5560 H   0  0  0  0  0  0  0  0  0  0  0  0
  -10.1022   22.0186  -31.1921 H   0  0  0  0  0  0  0  0  0  0  0  0
   -9.3303   20.6146  -33.1020 H   0  0  0  0  0  0  0  0  0  0  0  0
   -5.2194   19.0609  -34.6554 H   0  0  0  0  0  0  0  0  0  0  0  0
   -3.4822   19.9554  -33.1012 H   0  0  0  0  0  0  0  0  0  0  0  0
   -4.1698   21.3695  -31.1581 H   0  0  0  0  0  0  0  0  0  0  0  0
   -5.8330   23.7910  -32.6500 H   0  0  0  0  0  0  0  0  0  0  0  0
  1  2  1  0
  2  3  2  0
  3  4  1  0
  4  5  1  0
  5  6  1  0
  6  7  2  0
  7  8  1  0
  8  9  2  0
  9 10  1  0
 10 11  2  0
 11 12  1  0
 12 13  2  0
 13 14  1  0
 14 15  2  0
  4 16  2  0
 16 17  1  0
 16 18  1  0
 18  2  1  0
 15  6  1  0
 15 10  1  0
  3 19  1  0
  5 20  1  0
  7 21  1  0
  8 22  1  0
  9 23  1  0
 12 24  1  0
 13 25  1  0
 14 26  1  0
 17 27  1  0
M  CHG  2   1  -1  18  -1
M  END
>  <UniqueID>  (16) 
16

>  <SMILES>  (16) 
[O-]c1cc(Nc2cccc3ncccc23)c(O)[n-]1

>  <Energy>  (16) 
66.17021730030538

>  <Genealogy>  (16) 
[O-]c1cc(Nc2cccc3ncccc23)c(O)[n-]1 (protonated)
[O-]c1cc(Nc2cccc3ncccc23)c(O)[n-]1 (3D coordinates assigned)
[O-]c1cc(Nc2cccc3ncccc23)c(O)[n-]1 (optimized conformer: 66.17021730030538 kcal/mol)

>  <smiles>  (16) 
Oc1cc(Nc2cccc3ncccc23)c(O)[nH]1

>  <score_type>  (16) 
oracle

>  <origin>  (16) 
adgpu

>  <m_score__min__energy>  (16) 
-11.43

>  <m_primary>  (16) 
energy

$$$$
16:0
     RDKit          3D

 41 44  0  0  0  0  0  0  0  0999 V2000
    0.4670   21.9970  -34.8410 O   0  0  0  0  0  0  0  0  0  0  0  0
    0.1630   20.8610  -35.2920 C   0  0  0  0  0  0  0  0  0  0  0  0
    0.2680   20.6260  -36.6570 O   0  0  0  0  0  0  0  0  0  0  0  0
   -0.2280   19.7760  -34.3650 C   0  0  0  0  0  0  0  0  0  0  0  0
   -0.8540   18.6310  -34.8920 C   0  0  0  0  0  0  0  0  0  0  0  0
   -1.3080   17.6060  -34.0550 C   0  0  0  0  0  0  0  0  0  0  0  0
   -1.9440   16.4670  -34.6520 N   0  0  0  0  0  0  0  0  0  0  0  0
   -3.6410   16.3250  -34.9760 S   0  0  0  0  0  0  0  0  0  0  0  0
   -4.0760   14.9080  -34.7260 O   0  0  0  0  0  0  0  0  0  0  0  0
   -3.8960   16.6630  -36.4180 O   0  0  0  0  0  0  0  0  0  0  0  0
   -4.5400   17.4470  -33.9620 C   0  0  0  0  0  0  0  0  0  0  0  0
   -5.7140   17.0270  -33.2850 C   0  0  0  0  0  0  0  0  0  0  0  0
   -6.4290   17.9250  -32.4700 C   0  0  0  0  0  0  0  0  0  0  0  0
   -5.9420   19.2230  -32.3640 C   0  0  0  0  0  0  0  0  0  0  0  0
   -6.4260   20.2270  -31.6840 O   0  0  0  0  0  0  0  0  0  0  0  0
   -5.6060   21.2440  -31.9110 C   0  0  0  0  0  0  0  0  0  0  0  0
   -5.7960   22.5850  -31.3220 C   0  0  0  0  0  0  0  0  0  0  0  0
   -7.0480   22.9560  -30.8030 C   0  0  0  0  0  0  0  0  0  0  0  0
   -7.2330   24.2250  -30.2460 C   0  0  0  0  0  0  0  0  0  0  0  0
   -6.1710   25.1310  -30.1980 C   0  0  0  0  0  0  0  0  0  0  0  0
   -4.9200   24.7710  -30.7100 C   0  0  0  0  0  0  0  0  0  0  0  0
   -3.8640   25.6730  -30.6590 O   0  0  0  0  0  0  0  0  0  0  0  0
   -4.7320   23.5040  -31.2720 C   0  0  0  0  0  0  0  0  0  0  0  0
   -4.5750   20.9270  -32.7400 N   0  0  0  0  0  0  0  0  0  0  0  0
   -4.8180   19.6330  -33.0110 C   0  0  0  0  0  0  0  0  0  0  0  0
   -4.0820   18.7750  -33.8240 C   0  0  0  0  0  0  0  0  0  0  0  0
   -1.1380   17.7270  -32.6670 C   0  0  0  0  0  0  0  0  0  0  0  0
   -0.5060   18.8500  -32.1320 C   0  0  0  0  0  0  0  0  0  0  0  0
   -0.0290   19.8680  -32.9650 C   0  0  0  0  0  0  0  0  0  0  0  0
    0.6650   20.9250  -32.3710 O   0  0  0  0  0  0  0  0  0  0  0  0
   -0.9886   18.5405  -35.9800 H   0  0  0  0  0  0  0  0  0  0  0  0
   -6.0683   15.9917  -33.3978 H   0  0  0  0  0  0  0  0  0  0  0  0
   -7.3388   17.6115  -31.9371 H   0  0  0  0  0  0  0  0  0  0  0  0
   -7.8865   22.2447  -30.8351 H   0  0  0  0  0  0  0  0  0  0  0  0
   -8.2167   24.5104  -29.8449 H   0  0  0  0  0  0  0  0  0  0  0  0
   -6.3185   26.1280  -29.7574 H   0  0  0  0  0  0  0  0  0  0  0  0
   -3.7479   23.2250  -31.6766 H   0  0  0  0  0  0  0  0  0  0  0  0
   -3.1746   19.1203  -34.3411 H   0  0  0  0  0  0  0  0  0  0  0  0
   -1.5043   16.9338  -31.9987 H   0  0  0  0  0  0  0  0  0  0  0  0
   -0.3813   18.9360  -31.0425 H   0  0  0  0  0  0  0  0  0  0  0  0
    0.9440   21.7570  -32.8730 H   0  0  0  0  0  0  0  0  0  0  0  0
  1  2  2  0
  2  3  1  0
  2  4  1  0
  4  5  2  0
  5  6  1  0
  6  7  1  0
  7  8  1  0
  8  9  2  0
  8 10  2  0
  8 11  1  0
 11 12  2  0
 12 13  1  0
 13 14  2  0
 14 15  1  0
 15 16  1  0
 16 17  1  0
 17 18  2  0
 18 19  1  0
 19 20  2  0
 20 21  1  0
 21 22  1  0
 21 23  2  0
 16 24  2  0
 24 25  1  0
 25 26  2  0
  6 27  2  0
 27 28  1  0
 28 29  2  0
 29 30  1  0
 29  4  1  0
 26 11  1  0
 25 14  1  0
 23 17  1  0
  5 31  1  0
 12 32  1  0
 13 33  1  0
 18 34  1  0
 19 35  1  0
 20 36  1  0
 23 37  1  0
 26 38  1  0
 27 39  1  0
 28 40  1  0
 30 41  1  0
M  CHG  3   3  -1   7  -1  22  -1
M  END
>  <UniqueID>  (17) 
17

>  <SMILES>  (17) 
O=C([O-])c1cc([N-]S(=O)(=O)c2ccc3oc(-c4cccc([O-])c4)nc3c2)ccc1O

>  <Energy>  (17) 
92.4679517329233

>  <Genealogy>  (17) 
O=C([O-])c1cc([N-]S(=O)(=O)c2ccc3oc(-c4cccc([O-])c4)nc3c2)ccc1O (protonated)
O=C([O-])c1cc([N-]S(=O)(=O)c2ccc3oc(-c4cccc([O-])c4)nc3c2)ccc1O (3D coordinates assigned)
O=C([O-])c1cc([N-]S(=O)(=O)c2ccc3oc(-c4cccc([O-])c4)nc3c2)ccc1O (optimized conformer: 92.4679517329233 kcal/mol)

>  <smiles>  (17) 
O=C(O)c1cc(NS(=O)(=O)c2ccc3oc(-c4cccc(O)c4)nc3c2)ccc1O

>  <score_type>  (17) 
oracle

>  <origin>  (17) 
adgpu

>  <m_score__min__energy>  (17) 
-11.59

>  <m_primary>  (17) 
energy

$$$$
17:0
     RDKit          3D

 50 53  0  0  0  0  0  0  0  0999 V2000
   -6.7030   23.8840  -31.0940 C   0  0  0  0  0  0  0  0  0  0  0  0
   -5.2840   24.1780  -30.7240 C   0  0  0  0  0  0  0  0  0  0  0  0
   -4.7350   25.4030  -30.8110 N   0  0  0  0  0  0  0  0  0  0  0  0
   -3.4950   25.2930  -30.4350 O   0  0  0  0  0  0  0  0  0  0  0  0
   -3.2010   24.0590  -30.1030 C   0  0  0  0  0  0  0  0  0  0  0  0
   -2.0040   23.7320  -29.7020 N   0  0  0  0  0  0  0  0  0  0  0  0
   -1.3850   22.1940  -29.1830 S   0  0  0  0  0  0  0  0  0  0  0  0
   -2.2890   21.6650  -28.1070 O   0  0  0  0  0  0  0  0  0  0  0  0
   -0.0090   22.3660  -28.6050 O   0  0  0  0  0  0  0  0  0  0  0  0
   -1.3810   21.0330  -30.5060 C   0  0  0  0  0  0  0  0  0  0  0  0
   -0.7000   19.8170  -30.3690 C   0  0  0  0  0  0  0  0  0  0  0  0
   -0.6870   18.8970  -31.4210 C   0  0  0  0  0  0  0  0  0  0  0  0
   -1.3680   19.1720  -32.6140 C   0  0  0  0  0  0  0  0  0  0  0  0
   -1.3090   18.2060  -33.6750 N   0  0  0  0  0  0  0  0  0  0  0  0
   -2.3950   17.7670  -34.4990 C   0  0  0  0  0  0  0  0  0  0  0  0
   -2.2730   16.7580  -35.2440 O   0  0  0  0  0  0  0  0  0  0  0  0
   -3.6570   18.5690  -34.5470 C   0  0  0  0  0  0  0  0  0  0  0  0
   -4.6180   18.1060  -33.4710 C   0  0  0  0  0  0  0  0  0  0  0  0
   -4.4720   16.7960  -32.9800 C   0  0  0  0  0  0  0  0  0  0  0  0
   -5.3370   16.2920  -32.0110 C   0  0  0  0  0  0  0  0  0  0  0  0
   -6.3730   17.0800  -31.5150 C   0  0  0  0  0  0  0  0  0  0  0  0
   -6.5570   18.3860  -31.9910 C   0  0  0  0  0  0  0  0  0  0  0  0
   -7.6130   19.1650  -31.4930 C   0  0  0  0  0  0  0  0  0  0  0  0
   -7.8130   20.4630  -31.9650 C   0  0  0  0  0  0  0  0  0  0  0  0
   -6.9630   20.9930  -32.9360 C   0  0  0  0  0  0  0  0  0  0  0  0
   -5.9070   20.2310  -33.4410 C   0  0  0  0  0  0  0  0  0  0  0  0
   -5.6820   18.9150  -32.9800 C   0  0  0  0  0  0  0  0  0  0  0  0
   -2.0370   20.4000  -32.7560 C   0  0  0  0  0  0  0  0  0  0  0  0
   -2.0510   21.3210  -31.7030 C   0  0  0  0  0  0  0  0  0  0  0  0
   -4.3420   23.2690  -30.2620 C   0  0  0  0  0  0  0  0  0  0  0  0
   -4.5530   21.7910  -30.1150 C   0  0  0  0  0  0  0  0  0  0  0  0
   -7.3021   23.7599  -30.1799 H   0  0  0  0  0  0  0  0  0  0  0  0
   -7.1075   24.7174  -31.6871 H   0  0  0  0  0  0  0  0  0  0  0  0
   -6.7431   22.9585  -31.6871 H   0  0  0  0  0  0  0  0  0  0  0  0
   -0.1740   19.5854  -29.4311 H   0  0  0  0  0  0  0  0  0  0  0  0
   -0.1381   17.9501  -31.3115 H   0  0  0  0  0  0  0  0  0  0  0  0
   -3.4180   19.6308  -34.3871 H   0  0  0  0  0  0  0  0  0  0  0  0
   -4.1297   18.4320  -35.5307 H   0  0  0  0  0  0  0  0  0  0  0  0
   -3.6625   16.1597  -33.3670 H   0  0  0  0  0  0  0  0  0  0  0  0
   -5.2011   15.2669  -31.6359 H   0  0  0  0  0  0  0  0  0  0  0  0
   -7.0492   16.6763  -30.7471 H   0  0  0  0  0  0  0  0  0  0  0  0
   -8.2857   18.7507  -30.7276 H   0  0  0  0  0  0  0  0  0  0  0  0
   -8.6420   21.0691  -31.5709 H   0  0  0  0  0  0  0  0  0  0  0  0
   -7.1253   22.0162  -33.3058 H   0  0  0  0  0  0  0  0  0  0  0  0
   -5.2434   20.6604  -34.2060 H   0  0  0  0  0  0  0  0  0  0  0  0
   -2.5515   20.6378  -33.6987 H   0  0  0  0  0  0  0  0  0  0  0  0
   -2.5893   22.2738  -31.8147 H   0  0  0  0  0  0  0  0  0  0  0  0
   -4.5902   21.5304  -29.0470 H   0  0  0  0  0  0  0  0  0  0  0  0
   -5.5009   21.5064  -30.5951 H   0  0  0  0  0  0  0  0  0  0  0  0
   -3.7226   21.2525  -30.5951 H   0  0  0  0  0  0  0  0  0  0  0  0
  1  2  1  0
  2  3  1  0
  3  4  1  0
  4  5  1  0
  5  6  2  3
  6  7  1  0
  7  8  2  0
  7  9  2  0
  7 10  1  0
 10 11  2  0
 11 12  1  0
 12 13  2  0
 13 14  1  0
 14 15  1  0
 15 16  2  0
 15 17  1  0
 17 18  1  0
 18 19  2  0
 19 20  1  0
 20 21  2  0
 21 22  1  0
 22 23  2  0
 23 24  1  0
 24 25  2  0
 25 26  1  0
 26 27  2  0
 13 28  1  0
 28 29  2  0
  5 30  1  0
 30 31  1  0
 30  2  2  0
 29 10  1  0
 27 18  1  0
 27 22  1  0
  1 32  1  0
  1 33  1  0
  1 34  1  0
 11 35  1  0
 12 36  1  0
 17 37  1  0
 17 38  1  0
 19 39  1  0
 20 40  1  0
 21 41  1  0
 23 42  1  0
 24 43  1  0
 25 44  1  0
 26 45  1  0
 28 46  1  0
 29 47  1  0
 31 48  1  0
 31 49  1  0
 31 50  1  0
M  CHG  2   3  -1  14  -1
M  END
>  <UniqueID>  (18) 
18

>  <SMILES>  (18) 
Cc1[n-]oc(=NS(=O)(=O)c2ccc([N-]C(=O)Cc3cccc4ccccc34)cc2)c1C

>  <Energy>  (18) 
101.18555434838723

>  <Genealogy>  (18) 
Cc1[n-]oc(=NS(=O)(=O)c2ccc([N-]C(=O)Cc3cccc4ccccc34)cc2)c1C (protonated)
Cc1[n-]oc(=NS(=O)(=O)c2ccc([N-]C(=O)Cc3cccc4ccccc34)cc2)c1C (3D coordinates assigned)
Cc1[n-]oc(=NS(=O)(=O)c2ccc([N-]C(=O)Cc3cccc4ccccc34)cc2)c1C (optimized conformer: 101.18555434838723 kcal/mol)

>  <smiles>  (18) 
Cc1[nH]oc(=NS(=O)(=O)c2ccc(NC(=O)Cc3cccc4ccccc34)cc2)c1C

>  <score_type>  (18) 
oracle

>  <origin>  (18) 
adgpu

>  <m_score__min__energy>  (18) 
-11.43

>  <m_primary>  (18) 
energy

$$$$
18:0
     RDKit          3D

 60 64  0  0  0  0  0  0  0  0999 V2000
   -6.9330   16.5190  -32.1040 H   0  0  0  0  0  0  0  0  0  0  0  0
   -6.4690   17.4390  -32.2780 N   0  0  0  0  0  0  0  0  0  0  0  0
   -7.1110   18.5550  -32.1540 C   0  0  0  0  0  0  0  0  0  0  0  0
   -8.4240   18.5650  -31.7750 N   0  0  0  0  0  0  0  0  0  0  0  0
   -9.1020   19.7410  -31.6050 C   0  0  0  0  0  0  0  0  0  0  0  0
  -10.1618   19.7282  -31.3106 H   0  0  0  0  0  0  0  0  0  0  0  0
   -8.4620   20.9290  -31.8010 N   0  0  0  0  0  0  0  0  0  0  0  0
   -7.1840   20.9070  -32.1720 N   0  0  0  0  0  0  0  0  0  0  0  0
   -6.3470   21.9320  -32.4060 C   0  0  0  0  0  0  0  0  0  0  0  0
   -6.7340   23.3720  -32.3290 C   0  0  0  0  0  0  0  0  0  0  0  0
   -6.8152   23.6740  -31.2744 H   0  0  0  0  0  0  0  0  0  0  0  0
   -5.9686   23.9846  -32.8279 H   0  0  0  0  0  0  0  0  0  0  0  0
   -7.7033   23.5184  -32.8279 H   0  0  0  0  0  0  0  0  0  0  0  0
   -5.1160   21.5000  -32.7750 N   0  0  0  0  0  0  0  0  0  0  0  0
   -5.2110   20.1450  -32.7560 C   0  0  0  0  0  0  0  0  0  0  0  0
   -4.1110   19.2460  -33.1510 C   0  0  0  0  0  0  0  0  0  0  0  0
   -4.3980   18.1930  -34.0290 C   0  0  0  0  0  0  0  0  0  0  0  0
   -5.4389   18.0068  -34.3322 H   0  0  0  0  0  0  0  0  0  0  0  0
   -3.3730   17.3720  -34.5270 C   0  0  0  0  0  0  0  0  0  0  0  0
   -3.6780   16.2740  -35.5290 C   0  0  0  0  0  0  0  0  0  0  0  0
   -4.5501   16.5837  -36.1235 H   0  0  0  0  0  0  0  0  0  0  0  0
   -2.7697   16.1420  -36.1353 H   0  0  0  0  0  0  0  0  0  0  0  0
   -3.9770   14.9500  -34.9200 N   0  0  0  0  0  0  0  0  0  0  0  0
   -4.1580   14.3150  -35.7360 H   0  0  0  0  0  0  0  0  0  0  0  0
   -5.2410   14.9600  -34.1350 C   0  0  0  0  0  0  0  0  0  0  0  0
   -5.2616   15.8593  -33.5019 H   0  0  0  0  0  0  0  0  0  0  0  0
   -6.0854   14.9584  -34.8400 H   0  0  0  0  0  0  0  0  0  0  0  0
   -5.3570   13.7190  -33.2420 C   0  0  0  0  0  0  0  0  0  0  0  0
   -6.3242   13.7413  -32.7186 H   0  0  0  0  0  0  0  0  0  0  0  0
   -5.2828   12.8227  -33.8753 H   0  0  0  0  0  0  0  0  0  0  0  0
   -4.2210   13.6810  -32.2010 C   0  0  0  0  0  0  0  0  0  0  0  0
   -4.5809   14.1445  -31.2706 H   0  0  0  0  0  0  0  0  0  0  0  0
   -3.9440   12.6272  -32.0504 H   0  0  0  0  0  0  0  0  0  0  0  0
   -2.9590   14.4310  -32.6690 C   0  0  0  0  0  0  0  0  0  0  0  0
   -3.0334   15.4858  -32.3660 H   0  0  0  0  0  0  0  0  0  0  0  0
   -2.0783   13.9607  -32.2072 H   0  0  0  0  0  0  0  0  0  0  0  0
   -2.8130   14.3550  -34.1970 C   0  0  0  0  0  0  0  0  0  0  0  0
   -1.9023   14.8976  -34.4905 H   0  0  0  0  0  0  0  0  0  0  0  0
   -2.7607   13.2913  -34.4722 H   0  0  0  0  0  0  0  0  0  0  0  0
   -2.0630   17.5630  -34.0600 C   0  0  0  0  0  0  0  0  0  0  0  0
   -1.2586   16.8981  -34.4077 H   0  0  0  0  0  0  0  0  0  0  0  0
   -1.7710   18.5880  -33.1590 C   0  0  0  0  0  0  0  0  0  0  0  0
   -0.7376   18.7283  -32.8091 H   0  0  0  0  0  0  0  0  0  0  0  0
   -2.7850   19.4420  -32.6950 C   0  0  0  0  0  0  0  0  0  0  0  0
   -2.4370   20.5100  -31.7250 C   0  0  0  0  0  0  0  0  0  0  0  0
   -1.2480   21.2440  -31.8790 C   0  0  0  0  0  0  0  0  0  0  0  0
   -0.5576   21.0007  -32.7001 H   0  0  0  0  0  0  0  0  0  0  0  0
   -0.9380   22.2810  -30.9950 C   0  0  0  0  0  0  0  0  0  0  0  0
   -0.0123   22.8595  -31.1310 H   0  0  0  0  0  0  0  0  0  0  0  0
   -1.8040   22.5860  -29.9350 C   0  0  0  0  0  0  0  0  0  0  0  0
   -1.4400   23.9150  -28.8390 S   0  0  0  0  0  0  0  0  0  0  0  0
    0.0190   24.2640  -28.9160 O   0  0  0  0  0  0  0  0  0  0  0  0
   -1.7660   23.5100  -27.4300 O   0  0  0  0  0  0  0  0  0  0  0  0
   -2.3840   25.2940  -29.2770 N   0  0  0  0  0  0  0  0  0  0  0  0
   -2.4540   25.2970  -30.3190 H   0  0  0  0  0  0  0  0  0  0  0  0
   -2.9800   21.8440  -29.7670 C   0  0  0  0  0  0  0  0  0  0  0  0
   -3.6619   22.0792  -28.9365 H   0  0  0  0  0  0  0  0  0  0  0  0
   -3.2910   20.8060  -30.6500 C   0  0  0  0  0  0  0  0  0  0  0  0
   -4.2090   20.2182  -30.5022 H   0  0  0  0  0  0  0  0  0  0  0  0
   -6.4920   19.7850  -32.3720 C   0  0  0  0  0  0  0  0  0  0  0  0
  1  2  1  0
  2  3  2  0
  3  4  1  0
  4  5  1  0
  5  6  1  0
  5  7  2  0
  7  8  1  0
  8  9  1  0
  9 10  1  0
 10 11  1  0
 10 12  1  0
 10 13  1  0
  9 14  2  0
 14 15  1  0
 15 16  1  0
 16 17  2  0
 17 18  1  0
 17 19  1  0
 19 20  1  0
 20 21  1  0
 20 22  1  0
 20 23  1  0
 23 24  1  0
 23 25  1  0
 25 26  1  0
 25 27  1  0
 25 28  1  0
 28 29  1  0
 28 30  1  0
 28 31  1  0
 31 32  1  0
 31 33  1  0
 31 34  1  0
 34 35  1  0
 34 36  1  0
 34 37  1  0
 37 38  1  0
 37 39  1  0
 19 40  2  0
 40 41  1  0
 40 42  1  0
 42 43  1  0
 42 44  2  0
 44 45  1  0
 45 46  2  0
 46 47  1  0
 46 48  1  0
 48 49  1  0
 48 50  2  0
 50 51  1  0
 51 52  2  0
 51 53  2  0
 51 54  1  0
 54 55  1  0
 50 56  1  0
 56 57  1  0
 56 58  2  0
 58 59  1  0
 15 60  2  0
 60  3  1  0
 60  8  1  0
 44 16  1  0
 58 45  1  0
 37 23  1  0
M  CHG  3   4  -1  23   1  54  -1
M  END
>  <UniqueID>  (19) 
19

>  <SMILES>  (19) 
[H]/N=c1\[n-]cnn2c(C)nc(-c3cc(C[NH+]4CCCCC4)ccc3-c3ccc(S([NH-])(=O)=O)cc3)c12

>  <Energy>  (19) 
125.2671489105217

>  <Genealogy>  (19) 
Cc1nc(-c2cc(C[NH+]3CCCCC3)ccc2-c2ccc(S([NH-])(=O)=O)cc2)c2c(=N)[n-]cnn12 (protonated)
[H]/N=c1\[n-]cnn2c(C)nc(-c3cc(C[NH+]4CCCCC4)ccc3-c3ccc(S([NH-])(=O)=O)cc3)c12 (cis-trans isomerization)
[H]/N=c1\[n-]cnn2c(C)nc(-c3cc(C[NH+]4CCCCC4)ccc3-c3ccc(S([NH-])(=O)=O)cc3)c12 (3D coordinates assigned)
[H]/N=c1\[n-]cnn2c(C)nc(-c3cc(C[NH+]4CCCCC4)ccc3-c3ccc(S([NH-])(=O)=O)cc3)c12 (nonaromatic ring conformer: 125.2671489105217 kcal/mol)

>  <smiles>  (19) 
Cc1nc(-c2cc(CN3CCCCC3)ccc2-c2ccc(S(N)(=O)=O)cc2)c2c(=N)[nH]cnn12

>  <score_type>  (19) 
oracle

>  <origin>  (19) 
adgpu

>  <m_score__min__energy>  (19) 
-11.029999999999999

>  <m_primary>  (19) 
energy

$$$$
19:0
     RDKit          3D

 44 47  0  0  0  0  0  0  0  0999 V2000
   -3.0680   15.8040  -35.4780 H   0  0  0  0  0  0  0  0  0  0  0  0
   -2.2270   16.3240  -35.2620 O   0  0  0  0  0  0  0  0  0  0  0  0
   -2.1950   17.3260  -34.2900 C   0  0  0  0  0  0  0  0  0  0  0  0
   -3.3240   17.6250  -33.5080 C   0  0  0  0  0  0  0  0  0  0  0  0
   -4.5330   16.8680  -33.6950 N   0  0  0  0  0  0  0  0  0  0  0  0
   -6.0150   17.4840  -34.3560 S   0  0  0  0  0  0  0  0  0  0  0  0
   -6.9710   16.3460  -34.5810 O   0  0  0  0  0  0  0  0  0  0  0  0
   -5.7340   18.1350  -35.6790 O   0  0  0  0  0  0  0  0  0  0  0  0
   -6.7210   18.6730  -33.2620 C   0  0  0  0  0  0  0  0  0  0  0  0
   -7.7930   18.3240  -32.4260 C   0  0  0  0  0  0  0  0  0  0  0  0
   -8.2033   17.3039  -32.4572 H   0  0  0  0  0  0  0  0  0  0  0  0
   -8.3400   19.2680  -31.5550 C   0  0  0  0  0  0  0  0  0  0  0  0
   -9.1754   18.9885  -30.8962 H   0  0  0  0  0  0  0  0  0  0  0  0
   -7.8270   20.5690  -31.5190 C   0  0  0  0  0  0  0  0  0  0  0  0
   -8.2628   21.3134  -30.8364 H   0  0  0  0  0  0  0  0  0  0  0  0
   -6.7600   20.9230  -32.3510 C   0  0  0  0  0  0  0  0  0  0  0  0
   -6.2580   22.1820  -32.3120 F   0  0  0  0  0  0  0  0  0  0  0  0
   -6.2050   19.9760  -33.2190 C   0  0  0  0  0  0  0  0  0  0  0  0
   -5.3623   20.2544  -33.8688 H   0  0  0  0  0  0  0  0  0  0  0  0
   -3.2490   18.6570  -32.5570 C   0  0  0  0  0  0  0  0  0  0  0  0
   -4.1327   18.8956  -31.9469 H   0  0  0  0  0  0  0  0  0  0  0  0
   -2.0610   19.3910  -32.3720 C   0  0  0  0  0  0  0  0  0  0  0  0
   -1.9860   20.4800  -31.4660 C   0  0  0  0  0  0  0  0  0  0  0  0
   -3.0870   20.8530  -30.8580 N   0  0  0  0  0  0  0  0  0  0  0  0
   -3.3630   22.0480  -30.1140 C   0  0  0  0  0  0  0  0  0  0  0  0
   -3.7100   21.9520  -28.7600 C   0  0  0  0  0  0  0  0  0  0  0  0
   -3.6944   20.9736  -28.2576 H   0  0  0  0  0  0  0  0  0  0  0  0
   -4.0760   23.0970  -28.0460 C   0  0  0  0  0  0  0  0  0  0  0  0
   -4.3258   23.0215  -26.9774 H   0  0  0  0  0  0  0  0  0  0  0  0
   -4.1250   24.3390  -28.6890 C   0  0  0  0  0  0  0  0  0  0  0  0
   -4.4058   25.2400  -28.1239 H   0  0  0  0  0  0  0  0  0  0  0  0
   -3.8170   24.4350  -30.0500 C   0  0  0  0  0  0  0  0  0  0  0  0
   -3.8820   25.6650  -30.6950 O   0  0  0  0  0  0  0  0  0  0  0  0
   -3.4500   23.2900  -30.7660 C   0  0  0  0  0  0  0  0  0  0  0  0
   -3.2292   23.3622  -31.8412 H   0  0  0  0  0  0  0  0  0  0  0  0
   -0.7250   21.1140  -31.2720 C   0  0  0  0  0  0  0  0  0  0  0  0
   -0.4580   22.0590  -30.2160 C   0  0  0  0  0  0  0  0  0  0  0  0
   -0.2360   22.8150  -29.3670 N   0  0  0  0  0  0  0  0  0  0  0  0
    0.3650   20.7140  -32.0530 C   0  0  0  0  0  0  0  0  0  0  0  0
    1.3373   21.2121  -31.9241 H   0  0  0  0  0  0  0  0  0  0  0  0
    0.2380   19.7210  -32.9660 N   0  0  0  0  0  0  0  0  0  0  0  0
   -0.9300   19.0530  -33.1420 C   0  0  0  0  0  0  0  0  0  0  0  0
   -1.0070   18.0350  -34.0950 C   0  0  0  0  0  0  0  0  0  0  0  0
   -0.1216   17.7884  -34.6994 H   0  0  0  0  0  0  0  0  0  0  0  0
  1  2  1  0
  2  3  1  0
  3  4  2  0
  4  5  1  0
  5  6  1  0
  6  7  2  0
  6  8  2  0
  6  9  1  0
  9 10  2  0
 10 11  1  0
 10 12  1  0
 12 13  1  0
 12 14  2  0
 14 15  1  0
 14 16  1  0
 16 17  1  0
 16 18  2  0
 18 19  1  0
  4 20  1  0
 20 21  1  0
 20 22  2  0
 22 23  1  0
 23 24  2  0
 24 25  1  0
 25 26  2  0
 26 27  1  0
 26 28  1  0
 28 29  1  0
 28 30  2  0
 30 31  1  0
 30 32  1  0
 32 33  1  0
 32 34  2  0
 34 35  1  0
 23 36  1  0
 36 37  1  0
 37 38  3  0
 36 39  2  0
 39 40  1  0
 39 41  1  0
 41 42  1  0
 42 43  2  0
 43 44  1  0
 43  3  1  0
 18  9  1  0
 42 22  1  0
 34 25  1  0
M  CHG  3   5  -1  33  -1  41  -1
M  END
>  <UniqueID>  (20) 
20

>  <SMILES>  (20) 
N#Cc1c[n-]c2cc(O)c([N-]S(=O)(=O)c3cccc(F)c3)cc2/c1=N/c1cccc([O-])c1

>  <Energy>  (20) 
73.03026534777335

>  <Genealogy>  (20) 
N#Cc1c[n-]c2cc(O)c([N-]S(=O)(=O)c3cccc(F)c3)cc2c1=Nc1cccc([O-])c1 (protonated)
N#Cc1c[n-]c2cc(O)c([N-]S(=O)(=O)c3cccc(F)c3)cc2/c1=N/c1cccc([O-])c1 (cis-trans isomerization)
N#Cc1c[n-]c2cc(O)c([N-]S(=O)(=O)c3cccc(F)c3)cc2/c1=N/c1cccc([O-])c1 (3D coordinates assigned)
N#Cc1c[n-]c2cc(O)c([N-]S(=O)(=O)c3cccc(F)c3)cc2/c1=N/c1cccc([O-])c1 (optimized conformer: 73.03026534777335 kcal/mol)

>  <smiles>  (20) 
N#Cc1c[nH]c2cc(O)c(NS(=O)(=O)c3cccc(F)c3)cc2c1=Nc1cccc(O)c1

>  <score_type>  (20) 
oracle

>  <origin>  (20) 
adgpu

>  <m_score__min__energy>  (20) 
-11.83

>  <m_primary>  (20) 
energy

$$$$
20:0
     RDKit          3D

 33 35  0  0  0  0  0  0  0  0999 V2000
   -4.4920   18.4670  -34.2210 C   0  0  0  0  0  0  0  0  0  0  0  0
   -5.9050   18.3770  -34.3770 O   0  0  0  0  0  0  0  0  0  0  0  0
   -6.8350   18.7440  -33.3920 C   0  0  0  0  0  0  0  0  0  0  0  0
   -7.6190   17.7980  -32.7040 C   0  0  0  0  0  0  0  0  0  0  0  0
   -8.5310   18.2160  -31.7310 C   0  0  0  0  0  0  0  0  0  0  0  0
   -8.6680   19.5740  -31.4350 C   0  0  0  0  0  0  0  0  0  0  0  0
   -7.8900   20.5230  -32.1100 C   0  0  0  0  0  0  0  0  0  0  0  0
   -8.0440   22.2350  -31.7290 S   0  0  0  0  0  0  0  0  0  0  0  0
   -8.0970   22.4460  -30.2410 O   0  0  0  0  0  0  0  0  0  0  0  0
   -9.3140   22.7550  -32.3420 O   0  0  0  0  0  0  0  0  0  0  0  0
   -6.6940   23.1130  -32.3770 N   0  0  0  0  0  0  0  0  0  0  0  0
   -5.4080   23.1940  -31.7370 C   0  0  0  0  0  0  0  0  0  0  0  0
   -4.5070   22.1040  -31.8660 C   0  0  0  0  0  0  0  0  0  0  0  0
   -3.2430   22.1360  -31.2490 C   0  0  0  0  0  0  0  0  0  0  0  0
   -2.9090   23.2690  -30.5150 C   0  0  0  0  0  0  0  0  0  0  0  0
   -1.7680   23.5100  -29.8520 N   0  0  0  0  0  0  0  0  0  0  0  0
   -1.9970   24.7450  -29.3370 C   0  0  0  0  0  0  0  0  0  0  0  0
   -1.1490   25.3480  -28.6300 O   0  0  0  0  0  0  0  0  0  0  0  0
   -3.2050   25.2850  -29.6410 N   0  0  0  0  0  0  0  0  0  0  0  0
   -3.7610   24.3230  -30.3910 C   0  0  0  0  0  0  0  0  0  0  0  0
   -5.0200   24.3300  -30.9850 C   0  0  0  0  0  0  0  0  0  0  0  0
   -6.9810   20.1030  -33.0900 C   0  0  0  0  0  0  0  0  0  0  0  0
   -4.2416   18.4829  -33.1500 H   0  0  0  0  0  0  0  0  0  0  0  0
   -4.0145   17.5974  -34.6963 H   0  0  0  0  0  0  0  0  0  0  0  0
   -4.1287   19.3901  -34.6963 H   0  0  0  0  0  0  0  0  0  0  0  0
   -7.5133   16.7273  -32.9330 H   0  0  0  0  0  0  0  0  0  0  0  0
   -9.1424   17.4736  -31.1970 H   0  0  0  0  0  0  0  0  0  0  0  0
   -9.3886   19.8989  -30.6700 H   0  0  0  0  0  0  0  0  0  0  0  0
   -6.8180   23.5400  -33.3220 H   0  0  0  0  0  0  0  0  0  0  0  0
   -4.8011   21.2234  -32.4559 H   0  0  0  0  0  0  0  0  0  0  0  0
   -2.5425   21.2932  -31.3440 H   0  0  0  0  0  0  0  0  0  0  0  0
   -5.6937   25.1924  -30.8737 H   0  0  0  0  0  0  0  0  0  0  0  0
   -6.3762   20.8484  -33.6273 H   0  0  0  0  0  0  0  0  0  0  0  0
  1  2  1  0
  2  3  1  0
  3  4  2  0
  4  5  1  0
  5  6  2  0
  6  7  1  0
  7  8  1  0
  8  9  2  0
  8 10  2  0
  8 11  1  0
 11 12  1  0
 12 13  2  0
 13 14  1  0
 14 15  2  0
 15 16  1  0
 16 17  1  0
 17 18  2  0
 17 19  1  0
 19 20  1  0
 20 21  2  0
  7 22  2  0
 22  3  1  0
 21 12  1  0
 20 15  1  0
  1 23  1  0
  1 24  1  0
  1 25  1  0
  4 26  1  0
  5 27  1  0
  6 28  1  0
 11 29  1  0
 13 30  1  0
 14 31  1  0
 21 32  1  0
 22 33  1  0
M  CHG  2  16  -1  19  -1
M  END
>  <UniqueID>  (21) 
21

>  <SMILES>  (21) 
COc1cccc(S(=O)(=O)Nc2ccc3[n-]c(=O)[n-]c3c2)c1

>  <Energy>  (21) 
72.57288433920347

>  <Genealogy>  (21) 
COc1cccc(S(=O)(=O)Nc2ccc3[n-]c(=O)[n-]c3c2)c1 (protonated)
COc1cccc(S(=O)(=O)Nc2ccc3[n-]c(=O)[n-]c3c2)c1 (3D coordinates assigned)
COc1cccc(S(=O)(=O)Nc2ccc3[n-]c(=O)[n-]c3c2)c1 (optimized conformer: 72.57288433920347 kcal/mol)

>  <smiles>  (21) 
COc1cccc(S(=O)(=O)Nc2ccc3[nH]c(=O)[nH]c3c2)c1

>  <score_type>  (21) 
oracle

>  <origin>  (21) 
adgpu

>  <m_score__min__energy>  (21) 
-10.74

>  <m_primary>  (21) 
energy

$$$$
21:0
     RDKit          3D

 46 48  0  0  0  0  0  0  0  0999 V2000
    1.4686   18.6852  -29.4817 H   0  0  0  0  0  0  0  0  0  0  0  0
    0.7050   19.4620  -29.6350 C   0  0  0  0  0  0  0  0  0  0  0  0
    0.6110   20.1150  -30.8650 C   0  0  0  0  0  0  0  0  0  0  0  0
    1.2953   19.8465  -31.6833 H   0  0  0  0  0  0  0  0  0  0  0  0
   -0.3520   21.1100  -31.0580 C   0  0  0  0  0  0  0  0  0  0  0  0
   -0.4328   21.6119  -32.0335 H   0  0  0  0  0  0  0  0  0  0  0  0
   -1.2150   21.4710  -30.0140 C   0  0  0  0  0  0  0  0  0  0  0  0
   -2.2030   22.4840  -30.2440 N   0  0  0  0  0  0  0  0  0  0  0  0
   -2.8640   22.3370  -31.0400 H   0  0  0  0  0  0  0  0  0  0  0  0
   -2.1980   23.7640  -29.5840 C   0  0  0  0  0  0  0  0  0  0  0  0
   -0.8510   24.3010  -28.8140 S   0  0  0  0  0  0  0  0  0  0  0  0
   -3.2990   24.6670  -29.7680 N   0  0  0  0  0  0  0  0  0  0  0  0
   -3.1180   25.6950  -29.7420 H   0  0  0  0  0  0  0  0  0  0  0  0
   -4.6140   24.2070  -30.1010 C   0  0  0  0  0  0  0  0  0  0  0  0
   -5.3020   24.7740  -31.1830 C   0  0  0  0  0  0  0  0  0  0  0  0
   -4.8648   25.6246  -31.7265 H   0  0  0  0  0  0  0  0  0  0  0  0
   -6.5440   24.2600  -31.5730 C   0  0  0  0  0  0  0  0  0  0  0  0
   -7.0726   24.6966  -32.4332 H   0  0  0  0  0  0  0  0  0  0  0  0
   -7.1160   23.1910  -30.8710 C   0  0  0  0  0  0  0  0  0  0  0  0
   -8.6000   22.4380  -31.4470 S   0  0  0  0  0  0  0  0  0  0  0  0
   -9.4190   23.4270  -32.2290 O   0  0  0  0  0  0  0  0  0  0  0  0
   -9.3950   21.9610  -30.2640 O   0  0  0  0  0  0  0  0  0  0  0  0
   -8.2260   21.0820  -32.4660 N   0  0  0  0  0  0  0  0  0  0  0  0
   -7.0270   20.7560  -32.8480 C   0  0  0  0  0  0  0  0  0  0  0  0
   -5.8440   21.4080  -32.5410 C   0  0  0  0  0  0  0  0  0  0  0  0
   -5.7021   22.3336  -31.9638 H   0  0  0  0  0  0  0  0  0  0  0  0
   -4.8850   20.6100  -33.1380 C   0  0  0  0  0  0  0  0  0  0  0  0
   -3.4130   20.8480  -33.1240 C   0  0  0  0  0  0  0  0  0  0  0  0
   -3.0607   20.9050  -32.0835 H   0  0  0  0  0  0  0  0  0  0  0  0
   -2.9029   20.0207  -33.6391 H   0  0  0  0  0  0  0  0  0  0  0  0
   -3.1896   21.7939  -33.6391 H   0  0  0  0  0  0  0  0  0  0  0  0
   -5.4730   19.6060  -33.7500 O   0  0  0  0  0  0  0  0  0  0  0  0
   -6.7610   19.6690  -33.5900 N   0  0  0  0  0  0  0  0  0  0  0  0
   -7.4490   18.9800  -33.9700 H   0  0  0  0  0  0  0  0  0  0  0  0
   -6.4630   22.6750  -29.7440 C   0  0  0  0  0  0  0  0  0  0  0  0
   -6.9333   21.8720  -29.1575 H   0  0  0  0  0  0  0  0  0  0  0  0
   -5.2170   23.1770  -29.3630 C   0  0  0  0  0  0  0  0  0  0  0  0
   -4.7061   22.7635  -28.4810 H   0  0  0  0  0  0  0  0  0  0  0  0
   -1.1390   20.7900  -28.7820 C   0  0  0  0  0  0  0  0  0  0  0  0
   -2.3010   21.1300  -27.4530 S   0  0  0  0  0  0  0  0  0  0  0  0
   -1.0030   21.6650  -26.2950 C   0  0  0  0  0  0  0  0  0  0  0  0
   -1.3516   21.5213  -25.2616 H   0  0  0  0  0  0  0  0  0  0  0  0
   -0.0942   21.0682  -26.4617 H   0  0  0  0  0  0  0  0  0  0  0  0
   -0.7787   22.7289  -26.4617 H   0  0  0  0  0  0  0  0  0  0  0  0
   -0.1710   19.7950  -28.5980 C   0  0  0  0  0  0  0  0  0  0  0  0
   -0.0996   19.2728  -27.6325 H   0  0  0  0  0  0  0  0  0  0  0  0
  1  2  1  0
  2  3  2  0
  3  4  1  0
  3  5  1  0
  5  6  1  0
  5  7  2  0
  7  8  1  0
  8  9  1  0
  8 10  1  0
 10 11  2  0
 10 12  1  0
 12 13  1  0
 12 14  1  0
 14 15  2  0
 15 16  1  0
 15 17  1  0
 17 18  1  0
 17 19  2  0
 19 20  1  0
 20 21  2  0
 20 22  2  0
 20 23  1  0
 23 24  2  0
 24 25  1  0
 25 26  1  0
 25 27  2  0
 27 28  1  0
 28 29  1  0
 28 30  1  0
 28 31  1  0
 27 32  1  0
 32 33  1  0
 33 34  1  0
 19 35  1  0
 35 36  1  0
 35 37  2  0
 37 38  1  0
  7 39  1  0
 39 40  1  0
 40 41  1  0
 41 42  1  0
 41 43  1  0
 41 44  1  0
 39 45  2  0
 45 46  1  0
 45  2  1  0
 37 14  1  0
 33 24  1  0
M  END
>  <UniqueID>  (22) 
22

>  <SMILES>  (22) 
CSc1ccccc1NC(=S)Nc1ccc(S(=O)(=O)/N=c2\cc(C)o[nH]2)cc1

>  <Energy>  (22) 
87.11649812866756

>  <Genealogy>  (22) 
CSc1ccccc1NC(=S)Nc1ccc(S(=O)(=O)/N=c2\cc(C)o[nH]2)cc1 (cis-trans isomerization)
CSc1ccccc1NC(=S)Nc1ccc(S(=O)(=O)/N=c2\cc(C)o[nH]2)cc1 (3D coordinates assigned)
CSc1ccccc1NC(=S)Nc1ccc(S(=O)(=O)/N=c2\cc(C)o[nH]2)cc1 (optimized conformer: 87.11649812866756 kcal/mol)

>  <smiles>  (22) 
CSc1ccccc1NC(=S)Nc1ccc(S(=O)(=O)N=c2cc(C)o[nH]2)cc1

>  <score_type>  (22) 
oracle

>  <origin>  (22) 
adgpu

>  <m_score__min__energy>  (22) 
-9.2699999999999996

>  <m_primary>  (22) 
energy

$$$$
22:0
     RDKit          3D

 48 50  0  0  0  0  0  0  0  0999 V2000
   -3.1210   24.6430  -28.5200 O   0  0  0  0  0  0  0  0  0  0  0  0
   -3.2660   24.3370  -29.7340 C   0  0  0  0  0  0  0  0  0  0  0  0
   -3.8480   25.2690  -30.6500 N   0  0  0  0  0  0  0  0  0  0  0  0
   -5.2430   25.6860  -30.5900 C   0  0  0  0  0  0  0  0  0  0  0  0
   -6.1370   24.4970  -30.8140 C   0  0  0  0  0  0  0  0  0  0  0  0
   -6.7070   23.8130  -29.7280 C   0  0  0  0  0  0  0  0  0  0  0  0
   -7.4940   22.6780  -29.9460 C   0  0  0  0  0  0  0  0  0  0  0  0
   -7.7090   22.2140  -31.2450 C   0  0  0  0  0  0  0  0  0  0  0  0
   -7.1410   22.8850  -32.3300 C   0  0  0  0  0  0  0  0  0  0  0  0
   -6.3570   24.0230  -32.1170 C   0  0  0  0  0  0  0  0  0  0  0  0
   -2.8970   22.9970  -30.2050 C   0  0  0  0  0  0  0  0  0  0  0  0
   -1.6840   22.6540  -30.2090 O   0  0  0  0  0  0  0  0  0  0  0  0
   -3.8970   22.0940  -30.6950 N   0  0  0  0  0  0  0  0  0  0  0  0
   -3.6550   21.2140  -31.8040 C   0  0  0  0  0  0  0  0  0  0  0  0
   -2.5570   21.4360  -32.6470 C   0  0  0  0  0  0  0  0  0  0  0  0
   -2.3140   20.5770  -33.7240 C   0  0  0  0  0  0  0  0  0  0  0  0
   -3.1560   19.4850  -33.9570 C   0  0  0  0  0  0  0  0  0  0  0  0
   -4.2430   19.2420  -33.1090 C   0  0  0  0  0  0  0  0  0  0  0  0
   -5.2710   17.8340  -33.3710 S   0  0  0  0  0  0  0  0  0  0  0  0
   -5.1350   17.3700  -34.7950 O   0  0  0  0  0  0  0  0  0  0  0  0
   -4.8190   16.7390  -32.4450 O   0  0  0  0  0  0  0  0  0  0  0  0
   -6.9370   18.2370  -33.0310 N   0  0  0  0  0  0  0  0  0  0  0  0
   -7.2110   18.1450  -31.5890 C   0  0  0  0  0  0  0  0  0  0  0  0
   -8.7080   18.4200  -31.3340 C   0  0  0  0  0  0  0  0  0  0  0  0
   -9.3590   18.9860  -32.4610 O   0  0  0  0  0  0  0  0  0  0  0  0
   -8.6050   20.0740  -32.9590 C   0  0  0  0  0  0  0  0  0  0  0  0
   -7.2500   19.5910  -33.5180 C   0  0  0  0  0  0  0  0  0  0  0  0
   -4.4800   20.1000  -32.0270 C   0  0  0  0  0  0  0  0  0  0  0  0
   -5.4528   26.1202  -29.6013 H   0  0  0  0  0  0  0  0  0  0  0  0
   -5.4329   26.4372  -31.3708 H   0  0  0  0  0  0  0  0  0  0  0  0
   -6.5338   24.1713  -28.7025 H   0  0  0  0  0  0  0  0  0  0  0  0
   -7.9444   22.1499  -29.0926 H   0  0  0  0  0  0  0  0  0  0  0  0
   -8.3262   21.3193  -31.4140 H   0  0  0  0  0  0  0  0  0  0  0  0
   -7.3105   22.5180  -33.3530 H   0  0  0  0  0  0  0  0  0  0  0  0
   -5.9108   24.5490  -32.9739 H   0  0  0  0  0  0  0  0  0  0  0  0
   -4.8380   22.0880  -30.2410 H   0  0  0  0  0  0  0  0  0  0  0  0
   -1.8854   22.2871  -32.4612 H   0  0  0  0  0  0  0  0  0  0  0  0
   -1.4579   20.7611  -34.3897 H   0  0  0  0  0  0  0  0  0  0  0  0
   -2.9638   18.8156  -34.8084 H   0  0  0  0  0  0  0  0  0  0  0  0
   -6.9567   17.1366  -31.2306 H   0  0  0  0  0  0  0  0  0  0  0  0
   -6.6038   18.8879  -31.0511 H   0  0  0  0  0  0  0  0  0  0  0  0
   -9.2026   17.4704  -31.0816 H   0  0  0  0  0  0  0  0  0  0  0  0
   -8.7777   19.1454  -30.5101 H   0  0  0  0  0  0  0  0  0  0  0  0
   -9.1714   20.5676  -33.7625 H   0  0  0  0  0  0  0  0  0  0  0  0
   -8.4160   20.7784  -32.1356 H   0  0  0  0  0  0  0  0  0  0  0  0
   -7.2974   19.5772  -34.6169 H   0  0  0  0  0  0  0  0  0  0  0  0
   -6.4623   20.2793  -33.1777 H   0  0  0  0  0  0  0  0  0  0  0  0
   -5.3201   19.8990  -31.3460 H   0  0  0  0  0  0  0  0  0  0  0  0
  1  2  2  0
  2  3  1  0
  3  4  1  0
  4  5  1  0
  5  6  2  0
  6  7  1  0
  7  8  2  0
  8  9  1  0
  9 10  2  0
  2 11  1  0
 11 12  2  0
 11 13  1  0
 13 14  1  0
 14 15  2  0
 15 16  1  0
 16 17  2  0
 17 18  1  0
 18 19  1  0
 19 20  2  0
 19 21  2  0
 19 22  1  0
 22 23  1  0
 23 24  1  0
 24 25  1  0
 25 26  1  0
 26 27  1  0
 18 28  2  0
 10  5  1  0
 28 14  1  0
 27 22  1  0
  4 29  1  0
  4 30  1  0
  6 31  1  0
  7 32  1  0
  8 33  1  0
  9 34  1  0
 10 35  1  0
 13 36  1  0
 15 37  1  0
 16 38  1  0
 17 39  1  0
 23 40  1  0
 23 41  1  0
 24 42  1  0
 24 43  1  0
 26 44  1  0
 26 45  1  0
 27 46  1  0
 27 47  1  0
 28 48  1  0
M  CHG  1   3  -1
M  END
>  <UniqueID>  (23) 
23

>  <SMILES>  (23) 
O=C([N-]Cc1ccccc1)C(=O)Nc1cccc(S(=O)(=O)N2CCOCC2)c1

>  <Energy>  (23) 
57.60349720866264

>  <Genealogy>  (23) 
O=C([N-]Cc1ccccc1)C(=O)Nc1cccc(S(=O)(=O)N2CCOCC2)c1 (protonated)
O=C([N-]Cc1ccccc1)C(=O)Nc1cccc(S(=O)(=O)N2CCOCC2)c1 (3D coordinates assigned)
O=C([N-]Cc1ccccc1)C(=O)Nc1cccc(S(=O)(=O)N2CCOCC2)c1 (nonaromatic ring conformer: 57.60349720866264 kcal/mol)

>  <smiles>  (23) 
O=C(NCc1ccccc1)C(=O)Nc1cccc(S(=O)(=O)N2CCOCC2)c1

>  <score_type>  (23) 
oracle

>  <origin>  (23) 
adgpu

>  <m_score__min__energy>  (23) 
-11.5

>  <m_primary>  (23) 
energy

$$$$
23:0
     RDKit          3D

 51 54  0  0  0  0  0  0  0  0999 V2000
    0.9130   16.2510  -28.1290 C   0  0  0  0  0  0  0  0  0  0  0  0
    0.2230   17.5840  -28.1550 C   0  0  0  0  0  0  0  0  0  0  0  0
    0.3600   18.4330  -29.2640 C   0  0  0  0  0  0  0  0  0  0  0  0
   -0.3110   19.6580  -29.3000 C   0  0  0  0  0  0  0  0  0  0  0  0
   -1.1510   20.0390  -28.2440 C   0  0  0  0  0  0  0  0  0  0  0  0
   -1.8130   21.3130  -28.2810 N   0  0  0  0  0  0  0  0  0  0  0  0
   -2.8470   21.6160  -27.5110 N   0  0  0  0  0  0  0  0  0  0  0  0
   -3.2910   22.8340  -27.7840 N   0  0  0  0  0  0  0  0  0  0  0  0
   -2.5100   23.3330  -28.7650 C   0  0  0  0  0  0  0  0  0  0  0  0
   -2.6970   24.6710  -29.3660 C   0  0  0  0  0  0  0  0  0  0  0  0
   -2.0050   25.6430  -28.9660 O   0  0  0  0  0  0  0  0  0  0  0  0
   -3.6920   24.9060  -30.3700 N   0  0  0  0  0  0  0  0  0  0  0  0
   -4.7200   23.9840  -30.7520 C   0  0  0  0  0  0  0  0  0  0  0  0
   -6.1010   24.1150  -30.6370 C   0  0  0  0  0  0  0  0  0  0  0  0
   -6.8530   25.2680  -30.0370 C   0  0  0  0  0  0  0  0  0  0  0  0
   -6.6740   22.9870  -31.1340 N   0  0  0  0  0  0  0  0  0  0  0  0
   -8.1130   22.7260  -31.2380 C   0  0  0  0  0  0  0  0  0  0  0  0
   -5.7130   22.1600  -31.5440 N   0  0  0  0  0  0  0  0  0  0  0  0
   -5.9090   20.8810  -32.1730 C   0  0  0  0  0  0  0  0  0  0  0  0
   -6.8340   19.9670  -31.6430 C   0  0  0  0  0  0  0  0  0  0  0  0
   -7.0160   18.7190  -32.2480 C   0  0  0  0  0  0  0  0  0  0  0  0
   -6.2720   18.3740  -33.3790 C   0  0  0  0  0  0  0  0  0  0  0  0
   -5.3410   19.2740  -33.9050 C   0  0  0  0  0  0  0  0  0  0  0  0
   -5.1560   20.5220  -33.3030 C   0  0  0  0  0  0  0  0  0  0  0  0
   -4.5210   22.7400  -31.2990 C   0  0  0  0  0  0  0  0  0  0  0  0
   -3.4030   22.2260  -31.5730 O   0  0  0  0  0  0  0  0  0  0  0  0
   -1.5530   22.3790  -29.0710 C   0  0  0  0  0  0  0  0  0  0  0  0
   -0.4420   22.4870  -30.0760 C   0  0  0  0  0  0  0  0  0  0  0  0
   -1.2850   19.1910  -27.1320 C   0  0  0  0  0  0  0  0  0  0  0  0
   -0.6120   17.9660  -27.0950 C   0  0  0  0  0  0  0  0  0  0  0  0
    1.0733   15.9414  -27.0857 H   0  0  0  0  0  0  0  0  0  0  0  0
    0.2880   15.5046  -28.6411 H   0  0  0  0  0  0  0  0  0  0  0  0
    1.8833   16.3303  -28.6411 H   0  0  0  0  0  0  0  0  0  0  0  0
    0.9981   18.1329  -30.1082 H   0  0  0  0  0  0  0  0  0  0  0  0
   -0.1794   20.3279  -30.1625 H   0  0  0  0  0  0  0  0  0  0  0  0
   -6.8102   25.2024  -28.9398 H   0  0  0  0  0  0  0  0  0  0  0  0
   -6.3975   26.2137  -30.3658 H   0  0  0  0  0  0  0  0  0  0  0  0
   -7.9021   25.2324  -30.3658 H   0  0  0  0  0  0  0  0  0  0  0  0
   -8.5453   22.6476  -30.2295 H   0  0  0  0  0  0  0  0  0  0  0  0
   -8.5970   23.5510  -31.7812 H   0  0  0  0  0  0  0  0  0  0  0  0
   -8.2764   21.7836  -31.7812 H   0  0  0  0  0  0  0  0  0  0  0  0
   -7.4173   20.2333  -30.7492 H   0  0  0  0  0  0  0  0  0  0  0  0
   -7.7458   18.0084  -31.8327 H   0  0  0  0  0  0  0  0  0  0  0  0
   -6.4190   17.3936  -33.8557 H   0  0  0  0  0  0  0  0  0  0  0  0
   -4.7533   19.0000  -34.7935 H   0  0  0  0  0  0  0  0  0  0  0  0
   -4.4180   21.2255  -33.7158 H   0  0  0  0  0  0  0  0  0  0  0  0
    0.5199   22.5805  -29.5506 H   0  0  0  0  0  0  0  0  0  0  0  0
   -0.4292   21.5859  -30.7067 H   0  0  0  0  0  0  0  0  0  0  0  0
   -0.6030   23.3737  -30.7067 H   0  0  0  0  0  0  0  0  0  0  0  0
   -1.9219   19.4919  -26.2871 H   0  0  0  0  0  0  0  0  0  0  0  0
   -0.7381   17.2984  -26.2299 H   0  0  0  0  0  0  0  0  0  0  0  0
  1  2  1  0
  2  3  2  0
  3  4  1  0
  4  5  2  0
  5  6  1  0
  6  7  1  0
  7  8  2  0
  8  9  1  0
  9 10  1  0
 10 11  2  0
 10 12  1  0
 12 13  1  0
 13 14  2  0
 14 15  1  0
 14 16  1  0
 16 17  1  0
 16 18  1  0
 18 19  1  0
 19 20  2  0
 20 21  1  0
 21 22  2  0
 22 23  1  0
 23 24  2  0
 18 25  1  0
 25 26  2  0
  9 27  2  0
 27 28  1  0
  5 29  1  0
 29 30  2  0
 30  2  1  0
 27  6  1  0
 25 13  1  0
 24 19  1  0
  1 31  1  0
  1 32  1  0
  1 33  1  0
  3 34  1  0
  4 35  1  0
 15 36  1  0
 15 37  1  0
 15 38  1  0
 17 39  1  0
 17 40  1  0
 17 41  1  0
 20 42  1  0
 21 43  1  0
 22 44  1  0
 23 45  1  0
 24 46  1  0
 28 47  1  0
 28 48  1  0
 28 49  1  0
 29 50  1  0
 30 51  1  0
M  CHG  1  12  -1
M  END
>  <UniqueID>  (24) 
24

>  <SMILES>  (24) 
Cc1ccc(-n2nnc(C(=O)[N-]c3c(C)n(C)n(-c4ccccc4)c3=O)c2C)cc1

>  <Energy>  (24) 
142.35414468197538

>  <Genealogy>  (24) 
Cc1ccc(-n2nnc(C(=O)[N-]c3c(C)n(C)n(-c4ccccc4)c3=O)c2C)cc1 (protonated)
Cc1ccc(-n2nnc(C(=O)[N-]c3c(C)n(C)n(-c4ccccc4)c3=O)c2C)cc1 (3D coordinates assigned)
Cc1ccc(-n2nnc(C(=O)[N-]c3c(C)n(C)n(-c4ccccc4)c3=O)c2C)cc1 (optimized conformer: 142.35414468197538 kcal/mol)

>  <smiles>  (24) 
Cc1ccc(-n2nnc(C(=O)Nc3c(C)n(C)n(-c4ccccc4)c3=O)c2C)cc1

>  <score_type>  (24) 
oracle

>  <origin>  (24) 
adgpu

>  <m_score__min__energy>  (24) 
-11.25

>  <m_primary>  (24) 
energy

$$$$
24:0
     RDKit          3D

 56 59  0  0  1  0  0  0  0  0999 V2000
   -2.6570   23.0240  -30.8490 O   0  0  0  0  0  0  0  0  0  0  0  0
   -3.5980   22.2740  -31.2640 C   0  0  0  0  0  0  0  0  0  0  0  0
   -3.2470   21.0070  -31.7150 N   0  0  0  0  0  0  0  0  0  0  0  0
   -1.9610   20.4220  -31.7790 C   0  0  0  0  0  0  0  0  0  0  0  0
   -1.8220   19.1490  -32.3550 C   0  0  0  0  0  0  0  0  0  0  0  0
   -0.6080   18.5140  -32.4550 C   0  0  0  0  0  0  0  0  0  0  0  0
    0.5470   19.0980  -31.9920 C   0  0  0  0  0  0  0  0  0  0  0  0
    2.0580   18.2350  -32.1510 S   0  0  0  0  0  0  0  0  0  0  0  0
    2.9240   18.9850  -33.0990 O   0  0  0  0  0  0  0  0  0  0  0  0
    1.7580   16.8460  -32.6330 O   0  0  0  0  0  0  0  0  0  0  0  0
    2.8710   18.1170  -30.6320 N   0  0  0  0  0  0  0  0  0  0  0  0
    2.2170   17.7530  -29.6060 C   0  0  0  0  0  0  0  0  0  0  0  0
    2.8790   17.6620  -28.3980 C   0  0  0  0  0  0  0  0  0  0  0  0
    2.2480   17.2740  -27.2310 C   0  0  0  0  0  0  0  0  0  0  0  0
    0.9260   16.9820  -27.3230 N   0  0  0  0  0  0  0  0  0  0  0  0
    0.2770   17.0700  -28.5060 C   0  0  0  0  0  0  0  0  0  0  0  0
    0.9040   17.4500  -29.6410 N   0  0  0  0  0  0  0  0  0  0  0  0
    0.4410   20.3450  -31.4240 C   0  0  0  0  0  0  0  0  0  0  0  0
   -0.8000   20.9890  -31.3240 C   0  0  0  0  0  0  0  0  0  0  0  0
   -4.9260   22.8580  -31.2040 C   0  0  0  0  0  0  0  0  0  0  0  0
   -6.0490   22.0300  -31.3560 C   0  0  0  0  0  0  0  0  0  0  0  0
   -7.3320   22.5070  -31.3110 C   0  0  0  0  0  0  0  0  0  0  0  0
   -8.6960   21.4360  -31.5050 S   0  0  0  0  0  0  0  0  0  0  0  0
   -9.3610   21.1810  -30.1830 O   0  0  0  0  0  0  0  0  0  0  0  0
   -9.7010   22.1750  -32.3420 O   0  0  0  0  0  0  0  0  0  0  0  0
   -8.3040   19.9430  -32.2260 N   0  0  0  0  0  0  0  0  0  0  0  0
   -7.6290   20.0280  -33.4800 C   0  0  0  0  0  0  0  0  0  0  0  0
   -6.1420   19.9230  -33.3800 C   0  0  0  0  0  0  0  0  0  0  0  0
   -5.7210   18.8430  -32.6200 O   0  0  0  0  0  0  0  0  0  0  0  0
   -6.2580   18.8780  -31.3340 C   0  0  0  0  0  0  0  0  0  0  0  0
   -7.7470   18.9820  -31.3300 C   0  0  0  0  0  0  0  0  0  0  0  0
   -7.5930   23.8420  -31.1130 C   0  0  0  0  0  0  0  0  0  0  0  0
   -6.5130   24.6790  -30.9620 C   0  0  0  0  0  0  0  0  0  0  0  0
   -5.2030   24.1860  -31.0080 C   0  0  0  0  0  0  0  0  0  0  0  0
   -4.2120   25.1330  -30.8420 O   0  0  0  0  0  0  0  0  0  0  0  0
   -4.0360   20.3830  -32.0590 H   0  0  0  0  0  0  0  0  0  0  0  0
   -2.7185   18.6414  -32.7405 H   0  0  0  0  0  0  0  0  0  0  0  0
   -0.5591   17.5163  -32.9157 H   0  0  0  0  0  0  0  0  0  0  0  0
    3.9506   17.9079  -28.3628 H   0  0  0  0  0  0  0  0  0  0  0  0
    2.7899   17.2054  -26.2762 H   0  0  0  0  0  0  0  0  0  0  0  0
    0.3930   16.6830  -26.4770 H   0  0  0  0  0  0  0  0  0  0  0  0
   -0.7946   16.8246  -28.5456 H   0  0  0  0  0  0  0  0  0  0  0  0
    1.3433   20.8451  -31.0422 H   0  0  0  0  0  0  0  0  0  0  0  0
   -0.8432   21.9868  -30.8630 H   0  0  0  0  0  0  0  0  0  0  0  0
   -5.8922   20.9534  -31.5180 H   0  0  0  0  0  0  0  0  0  0  0  0
   -7.9906   19.2121  -34.1231 H   0  0  0  0  0  0  0  0  0  0  0  0
   -7.8499   21.0235  -33.8926 H   0  0  0  0  0  0  0  0  0  0  0  0
   -5.7298   19.8185  -34.3945 H   0  0  0  0  0  0  0  0  0  0  0  0
   -5.7827   20.8346  -32.8800 H   0  0  0  0  0  0  0  0  0  0  0  0
   -5.9689   17.9564  -30.8075 H   0  0  0  0  0  0  0  0  0  0  0  0
   -5.8627   19.7751  -30.8350 H   0  0  0  0  0  0  0  0  0  0  0  0
   -8.1551   17.9958  -31.5962 H   0  0  0  0  0  0  0  0  0  0  0  0
   -8.0205   19.3210  -30.3199 H   0  0  0  0  0  0  0  0  0  0  0  0
   -8.6236   24.2248  -31.0769 H   0  0  0  0  0  0  0  0  0  0  0  0
   -6.6806   25.7544  -30.8023 H   0  0  0  0  0  0  0  0  0  0  0  0
   -3.3640   25.0160  -31.3840 H   0  0  0  0  0  0  0  0  0  0  0  0
  1  2  2  0
  2  3  1  0
  3  4  1  0
  4  5  2  0
  5  6  1  0
  6  7  2  0
  7  8  1  0
  8  9  2  0
  8 10  2  0
  8 11  1  0
 11 12  2  0
 12 13  1  0
 13 14  2  0
 14 15  1  0
 15 16  1  0
 16 17  2  0
  7 18  1  0
 18 19  2  0
  2 20  1  0
 20 21  2  0
 21 22  1  0
 22 23  1  0
 23 24  2  0
 23 25  2  0
 23 26  1  0
 26 27  1  0
 27 28  1  0
 28 29  1  0
 29 30  1  0
 30 31  1  0
 22 32  2  0
 32 33  1  0
 33 34  2  0
 34 35  1  0
 19  4  1  0
 34 20  1  0
 17 12  1  0
 31 26  1  0
  3 36  1  0
  5 37  1  0
  6 38  1  0
 13 39  1  0
 14 40  1  0
 15 41  1  0
 16 42  1  0
 18 43  1  0
 19 44  1  0
 21 45  1  0
 27 46  1  0
 27 47  1  0
 28 48  1  0
 28 49  1  0
 30 50  1  0
 30 51  1  0
 31 52  1  0
 31 53  1  0
 32 54  1  0
 33 55  1  0
 35 56  1  0
M  END
>  <smiles>  (25) 
O=C(Nc1ccc(S(=O)(=O)N=c2cc[nH]cn2)cc1)c1cc(S(=O)(=O)N2CCOCC2)ccc1O

>  <score_type>  (25) 
oracle

>  <origin>  (25) 
adgpu

>  <m_score__min__energy>  (25) 
-9.9700000000000006

>  <m_primary>  (25) 
energy

$$$$
25:0
     RDKit          3D

 55 58  0  0  0  0  0  0  0  0999 V2000
   -5.8670   24.5170  -31.4180 O   0  0  0  0  0  0  0  0  0  0  0  0
   -5.3160   23.1490  -31.1350 S   0  0  0  0  0  0  0  0  0  0  0  0
   -4.1010   22.9200  -31.9850 O   0  0  0  0  0  0  0  0  0  0  0  0
   -4.8620   23.0600  -29.4610 N   0  0  0  0  0  0  0  0  0  0  0  0
   -3.5570   23.3460  -28.9300 C   0  0  0  0  0  0  0  0  0  0  0  0
   -2.9490   22.5260  -27.9600 C   0  0  0  0  0  0  0  0  0  0  0  0
   -1.7170   22.8910  -27.3990 C   0  0  0  0  0  0  0  0  0  0  0  0
   -1.0550   24.0440  -27.8460 C   0  0  0  0  0  0  0  0  0  0  0  0
   -1.6330   24.8350  -28.8480 C   0  0  0  0  0  0  0  0  0  0  0  0
   -2.8850   24.4950  -29.3810 C   0  0  0  0  0  0  0  0  0  0  0  0
   -3.4720   25.3000  -30.3580 O   0  0  0  0  0  0  0  0  0  0  0  0
    0.2800   24.3860  -27.2420 C   0  0  0  0  0  0  0  0  0  0  0  0
    0.2290   24.2460  -25.7080 C   0  0  0  0  0  0  0  0  0  0  0  0
   -0.5230   22.9830  -25.2010 C   0  0  0  0  0  0  0  0  0  0  0  0
   -1.0700   22.0700  -26.3160 C   0  0  0  0  0  0  0  0  0  0  0  0
   -6.5580   21.9560  -31.5020 C   0  0  0  0  0  0  0  0  0  0  0  0
   -7.9130   22.2890  -31.3610 C   0  0  0  0  0  0  0  0  0  0  0  0
   -8.8980   21.3170  -31.5520 C   0  0  0  0  0  0  0  0  0  0  0  0
   -8.5360   20.0060  -31.8720 C   0  0  0  0  0  0  0  0  0  0  0  0
   -7.1820   19.6620  -32.0140 C   0  0  0  0  0  0  0  0  0  0  0  0
   -6.7070   17.9970  -32.3460 S   0  0  0  0  0  0  0  0  0  0  0  0
   -7.6110   17.4450  -33.4110 O   0  0  0  0  0  0  0  0  0  0  0  0
   -6.8540   17.1680  -31.0960 O   0  0  0  0  0  0  0  0  0  0  0  0
   -5.0470   17.9240  -32.8970 N   0  0  0  0  0  0  0  0  0  0  0  0
   -4.5270   16.5440  -32.7730 C   0  0  0  0  0  0  0  0  0  0  0  0
   -3.2450   16.3610  -33.5820 C   0  0  0  0  0  0  0  0  0  0  0  0
   -3.5040   16.5640  -35.0820 C   0  0  0  0  0  0  0  0  0  0  0  0
   -4.7180   17.4610  -35.3570 C   0  0  0  0  0  0  0  0  0  0  0  0
   -4.9110   18.5130  -34.2550 C   0  0  0  0  0  0  0  0  0  0  0  0
   -6.1970   20.6470  -31.8530 C   0  0  0  0  0  0  0  0  0  0  0  0
   -3.4423   21.5959  -27.6413 H   0  0  0  0  0  0  0  0  0  0  0  0
   -1.1032   25.7253  -29.2176 H   0  0  0  0  0  0  0  0  0  0  0  0
   -3.7570   24.9260  -31.2560 H   0  0  0  0  0  0  0  0  0  0  0  0
    1.0443   23.7039  -27.6427 H   0  0  0  0  0  0  0  0  0  0  0  0
    0.5301   25.4265  -27.4966 H   0  0  0  0  0  0  0  0  0  0  0  0
    1.2620   24.2050  -25.3321 H   0  0  0  0  0  0  0  0  0  0  0  0
   -0.3308   25.1154  -25.3327 H   0  0  0  0  0  0  0  0  0  0  0  0
    0.1727   22.3936  -24.5856 H   0  0  0  0  0  0  0  0  0  0  0  0
   -1.3963   23.3453  -24.6388 H   0  0  0  0  0  0  0  0  0  0  0  0
   -0.2413   21.4896  -26.7478 H   0  0  0  0  0  0  0  0  0  0  0  0
   -1.8224   21.3933  -25.8848 H   0  0  0  0  0  0  0  0  0  0  0  0
   -8.2009   23.3179  -31.0994 H   0  0  0  0  0  0  0  0  0  0  0  0
   -9.9602   21.5842  -31.4503 H   0  0  0  0  0  0  0  0  0  0  0  0
   -9.3139   19.2412  -32.0131 H   0  0  0  0  0  0  0  0  0  0  0  0
   -4.3158   16.3342  -31.7141 H   0  0  0  0  0  0  0  0  0  0  0  0
   -5.2862   15.8499  -33.1626 H   0  0  0  0  0  0  0  0  0  0  0  0
   -2.4989   17.0951  -33.2437 H   0  0  0  0  0  0  0  0  0  0  0  0
   -2.8772   15.3360  -33.4266 H   0  0  0  0  0  0  0  0  0  0  0  0
   -2.6144   17.0277  -35.5332 H   0  0  0  0  0  0  0  0  0  0  0  0
   -3.7142   15.5769  -35.5195 H   0  0  0  0  0  0  0  0  0  0  0  0
   -4.5704   17.9752  -36.3182 H   0  0  0  0  0  0  0  0  0  0  0  0
   -5.6147   16.8244  -35.3828 H   0  0  0  0  0  0  0  0  0  0  0  0
   -4.0407   19.1857  -34.2582 H   0  0  0  0  0  0  0  0  0  0  0  0
   -5.8479   19.0462  -34.4741 H   0  0  0  0  0  0  0  0  0  0  0  0
   -5.1374   20.3921  -32.0025 H   0  0  0  0  0  0  0  0  0  0  0  0
  1  2  2  0
  2  3  2  0
  2  4  1  0
  4  5  1  0
  5  6  2  0
  6  7  1  0
  7  8  2  0
  8  9  1  0
  9 10  2  0
 10 11  1  0
  8 12  1  0
 12 13  1  0
 13 14  1  0
 14 15  1  0
  2 16  1  0
 16 17  2  0
 17 18  1  0
 18 19  2  0
 19 20  1  0
 20 21  1  0
 21 22  2  0
 21 23  2  0
 21 24  1  0
 24 25  1  0
 25 26  1  0
 26 27  1  0
 27 28  1  0
 28 29  1  0
 20 30  2  0
 10  5  1  0
 30 16  1  0
 15  7  1  0
 29 24  1  0
  6 31  1  0
  9 32  1  0
 11 33  1  0
 12 34  1  0
 12 35  1  0
 13 36  1  0
 13 37  1  0
 14 38  1  0
 14 39  1  0
 15 40  1  0
 15 41  1  0
 17 42  1  0
 18 43  1  0
 19 44  1  0
 25 45  1  0
 25 46  1  0
 26 47  1  0
 26 48  1  0
 27 49  1  0
 27 50  1  0
 28 51  1  0
 28 52  1  0
 29 53  1  0
 29 54  1  0
 30 55  1  0
M  CHG  1   4  -1
M  END
>  <UniqueID>  (26) 
25

>  <SMILES>  (26) 
O=S(=O)([N-]c1cc2c(cc1O)CCCC2)c1cccc(S(=O)(=O)N2CCCCC2)c1

>  <Energy>  (26) 
68.25898370608847

>  <Genealogy>  (26) 
O=S(=O)([N-]c1cc2c(cc1O)CCCC2)c1cccc(S(=O)(=O)N2CCCCC2)c1 (protonated)
O=S(=O)([N-]c1cc2c(cc1O)CCCC2)c1cccc(S(=O)(=O)N2CCCCC2)c1 (3D coordinates assigned)
O=S(=O)([N-]c1cc2c(cc1O)CCCC2)c1cccc(S(=O)(=O)N2CCCCC2)c1 (nonaromatic ring conformer: 68.25898370608847 kcal/mol)

>  <smiles>  (26) 
O=S(=O)(Nc1cc2c(cc1O)CCCC2)c1cccc(S(=O)(=O)N2CCCCC2)c1

>  <score_type>  (26) 
oracle

>  <origin>  (26) 
adgpu

>  <m_score__min__energy>  (26) 
-12.52

>  <m_primary>  (26) 
energy

$$$$
26:0
     RDKit          3D

 47 49  0  0  0  0  0  0  0  0999 V2000
   -8.7700   19.2070  -31.5180 C   0  0  0  0  0  0  0  0  0  0  0  0
   -7.9680   19.8320  -32.5150 O   0  0  0  0  0  0  0  0  0  0  0  0
   -6.9560   20.7700  -32.2560 C   0  0  0  0  0  0  0  0  0  0  0  0
   -7.2220   21.9630  -31.5560 C   0  0  0  0  0  0  0  0  0  0  0  0
   -6.2060   22.8930  -31.3310 C   0  0  0  0  0  0  0  0  0  0  0  0
   -4.9060   22.6460  -31.7760 C   0  0  0  0  0  0  0  0  0  0  0  0
   -3.9050   23.6520  -31.5650 N   0  0  0  0  0  0  0  0  0  0  0  0
   -3.7620   24.4870  -30.4060 C   0  0  0  0  0  0  0  0  0  0  0  0
   -4.2060   25.6660  -30.4270 O   0  0  0  0  0  0  0  0  0  0  0  0
   -3.0430   23.9740  -29.2080 C   0  0  0  0  0  0  0  0  0  0  0  0
   -3.3290   22.6810  -28.7240 C   0  0  0  0  0  0  0  0  0  0  0  0
   -2.6700   22.1780  -27.6000 C   0  0  0  0  0  0  0  0  0  0  0  0
   -1.7220   22.9570  -26.9370 C   0  0  0  0  0  0  0  0  0  0  0  0
   -1.4260   24.2400  -27.4010 C   0  0  0  0  0  0  0  0  0  0  0  0
   -2.0740   24.7530  -28.5310 C   0  0  0  0  0  0  0  0  0  0  0  0
   -1.7450   26.0340  -28.9620 O   0  0  0  0  0  0  0  0  0  0  0  0
   -4.6350   21.4640  -32.4860 C   0  0  0  0  0  0  0  0  0  0  0  0
   -5.6490   20.5260  -32.7290 C   0  0  0  0  0  0  0  0  0  0  0  0
   -5.2660   19.0730  -33.6700 S   0  0  0  0  0  0  0  0  0  0  0  0
   -3.8290   19.1080  -34.1100 O   0  0  0  0  0  0  0  0  0  0  0  0
   -6.1200   19.0590  -34.9080 O   0  0  0  0  0  0  0  0  0  0  0  0
   -5.5470   17.6060  -32.7550 N   0  0  0  0  0  0  0  0  0  0  0  0
   -6.8630   16.9930  -33.0450 C   0  0  0  0  0  0  0  0  0  0  0  0
   -6.8340   15.9720  -34.2000 C   0  0  0  0  0  0  0  0  0  0  0  0
   -5.6120   15.0340  -34.1750 C   0  0  0  0  0  0  0  0  0  0  0  0
   -4.7660   15.2190  -32.9180 C   0  0  0  0  0  0  0  0  0  0  0  0
   -4.3810   16.6940  -32.7750 C   0  0  0  0  0  0  0  0  0  0  0  0
   -8.4038   19.4924  -30.5208 H   0  0  0  0  0  0  0  0  0  0  0  0
   -9.8149   19.5313  -31.6315 H   0  0  0  0  0  0  0  0  0  0  0  0
   -8.7108   18.1145  -31.6315 H   0  0  0  0  0  0  0  0  0  0  0  0
   -8.2377   22.1631  -31.1841 H   0  0  0  0  0  0  0  0  0  0  0  0
   -6.4315   23.8287  -30.7984 H   0  0  0  0  0  0  0  0  0  0  0  0
   -4.0793   22.0616  -29.2372 H   0  0  0  0  0  0  0  0  0  0  0  0
   -2.8992   21.1653  -27.2369 H   0  0  0  0  0  0  0  0  0  0  0  0
   -1.2078   22.5607  -26.0490 H   0  0  0  0  0  0  0  0  0  0  0  0
   -0.6785   24.8521  -26.8751 H   0  0  0  0  0  0  0  0  0  0  0  0
   -3.6167   21.2724  -32.8552 H   0  0  0  0  0  0  0  0  0  0  0  0
   -7.2139   16.4799  -32.1375 H   0  0  0  0  0  0  0  0  0  0  0  0
   -7.5341   17.8076  -33.3548 H   0  0  0  0  0  0  0  0  0  0  0  0
   -7.7439   15.3567  -34.1410 H   0  0  0  0  0  0  0  0  0  0  0  0
   -6.7737   16.5493  -35.1344 H   0  0  0  0  0  0  0  0  0  0  0  0
   -5.9644   13.9927  -34.2143 H   0  0  0  0  0  0  0  0  0  0  0  0
   -4.9825   15.2778  -35.0435 H   0  0  0  0  0  0  0  0  0  0  0  0
   -5.3444   14.9038  -32.0370 H   0  0  0  0  0  0  0  0  0  0  0  0
   -3.8547   14.6079  -32.9959 H   0  0  0  0  0  0  0  0  0  0  0  0
   -3.8238   16.8195  -31.8349 H   0  0  0  0  0  0  0  0  0  0  0  0
   -3.7762   16.9589  -33.6548 H   0  0  0  0  0  0  0  0  0  0  0  0
  1  2  1  0
  2  3  1  0
  3  4  2  0
  4  5  1  0
  5  6  2  0
  6  7  1  0
  7  8  1  0
  8  9  2  0
  8 10  1  0
 10 11  2  0
 11 12  1  0
 12 13  2  0
 13 14  1  0
 14 15  2  0
 15 16  1  0
  6 17  1  0
 17 18  2  0
 18 19  1  0
 19 20  2  0
 19 21  2  0
 19 22  1  0
 22 23  1  0
 23 24  1  0
 24 25  1  0
 25 26  1  0
 26 27  1  0
 18  3  1  0
 27 22  1  0
 15 10  1  0
  1 28  1  0
  1 29  1  0
  1 30  1  0
  4 31  1  0
  5 32  1  0
 11 33  1  0
 12 34  1  0
 13 35  1  0
 14 36  1  0
 17 37  1  0
 23 38  1  0
 23 39  1  0
 24 40  1  0
 24 41  1  0
 25 42  1  0
 25 43  1  0
 26 44  1  0
 26 45  1  0
 27 46  1  0
 27 47  1  0
M  CHG  2   7  -1  16  -1
M  END
>  <UniqueID>  (27) 
26

>  <SMILES>  (27) 
COc1ccc([N-]C(=O)c2ccccc2[O-])cc1S(=O)(=O)N1CCCCC1

>  <Energy>  (27) 
61.71187121237353

>  <Genealogy>  (27) 
COc1ccc([N-]C(=O)c2ccccc2[O-])cc1S(=O)(=O)N1CCCCC1 (protonated)
COc1ccc([N-]C(=O)c2ccccc2[O-])cc1S(=O)(=O)N1CCCCC1 (3D coordinates assigned)
COc1ccc([N-]C(=O)c2ccccc2[O-])cc1S(=O)(=O)N1CCCCC1 (nonaromatic ring conformer: 61.71187121237353 kcal/mol)

>  <smiles>  (27) 
COc1ccc(NC(=O)c2ccccc2O)cc1S(=O)(=O)N1CCCCC1

>  <score_type>  (27) 
oracle

>  <origin>  (27) 
adgpu

>  <m_score__min__energy>  (27) 
-13.26

>  <m_primary>  (27) 
energy

$$$$
27:0
     RDKit          3D

 33 34  0  0  0  0  0  0  0  0999 V2000
   -7.0070   17.9280  -33.0600 C   0  0  0  0  0  0  0  0  0  0  0  0
   -7.0690   19.3410  -32.5520 C   0  0  0  0  0  0  0  0  0  0  0  0
   -5.8990   20.1110  -32.4610 C   0  0  0  0  0  0  0  0  0  0  0  0
   -5.9500   21.4180  -31.9690 C   0  0  0  0  0  0  0  0  0  0  0  0
   -4.4430   22.3860  -31.8290 S   0  0  0  0  0  0  0  0  0  0  0  0
   -4.5880   22.6540  -30.0250 C   0  0  0  0  0  0  0  0  0  0  0  0
   -3.2760   23.0990  -29.4310 C   0  0  0  0  0  0  0  0  0  0  0  0
   -2.5410   22.2180  -28.6200 C   0  0  0  0  0  0  0  0  0  0  0  0
   -1.3500   22.6340  -28.0220 C   0  0  0  0  0  0  0  0  0  0  0  0
   -0.8780   23.9320  -28.2290 C   0  0  0  0  0  0  0  0  0  0  0  0
    0.3100   24.3350  -27.6300 O   0  0  0  0  0  0  0  0  0  0  0  0
   -1.5960   24.8230  -29.0370 C   0  0  0  0  0  0  0  0  0  0  0  0
   -1.1050   26.1150  -29.2290 O   0  0  0  0  0  0  0  0  0  0  0  0
   -2.7980   24.4080  -29.6370 C   0  0  0  0  0  0  0  0  0  0  0  0
   -3.5170   25.2960  -30.4330 O   0  0  0  0  0  0  0  0  0  0  0  0
   -7.1730   21.9710  -31.5800 C   0  0  0  0  0  0  0  0  0  0  0  0
   -8.3500   21.2110  -31.6460 C   0  0  0  0  0  0  0  0  0  0  0  0
   -9.6570   21.8000  -31.1990 C   0  0  0  0  0  0  0  0  0  0  0  0
   -8.2950   19.8920  -32.1360 C   0  0  0  0  0  0  0  0  0  0  0  0
   -9.4590   19.1310  -32.2070 O   0  0  0  0  0  0  0  0  0  0  0  0
   -6.9765   17.2330  -32.2079 H   0  0  0  0  0  0  0  0  0  0  0  0
   -7.8968   17.7190  -33.6720 H   0  0  0  0  0  0  0  0  0  0  0  0
   -6.1023   17.7977  -33.6720 H   0  0  0  0  0  0  0  0  0  0  0  0
   -4.9366   19.6833  -32.7787 H   0  0  0  0  0  0  0  0  0  0  0  0
   -5.3472   23.4276  -29.8374 H   0  0  0  0  0  0  0  0  0  0  0  0
   -4.8777   21.7028  -29.5545 H   0  0  0  0  0  0  0  0  0  0  0  0
   -2.9064   21.1936  -28.4551 H   0  0  0  0  0  0  0  0  0  0  0  0
   -0.7824   21.9382  -27.3867 H   0  0  0  0  0  0  0  0  0  0  0  0
   -1.2390   26.6170  -30.0980 H   0  0  0  0  0  0  0  0  0  0  0  0
   -7.2129   23.0095  -31.2195 H   0  0  0  0  0  0  0  0  0  0  0  0
   -9.6947   21.8170  -30.0998 H   0  0  0  0  0  0  0  0  0  0  0  0
   -9.7479   22.8261  -31.5849 H   0  0  0  0  0  0  0  0  0  0  0  0
  -10.4859   21.1884  -31.5849 H   0  0  0  0  0  0  0  0  0  0  0  0
  1  2  1  0
  2  3  2  0
  3  4  1  0
  4  5  1  0
  5  6  1  0
  6  7  1  0
  7  8  2  0
  8  9  1  0
  9 10  2  0
 10 11  1  0
 10 12  1  0
 12 13  1  0
 12 14  2  0
 14 15  1  0
  4 16  2  0
 16 17  1  0
 17 18  1  0
 17 19  2  0
 19 20  1  0
 19  2  1  0
 14  7  1  0
  1 21  1  0
  1 22  1  0
  1 23  1  0
  3 24  1  0
  6 25  1  0
  6 26  1  0
  8 27  1  0
  9 28  1  0
 13 29  1  0
 16 30  1  0
 18 31  1  0
 18 32  1  0
 18 33  1  0
M  CHG  3  11  -1  15  -1  20  -1
M  END
>  <UniqueID>  (28) 
27

>  <SMILES>  (28) 
Cc1cc(SCc2ccc([O-])c(O)c2[O-])cc(C)c1[O-]

>  <Energy>  (28) 
28.56388201385756

>  <Genealogy>  (28) 
Cc1cc(SCc2ccc([O-])c(O)c2[O-])cc(C)c1[O-] (protonated)
Cc1cc(SCc2ccc([O-])c(O)c2[O-])cc(C)c1[O-] (3D coordinates assigned)
Cc1cc(SCc2ccc([O-])c(O)c2[O-])cc(C)c1[O-] (optimized conformer: 28.56388201385756 kcal/mol)

>  <smiles>  (28) 
Cc1cc(SCc2ccc(O)c(O)c2O)cc(C)c1O

>  <score_type>  (28) 
oracle

>  <origin>  (28) 
adgpu

>  <m_score__min__energy>  (28) 
-11.99

>  <m_primary>  (28) 
energy

$$$$
28:0
     RDKit          3D

 64 68  0  0  0  0  0  0  0  0999 V2000
   -3.0720   19.8820  -26.9980 C   0  0  0  0  0  0  0  0  0  0  0  0
   -2.6480   21.0720  -27.6510 O   0  0  0  0  0  0  0  0  0  0  0  0
   -1.9750   21.1110  -28.8830 C   0  0  0  0  0  0  0  0  0  0  0  0
   -1.2380   20.0110  -29.3610 C   0  0  0  0  0  0  0  0  0  0  0  0
   -0.5720   20.0830  -30.5870 C   0  0  0  0  0  0  0  0  0  0  0  0
   -0.6260   21.2480  -31.3560 C   0  0  0  0  0  0  0  0  0  0  0  0
    0.1470   21.3120  -32.5660 N   0  0  0  0  0  0  0  0  0  0  0  0
   -0.3010   20.9800  -33.8880 C   0  0  0  0  0  0  0  0  0  0  0  0
   -0.0960   21.8020  -34.8210 O   0  0  0  0  0  0  0  0  0  0  0  0
   -0.9480   19.6850  -34.1930 C   0  0  0  0  0  0  0  0  0  0  0  0
   -0.1720   18.5830  -34.5870 C   0  0  0  0  0  0  0  0  0  0  0  0
   -0.7810   17.3620  -34.8800 C   0  0  0  0  0  0  0  0  0  0  0  0
   -2.1670   17.2240  -34.7630 C   0  0  0  0  0  0  0  0  0  0  0  0
   -2.9520   18.3100  -34.3540 C   0  0  0  0  0  0  0  0  0  0  0  0
   -4.6860   18.0940  -34.1350 S   0  0  0  0  0  0  0  0  0  0  0  0
   -5.3540   17.9030  -35.4700 O   0  0  0  0  0  0  0  0  0  0  0  0
   -4.9270   16.8720  -33.2930 O   0  0  0  0  0  0  0  0  0  0  0  0
   -5.3690   19.4720  -33.3310 N   0  0  0  0  0  0  0  0  0  0  0  0
   -4.6930   20.7610  -33.2150 C   0  0  0  0  0  0  0  0  0  0  0  0
   -5.6970   21.7030  -32.5060 C   0  0  0  0  0  0  0  0  0  0  0  0
   -6.8980   20.8450  -32.3130 C   0  0  0  0  0  0  0  0  0  0  0  0
   -8.1100   21.1850  -31.7110 C   0  0  0  0  0  0  0  0  0  0  0  0
   -9.1080   20.2040  -31.6120 C   0  0  0  0  0  0  0  0  0  0  0  0
   -8.8870   18.9130  -32.1310 C   0  0  0  0  0  0  0  0  0  0  0  0
   -7.6630   18.5970  -32.7430 C   0  0  0  0  0  0  0  0  0  0  0  0
   -6.6770   19.5870  -32.8050 C   0  0  0  0  0  0  0  0  0  0  0  0
   -2.3410   19.5410  -34.0750 C   0  0  0  0  0  0  0  0  0  0  0  0
   -1.3600   22.3490  -30.8830 C   0  0  0  0  0  0  0  0  0  0  0  0
   -2.0410   22.2840  -29.6590 C   0  0  0  0  0  0  0  0  0  0  0  0
   -3.0090   23.6630  -29.1240 S   0  0  0  0  0  0  0  0  0  0  0  0
   -2.2220   24.9370  -29.2820 O   0  0  0  0  0  0  0  0  0  0  0  0
   -3.3440   23.4670  -27.6710 O   0  0  0  0  0  0  0  0  0  0  0  0
   -4.4810   23.7800  -30.0620 N   0  0  0  0  0  0  0  0  0  0  0  0
   -4.7820   25.1890  -30.4010 C   0  0  0  0  0  0  0  0  0  0  0  0
   -6.1250   25.6640  -29.8250 C   0  0  0  0  0  0  0  0  0  0  0  0
   -7.1880   24.8240  -30.2290 O   0  0  0  0  0  0  0  0  0  0  0  0
   -6.9380   23.4440  -29.9820 C   0  0  0  0  0  0  0  0  0  0  0  0
   -5.5760   23.1140  -29.3370 C   0  0  0  0  0  0  0  0  0  0  0  0
   -3.0215   20.0238  -25.9083 H   0  0  0  0  0  0  0  0  0  0  0  0
   -4.1073   19.6523  -27.2903 H   0  0  0  0  0  0  0  0  0  0  0  0
   -2.4152   19.0494  -27.2903 H   0  0  0  0  0  0  0  0  0  0  0  0
   -1.1861   19.0880  -28.7649 H   0  0  0  0  0  0  0  0  0  0  0  0
   -0.0007   19.2157  -30.9495 H   0  0  0  0  0  0  0  0  0  0  0  0
    0.9207   18.6826  -34.6650 H   0  0  0  0  0  0  0  0  0  0  0  0
   -0.1693   16.5069  -35.2035 H   0  0  0  0  0  0  0  0  0  0  0  0
   -2.6431   16.2594  -34.9928 H   0  0  0  0  0  0  0  0  0  0  0  0
   -3.7753   20.6596  -32.6170 H   0  0  0  0  0  0  0  0  0  0  0  0
   -4.3972   21.1525  -34.1995 H   0  0  0  0  0  0  0  0  0  0  0  0
   -5.2993   22.0466  -31.5397 H   0  0  0  0  0  0  0  0  0  0  0  0
   -5.9095   22.6158  -33.0818 H   0  0  0  0  0  0  0  0  0  0  0  0
   -8.2793   22.2001  -31.3225 H   0  0  0  0  0  0  0  0  0  0  0  0
  -10.0661   20.4436  -31.1276 H   0  0  0  0  0  0  0  0  0  0  0  0
   -9.6758   18.1499  -32.0566 H   0  0  0  0  0  0  0  0  0  0  0  0
   -7.4843   17.5961  -33.1630 H   0  0  0  0  0  0  0  0  0  0  0  0
   -2.9552   20.3983  -33.7622 H   0  0  0  0  0  0  0  0  0  0  0  0
   -1.4008   23.2722  -31.4797 H   0  0  0  0  0  0  0  0  0  0  0  0
   -3.9812   25.8266  -29.9982 H   0  0  0  0  0  0  0  0  0  0  0  0
   -4.8468   25.2604  -31.4968 H   0  0  0  0  0  0  0  0  0  0  0  0
   -6.0642   25.6605  -28.7267 H   0  0  0  0  0  0  0  0  0  0  0  0
   -6.3234   26.6778  -30.2028 H   0  0  0  0  0  0  0  0  0  0  0  0
   -7.7276   23.0724  -29.3123 H   0  0  0  0  0  0  0  0  0  0  0  0
   -6.9258   22.9608  -30.9701 H   0  0  0  0  0  0  0  0  0  0  0  0
   -5.5787   23.4578  -28.2921 H   0  0  0  0  0  0  0  0  0  0  0  0
   -5.4186   22.0262  -29.3808 H   0  0  0  0  0  0  0  0  0  0  0  0
  1  2  1  0
  2  3  1  0
  3  4  2  0
  4  5  1  0
  5  6  2  0
  6  7  1  0
  7  8  1  0
  8  9  2  0
  8 10  1  0
 10 11  2  0
 11 12  1  0
 12 13  2  0
 13 14  1  0
 14 15  1  0
 15 16  2  0
 15 17  2  0
 15 18  1  0
 18 19  1  0
 19 20  1  0
 20 21  1  0
 21 22  2  0
 22 23  1  0
 23 24  2  0
 24 25  1  0
 25 26  2  0
 14 27  2  0
  6 28  1  0
 28 29  2  0
 29 30  1  0
 30 31  2  0
 30 32  2  0
 30 33  1  0
 33 34  1  0
 34 35  1  0
 35 36  1  0
 36 37  1  0
 37 38  1  0
 29  3  1  0
 38 33  1  0
 27 10  1  0
 26 18  1  0
 26 21  1  0
  1 39  1  0
  1 40  1  0
  1 41  1  0
  4 42  1  0
  5 43  1  0
 11 44  1  0
 12 45  1  0
 13 46  1  0
 19 47  1  0
 19 48  1  0
 20 49  1  0
 20 50  1  0
 22 51  1  0
 23 52  1  0
 24 53  1  0
 25 54  1  0
 27 55  1  0
 28 56  1  0
 34 57  1  0
 34 58  1  0
 35 59  1  0
 35 60  1  0
 37 61  1  0
 37 62  1  0
 38 63  1  0
 38 64  1  0
M  CHG  1   7  -1
M  END
>  <UniqueID>  (29) 
28

>  <SMILES>  (29) 
COc1ccc([N-]C(=O)c2cccc(S(=O)(=O)N3CCc4ccccc43)c2)cc1S(=O)(=O)N1CCOCC1

>  <Energy>  (29) 
97.32522461850411

>  <Genealogy>  (29) 
COc1ccc([N-]C(=O)c2cccc(S(=O)(=O)N3CCc4ccccc43)c2)cc1S(=O)(=O)N1CCOCC1 (protonated)
COc1ccc([N-]C(=O)c2cccc(S(=O)(=O)N3CCc4ccccc43)c2)cc1S(=O)(=O)N1CCOCC1 (3D coordinates assigned)
COc1ccc([N-]C(=O)c2cccc(S(=O)(=O)N3CCc4ccccc43)c2)cc1S(=O)(=O)N1CCOCC1 (nonaromatic ring conformer: 97.32522461850411 kcal/mol)

>  <smiles>  (29) 
COc1ccc(NC(=O)c2cccc(S(=O)(=O)N3CCc4ccccc43)c2)cc1S(=O)(=O)N1CCOCC1

>  <score_type>  (29) 
oracle

>  <origin>  (29) 
adgpu

>  <m_score__min__energy>  (29) 
-11.99

>  <m_primary>  (29) 
energy

$$$$
29:0
     RDKit          3D

 39 41  0  0  0  0  0  0  0  0999 V2000
    0.7630   24.4540  -29.1820 H   0  0  0  0  0  0  0  0  0  0  0  0
    0.7940   24.7430  -28.2140 O   0  0  0  0  0  0  0  0  0  0  0  0
   -0.3410   24.8720  -27.4100 C   0  0  0  0  0  0  0  0  0  0  0  0
   -0.1490   25.1250  -26.0460 C   0  0  0  0  0  0  0  0  0  0  0  0
    0.8712   25.1554  -25.6359 H   0  0  0  0  0  0  0  0  0  0  0  0
   -1.2400   25.3390  -25.2020 C   0  0  0  0  0  0  0  0  0  0  0  0
   -1.0775   25.5391  -24.1326 H   0  0  0  0  0  0  0  0  0  0  0  0
   -2.5360   25.2990  -25.7150 C   0  0  0  0  0  0  0  0  0  0  0  0
   -3.3946   25.4814  -25.0520 H   0  0  0  0  0  0  0  0  0  0  0  0
   -2.7460   25.0280  -27.0680 C   0  0  0  0  0  0  0  0  0  0  0  0
   -3.7716   24.9994  -27.4646 H   0  0  0  0  0  0  0  0  0  0  0  0
   -1.6590   24.7910  -27.9300 C   0  0  0  0  0  0  0  0  0  0  0  0
   -1.9420   24.4330  -29.3380 C   0  0  0  0  0  0  0  0  0  0  0  0
   -1.1390   23.7060  -29.9810 O   0  0  0  0  0  0  0  0  0  0  0  0
   -3.1380   24.9180  -29.9620 N   0  0  0  0  0  0  0  0  0  0  0  0
   -4.3470   24.1770  -30.1890 C   0  0  0  0  0  0  0  0  0  0  0  0
   -5.6140   24.7070  -29.8890 C   0  0  0  0  0  0  0  0  0  0  0  0
   -5.6977   25.7117  -29.4491 H   0  0  0  0  0  0  0  0  0  0  0  0
   -6.7690   23.9610  -30.1480 C   0  0  0  0  0  0  0  0  0  0  0  0
   -7.7567   24.3752  -29.8971 H   0  0  0  0  0  0  0  0  0  0  0  0
   -6.6720   22.6880  -30.7260 C   0  0  0  0  0  0  0  0  0  0  0  0
   -8.1250   21.7440  -31.0370 S   0  0  0  0  0  0  0  0  0  0  0  0
   -9.0920   21.9220  -29.8990 O   0  0  0  0  0  0  0  0  0  0  0  0
   -8.7690   22.2150  -32.3100 O   0  0  0  0  0  0  0  0  0  0  0  0
   -7.6860   20.0730  -31.1810 N   0  0  0  0  0  0  0  0  0  0  0  0
   -7.0730   19.5880  -32.2150 C   0  0  0  0  0  0  0  0  0  0  0  0
   -6.7150   20.3240  -33.2930 N   0  0  0  0  0  0  0  0  0  0  0  0
   -6.0910   19.5600  -34.2280 C   0  0  0  0  0  0  0  0  0  0  0  0
   -5.7291   19.9687  -35.1830 H   0  0  0  0  0  0  0  0  0  0  0  0
   -5.9460   18.2200  -33.8820 C   0  0  0  0  0  0  0  0  0  0  0  0
   -5.3740   17.1520  -34.7520 C   0  0  0  0  0  0  0  0  0  0  0  0
   -4.9478   16.3562  -34.1235 H   0  0  0  0  0  0  0  0  0  0  0  0
   -6.1679   16.7320  -35.3871 H   0  0  0  0  0  0  0  0  0  0  0  0
   -4.5844   17.5801  -35.3871 H   0  0  0  0  0  0  0  0  0  0  0  0
   -6.6470   17.9710  -32.3700 S   0  0  0  0  0  0  0  0  0  0  0  0
   -5.4110   22.1660  -31.0410 C   0  0  0  0  0  0  0  0  0  0  0  0
   -5.3281   21.1663  -31.4923 H   0  0  0  0  0  0  0  0  0  0  0  0
   -4.2570   22.9130  -30.7830 C   0  0  0  0  0  0  0  0  0  0  0  0
   -3.2712   22.5039  -31.0490 H   0  0  0  0  0  0  0  0  0  0  0  0
  1  2  1  0
  2  3  1  0
  3  4  2  0
  4  5  1  0
  4  6  1  0
  6  7  1  0
  6  8  2  0
  8  9  1  0
  8 10  1  0
 10 11  1  0
 10 12  2  0
 12 13  1  0
 13 14  2  0
 13 15  1  0
 15 16  1  0
 16 17  2  0
 17 18  1  0
 17 19  1  0
 19 20  1  0
 19 21  2  0
 21 22  1  0
 22 23  2  0
 22 24  2  0
 22 25  1  0
 25 26  2  0
 26 27  1  0
 27 28  1  0
 28 29  1  0
 28 30  2  0
 30 31  1  0
 31 32  1  0
 31 33  1  0
 31 34  1  0
 30 35  1  0
 21 36  1  0
 36 37  1  0
 36 38  2  0
 38 39  1  0
 12  3  1  0
 38 16  1  0
 35 26  1  0
M  CHG  2  15  -1  27  -1
M  END
>  <UniqueID>  (30) 
29

>  <SMILES>  (30) 
Cc1c[n-]/c(=N\S(=O)(=O)c2ccc([N-]C(=O)c3ccccc3O)cc2)s1

>  <Energy>  (30) 
83.20561570564134

>  <Genealogy>  (30) 
Cc1c[n-]c(=NS(=O)(=O)c2ccc([N-]C(=O)c3ccccc3O)cc2)s1 (protonated)
Cc1c[n-]/c(=N\S(=O)(=O)c2ccc([N-]C(=O)c3ccccc3O)cc2)s1 (cis-trans isomerization)
Cc1c[n-]/c(=N\S(=O)(=O)c2ccc([N-]C(=O)c3ccccc3O)cc2)s1 (3D coordinates assigned)
Cc1c[n-]/c(=N\S(=O)(=O)c2ccc([N-]C(=O)c3ccccc3O)cc2)s1 (optimized conformer: 83.20561570564134 kcal/mol)

>  <smiles>  (30) 
Cc1c[nH]c(=NS(=O)(=O)c2ccc(NC(=O)c3ccccc3O)cc2)s1

>  <score_type>  (30) 
oracle

>  <origin>  (30) 
adgpu

>  <m_score__min__energy>  (30) 
-10.710000000000001

>  <m_primary>  (30) 
energy

$$$$
30:0
     RDKit          3D

 48 51  0  0  0  0  0  0  0  0999 V2000
   -0.4460   23.5910  -24.9810 C   0  0  0  0  0  0  0  0  0  0  0  0
   -0.6410   23.5160  -26.4740 C   0  0  0  0  0  0  0  0  0  0  0  0
   -0.0240   22.4700  -27.1830 C   0  0  0  0  0  0  0  0  0  0  0  0
   -0.1660   22.3700  -28.5650 C   0  0  0  0  0  0  0  0  0  0  0  0
   -0.9350   23.3010  -29.2600 C   0  0  0  0  0  0  0  0  0  0  0  0
   -1.5720   24.3430  -28.5800 C   0  0  0  0  0  0  0  0  0  0  0  0
   -2.3690   25.2600  -29.3430 N   0  0  0  0  0  0  0  0  0  0  0  0
   -3.6410   24.9150  -29.9080 C   0  0  0  0  0  0  0  0  0  0  0  0
   -4.1590   25.6340  -30.8060 O   0  0  0  0  0  0  0  0  0  0  0  0
   -4.3800   23.7200  -29.3950 C   0  0  0  0  0  0  0  0  0  0  0  0
   -5.1570   23.1060  -30.4730 N   0  0  0  0  0  0  0  0  0  0  0  0
   -6.5730   22.9280  -30.4800 C   0  0  0  0  0  0  0  0  0  0  0  0
   -7.3410   23.5330  -29.6800 O   0  0  0  0  0  0  0  0  0  0  0  0
   -7.0410   21.9070  -31.4890 C   0  0  0  0  0  0  0  0  0  0  0  0
   -7.6610   20.8170  -30.8060 O   0  0  0  0  0  0  0  0  0  0  0  0
   -8.6360   20.1810  -31.6080 C   0  0  0  0  0  0  0  0  0  0  0  0
   -9.7600   21.1500  -31.9690 C   0  0  0  0  0  0  0  0  0  0  0  0
   -9.1950   22.5610  -32.1320 C   0  0  0  0  0  0  0  0  0  0  0  0
   -7.8320   22.5170  -32.5070 O   0  0  0  0  0  0  0  0  0  0  0  0
   -5.7060   21.4980  -32.0570 C   0  0  0  0  0  0  0  0  0  0  0  0
   -5.4390   20.5930  -33.0910 C   0  0  0  0  0  0  0  0  0  0  0  0
   -4.1040   20.3710  -33.4690 C   0  0  0  0  0  0  0  0  0  0  0  0
   -3.0580   21.0610  -32.8290 C   0  0  0  0  0  0  0  0  0  0  0  0
   -3.3400   21.9830  -31.8090 C   0  0  0  0  0  0  0  0  0  0  0  0
   -4.6740   22.1900  -31.4450 C   0  0  0  0  0  0  0  0  0  0  0  0
   -1.3890   24.4940  -27.1810 C   0  0  0  0  0  0  0  0  0  0  0  0
   -1.9930   25.6740  -26.4500 C   0  0  0  0  0  0  0  0  0  0  0  0
   -1.3572   23.2405  -24.4741 H   0  0  0  0  0  0  0  0  0  0  0  0
    0.4032   22.9553  -24.6897 H   0  0  0  0  0  0  0  0  0  0  0  0
   -0.2417   24.6319  -24.6897 H   0  0  0  0  0  0  0  0  0  0  0  0
    0.5762   21.7241  -26.6413 H   0  0  0  0  0  0  0  0  0  0  0  0
    0.3306   21.5533  -29.1095 H   0  0  0  0  0  0  0  0  0  0  0  0
   -1.0416   23.2155  -30.3515 H   0  0  0  0  0  0  0  0  0  0  0  0
   -3.6590   22.9872  -29.0036 H   0  0  0  0  0  0  0  0  0  0  0  0
   -5.0645   24.0372  -28.5945 H   0  0  0  0  0  0  0  0  0  0  0  0
   -8.1619   19.8187  -32.5321 H   0  0  0  0  0  0  0  0  0  0  0  0
   -9.0641   19.3409  -31.0415 H   0  0  0  0  0  0  0  0  0  0  0  0
  -10.2269   20.8323  -32.9130 H   0  0  0  0  0  0  0  0  0  0  0  0
  -10.5113   21.1502  -31.1655 H   0  0  0  0  0  0  0  0  0  0  0  0
   -9.7658   23.0903  -32.9092 H   0  0  0  0  0  0  0  0  0  0  0  0
   -9.2787   23.0872  -31.1696 H   0  0  0  0  0  0  0  0  0  0  0  0
   -6.2597   20.0650  -33.5986 H   0  0  0  0  0  0  0  0  0  0  0  0
   -3.8752   19.6531  -34.2704 H   0  0  0  0  0  0  0  0  0  0  0  0
   -2.0158   20.8772  -33.1291 H   0  0  0  0  0  0  0  0  0  0  0  0
   -2.5290   22.5309  -31.3068 H   0  0  0  0  0  0  0  0  0  0  0  0
   -1.9111   25.5140  -25.3648 H   0  0  0  0  0  0  0  0  0  0  0  0
   -1.4539   26.5919  -26.7270 H   0  0  0  0  0  0  0  0  0  0  0  0
   -3.0529   25.7735  -26.7270 H   0  0  0  0  0  0  0  0  0  0  0  0
  1  2  1  0
  2  3  2  0
  3  4  1  0
  4  5  2  0
  5  6  1  0
  6  7  1  0
  7  8  1  0
  8  9  2  0
  8 10  1  0
 10 11  1  0
 11 12  1  0
 12 13  2  0
 12 14  1  0
 14 15  1  0
 15 16  1  0
 16 17  1  0
 17 18  1  0
 18 19  1  0
 14 20  1  0
 20 21  2  0
 21 22  1  0
 22 23  2  0
 23 24  1  0
 24 25  2  0
  6 26  2  0
 26 27  1  0
 26  2  1  0
 25 11  1  0
 19 14  1  0
 25 20  1  0
  1 28  1  0
  1 29  1  0
  1 30  1  0
  3 31  1  0
  4 32  1  0
  5 33  1  0
 10 34  1  0
 10 35  1  0
 16 36  1  0
 16 37  1  0
 17 38  1  0
 17 39  1  0
 18 40  1  0
 18 41  1  0
 21 42  1  0
 22 43  1  0
 23 44  1  0
 24 45  1  0
 27 46  1  0
 27 47  1  0
 27 48  1  0
M  CHG  1   7  -1
M  END
>  <UniqueID>  (31) 
30

>  <SMILES>  (31) 
Cc1cccc([N-]C(=O)CN2C(=O)C3(OCCCO3)c3ccccc32)c1C

>  <Energy>  (31) 
86.84136014043226

>  <Genealogy>  (31) 
Cc1cccc([N-]C(=O)CN2C(=O)C3(OCCCO3)c3ccccc32)c1C (protonated)
Cc1cccc([N-]C(=O)CN2C(=O)C3(OCCCO3)c3ccccc32)c1C (3D coordinates assigned)
Cc1cccc([N-]C(=O)CN2C(=O)C3(OCCCO3)c3ccccc32)c1C (nonaromatic ring conformer: 86.84136014043226 kcal/mol)

>  <smiles>  (31) 
Cc1cccc(NC(=O)CN2C(=O)C3(OCCCO3)c3ccccc32)c1C

>  <score_type>  (31) 
oracle

>  <origin>  (31) 
adgpu

>  <m_score__min__energy>  (31) 
-10.83

>  <m_primary>  (31) 
energy

$$$$
31:0
     RDKit          3D

 38 40  0  0  0  0  0  0  0  0999 V2000
   -3.8570   25.2960  -30.8410 O   0  0  0  0  0  0  0  0  0  0  0  0
   -4.3130   24.3820  -30.1020 C   0  0  0  0  0  0  0  0  0  0  0  0
   -5.7300   24.1750  -30.0100 N   0  0  0  0  0  0  0  0  0  0  0  0
   -6.4940   23.1940  -30.7260 C   0  0  0  0  0  0  0  0  0  0  0  0
   -7.6700   22.6330  -30.1950 C   0  0  0  0  0  0  0  0  0  0  0  0
   -8.3710   21.6580  -30.9130 C   0  0  0  0  0  0  0  0  0  0  0  0
   -7.9000   21.2240  -32.1560 C   0  0  0  0  0  0  0  0  0  0  0  0
   -8.6090   20.2530  -32.8590 O   0  0  0  0  0  0  0  0  0  0  0  0
   -6.7170   21.7640  -32.6770 C   0  0  0  0  0  0  0  0  0  0  0  0
   -6.0150   22.7380  -31.9610 C   0  0  0  0  0  0  0  0  0  0  0  0
   -3.4090   23.5170  -29.3830 N   0  0  0  0  0  0  0  0  0  0  0  0
   -1.9580   23.7310  -29.4660 C   0  0  0  0  0  0  0  0  0  0  0  0
   -1.5520   24.8440  -28.5520 C   0  0  0  0  0  0  0  0  0  0  0  0
   -1.4780   24.7760  -27.1750 C   0  0  0  0  0  0  0  0  0  0  0  0
   -1.0820   26.0300  -26.7630 C   0  0  0  0  0  0  0  0  0  0  0  0
   -0.9340   26.7820  -27.9110 C   0  0  0  0  0  0  0  0  0  0  0  0
   -1.2200   26.0470  -28.9610 O   0  0  0  0  0  0  0  0  0  0  0  0
   -3.9370   22.5360  -28.4240 C   0  0  0  0  0  0  0  0  0  0  0  0
   -2.8380   21.6370  -27.9500 C   0  0  0  0  0  0  0  0  0  0  0  0
   -2.4520   20.4510  -28.5420 C   0  0  0  0  0  0  0  0  0  0  0  0
   -1.3850   19.9960  -27.7970 C   0  0  0  0  0  0  0  0  0  0  0  0
   -1.1880   20.9290  -26.8000 C   0  0  0  0  0  0  0  0  0  0  0  0
   -2.0690   21.8960  -26.9190 O   0  0  0  0  0  0  0  0  0  0  0  0
   -8.0394   22.9619  -29.2125 H   0  0  0  0  0  0  0  0  0  0  0  0
   -9.2961   21.2313  -30.4981 H   0  0  0  0  0  0  0  0  0  0  0  0
   -8.3970   20.0410  -33.8270 H   0  0  0  0  0  0  0  0  0  0  0  0
   -6.3397   21.4208  -33.6516 H   0  0  0  0  0  0  0  0  0  0  0  0
   -5.0803   23.1491  -32.3700 H   0  0  0  0  0  0  0  0  0  0  0  0
   -1.4362   22.8086  -29.1710 H   0  0  0  0  0  0  0  0  0  0  0  0
   -1.6906   23.9965  -30.4994 H   0  0  0  0  0  0  0  0  0  0  0  0
   -1.6906   23.9035  -26.5398 H   0  0  0  0  0  0  0  0  0  0  0  0
   -0.9171   26.3643  -25.7281 H   0  0  0  0  0  0  0  0  0  0  0  0
   -0.6236   27.8369  -27.9417 H   0  0  0  0  0  0  0  0  0  0  0  0
   -4.3705   23.0659  -27.5630 H   0  0  0  0  0  0  0  0  0  0  0  0
   -4.7103   21.9296  -28.9183 H   0  0  0  0  0  0  0  0  0  0  0  0
   -2.9015   19.9700  -29.4232 H   0  0  0  0  0  0  0  0  0  0  0  0
   -0.8073   19.0749  -27.9638 H   0  0  0  0  0  0  0  0  0  0  0  0
   -0.4111   20.8718  -26.0233 H   0  0  0  0  0  0  0  0  0  0  0  0
  1  2  2  0
  2  3  1  0
  3  4  1  0
  4  5  2  0
  5  6  1  0
  6  7  2  0
  7  8  1  0
  7  9  1  0
  9 10  2  0
  2 11  1  0
 11 12  1  0
 12 13  1  0
 13 14  2  0
 14 15  1  0
 15 16  2  0
 16 17  1  0
 11 18  1  0
 18 19  1  0
 19 20  2  0
 20 21  1  0
 21 22  2  0
 22 23  1  0
 10  4  1  0
 17 13  1  0
 23 19  1  0
  5 24  1  0
  6 25  1  0
  8 26  1  0
  9 27  1  0
 10 28  1  0
 12 29  1  0
 12 30  1  0
 14 31  1  0
 15 32  1  0
 16 33  1  0
 18 34  1  0
 18 35  1  0
 20 36  1  0
 21 37  1  0
 22 38  1  0
M  CHG  1   3  -1
M  END
>  <UniqueID>  (32) 
31

>  <SMILES>  (32) 
O=C([N-]c1ccc(O)cc1)N(Cc1ccco1)Cc1ccco1

>  <Energy>  (32) 
89.66568023482765

>  <Genealogy>  (32) 
O=C([N-]c1ccc(O)cc1)N(Cc1ccco1)Cc1ccco1 (protonated)
O=C([N-]c1ccc(O)cc1)N(Cc1ccco1)Cc1ccco1 (3D coordinates assigned)
O=C([N-]c1ccc(O)cc1)N(Cc1ccco1)Cc1ccco1 (optimized conformer: 89.66568023482765 kcal/mol)

>  <smiles>  (32) 
O=C(Nc1ccc(O)cc1)N(Cc1ccco1)Cc1ccco1

>  <score_type>  (32) 
oracle

>  <origin>  (32) 
adgpu

>  <m_score__min__energy>  (32) 
-8.0999999999999996

>  <m_primary>  (32) 
energy

$$$$
32:0
     RDKit          3D

 57 61  0  0  0  0  0  0  0  0999 V2000
   -7.3800   19.3380  -33.0540 H   0  0  0  0  0  0  0  0  0  0  0  0
   -7.9440   20.1070  -33.4820 N   0  0  0  0  0  0  0  0  0  0  0  0
   -8.6620   20.9890  -32.1810 S   0  0  0  0  0  0  0  0  0  0  0  0
   -9.8460   21.7620  -32.6910 O   0  0  0  0  0  0  0  0  0  0  0  0
   -9.1300   20.0290  -31.1240 O   0  0  0  0  0  0  0  0  0  0  0  0
   -7.4730   22.0920  -31.4990 C   0  0  0  0  0  0  0  0  0  0  0  0
   -7.3530   22.2230  -30.1090 C   0  0  0  0  0  0  0  0  0  0  0  0
   -8.0345   21.6709  -29.4452 H   0  0  0  0  0  0  0  0  0  0  0  0
   -6.3700   23.0530  -29.5640 C   0  0  0  0  0  0  0  0  0  0  0  0
   -6.2975   23.1745  -28.4731 H   0  0  0  0  0  0  0  0  0  0  0  0
   -5.4750   23.7320  -30.4050 C   0  0  0  0  0  0  0  0  0  0  0  0
   -4.4300   24.5440  -29.8580 N   0  0  0  0  0  0  0  0  0  0  0  0
   -3.1800   24.2110  -29.6900 C   0  0  0  0  0  0  0  0  0  0  0  0
   -2.3310   24.9840  -28.9850 N   0  0  0  0  0  0  0  0  0  0  0  0
   -1.1980   24.2500  -29.0190 C   0  0  0  0  0  0  0  0  0  0  0  0
   -0.0910   24.5810  -28.4210 N   0  0  0  0  0  0  0  0  0  0  0  0
    0.1630   25.8010  -27.7040 C   0  0  0  0  0  0  0  0  0  0  0  0
    1.4090   25.9690  -27.0880 C   0  0  0  0  0  0  0  0  0  0  0  0
    2.1588   25.1663  -27.1461 H   0  0  0  0  0  0  0  0  0  0  0  0
    1.7080   27.1480  -26.4000 C   0  0  0  0  0  0  0  0  0  0  0  0
    2.6804   27.2551  -25.8971 H   0  0  0  0  0  0  0  0  0  0  0  0
    0.7770   28.1960  -26.3460 C   0  0  0  0  0  0  0  0  0  0  0  0
    1.0970   29.3900  -25.6120 N   0  0  0  0  0  0  0  0  0  0  0  0
    1.1460   30.2830  -26.1520 H   0  0  0  0  0  0  0  0  0  0  0  0
    1.2160   29.4330  -24.1770 C   0  0  0  0  0  0  0  0  0  0  0  0
    0.6680   28.5370  -23.4790 O   0  0  0  0  0  0  0  0  0  0  0  0
    1.9500   30.5360  -23.4510 C   0  0  0  0  0  0  0  0  0  0  0  0
    1.5267   31.3325  -24.0807 H   0  0  0  0  0  0  0  0  0  0  0  0
    2.1740   30.3720  -21.9540 C   0  0  0  0  0  0  0  0  0  0  0  0
    2.1501   31.2519  -21.2943 H   0  0  0  0  0  0  0  0  0  0  0  0
    1.7146   29.7648  -21.1601 H   0  0  0  0  0  0  0  0  0  0  0  0
    3.3320   30.1790  -22.9260 C   0  0  0  0  0  0  0  0  0  0  0  0
    4.1444   30.9195  -22.9676 H   0  0  0  0  0  0  0  0  0  0  0  0
    4.0553   29.3743  -23.1241 H   0  0  0  0  0  0  0  0  0  0  0  0
   -0.4710   28.0340  -26.9750 C   0  0  0  0  0  0  0  0  0  0  0  0
   -1.2161   28.8418  -26.9270 H   0  0  0  0  0  0  0  0  0  0  0  0
   -0.7700   26.8540  -27.6600 C   0  0  0  0  0  0  0  0  0  0  0  0
   -1.7399   26.7471  -28.1678 H   0  0  0  0  0  0  0  0  0  0  0  0
   -1.3300   23.0980  -29.7020 N   0  0  0  0  0  0  0  0  0  0  0  0
   -2.5790   23.0780  -30.1340 N   0  0  0  0  0  0  0  0  0  0  0  0
   -3.0500   22.0900  -31.0610 C   0  0  0  0  0  0  0  0  0  0  0  0
   -2.4330   21.9370  -32.3120 C   0  0  0  0  0  0  0  0  0  0  0  0
   -1.5641   22.5583  -32.5745 H   0  0  0  0  0  0  0  0  0  0  0  0
   -2.9190   20.9980  -33.2250 C   0  0  0  0  0  0  0  0  0  0  0  0
   -2.4434   20.8930  -34.2113 H   0  0  0  0  0  0  0  0  0  0  0  0
   -4.0090   20.1920  -32.8860 C   0  0  0  0  0  0  0  0  0  0  0  0
   -4.3969   19.4615  -33.6112 H   0  0  0  0  0  0  0  0  0  0  0  0
   -4.6100   20.3110  -31.6250 C   0  0  0  0  0  0  0  0  0  0  0  0
   -5.7210   19.4820  -31.2760 N   0  0  0  0  0  0  0  0  0  0  0  0
   -5.6220   18.7280  -30.5610 H   0  0  0  0  0  0  0  0  0  0  0  0
   -6.6520   19.6150  -31.7320 H   0  0  0  0  0  0  0  0  0  0  0  0
   -4.1190   21.2530  -30.7090 C   0  0  0  0  0  0  0  0  0  0  0  0
   -4.5740   21.3356  -29.7109 H   0  0  0  0  0  0  0  0  0  0  0  0
   -5.6280   23.6430  -31.7940 C   0  0  0  0  0  0  0  0  0  0  0  0
   -4.9725   24.2267  -32.4571 H   0  0  0  0  0  0  0  0  0  0  0  0
   -6.6130   22.8130  -32.3400 C   0  0  0  0  0  0  0  0  0  0  0  0
   -6.7132   22.7257  -33.4319 H   0  0  0  0  0  0  0  0  0  0  0  0
  1  2  1  0
  2  3  1  0
  3  4  2  0
  3  5  2  0
  3  6  1  0
  6  7  2  0
  7  8  1  0
  7  9  1  0
  9 10  1  0
  9 11  2  0
 11 12  1  0
 12 13  2  3
 13 14  1  0
 14 15  1  0
 15 16  2  0
 16 17  1  0
 17 18  2  0
 18 19  1  0
 18 20  1  0
 20 21  1  0
 20 22  2  0
 22 23  1  0
 23 24  1  0
 23 25  1  0
 25 26  2  0
 25 27  1  0
 27 28  1  0
 27 29  1  0
 29 30  1  0
 29 31  1  0
 29 32  1  0
 32 33  1  0
 32 34  1  0
 22 35  1  0
 35 36  1  0
 35 37  2  0
 37 38  1  0
 15 39  1  0
 39 40  1  0
 40 41  1  0
 41 42  2  0
 42 43  1  0
 42 44  1  0
 44 45  1  0
 44 46  2  0
 46 47  1  0
 46 48  1  0
 48 49  1  0
 49 50  1  0
 49 51  1  0
 48 52  2  0
 52 53  1  0
 11 54  1  0
 54 55  1  0
 54 56  2  0
 56 57  1  0
 56  6  1  0
 40 13  1  0
 52 41  1  0
 37 17  1  0
 32 27  1  0
M  CHG  3   2  -1  14  -1  39  -1
M  END
>  <UniqueID>  (33) 
32

>  <SMILES>  (33) 
[NH-]S(=O)(=O)c1ccc(N=c2[n-]/c(=N\c3ccc(NC(=O)C4CC4)cc3)[n-]n2-c2cccc(N)c2)cc1

>  <Energy>  (33) 
385.7272593422318

>  <Genealogy>  (33) 
[NH-]S(=O)(=O)c1ccc(N=c2[n-]c(=Nc3ccc(NC(=O)C4CC4)cc3)[n-]n2-c2cccc(N)c2)cc1 (protonated)
[NH-]S(=O)(=O)c1ccc(N=c2[n-]/c(=N\c3ccc(NC(=O)C4CC4)cc3)[n-]n2-c2cccc(N)c2)cc1 (cis-trans isomerization)
[NH-]S(=O)(=O)c1ccc(N=c2[n-]/c(=N\c3ccc(NC(=O)C4CC4)cc3)[n-]n2-c2cccc(N)c2)cc1 (3D coordinates assigned)
[NH-]S(=O)(=O)c1ccc(N=c2[n-]/c(=N\c3ccc(NC(=O)C4CC4)cc3)[n-]n2-c2cccc(N)c2)cc1 (nonaromatic ring conformer: 385.7272593422318 kcal/mol)

>  <smiles>  (33) 
Nc1cccc(-n2[nH]c(=Nc3ccc(NC(=O)C4CC4)cc3)[nH]c2=Nc2ccc(S(N)(=O)=O)cc2)c1

>  <score_type>  (33) 
oracle

>  <origin>  (33) 
adgpu

>  <m_score__min__energy>  (33) 
-10.4

>  <m_primary>  (33) 
energy

$$$$
33:0
     RDKit          3D

 46 48  0  0  0  0  0  0  0  0999 V2000
   -1.7320   18.3250  -33.9590 C   0  0  0  0  0  0  0  0  0  0  0  0
   -3.2100   18.5780  -33.9330 C   0  0  0  0  0  0  0  0  0  0  0  0
   -4.0790   17.7520  -34.6600 C   0  0  0  0  0  0  0  0  0  0  0  0
   -5.4510   18.0090  -34.6660 C   0  0  0  0  0  0  0  0  0  0  0  0
   -5.9660   19.0980  -33.9580 C   0  0  0  0  0  0  0  0  0  0  0  0
   -5.1080   19.9490  -33.2380 C   0  0  0  0  0  0  0  0  0  0  0  0
   -5.6410   21.1120  -32.4910 C   0  0  0  0  0  0  0  0  0  0  0  0
   -6.8730   21.6310  -32.7020 N   0  0  0  0  0  0  0  0  0  0  0  0
   -7.1320   22.7010  -31.9010 C   0  0  0  0  0  0  0  0  0  0  0  0
   -8.4430   23.4190  -31.9660 C   0  0  0  0  0  0  0  0  0  0  0  0
   -6.0980   23.0380  -31.0240 C   0  0  0  0  0  0  0  0  0  0  0  0
   -6.0530   24.1980  -30.0710 C   0  0  0  0  0  0  0  0  0  0  0  0
   -5.0830   25.2770  -30.5540 C   0  0  0  0  0  0  0  0  0  0  0  0
   -3.7640   24.7010  -30.7800 N   0  0  0  0  0  0  0  0  0  0  0  0
   -2.8560   24.3790  -29.7220 C   0  0  0  0  0  0  0  0  0  0  0  0
   -2.4020   25.3000  -28.9900 O   0  0  0  0  0  0  0  0  0  0  0  0
   -2.4910   22.9600  -29.4740 C   0  0  0  0  0  0  0  0  0  0  0  0
   -1.4830   22.3820  -30.2710 C   0  0  0  0  0  0  0  0  0  0  0  0
   -1.1140   21.0480  -30.1010 C   0  0  0  0  0  0  0  0  0  0  0  0
   -1.7410   20.2670  -29.1340 C   0  0  0  0  0  0  0  0  0  0  0  0
   -2.7340   20.8190  -28.3250 C   0  0  0  0  0  0  0  0  0  0  0  0
   -3.1140   22.1660  -28.4710 C   0  0  0  0  0  0  0  0  0  0  0  0
   -4.1670   22.7190  -27.5460 C   0  0  0  0  0  0  0  0  0  0  0  0
   -4.8250   21.9730  -31.2920 S   0  0  0  0  0  0  0  0  0  0  0  0
   -3.7260   19.6820  -33.2380 C   0  0  0  0  0  0  0  0  0  0  0  0
   -1.3529   18.2601  -32.9284 H   0  0  0  0  0  0  0  0  0  0  0  0
   -1.5310   17.3794  -34.4838 H   0  0  0  0  0  0  0  0  0  0  0  0
   -1.2280   19.1499  -34.4838 H   0  0  0  0  0  0  0  0  0  0  0  0
   -3.6784   16.8990  -35.2273 H   0  0  0  0  0  0  0  0  0  0  0  0
   -6.1292   17.3519  -35.2301 H   0  0  0  0  0  0  0  0  0  0  0  0
   -7.0489   19.2910  -33.9637 H   0  0  0  0  0  0  0  0  0  0  0  0
   -8.8038   23.6166  -30.9458 H   0  0  0  0  0  0  0  0  0  0  0  0
   -8.3131   24.3719  -32.5000 H   0  0  0  0  0  0  0  0  0  0  0  0
   -9.1760   22.7964  -32.5000 H   0  0  0  0  0  0  0  0  0  0  0  0
   -7.0600   24.6327  -29.9880 H   0  0  0  0  0  0  0  0  0  0  0  0
   -5.7055   23.8312  -29.0939 H   0  0  0  0  0  0  0  0  0  0  0  0
   -5.4575   25.7082  -31.4942 H   0  0  0  0  0  0  0  0  0  0  0  0
   -5.0062   26.0612  -29.7864 H   0  0  0  0  0  0  0  0  0  0  0  0
   -0.9807   22.9909  -31.0371 H   0  0  0  0  0  0  0  0  0  0  0  0
   -0.3258   20.6119  -30.7323 H   0  0  0  0  0  0  0  0  0  0  0  0
   -1.4528   19.2130  -29.0078 H   0  0  0  0  0  0  0  0  0  0  0  0
   -3.2255   20.1945  -27.5645 H   0  0  0  0  0  0  0  0  0  0  0  0
   -3.8596   22.5575  -26.5022 H   0  0  0  0  0  0  0  0  0  0  0  0
   -4.2875   23.7967  -27.7302 H   0  0  0  0  0  0  0  0  0  0  0  0
   -5.1227   22.2064  -27.7302 H   0  0  0  0  0  0  0  0  0  0  0  0
   -3.0434   20.3459  -32.6873 H   0  0  0  0  0  0  0  0  0  0  0  0
  1  2  1  0
  2  3  2  0
  3  4  1  0
  4  5  2  0
  5  6  1  0
  6  7  1  0
  7  8  2  0
  8  9  1  0
  9 10  1  0
  9 11  2  0
 11 12  1  0
 12 13  1  0
 13 14  1  0
 14 15  1  0
 15 16  2  0
 15 17  1  0
 17 18  2  0
 18 19  1  0
 19 20  2  0
 20 21  1  0
 21 22  2  0
 22 23  1  0
 11 24  1  0
  6 25  2  0
 25  2  1  0
 24  7  1  0
 22 17  1  0
  1 26  1  0
  1 27  1  0
  1 28  1  0
  3 29  1  0
  4 30  1  0
  5 31  1  0
 10 32  1  0
 10 33  1  0
 10 34  1  0
 12 35  1  0
 12 36  1  0
 13 37  1  0
 13 38  1  0
 18 39  1  0
 19 40  1  0
 20 41  1  0
 21 42  1  0
 23 43  1  0
 23 44  1  0
 23 45  1  0
 25 46  1  0
M  CHG  1  14  -1
M  END
>  <UniqueID>  (34) 
33

>  <SMILES>  (34) 
Cc1cccc(-c2nc(C)c(CC[N-]C(=O)c3ccccc3C)s2)c1

>  <Energy>  (34) 
74.90220070155219

>  <Genealogy>  (34) 
Cc1cccc(-c2nc(C)c(CC[N-]C(=O)c3ccccc3C)s2)c1 (protonated)
Cc1cccc(-c2nc(C)c(CC[N-]C(=O)c3ccccc3C)s2)c1 (3D coordinates assigned)
Cc1cccc(-c2nc(C)c(CC[N-]C(=O)c3ccccc3C)s2)c1 (optimized conformer: 74.90220070155219 kcal/mol)

>  <smiles>  (34) 
Cc1cccc(-c2nc(C)c(CCNC(=O)c3ccccc3C)s2)c1

>  <score_type>  (34) 
oracle

>  <origin>  (34) 
adgpu

>  <m_score__min__energy>  (34) 
-10.44

>  <m_primary>  (34) 
energy

$$$$
34:0
     RDKit          3D

 44 46  0  0  0  0  0  0  0  0999 V2000
   -1.6650   25.1650  -28.9260 N   0  0  0  0  0  0  0  0  0  0  0  0
   -2.1740   23.8530  -28.6500 C   0  0  0  0  0  0  0  0  0  0  0  0
   -1.5700   23.0930  -27.6350 C   0  0  0  0  0  0  0  0  0  0  0  0
   -2.0760   21.8380  -27.2910 C   0  0  0  0  0  0  0  0  0  0  0  0
   -3.1900   21.3280  -27.9560 C   0  0  0  0  0  0  0  0  0  0  0  0
   -3.7960   22.0640  -28.9740 C   0  0  0  0  0  0  0  0  0  0  0  0
   -3.2960   23.3290  -29.3380 C   0  0  0  0  0  0  0  0  0  0  0  0
   -3.9420   24.0530  -30.4570 C   0  0  0  0  0  0  0  0  0  0  0  0
   -3.9230   25.3120  -30.4710 O   0  0  0  0  0  0  0  0  0  0  0  0
   -4.4990   23.3600  -31.5820 N   0  0  0  0  0  0  0  0  0  0  0  0
   -5.7700   22.6940  -31.6250 C   0  0  0  0  0  0  0  0  0  0  0  0
   -6.9780   23.4010  -31.5010 C   0  0  0  0  0  0  0  0  0  0  0  0
   -8.1980   22.7240  -31.5680 C   0  0  0  0  0  0  0  0  0  0  0  0
   -8.2230   21.3420  -31.7720 C   0  0  0  0  0  0  0  0  0  0  0  0
   -7.0250   20.6310  -31.9160 C   0  0  0  0  0  0  0  0  0  0  0  0
   -7.0690   18.8940  -32.2140 S   0  0  0  0  0  0  0  0  0  0  0  0
   -6.2180   18.1840  -31.1980 O   0  0  0  0  0  0  0  0  0  0  0  0
   -8.4870   18.4230  -32.0490 O   0  0  0  0  0  0  0  0  0  0  0  0
   -6.5240   18.5350  -33.8420 N   0  0  0  0  0  0  0  0  0  0  0  0
   -6.5180   17.0740  -34.1030 C   0  0  0  0  0  0  0  0  0  0  0  0
   -5.1200   16.4470  -33.9380 C   0  0  0  0  0  0  0  0  0  0  0  0
   -4.3850   17.1330  -32.9500 O   0  0  0  0  0  0  0  0  0  0  0  0
   -4.0550   18.4360  -33.3990 C   0  0  0  0  0  0  0  0  0  0  0  0
   -5.2150   19.1530  -34.1310 C   0  0  0  0  0  0  0  0  0  0  0  0
   -5.8010   21.3130  -31.8540 C   0  0  0  0  0  0  0  0  0  0  0  0
   -1.9860   25.6910  -29.7700 H   0  0  0  0  0  0  0  0  0  0  0  0
   -0.9060   25.5970  -28.3540 H   0  0  0  0  0  0  0  0  0  0  0  0
   -0.6907   23.4899  -27.1065 H   0  0  0  0  0  0  0  0  0  0  0  0
   -1.5952   21.2511  -26.4945 H   0  0  0  0  0  0  0  0  0  0  0  0
   -3.5920   20.3428  -27.6772 H   0  0  0  0  0  0  0  0  0  0  0  0
   -4.6720   21.6528  -29.4970 H   0  0  0  0  0  0  0  0  0  0  0  0
   -6.9629   24.4906  -31.3508 H   0  0  0  0  0  0  0  0  0  0  0  0
   -9.1409   23.2800  -31.4599 H   0  0  0  0  0  0  0  0  0  0  0  0
   -9.1854   20.8114  -31.8196 H   0  0  0  0  0  0  0  0  0  0  0  0
   -7.2250   18.9740  -34.4820 H   0  0  0  0  0  0  0  0  0  0  0  0
   -7.2076   16.5875  -33.3975 H   0  0  0  0  0  0  0  0  0  0  0  0
   -6.8300   16.9213  -35.1467 H   0  0  0  0  0  0  0  0  0  0  0  0
   -5.2285   15.3931  -33.6421 H   0  0  0  0  0  0  0  0  0  0  0  0
   -4.5827   16.5186  -34.8952 H   0  0  0  0  0  0  0  0  0  0  0  0
   -3.7674   19.0416  -32.5269 H   0  0  0  0  0  0  0  0  0  0  0  0
   -3.2345   18.3286  -34.1237 H   0  0  0  0  0  0  0  0  0  0  0  0
   -5.2409   20.2044  -33.8088 H   0  0  0  0  0  0  0  0  0  0  0  0
   -5.0340   19.0698  -35.2128 H   0  0  0  0  0  0  0  0  0  0  0  0
   -4.8596   20.7596  -31.9861 H   0  0  0  0  0  0  0  0  0  0  0  0
  1  2  1  0
  2  3  2  0
  3  4  1  0
  4  5  2  0
  5  6  1  0
  6  7  2  0
  7  8  1  0
  8  9  2  0
  8 10  1  0
 10 11  1  0
 11 12  2  0
 12 13  1  0
 13 14  2  0
 14 15  1  0
 15 16  1  0
 16 17  2  0
 16 18  2  0
 16 19  1  0
 19 20  1  0
 20 21  1  0
 21 22  1  0
 22 23  1  0
 23 24  1  0
 15 25  2  0
  7  2  1  0
 25 11  1  0
 24 19  1  0
  1 26  1  0
  1 27  1  0
  3 28  1  0
  4 29  1  0
  5 30  1  0
  6 31  1  0
 12 32  1  0
 13 33  1  0
 14 34  1  0
 19 35  1  0
 20 36  1  0
 20 37  1  0
 21 38  1  0
 21 39  1  0
 23 40  1  0
 23 41  1  0
 24 42  1  0
 24 43  1  0
 25 44  1  0
M  CHG  2  10  -1  19   1
M  END
>  <UniqueID>  (35) 
34

>  <SMILES>  (35) 
Nc1ccccc1C(=O)[N-]c1cccc(S(=O)(=O)[NH+]2CCOCC2)c1

>  <Energy>  (35) 
64.85905462411809

>  <Genealogy>  (35) 
Nc1ccccc1C(=O)[N-]c1cccc(S(=O)(=O)[NH+]2CCOCC2)c1 (protonated)
Nc1ccccc1C(=O)[N-]c1cccc(S(=O)(=O)[NH+]2CCOCC2)c1 (3D coordinates assigned)
Nc1ccccc1C(=O)[N-]c1cccc(S(=O)(=O)[NH+]2CCOCC2)c1 (nonaromatic ring conformer: 64.85905462411809 kcal/mol)

>  <smiles>  (35) 
Nc1ccccc1C(=O)Nc1cccc(S(=O)(=O)N2CCOCC2)c1

>  <score_type>  (35) 
oracle

>  <origin>  (35) 
adgpu

>  <m_score__min__energy>  (35) 
-9.9499999999999993

>  <m_primary>  (35) 
energy

$$$$
35:0
     RDKit          3D

 32 34  0  0  0  0  0  0  0  0999 V2000
   -3.4930   26.4180  -31.2380 H   0  0  0  0  0  0  0  0  0  0  0  0
   -4.1730   25.6720  -30.9690 N   0  0  0  0  0  0  0  0  0  0  0  0
   -3.9190   24.8340  -30.0140 C   0  0  0  0  0  0  0  0  0  0  0  0
   -2.7380   24.9250  -29.3420 N   0  0  0  0  0  0  0  0  0  0  0  0
   -2.4260   24.0750  -28.3320 C   0  0  0  0  0  0  0  0  0  0  0  0
   -1.4648   24.1681  -27.8053 H   0  0  0  0  0  0  0  0  0  0  0  0
   -3.3330   23.0840  -27.9680 C   0  0  0  0  0  0  0  0  0  0  0  0
   -3.0959   22.3881  -27.1498 H   0  0  0  0  0  0  0  0  0  0  0  0
   -4.5130   22.9840  -28.6320 N   0  0  0  0  0  0  0  0  0  0  0  0
   -4.8440   23.8260  -29.6500 C   0  0  0  0  0  0  0  0  0  0  0  0
   -6.1570   23.6370  -30.3140 C   0  0  0  0  0  0  0  0  0  0  0  0
   -7.1960   24.0680  -29.7430 O   0  0  0  0  0  0  0  0  0  0  0  0
   -6.2650   22.9260  -31.5550 N   0  0  0  0  0  0  0  0  0  0  0  0
   -7.0790   21.7720  -31.8150 C   0  0  0  0  0  0  0  0  0  0  0  0
   -8.4450   21.7350  -31.4830 C   0  0  0  0  0  0  0  0  0  0  0  0
   -8.9145   22.6004  -30.9924 H   0  0  0  0  0  0  0  0  0  0  0  0
   -9.2060   20.6020  -31.7750 C   0  0  0  0  0  0  0  0  0  0  0  0
  -10.2710   20.5727  -31.5014 H   0  0  0  0  0  0  0  0  0  0  0  0
   -8.6220   19.5050  -32.4130 C   0  0  0  0  0  0  0  0  0  0  0  0
   -9.2273   18.6134  -32.6337 H   0  0  0  0  0  0  0  0  0  0  0  0
   -7.2640   19.5360  -32.7740 C   0  0  0  0  0  0  0  0  0  0  0  0
   -6.6450   18.3800  -33.4600 C   0  0  0  0  0  0  0  0  0  0  0  0
   -5.9960   18.4670  -34.6390 N   0  0  0  0  0  0  0  0  0  0  0  0
   -5.6050   17.2560  -34.8970 O   0  0  0  0  0  0  0  0  0  0  0  0
   -5.9930   16.4560  -33.9350 C   0  0  0  0  0  0  0  0  0  0  0  0
   -5.6960   14.9970  -33.8870 C   0  0  0  0  0  0  0  0  0  0  0  0
   -5.6296   14.6706  -32.8386 H   0  0  0  0  0  0  0  0  0  0  0  0
   -6.4997   14.4424  -34.3935 H   0  0  0  0  0  0  0  0  0  0  0  0
   -4.7395   14.8007  -34.3935 H   0  0  0  0  0  0  0  0  0  0  0  0
   -6.6640   17.1200  -32.9750 N   0  0  0  0  0  0  0  0  0  0  0  0
   -6.5030   20.6800  -32.4770 C   0  0  0  0  0  0  0  0  0  0  0  0
   -5.4428   20.7182  -32.7678 H   0  0  0  0  0  0  0  0  0  0  0  0
  1  2  1  0
  2  3  2  0
  3  4  1  0
  4  5  1  0
  5  6  1  0
  5  7  2  0
  7  8  1  0
  7  9  1  0
  9 10  2  0
 10 11  1  0
 11 12  2  0
 11 13  1  0
 13 14  1  0
 14 15  2  0
 15 16  1  0
 15 17  1  0
 17 18  1  0
 17 19  2  0
 19 20  1  0
 19 21  1  0
 21 22  1  0
 22 23  2  0
 23 24  1  0
 24 25  1  0
 25 26  1  0
 26 27  1  0
 26 28  1  0
 26 29  1  0
 25 30  2  0
 21 31  2  0
 31 32  1  0
 10  3  1  0
 31 14  1  0
 30 22  1  0
M  CHG  2   4  -1  13  -1
M  END
>  <UniqueID>  (36) 
35

>  <SMILES>  (36) 
[H]/N=c1\[n-]ccnc1C(=O)[N-]c1cccc(-c2noc(C)n2)c1

>  <Energy>  (36) 
74.3199385357687

>  <Genealogy>  (36) 
Cc1nc(-c2cccc([N-]C(=O)c3ncc[n-]c3=N)c2)no1 (protonated)
[H]/N=c1\[n-]ccnc1C(=O)[N-]c1cccc(-c2noc(C)n2)c1 (cis-trans isomerization)
[H]/N=c1\[n-]ccnc1C(=O)[N-]c1cccc(-c2noc(C)n2)c1 (3D coordinates assigned)
[H]/N=c1\[n-]ccnc1C(=O)[N-]c1cccc(-c2noc(C)n2)c1 (optimized conformer: 74.3199385357687 kcal/mol)

>  <smiles>  (36) 
Cc1nc(-c2cccc(NC(=O)c3ncc[nH]c3=N)c2)no1

>  <score_type>  (36) 
oracle

>  <origin>  (36) 
adgpu

>  <m_score__min__energy>  (36) 
-10.18

>  <m_primary>  (36) 
energy

$$$$
36:0
     RDKit          3D

 54 57  0  0  0  0  0  0  0  0999 V2000
   -6.2960   19.8110  -31.4870 O   0  0  0  0  0  0  0  0  0  0  0  0
   -5.5780   20.5470  -32.2190 C   0  0  0  0  0  0  0  0  0  0  0  0
   -5.2030   20.0910  -33.5290 N   0  0  0  0  0  0  0  0  0  0  0  0
   -5.0310   18.7010  -33.8690 C   0  0  0  0  0  0  0  0  0  0  0  0
   -6.1350   17.9080  -34.2360 C   0  0  0  0  0  0  0  0  0  0  0  0
   -5.9720   16.5480  -34.5080 C   0  0  0  0  0  0  0  0  0  0  0  0
   -4.7110   15.9590  -34.4040 C   0  0  0  0  0  0  0  0  0  0  0  0
   -3.6100   16.7280  -34.0240 C   0  0  0  0  0  0  0  0  0  0  0  0
   -3.7600   18.0970  -33.7530 C   0  0  0  0  0  0  0  0  0  0  0  0
   -2.6140   18.8780  -33.3850 N   0  0  0  0  0  0  0  0  0  0  0  0
   -2.2700   20.0570  -34.1800 C   0  0  0  0  0  0  0  0  0  0  0  0
   -1.4650   21.0360  -33.3200 C   0  0  0  0  0  0  0  0  0  0  0  0
   -0.3580   20.3830  -32.7270 O   0  0  0  0  0  0  0  0  0  0  0  0
   -0.8130   19.4040  -31.8110 C   0  0  0  0  0  0  0  0  0  0  0  0
   -1.5770   18.2900  -32.5340 C   0  0  0  0  0  0  0  0  0  0  0  0
   -5.1480   21.8780  -31.7230 C   0  0  0  0  0  0  0  0  0  0  0  0
   -5.8860   23.0350  -32.0260 C   0  0  0  0  0  0  0  0  0  0  0  0
   -5.4540   24.2850  -31.5830 C   0  0  0  0  0  0  0  0  0  0  0  0
   -4.2800   24.4040  -30.8390 C   0  0  0  0  0  0  0  0  0  0  0  0
   -3.8630   25.6690  -30.4380 O   0  0  0  0  0  0  0  0  0  0  0  0
   -3.5260   23.2600  -30.5120 C   0  0  0  0  0  0  0  0  0  0  0  0
   -2.0150   23.4430  -29.5910 S   0  0  0  0  0  0  0  0  0  0  0  0
   -1.8520   24.8950  -29.2420 O   0  0  0  0  0  0  0  0  0  0  0  0
   -0.8740   23.0340  -30.4780 O   0  0  0  0  0  0  0  0  0  0  0  0
   -1.9120   22.5400  -28.0960 N   0  0  0  0  0  0  0  0  0  0  0  0
   -0.6250   21.8600  -27.9090 C   0  0  0  0  0  0  0  0  0  0  0  0
   -0.9110   20.4520  -27.4000 C   0  0  0  0  0  0  0  0  0  0  0  0
   -2.4020   20.4110  -27.1330 C   0  0  0  0  0  0  0  0  0  0  0  0
   -2.9770   21.5460  -27.9540 C   0  0  0  0  0  0  0  0  0  0  0  0
   -3.9630   22.0060  -30.9730 C   0  0  0  0  0  0  0  0  0  0  0  0
   -5.0960   20.8070  -34.2830 H   0  0  0  0  0  0  0  0  0  0  0  0
   -7.1337   18.3633  -34.3090 H   0  0  0  0  0  0  0  0  0  0  0  0
   -6.8392   15.9398  -34.8048 H   0  0  0  0  0  0  0  0  0  0  0  0
   -4.5848   14.8882  -34.6216 H   0  0  0  0  0  0  0  0  0  0  0  0
   -2.6191   16.2585  -33.9364 H   0  0  0  0  0  0  0  0  0  0  0  0
   -1.6678   19.7508  -35.0481 H   0  0  0  0  0  0  0  0  0  0  0  0
   -3.1918   20.5466  -34.5273 H   0  0  0  0  0  0  0  0  0  0  0  0
   -1.1027   21.8597  -33.9527 H   0  0  0  0  0  0  0  0  0  0  0  0
   -2.1154   21.4264  -32.5234 H   0  0  0  0  0  0  0  0  0  0  0  0
    0.0526   18.9678  -31.2909 H   0  0  0  0  0  0  0  0  0  0  0  0
   -1.4918   19.8852  -31.0916 H   0  0  0  0  0  0  0  0  0  0  0  0
   -0.8783   17.7107  -33.1555 H   0  0  0  0  0  0  0  0  0  0  0  0
   -2.0458   17.6273  -31.7917 H   0  0  0  0  0  0  0  0  0  0  0  0
   -6.8105   22.9542  -32.6165 H   0  0  0  0  0  0  0  0  0  0  0  0
   -6.0429   25.1829  -31.8219 H   0  0  0  0  0  0  0  0  0  0  0  0
   -0.0860   21.8093  -28.8666 H   0  0  0  0  0  0  0  0  0  0  0  0
   -0.0014   22.4095  -27.1885 H   0  0  0  0  0  0  0  0  0  0  0  0
   -0.6362   19.7057  -28.1599 H   0  0  0  0  0  0  0  0  0  0  0  0
   -0.3288   20.2196  -26.4961 H   0  0  0  0  0  0  0  0  0  0  0  0
   -2.8261   19.4480  -27.4537 H   0  0  0  0  0  0  0  0  0  0  0  0
   -2.6337   20.5157  -26.0628 H   0  0  0  0  0  0  0  0  0  0  0  0
   -3.2883   21.1792  -28.9432 H   0  0  0  0  0  0  0  0  0  0  0  0
   -3.8624   21.9798  -27.4662 H   0  0  0  0  0  0  0  0  0  0  0  0
   -3.3689   21.1090  -30.7439 H   0  0  0  0  0  0  0  0  0  0  0  0
  1  2  2  0
  2  3  1  0
  3  4  1  0
  4  5  2  0
  5  6  1  0
  6  7  2  0
  7  8  1  0
  8  9  2  0
  9 10  1  0
 10 11  1  0
 11 12  1  0
 12 13  1  0
 13 14  1  0
 14 15  1  0
  2 16  1  0
 16 17  2  0
 17 18  1  0
 18 19  2  0
 19 20  1  0
 19 21  1  0
 21 22  1  0
 22 23  2  0
 22 24  2  0
 22 25  1  0
 25 26  1  0
 26 27  1  0
 27 28  1  0
 28 29  1  0
 21 30  2  0
  9  4  1  0
 15 10  1  0
 30 16  1  0
 29 25  1  0
  3 31  1  0
  5 32  1  0
  6 33  1  0
  7 34  1  0
  8 35  1  0
 11 36  1  0
 11 37  1  0
 12 38  1  0
 12 39  1  0
 14 40  1  0
 14 41  1  0
 15 42  1  0
 15 43  1  0
 17 44  1  0
 18 45  1  0
 26 46  1  0
 26 47  1  0
 27 48  1  0
 27 49  1  0
 28 50  1  0
 28 51  1  0
 29 52  1  0
 29 53  1  0
 30 54  1  0
M  CHG  1  20  -1
M  END
>  <UniqueID>  (37) 
36

>  <SMILES>  (37) 
O=C(Nc1ccccc1N1CCOCC1)c1ccc([O-])c(S(=O)(=O)N2CCCC2)c1

>  <Energy>  (37) 
72.98362905056354

>  <Genealogy>  (37) 
O=C(Nc1ccccc1N1CCOCC1)c1ccc([O-])c(S(=O)(=O)N2CCCC2)c1 (protonated)
O=C(Nc1ccccc1N1CCOCC1)c1ccc([O-])c(S(=O)(=O)N2CCCC2)c1 (3D coordinates assigned)
O=C(Nc1ccccc1N1CCOCC1)c1ccc([O-])c(S(=O)(=O)N2CCCC2)c1 (nonaromatic ring conformer: 72.98362905056354 kcal/mol)

>  <smiles>  (37) 
O=C(Nc1ccccc1N1CCOCC1)c1ccc(O)c(S(=O)(=O)N2CCCC2)c1

>  <score_type>  (37) 
oracle

>  <origin>  (37) 
adgpu

>  <m_score__min__energy>  (37) 
-11.859999999999999

>  <m_primary>  (37) 
energy

$$$$
37:0
     RDKit          3D

 45 48  0  0  0  0  0  0  0  0999 V2000
   -8.4800   22.7080  -31.1280 O   0  0  0  0  0  0  0  0  0  0  0  0
   -7.3610   22.5110  -31.6720 C   0  0  0  0  0  0  0  0  0  0  0  0
   -7.2750   21.5510  -32.7330 N   0  0  0  0  0  0  0  0  0  0  0  0
   -7.0250   20.1430  -32.5890 C   0  0  0  0  0  0  0  0  0  0  0  0
   -8.0080   19.2890  -32.0550 C   0  0  0  0  0  0  0  0  0  0  0  0
   -7.7830   17.9130  -31.9790 C   0  0  0  0  0  0  0  0  0  0  0  0
   -6.5770   17.3760  -32.4330 C   0  0  0  0  0  0  0  0  0  0  0  0
   -5.5850   18.2160  -32.9410 C   0  0  0  0  0  0  0  0  0  0  0  0
   -5.7830   19.6020  -32.9910 C   0  0  0  0  0  0  0  0  0  0  0  0
   -4.7350   20.4210  -33.5290 N   0  0  0  0  0  0  0  0  0  0  0  0
   -3.3370   20.1170  -33.4630 C   0  0  0  0  0  0  0  0  0  0  0  0
   -2.8100   19.3420  -34.3050 O   0  0  0  0  0  0  0  0  0  0  0  0
   -2.5060   20.7500  -32.4320 C   0  0  0  0  0  0  0  0  0  0  0  0
   -2.5750   20.5180  -31.0740 C   0  0  0  0  0  0  0  0  0  0  0  0
   -1.6010   21.3440  -30.5470 C   0  0  0  0  0  0  0  0  0  0  0  0
   -1.2990   21.5260  -29.1090 C   0  0  0  0  0  0  0  0  0  0  0  0
   -1.4750   20.4380  -28.2340 C   0  0  0  0  0  0  0  0  0  0  0  0
   -1.2700   20.5870  -26.8610 C   0  0  0  0  0  0  0  0  0  0  0  0
   -0.8860   21.8220  -26.3410 C   0  0  0  0  0  0  0  0  0  0  0  0
   -0.6920   22.9080  -27.1960 C   0  0  0  0  0  0  0  0  0  0  0  0
   -0.8750   22.7710  -28.5770 C   0  0  0  0  0  0  0  0  0  0  0  0
   -0.5960   23.8770  -29.3840 O   0  0  0  0  0  0  0  0  0  0  0  0
   -1.0110   22.0350  -31.5410 N   0  0  0  0  0  0  0  0  0  0  0  0
   -1.5580   21.6700  -32.6910 N   0  0  0  0  0  0  0  0  0  0  0  0
   -6.1680   23.2310  -31.1650 C   0  0  0  0  0  0  0  0  0  0  0  0
   -5.1420   22.5420  -30.4940 C   0  0  0  0  0  0  0  0  0  0  0  0
   -4.0230   23.2310  -30.0160 C   0  0  0  0  0  0  0  0  0  0  0  0
   -3.9230   24.6140  -30.1920 C   0  0  0  0  0  0  0  0  0  0  0  0
   -2.8100   25.2960  -29.7170 O   0  0  0  0  0  0  0  0  0  0  0  0
   -4.9460   25.3090  -30.8420 C   0  0  0  0  0  0  0  0  0  0  0  0
   -6.0650   24.6240  -31.3220 C   0  0  0  0  0  0  0  0  0  0  0  0
   -8.9593   19.7080  -31.6953 H   0  0  0  0  0  0  0  0  0  0  0  0
   -8.5564   17.2518  -31.5612 H   0  0  0  0  0  0  0  0  0  0  0  0
   -6.4085   16.2898  -32.3903 H   0  0  0  0  0  0  0  0  0  0  0  0
   -4.6401   17.7864  -33.3051 H   0  0  0  0  0  0  0  0  0  0  0  0
   -3.2485   19.8346  -30.5361 H   0  0  0  0  0  0  0  0  0  0  0  0
   -1.7773   19.4597  -28.6360 H   0  0  0  0  0  0  0  0  0  0  0  0
   -1.4118   19.7282  -26.1884 H   0  0  0  0  0  0  0  0  0  0  0  0
   -0.7360   21.9406  -25.2577 H   0  0  0  0  0  0  0  0  0  0  0  0
   -0.3923   23.8814  -26.7804 H   0  0  0  0  0  0  0  0  0  0  0  0
   -1.0710   24.0620  -30.2570 H   0  0  0  0  0  0  0  0  0  0  0  0
   -5.2201   21.4550  -30.3443 H   0  0  0  0  0  0  0  0  0  0  0  0
   -3.2200   22.6836  -29.5006 H   0  0  0  0  0  0  0  0  0  0  0  0
   -4.8702   26.3982  -30.9761 H   0  0  0  0  0  0  0  0  0  0  0  0
   -6.8705   25.1783  -31.8260 H   0  0  0  0  0  0  0  0  0  0  0  0
  1  2  2  0
  2  3  1  0
  3  4  1  0
  4  5  2  0
  5  6  1  0
  6  7  2  0
  7  8  1  0
  8  9  2  0
  9 10  1  0
 10 11  1  0
 11 12  2  0
 11 13  1  0
 13 14  1  0
 14 15  2  0
 15 16  1  0
 16 17  2  0
 17 18  1  0
 18 19  2  0
 19 20  1  0
 20 21  2  0
 21 22  1  0
 15 23  1  0
 23 24  1  0
  2 25  1  0
 25 26  2  0
 26 27  1  0
 27 28  2  0
 28 29  1  0
 28 30  1  0
 30 31  2  0
  9  4  1  0
 24 13  2  0
 31 25  1  0
 21 16  1  0
  5 32  1  0
  6 33  1  0
  7 34  1  0
  8 35  1  0
 14 36  1  0
 17 37  1  0
 18 38  1  0
 19 39  1  0
 20 40  1  0
 22 41  1  0
 26 42  1  0
 27 43  1  0
 30 44  1  0
 31 45  1  0
M  CHG  4   3  -1  10  -1  23  -1  29  -1
M  END
>  <UniqueID>  (38) 
37

>  <SMILES>  (38) 
O=C([N-]c1ccccc1[N-]C(=O)c1cc(-c2ccccc2O)[n-]n1)c1ccc([O-])cc1

>  <Energy>  (38) 
97.28962515650787

>  <Genealogy>  (38) 
O=C([N-]c1ccccc1[N-]C(=O)c1cc(-c2ccccc2O)[n-]n1)c1ccc([O-])cc1 (protonated)
O=C([N-]c1ccccc1[N-]C(=O)c1cc(-c2ccccc2O)[n-]n1)c1ccc([O-])cc1 (3D coordinates assigned)
O=C([N-]c1ccccc1[N-]C(=O)c1cc(-c2ccccc2O)[n-]n1)c1ccc([O-])cc1 (optimized conformer: 97.28962515650787 kcal/mol)

>  <smiles>  (38) 
O=C(Nc1ccccc1NC(=O)c1cc(-c2ccccc2O)[nH]n1)c1ccc(O)cc1

>  <score_type>  (38) 
oracle

>  <origin>  (38) 
adgpu

>  <m_score__min__energy>  (38) 
-12.85

>  <m_primary>  (38) 
energy

$$$$
38:0
     RDKit          3D

 39 41  0  0  0  0  0  0  0  0999 V2000
   -5.9000   26.2280  -30.3340 O   0  0  0  0  0  0  0  0  0  0  0  0
   -5.2070   25.2290  -30.6650 C   0  0  0  0  0  0  0  0  0  0  0  0
   -3.7940   25.2590  -30.4160 N   0  0  0  0  0  0  0  0  0  0  0  0
   -3.1060   24.4930  -29.4150 C   0  0  0  0  0  0  0  0  0  0  0  0
   -3.7250   23.3470  -28.8990 C   0  0  0  0  0  0  0  0  0  0  0  0
   -3.0730   22.5580  -27.9470 C   0  0  0  0  0  0  0  0  0  0  0  0
   -1.8050   22.9200  -27.4880 C   0  0  0  0  0  0  0  0  0  0  0  0
   -1.1940   24.0820  -27.9680 C   0  0  0  0  0  0  0  0  0  0  0  0
   -1.8420   24.8770  -28.9200 C   0  0  0  0  0  0  0  0  0  0  0  0
   -1.2330   26.0520  -29.3440 O   0  0  0  0  0  0  0  0  0  0  0  0
   -5.8690   24.0490  -31.2650 C   0  0  0  0  0  0  0  0  0  0  0  0
   -7.2550   23.8610  -31.1340 C   0  0  0  0  0  0  0  0  0  0  0  0
   -7.8630   22.7110  -31.6410 C   0  0  0  0  0  0  0  0  0  0  0  0
   -7.0940   21.7270  -32.2830 C   0  0  0  0  0  0  0  0  0  0  0  0
   -7.6830   20.5100  -32.7600 N   0  0  0  0  0  0  0  0  0  0  0  0
   -7.5130   19.2150  -32.1650 C   0  0  0  0  0  0  0  0  0  0  0  0
   -8.2030   18.9140  -31.1560 O   0  0  0  0  0  0  0  0  0  0  0  0
   -6.5540   18.2240  -32.7060 C   0  0  0  0  0  0  0  0  0  0  0  0
   -6.1570   17.1530  -31.8880 C   0  0  0  0  0  0  0  0  0  0  0  0
   -5.1860   16.2500  -32.3250 C   0  0  0  0  0  0  0  0  0  0  0  0
   -4.6070   16.4000  -33.5850 C   0  0  0  0  0  0  0  0  0  0  0  0
   -5.0140   17.4410  -34.4220 C   0  0  0  0  0  0  0  0  0  0  0  0
   -5.9950   18.3470  -34.0020 C   0  0  0  0  0  0  0  0  0  0  0  0
   -6.4070   19.3330  -34.9000 O   0  0  0  0  0  0  0  0  0  0  0  0
   -5.7260   21.9470  -32.4800 C   0  0  0  0  0  0  0  0  0  0  0  0
   -5.1150   23.0980  -31.9720 C   0  0  0  0  0  0  0  0  0  0  0  0
   -4.7306   23.0663  -29.2453 H   0  0  0  0  0  0  0  0  0  0  0  0
   -3.5594   21.6509  -27.5590 H   0  0  0  0  0  0  0  0  0  0  0  0
   -1.2871   22.2910  -26.7490 H   0  0  0  0  0  0  0  0  0  0  0  0
   -0.2004   24.3725  -27.5961 H   0  0  0  0  0  0  0  0  0  0  0  0
   -7.8649   24.6245  -30.6289 H   0  0  0  0  0  0  0  0  0  0  0  0
   -8.9496   22.5751  -31.5370 H   0  0  0  0  0  0  0  0  0  0  0  0
   -6.6146   17.0250  -30.8959 H   0  0  0  0  0  0  0  0  0  0  0  0
   -4.8770   15.4186  -31.6743 H   0  0  0  0  0  0  0  0  0  0  0  0
   -3.8292   15.6978  -33.9196 H   0  0  0  0  0  0  0  0  0  0  0  0
   -4.5606   17.5499  -35.4183 H   0  0  0  0  0  0  0  0  0  0  0  0
   -7.2460   19.8830  -34.7680 H   0  0  0  0  0  0  0  0  0  0  0  0
   -5.1282   21.2108  -33.0373 H   0  0  0  0  0  0  0  0  0  0  0  0
   -4.0380   23.2593  -32.1270 H   0  0  0  0  0  0  0  0  0  0  0  0
  1  2  2  0
  2  3  1  0
  3  4  1  0
  4  5  2  0
  5  6  1  0
  6  7  2  0
  7  8  1  0
  8  9  2  0
  9 10  1  0
  2 11  1  0
 11 12  2  0
 12 13  1  0
 13 14  2  0
 14 15  1  0
 15 16  1  0
 16 17  2  0
 16 18  1  0
 18 19  2  0
 19 20  1  0
 20 21  2  0
 21 22  1  0
 22 23  2  0
 23 24  1  0
 14 25  1  0
 25 26  2  0
  9  4  1  0
 26 11  1  0
 23 18  1  0
  5 27  1  0
  6 28  1  0
  7 29  1  0
  8 30  1  0
 12 31  1  0
 13 32  1  0
 19 33  1  0
 20 34  1  0
 21 35  1  0
 22 36  1  0
 24 37  1  0
 25 38  1  0
 26 39  1  0
M  CHG  3   3  -1  10  -1  15  -1
M  END
>  <UniqueID>  (39) 
38

>  <SMILES>  (39) 
O=C([N-]c1ccccc1[O-])c1ccc([N-]C(=O)c2ccccc2O)cc1

>  <Energy>  (39) 
58.781570746166125

>  <Genealogy>  (39) 
O=C([N-]c1ccccc1[O-])c1ccc([N-]C(=O)c2ccccc2O)cc1 (protonated)
O=C([N-]c1ccccc1[O-])c1ccc([N-]C(=O)c2ccccc2O)cc1 (3D coordinates assigned)
O=C([N-]c1ccccc1[O-])c1ccc([N-]C(=O)c2ccccc2O)cc1 (optimized conformer: 58.781570746166125 kcal/mol)

>  <smiles>  (39) 
O=C(Nc1ccccc1O)c1ccc(NC(=O)c2ccccc2O)cc1

>  <score_type>  (39) 
oracle

>  <origin>  (39) 
adgpu

>  <m_score__min__energy>  (39) 
-14.130000000000001

>  <m_primary>  (39) 
energy

$$$$
39:0
     RDKit          3D

 74 78  0  0  0  0  0  0  0  0999 V2000
   -9.4001   22.7368  -31.6132 H   0  0  0  0  0  0  0  0  0  0  0  0
   -8.3910   22.3110  -31.7150 C   0  0  0  0  0  0  0  0  0  0  0  0
   -7.3060   23.0660  -31.4070 N   0  0  0  0  0  0  0  0  0  0  0  0
   -6.0500   22.5690  -31.5350 C   0  0  0  0  0  0  0  0  0  0  0  0
   -5.0310   23.2860  -31.1580 N   0  0  0  0  0  0  0  0  0  0  0  0
   -3.6790   22.7970  -31.1360 C   0  0  0  0  0  0  0  0  0  0  0  0
   -3.1240   22.3010  -32.3230 C   0  0  0  0  0  0  0  0  0  0  0  0
   -3.6930   22.3703  -33.2619 H   0  0  0  0  0  0  0  0  0  0  0  0
   -1.8470   21.7160  -32.3240 C   0  0  0  0  0  0  0  0  0  0  0  0
   -1.2750   21.1690  -33.5730 C   0  0  0  0  0  0  0  0  0  0  0  0
   -0.4720   21.8650  -34.2540 O   0  0  0  0  0  0  0  0  0  0  0  0
   -1.5890   19.8410  -34.0090 N   0  0  0  0  0  0  0  0  0  0  0  0
   -1.1770   18.6460  -33.3210 C   0  0  0  0  0  0  0  0  0  0  0  0
   -0.3400   18.7000  -32.1950 C   0  0  0  0  0  0  0  0  0  0  0  0
    0.0452   19.6702  -31.8482 H   0  0  0  0  0  0  0  0  0  0  0  0
    0.0090   17.5290  -31.5090 C   0  0  0  0  0  0  0  0  0  0  0  0
    0.8190   17.6060  -30.3220 N   0  0  0  0  0  0  0  0  0  0  0  0
    1.6880   18.7560  -30.0700 C   0  0  0  0  0  0  0  0  0  0  0  0
    2.7234   18.4083  -29.9395 H   0  0  0  0  0  0  0  0  0  0  0  0
    1.6306   19.4457  -30.9250 H   0  0  0  0  0  0  0  0  0  0  0  0
    1.2330   19.4920  -28.7960 C   0  0  0  0  0  0  0  0  0  0  0  0
    2.1073   19.9884  -28.3497 H   0  0  0  0  0  0  0  0  0  0  0  0
    0.4546   20.2086  -29.0971 H   0  0  0  0  0  0  0  0  0  0  0  0
    0.6300   18.5950  -27.7760 N   0  0  0  0  0  0  0  0  0  0  0  0
   -0.8400   18.7040  -27.7650 C   0  0  0  0  0  0  0  0  0  0  0  0
   -1.1979   18.7305  -26.7252 H   0  0  0  0  0  0  0  0  0  0  0  0
   -1.1431   19.6271  -28.2808 H   0  0  0  0  0  0  0  0  0  0  0  0
   -1.2759   17.8357  -28.2808 H   0  0  0  0  0  0  0  0  0  0  0  0
    1.0710   17.1860  -27.9000 C   0  0  0  0  0  0  0  0  0  0  0  0
    2.1636   17.1423  -27.7806 H   0  0  0  0  0  0  0  0  0  0  0  0
    0.5661   16.5980  -27.1194 H   0  0  0  0  0  0  0  0  0  0  0  0
    0.6940   16.5910  -29.2700 C   0  0  0  0  0  0  0  0  0  0  0  0
    1.3656   15.7498  -29.4967 H   0  0  0  0  0  0  0  0  0  0  0  0
   -0.3490   16.2435  -29.2325 H   0  0  0  0  0  0  0  0  0  0  0  0
   -0.4970   16.2980  -31.9470 C   0  0  0  0  0  0  0  0  0  0  0  0
   -0.2442   15.3791  -31.3977 H   0  0  0  0  0  0  0  0  0  0  0  0
   -1.3250   16.2250  -33.0820 C   0  0  0  0  0  0  0  0  0  0  0  0
   -1.9440   14.9140  -33.4930 C   0  0  0  0  0  0  0  0  0  0  0  0
   -2.6470   15.0670  -34.6770 F   0  0  0  0  0  0  0  0  0  0  0  0
   -0.9780   13.9410  -33.6840 F   0  0  0  0  0  0  0  0  0  0  0  0
   -2.8100   14.4940  -32.5030 F   0  0  0  0  0  0  0  0  0  0  0  0
   -1.6720   17.4110  -33.7550 C   0  0  0  0  0  0  0  0  0  0  0  0
   -2.3378   17.3671  -34.6295 H   0  0  0  0  0  0  0  0  0  0  0  0
   -1.1210   21.6410  -31.1270 C   0  0  0  0  0  0  0  0  0  0  0  0
   -0.1407   21.1421  -31.1114 H   0  0  0  0  0  0  0  0  0  0  0  0
   -1.6370   22.1970  -29.9540 C   0  0  0  0  0  0  0  0  0  0  0  0
   -1.0488   22.1519  -29.0256 H   0  0  0  0  0  0  0  0  0  0  0  0
   -2.8990   22.8130  -29.9480 C   0  0  0  0  0  0  0  0  0  0  0  0
   -3.3720   23.4970  -28.6940 C   0  0  0  0  0  0  0  0  0  0  0  0
   -2.9957   22.9528  -27.8152 H   0  0  0  0  0  0  0  0  0  0  0  0
   -2.9943   24.5300  -28.6750 H   0  0  0  0  0  0  0  0  0  0  0  0
   -4.4718   23.5083  -28.6750 H   0  0  0  0  0  0  0  0  0  0  0  0
   -5.8730   21.3200  -32.0420 N   0  0  0  0  0  0  0  0  0  0  0  0
   -6.9170   20.5210  -32.3920 C   0  0  0  0  0  0  0  0  0  0  0  0
   -6.5950   19.1990  -33.0030 C   0  0  0  0  0  0  0  0  0  0  0  0
   -6.0450   19.0880  -34.2940 C   0  0  0  0  0  0  0  0  0  0  0  0
   -5.9252   19.9893  -34.9131 H   0  0  0  0  0  0  0  0  0  0  0  0
   -5.6480   17.8420  -34.8000 C   0  0  0  0  0  0  0  0  0  0  0  0
   -5.2520   17.7701  -35.8237 H   0  0  0  0  0  0  0  0  0  0  0  0
   -5.7510   16.6930  -34.0160 C   0  0  0  0  0  0  0  0  0  0  0  0
   -5.2910   15.4820  -34.5540 O   0  0  0  0  0  0  0  0  0  0  0  0
   -5.6640   14.1830  -34.0980 C   0  0  0  0  0  0  0  0  0  0  0  0
   -7.0250   13.9920  -34.2600 F   0  0  0  0  0  0  0  0  0  0  0  0
   -5.3230   14.0320  -32.7640 F   0  0  0  0  0  0  0  0  0  0  0  0
   -4.9930   13.2250  -34.8450 F   0  0  0  0  0  0  0  0  0  0  0  0
   -6.2920   16.7970  -32.7180 C   0  0  0  0  0  0  0  0  0  0  0  0
   -6.3908   15.8982  -32.0916 H   0  0  0  0  0  0  0  0  0  0  0  0
   -6.7030   18.0380  -32.2250 C   0  0  0  0  0  0  0  0  0  0  0  0
   -7.1185   18.1051  -31.2087 H   0  0  0  0  0  0  0  0  0  0  0  0
   -8.2330   20.9890  -32.1630 C   0  0  0  0  0  0  0  0  0  0  0  0
   -9.4590   20.1360  -32.3280 C   0  0  0  0  0  0  0  0  0  0  0  0
   -9.8516   19.8628  -31.3374 H   0  0  0  0  0  0  0  0  0  0  0  0
  -10.2244   20.6976  -32.8837 H   0  0  0  0  0  0  0  0  0  0  0  0
   -9.1985   19.2231  -32.8837 H   0  0  0  0  0  0  0  0  0  0  0  0
  1  2  1  0
  2  3  1  0
  3  4  1  0
  4  5  2  0
  5  6  1  0
  6  7  2  0
  7  8  1  0
  7  9  1  0
  9 10  1  0
 10 11  2  0
 10 12  1  0
 12 13  1  0
 13 14  2  0
 14 15  1  0
 14 16  1  0
 16 17  1  0
 17 18  1  0
 18 19  1  0
 18 20  1  0
 18 21  1  0
 21 22  1  0
 21 23  1  0
 21 24  1  0
 24 25  1  0
 25 26  1  0
 25 27  1  0
 25 28  1  0
 24 29  1  0
 29 30  1  0
 29 31  1  0
 29 32  1  0
 32 33  1  0
 32 34  1  0
 16 35  2  0
 35 36  1  0
 35 37  1  0
 37 38  1  0
 38 39  1  0
 38 40  1  0
 38 41  1  0
 37 42  2  0
 42 43  1  0
  9 44  2  0
 44 45  1  0
 44 46  1  0
 46 47  1  0
 46 48  2  0
 48 49  1  0
 49 50  1  0
 49 51  1  0
 49 52  1  0
  4 53  1  0
 53 54  2  0
 54 55  1  0
 55 56  2  0
 56 57  1  0
 56 58  1  0
 58 59  1  0
 58 60  2  0
 60 61  1  0
 61 62  1  0
 62 63  1  0
 62 64  1  0
 62 65  1  0
 60 66  1  0
 66 67  1  0
 66 68  2  0
 68 69  1  0
 54 70  1  0
 70 71  1  0
 71 72  1  0
 71 73  1  0
 71 74  1  0
 70  2  2  0
 48  6  1  0
 68 55  1  0
 42 13  1  0
 32 17  1  0
M  CHG  2   3  -1  12  -1
M  END
>  <UniqueID>  (40) 
39

>  <SMILES>  (40) 
Cc1ccc(C(=O)[N-]c2cc(N3CCN(C)CC3)cc(C(F)(F)F)c2)cc1/N=c1\nc(-c2ccc(OC(F)(F)F)cc2)c(C)c[n-]1

>  <Energy>  (40) 
109.43711243101694

>  <Genealogy>  (40) 
Cc1ccc(C(=O)[N-]c2cc(N3CCN(C)CC3)cc(C(F)(F)F)c2)cc1N=c1nc(-c2ccc(OC(F)(F)F)cc2)c(C)c[n-]1 (protonated)
Cc1ccc(C(=O)[N-]c2cc(N3CCN(C)CC3)cc(C(F)(F)F)c2)cc1/N=c1\nc(-c2ccc(OC(F)(F)F)cc2)c(C)c[n-]1 (cis-trans isomerization)
Cc1ccc(C(=O)[N-]c2cc(N3CCN(C)CC3)cc(C(F)(F)F)c2)cc1/N=c1\nc(-c2ccc(OC(F)(F)F)cc2)c(C)c[n-]1 (3D coordinates assigned)
Cc1ccc(C(=O)[N-]c2cc(N3CCN(C)CC3)cc(C(F)(F)F)c2)cc1/N=c1\nc(-c2ccc(OC(F)(F)F)cc2)c(C)c[n-]1 (nonaromatic ring conformer: 109.43711243101694 kcal/mol)

>  <smiles>  (40) 
Cc1ccc(C(=O)Nc2cc(N3CCN(C)CC3)cc(C(F)(F)F)c2)cc1N=c1nc(-c2ccc(OC(F)(F)F)cc2)c(C)c[nH]1

>  <score_type>  (40) 
oracle

>  <origin>  (40) 
adgpu

>  <m_score__min__energy>  (40) 
-11.9

>  <m_primary>  (40) 
energy

$$$$
40:0
     RDKit          3D

 48 50  0  0  0  0  0  0  0  0999 V2000
   -0.0420   26.4500  -27.1690 C   0  0  0  0  0  0  0  0  0  0  0  0
   -1.3320   25.7160  -27.3830 C   0  0  0  0  0  0  0  0  0  0  0  0
   -2.2560   25.5770  -26.3360 C   0  0  0  0  0  0  0  0  0  0  0  0
   -3.4690   24.9200  -26.5510 C   0  0  0  0  0  0  0  0  0  0  0  0
   -3.7760   24.4080  -27.8150 C   0  0  0  0  0  0  0  0  0  0  0  0
   -2.8680   24.5570  -28.8790 C   0  0  0  0  0  0  0  0  0  0  0  0
   -3.1460   24.0590  -30.1950 N   0  0  0  0  0  0  0  0  0  0  0  0
   -3.6830   22.4520  -30.5630 S   0  0  0  0  0  0  0  0  0  0  0  0
   -2.7720   21.8550  -31.6010 O   0  0  0  0  0  0  0  0  0  0  0  0
   -3.6570   21.5980  -29.3270 O   0  0  0  0  0  0  0  0  0  0  0  0
   -5.3380   22.5300  -31.1790 C   0  0  0  0  0  0  0  0  0  0  0  0
   -6.0410   21.3380  -31.4110 C   0  0  0  0  0  0  0  0  0  0  0  0
   -7.3540   21.3640  -31.8990 C   0  0  0  0  0  0  0  0  0  0  0  0
   -8.2290   19.8550  -32.1670 S   0  0  0  0  0  0  0  0  0  0  0  0
   -8.7160   19.3180  -30.8490 O   0  0  0  0  0  0  0  0  0  0  0  0
   -9.4310   20.1280  -33.0280 O   0  0  0  0  0  0  0  0  0  0  0  0
   -7.2220   18.6580  -32.9450 N   0  0  0  0  0  0  0  0  0  0  0  0
   -6.2620   19.3090  -33.8530 C   0  0  0  0  0  0  0  0  0  0  0  0
   -5.5490   18.2550  -34.7210 C   0  0  0  0  0  0  0  0  0  0  0  0
   -5.5380   16.8630  -34.0660 C   0  0  0  0  0  0  0  0  0  0  0  0
   -5.4010   16.9730  -32.5440 C   0  0  0  0  0  0  0  0  0  0  0  0
   -6.5210   17.8440  -31.9300 C   0  0  0  0  0  0  0  0  0  0  0  0
   -7.9690   22.5930  -32.1610 C   0  0  0  0  0  0  0  0  0  0  0  0
   -7.2800   23.7850  -31.9350 C   0  0  0  0  0  0  0  0  0  0  0  0
   -5.9700   23.7680  -31.4440 C   0  0  0  0  0  0  0  0  0  0  0  0
   -5.3330   24.9930  -31.2320 O   0  0  0  0  0  0  0  0  0  0  0  0
   -1.6520   25.2140  -28.6540 C   0  0  0  0  0  0  0  0  0  0  0  0
    0.1448   26.5563  -26.0902 H   0  0  0  0  0  0  0  0  0  0  0  0
    0.7819   25.8854  -27.6299 H   0  0  0  0  0  0  0  0  0  0  0  0
   -0.1064   27.4467  -27.6299 H   0  0  0  0  0  0  0  0  0  0  0  0
   -2.0237   25.9872  -25.3421 H   0  0  0  0  0  0  0  0  0  0  0  0
   -4.1848   24.8050  -25.7238 H   0  0  0  0  0  0  0  0  0  0  0  0
   -4.7309   23.8868  -27.9782 H   0  0  0  0  0  0  0  0  0  0  0  0
   -5.5557   20.3721  -31.2074 H   0  0  0  0  0  0  0  0  0  0  0  0
   -6.7994   20.0131  -34.5052 H   0  0  0  0  0  0  0  0  0  0  0  0
   -5.5119   19.8473  -33.2550 H   0  0  0  0  0  0  0  0  0  0  0  0
   -6.0674   18.1856  -35.6887 H   0  0  0  0  0  0  0  0  0  0  0  0
   -4.5038   18.5749  -34.8445 H   0  0  0  0  0  0  0  0  0  0  0  0
   -6.4784   16.3452  -34.3060 H   0  0  0  0  0  0  0  0  0  0  0  0
   -4.6773   16.2995  -34.4554 H   0  0  0  0  0  0  0  0  0  0  0  0
   -5.4540   15.9647  -32.1076 H   0  0  0  0  0  0  0  0  0  0  0  0
   -4.4350   17.4493  -32.3204 H   0  0  0  0  0  0  0  0  0  0  0  0
   -7.2522   17.1848  -31.4392 H   0  0  0  0  0  0  0  0  0  0  0  0
   -6.0539   18.5334  -31.2113 H   0  0  0  0  0  0  0  0  0  0  0  0
   -8.9989   22.6196  -32.5464 H   0  0  0  0  0  0  0  0  0  0  0  0
   -7.7711   24.7467  -32.1447 H   0  0  0  0  0  0  0  0  0  0  0  0
   -4.7150   25.1730  -30.4520 H   0  0  0  0  0  0  0  0  0  0  0  0
   -0.9395   25.3381  -29.4828 H   0  0  0  0  0  0  0  0  0  0  0  0
  1  2  1  0
  2  3  2  0
  3  4  1  0
  4  5  2  0
  5  6  1  0
  6  7  1  0
  7  8  1  0
  8  9  2  0
  8 10  2  0
  8 11  1  0
 11 12  2  0
 12 13  1  0
 13 14  1  0
 14 15  2  0
 14 16  2  0
 14 17  1  0
 17 18  1  0
 18 19  1  0
 19 20  1  0
 20 21  1  0
 21 22  1  0
 13 23  2  0
 23 24  1  0
 24 25  2  0
 25 26  1  0
  6 27  2  0
 27  2  1  0
 25 11  1  0
 22 17  1  0
  1 28  1  0
  1 29  1  0
  1 30  1  0
  3 31  1  0
  4 32  1  0
  5 33  1  0
 12 34  1  0
 18 35  1  0
 18 36  1  0
 19 37  1  0
 19 38  1  0
 20 39  1  0
 20 40  1  0
 21 41  1  0
 21 42  1  0
 22 43  1  0
 22 44  1  0
 23 45  1  0
 24 46  1  0
 26 47  1  0
 27 48  1  0
M  CHG  1   7  -1
M  END
>  <UniqueID>  (41) 
40

>  <SMILES>  (41) 
Cc1cccc([N-]S(=O)(=O)c2cc(S(=O)(=O)N3CCCCC3)ccc2O)c1

>  <Energy>  (41) 
56.27103627683298

>  <Genealogy>  (41) 
Cc1cccc([N-]S(=O)(=O)c2cc(S(=O)(=O)N3CCCCC3)ccc2O)c1 (protonated)
Cc1cccc([N-]S(=O)(=O)c2cc(S(=O)(=O)N3CCCCC3)ccc2O)c1 (3D coordinates assigned)
Cc1cccc([N-]S(=O)(=O)c2cc(S(=O)(=O)N3CCCCC3)ccc2O)c1 (nonaromatic ring conformer: 56.27103627683298 kcal/mol)

>  <smiles>  (41) 
Cc1cccc(NS(=O)(=O)c2cc(S(=O)(=O)N3CCCCC3)ccc2O)c1

>  <score_type>  (41) 
oracle

>  <origin>  (41) 
adgpu

>  <m_score__min__energy>  (41) 
-11

>  <m_primary>  (41) 
energy

$$$$
41:0
     RDKit          3D

 55 58  0  0  0  0  0  0  0  0999 V2000
   -0.9660   20.0570  -34.7760 N   0  0  0  0  0  0  0  0  0  0  0  0
   -0.9460   18.6370  -34.5830 C   0  0  0  0  0  0  0  0  0  0  0  0
   -0.4370   17.8190  -35.6040 C   0  0  0  0  0  0  0  0  0  0  0  0
   -0.4430   16.4290  -35.4690 C   0  0  0  0  0  0  0  0  0  0  0  0
   -0.9520   15.8420  -34.3120 C   0  0  0  0  0  0  0  0  0  0  0  0
   -1.4530   16.6420  -33.2840 C   0  0  0  0  0  0  0  0  0  0  0  0
   -1.4600   18.0440  -33.4060 C   0  0  0  0  0  0  0  0  0  0  0  0
   -1.9220   18.8550  -32.3110 N   0  0  0  0  0  0  0  0  0  0  0  0
   -1.0340   19.6380  -31.4970 C   0  0  0  0  0  0  0  0  0  0  0  0
    0.1790   19.3020  -31.4060 O   0  0  0  0  0  0  0  0  0  0  0  0
   -1.5220   20.8220  -30.7480 C   0  0  0  0  0  0  0  0  0  0  0  0
   -2.8540   20.9010  -30.3000 C   0  0  0  0  0  0  0  0  0  0  0  0
   -3.3150   22.0430  -29.6390 C   0  0  0  0  0  0  0  0  0  0  0  0
   -2.4550   23.1280  -29.4160 C   0  0  0  0  0  0  0  0  0  0  0  0
   -2.9680   24.3890  -28.7800 C   0  0  0  0  0  0  0  0  0  0  0  0
   -3.4680   25.2990  -29.8030 N   0  0  0  0  0  0  0  0  0  0  0  0
   -4.8010   25.2220  -30.3110 C   0  0  0  0  0  0  0  0  0  0  0  0
   -5.7520   25.6540  -29.6090 O   0  0  0  0  0  0  0  0  0  0  0  0
   -5.0860   24.6230  -31.5810 N   0  0  0  0  0  0  0  0  0  0  0  0
   -5.7720   23.3840  -31.8070 C   0  0  0  0  0  0  0  0  0  0  0  0
   -7.1300   23.3130  -31.4830 C   0  0  0  0  0  0  0  0  0  0  0  0
   -7.8400   22.1300  -31.6690 C   0  0  0  0  0  0  0  0  0  0  0  0
   -7.2060   20.9950  -32.1790 C   0  0  0  0  0  0  0  0  0  0  0  0
   -8.1820   19.5480  -32.4120 Cl  0  0  0  0  0  0  0  0  0  0  0  0
   -5.8380   21.0470  -32.5280 C   0  0  0  0  0  0  0  0  0  0  0  0
   -5.0160   19.6050  -33.1680 S   0  0  0  0  0  0  0  0  0  0  0  0
   -4.7610   18.6490  -32.0360 O   0  0  0  0  0  0  0  0  0  0  0  0
   -3.6820   19.9750  -33.7530 O   0  0  0  0  0  0  0  0  0  0  0  0
   -5.9780   18.7600  -34.4270 C   0  0  0  0  0  0  0  0  0  0  0  0
   -5.2320   17.7940  -35.3370 C   0  0  0  0  0  0  0  0  0  0  0  0
   -6.0890   17.2600  -34.2030 C   0  0  0  0  0  0  0  0  0  0  0  0
   -5.1370   22.2660  -32.3850 C   0  0  0  0  0  0  0  0  0  0  0  0
   -3.8330   22.3820  -32.8530 O   0  0  0  0  0  0  0  0  0  0  0  0
   -1.1300   23.0580  -29.8660 C   0  0  0  0  0  0  0  0  0  0  0  0
   -0.6660   21.9150  -30.5230 C   0  0  0  0  0  0  0  0  0  0  0  0
   -0.0940   20.6290  -34.7810 H   0  0  0  0  0  0  0  0  0  0  0  0
   -1.8740   20.5690  -34.8480 H   0  0  0  0  0  0  0  0  0  0  0  0
   -0.0301   18.2766  -36.5178 H   0  0  0  0  0  0  0  0  0  0  0  0
   -0.0456   15.7968  -36.2767 H   0  0  0  0  0  0  0  0  0  0  0  0
   -0.9589   14.7469  -34.2089 H   0  0  0  0  0  0  0  0  0  0  0  0
   -1.8460   16.1725  -32.3702 H   0  0  0  0  0  0  0  0  0  0  0  0
   -2.9410   18.8550  -32.0850 H   0  0  0  0  0  0  0  0  0  0  0  0
   -3.5380   20.0568  -30.4716 H   0  0  0  0  0  0  0  0  0  0  0  0
   -4.3577   22.0909  -29.2919 H   0  0  0  0  0  0  0  0  0  0  0  0
   -3.7832   24.1401  -28.0847 H   0  0  0  0  0  0  0  0  0  0  0  0
   -2.1466   24.8769  -28.2348 H   0  0  0  0  0  0  0  0  0  0  0  0
   -7.6415   24.1986  -31.0780 H   0  0  0  0  0  0  0  0  0  0  0  0
   -8.9088   22.0890  -31.4122 H   0  0  0  0  0  0  0  0  0  0  0  0
   -6.6700   19.5955  -34.6091 H   0  0  0  0  0  0  0  0  0  0  0  0
   -5.5547   17.6606  -36.3801 H   0  0  0  0  0  0  0  0  0  0  0  0
   -4.1836   17.6683  -35.6453 H   0  0  0  0  0  0  0  0  0  0  0  0
   -7.0322   16.7394  -34.4250 H   0  0  0  0  0  0  0  0  0  0  0  0
   -5.9177   16.5869  -33.3500 H   0  0  0  0  0  0  0  0  0  0  0  0
   -0.4510   23.9076  -29.7013 H   0  0  0  0  0  0  0  0  0  0  0  0
    0.3778   21.8699  -30.8671 H   0  0  0  0  0  0  0  0  0  0  0  0
  1  2  1  0
  2  3  2  0
  3  4  1  0
  4  5  2  0
  5  6  1  0
  6  7  2  0
  7  8  1  0
  8  9  1  0
  9 10  2  0
  9 11  1  0
 11 12  2  0
 12 13  1  0
 13 14  2  0
 14 15  1  0
 15 16  1  0
 16 17  1  0
 17 18  2  0
 17 19  1  0
 19 20  1  0
 20 21  2  0
 21 22  1  0
 22 23  2  0
 23 24  1  0
 23 25  1  0
 25 26  1  0
 26 27  2  0
 26 28  2  0
 26 29  1  0
 29 30  1  0
 30 31  1  0
 25 32  2  0
 32 33  1  0
 14 34  1  0
 34 35  2  0
  7  2  1  0
 35 11  1  0
 32 20  1  0
 31 29  1  0
  1 36  1  0
  1 37  1  0
  3 38  1  0
  4 39  1  0
  5 40  1  0
  6 41  1  0
  8 42  1  0
 12 43  1  0
 13 44  1  0
 15 45  1  0
 15 46  1  0
 21 47  1  0
 22 48  1  0
 29 49  1  0
 30 50  1  0
 30 51  1  0
 31 52  1  0
 31 53  1  0
 34 54  1  0
 35 55  1  0
M  CHG  3  16  -1  19  -1  33  -1
M  END
>  <UniqueID>  (42) 
41

>  <SMILES>  (42) 
Nc1ccccc1NC(=O)c1ccc(C[N-]C(=O)[N-]c2ccc(Cl)c(S(=O)(=O)C3CC3)c2[O-])cc1

>  <Energy>  (42) 
336.1752716597714

>  <Genealogy>  (42) 
Nc1ccccc1NC(=O)c1ccc(C[N-]C(=O)[N-]c2ccc(Cl)c(S(=O)(=O)C3CC3)c2[O-])cc1 (protonated)
Nc1ccccc1NC(=O)c1ccc(C[N-]C(=O)[N-]c2ccc(Cl)c(S(=O)(=O)C3CC3)c2[O-])cc1 (3D coordinates assigned)
Nc1ccccc1NC(=O)c1ccc(C[N-]C(=O)[N-]c2ccc(Cl)c(S(=O)(=O)C3CC3)c2[O-])cc1 (nonaromatic ring conformer: 336.1752716597714 kcal/mol)

>  <smiles>  (42) 
Nc1ccccc1NC(=O)c1ccc(CNC(=O)Nc2ccc(Cl)c(S(=O)(=O)C3CC3)c2O)cc1

>  <score_type>  (42) 
oracle

>  <origin>  (42) 
adgpu

>  <m_score__min__energy>  (42) 
-16.140000000000001

>  <m_primary>  (42) 
energy

$$$$
42:0
     RDKit          3D

 59 62  0  0  0  0  0  0  0  0999 V2000
   -1.2230   21.4910  -26.0080 C   0  0  0  0  0  0  0  0  0  0  0  0
   -1.2170   22.6820  -26.9190 C   0  0  0  0  0  0  0  0  0  0  0  0
   -0.0510   23.4410  -27.0890 C   0  0  0  0  0  0  0  0  0  0  0  0
   -0.0660   24.5860  -27.8890 C   0  0  0  0  0  0  0  0  0  0  0  0
   -1.2400   24.9690  -28.5430 C   0  0  0  0  0  0  0  0  0  0  0  0
   -1.2390   26.1060  -29.3420 O   0  0  0  0  0  0  0  0  0  0  0  0
   -2.4070   24.2010  -28.4080 C   0  0  0  0  0  0  0  0  0  0  0  0
   -3.5940   24.6150  -29.0970 N   0  0  0  0  0  0  0  0  0  0  0  0
   -4.4060   23.7350  -30.3660 S   0  0  0  0  0  0  0  0  0  0  0  0
   -5.0110   24.7250  -31.3260 O   0  0  0  0  0  0  0  0  0  0  0  0
   -5.5190   22.9180  -29.7620 O   0  0  0  0  0  0  0  0  0  0  0  0
   -3.3440   22.6550  -31.2700 C   0  0  0  0  0  0  0  0  0  0  0  0
   -2.0160   22.4580  -30.8620 C   0  0  0  0  0  0  0  0  0  0  0  0
   -1.1810   21.5910  -31.5770 C   0  0  0  0  0  0  0  0  0  0  0  0
   -1.6730   20.8900  -32.6880 C   0  0  0  0  0  0  0  0  0  0  0  0
   -0.6650   19.7210  -33.5370 S   0  0  0  0  0  0  0  0  0  0  0  0
    0.4300   20.4560  -34.2600 O   0  0  0  0  0  0  0  0  0  0  0  0
   -0.0280   18.7550  -32.5750 O   0  0  0  0  0  0  0  0  0  0  0  0
   -1.6320   18.8680  -34.6990 N   0  0  0  0  0  0  0  0  0  0  0  0
   -2.4860   17.7490  -34.4250 C   0  0  0  0  0  0  0  0  0  0  0  0
   -2.1220   16.4940  -34.9280 C   0  0  0  0  0  0  0  0  0  0  0  0
   -2.9410   15.3820  -34.7120 C   0  0  0  0  0  0  0  0  0  0  0  0
   -4.1290   15.5080  -33.9890 C   0  0  0  0  0  0  0  0  0  0  0  0
   -4.9490   14.3960  -33.8210 O   0  0  0  0  0  0  0  0  0  0  0  0
   -4.4890   16.7540  -33.4490 C   0  0  0  0  0  0  0  0  0  0  0  0
   -5.9830   16.9470  -32.5280 S   0  0  0  0  0  0  0  0  0  0  0  0
   -7.1140   16.2800  -33.2610 O   0  0  0  0  0  0  0  0  0  0  0  0
   -5.8350   16.2830  -31.1860 O   0  0  0  0  0  0  0  0  0  0  0  0
   -6.3310   18.6450  -32.3240 N   0  0  0  0  0  0  0  0  0  0  0  0
   -7.6060   18.8130  -31.5990 C   0  0  0  0  0  0  0  0  0  0  0  0
   -8.1420   20.2520  -31.7360 C   0  0  0  0  0  0  0  0  0  0  0  0
   -7.1100   21.1290  -32.1440 O   0  0  0  0  0  0  0  0  0  0  0  0
   -6.7000   20.8040  -33.4650 C   0  0  0  0  0  0  0  0  0  0  0  0
   -6.3970   19.3000  -33.6390 C   0  0  0  0  0  0  0  0  0  0  0  0
   -3.6730   17.8730  -33.6790 C   0  0  0  0  0  0  0  0  0  0  0  0
   -2.9990   21.0870  -33.0920 C   0  0  0  0  0  0  0  0  0  0  0  0
   -3.8220   21.9840  -32.4020 C   0  0  0  0  0  0  0  0  0  0  0  0
   -2.4000   23.0880  -27.5520 C   0  0  0  0  0  0  0  0  0  0  0  0
   -1.2213   21.8298  -24.9615 H   0  0  0  0  0  0  0  0  0  0  0  0
   -2.1242   20.8893  -26.1971 H   0  0  0  0  0  0  0  0  0  0  0  0
   -0.3279   20.8802  -26.1971 H   0  0  0  0  0  0  0  0  0  0  0  0
    0.8800   23.1337  -26.5902 H   0  0  0  0  0  0  0  0  0  0  0  0
    0.8479   25.1872  -28.0044 H   0  0  0  0  0  0  0  0  0  0  0  0
   -1.6298   22.9863  -29.9778 H   0  0  0  0  0  0  0  0  0  0  0  0
   -0.1342   21.4589  -31.2661 H   0  0  0  0  0  0  0  0  0  0  0  0
   -1.1867   16.3825  -35.4961 H   0  0  0  0  0  0  0  0  0  0  0  0
   -2.6477   14.4011  -35.1143 H   0  0  0  0  0  0  0  0  0  0  0  0
   -8.3478   18.1134  -32.0116 H   0  0  0  0  0  0  0  0  0  0  0  0
   -7.4291   18.6081  -30.5328 H   0  0  0  0  0  0  0  0  0  0  0  0
   -8.9478   20.2683  -32.4847 H   0  0  0  0  0  0  0  0  0  0  0  0
   -8.5246   20.5833  -30.7593 H   0  0  0  0  0  0  0  0  0  0  0  0
   -7.5031   21.0847  -34.1623 H   0  0  0  0  0  0  0  0  0  0  0  0
   -5.7719   21.3572  -33.6716 H   0  0  0  0  0  0  0  0  0  0  0  0
   -7.1936   18.8348  -34.2381 H   0  0  0  0  0  0  0  0  0  0  0  0
   -5.4297   19.1832  -34.1496 H   0  0  0  0  0  0  0  0  0  0  0  0
   -3.9633   18.8534  -33.2734 H   0  0  0  0  0  0  0  0  0  0  0  0
   -3.3958   20.5339  -33.9561 H   0  0  0  0  0  0  0  0  0  0  0  0
   -4.8498   22.1629  -32.7508 H   0  0  0  0  0  0  0  0  0  0  0  0
   -3.3313   22.5296  -27.3765 H   0  0  0  0  0  0  0  0  0  0  0  0
  1  2  1  0
  2  3  2  0
  3  4  1  0
  4  5  2  0
  5  6  1  0
  5  7  1  0
  7  8  1  0
  8  9  1  0
  9 10  2  0
  9 11  2  0
  9 12  1  0
 12 13  2  0
 13 14  1  0
 14 15  2  0
 15 16  1  0
 16 17  2  0
 16 18  2  0
 16 19  1  0
 19 20  1  0
 20 21  2  0
 21 22  1  0
 22 23  2  0
 23 24  1  0
 23 25  1  0
 25 26  1  0
 26 27  2  0
 26 28  2  0
 26 29  1  0
 29 30  1  0
 30 31  1  0
 31 32  1  0
 32 33  1  0
 33 34  1  0
 25 35  2  0
 15 36  1  0
 36 37  2  0
  7 38  2  0
 38  2  1  0
 37 12  1  0
 35 20  1  0
 34 29  1  0
  1 39  1  0
  1 40  1  0
  1 41  1  0
  3 42  1  0
  4 43  1  0
 13 44  1  0
 14 45  1  0
 21 46  1  0
 22 47  1  0
 30 48  1  0
 30 49  1  0
 31 50  1  0
 31 51  1  0
 33 52  1  0
 33 53  1  0
 34 54  1  0
 34 55  1  0
 35 56  1  0
 36 57  1  0
 37 58  1  0
 38 59  1  0
M  CHG  4   6  -1   8  -1  19  -1  24  -1
M  END
>  <UniqueID>  (43) 
42

>  <SMILES>  (43) 
Cc1ccc([O-])c([N-]S(=O)(=O)c2ccc(S(=O)(=O)[N-]c3ccc([O-])c(S(=O)(=O)N4CCOCC4)c3)cc2)c1

>  <Energy>  (43) 
73.57706431624283

>  <Genealogy>  (43) 
Cc1ccc([O-])c([N-]S(=O)(=O)c2ccc(S(=O)(=O)[N-]c3ccc([O-])c(S(=O)(=O)N4CCOCC4)c3)cc2)c1 (protonated)
Cc1ccc([O-])c([N-]S(=O)(=O)c2ccc(S(=O)(=O)[N-]c3ccc([O-])c(S(=O)(=O)N4CCOCC4)c3)cc2)c1 (3D coordinates assigned)
Cc1ccc([O-])c([N-]S(=O)(=O)c2ccc(S(=O)(=O)[N-]c3ccc([O-])c(S(=O)(=O)N4CCOCC4)c3)cc2)c1 (nonaromatic ring conformer: 73.57706431624283 kcal/mol)

>  <smiles>  (43) 
Cc1ccc(O)c(NS(=O)(=O)c2ccc(S(=O)(=O)Nc3ccc(O)c(S(=O)(=O)N4CCOCC4)c3)cc2)c1

>  <score_type>  (43) 
oracle

>  <origin>  (43) 
adgpu

>  <m_score__min__energy>  (43) 
-15.49

>  <m_primary>  (43) 
energy

$$$$
43:0
     RDKit          3D

 73 77  0  0  1  0  0  0  0  0999 V2000
   -5.6880   25.6690  -30.2840 C   0  0  0  0  0  0  0  0  0  0  0  0
   -4.6220   24.8660  -30.8910 N   0  0  0  0  0  0  0  0  0  0  0  0
   -3.7580   24.4180  -29.8140 C   0  0  0  0  0  0  0  0  0  0  0  0
   -5.2380   23.7290  -31.5320 C   0  0  0  0  0  0  0  0  0  0  0  0
   -5.0780   22.5310  -30.6680 C   0  0  0  0  0  0  0  0  0  0  0  0
   -5.5910   21.2420  -31.1780 C   0  0  0  0  0  0  0  0  0  0  0  0
   -4.7030   20.1680  -31.2130 O   0  0  0  0  0  0  0  0  0  0  0  0
   -3.4810   20.3690  -31.8850 C   0  0  0  0  0  0  0  0  0  0  0  0
   -3.4320   20.8390  -33.1820 C   0  0  0  0  0  0  0  0  0  0  0  0
   -2.2290   21.0430  -33.8330 C   0  0  0  0  0  0  0  0  0  0  0  0
   -1.0000   20.7790  -33.2010 C   0  0  0  0  0  0  0  0  0  0  0  0
    0.2000   21.1110  -33.6500 N   0  0  0  0  0  0  0  0  0  0  0  0
    1.1330   20.6320  -34.2320 C   0  0  0  0  0  0  0  0  0  0  0  0
    2.2810   21.3000  -34.5530 N   0  0  0  0  0  0  0  0  0  0  0  0
    3.0990   20.5350  -35.2160 N   0  0  0  0  0  0  0  0  0  0  0  0
    2.4960   19.3440  -35.3410 C   0  0  0  0  0  0  0  0  0  0  0  0
    2.9460   18.2580  -35.9600 N   0  0  0  0  0  0  0  0  0  0  0  0
    2.1620   17.1860  -35.9760 C   0  0  0  0  0  0  0  0  0  0  0  0
    0.9430   17.1660  -35.3900 C   0  0  0  0  0  0  0  0  0  0  0  0
    0.4210   18.3180  -34.7100 C   0  0  0  0  0  0  0  0  0  0  0  0
   -0.8420   18.0010  -34.1280 C   0  0  0  0  0  0  0  0  0  0  0  0
   -1.9680   18.2360  -34.9510 C   0  0  0  0  0  0  0  0  0  0  0  0
   -3.2210   17.8270  -34.6140 C   0  0  0  0  0  0  0  0  0  0  0  0
   -3.4020   17.1590  -33.4260 C   0  0  0  0  0  0  0  0  0  0  0  0
   -5.0440   16.6400  -33.0560 S   0  0  0  0  0  0  0  0  0  0  0  0
   -4.9720   15.7500  -31.8540 O   0  0  0  0  0  0  0  0  0  0  0  0
   -5.6410   15.9220  -34.2400 O   0  0  0  0  0  0  0  0  0  0  0  0
   -5.9840   18.0290  -32.6720 N   0  0  0  0  0  0  0  0  0  0  0  0
   -6.4450   18.7020  -33.8550 C   0  0  0  0  0  0  0  0  0  0  0  0
   -7.1370   20.0060  -33.4480 C   0  0  0  0  0  0  0  0  0  0  0  0
   -8.3300   19.6280  -32.7480 N   0  0  0  0  0  0  0  0  0  0  0  0
   -9.1200   20.7810  -32.3380 C   0  0  0  0  0  0  0  0  0  0  0  0
   -7.9880   18.8940  -31.5570 C   0  0  0  0  0  0  0  0  0  0  0  0
   -7.0540   17.7500  -31.7670 C   0  0  0  0  0  0  0  0  0  0  0  0
   -2.3420   16.9030  -32.5830 C   0  0  0  0  0  0  0  0  0  0  0  0
   -1.0580   17.3300  -32.9420 C   0  0  0  0  0  0  0  0  0  0  0  0
    1.2380   19.3670  -34.7230 C   0  0  0  0  0  0  0  0  0  0  0  0
   -1.1150   20.2920  -31.8690 C   0  0  0  0  0  0  0  0  0  0  0  0
   -2.3080   20.1160  -31.2910 N   0  0  0  0  0  0  0  0  0  0  0  0
   -5.6116   25.6115  -29.1882 H   0  0  0  0  0  0  0  0  0  0  0  0
   -5.5857   26.7164  -30.6042 H   0  0  0  0  0  0  0  0  0  0  0  0
   -6.6665   25.2816  -30.6042 H   0  0  0  0  0  0  0  0  0  0  0  0
   -4.2229   24.6590  -28.8466 H   0  0  0  0  0  0  0  0  0  0  0  0
   -3.6116   23.3304  -29.8896 H   0  0  0  0  0  0  0  0  0  0  0  0
   -2.7848   24.9251  -29.8896 H   0  0  0  0  0  0  0  0  0  0  0  0
   -6.3084   23.9299  -31.6868 H   0  0  0  0  0  0  0  0  0  0  0  0
   -4.7561   23.5487  -32.5043 H   0  0  0  0  0  0  0  0  0  0  0  0
   -4.0019   22.4043  -30.4783 H   0  0  0  0  0  0  0  0  0  0  0  0
   -5.6934   22.7437  -29.7814 H   0  0  0  0  0  0  0  0  0  0  0  0
   -6.4387   20.9489  -30.5413 H   0  0  0  0  0  0  0  0  0  0  0  0
   -5.8412   21.4353  -32.2316 H   0  0  0  0  0  0  0  0  0  0  0  0
   -4.3720   21.0564  -33.7102 H   0  0  0  0  0  0  0  0  0  0  0  0
   -2.2331   21.4195  -34.8665 H   0  0  0  0  0  0  0  0  0  0  0  0
    2.4840   22.2880  -34.3050 H   0  0  0  0  0  0  0  0  0  0  0  0
    4.0250   20.8040  -35.5700 H   0  0  0  0  0  0  0  0  0  0  0  0
    2.5180   16.2787  -36.4859 H   0  0  0  0  0  0  0  0  0  0  0  0
    0.3388   16.2479  -35.4353 H   0  0  0  0  0  0  0  0  0  0  0  0
   -1.8249   18.7708  -35.9015 H   0  0  0  0  0  0  0  0  0  0  0  0
   -4.0735   18.0270  -35.2797 H   0  0  0  0  0  0  0  0  0  0  0  0
   -5.5894   18.9268  -34.5087 H   0  0  0  0  0  0  0  0  0  0  0  0
   -7.1535   18.0583  -34.3970 H   0  0  0  0  0  0  0  0  0  0  0  0
   -6.4810   20.5962  -32.7912 H   0  0  0  0  0  0  0  0  0  0  0  0
   -7.3688   20.6262  -34.3264 H   0  0  0  0  0  0  0  0  0  0  0  0
   -9.1539   20.8304  -31.2396 H   0  0  0  0  0  0  0  0  0  0  0  0
   -8.6605   21.6993  -32.7324 H   0  0  0  0  0  0  0  0  0  0  0  0
  -10.1423   20.6840  -32.7324 H   0  0  0  0  0  0  0  0  0  0  0  0
   -7.5180   19.5925  -30.8490 H   0  0  0  0  0  0  0  0  0  0  0  0
   -8.9271   18.4592  -31.1839 H   0  0  0  0  0  0  0  0  0  0  0  0
   -6.6207   17.4747  -30.7941 H   0  0  0  0  0  0  0  0  0  0  0  0
   -7.6441   16.9368  -32.2146 H   0  0  0  0  0  0  0  0  0  0  0  0
   -2.5036   16.3675  -31.6358 H   0  0  0  0  0  0  0  0  0  0  0  0
   -0.2108   17.1280  -32.2701 H   0  0  0  0  0  0  0  0  0  0  0  0
   -0.2025   20.0551  -31.3022 H   0  0  0  0  0  0  0  0  0  0  0  0
  1  2  1  0
  2  3  1  0
  2  4  1  0
  4  5  1  0
  5  6  1  0
  6  7  1  0
  7  8  1  0
  8  9  2  0
  9 10  1  0
 10 11  2  0
 11 12  1  0
 12 13  2  0
 13 14  1  0
 14 15  1  0
 15 16  1  0
 16 17  2  0
 17 18  1  0
 18 19  2  0
 19 20  1  0
 20 21  1  0
 21 22  2  0
 22 23  1  0
 23 24  2  0
 24 25  1  0
 25 26  2  0
 25 27  2  0
 25 28  1  0
 28 29  1  0
 29 30  1  0
 30 31  1  0
 31 32  1  0
 31 33  1  0
 33 34  1  0
 24 35  1  0
 35 36  2  0
 20 37  2  0
 11 38  1  0
 38 39  2  0
 39  8  1  0
 37 13  1  0
 37 16  1  0
 36 21  1  0
 34 28  1  0
  1 40  1  0
  1 41  1  0
  1 42  1  0
  3 43  1  0
  3 44  1  0
  3 45  1  0
  4 46  1  0
  4 47  1  0
  5 48  1  0
  5 49  1  0
  6 50  1  0
  6 51  1  0
  9 52  1  0
 10 53  1  0
 14 54  1  0
 15 55  1  0
 18 56  1  0
 19 57  1  0
 22 58  1  0
 23 59  1  0
 29 60  1  0
 29 61  1  0
 30 62  1  0
 30 63  1  0
 32 64  1  0
 32 65  1  0
 32 66  1  0
 33 67  1  0
 33 68  1  0
 34 69  1  0
 34 70  1  0
 35 71  1  0
 36 72  1  0
 38 73  1  0
M  END
>  <smiles>  (44) 
CN(C)CCCOc1ccc(N=c2[nH][nH]c3nccc(-c4ccc(S(=O)(=O)N5CCN(C)CC5)cc4)c23)cn1

>  <score_type>  (44) 
oracle

>  <origin>  (44) 
adgpu

>  <m_score__min__energy>  (44) 
-10.5

>  <m_primary>  (44) 
energy

$$$$
44:0
     RDKit          3D

 35 37  0  0  0  0  0  0  0  0999 V2000
   -0.7540   16.4030  -35.5000 H   0  0  0  0  0  0  0  0  0  0  0  0
   -1.7420   16.0660  -35.5460 N   0  0  0  0  0  0  0  0  0  0  0  0
   -2.7160   16.7520  -35.0390 C   0  0  0  0  0  0  0  0  0  0  0  0
   -2.4660   17.9420  -34.4290 N   0  0  0  0  0  0  0  0  0  0  0  0
   -3.4700   18.6790  -33.8910 C   0  0  0  0  0  0  0  0  0  0  0  0
   -3.2440   19.6383  -33.4025 H   0  0  0  0  0  0  0  0  0  0  0  0
   -4.7950   18.2230  -33.9550 C   0  0  0  0  0  0  0  0  0  0  0  0
   -5.9060   19.0100  -33.3710 C   0  0  0  0  0  0  0  0  0  0  0  0
   -5.8200   20.3660  -33.2930 N   0  0  0  0  0  0  0  0  0  0  0  0
   -6.8170   21.1160  -32.7530 C   0  0  0  0  0  0  0  0  0  0  0  0
   -6.7100   22.5480  -32.7060 N   0  0  0  0  0  0  0  0  0  0  0  0
   -7.3130   23.1070  -33.3540 H   0  0  0  0  0  0  0  0  0  0  0  0
   -5.7390   23.2550  -31.9150 C   0  0  0  0  0  0  0  0  0  0  0  0
   -5.9720   24.5710  -31.4740 C   0  0  0  0  0  0  0  0  0  0  0  0
   -6.9190   25.0725  -31.7223 H   0  0  0  0  0  0  0  0  0  0  0  0
   -5.0050   25.2430  -30.7220 C   0  0  0  0  0  0  0  0  0  0  0  0
   -5.1992   26.2667  -30.3693 H   0  0  0  0  0  0  0  0  0  0  0  0
   -3.7920   24.6200  -30.4160 C   0  0  0  0  0  0  0  0  0  0  0  0
   -2.8390   25.2980  -29.6670 O   0  0  0  0  0  0  0  0  0  0  0  0
   -3.5410   23.3180  -30.8730 C   0  0  0  0  0  0  0  0  0  0  0  0
   -2.0190   22.5220  -30.5090 Cl  0  0  0  0  0  0  0  0  0  0  0  0
   -4.5090   22.6440  -31.6260 C   0  0  0  0  0  0  0  0  0  0  0  0
   -4.3044   21.6278  -31.9941 H   0  0  0  0  0  0  0  0  0  0  0  0
   -7.9720   20.4840  -32.2870 C   0  0  0  0  0  0  0  0  0  0  0  0
   -8.7997   21.0709  -31.8621 H   0  0  0  0  0  0  0  0  0  0  0  0
   -8.0560   19.0900  -32.3710 C   0  0  0  0  0  0  0  0  0  0  0  0
   -9.2740   18.3740  -31.8830 C   0  0  0  0  0  0  0  0  0  0  0  0
   -9.2809   18.3700  -30.7830 H   0  0  0  0  0  0  0  0  0  0  0  0
  -10.1739   18.8868  -32.2534 H   0  0  0  0  0  0  0  0  0  0  0  0
   -9.2636   17.3383  -32.2534 H   0  0  0  0  0  0  0  0  0  0  0  0
   -7.0250   18.3860  -32.9100 N   0  0  0  0  0  0  0  0  0  0  0  0
   -5.0260   16.9920  -34.5880 C   0  0  0  0  0  0  0  0  0  0  0  0
   -6.0503   16.5972  -34.6587 H   0  0  0  0  0  0  0  0  0  0  0  0
   -3.9920   16.2850  -35.1140 N   0  0  0  0  0  0  0  0  0  0  0  0
   -4.1870   15.3700  -35.5820 H   0  0  0  0  0  0  0  0  0  0  0  0
  1  2  1  0
  2  3  2  0
  3  4  1  0
  4  5  2  0
  5  6  1  0
  5  7  1  0
  7  8  1  0
  8  9  2  0
  9 10  1  0
 10 11  1  0
 11 12  1  0
 11 13  1  0
 13 14  2  0
 14 15  1  0
 14 16  1  0
 16 17  1  0
 16 18  2  0
 18 19  1  0
 18 20  1  0
 20 21  1  0
 20 22  2  0
 22 23  1  0
 10 24  2  0
 24 25  1  0
 24 26  1  0
 26 27  1  0
 27 28  1  0
 27 29  1  0
 27 30  1  0
 26 31  2  0
  7 32  2  0
 32 33  1  0
 32 34  1  0
 34 35  1  0
 34  3  1  0
 31  8  1  0
 22 13  1  0
M  CHG  1  19  -1
M  END
>  <UniqueID>  (45) 
43

>  <SMILES>  (45) 
[H]/N=c1\ncc(-c2nc(C)cc(Nc3ccc([O-])c(Cl)c3)n2)c[nH]1

>  <Energy>  (45) 
42.50031013141099

>  <Genealogy>  (45) 
Cc1cc(Nc2ccc([O-])c(Cl)c2)nc(-c2cnc(=N)[nH]c2)n1 (protonated)
[H]/N=c1\ncc(-c2nc(C)cc(Nc3ccc([O-])c(Cl)c3)n2)c[nH]1 (cis-trans isomerization)
[H]/N=c1\ncc(-c2nc(C)cc(Nc3ccc([O-])c(Cl)c3)n2)c[nH]1 (3D coordinates assigned)
[H]/N=c1\ncc(-c2nc(C)cc(Nc3ccc([O-])c(Cl)c3)n2)c[nH]1 (optimized conformer: 42.50031013141099 kcal/mol)

>  <smiles>  (45) 
Cc1cc(Nc2ccc(O)c(Cl)c2)nc(-c2cnc(=N)[nH]c2)n1

>  <score_type>  (45) 
oracle

>  <origin>  (45) 
adgpu

>  <m_score__min__energy>  (45) 
-10.699999999999999

>  <m_primary>  (45) 
energy

$$$$
45:0
     RDKit          3D

 44 46  0  0  0  0  0  0  0  0999 V2000
   -2.6890   25.2990  -26.4460 C   0  0  0  0  0  0  0  0  0  0  0  0
   -2.7770   24.5390  -27.6980 N   0  0  0  0  0  0  0  0  0  0  0  0
   -4.0100   23.8000  -28.0120 C   0  0  0  0  0  0  0  0  0  0  0  0
   -4.5010   24.1720  -29.3730 C   0  0  0  0  0  0  0  0  0  0  0  0
   -5.4650   23.5020  -30.0340 N   0  0  0  0  0  0  0  0  0  0  0  0
   -5.5310   24.2080  -31.1820 C   0  0  0  0  0  0  0  0  0  0  0  0
   -6.3950   23.8190  -32.3370 C   0  0  0  0  0  0  0  0  0  0  0  0
   -7.1140   22.5360  -32.0250 C   0  0  0  0  0  0  0  0  0  0  0  0
   -8.4060   22.5630  -31.4750 C   0  0  0  0  0  0  0  0  0  0  0  0
   -9.0920   21.3690  -31.2290 C   0  0  0  0  0  0  0  0  0  0  0  0
   -8.4970   20.1430  -31.5370 C   0  0  0  0  0  0  0  0  0  0  0  0
   -7.2160   20.1080  -32.0980 C   0  0  0  0  0  0  0  0  0  0  0  0
   -6.6440   18.9180  -32.4070 F   0  0  0  0  0  0  0  0  0  0  0  0
   -6.5270   21.3000  -32.3450 C   0  0  0  0  0  0  0  0  0  0  0  0
   -4.6550   25.2300  -31.2170 N   0  0  0  0  0  0  0  0  0  0  0  0
   -4.0420   25.1800  -30.0740 O   0  0  0  0  0  0  0  0  0  0  0  0
   -1.6600   24.5840  -28.6160 C   0  0  0  0  0  0  0  0  0  0  0  0
   -1.2960   25.6900  -29.1010 O   0  0  0  0  0  0  0  0  0  0  0  0
   -0.8950   23.3480  -29.0130 C   0  0  0  0  0  0  0  0  0  0  0  0
   -1.7800   22.3350  -29.4910 O   0  0  0  0  0  0  0  0  0  0  0  0
   -1.9120   21.9320  -30.8300 C   0  0  0  0  0  0  0  0  0  0  0  0
   -0.7580   21.5310  -31.5160 C   0  0  0  0  0  0  0  0  0  0  0  0
   -0.8320   21.1230  -32.8510 C   0  0  0  0  0  0  0  0  0  0  0  0
   -2.0630   21.1070  -33.5110 C   0  0  0  0  0  0  0  0  0  0  0  0
   -3.2210   21.5000  -32.8360 C   0  0  0  0  0  0  0  0  0  0  0  0
   -3.1520   21.9100  -31.5010 C   0  0  0  0  0  0  0  0  0  0  0  0
   -2.7688   24.6099  -25.5924 H   0  0  0  0  0  0  0  0  0  0  0  0
   -1.7239   25.8252  -26.4035 H   0  0  0  0  0  0  0  0  0  0  0  0
   -3.5083   26.0318  -26.4035 H   0  0  0  0  0  0  0  0  0  0  0  0
   -3.8039   22.7199  -27.9826 H   0  0  0  0  0  0  0  0  0  0  0  0
   -4.7807   24.0552  -27.2698 H   0  0  0  0  0  0  0  0  0  0  0  0
   -7.1315   24.6138  -32.5262 H   0  0  0  0  0  0  0  0  0  0  0  0
   -5.7670   23.6761  -33.2287 H   0  0  0  0  0  0  0  0  0  0  0  0
   -8.8802   23.5265  -31.2368 H   0  0  0  0  0  0  0  0  0  0  0  0
  -10.1013   21.3954  -30.7924 H   0  0  0  0  0  0  0  0  0  0  0  0
   -9.0360   19.2049  -31.3383 H   0  0  0  0  0  0  0  0  0  0  0  0
   -5.5221   21.2697  -32.7913 H   0  0  0  0  0  0  0  0  0  0  0  0
   -0.1799   23.6064  -29.8079 H   0  0  0  0  0  0  0  0  0  0  0  0
   -0.3638   22.9636  -28.1298 H   0  0  0  0  0  0  0  0  0  0  0  0
    0.2135   21.5373  -31.0002 H   0  0  0  0  0  0  0  0  0  0  0  0
    0.0803   20.8142  -33.3824 H   0  0  0  0  0  0  0  0  0  0  0  0
   -2.1204   20.7852  -34.5613 H   0  0  0  0  0  0  0  0  0  0  0  0
   -4.1901   21.4869  -33.3562 H   0  0  0  0  0  0  0  0  0  0  0  0
   -4.0672   22.2161  -30.9730 H   0  0  0  0  0  0  0  0  0  0  0  0
  1  2  1  0
  2  3  1  0
  3  4  1  0
  4  5  2  0
  5  6  1  0
  6  7  1  0
  7  8  1  0
  8  9  2  0
  9 10  1  0
 10 11  2  0
 11 12  1  0
 12 13  1  0
 12 14  2  0
  6 15  2  0
 15 16  1  0
  2 17  1  0
 17 18  2  0
 17 19  1  0
 19 20  1  0
 20 21  1  0
 21 22  2  0
 22 23  1  0
 23 24  2  0
 24 25  1  0
 25 26  2  0
 16  4  1  0
 26 21  1  0
 14  8  1  0
  1 27  1  0
  1 28  1  0
  1 29  1  0
  3 30  1  0
  3 31  1  0
  7 32  1  0
  7 33  1  0
  9 34  1  0
 10 35  1  0
 11 36  1  0
 14 37  1  0
 19 38  1  0
 19 39  1  0
 22 40  1  0
 23 41  1  0
 24 42  1  0
 25 43  1  0
 26 44  1  0
M  END
>  <UniqueID>  (46) 
44

>  <SMILES>  (46) 
CN(Cc1nc(Cc2cccc(F)c2)no1)C(=O)COc1ccccc1

>  <Energy>  (46) 
73.6496855866794

>  <Genealogy>  (46) 
CN(Cc1nc(Cc2cccc(F)c2)no1)C(=O)COc1ccccc1 (3D coordinates assigned)
CN(Cc1nc(Cc2cccc(F)c2)no1)C(=O)COc1ccccc1 (optimized conformer: 73.6496855866794 kcal/mol)

>  <smiles>  (46) 
CN(Cc1nc(Cc2cccc(F)c2)no1)C(=O)COc1ccccc1

>  <score_type>  (46) 
oracle

>  <origin>  (46) 
adgpu

>  <m_score__min__energy>  (46) 
-9.1199999999999992

>  <m_primary>  (46) 
energy

$$$$
46:0
     RDKit          3D

 58 61  0  0  0  0  0  0  0  0999 V2000
   -5.4130   24.6140  -28.6110 O   0  0  0  0  0  0  0  0  0  0  0  0
   -5.1910   24.8510  -30.0800 S   0  0  0  0  0  0  0  0  0  0  0  0
   -5.9300   26.0980  -30.4850 O   0  0  0  0  0  0  0  0  0  0  0  0
   -3.5000   25.0540  -30.4200 N   0  0  0  0  0  0  0  0  0  0  0  0
   -2.4870   24.3280  -29.7170 C   0  0  0  0  0  0  0  0  0  0  0  0
   -2.4690   22.9260  -29.7230 C   0  0  0  0  0  0  0  0  0  0  0  0
   -1.4630   22.2190  -29.0420 C   0  0  0  0  0  0  0  0  0  0  0  0
   -1.4890   20.4480  -28.9930 S   0  0  0  0  0  0  0  0  0  0  0  0
   -2.7260   20.0010  -28.2620 O   0  0  0  0  0  0  0  0  0  0  0  0
   -0.2930   19.9670  -28.2130 O   0  0  0  0  0  0  0  0  0  0  0  0
   -1.4660   19.7420  -30.5950 N   0  0  0  0  0  0  0  0  0  0  0  0
   -0.1260   19.9160  -31.1790 C   0  0  0  0  0  0  0  0  0  0  0  0
   -0.0890   19.3710  -32.6260 C   0  0  0  0  0  0  0  0  0  0  0  0
   -1.2810   19.6000  -33.3940 O   0  0  0  0  0  0  0  0  0  0  0  0
   -2.0500   20.6650  -32.8610 C   0  0  0  0  0  0  0  0  0  0  0  0
   -2.5470   20.3130  -31.4430 C   0  0  0  0  0  0  0  0  0  0  0  0
   -0.4780   22.9290  -28.3490 C   0  0  0  0  0  0  0  0  0  0  0  0
   -0.5080   24.3310  -28.3190 C   0  0  0  0  0  0  0  0  0  0  0  0
   -1.5110   25.0280  -28.9960 C   0  0  0  0  0  0  0  0  0  0  0  0
   -1.5250   26.4180  -28.9660 O   0  0  0  0  0  0  0  0  0  0  0  0
   -5.7770   23.4940  -31.0400 C   0  0  0  0  0  0  0  0  0  0  0  0
   -7.0740   22.9980  -30.8600 C   0  0  0  0  0  0  0  0  0  0  0  0
   -7.4820   21.8420  -31.5360 C   0  0  0  0  0  0  0  0  0  0  0  0
   -6.5950   21.1690  -32.3850 C   0  0  0  0  0  0  0  0  0  0  0  0
   -7.0660   19.6370  -33.1220 S   0  0  0  0  0  0  0  0  0  0  0  0
   -6.8050   19.7000  -34.6020 O   0  0  0  0  0  0  0  0  0  0  0  0
   -8.5430   19.4360  -32.9280 O   0  0  0  0  0  0  0  0  0  0  0  0
   -6.2060   18.2770  -32.4270 N   0  0  0  0  0  0  0  0  0  0  0  0
   -6.8570   16.9830  -32.7150 C   0  0  0  0  0  0  0  0  0  0  0  0
   -6.4690   16.3970  -34.0950 C   0  0  0  0  0  0  0  0  0  0  0  0
   -5.4020   17.0860  -34.7160 O   0  0  0  0  0  0  0  0  0  0  0  0
   -4.3550   17.2640  -33.7940 C   0  0  0  0  0  0  0  0  0  0  0  0
   -4.7590   18.2970  -32.7290 C   0  0  0  0  0  0  0  0  0  0  0  0
   -5.3120   21.6930  -32.5980 C   0  0  0  0  0  0  0  0  0  0  0  0
   -4.9010   22.8440  -31.9200 C   0  0  0  0  0  0  0  0  0  0  0  0
   -3.2501   22.3738  -30.2662 H   0  0  0  0  0  0  0  0  0  0  0  0
    0.1280   20.9862  -31.1890 H   0  0  0  0  0  0  0  0  0  0  0  0
    0.6015   19.3584  -30.5709 H   0  0  0  0  0  0  0  0  0  0  0  0
    0.7511   19.8508  -33.1495 H   0  0  0  0  0  0  0  0  0  0  0  0
    0.0147   18.2793  -32.5396 H   0  0  0  0  0  0  0  0  0  0  0  0
   -1.4290   21.5716  -32.8127 H   0  0  0  0  0  0  0  0  0  0  0  0
   -2.9202   20.8370  -33.5115 H   0  0  0  0  0  0  0  0  0  0  0  0
   -2.9278   21.2270  -30.9639 H   0  0  0  0  0  0  0  0  0  0  0  0
   -3.3369   19.5537  -31.5405 H   0  0  0  0  0  0  0  0  0  0  0  0
    0.3231   22.3864  -27.8256 H   0  0  0  0  0  0  0  0  0  0  0  0
    0.2615   24.8836  -27.7600 H   0  0  0  0  0  0  0  0  0  0  0  0
   -7.7726   23.5169  -30.1872 H   0  0  0  0  0  0  0  0  0  0  0  0
   -8.5046   21.4604  -31.3995 H   0  0  0  0  0  0  0  0  0  0  0  0
   -6.5650   16.2639  -31.9355 H   0  0  0  0  0  0  0  0  0  0  0  0
   -7.9426   17.1599  -32.7292 H   0  0  0  0  0  0  0  0  0  0  0  0
   -6.1730   15.3466  -33.9574 H   0  0  0  0  0  0  0  0  0  0  0  0
   -7.3469   16.4983  -34.7500 H   0  0  0  0  0  0  0  0  0  0  0  0
   -4.1341   16.3040  -33.3044 H   0  0  0  0  0  0  0  0  0  0  0  0
   -3.4635   17.6261  -34.3270 H   0  0  0  0  0  0  0  0  0  0  0  0
   -4.2044   18.0821  -31.8036 H   0  0  0  0  0  0  0  0  0  0  0  0
   -4.5192   19.2935  -33.1284 H   0  0  0  0  0  0  0  0  0  0  0  0
   -4.6268   21.1966  -33.3009 H   0  0  0  0  0  0  0  0  0  0  0  0
   -3.8872   23.2408  -32.0775 H   0  0  0  0  0  0  0  0  0  0  0  0
  1  2  2  0
  2  3  2  0
  2  4  1  0
  4  5  1  0
  5  6  2  0
  6  7  1  0
  7  8  1  0
  8  9  2  0
  8 10  2  0
  8 11  1  0
 11 12  1  0
 12 13  1  0
 13 14  1  0
 14 15  1  0
 15 16  1  0
  7 17  2  0
 17 18  1  0
 18 19  2  0
 19 20  1  0
  2 21  1  0
 21 22  2  0
 22 23  1  0
 23 24  2  0
 24 25  1  0
 25 26  2  0
 25 27  2  0
 25 28  1  0
 28 29  1  0
 29 30  1  0
 30 31  1  0
 31 32  1  0
 32 33  1  0
 24 34  1  0
 34 35  2  0
 19  5  1  0
 35 21  1  0
 16 11  1  0
 33 28  1  0
  6 36  1  0
 12 37  1  0
 12 38  1  0
 13 39  1  0
 13 40  1  0
 15 41  1  0
 15 42  1  0
 16 43  1  0
 16 44  1  0
 17 45  1  0
 18 46  1  0
 22 47  1  0
 23 48  1  0
 29 49  1  0
 29 50  1  0
 30 51  1  0
 30 52  1  0
 32 53  1  0
 32 54  1  0
 33 55  1  0
 33 56  1  0
 34 57  1  0
 35 58  1  0
M  CHG  2   4  -1  20  -1
M  END
>  <UniqueID>  (47) 
45

>  <SMILES>  (47) 
O=S(=O)([N-]c1cc(S(=O)(=O)N2CCOCC2)ccc1[O-])c1ccc(S(=O)(=O)N2CCOCC2)cc1

>  <Energy>  (47) 
84.29198541209817

>  <Genealogy>  (47) 
O=S(=O)([N-]c1cc(S(=O)(=O)N2CCOCC2)ccc1[O-])c1ccc(S(=O)(=O)N2CCOCC2)cc1 (protonated)
O=S(=O)([N-]c1cc(S(=O)(=O)N2CCOCC2)ccc1[O-])c1ccc(S(=O)(=O)N2CCOCC2)cc1 (3D coordinates assigned)
O=S(=O)([N-]c1cc(S(=O)(=O)N2CCOCC2)ccc1[O-])c1ccc(S(=O)(=O)N2CCOCC2)cc1 (nonaromatic ring conformer: 84.29198541209817 kcal/mol)

>  <smiles>  (47) 
O=S(=O)(Nc1cc(S(=O)(=O)N2CCOCC2)ccc1O)c1ccc(S(=O)(=O)N2CCOCC2)cc1

>  <score_type>  (47) 
oracle

>  <origin>  (47) 
adgpu

>  <m_score__min__energy>  (47) 
-15.33

>  <m_primary>  (47) 
energy

$$$$
