0:0
     RDKit          3D

 37 39  0  0  0  0  0  0  0  0999 V2000
   -8.0990   21.9200  -30.5150 C   0  0  0  0  0  0  0  0  0  0  0  0
   -6.8830   22.7980  -30.4710 C   0  0  0  0  0  0  0  0  0  0  0  0
   -7.0020   24.1510  -30.1230 C   0  0  0  0  0  0  0  0  0  0  0  0
   -5.8760   24.9770  -30.1230 C   0  0  0  0  0  0  0  0  0  0  0  0
   -4.6230   24.4650  -30.4780 C   0  0  0  0  0  0  0  0  0  0  0  0
   -3.5140   25.3020  -30.4480 O   0  0  0  0  0  0  0  0  0  0  0  0
   -4.4940   23.1120  -30.8450 C   0  0  0  0  0  0  0  0  0  0  0  0
   -3.1810   22.5610  -31.2450 C   0  0  0  0  0  0  0  0  0  0  0  0
   -2.0120   22.4590  -30.4970 C   0  0  0  0  0  0  0  0  0  0  0  0
   -1.7890   22.9160  -29.0860 C   0  0  0  0  0  0  0  0  0  0  0  0
   -0.7410   22.2100  -28.5300 F   0  0  0  0  0  0  0  0  0  0  0  0
   -2.9310   22.7200  -28.3290 F   0  0  0  0  0  0  0  0  0  0  0  0
   -1.4780   24.2640  -29.0750 F   0  0  0  0  0  0  0  0  0  0  0  0
   -1.0610   21.8370  -31.2280 N   0  0  0  0  0  0  0  0  0  0  0  0
   -1.5700   21.5580  -32.4200 N   0  0  0  0  0  0  0  0  0  0  0  0
   -0.8260   20.8680  -33.4390 C   0  0  0  0  0  0  0  0  0  0  0  0
   -1.0760   19.5200  -33.7540 C   0  0  0  0  0  0  0  0  0  0  0  0
   -0.3370   18.9020  -34.7630 C   0  0  0  0  0  0  0  0  0  0  0  0
    0.6350   19.6220  -35.4570 C   0  0  0  0  0  0  0  0  0  0  0  0
    0.8520   20.9680  -35.1360 C   0  0  0  0  0  0  0  0  0  0  0  0
    1.8820   21.7690  -35.8780 C   0  0  0  0  0  0  0  0  0  0  0  0
    1.2720   22.8420  -36.5040 F   0  0  0  0  0  0  0  0  0  0  0  0
    2.5080   20.9910  -36.8340 F   0  0  0  0  0  0  0  0  0  0  0  0
    2.8330   22.2400  -34.9900 F   0  0  0  0  0  0  0  0  0  0  0  0
    0.1180   21.5490  -34.1460 N   0  0  0  0  0  0  0  0  0  0  0  0
   -2.8530   21.9750  -32.4500 C   0  0  0  0  0  0  0  0  0  0  0  0
   -3.6490   21.7890  -33.4100 O   0  0  0  0  0  0  0  0  0  0  0  0
   -5.6310   22.2880  -30.8490 C   0  0  0  0  0  0  0  0  0  0  0  0
   -8.4208   21.6876  -29.4891 H   0  0  0  0  0  0  0  0  0  0  0  0
   -8.9096   22.4425  -31.0441 H   0  0  0  0  0  0  0  0  0  0  0  0
   -7.8581   20.9862  -31.0441 H   0  0  0  0  0  0  0  0  0  0  0  0
   -7.9846   24.5628  -29.8493 H   0  0  0  0  0  0  0  0  0  0  0  0
   -5.9746   26.0360  -29.8424 H   0  0  0  0  0  0  0  0  0  0  0  0
   -1.8483   18.9575  -33.2089 H   0  0  0  0  0  0  0  0  0  0  0  0
   -0.5211   17.8463  -35.0113 H   0  0  0  0  0  0  0  0  0  0  0  0
    1.2254   19.1376  -36.2487 H   0  0  0  0  0  0  0  0  0  0  0  0
   -5.5398   21.2342  -31.1508 H   0  0  0  0  0  0  0  0  0  0  0  0
  1  2  1  0
  2  3  2  0
  3  4  1  0
  4  5  2  0
  5  6  1  0
  5  7  1  0
  7  8  1  0
  8  9  2  0
  9 10  1  0
 10 11  1  0
 10 12  1  0
 10 13  1  0
  9 14  1  0
 14 15  1  0
 15 16  1  0
 16 17  2  0
 17 18  1  0
 18 19  2  0
 19 20  1  0
 20 21  1  0
 21 22  1  0
 21 23  1  0
 21 24  1  0
 20 25  2  0
 15 26  1  0
 26 27  2  0
  7 28  2  0
 28  2  1  0
 26  8  1  0
 25 16  1  0
  1 29  1  0
  1 30  1  0
  1 31  1  0
  3 32  1  0
  4 33  1  0
 17 34  1  0
 18 35  1  0
 19 36  1  0
 28 37  1  0
M  CHG  2   6  -1  14  -1
M  END
>  <UniqueID>  (1) 
1

>  <SMILES>  (1) 
Cc1ccc([O-])c(-c2c(C(F)(F)F)[n-]n(-c3cccc(C(F)(F)F)n3)c2=O)c1

>  <Energy>  (1) 
80.82138521860058

>  <Genealogy>  (1) 
Cc1ccc([O-])c(-c2c(C(F)(F)F)[n-]n(-c3cccc(C(F)(F)F)n3)c2=O)c1 (protonated)
Cc1ccc([O-])c(-c2c(C(F)(F)F)[n-]n(-c3cccc(C(F)(F)F)n3)c2=O)c1 (3D coordinates assigned)
Cc1ccc([O-])c(-c2c(C(F)(F)F)[n-]n(-c3cccc(C(F)(F)F)n3)c2=O)c1 (optimized conformer: 80.82138521860058 kcal/mol)

>  <smiles>  (1) 
Cc1ccc(O)c(-c2c(C(F)(F)F)[nH]n(-c3cccc(C(F)(F)F)n3)c2=O)c1

>  <score_type>  (1) 
oracle

>  <origin>  (1) 
adgpu

>  <m_score__min__energy>  (1) 
-10.43

>  <m_primary>  (1) 
energy

$$$$
1:0
     RDKit          3D

 50 53  0  0  1  0  0  0  0  0999 V2000
   -1.9160   15.3000  -36.0280 C   0  0  0  0  0  0  0  0  0  0  0  0
   -1.1630   16.4050  -35.5810 O   0  0  0  0  0  0  0  0  0  0  0  0
   -1.6880   17.3410  -34.7190 C   0  0  0  0  0  0  0  0  0  0  0  0
   -3.0460   17.5540  -34.5480 C   0  0  0  0  0  0  0  0  0  0  0  0
   -3.5170   18.5080  -33.6690 C   0  0  0  0  0  0  0  0  0  0  0  0
   -4.8520   18.7270  -33.4920 N   0  0  0  0  0  0  0  0  0  0  0  0
   -5.3250   19.6480  -32.6430 C   0  0  0  0  0  0  0  0  0  0  0  0
   -6.7480   19.8700  -32.4670 C   0  0  0  0  0  0  0  0  0  0  0  0
   -7.6850   18.8450  -32.4940 C   0  0  0  0  0  0  0  0  0  0  0  0
   -9.0420   19.0880  -32.3210 C   0  0  0  0  0  0  0  0  0  0  0  0
   -9.5180   20.3650  -32.1150 C   0  0  0  0  0  0  0  0  0  0  0  0
   -8.6010   21.3930  -32.0870 C   0  0  0  0  0  0  0  0  0  0  0  0
   -9.0580   22.7910  -31.8690 C   0  0  0  0  0  0  0  0  0  0  0  0
   -7.2580   21.1400  -32.2590 C   0  0  0  0  0  0  0  0  0  0  0  0
   -4.4800   20.4050  -31.9200 N   0  0  0  0  0  0  0  0  0  0  0  0
   -3.1630   20.2020  -32.0820 C   0  0  0  0  0  0  0  0  0  0  0  0
   -2.3660   20.9340  -31.3830 N   0  0  0  0  0  0  0  0  0  0  0  0
   -2.8830   21.9180  -30.4760 C   0  0  0  0  0  0  0  0  0  0  0  0
   -3.1390   21.6370  -29.1500 C   0  0  0  0  0  0  0  0  0  0  0  0
   -3.6370   22.6470  -28.3500 C   0  0  0  0  0  0  0  0  0  0  0  0
   -3.8870   23.9190  -28.8200 C   0  0  0  0  0  0  0  0  0  0  0  0
   -3.6260   24.1890  -30.1460 C   0  0  0  0  0  0  0  0  0  0  0  0
   -3.8760   25.4780  -30.6330 O   0  0  0  0  0  0  0  0  0  0  0  0
   -3.1330   23.1920  -30.9490 C   0  0  0  0  0  0  0  0  0  0  0  0
   -2.6330   19.2750  -32.9360 C   0  0  0  0  0  0  0  0  0  0  0  0
   -1.2870   19.0560  -33.1110 C   0  0  0  0  0  0  0  0  0  0  0  0
   -0.7960   18.1050  -33.9870 C   0  0  0  0  0  0  0  0  0  0  0  0
    0.5720   17.9060  -34.1430 O   0  0  0  0  0  0  0  0  0  0  0  0
    1.1290   16.7920  -33.4700 C   0  0  0  0  0  0  0  0  0  0  0  0
   -2.2970   14.7409  -35.1607 H   0  0  0  0  0  0  0  0  0  0  0  0
   -2.7615   15.6543  -36.6360 H   0  0  0  0  0  0  0  0  0  0  0  0
   -1.2771   14.6427  -36.6360 H   0  0  0  0  0  0  0  0  0  0  0  0
   -3.7631   16.9509  -35.1242 H   0  0  0  0  0  0  0  0  0  0  0  0
   -5.4710   18.1200  -34.0710 H   0  0  0  0  0  0  0  0  0  0  0  0
   -7.3432   17.8122  -32.6569 H   0  0  0  0  0  0  0  0  0  0  0  0
   -9.7493   18.2460  -32.3489 H   0  0  0  0  0  0  0  0  0  0  0  0
  -10.5924   20.5567  -31.9777 H   0  0  0  0  0  0  0  0  0  0  0  0
   -9.1234   22.9912  -30.7894 H   0  0  0  0  0  0  0  0  0  0  0  0
   -8.3406   23.4871  -32.3282 H   0  0  0  0  0  0  0  0  0  0  0  0
  -10.0480   22.9290  -32.3282 H   0  0  0  0  0  0  0  0  0  0  0  0
   -6.5574   21.9875  -32.2297 H   0  0  0  0  0  0  0  0  0  0  0  0
   -2.9513   20.6337  -28.7399 H   0  0  0  0  0  0  0  0  0  0  0  0
   -3.8431   22.4270  -27.2921 H   0  0  0  0  0  0  0  0  0  0  0  0
   -4.2847   24.6985  -28.1534 H   0  0  0  0  0  0  0  0  0  0  0  0
   -4.1080   25.6680  -31.5970 H   0  0  0  0  0  0  0  0  0  0  0  0
   -2.9295   23.4146  -32.0068 H   0  0  0  0  0  0  0  0  0  0  0  0
   -0.5732   19.6604  -32.5320 H   0  0  0  0  0  0  0  0  0  0  0  0
    1.0528   16.9444  -32.3833 H   0  0  0  0  0  0  0  0  0  0  0  0
    0.5802   15.8813  -33.7519 H   0  0  0  0  0  0  0  0  0  0  0  0
    2.1868   16.6846  -33.7519 H   0  0  0  0  0  0  0  0  0  0  0  0
  1  2  1  0
  2  3  1  0
  3  4  2  0
  4  5  1  0
  5  6  1  0
  6  7  1  0
  7  8  1  0
  8  9  2  0
  9 10  1  0
 10 11  2  0
 11 12  1  0
 12 13  1  0
 12 14  2  0
  7 15  2  0
 15 16  1  0
 16 17  2  0
 17 18  1  0
 18 19  2  0
 19 20  1  0
 20 21  2  0
 21 22  1  0
 22 23  1  0
 22 24  2  0
 16 25  1  0
 25 26  1  0
 26 27  2  0
 27 28  1  0
 28 29  1  0
 27  3  1  0
 25  5  2  0
 14  8  1  0
 24 18  1  0
  1 30  1  0
  1 31  1  0
  1 32  1  0
  4 33  1  0
  6 34  1  0
  9 35  1  0
 10 36  1  0
 11 37  1  0
 13 38  1  0
 13 39  1  0
 13 40  1  0
 14 41  1  0
 19 42  1  0
 20 43  1  0
 21 44  1  0
 23 45  1  0
 24 46  1  0
 26 47  1  0
 29 48  1  0
 29 49  1  0
 29 50  1  0
M  END
>  <smiles>  (2) 
COc1cc2[nH]c(-c3cccc(C)c3)nc(=Nc3cccc(O)c3)c2cc1OC

>  <score_type>  (2) 
oracle

>  <origin>  (2) 
adgpu

>  <m_score__min__energy>  (2) 
-8.9399999999999995

>  <m_primary>  (2) 
energy

$$$$
2:0
     RDKit          3D

 69 72  0  0  1  0  0  0  0  0999 V2000
    4.0560   25.6940  -28.5980 C   0  0  0  0  0  0  0  0  0  0  0  0
    2.9720   26.2910  -27.8800 N   0  0  0  0  0  0  0  0  0  0  0  0
    1.8670   25.1240  -27.2210 S   0  0  0  0  0  0  0  0  0  0  0  0
    1.1030   24.4970  -28.3290 O   0  0  0  0  0  0  0  0  0  0  0  0
    2.7420   24.0970  -26.5200 O   0  0  0  0  0  0  0  0  0  0  0  0
    0.8580   25.8780  -26.0100 C   0  0  0  0  0  0  0  0  0  0  0  0
    1.3140   26.1040  -24.7050 C   0  0  0  0  0  0  0  0  0  0  0  0
    0.4730   26.7080  -23.7680 C   0  0  0  0  0  0  0  0  0  0  0  0
   -0.8080   27.0990  -24.0730 C   0  0  0  0  0  0  0  0  0  0  0  0
   -1.2550   26.8770  -25.3500 C   0  0  0  0  0  0  0  0  0  0  0  0
   -0.4500   26.2740  -26.3300 C   0  0  0  0  0  0  0  0  0  0  0  0
   -1.0110   26.0600  -27.6100 N   0  0  0  0  0  0  0  0  0  0  0  0
   -1.5930   24.9860  -27.9690 C   0  0  0  0  0  0  0  0  0  0  0  0
   -2.0870   24.8860  -29.2020 N   0  0  0  0  0  0  0  0  0  0  0  0
   -2.7180   23.7720  -29.6440 C   0  0  0  0  0  0  0  0  0  0  0  0
   -3.1740   23.7300  -30.8420 N   0  0  0  0  0  0  0  0  0  0  0  0
   -3.8490   22.6110  -31.4000 C   0  0  0  0  0  0  0  0  0  0  0  0
   -5.1060   22.7110  -31.9560 C   0  0  0  0  0  0  0  0  0  0  0  0
   -5.7590   21.6120  -32.4950 C   0  0  0  0  0  0  0  0  0  0  0  0
   -5.1700   20.3440  -32.4990 C   0  0  0  0  0  0  0  0  0  0  0  0
   -5.8590   19.2440  -33.0450 N   0  0  0  0  0  0  0  0  0  0  0  0
   -5.9130   18.9000  -34.4480 C   0  0  0  0  0  0  0  0  0  0  0  0
   -5.2080   17.5750  -34.6180 C   0  0  0  0  0  0  0  0  0  0  0  0
   -5.5620   16.6380  -33.5760 N   0  0  0  0  0  0  0  0  0  0  0  0
   -5.7940   15.3530  -34.1980 C   0  0  0  0  0  0  0  0  0  0  0  0
   -5.0690   14.2310  -33.4850 C   0  0  0  0  0  0  0  0  0  0  0  0
   -7.2330   14.9790  -34.3350 C   0  0  0  0  0  0  0  0  0  0  0  0
   -6.7640   17.0240  -32.8700 C   0  0  0  0  0  0  0  0  0  0  0  0
   -6.5880   18.3420  -32.1420 C   0  0  0  0  0  0  0  0  0  0  0  0
   -3.9150   20.2710  -31.9370 C   0  0  0  0  0  0  0  0  0  0  0  0
   -3.2590   21.3640  -31.3980 C   0  0  0  0  0  0  0  0  0  0  0  0
   -1.9930   21.2750  -30.8360 O   0  0  0  0  0  0  0  0  0  0  0  0
   -0.8040   21.2760  -31.5690 C   0  0  0  0  0  0  0  0  0  0  0  0
   -2.8730   22.7010  -28.8400 N   0  0  0  0  0  0  0  0  0  0  0  0
   -2.3710   22.8010  -27.5880 C   0  0  0  0  0  0  0  0  0  0  0  0
   -1.7300   23.9190  -27.1180 C   0  0  0  0  0  0  0  0  0  0  0  0
   -1.1330   23.9410  -25.4980 Cl  0  0  0  0  0  0  0  0  0  0  0  0
    4.7897   25.2899  -27.8850 H   0  0  0  0  0  0  0  0  0  0  0  0
    3.6726   24.8798  -29.2305 H   0  0  0  0  0  0  0  0  0  0  0  0
    4.5391   26.4533  -29.2305 H   0  0  0  0  0  0  0  0  0  0  0  0
    3.2390   27.0240  -27.2100 H   0  0  0  0  0  0  0  0  0  0  0  0
    2.3334   25.8060  -24.4186 H   0  0  0  0  0  0  0  0  0  0  0  0
    0.8501   26.8768  -22.7485 H   0  0  0  0  0  0  0  0  0  0  0  0
   -1.4529   27.5738  -23.3188 H   0  0  0  0  0  0  0  0  0  0  0  0
   -2.2781   27.1813  -25.6157 H   0  0  0  0  0  0  0  0  0  0  0  0
   -1.9980   25.6860  -29.8750 H   0  0  0  0  0  0  0  0  0  0  0  0
   -5.6061   23.6906  -31.9729 H   0  0  0  0  0  0  0  0  0  0  0  0
   -6.7617   21.7410  -32.9285 H   0  0  0  0  0  0  0  0  0  0  0  0
   -6.9602   18.8127  -34.7733 H   0  0  0  0  0  0  0  0  0  0  0  0
   -5.4283   19.6777  -35.0565 H   0  0  0  0  0  0  0  0  0  0  0  0
   -5.4872   17.1461  -35.5917 H   0  0  0  0  0  0  0  0  0  0  0  0
   -4.1245   17.7557  -34.5600 H   0  0  0  0  0  0  0  0  0  0  0  0
   -5.3873   15.4821  -35.2119 H   0  0  0  0  0  0  0  0  0  0  0  0
   -5.1585   14.3695  -32.3974 H   0  0  0  0  0  0  0  0  0  0  0  0
   -5.5153   13.2668  -33.7698 H   0  0  0  0  0  0  0  0  0  0  0  0
   -4.0066   14.2417  -33.7698 H   0  0  0  0  0  0  0  0  0  0  0  0
   -7.6785   14.8632  -33.3359 H   0  0  0  0  0  0  0  0  0  0  0  0
   -7.7663   15.7684  -34.8850 H   0  0  0  0  0  0  0  0  0  0  0  0
   -7.3144   14.0299  -34.8850 H   0  0  0  0  0  0  0  0  0  0  0  0
   -7.5862   17.1237  -33.5940 H   0  0  0  0  0  0  0  0  0  0  0  0
   -6.9877   16.2474  -32.1238 H   0  0  0  0  0  0  0  0  0  0  0  0
   -7.5707   18.7699  -31.8946 H   0  0  0  0  0  0  0  0  0  0  0  0
   -6.0335   18.1981  -31.2029 H   0  0  0  0  0  0  0  0  0  0  0  0
   -3.4084   19.2949  -31.9154 H   0  0  0  0  0  0  0  0  0  0  0  0
    0.0524   21.2767  -30.8786 H   0  0  0  0  0  0  0  0  0  0  0  0
   -0.7632   20.3779  -32.2028 H   0  0  0  0  0  0  0  0  0  0  0  0
   -0.7648   22.1742  -32.2028 H   0  0  0  0  0  0  0  0  0  0  0  0
   -3.3560   21.8580  -29.1900 H   0  0  0  0  0  0  0  0  0  0  0  0
   -2.4826   21.9409  -26.9114 H   0  0  0  0  0  0  0  0  0  0  0  0
  1  2  1  0
  2  3  1  0
  3  4  2  0
  3  5  2  0
  3  6  1  0
  6  7  2  0
  7  8  1  0
  8  9  2  0
  9 10  1  0
 10 11  2  0
 11 12  1  0
 12 13  2  0
 13 14  1  0
 14 15  1  0
 15 16  2  0
 16 17  1  0
 17 18  2  0
 18 19  1  0
 19 20  2  0
 20 21  1  0
 21 22  1  0
 22 23  1  0
 23 24  1  0
 24 25  1  0
 25 26  1  0
 25 27  1  0
 24 28  1  0
 28 29  1  0
 20 30  1  0
 30 31  2  0
 31 32  1  0
 32 33  1  0
 15 34  1  0
 34 35  1  0
 35 36  2  0
 36 37  1  0
 11  6  1  0
 36 13  1  0
 31 17  1  0
 29 21  1  0
  1 38  1  0
  1 39  1  0
  1 40  1  0
  2 41  1  0
  7 42  1  0
  8 43  1  0
  9 44  1  0
 10 45  1  0
 14 46  1  0
 18 47  1  0
 19 48  1  0
 22 49  1  0
 22 50  1  0
 23 51  1  0
 23 52  1  0
 25 53  1  0
 26 54  1  0
 26 55  1  0
 26 56  1  0
 27 57  1  0
 27 58  1  0
 27 59  1  0
 28 60  1  0
 28 61  1  0
 29 62  1  0
 29 63  1  0
 30 64  1  0
 33 65  1  0
 33 66  1  0
 33 67  1  0
 34 68  1  0
 35 69  1  0
M  END
>  <smiles>  (3) 
CNS(=O)(=O)c1ccccc1N=c1[nH]c(=Nc2ccc(N3CCN(C(C)C)CC3)cc2OC)[nH]cc1Cl

>  <score_type>  (3) 
oracle

>  <origin>  (3) 
adgpu

>  <m_score__min__energy>  (3) 
-10.369999999999999

>  <m_primary>  (3) 
energy

$$$$
3:0
     RDKit          3D

 78 82  0  0  0  0  0  0  0  0999 V2000
    1.6203   22.5280  -35.0738 H   0  0  0  0  0  0  0  0  0  0  0  0
    0.9850   21.6400  -34.9400 C   0  0  0  0  0  0  0  0  0  0  0  0
    0.1810   21.5210  -33.8030 C   0  0  0  0  0  0  0  0  0  0  0  0
    0.1864   22.3139  -33.0406 H   0  0  0  0  0  0  0  0  0  0  0  0
   -0.6300   20.3950  -33.6340 C   0  0  0  0  0  0  0  0  0  0  0  0
   -1.2491   20.2987  -32.7299 H   0  0  0  0  0  0  0  0  0  0  0  0
   -0.6600   19.3880  -34.6080 C   0  0  0  0  0  0  0  0  0  0  0  0
   -1.4730   18.2260  -34.3750 N   0  0  0  0  0  0  0  0  0  0  0  0
   -2.6220   18.1860  -33.7660 C   0  0  0  0  0  0  0  0  0  0  0  0
   -3.2890   17.0090  -33.6890 N   0  0  0  0  0  0  0  0  0  0  0  0
   -4.4890   16.9040  -33.0620 C   0  0  0  0  0  0  0  0  0  0  0  0
   -5.1530   15.6260  -33.0530 N   0  0  0  0  0  0  0  0  0  0  0  0
   -4.6170   14.5440  -32.2240 C   0  0  0  0  0  0  0  0  0  0  0  0
   -3.8760   14.9558  -31.5231 H   0  0  0  0  0  0  0  0  0  0  0  0
   -5.4414   14.0764  -31.6657 H   0  0  0  0  0  0  0  0  0  0  0  0
   -3.9430   13.4810  -33.1110 C   0  0  0  0  0  0  0  0  0  0  0  0
   -2.8976   13.7805  -33.2766 H   0  0  0  0  0  0  0  0  0  0  0  0
   -4.0288   12.5215  -32.5800 H   0  0  0  0  0  0  0  0  0  0  0  0
   -4.5940   13.3000  -34.4370 N   0  0  0  0  0  0  0  0  0  0  0  0
   -3.7870   13.8700  -35.5290 C   0  0  0  0  0  0  0  0  0  0  0  0
   -2.9579   14.4556  -35.1051 H   0  0  0  0  0  0  0  0  0  0  0  0
   -3.3820   13.0565  -36.1488 H   0  0  0  0  0  0  0  0  0  0  0  0
   -4.4183   14.5237  -36.1488 H   0  0  0  0  0  0  0  0  0  0  0  0
   -5.9920   13.7810  -34.4780 C   0  0  0  0  0  0  0  0  0  0  0  0
   -6.3911   13.6275  -35.4915 H   0  0  0  0  0  0  0  0  0  0  0  0
   -6.5693   13.2131  -33.7336 H   0  0  0  0  0  0  0  0  0  0  0  0
   -6.0970   15.2760  -34.1230 C   0  0  0  0  0  0  0  0  0  0  0  0
   -5.8680   15.8757  -35.0163 H   0  0  0  0  0  0  0  0  0  0  0  0
   -7.1190   15.4843  -33.7735 H   0  0  0  0  0  0  0  0  0  0  0  0
   -5.0460   18.0390  -32.4300 C   0  0  0  0  0  0  0  0  0  0  0  0
   -6.6290   17.9280  -31.5650 S   0  0  0  0  0  0  0  0  0  0  0  0
   -7.6250   18.3530  -33.0320 C   0  0  0  0  0  0  0  0  0  0  0  0
   -8.5927   18.7659  -32.7111 H   0  0  0  0  0  0  0  0  0  0  0  0
   -7.0891   19.1008  -33.6350 H   0  0  0  0  0  0  0  0  0  0  0  0
   -7.7941   17.4486  -33.6350 H   0  0  0  0  0  0  0  0  0  0  0  0
   -4.3370   19.2610  -32.5180 C   0  0  0  0  0  0  0  0  0  0  0  0
   -4.8650   20.5480  -32.0040 C   0  0  0  0  0  0  0  0  0  0  0  0
   -5.9600   21.1440  -32.6490 C   0  0  0  0  0  0  0  0  0  0  0  0
   -6.4346   20.6356  -33.5012 H   0  0  0  0  0  0  0  0  0  0  0  0
   -6.4510   22.3770  -32.2170 C   0  0  0  0  0  0  0  0  0  0  0  0
   -7.3047   22.8393  -32.7341 H   0  0  0  0  0  0  0  0  0  0  0  0
   -5.8610   23.0250  -31.1300 C   0  0  0  0  0  0  0  0  0  0  0  0
   -6.2509   23.9976  -30.7951 H   0  0  0  0  0  0  0  0  0  0  0  0
   -4.7720   22.4410  -30.4620 C   0  0  0  0  0  0  0  0  0  0  0  0
   -4.1530   23.0850  -29.3340 N   0  0  0  0  0  0  0  0  0  0  0  0
   -4.4040   22.7360  -28.3810 H   0  0  0  0  0  0  0  0  0  0  0  0
   -3.4300   24.3250  -29.4300 C   0  0  0  0  0  0  0  0  0  0  0  0
   -3.5060   25.0150  -30.4830 O   0  0  0  0  0  0  0  0  0  0  0  0
   -2.6300   24.8350  -28.2890 C   0  0  0  0  0  0  0  0  0  0  0  0
   -1.3320   25.3360  -28.4740 C   0  0  0  0  0  0  0  0  0  0  0  0
   -0.8922   25.3501  -29.4822 H   0  0  0  0  0  0  0  0  0  0  0  0
   -0.5930   25.8170  -27.3900 C   0  0  0  0  0  0  0  0  0  0  0  0
    0.4225   26.2046  -27.5588 H   0  0  0  0  0  0  0  0  0  0  0  0
   -1.1250   25.8150  -26.0820 C   0  0  0  0  0  0  0  0  0  0  0  0
   -0.2780   26.3550  -24.9110 C   0  0  0  0  0  0  0  0  0  0  0  0
    0.5270   27.6260  -25.2790 C   0  0  0  0  0  0  0  0  0  0  0  0
    0.8494   28.1351  -24.3587 H   0  0  0  0  0  0  0  0  0  0  0  0
    1.4104   27.3422  -25.8698 H   0  0  0  0  0  0  0  0  0  0  0  0
   -0.1071   28.3034  -25.8698 H   0  0  0  0  0  0  0  0  0  0  0  0
   -1.2010   26.7150  -23.7260 C   0  0  0  0  0  0  0  0  0  0  0  0
   -0.6788   26.5113  -22.7795 H   0  0  0  0  0  0  0  0  0  0  0  0
   -1.4644   27.7818  -23.7773 H   0  0  0  0  0  0  0  0  0  0  0  0
   -2.1171   26.1083  -23.7773 H   0  0  0  0  0  0  0  0  0  0  0  0
    0.7300   25.2740  -24.4660 C   0  0  0  0  0  0  0  0  0  0  0  0
    0.7655   25.2359  -23.3672 H   0  0  0  0  0  0  0  0  0  0  0  0
    0.4145   24.2954  -24.8568 H   0  0  0  0  0  0  0  0  0  0  0  0
    1.7283   25.5204  -24.8568 H   0  0  0  0  0  0  0  0  0  0  0  0
   -2.4400   25.3220  -25.9100 C   0  0  0  0  0  0  0  0  0  0  0  0
   -2.8886   25.3143  -24.9057 H   0  0  0  0  0  0  0  0  0  0  0  0
   -3.1770   24.8450  -26.9960 C   0  0  0  0  0  0  0  0  0  0  0  0
   -4.1995   24.4722  -26.8363 H   0  0  0  0  0  0  0  0  0  0  0  0
   -4.2530   21.2240  -30.9330 C   0  0  0  0  0  0  0  0  0  0  0  0
   -3.3580   20.7947  -30.4591 H   0  0  0  0  0  0  0  0  0  0  0  0
   -3.1540   19.2920  -33.1860 N   0  0  0  0  0  0  0  0  0  0  0  0
    0.1760   19.5010  -35.7380 C   0  0  0  0  0  0  0  0  0  0  0  0
    0.1944   18.6977  -36.4893 H   0  0  0  0  0  0  0  0  0  0  0  0
    0.9820   20.6320  -35.9060 C   0  0  0  0  0  0  0  0  0  0  0  0
    1.6146   20.7273  -36.8009 H   0  0  0  0  0  0  0  0  0  0  0  0
  1  2  1  0
  2  3  2  0
  3  4  1  0
  3  5  1  0
  5  6  1  0
  5  7  2  0
  7  8  1  0
  8  9  2  0
  9 10  1  0
 10 11  2  0
 11 12  1  0
 12 13  1  0
 13 14  1  0
 13 15  1  0
 13 16  1  0
 16 17  1  0
 16 18  1  0
 16 19  1  0
 19 20  1  0
 20 21  1  0
 20 22  1  0
 20 23  1  0
 19 24  1  0
 24 25  1  0
 24 26  1  0
 24 27  1  0
 27 28  1  0
 27 29  1  0
 11 30  1  0
 30 31  1  0
 31 32  1  0
 32 33  1  0
 32 34  1  0
 32 35  1  0
 30 36  2  0
 36 37  1  0
 37 38  2  0
 38 39  1  0
 38 40  1  0
 40 41  1  0
 40 42  2  0
 42 43  1  0
 42 44  1  0
 44 45  1  0
 45 46  1  0
 45 47  1  0
 47 48  2  0
 47 49  1  0
 49 50  2  0
 50 51  1  0
 50 52  1  0
 52 53  1  0
 52 54  2  0
 54 55  1  0
 55 56  1  0
 56 57  1  0
 56 58  1  0
 56 59  1  0
 55 60  1  0
 60 61  1  0
 60 62  1  0
 60 63  1  0
 55 64  1  0
 64 65  1  0
 64 66  1  0
 64 67  1  0
 54 68  1  0
 68 69  1  0
 68 70  2  0
 70 71  1  0
 44 72  2  0
 72 73  1  0
 36 74  1  0
  7 75  1  0
 75 76  1  0
 75 77  2  0
 77 78  1  0
 77  2  1  0
 74  9  1  0
 27 12  1  0
 72 37  1  0
 70 49  1  0
M  CHG  1  74  -1
M  END
>  <UniqueID>  (4) 
2

>  <SMILES>  (4) 
CSc1c(N2CCN(C)CC2)n/c(=N/c2ccccc2)[n-]c1-c1cccc(NC(=O)c2ccc(C(C)(C)C)cc2)c1

>  <Energy>  (4) 
113.76771557360952

>  <Genealogy>  (4) 
CSc1c(N2CCN(C)CC2)nc(=Nc2ccccc2)[n-]c1-c1cccc(NC(=O)c2ccc(C(C)(C)C)cc2)c1 (protonated)
CSc1c(N2CCN(C)CC2)n/c(=N/c2ccccc2)[n-]c1-c1cccc(NC(=O)c2ccc(C(C)(C)C)cc2)c1 (cis-trans isomerization)
CSc1c(N2CCN(C)CC2)n/c(=N/c2ccccc2)[n-]c1-c1cccc(NC(=O)c2ccc(C(C)(C)C)cc2)c1 (3D coordinates assigned)
CSc1c(N2CCN(C)CC2)n/c(=N/c2ccccc2)[n-]c1-c1cccc(NC(=O)c2ccc(C(C)(C)C)cc2)c1 (nonaromatic ring conformer: 113.76771557360952 kcal/mol)

>  <smiles>  (4) 
CSc1c(N2CCN(C)CC2)nc(=Nc2ccccc2)[nH]c1-c1cccc(NC(=O)c2ccc(C(C)(C)C)cc2)c1

>  <score_type>  (4) 
oracle

>  <origin>  (4) 
adgpu

>  <m_score__min__energy>  (4) 
-10.640000000000001

>  <m_primary>  (4) 
energy

$$$$
4:0
     RDKit          3D

 28 30  0  0  0  0  0  0  0  0999 V2000
   -9.4880   21.2260  -31.9620 C   0  0  0  0  0  0  0  0  0  0  0  0
   -8.1740   22.4340  -31.6080 S   0  0  0  0  0  0  0  0  0  0  0  0
   -6.8750   21.4140  -32.3270 C   0  0  0  0  0  0  0  0  0  0  0  0
   -7.2750   20.2880  -33.0610 C   0  0  0  0  0  0  0  0  0  0  0  0
   -6.3280   19.4460  -33.6430 C   0  0  0  0  0  0  0  0  0  0  0  0
   -4.9700   19.7170  -33.4960 C   0  0  0  0  0  0  0  0  0  0  0  0
   -4.5530   20.8300  -32.7650 C   0  0  0  0  0  0  0  0  0  0  0  0
   -5.4920   21.6950  -32.1680 C   0  0  0  0  0  0  0  0  0  0  0  0
   -4.9920   22.8670  -31.4020 C   0  0  0  0  0  0  0  0  0  0  0  0
   -5.2060   24.1500  -31.7580 N   0  0  0  0  0  0  0  0  0  0  0  0
   -4.6190   24.9030  -30.8410 N   0  0  0  0  0  0  0  0  0  0  0  0
   -4.0680   24.0520  -29.9570 C   0  0  0  0  0  0  0  0  0  0  0  0
   -3.3170   24.4610  -28.7680 C   0  0  0  0  0  0  0  0  0  0  0  0
   -3.7910   24.4730  -27.4630 C   0  0  0  0  0  0  0  0  0  0  0  0
   -2.8390   24.9140  -26.5360 C   0  0  0  0  0  0  0  0  0  0  0  0
   -1.6180   25.2480  -27.1080 C   0  0  0  0  0  0  0  0  0  0  0  0
   -1.7230   24.9950  -28.7690 S   0  0  0  0  0  0  0  0  0  0  0  0
   -4.2920   22.8060  -30.2950 O   0  0  0  0  0  0  0  0  0  0  0  0
   -9.9013   20.8460  -31.0161 H   0  0  0  0  0  0  0  0  0  0  0  0
  -10.2864   21.7121  -32.5420 H   0  0  0  0  0  0  0  0  0  0  0  0
   -9.0707   20.3897  -32.5420 H   0  0  0  0  0  0  0  0  0  0  0  0
   -8.3461   20.0669  -33.1788 H   0  0  0  0  0  0  0  0  0  0  0  0
   -6.6539   18.5671  -34.2186 H   0  0  0  0  0  0  0  0  0  0  0  0
   -4.2246   19.0523  -33.9571 H   0  0  0  0  0  0  0  0  0  0  0  0
   -3.4780   21.0348  -32.6533 H   0  0  0  0  0  0  0  0  0  0  0  0
   -4.8106   24.1672  -27.1857 H   0  0  0  0  0  0  0  0  0  0  0  0
   -3.0390   24.9889  -25.4569 H   0  0  0  0  0  0  0  0  0  0  0  0
   -0.7331   25.6153  -26.5676 H   0  0  0  0  0  0  0  0  0  0  0  0
  1  2  1  0
  2  3  1  0
  3  4  2  0
  4  5  1  0
  5  6  2  0
  6  7  1  0
  7  8  2  0
  8  9  1  0
  9 10  2  0
 10 11  1  0
 11 12  2  0
 12 13  1  0
 13 14  2  0
 14 15  1  0
 15 16  2  0
 16 17  1  0
 12 18  1  0
  8  3  1  0
 18  9  1  0
 17 13  1  0
  1 19  1  0
  1 20  1  0
  1 21  1  0
  4 22  1  0
  5 23  1  0
  6 24  1  0
  7 25  1  0
 14 26  1  0
 15 27  1  0
 16 28  1  0
M  END
>  <UniqueID>  (5) 
3

>  <SMILES>  (5) 
CSc1ccccc1-c1nnc(-c2cccs2)o1

>  <Energy>  (5) 
88.66530382523833

>  <Genealogy>  (5) 
CSc1ccccc1-c1nnc(-c2cccs2)o1 (3D coordinates assigned)
CSc1ccccc1-c1nnc(-c2cccs2)o1 (optimized conformer: 88.66530382523833 kcal/mol)

>  <smiles>  (5) 
CSc1ccccc1-c1nnc(-c2cccs2)o1

>  <score_type>  (5) 
oracle

>  <origin>  (5) 
adgpu

>  <m_score__min__energy>  (5) 
-7.79

>  <m_primary>  (5) 
energy

$$$$
5:0
     RDKit          3D

 40 42  0  0  0  0  0  0  0  0999 V2000
   -1.6240   26.8890  -29.3400 H   0  0  0  0  0  0  0  0  0  0  0  0
   -1.1680   26.0370  -28.9450 N   0  0  0  0  0  0  0  0  0  0  0  0
   -1.7360   24.8770  -29.0060 C   0  0  0  0  0  0  0  0  0  0  0  0
   -1.1120   23.7930  -28.4800 N   0  0  0  0  0  0  0  0  0  0  0  0
   -1.6770   22.5560  -28.5300 C   0  0  0  0  0  0  0  0  0  0  0  0
   -0.9940   21.4360  -27.9350 N   0  0  0  0  0  0  0  0  0  0  0  0
   -1.7730   20.2650  -27.5140 C   0  0  0  0  0  0  0  0  0  0  0  0
   -2.4123   20.5438  -26.6633 H   0  0  0  0  0  0  0  0  0  0  0  0
   -2.3887   19.9277  -28.3608 H   0  0  0  0  0  0  0  0  0  0  0  0
   -0.8460   19.1180  -27.0920 C   0  0  0  0  0  0  0  0  0  0  0  0
   -0.4797   19.3049  -26.0718 H   0  0  0  0  0  0  0  0  0  0  0  0
   -1.4094   18.1738  -27.1247 H   0  0  0  0  0  0  0  0  0  0  0  0
    0.2990   19.0210  -28.0070 N   0  0  0  0  0  0  0  0  0  0  0  0
   -0.0660   18.9030  -28.9820 H   0  0  0  0  0  0  0  0  0  0  0  0
    1.1620   20.2180  -27.9640 C   0  0  0  0  0  0  0  0  0  0  0  0
    1.9661   20.0385  -27.2352 H   0  0  0  0  0  0  0  0  0  0  0  0
    1.5417   20.3730  -28.9847 H   0  0  0  0  0  0  0  0  0  0  0  0
    0.4230   21.5110  -27.5620 C   0  0  0  0  0  0  0  0  0  0  0  0
    0.5030   21.6491  -26.4736 H   0  0  0  0  0  0  0  0  0  0  0  0
    0.8830   22.3597  -28.0894 H   0  0  0  0  0  0  0  0  0  0  0  0
   -2.9420   22.4060  -29.1160 C   0  0  0  0  0  0  0  0  0  0  0  0
   -3.4321   21.4215  -29.1414 H   0  0  0  0  0  0  0  0  0  0  0  0
   -3.5740   23.5310  -29.6700 C   0  0  0  0  0  0  0  0  0  0  0  0
   -4.9130   23.4400  -30.3090 C   0  0  0  0  0  0  0  0  0  0  0  0
   -5.8420   24.4790  -30.1500 C   0  0  0  0  0  0  0  0  0  0  0  0
   -5.5841   25.3538  -29.5350 H   0  0  0  0  0  0  0  0  0  0  0  0
   -7.0580   24.4110  -30.7510 N   0  0  0  0  0  0  0  0  0  0  0  0
   -7.4360   23.3470  -31.5060 C   0  0  0  0  0  0  0  0  0  0  0  0
   -8.9930   23.4220  -32.3150 Cl  0  0  0  0  0  0  0  0  0  0  0  0
   -6.5490   22.2690  -31.6820 C   0  0  0  0  0  0  0  0  0  0  0  0
   -6.8770   21.1230  -32.4760 N   0  0  0  0  0  0  0  0  0  0  0  0
   -8.0570   19.9390  -32.0160 S   0  0  0  0  0  0  0  0  0  0  0  0
   -8.8310   20.4290  -30.8250 O   0  0  0  0  0  0  0  0  0  0  0  0
   -7.3760   18.6420  -31.6730 O   0  0  0  0  0  0  0  0  0  0  0  0
   -9.1380   19.6690  -33.3360 N   0  0  0  0  0  0  0  0  0  0  0  0
   -9.1840   18.6360  -33.4850 H   0  0  0  0  0  0  0  0  0  0  0  0
   -8.6860   20.0740  -34.1870 H   0  0  0  0  0  0  0  0  0  0  0  0
   -5.2790   22.3390  -31.1030 C   0  0  0  0  0  0  0  0  0  0  0  0
   -4.5586   21.5247  -31.2701 H   0  0  0  0  0  0  0  0  0  0  0  0
   -2.9530   24.7400  -29.5940 N   0  0  0  0  0  0  0  0  0  0  0  0
  1  2  1  0
  2  3  2  0
  3  4  1  0
  4  5  2  0
  5  6  1  0
  6  7  1  0
  7  8  1  0
  7  9  1  0
  7 10  1  0
 10 11  1  0
 10 12  1  0
 10 13  1  0
 13 14  1  0
 13 15  1  0
 15 16  1  0
 15 17  1  0
 15 18  1  0
 18 19  1  0
 18 20  1  0
  5 21  1  0
 21 22  1  0
 21 23  2  0
 23 24  1  0
 24 25  2  0
 25 26  1  0
 25 27  1  0
 27 28  2  0
 28 29  1  0
 28 30  1  0
 30 31  1  0
 31 32  1  0
 32 33  2  0
 32 34  2  0
 32 35  1  0
 35 36  1  0
 35 37  1  0
 30 38  2  0
 38 39  1  0
 23 40  1  0
 40  3  1  0
 18  6  1  0
 38 24  1  0
M  CHG  2  31  -1  40  -1
M  END
>  <UniqueID>  (6) 
4

>  <SMILES>  (6) 
[H]/N=c1/nc(N2CCNCC2)cc(-c2cnc(Cl)c([N-]S(N)(=O)=O)c2)[n-]1

>  <Energy>  (6) 
60.13492996592567

>  <Genealogy>  (6) 
N=c1nc(N2CCNCC2)cc(-c2cnc(Cl)c([N-]S(N)(=O)=O)c2)[n-]1 (protonated)
[H]/N=c1/nc(N2CCNCC2)cc(-c2cnc(Cl)c([N-]S(N)(=O)=O)c2)[n-]1 (cis-trans isomerization)
[H]/N=c1/nc(N2CCNCC2)cc(-c2cnc(Cl)c([N-]S(N)(=O)=O)c2)[n-]1 (3D coordinates assigned)
[H]/N=c1/nc(N2CCNCC2)cc(-c2cnc(Cl)c([N-]S(N)(=O)=O)c2)[n-]1 (nonaromatic ring conformer: 60.13492996592567 kcal/mol)

>  <smiles>  (6) 
N=c1nc(N2CCNCC2)cc(-c2cnc(Cl)c(NS(N)(=O)=O)c2)[nH]1

>  <score_type>  (6) 
oracle

>  <origin>  (6) 
adgpu

>  <m_score__min__energy>  (6) 
-9.6099999999999994

>  <m_primary>  (6) 
energy

$$$$
6:0
     RDKit          3D

 33 35  0  0  0  0  0  0  0  0999 V2000
   -0.4290   27.7770  -27.4610 N   0  0  0  0  0  0  0  0  0  0  0  0
   -0.4590   26.7250  -26.4830 C   0  0  0  0  0  0  0  0  0  0  0  0
   -0.2900   27.0280  -25.1010 C   0  0  0  0  0  0  0  0  0  0  0  0
   -0.0530   28.6770  -24.5360 Cl  0  0  0  0  0  0  0  0  0  0  0  0
   -0.3070   26.0040  -24.1410 C   0  0  0  0  0  0  0  0  0  0  0  0
   -0.4920   24.6990  -24.5770 C   0  0  0  0  0  0  0  0  0  0  0  0
   -0.5470   23.5920  -23.8190 N   0  0  0  0  0  0  0  0  0  0  0  0
   -0.7550   22.6010  -24.7110 C   0  0  0  0  0  0  0  0  0  0  0  0
   -0.8790   21.3930  -24.3730 O   0  0  0  0  0  0  0  0  0  0  0  0
   -0.8250   23.0350  -25.9950 N   0  0  0  0  0  0  0  0  0  0  0  0
   -1.1330   22.0420  -27.3920 S   0  0  0  0  0  0  0  0  0  0  0  0
    0.1270   21.9150  -28.1990 O   0  0  0  0  0  0  0  0  0  0  0  0
   -1.5600   20.6680  -26.9580 O   0  0  0  0  0  0  0  0  0  0  0  0
   -2.4280   22.7360  -28.3620 C   0  0  0  0  0  0  0  0  0  0  0  0
   -2.4020   22.6200  -29.7580 C   0  0  0  0  0  0  0  0  0  0  0  0
   -3.4290   23.1750  -30.5280 C   0  0  0  0  0  0  0  0  0  0  0  0
   -4.4880   23.8430  -29.9050 C   0  0  0  0  0  0  0  0  0  0  0  0
   -4.5220   23.9530  -28.5120 C   0  0  0  0  0  0  0  0  0  0  0  0
   -3.4970   23.3980  -27.7400 C   0  0  0  0  0  0  0  0  0  0  0  0
   -0.6580   24.3770  -25.9000 C   0  0  0  0  0  0  0  0  0  0  0  0
   -0.6510   25.3770  -26.8930 C   0  0  0  0  0  0  0  0  0  0  0  0
   -0.8140   25.0610  -28.2770 N   0  0  0  0  0  0  0  0  0  0  0  0
   -1.6370   25.7100  -28.9540 O   0  0  0  0  0  0  0  0  0  0  0  0
    0.1930   24.3820  -28.9230 O   0  0  0  0  0  0  0  0  0  0  0  0
   -0.8230   27.6500  -28.4180 H   0  0  0  0  0  0  0  0  0  0  0  0
   -0.0190   28.7120  -27.2470 H   0  0  0  0  0  0  0  0  0  0  0  0
   -0.1773   26.2295  -23.0722 H   0  0  0  0  0  0  0  0  0  0  0  0
   -0.4610   23.5150  -22.7820 H   0  0  0  0  0  0  0  0  0  0  0  0
   -1.5720   22.0912  -30.2494 H   0  0  0  0  0  0  0  0  0  0  0  0
   -3.4039   23.0861  -31.6241 H   0  0  0  0  0  0  0  0  0  0  0  0
   -5.2942   24.2818  -30.5112 H   0  0  0  0  0  0  0  0  0  0  0  0
   -5.3562   24.4769  -28.0225 H   0  0  0  0  0  0  0  0  0  0  0  0
   -3.5288   23.4805  -26.6436 H   0  0  0  0  0  0  0  0  0  0  0  0
  1  2  1  0
  2  3  2  0
  3  4  1  0
  3  5  1  0
  5  6  2  0
  6  7  1  0
  7  8  1  0
  8  9  2  0
  8 10  1  0
 10 11  1  0
 11 12  2  0
 11 13  2  0
 11 14  1  0
 14 15  2  0
 15 16  1  0
 16 17  2  0
 17 18  1  0
 18 19  2  0
 10 20  1  0
 20 21  2  0
 21 22  1  0
 22 23  2  0
 22 24  1  0
 21  2  1  0
 20  6  1  0
 19 14  1  0
  1 25  1  0
  1 26  1  0
  5 27  1  0
  7 28  1  0
 15 29  1  0
 16 30  1  0
 17 31  1  0
 18 32  1  0
 19 33  1  0
M  CHG  2  22   1  24  -1
M  END
>  <UniqueID>  (7) 
5

>  <SMILES>  (7) 
Nc1c(Cl)cc2[nH]c(=O)n(S(=O)(=O)c3ccccc3)c2c1[N+](=O)[O-]

>  <Energy>  (7) 
89.37889557745584

>  <Genealogy>  (7) 
Nc1c(Cl)cc2[nH]c(=O)n(S(=O)(=O)c3ccccc3)c2c1[N+](=O)[O-] (3D coordinates assigned)
Nc1c(Cl)cc2[nH]c(=O)n(S(=O)(=O)c3ccccc3)c2c1[N+](=O)[O-] (optimized conformer: 89.37889557745584 kcal/mol)

>  <smiles>  (7) 
Nc1c(Cl)cc2[nH]c(=O)n(S(=O)(=O)c3ccccc3)c2c1[N+](=O)[O-]

>  <score_type>  (7) 
oracle

>  <origin>  (7) 
adgpu

>  <m_score__min__energy>  (7) 
-7.7199999999999998

>  <m_primary>  (7) 
energy

$$$$
7:0
     RDKit          3D

 40 43  0  0  0  0  0  0  0  0999 V2000
   -0.8050   18.8590  -27.4600 Cl  0  0  0  0  0  0  0  0  0  0  0  0
   -1.6920   20.0710  -28.3660 C   0  0  0  0  0  0  0  0  0  0  0  0
   -1.2790   20.4220  -29.6570 C   0  0  0  0  0  0  0  0  0  0  0  0
   -1.9870   21.3860  -30.3810 C   0  0  0  0  0  0  0  0  0  0  0  0
   -3.1150   22.0050  -29.8200 C   0  0  0  0  0  0  0  0  0  0  0  0
   -3.8450   22.9930  -30.5680 N   0  0  0  0  0  0  0  0  0  0  0  0
   -3.8120   24.3320  -30.4150 C   0  0  0  0  0  0  0  0  0  0  0  0
   -3.0230   25.0120  -29.4260 N   0  0  0  0  0  0  0  0  0  0  0  0
   -2.0230   24.3660  -28.6200 C   0  0  0  0  0  0  0  0  0  0  0  0
   -2.2150   24.1500  -27.2430 C   0  0  0  0  0  0  0  0  0  0  0  0
   -1.2160   23.5390  -26.4790 C   0  0  0  0  0  0  0  0  0  0  0  0
   -0.0150   23.1500  -27.0770 C   0  0  0  0  0  0  0  0  0  0  0  0
    0.1930   23.3800  -28.4400 C   0  0  0  0  0  0  0  0  0  0  0  0
   -0.8040   23.9910  -29.2070 C   0  0  0  0  0  0  0  0  0  0  0  0
   -4.7220   24.9440  -31.1960 N   0  0  0  0  0  0  0  0  0  0  0  0
   -5.3430   23.9950  -31.8790 N   0  0  0  0  0  0  0  0  0  0  0  0
   -4.8110   22.8150  -31.5000 C   0  0  0  0  0  0  0  0  0  0  0  0
   -5.2330   21.5210  -32.0790 C   0  0  0  0  0  0  0  0  0  0  0  0
   -4.3240   20.7710  -32.8430 C   0  0  0  0  0  0  0  0  0  0  0  0
   -4.7050   19.5410  -33.3890 C   0  0  0  0  0  0  0  0  0  0  0  0
   -5.9910   19.0440  -33.1650 C   0  0  0  0  0  0  0  0  0  0  0  0
   -6.8950   19.7710  -32.3870 C   0  0  0  0  0  0  0  0  0  0  0  0
   -6.5190   21.0020  -31.8400 C   0  0  0  0  0  0  0  0  0  0  0  0
   -3.5220   21.6530  -28.5230 C   0  0  0  0  0  0  0  0  0  0  0  0
   -2.8130   20.6870  -27.8010 C   0  0  0  0  0  0  0  0  0  0  0  0
   -0.3967   19.9389  -30.1020 H   0  0  0  0  0  0  0  0  0  0  0  0
   -1.6587   21.6605  -31.3944 H   0  0  0  0  0  0  0  0  0  0  0  0
   -3.1170   26.0500  -29.3520 H   0  0  0  0  0  0  0  0  0  0  0  0
   -3.1551   24.4632  -26.7654 H   0  0  0  0  0  0  0  0  0  0  0  0
   -1.3761   23.3643  -25.4048 H   0  0  0  0  0  0  0  0  0  0  0  0
    0.7667   22.6629  -26.4756 H   0  0  0  0  0  0  0  0  0  0  0  0
    1.1415   23.0802  -28.9096 H   0  0  0  0  0  0  0  0  0  0  0  0
   -0.6321   24.1790  -30.2771 H   0  0  0  0  0  0  0  0  0  0  0  0
   -3.3066   21.1531  -33.0129 H   0  0  0  0  0  0  0  0  0  0  0  0
   -3.9911   18.9644  -33.9955 H   0  0  0  0  0  0  0  0  0  0  0  0
   -6.2918   18.0801  -33.6013 H   0  0  0  0  0  0  0  0  0  0  0  0
   -7.9046   19.3745  -32.2042 H   0  0  0  0  0  0  0  0  0  0  0  0
   -7.2313   21.5667  -31.2205 H   0  0  0  0  0  0  0  0  0  0  0  0
   -4.4009   22.1382  -28.0734 H   0  0  0  0  0  0  0  0  0  0  0  0
   -3.1380   20.4115  -26.7869 H   0  0  0  0  0  0  0  0  0  0  0  0
  1  2  1  0
  2  3  2  0
  3  4  1  0
  4  5  2  0
  5  6  1  0
  6  7  1  0
  7  8  1  0
  8  9  1  0
  9 10  2  0
 10 11  1  0
 11 12  2  0
 12 13  1  0
 13 14  2  0
  7 15  2  0
 15 16  1  0
 16 17  2  0
 17 18  1  0
 18 19  2  0
 19 20  1  0
 20 21  2  0
 21 22  1  0
 22 23  2  0
  5 24  1  0
 24 25  2  0
 25  2  1  0
 17  6  1  0
 23 18  1  0
 14  9  1  0
  3 26  1  0
  4 27  1  0
  8 28  1  0
 10 29  1  0
 11 30  1  0
 12 31  1  0
 13 32  1  0
 14 33  1  0
 19 34  1  0
 20 35  1  0
 21 36  1  0
 22 37  1  0
 23 38  1  0
 24 39  1  0
 25 40  1  0
M  END
>  <UniqueID>  (8) 
6

>  <SMILES>  (8) 
Clc1ccc(-n2c(Nc3ccccc3)nnc2-c2ccccc2)cc1

>  <Energy>  (8) 
92.50487313313104

>  <Genealogy>  (8) 
Clc1ccc(-n2c(Nc3ccccc3)nnc2-c2ccccc2)cc1 (3D coordinates assigned)
Clc1ccc(-n2c(Nc3ccccc3)nnc2-c2ccccc2)cc1 (optimized conformer: 92.50487313313104 kcal/mol)

>  <smiles>  (8) 
Clc1ccc(-n2c(Nc3ccccc3)nnc2-c2ccccc2)cc1

>  <score_type>  (8) 
oracle

>  <origin>  (8) 
adgpu

>  <m_score__min__energy>  (8) 
-9.1699999999999999

>  <m_primary>  (8) 
energy

$$$$
8:0
     RDKit          3D

 25 25  0  0  0  0  0  0  0  0999 V2000
   -6.1080   25.6730  -29.7130 C   0  0  0  0  0  0  0  0  0  0  0  0
   -4.9390   24.7710  -30.0940 C   0  0  0  0  0  0  0  0  0  0  0  0
   -5.1200   24.2330  -31.4050 O   0  0  0  0  0  0  0  0  0  0  0  0
   -5.9580   23.1560  -31.7380 C   0  0  0  0  0  0  0  0  0  0  0  0
   -5.4800   21.9630  -32.3020 C   0  0  0  0  0  0  0  0  0  0  0  0
   -6.3730   20.9350  -32.6070 C   0  0  0  0  0  0  0  0  0  0  0  0
   -7.7110   21.0720  -32.3580 N   0  0  0  0  0  0  0  0  0  0  0  0
   -8.6180   19.9710  -32.7200 C   0  0  0  0  0  0  0  0  0  0  0  0
   -8.7230   18.9690  -31.5740 C   0  0  0  0  0  0  0  0  0  0  0  0
   -8.1980   22.2400  -31.8240 C   0  0  0  0  0  0  0  0  0  0  0  0
   -9.4330   22.3880  -31.6160 O   0  0  0  0  0  0  0  0  0  0  0  0
   -7.3280   23.2870  -31.5060 C   0  0  0  0  0  0  0  0  0  0  0  0
   -6.1839   25.7316  -28.6172 H   0  0  0  0  0  0  0  0  0  0  0  0
   -5.9430   26.6801  -30.1235 H   0  0  0  0  0  0  0  0  0  0  0  0
   -7.0403   25.2580  -30.1235 H   0  0  0  0  0  0  0  0  0  0  0  0
   -4.0084   25.3571  -30.0699 H   0  0  0  0  0  0  0  0  0  0  0  0
   -4.8864   23.9396  -29.3757 H   0  0  0  0  0  0  0  0  0  0  0  0
   -4.4056   21.8388  -32.5028 H   0  0  0  0  0  0  0  0  0  0  0  0
   -5.9962   20.0028  -33.0532 H   0  0  0  0  0  0  0  0  0  0  0  0
   -9.6160   20.3799  -32.9364 H   0  0  0  0  0  0  0  0  0  0  0  0
   -8.2191   19.4575  -33.6073 H   0  0  0  0  0  0  0  0  0  0  0  0
   -8.6671   19.5029  -30.6139 H   0  0  0  0  0  0  0  0  0  0  0  0
   -9.6821   18.4345  -31.6410 H   0  0  0  0  0  0  0  0  0  0  0  0
   -7.8956   18.2473  -31.6410 H   0  0  0  0  0  0  0  0  0  0  0  0
   -7.7243   24.2167  -31.0717 H   0  0  0  0  0  0  0  0  0  0  0  0
  1  2  1  0
  2  3  1  0
  3  4  1  0
  4  5  1  0
  5  6  2  0
  6  7  1  0
  7  8  1  0
  8  9  1  0
  7 10  1  0
 10 11  2  0
 10 12  1  0
 12  4  2  0
  1 13  1  0
  1 14  1  0
  1 15  1  0
  2 16  1  0
  2 17  1  0
  5 18  1  0
  6 19  1  0
  8 20  1  0
  8 21  1  0
  9 22  1  0
  9 23  1  0
  9 24  1  0
 12 25  1  0
M  END
>  <UniqueID>  (9) 
7

>  <SMILES>  (9) 
CCOc1ccn(CC)c(=O)c1

>  <Energy>  (9) 
20.311673854874318

>  <Genealogy>  (9) 
CCOc1ccn(CC)c(=O)c1 (3D coordinates assigned)
CCOc1ccn(CC)c(=O)c1 (optimized conformer: 20.311673854874318 kcal/mol)

>  <smiles>  (9) 
CCOc1ccn(CC)c(=O)c1

>  <score_type>  (9) 
oracle

>  <origin>  (9) 
adgpu

>  <m_score__min__energy>  (9) 
-4.8600000000000003

>  <m_primary>  (9) 
energy

$$$$
9:0
     RDKit          3D

 48 51  0  0  0  0  0  0  0  0999 V2000
   -1.7840   22.9350  -30.6420 C   0  0  0  0  0  0  0  0  0  0  0  0
   -3.2340   23.2720  -30.7570 C   0  0  0  0  0  0  0  0  0  0  0  0
   -3.7290   24.4590  -30.4960 O   0  0  0  0  0  0  0  0  0  0  0  0
   -5.0160   24.4890  -30.6970 N   0  0  0  0  0  0  0  0  0  0  0  0
   -5.3880   23.2600  -31.1050 C   0  0  0  0  0  0  0  0  0  0  0  0
   -6.7930   22.8970  -31.3900 C   0  0  0  0  0  0  0  0  0  0  0  0
   -7.2640   21.6170  -31.0570 C   0  0  0  0  0  0  0  0  0  0  0  0
   -8.5850   21.2540  -31.3380 C   0  0  0  0  0  0  0  0  0  0  0  0
   -9.4420   22.1620  -31.9670 C   0  0  0  0  0  0  0  0  0  0  0  0
   -8.9770   23.4300  -32.3230 C   0  0  0  0  0  0  0  0  0  0  0  0
   -7.6560   23.7960  -32.0440 C   0  0  0  0  0  0  0  0  0  0  0  0
   -4.2680   22.4400  -31.1550 C   0  0  0  0  0  0  0  0  0  0  0  0
   -4.1670   21.0570  -31.6600 C   0  0  0  0  0  0  0  0  0  0  0  0
   -3.7080   20.1550  -30.9080 O   0  0  0  0  0  0  0  0  0  0  0  0
   -4.5510   20.7480  -33.0080 N   0  0  0  0  0  0  0  0  0  0  0  0
   -4.6150   19.4050  -33.5160 C   0  0  0  0  0  0  0  0  0  0  0  0
   -5.8530   18.8320  -33.8540 C   0  0  0  0  0  0  0  0  0  0  0  0
   -5.9110   17.5520  -34.4090 C   0  0  0  0  0  0  0  0  0  0  0  0
   -4.7370   16.8350  -34.6410 C   0  0  0  0  0  0  0  0  0  0  0  0
   -3.5000   17.3960  -34.3200 C   0  0  0  0  0  0  0  0  0  0  0  0
   -3.4280   18.6800  -33.7560 C   0  0  0  0  0  0  0  0  0  0  0  0
   -2.1500   19.2390  -33.4070 N   0  0  0  0  0  0  0  0  0  0  0  0
   -1.2680   18.5230  -32.4830 C   0  0  0  0  0  0  0  0  0  0  0  0
   -0.3890   19.5320  -31.7360 C   0  0  0  0  0  0  0  0  0  0  0  0
    0.2800   20.3850  -32.6470 O   0  0  0  0  0  0  0  0  0  0  0  0
   -0.6640   21.1780  -33.3450 C   0  0  0  0  0  0  0  0  0  0  0  0
   -1.5660   20.3050  -34.2230 C   0  0  0  0  0  0  0  0  0  0  0  0
   -1.5057   22.8703  -29.5797 H   0  0  0  0  0  0  0  0  0  0  0  0
   -1.5923   21.9684  -31.1308 H   0  0  0  0  0  0  0  0  0  0  0  0
   -1.1857   23.7180  -31.1308 H   0  0  0  0  0  0  0  0  0  0  0  0
   -6.5900   20.8954  -30.5722 H   0  0  0  0  0  0  0  0  0  0  0  0
   -8.9501   20.2532  -31.0639 H   0  0  0  0  0  0  0  0  0  0  0  0
  -10.4827   21.8777  -32.1816 H   0  0  0  0  0  0  0  0  0  0  0  0
   -9.6503   24.1416  -32.8233 H   0  0  0  0  0  0  0  0  0  0  0  0
   -7.2901   24.7911  -32.3371 H   0  0  0  0  0  0  0  0  0  0  0  0
   -4.6380   21.5370  -33.6850 H   0  0  0  0  0  0  0  0  0  0  0  0
   -6.7818   19.3952  -33.6803 H   0  0  0  0  0  0  0  0  0  0  0  0
   -6.8846   17.1080  -34.6639 H   0  0  0  0  0  0  0  0  0  0  0  0
   -4.7863   15.8265  -35.0774 H   0  0  0  0  0  0  0  0  0  0  0  0
   -2.5765   16.8293  -34.5098 H   0  0  0  0  0  0  0  0  0  0  0  0
   -1.8745   17.9581  -31.7598 H   0  0  0  0  0  0  0  0  0  0  0  0
   -0.6306   17.8267  -33.0477 H   0  0  0  0  0  0  0  0  0  0  0  0
   -1.0213   20.1388  -31.0711 H   0  0  0  0  0  0  0  0  0  0  0  0
    0.3622   18.9811  -31.1510 H   0  0  0  0  0  0  0  0  0  0  0  0
   -1.2855   21.7218  -32.6183 H   0  0  0  0  0  0  0  0  0  0  0  0
   -0.1217   21.8847  -33.9904 H   0  0  0  0  0  0  0  0  0  0  0  0
   -2.3696   20.9217  -34.6518 H   0  0  0  0  0  0  0  0  0  0  0  0
   -0.9722   19.8630  -35.0366 H   0  0  0  0  0  0  0  0  0  0  0  0
  1  2  1  0
  2  3  1  0
  3  4  1  0
  4  5  2  0
  5  6  1  0
  6  7  2  0
  7  8  1  0
  8  9  2  0
  9 10  1  0
 10 11  2  0
  5 12  1  0
 12 13  1  0
 13 14  2  0
 13 15  1  0
 15 16  1  0
 16 17  2  0
 17 18  1  0
 18 19  2  0
 19 20  1  0
 20 21  2  0
 21 22  1  0
 22 23  1  0
 23 24  1  0
 24 25  1  0
 25 26  1  0
 26 27  1  0
 12  2  2  0
 21 16  1  0
 27 22  1  0
 11  6  1  0
  1 28  1  0
  1 29  1  0
  1 30  1  0
  7 31  1  0
  8 32  1  0
  9 33  1  0
 10 34  1  0
 11 35  1  0
 15 36  1  0
 17 37  1  0
 18 38  1  0
 19 39  1  0
 20 40  1  0
 23 41  1  0
 23 42  1  0
 24 43  1  0
 24 44  1  0
 26 45  1  0
 26 46  1  0
 27 47  1  0
 27 48  1  0
M  END
>  <UniqueID>  (10) 
8

>  <SMILES>  (10) 
Cc1onc(-c2ccccc2)c1C(=O)Nc1ccccc1N1CCOCC1

>  <Energy>  (10) 
96.349064113375

>  <Genealogy>  (10) 
Cc1onc(-c2ccccc2)c1C(=O)Nc1ccccc1N1CCOCC1 (3D coordinates assigned)
Cc1onc(-c2ccccc2)c1C(=O)Nc1ccccc1N1CCOCC1 (nonaromatic ring conformer: 96.349064113375 kcal/mol)

>  <smiles>  (10) 
Cc1onc(-c2ccccc2)c1C(=O)Nc1ccccc1N1CCOCC1

>  <score_type>  (10) 
oracle

>  <origin>  (10) 
adgpu

>  <m_score__min__energy>  (10) 
-9.1600000000000001

>  <m_primary>  (10) 
energy

$$$$
10:0
     RDKit          3D

 46 48  0  0  0  0  0  0  0  0999 V2000
   -3.8170   16.6260  -33.0420 C   0  0  0  0  0  0  0  0  0  0  0  0
   -4.4510   17.8780  -33.4440 N   0  0  0  0  0  0  0  0  0  0  0  0
   -3.7700   19.1240  -33.2560 C   0  0  0  0  0  0  0  0  0  0  0  0
   -4.3830   20.1460  -32.5300 C   0  0  0  0  0  0  0  0  0  0  0  0
   -3.7280   21.3650  -32.3470 C   0  0  0  0  0  0  0  0  0  0  0  0
   -4.3810   22.4550  -31.5920 C   0  0  0  0  0  0  0  0  0  0  0  0
   -5.5570   23.0110  -32.1220 C   0  0  0  0  0  0  0  0  0  0  0  0
   -6.1960   24.0700  -31.4760 C   0  0  0  0  0  0  0  0  0  0  0  0
   -5.6660   24.5880  -30.2970 C   0  0  0  0  0  0  0  0  0  0  0  0
   -4.5060   24.0380  -29.7460 C   0  0  0  0  0  0  0  0  0  0  0  0
   -3.8590   22.9490  -30.3650 C   0  0  0  0  0  0  0  0  0  0  0  0
   -2.6120   22.3660  -29.7280 C   0  0  0  0  0  0  0  0  0  0  0  0
   -2.5050   22.8130  -28.4250 F   0  0  0  0  0  0  0  0  0  0  0  0
   -2.6570   20.9810  -29.7140 F   0  0  0  0  0  0  0  0  0  0  0  0
   -1.4820   22.7380  -30.4350 F   0  0  0  0  0  0  0  0  0  0  0  0
   -2.4640   21.5500  -32.9200 C   0  0  0  0  0  0  0  0  0  0  0  0
   -1.8590   20.5440  -33.6230 N   0  0  0  0  0  0  0  0  0  0  0  0
   -0.5420   20.7790  -34.2270 C   0  0  0  0  0  0  0  0  0  0  0  0
   -2.4970   19.3440  -33.8110 C   0  0  0  0  0  0  0  0  0  0  0  0
   -1.9540   18.4370  -34.4990 O   0  0  0  0  0  0  0  0  0  0  0  0
   -6.0390   17.8610  -34.1450 S   0  0  0  0  0  0  0  0  0  0  0  0
   -6.0010   18.5400  -35.4860 O   0  0  0  0  0  0  0  0  0  0  0  0
   -6.5070   16.4450  -34.3410 O   0  0  0  0  0  0  0  0  0  0  0  0
   -7.1500   18.6860  -33.0580 C   0  0  0  0  0  0  0  0  0  0  0  0
   -7.3630   20.0650  -33.2020 C   0  0  0  0  0  0  0  0  0  0  0  0
   -8.2590   20.7290  -32.3580 C   0  0  0  0  0  0  0  0  0  0  0  0
   -8.9480   20.0190  -31.3720 C   0  0  0  0  0  0  0  0  0  0  0  0
   -8.7440   18.6420  -31.2290 C   0  0  0  0  0  0  0  0  0  0  0  0
   -7.8490   17.9750  -32.0710 C   0  0  0  0  0  0  0  0  0  0  0  0
   -3.7868   16.5663  -31.9440 H   0  0  0  0  0  0  0  0  0  0  0  0
   -4.3945   15.7784  -33.4395 H   0  0  0  0  0  0  0  0  0  0  0  0
   -2.7920   16.5899  -33.4395 H   0  0  0  0  0  0  0  0  0  0  0  0
   -5.3840   19.9907  -32.1012 H   0  0  0  0  0  0  0  0  0  0  0  0
   -5.9781   22.6079  -33.0549 H   0  0  0  0  0  0  0  0  0  0  0  0
   -7.1183   24.4956  -31.8980 H   0  0  0  0  0  0  0  0  0  0  0  0
   -6.1625   25.4332  -29.7978 H   0  0  0  0  0  0  0  0  0  0  0  0
   -4.0925   24.4597  -28.8180 H   0  0  0  0  0  0  0  0  0  0  0  0
   -1.9509   22.5160  -32.8036 H   0  0  0  0  0  0  0  0  0  0  0  0
    0.2071   20.9127  -33.4327 H   0  0  0  0  0  0  0  0  0  0  0  0
   -0.2653   19.9160  -34.8505 H   0  0  0  0  0  0  0  0  0  0  0  0
   -0.5808   21.6844  -34.8505 H   0  0  0  0  0  0  0  0  0  0  0  0
   -6.8242   20.6253  -33.9803 H   0  0  0  0  0  0  0  0  0  0  0  0
   -8.4212   21.8111  -32.4708 H   0  0  0  0  0  0  0  0  0  0  0  0
   -9.6513   20.5425  -30.7076 H   0  0  0  0  0  0  0  0  0  0  0  0
   -9.2884   18.0837  -30.4532 H   0  0  0  0  0  0  0  0  0  0  0  0
   -7.6928   16.8919  -31.9595 H   0  0  0  0  0  0  0  0  0  0  0  0
  1  2  1  0
  2  3  1  0
  3  4  2  0
  4  5  1  0
  5  6  1  0
  6  7  2  0
  7  8  1  0
  8  9  2  0
  9 10  1  0
 10 11  2  0
 11 12  1  0
 12 13  1  0
 12 14  1  0
 12 15  1  0
  5 16  2  0
 16 17  1  0
 17 18  1  0
 17 19  1  0
 19 20  2  0
  2 21  1  0
 21 22  2  0
 21 23  2  0
 21 24  1  0
 24 25  2  0
 25 26  1  0
 26 27  2  0
 27 28  1  0
 28 29  2  0
 19  3  1  0
 29 24  1  0
 11  6  1  0
  1 30  1  0
  1 31  1  0
  1 32  1  0
  4 33  1  0
  7 34  1  0
  8 35  1  0
  9 36  1  0
 10 37  1  0
 16 38  1  0
 18 39  1  0
 18 40  1  0
 18 41  1  0
 25 42  1  0
 26 43  1  0
 27 44  1  0
 28 45  1  0
 29 46  1  0
M  END
>  <UniqueID>  (11) 
9

>  <SMILES>  (11) 
CN(c1cc(-c2ccccc2C(F)(F)F)cn(C)c1=O)S(=O)(=O)c1ccccc1

>  <Energy>  (11) 
65.96032243821696

>  <Genealogy>  (11) 
CN(c1cc(-c2ccccc2C(F)(F)F)cn(C)c1=O)S(=O)(=O)c1ccccc1 (3D coordinates assigned)
CN(c1cc(-c2ccccc2C(F)(F)F)cn(C)c1=O)S(=O)(=O)c1ccccc1 (optimized conformer: 65.96032243821696 kcal/mol)

>  <smiles>  (11) 
CN(c1cc(-c2ccccc2C(F)(F)F)cn(C)c1=O)S(=O)(=O)c1ccccc1

>  <score_type>  (11) 
oracle

>  <origin>  (11) 
adgpu

>  <m_score__min__energy>  (11) 
-9.1099999999999994

>  <m_primary>  (11) 
energy

$$$$
11:0
     RDKit          3D

 25 26  0  0  0  0  0  0  0  0999 V2000
   -9.1260   21.5020  -31.6060 C   0  0  0  0  0  0  0  0  0  0  0  0
   -7.9530   22.1730  -30.9020 C   0  0  0  0  0  0  0  0  0  0  0  0
   -7.2200   23.4790  -31.9480 S   0  0  0  0  0  0  0  0  0  0  0  0
   -5.7990   23.7560  -30.8880 C   0  0  0  0  0  0  0  0  0  0  0  0
   -5.6190   22.9980  -29.7330 C   0  0  0  0  0  0  0  0  0  0  0  0
   -4.5010   23.2280  -28.9340 C   0  0  0  0  0  0  0  0  0  0  0  0
   -3.5800   24.2220  -29.3080 C   0  0  0  0  0  0  0  0  0  0  0  0
   -2.3620   24.5240  -28.5190 C   0  0  0  0  0  0  0  0  0  0  0  0
   -1.0610   24.3490  -29.0270 C   0  0  0  0  0  0  0  0  0  0  0  0
    0.0100   24.6360  -28.2410 N   0  0  0  0  0  0  0  0  0  0  0  0
   -0.1460   25.0880  -26.9710 C   0  0  0  0  0  0  0  0  0  0  0  0
   -1.4310   25.2520  -26.4560 C   0  0  0  0  0  0  0  0  0  0  0  0
   -2.5040   24.9650  -27.2370 N   0  0  0  0  0  0  0  0  0  0  0  0
   -3.8030   24.9150  -30.4600 N   0  0  0  0  0  0  0  0  0  0  0  0
   -4.8750   24.6910  -31.2230 N   0  0  0  0  0  0  0  0  0  0  0  0
   -9.8242   21.1026  -30.8556 H   0  0  0  0  0  0  0  0  0  0  0  0
   -9.6463   22.2391  -32.2353 H   0  0  0  0  0  0  0  0  0  0  0  0
   -8.7543   20.6799  -32.2353 H   0  0  0  0  0  0  0  0  0  0  0  0
   -8.3068   22.6216  -29.9620 H   0  0  0  0  0  0  0  0  0  0  0  0
   -7.1839   21.4126  -30.7013 H   0  0  0  0  0  0  0  0  0  0  0  0
   -6.3517   22.2262  -29.4548 H   0  0  0  0  0  0  0  0  0  0  0  0
   -4.3406   22.6377  -28.0197 H   0  0  0  0  0  0  0  0  0  0  0  0
   -0.9121   23.9824  -30.0534 H   0  0  0  0  0  0  0  0  0  0  0  0
    0.7335   25.3228  -26.3535 H   0  0  0  0  0  0  0  0  0  0  0  0
   -1.5744   25.6107  -25.4261 H   0  0  0  0  0  0  0  0  0  0  0  0
  1  2  1  0
  2  3  1  0
  3  4  1  0
  4  5  2  0
  5  6  1  0
  6  7  2  0
  7  8  1  0
  8  9  2  0
  9 10  1  0
 10 11  2  0
 11 12  1  0
 12 13  2  0
  7 14  1  0
 14 15  2  0
 15  4  1  0
 13  8  1  0
  1 16  1  0
  1 17  1  0
  1 18  1  0
  2 19  1  0
  2 20  1  0
  5 21  1  0
  6 22  1  0
  9 23  1  0
 11 24  1  0
 12 25  1  0
M  END
>  <UniqueID>  (12) 
10

>  <SMILES>  (12) 
CCSc1ccc(-c2cnccn2)nn1

>  <Energy>  (12) 
25.484952738823402

>  <Genealogy>  (12) 
CCSc1ccc(-c2cnccn2)nn1 (3D coordinates assigned)
CCSc1ccc(-c2cnccn2)nn1 (optimized conformer: 25.484952738823402 kcal/mol)

>  <smiles>  (12) 
CCSc1ccc(-c2cnccn2)nn1

>  <score_type>  (12) 
oracle

>  <origin>  (12) 
adgpu

>  <m_score__min__energy>  (12) 
-6.46

>  <m_primary>  (12) 
energy

$$$$
12:0
     RDKit          3D

 46 49  0  0  0  0  0  0  0  0999 V2000
   -6.4410   15.8180  -34.2190 C   0  0  0  0  0  0  0  0  0  0  0  0
   -6.3670   17.0900  -33.4690 C   0  0  0  0  0  0  0  0  0  0  0  0
   -5.1790   17.8300  -33.4700 C   0  0  0  0  0  0  0  0  0  0  0  0
   -5.1220   19.0280  -32.7880 C   0  0  0  0  0  0  0  0  0  0  0  0
   -3.8770   19.7990  -32.7300 C   0  0  0  0  0  0  0  0  0  0  0  0
   -3.1320   20.0830  -33.8600 C   0  0  0  0  0  0  0  0  0  0  0  0
   -1.9380   20.8080  -33.7560 C   0  0  0  0  0  0  0  0  0  0  0  0
   -1.4620   21.2650  -32.5480 C   0  0  0  0  0  0  0  0  0  0  0  0
   -2.2190   20.9740  -31.4120 C   0  0  0  0  0  0  0  0  0  0  0  0
   -3.4070   20.2520  -31.5040 C   0  0  0  0  0  0  0  0  0  0  0  0
   -6.2150   19.4770  -32.1280 N   0  0  0  0  0  0  0  0  0  0  0  0
   -7.3690   18.7740  -32.1160 C   0  0  0  0  0  0  0  0  0  0  0  0
   -8.8680   19.3810  -31.3440 S   0  0  0  0  0  0  0  0  0  0  0  0
   -9.0680   21.0850  -31.9070 C   0  0  0  0  0  0  0  0  0  0  0  0
   -7.9020   21.9480  -31.6980 C   0  0  0  0  0  0  0  0  0  0  0  0
   -6.9820   22.3070  -32.6670 C   0  0  0  0  0  0  0  0  0  0  0  0
   -5.8400   23.0550  -32.3470 C   0  0  0  0  0  0  0  0  0  0  0  0
   -5.6070   23.4560  -31.0270 C   0  0  0  0  0  0  0  0  0  0  0  0
   -4.4050   24.2310  -30.7070 C   0  0  0  0  0  0  0  0  0  0  0  0
   -4.5660   25.4760  -30.5070 O   0  0  0  0  0  0  0  0  0  0  0  0
   -3.1090   23.6530  -30.6120 N   0  0  0  0  0  0  0  0  0  0  0  0
   -2.2630   24.0990  -29.7160 C   0  0  0  0  0  0  0  0  0  0  0  0
   -1.0060   23.6580  -29.5010 N   0  0  0  0  0  0  0  0  0  0  0  0
   -0.4680   24.3680  -28.5040 N   0  0  0  0  0  0  0  0  0  0  0  0
   -1.3690   25.2400  -28.0970 N   0  0  0  0  0  0  0  0  0  0  0  0
   -2.4850   25.1030  -28.8200 N   0  0  0  0  0  0  0  0  0  0  0  0
   -6.5300   23.0950  -30.0570 C   0  0  0  0  0  0  0  0  0  0  0  0
   -7.6680   22.3540  -30.3640 C   0  0  0  0  0  0  0  0  0  0  0  0
   -7.4260   17.5840  -32.7900 N   0  0  0  0  0  0  0  0  0  0  0  0
   -6.4899   14.9773  -33.5112 H   0  0  0  0  0  0  0  0  0  0  0  0
   -7.3407   15.8173  -34.8519 H   0  0  0  0  0  0  0  0  0  0  0  0
   -5.5474   15.7130  -34.8519 H   0  0  0  0  0  0  0  0  0  0  0  0
   -4.2962   17.4587  -34.0112 H   0  0  0  0  0  0  0  0  0  0  0  0
   -3.4788   19.7379  -34.8452 H   0  0  0  0  0  0  0  0  0  0  0  0
   -1.3622   21.0189  -34.6692 H   0  0  0  0  0  0  0  0  0  0  0  0
   -0.5241   21.8358  -32.4807 H   0  0  0  0  0  0  0  0  0  0  0  0
   -1.8717   21.3206  -30.4275 H   0  0  0  0  0  0  0  0  0  0  0  0
   -3.9819   20.0373  -30.5911 H   0  0  0  0  0  0  0  0  0  0  0  0
   -9.2885   21.0646  -32.9845 H   0  0  0  0  0  0  0  0  0  0  0  0
   -9.8804   21.5148  -31.3026 H   0  0  0  0  0  0  0  0  0  0  0  0
   -7.1499   21.9993  -33.7097 H   0  0  0  0  0  0  0  0  0  0  0  0
   -5.1245   23.3276  -33.1368 H   0  0  0  0  0  0  0  0  0  0  0  0
   -1.2960   25.9440  -27.3440 H   0  0  0  0  0  0  0  0  0  0  0  0
   -3.3530   25.6690  -28.7060 H   0  0  0  0  0  0  0  0  0  0  0  0
   -6.3581   23.4030  -29.0151 H   0  0  0  0  0  0  0  0  0  0  0  0
   -8.3823   22.0854  -29.5718 H   0  0  0  0  0  0  0  0  0  0  0  0
  1  2  1  0
  2  3  2  0
  3  4  1  0
  4  5  1  0
  5  6  2  0
  6  7  1  0
  7  8  2  0
  8  9  1  0
  9 10  2  0
  4 11  2  0
 11 12  1  0
 12 13  1  0
 13 14  1  0
 14 15  1  0
 15 16  2  0
 16 17  1  0
 17 18  2  0
 18 19  1  0
 19 20  2  0
 19 21  1  0
 21 22  2  3
 22 23  1  0
 23 24  2  0
 24 25  1  0
 25 26  1  0
 18 27  1  0
 27 28  2  0
 12 29  2  0
 29  2  1  0
 10  5  1  0
 28 15  1  0
 26 22  1  0
  1 30  1  0
  1 31  1  0
  1 32  1  0
  3 33  1  0
  6 34  1  0
  7 35  1  0
  8 36  1  0
  9 37  1  0
 10 38  1  0
 14 39  1  0
 14 40  1  0
 16 41  1  0
 17 42  1  0
 25 43  1  0
 26 44  1  0
 27 45  1  0
 28 46  1  0
M  END
>  <smiles>  (13) 
Cc1cc(-c2ccccc2)nc(SCc2ccc(C(=O)N=c3nn[nH][nH]3)cc2)n1

>  <score_type>  (13) 
oracle

>  <origin>  (13) 
adgpu

>  <m_score__min__energy>  (13) 
-10.94

>  <m_primary>  (13) 
energy

$$$$
13:0
     RDKit          3D

 28 29  0  0  0  0  0  0  0  0999 V2000
   -6.2380   17.1320  -32.2590 C   0  0  0  0  0  0  0  0  0  0  0  0
   -5.9130   18.5880  -32.4130 C   0  0  0  0  0  0  0  0  0  0  0  0
   -6.9410   19.5290  -32.5500 C   0  0  0  0  0  0  0  0  0  0  0  0
   -6.6420   20.8880  -32.6470 C   0  0  0  0  0  0  0  0  0  0  0  0
   -5.3140   21.3320  -32.5870 C   0  0  0  0  0  0  0  0  0  0  0  0
   -5.0560   22.7410  -32.6680 N   0  0  0  0  0  0  0  0  0  0  0  0
   -5.3610   23.6290  -31.5860 C   0  0  0  0  0  0  0  0  0  0  0  0
   -4.4640   24.2890  -30.8840 O   0  0  0  0  0  0  0  0  0  0  0  0
   -5.0470   25.0050  -29.9660 N   0  0  0  0  0  0  0  0  0  0  0  0
   -6.3720   24.8000  -30.0740 C   0  0  0  0  0  0  0  0  0  0  0  0
   -7.2350   25.3430  -29.3340 O   0  0  0  0  0  0  0  0  0  0  0  0
   -6.6220   23.9200  -31.1020 C   0  0  0  0  0  0  0  0  0  0  0  0
   -7.8920   23.4290  -31.5640 C   0  0  0  0  0  0  0  0  0  0  0  0
   -8.9130   23.0340  -31.9370 N   0  0  0  0  0  0  0  0  0  0  0  0
   -4.2670   20.3880  -32.4790 C   0  0  0  0  0  0  0  0  0  0  0  0
   -2.8200   20.8030  -32.4760 C   0  0  0  0  0  0  0  0  0  0  0  0
   -4.5810   19.0230  -32.3630 C   0  0  0  0  0  0  0  0  0  0  0  0
   -6.2943   16.8800  -31.1897 H   0  0  0  0  0  0  0  0  0  0  0  0
   -7.2056   16.9197  -32.7372 H   0  0  0  0  0  0  0  0  0  0  0  0
   -5.4525   16.5284  -32.7372 H   0  0  0  0  0  0  0  0  0  0  0  0
   -7.9886   19.1951  -32.5812 H   0  0  0  0  0  0  0  0  0  0  0  0
   -7.4557   21.6177  -32.7717 H   0  0  0  0  0  0  0  0  0  0  0  0
   -4.8320   23.1520  -33.6020 H   0  0  0  0  0  0  0  0  0  0  0  0
   -4.5570   25.6190  -29.2790 H   0  0  0  0  0  0  0  0  0  0  0  0
   -2.4695   20.9035  -31.4382 H   0  0  0  0  0  0  0  0  0  0  0  0
   -2.2189   20.0410  -32.9938 H   0  0  0  0  0  0  0  0  0  0  0  0
   -2.7142   21.7677  -32.9938 H   0  0  0  0  0  0  0  0  0  0  0  0
   -3.7731   18.2881  -32.2316 H   0  0  0  0  0  0  0  0  0  0  0  0
  1  2  1  0
  2  3  2  0
  3  4  1  0
  4  5  2  0
  5  6  1  0
  6  7  1  0
  7  8  1  0
  8  9  1  0
  9 10  1  0
 10 11  2  0
 10 12  1  0
 12 13  1  0
 13 14  3  0
  5 15  1  0
 15 16  1  0
 15 17  2  0
 17  2  1  0
 12  7  2  0
  1 18  1  0
  1 19  1  0
  1 20  1  0
  3 21  1  0
  4 22  1  0
  6 23  1  0
  9 24  1  0
 16 25  1  0
 16 26  1  0
 16 27  1  0
 17 28  1  0
M  END
>  <UniqueID>  (14) 
11

>  <SMILES>  (14) 
Cc1ccc(Nc2o[nH]c(=O)c2C#N)c(C)c1

>  <Energy>  (14) 
66.62445496480707

>  <Genealogy>  (14) 
Cc1ccc(Nc2o[nH]c(=O)c2C#N)c(C)c1 (3D coordinates assigned)
Cc1ccc(Nc2o[nH]c(=O)c2C#N)c(C)c1 (optimized conformer: 66.62445496480707 kcal/mol)

>  <smiles>  (14) 
Cc1ccc(Nc2o[nH]c(=O)c2C#N)c(C)c1

>  <score_type>  (14) 
oracle

>  <origin>  (14) 
adgpu

>  <m_score__min__energy>  (14) 
-7.5

>  <m_primary>  (14) 
energy

$$$$
14:0
     RDKit          3D

 37 39  0  0  0  0  0  0  0  0999 V2000
    1.3400   19.5534  -29.0712 H   0  0  0  0  0  0  0  0  0  0  0  0
    0.3750   19.9280  -28.6990 C   0  0  0  0  0  0  0  0  0  0  0  0
   -0.3550   19.1730  -27.7810 C   0  0  0  0  0  0  0  0  0  0  0  0
    0.0361   18.2061  -27.4316 H   0  0  0  0  0  0  0  0  0  0  0  0
   -1.5900   19.6450  -27.3010 C   0  0  0  0  0  0  0  0  0  0  0  0
   -2.3640   18.9250  -26.3790 O   0  0  0  0  0  0  0  0  0  0  0  0
   -3.7860   18.9510  -26.3300 C   0  0  0  0  0  0  0  0  0  0  0  0
   -4.1167   18.9570  -25.2809 H   0  0  0  0  0  0  0  0  0  0  0  0
   -4.1538   19.8560  -26.8356 H   0  0  0  0  0  0  0  0  0  0  0  0
   -4.1867   18.0600  -26.8356 H   0  0  0  0  0  0  0  0  0  0  0  0
   -2.0750   20.8780  -27.7560 C   0  0  0  0  0  0  0  0  0  0  0  0
   -3.0409   21.2501  -27.3838 H   0  0  0  0  0  0  0  0  0  0  0  0
   -1.3470   21.6480  -28.6810 C   0  0  0  0  0  0  0  0  0  0  0  0
   -1.8840   22.9520  -29.1420 C   0  0  0  0  0  0  0  0  0  0  0  0
   -1.1620   24.0940  -29.1480 N   0  0  0  0  0  0  0  0  0  0  0  0
   -1.9340   25.0640  -29.6090 N   0  0  0  0  0  0  0  0  0  0  0  0
   -1.6280   26.0560  -29.7180 H   0  0  0  0  0  0  0  0  0  0  0  0
   -3.1440   24.5640  -29.9040 C   0  0  0  0  0  0  0  0  0  0  0  0
   -4.1130   25.3010  -30.3700 N   0  0  0  0  0  0  0  0  0  0  0  0
   -5.4390   24.8950  -30.7450 C   0  0  0  0  0  0  0  0  0  0  0  0
   -6.4190   25.0840  -29.9750 O   0  0  0  0  0  0  0  0  0  0  0  0
   -5.6150   24.1970  -31.9820 N   0  0  0  0  0  0  0  0  0  0  0  0
   -5.8920   22.7970  -32.1400 C   0  0  0  0  0  0  0  0  0  0  0  0
   -4.8220   21.9250  -32.3740 C   0  0  0  0  0  0  0  0  0  0  0  0
   -3.7960   22.3191  -32.4180 H   0  0  0  0  0  0  0  0  0  0  0  0
   -5.0480   20.5580  -32.5520 C   0  0  0  0  0  0  0  0  0  0  0  0
   -4.1989   19.8800  -32.7235 H   0  0  0  0  0  0  0  0  0  0  0  0
   -6.3500   20.0480  -32.5130 C   0  0  0  0  0  0  0  0  0  0  0  0
   -6.5970   18.3220  -32.7420 Cl  0  0  0  0  0  0  0  0  0  0  0  0
   -7.4330   20.9180  -32.3040 C   0  0  0  0  0  0  0  0  0  0  0  0
   -9.0880   20.3220  -32.2760 Cl  0  0  0  0  0  0  0  0  0  0  0  0
   -7.2030   22.2880  -32.1260 C   0  0  0  0  0  0  0  0  0  0  0  0
   -8.0527   22.9699  -31.9744 H   0  0  0  0  0  0  0  0  0  0  0  0
   -3.1650   23.2080  -29.6180 C   0  0  0  0  0  0  0  0  0  0  0  0
   -3.9988   22.5008  -29.7391 H   0  0  0  0  0  0  0  0  0  0  0  0
   -0.1130   21.1570  -29.1480 C   0  0  0  0  0  0  0  0  0  0  0  0
    0.4707   21.7453  -29.8713 H   0  0  0  0  0  0  0  0  0  0  0  0
  1  2  1  0
  2  3  2  0
  3  4  1  0
  3  5  1  0
  5  6  1  0
  6  7  1  0
  7  8  1  0
  7  9  1  0
  7 10  1  0
  5 11  2  0
 11 12  1  0
 11 13  1  0
 13 14  1  0
 14 15  1  0
 15 16  1  0
 16 17  1  0
 16 18  1  0
 18 19  2  0
 19 20  1  0
 20 21  2  0
 20 22  1  0
 22 23  1  0
 23 24  2  0
 24 25  1  0
 24 26  1  0
 26 27  1  0
 26 28  2  0
 28 29  1  0
 28 30  1  0
 30 31  1  0
 30 32  2  0
 32 33  1  0
 18 34  1  0
 34 35  1  0
 13 36  2  0
 36 37  1  0
 36  2  1  0
 34 14  2  0
 32 23  1  0
M  CHG  2  15  -1  22  -1
M  END
>  <UniqueID>  (15) 
12

>  <SMILES>  (15) 
COc1cccc(-c2c/c(=N\C(=O)[N-]c3ccc(Cl)c(Cl)c3)[nH][n-]2)c1

>  <Energy>  (15) 
79.6615261363244

>  <Genealogy>  (15) 
COc1cccc(-c2cc(=NC(=O)[N-]c3ccc(Cl)c(Cl)c3)[nH][n-]2)c1 (protonated)
COc1cccc(-c2c/c(=N\C(=O)[N-]c3ccc(Cl)c(Cl)c3)[nH][n-]2)c1 (cis-trans isomerization)
COc1cccc(-c2c/c(=N\C(=O)[N-]c3ccc(Cl)c(Cl)c3)[nH][n-]2)c1 (3D coordinates assigned)
COc1cccc(-c2c/c(=N\C(=O)[N-]c3ccc(Cl)c(Cl)c3)[nH][n-]2)c1 (optimized conformer: 79.6615261363244 kcal/mol)

>  <smiles>  (15) 
COc1cccc(-c2cc(=NC(=O)Nc3ccc(Cl)c(Cl)c3)[nH][nH]2)c1

>  <score_type>  (15) 
oracle

>  <origin>  (15) 
adgpu

>  <m_score__min__energy>  (15) 
-11.720000000000001

>  <m_primary>  (15) 
energy

$$$$
15:0
     RDKit          3D

 54 56  0  0  0  0  0  0  0  0999 V2000
   -6.8580   15.6920  -34.3000 C   0  0  0  0  0  0  0  0  0  0  0  0
   -6.5450   17.0330  -33.7010 C   0  0  0  0  0  0  0  0  0  0  0  0
   -7.0860   17.4010  -32.4590 C   0  0  0  0  0  0  0  0  0  0  0  0
   -6.7840   18.6450  -31.8980 C   0  0  0  0  0  0  0  0  0  0  0  0
   -5.9270   19.5400  -32.5640 C   0  0  0  0  0  0  0  0  0  0  0  0
   -5.6060   20.8600  -31.9670 C   0  0  0  0  0  0  0  0  0  0  0  0
   -6.5230   21.5000  -31.1140 C   0  0  0  0  0  0  0  0  0  0  0  0
   -6.2130   22.7320  -30.5370 C   0  0  0  0  0  0  0  0  0  0  0  0
   -4.9810   23.3440  -30.7980 C   0  0  0  0  0  0  0  0  0  0  0  0
   -4.5560   24.8440  -29.9760 S   0  0  0  0  0  0  0  0  0  0  0  0
   -4.9770   26.0160  -30.8180 O   0  0  0  0  0  0  0  0  0  0  0  0
   -5.2630   24.9170  -28.6520 O   0  0  0  0  0  0  0  0  0  0  0  0
   -2.8440   24.9070  -29.7310 N   0  0  0  0  0  0  0  0  0  0  0  0
   -2.2020   24.0090  -28.8260 C   0  0  0  0  0  0  0  0  0  0  0  0
   -2.3180   24.0010  -27.4500 C   0  0  0  0  0  0  0  0  0  0  0  0
   -3.0060   25.0280  -26.5980 C   0  0  0  0  0  0  0  0  0  0  0  0
   -2.0070   26.0250  -25.9760 C   0  0  0  0  0  0  0  0  0  0  0  0
   -1.0340   26.5750  -27.0290 C   0  0  0  0  0  0  0  0  0  0  0  0
   -1.2280   25.3530  -24.8410 C   0  0  0  0  0  0  0  0  0  0  0  0
   -1.7550   22.8750  -26.9660 N   0  0  0  0  0  0  0  0  0  0  0  0
   -1.2930   22.1800  -27.9960 N   0  0  0  0  0  0  0  0  0  0  0  0
   -0.7220   20.8440  -27.8690 C   0  0  0  0  0  0  0  0  0  0  0  0
   -1.5610   22.8320  -29.1480 C   0  0  0  0  0  0  0  0  0  0  0  0
   -1.3170   22.2900  -30.5230 C   0  0  0  0  0  0  0  0  0  0  0  0
   -4.0650   22.7170  -31.6510 C   0  0  0  0  0  0  0  0  0  0  0  0
   -4.3760   21.4860  -32.2350 C   0  0  0  0  0  0  0  0  0  0  0  0
   -5.3770   19.1620  -33.8020 C   0  0  0  0  0  0  0  0  0  0  0  0
   -5.6830   17.9190  -34.3660 C   0  0  0  0  0  0  0  0  0  0  0  0
   -5.1370   17.5800  -35.5620 F   0  0  0  0  0  0  0  0  0  0  0  0
   -7.0285   14.9617  -33.4952 H   0  0  0  0  0  0  0  0  0  0  0  0
   -7.7620   15.7701  -34.9218 H   0  0  0  0  0  0  0  0  0  0  0  0
   -6.0128   15.3618  -34.9218 H   0  0  0  0  0  0  0  0  0  0  0  0
   -7.7510   16.7067  -31.9245 H   0  0  0  0  0  0  0  0  0  0  0  0
   -7.2199   18.9265  -30.9281 H   0  0  0  0  0  0  0  0  0  0  0  0
   -7.4921   21.0256  -30.9001 H   0  0  0  0  0  0  0  0  0  0  0  0
   -6.9396   23.2246  -29.8742 H   0  0  0  0  0  0  0  0  0  0  0  0
   -3.7220   25.5844  -27.2208 H   0  0  0  0  0  0  0  0  0  0  0  0
   -3.5170   24.5024  -25.7779 H   0  0  0  0  0  0  0  0  0  0  0  0
   -2.5822   26.8707  -25.5711 H   0  0  0  0  0  0  0  0  0  0  0  0
   -0.1826   27.0563  -26.5256 H   0  0  0  0  0  0  0  0  0  0  0  0
   -0.6693   25.7495  -27.6579 H   0  0  0  0  0  0  0  0  0  0  0  0
   -1.5532   27.3132  -27.6579 H   0  0  0  0  0  0  0  0  0  0  0  0
   -1.6234   25.6941  -23.8728 H   0  0  0  0  0  0  0  0  0  0  0  0
   -1.3373   24.2611  -24.9176 H   0  0  0  0  0  0  0  0  0  0  0  0
   -0.1640   25.6213  -24.9176 H   0  0  0  0  0  0  0  0  0  0  0  0
   -0.6139   20.5912  -26.8039 H   0  0  0  0  0  0  0  0  0  0  0  0
   -1.3866   20.1136  -28.3536 H   0  0  0  0  0  0  0  0  0  0  0  0
    0.2652   20.8196  -28.3536 H   0  0  0  0  0  0  0  0  0  0  0  0
   -0.8665   21.2893  -30.4480 H   0  0  0  0  0  0  0  0  0  0  0  0
   -2.2716   22.2227  -31.0653 H   0  0  0  0  0  0  0  0  0  0  0  0
   -0.6337   22.9600  -31.0653 H   0  0  0  0  0  0  0  0  0  0  0  0
   -3.0971   23.1949  -31.8623 H   0  0  0  0  0  0  0  0  0  0  0  0
   -3.6532   21.0034  -32.9092 H   0  0  0  0  0  0  0  0  0  0  0  0
   -4.7006   19.8495  -34.3311 H   0  0  0  0  0  0  0  0  0  0  0  0
  1  2  1  0
  2  3  2  0
  3  4  1  0
  4  5  2  0
  5  6  1  0
  6  7  2  0
  7  8  1  0
  8  9  2  0
  9 10  1  0
 10 11  2  0
 10 12  2  0
 10 13  1  0
 13 14  1  0
 14 15  1  0
 15 16  1  0
 16 17  1  0
 17 18  1  0
 17 19  1  0
 15 20  2  0
 20 21  1  0
 21 22  1  0
 21 23  1  0
 23 24  1  0
  9 25  1  0
 25 26  2  0
  5 27  1  0
 27 28  2  0
 28 29  1  0
 28  2  1  0
 26  6  1  0
 23 14  2  0
  1 30  1  0
  1 31  1  0
  1 32  1  0
  3 33  1  0
  4 34  1  0
  7 35  1  0
  8 36  1  0
 16 37  1  0
 16 38  1  0
 17 39  1  0
 18 40  1  0
 18 41  1  0
 18 42  1  0
 19 43  1  0
 19 44  1  0
 19 45  1  0
 22 46  1  0
 22 47  1  0
 22 48  1  0
 24 49  1  0
 24 50  1  0
 24 51  1  0
 25 52  1  0
 26 53  1  0
 27 54  1  0
M  CHG  1  13  -1
M  END
>  <UniqueID>  (16) 
13

>  <SMILES>  (16) 
Cc1ccc(-c2ccc(S(=O)(=O)[N-]c3c(CC(C)C)nn(C)c3C)cc2)cc1F

>  <Energy>  (16) 
91.18458642231631

>  <Genealogy>  (16) 
Cc1ccc(-c2ccc(S(=O)(=O)[N-]c3c(CC(C)C)nn(C)c3C)cc2)cc1F (protonated)
Cc1ccc(-c2ccc(S(=O)(=O)[N-]c3c(CC(C)C)nn(C)c3C)cc2)cc1F (3D coordinates assigned)
Cc1ccc(-c2ccc(S(=O)(=O)[N-]c3c(CC(C)C)nn(C)c3C)cc2)cc1F (optimized conformer: 91.18458642231631 kcal/mol)

>  <smiles>  (16) 
Cc1ccc(-c2ccc(S(=O)(=O)Nc3c(CC(C)C)nn(C)c3C)cc2)cc1F

>  <score_type>  (16) 
oracle

>  <origin>  (16) 
adgpu

>  <m_score__min__energy>  (16) 
-10.81

>  <m_primary>  (16) 
energy

$$$$
16:0
     RDKit          3D

 57 60  0  0  0  0  0  0  0  0999 V2000
   -3.8630   25.3760  -30.8450 O   0  0  0  0  0  0  0  0  0  0  0  0
   -4.7560   24.8840  -30.1020 C   0  0  0  0  0  0  0  0  0  0  0  0
   -6.1940   24.8910  -30.5300 C   0  0  0  0  0  0  0  0  0  0  0  0
   -6.3910   24.1490  -31.7350 O   0  0  0  0  0  0  0  0  0  0  0  0
   -6.9590   22.8670  -31.8210 C   0  0  0  0  0  0  0  0  0  0  0  0
   -8.3360   22.6280  -31.6270 C   0  0  0  0  0  0  0  0  0  0  0  0
   -8.8440   21.3290  -31.7230 C   0  0  0  0  0  0  0  0  0  0  0  0
   -7.9900   20.2590  -32.0120 C   0  0  0  0  0  0  0  0  0  0  0  0
   -8.6310   18.6300  -32.1340 Cl  0  0  0  0  0  0  0  0  0  0  0  0
   -6.6240   20.4900  -32.2050 C   0  0  0  0  0  0  0  0  0  0  0  0
   -6.1130   21.7880  -32.1100 C   0  0  0  0  0  0  0  0  0  0  0  0
   -4.4170   24.3280  -28.8270 N   0  0  0  0  0  0  0  0  0  0  0  0
   -3.1190   24.2970  -28.2150 C   0  0  0  0  0  0  0  0  0  0  0  0
   -2.8990   24.8700  -26.9500 C   0  0  0  0  0  0  0  0  0  0  0  0
   -1.6400   24.8040  -26.3510 C   0  0  0  0  0  0  0  0  0  0  0  0
   -0.5770   24.1560  -26.9960 C   0  0  0  0  0  0  0  0  0  0  0  0
    0.7850   24.1210  -26.3470 C   0  0  0  0  0  0  0  0  0  0  0  0
    0.7960   23.1480  -25.3650 F   0  0  0  0  0  0  0  0  0  0  0  0
    1.1000   25.3420  -25.7750 F   0  0  0  0  0  0  0  0  0  0  0  0
    1.7540   23.8230  -27.2890 F   0  0  0  0  0  0  0  0  0  0  0  0
   -0.7810   23.6280  -28.2810 C   0  0  0  0  0  0  0  0  0  0  0  0
   -2.0340   23.7110  -28.9040 C   0  0  0  0  0  0  0  0  0  0  0  0
   -2.2010   23.1230  -30.2060 N   0  0  0  0  0  0  0  0  0  0  0  0
   -2.2630   21.7080  -30.4320 C   0  0  0  0  0  0  0  0  0  0  0  0
   -2.6480   20.9470  -29.4990 O   0  0  0  0  0  0  0  0  0  0  0  0
   -1.9020   21.1300  -31.7490 C   0  0  0  0  0  0  0  0  0  0  0  0
   -0.5810   21.1960  -32.2280 C   0  0  0  0  0  0  0  0  0  0  0  0
   -0.2520   20.6490  -33.4710 C   0  0  0  0  0  0  0  0  0  0  0  0
   -1.2300   20.0190  -34.2420 C   0  0  0  0  0  0  0  0  0  0  0  0
   -2.5420   19.9150  -33.7720 C   0  0  0  0  0  0  0  0  0  0  0  0
   -3.4970   19.2840  -34.5830 O   0  0  0  0  0  0  0  0  0  0  0  0
   -4.3630   18.2570  -34.1760 C   0  0  0  0  0  0  0  0  0  0  0  0
   -3.9240   17.3610  -33.1930 C   0  0  0  0  0  0  0  0  0  0  0  0
   -4.7650   16.3400  -32.7400 C   0  0  0  0  0  0  0  0  0  0  0  0
   -6.0530   16.2090  -33.2640 C   0  0  0  0  0  0  0  0  0  0  0  0
   -6.5080   17.1110  -34.2300 C   0  0  0  0  0  0  0  0  0  0  0  0
   -5.6720   18.1360  -34.6830 C   0  0  0  0  0  0  0  0  0  0  0  0
   -2.8780   20.4870  -32.5310 C   0  0  0  0  0  0  0  0  0  0  0  0
   -6.8054   24.4440  -29.7323 H   0  0  0  0  0  0  0  0  0  0  0  0
   -6.4907   25.9336  -30.7172 H   0  0  0  0  0  0  0  0  0  0  0  0
   -9.0115   23.4658  -31.3997 H   0  0  0  0  0  0  0  0  0  0  0  0
   -9.9182   21.1476  -31.5709 H   0  0  0  0  0  0  0  0  0  0  0  0
   -5.9512   19.6498  -32.4317 H   0  0  0  0  0  0  0  0  0  0  0  0
   -5.0380   21.9636  -32.2634 H   0  0  0  0  0  0  0  0  0  0  0  0
   -3.7257   25.3743  -26.4282 H   0  0  0  0  0  0  0  0  0  0  0  0
   -1.4804   25.2642  -25.3647 H   0  0  0  0  0  0  0  0  0  0  0  0
    0.0545   23.1422  -28.8064 H   0  0  0  0  0  0  0  0  0  0  0  0
   -2.4360   23.7580  -31.0030 H   0  0  0  0  0  0  0  0  0  0  0  0
    0.1974   21.6810  -31.6206 H   0  0  0  0  0  0  0  0  0  0  0  0
    0.7811   20.7151  -33.8430 H   0  0  0  0  0  0  0  0  0  0  0  0
   -0.9666   19.6019  -35.2252 H   0  0  0  0  0  0  0  0  0  0  0  0
   -2.9115   17.4612  -32.7749 H   0  0  0  0  0  0  0  0  0  0  0  0
   -4.4116   15.6388  -31.9697 H   0  0  0  0  0  0  0  0  0  0  0  0
   -6.7087   15.3968  -32.9169 H   0  0  0  0  0  0  0  0  0  0  0  0
   -7.5262   17.0142  -34.6348 H   0  0  0  0  0  0  0  0  0  0  0  0
   -6.0369   18.8493  -35.4367 H   0  0  0  0  0  0  0  0  0  0  0  0
   -3.9151   20.4306  -32.1688 H   0  0  0  0  0  0  0  0  0  0  0  0
  1  2  2  0
  2  3  1  0
  3  4  1  0
  4  5  1  0
  5  6  2  0
  6  7  1  0
  7  8  2  0
  8  9  1  0
  8 10  1  0
 10 11  2  0
  2 12  1  0
 12 13  1  0
 13 14  2  0
 14 15  1  0
 15 16  2  0
 16 17  1  0
 17 18  1  0
 17 19  1  0
 17 20  1  0
 16 21  1  0
 21 22  2  0
 22 23  1  0
 23 24  1  0
 24 25  2  0
 24 26  1  0
 26 27  2  0
 27 28  1  0
 28 29  2  0
 29 30  1  0
 30 31  1  0
 31 32  1  0
 32 33  2  0
 33 34  1  0
 34 35  2  0
 35 36  1  0
 36 37  2  0
 30 38  2  0
 11  5  1  0
 22 13  1  0
 38 26  1  0
 37 32  1  0
  3 39  1  0
  3 40  1  0
  6 41  1  0
  7 42  1  0
 10 43  1  0
 11 44  1  0
 14 45  1  0
 15 46  1  0
 21 47  1  0
 23 48  1  0
 27 49  1  0
 28 50  1  0
 29 51  1  0
 33 52  1  0
 34 53  1  0
 35 54  1  0
 36 55  1  0
 37 56  1  0
 38 57  1  0
M  CHG  1  12  -1
M  END
>  <UniqueID>  (17) 
14

>  <SMILES>  (17) 
O=C(COc1ccc(Cl)cc1)[N-]c1ccc(C(F)(F)F)cc1NC(=O)c1cccc(Oc2ccccc2)c1

>  <Energy>  (17) 
79.75760339791255

>  <Genealogy>  (17) 
O=C(COc1ccc(Cl)cc1)[N-]c1ccc(C(F)(F)F)cc1NC(=O)c1cccc(Oc2ccccc2)c1 (protonated)
O=C(COc1ccc(Cl)cc1)[N-]c1ccc(C(F)(F)F)cc1NC(=O)c1cccc(Oc2ccccc2)c1 (3D coordinates assigned)
O=C(COc1ccc(Cl)cc1)[N-]c1ccc(C(F)(F)F)cc1NC(=O)c1cccc(Oc2ccccc2)c1 (optimized conformer: 79.75760339791255 kcal/mol)

>  <smiles>  (17) 
O=C(COc1ccc(Cl)cc1)Nc1ccc(C(F)(F)F)cc1NC(=O)c1cccc(Oc2ccccc2)c1

>  <score_type>  (17) 
oracle

>  <origin>  (17) 
adgpu

>  <m_score__min__energy>  (17) 
-11.31

>  <m_primary>  (17) 
energy

$$$$
17:0
     RDKit          3D

 40 43  0  0  0  0  0  0  0  0999 V2000
    2.4400   26.6100  -26.6670 C   0  0  0  0  0  0  0  0  0  0  0  0
    1.0870   26.4530  -26.2610 O   0  0  0  0  0  0  0  0  0  0  0  0
    0.3820   25.2410  -26.1400 C   0  0  0  0  0  0  0  0  0  0  0  0
    0.8750   24.2750  -25.2290 C   0  0  0  0  0  0  0  0  0  0  0  0
    2.0240   24.5220  -24.4770 O   0  0  0  0  0  0  0  0  0  0  0  0
    0.2140   23.0440  -25.0570 C   0  0  0  0  0  0  0  0  0  0  0  0
   -0.9420   22.7430  -25.7850 C   0  0  0  0  0  0  0  0  0  0  0  0
   -1.4160   23.6940  -26.6830 C   0  0  0  0  0  0  0  0  0  0  0  0
   -0.7880   24.9200  -26.8690 C   0  0  0  0  0  0  0  0  0  0  0  0
   -1.5370   25.6970  -27.9370 C   0  0  0  0  0  0  0  0  0  0  0  0
   -2.6200   24.7100  -28.2460 C   0  0  0  0  0  0  0  0  0  0  0  0
   -3.3050   24.4280  -29.4050 C   0  0  0  0  0  0  0  0  0  0  0  0
   -3.5000   25.2990  -30.4700 O   0  0  0  0  0  0  0  0  0  0  0  0
   -3.6920   23.1270  -29.3790 N   0  0  0  0  0  0  0  0  0  0  0  0
   -4.3570   22.4040  -30.4300 C   0  0  0  0  0  0  0  0  0  0  0  0
   -3.6200   21.5830  -31.2990 C   0  0  0  0  0  0  0  0  0  0  0  0
   -4.2630   20.8770  -32.3200 C   0  0  0  0  0  0  0  0  0  0  0  0
   -5.6500   20.9800  -32.4790 C   0  0  0  0  0  0  0  0  0  0  0  0
   -6.4740   20.0760  -33.7910 S   0  0  0  0  0  0  0  0  0  0  0  0
   -7.8840   19.6010  -32.7420 C   0  0  0  0  0  0  0  0  0  0  0  0
   -6.3900   21.7980  -31.6190 C   0  0  0  0  0  0  0  0  0  0  0  0
   -5.7480   22.5060  -30.5970 C   0  0  0  0  0  0  0  0  0  0  0  0
   -3.1730   22.6310  -28.2210 C   0  0  0  0  0  0  0  0  0  0  0  0
   -3.0420   21.0300  -27.8790 S   0  0  0  0  0  0  0  0  0  0  0  0
   -2.5530   23.6040  -27.5200 N   0  0  0  0  0  0  0  0  0  0  0  0
    3.0833   26.6847  -25.7779 H   0  0  0  0  0  0  0  0  0  0  0  0
    2.7454   25.7413  -27.2687 H   0  0  0  0  0  0  0  0  0  0  0  0
    2.5384   27.5256  -27.2687 H   0  0  0  0  0  0  0  0  0  0  0  0
    1.9990   24.6500  -23.4730 H   0  0  0  0  0  0  0  0  0  0  0  0
    0.6115   22.3095  -24.3411 H   0  0  0  0  0  0  0  0  0  0  0  0
   -1.4611   21.7824  -25.6513 H   0  0  0  0  0  0  0  0  0  0  0  0
   -1.9423   26.6428  -27.5482 H   0  0  0  0  0  0  0  0  0  0  0  0
   -0.9306   26.0122  -28.7989 H   0  0  0  0  0  0  0  0  0  0  0  0
   -2.5305   21.4950  -31.1755 H   0  0  0  0  0  0  0  0  0  0  0  0
   -3.6782   20.2396  -32.9995 H   0  0  0  0  0  0  0  0  0  0  0  0
   -7.6017   19.6961  -31.6831 H   0  0  0  0  0  0  0  0  0  0  0  0
   -8.7379   20.2611  -32.9545 H   0  0  0  0  0  0  0  0  0  0  0  0
   -8.1644   18.5588  -32.9545 H   0  0  0  0  0  0  0  0  0  0  0  0
   -7.4791   21.8849  -31.7464 H   0  0  0  0  0  0  0  0  0  0  0  0
   -6.3352   23.1453  -29.9213 H   0  0  0  0  0  0  0  0  0  0  0  0
  1  2  1  0
  2  3  1  0
  3  4  2  0
  4  5  1  0
  4  6  1  0
  6  7  2  0
  7  8  1  0
  8  9  2  0
  9 10  1  0
 10 11  1  0
 11 12  2  0
 12 13  1  0
 12 14  1  0
 14 15  1  0
 15 16  2  0
 16 17  1  0
 17 18  2  0
 18 19  1  0
 19 20  1  0
 18 21  1  0
 21 22  2  0
 14 23  1  0
 23 24  2  0
 23 25  1  0
  9  3  1  0
 25 11  1  0
 25  8  1  0
 22 15  1  0
  1 26  1  0
  1 27  1  0
  1 28  1  0
  5 29  1  0
  6 30  1  0
  7 31  1  0
 10 32  1  0
 10 33  1  0
 16 34  1  0
 17 35  1  0
 20 36  1  0
 20 37  1  0
 20 38  1  0
 21 39  1  0
 22 40  1  0
M  CHG  1  13  -1
M  END
>  <UniqueID>  (18) 
15

>  <SMILES>  (18) 
COc1c(O)ccc2c1Cc1c([O-])n(-c3ccc(SC)cc3)c(=S)n1-2

>  <Energy>  (18) 
125.2122258739331

>  <Genealogy>  (18) 
COc1c(O)ccc2c1Cc1c([O-])n(-c3ccc(SC)cc3)c(=S)n1-2 (protonated)
COc1c(O)ccc2c1Cc1c([O-])n(-c3ccc(SC)cc3)c(=S)n1-2 (3D coordinates assigned)
COc1c(O)ccc2c1Cc1c([O-])n(-c3ccc(SC)cc3)c(=S)n1-2 (nonaromatic ring conformer: 125.2122258739331 kcal/mol)

>  <smiles>  (18) 
COc1c(O)ccc2c1Cc1c(O)n(-c3ccc(SC)cc3)c(=S)n1-2

>  <score_type>  (18) 
oracle

>  <origin>  (18) 
adgpu

>  <m_score__min__energy>  (18) 
-10.050000000000001

>  <m_primary>  (18) 
energy

$$$$
18:0
     RDKit          3D

 33 34  0  0  0  0  0  0  0  0999 V2000
   -5.7670   20.6270  -32.9800 C   0  0  0  0  0  0  0  0  0  0  0  0
   -5.9570   21.8920  -32.1960 C   0  0  0  0  0  0  0  0  0  0  0  0
   -7.2490   22.3550  -31.9060 C   0  0  0  0  0  0  0  0  0  0  0  0
   -7.4250   23.5460  -31.1970 C   0  0  0  0  0  0  0  0  0  0  0  0
   -6.3160   24.2940  -30.7940 C   0  0  0  0  0  0  0  0  0  0  0  0
   -5.0170   23.8630  -31.1180 C   0  0  0  0  0  0  0  0  0  0  0  0
   -3.8560   24.5970  -30.7050 N   0  0  0  0  0  0  0  0  0  0  0  0
   -3.2540   24.5580  -29.4070 C   0  0  0  0  0  0  0  0  0  0  0  0
   -3.7450   23.7970  -28.5310 O   0  0  0  0  0  0  0  0  0  0  0  0
   -2.0490   25.2920  -29.1330 N   0  0  0  0  0  0  0  0  0  0  0  0
   -1.5750   25.5940  -27.8090 C   0  0  0  0  0  0  0  0  0  0  0  0
   -0.2860   26.1190  -27.6430 C   0  0  0  0  0  0  0  0  0  0  0  0
    0.1910   26.4410  -26.3700 C   0  0  0  0  0  0  0  0  0  0  0  0
   -0.6270   26.2780  -25.2400 C   0  0  0  0  0  0  0  0  0  0  0  0
   -0.0970   26.5810  -23.8610 C   0  0  0  0  0  0  0  0  0  0  0  0
   -0.8620   25.9520  -22.8940 F   0  0  0  0  0  0  0  0  0  0  0  0
   -0.1250   27.9420  -23.6150 F   0  0  0  0  0  0  0  0  0  0  0  0
    1.2070   26.1320  -23.7670 F   0  0  0  0  0  0  0  0  0  0  0  0
   -1.9190   25.7480  -25.4050 C   0  0  0  0  0  0  0  0  0  0  0  0
   -2.3940   25.4240  -26.6790 C   0  0  0  0  0  0  0  0  0  0  0  0
   -4.8460   22.6550  -31.8050 C   0  0  0  0  0  0  0  0  0  0  0  0
   -5.6401   19.7819  -32.2874 H   0  0  0  0  0  0  0  0  0  0  0  0
   -6.6490   20.4524  -33.6137 H   0  0  0  0  0  0  0  0  0  0  0  0
   -4.8726   20.7192  -33.6137 H   0  0  0  0  0  0  0  0  0  0  0  0
   -8.1256   21.7791  -32.2375 H   0  0  0  0  0  0  0  0  0  0  0  0
   -8.4396   23.8957  -30.9554 H   0  0  0  0  0  0  0  0  0  0  0  0
   -6.4591   25.2225  -30.2218 H   0  0  0  0  0  0  0  0  0  0  0  0
   -1.4390   25.5420  -29.9440 H   0  0  0  0  0  0  0  0  0  0  0  0
    0.3553   26.2788  -28.5223 H   0  0  0  0  0  0  0  0  0  0  0  0
    1.2150   26.8251  -26.2518 H   0  0  0  0  0  0  0  0  0  0  0  0
   -2.5601   25.5873  -24.5257 H   0  0  0  0  0  0  0  0  0  0  0  0
   -3.4154   25.0334  -26.7983 H   0  0  0  0  0  0  0  0  0  0  0  0
   -3.8315   22.3008  -32.0404 H   0  0  0  0  0  0  0  0  0  0  0  0
  1  2  1  0
  2  3  2  0
  3  4  1  0
  4  5  2  0
  5  6  1  0
  6  7  1  0
  7  8  1  0
  8  9  2  0
  8 10  1  0
 10 11  1  0
 11 12  2  0
 12 13  1  0
 13 14  2  0
 14 15  1  0
 15 16  1  0
 15 17  1  0
 15 18  1  0
 14 19  1  0
 19 20  2  0
  6 21  2  0
 21  2  1  0
 20 11  1  0
  1 22  1  0
  1 23  1  0
  1 24  1  0
  3 25  1  0
  4 26  1  0
  5 27  1  0
 10 28  1  0
 12 29  1  0
 13 30  1  0
 19 31  1  0
 20 32  1  0
 21 33  1  0
M  CHG  1   7  -1
M  END
>  <UniqueID>  (19) 
16

>  <SMILES>  (19) 
Cc1cccc([N-]C(=O)Nc2ccc(C(F)(F)F)cc2)c1

>  <Energy>  (19) 
40.06845024167693

>  <Genealogy>  (19) 
Cc1cccc([N-]C(=O)Nc2ccc(C(F)(F)F)cc2)c1 (protonated)
Cc1cccc([N-]C(=O)Nc2ccc(C(F)(F)F)cc2)c1 (3D coordinates assigned)
Cc1cccc([N-]C(=O)Nc2ccc(C(F)(F)F)cc2)c1 (optimized conformer: 40.06845024167693 kcal/mol)

>  <smiles>  (19) 
Cc1cccc(NC(=O)Nc2ccc(C(F)(F)F)cc2)c1

>  <score_type>  (19) 
oracle

>  <origin>  (19) 
adgpu

>  <m_score__min__energy>  (19) 
-8.3599999999999994

>  <m_primary>  (19) 
energy

$$$$
19:0
     RDKit          3D

 21 22  0  0  0  0  0  0  0  0999 V2000
   -7.2390   17.1750  -33.1180 C   0  0  0  0  0  0  0  0  0  0  0  0
   -7.2670   18.6110  -32.7100 C   0  0  0  0  0  0  0  0  0  0  0  0
   -8.3980   19.3330  -32.3590 C   0  0  0  0  0  0  0  0  0  0  0  0
   -8.1140   20.6380  -31.9390 C   0  0  0  0  0  0  0  0  0  0  0  0
   -6.7500   20.9450  -31.9390 C   0  0  0  0  0  0  0  0  0  0  0  0
   -6.1260   22.2330  -31.5400 C   0  0  0  0  0  0  0  0  0  0  0  0
   -6.8880   23.2910  -31.0170 C   0  0  0  0  0  0  0  0  0  0  0  0
   -6.2670   24.4840  -30.6550 C   0  0  0  0  0  0  0  0  0  0  0  0
   -4.8860   24.6020  -30.8230 C   0  0  0  0  0  0  0  0  0  0  0  0
   -4.3010   25.6710  -30.5030 O   0  0  0  0  0  0  0  0  0  0  0  0
   -4.1830   23.5910  -31.3220 O   0  0  0  0  0  0  0  0  0  0  0  0
   -4.7410   22.4370  -31.6790 C   0  0  0  0  0  0  0  0  0  0  0  0
   -5.9150   19.5750  -32.4640 S   0  0  0  0  0  0  0  0  0  0  0  0
   -7.2266   16.5390  -32.2206 H   0  0  0  0  0  0  0  0  0  0  0  0
   -8.1329   16.9465  -33.7170 H   0  0  0  0  0  0  0  0  0  0  0  0
   -6.3369   16.9815  -33.7170 H   0  0  0  0  0  0  0  0  0  0  0  0
   -9.4169   18.9212  -32.4060 H   0  0  0  0  0  0  0  0  0  0  0  0
   -8.8916   21.3550  -31.6371 H   0  0  0  0  0  0  0  0  0  0  0  0
   -7.9751   23.1772  -30.8934 H   0  0  0  0  0  0  0  0  0  0  0  0
   -6.8542   25.3184  -30.2440 H   0  0  0  0  0  0  0  0  0  0  0  0
   -4.1117   21.6327  -32.0878 H   0  0  0  0  0  0  0  0  0  0  0  0
  1  2  1  0
  2  3  2  0
  3  4  1  0
  4  5  2  0
  5  6  1  0
  6  7  1  0
  7  8  2  0
  8  9  1  0
  9 10  2  0
  9 11  1  0
 11 12  1  0
  5 13  1  0
 13  2  1  0
 12  6  2  0
  1 14  1  0
  1 15  1  0
  1 16  1  0
  3 17  1  0
  4 18  1  0
  7 19  1  0
  8 20  1  0
 12 21  1  0
M  END
>  <UniqueID>  (20) 
17

>  <SMILES>  (20) 
Cc1ccc(-c2ccc(=O)oc2)s1

>  <Energy>  (20) 
50.07271789164195

>  <Genealogy>  (20) 
Cc1ccc(-c2ccc(=O)oc2)s1 (3D coordinates assigned)
Cc1ccc(-c2ccc(=O)oc2)s1 (optimized conformer: 50.07271789164195 kcal/mol)

>  <smiles>  (20) 
Cc1ccc(-c2ccc(=O)oc2)s1

>  <score_type>  (20) 
oracle

>  <origin>  (20) 
adgpu

>  <m_score__min__energy>  (20) 
-6.6900000000000004

>  <m_primary>  (20) 
energy

$$$$
20:0
     RDKit          3D

 44 46  0  0  1  0  0  0  0  0999 V2000
   -6.5160   25.5800  -29.3540 C   0  0  0  0  0  0  0  0  0  0  0  0
   -6.4510   25.2170  -30.7200 O   0  0  0  0  0  0  0  0  0  0  0  0
   -6.2760   23.8730  -31.0150 C   0  0  0  0  0  0  0  0  0  0  0  0
   -7.3290   23.0220  -31.3060 C   0  0  0  0  0  0  0  0  0  0  0  0
   -7.1130   21.6860  -31.5940 C   0  0  0  0  0  0  0  0  0  0  0  0
   -5.8340   21.1490  -31.6010 C   0  0  0  0  0  0  0  0  0  0  0  0
   -4.7990   22.0110  -31.3080 C   0  0  0  0  0  0  0  0  0  0  0  0
   -4.9950   23.3520  -31.0170 C   0  0  0  0  0  0  0  0  0  0  0  0
   -3.8930   24.2010  -30.7210 N   0  0  0  0  0  0  0  0  0  0  0  0
   -3.4610   24.3580  -29.5370 C   0  0  0  0  0  0  0  0  0  0  0  0
   -4.0740   23.6940  -28.5350 N   0  0  0  0  0  0  0  0  0  0  0  0
   -3.5780   23.8940  -27.2970 C   0  0  0  0  0  0  0  0  0  0  0  0
   -2.5100   24.7200  -27.0370 C   0  0  0  0  0  0  0  0  0  0  0  0
   -1.9150   24.9290  -25.4320 Cl  0  0  0  0  0  0  0  0  0  0  0  0
   -1.9050   25.3830  -28.0720 C   0  0  0  0  0  0  0  0  0  0  0  0
   -0.9190   26.1790  -27.9820 N   0  0  0  0  0  0  0  0  0  0  0  0
   -0.3230   26.4710  -26.7350 C   0  0  0  0  0  0  0  0  0  0  0  0
   -0.7880   27.5690  -25.9940 C   0  0  0  0  0  0  0  0  0  0  0  0
   -0.2170   27.9190  -24.7860 C   0  0  0  0  0  0  0  0  0  0  0  0
    0.8380   27.1450  -24.3260 C   0  0  0  0  0  0  0  0  0  0  0  0
    1.3260   26.0570  -25.0220 C   0  0  0  0  0  0  0  0  0  0  0  0
    0.7450   25.7040  -26.2470 C   0  0  0  0  0  0  0  0  0  0  0  0
    1.3720   24.3410  -27.1160 S   0  0  0  0  0  0  0  0  0  0  0  0
    3.1490   24.3320  -27.0530 C   0  0  0  0  0  0  0  0  0  0  0  0
    0.9130   23.0780  -26.4480 O   0  0  0  0  0  0  0  0  0  0  0  0
    0.9610   24.3220  -28.5530 O   0  0  0  0  0  0  0  0  0  0  0  0
   -2.4150   25.1710  -29.3080 N   0  0  0  0  0  0  0  0  0  0  0  0
   -6.3564   24.6885  -28.7297 H   0  0  0  0  0  0  0  0  0  0  0  0
   -5.7370   26.3252  -29.1352 H   0  0  0  0  0  0  0  0  0  0  0  0
   -7.5052   26.0086  -29.1352 H   0  0  0  0  0  0  0  0  0  0  0  0
   -8.3562   23.4154  -31.3082 H   0  0  0  0  0  0  0  0  0  0  0  0
   -7.9718   21.0374  -31.8217 H   0  0  0  0  0  0  0  0  0  0  0  0
   -5.6546   20.0880  -31.8290 H   0  0  0  0  0  0  0  0  0  0  0  0
   -3.7719   21.6172  -31.3050 H   0  0  0  0  0  0  0  0  0  0  0  0
   -4.8960   23.0550  -28.7120 H   0  0  0  0  0  0  0  0  0  0  0  0
   -4.0513   23.3703  -26.4534 H   0  0  0  0  0  0  0  0  0  0  0  0
   -1.6265   28.1644  -26.3845 H   0  0  0  0  0  0  0  0  0  0  0  0
   -0.5856   28.7804  -24.2097 H   0  0  0  0  0  0  0  0  0  0  0  0
    1.3057   27.4091  -23.3661 H   0  0  0  0  0  0  0  0  0  0  0  0
    2.1649   25.4716  -24.6176 H   0  0  0  0  0  0  0  0  0  0  0  0
    3.4787   24.3303  -26.0036 H   0  0  0  0  0  0  0  0  0  0  0  0
    3.5293   23.4319  -27.5582 H   0  0  0  0  0  0  0  0  0  0  0  0
    3.5384   25.2282  -27.5582 H   0  0  0  0  0  0  0  0  0  0  0  0
   -1.9920   25.6500  -30.1310 H   0  0  0  0  0  0  0  0  0  0  0  0
  1  2  1  0
  2  3  1  0
  3  4  2  0
  4  5  1  0
  5  6  2  0
  6  7  1  0
  7  8  2  0
  8  9  1  0
  9 10  2  0
 10 11  1  0
 11 12  1  0
 12 13  2  0
 13 14  1  0
 13 15  1  0
 15 16  2  0
 16 17  1  0
 17 18  2  0
 18 19  1  0
 19 20  2  0
 20 21  1  0
 21 22  2  0
 22 23  1  0
 23 24  1  0
 23 25  2  0
 23 26  2  0
 15 27  1  0
  8  3  1  0
 27 10  1  0
 22 17  1  0
  1 28  1  0
  1 29  1  0
  1 30  1  0
  4 31  1  0
  5 32  1  0
  6 33  1  0
  7 34  1  0
 11 35  1  0
 12 36  1  0
 18 37  1  0
 19 38  1  0
 20 39  1  0
 21 40  1  0
 24 41  1  0
 24 42  1  0
 24 43  1  0
 27 44  1  0
M  END
>  <smiles>  (21) 
COc1ccccc1N=c1[nH]cc(Cl)c(=Nc2ccccc2S(C)(=O)=O)[nH]1

>  <score_type>  (21) 
oracle

>  <origin>  (21) 
adgpu

>  <m_score__min__energy>  (21) 
-8.7300000000000004

>  <m_primary>  (21) 
energy

$$$$
21:0
     RDKit          3D

 46 48  0  0  0  0  0  0  0  0999 V2000
   -2.4450   19.2800  -26.7160 C   0  0  0  0  0  0  0  0  0  0  0  0
   -1.9030   20.4200  -27.3770 O   0  0  0  0  0  0  0  0  0  0  0  0
   -2.6510   21.3230  -28.1500 C   0  0  0  0  0  0  0  0  0  0  0  0
   -3.4760   22.3020  -27.5640 C   0  0  0  0  0  0  0  0  0  0  0  0
   -4.2230   23.1680  -28.3650 C   0  0  0  0  0  0  0  0  0  0  0  0
   -4.1540   23.0780  -29.7570 C   0  0  0  0  0  0  0  0  0  0  0  0
   -5.1250   24.1560  -30.7560 S   0  0  0  0  0  0  0  0  0  0  0  0
   -4.2580   25.2960  -31.2090 O   0  0  0  0  0  0  0  0  0  0  0  0
   -6.2820   24.7020  -29.9680 O   0  0  0  0  0  0  0  0  0  0  0  0
   -5.7360   23.3200  -32.1520 N   0  0  0  0  0  0  0  0  0  0  0  0
   -6.5680   22.1390  -32.0910 C   0  0  0  0  0  0  0  0  0  0  0  0
   -7.8610   22.1960  -31.5330 C   0  0  0  0  0  0  0  0  0  0  0  0
   -8.6300   21.0410  -31.3910 C   0  0  0  0  0  0  0  0  0  0  0  0
   -8.1340   19.8090  -31.8180 C   0  0  0  0  0  0  0  0  0  0  0  0
   -9.1020   18.3580  -31.6330 Cl  0  0  0  0  0  0  0  0  0  0  0  0
   -6.8680   19.7340  -32.4030 C   0  0  0  0  0  0  0  0  0  0  0  0
   -6.0770   20.8860  -32.5450 C   0  0  0  0  0  0  0  0  0  0  0  0
   -4.7540   20.7540  -33.1960 C   0  0  0  0  0  0  0  0  0  0  0  0
   -4.1070   21.8020  -33.4670 O   0  0  0  0  0  0  0  0  0  0  0  0
   -4.1990   19.4310  -33.5790 C   0  0  0  0  0  0  0  0  0  0  0  0
   -2.9440   18.9970  -33.1090 C   0  0  0  0  0  0  0  0  0  0  0  0
   -2.4610   17.7360  -33.4590 C   0  0  0  0  0  0  0  0  0  0  0  0
   -3.2260   16.9160  -34.2890 C   0  0  0  0  0  0  0  0  0  0  0  0
   -4.4240   17.3520  -34.7580 N   0  0  0  0  0  0  0  0  0  0  0  0
   -4.9190   18.5760  -34.4310 C   0  0  0  0  0  0  0  0  0  0  0  0
   -3.3110   22.1260  -30.3480 C   0  0  0  0  0  0  0  0  0  0  0  0
   -2.5670   21.2350  -29.5490 C   0  0  0  0  0  0  0  0  0  0  0  0
   -1.7370   20.2470  -30.1110 O   0  0  0  0  0  0  0  0  0  0  0  0
   -0.6770   20.5110  -31.0220 C   0  0  0  0  0  0  0  0  0  0  0  0
   -2.3779   19.4211  -25.6272 H   0  0  0  0  0  0  0  0  0  0  0  0
   -3.4989   19.1550  -27.0053 H   0  0  0  0  0  0  0  0  0  0  0  0
   -1.8766   18.3837  -27.0053 H   0  0  0  0  0  0  0  0  0  0  0  0
   -3.5324   22.3851  -26.4686 H   0  0  0  0  0  0  0  0  0  0  0  0
   -4.8693   23.9252  -27.8971 H   0  0  0  0  0  0  0  0  0  0  0  0
   -5.3460   23.6410  -33.0640 H   0  0  0  0  0  0  0  0  0  0  0  0
   -8.2689   23.1636  -31.2053 H   0  0  0  0  0  0  0  0  0  0  0  0
   -9.6317   21.1018  -30.9405 H   0  0  0  0  0  0  0  0  0  0  0  0
   -6.4870   18.7642  -32.7557 H   0  0  0  0  0  0  0  0  0  0  0  0
   -2.3429   19.6546  -32.4639 H   0  0  0  0  0  0  0  0  0  0  0  0
   -1.4860   17.3913  -33.0841 H   0  0  0  0  0  0  0  0  0  0  0  0
   -2.8589   15.9161  -34.5637 H   0  0  0  0  0  0  0  0  0  0  0  0
   -5.8894   18.8989  -34.8361 H   0  0  0  0  0  0  0  0  0  0  0  0
   -3.2298   22.0743  -31.4438 H   0  0  0  0  0  0  0  0  0  0  0  0
    0.2408   20.7396  -30.4604 H   0  0  0  0  0  0  0  0  0  0  0  0
   -0.5090   19.6273  -31.6551 H   0  0  0  0  0  0  0  0  0  0  0  0
   -0.9431   21.3703  -31.6551 H   0  0  0  0  0  0  0  0  0  0  0  0
  1  2  1  0
  2  3  1  0
  3  4  2  0
  4  5  1  0
  5  6  2  0
  6  7  1  0
  7  8  2  0
  7  9  2  0
  7 10  1  0
 10 11  1  0
 11 12  2  0
 12 13  1  0
 13 14  2  0
 14 15  1  0
 14 16  1  0
 16 17  2  0
 17 18  1  0
 18 19  2  0
 18 20  1  0
 20 21  2  0
 21 22  1  0
 22 23  2  0
 23 24  1  0
 24 25  2  0
  6 26  1  0
 26 27  2  0
 27 28  1  0
 28 29  1  0
 27  3  1  0
 17 11  1  0
 25 20  1  0
  1 30  1  0
  1 31  1  0
  1 32  1  0
  4 33  1  0
  5 34  1  0
 10 35  1  0
 12 36  1  0
 13 37  1  0
 16 38  1  0
 21 39  1  0
 22 40  1  0
 23 41  1  0
 25 42  1  0
 26 43  1  0
 29 44  1  0
 29 45  1  0
 29 46  1  0
M  END
>  <UniqueID>  (22) 
18

>  <SMILES>  (22) 
COc1ccc(S(=O)(=O)Nc2ccc(Cl)cc2C(=O)c2cccnc2)cc1OC

>  <Energy>  (22) 
59.356375220907694

>  <Genealogy>  (22) 
COc1ccc(S(=O)(=O)Nc2ccc(Cl)cc2C(=O)c2cccnc2)cc1OC (3D coordinates assigned)
COc1ccc(S(=O)(=O)Nc2ccc(Cl)cc2C(=O)c2cccnc2)cc1OC (optimized conformer: 59.356375220907694 kcal/mol)

>  <smiles>  (22) 
COc1ccc(S(=O)(=O)Nc2ccc(Cl)cc2C(=O)c2cccnc2)cc1OC

>  <score_type>  (22) 
oracle

>  <origin>  (22) 
adgpu

>  <m_score__min__energy>  (22) 
-9.6600000000000001

>  <m_primary>  (22) 
energy

$$$$
22:0
     RDKit          3D

 35 37  0  0  0  0  0  0  0  0999 V2000
   -9.3450   18.4600  -31.9670 C   0  0  0  0  0  0  0  0  0  0  0  0
   -9.1840   19.7810  -32.4740 O   0  0  0  0  0  0  0  0  0  0  0  0
   -8.2440   20.7040  -31.9930 C   0  0  0  0  0  0  0  0  0  0  0  0
   -8.5650   21.6770  -31.0280 C   0  0  0  0  0  0  0  0  0  0  0  0
   -7.5920   22.5750  -30.5800 C   0  0  0  0  0  0  0  0  0  0  0  0
   -6.2840   22.5190  -31.0880 C   0  0  0  0  0  0  0  0  0  0  0  0
   -5.2520   23.4640  -30.6190 C   0  0  0  0  0  0  0  0  0  0  0  0
   -4.9680   24.6410  -31.2120 N   0  0  0  0  0  0  0  0  0  0  0  0
   -3.9950   25.1900  -30.5020 N   0  0  0  0  0  0  0  0  0  0  0  0
   -3.7210   24.3300  -29.5030 C   0  0  0  0  0  0  0  0  0  0  0  0
   -2.6910   24.5500  -28.4670 C   0  0  0  0  0  0  0  0  0  0  0  0
   -3.0690   24.7000  -27.1230 C   0  0  0  0  0  0  0  0  0  0  0  0
   -2.1010   24.9070  -26.1380 C   0  0  0  0  0  0  0  0  0  0  0  0
   -0.7490   24.9680  -26.4850 C   0  0  0  0  0  0  0  0  0  0  0  0
   -0.3510   24.8220  -27.8190 C   0  0  0  0  0  0  0  0  0  0  0  0
    1.0180   24.8900  -28.1150 O   0  0  0  0  0  0  0  0  0  0  0  0
    2.0510   24.9620  -27.1360 C   0  0  0  0  0  0  0  0  0  0  0  0
   -1.3300   24.6120  -28.8110 C   0  0  0  0  0  0  0  0  0  0  0  0
   -4.4890   23.2680  -29.5700 O   0  0  0  0  0  0  0  0  0  0  0  0
   -5.9660   21.5470  -32.0500 C   0  0  0  0  0  0  0  0  0  0  0  0
   -6.9390   20.6490  -32.4960 C   0  0  0  0  0  0  0  0  0  0  0  0
   -9.3418   18.4864  -30.8673 H   0  0  0  0  0  0  0  0  0  0  0  0
  -10.3003   18.0453  -32.3210 H   0  0  0  0  0  0  0  0  0  0  0  0
   -8.5172   17.8280  -32.3210 H   0  0  0  0  0  0  0  0  0  0  0  0
   -9.5868   21.7310  -30.6243 H   0  0  0  0  0  0  0  0  0  0  0  0
   -7.8526   23.3307  -29.8244 H   0  0  0  0  0  0  0  0  0  0  0  0
   -4.1323   24.6543  -26.8448 H   0  0  0  0  0  0  0  0  0  0  0  0
   -2.4036   25.0223  -25.0867 H   0  0  0  0  0  0  0  0  0  0  0  0
    0.0082   25.1320  -25.7041 H   0  0  0  0  0  0  0  0  0  0  0  0
    1.6060   24.9310  -26.1305 H   0  0  0  0  0  0  0  0  0  0  0  0
    2.7346   24.1093  -27.2609 H   0  0  0  0  0  0  0  0  0  0  0  0
    2.6097   25.9013  -27.2609 H   0  0  0  0  0  0  0  0  0  0  0  0
   -1.0265   24.4958  -29.8619 H   0  0  0  0  0  0  0  0  0  0  0  0
   -4.9447   21.4922  -32.4549 H   0  0  0  0  0  0  0  0  0  0  0  0
   -6.6770   19.8917  -33.2495 H   0  0  0  0  0  0  0  0  0  0  0  0
  1  2  1  0
  2  3  1  0
  3  4  2  0
  4  5  1  0
  5  6  2  0
  6  7  1  0
  7  8  2  0
  8  9  1  0
  9 10  2  0
 10 11  1  0
 11 12  2  0
 12 13  1  0
 13 14  2  0
 14 15  1  0
 15 16  1  0
 16 17  1  0
 15 18  2  0
 10 19  1  0
  6 20  1  0
 20 21  2  0
 21  3  1  0
 19  7  1  0
 18 11  1  0
  1 22  1  0
  1 23  1  0
  1 24  1  0
  4 25  1  0
  5 26  1  0
 12 27  1  0
 13 28  1  0
 14 29  1  0
 17 30  1  0
 17 31  1  0
 17 32  1  0
 18 33  1  0
 20 34  1  0
 21 35  1  0
M  END
>  <UniqueID>  (23) 
19

>  <SMILES>  (23) 
COc1ccc(-c2nnc(-c3cccc(OC)c3)o2)cc1

>  <Energy>  (23) 
71.06732173357723

>  <Genealogy>  (23) 
COc1ccc(-c2nnc(-c3cccc(OC)c3)o2)cc1 (3D coordinates assigned)
COc1ccc(-c2nnc(-c3cccc(OC)c3)o2)cc1 (optimized conformer: 71.06732173357723 kcal/mol)

>  <smiles>  (23) 
COc1ccc(-c2nnc(-c3cccc(OC)c3)o2)cc1

>  <score_type>  (23) 
oracle

>  <origin>  (23) 
adgpu

>  <m_score__min__energy>  (23) 
-7.4199999999999999

>  <m_primary>  (23) 
energy

$$$$
23:0
     RDKit          3D

 32 33  0  0  0  0  0  0  0  0999 V2000
   -3.8520   24.1510  -27.9770 C   0  0  0  0  0  0  0  0  0  0  0  0
   -4.8130   23.7250  -29.0880 C   0  0  0  0  0  0  0  0  0  0  0  0
   -4.3490   24.1600  -30.4270 N   0  0  0  0  0  0  0  0  0  0  0  0
   -5.4560   24.7560  -31.2210 C   0  0  0  0  0  0  0  0  0  0  0  0
   -6.0890   23.7980  -32.2560 C   0  0  0  0  0  0  0  0  0  0  0  0
   -5.8820   22.3930  -31.8870 N   0  0  0  0  0  0  0  0  0  0  0  0
   -6.9670   21.4480  -31.9280 C   0  0  0  0  0  0  0  0  0  0  0  0
   -8.1060   21.7210  -31.2330 N   0  0  0  0  0  0  0  0  0  0  0  0
   -9.1710   20.8780  -31.2270 C   0  0  0  0  0  0  0  0  0  0  0  0
   -9.1220   19.6860  -31.9470 C   0  0  0  0  0  0  0  0  0  0  0  0
   -7.9670   19.3650  -32.6600 C   0  0  0  0  0  0  0  0  0  0  0  0
   -6.8740   20.2400  -32.6550 C   0  0  0  0  0  0  0  0  0  0  0  0
   -5.6670   19.8580  -33.3470 C   0  0  0  0  0  0  0  0  0  0  0  0
   -4.7000   19.5500  -33.9010 N   0  0  0  0  0  0  0  0  0  0  0  0
   -4.5450   21.9260  -31.5150 C   0  0  0  0  0  0  0  0  0  0  0  0
   -3.6300   23.1140  -31.1860 C   0  0  0  0  0  0  0  0  0  0  0  0
   -4.3103   23.9478  -26.9979 H   0  0  0  0  0  0  0  0  0  0  0  0
   -2.9133   23.5847  -28.0670 H   0  0  0  0  0  0  0  0  0  0  0  0
   -3.6412   25.2269  -28.0670 H   0  0  0  0  0  0  0  0  0  0  0  0
   -4.8981   22.6283  -29.0816 H   0  0  0  0  0  0  0  0  0  0  0  0
   -5.7848   24.2031  -28.8956 H   0  0  0  0  0  0  0  0  0  0  0  0
   -6.2438   25.0786  -30.5243 H   0  0  0  0  0  0  0  0  0  0  0  0
   -5.0193   25.5891  -31.7912 H   0  0  0  0  0  0  0  0  0  0  0  0
   -7.1694   23.9969  -32.3129 H   0  0  0  0  0  0  0  0  0  0  0  0
   -5.6061   23.9736  -33.2286 H   0  0  0  0  0  0  0  0  0  0  0  0
  -10.0731   21.1366  -30.6531 H   0  0  0  0  0  0  0  0  0  0  0  0
   -9.9857   19.0049  -31.9530 H   0  0  0  0  0  0  0  0  0  0  0  0
   -7.9148   18.4236  -33.2267 H   0  0  0  0  0  0  0  0  0  0  0  0
   -4.6224   21.2740  -30.6325 H   0  0  0  0  0  0  0  0  0  0  0  0
   -4.1149   21.3708  -32.3616 H   0  0  0  0  0  0  0  0  0  0  0  0
   -2.7817   22.7556  -30.5844 H   0  0  0  0  0  0  0  0  0  0  0  0
   -3.2819   23.5531  -32.1326 H   0  0  0  0  0  0  0  0  0  0  0  0
  1  2  1  0
  2  3  1  0
  3  4  1  0
  4  5  1  0
  5  6  1  0
  6  7  1  0
  7  8  2  0
  8  9  1  0
  9 10  2  0
 10 11  1  0
 11 12  2  0
 12 13  1  0
 13 14  3  0
  6 15  1  0
 15 16  1  0
 16  3  1  0
 12  7  1  0
  1 17  1  0
  1 18  1  0
  1 19  1  0
  2 20  1  0
  2 21  1  0
  4 22  1  0
  4 23  1  0
  5 24  1  0
  5 25  1  0
  9 26  1  0
 10 27  1  0
 11 28  1  0
 15 29  1  0
 15 30  1  0
 16 31  1  0
 16 32  1  0
M  END
>  <UniqueID>  (24) 
20

>  <SMILES>  (24) 
CCN1CCN(c2ncccc2C#N)CC1

>  <Energy>  (24) 
44.250200489306245

>  <Genealogy>  (24) 
CCN1CCN(c2ncccc2C#N)CC1 (3D coordinates assigned)
CCN1CCN(c2ncccc2C#N)CC1 (nonaromatic ring conformer: 44.250200489306245 kcal/mol)

>  <smiles>  (24) 
CCN1CCN(c2ncccc2C#N)CC1

>  <score_type>  (24) 
oracle

>  <origin>  (24) 
adgpu

>  <m_score__min__energy>  (24) 
-6.0499999999999998

>  <m_primary>  (24) 
energy

$$$$
24:0
     RDKit          3D

 37 39  0  0  0  0  0  0  0  0999 V2000
   -3.9370   25.4730  -30.8400 O   0  0  0  0  0  0  0  0  0  0  0  0
   -3.6130   24.5390  -30.0600 C   0  0  0  0  0  0  0  0  0  0  0  0
   -2.3110   24.5130  -29.4620 N   0  0  0  0  0  0  0  0  0  0  0  0
   -1.9430   25.0640  -28.1880 C   0  0  0  0  0  0  0  0  0  0  0  0
   -0.8510   25.9400  -28.0400 C   0  0  0  0  0  0  0  0  0  0  0  0
   -0.5420   26.4720  -26.7830 C   0  0  0  0  0  0  0  0  0  0  0  0
   -1.3250   26.1480  -25.6710 C   0  0  0  0  0  0  0  0  0  0  0  0
   -0.9370   26.8180  -24.0980 Cl  0  0  0  0  0  0  0  0  0  0  0  0
   -2.4250   25.2980  -25.8180 C   0  0  0  0  0  0  0  0  0  0  0  0
   -2.7360   24.7640  -27.0730 C   0  0  0  0  0  0  0  0  0  0  0  0
   -4.5280   23.4710  -29.7760 N   0  0  0  0  0  0  0  0  0  0  0  0
   -5.8080   23.2940  -30.4050 C   0  0  0  0  0  0  0  0  0  0  0  0
   -6.5810   24.3010  -30.9460 C   0  0  0  0  0  0  0  0  0  0  0  0
   -7.7240   23.7670  -31.4200 N   0  0  0  0  0  0  0  0  0  0  0  0
   -7.6930   22.4660  -31.1720 N   0  0  0  0  0  0  0  0  0  0  0  0
   -8.7380   21.5370  -31.5870 C   0  0  0  0  0  0  0  0  0  0  0  0
   -8.1170   20.2830  -32.1360 C   0  0  0  0  0  0  0  0  0  0  0  0
   -7.0990   20.3620  -33.1010 C   0  0  0  0  0  0  0  0  0  0  0  0
   -6.4930   19.1980  -33.5820 C   0  0  0  0  0  0  0  0  0  0  0  0
   -6.8880   17.9480  -33.0940 C   0  0  0  0  0  0  0  0  0  0  0  0
   -6.1230   16.4890  -33.6950 Cl  0  0  0  0  0  0  0  0  0  0  0  0
   -7.8890   17.8640  -32.1210 C   0  0  0  0  0  0  0  0  0  0  0  0
   -8.4980   19.0260  -31.6390 C   0  0  0  0  0  0  0  0  0  0  0  0
   -6.5410   22.1340  -30.5590 C   0  0  0  0  0  0  0  0  0  0  0  0
   -0.2392   26.2069  -28.9143 H   0  0  0  0  0  0  0  0  0  0  0  0
    0.3192   27.1469  -26.6696 H   0  0  0  0  0  0  0  0  0  0  0  0
   -3.0469   25.0487  -24.9456 H   0  0  0  0  0  0  0  0  0  0  0  0
   -3.6090   24.1042  -27.1850 H   0  0  0  0  0  0  0  0  0  0  0  0
   -4.2580   22.7910  -29.0310 H   0  0  0  0  0  0  0  0  0  0  0  0
   -6.3086   25.3661  -30.9841 H   0  0  0  0  0  0  0  0  0  0  0  0
   -9.3666   21.2839  -30.7205 H   0  0  0  0  0  0  0  0  0  0  0  0
   -9.3538   22.0085  -32.3671 H   0  0  0  0  0  0  0  0  0  0  0  0
   -6.7777   21.3436  -33.4794 H   0  0  0  0  0  0  0  0  0  0  0  0
   -5.7041   19.2650  -34.3456 H   0  0  0  0  0  0  0  0  0  0  0  0
   -8.1976   16.8815  -31.7343 H   0  0  0  0  0  0  0  0  0  0  0  0
   -9.2788   18.9557  -30.8674 H   0  0  0  0  0  0  0  0  0  0  0  0
   -6.2396   21.1253  -30.2400 H   0  0  0  0  0  0  0  0  0  0  0  0
  1  2  2  0
  2  3  1  0
  3  4  1  0
  4  5  2  0
  5  6  1  0
  6  7  2  0
  7  8  1  0
  7  9  1  0
  9 10  2  0
  2 11  1  0
 11 12  1  0
 12 13  1  0
 13 14  2  0
 14 15  1  0
 15 16  1  0
 16 17  1  0
 17 18  2  0
 18 19  1  0
 19 20  2  0
 20 21  1  0
 20 22  1  0
 22 23  2  0
 15 24  1  0
 10  4  1  0
 24 12  2  0
 23 17  1  0
  5 25  1  0
  6 26  1  0
  9 27  1  0
 10 28  1  0
 11 29  1  0
 13 30  1  0
 16 31  1  0
 16 32  1  0
 18 33  1  0
 19 34  1  0
 22 35  1  0
 23 36  1  0
 24 37  1  0
M  CHG  1   3  -1
M  END
>  <UniqueID>  (25) 
21

>  <SMILES>  (25) 
O=C([N-]c1ccc(Cl)cc1)Nc1cnn(Cc2ccc(Cl)cc2)c1

>  <Energy>  (25) 
73.2384095576956

>  <Genealogy>  (25) 
O=C([N-]c1ccc(Cl)cc1)Nc1cnn(Cc2ccc(Cl)cc2)c1 (protonated)
O=C([N-]c1ccc(Cl)cc1)Nc1cnn(Cc2ccc(Cl)cc2)c1 (3D coordinates assigned)
O=C([N-]c1ccc(Cl)cc1)Nc1cnn(Cc2ccc(Cl)cc2)c1 (optimized conformer: 73.2384095576956 kcal/mol)

>  <smiles>  (25) 
O=C(Nc1ccc(Cl)cc1)Nc1cnn(Cc2ccc(Cl)cc2)c1

>  <score_type>  (25) 
oracle

>  <origin>  (25) 
adgpu

>  <m_score__min__energy>  (25) 
-10.470000000000001

>  <m_primary>  (25) 
energy

$$$$
25:0
     RDKit          3D

 65 68  0  0  0  0  0  0  0  0999 V2000
    0.0060   27.0370  -39.4250 C   0  0  0  0  0  0  0  0  0  0  0  0
   -1.0160   27.3380  -38.3800 C   0  0  0  0  0  0  0  0  0  0  0  0
   -2.2240   27.4600  -38.7140 O   0  0  0  0  0  0  0  0  0  0  0  0
   -0.6190   27.4090  -37.0040 N   0  0  0  0  0  0  0  0  0  0  0  0
    0.4750   26.7140  -36.3880 C   0  0  0  0  0  0  0  0  0  0  0  0
    1.6060   27.3880  -35.8910 C   0  0  0  0  0  0  0  0  0  0  0  0
    2.6660   26.6680  -35.3350 C   0  0  0  0  0  0  0  0  0  0  0  0
    2.6160   25.2730  -35.2790 C   0  0  0  0  0  0  0  0  0  0  0  0
    1.5010   24.5870  -35.7840 C   0  0  0  0  0  0  0  0  0  0  0  0
    1.4690   23.1070  -35.7640 C   0  0  0  0  0  0  0  0  0  0  0  0
    0.2650   22.4650  -35.4260 C   0  0  0  0  0  0  0  0  0  0  0  0
    0.1820   21.0700  -35.3710 C   0  0  0  0  0  0  0  0  0  0  0  0
   -1.0580   20.4540  -34.9860 N   0  0  0  0  0  0  0  0  0  0  0  0
   -1.1600   19.3850  -34.0250 C   0  0  0  0  0  0  0  0  0  0  0  0
   -0.1170   18.9120  -33.4960 O   0  0  0  0  0  0  0  0  0  0  0  0
   -2.4770   18.8220  -33.6430 C   0  0  0  0  0  0  0  0  0  0  0  0
   -3.5690   19.6820  -33.4380 C   0  0  0  0  0  0  0  0  0  0  0  0
   -4.8260   19.1770  -33.0660 C   0  0  0  0  0  0  0  0  0  0  0  0
   -5.9420   20.0700  -32.8620 N   0  0  0  0  0  0  0  0  0  0  0  0
   -5.6900   21.4100  -32.3080 C   0  0  0  0  0  0  0  0  0  0  0  0
   -6.9720   22.2370  -32.2630 C   0  0  0  0  0  0  0  0  0  0  0  0
   -8.0440   21.4040  -31.7010 N   0  0  0  0  0  0  0  0  0  0  0  0
   -9.2140   22.2270  -31.3610 C   0  0  0  0  0  0  0  0  0  0  0  0
   -8.4270   20.3110  -32.6220 C   0  0  0  0  0  0  0  0  0  0  0  0
   -7.2500   19.7600  -33.4590 C   0  0  0  0  0  0  0  0  0  0  0  0
   -4.9820   17.7910  -32.8990 C   0  0  0  0  0  0  0  0  0  0  0  0
   -3.9040   16.9140  -33.1080 C   0  0  0  0  0  0  0  0  0  0  0  0
   -4.0590   15.4320  -32.8690 C   0  0  0  0  0  0  0  0  0  0  0  0
   -4.6240   15.2000  -31.6270 F   0  0  0  0  0  0  0  0  0  0  0  0
   -2.8350   14.7920  -32.9110 F   0  0  0  0  0  0  0  0  0  0  0  0
   -4.8800   14.8970  -33.8430 F   0  0  0  0  0  0  0  0  0  0  0  0
   -2.6490   17.4410  -33.4540 C   0  0  0  0  0  0  0  0  0  0  0  0
    1.3320   20.3050  -35.6190 C   0  0  0  0  0  0  0  0  0  0  0  0
    2.5320   20.9290  -35.9680 C   0  0  0  0  0  0  0  0  0  0  0  0
    2.6110   22.3260  -36.0680 C   0  0  0  0  0  0  0  0  0  0  0  0
    3.9220   22.9540  -36.4630 C   0  0  0  0  0  0  0  0  0  0  0  0
    0.4420   25.3140  -36.3500 C   0  0  0  0  0  0  0  0  0  0  0  0
    0.9537   26.7579  -38.9414 H   0  0  0  0  0  0  0  0  0  0  0  0
   -0.3450   26.2041  -40.0519 H   0  0  0  0  0  0  0  0  0  0  0  0
    0.1625   27.9272  -40.0519 H   0  0  0  0  0  0  0  0  0  0  0  0
    1.6555   28.4858  -35.9405 H   0  0  0  0  0  0  0  0  0  0  0  0
    3.5432   27.2013  -34.9399 H   0  0  0  0  0  0  0  0  0  0  0  0
    3.4526   24.7111  -34.8380 H   0  0  0  0  0  0  0  0  0  0  0  0
   -0.6261   23.0695  -35.2012 H   0  0  0  0  0  0  0  0  0  0  0  0
   -1.9190   20.7750  -35.4820 H   0  0  0  0  0  0  0  0  0  0  0  0
   -3.4378   20.7661  -33.5707 H   0  0  0  0  0  0  0  0  0  0  0  0
   -5.2927   21.3077  -31.2874 H   0  0  0  0  0  0  0  0  0  0  0  0
   -4.9652   21.9248  -32.9558 H   0  0  0  0  0  0  0  0  0  0  0  0
   -6.8199   23.1233  -31.6295 H   0  0  0  0  0  0  0  0  0  0  0  0
   -7.2433   22.5676  -33.2765 H   0  0  0  0  0  0  0  0  0  0  0  0
   -9.3096   22.2943  -30.2672 H   0  0  0  0  0  0  0  0  0  0  0  0
   -9.0871   23.2358  -31.7807 H   0  0  0  0  0  0  0  0  0  0  0  0
  -10.1206   21.7666  -31.7807 H   0  0  0  0  0  0  0  0  0  0  0  0
   -8.8453   19.4861  -32.0265 H   0  0  0  0  0  0  0  0  0  0  0  0
   -9.1562   20.7299  -33.3311 H   0  0  0  0  0  0  0  0  0  0  0  0
   -7.3528   18.6675  -33.5362 H   0  0  0  0  0  0  0  0  0  0  0  0
   -7.2888   20.2402  -34.4479 H   0  0  0  0  0  0  0  0  0  0  0  0
   -5.9606   17.3869  -32.6008 H   0  0  0  0  0  0  0  0  0  0  0  0
   -1.7908   16.7643  -33.5784 H   0  0  0  0  0  0  0  0  0  0  0  0
    1.2883   19.2088  -35.5382 H   0  0  0  0  0  0  0  0  0  0  0  0
    3.4250   20.3181  -36.1666 H   0  0  0  0  0  0  0  0  0  0  0  0
    4.4864   23.2243  -35.5583 H   0  0  0  0  0  0  0  0  0  0  0  0
    4.5065   22.2381  -37.0596 H   0  0  0  0  0  0  0  0  0  0  0  0
    3.7305   23.8581  -37.0596 H   0  0  0  0  0  0  0  0  0  0  0  0
   -0.4231   24.7786  -36.7682 H   0  0  0  0  0  0  0  0  0  0  0  0
  1  2  1  0
  2  3  2  0
  2  4  1  0
  4  5  1  0
  5  6  2  0
  6  7  1  0
  7  8  2  0
  8  9  1  0
  9 10  1  0
 10 11  2  0
 11 12  1  0
 12 13  1  0
 13 14  1  0
 14 15  2  0
 14 16  1  0
 16 17  2  0
 17 18  1  0
 18 19  1  0
 19 20  1  0
 20 21  1  0
 21 22  1  0
 22 23  1  0
 22 24  1  0
 24 25  1  0
 18 26  2  0
 26 27  1  0
 27 28  1  0
 28 29  1  0
 28 30  1  0
 28 31  1  0
 27 32  2  0
 12 33  2  0
 33 34  1  0
 34 35  2  0
 35 36  1  0
  9 37  2  0
 37  5  1  0
 35 10  1  0
 32 16  1  0
 25 19  1  0
  1 38  1  0
  1 39  1  0
  1 40  1  0
  6 41  1  0
  7 42  1  0
  8 43  1  0
 11 44  1  0
 13 45  1  0
 17 46  1  0
 20 47  1  0
 20 48  1  0
 21 49  1  0
 21 50  1  0
 23 51  1  0
 23 52  1  0
 23 53  1  0
 24 54  1  0
 24 55  1  0
 25 56  1  0
 25 57  1  0
 26 58  1  0
 32 59  1  0
 33 60  1  0
 34 61  1  0
 36 62  1  0
 36 63  1  0
 36 64  1  0
 37 65  1  0
M  CHG  1   4  -1
M  END
>  <UniqueID>  (26) 
22

>  <SMILES>  (26) 
CC(=O)[N-]c1cccc(-c2cc(NC(=O)c3cc(N4CCN(C)CC4)cc(C(F)(F)F)c3)ccc2C)c1

>  <Energy>  (26) 
93.22643205807347

>  <Genealogy>  (26) 
CC(=O)[N-]c1cccc(-c2cc(NC(=O)c3cc(N4CCN(C)CC4)cc(C(F)(F)F)c3)ccc2C)c1 (protonated)
CC(=O)[N-]c1cccc(-c2cc(NC(=O)c3cc(N4CCN(C)CC4)cc(C(F)(F)F)c3)ccc2C)c1 (3D coordinates assigned)
CC(=O)[N-]c1cccc(-c2cc(NC(=O)c3cc(N4CCN(C)CC4)cc(C(F)(F)F)c3)ccc2C)c1 (nonaromatic ring conformer: 93.22643205807347 kcal/mol)

>  <smiles>  (26) 
CC(=O)Nc1cccc(-c2cc(NC(=O)c3cc(N4CCN(C)CC4)cc(C(F)(F)F)c3)ccc2C)c1

>  <score_type>  (26) 
oracle

>  <origin>  (26) 
adgpu

>  <m_score__min__energy>  (26) 
-11.369999999999999

>  <m_primary>  (26) 
energy

$$$$
26:0
     RDKit          3D

 50 53  0  0  0  0  0  0  0  0999 V2000
   -0.7650   26.5350  -24.3350 C   0  0  0  0  0  0  0  0  0  0  0  0
   -0.7880   26.3880  -25.7510 O   0  0  0  0  0  0  0  0  0  0  0  0
   -1.7640   25.6690  -26.4600 C   0  0  0  0  0  0  0  0  0  0  0  0
   -3.0840   25.5420  -25.9920 C   0  0  0  0  0  0  0  0  0  0  0  0
   -4.0270   24.8170  -26.7220 C   0  0  0  0  0  0  0  0  0  0  0  0
   -3.6660   24.1930  -27.9260 C   0  0  0  0  0  0  0  0  0  0  0  0
   -4.6250   23.4630  -28.7100 N   0  0  0  0  0  0  0  0  0  0  0  0
   -4.5080   23.2450  -30.1270 C   0  0  0  0  0  0  0  0  0  0  0  0
   -3.5330   23.7270  -30.7670 O   0  0  0  0  0  0  0  0  0  0  0  0
   -5.5220   22.4530  -30.8600 C   0  0  0  0  0  0  0  0  0  0  0  0
   -5.1200   21.6780  -31.9710 C   0  0  0  0  0  0  0  0  0  0  0  0
   -6.0200   20.9230  -32.6850 N   0  0  0  0  0  0  0  0  0  0  0  0
   -5.5440   20.1510  -33.8470 C   0  0  0  0  0  0  0  0  0  0  0  0
   -5.6450   18.6700  -33.5830 C   0  0  0  0  0  0  0  0  0  0  0  0
   -5.6510   18.1770  -32.2670 C   0  0  0  0  0  0  0  0  0  0  0  0
   -5.7420   16.8010  -32.0290 C   0  0  0  0  0  0  0  0  0  0  0  0
   -5.8190   15.9080  -33.1010 C   0  0  0  0  0  0  0  0  0  0  0  0
   -5.8010   16.3890  -34.4130 C   0  0  0  0  0  0  0  0  0  0  0  0
   -5.7100   17.7630  -34.6560 C   0  0  0  0  0  0  0  0  0  0  0  0
   -7.3410   20.9360  -32.3180 C   0  0  0  0  0  0  0  0  0  0  0  0
   -8.3900   20.2350  -32.9400 C   0  0  0  0  0  0  0  0  0  0  0  0
   -9.6280   20.4640  -32.3440 C   0  0  0  0  0  0  0  0  0  0  0  0
   -9.4280   21.5320  -31.0520 S   0  0  0  0  0  0  0  0  0  0  0  0
   -7.7680   21.7010  -31.2440 C   0  0  0  0  0  0  0  0  0  0  0  0
   -6.8860   22.4770  -30.5040 C   0  0  0  0  0  0  0  0  0  0  0  0
   -7.3130   23.1990  -29.5620 O   0  0  0  0  0  0  0  0  0  0  0  0
   -2.3570   24.3400  -28.4070 C   0  0  0  0  0  0  0  0  0  0  0  0
   -1.3990   25.0700  -27.6750 C   0  0  0  0  0  0  0  0  0  0  0  0
   -0.0780   25.2210  -28.1230 O   0  0  0  0  0  0  0  0  0  0  0  0
    1.0650   24.6890  -27.4610 C   0  0  0  0  0  0  0  0  0  0  0  0
   -0.9185   25.5538  -23.8620 H   0  0  0  0  0  0  0  0  0  0  0  0
    0.2080   26.9435  -24.0245 H   0  0  0  0  0  0  0  0  0  0  0  0
   -1.5667   27.2212  -24.0245 H   0  0  0  0  0  0  0  0  0  0  0  0
   -3.3753   26.0175  -25.0438 H   0  0  0  0  0  0  0  0  0  0  0  0
   -5.0594   24.7342  -26.3514 H   0  0  0  0  0  0  0  0  0  0  0  0
   -5.4780   23.1170  -28.2160 H   0  0  0  0  0  0  0  0  0  0  0  0
   -4.0619   21.6788  -32.2717 H   0  0  0  0  0  0  0  0  0  0  0  0
   -6.1580   20.4038  -34.7240 H   0  0  0  0  0  0  0  0  0  0  0  0
   -4.4899   20.4053  -34.0317 H   0  0  0  0  0  0  0  0  0  0  0  0
   -5.5839   18.8759  -31.4202 H   0  0  0  0  0  0  0  0  0  0  0  0
   -5.7529   16.4218  -30.9965 H   0  0  0  0  0  0  0  0  0  0  0  0
   -5.8937   14.8269  -32.9123 H   0  0  0  0  0  0  0  0  0  0  0  0
   -5.8585   15.6852  -35.2564 H   0  0  0  0  0  0  0  0  0  0  0  0
   -5.6892   18.1361  -35.6906 H   0  0  0  0  0  0  0  0  0  0  0  0
   -8.2474   19.5741  -33.8077 H   0  0  0  0  0  0  0  0  0  0  0  0
  -10.5824   20.0203  -32.6638 H   0  0  0  0  0  0  0  0  0  0  0  0
   -2.0749   23.8807  -29.3659 H   0  0  0  0  0  0  0  0  0  0  0  0
    0.9222   24.7555  -26.3723 H   0  0  0  0  0  0  0  0  0  0  0  0
    1.1989   23.6360  -27.7496 H   0  0  0  0  0  0  0  0  0  0  0  0
    1.9569   25.2646  -27.7496 H   0  0  0  0  0  0  0  0  0  0  0  0
  1  2  1  0
  2  3  1  0
  3  4  2  0
  4  5  1  0
  5  6  2  0
  6  7  1  0
  7  8  1  0
  8  9  2  0
  8 10  1  0
 10 11  2  0
 11 12  1  0
 12 13  1  0
 13 14  1  0
 14 15  2  0
 15 16  1  0
 16 17  2  0
 17 18  1  0
 18 19  2  0
 12 20  1  0
 20 21  1  0
 21 22  2  0
 22 23  1  0
 23 24  1  0
 24 25  1  0
 25 26  2  0
  6 27  1  0
 27 28  2  0
 28 29  1  0
 29 30  1  0
 28  3  1  0
 25 10  1  0
 19 14  1  0
 24 20  2  0
  1 31  1  0
  1 32  1  0
  1 33  1  0
  4 34  1  0
  5 35  1  0
  7 36  1  0
 11 37  1  0
 13 38  1  0
 13 39  1  0
 15 40  1  0
 16 41  1  0
 17 42  1  0
 18 43  1  0
 19 44  1  0
 21 45  1  0
 22 46  1  0
 27 47  1  0
 30 48  1  0
 30 49  1  0
 30 50  1  0
M  END
>  <UniqueID>  (27) 
23

>  <SMILES>  (27) 
COc1ccc(NC(=O)c2cn(Cc3ccccc3)c3ccsc3c2=O)cc1OC

>  <Energy>  (27) 
95.69713678162947

>  <Genealogy>  (27) 
COc1ccc(NC(=O)c2cn(Cc3ccccc3)c3ccsc3c2=O)cc1OC (3D coordinates assigned)
COc1ccc(NC(=O)c2cn(Cc3ccccc3)c3ccsc3c2=O)cc1OC (optimized conformer: 95.69713678162947 kcal/mol)

>  <smiles>  (27) 
COc1ccc(NC(=O)c2cn(Cc3ccccc3)c3ccsc3c2=O)cc1OC

>  <score_type>  (27) 
oracle

>  <origin>  (27) 
adgpu

>  <m_score__min__energy>  (27) 
-9.7200000000000006

>  <m_primary>  (27) 
energy

$$$$
27:0
     RDKit          3D

 44 47  0  0  0  0  0  0  0  0999 V2000
   -0.7200   24.9790  -26.5420 C   0  0  0  0  0  0  0  0  0  0  0  0
   -1.2450   25.2950  -28.2150 S   0  0  0  0  0  0  0  0  0  0  0  0
   -0.4490   24.4150  -29.1380 O   0  0  0  0  0  0  0  0  0  0  0  0
   -0.9960   26.7300  -28.5830 O   0  0  0  0  0  0  0  0  0  0  0  0
   -2.9300   24.9160  -28.3950 N   0  0  0  0  0  0  0  0  0  0  0  0
   -3.4460   23.8910  -29.2630 C   0  0  0  0  0  0  0  0  0  0  0  0
   -4.1180   24.2670  -30.4370 C   0  0  0  0  0  0  0  0  0  0  0  0
   -4.6320   23.2990  -31.3040 C   0  0  0  0  0  0  0  0  0  0  0  0
   -4.4750   21.9370  -31.0160 C   0  0  0  0  0  0  0  0  0  0  0  0
   -5.0320   20.9130  -31.9220 C   0  0  0  0  0  0  0  0  0  0  0  0
   -4.1730   20.0190  -32.5940 C   0  0  0  0  0  0  0  0  0  0  0  0
   -4.7040   19.0080  -33.4380 C   0  0  0  0  0  0  0  0  0  0  0  0
   -3.8200   18.0530  -34.1530 C   0  0  0  0  0  0  0  0  0  0  0  0
   -2.4210   18.1840  -34.0540 C   0  0  0  0  0  0  0  0  0  0  0  0
   -1.5750   17.2970  -34.7280 C   0  0  0  0  0  0  0  0  0  0  0  0
   -2.1140   16.2750  -35.5120 C   0  0  0  0  0  0  0  0  0  0  0  0
   -3.4980   16.1410  -35.6300 C   0  0  0  0  0  0  0  0  0  0  0  0
   -4.3490   17.0250  -34.9590 C   0  0  0  0  0  0  0  0  0  0  0  0
   -6.0580   18.9200  -33.6140 N   0  0  0  0  0  0  0  0  0  0  0  0
   -6.8800   19.7840  -32.9720 C   0  0  0  0  0  0  0  0  0  0  0  0
   -8.2170   19.8280  -33.0940 N   0  0  0  0  0  0  0  0  0  0  0  0
   -8.6190   20.8730  -32.3370 C   0  0  0  0  0  0  0  0  0  0  0  0
   -7.5240   21.4810  -31.7360 C   0  0  0  0  0  0  0  0  0  0  0  0
   -7.5690   22.6790  -30.9380 C   0  0  0  0  0  0  0  0  0  0  0  0
   -7.6070   23.6420  -30.2970 N   0  0  0  0  0  0  0  0  0  0  0  0
   -6.4080   20.7680  -32.1450 C   0  0  0  0  0  0  0  0  0  0  0  0
   -3.8260   21.5550  -29.8340 C   0  0  0  0  0  0  0  0  0  0  0  0
   -3.3120   22.5220  -28.9650 C   0  0  0  0  0  0  0  0  0  0  0  0
   -1.4463   25.4162  -25.8410 H   0  0  0  0  0  0  0  0  0  0  0  0
   -0.6580   23.8934  -26.3760 H   0  0  0  0  0  0  0  0  0  0  0  0
    0.2684   25.4324  -26.3760 H   0  0  0  0  0  0  0  0  0  0  0  0
   -3.6050   25.5360  -27.8910 H   0  0  0  0  0  0  0  0  0  0  0  0
   -4.2411   25.3335  -30.6766 H   0  0  0  0  0  0  0  0  0  0  0  0
   -5.1623   23.6079  -32.2169 H   0  0  0  0  0  0  0  0  0  0  0  0
   -3.0842   20.1054  -32.4635 H   0  0  0  0  0  0  0  0  0  0  0  0
   -1.9904   18.9901  -33.4419 H   0  0  0  0  0  0  0  0  0  0  0  0
   -0.4838   17.4048  -34.6403 H   0  0  0  0  0  0  0  0  0  0  0  0
   -1.4473   15.5751  -36.0369 H   0  0  0  0  0  0  0  0  0  0  0  0
   -3.9206   15.3383  -36.2522 H   0  0  0  0  0  0  0  0  0  0  0  0
   -5.4389   16.9172  -35.0610 H   0  0  0  0  0  0  0  0  0  0  0  0
   -8.8190   19.2040  -33.6760 H   0  0  0  0  0  0  0  0  0  0  0  0
   -9.6634   21.1958  -32.2144 H   0  0  0  0  0  0  0  0  0  0  0  0
   -3.7204   20.4879  -29.5886 H   0  0  0  0  0  0  0  0  0  0  0  0
   -2.7997   22.2110  -28.0426 H   0  0  0  0  0  0  0  0  0  0  0  0
  1  2  1  0
  2  3  2  0
  2  4  2  0
  2  5  1  0
  5  6  1  0
  6  7  2  0
  7  8  1  0
  8  9  2  0
  9 10  1  0
 10 11  2  0
 11 12  1  0
 12 13  1  0
 13 14  2  0
 14 15  1  0
 15 16  2  0
 16 17  1  0
 17 18  2  0
 12 19  2  0
 19 20  1  0
 20 21  1  0
 21 22  1  0
 22 23  2  0
 23 24  1  0
 24 25  3  0
 23 26  1  0
  9 27  1  0
 27 28  2  0
 28  6  1  0
 26 10  1  0
 18 13  1  0
 26 20  2  0
  1 29  1  0
  1 30  1  0
  1 31  1  0
  5 32  1  0
  7 33  1  0
  8 34  1  0
 11 35  1  0
 14 36  1  0
 15 37  1  0
 16 38  1  0
 17 39  1  0
 18 40  1  0
 21 41  1  0
 22 42  1  0
 27 43  1  0
 28 44  1  0
M  END
>  <UniqueID>  (28) 
24

>  <SMILES>  (28) 
CS(=O)(=O)Nc1ccc(-c2cc(-c3ccccc3)nc3[nH]cc(C#N)c23)cc1

>  <Energy>  (28) 
92.90098459088189

>  <Genealogy>  (28) 
CS(=O)(=O)Nc1ccc(-c2cc(-c3ccccc3)nc3[nH]cc(C#N)c23)cc1 (3D coordinates assigned)
CS(=O)(=O)Nc1ccc(-c2cc(-c3ccccc3)nc3[nH]cc(C#N)c23)cc1 (optimized conformer: 92.90098459088189 kcal/mol)

>  <smiles>  (28) 
CS(=O)(=O)Nc1ccc(-c2cc(-c3ccccc3)nc3[nH]cc(C#N)c23)cc1

>  <score_type>  (28) 
oracle

>  <origin>  (28) 
adgpu

>  <m_score__min__energy>  (28) 
-9.2799999999999994

>  <m_primary>  (28) 
energy

$$$$
28:0
     RDKit          3D

 40 42  0  0  0  0  0  0  0  0999 V2000
   -9.4470   18.6140  -32.3210 C   0  0  0  0  0  0  0  0  0  0  0  0
   -9.2200   19.9500  -32.7590 O   0  0  0  0  0  0  0  0  0  0  0  0
   -8.1970   20.7800  -32.2730 C   0  0  0  0  0  0  0  0  0  0  0  0
   -8.5180   21.7220  -31.2910 C   0  0  0  0  0  0  0  0  0  0  0  0
   -7.5360   22.5730  -30.7750 C   0  0  0  0  0  0  0  0  0  0  0  0
   -6.2100   22.4940  -31.2330 C   0  0  0  0  0  0  0  0  0  0  0  0
   -5.1800   23.4040  -30.6750 C   0  0  0  0  0  0  0  0  0  0  0  0
   -4.4160   23.2230  -29.5380 C   0  0  0  0  0  0  0  0  0  0  0  0
   -3.6270   24.3110  -29.4300 N   0  0  0  0  0  0  0  0  0  0  0  0
   -2.6550   24.6060  -28.4060 C   0  0  0  0  0  0  0  0  0  0  0  0
   -3.0820   24.9010  -27.1000 C   0  0  0  0  0  0  0  0  0  0  0  0
   -2.1580   25.1890  -26.0970 C   0  0  0  0  0  0  0  0  0  0  0  0
   -0.7790   25.1930  -26.3760 C   0  0  0  0  0  0  0  0  0  0  0  0
    0.1800   25.4760  -25.3910 O   0  0  0  0  0  0  0  0  0  0  0  0
   -0.1150   26.0370  -24.1140 C   0  0  0  0  0  0  0  0  0  0  0  0
   -0.3370   24.9070  -27.6750 C   0  0  0  0  0  0  0  0  0  0  0  0
    1.0450   24.9230  -27.9240 O   0  0  0  0  0  0  0  0  0  0  0  0
    1.9960   24.0950  -27.2630 C   0  0  0  0  0  0  0  0  0  0  0  0
   -1.2760   24.6160  -28.6850 C   0  0  0  0  0  0  0  0  0  0  0  0
   -3.8990   25.1150  -30.4480 N   0  0  0  0  0  0  0  0  0  0  0  0
   -4.8380   24.5890  -31.2210 N   0  0  0  0  0  0  0  0  0  0  0  0
   -5.8890   21.5470  -32.2210 C   0  0  0  0  0  0  0  0  0  0  0  0
   -6.8730   20.6970  -32.7380 C   0  0  0  0  0  0  0  0  0  0  0  0
   -9.4520   18.5845  -31.2214 H   0  0  0  0  0  0  0  0  0  0  0  0
  -10.4176   18.2633  -32.7016 H   0  0  0  0  0  0  0  0  0  0  0  0
   -8.6467   17.9624  -32.7016 H   0  0  0  0  0  0  0  0  0  0  0  0
   -9.5515   21.7942  -30.9214 H   0  0  0  0  0  0  0  0  0  0  0  0
   -7.8037   23.3105  -30.0040 H   0  0  0  0  0  0  0  0  0  0  0  0
   -4.4456   22.3610  -28.8553 H   0  0  0  0  0  0  0  0  0  0  0  0
   -4.1570   24.9047  -26.8668 H   0  0  0  0  0  0  0  0  0  0  0  0
   -2.5096   25.4149  -25.0795 H   0  0  0  0  0  0  0  0  0  0  0  0
    0.2415   25.3591  -23.3245 H   0  0  0  0  0  0  0  0  0  0  0  0
    0.3879   27.0104  -24.0161 H   0  0  0  0  0  0  0  0  0  0  0  0
   -1.2020   26.1744  -24.0161 H   0  0  0  0  0  0  0  0  0  0  0  0
    1.8778   24.1979  -26.1742 H   0  0  0  0  0  0  0  0  0  0  0  0
    1.8327   23.0463  -27.5520 H   0  0  0  0  0  0  0  0  0  0  0  0
    3.0123   24.4010  -27.5520 H   0  0  0  0  0  0  0  0  0  0  0  0
   -0.9264   24.3939  -29.7040 H   0  0  0  0  0  0  0  0  0  0  0  0
   -4.8556   21.4735  -32.5908 H   0  0  0  0  0  0  0  0  0  0  0  0
   -6.6094   19.9607  -33.5116 H   0  0  0  0  0  0  0  0  0  0  0  0
  1  2  1  0
  2  3  1  0
  3  4  2  0
  4  5  1  0
  5  6  2  0
  6  7  1  0
  7  8  2  0
  8  9  1  0
  9 10  1  0
 10 11  2  0
 11 12  1  0
 12 13  2  0
 13 14  1  0
 14 15  1  0
 13 16  1  0
 16 17  1  0
 17 18  1  0
 16 19  2  0
  9 20  1  0
 20 21  2  0
  6 22  1  0
 22 23  2  0
 23  3  1  0
 21  7  1  0
 19 10  1  0
  1 24  1  0
  1 25  1  0
  1 26  1  0
  4 27  1  0
  5 28  1  0
  8 29  1  0
 11 30  1  0
 12 31  1  0
 15 32  1  0
 15 33  1  0
 15 34  1  0
 18 35  1  0
 18 36  1  0
 18 37  1  0
 19 38  1  0
 22 39  1  0
 23 40  1  0
M  END
>  <UniqueID>  (29) 
25

>  <SMILES>  (29) 
COc1ccc(-c2cn(-c3ccc(OC)c(OC)c3)nn2)cc1

>  <Energy>  (29) 
79.45984834139689

>  <Genealogy>  (29) 
COc1ccc(-c2cn(-c3ccc(OC)c(OC)c3)nn2)cc1 (3D coordinates assigned)
COc1ccc(-c2cn(-c3ccc(OC)c(OC)c3)nn2)cc1 (optimized conformer: 79.45984834139689 kcal/mol)

>  <smiles>  (29) 
COc1ccc(-c2cn(-c3ccc(OC)c(OC)c3)nn2)cc1

>  <score_type>  (29) 
oracle

>  <origin>  (29) 
adgpu

>  <m_score__min__energy>  (29) 
-7.8099999999999996

>  <m_primary>  (29) 
energy

$$$$
29:0
     RDKit          3D

 16 15  0  0  0  0  0  0  0  0999 V2000
   -6.2220   24.1260  -31.4240 C   0  0  0  0  0  0  0  0  0  0  0  0
   -5.8970   25.2980  -30.5060 C   0  0  0  0  0  0  0  0  0  0  0  0
   -4.4720   25.6360  -30.6020 N   0  0  0  0  0  0  0  0  0  0  0  0
   -3.4770   24.3940  -29.8940 S   0  0  0  0  0  0  0  0  0  0  0  0
   -4.3710   23.5420  -28.6100 C   0  0  0  0  0  0  0  0  0  0  0  0
   -2.2220   24.9910  -29.3170 O   0  0  0  0  0  0  0  0  0  0  0  0
   -3.1010   23.4050  -30.9600 O   0  0  0  0  0  0  0  0  0  0  0  0
   -6.4672   23.2419  -30.8171 H   0  0  0  0  0  0  0  0  0  0  0  0
   -7.0822   24.3850  -32.0588 H   0  0  0  0  0  0  0  0  0  0  0  0
   -5.3512   23.9050  -32.0588 H   0  0  0  0  0  0  0  0  0  0  0  0
   -6.4982   26.1700  -30.8030 H   0  0  0  0  0  0  0  0  0  0  0  0
   -6.1305   25.0172  -29.4684 H   0  0  0  0  0  0  0  0  0  0  0  0
   -4.2130   25.6800  -31.6150 H   0  0  0  0  0  0  0  0  0  0  0  0
   -4.0139   23.8823  -27.6268 H   0  0  0  0  0  0  0  0  0  0  0  0
   -5.4452   23.7590  -28.7052 H   0  0  0  0  0  0  0  0  0  0  0  0
   -4.2059   22.4586  -28.7052 H   0  0  0  0  0  0  0  0  0  0  0  0
  1  2  1  0
  2  3  1  0
  3  4  1  0
  4  5  1  0
  4  6  2  0
  4  7  2  0
  1  8  1  0
  1  9  1  0
  1 10  1  0
  2 11  1  0
  2 12  1  0
  3 13  1  0
  5 14  1  0
  5 15  1  0
  5 16  1  0
M  END
>  <UniqueID>  (30) 
26

>  <SMILES>  (30) 
CCNS(C)(=O)=O

>  <Energy>  (30) 
3.732531783891027

>  <Genealogy>  (30) 
CCNS(C)(=O)=O (3D coordinates assigned)
CCNS(C)(=O)=O (optimized conformer: 3.732531783891027 kcal/mol)

>  <smiles>  (30) 
CCNS(C)(=O)=O

>  <score_type>  (30) 
oracle

>  <origin>  (30) 
adgpu

>  <m_score__min__energy>  (30) 
-4.3399999999999999

>  <m_primary>  (30) 
energy

$$$$
30:0
     RDKit          3D

 42 44  0  0  0  0  0  0  0  0999 V2000
   -4.9690   26.2700  -31.2330 H   0  0  0  0  0  0  0  0  0  0  0  0
   -4.2040   25.6670  -30.8560 N   0  0  0  0  0  0  0  0  0  0  0  0
   -4.3410   24.3850  -30.7550 C   0  0  0  0  0  0  0  0  0  0  0  0
   -5.4970   23.7870  -31.1430 N   0  0  0  0  0  0  0  0  0  0  0  0
   -5.6680   22.4400  -31.0480 C   0  0  0  0  0  0  0  0  0  0  0  0
   -6.9490   21.8370  -31.4950 C   0  0  0  0  0  0  0  0  0  0  0  0
   -8.1510   22.5430  -31.3230 C   0  0  0  0  0  0  0  0  0  0  0  0
   -8.1360   23.5421  -30.8630 H   0  0  0  0  0  0  0  0  0  0  0  0
   -9.3640   21.9870  -31.7310 C   0  0  0  0  0  0  0  0  0  0  0  0
  -10.2981   22.5517  -31.5948 H   0  0  0  0  0  0  0  0  0  0  0  0
   -9.3980   20.7180  -32.3110 C   0  0  0  0  0  0  0  0  0  0  0  0
  -10.3587   20.2880  -32.6306 H   0  0  0  0  0  0  0  0  0  0  0  0
   -8.2100   19.9860  -32.4890 C   0  0  0  0  0  0  0  0  0  0  0  0
   -8.2040   18.6690  -33.0690 N   0  0  0  0  0  0  0  0  0  0  0  0
   -9.0850   18.3020  -33.4950 H   0  0  0  0  0  0  0  0  0  0  0  0
   -6.8570   17.5750  -33.0190 S   0  0  0  0  0  0  0  0  0  0  0  0
   -7.2430   16.2510  -33.6150 O   0  0  0  0  0  0  0  0  0  0  0  0
   -6.4600   17.3600  -31.5860 O   0  0  0  0  0  0  0  0  0  0  0  0
   -5.4680   18.2700  -33.8900 C   0  0  0  0  0  0  0  0  0  0  0  0
   -4.7283   18.6401  -33.1648 H   0  0  0  0  0  0  0  0  0  0  0  0
   -5.0069   17.4964  -34.5216 H   0  0  0  0  0  0  0  0  0  0  0  0
   -5.8107   19.1028  -34.5216 H   0  0  0  0  0  0  0  0  0  0  0  0
   -6.9930   20.5520  -32.0690 C   0  0  0  0  0  0  0  0  0  0  0  0
   -6.0604   19.9816  -32.1909 H   0  0  0  0  0  0  0  0  0  0  0  0
   -4.6160   21.6550  -30.5480 C   0  0  0  0  0  0  0  0  0  0  0  0
   -4.7212   20.5624  -30.4762 H   0  0  0  0  0  0  0  0  0  0  0  0
   -3.4280   22.2840  -30.1410 C   0  0  0  0  0  0  0  0  0  0  0  0
   -2.3150   21.5270  -29.6160 N   0  0  0  0  0  0  0  0  0  0  0  0
   -1.0890   21.3360  -30.4040 C   0  0  0  0  0  0  0  0  0  0  0  0
   -1.3502   21.2665  -31.4703 H   0  0  0  0  0  0  0  0  0  0  0  0
   -0.4184   22.1914  -30.2351 H   0  0  0  0  0  0  0  0  0  0  0  0
   -0.3750   20.0510  -29.9740 C   0  0  0  0  0  0  0  0  0  0  0  0
   -0.9785   19.1839  -30.2804 H   0  0  0  0  0  0  0  0  0  0  0  0
    0.6137   20.0206  -30.4553 H   0  0  0  0  0  0  0  0  0  0  0  0
   -0.1960   20.0180  -28.5730 O   0  0  0  0  0  0  0  0  0  0  0  0
   -1.4570   19.9430  -27.9380 C   0  0  0  0  0  0  0  0  0  0  0  0
   -2.0133   19.0838  -28.3409 H   0  0  0  0  0  0  0  0  0  0  0  0
   -1.3005   19.8240  -26.8557 H   0  0  0  0  0  0  0  0  0  0  0  0
   -2.2640   21.2220  -28.1800 C   0  0  0  0  0  0  0  0  0  0  0  0
   -3.2875   21.0826  -27.8018 H   0  0  0  0  0  0  0  0  0  0  0  0
   -1.7788   22.0570  -27.6533 H   0  0  0  0  0  0  0  0  0  0  0  0
   -3.3240   23.6350  -30.2610 N   0  0  0  0  0  0  0  0  0  0  0  0
  1  2  1  0
  2  3  2  0
  3  4  1  0
  4  5  2  0
  5  6  1  0
  6  7  2  0
  7  8  1  0
  7  9  1  0
  9 10  1  0
  9 11  2  0
 11 12  1  0
 11 13  1  0
 13 14  1  0
 14 15  1  0
 14 16  1  0
 16 17  2  0
 16 18  2  0
 16 19  1  0
 19 20  1  0
 19 21  1  0
 19 22  1  0
 13 23  2  0
 23 24  1  0
  5 25  1  0
 25 26  1  0
 25 27  2  0
 27 28  1  0
 28 29  1  0
 29 30  1  0
 29 31  1  0
 29 32  1  0
 32 33  1  0
 32 34  1  0
 32 35  1  0
 35 36  1  0
 36 37  1  0
 36 38  1  0
 36 39  1  0
 39 40  1  0
 39 41  1  0
 27 42  1  0
 42  3  1  0
 23  6  1  0
 39 28  1  0
M  CHG  1  42  -1
M  END
>  <UniqueID>  (31) 
27

>  <SMILES>  (31) 
[H]/N=c1\nc(-c2cccc(NS(C)(=O)=O)c2)cc(N2CCOCC2)[n-]1

>  <Energy>  (31) 
50.5145325368319

>  <Genealogy>  (31) 
CS(=O)(=O)Nc1cccc(-c2cc(N3CCOCC3)[n-]c(=N)n2)c1 (protonated)
[H]/N=c1\nc(-c2cccc(NS(C)(=O)=O)c2)cc(N2CCOCC2)[n-]1 (cis-trans isomerization)
[H]/N=c1\nc(-c2cccc(NS(C)(=O)=O)c2)cc(N2CCOCC2)[n-]1 (3D coordinates assigned)
[H]/N=c1\nc(-c2cccc(NS(C)(=O)=O)c2)cc(N2CCOCC2)[n-]1 (nonaromatic ring conformer: 50.5145325368319 kcal/mol)

>  <smiles>  (31) 
CS(=O)(=O)Nc1cccc(-c2cc(N3CCOCC3)[nH]c(=N)n2)c1

>  <score_type>  (31) 
oracle

>  <origin>  (31) 
adgpu

>  <m_score__min__energy>  (31) 
-9.6699999999999999

>  <m_primary>  (31) 
energy

$$$$
31:0
     RDKit          3D

 34 36  0  0  0  0  0  0  0  0999 V2000
   -6.4750   17.1470  -33.8490 C   0  0  0  0  0  0  0  0  0  0  0  0
   -6.7780   18.4850  -33.2450 C   0  0  0  0  0  0  0  0  0  0  0  0
   -7.6850   18.5900  -32.1790 C   0  0  0  0  0  0  0  0  0  0  0  0
   -7.9220   19.8280  -31.5740 C   0  0  0  0  0  0  0  0  0  0  0  0
   -7.2420   20.9710  -32.0170 C   0  0  0  0  0  0  0  0  0  0  0  0
   -7.5050   22.5170  -31.2180 S   0  0  0  0  0  0  0  0  0  0  0  0
   -8.0610   22.2980  -29.8380 O   0  0  0  0  0  0  0  0  0  0  0  0
   -8.4880   23.3270  -32.0150 O   0  0  0  0  0  0  0  0  0  0  0  0
   -6.0110   23.3870  -31.1030 N   0  0  0  0  0  0  0  0  0  0  0  0
   -5.8880   24.6830  -31.3190 N   0  0  0  0  0  0  0  0  0  0  0  0
   -4.6080   25.0080  -31.2160 N   0  0  0  0  0  0  0  0  0  0  0  0
   -3.8840   23.9310  -30.9360 N   0  0  0  0  0  0  0  0  0  0  0  0
   -4.7720   22.9220  -30.8730 C   0  0  0  0  0  0  0  0  0  0  0  0
   -4.3200   21.2290  -30.4810 S   0  0  0  0  0  0  0  0  0  0  0  0
   -2.9140   21.2100  -31.5930 C   0  0  0  0  0  0  0  0  0  0  0  0
   -3.1020   21.1300  -32.9790 C   0  0  0  0  0  0  0  0  0  0  0  0
   -1.9970   21.0990  -33.8360 C   0  0  0  0  0  0  0  0  0  0  0  0
   -0.7020   21.1700  -33.3110 C   0  0  0  0  0  0  0  0  0  0  0  0
    0.6860   21.1130  -34.3820 Cl  0  0  0  0  0  0  0  0  0  0  0  0
   -0.5140   21.2850  -31.9290 C   0  0  0  0  0  0  0  0  0  0  0  0
   -1.6170   21.3050  -31.0730 C   0  0  0  0  0  0  0  0  0  0  0  0
   -6.3350   20.8670  -33.0820 C   0  0  0  0  0  0  0  0  0  0  0  0
   -6.0980   19.6290  -33.6860 C   0  0  0  0  0  0  0  0  0  0  0  0
   -6.3086   16.4121  -33.0476 H   0  0  0  0  0  0  0  0  0  0  0  0
   -7.3230   16.8251  -34.4713 H   0  0  0  0  0  0  0  0  0  0  0  0
   -5.5711   17.2219  -34.4713 H   0  0  0  0  0  0  0  0  0  0  0  0
   -8.2117   17.6943  -31.8180 H   0  0  0  0  0  0  0  0  0  0  0  0
   -8.6442   19.9053  -30.7479 H   0  0  0  0  0  0  0  0  0  0  0  0
   -4.1200   21.0915  -33.3939 H   0  0  0  0  0  0  0  0  0  0  0  0
   -2.1461   21.0188  -34.9229 H   0  0  0  0  0  0  0  0  0  0  0  0
    0.5031   21.3597  -31.5169 H   0  0  0  0  0  0  0  0  0  0  0  0
   -1.4668   21.3956  -29.9871 H   0  0  0  0  0  0  0  0  0  0  0  0
   -5.8085   21.7628  -33.4430 H   0  0  0  0  0  0  0  0  0  0  0  0
   -5.3747   19.5519  -34.5111 H   0  0  0  0  0  0  0  0  0  0  0  0
  1  2  1  0
  2  3  2  0
  3  4  1  0
  4  5  2  0
  5  6  1  0
  6  7  2  0
  6  8  2  0
  6  9  1  0
  9 10  1  0
 10 11  2  0
 11 12  1  0
 12 13  2  0
 13 14  1  0
 14 15  1  0
 15 16  2  0
 16 17  1  0
 17 18  2  0
 18 19  1  0
 18 20  1  0
 20 21  2  0
  5 22  1  0
 22 23  2  0
 23  2  1  0
 13  9  1  0
 21 15  1  0
  1 24  1  0
  1 25  1  0
  1 26  1  0
  3 27  1  0
  4 28  1  0
 16 29  1  0
 17 30  1  0
 20 31  1  0
 21 32  1  0
 22 33  1  0
 23 34  1  0
M  END
>  <UniqueID>  (32) 
28

>  <SMILES>  (32) 
Cc1ccc(S(=O)(=O)n2nnnc2Sc2ccc(Cl)cc2)cc1

>  <Energy>  (32) 
70.94838243229529

>  <Genealogy>  (32) 
Cc1ccc(S(=O)(=O)n2nnnc2Sc2ccc(Cl)cc2)cc1 (3D coordinates assigned)
Cc1ccc(S(=O)(=O)n2nnnc2Sc2ccc(Cl)cc2)cc1 (optimized conformer: 70.94838243229529 kcal/mol)

>  <smiles>  (32) 
Cc1ccc(S(=O)(=O)n2nnnc2Sc2ccc(Cl)cc2)cc1

>  <score_type>  (32) 
oracle

>  <origin>  (32) 
adgpu

>  <m_score__min__energy>  (32) 
-9.4000000000000004

>  <m_primary>  (32) 
energy

$$$$
32:0
     RDKit          3D

 57 61  0  0  0  0  0  0  0  0999 V2000
    0.1920   26.2230  -27.2860 N   0  0  0  0  0  0  0  0  0  0  0  0
   -1.1160   25.6390  -27.2270 C   0  0  0  0  0  0  0  0  0  0  0  0
   -1.8120   25.6030  -26.0110 C   0  0  0  0  0  0  0  0  0  0  0  0
   -3.0820   25.0270  -25.9450 C   0  0  0  0  0  0  0  0  0  0  0  0
   -3.6670   24.4850  -27.0930 C   0  0  0  0  0  0  0  0  0  0  0  0
   -2.9920   24.5340  -28.3270 C   0  0  0  0  0  0  0  0  0  0  0  0
   -3.5610   23.9450  -29.5110 N   0  0  0  0  0  0  0  0  0  0  0  0
   -4.2680   24.6970  -30.5140 C   0  0  0  0  0  0  0  0  0  0  0  0
   -4.2850   25.9560  -30.4750 O   0  0  0  0  0  0  0  0  0  0  0  0
   -5.0120   24.0340  -31.5400 N   0  0  0  0  0  0  0  0  0  0  0  0
   -5.1910   22.6190  -31.6890 C   0  0  0  0  0  0  0  0  0  0  0  0
   -6.4450   22.0720  -31.4050 C   0  0  0  0  0  0  0  0  0  0  0  0
   -6.6950   20.7190  -31.6230 C   0  0  0  0  0  0  0  0  0  0  0  0
   -5.6950   19.8920  -32.1560 C   0  0  0  0  0  0  0  0  0  0  0  0
   -5.9670   18.5410  -32.4150 C   0  0  0  0  0  0  0  0  0  0  0  0
   -4.9920   17.7220  -32.9860 C   0  0  0  0  0  0  0  0  0  0  0  0
   -3.7290   18.2340  -33.2810 C   0  0  0  0  0  0  0  0  0  0  0  0
   -3.4200   19.5760  -33.0090 C   0  0  0  0  0  0  0  0  0  0  0  0
   -2.0420   20.0390  -33.2810 C   0  0  0  0  0  0  0  0  0  0  0  0
   -1.5460   20.0040  -34.5940 C   0  0  0  0  0  0  0  0  0  0  0  0
   -0.2390   20.4130  -34.8650 C   0  0  0  0  0  0  0  0  0  0  0  0
    0.5850   20.8500  -33.8260 C   0  0  0  0  0  0  0  0  0  0  0  0
    0.1060   20.8740  -32.5120 C   0  0  0  0  0  0  0  0  0  0  0  0
   -1.2070   20.4570  -32.2240 C   0  0  0  0  0  0  0  0  0  0  0  0
   -1.7400   20.5060  -30.8900 N   0  0  0  0  0  0  0  0  0  0  0  0
   -1.5580   21.5420  -29.9180 C   0  0  0  0  0  0  0  0  0  0  0  0
   -1.3470   22.7300  -30.2890 O   0  0  0  0  0  0  0  0  0  0  0  0
   -1.5700   21.2050  -28.4740 C   0  0  0  0  0  0  0  0  0  0  0  0
   -0.7680   21.9210  -27.5670 C   0  0  0  0  0  0  0  0  0  0  0  0
   -0.7940   21.5890  -26.2110 C   0  0  0  0  0  0  0  0  0  0  0  0
   -1.5930   20.5840  -25.7670 N   0  0  0  0  0  0  0  0  0  0  0  0
   -2.3770   19.8690  -26.6190 C   0  0  0  0  0  0  0  0  0  0  0  0
   -3.3820   18.5750  -25.9960 Cl  0  0  0  0  0  0  0  0  0  0  0  0
   -2.3790   20.1650  -27.9860 C   0  0  0  0  0  0  0  0  0  0  0  0
   -4.4140   20.4270  -32.4540 C   0  0  0  0  0  0  0  0  0  0  0  0
   -4.1770   21.7990  -32.2200 C   0  0  0  0  0  0  0  0  0  0  0  0
   -1.7090   25.1020  -28.3820 C   0  0  0  0  0  0  0  0  0  0  0  0
   -1.0440   25.1440  -29.5620 F   0  0  0  0  0  0  0  0  0  0  0  0
    0.8280   26.0210  -28.0890 H   0  0  0  0  0  0  0  0  0  0  0  0
    0.5420   26.8390  -26.5200 H   0  0  0  0  0  0  0  0  0  0  0  0
   -1.3561   26.0300  -25.1056 H   0  0  0  0  0  0  0  0  0  0  0  0
   -3.6233   24.9996  -24.9878 H   0  0  0  0  0  0  0  0  0  0  0  0
   -4.6608   24.0174  -27.0316 H   0  0  0  0  0  0  0  0  0  0  0  0
   -3.4240   22.9210  -29.6600 H   0  0  0  0  0  0  0  0  0  0  0  0
   -7.2424   22.7159  -31.0055 H   0  0  0  0  0  0  0  0  0  0  0  0
   -7.6806   20.2974  -31.3762 H   0  0  0  0  0  0  0  0  0  0  0  0
   -6.9544   18.1245  -32.1667 H   0  0  0  0  0  0  0  0  0  0  0  0
   -5.2207   16.6684  -33.2042 H   0  0  0  0  0  0  0  0  0  0  0  0
   -2.9676   17.5801  -33.7311 H   0  0  0  0  0  0  0  0  0  0  0  0
   -2.1904   19.6526  -35.4133 H   0  0  0  0  0  0  0  0  0  0  0  0
    0.1416   20.3910  -35.8968 H   0  0  0  0  0  0  0  0  0  0  0  0
    1.6132   21.1762  -34.0413 H   0  0  0  0  0  0  0  0  0  0  0  0
    0.7599   21.2211  -31.6984 H   0  0  0  0  0  0  0  0  0  0  0  0
   -0.1238   22.7381  -27.9240 H   0  0  0  0  0  0  0  0  0  0  0  0
   -0.1648   22.1436  -25.4992 H   0  0  0  0  0  0  0  0  0  0  0  0
   -3.0109   19.5863  -28.6758 H   0  0  0  0  0  0  0  0  0  0  0  0
   -3.1927   22.2306  -32.4543 H   0  0  0  0  0  0  0  0  0  0  0  0
  1  2  1  0
  2  3  2  0
  3  4  1  0
  4  5  2  0
  5  6  1  0
  6  7  1  0
  7  8  1  0
  8  9  2  0
  8 10  1  0
 10 11  1  0
 11 12  2  0
 12 13  1  0
 13 14  2  0
 14 15  1  0
 15 16  2  0
 16 17  1  0
 17 18  2  0
 18 19  1  0
 19 20  2  0
 20 21  1  0
 21 22  2  0
 22 23  1  0
 23 24  2  0
 24 25  1  0
 25 26  1  0
 26 27  2  0
 26 28  1  0
 28 29  2  0
 29 30  1  0
 30 31  2  0
 31 32  1  0
 32 33  1  0
 32 34  2  0
 18 35  1  0
 35 36  2  0
  6 37  2  0
 37 38  1  0
 37  2  1  0
 36 11  1  0
 35 14  1  0
 24 19  1  0
 34 28  1  0
  1 39  1  0
  1 40  1  0
  3 41  1  0
  4 42  1  0
  5 43  1  0
  7 44  1  0
 12 45  1  0
 13 46  1  0
 15 47  1  0
 16 48  1  0
 17 49  1  0
 20 50  1  0
 21 51  1  0
 22 52  1  0
 23 53  1  0
 29 54  1  0
 30 55  1  0
 34 56  1  0
 36 57  1  0
M  CHG  2  10  -1  25  -1
M  END
>  <UniqueID>  (33) 
29

>  <SMILES>  (33) 
Nc1cccc(NC(=O)[N-]c2ccc3cccc(-c4ccccc4[N-]C(=O)c4ccnc(Cl)c4)c3c2)c1F

>  <Energy>  (33) 
85.33461770054852

>  <Genealogy>  (33) 
Nc1cccc(NC(=O)[N-]c2ccc3cccc(-c4ccccc4[N-]C(=O)c4ccnc(Cl)c4)c3c2)c1F (protonated)
Nc1cccc(NC(=O)[N-]c2ccc3cccc(-c4ccccc4[N-]C(=O)c4ccnc(Cl)c4)c3c2)c1F (3D coordinates assigned)
Nc1cccc(NC(=O)[N-]c2ccc3cccc(-c4ccccc4[N-]C(=O)c4ccnc(Cl)c4)c3c2)c1F (optimized conformer: 85.33461770054852 kcal/mol)

>  <smiles>  (33) 
Nc1cccc(NC(=O)Nc2ccc3cccc(-c4ccccc4NC(=O)c4ccnc(Cl)c4)c3c2)c1F

>  <score_type>  (33) 
oracle

>  <origin>  (33) 
adgpu

>  <m_score__min__energy>  (33) 
-12

>  <m_primary>  (33) 
energy

$$$$
33:0
     RDKit          3D

 53 56  0  0  0  0  0  0  0  0999 V2000
   -0.5270   25.3140  -24.7180 C   0  0  0  0  0  0  0  0  0  0  0  0
   -0.5480   24.9030  -26.1690 C   0  0  0  0  0  0  0  0  0  0  0  0
    0.6670   24.5680  -26.7900 C   0  0  0  0  0  0  0  0  0  0  0  0
    0.6960   24.1760  -28.1260 C   0  0  0  0  0  0  0  0  0  0  0  0
   -0.4850   24.1000  -28.8580 C   0  0  0  0  0  0  0  0  0  0  0  0
   -1.7140   24.4350  -28.2710 C   0  0  0  0  0  0  0  0  0  0  0  0
   -2.9180   24.2900  -29.0420 N   0  0  0  0  0  0  0  0  0  0  0  0
   -3.4890   25.2790  -29.7180 N   0  0  0  0  0  0  0  0  0  0  0  0
   -4.6110   24.7960  -30.2980 C   0  0  0  0  0  0  0  0  0  0  0  0
   -5.5240   25.6230  -31.1410 C   0  0  0  0  0  0  0  0  0  0  0  0
   -4.7570   23.4570  -29.9590 C   0  0  0  0  0  0  0  0  0  0  0  0
   -5.7750   22.5300  -30.3480 N   0  0  0  0  0  0  0  0  0  0  0  0
   -6.4660   22.6940  -31.4030 N   0  0  0  0  0  0  0  0  0  0  0  0
   -7.4790   21.7610  -31.8080 C   0  0  0  0  0  0  0  0  0  0  0  0
   -8.8430   22.0460  -31.6070 C   0  0  0  0  0  0  0  0  0  0  0  0
   -9.8220   21.1140  -31.9590 C   0  0  0  0  0  0  0  0  0  0  0  0
   -9.4530   19.8880  -32.5110 C   0  0  0  0  0  0  0  0  0  0  0  0
   -8.1050   19.5910  -32.7180 C   0  0  0  0  0  0  0  0  0  0  0  0
   -7.1070   20.5190  -32.3700 C   0  0  0  0  0  0  0  0  0  0  0  0
   -5.6850   20.1780  -32.6100 C   0  0  0  0  0  0  0  0  0  0  0  0
   -5.2910   18.9970  -32.4240 O   0  0  0  0  0  0  0  0  0  0  0  0
   -4.7210   21.1760  -32.9730 N   0  0  0  0  0  0  0  0  0  0  0  0
   -3.2950   21.0310  -32.9220 C   0  0  0  0  0  0  0  0  0  0  0  0
   -2.6060   20.1790  -33.8060 C   0  0  0  0  0  0  0  0  0  0  0  0
   -1.2160   20.0490  -33.7170 C   0  0  0  0  0  0  0  0  0  0  0  0
   -0.5080   20.7510  -32.7380 C   0  0  0  0  0  0  0  0  0  0  0  0
   -1.1900   21.5780  -31.8400 C   0  0  0  0  0  0  0  0  0  0  0  0
   -2.5800   21.7100  -31.9270 C   0  0  0  0  0  0  0  0  0  0  0  0
   -3.6710   23.1790  -29.1680 C   0  0  0  0  0  0  0  0  0  0  0  0
   -3.3970   22.0610  -28.6550 O   0  0  0  0  0  0  0  0  0  0  0  0
   -1.7500   24.8800  -26.9240 C   0  0  0  0  0  0  0  0  0  0  0  0
   -3.0620   25.3020  -26.3010 C   0  0  0  0  0  0  0  0  0  0  0  0
   -0.5728   24.4175  -24.0823 H   0  0  0  0  0  0  0  0  0  0  0  0
    0.4005   25.8663  -24.5067 H   0  0  0  0  0  0  0  0  0  0  0  0
   -1.3934   25.9580  -24.5067 H   0  0  0  0  0  0  0  0  0  0  0  0
    1.6039   24.6158  -26.2156 H   0  0  0  0  0  0  0  0  0  0  0  0
    1.6547   23.9259  -28.6038 H   0  0  0  0  0  0  0  0  0  0  0  0
   -0.4544   23.7738  -29.9081 H   0  0  0  0  0  0  0  0  0  0  0  0
   -6.1824   26.2193  -30.4922 H   0  0  0  0  0  0  0  0  0  0  0  0
   -4.9283   26.2952  -31.7760 H   0  0  0  0  0  0  0  0  0  0  0  0
   -6.1342   24.9639  -31.7760 H   0  0  0  0  0  0  0  0  0  0  0  0
   -9.1401   23.0104  -31.1692 H   0  0  0  0  0  0  0  0  0  0  0  0
  -10.8852   21.3475  -31.8005 H   0  0  0  0  0  0  0  0  0  0  0  0
  -10.2253   19.1538  -32.7838 H   0  0  0  0  0  0  0  0  0  0  0  0
   -7.8208   18.6232  -33.1569 H   0  0  0  0  0  0  0  0  0  0  0  0
   -3.1621   19.6141  -34.5686 H   0  0  0  0  0  0  0  0  0  0  0  0
   -0.6796   19.3933  -34.4186 H   0  0  0  0  0  0  0  0  0  0  0  0
    0.5857   20.6531  -32.6737 H   0  0  0  0  0  0  0  0  0  0  0  0
   -0.6333   22.1250  -31.0649 H   0  0  0  0  0  0  0  0  0  0  0  0
   -3.1145   22.3506  -31.2101 H   0  0  0  0  0  0  0  0  0  0  0  0
   -2.9734   25.2735  -25.2049 H   0  0  0  0  0  0  0  0  0  0  0  0
   -3.3084   26.3247  -26.6225 H   0  0  0  0  0  0  0  0  0  0  0  0
   -3.8584   24.6147  -26.6225 H   0  0  0  0  0  0  0  0  0  0  0  0
  1  2  1  0
  2  3  2  0
  3  4  1  0
  4  5  2  0
  5  6  1  0
  6  7  1  0
  7  8  1  0
  8  9  1  0
  9 10  1  0
  9 11  2  0
 11 12  1  0
 12 13  2  3
 13 14  1  0
 14 15  2  0
 15 16  1  0
 16 17  2  0
 17 18  1  0
 18 19  2  0
 19 20  1  0
 20 21  2  0
 20 22  1  0
 22 23  1  0
 23 24  2  0
 24 25  1  0
 25 26  2  0
 26 27  1  0
 27 28  2  0
 11 29  1  0
 29 30  2  0
  6 31  2  0
 31 32  1  0
 31  2  1  0
 29  7  1  0
 19 14  1  0
 28 23  1  0
  1 33  1  0
  1 34  1  0
  1 35  1  0
  3 36  1  0
  4 37  1  0
  5 38  1  0
 10 39  1  0
 10 40  1  0
 10 41  1  0
 15 42  1  0
 16 43  1  0
 17 44  1  0
 18 45  1  0
 24 46  1  0
 25 47  1  0
 26 48  1  0
 27 49  1  0
 28 50  1  0
 32 51  1  0
 32 52  1  0
 32 53  1  0
M  CHG  2   8  -1  22  -1
M  END
>  <UniqueID>  (34) 
30

>  <SMILES>  (34) 
Cc1cccc(-n2[n-]c(C)c(N=Nc3ccccc3C(=O)[N-]c3ccccc3)c2=O)c1C

>  <Energy>  (34) 
106.13594526169406

>  <Genealogy>  (34) 
Cc1cccc(-n2[n-]c(C)c(N=Nc3ccccc3C(=O)[N-]c3ccccc3)c2=O)c1C (protonated)
Cc1cccc(-n2[n-]c(C)c(N=Nc3ccccc3C(=O)[N-]c3ccccc3)c2=O)c1C (3D coordinates assigned)
Cc1cccc(-n2[n-]c(C)c(N=Nc3ccccc3C(=O)[N-]c3ccccc3)c2=O)c1C (optimized conformer: 106.13594526169406 kcal/mol)

>  <smiles>  (34) 
Cc1cccc(-n2[nH]c(C)c(N=Nc3ccccc3C(=O)Nc3ccccc3)c2=O)c1C

>  <score_type>  (34) 
oracle

>  <origin>  (34) 
adgpu

>  <m_score__min__energy>  (34) 
-10.94

>  <m_primary>  (34) 
energy

$$$$
34:0
     RDKit          3D

 40 41  0  0  0  0  0  0  0  0999 V2000
   -6.3490   17.4200  -31.1040 C   0  0  0  0  0  0  0  0  0  0  0  0
   -5.8310   17.0760  -32.4970 C   0  0  0  0  0  0  0  0  0  0  0  0
   -6.4940   17.9490  -33.5680 C   0  0  0  0  0  0  0  0  0  0  0  0
   -6.5740   19.3450  -33.1140 N   0  0  0  0  0  0  0  0  0  0  0  0
   -7.8730   20.0320  -33.0980 C   0  0  0  0  0  0  0  0  0  0  0  0
   -8.5220   19.9390  -31.7170 C   0  0  0  0  0  0  0  0  0  0  0  0
   -9.0830   21.5390  -31.1630 Cl  0  0  0  0  0  0  0  0  0  0  0  0
   -5.3770   20.0580  -32.7460 C   0  0  0  0  0  0  0  0  0  0  0  0
   -4.2010   19.9170  -33.4990 C   0  0  0  0  0  0  0  0  0  0  0  0
   -3.0430   20.6120  -33.1380 C   0  0  0  0  0  0  0  0  0  0  0  0
   -1.5820   20.4370  -34.0920 Cl  0  0  0  0  0  0  0  0  0  0  0  0
   -3.0500   21.4510  -32.0200 C   0  0  0  0  0  0  0  0  0  0  0  0
   -4.2160   21.5980  -31.2560 C   0  0  0  0  0  0  0  0  0  0  0  0
   -4.2270   22.4860  -30.0750 C   0  0  0  0  0  0  0  0  0  0  0  0
   -4.9840   23.6780  -30.0870 C   0  0  0  0  0  0  0  0  0  0  0  0
   -5.9100   24.1710  -31.5020 Cl  0  0  0  0  0  0  0  0  0  0  0  0
   -4.9890   24.5160  -28.9650 C   0  0  0  0  0  0  0  0  0  0  0  0
   -4.2480   24.1790  -27.8280 C   0  0  0  0  0  0  0  0  0  0  0  0
   -4.2500   25.0090  -26.7080 O   0  0  0  0  0  0  0  0  0  0  0  0
   -3.4980   23.0020  -27.8090 C   0  0  0  0  0  0  0  0  0  0  0  0
   -3.4830   22.1540  -28.9230 C   0  0  0  0  0  0  0  0  0  0  0  0
   -2.5490   20.6630  -28.8250 Cl  0  0  0  0  0  0  0  0  0  0  0  0
   -5.3760   20.8980  -31.6200 C   0  0  0  0  0  0  0  0  0  0  0  0
   -5.6846   16.9788  -30.3464 H   0  0  0  0  0  0  0  0  0  0  0  0
   -6.3711   18.5128  -30.9805 H   0  0  0  0  0  0  0  0  0  0  0  0
   -7.3648   17.0164  -30.9805 H   0  0  0  0  0  0  0  0  0  0  0  0
   -4.7434   17.2381  -32.5252 H   0  0  0  0  0  0  0  0  0  0  0  0
   -6.0728   16.0238  -32.7077 H   0  0  0  0  0  0  0  0  0  0  0  0
   -5.9000   17.9021  -34.4926 H   0  0  0  0  0  0  0  0  0  0  0  0
   -7.5118   17.5752  -33.7532 H   0  0  0  0  0  0  0  0  0  0  0  0
   -7.7236   21.0910  -33.3552 H   0  0  0  0  0  0  0  0  0  0  0  0
   -8.5355   19.5485  -33.8311 H   0  0  0  0  0  0  0  0  0  0  0  0
   -9.3819   19.2550  -31.7693 H   0  0  0  0  0  0  0  0  0  0  0  0
   -7.7734   19.5645  -31.0033 H   0  0  0  0  0  0  0  0  0  0  0  0
   -4.1904   19.2559  -34.3781 H   0  0  0  0  0  0  0  0  0  0  0  0
   -2.1377   21.9976  -31.7389 H   0  0  0  0  0  0  0  0  0  0  0  0
   -5.5790   25.4443  -28.9782 H   0  0  0  0  0  0  0  0  0  0  0  0
   -4.5080   25.9870  -26.7740 H   0  0  0  0  0  0  0  0  0  0  0  0
   -2.9154   22.7392  -26.9137 H   0  0  0  0  0  0  0  0  0  0  0  0
   -6.2911   21.0076  -31.0196 H   0  0  0  0  0  0  0  0  0  0  0  0
  1  2  1  0
  2  3  1  0
  3  4  1  0
  4  5  1  0
  5  6  1  0
  6  7  1  0
  4  8  1  0
  8  9  2  0
  9 10  1  0
 10 11  1  0
 10 12  2  0
 12 13  1  0
 13 14  1  0
 14 15  2  0
 15 16  1  0
 15 17  1  0
 17 18  2  0
 18 19  1  0
 18 20  1  0
 20 21  2  0
 21 22  1  0
 13 23  2  0
 23  8  1  0
 21 14  1  0
  1 24  1  0
  1 25  1  0
  1 26  1  0
  2 27  1  0
  2 28  1  0
  3 29  1  0
  3 30  1  0
  5 31  1  0
  5 32  1  0
  6 33  1  0
  6 34  1  0
  9 35  1  0
 12 36  1  0
 17 37  1  0
 19 38  1  0
 20 39  1  0
 23 40  1  0
M  END
>  <UniqueID>  (35) 
31

>  <SMILES>  (35) 
CCCN(CCCl)c1cc(Cl)cc(-c2c(Cl)cc(O)cc2Cl)c1

>  <Energy>  (35) 
43.191529020104966

>  <Genealogy>  (35) 
CCCN(CCCl)c1cc(Cl)cc(-c2c(Cl)cc(O)cc2Cl)c1 (3D coordinates assigned)
CCCN(CCCl)c1cc(Cl)cc(-c2c(Cl)cc(O)cc2Cl)c1 (optimized conformer: 43.191529020104966 kcal/mol)

>  <smiles>  (35) 
CCCN(CCCl)c1cc(Cl)cc(-c2c(Cl)cc(O)cc2Cl)c1

>  <score_type>  (35) 
oracle

>  <origin>  (35) 
adgpu

>  <m_score__min__energy>  (35) 
-7.6799999999999997

>  <m_primary>  (35) 
energy

$$$$
35:0
     RDKit          3D

 25 26  0  0  0  0  0  0  0  0999 V2000
   -8.4995   22.8791  -31.6075 H   0  0  0  0  0  0  0  0  0  0  0  0
   -7.5140   23.3010  -31.3610 C   0  0  0  0  0  0  0  0  0  0  0  0
   -7.2960   23.8700  -30.1460 N   0  0  0  0  0  0  0  0  0  0  0  0
   -6.0890   24.4070  -29.8250 C   0  0  0  0  0  0  0  0  0  0  0  0
   -5.9263   24.8494  -28.8311 H   0  0  0  0  0  0  0  0  0  0  0  0
   -5.0550   24.3930  -30.7680 C   0  0  0  0  0  0  0  0  0  0  0  0
   -3.7600   24.8950  -30.4040 N   0  0  0  0  0  0  0  0  0  0  0  0
   -2.9330   24.4500  -29.4960 C   0  0  0  0  0  0  0  0  0  0  0  0
   -3.1490   23.2420  -28.7960 C   0  0  0  0  0  0  0  0  0  0  0  0
   -4.0429   22.6355  -29.0038 H   0  0  0  0  0  0  0  0  0  0  0  0
   -2.2160   22.8180  -27.8320 C   0  0  0  0  0  0  0  0  0  0  0  0
   -2.3750   21.6330  -27.0970 O   0  0  0  0  0  0  0  0  0  0  0  0
   -2.7500   20.3800  -27.6600 C   0  0  0  0  0  0  0  0  0  0  0  0
   -2.9641   19.6645  -26.8524 H   0  0  0  0  0  0  0  0  0  0  0  0
   -3.6482   20.5113  -28.2813 H   0  0  0  0  0  0  0  0  0  0  0  0
   -1.9273   19.9963  -28.2813 H   0  0  0  0  0  0  0  0  0  0  0  0
   -1.0840   23.5970  -27.5930 C   0  0  0  0  0  0  0  0  0  0  0  0
   -0.3502   23.2863  -26.8347 H   0  0  0  0  0  0  0  0  0  0  0  0
   -0.8860   24.7700  -28.3180 C   0  0  0  0  0  0  0  0  0  0  0  0
    0.0114   25.3801  -28.1380 H   0  0  0  0  0  0  0  0  0  0  0  0
   -1.7970   25.1640  -29.2470 N   0  0  0  0  0  0  0  0  0  0  0  0
   -1.6180   26.0500  -29.7740 H   0  0  0  0  0  0  0  0  0  0  0  0
   -5.2690   23.7930  -31.9720 N   0  0  0  0  0  0  0  0  0  0  0  0
   -6.4760   23.2570  -32.2930 C   0  0  0  0  0  0  0  0  0  0  0  0
   -6.6333   22.7930  -33.2779 H   0  0  0  0  0  0  0  0  0  0  0  0
  1  2  1  0
  2  3  2  0
  3  4  1  0
  4  5  1  0
  4  6  2  0
  6  7  1  0
  7  8  2  0
  8  9  1  0
  9 10  1  0
  9 11  2  0
 11 12  1  0
 12 13  1  0
 13 14  1  0
 13 15  1  0
 13 16  1  0
 11 17  1  0
 17 18  1  0
 17 19  2  0
 19 20  1  0
 19 21  1  0
 21 22  1  0
  6 23  1  0
 23 24  2  0
 24 25  1  0
 24  2  1  0
 21  8  1  0
M  END
>  <UniqueID>  (36) 
32

>  <SMILES>  (36) 
COc1cc[nH]/c(=N/c2cnccn2)c1

>  <Energy>  (36) 
35.39364331340469

>  <Genealogy>  (36) 
COc1cc[nH]/c(=N/c2cnccn2)c1 (cis-trans isomerization)
COc1cc[nH]/c(=N/c2cnccn2)c1 (3D coordinates assigned)
COc1cc[nH]/c(=N/c2cnccn2)c1 (optimized conformer: 35.39364331340469 kcal/mol)

>  <smiles>  (36) 
COc1cc[nH]c(=Nc2cnccn2)c1

>  <score_type>  (36) 
oracle

>  <origin>  (36) 
adgpu

>  <m_score__min__energy>  (36) 
-5.71

>  <m_primary>  (36) 
energy

$$$$
36:0
     RDKit          3D

 50 50  0  0  0  0  0  0  0  0999 V2000
   -7.2620   23.0160  -30.5710 C   0  0  0  0  0  0  0  0  0  0  0  0
   -6.1830   23.7550  -29.7660 C   0  0  0  0  0  0  0  0  0  0  0  0
   -6.5160   25.2540  -29.6990 C   0  0  0  0  0  0  0  0  0  0  0  0
   -4.7330   23.5150  -30.2830 C   0  0  1  0  0  0  0  0  0  0  0  0
   -4.7230   22.9090  -31.6180 N   0  0  0  0  0  0  0  0  0  0  0  0
   -4.4210   21.5220  -31.8250 C   0  0  0  0  0  0  0  0  0  0  0  0
   -4.1570   20.7740  -30.8430 O   0  0  0  0  0  0  0  0  0  0  0  0
   -4.3880   21.0190  -33.1300 O   0  0  0  0  0  0  0  0  0  0  0  0
   -4.8900   19.7320  -33.4870 C   0  0  0  0  0  0  0  0  0  0  0  0
   -6.2740   19.5310  -32.9300 C   0  0  0  0  0  0  0  0  0  0  0  0
   -6.6030   18.3520  -32.2390 C   0  0  0  0  0  0  0  0  0  0  0  0
   -7.8880   18.1810  -31.7140 C   0  0  0  0  0  0  0  0  0  0  0  0
   -8.8500   19.1820  -31.8740 C   0  0  0  0  0  0  0  0  0  0  0  0
   -8.5290   20.3560  -32.5600 C   0  0  0  0  0  0  0  0  0  0  0  0
   -7.2450   20.5340  -33.0860 C   0  0  0  0  0  0  0  0  0  0  0  0
   -3.8480   24.7510  -30.2010 C   0  0  0  0  0  0  0  0  0  0  0  0
   -4.0540   25.6740  -31.0340 O   0  0  0  0  0  0  0  0  0  0  0  0
   -2.7790   24.9340  -29.2560 N   0  0  0  0  0  0  0  0  0  0  0  0
   -1.3950   24.4730  -29.3410 C   0  0  0  0  0  0  0  0  0  0  0  0
   -0.8290   24.2550  -27.9340 C   0  0  0  0  0  0  0  0  0  0  0  0
   -1.8610   23.6860  -26.9470 C   0  0  0  0  0  0  0  0  0  0  0  0
   -2.6940   24.9690  -26.0190 S   0  0  0  0  0  0  0  0  0  0  0  0
   -1.7440   26.4720  -25.9800 C   0  0  0  0  0  0  0  0  0  0  0  0
   -4.2040   25.2660  -26.6900 O   0  0  0  0  0  0  0  0  0  0  0  0
   -7.9681   22.5324  -29.8800 H   0  0  0  0  0  0  0  0  0  0  0  0
   -7.8029   23.7342  -31.2048 H   0  0  0  0  0  0  0  0  0  0  0  0
   -6.7879   22.2521  -31.2048 H   0  0  0  0  0  0  0  0  0  0  0  0
   -6.1973   23.3304  -28.7514 H   0  0  0  0  0  0  0  0  0  0  0  0
   -6.5856   25.5675  -28.6469 H   0  0  0  0  0  0  0  0  0  0  0  0
   -5.7236   25.8284  -30.2011 H   0  0  0  0  0  0  0  0  0  0  0  0
   -7.4771   25.4389  -30.2011 H   0  0  0  0  0  0  0  0  0  0  0  0
   -4.2821   22.7875  -29.5920 H   0  0  0  0  0  0  0  0  0  0  0  0
   -4.9930   23.4730  -32.4540 H   0  0  0  0  0  0  0  0  0  0  0  0
   -4.9258   19.6491  -34.5833 H   0  0  0  0  0  0  0  0  0  0  0  0
   -4.2240   18.9627  -33.0692 H   0  0  0  0  0  0  0  0  0  0  0  0
   -5.8482   17.5621  -32.1109 H   0  0  0  0  0  0  0  0  0  0  0  0
   -8.1419   17.2569  -31.1741 H   0  0  0  0  0  0  0  0  0  0  0  0
   -9.8599   19.0456  -31.4598 H   0  0  0  0  0  0  0  0  0  0  0  0
   -9.2877   21.1423  -32.6868 H   0  0  0  0  0  0  0  0  0  0  0  0
   -6.9953   21.4611  -33.6228 H   0  0  0  0  0  0  0  0  0  0  0  0
   -1.3601   23.5255  -29.8987 H   0  0  0  0  0  0  0  0  0  0  0  0
   -0.7920   25.2330  -29.8595 H   0  0  0  0  0  0  0  0  0  0  0  0
    0.0145   23.5521  -28.0016 H   0  0  0  0  0  0  0  0  0  0  0  0
   -0.5182   25.2382  -27.5510 H   0  0  0  0  0  0  0  0  0  0  0  0
   -2.6119   23.1137  -27.5114 H   0  0  0  0  0  0  0  0  0  0  0  0
   -1.3240   23.0475  -26.2301 H   0  0  0  0  0  0  0  0  0  0  0  0
   -1.5603   26.7626  -24.9351 H   0  0  0  0  0  0  0  0  0  0  0  0
   -0.7829   26.3116  -26.4904 H   0  0  0  0  0  0  0  0  0  0  0  0
   -2.3013   27.2714  -26.4904 H   0  0  0  0  0  0  0  0  0  0  0  0
   -4.0090   25.5940  -27.6050 H   0  0  0  0  0  0  0  0  0  0  0  0
  1  2  1  0
  2  3  1  0
  2  4  1  0
  4  5  1  0
  5  6  1  0
  6  7  2  0
  6  8  1  0
  8  9  1  0
  9 10  1  0
 10 11  2  0
 11 12  1  0
 12 13  2  0
 13 14  1  0
 14 15  2  0
  4 16  1  0
 16 17  2  0
 16 18  1  0
 18 19  1  0
 19 20  1  0
 20 21  1  0
 21 22  1  0
 22 23  1  0
 22 24  1  6
 15 10  1  0
  1 25  1  0
  1 26  1  0
  1 27  1  0
  2 28  1  0
  3 29  1  0
  3 30  1  0
  3 31  1  0
  4 32  1  1
  5 33  1  0
  9 34  1  0
  9 35  1  0
 11 36  1  0
 12 37  1  0
 13 38  1  0
 14 39  1  0
 15 40  1  0
 19 41  1  0
 19 42  1  0
 20 43  1  0
 20 44  1  0
 21 45  1  0
 21 46  1  0
 23 47  1  0
 23 48  1  0
 23 49  1  0
 24 50  1  0
M  CHG  2  18  -1  22   1
M  END
>  <UniqueID>  (37) 
33

>  <SMILES>  (37) 
CC(C)[C@@H](NC(=O)OCc1ccccc1)C(=O)[N-]CCC[S@@+](C)O

>  <Energy>  (37) 
31.368112492367203

>  <Genealogy>  (37) 
CC(C)C(NC(=O)OCc1ccccc1)C(=O)[N-]CCC[S+](C)O (protonated)
CC(C)[C@@H](NC(=O)OCc1ccccc1)C(=O)[N-]CCC[S@@+](C)O (chirality)
CC(C)[C@@H](NC(=O)OCc1ccccc1)C(=O)[N-]CCC[S@@+](C)O (3D coordinates assigned)
CC(C)[C@@H](NC(=O)OCc1ccccc1)C(=O)[N-]CCC[S@@+](C)O (optimized conformer: 31.368112492367203 kcal/mol)

>  <smiles>  (37) 
CC(C)C(NC(=O)OCc1ccccc1)C(=O)NCCC[S+](C)[O-]

>  <score_type>  (37) 
oracle

>  <origin>  (37) 
adgpu

>  <m_score__min__energy>  (37) 
-9.9399999999999995

>  <m_primary>  (37) 
energy

$$$$
37:0
     RDKit          3D

 32 33  0  0  0  0  0  0  0  0999 V2000
   -5.7020   18.8330  -34.2300 C   0  0  0  0  0  0  0  0  0  0  0  0
   -6.7480   19.0780  -33.1830 C   0  0  0  0  0  0  0  0  0  0  0  0
   -7.5430   18.0250  -32.7190 C   0  0  0  0  0  0  0  0  0  0  0  0
   -8.5370   18.2810  -31.7760 C   0  0  0  0  0  0  0  0  0  0  0  0
   -8.7320   19.5450  -31.3180 N   0  0  0  0  0  0  0  0  0  0  0  0
   -7.9880   20.6040  -31.7480 C   0  0  0  0  0  0  0  0  0  0  0  0
   -8.2540   21.9240  -31.2120 N   0  0  0  0  0  0  0  0  0  0  0  0
   -9.1270   22.8250  -31.9720 C   0  0  0  0  0  0  0  0  0  0  0  0
   -7.7120   22.3660  -29.9140 C   0  0  0  0  0  0  0  0  0  0  0  0
   -6.5780   23.3400  -30.1120 C   0  0  0  0  0  0  0  0  0  0  0  0
   -6.8020   24.7250  -30.0410 C   0  0  0  0  0  0  0  0  0  0  0  0
   -5.7440   25.6210  -30.2230 C   0  0  0  0  0  0  0  0  0  0  0  0
   -4.4540   25.1410  -30.4680 C   0  0  0  0  0  0  0  0  0  0  0  0
   -4.2200   23.7650  -30.5270 C   0  0  0  0  0  0  0  0  0  0  0  0
   -5.2750   22.8660  -30.3460 C   0  0  0  0  0  0  0  0  0  0  0  0
   -6.9830   20.3780  -32.7100 C   0  0  0  0  0  0  0  0  0  0  0  0
   -4.7416   18.6080  -33.7432 H   0  0  0  0  0  0  0  0  0  0  0  0
   -6.0035   17.9812  -34.8573 H   0  0  0  0  0  0  0  0  0  0  0  0
   -5.5939   19.7301  -34.8573 H   0  0  0  0  0  0  0  0  0  0  0  0
   -7.3851   17.0034  -33.0951 H   0  0  0  0  0  0  0  0  0  0  0  0
   -9.1644   17.4584  -31.4022 H   0  0  0  0  0  0  0  0  0  0  0  0
   -9.7191   23.4361  -31.2750 H   0  0  0  0  0  0  0  0  0  0  0  0
   -8.5132   23.4823  -32.6055 H   0  0  0  0  0  0  0  0  0  0  0  0
   -9.8033   22.2323  -32.6055 H   0  0  0  0  0  0  0  0  0  0  0  0
   -8.5109   22.8548  -29.3370 H   0  0  0  0  0  0  0  0  0  0  0  0
   -7.3320   21.4872  -29.3725 H   0  0  0  0  0  0  0  0  0  0  0  0
   -7.8143   25.1064  -29.8413 H   0  0  0  0  0  0  0  0  0  0  0  0
   -5.9269   26.7046  -30.1734 H   0  0  0  0  0  0  0  0  0  0  0  0
   -3.6232   25.8469  -30.6143 H   0  0  0  0  0  0  0  0  0  0  0  0
   -3.2039   23.3884  -30.7162 H   0  0  0  0  0  0  0  0  0  0  0  0
   -5.0851   21.7833  -30.3868 H   0  0  0  0  0  0  0  0  0  0  0  0
   -6.3840   21.2191  -33.0893 H   0  0  0  0  0  0  0  0  0  0  0  0
  1  2  1  0
  2  3  2  0
  3  4  1  0
  4  5  2  0
  5  6  1  0
  6  7  1  0
  7  8  1  0
  7  9  1  0
  9 10  1  0
 10 11  2  0
 11 12  1  0
 12 13  2  0
 13 14  1  0
 14 15  2  0
  6 16  2  0
 16  2  1  0
 15 10  1  0
  1 17  1  0
  1 18  1  0
  1 19  1  0
  3 20  1  0
  4 21  1  0
  8 22  1  0
  8 23  1  0
  8 24  1  0
  9 25  1  0
  9 26  1  0
 11 27  1  0
 12 28  1  0
 13 29  1  0
 14 30  1  0
 15 31  1  0
 16 32  1  0
M  END
>  <UniqueID>  (38) 
34

>  <SMILES>  (38) 
Cc1ccnc(N(C)Cc2ccccc2)c1

>  <Energy>  (38) 
31.650161841457372

>  <Genealogy>  (38) 
Cc1ccnc(N(C)Cc2ccccc2)c1 (3D coordinates assigned)
Cc1ccnc(N(C)Cc2ccccc2)c1 (optimized conformer: 31.650161841457372 kcal/mol)

>  <smiles>  (38) 
Cc1ccnc(N(C)Cc2ccccc2)c1

>  <score_type>  (38) 
oracle

>  <origin>  (38) 
adgpu

>  <m_score__min__energy>  (38) 
-6.4199999999999999

>  <m_primary>  (38) 
energy

$$$$
38:0
     RDKit          3D

 44 46  0  0  0  0  0  0  0  0999 V2000
   -0.8800   26.5380  -27.8360 C   0  0  0  0  0  0  0  0  0  0  0  0
   -1.5200   25.8830  -28.9260 O   0  0  0  0  0  0  0  0  0  0  0  0
   -1.5990   24.4890  -29.0830 C   0  0  0  0  0  0  0  0  0  0  0  0
   -0.6840   23.6160  -28.4600 C   0  0  0  0  0  0  0  0  0  0  0  0
   -0.7920   22.2360  -28.6410 C   0  0  0  0  0  0  0  0  0  0  0  0
   -1.8080   21.7130  -29.4390 C   0  0  0  0  0  0  0  0  0  0  0  0
   -2.7220   22.5670  -30.0620 C   0  0  0  0  0  0  0  0  0  0  0  0
   -2.6220   23.9600  -29.8880 C   0  0  0  0  0  0  0  0  0  0  0  0
   -3.5440   24.8660  -30.5140 N   0  0  0  0  0  0  0  0  0  0  0  0
   -5.2170   25.0450  -30.0960 S   0  0  0  0  0  0  0  0  0  0  0  0
   -5.3930   24.9010  -28.6100 O   0  0  0  0  0  0  0  0  0  0  0  0
   -5.6910   26.4010  -30.5410 O   0  0  0  0  0  0  0  0  0  0  0  0
   -6.1550   23.7980  -30.9090 C   0  0  0  0  0  0  0  0  0  0  0  0
   -7.5540   23.8020  -30.8210 C   0  0  0  0  0  0  0  0  0  0  0  0
   -8.3000   22.8300  -31.4910 C   0  0  0  0  0  0  0  0  0  0  0  0
   -7.6550   21.8470  -32.2460 C   0  0  0  0  0  0  0  0  0  0  0  0
   -6.2580   21.8190  -32.3280 C   0  0  0  0  0  0  0  0  0  0  0  0
   -5.6380   20.8060  -33.1330 N   0  0  0  0  0  0  0  0  0  0  0  0
   -4.7040   19.8130  -32.6880 C   0  0  0  0  0  0  0  0  0  0  0  0
   -5.1020   18.8060  -32.0430 O   0  0  0  0  0  0  0  0  0  0  0  0
   -3.2620   19.9710  -32.9700 C   0  0  0  0  0  0  0  0  0  0  0  0
   -2.4070   18.8800  -32.7290 C   0  0  0  0  0  0  0  0  0  0  0  0
   -1.0280   19.0030  -32.9070 C   0  0  0  0  0  0  0  0  0  0  0  0
   -0.4830   20.2160  -33.3280 C   0  0  0  0  0  0  0  0  0  0  0  0
   -1.3180   21.3030  -33.5920 C   0  0  0  0  0  0  0  0  0  0  0  0
   -2.7060   21.1880  -33.4400 C   0  0  0  0  0  0  0  0  0  0  0  0
   -3.4940   22.2850  -33.7960 O   0  0  0  0  0  0  0  0  0  0  0  0
   -5.5090   22.8150  -31.6730 C   0  0  0  0  0  0  0  0  0  0  0  0
   -1.2701   26.1388  -26.8881 H   0  0  0  0  0  0  0  0  0  0  0  0
    0.2047   26.3630  -27.8888 H   0  0  0  0  0  0  0  0  0  0  0  0
   -1.0801   27.6184  -27.8888 H   0  0  0  0  0  0  0  0  0  0  0  0
    0.1188   24.0241  -27.8283 H   0  0  0  0  0  0  0  0  0  0  0  0
   -0.0741   21.5603  -28.1531 H   0  0  0  0  0  0  0  0  0  0  0  0
   -1.8906   20.6251  -29.5788 H   0  0  0  0  0  0  0  0  0  0  0  0
   -3.5222   22.1491  -30.6905 H   0  0  0  0  0  0  0  0  0  0  0  0
   -8.0647   24.5716  -30.2236 H   0  0  0  0  0  0  0  0  0  0  0  0
   -9.3979   22.8383  -31.4242 H   0  0  0  0  0  0  0  0  0  0  0  0
   -8.2490   21.0902  -32.7794 H   0  0  0  0  0  0  0  0  0  0  0  0
   -2.8295   17.9202  -32.3969 H   0  0  0  0  0  0  0  0  0  0  0  0
   -0.3704   18.1424  -32.7151 H   0  0  0  0  0  0  0  0  0  0  0  0
    0.6054   20.3160  -33.4520 H   0  0  0  0  0  0  0  0  0  0  0  0
   -0.8827   22.2577  -33.9221 H   0  0  0  0  0  0  0  0  0  0  0  0
   -4.4940   22.2300  -33.9270 H   0  0  0  0  0  0  0  0  0  0  0  0
   -4.4125   22.8223  -31.7608 H   0  0  0  0  0  0  0  0  0  0  0  0
  1  2  1  0
  2  3  1  0
  3  4  2  0
  4  5  1  0
  5  6  2  0
  6  7  1  0
  7  8  2  0
  8  9  1  0
  9 10  1  0
 10 11  2  0
 10 12  2  0
 10 13  1  0
 13 14  2  0
 14 15  1  0
 15 16  2  0
 16 17  1  0
 17 18  1  0
 18 19  1  0
 19 20  2  0
 19 21  1  0
 21 22  2  0
 22 23  1  0
 23 24  2  0
 24 25  1  0
 25 26  2  0
 26 27  1  0
 17 28  2  0
  8  3  1  0
 28 13  1  0
 26 21  1  0
  1 29  1  0
  1 30  1  0
  1 31  1  0
  4 32  1  0
  5 33  1  0
  6 34  1  0
  7 35  1  0
 14 36  1  0
 15 37  1  0
 16 38  1  0
 22 39  1  0
 23 40  1  0
 24 41  1  0
 25 42  1  0
 27 43  1  0
 28 44  1  0
M  CHG  2   9  -1  18  -1
M  END
>  <UniqueID>  (39) 
35

>  <SMILES>  (39) 
COc1ccccc1[N-]S(=O)(=O)c1cccc([N-]C(=O)c2ccccc2O)c1

>  <Energy>  (39) 
59.88004894744699

>  <Genealogy>  (39) 
COc1ccccc1[N-]S(=O)(=O)c1cccc([N-]C(=O)c2ccccc2O)c1 (protonated)
COc1ccccc1[N-]S(=O)(=O)c1cccc([N-]C(=O)c2ccccc2O)c1 (3D coordinates assigned)
COc1ccccc1[N-]S(=O)(=O)c1cccc([N-]C(=O)c2ccccc2O)c1 (optimized conformer: 59.88004894744699 kcal/mol)

>  <smiles>  (39) 
COc1ccccc1NS(=O)(=O)c1cccc(NC(=O)c2ccccc2O)c1

>  <score_type>  (39) 
oracle

>  <origin>  (39) 
adgpu

>  <m_score__min__energy>  (39) 
-10.58

>  <m_primary>  (39) 
energy

$$$$
39:0
     RDKit          3D

 46 48  0  0  0  0  0  0  0  0999 V2000
    1.5600   20.1930  -34.3860 C   0  0  0  0  0  0  0  0  0  0  0  0
    0.8900   20.0060  -33.1430 O   0  0  0  0  0  0  0  0  0  0  0  0
   -0.4400   20.3770  -32.8970 C   0  0  0  0  0  0  0  0  0  0  0  0
   -0.9110   20.6820  -31.6060 C   0  0  0  0  0  0  0  0  0  0  0  0
   -2.2470   21.0450  -31.4120 C   0  0  0  0  0  0  0  0  0  0  0  0
   -3.1360   21.0960  -32.4980 C   0  0  0  0  0  0  0  0  0  0  0  0
   -4.5480   21.4900  -32.3060 C   0  0  0  0  0  0  0  0  0  0  0  0
   -4.9280   22.7220  -31.9260 N   0  0  0  0  0  0  0  0  0  0  0  0
   -6.2600   22.6450  -31.7620 C   0  0  0  0  0  0  0  0  0  0  0  0
   -7.2690   24.0280  -31.2400 S   0  0  0  0  0  0  0  0  0  0  0  0
   -6.1210   24.5060  -29.9050 C   0  0  0  0  0  0  0  0  0  0  0  0
   -5.2010   25.6450  -30.3450 C   0  0  0  0  0  0  0  0  0  0  0  0
   -3.8630   25.1460  -30.6450 N   0  0  0  0  0  0  0  0  0  0  0  0
   -2.9720   24.5910  -29.6700 C   0  0  0  0  0  0  0  0  0  0  0  0
   -3.2540   23.2430  -29.0980 C   0  0  0  0  0  0  0  0  0  0  0  0
   -1.9730   25.2450  -29.2670 O   0  0  0  0  0  0  0  0  0  0  0  0
   -6.7640   21.4230  -32.0270 N   0  0  0  0  0  0  0  0  0  0  0  0
   -5.6850   20.6910  -32.3790 C   0  0  0  0  0  0  0  0  0  0  0  0
   -5.7860   19.2870  -32.8300 C   0  0  0  0  0  0  0  0  0  0  0  0
   -5.5980   18.9770  -34.1880 C   0  0  0  0  0  0  0  0  0  0  0  0
   -5.6750   17.6510  -34.6250 C   0  0  0  0  0  0  0  0  0  0  0  0
   -5.9240   16.6240  -33.7110 C   0  0  0  0  0  0  0  0  0  0  0  0
   -5.9970   15.3390  -34.1370 F   0  0  0  0  0  0  0  0  0  0  0  0
   -6.0900   16.9210  -32.3560 C   0  0  0  0  0  0  0  0  0  0  0  0
   -6.0140   18.2450  -31.9140 C   0  0  0  0  0  0  0  0  0  0  0  0
   -2.6590   20.8080  -33.7860 C   0  0  0  0  0  0  0  0  0  0  0  0
   -1.3230   20.4470  -33.9790 C   0  0  0  0  0  0  0  0  0  0  0  0
    2.6042   20.4844  -34.1995 H   0  0  0  0  0  0  0  0  0  0  0  0
    1.5381   19.2544  -34.9592 H   0  0  0  0  0  0  0  0  0  0  0  0
    1.0552   20.9846  -34.9592 H   0  0  0  0  0  0  0  0  0  0  0  0
   -0.2255   20.6345  -30.7470 H   0  0  0  0  0  0  0  0  0  0  0  0
   -2.6045   21.2924  -30.4016 H   0  0  0  0  0  0  0  0  0  0  0  0
   -4.3190   23.5530  -31.7550 H   0  0  0  0  0  0  0  0  0  0  0  0
   -6.7038   24.8332  -29.0313 H   0  0  0  0  0  0  0  0  0  0  0  0
   -5.4988   23.6345  -29.6535 H   0  0  0  0  0  0  0  0  0  0  0  0
   -5.6192   26.1186  -31.2454 H   0  0  0  0  0  0  0  0  0  0  0  0
   -5.1286   26.3754  -29.5257 H   0  0  0  0  0  0  0  0  0  0  0  0
   -3.2419   23.3009  -27.9996 H   0  0  0  0  0  0  0  0  0  0  0  0
   -4.2432   22.9008  -29.4362 H   0  0  0  0  0  0  0  0  0  0  0  0
   -2.4850   22.5330  -29.4362 H   0  0  0  0  0  0  0  0  0  0  0  0
   -5.3895   19.7805  -34.9097 H   0  0  0  0  0  0  0  0  0  0  0  0
   -5.5392   17.4158  -35.6910 H   0  0  0  0  0  0  0  0  0  0  0  0
   -6.2808   16.1117  -31.6358 H   0  0  0  0  0  0  0  0  0  0  0  0
   -6.1331   18.4727  -30.8444 H   0  0  0  0  0  0  0  0  0  0  0  0
   -3.3401   20.8667  -34.6478 H   0  0  0  0  0  0  0  0  0  0  0  0
   -0.9623   20.2156  -34.9921 H   0  0  0  0  0  0  0  0  0  0  0  0
  1  2  1  0
  2  3  1  0
  3  4  2  0
  4  5  1  0
  5  6  2  0
  6  7  1  0
  7  8  1  0
  8  9  1  0
  9 10  1  0
 10 11  1  0
 11 12  1  0
 12 13  1  0
 13 14  1  0
 14 15  1  0
 14 16  2  0
  9 17  2  0
 17 18  1  0
 18 19  1  0
 19 20  2  0
 20 21  1  0
 21 22  2  0
 22 23  1  0
 22 24  1  0
 24 25  2  0
  6 26  1  0
 26 27  2  0
 27  3  1  0
 18  7  2  0
 25 19  1  0
  1 28  1  0
  1 29  1  0
  1 30  1  0
  4 31  1  0
  5 32  1  0
  8 33  1  0
 11 34  1  0
 11 35  1  0
 12 36  1  0
 12 37  1  0
 15 38  1  0
 15 39  1  0
 15 40  1  0
 20 41  1  0
 21 42  1  0
 24 43  1  0
 25 44  1  0
 26 45  1  0
 27 46  1  0
M  CHG  1  13  -1
M  END
>  <UniqueID>  (40) 
36

>  <SMILES>  (40) 
COc1ccc(-c2[nH]c(SCC[N-]C(C)=O)nc2-c2ccc(F)cc2)cc1

>  <Energy>  (40) 
75.94014538888354

>  <Genealogy>  (40) 
COc1ccc(-c2[nH]c(SCC[N-]C(C)=O)nc2-c2ccc(F)cc2)cc1 (protonated)
COc1ccc(-c2[nH]c(SCC[N-]C(C)=O)nc2-c2ccc(F)cc2)cc1 (3D coordinates assigned)
COc1ccc(-c2[nH]c(SCC[N-]C(C)=O)nc2-c2ccc(F)cc2)cc1 (optimized conformer: 75.94014538888354 kcal/mol)

>  <smiles>  (40) 
COc1ccc(-c2[nH]c(SCCNC(C)=O)nc2-c2ccc(F)cc2)cc1

>  <score_type>  (40) 
oracle

>  <origin>  (40) 
adgpu

>  <m_score__min__energy>  (40) 
-9.9600000000000009

>  <m_primary>  (40) 
energy

$$$$
40:0
     RDKit          3D

 27 28  0  0  0  0  0  0  0  0999 V2000
   -7.4510   23.6390  -32.4350 O   0  0  0  0  0  0  0  0  0  0  0  0
   -7.2280   22.7570  -31.5610 C   0  0  0  0  0  0  0  0  0  0  0  0
   -7.0140   23.2070  -30.1360 C   0  0  0  0  0  0  0  0  0  0  0  0
   -5.6300   23.6710  -29.9230 N   0  0  0  0  0  0  0  0  0  0  0  0
   -4.8060   22.9390  -29.1140 C   0  0  0  0  0  0  0  0  0  0  0  0
   -3.4900   23.3360  -28.8920 C   0  0  0  0  0  0  0  0  0  0  0  0
   -3.0240   24.4820  -29.5270 C   0  0  0  0  0  0  0  0  0  0  0  0
   -1.8390   24.8660  -29.3430 O   0  0  0  0  0  0  0  0  0  0  0  0
   -3.8500   25.1820  -30.3480 N   0  0  0  0  0  0  0  0  0  0  0  0
   -5.1350   24.7850  -30.5590 C   0  0  0  0  0  0  0  0  0  0  0  0
   -5.8590   25.4500  -31.3500 O   0  0  0  0  0  0  0  0  0  0  0  0
   -7.1500   21.3290  -31.9700 C   0  0  0  0  0  0  0  0  0  0  0  0
   -8.2120   20.4340  -31.7310 C   0  0  0  0  0  0  0  0  0  0  0  0
   -8.1130   19.0950  -32.1170 C   0  0  0  0  0  0  0  0  0  0  0  0
   -6.9570   18.6290  -32.7490 C   0  0  0  0  0  0  0  0  0  0  0  0
   -6.8370   16.9470  -33.2320 Cl  0  0  0  0  0  0  0  0  0  0  0  0
   -5.9000   19.5070  -33.0000 C   0  0  0  0  0  0  0  0  0  0  0  0
   -5.9950   20.8480  -32.6160 C   0  0  0  0  0  0  0  0  0  0  0  0
   -7.7069   24.0317  -29.9127 H   0  0  0  0  0  0  0  0  0  0  0  0
   -7.2000   22.3516  -29.4699 H   0  0  0  0  0  0  0  0  0  0  0  0
   -5.1870   22.0260  -28.6330 H   0  0  0  0  0  0  0  0  0  0  0  0
   -2.8327   22.7552  -28.2282 H   0  0  0  0  0  0  0  0  0  0  0  0
   -3.4890   26.0360  -30.8320 H   0  0  0  0  0  0  0  0  0  0  0  0
   -9.1267   20.7927  -31.2363 H   0  0  0  0  0  0  0  0  0  0  0  0
   -8.9476   18.4053  -31.9228 H   0  0  0  0  0  0  0  0  0  0  0  0
   -4.9909   19.1426  -33.5008 H   0  0  0  0  0  0  0  0  0  0  0  0
   -5.1596   21.5338  -32.8205 H   0  0  0  0  0  0  0  0  0  0  0  0
  1  2  2  0
  2  3  1  0
  3  4  1  0
  4  5  1  0
  5  6  2  0
  6  7  1  0
  7  8  2  0
  7  9  1  0
  9 10  1  0
 10 11  2  0
  2 12  1  0
 12 13  2  0
 13 14  1  0
 14 15  2  0
 15 16  1  0
 15 17  1  0
 17 18  2  0
 10  4  1  0
 18 12  1  0
  3 19  1  0
  3 20  1  0
  5 21  1  0
  6 22  1  0
  9 23  1  0
 13 24  1  0
 14 25  1  0
 17 26  1  0
 18 27  1  0
M  END
>  <UniqueID>  (41) 
37

>  <SMILES>  (41) 
O=C(Cn1ccc(=O)[nH]c1=O)c1ccc(Cl)cc1

>  <Energy>  (41) 
32.37713441644865

>  <Genealogy>  (41) 
O=C(Cn1ccc(=O)[nH]c1=O)c1ccc(Cl)cc1 (3D coordinates assigned)
O=C(Cn1ccc(=O)[nH]c1=O)c1ccc(Cl)cc1 (optimized conformer: 32.37713441644865 kcal/mol)

>  <smiles>  (41) 
O=C(Cn1ccc(=O)[nH]c1=O)c1ccc(Cl)cc1

>  <score_type>  (41) 
oracle

>  <origin>  (41) 
adgpu

>  <m_score__min__energy>  (41) 
-7.5

>  <m_primary>  (41) 
energy

$$$$
41:0
     RDKit          3D

 39 42  0  0  0  0  0  0  0  0999 V2000
   -0.8490   26.0630  -27.9280 C   0  0  0  0  0  0  0  0  0  0  0  0
   -1.5180   24.9620  -28.6780 C   0  0  0  0  0  0  0  0  0  0  0  0
   -1.0380   23.7090  -28.7700 N   0  0  0  0  0  0  0  0  0  0  0  0
   -1.9210   23.0280  -29.4830 N   0  0  0  0  0  0  0  0  0  0  0  0
   -2.9040   23.8930  -29.8030 C   0  0  0  0  0  0  0  0  0  0  0  0
   -4.1240   23.5470  -30.5690 C   0  0  0  0  0  0  0  0  0  0  0  0
   -4.2770   22.2170  -30.9990 C   0  0  0  0  0  0  0  0  0  0  0  0
   -5.3630   21.8320  -31.8030 C   0  0  0  0  0  0  0  0  0  0  0  0
   -5.5050   20.4250  -32.2570 C   0  0  0  0  0  0  0  0  0  0  0  0
   -4.4310   19.7600  -32.8720 C   0  0  0  0  0  0  0  0  0  0  0  0
   -4.5640   18.4360  -33.2990 C   0  0  0  0  0  0  0  0  0  0  0  0
   -5.7750   17.7450  -33.1210 C   0  0  0  0  0  0  0  0  0  0  0  0
   -5.9120   16.3780  -33.5610 N   0  0  0  0  0  0  0  0  0  0  0  0
   -5.0370   15.3700  -33.3820 C   0  0  0  0  0  0  0  0  0  0  0  0
   -5.5620   14.2380  -33.9600 C   0  0  0  0  0  0  0  0  0  0  0  0
   -6.7630   14.5230  -34.5010 N   0  0  0  0  0  0  0  0  0  0  0  0
   -6.9450   15.8340  -34.2410 C   0  0  0  0  0  0  0  0  0  0  0  0
   -6.8500   18.4100  -32.5050 C   0  0  0  0  0  0  0  0  0  0  0  0
   -6.7160   19.7350  -32.0780 C   0  0  0  0  0  0  0  0  0  0  0  0
   -6.3070   22.7990  -32.1770 C   0  0  0  0  0  0  0  0  0  0  0  0
   -6.1800   24.1180  -31.7390 C   0  0  0  0  0  0  0  0  0  0  0  0
   -5.1090   24.5030  -30.9210 C   0  0  0  0  0  0  0  0  0  0  0  0
   -5.0810   25.8460  -30.4170 N   0  0  0  0  0  0  0  0  0  0  0  0
   -2.6660   25.0810  -29.3000 O   0  0  0  0  0  0  0  0  0  0  0  0
   -0.9554   25.8879  -26.8473 H   0  0  0  0  0  0  0  0  0  0  0  0
    0.2186   26.0904  -28.1917 H   0  0  0  0  0  0  0  0  0  0  0  0
   -1.3165   27.0232  -28.1917 H   0  0  0  0  0  0  0  0  0  0  0  0
   -3.5327   21.4641  -30.7004 H   0  0  0  0  0  0  0  0  0  0  0  0
   -3.4764   20.2865  -33.0188 H   0  0  0  0  0  0  0  0  0  0  0  0
   -3.7132   17.9300  -33.7788 H   0  0  0  0  0  0  0  0  0  0  0  0
   -4.0696   15.4401  -32.8631 H   0  0  0  0  0  0  0  0  0  0  0  0
   -5.0762   13.2513  -33.9780 H   0  0  0  0  0  0  0  0  0  0  0  0
   -7.8373   16.3987  -34.5491 H   0  0  0  0  0  0  0  0  0  0  0  0
   -7.8045   17.8835  -32.3577 H   0  0  0  0  0  0  0  0  0  0  0  0
   -7.5662   20.2416  -31.5977 H   0  0  0  0  0  0  0  0  0  0  0  0
   -7.1534   22.5161  -32.8200 H   0  0  0  0  0  0  0  0  0  0  0  0
   -6.9298   24.8647  -32.0395 H   0  0  0  0  0  0  0  0  0  0  0  0
   -5.3410   26.6630  -31.0100 H   0  0  0  0  0  0  0  0  0  0  0  0
   -4.6450   26.0520  -29.4910 H   0  0  0  0  0  0  0  0  0  0  0  0
  1  2  1  0
  2  3  2  0
  3  4  1  0
  4  5  2  0
  5  6  1  0
  6  7  2  0
  7  8  1  0
  8  9  1  0
  9 10  2  0
 10 11  1  0
 11 12  2  0
 12 13  1  0
 13 14  1  0
 14 15  2  0
 15 16  1  0
 16 17  2  0
 12 18  1  0
 18 19  2  0
  8 20  2  0
 20 21  1  0
 21 22  2  0
 22 23  1  0
  5 24  1  0
 24  2  1  0
 22  6  1  0
 19  9  1  0
 17 13  1  0
  1 25  1  0
  1 26  1  0
  1 27  1  0
  7 28  1  0
 10 29  1  0
 11 30  1  0
 14 31  1  0
 15 32  1  0
 17 33  1  0
 18 34  1  0
 19 35  1  0
 20 36  1  0
 21 37  1  0
 23 38  1  0
 23 39  1  0
M  END
>  <UniqueID>  (42) 
38

>  <SMILES>  (42) 
Cc1nnc(-c2cc(-c3ccc(-n4ccnc4)cc3)ccc2N)o1

>  <Energy>  (42) 
119.1514740049091

>  <Genealogy>  (42) 
Cc1nnc(-c2cc(-c3ccc(-n4ccnc4)cc3)ccc2N)o1 (3D coordinates assigned)
Cc1nnc(-c2cc(-c3ccc(-n4ccnc4)cc3)ccc2N)o1 (optimized conformer: 119.1514740049091 kcal/mol)

>  <smiles>  (42) 
Cc1nnc(-c2cc(-c3ccc(-n4ccnc4)cc3)ccc2N)o1

>  <score_type>  (42) 
oracle

>  <origin>  (42) 
adgpu

>  <m_score__min__energy>  (42) 
-8.0999999999999996

>  <m_primary>  (42) 
energy

$$$$
42:0
     RDKit          3D

 38 40  0  0  0  0  0  0  0  0999 V2000
   -6.4860   25.8480  -28.9760 C   0  0  0  0  0  0  0  0  0  0  0  0
   -6.4910   25.6820  -30.3890 O   0  0  0  0  0  0  0  0  0  0  0  0
   -6.1660   24.4740  -31.0140 C   0  0  0  0  0  0  0  0  0  0  0  0
   -7.1400   23.6910  -31.5530 N   0  0  0  0  0  0  0  0  0  0  0  0
   -6.8650   22.5040  -32.1510 C   0  0  0  0  0  0  0  0  0  0  0  0
   -5.5420   22.0390  -32.2350 C   0  0  0  0  0  0  0  0  0  0  0  0
   -5.2410   20.7290  -32.8710 C   0  0  0  0  0  0  0  0  0  0  0  0
   -3.9810   20.1480  -33.0530 C   0  0  0  0  0  0  0  0  0  0  0  0
   -3.9900   18.9250  -33.6460 N   0  0  0  0  0  0  0  0  0  0  0  0
   -5.2400   18.5190  -33.9570 C   0  0  0  0  0  0  0  0  0  0  0  0
   -5.5480   17.1880  -34.5550 C   0  0  0  0  0  0  0  0  0  0  0  0
   -6.3870   19.6460  -33.4780 S   0  0  0  0  0  0  0  0  0  0  0  0
   -4.5220   22.8450  -31.7020 C   0  0  0  0  0  0  0  0  0  0  0  0
   -4.8290   24.0660  -31.0780 C   0  0  0  0  0  0  0  0  0  0  0  0
   -3.8180   24.9020  -30.4960 N   0  0  0  0  0  0  0  0  0  0  0  0
   -2.8500   24.4870  -29.1170 S   0  0  0  0  0  0  0  0  0  0  0  0
   -1.7400   25.4920  -28.9750 O   0  0  0  0  0  0  0  0  0  0  0  0
   -3.7080   24.5250  -27.8840 O   0  0  0  0  0  0  0  0  0  0  0  0
   -2.2040   22.8600  -29.3120 C   0  0  0  0  0  0  0  0  0  0  0  0
   -2.5600   21.8570  -28.4000 C   0  0  0  0  0  0  0  0  0  0  0  0
   -2.0720   20.5570  -28.5600 C   0  0  0  0  0  0  0  0  0  0  0  0
   -1.2270   20.2540  -29.6310 C   0  0  0  0  0  0  0  0  0  0  0  0
   -0.7570   18.9920  -29.7850 F   0  0  0  0  0  0  0  0  0  0  0  0
   -0.8660   21.2520  -30.5420 C   0  0  0  0  0  0  0  0  0  0  0  0
   -1.3510   22.5540  -30.3830 C   0  0  0  0  0  0  0  0  0  0  0  0
   -6.5157   24.8612  -28.4908 H   0  0  0  0  0  0  0  0  0  0  0  0
   -5.5715   26.3785  -28.6724 H   0  0  0  0  0  0  0  0  0  0  0  0
   -7.3669   26.4326  -28.6724 H   0  0  0  0  0  0  0  0  0  0  0  0
   -7.6835   21.9021  -32.5727 H   0  0  0  0  0  0  0  0  0  0  0  0
   -3.0511   20.6448  -32.7391 H   0  0  0  0  0  0  0  0  0  0  0  0
   -5.7175   16.4556  -33.7520 H   0  0  0  0  0  0  0  0  0  0  0  0
   -6.4519   17.2658  -35.1771 H   0  0  0  0  0  0  0  0  0  0  0  0
   -4.7018   16.8608  -35.1771 H   0  0  0  0  0  0  0  0  0  0  0  0
   -3.4744   22.5174  -31.7738 H   0  0  0  0  0  0  0  0  0  0  0  0
   -3.2250   22.0935  -27.5563 H   0  0  0  0  0  0  0  0  0  0  0  0
   -2.3532   19.7721  -27.8425 H   0  0  0  0  0  0  0  0  0  0  0  0
   -0.2001   21.0126  -31.3842 H   0  0  0  0  0  0  0  0  0  0  0  0
   -1.0635   23.3388  -31.0982 H   0  0  0  0  0  0  0  0  0  0  0  0
  1  2  1  0
  2  3  1  0
  3  4  2  0
  4  5  1  0
  5  6  2  0
  6  7  1  0
  7  8  2  0
  8  9  1  0
  9 10  2  0
 10 11  1  0
 10 12  1  0
  6 13  1  0
 13 14  2  0
 14 15  1  0
 15 16  1  0
 16 17  2  0
 16 18  2  0
 16 19  1  0
 19 20  2  0
 20 21  1  0
 21 22  2  0
 22 23  1  0
 22 24  1  0
 24 25  2  0
 14  3  1  0
 25 19  1  0
 12  7  1  0
  1 26  1  0
  1 27  1  0
  1 28  1  0
  5 29  1  0
  8 30  1  0
 11 31  1  0
 11 32  1  0
 11 33  1  0
 13 34  1  0
 20 35  1  0
 21 36  1  0
 24 37  1  0
 25 38  1  0
M  CHG  1  15  -1
M  END
>  <UniqueID>  (43) 
39

>  <SMILES>  (43) 
COc1ncc(-c2cnc(C)s2)cc1[N-]S(=O)(=O)c1ccc(F)cc1

>  <Energy>  (43) 
72.12549965143545

>  <Genealogy>  (43) 
COc1ncc(-c2cnc(C)s2)cc1[N-]S(=O)(=O)c1ccc(F)cc1 (protonated)
COc1ncc(-c2cnc(C)s2)cc1[N-]S(=O)(=O)c1ccc(F)cc1 (3D coordinates assigned)
COc1ncc(-c2cnc(C)s2)cc1[N-]S(=O)(=O)c1ccc(F)cc1 (optimized conformer: 72.12549965143545 kcal/mol)

>  <smiles>  (43) 
COc1ncc(-c2cnc(C)s2)cc1NS(=O)(=O)c1ccc(F)cc1

>  <score_type>  (43) 
oracle

>  <origin>  (43) 
adgpu

>  <m_score__min__energy>  (43) 
-9.2400000000000002

>  <m_primary>  (43) 
energy

$$$$
43:0
     RDKit          3D

 47 50  0  0  0  0  0  0  0  0999 V2000
   -4.5500   21.0290  -33.5860 O   0  0  0  0  0  0  0  0  0  0  0  0
   -5.6840   20.7900  -33.0830 C   0  0  0  0  0  0  0  0  0  0  0  0
   -6.1770   21.6080  -32.0500 C   0  0  0  0  0  0  0  0  0  0  0  0
   -5.4500   22.7010  -31.5420 C   0  0  0  0  0  0  0  0  0  0  0  0
   -5.9770   23.4790  -30.5010 C   0  0  0  0  0  0  0  0  0  0  0  0
   -5.0490   24.8320  -29.8450 S   0  0  0  0  0  0  0  0  0  0  0  0
   -4.0600   25.2980  -30.8770 O   0  0  0  0  0  0  0  0  0  0  0  0
   -5.9830   25.9710  -29.5470 O   0  0  0  0  0  0  0  0  0  0  0  0
   -4.1980   24.3840  -28.3820 N   0  0  0  0  0  0  0  0  0  0  0  0
   -4.5760   23.0210  -27.9300 C   0  0  0  0  0  0  0  0  0  0  0  0
   -3.4820   21.9860  -28.2520 C   0  0  0  0  0  0  0  0  0  0  0  0
   -2.2290   22.2900  -27.6530 O   0  0  0  0  0  0  0  0  0  0  0  0
   -1.9640   23.6850  -27.5530 C   0  0  0  0  0  0  0  0  0  0  0  0
   -2.7390   24.5440  -28.5670 C   0  0  0  0  0  0  0  0  0  0  0  0
   -7.2430   23.1750  -29.9810 C   0  0  0  0  0  0  0  0  0  0  0  0
   -7.9710   22.0930  -30.4820 C   0  0  0  0  0  0  0  0  0  0  0  0
   -7.4420   21.3080  -31.5110 C   0  0  0  0  0  0  0  0  0  0  0  0
   -8.1460   20.2540  -31.9900 N   0  0  0  0  0  0  0  0  0  0  0  0
   -7.6560   19.4740  -32.9860 C   0  0  0  0  0  0  0  0  0  0  0  0
   -6.4340   19.7370  -33.5420 N   0  0  0  0  0  0  0  0  0  0  0  0
   -5.9240   18.8450  -34.5970 C   0  0  0  0  0  0  0  0  0  0  0  0
   -5.2370   17.6530  -33.9840 C   0  0  0  0  0  0  0  0  0  0  0  0
   -5.9910   16.6580  -33.3390 C   0  0  0  0  0  0  0  0  0  0  0  0
   -5.3530   15.5680  -32.7380 C   0  0  0  0  0  0  0  0  0  0  0  0
   -3.9590   15.4670  -32.7720 C   0  0  0  0  0  0  0  0  0  0  0  0
   -3.3430   14.4100  -32.1890 F   0  0  0  0  0  0  0  0  0  0  0  0
   -3.2020   16.4560  -33.4060 C   0  0  0  0  0  0  0  0  0  0  0  0
   -3.8370   17.5470  -34.0070 C   0  0  0  0  0  0  0  0  0  0  0  0
   -4.4639   22.9461  -31.9635 H   0  0  0  0  0  0  0  0  0  0  0  0
   -4.5050   25.0630  -27.6450 H   0  0  0  0  0  0  0  0  0  0  0  0
   -4.7393   23.0394  -26.8423 H   0  0  0  0  0  0  0  0  0  0  0  0
   -5.4919   22.7265  -28.4632 H   0  0  0  0  0  0  0  0  0  0  0  0
   -3.8137   21.0022  -27.8884 H   0  0  0  0  0  0  0  0  0  0  0  0
   -3.3339   21.9956  -29.3419 H   0  0  0  0  0  0  0  0  0  0  0  0
   -2.2354   24.0168  -26.5399 H   0  0  0  0  0  0  0  0  0  0  0  0
   -0.8947   23.8220  -27.7717 H   0  0  0  0  0  0  0  0  0  0  0  0
   -2.4708   25.6012  -28.4240 H   0  0  0  0  0  0  0  0  0  0  0  0
   -2.4737   24.2166  -29.5831 H   0  0  0  0  0  0  0  0  0  0  0  0
   -7.6654   23.7918  -29.1741 H   0  0  0  0  0  0  0  0  0  0  0  0
   -8.9620   21.8583  -30.0663 H   0  0  0  0  0  0  0  0  0  0  0  0
   -8.2475   18.6211  -33.3504 H   0  0  0  0  0  0  0  0  0  0  0  0
   -6.7636   18.5004  -35.2186 H   0  0  0  0  0  0  0  0  0  0  0  0
   -5.2007   19.3973  -35.2150 H   0  0  0  0  0  0  0  0  0  0  0  0
   -7.0877   16.7367  -33.3066 H   0  0  0  0  0  0  0  0  0  0  0  0
   -5.9484   14.7897  -32.2383 H   0  0  0  0  0  0  0  0  0  0  0  0
   -2.1052   16.3760  -33.4322 H   0  0  0  0  0  0  0  0  0  0  0  0
   -3.2371   18.3260  -34.5002 H   0  0  0  0  0  0  0  0  0  0  0  0
  1  2  2  0
  2  3  1  0
  3  4  2  0
  4  5  1  0
  5  6  1  0
  6  7  2  0
  6  8  2  0
  6  9  1  0
  9 10  1  0
 10 11  1  0
 11 12  1  0
 12 13  1  0
 13 14  1  0
  5 15  2  0
 15 16  1  0
 16 17  2  0
 17 18  1  0
 18 19  2  0
 19 20  1  0
 20 21  1  0
 21 22  1  0
 22 23  2  0
 23 24  1  0
 24 25  2  0
 25 26  1  0
 25 27  1  0
 27 28  2  0
 20  2  1  0
 28 22  1  0
 17  3  1  0
 14  9  1  0
  4 29  1  0
  9 30  1  0
 10 31  1  0
 10 32  1  0
 11 33  1  0
 11 34  1  0
 13 35  1  0
 13 36  1  0
 14 37  1  0
 14 38  1  0
 15 39  1  0
 16 40  1  0
 19 41  1  0
 21 42  1  0
 21 43  1  0
 23 44  1  0
 24 45  1  0
 27 46  1  0
 28 47  1  0
M  CHG  1   9   1
M  END
>  <UniqueID>  (44) 
40

>  <SMILES>  (44) 
O=c1c2cc(S(=O)(=O)[NH+]3CCOCC3)ccc2ncn1Cc1ccc(F)cc1

>  <Energy>  (44) 
67.6826278809367

>  <Genealogy>  (44) 
O=c1c2cc(S(=O)(=O)[NH+]3CCOCC3)ccc2ncn1Cc1ccc(F)cc1 (protonated)
O=c1c2cc(S(=O)(=O)[NH+]3CCOCC3)ccc2ncn1Cc1ccc(F)cc1 (3D coordinates assigned)
O=c1c2cc(S(=O)(=O)[NH+]3CCOCC3)ccc2ncn1Cc1ccc(F)cc1 (nonaromatic ring conformer: 67.6826278809367 kcal/mol)

>  <smiles>  (44) 
O=c1c2cc(S(=O)(=O)N3CCOCC3)ccc2ncn1Cc1ccc(F)cc1

>  <score_type>  (44) 
oracle

>  <origin>  (44) 
adgpu

>  <m_score__min__energy>  (44) 
-8.7799999999999994

>  <m_primary>  (44) 
energy

$$$$
44:0
     RDKit          3D

 35 37  0  0  0  0  0  0  0  0999 V2000
   -2.0360   24.9160  -28.1820 C   0  0  0  0  0  0  0  0  0  0  0  0
   -2.7520   25.2900  -29.3540 O   0  0  0  0  0  0  0  0  0  0  0  0
   -3.8770   24.6110  -29.8450 C   0  0  0  0  0  0  0  0  0  0  0  0
   -4.8960   25.2610  -30.5660 C   0  0  0  0  0  0  0  0  0  0  0  0
   -5.9940   24.5390  -31.0410 C   0  0  0  0  0  0  0  0  0  0  0  0
   -6.0860   23.1560  -30.8170 C   0  0  0  0  0  0  0  0  0  0  0  0
   -7.2000   22.3970  -31.3150 N   0  0  0  0  0  0  0  0  0  0  0  0
   -8.4640   22.6800  -31.0510 N   0  0  0  0  0  0  0  0  0  0  0  0
   -9.2420   21.8460  -31.7250 N   0  0  0  0  0  0  0  0  0  0  0  0
   -8.5000   21.0080  -32.4360 N   0  0  0  0  0  0  0  0  0  0  0  0
   -7.2250   21.3510  -32.1710 C   0  0  0  0  0  0  0  0  0  0  0  0
   -6.0580   20.6220  -32.7100 C   0  0  0  0  0  0  0  0  0  0  0  0
   -4.8650   21.3260  -32.9380 C   0  0  0  0  0  0  0  0  0  0  0  0
   -3.7360   20.6650  -33.4270 C   0  0  0  0  0  0  0  0  0  0  0  0
   -3.7920   19.3000  -33.7050 C   0  0  0  0  0  0  0  0  0  0  0  0
   -4.9800   18.5920  -33.5090 C   0  0  0  0  0  0  0  0  0  0  0  0
   -6.1300   19.2460  -33.0240 C   0  0  0  0  0  0  0  0  0  0  0  0
   -7.3510   18.5700  -32.8620 O   0  0  0  0  0  0  0  0  0  0  0  0
   -7.8900   18.1630  -31.6090 C   0  0  0  0  0  0  0  0  0  0  0  0
   -5.0810   22.5140  -30.0790 C   0  0  0  0  0  0  0  0  0  0  0  0
   -3.9830   23.2360  -29.6030 C   0  0  0  0  0  0  0  0  0  0  0  0
   -2.6084   25.2150  -27.2915 H   0  0  0  0  0  0  0  0  0  0  0  0
   -1.8890   23.8259  -28.1744 H   0  0  0  0  0  0  0  0  0  0  0  0
   -1.0573   25.4181  -28.1744 H   0  0  0  0  0  0  0  0  0  0  0  0
   -4.8278   26.3422  -30.7565 H   0  0  0  0  0  0  0  0  0  0  0  0
   -6.7913   25.0574  -31.5939 H   0  0  0  0  0  0  0  0  0  0  0  0
   -4.8191   22.4052  -32.7302 H   0  0  0  0  0  0  0  0  0  0  0  0
   -2.8020   21.2218  -33.5929 H   0  0  0  0  0  0  0  0  0  0  0  0
   -2.8984   18.7793  -34.0796 H   0  0  0  0  0  0  0  0  0  0  0  0
   -5.0181   17.5161  -33.7349 H   0  0  0  0  0  0  0  0  0  0  0  0
   -7.3003   18.6083  -30.7942 H   0  0  0  0  0  0  0  0  0  0  0  0
   -8.9343   18.4999  -31.5323 H   0  0  0  0  0  0  0  0  0  0  0  0
   -7.8519   17.0663  -31.5323 H   0  0  0  0  0  0  0  0  0  0  0  0
   -5.1573   21.4360  -29.8736 H   0  0  0  0  0  0  0  0  0  0  0  0
   -3.1959   22.7199  -29.0337 H   0  0  0  0  0  0  0  0  0  0  0  0
  1  2  1  0
  2  3  1  0
  3  4  2  0
  4  5  1  0
  5  6  2  0
  6  7  1  0
  7  8  1  0
  8  9  2  0
  9 10  1  0
 10 11  2  0
 11 12  1  0
 12 13  2  0
 13 14  1  0
 14 15  2  0
 15 16  1  0
 16 17  2  0
 17 18  1  0
 18 19  1  0
  6 20  1  0
 20 21  2  0
 21  3  1  0
 11  7  1  0
 17 12  1  0
  1 22  1  0
  1 23  1  0
  1 24  1  0
  4 25  1  0
  5 26  1  0
 13 27  1  0
 14 28  1  0
 15 29  1  0
 16 30  1  0
 19 31  1  0
 19 32  1  0
 19 33  1  0
 20 34  1  0
 21 35  1  0
M  END
>  <UniqueID>  (45) 
41

>  <SMILES>  (45) 
COc1ccc(-n2nnnc2-c2ccccc2OC)cc1

>  <Energy>  (45) 
85.20992431455265

>  <Genealogy>  (45) 
COc1ccc(-n2nnnc2-c2ccccc2OC)cc1 (3D coordinates assigned)
COc1ccc(-n2nnnc2-c2ccccc2OC)cc1 (optimized conformer: 85.20992431455265 kcal/mol)

>  <smiles>  (45) 
COc1ccc(-n2nnnc2-c2ccccc2OC)cc1

>  <score_type>  (45) 
oracle

>  <origin>  (45) 
adgpu

>  <m_score__min__energy>  (45) 
-7.9199999999999999

>  <m_primary>  (45) 
energy

$$$$
45:0
     RDKit          3D

 55 59  0  0  0  0  0  0  0  0999 V2000
   -6.1020   26.0170  -29.8140 C   0  0  0  0  0  0  0  0  0  0  0  0
   -5.5130   24.7340  -30.2990 C   0  0  0  0  0  0  0  0  0  0  0  0
   -6.3350   23.7300  -30.7430 N   0  0  0  0  0  0  0  0  0  0  0  0
   -5.8390   22.5490  -31.2250 C   0  0  0  0  0  0  0  0  0  0  0  0
   -6.7380   21.5160  -31.6810 N   0  0  0  0  0  0  0  0  0  0  0  0
   -6.3590   20.6790  -32.8240 C   0  0  0  0  0  0  0  0  0  0  0  0
   -7.0560   19.3190  -32.7170 C   0  0  0  0  0  0  0  0  0  0  0  0
   -8.5390   19.4400  -32.6760 N   0  0  0  0  0  0  0  0  0  0  0  0
   -9.1220   18.2910  -31.9610 C   0  0  0  0  0  0  0  0  0  0  0  0
   -9.0360   20.7240  -32.1090 C   0  0  0  0  0  0  0  0  0  0  0  0
   -8.0710   21.3450  -31.0880 C   0  0  0  0  0  0  0  0  0  0  0  0
   -4.4490   22.4190  -31.2670 C   0  0  0  0  0  0  0  0  0  0  0  0
   -3.6950   21.4100  -31.7270 N   0  0  0  0  0  0  0  0  0  0  0  0
   -2.4280   21.8700  -31.5310 C   0  0  0  0  0  0  0  0  0  0  0  0
   -1.2270   21.0830  -31.8860 C   0  0  0  0  0  0  0  0  0  0  0  0
   -0.5740   20.2950  -30.9280 C   0  0  0  0  0  0  0  0  0  0  0  0
    0.5520   19.5490  -31.2770 C   0  0  0  0  0  0  0  0  0  0  0  0
    1.0380   19.6030  -32.5940 C   0  0  0  0  0  0  0  0  0  0  0  0
    2.1890   18.8330  -32.9960 N   0  0  0  0  0  0  0  0  0  0  0  0
    2.2100   18.1370  -34.2890 C   0  0  0  0  0  0  0  0  0  0  0  0
    3.6590   17.9250  -34.7410 C   0  0  0  0  0  0  0  0  0  0  0  0
    4.4160   17.2910  -33.7260 O   0  0  0  0  0  0  0  0  0  0  0  0
    4.5100   18.1410  -32.6000 C   0  0  0  0  0  0  0  0  0  0  0  0
    3.1300   18.3660  -31.9730 C   0  0  0  0  0  0  0  0  0  0  0  0
    0.3840   20.3700  -33.5110 N   0  0  0  0  0  0  0  0  0  0  0  0
   -0.7180   21.1010  -33.1950 C   0  0  0  0  0  0  0  0  0  0  0  0
   -2.3620   23.1160  -30.9850 N   0  0  0  0  0  0  0  0  0  0  0  0
   -3.6550   23.4250  -30.8370 C   0  0  0  0  0  0  0  0  0  0  0  0
   -4.1550   24.5880  -30.3550 N   0  0  0  0  0  0  0  0  0  0  0  0
   -6.1061   26.0259  -28.7140 H   0  0  0  0  0  0  0  0  0  0  0  0
   -5.5007   26.8600  -30.1853 H   0  0  0  0  0  0  0  0  0  0  0  0
   -7.1332   26.1105  -30.1853 H   0  0  0  0  0  0  0  0  0  0  0  0
   -6.6637   21.1743  -33.7577 H   0  0  0  0  0  0  0  0  0  0  0  0
   -5.2688   20.5323  -32.8245 H   0  0  0  0  0  0  0  0  0  0  0  0
   -6.7758   18.7095  -33.5888 H   0  0  0  0  0  0  0  0  0  0  0  0
   -6.7328   18.8510  -31.7755 H   0  0  0  0  0  0  0  0  0  0  0  0
   -8.8860   19.3840  -33.6640 H   0  0  0  0  0  0  0  0  0  0  0  0
   -9.0394   18.4539  -30.8763 H   0  0  0  0  0  0  0  0  0  0  0  0
  -10.1819   18.1871  -32.2365 H   0  0  0  0  0  0  0  0  0  0  0  0
   -8.5800   17.3743  -32.2365 H   0  0  0  0  0  0  0  0  0  0  0  0
   -9.1808   21.4380  -32.9332 H   0  0  0  0  0  0  0  0  0  0  0  0
   -9.9768   20.5076  -31.5818 H   0  0  0  0  0  0  0  0  0  0  0  0
   -8.4570   22.3263  -30.7749 H   0  0  0  0  0  0  0  0  0  0  0  0
   -7.9916   20.6751  -30.2191 H   0  0  0  0  0  0  0  0  0  0  0  0
   -0.9516   20.2647  -29.8953 H   0  0  0  0  0  0  0  0  0  0  0  0
    1.0559   18.9227  -30.5261 H   0  0  0  0  0  0  0  0  0  0  0  0
    1.7129   17.1611  -34.1865 H   0  0  0  0  0  0  0  0  0  0  0  0
    1.6814   18.7454  -35.0376 H   0  0  0  0  0  0  0  0  0  0  0  0
    3.6667   17.2953  -35.6429 H   0  0  0  0  0  0  0  0  0  0  0  0
    4.1083   18.9061  -34.9544 H   0  0  0  0  0  0  0  0  0  0  0  0
    5.1744   17.6800  -31.8543 H   0  0  0  0  0  0  0  0  0  0  0  0
    4.9136   19.1119  -32.9232 H   0  0  0  0  0  0  0  0  0  0  0  0
    2.7648   17.4206  -31.5454 H   0  0  0  0  0  0  0  0  0  0  0  0
    3.2107   19.1248  -31.1807 H   0  0  0  0  0  0  0  0  0  0  0  0
   -1.2126   21.7086  -33.9671 H   0  0  0  0  0  0  0  0  0  0  0  0
  1  2  1  0
  2  3  2  0
  3  4  1  0
  4  5  1  0
  5  6  1  0
  6  7  1  0
  7  8  1  0
  8  9  1  0
  8 10  1  0
 10 11  1  0
  4 12  2  0
 12 13  1  0
 13 14  2  0
 14 15  1  0
 15 16  2  0
 16 17  1  0
 17 18  2  0
 18 19  1  0
 19 20  1  0
 20 21  1  0
 21 22  1  0
 22 23  1  0
 23 24  1  0
 18 25  1  0
 25 26  2  0
 14 27  1  0
 27 28  1  0
 28 29  2  0
 29  2  1  0
 11  5  1  0
 28 12  1  0
 26 15  1  0
 24 19  1  0
  1 30  1  0
  1 31  1  0
  1 32  1  0
  6 33  1  0
  6 34  1  0
  7 35  1  0
  7 36  1  0
  8 37  1  0
  9 38  1  0
  9 39  1  0
  9 40  1  0
 10 41  1  0
 10 42  1  0
 11 43  1  0
 11 44  1  0
 16 45  1  0
 17 46  1  0
 20 47  1  0
 20 48  1  0
 21 49  1  0
 21 50  1  0
 23 51  1  0
 23 52  1  0
 24 53  1  0
 24 54  1  0
 26 55  1  0
M  CHG  2   8   1  27  -1
M  END
>  <UniqueID>  (46) 
42

>  <SMILES>  (46) 
Cc1nc(N2CC[NH+](C)CC2)c2nc(-c3ccc(N4CCOCC4)nc3)[n-]c2n1

>  <Energy>  (46) 
109.88403254910664

>  <Genealogy>  (46) 
Cc1nc(N2CC[NH+](C)CC2)c2nc(-c3ccc(N4CCOCC4)nc3)[n-]c2n1 (protonated)
Cc1nc(N2CC[NH+](C)CC2)c2nc(-c3ccc(N4CCOCC4)nc3)[n-]c2n1 (3D coordinates assigned)
Cc1nc(N2CC[NH+](C)CC2)c2nc(-c3ccc(N4CCOCC4)nc3)[n-]c2n1 (nonaromatic ring conformer: 109.88403254910664 kcal/mol)

>  <smiles>  (46) 
Cc1nc(N2CCN(C)CC2)c2nc(-c3ccc(N4CCOCC4)nc3)[nH]c2n1

>  <score_type>  (46) 
oracle

>  <origin>  (46) 
adgpu

>  <m_score__min__energy>  (46) 
-7.6100000000000003

>  <m_primary>  (46) 
energy

$$$$
46:0
     RDKit          3D

 48 51  0  0  0  0  0  0  0  0999 V2000
   -3.8590   25.3650  -30.6260 N   0  0  0  0  0  0  0  0  0  0  0  0
   -4.2640   23.6920  -30.4800 S   0  0  0  0  0  0  0  0  0  0  0  0
   -5.4390   23.5560  -29.5540 O   0  0  0  0  0  0  0  0  0  0  0  0
   -4.6400   23.1430  -31.8270 O   0  0  0  0  0  0  0  0  0  0  0  0
   -2.8790   22.8040  -29.8470 C   0  0  0  0  0  0  0  0  0  0  0  0
   -3.0180   21.9490  -28.7450 C   0  0  0  0  0  0  0  0  0  0  0  0
   -1.9070   21.2650  -28.2410 C   0  0  0  0  0  0  0  0  0  0  0  0
   -0.6460   21.4200  -28.8350 C   0  0  0  0  0  0  0  0  0  0  0  0
    0.4760   20.6840  -28.3160 N   0  0  0  0  0  0  0  0  0  0  0  0
    0.5910   18.9530  -28.4100 S   0  0  0  0  0  0  0  0  0  0  0  0
   -0.3460   18.3330  -27.4130 O   0  0  0  0  0  0  0  0  0  0  0  0
    1.9990   18.5360  -28.0900 O   0  0  0  0  0  0  0  0  0  0  0  0
    0.1340   18.4270  -30.0260 C   0  0  0  0  0  0  0  0  0  0  0  0
    0.2630   17.0770  -30.3710 C   0  0  0  0  0  0  0  0  0  0  0  0
   -0.2400   16.6100  -31.5850 C   0  0  0  0  0  0  0  0  0  0  0  0
   -0.8900   17.4920  -32.4670 C   0  0  0  0  0  0  0  0  0  0  0  0
   -1.5170   17.0210  -33.6710 N   0  0  0  0  0  0  0  0  0  0  0  0
   -2.7500   17.2760  -33.9970 C   0  0  0  0  0  0  0  0  0  0  0  0
   -3.5660   18.0820  -33.2850 N   0  0  0  0  0  0  0  0  0  0  0  0
   -4.7850   18.2240  -33.8690 C   0  0  0  0  0  0  0  0  0  0  0  0
   -5.8400   19.0590  -33.2400 C   0  0  0  0  0  0  0  0  0  0  0  0
   -5.7020   20.4550  -33.1150 C   0  0  0  0  0  0  0  0  0  0  0  0
   -6.7060   21.2160  -32.5090 C   0  0  0  0  0  0  0  0  0  0  0  0
   -7.8610   20.5960  -32.0230 C   0  0  0  0  0  0  0  0  0  0  0  0
   -9.1170   21.5530  -31.2580 Cl  0  0  0  0  0  0  0  0  0  0  0  0
   -8.0100   19.2130  -32.1400 C   0  0  0  0  0  0  0  0  0  0  0  0
   -7.0060   18.4470  -32.7380 C   0  0  0  0  0  0  0  0  0  0  0  0
   -4.9330   17.5210  -35.0700 C   0  0  0  0  0  0  0  0  0  0  0  0
   -3.4890   16.7120  -35.3910 S   0  0  0  0  0  0  0  0  0  0  0  0
   -0.9430   18.8570  -32.1580 C   0  0  0  0  0  0  0  0  0  0  0  0
   -0.4420   19.3230  -30.9370 C   0  0  0  0  0  0  0  0  0  0  0  0
   -0.5090   22.2940  -29.9270 C   0  0  0  0  0  0  0  0  0  0  0  0
   -1.6200   22.9740  -30.4340 C   0  0  0  0  0  0  0  0  0  0  0  0
   -3.4890   25.6740  -29.7000 H   0  0  0  0  0  0  0  0  0  0  0  0
   -4.0037   21.8156  -28.2752 H   0  0  0  0  0  0  0  0  0  0  0  0
   -2.0231   20.6005  -27.3722 H   0  0  0  0  0  0  0  0  0  0  0  0
    1.1600   21.1720  -27.6970 H   0  0  0  0  0  0  0  0  0  0  0  0
    0.7634   16.3811  -29.6816 H   0  0  0  0  0  0  0  0  0  0  0  0
   -0.1281   15.5491  -31.8535 H   0  0  0  0  0  0  0  0  0  0  0  0
   -4.7973   20.9504  -33.4971 H   0  0  0  0  0  0  0  0  0  0  0  0
   -6.5869   22.3054  -32.4143 H   0  0  0  0  0  0  0  0  0  0  0  0
   -8.9199   18.7251  -31.7605 H   0  0  0  0  0  0  0  0  0  0  0  0
   -7.1268   17.3566  -32.8177 H   0  0  0  0  0  0  0  0  0  0  0  0
   -5.8365   17.4999  -35.6971 H   0  0  0  0  0  0  0  0  0  0  0  0
   -1.3799   19.5653  -32.8774 H   0  0  0  0  0  0  0  0  0  0  0  0
   -0.5004   20.3938  -30.6920 H   0  0  0  0  0  0  0  0  0  0  0  0
    0.4794   22.4440  -30.3859 H   0  0  0  0  0  0  0  0  0  0  0  0
   -1.5043   23.6453  -31.2977 H   0  0  0  0  0  0  0  0  0  0  0  0
  1  2  1  0
  2  3  2  0
  2  4  2  0
  2  5  1  0
  5  6  2  0
  6  7  1  0
  7  8  2  0
  8  9  1  0
  9 10  1  0
 10 11  2  0
 10 12  2  0
 10 13  1  0
 13 14  2  0
 14 15  1  0
 15 16  2  0
 16 17  1  0
 17 18  2  3
 18 19  1  0
 19 20  1  0
 20 21  1  0
 21 22  2  0
 22 23  1  0
 23 24  2  0
 24 25  1  0
 24 26  1  0
 26 27  2  0
 20 28  2  0
 28 29  1  0
 16 30  1  0
 30 31  2  0
  8 32  1  0
 32 33  2  0
 33  5  1  0
 31 13  1  0
 29 18  1  0
 27 21  1  0
  1 34  1  0
  6 35  1  0
  7 36  1  0
  9 37  1  0
 14 38  1  0
 15 39  1  0
 22 40  1  0
 23 41  1  0
 26 42  1  0
 27 43  1  0
 28 44  1  0
 30 45  1  0
 31 46  1  0
 32 47  1  0
 33 48  1  0
M  CHG  2   1  -1  19  -1
M  END
>  <UniqueID>  (47) 
43

>  <SMILES>  (47) 
[NH-]S(=O)(=O)c1ccc(NS(=O)(=O)c2ccc(N=c3[n-]c(-c4ccc(Cl)cc4)cs3)cc2)cc1

>  <Energy>  (47) 
90.1807827726094

>  <Genealogy>  (47) 
[NH-]S(=O)(=O)c1ccc(NS(=O)(=O)c2ccc(N=c3[n-]c(-c4ccc(Cl)cc4)cs3)cc2)cc1 (protonated)
[NH-]S(=O)(=O)c1ccc(NS(=O)(=O)c2ccc(N=c3[n-]c(-c4ccc(Cl)cc4)cs3)cc2)cc1 (3D coordinates assigned)
[NH-]S(=O)(=O)c1ccc(NS(=O)(=O)c2ccc(N=c3[n-]c(-c4ccc(Cl)cc4)cs3)cc2)cc1 (optimized conformer: 90.1807827726094 kcal/mol)

>  <smiles>  (47) 
NS(=O)(=O)c1ccc(NS(=O)(=O)c2ccc(N=c3[nH]c(-c4ccc(Cl)cc4)cs3)cc2)cc1

>  <score_type>  (47) 
oracle

>  <origin>  (47) 
adgpu

>  <m_score__min__energy>  (47) 
-12.880000000000001

>  <m_primary>  (47) 
energy

$$$$
47:0
     RDKit          3D

 44 47  0  0  0  0  0  0  0  0999 V2000
   -3.4800   21.3100  -27.4990 N   0  0  0  0  0  0  0  0  0  0  0  0
   -2.7670   21.2330  -28.4090 C   0  0  0  0  0  0  0  0  0  0  0  0
   -1.9040   21.1400  -29.5110 N   0  0  0  0  0  0  0  0  0  0  0  0
   -2.3500   20.8070  -30.8360 C   0  0  0  0  0  0  0  0  0  0  0  0
   -3.5950   20.4530  -31.0700 N   0  0  0  0  0  0  0  0  0  0  0  0
   -4.0930   20.2360  -32.4520 C   0  0  2  0  0  0  0  0  0  0  0  0
   -4.3330   21.6610  -33.0710 C   0  0  0  0  0  0  0  0  0  0  0  0
   -5.0430   22.6730  -32.2030 C   0  0  0  0  0  0  0  0  0  0  0  0
   -6.4290   22.8790  -32.3230 C   0  0  0  0  0  0  0  0  0  0  0  0
   -7.0790   23.8090  -31.5050 C   0  0  0  0  0  0  0  0  0  0  0  0
   -6.3570   24.5250  -30.5480 C   0  0  0  0  0  0  0  0  0  0  0  0
   -4.9850   24.3070  -30.4000 C   0  0  0  0  0  0  0  0  0  0  0  0
   -4.3300   23.3800  -31.2170 C   0  0  0  0  0  0  0  0  0  0  0  0
   -5.4150   19.4600  -32.4450 C   0  0  0  0  0  0  0  0  0  0  0  0
   -6.4730   19.8330  -31.5890 C   0  0  0  0  0  0  0  0  0  0  0  0
   -7.6930   19.1550  -31.6240 C   0  0  0  0  0  0  0  0  0  0  0  0
   -7.8900   18.1120  -32.5300 C   0  0  0  0  0  0  0  0  0  0  0  0
   -6.8720   17.7580  -33.4160 C   0  0  0  0  0  0  0  0  0  0  0  0
   -5.6480   18.4340  -33.3970 C   0  0  0  0  0  0  0  0  0  0  0  0
   -4.6700   18.0700  -34.3320 O   0  0  0  0  0  0  0  0  0  0  0  0
   -3.4500   18.7840  -34.5120 C   0  0  0  0  0  0  0  0  0  0  0  0
   -2.9980   19.3870  -33.1740 C   0  0  1  0  0  0  0  0  0  0  0  0
   -1.7060   20.1640  -33.1500 C   0  0  0  0  0  0  0  0  0  0  0  0
   -0.8790   20.2100  -34.1520 N   0  0  0  0  0  0  0  0  0  0  0  0
   -1.3930   20.8250  -31.9150 N   0  0  0  0  0  0  0  0  0  0  0  0
   -0.8950   21.3610  -29.3570 H   0  0  0  0  0  0  0  0  0  0  0  0
   -4.2540   20.3650  -30.2680 H   0  0  0  0  0  0  0  0  0  0  0  0
   -3.3499   22.0794  -33.3327 H   0  0  0  0  0  0  0  0  0  0  0  0
   -5.0064   21.4929  -33.9244 H   0  0  0  0  0  0  0  0  0  0  0  0
   -7.0051   22.3056  -33.0642 H   0  0  0  0  0  0  0  0  0  0  0  0
   -8.1605   23.9766  -31.6158 H   0  0  0  0  0  0  0  0  0  0  0  0
   -6.8687   25.2610  -29.9104 H   0  0  0  0  0  0  0  0  0  0  0  0
   -4.4191   24.8653  -29.6397 H   0  0  0  0  0  0  0  0  0  0  0  0
   -3.2521   23.2026  -31.0882 H   0  0  0  0  0  0  0  0  0  0  0  0
   -6.3349   20.6677  -30.8860 H   0  0  0  0  0  0  0  0  0  0  0  0
   -8.5010   19.4437  -30.9357 H   0  0  0  0  0  0  0  0  0  0  0  0
   -8.8468   17.5696  -32.5456 H   0  0  0  0  0  0  0  0  0  0  0  0
   -7.0334   16.9411  -34.1348 H   0  0  0  0  0  0  0  0  0  0  0  0
   -2.6757   18.0963  -34.8828 H   0  0  0  0  0  0  0  0  0  0  0  0
   -3.6068   19.5931  -35.2406 H   0  0  0  0  0  0  0  0  0  0  0  0
   -2.8044   18.4546  -32.6234 H   0  0  0  0  0  0  0  0  0  0  0  0
   -1.0700   19.7310  -35.0570 H   0  0  0  0  0  0  0  0  0  0  0  0
    0.0120   20.7510  -34.0760 H   0  0  0  0  0  0  0  0  0  0  0  0
   -0.4550   21.2630  -31.7730 H   0  0  0  0  0  0  0  0  0  0  0  0
  1  2  3  0
  2  3  1  0
  3  4  1  0
  4  5  2  0
  5  6  1  0
  6  7  1  6
  7  8  1  0
  8  9  2  0
  9 10  1  0
 10 11  2  0
 11 12  1  0
 12 13  2  0
  6 14  1  0
 14 15  2  0
 15 16  1  0
 16 17  2  0
 17 18  1  0
 18 19  2  0
 19 20  1  0
 20 21  1  0
 21 22  1  0
 22 23  1  0
 23 24  2  0
 23 25  1  0
 25  4  1  0
 22  6  1  0
 13  8  1  0
 19 14  1  0
  3 26  1  0
  5 27  1  0
  7 28  1  0
  7 29  1  0
  9 30  1  0
 10 31  1  0
 11 32  1  0
 12 33  1  0
 13 34  1  0
 15 35  1  0
 16 36  1  0
 17 37  1  0
 18 38  1  0
 21 39  1  0
 21 40  1  0
 22 41  1  1
 24 42  1  0
 24 43  1  0
 25 44  1  0
M  CHG  2   5   1  24   1
M  END
>  <UniqueID>  (48) 
44

>  <SMILES>  (48) 
N#CNC1=[NH+][C@]2(Cc3ccccc3)c3ccccc3OC[C@H]2C(=[NH2+])N1

>  <Energy>  (48) 
61.85323024220214

>  <Genealogy>  (48) 
N#CNC1=[NH+]C2(Cc3ccccc3)c3ccccc3OCC2C(=[NH2+])N1 (protonated)
N#CNC1=[NH+][C@]2(Cc3ccccc3)c3ccccc3OC[C@H]2C(=[NH2+])N1 (chirality)
N#CNC1=[NH+][C@]2(Cc3ccccc3)c3ccccc3OC[C@H]2C(=[NH2+])N1 (3D coordinates assigned)
N#CNC1=[NH+][C@]2(Cc3ccccc3)c3ccccc3OC[C@H]2C(=[NH2+])N1 (nonaromatic ring conformer: 61.85323024220214 kcal/mol)

>  <smiles>  (48) 
N#CNC1=NC2(Cc3ccccc3)c3ccccc3OCC2C(=N)N1

>  <score_type>  (48) 
oracle

>  <origin>  (48) 
adgpu

>  <m_score__min__energy>  (48) 
-6.3099999999999996

>  <m_primary>  (48) 
energy

$$$$
48:0
     RDKit          3D

 29 30  0  0  0  0  0  0  0  0999 V2000
   -6.5058   25.4369  -30.0224 H   0  0  0  0  0  0  0  0  0  0  0  0
   -6.3260   24.5530  -30.6520 C   0  0  0  0  0  0  0  0  0  0  0  0
   -7.4070   23.7990  -31.1180 C   0  0  0  0  0  0  0  0  0  0  0  0
   -8.4337   24.1047  -30.8682 H   0  0  0  0  0  0  0  0  0  0  0  0
   -7.1930   22.6580  -31.9000 C   0  0  0  0  0  0  0  0  0  0  0  0
   -8.3090   21.9370  -32.3470 O   0  0  0  0  0  0  0  0  0  0  0  0
   -8.6440   20.6230  -31.9120 C   0  0  0  0  0  0  0  0  0  0  0  0
   -8.6520   20.5917  -30.8125 H   0  0  0  0  0  0  0  0  0  0  0  0
   -9.6397   20.3531  -32.2938 H   0  0  0  0  0  0  0  0  0  0  0  0
   -7.8991   19.9093  -32.2938 H   0  0  0  0  0  0  0  0  0  0  0  0
   -5.8730   22.2710  -32.2040 C   0  0  0  0  0  0  0  0  0  0  0  0
   -5.6911   21.3723  -32.8116 H   0  0  0  0  0  0  0  0  0  0  0  0
   -4.7920   23.0270  -31.7350 C   0  0  0  0  0  0  0  0  0  0  0  0
   -3.7635   22.7072  -31.9582 H   0  0  0  0  0  0  0  0  0  0  0  0
   -5.0120   24.1870  -30.9840 C   0  0  0  0  0  0  0  0  0  0  0  0
   -3.8840   24.9100  -30.4680 N   0  0  0  0  0  0  0  0  0  0  0  0
   -2.9970   24.4840  -29.6120 C   0  0  0  0  0  0  0  0  0  0  0  0
   -1.9370   25.2850  -29.3290 N   0  0  0  0  0  0  0  0  0  0  0  0
   -0.9760   24.9040  -28.4490 C   0  0  0  0  0  0  0  0  0  0  0  0
   -0.0020   25.6660  -28.2160 O   0  0  0  0  0  0  0  0  0  0  0  0
   -1.0730   23.6720  -27.8070 C   0  0  0  0  0  0  0  0  0  0  0  0
   -0.2924   23.3407  -27.1064 H   0  0  0  0  0  0  0  0  0  0  0  0
   -2.1840   22.8650  -28.0720 C   0  0  0  0  0  0  0  0  0  0  0  0
   -2.3140   21.5250  -27.4110 C   0  0  0  0  0  0  0  0  0  0  0  0
   -2.3016   21.6523  -26.3185 H   0  0  0  0  0  0  0  0  0  0  0  0
   -3.2618   21.0567  -27.7149 H   0  0  0  0  0  0  0  0  0  0  0  0
   -1.4739   20.8832  -27.7149 H   0  0  0  0  0  0  0  0  0  0  0  0
   -3.1210   23.2790  -28.9730 N   0  0  0  0  0  0  0  0  0  0  0  0
   -3.9530   22.6690  -29.1330 H   0  0  0  0  0  0  0  0  0  0  0  0
  1  2  1  0
  2  3  2  0
  3  4  1  0
  3  5  1  0
  5  6  1  0
  6  7  1  0
  7  8  1  0
  7  9  1  0
  7 10  1  0
  5 11  2  0
 11 12  1  0
 11 13  1  0
 13 14  1  0
 13 15  2  0
 15 16  1  0
 16 17  2  0
 17 18  1  0
 18 19  1  0
 19 20  2  0
 19 21  1  0
 21 22  1  0
 21 23  2  0
 23 24  1  0
 24 25  1  0
 24 26  1  0
 24 27  1  0
 23 28  1  0
 28 29  1  0
 15  2  1  0
 28 17  1  0
M  CHG  1  18  -1
M  END
>  <UniqueID>  (49) 
45

>  <SMILES>  (49) 
COc1ccc(/N=c2/[n-]c(=O)cc(C)[nH]2)cc1

>  <Energy>  (49) 
37.56447324787846

>  <Genealogy>  (49) 
COc1ccc(N=c2[n-]c(=O)cc(C)[nH]2)cc1 (protonated)
COc1ccc(/N=c2/[n-]c(=O)cc(C)[nH]2)cc1 (cis-trans isomerization)
COc1ccc(/N=c2/[n-]c(=O)cc(C)[nH]2)cc1 (3D coordinates assigned)
COc1ccc(/N=c2/[n-]c(=O)cc(C)[nH]2)cc1 (optimized conformer: 37.56447324787846 kcal/mol)

>  <smiles>  (49) 
COc1ccc(N=c2[nH]c(C)cc(=O)[nH]2)cc1

>  <score_type>  (49) 
oracle

>  <origin>  (49) 
adgpu

>  <m_score__min__energy>  (49) 
-7.5800000000000001

>  <m_primary>  (49) 
energy

$$$$
49:0
     RDKit          3D

 47 50  0  0  0  0  0  0  0  0999 V2000
    0.5450   17.9500  -31.4760 C   0  0  0  0  0  0  0  0  0  0  0  0
    0.6910   19.3590  -31.6070 O   0  0  0  0  0  0  0  0  0  0  0  0
   -0.3600   20.2780  -31.4680 C   0  0  0  0  0  0  0  0  0  0  0  0
   -1.5300   20.0740  -32.2320 C   0  0  0  0  0  0  0  0  0  0  0  0
   -2.6200   20.9560  -32.1310 C   0  0  0  0  0  0  0  0  0  0  0  0
   -2.5250   22.0420  -31.2620 C   0  0  0  0  0  0  0  0  0  0  0  0
   -3.5030   22.9610  -31.0800 N   0  0  0  0  0  0  0  0  0  0  0  0
   -3.1130   23.9100  -30.1920 C   0  0  0  0  0  0  0  0  0  0  0  0
   -3.8570   24.9120  -29.8240 N   0  0  0  0  0  0  0  0  0  0  0  0
   -5.1630   25.2210  -30.3410 C   0  0  0  0  0  0  0  0  0  0  0  0
   -5.4930   26.4280  -30.4750 O   0  0  0  0  0  0  0  0  0  0  0  0
   -6.1160   24.1630  -30.7400 C   0  0  0  0  0  0  0  0  0  0  0  0
   -6.7540   23.3860  -29.7620 C   0  0  0  0  0  0  0  0  0  0  0  0
   -7.5520   22.3010  -30.1370 C   0  0  0  0  0  0  0  0  0  0  0  0
   -7.7340   21.9950  -31.4940 C   0  0  0  0  0  0  0  0  0  0  0  0
   -8.6340   20.5540  -31.9680 S   0  0  0  0  0  0  0  0  0  0  0  0
   -9.8870   20.9720  -32.6870 O   0  0  0  0  0  0  0  0  0  0  0  0
   -9.0370   19.7920  -30.7360 O   0  0  0  0  0  0  0  0  0  0  0  0
   -7.6860   19.5160  -33.0050 N   0  0  0  0  0  0  0  0  0  0  0  0
   -6.2730   19.9230  -32.9950 C   0  0  0  0  0  0  0  0  0  0  0  0
   -5.4480   18.9940  -33.9100 C   0  0  0  0  0  0  0  0  0  0  0  0
   -6.2280   17.9340  -34.4360 O   0  0  0  0  0  0  0  0  0  0  0  0
   -6.8370   17.2170  -33.3800 C   0  0  0  0  0  0  0  0  0  0  0  0
   -7.8080   18.1120  -32.5810 C   0  0  0  0  0  0  0  0  0  0  0  0
   -7.1510   22.8120  -32.4710 C   0  0  0  0  0  0  0  0  0  0  0  0
   -6.3470   23.8900  -32.0970 C   0  0  0  0  0  0  0  0  0  0  0  0
   -1.5590   23.6320  -29.5830 S   0  0  0  0  0  0  0  0  0  0  0  0
   -1.3760   22.2470  -30.5180 C   0  0  0  0  0  0  0  0  0  0  0  0
   -0.2820   21.3870  -30.5940 C   0  0  0  0  0  0  0  0  0  0  0  0
    0.5172   17.6818  -30.4096 H   0  0  0  0  0  0  0  0  0  0  0  0
   -0.3909   17.6319  -31.9586 H   0  0  0  0  0  0  0  0  0  0  0  0
    1.3958   17.4468  -31.9586 H   0  0  0  0  0  0  0  0  0  0  0  0
   -1.5892   19.2138  -32.9150 H   0  0  0  0  0  0  0  0  0  0  0  0
   -3.5304   20.7924  -32.7262 H   0  0  0  0  0  0  0  0  0  0  0  0
   -6.6262   23.6309  -28.6973 H   0  0  0  0  0  0  0  0  0  0  0  0
   -8.0385   21.6856  -29.3659 H   0  0  0  0  0  0  0  0  0  0  0  0
   -6.1899   20.9583  -33.3574 H   0  0  0  0  0  0  0  0  0  0  0  0
   -5.8854   19.8541  -31.9679 H   0  0  0  0  0  0  0  0  0  0  0  0
   -5.0444   19.5856  -34.7449 H   0  0  0  0  0  0  0  0  0  0  0  0
   -4.6409   18.5534  -33.3063 H   0  0  0  0  0  0  0  0  0  0  0  0
   -7.3957   16.3673  -33.7993 H   0  0  0  0  0  0  0  0  0  0  0  0
   -6.0481   16.8659  -32.6985 H   0  0  0  0  0  0  0  0  0  0  0  0
   -8.8393   17.7706  -32.7535 H   0  0  0  0  0  0  0  0  0  0  0  0
   -7.5575   18.0412  -31.5122 H   0  0  0  0  0  0  0  0  0  0  0  0
   -7.3273   22.6034  -33.5365 H   0  0  0  0  0  0  0  0  0  0  0  0
   -5.8926   24.5282  -32.8692 H   0  0  0  0  0  0  0  0  0  0  0  0
    0.6193   21.5663  -29.9895 H   0  0  0  0  0  0  0  0  0  0  0  0
  1  2  1  0
  2  3  1  0
  3  4  2  0
  4  5  1  0
  5  6  2  0
  6  7  1  0
  7  8  1  0
  8  9  2  3
  9 10  1  0
 10 11  2  0
 10 12  1  0
 12 13  2  0
 13 14  1  0
 14 15  2  0
 15 16  1  0
 16 17  2  0
 16 18  2  0
 16 19  1  0
 19 20  1  0
 20 21  1  0
 21 22  1  0
 22 23  1  0
 23 24  1  0
 15 25  1  0
 25 26  2  0
  8 27  1  0
 27 28  1  0
 28 29  2  0
 29  3  1  0
 28  6  1  0
 26 12  1  0
 24 19  1  0
  1 30  1  0
  1 31  1  0
  1 32  1  0
  4 33  1  0
  5 34  1  0
 13 35  1  0
 14 36  1  0
 20 37  1  0
 20 38  1  0
 21 39  1  0
 21 40  1  0
 23 41  1  0
 23 42  1  0
 24 43  1  0
 24 44  1  0
 25 45  1  0
 26 46  1  0
 29 47  1  0
M  CHG  1   7  -1
M  END
>  <UniqueID>  (50) 
46

>  <SMILES>  (50) 
COc1ccc2[n-]c(=NC(=O)c3ccc(S(=O)(=O)N4CCOCC4)cc3)sc2c1

>  <Energy>  (50) 
97.37663405377293

>  <Genealogy>  (50) 
COc1ccc2[n-]c(=NC(=O)c3ccc(S(=O)(=O)N4CCOCC4)cc3)sc2c1 (protonated)
COc1ccc2[n-]c(=NC(=O)c3ccc(S(=O)(=O)N4CCOCC4)cc3)sc2c1 (3D coordinates assigned)
COc1ccc2[n-]c(=NC(=O)c3ccc(S(=O)(=O)N4CCOCC4)cc3)sc2c1 (nonaromatic ring conformer: 97.37663405377293 kcal/mol)

>  <smiles>  (50) 
COc1ccc2[nH]c(=NC(=O)c3ccc(S(=O)(=O)N4CCOCC4)cc3)sc2c1

>  <score_type>  (50) 
oracle

>  <origin>  (50) 
adgpu

>  <m_score__min__energy>  (50) 
-10.529999999999999

>  <m_primary>  (50) 
energy

$$$$
