0:0
     RDKit          3D

 57 60  0  0  0  0  0  0  0  0999 V2000
   -3.6970   16.1460  -33.5310 C   0  0  0  0  0  0  0  0  0  0  0  0
   -4.9910   16.8140  -33.7190 N   0  0  0  0  0  0  0  0  0  0  0  0
   -4.7750   18.2140  -34.1420 C   0  0  0  0  0  0  0  0  0  0  0  0
   -6.1140   18.9120  -34.3890 C   0  0  0  0  0  0  0  0  0  0  0  0
   -6.9720   18.7560  -33.2130 N   0  0  0  0  0  0  0  0  0  0  0  0
   -7.6470   19.8940  -32.6460 C   0  0  0  0  0  0  0  0  0  0  0  0
   -9.0520   19.9120  -32.6240 C   0  0  0  0  0  0  0  0  0  0  0  0
   -9.7380   20.9860  -32.0530 C   0  0  0  0  0  0  0  0  0  0  0  0
   -9.0280   22.0430  -31.4850 C   0  0  0  0  0  0  0  0  0  0  0  0
   -7.6300   22.0380  -31.5000 C   0  0  0  0  0  0  0  0  0  0  0  0
   -6.9290   20.9610  -32.0760 C   0  0  0  0  0  0  0  0  0  0  0  0
   -5.4880   20.9650  -32.1250 N   0  0  0  0  0  0  0  0  0  0  0  0
   -4.7030   22.1260  -32.4150 C   0  0  0  0  0  0  0  0  0  0  0  0
   -3.9750   22.1310  -33.4530 O   0  0  0  0  0  0  0  0  0  0  0  0
   -4.7730   23.3150  -31.6120 N   0  0  0  0  0  0  0  0  0  0  0  0
   -4.2150   23.5720  -30.3100 C   0  0  0  0  0  0  0  0  0  0  0  0
   -4.5630   22.7200  -29.2590 C   0  0  0  0  0  0  0  0  0  0  0  0
   -3.9300   22.8330  -28.0140 C   0  0  0  0  0  0  0  0  0  0  0  0
   -2.9630   23.8170  -27.8020 C   0  0  0  0  0  0  0  0  0  0  0  0
   -2.6730   24.7390  -28.8120 C   0  0  0  0  0  0  0  0  0  0  0  0
   -1.6540   25.7250  -28.5930 N   0  0  0  0  0  0  0  0  0  0  0  0
   -0.4780   25.5160  -27.8000 C   0  0  0  0  0  0  0  0  0  0  0  0
    0.4280   24.7440  -28.2150 O   0  0  0  0  0  0  0  0  0  0  0  0
   -0.3480   26.1530  -26.4710 C   0  0  0  0  0  0  0  0  0  0  0  0
    0.9350   26.5540  -26.0390 C   0  0  0  0  0  0  0  0  0  0  0  0
    1.1370   27.0130  -24.7300 C   0  0  0  0  0  0  0  0  0  0  0  0
    0.0660   27.0760  -23.8380 C   0  0  0  0  0  0  0  0  0  0  0  0
   -1.2160   26.7090  -24.2590 C   0  0  0  0  0  0  0  0  0  0  0  0
   -1.4420   26.2820  -25.5740 C   0  0  0  0  0  0  0  0  0  0  0  0
   -2.7640   26.0280  -25.9530 O   0  0  0  0  0  0  0  0  0  0  0  0
   -3.3050   24.6190  -30.0630 C   0  0  0  0  0  0  0  0  0  0  0  0
   -7.1380   17.4120  -32.6550 C   0  0  0  0  0  0  0  0  0  0  0  0
   -5.7600   16.7650  -32.4630 C   0  0  0  0  0  0  0  0  0  0  0  0
   -3.4919   16.0401  -32.4555 H   0  0  0  0  0  0  0  0  0  0  0  0
   -3.7269   15.1507  -33.9983 H   0  0  0  0  0  0  0  0  0  0  0  0
   -2.9029   16.7468  -33.9983 H   0  0  0  0  0  0  0  0  0  0  0  0
   -4.2275   18.7502  -33.3529 H   0  0  0  0  0  0  0  0  0  0  0  0
   -4.1943   18.2177  -35.0762 H   0  0  0  0  0  0  0  0  0  0  0  0
   -5.9403   19.9819  -34.5764 H   0  0  0  0  0  0  0  0  0  0  0  0
   -6.6060   18.4608  -35.2633 H   0  0  0  0  0  0  0  0  0  0  0  0
   -9.6156   19.0739  -33.0598 H   0  0  0  0  0  0  0  0  0  0  0  0
  -10.8379   20.9981  -32.0513 H   0  0  0  0  0  0  0  0  0  0  0  0
   -9.5689   22.8826  -31.0241 H   0  0  0  0  0  0  0  0  0  0  0  0
   -7.0749   22.8795  -31.0597 H   0  0  0  0  0  0  0  0  0  0  0  0
   -5.3392   21.9553  -29.4098 H   0  0  0  0  0  0  0  0  0  0  0  0
   -4.1964   22.1430  -27.1998 H   0  0  0  0  0  0  0  0  0  0  0  0
   -2.4297   23.8669  -26.8412 H   0  0  0  0  0  0  0  0  0  0  0  0
    1.7843   26.5058  -26.7364 H   0  0  0  0  0  0  0  0  0  0  0  0
    2.1411   27.3239  -24.4057 H   0  0  0  0  0  0  0  0  0  0  0  0
    0.2300   27.4142  -22.8042 H   0  0  0  0  0  0  0  0  0  0  0  0
   -2.0559   26.7561  -23.5502 H   0  0  0  0  0  0  0  0  0  0  0  0
   -3.0650   26.0290  -26.9230 H   0  0  0  0  0  0  0  0  0  0  0  0
   -3.0867   25.3495  -30.8559 H   0  0  0  0  0  0  0  0  0  0  0  0
   -7.6504   17.4787  -31.6839 H   0  0  0  0  0  0  0  0  0  0  0  0
   -7.7380   16.7999  -33.3445 H   0  0  0  0  0  0  0  0  0  0  0  0
   -5.2104   17.3079  -31.6799 H   0  0  0  0  0  0  0  0  0  0  0  0
   -5.8968   15.7140  -32.1687 H   0  0  0  0  0  0  0  0  0  0  0  0
  1  2  1  0
  2  3  1  0
  3  4  1  0
  4  5  1  0
  5  6  1  0
  6  7  2  0
  7  8  1  0
  8  9  2  0
  9 10  1  0
 10 11  2  0
 11 12  1  0
 12 13  1  0
 13 14  2  0
 13 15  1  0
 15 16  1  0
 16 17  2  0
 17 18  1  0
 18 19  2  0
 19 20  1  0
 20 21  1  0
 21 22  1  0
 22 23  2  0
 22 24  1  0
 24 25  2  0
 25 26  1  0
 26 27  2  0
 27 28  1  0
 28 29  2  0
 29 30  1  0
 20 31  2  0
  5 32  1  0
 32 33  1  0
 33  2  1  0
 11  6  1  0
 31 16  1  0
 29 24  1  0
  1 34  1  0
  1 35  1  0
  1 36  1  0
  3 37  1  0
  3 38  1  0
  4 39  1  0
  4 40  1  0
  7 41  1  0
  8 42  1  0
  9 43  1  0
 10 44  1  0
 17 45  1  0
 18 46  1  0
 19 47  1  0
 25 48  1  0
 26 49  1  0
 27 50  1  0
 28 51  1  0
 30 52  1  0
 31 53  1  0
 32 54  1  0
 32 55  1  0
 33 56  1  0
 33 57  1  0
M  CHG  3  12  -1  15  -1  21  -1
M  END
>  <UniqueID>  (1) 
1

>  <SMILES>  (1) 
CN1CCN(c2ccccc2[N-]C(=O)[N-]c2cccc([N-]C(=O)c3ccccc3O)c2)CC1

>  <Energy>  (1) 
84.42718798235157

>  <Genealogy>  (1) 
CN1CCN(c2ccccc2[N-]C(=O)[N-]c2cccc([N-]C(=O)c3ccccc3O)c2)CC1 (protonated)
CN1CCN(c2ccccc2[N-]C(=O)[N-]c2cccc([N-]C(=O)c3ccccc3O)c2)CC1 (3D coordinates assigned)
CN1CCN(c2ccccc2[N-]C(=O)[N-]c2cccc([N-]C(=O)c3ccccc3O)c2)CC1 (nonaromatic ring conformer: 84.42718798235157 kcal/mol)

>  <smiles>  (1) 
CN1CCN(c2ccccc2NC(=O)Nc2cccc(NC(=O)c3ccccc3O)c2)CC1

>  <score_type>  (1) 
oracle

>  <origin>  (1) 
adgpu

>  <m_score__min__energy>  (1) 
-12.02

>  <m_primary>  (1) 
energy

$$$$
1:0
     RDKit          3D

 55 58  0  0  0  0  0  0  0  0999 V2000
   -5.8590   25.3970  -29.0090 O   0  0  0  0  0  0  0  0  0  0  0  0
   -5.4010   25.1920  -30.4270 S   0  0  0  0  0  0  0  0  0  0  0  0
   -5.7360   26.4290  -31.2150 O   0  0  0  0  0  0  0  0  0  0  0  0
   -3.6830   24.9400  -30.4620 N   0  0  0  0  0  0  0  0  0  0  0  0
   -2.9340   24.1730  -29.5080 C   0  0  0  0  0  0  0  0  0  0  0  0
   -3.3150   22.8700  -29.1370 C   0  0  0  0  0  0  0  0  0  0  0  0
   -2.5570   22.1390  -28.2120 C   0  0  0  0  0  0  0  0  0  0  0  0
   -1.4260   22.7430  -27.6030 C   0  0  0  0  0  0  0  0  0  0  0  0
   -1.0290   24.0240  -28.0060 C   0  0  0  0  0  0  0  0  0  0  0  0
   -1.7740   24.7350  -28.9510 C   0  0  0  0  0  0  0  0  0  0  0  0
   -1.3490   26.0040  -29.3410 O   0  0  0  0  0  0  0  0  0  0  0  0
   -0.5670   21.9870  -26.6140 C   0  0  0  0  0  0  0  0  0  0  0  0
   -1.2610   20.7480  -26.0370 C   0  0  0  0  0  0  0  0  0  0  0  0
   -1.9300   19.9370  -27.1480 C   0  0  0  0  0  0  0  0  0  0  0  0
   -3.0370   20.7640  -27.8060 C   0  0  0  0  0  0  0  0  0  0  0  0
   -6.2100   23.8130  -31.1620 C   0  0  0  0  0  0  0  0  0  0  0  0
   -7.6030   23.7750  -31.2760 C   0  0  0  0  0  0  0  0  0  0  0  0
   -8.2330   22.6510  -31.8150 C   0  0  0  0  0  0  0  0  0  0  0  0
   -7.4770   21.5590  -32.2580 C   0  0  0  0  0  0  0  0  0  0  0  0
   -8.1230   20.4400  -32.7790 O   0  0  0  0  0  0  0  0  0  0  0  0
   -6.0730   21.6000  -32.1670 C   0  0  0  0  0  0  0  0  0  0  0  0
   -5.0490   20.2660  -32.7130 S   0  0  0  0  0  0  0  0  0  0  0  0
   -4.1380   20.6960  -33.8290 O   0  0  0  0  0  0  0  0  0  0  0  0
   -4.2070   19.8190  -31.5530 O   0  0  0  0  0  0  0  0  0  0  0  0
   -6.0410   18.9360  -33.2600 N   0  0  0  0  0  0  0  0  0  0  0  0
   -5.3520   18.2060  -34.3490 C   0  0  0  0  0  0  0  0  0  0  0  0
   -5.9940   16.8380  -34.6020 C   0  0  0  0  0  0  0  0  0  0  0  0
   -5.9400   15.9390  -33.3530 C   0  0  0  0  0  0  0  0  0  0  0  0
   -5.7410   16.7350  -32.0530 C   0  0  0  0  0  0  0  0  0  0  0  0
   -6.4710   18.0870  -32.1150 C   0  0  0  0  0  0  0  0  0  0  0  0
   -5.4500   22.7290  -31.6110 C   0  0  0  0  0  0  0  0  0  0  0  0
   -4.2171   22.4205  -29.5776 H   0  0  0  0  0  0  0  0  0  0  0  0
   -0.1228   24.4747  -27.5750 H   0  0  0  0  0  0  0  0  0  0  0  0
    0.3538   21.6668  -27.1235 H   0  0  0  0  0  0  0  0  0  0  0  0
   -0.3589   22.6666  -25.7744 H   0  0  0  0  0  0  0  0  0  0  0  0
   -0.5144   20.1190  -25.5302 H   0  0  0  0  0  0  0  0  0  0  0  0
   -2.0322   21.0744  -25.3237 H   0  0  0  0  0  0  0  0  0  0  0  0
   -1.1787   19.6667  -27.9046 H   0  0  0  0  0  0  0  0  0  0  0  0
   -2.3688   19.0257  -26.7156 H   0  0  0  0  0  0  0  0  0  0  0  0
   -3.3908   20.2332  -28.7022 H   0  0  0  0  0  0  0  0  0  0  0  0
   -3.8457   20.8916  -27.0713 H   0  0  0  0  0  0  0  0  0  0  0  0
   -8.2044   24.6327  -30.9403 H   0  0  0  0  0  0  0  0  0  0  0  0
   -9.3300   22.6236  -31.8919 H   0  0  0  0  0  0  0  0  0  0  0  0
   -7.8610   20.0390  -33.6710 H   0  0  0  0  0  0  0  0  0  0  0  0
   -5.4083   18.8032  -35.2710 H   0  0  0  0  0  0  0  0  0  0  0  0
   -4.3058   18.0461  -34.0492 H   0  0  0  0  0  0  0  0  0  0  0  0
   -7.0457   16.9861  -34.8884 H   0  0  0  0  0  0  0  0  0  0  0  0
   -5.4308   16.3402  -35.4051 H   0  0  0  0  0  0  0  0  0  0  0  0
   -6.8847   15.3800  -33.2815 H   0  0  0  0  0  0  0  0  0  0  0  0
   -5.0757   15.2680  -33.4656 H   0  0  0  0  0  0  0  0  0  0  0  0
   -6.1377   16.1508  -31.2096 H   0  0  0  0  0  0  0  0  0  0  0  0
   -4.6656   16.9242  -31.9201 H   0  0  0  0  0  0  0  0  0  0  0  0
   -7.5506   17.8971  -32.2071 H   0  0  0  0  0  0  0  0  0  0  0  0
   -6.2237   18.6336  -31.1930 H   0  0  0  0  0  0  0  0  0  0  0  0
   -4.3536   22.7607  -31.5280 H   0  0  0  0  0  0  0  0  0  0  0  0
  1  2  2  0
  2  3  2  0
  2  4  1  0
  4  5  1  0
  5  6  2  0
  6  7  1  0
  7  8  2  0
  8  9  1  0
  9 10  2  0
 10 11  1  0
  8 12  1  0
 12 13  1  0
 13 14  1  0
 14 15  1  0
  2 16  1  0
 16 17  2  0
 17 18  1  0
 18 19  2  0
 19 20  1  0
 19 21  1  0
 21 22  1  0
 22 23  2  0
 22 24  2  0
 22 25  1  0
 25 26  1  0
 26 27  1  0
 27 28  1  0
 28 29  1  0
 29 30  1  0
 21 31  2  0
 10  5  1  0
 31 16  1  0
 15  7  1  0
 30 25  1  0
  6 32  1  0
  9 33  1  0
 12 34  1  0
 12 35  1  0
 13 36  1  0
 13 37  1  0
 14 38  1  0
 14 39  1  0
 15 40  1  0
 15 41  1  0
 17 42  1  0
 18 43  1  0
 20 44  1  0
 26 45  1  0
 26 46  1  0
 27 47  1  0
 27 48  1  0
 28 49  1  0
 28 50  1  0
 29 51  1  0
 29 52  1  0
 30 53  1  0
 30 54  1  0
 31 55  1  0
M  CHG  2   4  -1  11  -1
M  END
>  <UniqueID>  (2) 
2

>  <SMILES>  (2) 
O=S(=O)([N-]c1cc2c(cc1[O-])CCCC2)c1ccc(O)c(S(=O)(=O)N2CCCCC2)c1

>  <Energy>  (2) 
65.9188129079198

>  <Genealogy>  (2) 
O=S(=O)([N-]c1cc2c(cc1[O-])CCCC2)c1ccc(O)c(S(=O)(=O)N2CCCCC2)c1 (protonated)
O=S(=O)([N-]c1cc2c(cc1[O-])CCCC2)c1ccc(O)c(S(=O)(=O)N2CCCCC2)c1 (3D coordinates assigned)
O=S(=O)([N-]c1cc2c(cc1[O-])CCCC2)c1ccc(O)c(S(=O)(=O)N2CCCCC2)c1 (nonaromatic ring conformer: 65.9188129079198 kcal/mol)

>  <smiles>  (2) 
O=S(=O)(Nc1cc2c(cc1O)CCCC2)c1ccc(O)c(S(=O)(=O)N2CCCCC2)c1

>  <score_type>  (2) 
oracle

>  <origin>  (2) 
adgpu

>  <m_score__min__energy>  (2) 
-15.19

>  <m_primary>  (2) 
energy

$$$$
2:0
     RDKit          3D

 38 40  0  0  0  0  0  0  0  0999 V2000
   -2.7250   24.9300  -29.6820 N   0  0  0  0  0  0  0  0  0  0  0  0
   -4.4070   24.7440  -30.0300 S   0  0  0  0  0  0  0  0  0  0  0  0
   -5.1840   24.6700  -28.7460 O   0  0  0  0  0  0  0  0  0  0  0  0
   -4.8800   25.9290  -30.8250 O   0  0  0  0  0  0  0  0  0  0  0  0
   -4.6600   23.2750  -30.9550 C   0  0  0  0  0  0  0  0  0  0  0  0
   -3.5700   22.5790  -31.4850 C   0  0  0  0  0  0  0  0  0  0  0  0
   -3.7920   21.4050  -32.2090 C   0  0  0  0  0  0  0  0  0  0  0  0
   -2.4310   20.4860  -32.8380 S   0  0  0  0  0  0  0  0  0  0  0  0
   -1.4460   20.2140  -31.7340 O   0  0  0  0  0  0  0  0  0  0  0  0
   -1.7270   21.2750  -33.9060 O   0  0  0  0  0  0  0  0  0  0  0  0
   -3.0240   18.9710  -33.5040 C   0  0  0  0  0  0  0  0  0  0  0  0
   -2.2870   17.7890  -33.3340 C   0  0  0  0  0  0  0  0  0  0  0  0
   -2.7690   16.5820  -33.8450 C   0  0  0  0  0  0  0  0  0  0  0  0
   -3.9910   16.5450  -34.5220 C   0  0  0  0  0  0  0  0  0  0  0  0
   -4.7380   17.7200  -34.6860 C   0  0  0  0  0  0  0  0  0  0  0  0
   -5.9610   17.6960  -35.3550 O   0  0  0  0  0  0  0  0  0  0  0  0
   -4.2540   18.9300  -34.1750 C   0  0  0  0  0  0  0  0  0  0  0  0
   -5.1010   20.9410  -32.3890 C   0  0  0  0  0  0  0  0  0  0  0  0
   -6.1760   21.6740  -31.8610 C   0  0  0  0  0  0  0  0  0  0  0  0
   -7.5350   21.2300  -32.0130 N   0  0  0  0  0  0  0  0  0  0  0  0
   -8.7010   21.9790  -31.5600 C   0  0  0  0  0  0  0  0  0  0  0  0
   -9.9280   21.1280  -31.9630 C   0  0  0  0  0  0  0  0  0  0  0  0
   -9.4160   19.9980  -32.7280 N   0  0  0  0  0  0  0  0  0  0  0  0
   -8.0100   20.1030  -32.7280 C   0  0  0  0  0  0  0  0  0  0  0  0
   -7.2700   19.3050  -33.3620 O   0  0  0  0  0  0  0  0  0  0  0  0
   -5.9220   22.8090  -31.1520 N   0  0  0  0  0  0  0  0  0  0  0  0
   -2.6310   25.7730  -29.0710 H   0  0  0  0  0  0  0  0  0  0  0  0
   -2.5464   22.9523  -31.3334 H   0  0  0  0  0  0  0  0  0  0  0  0
   -1.3273   17.8132  -32.7969 H   0  0  0  0  0  0  0  0  0  0  0  0
   -2.1857   15.6586  -33.7144 H   0  0  0  0  0  0  0  0  0  0  0  0
   -4.3669   15.5936  -34.9264 H   0  0  0  0  0  0  0  0  0  0  0  0
   -6.6360   18.4430  -35.2500 H   0  0  0  0  0  0  0  0  0  0  0  0
   -4.8409   19.8518  -34.3004 H   0  0  0  0  0  0  0  0  0  0  0  0
   -5.2860   20.0076  -32.9409 H   0  0  0  0  0  0  0  0  0  0  0  0
   -8.6698   22.1141  -30.4688 H   0  0  0  0  0  0  0  0  0  0  0  0
   -8.7381   22.9826  -32.0087 H   0  0  0  0  0  0  0  0  0  0  0  0
  -10.4544   20.7716  -31.0653 H   0  0  0  0  0  0  0  0  0  0  0  0
  -10.6431   21.7175  -32.5555 H   0  0  0  0  0  0  0  0  0  0  0  0
  1  2  1  0
  2  3  2  0
  2  4  2  0
  2  5  1  0
  5  6  2  0
  6  7  1  0
  7  8  1  0
  8  9  2  0
  8 10  2  0
  8 11  1  0
 11 12  2  0
 12 13  1  0
 13 14  2  0
 14 15  1  0
 15 16  1  0
 15 17  2  0
  7 18  2  0
 18 19  1  0
 19 20  1  0
 20 21  1  0
 21 22  1  0
 22 23  1  0
 23 24  1  0
 24 25  2  0
 19 26  2  0
 26  5  1  0
 17 11  1  0
 24 20  1  0
  1 27  1  0
  6 28  1  0
 12 29  1  0
 13 30  1  0
 14 31  1  0
 16 32  1  0
 17 33  1  0
 18 34  1  0
 21 35  1  0
 21 36  1  0
 22 37  1  0
 22 38  1  0
M  CHG  2   1  -1  23  -1
M  END
>  <UniqueID>  (3) 
3

>  <SMILES>  (3) 
[NH-]S(=O)(=O)c1cc(S(=O)(=O)c2cccc(O)c2)cc(N2CC[N-]C2=O)n1

>  <Energy>  (3) 
57.26625356199076

>  <Genealogy>  (3) 
[NH-]S(=O)(=O)c1cc(S(=O)(=O)c2cccc(O)c2)cc(N2CC[N-]C2=O)n1 (protonated)
[NH-]S(=O)(=O)c1cc(S(=O)(=O)c2cccc(O)c2)cc(N2CC[N-]C2=O)n1 (3D coordinates assigned)
[NH-]S(=O)(=O)c1cc(S(=O)(=O)c2cccc(O)c2)cc(N2CC[N-]C2=O)n1 (nonaromatic ring conformer: 57.26625356199076 kcal/mol)

>  <smiles>  (3) 
NS(=O)(=O)c1cc(S(=O)(=O)c2cccc(O)c2)cc(N2CCNC2=O)n1

>  <score_type>  (3) 
oracle

>  <origin>  (3) 
adgpu

>  <m_score__min__energy>  (3) 
-10.970000000000001

>  <m_primary>  (3) 
energy

$$$$
3:0
     RDKit          3D

 76 79  0  0  1  0  0  0  0  0999 V2000
   -7.3790   18.1920  -31.2990 C   0  0  0  0  0  0  0  0  0  0  0  0
   -8.7560   18.8110  -31.2700 C   0  0  0  0  0  0  0  0  0  0  0  0
   -8.7180   20.1270  -31.7860 N   0  0  0  0  0  0  0  0  0  0  0  0
   -8.5580   21.1390  -30.7750 C   0  0  0  0  0  0  0  0  0  0  0  0
   -7.8630   22.3370  -31.3620 C   0  0  0  0  0  0  0  0  0  0  0  0
   -8.3000   20.4190  -33.0600 C   0  0  0  0  0  0  0  0  0  0  0  0
   -7.2240   19.8160  -33.8410 C   0  0  0  0  0  0  0  0  0  0  0  0
   -5.5260   20.1940  -33.5560 S   0  0  0  0  0  0  0  0  0  0  0  0
   -4.3430   18.9240  -33.8480 C   0  0  0  0  0  0  0  0  0  0  0  0
   -4.2440   18.1490  -34.9700 C   0  0  0  0  0  0  0  0  0  0  0  0
   -3.3220   17.1530  -35.1610 C   0  0  0  0  0  0  0  0  0  0  0  0
   -2.4130   16.8910  -34.1600 C   0  0  0  0  0  0  0  0  0  0  0  0
   -2.4690   17.6420  -33.0090 C   0  0  0  0  0  0  0  0  0  0  0  0
   -3.4210   18.6580  -32.8310 C   0  0  0  0  0  0  0  0  0  0  0  0
   -3.4070   19.3300  -31.5950 N   0  0  0  0  0  0  0  0  0  0  0  0
   -2.8150   20.3920  -31.2730 C   0  0  0  0  0  0  0  0  0  0  0  0
   -2.9310   20.8690  -30.0310 N   0  0  0  0  0  0  0  0  0  0  0  0
   -2.2900   22.0150  -29.6580 C   0  0  0  0  0  0  0  0  0  0  0  0
   -2.4700   22.3730  -28.4360 N   0  0  0  0  0  0  0  0  0  0  0  0
   -1.8440   23.5500  -27.9570 C   0  0  0  0  0  0  0  0  0  0  0  0
   -1.9530   24.7910  -28.5340 C   0  0  0  0  0  0  0  0  0  0  0  0
   -2.7180   24.9290  -29.6730 O   0  0  0  0  0  0  0  0  0  0  0  0
   -4.0880   24.5910  -29.7360 C   0  0  0  0  0  0  0  0  0  0  0  0
   -1.2950   25.8880  -27.9690 C   0  0  0  0  0  0  0  0  0  0  0  0
   -0.5230   25.7720  -26.8260 C   0  0  0  0  0  0  0  0  0  0  0  0
    0.1530   26.8820  -26.2510 N   0  0  0  0  0  0  0  0  0  0  0  0
    0.9570   26.7930  -25.0420 C   0  0  0  0  0  0  0  0  0  0  0  0
    0.4540   27.9150  -24.1190 C   0  0  0  0  0  0  0  0  0  0  0  0
   -0.6850   28.5140  -24.6220 O   0  0  0  0  0  0  0  0  0  0  0  0
   -0.4740   29.1580  -25.8390 C   0  0  0  0  0  0  0  0  0  0  0  0
    0.0960   28.2250  -26.8550 C   0  0  0  0  0  0  0  0  0  0  0  0
   -0.4230   24.5200  -26.2590 C   0  0  0  0  0  0  0  0  0  0  0  0
   -1.0710   23.4030  -26.8020 C   0  0  0  0  0  0  0  0  0  0  0  0
   -0.9500   22.1570  -26.2070 O   0  0  0  0  0  0  0  0  0  0  0  0
   -0.7960   21.9620  -24.8260 C   0  0  0  0  0  0  0  0  0  0  0  0
   -1.5300   22.6840  -30.5380 N   0  0  0  0  0  0  0  0  0  0  0  0
   -1.4130   22.1980  -31.8050 C   0  0  0  0  0  0  0  0  0  0  0  0
   -2.0510   21.0440  -32.2010 C   0  0  0  0  0  0  0  0  0  0  0  0
   -1.9000   20.4380  -33.8060 Cl  0  0  0  0  0  0  0  0  0  0  0  0
   -7.0265   18.0335  -30.2691 H   0  0  0  0  0  0  0  0  0  0  0  0
   -7.4220   17.2266  -31.8245 H   0  0  0  0  0  0  0  0  0  0  0  0
   -6.6855   18.8650  -31.8245 H   0  0  0  0  0  0  0  0  0  0  0  0
   -9.4395   18.2024  -31.8803 H   0  0  0  0  0  0  0  0  0  0  0  0
   -9.1081   18.8471  -30.2285 H   0  0  0  0  0  0  0  0  0  0  0  0
   -9.5469   21.4385  -30.3978 H   0  0  0  0  0  0  0  0  0  0  0  0
   -7.9538   20.7361  -29.9488 H   0  0  0  0  0  0  0  0  0  0  0  0
   -7.4905   22.9791  -30.5502 H   0  0  0  0  0  0  0  0  0  0  0  0
   -7.0183   22.0033  -31.9825 H   0  0  0  0  0  0  0  0  0  0  0  0
   -8.5720   22.9047  -31.9825 H   0  0  0  0  0  0  0  0  0  0  0  0
   -9.1978   20.2781  -33.6798 H   0  0  0  0  0  0  0  0  0  0  0  0
   -7.8108   21.3801  -32.8433 H   0  0  0  0  0  0  0  0  0  0  0  0
   -7.3220   18.7284  -33.7088 H   0  0  0  0  0  0  0  0  0  0  0  0
   -7.3909   20.2558  -34.8353 H   0  0  0  0  0  0  0  0  0  0  0  0
   -4.9602   18.3397  -35.7828 H   0  0  0  0  0  0  0  0  0  0  0  0
   -3.3083   16.5738  -36.0961 H   0  0  0  0  0  0  0  0  0  0  0  0
   -1.6590   16.0988  -34.2784 H   0  0  0  0  0  0  0  0  0  0  0  0
   -1.7465   17.4405  -32.2044 H   0  0  0  0  0  0  0  0  0  0  0  0
   -3.5230   20.3420  -29.3600 H   0  0  0  0  0  0  0  0  0  0  0  0
   -4.4885   24.4922  -28.7163 H   0  0  0  0  0  0  0  0  0  0  0  0
   -4.6363   25.3808  -30.2704 H   0  0  0  0  0  0  0  0  0  0  0  0
   -4.2060   23.6368  -30.2704 H   0  0  0  0  0  0  0  0  0  0  0  0
   -1.3940   26.8734  -28.4477 H   0  0  0  0  0  0  0  0  0  0  0  0
    0.8199   25.8126  -24.5625 H   0  0  0  0  0  0  0  0  0  0  0  0
    2.0296   26.9002  -25.2611 H   0  0  0  0  0  0  0  0  0  0  0  0
    0.2268   27.4893  -23.1305 H   0  0  0  0  0  0  0  0  0  0  0  0
    1.2415   28.6795  -24.0455 H   0  0  0  0  0  0  0  0  0  0  0  0
   -1.4337   29.5479  -26.2091 H   0  0  0  0  0  0  0  0  0  0  0  0
    0.2430   29.9766  -25.6787 H   0  0  0  0  0  0  0  0  0  0  0  0
   -0.5459   28.2068  -27.7481 H   0  0  0  0  0  0  0  0  0  0  0  0
    1.1013   28.5535  -27.1573 H   0  0  0  0  0  0  0  0  0  0  0  0
    0.1850   24.3937  -25.3511 H   0  0  0  0  0  0  0  0  0  0  0  0
   -1.3884   22.7121  -24.2815 H   0  0  0  0  0  0  0  0  0  0  0  0
   -1.1443   20.9539  -24.5570 H   0  0  0  0  0  0  0  0  0  0  0  0
    0.2654   22.0672  -24.5570 H   0  0  0  0  0  0  0  0  0  0  0  0
   -1.0520   23.5560  -30.2240 H   0  0  0  0  0  0  0  0  0  0  0  0
   -0.7919   22.7423  -32.5316 H   0  0  0  0  0  0  0  0  0  0  0  0
  1  2  1  0
  2  3  1  0
  3  4  1  0
  4  5  1  0
  3  6  1  0
  6  7  1  0
  7  8  1  0
  8  9  1  0
  9 10  2  0
 10 11  1  0
 11 12  2  0
 12 13  1  0
 13 14  2  0
 14 15  1  0
 15 16  2  0
 16 17  1  0
 17 18  1  0
 18 19  2  0
 19 20  1  0
 20 21  2  0
 21 22  1  0
 22 23  1  0
 21 24  1  0
 24 25  2  0
 25 26  1  0
 26 27  1  0
 27 28  1  0
 28 29  1  0
 29 30  1  0
 30 31  1  0
 25 32  1  0
 32 33  2  0
 33 34  1  0
 34 35  1  0
 18 36  1  0
 36 37  1  0
 37 38  2  0
 38 39  1  0
 14  9  1  0
 38 16  1  0
 33 20  1  0
 31 26  1  0
  1 40  1  0
  1 41  1  0
  1 42  1  0
  2 43  1  0
  2 44  1  0
  4 45  1  0
  4 46  1  0
  5 47  1  0
  5 48  1  0
  5 49  1  0
  6 50  1  0
  6 51  1  0
  7 52  1  0
  7 53  1  0
 10 54  1  0
 11 55  1  0
 12 56  1  0
 13 57  1  0
 17 58  1  0
 23 59  1  0
 23 60  1  0
 23 61  1  0
 24 62  1  0
 27 63  1  0
 27 64  1  0
 28 65  1  0
 28 66  1  0
 30 67  1  0
 30 68  1  0
 31 69  1  0
 31 70  1  0
 32 71  1  0
 35 72  1  0
 35 73  1  0
 35 74  1  0
 36 75  1  0
 37 76  1  0
M  END
>  <smiles>  (4) 
CCN(CC)CCSc1ccccc1N=c1[nH]c(=Nc2c(OC)cc(N3CCOCC3)cc2OC)[nH]cc1Cl

>  <score_type>  (4) 
oracle

>  <origin>  (4) 
adgpu

>  <m_score__min__energy>  (4) 
-9.1899999999999995

>  <m_primary>  (4) 
energy

$$$$
4:0
     RDKit          3D

 50 52  0  0  0  0  0  0  0  0999 V2000
    0.7890   18.4160  -28.2540 C   0  0  0  0  0  0  0  0  0  0  0  0
   -0.4440   19.2620  -28.0660 C   0  0  0  0  0  0  0  0  0  0  0  0
   -1.2660   19.0260  -26.9520 C   0  0  0  0  0  0  0  0  0  0  0  0
   -2.4170   19.7800  -26.7470 C   0  0  0  0  0  0  0  0  0  0  0  0
   -2.7580   20.7930  -27.6400 C   0  0  0  0  0  0  0  0  0  0  0  0
   -1.9520   21.0670  -28.7510 C   0  0  0  0  0  0  0  0  0  0  0  0
   -2.3480   22.1370  -29.6250 N   0  0  0  0  0  0  0  0  0  0  0  0
   -3.5450   22.1120  -30.4380 C   0  0  0  0  0  0  0  0  0  0  0  0
   -4.0770   20.8900  -30.9000 C   0  0  0  0  0  0  0  0  0  0  0  0
   -5.2220   20.8620  -31.6980 C   0  0  0  0  0  0  0  0  0  0  0  0
   -5.8440   22.0520  -32.0700 C   0  0  0  0  0  0  0  0  0  0  0  0
   -5.3160   23.2730  -31.6540 C   0  0  0  0  0  0  0  0  0  0  0  0
   -4.1800   23.3200  -30.8300 C   0  0  0  0  0  0  0  0  0  0  0  0
   -3.6530   24.6500  -30.4560 C   0  0  0  0  0  0  0  0  0  0  0  0
   -4.3190   25.6740  -30.7640 O   0  0  0  0  0  0  0  0  0  0  0  0
   -2.4340   24.8130  -29.7180 N   0  0  0  0  0  0  0  0  0  0  0  0
   -2.3450   25.2900  -28.3430 C   0  0  0  0  0  0  0  0  0  0  0  0
   -2.3000   24.1220  -27.3510 C   0  0  0  0  0  0  0  0  0  0  0  0
   -0.9270   23.8910  -26.9100 N   0  0  0  0  0  0  0  0  0  0  0  0
   -0.5260   23.7470  -25.5230 C   0  0  0  0  0  0  0  0  0  0  0  0
    0.9870   23.4450  -25.5460 C   0  0  0  0  0  0  0  0  0  0  0  0
    1.4400   23.4680  -27.0150 C   0  0  0  0  0  0  0  0  0  0  0  0
    0.1960   23.7510  -27.7560 C   0  0  0  0  0  0  0  0  0  0  0  0
    0.1350   23.8700  -29.0080 O   0  0  0  0  0  0  0  0  0  0  0  0
   -0.8040   20.2670  -29.0040 C   0  0  0  0  0  0  0  0  0  0  0  0
    0.0420   20.4790  -30.2380 C   0  0  0  0  0  0  0  0  0  0  0  0
    1.1957   18.1370  -27.2707 H   0  0  0  0  0  0  0  0  0  0  0  0
    0.5275   17.5062  -28.8142 H   0  0  0  0  0  0  0  0  0  0  0  0
    1.5438   18.9874  -28.8142 H   0  0  0  0  0  0  0  0  0  0  0  0
   -0.9970   18.2370  -26.2343 H   0  0  0  0  0  0  0  0  0  0  0  0
   -3.0593   19.5757  -25.8777 H   0  0  0  0  0  0  0  0  0  0  0  0
   -3.6702   21.3838  -27.4704 H   0  0  0  0  0  0  0  0  0  0  0  0
   -1.6340   22.8780  -29.7940 H   0  0  0  0  0  0  0  0  0  0  0  0
   -3.5826   19.9458  -30.6276 H   0  0  0  0  0  0  0  0  0  0  0  0
   -5.6339   19.8989  -32.0337 H   0  0  0  0  0  0  0  0  0  0  0  0
   -6.7512   22.0279  -32.6916 H   0  0  0  0  0  0  0  0  0  0  0  0
   -5.7945   24.2101  -31.9747 H   0  0  0  0  0  0  0  0  0  0  0  0
   -1.4307   25.8912  -28.2306 H   0  0  0  0  0  0  0  0  0  0  0  0
   -3.2375   25.8955  -28.1267 H   0  0  0  0  0  0  0  0  0  0  0  0
   -2.9269   24.3607  -26.4792 H   0  0  0  0  0  0  0  0  0  0  0  0
   -2.6768   23.2147  -27.8457 H   0  0  0  0  0  0  0  0  0  0  0  0
   -0.7215   24.6777  -24.9702 H   0  0  0  0  0  0  0  0  0  0  0  0
   -1.0889   22.9455  -25.0223 H   0  0  0  0  0  0  0  0  0  0  0  0
    1.5315   24.2099  -24.9729 H   0  0  0  0  0  0  0  0  0  0  0  0
    1.1935   22.4646  -25.0920 H   0  0  0  0  0  0  0  0  0  0  0  0
    2.1863   24.2583  -27.1837 H   0  0  0  0  0  0  0  0  0  0  0  0
    1.9212   22.5301  -27.3291 H   0  0  0  0  0  0  0  0  0  0  0  0
    1.0688   20.7363  -29.9389 H   0  0  0  0  0  0  0  0  0  0  0  0
    0.0548   19.5563  -30.8367 H   0  0  0  0  0  0  0  0  0  0  0  0
   -0.3818   21.2987  -30.8367 H   0  0  0  0  0  0  0  0  0  0  0  0
  1  2  1  0
  2  3  2  0
  3  4  1  0
  4  5  2  0
  5  6  1  0
  6  7  1  0
  7  8  1  0
  8  9  2  0
  9 10  1  0
 10 11  2  0
 11 12  1  0
 12 13  2  0
 13 14  1  0
 14 15  2  0
 14 16  1  0
 16 17  1  0
 17 18  1  0
 18 19  1  0
 19 20  1  0
 20 21  1  0
 21 22  1  0
 22 23  1  0
 23 24  2  0
  6 25  2  0
 25 26  1  0
 25  2  1  0
 13  8  1  0
 23 19  1  0
  1 27  1  0
  1 28  1  0
  1 29  1  0
  3 30  1  0
  4 31  1  0
  5 32  1  0
  7 33  1  0
  9 34  1  0
 10 35  1  0
 11 36  1  0
 12 37  1  0
 17 38  1  0
 17 39  1  0
 18 40  1  0
 18 41  1  0
 20 42  1  0
 20 43  1  0
 21 44  1  0
 21 45  1  0
 22 46  1  0
 22 47  1  0
 26 48  1  0
 26 49  1  0
 26 50  1  0
M  CHG  1  16  -1
M  END
>  <UniqueID>  (5) 
4

>  <SMILES>  (5) 
Cc1cccc(Nc2ccccc2C(=O)[N-]CCN2CCCC2=O)c1C

>  <Energy>  (5) 
66.58980707461622

>  <Genealogy>  (5) 
Cc1cccc(Nc2ccccc2C(=O)[N-]CCN2CCCC2=O)c1C (protonated)
Cc1cccc(Nc2ccccc2C(=O)[N-]CCN2CCCC2=O)c1C (3D coordinates assigned)
Cc1cccc(Nc2ccccc2C(=O)[N-]CCN2CCCC2=O)c1C (nonaromatic ring conformer: 66.58980707461622 kcal/mol)

>  <smiles>  (5) 
Cc1cccc(Nc2ccccc2C(=O)NCCN2CCCC2=O)c1C

>  <score_type>  (5) 
oracle

>  <origin>  (5) 
adgpu

>  <m_score__min__energy>  (5) 
-10.720000000000001

>  <m_primary>  (5) 
energy

$$$$
5:0
     RDKit          3D

 26 27  0  0  0  0  0  0  0  0999 V2000
   -5.7270   25.6680  -31.4400 O   0  0  0  0  0  0  0  0  0  0  0  0
   -5.1090   24.5700  -30.6210 S   0  0  0  0  0  0  0  0  0  0  0  0
   -5.8340   24.4580  -29.3090 O   0  0  0  0  0  0  0  0  0  0  0  0
   -3.4370   24.9160  -30.3190 N   0  0  0  0  0  0  0  0  0  0  0  0
   -2.6630   24.3850  -29.2350 C   0  0  0  0  0  0  0  0  0  0  0  0
   -2.9740   23.1510  -28.6330 C   0  0  0  0  0  0  0  0  0  0  0  0
   -2.1940   22.6670  -27.5770 C   0  0  0  0  0  0  0  0  0  0  0  0
   -1.1020   23.4050  -27.1150 C   0  0  0  0  0  0  0  0  0  0  0  0
   -0.7860   24.6290  -27.7090 C   0  0  0  0  0  0  0  0  0  0  0  0
   -1.5630   25.1190  -28.7650 C   0  0  0  0  0  0  0  0  0  0  0  0
   -1.2360   26.3390  -29.3460 O   0  0  0  0  0  0  0  0  0  0  0  0
   -5.2260   23.0490  -31.5130 C   0  0  0  0  0  0  0  0  0  0  0  0
   -4.0570   22.3280  -31.8080 C   0  0  0  0  0  0  0  0  0  0  0  0
   -4.1250   21.1240  -32.5140 C   0  0  0  0  0  0  0  0  0  0  0  0
   -5.3600   20.6260  -32.9330 C   0  0  0  0  0  0  0  0  0  0  0  0
   -5.4500   18.9800  -33.8970 Br  0  0  0  0  0  0  0  0  0  0  0  0
   -6.5310   21.3330  -32.6460 C   0  0  0  0  0  0  0  0  0  0  0  0
   -6.4740   22.5420  -31.9380 C   0  0  0  0  0  0  0  0  0  0  0  0
   -8.0270   23.4070  -31.5990 S   0  0  0  0  0  0  0  0  0  0  0  0
   -3.8326   22.5657  -28.9938 H   0  0  0  0  0  0  0  0  0  0  0  0
   -2.4416   21.7026  -27.1094 H   0  0  0  0  0  0  0  0  0  0  0  0
   -0.4912   23.0226  -26.2839 H   0  0  0  0  0  0  0  0  0  0  0  0
    0.0753   25.2091  -27.3461 H   0  0  0  0  0  0  0  0  0  0  0  0
   -3.0804   22.7142  -31.4807 H   0  0  0  0  0  0  0  0  0  0  0  0
   -3.2035   20.5675  -32.7401 H   0  0  0  0  0  0  0  0  0  0  0  0
   -7.5029   20.9387  -32.9774 H   0  0  0  0  0  0  0  0  0  0  0  0
  1  2  2  0
  2  3  2  0
  2  4  1  0
  4  5  1  0
  5  6  2  0
  6  7  1  0
  7  8  2  0
  8  9  1  0
  9 10  2  0
 10 11  1  0
  2 12  1  0
 12 13  2  0
 13 14  1  0
 14 15  2  0
 15 16  1  0
 15 17  1  0
 17 18  2  0
 18 19  1  0
 10  5  1  0
 18 12  1  0
  6 20  1  0
  7 21  1  0
  8 22  1  0
  9 23  1  0
 13 24  1  0
 14 25  1  0
 17 26  1  0
M  CHG  3   4  -1  11  -1  19  -1
M  END
>  <UniqueID>  (6) 
5

>  <SMILES>  (6) 
O=S(=O)([N-]c1ccccc1[O-])c1ccc(Br)cc1[S-]

>  <Energy>  (6) 
32.81125855024284

>  <Genealogy>  (6) 
O=S(=O)([N-]c1ccccc1[O-])c1ccc(Br)cc1[S-] (protonated)
O=S(=O)([N-]c1ccccc1[O-])c1ccc(Br)cc1[S-] (3D coordinates assigned)
O=S(=O)([N-]c1ccccc1[O-])c1ccc(Br)cc1[S-] (optimized conformer: 32.81125855024284 kcal/mol)

>  <smiles>  (6) 
O=S(=O)(Nc1ccccc1O)c1ccc(Br)cc1S

>  <score_type>  (6) 
oracle

>  <origin>  (6) 
adgpu

>  <m_score__min__energy>  (6) 
-11.84

>  <m_primary>  (6) 
energy

$$$$
6:0
     RDKit          3D

 46 48  0  0  0  0  0  0  0  0999 V2000
   -1.0870   26.4200  -28.6710 N   0  0  0  0  0  0  0  0  0  0  0  0
   -0.9850   24.7770  -28.1450 S   0  0  0  0  0  0  0  0  0  0  0  0
   -1.1610   24.7180  -26.6540 O   0  0  0  0  0  0  0  0  0  0  0  0
    0.3670   24.2200  -28.4930 O   0  0  0  0  0  0  0  0  0  0  0  0
   -2.2420   23.8290  -28.9340 C   0  0  0  0  0  0  0  0  0  0  0  0
   -3.5820   23.9750  -28.5530 C   0  0  0  0  0  0  0  0  0  0  0  0
   -4.5810   23.2300  -29.1870 C   0  0  0  0  0  0  0  0  0  0  0  0
   -4.2510   22.3400  -30.2270 C   0  0  0  0  0  0  0  0  0  0  0  0
   -5.2550   21.5460  -30.8810 N   0  0  0  0  0  0  0  0  0  0  0  0
   -6.1930   22.0630  -31.8390 C   0  0  0  0  0  0  0  0  0  0  0  0
   -6.0550   23.2240  -32.3100 O   0  0  0  0  0  0  0  0  0  0  0  0
   -7.3120   21.1990  -32.3410 C   0  0  0  0  0  0  0  0  0  0  0  0
   -6.8100   19.8520  -32.6780 N   0  0  0  0  0  0  0  0  0  0  0  0
   -7.8770   18.8370  -32.5740 C   0  0  0  0  0  0  0  0  0  0  0  0
   -7.2460   17.4410  -32.6240 C   0  0  0  0  0  0  0  0  0  0  0  0
   -6.1210   17.4150  -33.5660 N   0  0  0  0  0  0  0  0  0  0  0  0
   -5.0770   16.4330  -33.4250 C   0  0  0  0  0  0  0  0  0  0  0  0
   -3.7680   16.8360  -33.1240 C   0  0  0  0  0  0  0  0  0  0  0  0
   -2.7650   15.8760  -32.9730 C   0  0  0  0  0  0  0  0  0  0  0  0
   -3.0580   14.5560  -33.1180 N   0  0  0  0  0  0  0  0  0  0  0  0
   -4.3170   14.1340  -33.4090 C   0  0  0  0  0  0  0  0  0  0  0  0
   -5.3500   15.0610  -33.5660 C   0  0  0  0  0  0  0  0  0  0  0  0
   -6.5950   14.6240  -33.8830 F   0  0  0  0  0  0  0  0  0  0  0  0
   -6.0550   18.4320  -34.6220 C   0  0  0  0  0  0  0  0  0  0  0  0
   -6.2020   19.8490  -34.0300 C   0  0  0  0  0  0  0  0  0  0  0  0
   -2.9070   22.1860  -30.5920 C   0  0  0  0  0  0  0  0  0  0  0  0
   -1.9090   22.9320  -29.9580 C   0  0  0  0  0  0  0  0  0  0  0  0
   -1.2370   26.4000  -29.7040 H   0  0  0  0  0  0  0  0  0  0  0  0
   -3.8496   24.6790  -27.7513 H   0  0  0  0  0  0  0  0  0  0  0  0
   -5.6292   23.3396  -28.8720 H   0  0  0  0  0  0  0  0  0  0  0  0
   -5.2400   20.5130  -30.7210 H   0  0  0  0  0  0  0  0  0  0  0  0
   -8.0825   21.1140  -31.5606 H   0  0  0  0  0  0  0  0  0  0  0  0
   -7.7391   21.6574  -33.2451 H   0  0  0  0  0  0  0  0  0  0  0  0
   -8.4154   18.9643  -31.6233 H   0  0  0  0  0  0  0  0  0  0  0  0
   -8.5840   18.9549  -33.4085 H   0  0  0  0  0  0  0  0  0  0  0  0
   -6.8835   17.1722  -31.6208 H   0  0  0  0  0  0  0  0  0  0  0  0
   -8.0062   16.7205  -32.9602 H   0  0  0  0  0  0  0  0  0  0  0  0
   -3.5321   17.9041  -33.0073 H   0  0  0  0  0  0  0  0  0  0  0  0
   -1.7370   16.1879  -32.7365 H   0  0  0  0  0  0  0  0  0  0  0  0
   -4.5229   13.0593  -33.5212 H   0  0  0  0  0  0  0  0  0  0  0  0
   -5.0857   18.3551  -35.1363 H   0  0  0  0  0  0  0  0  0  0  0  0
   -6.8794   18.2589  -35.3294 H   0  0  0  0  0  0  0  0  0  0  0  0
   -5.2042   20.3076  -33.9666 H   0  0  0  0  0  0  0  0  0  0  0  0
   -6.8726   20.4147  -34.6935 H   0  0  0  0  0  0  0  0  0  0  0  0
   -2.6350   21.4724  -31.3837 H   0  0  0  0  0  0  0  0  0  0  0  0
   -0.8589   22.8145  -30.2639 H   0  0  0  0  0  0  0  0  0  0  0  0
  1  2  1  0
  2  3  2  0
  2  4  2  0
  2  5  1  0
  5  6  2  0
  6  7  1  0
  7  8  2  0
  8  9  1  0
  9 10  1  0
 10 11  2  0
 10 12  1  0
 12 13  1  0
 13 14  1  0
 14 15  1  0
 15 16  1  0
 16 17  1  0
 17 18  2  0
 18 19  1  0
 19 20  2  0
 20 21  1  0
 21 22  2  0
 22 23  1  0
 16 24  1  0
 24 25  1  0
  8 26  1  0
 26 27  2  0
 27  5  1  0
 25 13  1  0
 22 17  1  0
  1 28  1  0
  6 29  1  0
  7 30  1  0
  9 31  1  0
 12 32  1  0
 12 33  1  0
 14 34  1  0
 14 35  1  0
 15 36  1  0
 15 37  1  0
 18 38  1  0
 19 39  1  0
 21 40  1  0
 24 41  1  0
 24 42  1  0
 25 43  1  0
 25 44  1  0
 26 45  1  0
 27 46  1  0
M  CHG  1   1  -1
M  END
>  <UniqueID>  (7) 
6

>  <SMILES>  (7) 
[NH-]S(=O)(=O)c1ccc(NC(=O)CN2CCN(c3ccncc3F)CC2)cc1

>  <Energy>  (7) 
61.40938799393087

>  <Genealogy>  (7) 
[NH-]S(=O)(=O)c1ccc(NC(=O)CN2CCN(c3ccncc3F)CC2)cc1 (protonated)
[NH-]S(=O)(=O)c1ccc(NC(=O)CN2CCN(c3ccncc3F)CC2)cc1 (3D coordinates assigned)
[NH-]S(=O)(=O)c1ccc(NC(=O)CN2CCN(c3ccncc3F)CC2)cc1 (nonaromatic ring conformer: 61.40938799393087 kcal/mol)

>  <smiles>  (7) 
NS(=O)(=O)c1ccc(NC(=O)CN2CCN(c3ccncc3F)CC2)cc1

>  <score_type>  (7) 
oracle

>  <origin>  (7) 
adgpu

>  <m_score__min__energy>  (7) 
-9.8300000000000001

>  <m_primary>  (7) 
energy

$$$$
7:0
     RDKit          3D

 51 53  0  0  0  0  0  0  0  0999 V2000
   -4.3210   21.9450  -27.4670 C   0  0  0  0  0  0  0  0  0  0  0  0
   -4.1670   23.2430  -28.0250 O   0  0  0  0  0  0  0  0  0  0  0  0
   -2.9320   23.8840  -28.1440 C   0  0  0  0  0  0  0  0  0  0  0  0
   -1.9590   23.6300  -27.2240 N   0  0  0  0  0  0  0  0  0  0  0  0
   -0.7430   24.2300  -27.2740 C   0  0  0  0  0  0  0  0  0  0  0  0
    0.2970   23.9040  -26.2500 C   0  0  0  0  0  0  0  0  0  0  0  0
   -0.4750   25.1320  -28.3030 C   0  0  0  0  0  0  0  0  0  0  0  0
   -1.4340   25.3900  -29.2270 N   0  0  0  0  0  0  0  0  0  0  0  0
   -2.6590   24.8000  -29.1930 C   0  0  0  0  0  0  0  0  0  0  0  0
   -3.5010   25.1110  -30.1400 N   0  0  0  0  0  0  0  0  0  0  0  0
   -5.1190   24.5390  -30.4230 S   0  0  0  0  0  0  0  0  0  0  0  0
   -5.8990   24.5950  -29.1390 O   0  0  0  0  0  0  0  0  0  0  0  0
   -5.7780   25.4400  -31.4280 O   0  0  0  0  0  0  0  0  0  0  0  0
   -5.0940   22.9030  -31.0770 C   0  0  0  0  0  0  0  0  0  0  0  0
   -6.2190   22.3870  -31.7340 C   0  0  0  0  0  0  0  0  0  0  0  0
   -6.2110   21.0770  -32.2190 C   0  0  0  0  0  0  0  0  0  0  0  0
   -5.0700   20.2720  -32.0660 C   0  0  0  0  0  0  0  0  0  0  0  0
   -5.0630   18.8760  -32.5590 C   0  0  0  0  0  0  0  0  0  0  0  0
   -6.0430   17.9910  -32.0820 C   0  0  0  0  0  0  0  0  0  0  0  0
   -6.0940   16.6720  -32.5360 C   0  0  0  0  0  0  0  0  0  0  0  0
   -5.1540   16.2060  -33.4680 C   0  0  0  0  0  0  0  0  0  0  0  0
   -5.2060   14.8610  -33.9760 N   0  0  0  0  0  0  0  0  0  0  0  0
   -6.4010   14.2300  -34.4620 C   0  0  0  0  0  0  0  0  0  0  0  0
   -6.3160   12.9050  -35.1470 C   0  0  0  0  0  0  0  0  0  0  0  0
   -7.5330   14.7410  -34.2440 O   0  0  0  0  0  0  0  0  0  0  0  0
   -4.1800   17.0870  -33.9570 C   0  0  0  0  0  0  0  0  0  0  0  0
   -4.1040   18.4110  -33.4930 C   0  0  0  0  0  0  0  0  0  0  0  0
   -3.0110   19.3040  -34.0210 C   0  0  0  0  0  0  0  0  0  0  0  0
   -3.9450   20.7920  -31.4070 C   0  0  0  0  0  0  0  0  0  0  0  0
   -3.9550   22.1020  -30.9200 C   0  0  0  0  0  0  0  0  0  0  0  0
   -4.3128   22.0145  -26.3692 H   0  0  0  0  0  0  0  0  0  0  0  0
   -5.2766   21.5138  -27.7999 H   0  0  0  0  0  0  0  0  0  0  0  0
   -3.4928   21.3021  -27.7999 H   0  0  0  0  0  0  0  0  0  0  0  0
   -0.1256   24.0365  -25.2431 H   0  0  0  0  0  0  0  0  0  0  0  0
    0.6222   22.8608  -26.3768 H   0  0  0  0  0  0  0  0  0  0  0  0
    1.1594   24.5749  -26.3768 H   0  0  0  0  0  0  0  0  0  0  0  0
    0.5042   25.6293  -28.3648 H   0  0  0  0  0  0  0  0  0  0  0  0
   -7.1116   23.0157  -31.8683 H   0  0  0  0  0  0  0  0  0  0  0  0
   -7.1020   20.6741  -32.7229 H   0  0  0  0  0  0  0  0  0  0  0  0
   -6.7785   18.3408  -31.3426 H   0  0  0  0  0  0  0  0  0  0  0  0
   -6.8752   15.9942  -32.1612 H   0  0  0  0  0  0  0  0  0  0  0  0
   -4.3420   14.2770  -33.9110 H   0  0  0  0  0  0  0  0  0  0  0  0
   -6.2647   12.1053  -34.3935 H   0  0  0  0  0  0  0  0  0  0  0  0
   -7.2067   12.7596  -35.7759 H   0  0  0  0  0  0  0  0  0  0  0  0
   -5.4141   12.8746  -35.7759 H   0  0  0  0  0  0  0  0  0  0  0  0
   -3.4643   16.7367  -34.7154 H   0  0  0  0  0  0  0  0  0  0  0  0
   -2.4637   19.7512  -33.1781 H   0  0  0  0  0  0  0  0  0  0  0  0
   -2.3175   18.7108  -34.6351 H   0  0  0  0  0  0  0  0  0  0  0  0
   -3.4540   20.1019  -34.6351 H   0  0  0  0  0  0  0  0  0  0  0  0
   -3.0510   20.1653  -31.2732 H   0  0  0  0  0  0  0  0  0  0  0  0
   -3.0665   22.5053  -30.4122 H   0  0  0  0  0  0  0  0  0  0  0  0
  1  2  1  0
  2  3  1  0
  3  4  2  0
  4  5  1  0
  5  6  1  0
  5  7  2  0
  7  8  1  0
  8  9  1  0
  9 10  2  3
 10 11  1  0
 11 12  2  0
 11 13  2  0
 11 14  1  0
 14 15  2  0
 15 16  1  0
 16 17  2  0
 17 18  1  0
 18 19  2  0
 19 20  1  0
 20 21  2  0
 21 22  1  0
 22 23  1  0
 23 24  1  0
 23 25  2  0
 21 26  1  0
 26 27  2  0
 27 28  1  0
 17 29  1  0
 29 30  2  0
  9  3  1  0
 30 14  1  0
 27 18  1  0
  1 31  1  0
  1 32  1  0
  1 33  1  0
  6 34  1  0
  6 35  1  0
  6 36  1  0
  7 37  1  0
 15 38  1  0
 16 39  1  0
 19 40  1  0
 20 41  1  0
 22 42  1  0
 24 43  1  0
 24 44  1  0
 24 45  1  0
 26 46  1  0
 28 47  1  0
 28 48  1  0
 28 49  1  0
 29 50  1  0
 30 51  1  0
M  CHG  1   8  -1
M  END
>  <UniqueID>  (8) 
7

>  <SMILES>  (8) 
COc1nc(C)c[n-]c1=NS(=O)(=O)c1ccc(-c2ccc(NC(C)=O)cc2C)cc1

>  <Energy>  (8) 
68.6899115488291

>  <Genealogy>  (8) 
COc1nc(C)c[n-]c1=NS(=O)(=O)c1ccc(-c2ccc(NC(C)=O)cc2C)cc1 (protonated)
COc1nc(C)c[n-]c1=NS(=O)(=O)c1ccc(-c2ccc(NC(C)=O)cc2C)cc1 (3D coordinates assigned)
COc1nc(C)c[n-]c1=NS(=O)(=O)c1ccc(-c2ccc(NC(C)=O)cc2C)cc1 (optimized conformer: 68.6899115488291 kcal/mol)

>  <smiles>  (8) 
COc1nc(C)c[nH]c1=NS(=O)(=O)c1ccc(-c2ccc(NC(C)=O)cc2C)cc1

>  <score_type>  (8) 
oracle

>  <origin>  (8) 
adgpu

>  <m_score__min__energy>  (8) 
-9.5500000000000007

>  <m_primary>  (8) 
energy

$$$$
8:0
     RDKit          3D

 65 68  0  0  0  0  0  0  0  0999 V2000
    0.5840   19.8500  -30.7630 C   0  0  0  0  0  0  0  0  0  0  0  0
   -0.6540   20.2800  -30.1180 N   0  0  0  0  0  0  0  0  0  0  0  0
   -1.7810   20.6730  -30.9210 C   0  0  0  0  0  0  0  0  0  0  0  0
   -3.0800   20.6580  -30.3850 C   0  0  0  0  0  0  0  0  0  0  0  0
   -4.1720   21.0520  -31.1650 C   0  0  0  0  0  0  0  0  0  0  0  0
   -3.9800   21.4550  -32.4900 C   0  0  0  0  0  0  0  0  0  0  0  0
   -2.6940   21.4580  -33.0360 C   0  0  0  0  0  0  0  0  0  0  0  0
   -1.5990   21.0680  -32.2590 C   0  0  0  0  0  0  0  0  0  0  0  0
   -0.6010   20.7060  -28.4290 S   0  0  0  0  0  0  0  0  0  0  0  0
   -1.7780   20.1190  -27.7030 O   0  0  0  0  0  0  0  0  0  0  0  0
    0.6490   20.1300  -27.8240 O   0  0  0  0  0  0  0  0  0  0  0  0
   -0.6390   22.4660  -28.2530 C   0  0  0  0  0  0  0  0  0  0  0  0
   -1.6800   23.1760  -28.8680 C   0  0  0  0  0  0  0  0  0  0  0  0
   -1.7890   24.5670  -28.7230 C   0  0  0  0  0  0  0  0  0  0  0  0
   -2.8720   25.2980  -29.3170 N   0  0  0  0  0  0  0  0  0  0  0  0
   -3.7620   24.7750  -30.3120 C   0  0  0  0  0  0  0  0  0  0  0  0
   -3.3260   24.0110  -31.2170 O   0  0  0  0  0  0  0  0  0  0  0  0
   -5.2210   25.1200  -30.2390 C   0  0  0  0  0  0  0  0  0  0  0  0
   -6.1040   23.9720  -30.6580 C   0  0  0  0  0  0  0  0  0  0  0  0
   -6.4190   23.7720  -32.0110 C   0  0  0  0  0  0  0  0  0  0  0  0
   -7.2410   22.7070  -32.3920 C   0  0  0  0  0  0  0  0  0  0  0  0
   -7.7460   21.8240  -31.4310 C   0  0  0  0  0  0  0  0  0  0  0  0
   -8.8230   20.5090  -31.9090 S   0  0  0  0  0  0  0  0  0  0  0  0
  -10.0950   21.0930  -32.4610 O   0  0  0  0  0  0  0  0  0  0  0  0
   -9.1730   19.6910  -30.6970 O   0  0  0  0  0  0  0  0  0  0  0  0
   -8.0840   19.4600  -33.0990 N   0  0  0  0  0  0  0  0  0  0  0  0
   -7.9910   18.0570  -32.6330 C   0  0  0  0  0  0  0  0  0  0  0  0
   -6.6610   17.7220  -31.9300 C   0  0  0  0  0  0  0  0  0  0  0  0
   -5.4150   18.2590  -32.6620 C   0  0  0  0  0  0  0  0  0  0  0  0
   -5.7650   19.0010  -33.9500 C   0  0  0  0  0  0  0  0  0  0  0  0
   -6.8450   20.0460  -33.6620 C   0  0  0  0  0  0  0  0  0  0  0  0
   -7.3990   21.9990  -30.0830 C   0  0  0  0  0  0  0  0  0  0  0  0
   -6.5890   23.0710  -29.6990 C   0  0  0  0  0  0  0  0  0  0  0  0
   -0.8670   25.2460  -27.9230 C   0  0  0  0  0  0  0  0  0  0  0  0
    0.1780   24.5540  -27.3080 C   0  0  0  0  0  0  0  0  0  0  0  0
    0.3020   23.1660  -27.4670 C   0  0  0  0  0  0  0  0  0  0  0  0
    1.3450   22.4900  -26.8370 O   0  0  0  0  0  0  0  0  0  0  0  0
    1.3274   19.5918  -29.9944 H   0  0  0  0  0  0  0  0  0  0  0  0
    0.3838   18.9688  -31.3902 H   0  0  0  0  0  0  0  0  0  0  0  0
    0.9732   20.6656  -31.3902 H   0  0  0  0  0  0  0  0  0  0  0  0
   -3.2389   20.3344  -29.3457 H   0  0  0  0  0  0  0  0  0  0  0  0
   -5.1844   21.0448  -30.7350 H   0  0  0  0  0  0  0  0  0  0  0  0
   -4.8392   21.7689  -33.1009 H   0  0  0  0  0  0  0  0  0  0  0  0
   -2.5425   21.7682  -34.0804 H   0  0  0  0  0  0  0  0  0  0  0  0
   -0.5896   21.0700  -32.6962 H   0  0  0  0  0  0  0  0  0  0  0  0
   -2.4220   22.6343  -29.4730 H   0  0  0  0  0  0  0  0  0  0  0  0
   -5.4676   25.3956  -29.2030 H   0  0  0  0  0  0  0  0  0  0  0  0
   -5.4037   25.9544  -30.9321 H   0  0  0  0  0  0  0  0  0  0  0  0
   -6.0179   24.4553  -32.7741 H   0  0  0  0  0  0  0  0  0  0  0  0
   -7.4921   22.5624  -33.4531 H   0  0  0  0  0  0  0  0  0  0  0  0
   -8.8132   17.8710  -31.9264 H   0  0  0  0  0  0  0  0  0  0  0  0
   -8.0510   17.4180  -33.5264 H   0  0  0  0  0  0  0  0  0  0  0  0
   -6.6838   18.1573  -30.9201 H   0  0  0  0  0  0  0  0  0  0  0  0
   -6.5749   16.6255  -31.9154 H   0  0  0  0  0  0  0  0  0  0  0  0
   -4.8826   18.9494  -31.9913 H   0  0  0  0  0  0  0  0  0  0  0  0
   -4.7904   17.3954  -32.9342 H   0  0  0  0  0  0  0  0  0  0  0  0
   -4.8664   19.5010  -34.3404 H   0  0  0  0  0  0  0  0  0  0  0  0
   -6.1397   18.2837  -34.6950 H   0  0  0  0  0  0  0  0  0  0  0  0
   -6.4440   20.7750  -32.9425 H   0  0  0  0  0  0  0  0  0  0  0  0
   -7.1103   20.5168  -34.6201 H   0  0  0  0  0  0  0  0  0  0  0  0
   -7.7657   21.2902  -29.3260 H   0  0  0  0  0  0  0  0  0  0  0  0
   -6.3304   23.2089  -28.6388 H   0  0  0  0  0  0  0  0  0  0  0  0
   -0.9648   26.3318  -27.7768 H   0  0  0  0  0  0  0  0  0  0  0  0
    0.9091   25.1011  -26.6946 H   0  0  0  0  0  0  0  0  0  0  0  0
    1.4880   21.4960  -26.9660 H   0  0  0  0  0  0  0  0  0  0  0  0
  1  2  1  0
  2  3  1  0
  3  4  2  0
  4  5  1  0
  5  6  2  0
  6  7  1  0
  7  8  2  0
  2  9  1  0
  9 10  2  0
  9 11  2  0
  9 12  1  0
 12 13  2  0
 13 14  1  0
 14 15  1  0
 15 16  1  0
 16 17  2  0
 16 18  1  0
 18 19  1  0
 19 20  2  0
 20 21  1  0
 21 22  2  0
 22 23  1  0
 23 24  2  0
 23 25  2  0
 23 26  1  0
 26 27  1  0
 27 28  1  0
 28 29  1  0
 29 30  1  0
 30 31  1  0
 22 32  1  0
 32 33  2  0
 14 34  2  0
 34 35  1  0
 35 36  2  0
 36 37  1  0
  8  3  1  0
 36 12  1  0
 33 19  1  0
 31 26  1  0
  1 38  1  0
  1 39  1  0
  1 40  1  0
  4 41  1  0
  5 42  1  0
  6 43  1  0
  7 44  1  0
  8 45  1  0
 13 46  1  0
 18 47  1  0
 18 48  1  0
 20 49  1  0
 21 50  1  0
 27 51  1  0
 27 52  1  0
 28 53  1  0
 28 54  1  0
 29 55  1  0
 29 56  1  0
 30 57  1  0
 30 58  1  0
 31 59  1  0
 31 60  1  0
 32 61  1  0
 33 62  1  0
 34 63  1  0
 35 64  1  0
 37 65  1  0
M  CHG  1  15  -1
M  END
>  <UniqueID>  (9) 
8

>  <SMILES>  (9) 
CN(c1ccccc1)S(=O)(=O)c1cc([N-]C(=O)Cc2ccc(S(=O)(=O)N3CCCCC3)cc2)ccc1O

>  <Energy>  (9) 
82.83923373928585

>  <Genealogy>  (9) 
CN(c1ccccc1)S(=O)(=O)c1cc([N-]C(=O)Cc2ccc(S(=O)(=O)N3CCCCC3)cc2)ccc1O (protonated)
CN(c1ccccc1)S(=O)(=O)c1cc([N-]C(=O)Cc2ccc(S(=O)(=O)N3CCCCC3)cc2)ccc1O (3D coordinates assigned)
CN(c1ccccc1)S(=O)(=O)c1cc([N-]C(=O)Cc2ccc(S(=O)(=O)N3CCCCC3)cc2)ccc1O (nonaromatic ring conformer: 82.83923373928585 kcal/mol)

>  <smiles>  (9) 
CN(c1ccccc1)S(=O)(=O)c1cc(NC(=O)Cc2ccc(S(=O)(=O)N3CCCCC3)cc2)ccc1O

>  <score_type>  (9) 
oracle

>  <origin>  (9) 
adgpu

>  <m_score__min__energy>  (9) 
-11.85

>  <m_primary>  (9) 
energy

$$$$
9:0
     RDKit          3D

 47 49  0  0  0  0  0  0  0  0999 V2000
   -2.7320   20.0260  -27.4270 C   0  0  0  0  0  0  0  0  0  0  0  0
   -3.1100   20.8290  -28.5410 O   0  0  0  0  0  0  0  0  0  0  0  0
   -2.7970   22.1900  -28.6790 C   0  0  0  0  0  0  0  0  0  0  0  0
   -1.7450   22.7090  -27.9150 C   0  0  0  0  0  0  0  0  0  0  0  0
   -1.3830   24.0520  -28.0320 C   0  0  0  0  0  0  0  0  0  0  0  0
   -2.0750   24.8920  -28.9070 C   0  0  0  0  0  0  0  0  0  0  0  0
   -3.1480   24.4000  -29.6590 C   0  0  0  0  0  0  0  0  0  0  0  0
   -3.8190   25.2880  -30.5650 N   0  0  0  0  0  0  0  0  0  0  0  0
   -5.2320   25.5110  -30.6340 C   0  0  0  0  0  0  0  0  0  0  0  0
   -5.7540   26.5170  -30.0820 O   0  0  0  0  0  0  0  0  0  0  0  0
   -6.0960   24.5450  -31.3820 C   0  0  0  0  0  0  0  0  0  0  0  0
   -6.8040   23.5720  -30.4340 C   0  0  0  0  0  0  0  0  0  0  0  0
   -7.6960   22.2860  -31.3110 S   0  0  0  0  0  0  0  0  0  0  0  0
   -8.5830   22.9560  -32.3240 O   0  0  0  0  0  0  0  0  0  0  0  0
   -8.5810   21.4880  -30.3980 O   0  0  0  0  0  0  0  0  0  0  0  0
   -6.5420   21.2350  -32.1540 C   0  0  0  0  0  0  0  0  0  0  0  0
   -5.2280   21.7280  -32.3420 C   0  0  0  0  0  0  0  0  0  0  0  0
   -4.2250   20.9400  -32.9380 C   0  0  0  0  0  0  0  0  0  0  0  0
   -4.5010   19.6330  -33.3520 C   0  0  0  0  0  0  0  0  0  0  0  0
   -5.7910   19.1540  -33.1560 C   0  0  0  0  0  0  0  0  0  0  0  0
   -6.3480   17.9340  -33.4630 C   0  0  0  0  0  0  0  0  0  0  0  0
   -5.6750   16.7830  -34.1360 C   0  0  0  0  0  0  0  0  0  0  0  0
   -7.6490   17.9550  -33.1130 N   0  0  0  0  0  0  0  0  0  0  0  0
   -7.9240   19.1370  -32.5710 N   0  0  0  0  0  0  0  0  0  0  0  0
   -9.2890   19.4830  -32.1880 C   0  0  0  0  0  0  0  0  0  0  0  0
   -6.7980   19.9050  -32.5890 C   0  0  0  0  0  0  0  0  0  0  0  0
   -3.4970   23.0410  -29.5570 C   0  0  0  0  0  0  0  0  0  0  0  0
   -2.9802   20.5532  -26.4940 H   0  0  0  0  0  0  0  0  0  0  0  0
   -3.2746   19.0698  -27.4633 H   0  0  0  0  0  0  0  0  0  0  0  0
   -1.6493   19.8349  -27.4633 H   0  0  0  0  0  0  0  0  0  0  0  0
   -1.2005   22.0546  -27.2184 H   0  0  0  0  0  0  0  0  0  0  0  0
   -0.5503   24.4498  -27.4333 H   0  0  0  0  0  0  0  0  0  0  0  0
   -1.7752   25.9458  -29.0057 H   0  0  0  0  0  0  0  0  0  0  0  0
   -6.8535   25.1073  -31.9477 H   0  0  0  0  0  0  0  0  0  0  0  0
   -5.4543   23.9613  -32.0584 H   0  0  0  0  0  0  0  0  0  0  0  0
   -6.0509   23.0999  -29.7859 H   0  0  0  0  0  0  0  0  0  0  0  0
   -7.5364   24.1480  -29.8494 H   0  0  0  0  0  0  0  0  0  0  0  0
   -4.9854   22.7499  -32.0150 H   0  0  0  0  0  0  0  0  0  0  0  0
   -3.2164   21.3556  -33.0791 H   0  0  0  0  0  0  0  0  0  0  0  0
   -3.7250   19.0065  -33.8161 H   0  0  0  0  0  0  0  0  0  0  0  0
   -5.2739   16.0970  -33.3754 H   0  0  0  0  0  0  0  0  0  0  0  0
   -6.4031   16.2488  -34.7641 H   0  0  0  0  0  0  0  0  0  0  0  0
   -4.8524   17.1555  -34.7641 H   0  0  0  0  0  0  0  0  0  0  0  0
   -9.3681   19.5031  -31.0910 H   0  0  0  0  0  0  0  0  0  0  0  0
   -9.5432   20.4740  -32.5921 H   0  0  0  0  0  0  0  0  0  0  0  0
   -9.9846   18.7328  -32.5921 H   0  0  0  0  0  0  0  0  0  0  0  0
   -4.3209   22.6406  -30.1660 H   0  0  0  0  0  0  0  0  0  0  0  0
  1  2  1  0
  2  3  1  0
  3  4  2  0
  4  5  1  0
  5  6  2  0
  6  7  1  0
  7  8  1  0
  8  9  1  0
  9 10  2  0
  9 11  1  0
 11 12  1  0
 12 13  1  0
 13 14  2  0
 13 15  2  0
 13 16  1  0
 16 17  2  0
 17 18  1  0
 18 19  2  0
 19 20  1  0
 20 21  1  0
 21 22  1  0
 21 23  2  0
 23 24  1  0
 24 25  1  0
 24 26  1  0
  7 27  2  0
 27  3  1  0
 26 16  1  0
 26 20  2  0
  1 28  1  0
  1 29  1  0
  1 30  1  0
  4 31  1  0
  5 32  1  0
  6 33  1  0
 11 34  1  0
 11 35  1  0
 12 36  1  0
 12 37  1  0
 17 38  1  0
 18 39  1  0
 19 40  1  0
 22 41  1  0
 22 42  1  0
 22 43  1  0
 25 44  1  0
 25 45  1  0
 25 46  1  0
 27 47  1  0
M  CHG  1   8  -1
M  END
>  <UniqueID>  (10) 
9

>  <SMILES>  (10) 
COc1cccc([N-]C(=O)CCS(=O)(=O)c2cccc3c(C)nn(C)c23)c1

>  <Energy>  (10) 
90.32069458412786

>  <Genealogy>  (10) 
COc1cccc([N-]C(=O)CCS(=O)(=O)c2cccc3c(C)nn(C)c23)c1 (protonated)
COc1cccc([N-]C(=O)CCS(=O)(=O)c2cccc3c(C)nn(C)c23)c1 (3D coordinates assigned)
COc1cccc([N-]C(=O)CCS(=O)(=O)c2cccc3c(C)nn(C)c23)c1 (optimized conformer: 90.32069458412786 kcal/mol)

>  <smiles>  (10) 
COc1cccc(NC(=O)CCS(=O)(=O)c2cccc3c(C)nn(C)c23)c1

>  <score_type>  (10) 
oracle

>  <origin>  (10) 
adgpu

>  <m_score__min__energy>  (10) 
-11.43

>  <m_primary>  (10) 
energy

$$$$
10:0
     RDKit          3D

 46 48  0  0  0  0  0  0  0  0999 V2000
   -7.9080   20.0570  -32.7310 C   0  0  0  0  0  0  0  0  0  0  0  0
   -7.2570   21.2760  -32.1400 C   0  0  0  0  0  0  0  0  0  0  0  0
   -8.0340   22.2170  -31.4460 C   0  0  0  0  0  0  0  0  0  0  0  0
   -7.4420   23.3590  -30.8990 C   0  0  0  0  0  0  0  0  0  0  0  0
   -6.0640   23.5750  -31.0330 C   0  0  0  0  0  0  0  0  0  0  0  0
   -5.3180   25.0330  -30.3820 S   0  0  0  0  0  0  0  0  0  0  0  0
   -5.7740   25.2640  -28.9700 O   0  0  0  0  0  0  0  0  0  0  0  0
   -5.7270   26.2200  -31.2060 O   0  0  0  0  0  0  0  0  0  0  0  0
   -3.5920   24.8800  -30.4680 N   0  0  0  0  0  0  0  0  0  0  0  0
   -2.8420   23.7890  -29.9190 C   0  0  0  0  0  0  0  0  0  0  0  0
   -2.3210   22.7780  -30.7430 C   0  0  0  0  0  0  0  0  0  0  0  0
   -1.5770   21.7250  -30.1950 C   0  0  0  0  0  0  0  0  0  0  0  0
   -0.9250   20.4590  -31.2400 S   0  0  0  0  0  0  0  0  0  0  0  0
    0.0060   19.5910  -30.4390 O   0  0  0  0  0  0  0  0  0  0  0  0
   -2.0540   19.5970  -31.7310 O   0  0  0  0  0  0  0  0  0  0  0  0
   -0.0500   21.1180  -32.6000 N   0  0  0  0  0  0  0  0  0  0  0  0
   -0.9170   21.2030  -33.7820 C   0  0  0  0  0  0  0  0  0  0  0  0
   -0.1450   21.8610  -34.9450 C   0  0  0  0  0  0  0  0  0  0  0  0
    1.2490   21.9440  -34.6960 O   0  0  0  0  0  0  0  0  0  0  0  0
    1.7420   20.6910  -34.2650 C   0  0  0  0  0  0  0  0  0  0  0  0
    1.1450   20.3080  -32.8970 C   0  0  0  0  0  0  0  0  0  0  0  0
   -1.3610   21.6780  -28.8120 C   0  0  0  0  0  0  0  0  0  0  0  0
   -1.9020   22.6630  -27.9840 C   0  0  0  0  0  0  0  0  0  0  0  0
   -2.6470   23.7150  -28.5270 C   0  0  0  0  0  0  0  0  0  0  0  0
   -3.1700   24.6810  -27.6670 O   0  0  0  0  0  0  0  0  0  0  0  0
   -5.2850   22.6370  -31.7210 C   0  0  0  0  0  0  0  0  0  0  0  0
   -5.8710   21.4950  -32.2790 C   0  0  0  0  0  0  0  0  0  0  0  0
   -4.8490   20.3670  -33.1620 Cl  0  0  0  0  0  0  0  0  0  0  0  0
   -8.2589   19.3999  -31.9216 H   0  0  0  0  0  0  0  0  0  0  0  0
   -8.7630   20.3626  -33.3520 H   0  0  0  0  0  0  0  0  0  0  0  0
   -7.1785   19.5164  -33.3520 H   0  0  0  0  0  0  0  0  0  0  0  0
   -9.1159   22.0545  -31.3319 H   0  0  0  0  0  0  0  0  0  0  0  0
   -8.0610   24.0918  -30.3606 H   0  0  0  0  0  0  0  0  0  0  0  0
   -2.4987   22.8133  -31.8280 H   0  0  0  0  0  0  0  0  0  0  0  0
   -1.2324   20.1916  -34.0780 H   0  0  0  0  0  0  0  0  0  0  0  0
   -1.8026   21.8098  -33.5422 H   0  0  0  0  0  0  0  0  0  0  0  0
   -0.3054   21.2656  -35.8559 H   0  0  0  0  0  0  0  0  0  0  0  0
   -0.5249   22.8870  -35.0590 H   0  0  0  0  0  0  0  0  0  0  0  0
    1.4706   19.9232  -35.0044 H   0  0  0  0  0  0  0  0  0  0  0  0
    2.8354   20.7581  -34.1657 H   0  0  0  0  0  0  0  0  0  0  0  0
    0.8648   19.2444  -32.9112 H   0  0  0  0  0  0  0  0  0  0  0  0
    1.8995   20.4959  -32.1189 H   0  0  0  0  0  0  0  0  0  0  0  0
   -0.7637   20.8630  -28.3773 H   0  0  0  0  0  0  0  0  0  0  0  0
   -1.7414   22.6116  -26.8970 H   0  0  0  0  0  0  0  0  0  0  0  0
   -3.8810   25.3400  -27.9600 H   0  0  0  0  0  0  0  0  0  0  0  0
   -4.2019   22.7991  -31.8240 H   0  0  0  0  0  0  0  0  0  0  0  0
  1  2  1  0
  2  3  2  0
  3  4  1  0
  4  5  2  0
  5  6  1  0
  6  7  2  0
  6  8  2  0
  6  9  1  0
  9 10  1  0
 10 11  2  0
 11 12  1  0
 12 13  1  0
 13 14  2  0
 13 15  2  0
 13 16  1  0
 16 17  1  0
 17 18  1  0
 18 19  1  0
 19 20  1  0
 20 21  1  0
 12 22  2  0
 22 23  1  0
 23 24  2  0
 24 25  1  0
  5 26  1  0
 26 27  2  0
 27 28  1  0
 27  2  1  0
 24 10  1  0
 21 16  1  0
  1 29  1  0
  1 30  1  0
  1 31  1  0
  3 32  1  0
  4 33  1  0
 11 34  1  0
 17 35  1  0
 17 36  1  0
 18 37  1  0
 18 38  1  0
 20 39  1  0
 20 40  1  0
 21 41  1  0
 21 42  1  0
 22 43  1  0
 23 44  1  0
 25 45  1  0
 26 46  1  0
M  CHG  1   9  -1
M  END
>  <UniqueID>  (11) 
10

>  <SMILES>  (11) 
Cc1ccc(S(=O)(=O)[N-]c2cc(S(=O)(=O)N3CCOCC3)ccc2O)cc1Cl

>  <Energy>  (11) 
59.364993276013934

>  <Genealogy>  (11) 
Cc1ccc(S(=O)(=O)[N-]c2cc(S(=O)(=O)N3CCOCC3)ccc2O)cc1Cl (protonated)
Cc1ccc(S(=O)(=O)[N-]c2cc(S(=O)(=O)N3CCOCC3)ccc2O)cc1Cl (3D coordinates assigned)
Cc1ccc(S(=O)(=O)[N-]c2cc(S(=O)(=O)N3CCOCC3)ccc2O)cc1Cl (nonaromatic ring conformer: 59.364993276013934 kcal/mol)

>  <smiles>  (11) 
Cc1ccc(S(=O)(=O)Nc2cc(S(=O)(=O)N3CCOCC3)ccc2O)cc1Cl

>  <score_type>  (11) 
oracle

>  <origin>  (11) 
adgpu

>  <m_score__min__energy>  (11) 
-11.619999999999999

>  <m_primary>  (11) 
energy

$$$$
11:0
     RDKit          3D

 46 48  0  0  0  0  0  0  0  0999 V2000
   -3.1070   21.3080  -28.6560 C   0  0  0  0  0  0  0  0  0  0  0  0
   -2.8040   21.6620  -30.1090 C   0  0  0  0  0  0  0  0  0  0  0  0
   -3.5610   22.8460  -30.5260 N   0  0  0  0  0  0  0  0  0  0  0  0
   -4.4100   22.9550  -31.5690 C   0  0  0  0  0  0  0  0  0  0  0  0
   -4.7840   21.6500  -32.7460 S   0  0  0  0  0  0  0  0  0  0  0  0
   -6.5080   21.5390  -32.2420 C   0  0  0  0  0  0  0  0  0  0  0  0
   -7.2430   22.7160  -32.0530 C   0  0  0  0  0  0  0  0  0  0  0  0
   -8.5820   22.6560  -31.6610 C   0  0  0  0  0  0  0  0  0  0  0  0
   -9.1890   21.4190  -31.4410 C   0  0  0  0  0  0  0  0  0  0  0  0
   -8.4600   20.2390  -31.6100 C   0  0  0  0  0  0  0  0  0  0  0  0
   -7.1170   20.2870  -32.0270 C   0  0  0  0  0  0  0  0  0  0  0  0
   -6.3390   19.0900  -32.1860 N   0  0  0  0  0  0  0  0  0  0  0  0
   -6.4030   18.1790  -33.2890 C   0  0  0  0  0  0  0  0  0  0  0  0
   -5.7070   18.5210  -34.5630 C   0  0  0  0  0  0  0  0  0  0  0  0
   -7.1150   17.1410  -33.2300 O   0  0  0  0  0  0  0  0  0  0  0  0
   -4.9830   24.1700  -31.6190 N   0  0  0  0  0  0  0  0  0  0  0  0
   -4.5160   24.8600  -30.5900 N   0  0  0  0  0  0  0  0  0  0  0  0
   -3.6500   24.0620  -29.9340 C   0  0  0  0  0  0  0  0  0  0  0  0
   -2.9680   24.4830  -28.6930 C   0  0  0  0  0  0  0  0  0  0  0  0
   -1.5980   24.7890  -28.7280 C   0  0  0  0  0  0  0  0  0  0  0  0
   -0.9270   25.1700  -27.5620 C   0  0  0  0  0  0  0  0  0  0  0  0
   -1.6130   25.2340  -26.3440 C   0  0  0  0  0  0  0  0  0  0  0  0
   -0.7670   25.7360  -24.8830 S   0  0  0  0  0  0  0  0  0  0  0  0
   -0.4630   24.3570  -23.8860 N   0  0  0  0  0  0  0  0  0  0  0  0
    0.5390   26.3890  -25.2440 O   0  0  0  0  0  0  0  0  0  0  0  0
   -1.6080   26.7270  -24.1280 O   0  0  0  0  0  0  0  0  0  0  0  0
   -2.9770   24.9150  -26.3010 C   0  0  0  0  0  0  0  0  0  0  0  0
   -3.6480   24.5320  -27.4660 C   0  0  0  0  0  0  0  0  0  0  0  0
   -2.5376   21.9732  -27.9902 H   0  0  0  0  0  0  0  0  0  0  0  0
   -4.1832   21.4318  -28.4652 H   0  0  0  0  0  0  0  0  0  0  0  0
   -2.8186   20.2638  -28.4652 H   0  0  0  0  0  0  0  0  0  0  0  0
   -1.7283   21.8668  -30.2133 H   0  0  0  0  0  0  0  0  0  0  0  0
   -3.0965   20.8145  -30.7463 H   0  0  0  0  0  0  0  0  0  0  0  0
   -6.7632   23.6926  -32.2141 H   0  0  0  0  0  0  0  0  0  0  0  0
   -9.1579   23.5834  -31.5257 H   0  0  0  0  0  0  0  0  0  0  0  0
  -10.2442   21.3727  -31.1337 H   0  0  0  0  0  0  0  0  0  0  0  0
   -8.9384   19.2677  -31.4161 H   0  0  0  0  0  0  0  0  0  0  0  0
   -4.7408   18.9958  -34.3370 H   0  0  0  0  0  0  0  0  0  0  0  0
   -5.5373   17.6037  -35.1458 H   0  0  0  0  0  0  0  0  0  0  0  0
   -6.3295   19.2158  -35.1458 H   0  0  0  0  0  0  0  0  0  0  0  0
   -1.0489   24.7286  -29.6792 H   0  0  0  0  0  0  0  0  0  0  0  0
    0.1434   25.4202  -27.6022 H   0  0  0  0  0  0  0  0  0  0  0  0
    0.5690   24.3190  -23.7240 H   0  0  0  0  0  0  0  0  0  0  0  0
   -0.9070   24.5480  -22.9580 H   0  0  0  0  0  0  0  0  0  0  0  0
   -3.5218   24.9662  -25.3467 H   0  0  0  0  0  0  0  0  0  0  0  0
   -4.7148   24.2676  -27.4209 H   0  0  0  0  0  0  0  0  0  0  0  0
  1  2  1  0
  2  3  1  0
  3  4  1  0
  4  5  1  0
  5  6  1  0
  6  7  2  0
  7  8  1  0
  8  9  2  0
  9 10  1  0
 10 11  2  0
 11 12  1  0
 12 13  1  0
 13 14  1  0
 13 15  2  0
  4 16  2  0
 16 17  1  0
 17 18  2  0
 18 19  1  0
 19 20  2  0
 20 21  1  0
 21 22  2  0
 22 23  1  0
 23 24  1  0
 23 25  2  0
 23 26  2  0
 22 27  1  0
 27 28  2  0
 18  3  1  0
 28 19  1  0
 11  6  1  0
  1 29  1  0
  1 30  1  0
  1 31  1  0
  2 32  1  0
  2 33  1  0
  7 34  1  0
  8 35  1  0
  9 36  1  0
 10 37  1  0
 14 38  1  0
 14 39  1  0
 14 40  1  0
 20 41  1  0
 21 42  1  0
 24 43  1  0
 24 44  1  0
 27 45  1  0
 28 46  1  0
M  CHG  1  12  -1
M  END
>  <UniqueID>  (12) 
11

>  <SMILES>  (12) 
CCn1c(Sc2ccccc2[N-]C(C)=O)nnc1-c1ccc(S(N)(=O)=O)cc1

>  <Energy>  (12) 
81.7741867075985

>  <Genealogy>  (12) 
CCn1c(Sc2ccccc2[N-]C(C)=O)nnc1-c1ccc(S(N)(=O)=O)cc1 (protonated)
CCn1c(Sc2ccccc2[N-]C(C)=O)nnc1-c1ccc(S(N)(=O)=O)cc1 (3D coordinates assigned)
CCn1c(Sc2ccccc2[N-]C(C)=O)nnc1-c1ccc(S(N)(=O)=O)cc1 (optimized conformer: 81.7741867075985 kcal/mol)

>  <smiles>  (12) 
CCn1c(Sc2ccccc2NC(C)=O)nnc1-c1ccc(S(N)(=O)=O)cc1

>  <score_type>  (12) 
oracle

>  <origin>  (12) 
adgpu

>  <m_score__min__energy>  (12) 
-10.07

>  <m_primary>  (12) 
energy

$$$$
12:0
     RDKit          3D

 46 48  0  0  0  0  0  0  0  0999 V2000
   -0.8900   28.6350  -25.1360 C   0  0  0  0  0  0  0  0  0  0  0  0
   -0.4890   28.6220  -26.4100 C   0  0  0  0  0  0  0  0  0  0  0  0
    0.1820   27.4200  -27.0120 C   0  0  0  0  0  0  0  0  0  0  0  0
   -0.6150   26.2150  -26.7770 N   0  0  0  0  0  0  0  0  0  0  0  0
   -0.6230   25.4410  -25.6670 C   0  0  0  0  0  0  0  0  0  0  0  0
    0.1150   25.6980  -24.5140 O   0  0  0  0  0  0  0  0  0  0  0  0
   -1.4490   24.3430  -25.8300 C   0  0  0  0  0  0  0  0  0  0  0  0
   -1.9750   24.4630  -27.1020 C   0  0  0  0  0  0  0  0  0  0  0  0
   -2.8240   23.4990  -27.7380 N   0  0  0  0  0  0  0  0  0  0  0  0
   -2.5230   22.8690  -28.9930 C   0  0  0  0  0  0  0  0  0  0  0  0
   -3.5170   22.7780  -29.9780 C   0  0  0  0  0  0  0  0  0  0  0  0
   -3.2380   22.1810  -31.2110 C   0  0  0  0  0  0  0  0  0  0  0  0
   -1.9580   21.6800  -31.4780 C   0  0  0  0  0  0  0  0  0  0  0  0
   -1.6200   20.9000  -33.0190 S   0  0  0  0  0  0  0  0  0  0  0  0
   -2.9230   20.7420  -33.7520 O   0  0  0  0  0  0  0  0  0  0  0  0
   -1.0180   19.5370  -32.8210 O   0  0  0  0  0  0  0  0  0  0  0  0
   -0.5650   21.8770  -33.9950 N   0  0  0  0  0  0  0  0  0  0  0  0
    0.2550   21.5270  -34.9440 C   0  0  0  0  0  0  0  0  0  0  0  0
    1.0090   22.4110  -35.5540 O   0  0  0  0  0  0  0  0  0  0  0  0
    1.7510   21.8560  -36.4670 N   0  0  0  0  0  0  0  0  0  0  0  0
    1.4710   20.5390  -36.4560 C   0  0  0  0  0  0  0  0  0  0  0  0
    2.1070   19.5580  -37.3890 C   0  0  0  0  0  0  0  0  0  0  0  0
    0.5150   20.2660  -35.4890 C   0  0  0  0  0  0  0  0  0  0  0  0
   -0.1220   18.9300  -35.2410 C   0  0  0  0  0  0  0  0  0  0  0  0
   -0.9510   21.8040  -30.5120 C   0  0  0  0  0  0  0  0  0  0  0  0
   -1.2300   22.4000  -29.2790 C   0  0  0  0  0  0  0  0  0  0  0  0
   -1.4250   25.6020  -27.6640 C   0  0  0  0  0  0  0  0  0  0  0  0
   -1.6230   26.0440  -28.9680 O   0  0  0  0  0  0  0  0  0  0  0  0
   -1.3787   29.5295  -24.7223 H   0  0  0  0  0  0  0  0  0  0  0  0
   -0.7316   27.7512  -24.5005 H   0  0  0  0  0  0  0  0  0  0  0  0
   -0.6540   29.5130  -27.0336 H   0  0  0  0  0  0  0  0  0  0  0  0
    0.2949   27.5734  -28.0954 H   0  0  0  0  0  0  0  0  0  0  0  0
    1.1680   27.2910  -26.5418 H   0  0  0  0  0  0  0  0  0  0  0  0
    0.2290   25.0030  -23.7890 H   0  0  0  0  0  0  0  0  0  0  0  0
   -1.6455   23.5433  -25.1007 H   0  0  0  0  0  0  0  0  0  0  0  0
   -3.7130   23.2370  -27.2550 H   0  0  0  0  0  0  0  0  0  0  0  0
   -4.5220   23.1786  -29.7794 H   0  0  0  0  0  0  0  0  0  0  0  0
   -4.0267   22.1046  -31.9740 H   0  0  0  0  0  0  0  0  0  0  0  0
    2.6148   18.7747  -36.8071 H   0  0  0  0  0  0  0  0  0  0  0  0
    1.3333   19.1003  -38.0230 H   0  0  0  0  0  0  0  0  0  0  0  0
    2.8406   20.0775  -38.0230 H   0  0  0  0  0  0  0  0  0  0  0  0
   -0.2039   18.7583  -34.1576 H   0  0  0  0  0  0  0  0  0  0  0  0
   -1.1252   18.9128  -35.6918 H   0  0  0  0  0  0  0  0  0  0  0  0
    0.4962   18.1397  -35.6918 H   0  0  0  0  0  0  0  0  0  0  0  0
    0.0619   21.4313  -30.7245 H   0  0  0  0  0  0  0  0  0  0  0  0
   -0.4326   22.5024  -28.5282 H   0  0  0  0  0  0  0  0  0  0  0  0
  1  2  2  0
  2  3  1  0
  3  4  1  0
  4  5  1  0
  5  6  1  0
  5  7  2  0
  7  8  1  0
  8  9  1  0
  9 10  1  0
 10 11  2  0
 11 12  1  0
 12 13  2  0
 13 14  1  0
 14 15  2  0
 14 16  2  0
 14 17  1  0
 17 18  2  3
 18 19  1  0
 19 20  1  0
 20 21  1  0
 21 22  1  0
 21 23  2  0
 23 24  1  0
 13 25  1  0
 25 26  2  0
  8 27  2  0
 27 28  1  0
 27  4  1  0
 26 10  1  0
 23 18  1  0
  1 29  1  0
  1 30  1  0
  2 31  1  0
  3 32  1  0
  3 33  1  0
  6 34  1  0
  7 35  1  0
  9 36  1  0
 11 37  1  0
 12 38  1  0
 22 39  1  0
 22 40  1  0
 22 41  1  0
 24 42  1  0
 24 43  1  0
 24 44  1  0
 25 45  1  0
 26 46  1  0
M  CHG  2  20  -1  28  -1
M  END
>  <UniqueID>  (13) 
12

>  <SMILES>  (13) 
C=CCn1c(O)cc(Nc2ccc(S(=O)(=O)N=c3o[n-]c(C)c3C)cc2)c1[O-]

>  <Energy>  (13) 
117.14356080718295

>  <Genealogy>  (13) 
C=CCn1c(O)cc(Nc2ccc(S(=O)(=O)N=c3o[n-]c(C)c3C)cc2)c1[O-] (protonated)
C=CCn1c(O)cc(Nc2ccc(S(=O)(=O)N=c3o[n-]c(C)c3C)cc2)c1[O-] (3D coordinates assigned)
C=CCn1c(O)cc(Nc2ccc(S(=O)(=O)N=c3o[n-]c(C)c3C)cc2)c1[O-] (optimized conformer: 117.14356080718295 kcal/mol)

>  <smiles>  (13) 
C=CCn1c(O)cc(Nc2ccc(S(=O)(=O)N=c3o[nH]c(C)c3C)cc2)c1O

>  <score_type>  (13) 
oracle

>  <origin>  (13) 
adgpu

>  <m_score__min__energy>  (13) 
-10.640000000000001

>  <m_primary>  (13) 
energy

$$$$
13:0
     RDKit          3D

 46 49  0  0  0  0  0  0  0  0999 V2000
   -5.9220   26.2720  -30.1090 O   0  0  0  0  0  0  0  0  0  0  0  0
   -5.2920   25.2470  -30.4890 C   0  0  0  0  0  0  0  0  0  0  0  0
   -3.8610   25.2290  -30.4700 N   0  0  0  0  0  0  0  0  0  0  0  0
   -3.0770   24.2380  -29.7420 C   0  0  0  0  0  0  0  0  0  0  0  0
   -2.4190   24.8690  -28.5490 C   0  0  0  0  0  0  0  0  0  0  0  0
   -2.8590   24.5700  -27.2520 C   0  0  0  0  0  0  0  0  0  0  0  0
   -2.2140   25.1520  -26.1590 C   0  0  0  0  0  0  0  0  0  0  0  0
   -1.1390   26.0190  -26.3680 C   0  0  0  0  0  0  0  0  0  0  0  0
   -0.7250   26.2900  -27.6740 C   0  0  0  0  0  0  0  0  0  0  0  0
   -1.3650   25.7130  -28.7260 N   0  0  0  0  0  0  0  0  0  0  0  0
   -6.0340   24.0690  -30.9510 C   0  0  0  0  0  0  0  0  0  0  0  0
   -5.6170   23.1770  -31.9300 C   0  0  0  0  0  0  0  0  0  0  0  0
   -6.6400   22.2570  -31.9820 C   0  0  0  0  0  0  0  0  0  0  0  0
   -7.5890   22.5990  -31.1070 N   0  0  0  0  0  0  0  0  0  0  0  0
   -7.2340   23.6940  -30.4560 N   0  0  0  0  0  0  0  0  0  0  0  0
   -8.7770   21.8020  -30.8350 C   0  0  0  0  0  0  0  0  0  0  0  0
   -9.0770   20.8300  -32.0080 C   0  0  0  0  0  0  0  0  0  0  0  0
   -7.8810   20.1610  -32.6000 N   0  0  2  0  0  0  0  0  0  0  0  0
   -7.4820   18.9100  -31.9080 C   0  0  0  0  0  0  0  0  0  0  0  0
   -6.5860   18.0000  -32.7210 C   0  0  0  0  0  0  0  0  0  0  0  0
   -7.1270   16.9270  -33.4490 C   0  0  0  0  0  0  0  0  0  0  0  0
   -6.2930   16.0940  -34.2020 C   0  0  0  0  0  0  0  0  0  0  0  0
   -4.9150   16.3130  -34.2210 C   0  0  0  0  0  0  0  0  0  0  0  0
   -4.3620   17.3630  -33.4790 C   0  0  0  0  0  0  0  0  0  0  0  0
   -2.6300   17.6350  -33.4990 Cl  0  0  0  0  0  0  0  0  0  0  0  0
   -5.1940   18.2000  -32.7260 C   0  0  0  0  0  0  0  0  0  0  0  0
   -6.7590   21.0540  -32.8000 C   0  0  0  0  0  0  0  0  0  0  0  0
   -5.8710   20.7810  -33.6530 O   0  0  0  0  0  0  0  0  0  0  0  0
   -3.7397   23.4274  -29.4046 H   0  0  0  0  0  0  0  0  0  0  0  0
   -2.2998   23.8361  -30.4087 H   0  0  0  0  0  0  0  0  0  0  0  0
   -3.7043   23.8834  -27.0969 H   0  0  0  0  0  0  0  0  0  0  0  0
   -2.5515   24.9284  -25.1362 H   0  0  0  0  0  0  0  0  0  0  0  0
   -0.6244   26.4830  -25.5137 H   0  0  0  0  0  0  0  0  0  0  0  0
    0.1201   26.9713  -27.8520 H   0  0  0  0  0  0  0  0  0  0  0  0
   -4.6905   23.1999  -32.5226 H   0  0  0  0  0  0  0  0  0  0  0  0
   -8.6158   21.2183  -29.9167 H   0  0  0  0  0  0  0  0  0  0  0  0
   -9.6341   22.4810  -30.7153 H   0  0  0  0  0  0  0  0  0  0  0  0
   -9.7557   20.0479  -31.6369 H   0  0  0  0  0  0  0  0  0  0  0  0
   -9.5118   21.4443  -32.8102 H   0  0  0  0  0  0  0  0  0  0  0  0
   -8.1770   19.8610  -33.5600 H   0  0  0  0  0  0  0  0  0  0  0  0
   -6.9481   19.1830  -30.9858 H   0  0  0  0  0  0  0  0  0  0  0  0
   -8.4087   18.3483  -31.7190 H   0  0  0  0  0  0  0  0  0  0  0  0
   -8.2110   16.7412  -33.4267 H   0  0  0  0  0  0  0  0  0  0  0  0
   -6.7245   15.2640  -34.7807 H   0  0  0  0  0  0  0  0  0  0  0  0
   -4.2629   15.6599  -34.8196 H   0  0  0  0  0  0  0  0  0  0  0  0
   -4.7567   19.0183  -32.1352 H   0  0  0  0  0  0  0  0  0  0  0  0
  1  2  2  0
  2  3  1  0
  3  4  1  0
  4  5  1  0
  5  6  2  0
  6  7  1  0
  7  8  2  0
  8  9  1  0
  9 10  2  0
  2 11  1  0
 11 12  1  0
 12 13  2  0
 13 14  1  0
 14 15  1  0
 14 16  1  0
 16 17  1  0
 17 18  1  0
 18 19  1  0
 19 20  1  0
 20 21  2  0
 21 22  1  0
 22 23  2  0
 23 24  1  0
 24 25  1  0
 24 26  2  0
 18 27  1  0
 27 28  2  0
 10  5  1  0
 15 11  2  0
 26 20  1  0
 27 13  1  0
  4 29  1  0
  4 30  1  0
  6 31  1  0
  7 32  1  0
  8 33  1  0
  9 34  1  0
 12 35  1  0
 16 36  1  0
 16 37  1  0
 17 38  1  0
 17 39  1  0
 18 40  1  6
 19 41  1  0
 19 42  1  0
 21 43  1  0
 22 44  1  0
 23 45  1  0
 26 46  1  0
M  CHG  2   3  -1  18   1
M  END
>  <UniqueID>  (14) 
13

>  <SMILES>  (14) 
O=C([N-]Cc1ccccn1)c1cc2n(n1)CC[N@H+](Cc1cccc(Cl)c1)C2=O

>  <Energy>  (14) 
85.85351884947845

>  <Genealogy>  (14) 
O=C([N-]Cc1ccccn1)c1cc2n(n1)CC[NH+](Cc1cccc(Cl)c1)C2=O (protonated)
O=C([N-]Cc1ccccn1)c1cc2n(n1)CC[N@H+](Cc1cccc(Cl)c1)C2=O (chirality)
O=C([N-]Cc1ccccn1)c1cc2n(n1)CC[N@H+](Cc1cccc(Cl)c1)C2=O (3D coordinates assigned)
O=C([N-]Cc1ccccn1)c1cc2n(n1)CC[N@H+](Cc1cccc(Cl)c1)C2=O (nonaromatic ring conformer: 85.85351884947845 kcal/mol)

>  <smiles>  (14) 
O=C(NCc1ccccn1)c1cc2n(n1)CCN(Cc1cccc(Cl)c1)C2=O

>  <score_type>  (14) 
oracle

>  <origin>  (14) 
adgpu

>  <m_score__min__energy>  (14) 
-11.789999999999999

>  <m_primary>  (14) 
energy

$$$$
14:0
     RDKit          3D

 51 53  0  0  0  0  0  0  0  0999 V2000
   -1.2330   26.3180  -28.9600 N   0  0  0  0  0  0  0  0  0  0  0  0
   -1.5880   24.8930  -28.0530 S   0  0  0  0  0  0  0  0  0  0  0  0
   -0.3510   24.0450  -27.9430 O   0  0  0  0  0  0  0  0  0  0  0  0
   -2.0350   25.2770  -26.6700 O   0  0  0  0  0  0  0  0  0  0  0  0
   -2.8680   23.9890  -28.8580 C   0  0  0  0  0  0  0  0  0  0  0  0
   -2.5710   23.1930  -29.9710 C   0  0  0  0  0  0  0  0  0  0  0  0
   -3.5810   22.4630  -30.6060 C   0  0  0  0  0  0  0  0  0  0  0  0
   -4.8980   22.5000  -30.1180 C   0  0  0  0  0  0  0  0  0  0  0  0
   -5.9210   21.7560  -30.8040 N   0  0  0  0  0  0  0  0  0  0  0  0
   -7.2240   22.2730  -31.1180 C   0  0  0  0  0  0  0  0  0  0  0  0
   -7.6250   23.3560  -30.6150 O   0  0  0  0  0  0  0  0  0  0  0  0
   -8.1590   21.4760  -31.9770 C   0  0  0  0  0  0  0  0  0  0  0  0
   -7.4790   20.2240  -32.4580 C   0  0  0  0  0  0  0  0  0  0  0  0
   -7.7840   18.9830  -31.8760 C   0  0  0  0  0  0  0  0  0  0  0  0
   -7.1830   17.8150  -32.3500 C   0  0  0  0  0  0  0  0  0  0  0  0
   -6.2670   17.8710  -33.4100 C   0  0  0  0  0  0  0  0  0  0  0  0
   -5.5320   16.3880  -34.0130 S   0  0  0  0  0  0  0  0  0  0  0  0
   -6.5900   15.3410  -34.2250 O   0  0  0  0  0  0  0  0  0  0  0  0
   -4.8740   16.6790  -35.3340 O   0  0  0  0  0  0  0  0  0  0  0  0
   -4.3410   15.8130  -32.8700 N   0  0  0  0  0  0  0  0  0  0  0  0
   -4.9600   14.9330  -31.8470 C   0  0  0  0  0  0  0  0  0  0  0  0
   -4.7270   13.4400  -32.1200 C   0  0  0  0  0  0  0  0  0  0  0  0
   -3.2230   13.1110  -32.1710 C   0  0  0  0  0  0  0  0  0  0  0  0
   -2.3770   14.2880  -32.6850 C   0  0  0  0  0  0  0  0  0  0  0  0
   -3.2020   15.2070  -33.5940 C   0  0  0  0  0  0  0  0  0  0  0  0
   -5.9680   19.1070  -34.0000 C   0  0  0  0  0  0  0  0  0  0  0  0
   -6.5760   20.2750  -33.5320 C   0  0  0  0  0  0  0  0  0  0  0  0
   -5.1940   23.3080  -29.0060 C   0  0  0  0  0  0  0  0  0  0  0  0
   -4.1840   24.0430  -28.3780 C   0  0  0  0  0  0  0  0  0  0  0  0
   -1.2340   26.0440  -29.9680 H   0  0  0  0  0  0  0  0  0  0  0  0
   -1.5388   23.1416  -30.3476 H   0  0  0  0  0  0  0  0  0  0  0  0
   -3.3429   21.8566  -31.4923 H   0  0  0  0  0  0  0  0  0  0  0  0
   -5.7290   20.7530  -31.0260 H   0  0  0  0  0  0  0  0  0  0  0  0
   -9.0492   21.2042  -31.3907 H   0  0  0  0  0  0  0  0  0  0  0  0
   -8.4539   22.0820  -32.8463 H   0  0  0  0  0  0  0  0  0  0  0  0
   -8.4999   18.9306  -31.0425 H   0  0  0  0  0  0  0  0  0  0  0  0
   -7.4293   16.8468  -31.8897 H   0  0  0  0  0  0  0  0  0  0  0  0
   -4.5307   15.1810  -30.8651 H   0  0  0  0  0  0  0  0  0  0  0  0
   -6.0457   15.1074  -31.8762 H   0  0  0  0  0  0  0  0  0  0  0  0
   -5.1961   12.8511  -31.3180 H   0  0  0  0  0  0  0  0  0  0  0  0
   -5.1713   13.1907  -33.0949 H   0  0  0  0  0  0  0  0  0  0  0  0
   -2.8848   12.8504  -31.1572 H   0  0  0  0  0  0  0  0  0  0  0  0
   -3.0888   12.2735  -32.8714 H   0  0  0  0  0  0  0  0  0  0  0  0
   -2.0098   14.8684  -31.8258 H   0  0  0  0  0  0  0  0  0  0  0  0
   -1.5358   13.8847  -33.2678 H   0  0  0  0  0  0  0  0  0  0  0  0
   -2.5527   16.0099  -33.9731 H   0  0  0  0  0  0  0  0  0  0  0  0
   -3.6035   14.6018  -34.4202 H   0  0  0  0  0  0  0  0  0  0  0  0
   -5.2525   19.1576  -34.8340 H   0  0  0  0  0  0  0  0  0  0  0  0
   -6.3459   21.2398  -34.0077 H   0  0  0  0  0  0  0  0  0  0  0  0
   -6.2257   23.3621  -28.6282 H   0  0  0  0  0  0  0  0  0  0  0  0
   -4.4230   24.6662  -27.5037 H   0  0  0  0  0  0  0  0  0  0  0  0
  1  2  1  0
  2  3  2  0
  2  4  2  0
  2  5  1  0
  5  6  2  0
  6  7  1  0
  7  8  2  0
  8  9  1  0
  9 10  1  0
 10 11  2  0
 10 12  1  0
 12 13  1  0
 13 14  2  0
 14 15  1  0
 15 16  2  0
 16 17  1  0
 17 18  2  0
 17 19  2  0
 17 20  1  0
 20 21  1  0
 21 22  1  0
 22 23  1  0
 23 24  1  0
 24 25  1  0
 16 26  1  0
 26 27  2  0
  8 28  1  0
 28 29  2  0
 29  5  1  0
 27 13  1  0
 25 20  1  0
  1 30  1  0
  6 31  1  0
  7 32  1  0
  9 33  1  0
 12 34  1  0
 12 35  1  0
 14 36  1  0
 15 37  1  0
 21 38  1  0
 21 39  1  0
 22 40  1  0
 22 41  1  0
 23 42  1  0
 23 43  1  0
 24 44  1  0
 24 45  1  0
 25 46  1  0
 25 47  1  0
 26 48  1  0
 27 49  1  0
 28 50  1  0
 29 51  1  0
M  CHG  1   1  -1
M  END
>  <UniqueID>  (15) 
14

>  <SMILES>  (15) 
[NH-]S(=O)(=O)c1ccc(NC(=O)Cc2ccc(S(=O)(=O)N3CCCCC3)cc2)cc1

>  <Energy>  (15) 
58.34769446157366

>  <Genealogy>  (15) 
[NH-]S(=O)(=O)c1ccc(NC(=O)Cc2ccc(S(=O)(=O)N3CCCCC3)cc2)cc1 (protonated)
[NH-]S(=O)(=O)c1ccc(NC(=O)Cc2ccc(S(=O)(=O)N3CCCCC3)cc2)cc1 (3D coordinates assigned)
[NH-]S(=O)(=O)c1ccc(NC(=O)Cc2ccc(S(=O)(=O)N3CCCCC3)cc2)cc1 (nonaromatic ring conformer: 58.34769446157366 kcal/mol)

>  <smiles>  (15) 
NS(=O)(=O)c1ccc(NC(=O)Cc2ccc(S(=O)(=O)N3CCCCC3)cc2)cc1

>  <score_type>  (15) 
oracle

>  <origin>  (15) 
adgpu

>  <m_score__min__energy>  (15) 
-11.210000000000001

>  <m_primary>  (15) 
energy

$$$$
15:0
     RDKit          3D

 49 52  0  0  0  0  0  0  0  0999 V2000
   -0.0920   21.9710  -30.1490 O   0  0  0  0  0  0  0  0  0  0  0  0
   -0.5540   22.8580  -29.3770 C   0  0  0  0  0  0  0  0  0  0  0  0
    0.3420   23.8550  -28.8600 N   0  0  0  0  0  0  0  0  0  0  0  0
    0.0470   24.7970  -27.8190 C   0  0  0  0  0  0  0  0  0  0  0  0
    0.5210   24.5340  -26.5260 C   0  0  0  0  0  0  0  0  0  0  0  0
    0.2650   25.4350  -25.4870 C   0  0  0  0  0  0  0  0  0  0  0  0
   -0.4780   26.5950  -25.7280 C   0  0  0  0  0  0  0  0  0  0  0  0
   -0.9510   26.8620  -27.0130 C   0  0  0  0  0  0  0  0  0  0  0  0
   -0.7020   25.9660  -28.0580 C   0  0  0  0  0  0  0  0  0  0  0  0
   -1.2310   26.2300  -29.3150 O   0  0  0  0  0  0  0  0  0  0  0  0
   -2.0060   22.8760  -29.0690 C   0  0  0  0  0  0  0  0  0  0  0  0
   -2.8830   23.6280  -29.8720 C   0  0  0  0  0  0  0  0  0  0  0  0
   -4.2490   23.6960  -29.5650 C   0  0  0  0  0  0  0  0  0  0  0  0
   -5.3100   24.7160  -30.5250 S   0  0  0  0  0  0  0  0  0  0  0  0
   -4.6720   26.0500  -30.7890 O   0  0  0  0  0  0  0  0  0  0  0  0
   -6.5890   24.9420  -29.7840 O   0  0  0  0  0  0  0  0  0  0  0  0
   -5.6540   23.9410  -32.0350 N   0  0  0  0  0  0  0  0  0  0  0  0
   -5.8720   22.5390  -32.2420 C   0  0  0  0  0  0  0  0  0  0  0  0
   -7.1680   22.0420  -32.0040 C   0  0  0  0  0  0  0  0  0  0  0  0
   -7.4870   20.7030  -32.2750 C   0  0  0  0  0  0  0  0  0  0  0  0
   -6.4950   19.8480  -32.7950 C   0  0  0  0  0  0  0  0  0  0  0  0
   -5.1850   20.3240  -32.9880 C   0  0  0  0  0  0  0  0  0  0  0  0
   -4.8610   21.6500  -32.6870 C   0  0  0  0  0  0  0  0  0  0  0  0
   -3.5400   22.0490  -32.8090 O   0  0  0  0  0  0  0  0  0  0  0  0
   -6.8640   18.4330  -33.1520 C   0  0  0  0  0  0  0  0  0  0  0  0
   -7.8130   17.8730  -32.0870 C   0  0  0  0  0  0  0  0  0  0  0  0
   -9.1020   18.7100  -31.9660 C   0  0  0  0  0  0  0  0  0  0  0  0
   -8.9230   20.2390  -32.1690 C   0  0  0  0  0  0  0  0  0  0  0  0
   -4.7530   22.9800  -28.4710 C   0  0  0  0  0  0  0  0  0  0  0  0
   -3.8980   22.2030  -27.6850 C   0  0  0  0  0  0  0  0  0  0  0  0
   -2.5310   22.1460  -27.9780 C   0  0  0  0  0  0  0  0  0  0  0  0
   -1.7190   21.4080  -27.1790 F   0  0  0  0  0  0  0  0  0  0  0  0
    1.0955   23.6171  -26.3281 H   0  0  0  0  0  0  0  0  0  0  0  0
    0.6495   25.2304  -24.4769 H   0  0  0  0  0  0  0  0  0  0  0  0
   -0.6890   27.2952  -24.9063 H   0  0  0  0  0  0  0  0  0  0  0  0
   -1.5227   27.7818  -27.2055 H   0  0  0  0  0  0  0  0  0  0  0  0
   -2.4934   24.1671  -30.7481 H   0  0  0  0  0  0  0  0  0  0  0  0
   -7.9406   22.7128  -31.6001 H   0  0  0  0  0  0  0  0  0  0  0  0
   -4.4103   19.6478  -33.3786 H   0  0  0  0  0  0  0  0  0  0  0  0
   -7.3628   18.4195  -34.1323 H   0  0  0  0  0  0  0  0  0  0  0  0
   -5.9549   17.8153  -33.1970 H   0  0  0  0  0  0  0  0  0  0  0  0
   -8.0831   16.8418  -32.3586 H   0  0  0  0  0  0  0  0  0  0  0  0
   -7.2939   17.9056  -31.1177 H   0  0  0  0  0  0  0  0  0  0  0  0
   -9.8142   18.3481  -32.7221 H   0  0  0  0  0  0  0  0  0  0  0  0
   -9.4526   18.5799  -30.9315 H   0  0  0  0  0  0  0  0  0  0  0  0
   -9.4436   20.5241  -33.0951 H   0  0  0  0  0  0  0  0  0  0  0  0
   -9.3376   20.7204  -31.2710 H   0  0  0  0  0  0  0  0  0  0  0  0
   -5.8252   23.0298  -28.2302 H   0  0  0  0  0  0  0  0  0  0  0  0
   -4.3007   21.6346  -26.8336 H   0  0  0  0  0  0  0  0  0  0  0  0
  1  2  2  0
  2  3  1  0
  3  4  1  0
  4  5  2  0
  5  6  1  0
  6  7  2  0
  7  8  1  0
  8  9  2  0
  9 10  1  0
  2 11  1  0
 11 12  2  0
 12 13  1  0
 13 14  1  0
 14 15  2  0
 14 16  2  0
 14 17  1  0
 17 18  1  0
 18 19  2  0
 19 20  1  0
 20 21  2  0
 21 22  1  0
 22 23  2  0
 23 24  1  0
 21 25  1  0
 25 26  1  0
 26 27  1  0
 27 28  1  0
 13 29  2  0
 29 30  1  0
 30 31  2  0
 31 32  1  0
  9  4  1  0
 31 11  1  0
 23 18  1  0
 28 20  1  0
  5 33  1  0
  6 34  1  0
  7 35  1  0
  8 36  1  0
 12 37  1  0
 19 38  1  0
 22 39  1  0
 25 40  1  0
 25 41  1  0
 26 42  1  0
 26 43  1  0
 27 44  1  0
 27 45  1  0
 28 46  1  0
 28 47  1  0
 29 48  1  0
 30 49  1  0
M  CHG  4   3  -1  10  -1  17  -1  24  -1
M  END
>  <UniqueID>  (16) 
15

>  <SMILES>  (16) 
O=C([N-]c1ccccc1[O-])c1cc(S(=O)(=O)[N-]c2cc3c(cc2[O-])CCCC3)ccc1F

>  <Energy>  (16) 
69.20284176359527

>  <Genealogy>  (16) 
O=C([N-]c1ccccc1[O-])c1cc(S(=O)(=O)[N-]c2cc3c(cc2[O-])CCCC3)ccc1F (protonated)
O=C([N-]c1ccccc1[O-])c1cc(S(=O)(=O)[N-]c2cc3c(cc2[O-])CCCC3)ccc1F (3D coordinates assigned)
O=C([N-]c1ccccc1[O-])c1cc(S(=O)(=O)[N-]c2cc3c(cc2[O-])CCCC3)ccc1F (nonaromatic ring conformer: 69.20284176359527 kcal/mol)

>  <smiles>  (16) 
O=C(Nc1ccccc1O)c1cc(S(=O)(=O)Nc2cc3c(cc2O)CCCC3)ccc1F

>  <score_type>  (16) 
oracle

>  <origin>  (16) 
adgpu

>  <m_score__min__energy>  (16) 
-14.49

>  <m_primary>  (16) 
energy

$$$$
16:0
     RDKit          3D

 72 76  0  0  1  0  0  0  0  0999 V2000
   -3.6940   14.4250  -32.5810 C   0  0  0  0  0  0  0  0  0  0  0  0
   -3.3960   15.8020  -32.6800 O   0  0  0  0  0  0  0  0  0  0  0  0
   -4.2900   16.6900  -33.2980 C   0  0  0  0  0  0  0  0  0  0  0  0
   -5.2420   17.3400  -32.5530 C   0  0  0  0  0  0  0  0  0  0  0  0
   -6.1580   18.2330  -33.1070 C   0  0  0  0  0  0  0  0  0  0  0  0
   -7.1220   18.9060  -32.3110 N   0  0  0  0  0  0  0  0  0  0  0  0
   -6.7890   19.9840  -31.3870 C   0  0  0  0  0  0  0  0  0  0  0  0
   -7.6500   21.1830  -31.8100 C   0  0  0  0  0  0  0  0  0  0  0  0
   -9.0400   20.7970  -31.6720 N   0  0  0  0  0  0  0  0  0  0  0  0
   -9.8590   21.9470  -31.9680 C   0  0  0  0  0  0  0  0  0  0  0  0
   -9.3090   19.8010  -32.7170 C   0  0  0  0  0  0  0  0  0  0  0  0
   -8.5500   18.5550  -32.3450 C   0  0  0  0  0  0  0  0  0  0  0  0
   -6.0570   18.4310  -34.4650 C   0  0  0  0  0  0  0  0  0  0  0  0
   -5.0920   17.7760  -35.2450 C   0  0  0  0  0  0  0  0  0  0  0  0
   -4.2010   16.9000  -34.6700 C   0  0  0  0  0  0  0  0  0  0  0  0
   -3.1880   16.2010  -35.3580 N   0  0  0  0  0  0  0  0  0  0  0  0
   -1.9870   16.6530  -35.3230 C   0  0  0  0  0  0  0  0  0  0  0  0
   -1.0560   15.9510  -35.9970 N   0  0  0  0  0  0  0  0  0  0  0  0
    0.2400   16.2930  -36.0540 C   0  0  0  0  0  0  0  0  0  0  0  0
    0.6570   17.4270  -35.3890 C   0  0  0  0  0  0  0  0  0  0  0  0
    1.9580   17.8400  -35.4030 F   0  0  0  0  0  0  0  0  0  0  0  0
   -0.3180   18.1520  -34.6910 C   0  0  0  0  0  0  0  0  0  0  0  0
    0.1180   19.2020  -34.0840 N   0  0  0  0  0  0  0  0  0  0  0  0
   -0.8060   19.9900  -33.3530 C   0  0  0  0  0  0  0  0  0  0  0  0
   -1.8010   20.7440  -33.9250 C   0  0  0  0  0  0  0  0  0  0  0  0
   -2.6710   21.5020  -33.1450 C   0  0  0  0  0  0  0  0  0  0  0  0
   -2.5580   21.5160  -31.7500 C   0  0  0  0  0  0  0  0  0  0  0  0
   -3.4510   22.3020  -30.9860 N   0  0  0  0  0  0  0  0  0  0  0  0
   -3.2660   22.6500  -29.5990 C   0  0  0  0  0  0  0  0  0  0  0  0
   -3.1800   24.1680  -29.4550 C   0  0  0  0  0  0  0  0  0  0  0  0
   -3.8590   24.7980  -30.5000 O   0  0  0  0  0  0  0  0  0  0  0  0
   -5.0130   24.1020  -30.8540 C   0  0  0  0  0  0  0  0  0  0  0  0
   -4.6700   22.8320  -31.6200 C   0  0  0  0  0  0  0  0  0  0  0  0
   -1.5650   20.7590  -31.2120 C   0  0  0  0  0  0  0  0  0  0  0  0
   -0.6800   19.9910  -31.9760 C   0  0  0  0  0  0  0  0  0  0  0  0
    0.3260   19.2290  -31.3700 O   0  0  0  0  0  0  0  0  0  0  0  0
    0.2290   17.8560  -31.0920 C   0  0  0  0  0  0  0  0  0  0  0  0
   -1.6080   17.7620  -34.6680 N   0  0  0  0  0  0  0  0  0  0  0  0
   -3.7560   14.1386  -31.5208 H   0  0  0  0  0  0  0  0  0  0  0  0
   -4.6569   14.2220  -33.0726 H   0  0  0  0  0  0  0  0  0  0  0  0
   -2.9012   13.8420  -33.0726 H   0  0  0  0  0  0  0  0  0  0  0  0
   -5.2841   17.1478  -31.4707 H   0  0  0  0  0  0  0  0  0  0  0  0
   -7.0253   19.6890  -30.3540 H   0  0  0  0  0  0  0  0  0  0  0  0
   -5.7164   20.2261  -31.4191 H   0  0  0  0  0  0  0  0  0  0  0  0
   -7.4347   22.0459  -31.1627 H   0  0  0  0  0  0  0  0  0  0  0  0
   -7.4303   21.4677  -32.8496 H   0  0  0  0  0  0  0  0  0  0  0  0
  -10.1906   22.4126  -31.0282 H   0  0  0  0  0  0  0  0  0  0  0  0
   -9.2739   22.6737  -32.5508 H   0  0  0  0  0  0  0  0  0  0  0  0
  -10.7370   21.6316  -32.5508 H   0  0  0  0  0  0  0  0  0  0  0  0
  -10.3867   19.5863  -32.7655 H   0  0  0  0  0  0  0  0  0  0  0  0
   -8.9936   20.1725  -33.7032 H   0  0  0  0  0  0  0  0  0  0  0  0
   -8.8736   18.1984  -31.3560 H   0  0  0  0  0  0  0  0  0  0  0  0
   -8.7365   17.7532  -33.0746 H   0  0  0  0  0  0  0  0  0  0  0  0
   -6.7555   19.1253  -34.9549 H   0  0  0  0  0  0  0  0  0  0  0  0
   -5.0475   17.9650  -36.3277 H   0  0  0  0  0  0  0  0  0  0  0  0
   -1.3300   15.0830  -36.5140 H   0  0  0  0  0  0  0  0  0  0  0  0
    0.9567   15.6804  -36.6206 H   0  0  0  0  0  0  0  0  0  0  0  0
   -1.9130   20.7494  -35.0193 H   0  0  0  0  0  0  0  0  0  0  0  0
   -3.4574   22.0976  -33.6318 H   0  0  0  0  0  0  0  0  0  0  0  0
   -4.1169   22.2748  -29.0115 H   0  0  0  0  0  0  0  0  0  0  0  0
   -2.3338   22.1963  -29.2313 H   0  0  0  0  0  0  0  0  0  0  0  0
   -3.6318   24.4669  -28.4976 H   0  0  0  0  0  0  0  0  0  0  0  0
   -2.1224   24.4687  -29.4857 H   0  0  0  0  0  0  0  0  0  0  0  0
   -5.5656   23.8337  -29.9415 H   0  0  0  0  0  0  0  0  0  0  0  0
   -5.6269   24.7465  -31.5004 H   0  0  0  0  0  0  0  0  0  0  0  0
   -5.4906   22.1036  -31.5423 H   0  0  0  0  0  0  0  0  0  0  0  0
   -4.5169   23.0322  -32.6907 H   0  0  0  0  0  0  0  0  0  0  0  0
   -1.4515   20.7500  -30.1179 H   0  0  0  0  0  0  0  0  0  0  0  0
    0.2181   17.7023  -30.0028 H   0  0  0  0  0  0  0  0  0  0  0  0
   -0.6995   17.4584  -31.5277 H   0  0  0  0  0  0  0  0  0  0  0  0
    1.0923   17.3318  -31.5277 H   0  0  0  0  0  0  0  0  0  0  0  0
   -2.3140   18.3100  -34.1510 H   0  0  0  0  0  0  0  0  0  0  0  0
  1  2  1  0
  2  3  1  0
  3  4  2  0
  4  5  1  0
  5  6  1  0
  6  7  1  0
  7  8  1  0
  8  9  1  0
  9 10  1  0
  9 11  1  0
 11 12  1  0
  5 13  2  0
 13 14  1  0
 14 15  2  0
 15 16  1  0
 16 17  2  0
 17 18  1  0
 18 19  1  0
 19 20  2  0
 20 21  1  0
 20 22  1  0
 22 23  2  0
 23 24  1  0
 24 25  2  0
 25 26  1  0
 26 27  2  0
 27 28  1  0
 28 29  1  0
 29 30  1  0
 30 31  1  0
 31 32  1  0
 32 33  1  0
 27 34  1  0
 34 35  2  0
 35 36  1  0
 36 37  1  0
 22 38  1  0
 15  3  1  0
 38 17  1  0
 12  6  1  0
 35 24  1  0
 33 28  1  0
  1 39  1  0
  1 40  1  0
  1 41  1  0
  4 42  1  0
  7 43  1  0
  7 44  1  0
  8 45  1  0
  8 46  1  0
 10 47  1  0
 10 48  1  0
 10 49  1  0
 11 50  1  0
 11 51  1  0
 12 52  1  0
 12 53  1  0
 13 54  1  0
 14 55  1  0
 18 56  1  0
 19 57  1  0
 25 58  1  0
 26 59  1  0
 29 60  1  0
 29 61  1  0
 30 62  1  0
 30 63  1  0
 32 64  1  0
 32 65  1  0
 33 66  1  0
 33 67  1  0
 34 68  1  0
 37 69  1  0
 37 70  1  0
 37 71  1  0
 38 72  1  0
M  END
>  <smiles>  (17) 
COc1cc(N2CCN(C)CC2)ccc1N=c1[nH]cc(F)c(=Nc2ccc(N3CCOCC3)cc2OC)[nH]1

>  <score_type>  (17) 
oracle

>  <origin>  (17) 
adgpu

>  <m_score__min__energy>  (17) 
-8.6999999999999993

>  <m_primary>  (17) 
energy

$$$$
17:0
     RDKit          3D

 55 58  0  0  0  0  0  0  0  0999 V2000
   -0.2380   21.6850  -26.6440 C   0  0  0  0  0  0  0  0  0  0  0  0
   -1.3890   22.3750  -27.3310 C   0  0  0  0  0  0  0  0  0  0  0  0
   -2.5880   21.6640  -27.4850 C   0  0  0  0  0  0  0  0  0  0  0  0
   -3.6710   22.2330  -28.1470 C   0  0  0  0  0  0  0  0  0  0  0  0
   -3.5830   23.5200  -28.6740 C   0  0  0  0  0  0  0  0  0  0  0  0
   -4.7030   24.0300  -29.4090 N   0  0  0  0  0  0  0  0  0  0  0  0
   -4.6080   24.6030  -30.7190 C   0  0  0  0  0  0  0  0  0  0  0  0
   -3.8720   25.6060  -30.9180 O   0  0  0  0  0  0  0  0  0  0  0  0
   -5.2840   24.0040  -31.8290 N   0  0  0  0  0  0  0  0  0  0  0  0
   -5.7780   22.6590  -31.8960 C   0  0  0  0  0  0  0  0  0  0  0  0
   -7.1090   22.3710  -32.2500 C   0  0  0  0  0  0  0  0  0  0  0  0
   -7.5470   21.0440  -32.3210 C   0  0  0  0  0  0  0  0  0  0  0  0
   -6.6590   19.9920  -32.0640 C   0  0  0  0  0  0  0  0  0  0  0  0
   -7.2320   18.3280  -32.1340 S   0  0  0  0  0  0  0  0  0  0  0  0
   -8.7030   18.2750  -31.8260 O   0  0  0  0  0  0  0  0  0  0  0  0
   -6.4960   17.5260  -31.0960 O   0  0  0  0  0  0  0  0  0  0  0  0
   -6.9190   17.6650  -33.7240 N   0  0  0  0  0  0  0  0  0  0  0  0
   -6.1330   16.4290  -33.6230 C   0  0  0  0  0  0  0  0  0  0  0  0
   -4.6610   16.7940  -33.7460 C   0  0  0  0  0  0  0  0  0  0  0  0
   -4.6370   18.1920  -34.3320 C   0  0  0  0  0  0  0  0  0  0  0  0
   -6.0960   18.5870  -34.5120 C   0  0  0  0  0  0  0  0  0  0  0  0
   -5.3250   20.2770  -31.7380 C   0  0  0  0  0  0  0  0  0  0  0  0
   -4.8880   21.6030  -31.6630 C   0  0  0  0  0  0  0  0  0  0  0  0
   -2.4160   24.2880  -28.4600 C   0  0  0  0  0  0  0  0  0  0  0  0
   -2.3540   25.6170  -28.8830 O   0  0  0  0  0  0  0  0  0  0  0  0
   -1.3070   23.7160  -27.7910 C   0  0  0  0  0  0  0  0  0  0  0  0
    0.1820   24.6790  -27.5650 S   0  0  0  0  0  0  0  0  0  0  0  0
    1.2790   24.1620  -28.4550 O   0  0  0  0  0  0  0  0  0  0  0  0
   -0.0740   26.1050  -27.9630 O   0  0  0  0  0  0  0  0  0  0  0  0
    0.7800   24.6570  -25.8720 C   0  0  0  0  0  0  0  0  0  0  0  0
   -0.3170   24.4440  -24.8400 C   0  0  0  0  0  0  0  0  0  0  0  0
    0.3510   25.8030  -24.9670 C   0  0  0  0  0  0  0  0  0  0  0  0
   -0.3634   21.7602  -25.5538 H   0  0  0  0  0  0  0  0  0  0  0  0
   -0.2172   20.6254  -26.9385 H   0  0  0  0  0  0  0  0  0  0  0  0
    0.7064   22.1660  -26.9385 H   0  0  0  0  0  0  0  0  0  0  0  0
   -2.6729   20.6456  -27.0780 H   0  0  0  0  0  0  0  0  0  0  0  0
   -4.6050   21.6621  -28.2554 H   0  0  0  0  0  0  0  0  0  0  0  0
   -7.8073   23.1915  -32.4716 H   0  0  0  0  0  0  0  0  0  0  0  0
   -8.5937   20.8261  -32.5799 H   0  0  0  0  0  0  0  0  0  0  0  0
   -6.3180   15.9478  -32.6513 H   0  0  0  0  0  0  0  0  0  0  0  0
   -6.4200   15.7284  -34.4210 H   0  0  0  0  0  0  0  0  0  0  0  0
   -4.1785   16.7833  -32.7575 H   0  0  0  0  0  0  0  0  0  0  0  0
   -4.1147   16.0778  -34.3774 H   0  0  0  0  0  0  0  0  0  0  0  0
   -4.1331   18.8876  -33.6448 H   0  0  0  0  0  0  0  0  0  0  0  0
   -4.0867   18.2243  -35.2839 H   0  0  0  0  0  0  0  0  0  0  0  0
   -6.2493   19.6176  -34.1594 H   0  0  0  0  0  0  0  0  0  0  0  0
   -6.3763   18.5343  -35.5744 H   0  0  0  0  0  0  0  0  0  0  0  0
   -4.6208   19.4553  -31.5408 H   0  0  0  0  0  0  0  0  0  0  0  0
   -3.8372   21.8185  -31.4191 H   0  0  0  0  0  0  0  0  0  0  0  0
   -3.1210   26.0890  -29.3440 H   0  0  0  0  0  0  0  0  0  0  0  0
    1.7523   24.2021  -26.1123 H   0  0  0  0  0  0  0  0  0  0  0  0
   -1.3594   24.3112  -25.1651 H   0  0  0  0  0  0  0  0  0  0  0  0
   -0.4828   23.7331  -24.0171 H   0  0  0  0  0  0  0  0  0  0  0  0
   -0.2078   26.6537  -25.3842 H   0  0  0  0  0  0  0  0  0  0  0  0
    0.8689   26.4828  -24.2744 H   0  0  0  0  0  0  0  0  0  0  0  0
  1  2  1  0
  2  3  2  0
  3  4  1  0
  4  5  2  0
  5  6  1  0
  6  7  1  0
  7  8  2  0
  7  9  1  0
  9 10  1  0
 10 11  2  0
 11 12  1  0
 12 13  2  0
 13 14  1  0
 14 15  2  0
 14 16  2  0
 14 17  1  0
 17 18  1  0
 18 19  1  0
 19 20  1  0
 20 21  1  0
 13 22  1  0
 22 23  2  0
  5 24  1  0
 24 25  1  0
 24 26  2  0
 26 27  1  0
 27 28  2  0
 27 29  2  0
 27 30  1  0
 30 31  1  0
 31 32  1  0
 26  2  1  0
 32 30  1  0
 23 10  1  0
 21 17  1  0
  1 33  1  0
  1 34  1  0
  1 35  1  0
  3 36  1  0
  4 37  1  0
 11 38  1  0
 12 39  1  0
 18 40  1  0
 18 41  1  0
 19 42  1  0
 19 43  1  0
 20 44  1  0
 20 45  1  0
 21 46  1  0
 21 47  1  0
 22 48  1  0
 23 49  1  0
 25 50  1  0
 30 51  1  0
 31 52  1  0
 31 53  1  0
 32 54  1  0
 32 55  1  0
M  CHG  2   6  -1   9  -1
M  END
>  <UniqueID>  (18) 
16

>  <SMILES>  (18) 
Cc1ccc([N-]C(=O)[N-]c2ccc(S(=O)(=O)N3CCCC3)cc2)c(O)c1S(=O)(=O)C1CC1

>  <Energy>  (18) 
334.6813678780325

>  <Genealogy>  (18) 
Cc1ccc([N-]C(=O)[N-]c2ccc(S(=O)(=O)N3CCCC3)cc2)c(O)c1S(=O)(=O)C1CC1 (protonated)
Cc1ccc([N-]C(=O)[N-]c2ccc(S(=O)(=O)N3CCCC3)cc2)c(O)c1S(=O)(=O)C1CC1 (3D coordinates assigned)
Cc1ccc([N-]C(=O)[N-]c2ccc(S(=O)(=O)N3CCCC3)cc2)c(O)c1S(=O)(=O)C1CC1 (nonaromatic ring conformer: 334.6813678780325 kcal/mol)

>  <smiles>  (18) 
Cc1ccc(NC(=O)Nc2ccc(S(=O)(=O)N3CCCC3)cc2)c(O)c1S(=O)(=O)C1CC1

>  <score_type>  (18) 
oracle

>  <origin>  (18) 
adgpu

>  <m_score__min__energy>  (18) 
-14.130000000000001

>  <m_primary>  (18) 
energy

$$$$
18:0
     RDKit          3D

 52 55  0  0  0  0  0  0  0  0999 V2000
   -5.7150   26.4520  -30.2720 O   0  0  0  0  0  0  0  0  0  0  0  0
   -5.1600   25.3500  -30.5280 C   0  0  0  0  0  0  0  0  0  0  0  0
   -3.7290   25.2700  -30.4800 N   0  0  0  0  0  0  0  0  0  0  0  0
   -2.9640   24.5830  -29.4440 C   0  0  0  0  0  0  0  0  0  0  0  0
   -3.4170   23.1270  -29.3220 C   0  0  0  0  0  0  0  0  0  0  0  0
   -2.2400   22.2030  -29.3700 C   0  0  0  0  0  0  0  0  0  0  0  0
   -1.1650   22.2710  -30.2510 C   0  0  0  0  0  0  0  0  0  0  0  0
   -0.3200   21.2360  -30.0420 N   0  0  0  0  0  0  0  0  0  0  0  0
   -0.8580   20.5110  -29.0450 C   0  0  0  0  0  0  0  0  0  0  0  0
   -0.3520   19.3410  -28.4830 C   0  0  0  0  0  0  0  0  0  0  0  0
   -1.0860   18.7400  -27.4450 C   0  0  0  0  0  0  0  0  0  0  0  0
   -2.3000   19.3110  -27.0000 C   0  0  0  0  0  0  0  0  0  0  0  0
   -3.1970   18.5500  -25.7010 Cl  0  0  0  0  0  0  0  0  0  0  0  0
   -2.7890   20.4910  -27.5910 C   0  0  0  0  0  0  0  0  0  0  0  0
   -2.0350   21.0670  -28.6130 C   0  0  0  0  0  0  0  0  0  0  0  0
   -6.0000   24.1820  -30.8540 C   0  0  0  0  0  0  0  0  0  0  0  0
   -6.5940   23.4370  -29.8240 C   0  0  0  0  0  0  0  0  0  0  0  0
   -7.4190   22.3500  -30.1250 C   0  0  0  0  0  0  0  0  0  0  0  0
   -7.6840   22.0130  -31.4600 C   0  0  0  0  0  0  0  0  0  0  0  0
   -8.7690   20.6740  -31.8380 S   0  0  0  0  0  0  0  0  0  0  0  0
  -10.0480   21.2390  -32.3940 O   0  0  0  0  0  0  0  0  0  0  0  0
   -9.1070   19.9420  -30.5690 O   0  0  0  0  0  0  0  0  0  0  0  0
   -8.0930   19.5380  -32.9950 N   0  0  0  0  0  0  0  0  0  0  0  0
   -8.0370   18.1630  -32.4550 C   0  0  0  0  0  0  0  0  0  0  0  0
   -6.8260   17.9240  -31.5240 C   0  0  0  0  0  0  0  0  0  0  0  0
   -5.8840   18.9790  -31.5450 O   0  0  0  0  0  0  0  0  0  0  0  0
   -5.5860   19.3250  -32.8770 C   0  0  0  0  0  0  0  0  0  0  0  0
   -6.7960   19.9980  -33.5470 C   0  0  0  0  0  0  0  0  0  0  0  0
   -7.0910   22.7550  -32.4900 C   0  0  0  0  0  0  0  0  0  0  0  0
   -6.2600   23.8390  -32.1890 C   0  0  0  0  0  0  0  0  0  0  0  0
   -1.8957   24.6093  -29.7050 H   0  0  0  0  0  0  0  0  0  0  0  0
   -3.1313   25.0900  -28.4822 H   0  0  0  0  0  0  0  0  0  0  0  0
   -3.9443   22.9914  -28.3662 H   0  0  0  0  0  0  0  0  0  0  0  0
   -4.0865   22.8923  -30.1627 H   0  0  0  0  0  0  0  0  0  0  0  0
   -1.0228   23.0550  -31.0094 H   0  0  0  0  0  0  0  0  0  0  0  0
    0.5680   21.0410  -30.5580 H   0  0  0  0  0  0  0  0  0  0  0  0
    0.5912   18.9015  -28.8397 H   0  0  0  0  0  0  0  0  0  0  0  0
   -0.7124   17.8180  -26.9755 H   0  0  0  0  0  0  0  0  0  0  0  0
   -3.7345   20.9439  -27.2579 H   0  0  0  0  0  0  0  0  0  0  0  0
   -6.4094   23.7099  -28.7745 H   0  0  0  0  0  0  0  0  0  0  0  0
   -7.8621   21.7566  -29.3117 H   0  0  0  0  0  0  0  0  0  0  0  0
   -8.7790   19.5230  -33.7870 H   0  0  0  0  0  0  0  0  0  0  0  0
   -8.9588   17.9731  -31.8856 H   0  0  0  0  0  0  0  0  0  0  0  0
   -7.9320   17.4795  -33.3105 H   0  0  0  0  0  0  0  0  0  0  0  0
   -7.1955   17.8070  -30.4945 H   0  0  0  0  0  0  0  0  0  0  0  0
   -6.3112   17.0219  -31.8862 H   0  0  0  0  0  0  0  0  0  0  0  0
   -4.7341   20.0208  -32.8875 H   0  0  0  0  0  0  0  0  0  0  0  0
   -5.3374   18.4092  -33.4334 H   0  0  0  0  0  0  0  0  0  0  0  0
   -6.7183   21.0854  -33.4002 H   0  0  0  0  0  0  0  0  0  0  0  0
   -6.7763   19.7255  -34.6125 H   0  0  0  0  0  0  0  0  0  0  0  0
   -7.2797   22.4840  -33.5393 H   0  0  0  0  0  0  0  0  0  0  0  0
   -5.8083   24.4252  -33.0029 H   0  0  0  0  0  0  0  0  0  0  0  0
  1  2  2  0
  2  3  1  0
  3  4  1  0
  4  5  1  0
  5  6  1  0
  6  7  2  0
  7  8  1  0
  8  9  1  0
  9 10  2  0
 10 11  1  0
 11 12  2  0
 12 13  1  0
 12 14  1  0
 14 15  2  0
  2 16  1  0
 16 17  2  0
 17 18  1  0
 18 19  2  0
 19 20  1  0
 20 21  2  0
 20 22  2  0
 20 23  1  0
 23 24  1  0
 24 25  1  0
 25 26  1  0
 26 27  1  0
 27 28  1  0
 19 29  1  0
 29 30  2  0
 15  6  1  0
 30 16  1  0
 15  9  1  0
 28 23  1  0
  4 31  1  0
  4 32  1  0
  5 33  1  0
  5 34  1  0
  7 35  1  0
  8 36  1  0
 10 37  1  0
 11 38  1  0
 14 39  1  0
 17 40  1  0
 18 41  1  0
 23 42  1  0
 24 43  1  0
 24 44  1  0
 25 45  1  0
 25 46  1  0
 27 47  1  0
 27 48  1  0
 28 49  1  0
 28 50  1  0
 29 51  1  0
 30 52  1  0
M  CHG  2   3  -1  23   1
M  END
>  <UniqueID>  (19) 
17

>  <SMILES>  (19) 
O=C([N-]CCc1c[nH]c2ccc(Cl)cc12)c1ccc(S(=O)(=O)[NH+]2CCOCC2)cc1

>  <Energy>  (19) 
96.46126767730159

>  <Genealogy>  (19) 
O=C([N-]CCc1c[nH]c2ccc(Cl)cc12)c1ccc(S(=O)(=O)[NH+]2CCOCC2)cc1 (protonated)
O=C([N-]CCc1c[nH]c2ccc(Cl)cc12)c1ccc(S(=O)(=O)[NH+]2CCOCC2)cc1 (3D coordinates assigned)
O=C([N-]CCc1c[nH]c2ccc(Cl)cc12)c1ccc(S(=O)(=O)[NH+]2CCOCC2)cc1 (nonaromatic ring conformer: 96.46126767730159 kcal/mol)

>  <smiles>  (19) 
O=C(NCCc1c[nH]c2ccc(Cl)cc12)c1ccc(S(=O)(=O)N2CCOCC2)cc1

>  <score_type>  (19) 
oracle

>  <origin>  (19) 
adgpu

>  <m_score__min__energy>  (19) 
-12.19

>  <m_primary>  (19) 
energy

$$$$
19:0
     RDKit          3D

 47 50  0  0  0  0  0  0  0  0999 V2000
    1.4750   26.2390  -26.7630 O   0  0  0  0  0  0  0  0  0  0  0  0
    0.5060   25.8470  -27.4640 C   0  0  0  0  0  0  0  0  0  0  0  0
    0.4670   24.5630  -27.9050 N   0  0  0  0  0  0  0  0  0  0  0  0
   -0.5740   24.1060  -28.6520 C   0  0  0  0  0  0  0  0  0  0  0  0
   -0.6170   22.7720  -29.0780 C   0  0  0  0  0  0  0  0  0  0  0  0
   -1.7230   22.2980  -29.8030 C   0  0  0  0  0  0  0  0  0  0  0  0
   -1.7760   20.6030  -30.2720 Cl  0  0  0  0  0  0  0  0  0  0  0  0
   -2.7990   23.1540  -30.1000 C   0  0  0  0  0  0  0  0  0  0  0  0
   -3.9630   22.6210  -30.7580 N   0  0  0  0  0  0  0  0  0  0  0  0
   -5.5170   23.3990  -30.7570 S   0  0  0  0  0  0  0  0  0  0  0  0
   -5.8650   23.7940  -29.3510 O   0  0  0  0  0  0  0  0  0  0  0  0
   -5.4580   24.6250  -31.6220 O   0  0  0  0  0  0  0  0  0  0  0  0
   -6.7250   22.2960  -31.4100 C   0  0  0  0  0  0  0  0  0  0  0  0
   -8.0600   22.7000  -31.5400 C   0  0  0  0  0  0  0  0  0  0  0  0
   -9.0310   21.7890  -31.9690 C   0  0  0  0  0  0  0  0  0  0  0  0
   -8.6790   20.4640  -32.2610 C   0  0  0  0  0  0  0  0  0  0  0  0
   -9.6610   19.5600  -32.6630 O   0  0  0  0  0  0  0  0  0  0  0  0
   -7.3350   20.0560  -32.1420 C   0  0  0  0  0  0  0  0  0  0  0  0
   -6.8450   18.3880  -32.4750 S   0  0  0  0  0  0  0  0  0  0  0  0
   -7.9890   17.6340  -33.0970 O   0  0  0  0  0  0  0  0  0  0  0  0
   -6.4960   17.7180  -31.1740 O   0  0  0  0  0  0  0  0  0  0  0  0
   -5.4530   18.3700  -33.5290 N   0  0  0  0  0  0  0  0  0  0  0  0
   -5.2410   17.0110  -34.0620 C   0  0  0  0  0  0  0  0  0  0  0  0
   -3.8690   16.8960  -34.7530 C   0  0  0  0  0  0  0  0  0  0  0  0
   -3.2980   18.1720  -34.9620 O   0  0  0  0  0  0  0  0  0  0  0  0
   -3.0230   18.7800  -33.7120 C   0  0  0  0  0  0  0  0  0  0  0  0
   -4.2640   18.8220  -32.7950 C   0  0  0  0  0  0  0  0  0  0  0  0
   -6.3640   20.9840  -31.7370 C   0  0  0  0  0  0  0  0  0  0  0  0
   -2.7300   24.5090  -29.7050 C   0  0  0  0  0  0  0  0  0  0  0  0
   -1.6310   24.9790  -28.9720 C   0  0  0  0  0  0  0  0  0  0  0  0
   -1.5840   26.2680  -28.5380 N   0  0  0  0  0  0  0  0  0  0  0  0
   -0.5410   26.7230  -27.7920 C   0  0  0  0  0  0  0  0  0  0  0  0
   -0.5270   27.9200  -27.3960 O   0  0  0  0  0  0  0  0  0  0  0  0
    0.2172   22.0942  -28.8442 H   0  0  0  0  0  0  0  0  0  0  0  0
   -8.3454   23.7358  -31.3042 H   0  0  0  0  0  0  0  0  0  0  0  0
  -10.0762   22.1141  -32.0778 H   0  0  0  0  0  0  0  0  0  0  0  0
   -9.5410   18.9670  -33.4790 H   0  0  0  0  0  0  0  0  0  0  0  0
   -5.2882   16.2885  -33.2339 H   0  0  0  0  0  0  0  0  0  0  0  0
   -6.0254   16.7995  -34.8036 H   0  0  0  0  0  0  0  0  0  0  0  0
   -3.1958   16.3003  -34.1190 H   0  0  0  0  0  0  0  0  0  0  0  0
   -4.0086   16.4105  -35.7301 H   0  0  0  0  0  0  0  0  0  0  0  0
   -2.2298   18.2087  -33.2077 H   0  0  0  0  0  0  0  0  0  0  0  0
   -2.7112   19.8173  -33.9038 H   0  0  0  0  0  0  0  0  0  0  0  0
   -4.0989   18.1630  -31.9298 H   0  0  0  0  0  0  0  0  0  0  0  0
   -4.4239   19.8558  -32.4548 H   0  0  0  0  0  0  0  0  0  0  0  0
   -5.3093   20.6776  -31.6759 H   0  0  0  0  0  0  0  0  0  0  0  0
   -3.5432   25.1991  -29.9741 H   0  0  0  0  0  0  0  0  0  0  0  0
  1  2  2  0
  2  3  1  0
  3  4  1  0
  4  5  2  0
  5  6  1  0
  6  7  1  0
  6  8  2  0
  8  9  1  0
  9 10  1  0
 10 11  2  0
 10 12  2  0
 10 13  1  0
 13 14  2  0
 14 15  1  0
 15 16  2  0
 16 17  1  0
 16 18  1  0
 18 19  1  0
 19 20  2  0
 19 21  2  0
 19 22  1  0
 22 23  1  0
 23 24  1  0
 24 25  1  0
 25 26  1  0
 26 27  1  0
 18 28  2  0
  8 29  1  0
 29 30  2  0
 30 31  1  0
 31 32  1  0
 32 33  2  0
 32  2  1  0
 30  4  1  0
 28 13  1  0
 27 22  1  0
  5 34  1  0
 14 35  1  0
 15 36  1  0
 17 37  1  0
 23 38  1  0
 23 39  1  0
 24 40  1  0
 24 41  1  0
 26 42  1  0
 26 43  1  0
 27 44  1  0
 27 45  1  0
 28 46  1  0
 29 47  1  0
M  CHG  3   3  -1   9  -1  31  -1
M  END
>  <UniqueID>  (20) 
18

>  <SMILES>  (20) 
O=c1[n-]c2cc(Cl)c([N-]S(=O)(=O)c3ccc(O)c(S(=O)(=O)N4CCOCC4)c3)cc2[n-]c1=O

>  <Energy>  (20) 
67.08699775548509

>  <Genealogy>  (20) 
O=c1[n-]c2cc(Cl)c([N-]S(=O)(=O)c3ccc(O)c(S(=O)(=O)N4CCOCC4)c3)cc2[n-]c1=O (protonated)
O=c1[n-]c2cc(Cl)c([N-]S(=O)(=O)c3ccc(O)c(S(=O)(=O)N4CCOCC4)c3)cc2[n-]c1=O (3D coordinates assigned)
O=c1[n-]c2cc(Cl)c([N-]S(=O)(=O)c3ccc(O)c(S(=O)(=O)N4CCOCC4)c3)cc2[n-]c1=O (nonaromatic ring conformer: 67.08699775548509 kcal/mol)

>  <smiles>  (20) 
O=c1[nH]c2cc(Cl)c(NS(=O)(=O)c3ccc(O)c(S(=O)(=O)N4CCOCC4)c3)cc2[nH]c1=O

>  <score_type>  (20) 
oracle

>  <origin>  (20) 
adgpu

>  <m_score__min__energy>  (20) 
-11.970000000000001

>  <m_primary>  (20) 
energy

$$$$
20:0
     RDKit          3D

 51 55  0  0  0  0  0  0  0  0999 V2000
   -4.6240   14.8690  -32.0330 C   0  0  0  0  0  0  0  0  0  0  0  0
   -5.3310   15.8910  -32.8590 C   0  0  0  0  0  0  0  0  0  0  0  0
   -5.0000   17.2250  -32.9470 C   0  0  0  0  0  0  0  0  0  0  0  0
   -5.9700   17.7460  -33.7780 C   0  0  0  0  0  0  0  0  0  0  0  0
   -6.0500   19.1600  -34.2580 C   0  0  0  0  0  0  0  0  0  0  0  0
   -6.8200   19.9650  -33.3120 N   0  0  0  0  0  0  0  0  0  0  0  0
   -8.1100   19.7680  -32.9420 C   0  0  0  0  0  0  0  0  0  0  0  0
   -8.5810   20.7300  -32.1050 N   0  0  0  0  0  0  0  0  0  0  0  0
   -7.5270   21.5580  -31.9710 C   0  0  0  0  0  0  0  0  0  0  0  0
   -7.4600   22.7300  -31.2230 C   0  0  0  0  0  0  0  0  0  0  0  0
   -6.2560   23.4650  -31.2430 C   0  0  0  0  0  0  0  0  0  0  0  0
   -6.1710   24.6610  -30.4560 N   0  0  0  0  0  0  0  0  0  0  0  0
   -5.0960   25.6070  -30.4700 C   0  0  0  0  0  0  0  0  0  0  0  0
   -5.3640   26.8370  -30.4660 O   0  0  0  0  0  0  0  0  0  0  0  0
   -3.7330   25.1630  -30.5010 N   0  0  0  0  0  0  0  0  0  0  0  0
   -3.0850   24.4010  -29.4740 C   0  0  0  0  0  0  0  0  0  0  0  0
   -3.6020   23.1450  -29.1530 C   0  0  0  0  0  0  0  0  0  0  0  0
   -2.9950   22.3620  -28.1760 C   0  0  0  0  0  0  0  0  0  0  0  0
   -1.8600   22.8190  -27.5030 C   0  0  0  0  0  0  0  0  0  0  0  0
   -1.1400   21.7540  -26.3000 Cl  0  0  0  0  0  0  0  0  0  0  0  0
   -1.3110   24.0830  -27.8190 C   0  0  0  0  0  0  0  0  0  0  0  0
    0.1490   24.6650  -26.9920 S   0  0  0  0  0  0  0  0  0  0  0  0
    0.8050   25.7370  -27.8150 O   0  0  0  0  0  0  0  0  0  0  0  0
    1.1430   23.5480  -26.8180 O   0  0  0  0  0  0  0  0  0  0  0  0
   -0.3330   25.3440  -25.4060 C   0  0  0  0  0  0  0  0  0  0  0  0
   -1.7810   25.7870  -25.2990 C   0  0  0  0  0  0  0  0  0  0  0  0
   -0.6770   26.8240  -25.4360 C   0  0  0  0  0  0  0  0  0  0  0  0
   -1.9100   24.8530  -28.8400 C   0  0  0  0  0  0  0  0  0  0  0  0
   -1.3190   26.0400  -29.2590 O   0  0  0  0  0  0  0  0  0  0  0  0
   -5.1460   22.9750  -31.9840 C   0  0  0  0  0  0  0  0  0  0  0  0
   -5.2510   21.7890  -32.7340 C   0  0  0  0  0  0  0  0  0  0  0  0
   -6.4670   21.1070  -32.6990 C   0  0  0  0  0  0  0  0  0  0  0  0
   -6.8210   16.7730  -34.1580 N   0  0  0  0  0  0  0  0  0  0  0  0
   -6.4370   15.6400  -33.5870 N   0  0  0  0  0  0  0  0  0  0  0  0
   -4.7769   15.0900  -30.9663 H   0  0  0  0  0  0  0  0  0  0  0  0
   -5.0256   13.8708  -32.2619 H   0  0  0  0  0  0  0  0  0  0  0  0
   -3.5483   14.8928  -32.2619 H   0  0  0  0  0  0  0  0  0  0  0  0
   -4.1608   17.7506  -32.4680 H   0  0  0  0  0  0  0  0  0  0  0  0
   -5.0343   19.5731  -34.3459 H   0  0  0  0  0  0  0  0  0  0  0  0
   -6.5469   19.1812  -35.2391 H   0  0  0  0  0  0  0  0  0  0  0  0
   -8.7144   18.9153  -33.2849 H   0  0  0  0  0  0  0  0  0  0  0  0
   -8.3221   23.0736  -30.6325 H   0  0  0  0  0  0  0  0  0  0  0  0
   -4.4950   22.7717  -29.6757 H   0  0  0  0  0  0  0  0  0  0  0  0
   -3.4129   21.3743  -27.9316 H   0  0  0  0  0  0  0  0  0  0  0  0
    0.3260   24.7027  -24.8023 H   0  0  0  0  0  0  0  0  0  0  0  0
   -2.4741   25.6079  -26.1342 H   0  0  0  0  0  0  0  0  0  0  0  0
   -2.5976   25.6102  -24.5835 H   0  0  0  0  0  0  0  0  0  0  0  0
   -0.5710   27.3947  -26.3704 H   0  0  0  0  0  0  0  0  0  0  0  0
   -0.3635   27.7078  -24.8610 H   0  0  0  0  0  0  0  0  0  0  0  0
   -4.1955   23.5286  -31.9709 H   0  0  0  0  0  0  0  0  0  0  0  0
   -4.4041   21.4132  -33.3268 H   0  0  0  0  0  0  0  0  0  0  0  0
  1  2  1  0
  2  3  1  0
  3  4  2  0
  4  5  1  0
  5  6  1  0
  6  7  1  0
  7  8  2  0
  8  9  1  0
  9 10  2  0
 10 11  1  0
 11 12  1  0
 12 13  1  0
 13 14  2  0
 13 15  1  0
 15 16  1  0
 16 17  2  0
 17 18  1  0
 18 19  2  0
 19 20  1  0
 19 21  1  0
 21 22  1  0
 22 23  2  0
 22 24  2  0
 22 25  1  0
 25 26  1  0
 26 27  1  0
 21 28  2  0
 28 29  1  0
 11 30  2  0
 30 31  1  0
 31 32  2  0
  4 33  1  0
 33 34  1  0
 34  2  2  0
 32  6  1  0
 32  9  1  0
 28 16  1  0
 27 25  1  0
  1 35  1  0
  1 36  1  0
  1 37  1  0
  3 38  1  0
  5 39  1  0
  5 40  1  0
  7 41  1  0
 10 42  1  0
 17 43  1  0
 18 44  1  0
 25 45  1  0
 26 46  1  0
 26 47  1  0
 27 48  1  0
 27 49  1  0
 30 50  1  0
 31 51  1  0
M  CHG  4  12  -1  15  -1  29  -1  33  -1
M  END
>  <UniqueID>  (21) 
19

>  <SMILES>  (21) 
Cc1cc(Cn2cnc3cc([N-]C(=O)[N-]c4ccc(Cl)c(S(=O)(=O)C5CC5)c4[O-])ccc32)[n-]n1

>  <Energy>  (21) 
394.53548473242193

>  <Genealogy>  (21) 
Cc1cc(Cn2cnc3cc([N-]C(=O)[N-]c4ccc(Cl)c(S(=O)(=O)C5CC5)c4[O-])ccc32)[n-]n1 (protonated)
Cc1cc(Cn2cnc3cc([N-]C(=O)[N-]c4ccc(Cl)c(S(=O)(=O)C5CC5)c4[O-])ccc32)[n-]n1 (3D coordinates assigned)
Cc1cc(Cn2cnc3cc([N-]C(=O)[N-]c4ccc(Cl)c(S(=O)(=O)C5CC5)c4[O-])ccc32)[n-]n1 (nonaromatic ring conformer: 394.53548473242193 kcal/mol)

>  <smiles>  (21) 
Cc1cc(Cn2cnc3cc(NC(=O)Nc4ccc(Cl)c(S(=O)(=O)C5CC5)c4O)ccc32)[nH]n1

>  <score_type>  (21) 
oracle

>  <origin>  (21) 
adgpu

>  <m_score__min__energy>  (21) 
-16.719999999999999

>  <m_primary>  (21) 
energy

$$$$
21:0
     RDKit          3D

 38 39  0  0  0  0  0  0  0  0999 V2000
   -5.7250   19.7830  -33.4690 C   0  0  0  0  0  0  0  0  0  0  0  0
   -6.8880   20.2800  -32.6610 C   0  0  0  0  0  0  0  0  0  0  0  0
   -8.1380   19.6490  -32.7460 C   0  0  0  0  0  0  0  0  0  0  0  0
   -9.2200   20.1340  -32.0080 C   0  0  0  0  0  0  0  0  0  0  0  0
   -9.0690   21.2550  -31.1880 C   0  0  0  0  0  0  0  0  0  0  0  0
   -7.8220   21.9050  -31.1010 C   0  0  0  0  0  0  0  0  0  0  0  0
   -7.6060   23.0330  -30.2930 O   0  0  0  0  0  0  0  0  0  0  0  0
   -7.2670   24.3400  -30.7590 C   0  0  0  0  0  0  0  0  0  0  0  0
   -6.0550   24.9090  -30.0120 C   0  0  0  0  0  0  0  0  0  0  0  0
   -4.7790   24.6010  -30.7330 C   0  0  0  0  0  0  0  0  0  0  0  0
   -4.7890   23.8040  -31.7100 O   0  0  0  0  0  0  0  0  0  0  0  0
   -3.5430   25.1140  -30.2130 N   0  0  0  0  0  0  0  0  0  0  0  0
   -2.6520   24.4510  -29.3050 C   0  0  0  0  0  0  0  0  0  0  0  0
   -2.8700   23.1250  -28.8860 C   0  0  0  0  0  0  0  0  0  0  0  0
   -1.9690   22.4980  -28.0100 C   0  0  0  0  0  0  0  0  0  0  0  0
   -2.1860   21.0720  -27.5950 C   0  0  0  0  0  0  0  0  0  0  0  0
   -0.8260   23.1910  -27.5820 C   0  0  0  0  0  0  0  0  0  0  0  0
   -0.5900   24.4950  -28.0180 C   0  0  0  0  0  0  0  0  0  0  0  0
   -1.4950   25.1230  -28.8800 C   0  0  0  0  0  0  0  0  0  0  0  0
   -1.2380   26.4200  -29.3150 O   0  0  0  0  0  0  0  0  0  0  0  0
   -6.7450   21.4190  -31.8530 C   0  0  0  0  0  0  0  0  0  0  0  0
   -4.9274   19.4422  -32.7924 H   0  0  0  0  0  0  0  0  0  0  0  0
   -6.0505   18.9454  -34.1034 H   0  0  0  0  0  0  0  0  0  0  0  0
   -5.3446   20.5972  -34.1034 H   0  0  0  0  0  0  0  0  0  0  0  0
   -8.2663   18.7704  -33.3953 H   0  0  0  0  0  0  0  0  0  0  0  0
  -10.1960   19.6308  -32.0727 H   0  0  0  0  0  0  0  0  0  0  0  0
   -9.9255   21.6309  -30.6091 H   0  0  0  0  0  0  0  0  0  0  0  0
   -7.0319   24.2865  -31.8323 H   0  0  0  0  0  0  0  0  0  0  0  0
   -8.1255   25.0033  -30.5774 H   0  0  0  0  0  0  0  0  0  0  0  0
   -6.1652   26.0003  -29.9285 H   0  0  0  0  0  0  0  0  0  0  0  0
   -6.0118   24.4454  -29.0154 H   0  0  0  0  0  0  0  0  0  0  0  0
   -3.7522   22.5761  -29.2472 H   0  0  0  0  0  0  0  0  0  0  0  0
   -2.1959   21.0071  -26.4970 H   0  0  0  0  0  0  0  0  0  0  0  0
   -3.1485   20.7170  -27.9919 H   0  0  0  0  0  0  0  0  0  0  0  0
   -1.3727   20.4468  -27.9919 H   0  0  0  0  0  0  0  0  0  0  0  0
   -0.1134   22.7040  -26.9001 H   0  0  0  0  0  0  0  0  0  0  0  0
    0.3103   25.0308  -27.6829 H   0  0  0  0  0  0  0  0  0  0  0  0
   -5.7751   21.9362  -31.8099 H   0  0  0  0  0  0  0  0  0  0  0  0
  1  2  1  0
  2  3  2  0
  3  4  1  0
  4  5  2  0
  5  6  1  0
  6  7  1  0
  7  8  1  0
  8  9  1  0
  9 10  1  0
 10 11  2  0
 10 12  1  0
 12 13  1  0
 13 14  2  0
 14 15  1  0
 15 16  1  0
 15 17  2  0
 17 18  1  0
 18 19  2  0
 19 20  1  0
  6 21  2  0
 21  2  1  0
 19 13  1  0
  1 22  1  0
  1 23  1  0
  1 24  1  0
  3 25  1  0
  4 26  1  0
  5 27  1  0
  8 28  1  0
  8 29  1  0
  9 30  1  0
  9 31  1  0
 14 32  1  0
 16 33  1  0
 16 34  1  0
 16 35  1  0
 17 36  1  0
 18 37  1  0
 21 38  1  0
M  CHG  2  12  -1  20  -1
M  END
>  <UniqueID>  (22) 
20

>  <SMILES>  (22) 
Cc1cccc(OCCC(=O)[N-]c2cc(C)ccc2[O-])c1

>  <Energy>  (22) 
36.71303508489086

>  <Genealogy>  (22) 
Cc1cccc(OCCC(=O)[N-]c2cc(C)ccc2[O-])c1 (protonated)
Cc1cccc(OCCC(=O)[N-]c2cc(C)ccc2[O-])c1 (3D coordinates assigned)
Cc1cccc(OCCC(=O)[N-]c2cc(C)ccc2[O-])c1 (optimized conformer: 36.71303508489086 kcal/mol)

>  <smiles>  (22) 
Cc1cccc(OCCC(=O)Nc2cc(C)ccc2O)c1

>  <score_type>  (22) 
oracle

>  <origin>  (22) 
adgpu

>  <m_score__min__energy>  (22) 
-12.949999999999999

>  <m_primary>  (22) 
energy

$$$$
22:0
     RDKit          3D

 47 50  0  0  0  0  0  0  0  0999 V2000
    1.9170   22.2960  -36.1320 O   0  0  0  0  0  0  0  0  0  0  0  0
    1.2320   21.8780  -35.1630 C   0  0  0  0  0  0  0  0  0  0  0  0
   -0.0810   22.1870  -35.0140 N   0  0  0  0  0  0  0  0  0  0  0  0
   -0.3900   21.5510  -33.8750 C   0  0  0  0  0  0  0  0  0  0  0  0
   -1.6200   21.5180  -33.2250 C   0  0  0  0  0  0  0  0  0  0  0  0
   -1.7070   20.7920  -32.0240 C   0  0  0  0  0  0  0  0  0  0  0  0
   -0.5690   20.1330  -31.4920 C   0  0  0  0  0  0  0  0  0  0  0  0
   -0.6720   19.4610  -30.2290 N   0  0  0  0  0  0  0  0  0  0  0  0
   -0.2970   20.2520  -28.7270 S   0  0  0  0  0  0  0  0  0  0  0  0
   -1.0860   19.5860  -27.6350 O   0  0  0  0  0  0  0  0  0  0  0  0
    1.1630   20.1120  -28.4050 O   0  0  0  0  0  0  0  0  0  0  0  0
   -0.7320   21.9610  -28.8160 C   0  0  0  0  0  0  0  0  0  0  0  0
    0.2030   22.9570  -28.5040 C   0  0  0  0  0  0  0  0  0  0  0  0
   -0.1620   24.3050  -28.5650 C   0  0  0  0  0  0  0  0  0  0  0  0
   -1.4620   24.6690  -28.9310 C   0  0  0  0  0  0  0  0  0  0  0  0
   -1.8110   26.0150  -28.9670 O   0  0  0  0  0  0  0  0  0  0  0  0
   -2.4050   23.6780  -29.2530 C   0  0  0  0  0  0  0  0  0  0  0  0
   -4.0650   24.1130  -29.6670 S   0  0  0  0  0  0  0  0  0  0  0  0
   -4.6800   24.7920  -28.4750 O   0  0  0  0  0  0  0  0  0  0  0  0
   -4.0530   25.0660  -30.8290 O   0  0  0  0  0  0  0  0  0  0  0  0
   -4.9850   22.6760  -30.0790 N   0  0  0  0  0  0  0  0  0  0  0  0
   -4.6430   22.1610  -31.4300 C   0  0  0  0  0  0  0  0  0  0  0  0
   -5.8080   22.2070  -32.4340 C   0  0  0  0  0  0  0  0  0  0  0  0
   -6.5670   23.5280  -32.3240 C   0  0  0  0  0  0  0  0  0  0  0  0
   -7.0830   23.7800  -30.8950 C   0  0  0  0  0  0  0  0  0  0  0  0
   -6.4310   22.8610  -29.8470 C   0  0  0  0  0  0  0  0  0  0  0  0
   -2.0270   22.3290  -29.1990 C   0  0  0  0  0  0  0  0  0  0  0  0
    0.6540   20.1690  -32.2010 C   0  0  0  0  0  0  0  0  0  0  0  0
    0.7000   20.8990  -33.3860 C   0  0  0  0  0  0  0  0  0  0  0  0
    1.7550   21.0890  -34.1910 N   0  0  0  0  0  0  0  0  0  0  0  0
   -2.4949   22.0423  -33.6369 H   0  0  0  0  0  0  0  0  0  0  0  0
   -2.6677   20.7344  -31.4913 H   0  0  0  0  0  0  0  0  0  0  0  0
   -1.2730   18.6100  -30.1690 H   0  0  0  0  0  0  0  0  0  0  0  0
    1.2257   22.6777  -28.2106 H   0  0  0  0  0  0  0  0  0  0  0  0
    0.5769   25.0834  -28.3240 H   0  0  0  0  0  0  0  0  0  0  0  0
   -3.8170   22.7665  -31.8315 H   0  0  0  0  0  0  0  0  0  0  0  0
   -4.3728   21.1019  -31.3064 H   0  0  0  0  0  0  0  0  0  0  0  0
   -5.4093   22.1040  -33.4540 H   0  0  0  0  0  0  0  0  0  0  0  0
   -6.5005   21.3826  -32.2085 H   0  0  0  0  0  0  0  0  0  0  0  0
   -5.8929   24.3495  -32.6082 H   0  0  0  0  0  0  0  0  0  0  0  0
   -7.4370   23.4767  -32.9951 H   0  0  0  0  0  0  0  0  0  0  0  0
   -6.8702   24.8249  -30.6251 H   0  0  0  0  0  0  0  0  0  0  0  0
   -8.1619   23.5657  -30.8933 H   0  0  0  0  0  0  0  0  0  0  0  0
   -6.5745   23.3046  -28.8507 H   0  0  0  0  0  0  0  0  0  0  0  0
   -6.9107   21.8741  -29.9231 H   0  0  0  0  0  0  0  0  0  0  0  0
   -2.7577   21.5496  -29.4610 H   0  0  0  0  0  0  0  0  0  0  0  0
    1.5415   19.6368  -31.8280 H   0  0  0  0  0  0  0  0  0  0  0  0
  1  2  2  0
  2  3  1  0
  3  4  1  0
  4  5  2  0
  5  6  1  0
  6  7  2  0
  7  8  1  0
  8  9  1  0
  9 10  2  0
  9 11  2  0
  9 12  1  0
 12 13  2  0
 13 14  1  0
 14 15  2  0
 15 16  1  0
 15 17  1  0
 17 18  1  0
 18 19  2  0
 18 20  2  0
 18 21  1  0
 21 22  1  0
 22 23  1  0
 23 24  1  0
 24 25  1  0
 25 26  1  0
 17 27  2  0
  7 28  1  0
 28 29  2  0
 29 30  1  0
 30  2  1  0
 29  4  1  0
 27 12  1  0
 26 21  1  0
  5 31  1  0
  6 32  1  0
  8 33  1  0
 13 34  1  0
 14 35  1  0
 22 36  1  0
 22 37  1  0
 23 38  1  0
 23 39  1  0
 24 40  1  0
 24 41  1  0
 25 42  1  0
 25 43  1  0
 26 44  1  0
 26 45  1  0
 27 46  1  0
 28 47  1  0
M  CHG  3   3  -1  16  -1  30  -1
M  END
>  <UniqueID>  (23) 
21

>  <SMILES>  (23) 
O=c1[n-]c2ccc(NS(=O)(=O)c3ccc([O-])c(S(=O)(=O)N4CCCCC4)c3)cc2[n-]1

>  <Energy>  (23) 
95.70476079229665

>  <Genealogy>  (23) 
O=c1[n-]c2ccc(NS(=O)(=O)c3ccc([O-])c(S(=O)(=O)N4CCCCC4)c3)cc2[n-]1 (protonated)
O=c1[n-]c2ccc(NS(=O)(=O)c3ccc([O-])c(S(=O)(=O)N4CCCCC4)c3)cc2[n-]1 (3D coordinates assigned)
O=c1[n-]c2ccc(NS(=O)(=O)c3ccc([O-])c(S(=O)(=O)N4CCCCC4)c3)cc2[n-]1 (nonaromatic ring conformer: 95.70476079229665 kcal/mol)

>  <smiles>  (23) 
O=c1[nH]c2ccc(NS(=O)(=O)c3ccc(O)c(S(=O)(=O)N4CCCCC4)c3)cc2[nH]1

>  <score_type>  (23) 
oracle

>  <origin>  (23) 
adgpu

>  <m_score__min__energy>  (23) 
-12.75

>  <m_primary>  (23) 
energy

$$$$
23:0
     RDKit          3D

 42 43  0  0  0  0  0  0  0  0999 V2000
   -8.9950   22.0800  -31.3220 C   0  0  0  0  0  0  0  0  0  0  0  0
   -8.2580   21.3300  -32.3340 N   0  0  0  0  0  0  0  0  0  0  0  0
   -8.5980   19.6330  -32.1800 S   0  0  0  0  0  0  0  0  0  0  0  0
   -9.0670   19.3500  -30.7800 O   0  0  0  0  0  0  0  0  0  0  0  0
   -9.6930   19.2460  -33.1350 O   0  0  0  0  0  0  0  0  0  0  0  0
   -7.1510   18.6850  -32.5100 C   0  0  0  0  0  0  0  0  0  0  0  0
   -6.9860   17.4240  -31.9230 C   0  0  0  0  0  0  0  0  0  0  0  0
   -5.8030   16.7070  -32.1230 C   0  0  0  0  0  0  0  0  0  0  0  0
   -4.7690   17.2570  -32.8850 C   0  0  0  0  0  0  0  0  0  0  0  0
   -4.9150   18.5310  -33.4600 C   0  0  0  0  0  0  0  0  0  0  0  0
   -3.7730   19.1600  -34.2220 C   0  0  0  0  0  0  0  0  0  0  0  0
   -2.7510   19.6820  -33.3090 N   0  0  0  0  0  0  0  0  0  0  0  0
   -2.9520   20.8260  -32.4530 C   0  0  0  0  0  0  0  0  0  0  0  0
   -4.1370   21.5780  -32.5520 C   0  0  0  0  0  0  0  0  0  0  0  0
   -4.3380   22.7150  -31.7650 C   0  0  0  0  0  0  0  0  0  0  0  0
   -5.8410   23.6090  -31.9680 Cl  0  0  0  0  0  0  0  0  0  0  0  0
   -3.3540   23.1140  -30.8440 C   0  0  0  0  0  0  0  0  0  0  0  0
   -3.5740   24.5510  -29.8390 S   0  0  0  0  0  0  0  0  0  0  0  0
   -2.0340   25.1090  -29.2880 N   0  0  0  0  0  0  0  0  0  0  0  0
   -4.4430   24.2100  -28.6610 O   0  0  0  0  0  0  0  0  0  0  0  0
   -4.2350   25.6480  -30.6260 O   0  0  0  0  0  0  0  0  0  0  0  0
   -2.1810   22.3590  -30.7240 C   0  0  0  0  0  0  0  0  0  0  0  0
   -1.9620   21.2240  -31.5220 C   0  0  0  0  0  0  0  0  0  0  0  0
   -0.4330   20.3460  -31.3540 S   0  0  0  0  0  0  0  0  0  0  0  0
    0.2490   20.5910  -29.7850 N   0  0  0  0  0  0  0  0  0  0  0  0
   -0.6800   18.8770  -31.5490 O   0  0  0  0  0  0  0  0  0  0  0  0
    0.5530   20.8310  -32.3800 O   0  0  0  0  0  0  0  0  0  0  0  0
   -6.1250   19.2230  -33.2950 C   0  0  0  0  0  0  0  0  0  0  0  0
   -8.6761   21.7555  -30.3205 H   0  0  0  0  0  0  0  0  0  0  0  0
   -8.7916   23.1544  -31.4414 H   0  0  0  0  0  0  0  0  0  0  0  0
  -10.0728   21.8954  -31.4414 H   0  0  0  0  0  0  0  0  0  0  0  0
   -7.7887   16.9973  -31.3036 H   0  0  0  0  0  0  0  0  0  0  0  0
   -5.6857   15.7073  -31.6794 H   0  0  0  0  0  0  0  0  0  0  0  0
   -3.8378   16.6911  -33.0353 H   0  0  0  0  0  0  0  0  0  0  0  0
   -3.3169   18.4019  -34.8756 H   0  0  0  0  0  0  0  0  0  0  0  0
   -4.1693   19.9963  -34.8165 H   0  0  0  0  0  0  0  0  0  0  0  0
   -1.8140   19.2230  -33.3460 H   0  0  0  0  0  0  0  0  0  0  0  0
   -4.9182   21.2657  -33.2607 H   0  0  0  0  0  0  0  0  0  0  0  0
   -1.6050   25.6490  -30.0720 H   0  0  0  0  0  0  0  0  0  0  0  0
   -1.4173   22.6600  -29.9917 H   0  0  0  0  0  0  0  0  0  0  0  0
    1.2170   20.1970  -29.8060 H   0  0  0  0  0  0  0  0  0  0  0  0
   -6.2680   20.1964  -33.7869 H   0  0  0  0  0  0  0  0  0  0  0  0
  1  2  1  0
  2  3  1  0
  3  4  2  0
  3  5  2  0
  3  6  1  0
  6  7  2  0
  7  8  1  0
  8  9  2  0
  9 10  1  0
 10 11  1  0
 11 12  1  0
 12 13  1  0
 13 14  2  0
 14 15  1  0
 15 16  1  0
 15 17  2  0
 17 18  1  0
 18 19  1  0
 18 20  2  0
 18 21  2  0
 17 22  1  0
 22 23  2  0
 23 24  1  0
 24 25  1  0
 24 26  2  0
 24 27  2  0
 10 28  2  0
 28  6  1  0
 23 13  1  0
  1 29  1  0
  1 30  1  0
  1 31  1  0
  7 32  1  0
  8 33  1  0
  9 34  1  0
 11 35  1  0
 11 36  1  0
 12 37  1  0
 14 38  1  0
 19 39  1  0
 22 40  1  0
 25 41  1  0
 28 42  1  0
M  CHG  3   2  -1  19  -1  25  -1
M  END
>  <UniqueID>  (24) 
22

>  <SMILES>  (24) 
C[N-]S(=O)(=O)c1cccc(CNc2cc(Cl)c(S([NH-])(=O)=O)cc2S([NH-])(=O)=O)c1

>  <Energy>  (24) 
40.67399306632443

>  <Genealogy>  (24) 
C[N-]S(=O)(=O)c1cccc(CNc2cc(Cl)c(S([NH-])(=O)=O)cc2S([NH-])(=O)=O)c1 (protonated)
C[N-]S(=O)(=O)c1cccc(CNc2cc(Cl)c(S([NH-])(=O)=O)cc2S([NH-])(=O)=O)c1 (3D coordinates assigned)
C[N-]S(=O)(=O)c1cccc(CNc2cc(Cl)c(S([NH-])(=O)=O)cc2S([NH-])(=O)=O)c1 (optimized conformer: 40.67399306632443 kcal/mol)

>  <smiles>  (24) 
CNS(=O)(=O)c1cccc(CNc2cc(Cl)c(S(N)(=O)=O)cc2S(N)(=O)=O)c1

>  <score_type>  (24) 
oracle

>  <origin>  (24) 
adgpu

>  <m_score__min__energy>  (24) 
-11.6

>  <m_primary>  (24) 
energy

$$$$
24:0
     RDKit          3D

 62 65  0  0  0  0  0  0  0  0999 V2000
   -0.2980   21.8430  -29.3780 O   0  0  0  0  0  0  0  0  0  0  0  0
   -1.0820   22.8300  -29.3300 C   0  0  0  0  0  0  0  0  0  0  0  0
   -2.4250   22.6990  -29.8240 N   0  0  0  0  0  0  0  0  0  0  0  0
   -2.8370   21.6900  -30.7620 C   0  0  0  0  0  0  0  0  0  0  0  0
   -1.9900   21.3570  -31.8300 C   0  0  0  0  0  0  0  0  0  0  0  0
   -2.3630   20.3720  -32.7480 C   0  0  0  0  0  0  0  0  0  0  0  0
   -3.5870   19.7030  -32.6110 C   0  0  0  0  0  0  0  0  0  0  0  0
   -4.0590   18.4610  -33.7730 S   0  0  0  0  0  0  0  0  0  0  0  0
   -3.1350   18.5310  -34.9570 O   0  0  0  0  0  0  0  0  0  0  0  0
   -3.8910   17.1070  -33.1430 O   0  0  0  0  0  0  0  0  0  0  0  0
   -5.7110   18.6420  -34.3220 N   0  0  0  0  0  0  0  0  0  0  0  0
   -6.3420   19.9050  -33.8680 C   0  0  0  0  0  0  0  0  0  0  0  0
   -7.6700   19.7040  -33.1250 C   0  0  0  0  0  0  0  0  0  0  0  0
   -7.5270   18.5930  -32.0920 C   0  0  0  0  0  0  0  0  0  0  0  0
   -7.1350   17.2600  -32.7480 C   0  0  0  0  0  0  0  0  0  0  0  0
   -6.5160   17.4150  -34.1520 C   0  0  0  0  0  0  0  0  0  0  0  0
   -4.4150   20.0020  -31.5210 C   0  0  0  0  0  0  0  0  0  0  0  0
   -4.0450   20.9880  -30.6020 C   0  0  0  0  0  0  0  0  0  0  0  0
   -0.6260   24.0900  -28.6950 C   0  0  0  0  0  0  0  0  0  0  0  0
    0.6260   24.1270  -28.0550 C   0  0  0  0  0  0  0  0  0  0  0  0
    1.0920   25.3060  -27.4590 C   0  0  0  0  0  0  0  0  0  0  0  0
    2.6550   25.3310  -26.6410 S   0  0  0  0  0  0  0  0  0  0  0  0
    3.5240   26.3740  -27.2890 O   0  0  0  0  0  0  0  0  0  0  0  0
    3.3210   23.9990  -26.8450 O   0  0  0  0  0  0  0  0  0  0  0  0
    2.5470   25.6490  -24.9230 N   0  0  0  0  0  0  0  0  0  0  0  0
    1.5060   24.8670  -24.2250 C   0  0  0  0  0  0  0  0  0  0  0  0
    0.1320   25.5540  -24.2110 C   0  0  0  0  0  0  0  0  0  0  0  0
    0.2410   26.9890  -23.7070 C   0  0  0  0  0  0  0  0  0  0  0  0
    1.2380   27.7660  -24.5600 C   0  0  0  0  0  0  0  0  0  0  0  0
    2.6090   27.0790  -24.5570 C   0  0  0  0  0  0  0  0  0  0  0  0
    0.2860   26.4510  -27.4700 C   0  0  0  0  0  0  0  0  0  0  0  0
   -0.9530   26.4310  -28.1130 C   0  0  0  0  0  0  0  0  0  0  0  0
   -1.4080   25.2640  -28.7360 C   0  0  0  0  0  0  0  0  0  0  0  0
   -2.6240   25.2950  -29.4090 O   0  0  0  0  0  0  0  0  0  0  0  0
   -3.1650   23.2930  -29.3850 H   0  0  0  0  0  0  0  0  0  0  0  0
   -1.0263   21.8747  -31.9452 H   0  0  0  0  0  0  0  0  0  0  0  0
   -1.6924   20.1202  -33.5828 H   0  0  0  0  0  0  0  0  0  0  0  0
   -5.6418   20.4191  -33.1931 H   0  0  0  0  0  0  0  0  0  0  0  0
   -6.5665   20.4925  -34.7705 H   0  0  0  0  0  0  0  0  0  0  0  0
   -7.9486   20.6394  -32.6176 H   0  0  0  0  0  0  0  0  0  0  0  0
   -8.4499   19.4253  -33.8490 H   0  0  0  0  0  0  0  0  0  0  0  0
   -6.7496   18.8768  -31.3674 H   0  0  0  0  0  0  0  0  0  0  0  0
   -8.4981   18.4592  -31.5929 H   0  0  0  0  0  0  0  0  0  0  0  0
   -6.4025   16.7567  -32.0998 H   0  0  0  0  0  0  0  0  0  0  0  0
   -8.0607   16.6781  -32.8687 H   0  0  0  0  0  0  0  0  0  0  0  0
   -5.8676   16.5469  -34.3418 H   0  0  0  0  0  0  0  0  0  0  0  0
   -7.3527   17.4825  -34.8629 H   0  0  0  0  0  0  0  0  0  0  0  0
   -5.3616   19.4577  -31.3877 H   0  0  0  0  0  0  0  0  0  0  0  0
   -4.7018   21.2159  -29.7496 H   0  0  0  0  0  0  0  0  0  0  0  0
    1.2466   23.2194  -28.0221 H   0  0  0  0  0  0  0  0  0  0  0  0
    1.4042   23.8945  -24.7288 H   0  0  0  0  0  0  0  0  0  0  0  0
    1.8267   24.7620  -23.1780 H   0  0  0  0  0  0  0  0  0  0  0  0
   -0.2761   25.5620  -25.2325 H   0  0  0  0  0  0  0  0  0  0  0  0
   -0.5311   24.9953  -23.5341 H   0  0  0  0  0  0  0  0  0  0  0  0
   -0.7452   27.4725  -23.7677 H   0  0  0  0  0  0  0  0  0  0  0  0
    0.5880   26.9802  -22.6632 H   0  0  0  0  0  0  0  0  0  0  0  0
    0.8638   27.8198  -25.5930 H   0  0  0  0  0  0  0  0  0  0  0  0
    1.3491   28.7765  -24.1399 H   0  0  0  0  0  0  0  0  0  0  0  0
    3.2601   27.5958  -25.2774 H   0  0  0  0  0  0  0  0  0  0  0  0
    2.9996   27.1358  -23.5303 H   0  0  0  0  0  0  0  0  0  0  0  0
    0.6300   27.3687  -26.9706 H   0  0  0  0  0  0  0  0  0  0  0  0
   -1.5750   27.3381  -28.1299 H   0  0  0  0  0  0  0  0  0  0  0  0
  1  2  2  0
  2  3  1  0
  3  4  1  0
  4  5  2  0
  5  6  1  0
  6  7  2  0
  7  8  1  0
  8  9  2  0
  8 10  2  0
  8 11  1  0
 11 12  1  0
 12 13  1  0
 13 14  1  0
 14 15  1  0
 15 16  1  0
  7 17  1  0
 17 18  2  0
  2 19  1  0
 19 20  2  0
 20 21  1  0
 21 22  1  0
 22 23  2  0
 22 24  2  0
 22 25  1  0
 25 26  1  0
 26 27  1  0
 27 28  1  0
 28 29  1  0
 29 30  1  0
 21 31  2  0
 31 32  1  0
 32 33  2  0
 33 34  1  0
 18  4  1  0
 33 19  1  0
 16 11  1  0
 30 25  1  0
  3 35  1  0
  5 36  1  0
  6 37  1  0
 12 38  1  0
 12 39  1  0
 13 40  1  0
 13 41  1  0
 14 42  1  0
 14 43  1  0
 15 44  1  0
 15 45  1  0
 16 46  1  0
 16 47  1  0
 17 48  1  0
 18 49  1  0
 20 50  1  0
 26 51  1  0
 26 52  1  0
 27 53  1  0
 27 54  1  0
 28 55  1  0
 28 56  1  0
 29 57  1  0
 29 58  1  0
 30 59  1  0
 30 60  1  0
 31 61  1  0
 32 62  1  0
M  CHG  1  34  -1
M  END
>  <UniqueID>  (25) 
23

>  <SMILES>  (25) 
O=C(Nc1ccc(S(=O)(=O)N2CCCCC2)cc1)c1cc(S(=O)(=O)N2CCCCC2)ccc1[O-]

>  <Energy>  (25) 
79.60521114861557

>  <Genealogy>  (25) 
O=C(Nc1ccc(S(=O)(=O)N2CCCCC2)cc1)c1cc(S(=O)(=O)N2CCCCC2)ccc1[O-] (protonated)
O=C(Nc1ccc(S(=O)(=O)N2CCCCC2)cc1)c1cc(S(=O)(=O)N2CCCCC2)ccc1[O-] (3D coordinates assigned)
O=C(Nc1ccc(S(=O)(=O)N2CCCCC2)cc1)c1cc(S(=O)(=O)N2CCCCC2)ccc1[O-] (nonaromatic ring conformer: 79.60521114861557 kcal/mol)

>  <smiles>  (25) 
O=C(Nc1ccc(S(=O)(=O)N2CCCCC2)cc1)c1cc(S(=O)(=O)N2CCCCC2)ccc1O

>  <score_type>  (25) 
oracle

>  <origin>  (25) 
adgpu

>  <m_score__min__energy>  (25) 
-13.23

>  <m_primary>  (25) 
energy

$$$$
25:0
     RDKit          3D

 59 62  0  0  0  0  0  0  0  0999 V2000
   -0.1140   17.7510  -28.6320 C   0  0  0  0  0  0  0  0  0  0  0  0
   -0.2980   19.1940  -28.2290 C   0  0  0  0  0  0  0  0  0  0  0  0
    0.2070   20.2580  -29.0200 C   0  0  0  0  0  0  0  0  0  0  0  0
    0.9910   20.0380  -30.2930 C   0  0  0  0  0  0  0  0  0  0  0  0
    0.0910   20.0160  -31.5080 C   0  0  0  0  0  0  0  0  0  0  0  0
   -0.6320   21.1670  -31.8850 C   0  0  0  0  0  0  0  0  0  0  0  0
   -0.5260   22.3130  -31.1630 F   0  0  0  0  0  0  0  0  0  0  0  0
   -1.4660   21.1440  -33.0130 C   0  0  0  0  0  0  0  0  0  0  0  0
   -1.5790   19.9820  -33.7770 C   0  0  0  0  0  0  0  0  0  0  0  0
   -0.8530   18.8390  -33.4240 C   0  0  0  0  0  0  0  0  0  0  0  0
   -0.0200   18.8550  -32.3010 C   0  0  0  0  0  0  0  0  0  0  0  0
    0.6760   17.7350  -31.9950 F   0  0  0  0  0  0  0  0  0  0  0  0
   -0.0750   21.5390  -28.6660 N   0  0  0  0  0  0  0  0  0  0  0  0
   -0.8270   21.8300  -27.5760 C   0  0  0  0  0  0  0  0  0  0  0  0
   -1.2150   23.5340  -27.1970 S   0  0  0  0  0  0  0  0  0  0  0  0
   -2.6460   23.6370  -28.3240 C   0  0  0  0  0  0  0  0  0  0  0  0
   -2.5550   24.8950  -29.1320 C   0  0  0  0  0  0  0  0  0  0  0  0
   -1.5690   25.6620  -28.9660 O   0  0  0  0  0  0  0  0  0  0  0  0
   -3.5090   25.2060  -30.1510 N   0  0  0  0  0  0  0  0  0  0  0  0
   -4.6370   24.4010  -30.5160 C   0  0  0  0  0  0  0  0  0  0  0  0
   -4.4070   23.2060  -31.2130 C   0  0  0  0  0  0  0  0  0  0  0  0
   -5.4820   22.4190  -31.6590 C   0  0  0  0  0  0  0  0  0  0  0  0
   -5.1890   20.9460  -32.5840 S   0  0  0  0  0  0  0  0  0  0  0  0
   -4.5060   19.9400  -31.7010 O   0  0  0  0  0  0  0  0  0  0  0  0
   -4.2690   21.2540  -33.7290 O   0  0  0  0  0  0  0  0  0  0  0  0
   -6.6760   20.2380  -33.1890 N   0  0  0  0  0  0  0  0  0  0  0  0
   -6.4050   19.0020  -33.9330 C   0  0  0  0  0  0  0  0  0  0  0  0
   -6.6270   17.8310  -32.9920 C   0  0  0  0  0  0  0  0  0  0  0  0
   -7.5470   18.3600  -31.9090 C   0  0  0  0  0  0  0  0  0  0  0  0
   -7.5880   19.8730  -32.0950 C   0  0  0  0  0  0  0  0  0  0  0  0
   -6.7970   22.8250  -31.3860 C   0  0  0  0  0  0  0  0  0  0  0  0
   -7.0400   24.0150  -30.7000 C   0  0  0  0  0  0  0  0  0  0  0  0
   -5.9750   24.8230  -30.2840 C   0  0  0  0  0  0  0  0  0  0  0  0
   -6.2770   26.0510  -29.6930 O   0  0  0  0  0  0  0  0  0  0  0  0
   -1.3240   20.8280  -26.8080 N   0  0  0  0  0  0  0  0  0  0  0  0
   -1.0800   19.5270  -27.1040 C   0  0  0  0  0  0  0  0  0  0  0  0
   -1.5690   18.6300  -26.3670 O   0  0  0  0  0  0  0  0  0  0  0  0
   -0.0343   17.1258  -27.7304 H   0  0  0  0  0  0  0  0  0  0  0  0
   -0.9777   17.4242  -29.2296 H   0  0  0  0  0  0  0  0  0  0  0  0
    0.8041   17.6514  -29.2296 H   0  0  0  0  0  0  0  0  0  0  0  0
    1.7226   20.8516  -30.4061 H   0  0  0  0  0  0  0  0  0  0  0  0
    1.4940   19.0624  -30.2214 H   0  0  0  0  0  0  0  0  0  0  0  0
   -2.0319   22.0439  -33.2956 H   0  0  0  0  0  0  0  0  0  0  0  0
   -2.2389   19.9644  -34.6569 H   0  0  0  0  0  0  0  0  0  0  0  0
   -0.9378   17.9258  -34.0313 H   0  0  0  0  0  0  0  0  0  0  0  0
   -2.6455   22.7675  -28.9978 H   0  0  0  0  0  0  0  0  0  0  0  0
   -3.5759   23.6448  -27.7365 H   0  0  0  0  0  0  0  0  0  0  0  0
   -3.3750   22.8817  -31.4124 H   0  0  0  0  0  0  0  0  0  0  0  0
   -7.0880   18.9257  -34.7919 H   0  0  0  0  0  0  0  0  0  0  0  0
   -5.3711   19.0004  -34.3086 H   0  0  0  0  0  0  0  0  0  0  0  0
   -7.1000   16.9927  -33.5244 H   0  0  0  0  0  0  0  0  0  0  0  0
   -5.6812   17.4509  -32.5785 H   0  0  0  0  0  0  0  0  0  0  0  0
   -8.5547   17.9336  -32.0215 H   0  0  0  0  0  0  0  0  0  0  0  0
   -7.1876   18.0868  -30.9059 H   0  0  0  0  0  0  0  0  0  0  0  0
   -8.6118   20.1875  -32.3460 H   0  0  0  0  0  0  0  0  0  0  0  0
   -7.2781   20.3735  -31.1658 H   0  0  0  0  0  0  0  0  0  0  0  0
   -7.6413   22.2012  -31.7149 H   0  0  0  0  0  0  0  0  0  0  0  0
   -8.0746   24.3204  -30.4846 H   0  0  0  0  0  0  0  0  0  0  0  0
   -5.6420   26.5350  -29.0700 H   0  0  0  0  0  0  0  0  0  0  0  0
  1  2  1  0
  2  3  2  0
  3  4  1  0
  4  5  1  0
  5  6  2  0
  6  7  1  0
  6  8  1  0
  8  9  2  0
  9 10  1  0
 10 11  2  0
 11 12  1  0
  3 13  1  0
 13 14  1  0
 14 15  1  0
 15 16  1  0
 16 17  1  0
 17 18  2  0
 17 19  1  0
 19 20  1  0
 20 21  2  0
 21 22  1  0
 22 23  1  0
 23 24  2  0
 23 25  2  0
 23 26  1  0
 26 27  1  0
 27 28  1  0
 28 29  1  0
 29 30  1  0
 22 31  2  0
 31 32  1  0
 32 33  2  0
 33 34  1  0
 14 35  2  0
 35 36  1  0
 36 37  2  0
 36  2  1  0
 11  5  1  0
 33 20  1  0
 30 26  1  0
  1 38  1  0
  1 39  1  0
  1 40  1  0
  4 41  1  0
  4 42  1  0
  8 43  1  0
  9 44  1  0
 10 45  1  0
 16 46  1  0
 16 47  1  0
 21 48  1  0
 27 49  1  0
 27 50  1  0
 28 51  1  0
 28 52  1  0
 29 53  1  0
 29 54  1  0
 30 55  1  0
 30 56  1  0
 31 57  1  0
 32 58  1  0
 34 59  1  0
M  CHG  2  13  -1  19  -1
M  END
>  <UniqueID>  (26) 
24

>  <SMILES>  (26) 
Cc1c(Cc2c(F)cccc2F)[n-]c(SCC(=O)[N-]c2cc(S(=O)(=O)N3CCCC3)ccc2O)nc1=O

>  <Energy>  (26) 
66.48331926290695

>  <Genealogy>  (26) 
Cc1c(Cc2c(F)cccc2F)[n-]c(SCC(=O)[N-]c2cc(S(=O)(=O)N3CCCC3)ccc2O)nc1=O (protonated)
Cc1c(Cc2c(F)cccc2F)[n-]c(SCC(=O)[N-]c2cc(S(=O)(=O)N3CCCC3)ccc2O)nc1=O (3D coordinates assigned)
Cc1c(Cc2c(F)cccc2F)[n-]c(SCC(=O)[N-]c2cc(S(=O)(=O)N3CCCC3)ccc2O)nc1=O (nonaromatic ring conformer: 66.48331926290695 kcal/mol)

>  <smiles>  (26) 
Cc1c(Cc2c(F)cccc2F)[nH]c(SCC(=O)Nc2cc(S(=O)(=O)N3CCCC3)ccc2O)nc1=O

>  <score_type>  (26) 
oracle

>  <origin>  (26) 
adgpu

>  <m_score__min__energy>  (26) 
-11.779999999999999

>  <m_primary>  (26) 
energy

$$$$
26:0
     RDKit          3D

 45 47  0  0  0  0  0  0  0  0999 V2000
    1.6550   22.9680  -36.8050 N   0  0  0  0  0  0  0  0  0  0  0  0
    0.9190   22.2060  -36.0660 C   0  0  0  0  0  0  0  0  0  0  0  0
    0.2430   22.6480  -34.9840 N   0  0  0  0  0  0  0  0  0  0  0  0
   -0.4420   21.6820  -34.3760 N   0  0  0  0  0  0  0  0  0  0  0  0
   -0.3210   20.4780  -34.9830 C   0  0  0  0  0  0  0  0  0  0  0  0
   -0.9280   19.2220  -34.4500 C   0  0  0  0  0  0  0  0  0  0  0  0
   -2.1840   19.5480  -33.7060 C   0  0  0  0  0  0  0  0  0  0  0  0
   -2.7090   18.6780  -32.9600 O   0  0  0  0  0  0  0  0  0  0  0  0
   -2.7620   20.8570  -33.8130 N   0  0  0  0  0  0  0  0  0  0  0  0
   -3.8950   21.2630  -33.0320 C   0  0  0  0  0  0  0  0  0  0  0  0
   -3.7410   22.3120  -32.1160 C   0  0  0  0  0  0  0  0  0  0  0  0
   -4.8300   22.7580  -31.3550 C   0  0  0  0  0  0  0  0  0  0  0  0
   -4.6400   24.0900  -30.2170 S   0  0  0  0  0  0  0  0  0  0  0  0
   -4.2100   25.3320  -30.9490 O   0  0  0  0  0  0  0  0  0  0  0  0
   -5.9630   24.3430  -29.5490 O   0  0  0  0  0  0  0  0  0  0  0  0
   -3.4360   23.6750  -29.0200 N   0  0  0  0  0  0  0  0  0  0  0  0
   -3.8270   22.4560  -28.2680 C   0  0  0  0  0  0  0  0  0  0  0  0
   -3.0700   21.2000  -28.7230 C   0  0  0  0  0  0  0  0  0  0  0  0
   -1.5500   21.3840  -28.5760 C   0  0  0  0  0  0  0  0  0  0  0  0
   -1.1040   22.8430  -28.7790 C   0  0  0  0  0  0  0  0  0  0  0  0
   -2.1020   23.6070  -29.6550 C   0  0  0  0  0  0  0  0  0  0  0  0
   -6.0790   22.1500  -31.5120 C   0  0  0  0  0  0  0  0  0  0  0  0
   -6.2360   21.0850  -32.4010 C   0  0  0  0  0  0  0  0  0  0  0  0
   -5.1490   20.6210  -33.1560 C   0  0  0  0  0  0  0  0  0  0  0  0
   -5.3200   19.4720  -33.9960 N   0  0  0  0  0  0  0  0  0  0  0  0
    0.6990   20.5600  -36.3270 S   0  0  0  0  0  0  0  0  0  0  0  0
    1.7590   23.9860  -36.5970 H   0  0  0  0  0  0  0  0  0  0  0  0
   -1.1624   18.5456  -35.2852 H   0  0  0  0  0  0  0  0  0  0  0  0
   -0.2163   18.7330  -33.7686 H   0  0  0  0  0  0  0  0  0  0  0  0
   -2.4610   21.4700  -34.6030 H   0  0  0  0  0  0  0  0  0  0  0  0
   -2.7576   22.7892  -31.9932 H   0  0  0  0  0  0  0  0  0  0  0  0
   -3.6206   22.6218  -27.2003 H   0  0  0  0  0  0  0  0  0  0  0  0
   -4.8964   22.2818  -28.4580 H   0  0  0  0  0  0  0  0  0  0  0  0
   -3.3893   20.3458  -28.1078 H   0  0  0  0  0  0  0  0  0  0  0  0
   -3.2985   21.0203  -29.7839 H   0  0  0  0  0  0  0  0  0  0  0  0
   -1.2530   21.0628  -27.5668 H   0  0  0  0  0  0  0  0  0  0  0  0
   -1.0658   20.7779  -29.3559 H   0  0  0  0  0  0  0  0  0  0  0  0
   -1.0343   23.3372  -27.7988 H   0  0  0  0  0  0  0  0  0  0  0  0
   -0.1257   22.8430  -29.2819 H   0  0  0  0  0  0  0  0  0  0  0  0
   -1.7289   24.6295  -29.8142 H   0  0  0  0  0  0  0  0  0  0  0  0
   -2.2011   23.0741  -30.6122 H   0  0  0  0  0  0  0  0  0  0  0  0
   -6.9413   22.5121  -30.9329 H   0  0  0  0  0  0  0  0  0  0  0  0
   -7.2202   20.6060  -32.5101 H   0  0  0  0  0  0  0  0  0  0  0  0
   -6.2050   19.3370  -34.5340 H   0  0  0  0  0  0  0  0  0  0  0  0
   -4.6100   18.7090  -34.0360 H   0  0  0  0  0  0  0  0  0  0  0  0
  1  2  2  3
  2  3  1  0
  3  4  1  0
  4  5  2  0
  5  6  1  0
  6  7  1  0
  7  8  2  0
  7  9  1  0
  9 10  1  0
 10 11  2  0
 11 12  1  0
 12 13  1  0
 13 14  2  0
 13 15  2  0
 13 16  1  0
 16 17  1  0
 17 18  1  0
 18 19  1  0
 19 20  1  0
 20 21  1  0
 12 22  2  0
 22 23  1  0
 23 24  2  0
 24 25  1  0
  5 26  1  0
 26  2  1  0
 24 10  1  0
 21 16  1  0
  1 27  1  0
  6 28  1  0
  6 29  1  0
  9 30  1  0
 11 31  1  0
 17 32  1  0
 17 33  1  0
 18 34  1  0
 18 35  1  0
 19 36  1  0
 19 37  1  0
 20 38  1  0
 20 39  1  0
 21 40  1  0
 21 41  1  0
 22 42  1  0
 23 43  1  0
 25 44  1  0
 25 45  1  0
M  CHG  1   3  -1
M  END
>  <UniqueID>  (27) 
25

>  <SMILES>  (27) 
N=c1[n-]nc(CC(=O)Nc2cc(S(=O)(=O)N3CCCCC3)ccc2N)s1

>  <Energy>  (27) 
87.29193136121465

>  <Genealogy>  (27) 
N=c1[n-]nc(CC(=O)Nc2cc(S(=O)(=O)N3CCCCC3)ccc2N)s1 (protonated)
N=c1[n-]nc(CC(=O)Nc2cc(S(=O)(=O)N3CCCCC3)ccc2N)s1 (3D coordinates assigned)
N=c1[n-]nc(CC(=O)Nc2cc(S(=O)(=O)N3CCCCC3)ccc2N)s1 (nonaromatic ring conformer: 87.29193136121465 kcal/mol)

>  <smiles>  (27) 
N=c1[nH]nc(CC(=O)Nc2cc(S(=O)(=O)N3CCCCC3)ccc2N)s1

>  <score_type>  (27) 
oracle

>  <origin>  (27) 
adgpu

>  <m_score__min__energy>  (27) 
-10.029999999999999

>  <m_primary>  (27) 
energy

$$$$
27:0
     RDKit          3D

 52 54  0  0  0  0  0  0  0  0999 V2000
   -1.7410   24.6500  -26.8840 C   0  0  0  0  0  0  0  0  0  0  0  0
   -1.2960   24.8600  -28.2990 C   0  0  0  0  0  0  0  0  0  0  0  0
   -0.1010   24.6090  -28.6050 O   0  0  0  0  0  0  0  0  0  0  0  0
   -2.1980   25.2960  -29.3250 N   0  0  0  0  0  0  0  0  0  0  0  0
   -3.4790   24.7300  -29.6370 C   0  0  0  0  0  0  0  0  0  0  0  0
   -4.3430   25.3290  -30.5680 C   0  0  0  0  0  0  0  0  0  0  0  0
   -5.5760   24.7400  -30.8660 C   0  0  0  0  0  0  0  0  0  0  0  0
   -5.9580   23.5400  -30.2410 C   0  0  0  0  0  0  0  0  0  0  0  0
   -7.2070   22.8970  -30.5330 N   0  0  0  0  0  0  0  0  0  0  0  0
   -7.8430   22.8440  -31.8130 C   0  0  0  0  0  0  0  0  0  0  0  0
   -7.6880   23.8050  -32.6120 O   0  0  0  0  0  0  0  0  0  0  0  0
   -8.5530   21.6660  -32.2210 N   0  0  0  0  0  0  0  0  0  0  0  0
   -8.0150   20.3420  -32.3660 C   0  0  0  0  0  0  0  0  0  0  0  0
   -8.7630   19.2110  -32.0110 C   0  0  0  0  0  0  0  0  0  0  0  0
   -8.2220   17.9360  -32.1520 C   0  0  0  0  0  0  0  0  0  0  0  0
   -6.9150   17.7550  -32.6300 C   0  0  0  0  0  0  0  0  0  0  0  0
   -6.4060   16.3450  -32.7790 C   0  0  0  0  0  0  0  0  0  0  0  0
   -6.1220   18.8940  -32.9320 C   0  0  0  0  0  0  0  0  0  0  0  0
   -4.4380   18.7820  -33.5070 S   0  0  0  0  0  0  0  0  0  0  0  0
   -3.7630   17.6560  -32.7720 O   0  0  0  0  0  0  0  0  0  0  0  0
   -4.3510   18.4810  -34.9780 O   0  0  0  0  0  0  0  0  0  0  0  0
   -3.6130   20.2780  -33.1570 N   0  0  0  0  0  0  0  0  0  0  0  0
   -2.2740   20.2660  -33.7640 C   0  0  0  0  0  0  0  0  0  0  0  0
   -1.5260   21.5500  -33.3830 C   0  0  0  0  0  0  0  0  0  0  0  0
   -1.4180   21.6660  -31.9770 O   0  0  0  0  0  0  0  0  0  0  0  0
   -2.7090   21.7350  -31.4010 C   0  0  0  0  0  0  0  0  0  0  0  0
   -3.5040   20.4590  -31.7010 C   0  0  0  0  0  0  0  0  0  0  0  0
   -6.6900   20.1820  -32.8120 C   0  0  0  0  0  0  0  0  0  0  0  0
   -5.9250   21.3020  -33.1520 O   0  0  0  0  0  0  0  0  0  0  0  0
   -5.0670   22.9160  -29.3580 C   0  0  0  0  0  0  0  0  0  0  0  0
   -3.8360   23.5060  -29.0600 C   0  0  0  0  0  0  0  0  0  0  0  0
   -0.9640   25.0167  -26.1970 H   0  0  0  0  0  0  0  0  0  0  0  0
   -2.6762   25.2018  -26.7080 H   0  0  0  0  0  0  0  0  0  0  0  0
   -1.9095   23.5773  -26.7080 H   0  0  0  0  0  0  0  0  0  0  0  0
   -4.0488   26.2652  -31.0649 H   0  0  0  0  0  0  0  0  0  0  0  0
   -6.2498   25.2177  -31.5925 H   0  0  0  0  0  0  0  0  0  0  0  0
   -9.7836   19.3315  -31.6187 H   0  0  0  0  0  0  0  0  0  0  0  0
   -8.8279   17.0576  -31.8848 H   0  0  0  0  0  0  0  0  0  0  0  0
   -6.2473   15.9053  -31.7833 H   0  0  0  0  0  0  0  0  0  0  0  0
   -7.1443   15.7451  -33.3313 H   0  0  0  0  0  0  0  0  0  0  0  0
   -5.4547   16.3550  -33.3313 H   0  0  0  0  0  0  0  0  0  0  0  0
   -1.7136   19.3932  -33.3977 H   0  0  0  0  0  0  0  0  0  0  0  0
   -2.3690   20.2091  -34.8584 H   0  0  0  0  0  0  0  0  0  0  0  0
   -0.5177   21.5245  -33.8220 H   0  0  0  0  0  0  0  0  0  0  0  0
   -2.0873   22.4143  -33.7676 H   0  0  0  0  0  0  0  0  0  0  0  0
   -2.6127   21.8529  -30.3116 H   0  0  0  0  0  0  0  0  0  0  0  0
   -3.2434   22.5946  -31.8317 H   0  0  0  0  0  0  0  0  0  0  0  0
   -2.9866   19.5933  -31.2619 H   0  0  0  0  0  0  0  0  0  0  0  0
   -4.5109   20.5445  -31.2665 H   0  0  0  0  0  0  0  0  0  0  0  0
   -6.2720   22.2480  -33.0720 H   0  0  0  0  0  0  0  0  0  0  0  0
   -5.3384   21.9552  -28.8963 H   0  0  0  0  0  0  0  0  0  0  0  0
   -3.1432   23.0053  -28.3676 H   0  0  0  0  0  0  0  0  0  0  0  0
  1  2  1  0
  2  3  2  0
  2  4  1  0
  4  5  1  0
  5  6  2  0
  6  7  1  0
  7  8  2  0
  8  9  1  0
  9 10  1  0
 10 11  2  0
 10 12  1  0
 12 13  1  0
 13 14  2  0
 14 15  1  0
 15 16  2  0
 16 17  1  0
 16 18  1  0
 18 19  1  0
 19 20  2  0
 19 21  2  0
 19 22  1  0
 22 23  1  0
 23 24  1  0
 24 25  1  0
 25 26  1  0
 26 27  1  0
 18 28  2  0
 28 29  1  0
  8 30  1  0
 30 31  2  0
 31  5  1  0
 28 13  1  0
 27 22  1  0
  1 32  1  0
  1 33  1  0
  1 34  1  0
  6 35  1  0
  7 36  1  0
 14 37  1  0
 15 38  1  0
 17 39  1  0
 17 40  1  0
 17 41  1  0
 23 42  1  0
 23 43  1  0
 24 44  1  0
 24 45  1  0
 26 46  1  0
 26 47  1  0
 27 48  1  0
 27 49  1  0
 29 50  1  0
 30 51  1  0
 31 52  1  0
M  CHG  3   4  -1   9  -1  12  -1
M  END
>  <UniqueID>  (28) 
26

>  <SMILES>  (28) 
CC(=O)[N-]c1ccc([N-]C(=O)[N-]c2ccc(C)c(S(=O)(=O)N3CCOCC3)c2O)cc1

>  <Energy>  (28) 
67.5528087232707

>  <Genealogy>  (28) 
CC(=O)[N-]c1ccc([N-]C(=O)[N-]c2ccc(C)c(S(=O)(=O)N3CCOCC3)c2O)cc1 (protonated)
CC(=O)[N-]c1ccc([N-]C(=O)[N-]c2ccc(C)c(S(=O)(=O)N3CCOCC3)c2O)cc1 (3D coordinates assigned)
CC(=O)[N-]c1ccc([N-]C(=O)[N-]c2ccc(C)c(S(=O)(=O)N3CCOCC3)c2O)cc1 (nonaromatic ring conformer: 67.5528087232707 kcal/mol)

>  <smiles>  (28) 
CC(=O)Nc1ccc(NC(=O)Nc2ccc(C)c(S(=O)(=O)N3CCOCC3)c2O)cc1

>  <score_type>  (28) 
oracle

>  <origin>  (28) 
adgpu

>  <m_score__min__energy>  (28) 
-12.68

>  <m_primary>  (28) 
energy

$$$$
28:0
     RDKit          3D

 59 62  0  0  0  0  0  0  0  0999 V2000
   -6.8130   16.3540  -33.5070 C   0  0  0  0  0  0  0  0  0  0  0  0
   -5.6110   17.1700  -33.7240 N   0  0  0  0  0  0  0  0  0  0  0  0
   -4.6960   16.7780  -34.6600 C   0  0  0  0  0  0  0  0  0  0  0  0
   -3.5610   17.5430  -34.9080 C   0  0  0  0  0  0  0  0  0  0  0  0
   -3.3560   18.7170  -34.1940 C   0  0  0  0  0  0  0  0  0  0  0  0
   -4.2850   19.1330  -33.2270 C   0  0  0  0  0  0  0  0  0  0  0  0
   -4.0380   20.3970  -32.4830 C   0  0  0  0  0  0  0  0  0  0  0  0
   -3.1070   21.1600  -32.8610 O   0  0  0  0  0  0  0  0  0  0  0  0
   -4.7950   20.7360  -31.3100 N   0  0  0  0  0  0  0  0  0  0  0  0
   -4.7210   22.0290  -30.6880 C   0  0  0  0  0  0  0  0  0  0  0  0
   -3.5190   22.4110  -30.0740 C   0  0  0  0  0  0  0  0  0  0  0  0
   -3.3850   23.6790  -29.4950 C   0  0  0  0  0  0  0  0  0  0  0  0
   -1.8650   24.1790  -28.7600 S   0  0  0  0  0  0  0  0  0  0  0  0
   -0.7480   23.3850  -29.3800 O   0  0  0  0  0  0  0  0  0  0  0  0
   -1.6180   25.6410  -29.0170 O   0  0  0  0  0  0  0  0  0  0  0  0
   -1.9260   23.8820  -27.0400 N   0  0  0  0  0  0  0  0  0  0  0  0
   -2.6440   24.9750  -26.3330 C   0  0  0  0  0  0  0  0  0  0  0  0
   -1.6980   25.9560  -25.6260 C   0  0  0  0  0  0  0  0  0  0  0  0
   -0.8090   25.2300  -24.6000 C   0  0  0  0  0  0  0  0  0  0  0  0
   -0.4880   23.7820  -25.0110 C   0  0  0  0  0  0  0  0  0  0  0  0
   -0.5630   23.6110  -26.5310 C   0  0  0  0  0  0  0  0  0  0  0  0
   -4.4630   24.5710  -29.5250 C   0  0  0  0  0  0  0  0  0  0  0  0
   -5.6720   24.1920  -30.1080 C   0  0  0  0  0  0  0  0  0  0  0  0
   -5.8220   22.9200  -30.6840 C   0  0  0  0  0  0  0  0  0  0  0  0
   -7.1050   22.5230  -31.1940 N   0  0  0  0  0  0  0  0  0  0  0  0
   -7.7330   21.2610  -30.8490 C   0  0  0  0  0  0  0  0  0  0  0  0
   -9.0390   21.2340  -31.6280 C   0  0  0  0  0  0  0  0  0  0  0  0
   -9.3340   22.6880  -31.9930 C   0  0  0  0  0  0  0  0  0  0  0  0
   -8.0020   23.4220  -31.9020 C   0  0  0  0  0  0  0  0  0  0  0  0
   -5.4370   18.3360  -33.0190 C   0  0  0  0  0  0  0  0  0  0  0  0
   -6.3210   18.7060  -32.1970 O   0  0  0  0  0  0  0  0  0  0  0  0
   -6.9863   16.2364  -32.4271 H   0  0  0  0  0  0  0  0  0  0  0  0
   -7.6809   16.8504  -33.9657 H   0  0  0  0  0  0  0  0  0  0  0  0
   -6.6720   15.3642  -33.9657 H   0  0  0  0  0  0  0  0  0  0  0  0
   -4.8587   15.8474  -35.2235 H   0  0  0  0  0  0  0  0  0  0  0  0
   -2.8305   17.2205  -35.6645 H   0  0  0  0  0  0  0  0  0  0  0  0
   -2.4598   19.3247  -34.3876 H   0  0  0  0  0  0  0  0  0  0  0  0
   -5.2070   19.9540  -30.7510 H   0  0  0  0  0  0  0  0  0  0  0  0
   -2.6736   21.7078  -30.0471 H   0  0  0  0  0  0  0  0  0  0  0  0
   -3.2427   25.5334  -27.0676 H   0  0  0  0  0  0  0  0  0  0  0  0
   -3.2723   24.5091  -25.5596 H   0  0  0  0  0  0  0  0  0  0  0  0
   -1.0569   26.4407  -26.3770 H   0  0  0  0  0  0  0  0  0  0  0  0
   -2.3050   26.7034  -25.0941 H   0  0  0  0  0  0  0  0  0  0  0  0
    0.1356   25.7845  -24.4982 H   0  0  0  0  0  0  0  0  0  0  0  0
   -1.3623   25.1907  -23.6501 H   0  0  0  0  0  0  0  0  0  0  0  0
    0.5268   23.5285  -24.6706 H   0  0  0  0  0  0  0  0  0  0  0  0
   -1.2293   23.1146  -24.5473 H   0  0  0  0  0  0  0  0  0  0  0  0
    0.1413   24.3107  -27.0047 H   0  0  0  0  0  0  0  0  0  0  0  0
   -0.3039   22.5701  -26.7747 H   0  0  0  0  0  0  0  0  0  0  0  0
   -4.3564   25.5745  -29.0872 H   0  0  0  0  0  0  0  0  0  0  0  0
   -6.5167   24.8966  -30.1167 H   0  0  0  0  0  0  0  0  0  0  0  0
   -7.0910   20.4181  -31.1445 H   0  0  0  0  0  0  0  0  0  0  0  0
   -7.9007   21.1700  -29.7657 H   0  0  0  0  0  0  0  0  0  0  0  0
   -8.9304   20.6249  -32.5375 H   0  0  0  0  0  0  0  0  0  0  0  0
   -9.8543   20.7906  -31.0376 H   0  0  0  0  0  0  0  0  0  0  0  0
   -9.7365   22.7515  -33.0148 H   0  0  0  0  0  0  0  0  0  0  0  0
  -10.0838   23.1285  -31.3194 H   0  0  0  0  0  0  0  0  0  0  0  0
   -7.6134   23.6376  -32.9082 H   0  0  0  0  0  0  0  0  0  0  0  0
   -8.1043   24.3860  -31.3821 H   0  0  0  0  0  0  0  0  0  0  0  0
  1  2  1  0
  2  3  1  0
  3  4  2  0
  4  5  1  0
  5  6  2  0
  6  7  1  0
  7  8  2  0
  7  9  1  0
  9 10  1  0
 10 11  2  0
 11 12  1  0
 12 13  1  0
 13 14  2  0
 13 15  2  0
 13 16  1  0
 16 17  1  0
 17 18  1  0
 18 19  1  0
 19 20  1  0
 20 21  1  0
 12 22  2  0
 22 23  1  0
 23 24  2  0
 24 25  1  0
 25 26  1  0
 26 27  1  0
 27 28  1  0
 28 29  1  0
  6 30  1  0
 30 31  2  0
 30  2  1  0
 24 10  1  0
 29 25  1  0
 21 16  1  0
  1 32  1  0
  1 33  1  0
  1 34  1  0
  3 35  1  0
  4 36  1  0
  5 37  1  0
  9 38  1  0
 11 39  1  0
 17 40  1  0
 17 41  1  0
 18 42  1  0
 18 43  1  0
 19 44  1  0
 19 45  1  0
 20 46  1  0
 20 47  1  0
 21 48  1  0
 21 49  1  0
 22 50  1  0
 23 51  1  0
 26 52  1  0
 26 53  1  0
 27 54  1  0
 27 55  1  0
 28 56  1  0
 28 57  1  0
 29 58  1  0
 29 59  1  0
M  END
>  <UniqueID>  (29) 
27

>  <SMILES>  (29) 
Cn1cccc(C(=O)Nc2cc(S(=O)(=O)N3CCCCC3)ccc2N2CCCC2)c1=O

>  <Energy>  (29) 
81.26924226347033

>  <Genealogy>  (29) 
Cn1cccc(C(=O)Nc2cc(S(=O)(=O)N3CCCCC3)ccc2N2CCCC2)c1=O (3D coordinates assigned)
Cn1cccc(C(=O)Nc2cc(S(=O)(=O)N3CCCCC3)ccc2N2CCCC2)c1=O (nonaromatic ring conformer: 81.26924226347033 kcal/mol)

>  <smiles>  (29) 
Cn1cccc(C(=O)Nc2cc(S(=O)(=O)N3CCCCC3)ccc2N2CCCC2)c1=O

>  <score_type>  (29) 
oracle

>  <origin>  (29) 
adgpu

>  <m_score__min__energy>  (29) 
-9.6699999999999999

>  <m_primary>  (29) 
energy

$$$$
29:0
     RDKit          3D

 73 77  0  0  0  0  0  0  0  0999 V2000
   -0.2890   21.0480  -31.5160 C   0  0  0  0  0  0  0  0  0  0  0  0
   -1.6420   21.0500  -32.1760 C   0  0  0  0  0  0  0  0  0  0  0  0
   -2.6350   21.9270  -31.7120 C   0  0  0  0  0  0  0  0  0  0  0  0
   -3.8960   21.9660  -32.3200 C   0  0  0  0  0  0  0  0  0  0  0  0
   -5.1350   23.0750  -31.7300 S   0  0  0  0  0  0  0  0  0  0  0  0
   -4.4760   24.0980  -30.8460 O   0  0  0  0  0  0  0  0  0  0  0  0
   -5.7300   23.8060  -32.9020 O   0  0  0  0  0  0  0  0  0  0  0  0
   -6.4080   22.2880  -30.8210 N   0  0  0  0  0  0  0  0  0  0  0  0
   -6.6400   20.8800  -31.1990 C   0  0  0  0  0  0  0  0  0  0  0  0
   -7.6570   20.7100  -32.3380 C   0  0  0  0  0  0  0  0  0  0  0  0
   -8.9430   21.4760  -32.0470 C   0  0  0  0  0  0  0  0  0  0  0  0
   -8.6280   22.9470  -31.7980 C   0  0  0  0  0  0  0  0  0  0  0  0
   -7.6300   23.1000  -30.6460 C   0  0  0  0  0  0  0  0  0  0  0  0
   -4.1850   21.0810  -33.3640 C   0  0  0  0  0  0  0  0  0  0  0  0
   -3.2120   20.1950  -33.8270 C   0  0  0  0  0  0  0  0  0  0  0  0
   -1.9310   20.1750  -33.2490 C   0  0  0  0  0  0  0  0  0  0  0  0
   -0.9430   19.2390  -33.7160 N   0  0  0  0  0  0  0  0  0  0  0  0
   -0.0970   19.4810  -34.8470 C   0  0  0  0  0  0  0  0  0  0  0  0
   -0.1320   20.5900  -35.4490 O   0  0  0  0  0  0  0  0  0  0  0  0
    0.7830   18.4440  -35.2970 N   0  0  0  0  0  0  0  0  0  0  0  0
    0.3860   17.2810  -36.0380 C   0  0  0  0  0  0  0  0  0  0  0  0
    1.0340   17.0110  -37.2410 C   0  0  0  0  0  0  0  0  0  0  0  0
    0.6780   15.9020  -38.0050 C   0  0  0  0  0  0  0  0  0  0  0  0
   -0.3470   15.0410  -37.5820 C   0  0  0  0  0  0  0  0  0  0  0  0
   -0.7010   13.8650  -38.4550 C   0  0  0  0  0  0  0  0  0  0  0  0
   -1.0370   15.3140  -36.3720 C   0  0  0  0  0  0  0  0  0  0  0  0
   -2.3670   14.2610  -35.8280 S   0  0  0  0  0  0  0  0  0  0  0  0
   -3.3670   14.1290  -36.9410 O   0  0  0  0  0  0  0  0  0  0  0  0
   -1.8790   12.8780  -35.4990 O   0  0  0  0  0  0  0  0  0  0  0  0
   -3.0950   14.9360  -34.3960 N   0  0  0  0  0  0  0  0  0  0  0  0
   -4.0670   15.9740  -34.3630 C   0  0  0  0  0  0  0  0  0  0  0  0
   -4.2570   17.0020  -35.2960 C   0  0  0  0  0  0  0  0  0  0  0  0
   -5.2590   17.9540  -35.0510 C   0  0  0  0  0  0  0  0  0  0  0  0
   -6.0410   17.8770  -33.8840 C   0  0  0  0  0  0  0  0  0  0  0  0
   -5.8150   16.8550  -32.9500 C   0  0  0  0  0  0  0  0  0  0  0  0
   -4.8120   15.9200  -33.2150 C   0  0  0  0  0  0  0  0  0  0  0  0
   -4.3790   14.7900  -32.3540 C   0  0  0  0  0  0  0  0  0  0  0  0
   -3.1920   14.1740  -33.1460 C   0  0  2  0  0  0  0  0  0  0  0  0
   -1.8810   14.2700  -32.3630 C   0  0  0  0  0  0  0  0  0  0  0  0
   -0.6790   16.4590  -35.6210 C   0  0  0  0  0  0  0  0  0  0  0  0
   -1.4040   16.8090  -34.4860 O   0  0  0  0  0  0  0  0  0  0  0  0
   -0.4141   21.0482  -30.4231 H   0  0  0  0  0  0  0  0  0  0  0  0
    0.2666   20.1490  -31.8213 H   0  0  0  0  0  0  0  0  0  0  0  0
    0.2692   21.9453  -31.8213 H   0  0  0  0  0  0  0  0  0  0  0  0
   -2.4203   22.5908  -30.8616 H   0  0  0  0  0  0  0  0  0  0  0  0
   -5.6825   20.4433  -31.5193 H   0  0  0  0  0  0  0  0  0  0  0  0
   -7.0558   20.3726  -30.3160 H   0  0  0  0  0  0  0  0  0  0  0  0
   -7.2167   21.0894  -33.2719 H   0  0  0  0  0  0  0  0  0  0  0  0
   -7.9011   19.6414  -32.4308 H   0  0  0  0  0  0  0  0  0  0  0  0
   -9.6216   21.3894  -32.9084 H   0  0  0  0  0  0  0  0  0  0  0  0
   -9.4213   21.0523  -31.1516 H   0  0  0  0  0  0  0  0  0  0  0  0
   -8.1956   23.3831  -32.7106 H   0  0  0  0  0  0  0  0  0  0  0  0
   -9.5593   23.4675  -31.5303 H   0  0  0  0  0  0  0  0  0  0  0  0
   -7.3389   24.1583  -30.5742 H   0  0  0  0  0  0  0  0  0  0  0  0
   -8.1294   22.7452  -29.7324 H   0  0  0  0  0  0  0  0  0  0  0  0
   -5.1849   21.0837  -33.8224 H   0  0  0  0  0  0  0  0  0  0  0  0
   -3.4493   19.5063  -34.6513 H   0  0  0  0  0  0  0  0  0  0  0  0
   -0.7620   18.3760  -33.1560 H   0  0  0  0  0  0  0  0  0  0  0  0
    1.8342   17.6797  -37.5910 H   0  0  0  0  0  0  0  0  0  0  0  0
    1.2051   15.6989  -38.9489 H   0  0  0  0  0  0  0  0  0  0  0  0
   -0.9603   13.0035  -37.8221 H   0  0  0  0  0  0  0  0  0  0  0  0
   -1.5606   14.1254  -39.0901 H   0  0  0  0  0  0  0  0  0  0  0  0
    0.1595   13.6076  -39.0901 H   0  0  0  0  0  0  0  0  0  0  0  0
   -3.6344   17.0617  -36.2009 H   0  0  0  0  0  0  0  0  0  0  0  0
   -5.4336   18.7638  -35.7747 H   0  0  0  0  0  0  0  0  0  0  0  0
   -6.8317   18.6201  -33.7035 H   0  0  0  0  0  0  0  0  0  0  0  0
   -6.4142   16.7915  -32.0297 H   0  0  0  0  0  0  0  0  0  0  0  0
   -4.0508   15.1492  -31.3675 H   0  0  0  0  0  0  0  0  0  0  0  0
   -5.1841   14.0680  -32.1529 H   0  0  0  0  0  0  0  0  0  0  0  0
   -3.3662   13.1038  -33.3312 H   0  0  0  0  0  0  0  0  0  0  0  0
   -2.0961   14.2542  -31.2844 H   0  0  0  0  0  0  0  0  0  0  0  0
   -1.2366   13.4166  -32.6209 H   0  0  0  0  0  0  0  0  0  0  0  0
   -1.3678   15.2081  -32.6209 H   0  0  0  0  0  0  0  0  0  0  0  0
  1  2  1  0
  2  3  2  0
  3  4  1  0
  4  5  1  0
  5  6  2  0
  5  7  2  0
  5  8  1  0
  8  9  1  0
  9 10  1  0
 10 11  1  0
 11 12  1  0
 12 13  1  0
  4 14  2  0
 14 15  1  0
 15 16  2  0
 16 17  1  0
 17 18  1  0
 18 19  2  0
 18 20  1  0
 20 21  1  0
 21 22  2  0
 22 23  1  0
 23 24  2  0
 24 25  1  0
 24 26  1  0
 26 27  1  0
 27 28  2  0
 27 29  2  0
 27 30  1  0
 30 31  1  0
 31 32  2  0
 32 33  1  0
 33 34  2  0
 34 35  1  0
 35 36  2  0
 36 37  1  0
 37 38  1  0
 38 39  1  0
 26 40  2  0
 40 41  1  0
 16  2  1  0
 40 21  1  0
 13  8  1  0
 38 30  1  0
 36 31  1  0
  1 42  1  0
  1 43  1  0
  1 44  1  0
  3 45  1  0
  9 46  1  0
  9 47  1  0
 10 48  1  0
 10 49  1  0
 11 50  1  0
 11 51  1  0
 12 52  1  0
 12 53  1  0
 13 54  1  0
 13 55  1  0
 14 56  1  0
 15 57  1  0
 17 58  1  0
 22 59  1  0
 23 60  1  0
 25 61  1  0
 25 62  1  0
 25 63  1  0
 32 64  1  0
 33 65  1  0
 34 66  1  0
 35 67  1  0
 37 68  1  0
 37 69  1  0
 38 70  1  6
 39 71  1  0
 39 72  1  0
 39 73  1  0
M  CHG  2  20  -1  41  -1
M  END
>  <UniqueID>  (30) 
28

>  <SMILES>  (30) 
Cc1cc(S(=O)(=O)N2CCCCC2)ccc1NC(=O)[N-]c1ccc(C)c(S(=O)(=O)N2c3ccccc3C[C@@H]2C)c1[O-]

>  <Energy>  (30) 
106.5070763777764

>  <Genealogy>  (30) 
Cc1cc(S(=O)(=O)N2CCCCC2)ccc1NC(=O)[N-]c1ccc(C)c(S(=O)(=O)N2c3ccccc3CC2C)c1[O-] (protonated)
Cc1cc(S(=O)(=O)N2CCCCC2)ccc1NC(=O)[N-]c1ccc(C)c(S(=O)(=O)N2c3ccccc3C[C@@H]2C)c1[O-] (chirality)
Cc1cc(S(=O)(=O)N2CCCCC2)ccc1NC(=O)[N-]c1ccc(C)c(S(=O)(=O)N2c3ccccc3C[C@@H]2C)c1[O-] (3D coordinates assigned)
Cc1cc(S(=O)(=O)N2CCCCC2)ccc1NC(=O)[N-]c1ccc(C)c(S(=O)(=O)N2c3ccccc3C[C@@H]2C)c1[O-] (nonaromatic ring conformer: 106.5070763777764 kcal/mol)

>  <smiles>  (30) 
Cc1cc(S(=O)(=O)N2CCCCC2)ccc1NC(=O)Nc1ccc(C)c(S(=O)(=O)N2c3ccccc3CC2C)c1O

>  <score_type>  (30) 
oracle

>  <origin>  (30) 
adgpu

>  <m_score__min__energy>  (30) 
-11.92

>  <m_primary>  (30) 
energy

$$$$
30:0
     RDKit          3D

 58 62  0  0  0  0  0  0  0  0999 V2000
   -3.6140   14.8180  -34.9600 C   0  0  0  0  0  0  0  0  0  0  0  0
   -4.9920   15.1140  -34.7540 O   0  0  0  0  0  0  0  0  0  0  0  0
   -5.4740   16.3140  -34.2090 C   0  0  0  0  0  0  0  0  0  0  0  0
   -6.4010   16.3440  -33.1490 C   0  0  0  0  0  0  0  0  0  0  0  0
   -6.8580   17.5660  -32.6470 C   0  0  0  0  0  0  0  0  0  0  0  0
   -6.4120   18.7750  -33.2030 C   0  0  0  0  0  0  0  0  0  0  0  0
   -6.9120   20.0590  -32.6690 C   0  0  0  0  0  0  0  0  0  0  0  0
   -8.1960   20.4710  -32.7790 N   0  0  0  0  0  0  0  0  0  0  0  0
   -8.3200   21.6680  -32.2120 N   0  0  0  0  0  0  0  0  0  0  0  0
   -7.1100   22.0190  -31.7470 C   0  0  0  0  0  0  0  0  0  0  0  0
   -6.7530   23.2140  -31.1280 C   0  0  0  0  0  0  0  0  0  0  0  0
   -5.3950   23.4030  -30.7950 C   0  0  0  0  0  0  0  0  0  0  0  0
   -4.8500   24.9100  -30.0690 S   0  0  0  0  0  0  0  0  0  0  0  0
   -5.4080   25.0060  -28.6780 O   0  0  0  0  0  0  0  0  0  0  0  0
   -5.3280   26.0970  -30.8570 O   0  0  0  0  0  0  0  0  0  0  0  0
   -3.1180   24.9180  -29.9890 N   0  0  0  0  0  0  0  0  0  0  0  0
   -2.3470   24.7350  -28.7930 C   0  0  0  0  0  0  0  0  0  0  0  0
   -0.9520   24.8160  -28.8740 C   0  0  0  0  0  0  0  0  0  0  0  0
   -0.1650   24.6600  -27.7290 C   0  0  0  0  0  0  0  0  0  0  0  0
   -0.7660   24.3960  -26.4890 C   0  0  0  0  0  0  0  0  0  0  0  0
    0.2280   24.1930  -25.0440 S   0  0  0  0  0  0  0  0  0  0  0  0
    1.6190   23.7850  -25.4440 O   0  0  0  0  0  0  0  0  0  0  0  0
   -0.3800   23.1080  -24.2010 O   0  0  0  0  0  0  0  0  0  0  0  0
    0.3010   25.6790  -24.1190 N   0  0  0  0  0  0  0  0  0  0  0  0
   -1.0220   26.3050  -24.0060 C   0  0  0  0  0  0  0  0  0  0  0  0
   -1.1500   27.3210  -25.1290 C   0  0  0  0  0  0  0  0  0  0  0  0
    0.2680   27.5970  -25.5950 C   0  0  0  0  0  0  0  0  0  0  0  0
    1.1610   26.6700  -24.7800 C   0  0  0  0  0  0  0  0  0  0  0  0
   -2.1610   24.2890  -26.4090 C   0  0  0  0  0  0  0  0  0  0  0  0
   -2.9480   24.4650  -27.5500 C   0  0  0  0  0  0  0  0  0  0  0  0
   -4.4440   22.3980  -31.0970 C   0  0  0  0  0  0  0  0  0  0  0  0
   -4.8400   21.2010  -31.7220 C   0  0  0  0  0  0  0  0  0  0  0  0
   -6.1950   21.0420  -32.0180 C   0  0  0  0  0  0  0  0  0  0  0  0
   -5.4700   18.7430  -34.2440 C   0  0  0  0  0  0  0  0  0  0  0  0
   -5.0080   17.5210  -34.7430 C   0  0  0  0  0  0  0  0  0  0  0  0
   -3.1126   14.7103  -33.9868 H   0  0  0  0  0  0  0  0  0  0  0  0
   -3.5212   13.8794  -35.5261 H   0  0  0  0  0  0  0  0  0  0  0  0
   -3.1440   15.6357  -35.5261 H   0  0  0  0  0  0  0  0  0  0  0  0
   -6.7668   15.4020  -32.7144 H   0  0  0  0  0  0  0  0  0  0  0  0
   -7.5721   17.5801  -31.8104 H   0  0  0  0  0  0  0  0  0  0  0  0
   -7.5050   23.9854  -30.9059 H   0  0  0  0  0  0  0  0  0  0  0  0
   -0.4714   25.0037  -29.8455 H   0  0  0  0  0  0  0  0  0  0  0  0
    0.9294   24.7446  -27.8006 H   0  0  0  0  0  0  0  0  0  0  0  0
    0.6810   25.4610  -23.1690 H   0  0  0  0  0  0  0  0  0  0  0  0
   -1.8074   25.5407  -24.1009 H   0  0  0  0  0  0  0  0  0  0  0  0
   -1.1337   26.7958  -23.0279 H   0  0  0  0  0  0  0  0  0  0  0  0
   -1.7513   26.9088  -25.9527 H   0  0  0  0  0  0  0  0  0  0  0  0
   -1.6529   28.2392  -24.7912 H   0  0  0  0  0  0  0  0  0  0  0  0
    0.3677   27.3786  -26.6685 H   0  0  0  0  0  0  0  0  0  0  0  0
    0.5428   28.6525  -25.4520 H   0  0  0  0  0  0  0  0  0  0  0  0
    1.8756   26.1611  -25.4436 H   0  0  0  0  0  0  0  0  0  0  0  0
    1.7278   27.2443  -24.0324 H   0  0  0  0  0  0  0  0  0  0  0  0
   -2.6385   24.0655  -25.4436 H   0  0  0  0  0  0  0  0  0  0  0  0
   -4.0431   24.3921  -27.4760 H   0  0  0  0  0  0  0  0  0  0  0  0
   -3.3858   22.5545  -30.8406 H   0  0  0  0  0  0  0  0  0  0  0  0
   -4.1077   20.4182  -31.9686 H   0  0  0  0  0  0  0  0  0  0  0  0
   -5.0932   19.6848  -34.6695 H   0  0  0  0  0  0  0  0  0  0  0  0
   -4.2729   17.5083  -35.5612 H   0  0  0  0  0  0  0  0  0  0  0  0
  1  2  1  0
  2  3  1  0
  3  4  2  0
  4  5  1  0
  5  6  2  0
  6  7  1  0
  7  8  2  0
  8  9  1  0
  9 10  1  0
 10 11  2  0
 11 12  1  0
 12 13  1  0
 13 14  2  0
 13 15  2  0
 13 16  1  0
 16 17  1  0
 17 18  2  0
 18 19  1  0
 19 20  2  0
 20 21  1  0
 21 22  2  0
 21 23  2  0
 21 24  1  0
 24 25  1  0
 25 26  1  0
 26 27  1  0
 27 28  1  0
 20 29  1  0
 29 30  2  0
 12 31  2  0
 31 32  1  0
 32 33  2  0
  6 34  1  0
 34 35  2  0
 35  3  1  0
 33  7  1  0
 33 10  1  0
 30 17  1  0
 28 24  1  0
  1 36  1  0
  1 37  1  0
  1 38  1  0
  4 39  1  0
  5 40  1  0
 11 41  1  0
 18 42  1  0
 19 43  1  0
 24 44  1  0
 25 45  1  0
 25 46  1  0
 26 47  1  0
 26 48  1  0
 27 49  1  0
 27 50  1  0
 28 51  1  0
 28 52  1  0
 29 53  1  0
 30 54  1  0
 31 55  1  0
 32 56  1  0
 34 57  1  0
 35 58  1  0
M  CHG  3   9  -1  16  -1  24   1
M  END
>  <UniqueID>  (31) 
29

>  <SMILES>  (31) 
COc1ccc(-c2n[n-]c3cc(S(=O)(=O)[N-]c4ccc(S(=O)(=O)[NH+]5CCCC5)cc4)ccc23)cc1

>  <Energy>  (31) 
109.77938892565682

>  <Genealogy>  (31) 
COc1ccc(-c2n[n-]c3cc(S(=O)(=O)[N-]c4ccc(S(=O)(=O)[NH+]5CCCC5)cc4)ccc23)cc1 (protonated)
COc1ccc(-c2n[n-]c3cc(S(=O)(=O)[N-]c4ccc(S(=O)(=O)[NH+]5CCCC5)cc4)ccc23)cc1 (3D coordinates assigned)
COc1ccc(-c2n[n-]c3cc(S(=O)(=O)[N-]c4ccc(S(=O)(=O)[NH+]5CCCC5)cc4)ccc23)cc1 (nonaromatic ring conformer: 109.77938892565682 kcal/mol)

>  <smiles>  (31) 
COc1ccc(-c2n[nH]c3cc(S(=O)(=O)Nc4ccc(S(=O)(=O)N5CCCC5)cc4)ccc23)cc1

>  <score_type>  (31) 
oracle

>  <origin>  (31) 
adgpu

>  <m_score__min__energy>  (31) 
-12.720000000000001

>  <m_primary>  (31) 
energy

$$$$
31:0
     RDKit          3D

 64 67  0  0  0  0  0  0  0  0999 V2000
    1.7620   18.6300  -31.0040 O   0  0  0  0  0  0  0  0  0  0  0  0
    1.0280   19.4350  -31.6370 C   0  0  0  0  0  0  0  0  0  0  0  0
    0.6510   19.1700  -33.0650 C   0  0  0  0  0  0  0  0  0  0  0  0
    0.0470   20.6560  -33.9480 S   0  0  0  0  0  0  0  0  0  0  0  0
   -1.6990   20.3930  -33.5980 C   0  0  0  0  0  0  0  0  0  0  0  0
   -2.5590   21.4820  -33.4040 C   0  0  0  0  0  0  0  0  0  0  0  0
   -3.9180   21.2690  -33.1510 C   0  0  0  0  0  0  0  0  0  0  0  0
   -4.4230   19.9620  -33.0610 C   0  0  0  0  0  0  0  0  0  0  0  0
   -6.1470   19.6910  -32.7690 S   0  0  0  0  0  0  0  0  0  0  0  0
   -6.3180   18.3400  -32.1290 O   0  0  0  0  0  0  0  0  0  0  0  0
   -6.8570   19.6660  -34.0960 O   0  0  0  0  0  0  0  0  0  0  0  0
   -6.8700   20.8910  -31.7120 N   0  0  0  0  0  0  0  0  0  0  0  0
   -8.2320   20.4970  -31.2990 C   0  0  0  0  0  0  0  0  0  0  0  0
   -8.9730   21.6730  -30.6220 C   0  0  0  0  0  0  0  0  0  0  0  0
   -8.0630   22.6770  -30.2180 O   0  0  0  0  0  0  0  0  0  0  0  0
   -7.4610   23.2730  -31.3570 C   0  0  0  0  0  0  0  0  0  0  0  0
   -6.8800   22.2250  -32.3360 C   0  0  0  0  0  0  0  0  0  0  0  0
   -3.5610   18.8760  -33.2640 C   0  0  0  0  0  0  0  0  0  0  0  0
   -2.2040   19.0910  -33.5210 C   0  0  0  0  0  0  0  0  0  0  0  0
    0.6140   20.6600  -31.0240 N   0  0  0  0  0  0  0  0  0  0  0  0
   -0.5050   20.7890  -30.1320 C   0  0  0  0  0  0  0  0  0  0  0  0
   -0.6440   19.8820  -29.0730 C   0  0  0  0  0  0  0  0  0  0  0  0
   -1.7600   19.9470  -28.2300 C   0  0  0  0  0  0  0  0  0  0  0  0
   -2.7500   20.9090  -28.4470 C   0  0  0  0  0  0  0  0  0  0  0  0
   -2.6280   21.8120  -29.5130 C   0  0  0  0  0  0  0  0  0  0  0  0
   -3.8820   23.0010  -29.8460 S   0  0  0  0  0  0  0  0  0  0  0  0
   -5.2470   22.3970  -29.6470 O   0  0  0  0  0  0  0  0  0  0  0  0
   -3.7500   23.4450  -31.2780 O   0  0  0  0  0  0  0  0  0  0  0  0
   -3.6670   24.3560  -28.7620 N   0  0  0  0  0  0  0  0  0  0  0  0
   -2.2650   24.8460  -28.7860 C   0  0  0  0  0  0  0  0  0  0  0  0
   -1.4480   24.3790  -27.5720 C   0  0  0  0  0  0  0  0  0  0  0  0
   -2.0920   24.8450  -26.2540 C   0  0  0  0  0  0  0  0  0  0  0  0
   -3.6230   24.9660  -26.3510 C   0  0  0  0  0  0  0  0  0  0  0  0
   -4.1790   24.0150  -27.4160 C   0  0  0  0  0  0  0  0  0  0  0  0
   -1.5080   21.7510  -30.3510 C   0  0  0  0  0  0  0  0  0  0  0  0
    1.5362   18.7866  -33.5935 H   0  0  0  0  0  0  0  0  0  0  0  0
   -0.1744   18.4430  -33.0524 H   0  0  0  0  0  0  0  0  0  0  0  0
   -2.1642   22.5076  -33.4508 H   0  0  0  0  0  0  0  0  0  0  0  0
   -4.5931   22.1279  -33.0222 H   0  0  0  0  0  0  0  0  0  0  0  0
   -6.2640   20.9330  -30.8570 H   0  0  0  0  0  0  0  0  0  0  0  0
   -8.7984   20.1795  -32.1869 H   0  0  0  0  0  0  0  0  0  0  0  0
   -8.1517   19.6728  -30.5750 H   0  0  0  0  0  0  0  0  0  0  0  0
   -9.6917   22.1039  -31.3346 H   0  0  0  0  0  0  0  0  0  0  0  0
   -9.4955   21.2933  -29.7316 H   0  0  0  0  0  0  0  0  0  0  0  0
   -8.2197   23.8680  -31.8865 H   0  0  0  0  0  0  0  0  0  0  0  0
   -6.6284   23.9002  -31.0056 H   0  0  0  0  0  0  0  0  0  0  0  0
   -7.4989   22.1956  -33.2449 H   0  0  0  0  0  0  0  0  0  0  0  0
   -5.8480   22.5079  -32.5910 H   0  0  0  0  0  0  0  0  0  0  0  0
   -3.9541   17.8495  -33.2209 H   0  0  0  0  0  0  0  0  0  0  0  0
   -1.5306   18.2329  -33.6632 H   0  0  0  0  0  0  0  0  0  0  0  0
    0.1268   19.1158  -28.9033 H   0  0  0  0  0  0  0  0  0  0  0  0
   -1.8578   19.2385  -27.3942 H   0  0  0  0  0  0  0  0  0  0  0  0
   -3.6248   20.9580  -27.7819 H   0  0  0  0  0  0  0  0  0  0  0  0
   -1.7789   24.4745  -29.7002 H   0  0  0  0  0  0  0  0  0  0  0  0
   -2.2988   25.9451  -28.7582 H   0  0  0  0  0  0  0  0  0  0  0  0
   -1.3951   23.2803  -27.5765 H   0  0  0  0  0  0  0  0  0  0  0  0
   -0.4411   24.8165  -27.6411 H   0  0  0  0  0  0  0  0  0  0  0  0
   -1.8457   24.1183  -25.4658 H   0  0  0  0  0  0  0  0  0  0  0  0
   -1.6937   25.8444  -26.0249 H   0  0  0  0  0  0  0  0  0  0  0  0
   -4.0668   24.7147  -25.3764 H   0  0  0  0  0  0  0  0  0  0  0  0
   -3.8773   25.9982  -26.6336 H   0  0  0  0  0  0  0  0  0  0  0  0
   -3.8794   22.9859  -27.1689 H   0  0  0  0  0  0  0  0  0  0  0  0
   -5.2749   24.1094  -27.4274 H   0  0  0  0  0  0  0  0  0  0  0  0
   -1.4116   22.4601  -31.1864 H   0  0  0  0  0  0  0  0  0  0  0  0
  1  2  2  0
  2  3  1  0
  3  4  1  0
  4  5  1  0
  5  6  2  0
  6  7  1  0
  7  8  2  0
  8  9  1  0
  9 10  2  0
  9 11  2  0
  9 12  1  0
 12 13  1  0
 13 14  1  0
 14 15  1  0
 15 16  1  0
 16 17  1  0
  8 18  1  0
 18 19  2  0
  2 20  1  0
 20 21  1  0
 21 22  2  0
 22 23  1  0
 23 24  2  0
 24 25  1  0
 25 26  1  0
 26 27  2  0
 26 28  2  0
 26 29  1  0
 29 30  1  0
 30 31  1  0
 31 32  1  0
 32 33  1  0
 33 34  1  0
 25 35  2  0
 19  5  1  0
 35 21  1  0
 17 12  1  0
 34 29  1  0
  3 36  1  0
  3 37  1  0
  6 38  1  0
  7 39  1  0
 12 40  1  0
 13 41  1  0
 13 42  1  0
 14 43  1  0
 14 44  1  0
 16 45  1  0
 16 46  1  0
 17 47  1  0
 17 48  1  0
 18 49  1  0
 19 50  1  0
 22 51  1  0
 23 52  1  0
 24 53  1  0
 30 54  1  0
 30 55  1  0
 31 56  1  0
 31 57  1  0
 32 58  1  0
 32 59  1  0
 33 60  1  0
 33 61  1  0
 34 62  1  0
 34 63  1  0
 35 64  1  0
M  CHG  2  12   1  20  -1
M  END
>  <UniqueID>  (32) 
30

>  <SMILES>  (32) 
O=C(CSc1ccc(S(=O)(=O)[NH+]2CCOCC2)cc1)[N-]c1cccc(S(=O)(=O)N2CCCCC2)c1

>  <Energy>  (32) 
82.64068544571093

>  <Genealogy>  (32) 
O=C(CSc1ccc(S(=O)(=O)[NH+]2CCOCC2)cc1)[N-]c1cccc(S(=O)(=O)N2CCCCC2)c1 (protonated)
O=C(CSc1ccc(S(=O)(=O)[NH+]2CCOCC2)cc1)[N-]c1cccc(S(=O)(=O)N2CCCCC2)c1 (3D coordinates assigned)
O=C(CSc1ccc(S(=O)(=O)[NH+]2CCOCC2)cc1)[N-]c1cccc(S(=O)(=O)N2CCCCC2)c1 (nonaromatic ring conformer: 82.64068544571093 kcal/mol)

>  <smiles>  (32) 
O=C(CSc1ccc(S(=O)(=O)N2CCOCC2)cc1)Nc1cccc(S(=O)(=O)N2CCCCC2)c1

>  <score_type>  (32) 
oracle

>  <origin>  (32) 
adgpu

>  <m_score__min__energy>  (32) 
-11.880000000000001

>  <m_primary>  (32) 
energy

$$$$
32:0
     RDKit          3D

 42 44  0  0  0  0  0  0  0  0999 V2000
   -3.5050   17.0850  -34.0290 C   0  0  0  0  0  0  0  0  0  0  0  0
   -4.7730   17.7240  -33.5430 C   0  0  0  0  0  0  0  0  0  0  0  0
   -5.3740   18.7490  -34.2880 C   0  0  0  0  0  0  0  0  0  0  0  0
   -6.5700   19.3280  -33.8540 C   0  0  0  0  0  0  0  0  0  0  0  0
   -7.1880   18.8780  -32.6780 C   0  0  0  0  0  0  0  0  0  0  0  0
   -8.7010   19.5840  -32.1260 S   0  0  0  0  0  0  0  0  0  0  0  0
   -9.8060   19.1300  -33.0360 O   0  0  0  0  0  0  0  0  0  0  0  0
   -9.0200   19.1500  -30.7220 O   0  0  0  0  0  0  0  0  0  0  0  0
   -8.5930   21.3130  -32.1780 N   0  0  0  0  0  0  0  0  0  0  0  0
   -7.4470   22.0810  -31.7870 C   0  0  0  0  0  0  0  0  0  0  0  0
   -7.6000   23.0500  -30.7900 C   0  0  0  0  0  0  0  0  0  0  0  0
   -6.5130   23.8250  -30.3790 C   0  0  0  0  0  0  0  0  0  0  0  0
   -5.2490   23.6520  -30.9690 C   0  0  0  0  0  0  0  0  0  0  0  0
   -4.1000   24.4750  -30.5140 C   0  0  0  0  0  0  0  0  0  0  0  0
   -4.2280   25.7280  -30.4290 O   0  0  0  0  0  0  0  0  0  0  0  0
   -2.8190   23.8960  -30.2290 N   0  0  0  0  0  0  0  0  0  0  0  0
   -2.1890   23.8450  -28.9430 C   0  0  0  0  0  0  0  0  0  0  0  0
   -2.3700   22.7450  -28.0830 C   0  0  0  0  0  0  0  0  0  0  0  0
   -1.7640   22.7300  -26.8230 C   0  0  0  0  0  0  0  0  0  0  0  0
   -0.9880   23.8140  -26.4060 C   0  0  0  0  0  0  0  0  0  0  0  0
   -0.8190   24.9190  -27.2470 C   0  0  0  0  0  0  0  0  0  0  0  0
   -1.4210   24.9380  -28.5100 C   0  0  0  0  0  0  0  0  0  0  0  0
   -1.2450   26.0420  -29.3360 O   0  0  0  0  0  0  0  0  0  0  0  0
   -5.0910   22.6690  -31.9670 C   0  0  0  0  0  0  0  0  0  0  0  0
   -3.8570   22.4670  -32.5790 O   0  0  0  0  0  0  0  0  0  0  0  0
   -6.1820   21.8880  -32.3670 C   0  0  0  0  0  0  0  0  0  0  0  0
   -6.5990   17.8390  -31.9430 C   0  0  0  0  0  0  0  0  0  0  0  0
   -5.4010   17.2610  -32.3740 C   0  0  0  0  0  0  0  0  0  0  0  0
   -2.8953   16.7777  -33.1665 H   0  0  0  0  0  0  0  0  0  0  0  0
   -3.7494   16.2024  -34.6383 H   0  0  0  0  0  0  0  0  0  0  0  0
   -2.9410   17.8065  -34.6383 H   0  0  0  0  0  0  0  0  0  0  0  0
   -4.9021   19.0989  -35.2180 H   0  0  0  0  0  0  0  0  0  0  0  0
   -7.0285   20.1401  -34.4373 H   0  0  0  0  0  0  0  0  0  0  0  0
   -8.5852   23.2031  -30.3254 H   0  0  0  0  0  0  0  0  0  0  0  0
   -6.6472   24.5767  -29.5873 H   0  0  0  0  0  0  0  0  0  0  0  0
   -2.9901   21.8948  -28.4033 H   0  0  0  0  0  0  0  0  0  0  0  0
   -1.8986   21.8633  -26.1592 H   0  0  0  0  0  0  0  0  0  0  0  0
   -0.5095   23.7987  -25.4157 H   0  0  0  0  0  0  0  0  0  0  0  0
   -0.2120   25.7742  -26.9150 H   0  0  0  0  0  0  0  0  0  0  0  0
   -6.0478   21.1178  -33.1408 H   0  0  0  0  0  0  0  0  0  0  0  0
   -7.0817   17.4771  -31.0232 H   0  0  0  0  0  0  0  0  0  0  0  0
   -4.9487   16.4414  -31.7964 H   0  0  0  0  0  0  0  0  0  0  0  0
  1  2  1  0
  2  3  2  0
  3  4  1  0
  4  5  2  0
  5  6  1  0
  6  7  2  0
  6  8  2  0
  6  9  1  0
  9 10  1  0
 10 11  2  0
 11 12  1  0
 12 13  2  0
 13 14  1  0
 14 15  2  0
 14 16  1  0
 16 17  1  0
 17 18  2  0
 18 19  1  0
 19 20  2  0
 20 21  1  0
 21 22  2  0
 22 23  1  0
 13 24  1  0
 24 25  1  0
 24 26  2  0
  5 27  1  0
 27 28  2  0
 28  2  1  0
 26 10  1  0
 22 17  1  0
  1 29  1  0
  1 30  1  0
  1 31  1  0
  3 32  1  0
  4 33  1  0
 11 34  1  0
 12 35  1  0
 18 36  1  0
 19 37  1  0
 20 38  1  0
 21 39  1  0
 26 40  1  0
 27 41  1  0
 28 42  1  0
M  CHG  4   9  -1  16  -1  23  -1  25  -1
M  END
>  <UniqueID>  (33) 
31

>  <SMILES>  (33) 
Cc1ccc(S(=O)(=O)[N-]c2ccc(C(=O)[N-]c3ccccc3[O-])c([O-])c2)cc1

>  <Energy>  (33) 
55.473693982896684

>  <Genealogy>  (33) 
Cc1ccc(S(=O)(=O)[N-]c2ccc(C(=O)[N-]c3ccccc3[O-])c([O-])c2)cc1 (protonated)
Cc1ccc(S(=O)(=O)[N-]c2ccc(C(=O)[N-]c3ccccc3[O-])c([O-])c2)cc1 (3D coordinates assigned)
Cc1ccc(S(=O)(=O)[N-]c2ccc(C(=O)[N-]c3ccccc3[O-])c([O-])c2)cc1 (optimized conformer: 55.473693982896684 kcal/mol)

>  <smiles>  (33) 
Cc1ccc(S(=O)(=O)Nc2ccc(C(=O)Nc3ccccc3O)c(O)c2)cc1

>  <score_type>  (33) 
oracle

>  <origin>  (33) 
adgpu

>  <m_score__min__energy>  (33) 
-15.92

>  <m_primary>  (33) 
energy

$$$$
33:0
     RDKit          3D

 38 40  0  0  0  0  0  0  0  0999 V2000
   -4.2860   24.1730  -28.3210 C   0  0  0  0  0  0  0  0  0  0  0  0
   -5.4030   24.9030  -28.9250 N   0  0  0  0  0  0  0  0  0  0  0  0
   -5.3280   24.8500  -30.3920 C   0  0  0  0  0  0  0  0  0  0  0  0
   -6.1220   23.6870  -30.9200 C   0  0  0  0  0  0  0  0  0  0  0  0
   -7.4900   23.6780  -31.1100 C   0  0  0  0  0  0  0  0  0  0  0  0
   -7.8730   22.5050  -31.6450 N   0  0  0  0  0  0  0  0  0  0  0  0
   -6.7670   21.7490  -31.7960 C   0  0  0  0  0  0  0  0  0  0  0  0
   -6.7970   20.3680  -32.3300 C   0  0  0  0  0  0  0  0  0  0  0  0
   -7.5920   19.3780  -31.7250 C   0  0  0  0  0  0  0  0  0  0  0  0
   -7.6160   18.0780  -32.2420 C   0  0  0  0  0  0  0  0  0  0  0  0
   -6.8560   17.7600  -33.3710 C   0  0  0  0  0  0  0  0  0  0  0  0
   -6.0760   18.7420  -33.9880 C   0  0  0  0  0  0  0  0  0  0  0  0
   -6.0490   20.0420  -33.4730 C   0  0  0  0  0  0  0  0  0  0  0  0
   -5.6500   22.4520  -31.3510 C   0  0  0  0  0  0  0  0  0  0  0  0
   -4.2350   22.0310  -31.4430 C   0  0  0  0  0  0  0  0  0  0  0  0
   -3.6050   21.9360  -32.6920 C   0  0  0  0  0  0  0  0  0  0  0  0
   -2.2720   21.5270  -32.7620 C   0  0  0  0  0  0  0  0  0  0  0  0
   -1.5920   21.2230  -31.6250 N   0  0  0  0  0  0  0  0  0  0  0  0
   -2.1770   21.3040  -30.4010 C   0  0  0  0  0  0  0  0  0  0  0  0
   -3.5100   21.7090  -30.2870 C   0  0  0  0  0  0  0  0  0  0  0  0
   -4.3644   24.2242  -27.2250 H   0  0  0  0  0  0  0  0  0  0  0  0
   -4.3187   23.1215  -28.6422 H   0  0  0  0  0  0  0  0  0  0  0  0
   -3.3360   24.6251  -28.6422 H   0  0  0  0  0  0  0  0  0  0  0  0
   -6.3010   24.4760  -28.5970 H   0  0  0  0  0  0  0  0  0  0  0  0
   -5.3630   25.9010  -28.6070 H   0  0  0  0  0  0  0  0  0  0  0  0
   -5.7334   25.7837  -30.8089 H   0  0  0  0  0  0  0  0  0  0  0  0
   -4.2763   24.7261  -30.6895 H   0  0  0  0  0  0  0  0  0  0  0  0
   -8.1669   24.5083  -30.8604 H   0  0  0  0  0  0  0  0  0  0  0  0
   -8.8540   22.2340  -31.8790 H   0  0  0  0  0  0  0  0  0  0  0  0
   -8.1978   19.6269  -30.8412 H   0  0  0  0  0  0  0  0  0  0  0  0
   -8.2334   17.3059  -31.7596 H   0  0  0  0  0  0  0  0  0  0  0  0
   -6.8717   16.7366  -33.7741 H   0  0  0  0  0  0  0  0  0  0  0  0
   -5.4826   18.4921  -34.8798 H   0  0  0  0  0  0  0  0  0  0  0  0
   -5.4387   20.8132  -33.9658 H   0  0  0  0  0  0  0  0  0  0  0  0
   -4.1575   22.1821  -33.6108 H   0  0  0  0  0  0  0  0  0  0  0  0
   -1.7714   21.4507  -33.7385 H   0  0  0  0  0  0  0  0  0  0  0  0
   -1.6008   21.0505  -29.4989 H   0  0  0  0  0  0  0  0  0  0  0  0
   -3.9866   21.7746  -29.2978 H   0  0  0  0  0  0  0  0  0  0  0  0
  1  2  1  0
  2  3  1  0
  3  4  1  0
  4  5  2  0
  5  6  1  0
  6  7  1  0
  7  8  1  0
  8  9  2  0
  9 10  1  0
 10 11  2  0
 11 12  1  0
 12 13  2  0
  7 14  2  0
 14 15  1  0
 15 16  2  0
 16 17  1  0
 17 18  2  0
 18 19  1  0
 19 20  2  0
 14  4  1  0
 20 15  1  0
 13  8  1  0
  1 21  1  0
  1 22  1  0
  1 23  1  0
  2 24  1  0
  2 25  1  0
  3 26  1  0
  3 27  1  0
  5 28  1  0
  6 29  1  0
  9 30  1  0
 10 31  1  0
 11 32  1  0
 12 33  1  0
 13 34  1  0
 16 35  1  0
 17 36  1  0
 19 37  1  0
 20 38  1  0
M  CHG  1   2   1
M  END
>  <UniqueID>  (34) 
32

>  <SMILES>  (34) 
C[NH2+]Cc1c[nH]c(-c2ccccc2)c1-c1ccncc1

>  <Energy>  (34) 
73.35468510155246

>  <Genealogy>  (34) 
C[NH2+]Cc1c[nH]c(-c2ccccc2)c1-c1ccncc1 (protonated)
C[NH2+]Cc1c[nH]c(-c2ccccc2)c1-c1ccncc1 (3D coordinates assigned)
C[NH2+]Cc1c[nH]c(-c2ccccc2)c1-c1ccncc1 (optimized conformer: 73.35468510155246 kcal/mol)

>  <smiles>  (34) 
CNCc1c[nH]c(-c2ccccc2)c1-c1ccncc1

>  <score_type>  (34) 
oracle

>  <origin>  (34) 
adgpu

>  <m_score__min__energy>  (34) 
-6.8099999999999996

>  <m_primary>  (34) 
energy

$$$$
34:0
     RDKit          3D

 37 40  0  0  0  0  0  0  0  0999 V2000
   -3.9750   25.2450  -30.8660 O   0  0  0  0  0  0  0  0  0  0  0  0
   -4.8530   24.7150  -29.7670 S   0  0  0  0  0  0  0  0  0  0  0  0
   -5.7850   25.8060  -29.3180 O   0  0  0  0  0  0  0  0  0  0  0  0
   -5.8430   23.3830  -30.3580 C   0  0  0  0  0  0  0  0  0  0  0  0
   -7.2110   23.3190  -30.0650 C   0  0  0  0  0  0  0  0  0  0  0  0
   -7.9900   22.2670  -30.5580 C   0  0  0  0  0  0  0  0  0  0  0  0
   -7.4110   21.2620  -31.3570 C   0  0  0  0  0  0  0  0  0  0  0  0
   -8.1980   20.1720  -31.8760 N   0  0  0  0  0  0  0  0  0  0  0  0
   -8.0720   18.8500  -31.6470 C   0  0  0  0  0  0  0  0  0  0  0  0
   -9.0160   18.1770  -32.3310 N   0  0  0  0  0  0  0  0  0  0  0  0
   -9.7110   19.1060  -32.9740 N   0  0  0  0  0  0  0  0  0  0  0  0
   -9.2210   20.3050  -32.7010 N   0  0  0  0  0  0  0  0  0  0  0  0
   -6.0370   21.3390  -31.6490 C   0  0  0  0  0  0  0  0  0  0  0  0
   -5.2610   22.3900  -31.1530 C   0  0  0  0  0  0  0  0  0  0  0  0
   -3.8540   24.1930  -28.4370 N   0  0  0  0  0  0  0  0  0  0  0  0
   -4.2050   24.5550  -27.0600 C   0  0  0  0  0  0  0  0  0  0  0  0
   -3.0090   25.2490  -26.4050 C   0  0  0  0  0  0  0  0  0  0  0  0
   -1.8350   24.4430  -26.5340 O   0  0  0  0  0  0  0  0  0  0  0  0
   -1.5890   23.6680  -27.6760 C   0  0  0  0  0  0  0  0  0  0  0  0
   -0.3590   23.0220  -27.8320 C   0  0  0  0  0  0  0  0  0  0  0  0
   -0.1250   22.2280  -28.9580 C   0  0  0  0  0  0  0  0  0  0  0  0
   -1.1230   22.0700  -29.9240 C   0  0  0  0  0  0  0  0  0  0  0  0
   -2.3580   22.7100  -29.7710 C   0  0  0  0  0  0  0  0  0  0  0  0
   -2.5940   23.5280  -28.6520 C   0  0  0  0  0  0  0  0  0  0  0  0
   -7.6750   24.0996  -29.4443 H   0  0  0  0  0  0  0  0  0  0  0  0
   -9.0631   22.2243  -30.3198 H   0  0  0  0  0  0  0  0  0  0  0  0
   -7.3119   18.3899  -30.9985 H   0  0  0  0  0  0  0  0  0  0  0  0
   -5.5688   20.5642  -32.2739 H   0  0  0  0  0  0  0  0  0  0  0  0
   -4.1876   22.4367  -31.3888 H   0  0  0  0  0  0  0  0  0  0  0  0
   -5.0682   25.2368  -27.0669 H   0  0  0  0  0  0  0  0  0  0  0  0
   -4.4641   23.6488  -26.4929 H   0  0  0  0  0  0  0  0  0  0  0  0
   -2.8390   26.2187  -26.8956 H   0  0  0  0  0  0  0  0  0  0  0  0
   -3.2239   25.3993  -25.3367 H   0  0  0  0  0  0  0  0  0  0  0  0
    0.4244   23.1387  -27.0687 H   0  0  0  0  0  0  0  0  0  0  0  0
    0.8459   21.7266  -29.0843 H   0  0  0  0  0  0  0  0  0  0  0  0
   -0.9370   21.4408  -30.8069 H   0  0  0  0  0  0  0  0  0  0  0  0
   -3.1451   22.5730  -30.5271 H   0  0  0  0  0  0  0  0  0  0  0  0
  1  2  2  0
  2  3  2  0
  2  4  1  0
  4  5  2  0
  5  6  1  0
  6  7  2  0
  7  8  1  0
  8  9  1  0
  9 10  2  0
 10 11  1  0
 11 12  2  0
  7 13  1  0
 13 14  2  0
  2 15  1  0
 15 16  1  0
 16 17  1  0
 17 18  1  0
 18 19  1  0
 19 20  2  0
 20 21  1  0
 21 22  2  0
 22 23  1  0
 23 24  2  0
 14  4  1  0
 24 15  1  0
 12  8  1  0
 24 19  1  0
  5 25  1  0
  6 26  1  0
  9 27  1  0
 13 28  1  0
 14 29  1  0
 16 30  1  0
 16 31  1  0
 17 32  1  0
 17 33  1  0
 20 34  1  0
 21 35  1  0
 22 36  1  0
 23 37  1  0
M  END
>  <UniqueID>  (35) 
33

>  <SMILES>  (35) 
O=S(=O)(c1ccc(-n2cnnn2)cc1)N1CCOc2ccccc21

>  <Energy>  (35) 
87.53611765774893

>  <Genealogy>  (35) 
O=S(=O)(c1ccc(-n2cnnn2)cc1)N1CCOc2ccccc21 (3D coordinates assigned)
O=S(=O)(c1ccc(-n2cnnn2)cc1)N1CCOc2ccccc21 (nonaromatic ring conformer: 87.53611765774893 kcal/mol)

>  <smiles>  (35) 
O=S(=O)(c1ccc(-n2cnnn2)cc1)N1CCOc2ccccc21

>  <score_type>  (35) 
oracle

>  <origin>  (35) 
adgpu

>  <m_score__min__energy>  (35) 
-8.6699999999999999

>  <m_primary>  (35) 
energy

$$$$
35:0
     RDKit          3D

 43 46  0  0  0  0  0  0  0  0999 V2000
   -5.2410   24.4770  -31.3240 O   0  0  0  0  0  0  0  0  0  0  0  0
   -4.1820   24.0200  -30.8190 C   0  0  0  0  0  0  0  0  0  0  0  0
   -3.3640   24.8930  -30.0310 N   0  0  0  0  0  0  0  0  0  0  0  0
   -2.6180   24.5050  -28.8700 C   0  0  0  0  0  0  0  0  0  0  0  0
   -2.9900   23.3440  -28.1920 C   0  0  0  0  0  0  0  0  0  0  0  0
   -2.2730   22.9200  -27.0750 C   0  0  0  0  0  0  0  0  0  0  0  0
   -1.1890   23.6640  -26.6030 C   0  0  0  0  0  0  0  0  0  0  0  0
   -0.2880   23.0100  -25.2390 Cl  0  0  0  0  0  0  0  0  0  0  0  0
   -0.8320   24.8770  -27.2390 C   0  0  0  0  0  0  0  0  0  0  0  0
    0.5370   25.8520  -26.6480 S   0  0  0  0  0  0  0  0  0  0  0  0
    1.7490   25.5820  -27.4950 O   0  0  0  0  0  0  0  0  0  0  0  0
    0.8820   25.4550  -25.2390 O   0  0  0  0  0  0  0  0  0  0  0  0
    0.2090   27.6170  -26.6640 C   0  0  0  0  0  0  0  0  0  0  0  0
    0.5920   28.3230  -25.3730 C   0  0  0  0  0  0  0  0  0  0  0  0
   -0.8730   28.1300  -25.7260 C   0  0  0  0  0  0  0  0  0  0  0  0
   -1.5610   25.2940  -28.3740 C   0  0  0  0  0  0  0  0  0  0  0  0
   -1.2500   26.4930  -29.0080 O   0  0  0  0  0  0  0  0  0  0  0  0
   -3.8130   22.6420  -31.0150 N   0  0  0  0  0  0  0  0  0  0  0  0
   -4.5760   21.7070  -31.7950 C   0  0  0  0  0  0  0  0  0  0  0  0
   -5.9770   21.8120  -31.9070 C   0  0  0  0  0  0  0  0  0  0  0  0
   -6.7000   20.8710  -32.6460 C   0  0  0  0  0  0  0  0  0  0  0  0
   -6.0350   19.8070  -33.2600 C   0  0  0  0  0  0  0  0  0  0  0  0
   -4.6430   19.6970  -33.1570 C   0  0  0  0  0  0  0  0  0  0  0  0
   -3.9190   20.6280  -32.4080 C   0  0  0  0  0  0  0  0  0  0  0  0
   -3.9930   18.6460  -33.8130 O   0  0  0  0  0  0  0  0  0  0  0  0
   -4.6710   17.8590  -34.7950 C   0  0  0  0  0  0  0  0  0  0  0  0
   -6.1230   17.6090  -34.3680 C   0  0  0  0  0  0  0  0  0  0  0  0
   -6.7420   18.8380  -33.9790 O   0  0  0  0  0  0  0  0  0  0  0  0
   -3.8543   22.7599  -28.5411 H   0  0  0  0  0  0  0  0  0  0  0  0
   -2.5629   21.9919  -26.5607 H   0  0  0  0  0  0  0  0  0  0  0  0
    0.4104   27.7491  -27.7373 H   0  0  0  0  0  0  0  0  0  0  0  0
    1.0380   27.7519  -24.5454 H   0  0  0  0  0  0  0  0  0  0  0  0
    1.2228   29.1871  -25.1170 H   0  0  0  0  0  0  0  0  0  0  0  0
   -1.4875   27.4191  -25.1541 H   0  0  0  0  0  0  0  0  0  0  0  0
   -1.7419   28.7963  -25.8315 H   0  0  0  0  0  0  0  0  0  0  0  0
   -2.8950   22.3140  -30.6420 H   0  0  0  0  0  0  0  0  0  0  0  0
   -6.5047   22.6393  -31.4100 H   0  0  0  0  0  0  0  0  0  0  0  0
   -7.7913   20.9683  -32.7439 H   0  0  0  0  0  0  0  0  0  0  0  0
   -2.8303   20.5153  -32.2981 H   0  0  0  0  0  0  0  0  0  0  0  0
   -4.6625   18.3928  -35.7568 H   0  0  0  0  0  0  0  0  0  0  0  0
   -4.1564   16.8920  -34.8958 H   0  0  0  0  0  0  0  0  0  0  0  0
   -6.6795   17.1726  -35.2106 H   0  0  0  0  0  0  0  0  0  0  0  0
   -6.1316   16.9166  -33.5133 H   0  0  0  0  0  0  0  0  0  0  0  0
  1  2  2  0
  2  3  1  0
  3  4  1  0
  4  5  2  0
  5  6  1  0
  6  7  2  0
  7  8  1  0
  7  9  1  0
  9 10  1  0
 10 11  2  0
 10 12  2  0
 10 13  1  0
 13 14  1  0
 14 15  1  0
  9 16  2  0
 16 17  1  0
  2 18  1  0
 18 19  1  0
 19 20  2  0
 20 21  1  0
 21 22  2  0
 22 23  1  0
 23 24  2  0
 23 25  1  0
 25 26  1  0
 26 27  1  0
 27 28  1  0
 16  4  1  0
 24 19  1  0
 15 13  1  0
 28 22  1  0
  5 29  1  0
  6 30  1  0
 13 31  1  0
 14 32  1  0
 14 33  1  0
 15 34  1  0
 15 35  1  0
 18 36  1  0
 20 37  1  0
 21 38  1  0
 24 39  1  0
 26 40  1  0
 26 41  1  0
 27 42  1  0
 27 43  1  0
M  CHG  2   3  -1  17  -1
M  END
>  <UniqueID>  (36) 
34

>  <SMILES>  (36) 
O=C([N-]c1ccc(Cl)c(S(=O)(=O)C2CC2)c1[O-])Nc1ccc2c(c1)OCCO2

>  <Energy>  (36) 
322.42069698327913

>  <Genealogy>  (36) 
O=C([N-]c1ccc(Cl)c(S(=O)(=O)C2CC2)c1[O-])Nc1ccc2c(c1)OCCO2 (protonated)
O=C([N-]c1ccc(Cl)c(S(=O)(=O)C2CC2)c1[O-])Nc1ccc2c(c1)OCCO2 (3D coordinates assigned)
O=C([N-]c1ccc(Cl)c(S(=O)(=O)C2CC2)c1[O-])Nc1ccc2c(c1)OCCO2 (nonaromatic ring conformer: 322.42069698327913 kcal/mol)

>  <smiles>  (36) 
O=C(Nc1ccc2c(c1)OCCO2)Nc1ccc(Cl)c(S(=O)(=O)C2CC2)c1O

>  <score_type>  (36) 
oracle

>  <origin>  (36) 
adgpu

>  <m_score__min__energy>  (36) 
-12.41

>  <m_primary>  (36) 
energy

$$$$
36:0
     RDKit          3D

 68 72  0  0  0  0  0  0  0  0999 V2000
   -9.4870   21.3100  -30.9510 C   0  0  0  0  0  0  0  0  0  0  0  0
   -8.5720   20.3210  -31.6200 C   0  0  0  0  0  0  0  0  0  0  0  0
   -8.7520   18.9520  -31.3640 C   0  0  0  0  0  0  0  0  0  0  0  0
   -7.9480   17.9990  -31.9920 C   0  0  0  0  0  0  0  0  0  0  0  0
   -6.9480   18.3990  -32.8840 C   0  0  0  0  0  0  0  0  0  0  0  0
   -5.9300   17.1840  -33.6510 S   0  0  0  0  0  0  0  0  0  0  0  0
   -5.2400   16.3680  -32.5950 O   0  0  0  0  0  0  0  0  0  0  0  0
   -6.7630   16.2620  -34.4950 O   0  0  0  0  0  0  0  0  0  0  0  0
   -4.7680   17.9740  -34.6640 N   0  0  0  0  0  0  0  0  0  0  0  0
   -3.6470   18.6630  -34.1130 C   0  0  0  0  0  0  0  0  0  0  0  0
   -3.8430   19.8990  -33.4850 C   0  0  0  0  0  0  0  0  0  0  0  0
   -2.7600   20.5680  -32.8950 C   0  0  0  0  0  0  0  0  0  0  0  0
   -1.4740   20.0100  -32.9580 C   0  0  0  0  0  0  0  0  0  0  0  0
   -1.2720   18.7940  -33.6270 C   0  0  0  0  0  0  0  0  0  0  0  0
   -2.3560   18.1210  -34.2020 C   0  0  0  0  0  0  0  0  0  0  0  0
   -2.1390   16.9230  -34.8720 O   0  0  0  0  0  0  0  0  0  0  0  0
   -0.3260   20.7740  -32.3540 C   0  0  0  0  0  0  0  0  0  0  0  0
   -0.7110   21.3560  -30.9790 C   0  0  0  0  0  0  0  0  0  0  0  0
   -2.1430   21.9500  -30.9020 C   0  0  0  0  0  0  0  0  0  0  0  0
   -2.9300   21.9030  -32.2250 C   0  0  0  0  0  0  0  0  0  0  0  0
   -6.7430   19.7620  -33.1300 C   0  0  0  0  0  0  0  0  0  0  0  0
   -7.5220   20.7290  -32.4800 C   0  0  0  0  0  0  0  0  0  0  0  0
   -7.2190   22.1120  -32.7140 N   0  0  0  0  0  0  0  0  0  0  0  0
   -7.2840   23.1540  -31.7330 C   0  0  0  0  0  0  0  0  0  0  0  0
   -8.3550   23.8030  -31.6140 O   0  0  0  0  0  0  0  0  0  0  0  0
   -6.1290   23.5050  -30.8770 C   0  0  0  0  0  0  0  0  0  0  0  0
   -5.3480   24.6430  -31.1420 C   0  0  0  0  0  0  0  0  0  0  0  0
   -4.2430   24.9460  -30.3430 C   0  0  0  0  0  0  0  0  0  0  0  0
   -3.9070   24.1230  -29.2610 C   0  0  0  0  0  0  0  0  0  0  0  0
   -2.5030   24.4950  -28.2600 S   0  0  0  0  0  0  0  0  0  0  0  0
   -2.9710   24.9350  -26.9010 O   0  0  0  0  0  0  0  0  0  0  0  0
   -1.7410   25.6330  -28.8800 O   0  0  0  0  0  0  0  0  0  0  0  0
   -1.4460   23.1140  -28.0850 N   0  0  0  0  0  0  0  0  0  0  0  0
   -0.2390   23.4850  -27.3360 C   0  0  0  0  0  0  0  0  0  0  0  0
    0.7090   22.2710  -27.2440 C   0  0  0  0  0  0  0  0  0  0  0  0
    0.0970   21.0660  -27.6690 O   0  0  0  0  0  0  0  0  0  0  0  0
   -1.1490   20.8900  -27.0210 C   0  0  0  0  0  0  0  0  0  0  0  0
   -2.1410   22.0100  -27.4010 C   0  0  0  0  0  0  0  0  0  0  0  0
   -4.6980   23.0020  -28.9750 C   0  0  0  0  0  0  0  0  0  0  0  0
   -5.8070   22.7000  -29.7720 C   0  0  0  0  0  0  0  0  0  0  0  0
   -9.3968   21.2125  -29.8590 H   0  0  0  0  0  0  0  0  0  0  0  0
   -9.2074   22.3303  -31.2524 H   0  0  0  0  0  0  0  0  0  0  0  0
  -10.5259   21.1104  -31.2524 H   0  0  0  0  0  0  0  0  0  0  0  0
   -9.5341   18.6274  -30.6619 H   0  0  0  0  0  0  0  0  0  0  0  0
   -8.1016   16.9297  -31.7845 H   0  0  0  0  0  0  0  0  0  0  0  0
   -4.8475   20.3462  -33.4542 H   0  0  0  0  0  0  0  0  0  0  0  0
   -0.2602   18.3687  -33.6999 H   0  0  0  0  0  0  0  0  0  0  0  0
    0.5315   20.0962  -32.2302 H   0  0  0  0  0  0  0  0  0  0  0  0
   -0.0667   21.6054  -33.0259 H   0  0  0  0  0  0  0  0  0  0  0  0
   -0.6336   20.5514  -30.2329 H   0  0  0  0  0  0  0  0  0  0  0  0
   -0.0190   22.1901  -30.7908 H   0  0  0  0  0  0  0  0  0  0  0  0
   -2.7084   21.3848  -30.1465 H   0  0  0  0  0  0  0  0  0  0  0  0
   -2.0254   23.0137  -30.6475 H   0  0  0  0  0  0  0  0  0  0  0  0
   -3.9972   22.0697  -32.0169 H   0  0  0  0  0  0  0  0  0  0  0  0
   -2.5457   22.6870  -32.8941 H   0  0  0  0  0  0  0  0  0  0  0  0
   -5.9637   20.0767  -33.8397 H   0  0  0  0  0  0  0  0  0  0  0  0
   -5.6088   25.2999  -31.9848 H   0  0  0  0  0  0  0  0  0  0  0  0
   -3.6342   25.8349  -30.5647 H   0  0  0  0  0  0  0  0  0  0  0  0
    0.2728   24.3104  -27.8526 H   0  0  0  0  0  0  0  0  0  0  0  0
   -0.5227   23.8036  -26.3221 H   0  0  0  0  0  0  0  0  0  0  0  0
    1.5878   22.4619  -27.8775 H   0  0  0  0  0  0  0  0  0  0  0  0
    0.9885   22.1470  -26.1874 H   0  0  0  0  0  0  0  0  0  0  0  0
   -1.5734   19.9194  -27.3176 H   0  0  0  0  0  0  0  0  0  0  0  0
   -0.9837   20.9262  -25.9341 H   0  0  0  0  0  0  0  0  0  0  0  0
   -2.9105   21.5983  -28.0706 H   0  0  0  0  0  0  0  0  0  0  0  0
   -2.6023   22.3995  -26.4815 H   0  0  0  0  0  0  0  0  0  0  0  0
   -4.4457   22.3571  -28.1203 H   0  0  0  0  0  0  0  0  0  0  0  0
   -6.4310   21.8265  -29.5319 H   0  0  0  0  0  0  0  0  0  0  0  0
  1  2  1  0
  2  3  2  0
  3  4  1  0
  4  5  2  0
  5  6  1  0
  6  7  2  0
  6  8  2  0
  6  9  1  0
  9 10  1  0
 10 11  2  0
 11 12  1  0
 12 13  2  0
 13 14  1  0
 14 15  2  0
 15 16  1  0
 13 17  1  0
 17 18  1  0
 18 19  1  0
 19 20  1  0
  5 21  1  0
 21 22  2  0
 22 23  1  0
 23 24  1  0
 24 25  2  0
 24 26  1  0
 26 27  2  0
 27 28  1  0
 28 29  2  0
 29 30  1  0
 30 31  2  0
 30 32  2  0
 30 33  1  0
 33 34  1  0
 34 35  1  0
 35 36  1  0
 36 37  1  0
 37 38  1  0
 29 39  1  0
 39 40  2  0
 22  2  1  0
 40 26  1  0
 15 10  1  0
 38 33  1  0
 20 12  1  0
  1 41  1  0
  1 42  1  0
  1 43  1  0
  3 44  1  0
  4 45  1  0
 11 46  1  0
 14 47  1  0
 17 48  1  0
 17 49  1  0
 18 50  1  0
 18 51  1  0
 19 52  1  0
 19 53  1  0
 20 54  1  0
 20 55  1  0
 21 56  1  0
 27 57  1  0
 28 58  1  0
 34 59  1  0
 34 60  1  0
 35 61  1  0
 35 62  1  0
 37 63  1  0
 37 64  1  0
 38 65  1  0
 38 66  1  0
 39 67  1  0
 40 68  1  0
M  CHG  3   9  -1  16  -1  23  -1
M  END
>  <UniqueID>  (37) 
35

>  <SMILES>  (37) 
Cc1ccc(S(=O)(=O)[N-]c2cc3c(cc2[O-])CCCC3)cc1[N-]C(=O)c1ccc(S(=O)(=O)N2CCOCC2)cc1

>  <Energy>  (37) 
99.67077530239814

>  <Genealogy>  (37) 
Cc1ccc(S(=O)(=O)[N-]c2cc3c(cc2[O-])CCCC3)cc1[N-]C(=O)c1ccc(S(=O)(=O)N2CCOCC2)cc1 (protonated)
Cc1ccc(S(=O)(=O)[N-]c2cc3c(cc2[O-])CCCC3)cc1[N-]C(=O)c1ccc(S(=O)(=O)N2CCOCC2)cc1 (3D coordinates assigned)
Cc1ccc(S(=O)(=O)[N-]c2cc3c(cc2[O-])CCCC3)cc1[N-]C(=O)c1ccc(S(=O)(=O)N2CCOCC2)cc1 (nonaromatic ring conformer: 99.67077530239814 kcal/mol)

>  <smiles>  (37) 
Cc1ccc(S(=O)(=O)Nc2cc3c(cc2O)CCCC3)cc1NC(=O)c1ccc(S(=O)(=O)N2CCOCC2)cc1

>  <score_type>  (37) 
oracle

>  <origin>  (37) 
adgpu

>  <m_score__min__energy>  (37) 
-15.68

>  <m_primary>  (37) 
energy

$$$$
37:0
     RDKit          3D

 53 56  0  0  0  0  0  0  0  0999 V2000
   -2.7790   25.4900  -26.2750 C   0  0  0  0  0  0  0  0  0  0  0  0
   -2.9470   24.1580  -26.9430 C   0  0  0  0  0  0  0  0  0  0  0  0
   -3.9580   23.8010  -27.8240 C   0  0  0  0  0  0  0  0  0  0  0  0
   -4.8990   24.6870  -28.4370 N   0  0  0  0  0  0  0  0  0  0  0  0
   -4.9190   24.9140  -30.1580 S   0  0  0  0  0  0  0  0  0  0  0  0
   -5.6060   26.2110  -30.4780 O   0  0  0  0  0  0  0  0  0  0  0  0
   -3.5070   24.9640  -30.6720 O   0  0  0  0  0  0  0  0  0  0  0  0
   -5.7520   23.5620  -30.9320 C   0  0  0  0  0  0  0  0  0  0  0  0
   -7.0780   23.2740  -30.6160 C   0  0  0  0  0  0  0  0  0  0  0  0
   -7.6730   22.1040  -31.0810 C   0  0  0  0  0  0  0  0  0  0  0  0
   -6.9520   21.1840  -31.8810 C   0  0  0  0  0  0  0  0  0  0  0  0
   -5.6120   21.4990  -32.2480 C   0  0  0  0  0  0  0  0  0  0  0  0
   -5.0370   22.6990  -31.7640 C   0  0  0  0  0  0  0  0  0  0  0  0
   -4.8950   20.6220  -33.0340 N   0  0  0  0  0  0  0  0  0  0  0  0
   -3.5030   20.9260  -33.4270 C   0  0  0  0  0  0  0  0  0  0  0  0
   -5.4730   19.4490  -33.4450 C   0  0  0  0  0  0  0  0  0  0  0  0
   -4.8330   18.6310  -34.1640 O   0  0  0  0  0  0  0  0  0  0  0  0
   -6.7800   19.1310  -33.0690 C   0  0  0  0  0  0  0  0  0  0  0  0
   -7.2720   18.0340  -33.4560 O   0  0  0  0  0  0  0  0  0  0  0  0
   -7.5110   19.9920  -32.2910 N   0  0  0  0  0  0  0  0  0  0  0  0
   -8.8800   19.6200  -31.8780 C   0  0  0  0  0  0  0  0  0  0  0  0
   -3.6110   22.5410  -28.2630 C   0  0  0  0  0  0  0  0  0  0  0  0
   -4.2380   21.8600  -29.1180 O   0  0  0  0  0  0  0  0  0  0  0  0
   -2.4540   22.1640  -27.6880 N   0  0  0  0  0  0  0  0  0  0  0  0
   -1.6840   21.0110  -28.0640 C   0  0  0  0  0  0  0  0  0  0  0  0
   -0.9430   21.0170  -29.2560 C   0  0  0  0  0  0  0  0  0  0  0  0
   -0.1490   19.9150  -29.5950 C   0  0  0  0  0  0  0  0  0  0  0  0
   -0.0800   18.8120  -28.7410 C   0  0  0  0  0  0  0  0  0  0  0  0
   -0.8050   18.8060  -27.5450 C   0  0  0  0  0  0  0  0  0  0  0  0
   -1.6050   19.9020  -27.2090 C   0  0  0  0  0  0  0  0  0  0  0  0
   -2.0550   23.1380  -26.8750 N   0  0  0  0  0  0  0  0  0  0  0  0
   -0.7920   23.1550  -26.1340 C   0  0  0  0  0  0  0  0  0  0  0  0
   -2.7957   25.3573  -25.1832 H   0  0  0  0  0  0  0  0  0  0  0  0
   -1.8179   25.9325  -26.5759 H   0  0  0  0  0  0  0  0  0  0  0  0
   -3.6001   26.1573  -26.5759 H   0  0  0  0  0  0  0  0  0  0  0  0
   -5.3860   25.3980  -27.8460 H   0  0  0  0  0  0  0  0  0  0  0  0
   -7.6576   23.9741  -29.9963 H   0  0  0  0  0  0  0  0  0  0  0  0
   -8.7207   21.8906  -30.8226 H   0  0  0  0  0  0  0  0  0  0  0  0
   -4.0063   22.9563  -32.0494 H   0  0  0  0  0  0  0  0  0  0  0  0
   -2.8883   21.0603  -32.5247 H   0  0  0  0  0  0  0  0  0  0  0  0
   -3.1007   20.0945  -34.0244 H   0  0  0  0  0  0  0  0  0  0  0  0
   -3.4840   21.8495  -34.0244 H   0  0  0  0  0  0  0  0  0  0  0  0
   -8.9400   19.6037  -30.7798 H   0  0  0  0  0  0  0  0  0  0  0  0
   -9.5951   20.3564  -32.2734 H   0  0  0  0  0  0  0  0  0  0  0  0
   -9.1241   18.6230  -32.2734 H   0  0  0  0  0  0  0  0  0  0  0  0
   -0.9862   21.8891  -29.9250 H   0  0  0  0  0  0  0  0  0  0  0  0
    0.4215   19.9178  -30.5355 H   0  0  0  0  0  0  0  0  0  0  0  0
    0.5450   17.9474  -29.0092 H   0  0  0  0  0  0  0  0  0  0  0  0
   -0.7458   17.9398  -26.8695 H   0  0  0  0  0  0  0  0  0  0  0  0
   -2.1758   19.8946  -26.2687 H   0  0  0  0  0  0  0  0  0  0  0  0
   -1.0005   23.1522  -25.0539 H   0  0  0  0  0  0  0  0  0  0  0  0
   -0.2013   22.2647  -26.3957 H   0  0  0  0  0  0  0  0  0  0  0  0
   -0.2255   24.0609  -26.3957 H   0  0  0  0  0  0  0  0  0  0  0  0
  1  2  1  0
  2  3  2  0
  3  4  1  0
  4  5  1  0
  5  6  2  0
  5  7  2  0
  5  8  1  0
  8  9  2  0
  9 10  1  0
 10 11  2  0
 11 12  1  0
 12 13  2  0
 12 14  1  0
 14 15  1  0
 14 16  1  0
 16 17  2  0
 16 18  1  0
 18 19  2  0
 18 20  1  0
 20 21  1  0
  3 22  1  0
 22 23  2  0
 22 24  1  0
 24 25  1  0
 25 26  2  0
 26 27  1  0
 27 28  2  0
 28 29  1  0
 29 30  2  0
 24 31  1  0
 31 32  1  0
 31  2  1  0
 13  8  1  0
 30 25  1  0
 20 11  1  0
  1 33  1  0
  1 34  1  0
  1 35  1  0
  4 36  1  0
  9 37  1  0
 10 38  1  0
 13 39  1  0
 15 40  1  0
 15 41  1  0
 15 42  1  0
 21 43  1  0
 21 44  1  0
 21 45  1  0
 26 46  1  0
 27 47  1  0
 28 48  1  0
 29 49  1  0
 30 50  1  0
 32 51  1  0
 32 52  1  0
 32 53  1  0
M  END
>  <UniqueID>  (38) 
36

>  <SMILES>  (38) 
Cc1c(NS(=O)(=O)c2ccc3c(c2)n(C)c(=O)c(=O)n3C)c(=O)n(-c2ccccc2)n1C

>  <Energy>  (38) 
116.3039874078906

>  <Genealogy>  (38) 
Cc1c(NS(=O)(=O)c2ccc3c(c2)n(C)c(=O)c(=O)n3C)c(=O)n(-c2ccccc2)n1C (3D coordinates assigned)
Cc1c(NS(=O)(=O)c2ccc3c(c2)n(C)c(=O)c(=O)n3C)c(=O)n(-c2ccccc2)n1C (optimized conformer: 116.3039874078906 kcal/mol)

>  <smiles>  (38) 
Cc1c(NS(=O)(=O)c2ccc3c(c2)n(C)c(=O)c(=O)n3C)c(=O)n(-c2ccccc2)n1C

>  <score_type>  (38) 
oracle

>  <origin>  (38) 
adgpu

>  <m_score__min__energy>  (38) 
-10.44

>  <m_primary>  (38) 
energy

$$$$
38:0
     RDKit          3D

 52 55  0  0  0  0  0  0  0  0999 V2000
   -0.3190   23.8930  -24.9040 C   0  0  0  0  0  0  0  0  0  0  0  0
   -1.0120   23.7670  -26.2360 C   0  0  0  0  0  0  0  0  0  0  0  0
   -1.5610   22.5220  -26.5830 C   0  0  0  0  0  0  0  0  0  0  0  0
   -2.2010   22.3410  -27.8060 C   0  0  0  0  0  0  0  0  0  0  0  0
   -2.3160   23.4000  -28.7080 C   0  0  0  0  0  0  0  0  0  0  0  0
   -2.9540   23.1690  -29.9730 N   0  0  0  0  0  0  0  0  0  0  0  0
   -3.9830   24.0260  -30.4980 C   0  0  0  0  0  0  0  0  0  0  0  0
   -4.2920   25.0900  -29.9000 O   0  0  0  0  0  0  0  0  0  0  0  0
   -4.6470   23.7070  -31.7260 N   0  0  0  0  0  0  0  0  0  0  0  0
   -4.7150   22.4090  -32.3300 C   0  0  0  0  0  0  0  0  0  0  0  0
   -3.5810   21.8000  -32.8900 C   0  0  0  0  0  0  0  0  0  0  0  0
   -3.6720   20.5230  -33.4490 C   0  0  0  0  0  0  0  0  0  0  0  0
   -4.8920   19.8320  -33.4490 C   0  0  0  0  0  0  0  0  0  0  0  0
   -6.0210   20.4150  -32.8370 C   0  0  0  0  0  0  0  0  0  0  0  0
   -5.9240   21.7040  -32.2900 C   0  0  0  0  0  0  0  0  0  0  0  0
   -7.3610   19.7160  -32.8510 C   0  0  0  0  0  0  0  0  0  0  0  0
   -7.2510   18.2580  -33.0540 N   0  0  0  0  0  0  0  0  0  0  0  0
   -6.8430   17.5590  -31.8220 C   0  0  0  0  0  0  0  0  0  0  0  0
   -6.3830   17.9370  -34.2020 C   0  0  0  0  0  0  0  0  0  0  0  0
   -4.9430   18.4350  -34.0080 C   0  0  0  0  0  0  0  0  0  0  0  0
   -1.7510   24.6480  -28.3900 C   0  0  0  0  0  0  0  0  0  0  0  0
   -1.7680   25.6640  -29.3420 O   0  0  0  0  0  0  0  0  0  0  0  0
   -1.1390   24.8600  -27.1350 C   0  0  0  0  0  0  0  0  0  0  0  0
   -0.4870   26.4710  -26.7470 S   0  0  0  0  0  0  0  0  0  0  0  0
   -0.4960   27.3370  -27.9760 O   0  0  0  0  0  0  0  0  0  0  0  0
   -1.3360   27.1510  -25.7090 O   0  0  0  0  0  0  0  0  0  0  0  0
    1.2070   26.2860  -26.1910 C   0  0  0  0  0  0  0  0  0  0  0  0
    2.0130   25.2910  -27.0090 C   0  0  0  0  0  0  0  0  0  0  0  0
    2.2860   26.7790  -27.1440 C   0  0  0  0  0  0  0  0  0  0  0  0
   -1.0524   23.7597  -24.0951 H   0  0  0  0  0  0  0  0  0  0  0  0
    0.4613   23.1220  -24.8223 H   0  0  0  0  0  0  0  0  0  0  0  0
    0.1400   24.8893  -24.8223 H   0  0  0  0  0  0  0  0  0  0  0  0
   -1.4844   21.6795  -25.8799 H   0  0  0  0  0  0  0  0  0  0  0  0
   -2.6190   21.3566  -28.0633 H   0  0  0  0  0  0  0  0  0  0  0  0
   -2.7300   22.2800  -30.4700 H   0  0  0  0  0  0  0  0  0  0  0  0
   -2.6172   22.3302  -32.8887 H   0  0  0  0  0  0  0  0  0  0  0  0
   -2.7801   20.0562  -33.8924 H   0  0  0  0  0  0  0  0  0  0  0  0
   -6.8076   22.1654  -31.8248 H   0  0  0  0  0  0  0  0  0  0  0  0
   -7.8614   19.8988  -31.8886 H   0  0  0  0  0  0  0  0  0  0  0  0
   -7.9345   20.1228  -33.6969 H   0  0  0  0  0  0  0  0  0  0  0  0
   -7.1785   18.1337  -30.9461 H   0  0  0  0  0  0  0  0  0  0  0  0
   -7.2987   16.5581  -31.8003 H   0  0  0  0  0  0  0  0  0  0  0  0
   -5.7474   17.4636  -31.8003 H   0  0  0  0  0  0  0  0  0  0  0  0
   -6.3638   16.8453  -34.3353 H   0  0  0  0  0  0  0  0  0  0  0  0
   -6.7962   18.4451  -35.0858 H   0  0  0  0  0  0  0  0  0  0  0  0
   -4.4248   17.7571  -33.3138 H   0  0  0  0  0  0  0  0  0  0  0  0
   -4.4561   18.4492  -34.9943 H   0  0  0  0  0  0  0  0  0  0  0  0
    0.9940   26.4506  -25.1244 H   0  0  0  0  0  0  0  0  0  0  0  0
    2.7483   24.6399  -26.5136 H   0  0  0  0  0  0  0  0  0  0  0  0
    1.7657   24.4796  -27.7093 H   0  0  0  0  0  0  0  0  0  0  0  0
    3.2185   27.2055  -26.7459 H   0  0  0  0  0  0  0  0  0  0  0  0
    2.3180   27.4913  -27.9816 H   0  0  0  0  0  0  0  0  0  0  0  0
  1  2  1  0
  2  3  2  0
  3  4  1  0
  4  5  2  0
  5  6  1  0
  6  7  1  0
  7  8  2  0
  7  9  1  0
  9 10  1  0
 10 11  2  0
 11 12  1  0
 12 13  2  0
 13 14  1  0
 14 15  2  0
 14 16  1  0
 16 17  1  0
 17 18  1  0
 17 19  1  0
 19 20  1  0
  5 21  1  0
 21 22  1  0
 21 23  2  0
 23 24  1  0
 24 25  2  0
 24 26  2  0
 24 27  1  0
 27 28  1  0
 28 29  1  0
 23  2  1  0
 29 27  1  0
 15 10  1  0
 20 13  1  0
  1 30  1  0
  1 31  1  0
  1 32  1  0
  3 33  1  0
  4 34  1  0
  6 35  1  0
 11 36  1  0
 12 37  1  0
 15 38  1  0
 16 39  1  0
 16 40  1  0
 18 41  1  0
 18 42  1  0
 18 43  1  0
 19 44  1  0
 19 45  1  0
 20 46  1  0
 20 47  1  0
 27 48  1  0
 28 49  1  0
 28 50  1  0
 29 51  1  0
 29 52  1  0
M  CHG  2   9  -1  22  -1
M  END
>  <UniqueID>  (39) 
37

>  <SMILES>  (39) 
Cc1ccc(NC(=O)[N-]c2ccc3c(c2)CN(C)CC3)c([O-])c1S(=O)(=O)C1CC1

>  <Energy>  (39) 
335.7239894578758

>  <Genealogy>  (39) 
Cc1ccc(NC(=O)[N-]c2ccc3c(c2)CN(C)CC3)c([O-])c1S(=O)(=O)C1CC1 (protonated)
Cc1ccc(NC(=O)[N-]c2ccc3c(c2)CN(C)CC3)c([O-])c1S(=O)(=O)C1CC1 (3D coordinates assigned)
Cc1ccc(NC(=O)[N-]c2ccc3c(c2)CN(C)CC3)c([O-])c1S(=O)(=O)C1CC1 (nonaromatic ring conformer: 335.7239894578758 kcal/mol)

>  <smiles>  (39) 
Cc1ccc(NC(=O)Nc2ccc3c(c2)CN(C)CC3)c(O)c1S(=O)(=O)C1CC1

>  <score_type>  (39) 
oracle

>  <origin>  (39) 
adgpu

>  <m_score__min__energy>  (39) 
-14.09

>  <m_primary>  (39) 
energy

$$$$
39:0
     RDKit          3D

 52 55  0  0  0  0  0  0  0  0999 V2000
   -2.8370   25.6510  -25.9470 C   0  0  0  0  0  0  0  0  0  0  0  0
   -1.7020   24.7160  -25.9920 N   0  0  0  0  0  0  0  0  0  0  0  0
   -0.6780   24.7920  -24.9400 C   0  0  0  0  0  0  0  0  0  0  0  0
   -1.5980   23.7340  -27.0550 C   0  0  0  0  0  0  0  0  0  0  0  0
   -0.7810   22.5940  -26.9120 C   0  0  0  0  0  0  0  0  0  0  0  0
   -0.6670   21.6560  -27.9400 C   0  0  0  0  0  0  0  0  0  0  0  0
   -1.3580   21.8370  -29.1430 C   0  0  0  0  0  0  0  0  0  0  0  0
   -1.2100   20.9150  -30.1910 C   0  0  0  0  0  0  0  0  0  0  0  0
   -1.8750   21.1160  -31.4030 C   0  0  0  0  0  0  0  0  0  0  0  0
   -2.6790   22.2430  -31.5840 C   0  0  0  0  0  0  0  0  0  0  0  0
   -2.8430   23.1740  -30.5480 C   0  0  0  0  0  0  0  0  0  0  0  0
   -3.5500   24.3900  -30.8090 N   0  0  0  0  0  0  0  0  0  0  0  0
   -5.1630   24.6100  -30.2110 S   0  0  0  0  0  0  0  0  0  0  0  0
   -5.6060   26.0230  -30.4720 O   0  0  0  0  0  0  0  0  0  0  0  0
   -5.1890   24.3440  -28.7310 O   0  0  0  0  0  0  0  0  0  0  0  0
   -6.2450   23.5060  -31.0590 C   0  0  0  0  0  0  0  0  0  0  0  0
   -7.6070   23.7850  -31.1750 C   0  0  0  0  0  0  0  0  0  0  0  0
   -8.4710   22.8280  -31.7060 C   0  0  0  0  0  0  0  0  0  0  0  0
   -8.0020   21.5670  -32.0970 C   0  0  0  0  0  0  0  0  0  0  0  0
   -6.6130   21.2750  -31.9890 C   0  0  0  0  0  0  0  0  0  0  0  0
   -5.7530   22.2750  -31.4990 C   0  0  0  0  0  0  0  0  0  0  0  0
   -6.0580   19.9810  -32.3180 N   0  0  0  0  0  0  0  0  0  0  0  0
   -4.6520   19.8670  -32.7160 C   0  0  0  0  0  0  0  0  0  0  0  0
   -6.7610   18.7730  -31.9800 C   0  0  0  0  0  0  0  0  0  0  0  0
   -6.2700   17.9750  -31.1330 O   0  0  0  0  0  0  0  0  0  0  0  0
   -8.0570   18.4230  -32.6390 C   0  0  0  0  0  0  0  0  0  0  0  0
   -9.1700   19.3290  -32.1280 C   0  0  0  0  0  0  0  0  0  0  0  0
   -8.9670   20.6640  -32.5720 O   0  0  0  0  0  0  0  0  0  0  0  0
   -2.1890   22.9720  -29.3100 C   0  0  0  0  0  0  0  0  0  0  0  0
   -2.3030   23.9040  -28.2610 C   0  0  0  0  0  0  0  0  0  0  0  0
   -3.0954   25.8639  -24.8992 H   0  0  0  0  0  0  0  0  0  0  0  0
   -2.5611   26.5873  -26.4541 H   0  0  0  0  0  0  0  0  0  0  0  0
   -3.7032   25.2009  -26.4541 H   0  0  0  0  0  0  0  0  0  0  0  0
   -1.1627   24.7560  -23.9532 H   0  0  0  0  0  0  0  0  0  0  0  0
    0.0140   23.9427  -25.0398 H   0  0  0  0  0  0  0  0  0  0  0  0
   -0.1190   25.7341  -25.0398 H   0  0  0  0  0  0  0  0  0  0  0  0
   -0.2244   22.4410  -25.9756 H   0  0  0  0  0  0  0  0  0  0  0  0
   -0.0302   20.7696  -27.8032 H   0  0  0  0  0  0  0  0  0  0  0  0
   -0.5684   20.0315  -30.0575 H   0  0  0  0  0  0  0  0  0  0  0  0
   -1.7649   20.3843  -32.2170 H   0  0  0  0  0  0  0  0  0  0  0  0
   -3.1876   22.4019  -32.5463 H   0  0  0  0  0  0  0  0  0  0  0  0
   -7.9990   24.7593  -30.8478 H   0  0  0  0  0  0  0  0  0  0  0  0
   -9.5387   23.0671  -31.8198 H   0  0  0  0  0  0  0  0  0  0  0  0
   -4.6705   22.0833  -31.4616 H   0  0  0  0  0  0  0  0  0  0  0  0
   -4.0196   19.8157  -31.8174 H   0  0  0  0  0  0  0  0  0  0  0  0
   -4.5132   18.9547  -33.3146 H   0  0  0  0  0  0  0  0  0  0  0  0
   -4.3680   20.7451  -33.3146 H   0  0  0  0  0  0  0  0  0  0  0  0
   -7.9568   18.5492  -33.7271 H   0  0  0  0  0  0  0  0  0  0  0  0
   -8.3084   17.3784  -32.4031 H   0  0  0  0  0  0  0  0  0  0  0  0
  -10.1363   18.9644  -32.5065 H   0  0  0  0  0  0  0  0  0  0  0  0
   -9.1644   19.3146  -31.0281 H   0  0  0  0  0  0  0  0  0  0  0  0
   -2.9550   24.7810  -28.3863 H   0  0  0  0  0  0  0  0  0  0  0  0
  1  2  1  0
  2  3  1  0
  2  4  1  0
  4  5  2  0
  5  6  1  0
  6  7  2  0
  7  8  1  0
  8  9  2  0
  9 10  1  0
 10 11  2  0
 11 12  1  0
 12 13  1  0
 13 14  2  0
 13 15  2  0
 13 16  1  0
 16 17  2  0
 17 18  1  0
 18 19  2  0
 19 20  1  0
 20 21  2  0
 20 22  1  0
 22 23  1  0
 22 24  1  0
 24 25  2  0
 24 26  1  0
 26 27  1  0
 27 28  1  0
 11 29  1  0
 29 30  2  0
 30  4  1  0
 29  7  1  0
 21 16  1  0
 28 19  1  0
  1 31  1  0
  1 32  1  0
  1 33  1  0
  3 34  1  0
  3 35  1  0
  3 36  1  0
  5 37  1  0
  6 38  1  0
  8 39  1  0
  9 40  1  0
 10 41  1  0
 17 42  1  0
 18 43  1  0
 21 44  1  0
 23 45  1  0
 23 46  1  0
 23 47  1  0
 26 48  1  0
 26 49  1  0
 27 50  1  0
 27 51  1  0
 30 52  1  0
M  CHG  1  12  -1
M  END
>  <UniqueID>  (40) 
38

>  <SMILES>  (40) 
CN(C)c1ccc2cccc([N-]S(=O)(=O)c3ccc4c(c3)N(C)C(=O)CCO4)c2c1

>  <Energy>  (40) 
77.0890884811712

>  <Genealogy>  (40) 
CN(C)c1ccc2cccc([N-]S(=O)(=O)c3ccc4c(c3)N(C)C(=O)CCO4)c2c1 (protonated)
CN(C)c1ccc2cccc([N-]S(=O)(=O)c3ccc4c(c3)N(C)C(=O)CCO4)c2c1 (3D coordinates assigned)
CN(C)c1ccc2cccc([N-]S(=O)(=O)c3ccc4c(c3)N(C)C(=O)CCO4)c2c1 (nonaromatic ring conformer: 77.0890884811712 kcal/mol)

>  <smiles>  (40) 
CN(C)c1ccc2cccc(NS(=O)(=O)c3ccc4c(c3)N(C)C(=O)CCO4)c2c1

>  <score_type>  (40) 
oracle

>  <origin>  (40) 
adgpu

>  <m_score__min__energy>  (40) 
-8.75

>  <m_primary>  (40) 
energy

$$$$
40:0
     RDKit          3D

 49 51  0  0  0  0  0  0  0  0999 V2000
   -5.3745   25.7283  -29.3393 H   0  0  0  0  0  0  0  0  0  0  0  0
   -5.2340   24.8010  -29.9140 C   0  0  0  0  0  0  0  0  0  0  0  0
   -6.3430   24.1310  -30.4390 C   0  0  0  0  0  0  0  0  0  0  0  0
   -7.3513   24.5459  -30.2932 H   0  0  0  0  0  0  0  0  0  0  0  0
   -6.1790   22.9340  -31.1500 C   0  0  0  0  0  0  0  0  0  0  0  0
   -7.5970   22.1090  -31.7980 S   0  0  0  0  0  0  0  0  0  0  0  0
   -8.6350   23.1150  -32.2080 O   0  0  0  0  0  0  0  0  0  0  0  0
   -8.1780   21.2330  -30.7240 O   0  0  0  0  0  0  0  0  0  0  0  0
   -7.1840   21.0910  -33.1460 N   0  0  0  0  0  0  0  0  0  0  0  0
   -6.7590   19.8660  -33.0630 C   0  0  0  0  0  0  0  0  0  0  0  0
   -6.4510   19.1290  -34.1460 N   0  0  0  0  0  0  0  0  0  0  0  0
   -6.0810   17.9610  -33.7070 O   0  0  0  0  0  0  0  0  0  0  0  0
   -6.1390   17.9100  -32.3960 C   0  0  0  0  0  0  0  0  0  0  0  0
   -5.7750   16.7160  -31.5790 C   0  0  0  0  0  0  0  0  0  0  0  0
   -5.8512   16.9658  -30.5105 H   0  0  0  0  0  0  0  0  0  0  0  0
   -6.4618   15.8890  -31.8121 H   0  0  0  0  0  0  0  0  0  0  0  0
   -4.7436   16.4128  -31.8121 H   0  0  0  0  0  0  0  0  0  0  0  0
   -6.5710   19.1260  -31.9090 C   0  0  0  0  0  0  0  0  0  0  0  0
   -6.7271   19.4314  -30.8638 H   0  0  0  0  0  0  0  0  0  0  0  0
   -4.8870   22.4200  -31.3400 C   0  0  0  0  0  0  0  0  0  0  0  0
   -4.7462   21.4874  -31.9061 H   0  0  0  0  0  0  0  0  0  0  0  0
   -3.7790   23.0880  -30.8130 C   0  0  0  0  0  0  0  0  0  0  0  0
   -2.7727   22.6638  -30.9448 H   0  0  0  0  0  0  0  0  0  0  0  0
   -3.9390   24.2920  -30.1190 C   0  0  0  0  0  0  0  0  0  0  0  0
   -2.7810   24.9270  -29.5590 N   0  0  0  0  0  0  0  0  0  0  0  0
   -2.2580   24.7010  -28.2460 C   0  0  0  0  0  0  0  0  0  0  0  0
   -2.9830   24.8650  -27.2280 O   0  0  0  0  0  0  0  0  0  0  0  0
   -0.8420   24.2510  -28.0830 C   0  0  0  0  0  0  0  0  0  0  0  0
   -0.4527   24.6075  -27.1180 H   0  0  0  0  0  0  0  0  0  0  0  0
   -0.2302   24.6621  -28.8995 H   0  0  0  0  0  0  0  0  0  0  0  0
   -0.7860   22.7480  -28.1220 C   0  0  0  0  0  0  0  0  0  0  0  0
   -0.3890   22.0850  -29.2910 C   0  0  0  0  0  0  0  0  0  0  0  0
   -0.0692   22.6669  -30.1680 H   0  0  0  0  0  0  0  0  0  0  0  0
   -0.3970   20.6900  -29.3490 C   0  0  0  0  0  0  0  0  0  0  0  0
   -0.0715   20.1783  -30.2667 H   0  0  0  0  0  0  0  0  0  0  0  0
   -0.8210   19.9330  -28.2350 C   0  0  0  0  0  0  0  0  0  0  0  0
   -0.8480   18.5300  -28.2560 O   0  0  0  0  0  0  0  0  0  0  0  0
    0.2250   17.6970  -27.8320 C   0  0  0  0  0  0  0  0  0  0  0  0
    0.2574   17.6719  -26.7328 H   0  0  0  0  0  0  0  0  0  0  0  0
    0.0728   16.6782  -28.2177 H   0  0  0  0  0  0  0  0  0  0  0  0
    1.1743   18.0971  -28.2177 H   0  0  0  0  0  0  0  0  0  0  0  0
   -1.2320   20.5900  -27.0650 C   0  0  0  0  0  0  0  0  0  0  0  0
   -1.6630   19.8120  -25.9800 O   0  0  0  0  0  0  0  0  0  0  0  0
   -2.7930   18.9440  -26.0090 C   0  0  0  0  0  0  0  0  0  0  0  0
   -3.1005   18.7078  -24.9796 H   0  0  0  0  0  0  0  0  0  0  0  0
   -3.6225   19.4394  -26.5349 H   0  0  0  0  0  0  0  0  0  0  0  0
   -2.5282   18.0148  -26.5349 H   0  0  0  0  0  0  0  0  0  0  0  0
   -1.2090   21.9980  -27.0130 C   0  0  0  0  0  0  0  0  0  0  0  0
   -1.5255   22.5144  -26.0948 H   0  0  0  0  0  0  0  0  0  0  0  0
  1  2  1  0
  2  3  2  0
  3  4  1  0
  3  5  1  0
  5  6  1  0
  6  7  2  0
  6  8  2  0
  6  9  1  0
  9 10  2  0
 10 11  1  0
 11 12  1  0
 12 13  1  0
 13 14  1  0
 14 15  1  0
 14 16  1  0
 14 17  1  0
 13 18  2  0
 18 19  1  0
  5 20  2  0
 20 21  1  0
 20 22  1  0
 22 23  1  0
 22 24  2  0
 24 25  1  0
 25 26  1  0
 26 27  2  0
 26 28  1  0
 28 29  1  0
 28 30  1  0
 28 31  1  0
 31 32  2  0
 32 33  1  0
 32 34  1  0
 34 35  1  0
 34 36  2  0
 36 37  1  0
 37 38  1  0
 38 39  1  0
 38 40  1  0
 38 41  1  0
 36 42  1  0
 42 43  1  0
 43 44  1  0
 44 45  1  0
 44 46  1  0
 44 47  1  0
 42 48  2  0
 48 49  1  0
 24  2  1  0
 48 31  1  0
 18 10  1  0
M  CHG  2  11  -1  25  -1
M  END
>  <UniqueID>  (41) 
39

>  <SMILES>  (41) 
COc1ccc(CC(=O)[N-]c2ccc(S(=O)(=O)/N=c3\cc(C)o[n-]3)cc2)cc1OC

>  <Energy>  (41) 
85.96035233270523

>  <Genealogy>  (41) 
COc1ccc(CC(=O)[N-]c2ccc(S(=O)(=O)N=c3cc(C)o[n-]3)cc2)cc1OC (protonated)
COc1ccc(CC(=O)[N-]c2ccc(S(=O)(=O)/N=c3\cc(C)o[n-]3)cc2)cc1OC (cis-trans isomerization)
COc1ccc(CC(=O)[N-]c2ccc(S(=O)(=O)/N=c3\cc(C)o[n-]3)cc2)cc1OC (3D coordinates assigned)
COc1ccc(CC(=O)[N-]c2ccc(S(=O)(=O)/N=c3\cc(C)o[n-]3)cc2)cc1OC (optimized conformer: 85.96035233270523 kcal/mol)

>  <smiles>  (41) 
COc1ccc(CC(=O)Nc2ccc(S(=O)(=O)N=c3cc(C)o[nH]3)cc2)cc1OC

>  <score_type>  (41) 
oracle

>  <origin>  (41) 
adgpu

>  <m_score__min__energy>  (41) 
-10.43

>  <m_primary>  (41) 
energy

$$$$
41:0
     RDKit          3D

 57 60  0  0  0  0  0  0  0  0999 V2000
   -6.3350   16.5690  -33.2020 C   0  0  0  0  0  0  0  0  0  0  0  0
   -6.4750   17.9340  -33.7980 C   0  0  0  0  0  0  0  0  0  0  0  0
   -6.0720   18.1400  -34.9750 O   0  0  0  0  0  0  0  0  0  0  0  0
   -6.9740   19.0300  -33.0180 N   0  0  0  0  0  0  0  0  0  0  0  0
   -8.4140   19.0250  -32.7140 C   0  0  0  0  0  0  0  0  0  0  0  0
   -8.7510   19.9490  -31.5400 C   0  0  0  0  0  0  0  0  0  0  0  0
   -8.2140   21.3530  -31.8020 C   0  0  0  0  0  0  0  0  0  0  0  0
   -6.7310   21.3090  -32.0660 C   0  0  0  0  0  0  0  0  0  0  0  0
   -5.9360   22.4070  -31.7100 C   0  0  0  0  0  0  0  0  0  0  0  0
   -4.5540   22.3860  -31.9190 C   0  0  0  0  0  0  0  0  0  0  0  0
   -3.7750   23.4890  -31.4370 N   0  0  0  0  0  0  0  0  0  0  0  0
   -4.1510   24.4600  -30.0330 S   0  0  0  0  0  0  0  0  0  0  0  0
   -4.2400   25.9130  -30.4510 O   0  0  0  0  0  0  0  0  0  0  0  0
   -5.4770   24.0210  -29.4690 O   0  0  0  0  0  0  0  0  0  0  0  0
   -2.9390   24.2500  -28.7720 C   0  0  0  0  0  0  0  0  0  0  0  0
   -3.3150   24.2260  -27.4210 C   0  0  0  0  0  0  0  0  0  0  0  0
   -2.3370   24.1670  -26.4230 C   0  0  0  0  0  0  0  0  0  0  0  0
   -0.9750   24.1500  -26.7630 C   0  0  0  0  0  0  0  0  0  0  0  0
    0.2580   24.1630  -25.4960 S   0  0  0  0  0  0  0  0  0  0  0  0
    0.2850   22.8180  -24.8300 O   0  0  0  0  0  0  0  0  0  0  0  0
    1.6030   24.4010  -26.1180 O   0  0  0  0  0  0  0  0  0  0  0  0
   -0.0490   25.4030  -24.2990 N   0  0  0  0  0  0  0  0  0  0  0  0
   -1.2430   26.2150  -24.6410 C   0  0  0  0  0  0  0  0  0  0  0  0
   -0.8640   27.6150  -25.1560 C   0  0  0  0  0  0  0  0  0  0  0  0
   -0.1100   28.3630  -24.2080 O   0  0  0  0  0  0  0  0  0  0  0  0
    0.8000   27.5710  -23.4440 C   0  0  0  0  0  0  0  0  0  0  0  0
    1.1610   26.2260  -24.0960 C   0  0  0  0  0  0  0  0  0  0  0  0
   -0.6040   24.1330  -28.1150 C   0  0  0  0  0  0  0  0  0  0  0  0
   -1.5820   24.1720  -29.1130 C   0  0  0  0  0  0  0  0  0  0  0  0
   -3.9730   21.2820  -32.5660 C   0  0  0  0  0  0  0  0  0  0  0  0
   -4.7570   20.1820  -32.9290 C   0  0  0  0  0  0  0  0  0  0  0  0
   -6.1490   20.1810  -32.6930 C   0  0  0  0  0  0  0  0  0  0  0  0
   -6.3428   16.6455  -32.1047 H   0  0  0  0  0  0  0  0  0  0  0  0
   -7.1731   15.9373  -33.5315 H   0  0  0  0  0  0  0  0  0  0  0  0
   -5.3862   16.1206  -33.5315 H   0  0  0  0  0  0  0  0  0  0  0  0
   -8.9667   19.3629  -33.6030 H   0  0  0  0  0  0  0  0  0  0  0  0
   -8.7010   18.0002  -32.4357 H   0  0  0  0  0  0  0  0  0  0  0  0
   -9.8430   19.9951  -31.4160 H   0  0  0  0  0  0  0  0  0  0  0  0
   -8.2852   19.5518  -30.6261 H   0  0  0  0  0  0  0  0  0  0  0  0
   -8.7253   21.7787  -32.6780 H   0  0  0  0  0  0  0  0  0  0  0  0
   -8.3996   21.9766  -30.9150 H   0  0  0  0  0  0  0  0  0  0  0  0
   -6.4048   23.2951  -31.2611 H   0  0  0  0  0  0  0  0  0  0  0  0
   -4.3798   24.2536  -27.1462 H   0  0  0  0  0  0  0  0  0  0  0  0
   -2.6368   24.1337  -25.3652 H   0  0  0  0  0  0  0  0  0  0  0  0
   -0.2460   24.9060  -23.3990 H   0  0  0  0  0  0  0  0  0  0  0  0
   -1.8150   25.6928  -25.4221 H   0  0  0  0  0  0  0  0  0  0  0  0
   -1.8398   26.3413  -23.7256 H   0  0  0  0  0  0  0  0  0  0  0  0
   -0.2656   27.5030  -26.0722 H   0  0  0  0  0  0  0  0  0  0  0  0
   -1.7983   28.1639  -25.3453 H   0  0  0  0  0  0  0  0  0  0  0  0
    1.7266   28.1472  -23.3045 H   0  0  0  0  0  0  0  0  0  0  0  0
    0.2976   27.3383  -22.4935 H   0  0  0  0  0  0  0  0  0  0  0  0
    1.6381   26.4130  -25.0694 H   0  0  0  0  0  0  0  0  0  0  0  0
    1.8500   25.6842  -23.4313 H   0  0  0  0  0  0  0  0  0  0  0  0
    0.4598   24.0888  -28.3912 H   0  0  0  0  0  0  0  0  0  0  0  0
   -1.2848   24.1413  -30.1717 H   0  0  0  0  0  0  0  0  0  0  0  0
   -2.8957   21.2829  -32.7882 H   0  0  0  0  0  0  0  0  0  0  0  0
   -4.2844   19.3091  -33.4030 H   0  0  0  0  0  0  0  0  0  0  0  0
  1  2  1  0
  2  3  2  0
  2  4  1  0
  4  5  1  0
  5  6  1  0
  6  7  1  0
  7  8  1  0
  8  9  2  0
  9 10  1  0
 10 11  1  0
 11 12  1  0
 12 13  2  0
 12 14  2  0
 12 15  1  0
 15 16  2  0
 16 17  1  0
 17 18  2  0
 18 19  1  0
 19 20  2  0
 19 21  2  0
 19 22  1  0
 22 23  1  0
 23 24  1  0
 24 25  1  0
 25 26  1  0
 26 27  1  0
 18 28  1  0
 28 29  2  0
 10 30  2  0
 30 31  1  0
 31 32  2  0
 32  4  1  0
 32  8  1  0
 29 15  1  0
 27 22  1  0
  1 33  1  0
  1 34  1  0
  1 35  1  0
  5 36  1  0
  5 37  1  0
  6 38  1  0
  6 39  1  0
  7 40  1  0
  7 41  1  0
  9 42  1  0
 16 43  1  0
 17 44  1  0
 22 45  1  0
 23 46  1  0
 23 47  1  0
 24 48  1  0
 24 49  1  0
 26 50  1  0
 26 51  1  0
 27 52  1  0
 27 53  1  0
 28 54  1  0
 29 55  1  0
 30 56  1  0
 31 57  1  0
M  CHG  2  11  -1  22   1
M  END
>  <UniqueID>  (42) 
40

>  <SMILES>  (42) 
CC(=O)N1CCCc2cc([N-]S(=O)(=O)c3ccc(S(=O)(=O)[NH+]4CCOCC4)cc3)ccc21

>  <Energy>  (42) 
79.86540993138213

>  <Genealogy>  (42) 
CC(=O)N1CCCc2cc([N-]S(=O)(=O)c3ccc(S(=O)(=O)[NH+]4CCOCC4)cc3)ccc21 (protonated)
CC(=O)N1CCCc2cc([N-]S(=O)(=O)c3ccc(S(=O)(=O)[NH+]4CCOCC4)cc3)ccc21 (3D coordinates assigned)
CC(=O)N1CCCc2cc([N-]S(=O)(=O)c3ccc(S(=O)(=O)[NH+]4CCOCC4)cc3)ccc21 (nonaromatic ring conformer: 79.86540993138213 kcal/mol)

>  <smiles>  (42) 
CC(=O)N1CCCc2cc(NS(=O)(=O)c3ccc(S(=O)(=O)N4CCOCC4)cc3)ccc21

>  <score_type>  (42) 
oracle

>  <origin>  (42) 
adgpu

>  <m_score__min__energy>  (42) 
-11.550000000000001

>  <m_primary>  (42) 
energy

$$$$
42:0
     RDKit          3D

 38 40  0  0  0  0  0  0  0  0999 V2000
   -4.2420   25.6550  -30.7850 N   0  0  0  0  0  0  0  0  0  0  0  0
   -5.1440   24.7470  -30.6330 C   0  0  0  0  0  0  0  0  0  0  0  0
   -5.4800   23.7270  -31.4550 N   0  0  0  0  0  0  0  0  0  0  0  0
   -6.4810   23.0100  -30.9120 C   0  0  0  0  0  0  0  0  0  0  0  0
   -7.1300   21.8330  -31.4770 C   0  0  0  0  0  0  0  0  0  0  0  0
   -8.4630   21.6160  -31.1890 C   0  0  0  0  0  0  0  0  0  0  0  0
   -9.0900   20.4960  -31.7230 C   0  0  0  0  0  0  0  0  0  0  0  0
   -8.3510   19.6430  -32.5240 C   0  0  0  0  0  0  0  0  0  0  0  0
   -7.0180   19.8570  -32.8160 C   0  0  0  0  0  0  0  0  0  0  0  0
   -6.0840   18.7780  -33.8300 S   0  0  0  0  0  0  0  0  0  0  0  0
   -6.6700   17.3850  -33.8220 O   0  0  0  0  0  0  0  0  0  0  0  0
   -6.1350   19.2390  -35.2520 O   0  0  0  0  0  0  0  0  0  0  0  0
   -4.4490   18.6350  -33.3300 N   0  0  0  0  0  0  0  0  0  0  0  0
   -3.8010   17.6160  -34.1170 C   0  0  0  0  0  0  0  0  0  0  0  0
   -2.4310   17.2720  -33.6290 C   0  0  0  0  0  0  0  0  0  0  0  0
   -1.7910   18.4440  -32.9080 C   0  0  0  0  0  0  0  0  0  0  0  0
   -2.2580   19.6890  -33.6520 C   0  0  0  0  0  0  0  0  0  0  0  0
   -3.7400   19.8850  -33.5270 C   0  0  0  0  0  0  0  0  0  0  0  0
   -6.3940   20.9860  -32.2740 C   0  0  0  0  0  0  0  0  0  0  0  0
   -6.7600   23.6030  -29.7380 N   0  0  0  0  0  0  0  0  0  0  0  0
   -5.9620   24.6510  -29.5570 N   0  0  0  0  0  0  0  0  0  0  0  0
   -3.6440   25.6750  -31.6370 H   0  0  0  0  0  0  0  0  0  0  0  0
   -9.0187   22.3167  -30.5486 H   0  0  0  0  0  0  0  0  0  0  0  0
  -10.1504   20.2922  -31.5134 H   0  0  0  0  0  0  0  0  0  0  0  0
   -8.8465   18.7564  -32.9463 H   0  0  0  0  0  0  0  0  0  0  0  0
   -4.4199   16.7071  -34.0886 H   0  0  0  0  0  0  0  0  0  0  0  0
   -3.6926   18.0129  -35.1371 H   0  0  0  0  0  0  0  0  0  0  0  0
   -2.5009   16.4203  -32.9364 H   0  0  0  0  0  0  0  0  0  0  0  0
   -1.8071   17.0171  -34.4983 H   0  0  0  0  0  0  0  0  0  0  0  0
   -2.1221   18.4767  -31.8595 H   0  0  0  0  0  0  0  0  0  0  0  0
   -0.6939   18.3645  -32.8971 H   0  0  0  0  0  0  0  0  0  0  0  0
   -1.7454   20.5678  -33.2338 H   0  0  0  0  0  0  0  0  0  0  0  0
   -2.0168   19.5630  -34.7178 H   0  0  0  0  0  0  0  0  0  0  0  0
   -3.9380   20.5425  -32.6677 H   0  0  0  0  0  0  0  0  0  0  0  0
   -4.0996   20.3298  -34.4666 H   0  0  0  0  0  0  0  0  0  0  0  0
   -5.3337   21.1930  -32.4813 H   0  0  0  0  0  0  0  0  0  0  0  0
   -7.4870   23.3290  -29.0240 H   0  0  0  0  0  0  0  0  0  0  0  0
   -5.9590   25.2970  -28.7300 H   0  0  0  0  0  0  0  0  0  0  0  0
  1  2  2  3
  2  3  1  0
  3  4  2  0
  4  5  1  0
  5  6  2  0
  6  7  1  0
  7  8  2  0
  8  9  1  0
  9 10  1  0
 10 11  2  0
 10 12  2  0
 10 13  1  0
 13 14  1  0
 14 15  1  0
 15 16  1  0
 16 17  1  0
 17 18  1  0
  9 19  2  0
  4 20  1  0
 20 21  1  0
 21  2  1  0
 19  5  1  0
 18 13  1  0
  1 22  1  0
  6 23  1  0
  7 24  1  0
  8 25  1  0
 14 26  1  0
 14 27  1  0
 15 28  1  0
 15 29  1  0
 16 30  1  0
 16 31  1  0
 17 32  1  0
 17 33  1  0
 18 34  1  0
 18 35  1  0
 19 36  1  0
 20 37  1  0
 21 38  1  0
M  END
>  <smiles>  (43) 
N=c1nc(-c2cccc(S(=O)(=O)N3CCCCC3)c2)[nH][nH]1

>  <score_type>  (43) 
oracle

>  <origin>  (43) 
adgpu

>  <m_score__min__energy>  (43) 
-9.2400000000000002

>  <m_primary>  (43) 
energy

$$$$
43:0
     RDKit          3D

 59 63  0  0  0  0  0  0  0  0999 V2000
    1.3630   19.9330  -35.3900 N   0  0  0  0  0  0  0  0  0  0  0  0
    0.5530   20.2820  -34.2630 C   0  0  0  0  0  0  0  0  0  0  0  0
    1.0660   20.1720  -32.9630 C   0  0  0  0  0  0  0  0  0  0  0  0
    0.2880   20.4850  -31.8940 N   0  0  0  0  0  0  0  0  0  0  0  0
   -0.9940   20.9150  -32.0400 C   0  0  0  0  0  0  0  0  0  0  0  0
   -1.7620   21.2240  -30.9150 C   0  0  0  0  0  0  0  0  0  0  0  0
   -3.0820   21.6610  -31.0660 C   0  0  0  0  0  0  0  0  0  0  0  0
   -4.0850   22.0100  -29.6170 S   0  0  0  0  0  0  0  0  0  0  0  0
   -5.5030   22.5150  -30.6060 C   0  0  0  0  0  0  0  0  0  0  0  0
   -6.3490   21.5140  -31.1010 C   0  0  0  0  0  0  0  0  0  0  0  0
   -7.3940   21.8360  -31.9670 C   0  0  0  0  0  0  0  0  0  0  0  0
   -7.6080   23.1630  -32.3430 C   0  0  0  0  0  0  0  0  0  0  0  0
   -6.7830   24.1730  -31.8440 C   0  0  0  0  0  0  0  0  0  0  0  0
   -5.7360   23.8670  -30.9590 C   0  0  0  0  0  0  0  0  0  0  0  0
   -4.8970   24.9750  -30.4460 C   0  0  0  0  0  0  0  0  0  0  0  0
   -5.4510   26.0480  -30.0970 O   0  0  0  0  0  0  0  0  0  0  0  0
   -3.4680   24.8820  -30.3590 N   0  0  0  0  0  0  0  0  0  0  0  0
   -2.6950   24.5520  -29.1960 C   0  0  0  0  0  0  0  0  0  0  0  0
   -3.2620   24.5080  -27.9110 C   0  0  0  0  0  0  0  0  0  0  0  0
   -2.4630   24.2280  -26.7980 C   0  0  0  0  0  0  0  0  0  0  0  0
   -1.0890   24.0050  -26.9530 C   0  0  0  0  0  0  0  0  0  0  0  0
   -0.0660   23.7270  -25.5390 S   0  0  0  0  0  0  0  0  0  0  0  0
   -0.5480   22.4930  -24.8250 O   0  0  0  0  0  0  0  0  0  0  0  0
    1.3460   23.4770  -25.9950 O   0  0  0  0  0  0  0  0  0  0  0  0
   -0.0720   25.0710  -24.4240 N   0  0  0  0  0  0  0  0  0  0  0  0
    1.1110   25.9220  -24.5690 C   0  0  0  0  0  0  0  0  0  0  0  0
    0.7120   27.3100  -24.0820 C   0  0  0  0  0  0  0  0  0  0  0  0
   -0.8120   27.3190  -24.0830 C   0  0  0  0  0  0  0  0  0  0  0  0
   -1.2230   25.9560  -24.6170 C   0  0  0  0  0  0  0  0  0  0  0  0
   -0.5220   24.0670  -28.2330 C   0  0  0  0  0  0  0  0  0  0  0  0
   -1.3200   24.3430  -29.3460 C   0  0  0  0  0  0  0  0  0  0  0  0
   -3.6290   21.8150  -32.3470 C   0  0  0  0  0  0  0  0  0  0  0  0
   -2.8660   21.5100  -33.4780 C   0  0  0  0  0  0  0  0  0  0  0  0
   -1.5470   21.0540  -33.3320 C   0  0  0  0  0  0  0  0  0  0  0  0
   -0.7610   20.7290  -34.4450 C   0  0  0  0  0  0  0  0  0  0  0  0
    2.3790   20.1720  -35.4110 H   0  0  0  0  0  0  0  0  0  0  0  0
    0.9580   19.4140  -36.2010 H   0  0  0  0  0  0  0  0  0  0  0  0
    2.1005   19.8316  -32.8081 H   0  0  0  0  0  0  0  0  0  0  0  0
   -1.3282   21.1235  -29.9092 H   0  0  0  0  0  0  0  0  0  0  0  0
   -6.1881   20.4670  -30.8047 H   0  0  0  0  0  0  0  0  0  0  0  0
   -8.0505   21.0428  -32.3542 H   0  0  0  0  0  0  0  0  0  0  0  0
   -8.4273   23.4134  -33.0330 H   0  0  0  0  0  0  0  0  0  0  0  0
   -6.9544   25.2167  -32.1464 H   0  0  0  0  0  0  0  0  0  0  0  0
   -4.3382   24.6945  -27.7801 H   0  0  0  0  0  0  0  0  0  0  0  0
   -2.9156   24.1827  -25.7964 H   0  0  0  0  0  0  0  0  0  0  0  0
   -0.0990   24.6860  -23.4490 H   0  0  0  0  0  0  0  0  0  0  0  0
    1.9380   25.5292  -23.9593 H   0  0  0  0  0  0  0  0  0  0  0  0
    1.4524   25.9516  -25.6143 H   0  0  0  0  0  0  0  0  0  0  0  0
    1.0969   27.4866  -23.0668 H   0  0  0  0  0  0  0  0  0  0  0  0
    1.1253   28.1022  -24.7236 H   0  0  0  0  0  0  0  0  0  0  0  0
   -1.1968   27.4648  -23.0628 H   0  0  0  0  0  0  0  0  0  0  0  0
   -1.2160   28.1377  -24.6965 H   0  0  0  0  0  0  0  0  0  0  0  0
   -2.0924   25.5759  -24.0605 H   0  0  0  0  0  0  0  0  0  0  0  0
   -1.5081   26.0132  -25.6779 H   0  0  0  0  0  0  0  0  0  0  0  0
    0.5572   23.8974  -28.3621 H   0  0  0  0  0  0  0  0  0  0  0  0
   -0.8646   24.3963  -30.3459 H   0  0  0  0  0  0  0  0  0  0  0  0
   -4.6613   22.1768  -32.4629 H   0  0  0  0  0  0  0  0  0  0  0  0
   -3.2995   21.6274  -34.4821 H   0  0  0  0  0  0  0  0  0  0  0  0
   -1.1753   20.8248  -35.4595 H   0  0  0  0  0  0  0  0  0  0  0  0
  1  2  1  0
  2  3  2  0
  3  4  1  0
  4  5  2  0
  5  6  1  0
  6  7  2  0
  7  8  1  0
  8  9  1  0
  9 10  2  0
 10 11  1  0
 11 12  2  0
 12 13  1  0
 13 14  2  0
 14 15  1  0
 15 16  2  0
 15 17  1  0
 17 18  1  0
 18 19  2  0
 19 20  1  0
 20 21  2  0
 21 22  1  0
 22 23  2  0
 22 24  2  0
 22 25  1  0
 25 26  1  0
 26 27  1  0
 27 28  1  0
 28 29  1  0
 21 30  1  0
 30 31  2  0
  7 32  1  0
 32 33  2  0
 33 34  1  0
 34 35  2  0
 35  2  1  0
 34  5  1  0
 14  9  1  0
 31 18  1  0
 29 25  1  0
  1 36  1  0
  1 37  1  0
  3 38  1  0
  6 39  1  0
 10 40  1  0
 11 41  1  0
 12 42  1  0
 13 43  1  0
 19 44  1  0
 20 45  1  0
 25 46  1  0
 26 47  1  0
 26 48  1  0
 27 49  1  0
 27 50  1  0
 28 51  1  0
 28 52  1  0
 29 53  1  0
 29 54  1  0
 30 55  1  0
 31 56  1  0
 32 57  1  0
 33 58  1  0
 35 59  1  0
M  CHG  2  17  -1  25   1
M  END
>  <UniqueID>  (44) 
41

>  <SMILES>  (44) 
Nc1cnc2cc(Sc3ccccc3C(=O)[N-]c3ccc(S(=O)(=O)[NH+]4CCCC4)cc3)ccc2c1

>  <Energy>  (44) 
71.98655020026534

>  <Genealogy>  (44) 
Nc1cnc2cc(Sc3ccccc3C(=O)[N-]c3ccc(S(=O)(=O)[NH+]4CCCC4)cc3)ccc2c1 (protonated)
Nc1cnc2cc(Sc3ccccc3C(=O)[N-]c3ccc(S(=O)(=O)[NH+]4CCCC4)cc3)ccc2c1 (3D coordinates assigned)
Nc1cnc2cc(Sc3ccccc3C(=O)[N-]c3ccc(S(=O)(=O)[NH+]4CCCC4)cc3)ccc2c1 (nonaromatic ring conformer: 71.98655020026534 kcal/mol)

>  <smiles>  (44) 
Nc1cnc2cc(Sc3ccccc3C(=O)Nc3ccc(S(=O)(=O)N4CCCC4)cc3)ccc2c1

>  <score_type>  (44) 
oracle

>  <origin>  (44) 
adgpu

>  <m_score__min__energy>  (44) 
-12.49

>  <m_primary>  (44) 
energy

$$$$
44:0
     RDKit          3D

 44 45  0  0  0  0  0  0  0  0999 V2000
   -0.5400   26.1360  -23.9190 C   0  0  0  0  0  0  0  0  0  0  0  0
   -0.0000   25.8500  -25.2040 O   0  0  0  0  0  0  0  0  0  0  0  0
   -0.7460   25.3580  -26.2880 C   0  0  0  0  0  0  0  0  0  0  0  0
   -2.1300   25.1160  -26.1940 C   0  0  0  0  0  0  0  0  0  0  0  0
   -2.8390   24.6240  -27.2930 C   0  0  0  0  0  0  0  0  0  0  0  0
   -2.1810   24.3820  -28.5050 C   0  0  0  0  0  0  0  0  0  0  0  0
   -2.9250   23.8110  -29.6770 C   0  0  0  0  0  0  0  0  0  0  0  0
   -3.4870   24.9080  -30.4650 N   0  0  0  0  0  0  0  0  0  0  0  0
   -5.2210   24.8120  -30.4970 S   0  0  0  0  0  0  0  0  0  0  0  0
   -5.7450   24.7730  -29.0900 O   0  0  0  0  0  0  0  0  0  0  0  0
   -5.7760   26.0240  -31.1950 O   0  0  0  0  0  0  0  0  0  0  0  0
   -5.7040   23.3420  -31.3370 C   0  0  0  0  0  0  0  0  0  0  0  0
   -7.0400   22.9240  -31.2870 C   0  0  0  0  0  0  0  0  0  0  0  0
   -7.4320   21.7400  -31.9170 C   0  0  0  0  0  0  0  0  0  0  0  0
   -6.4880   20.9540  -32.6020 C   0  0  0  0  0  0  0  0  0  0  0  0
   -6.8680   19.7400  -33.2750 N   0  0  0  0  0  0  0  0  0  0  0  0
   -6.2860   18.4560  -33.0060 C   0  0  0  0  0  0  0  0  0  0  0  0
   -6.8820   17.2280  -33.6160 C   0  0  0  0  0  0  0  0  0  0  0  0
   -5.2270   18.3570  -32.3290 O   0  0  0  0  0  0  0  0  0  0  0  0
   -5.1590   21.3950  -32.6780 C   0  0  0  0  0  0  0  0  0  0  0  0
   -4.7660   22.5780  -32.0420 C   0  0  0  0  0  0  0  0  0  0  0  0
   -0.8010   24.6120  -28.6000 C   0  0  0  0  0  0  0  0  0  0  0  0
   -0.0780   25.1000  -27.4960 C   0  0  0  0  0  0  0  0  0  0  0  0
    1.3040   25.3380  -27.5590 O   0  0  0  0  0  0  0  0  0  0  0  0
    2.2820   24.6130  -26.8190 C   0  0  0  0  0  0  0  0  0  0  0  0
    0.1485   25.7713  -23.1425 H   0  0  0  0  0  0  0  0  0  0  0  0
   -0.6726   27.2226  -23.8106 H   0  0  0  0  0  0  0  0  0  0  0  0
   -1.5134   25.6352  -23.8106 H   0  0  0  0  0  0  0  0  0  0  0  0
   -2.6566   25.3156  -25.2491 H   0  0  0  0  0  0  0  0  0  0  0  0
   -3.9175   24.4262  -27.2057 H   0  0  0  0  0  0  0  0  0  0  0  0
   -2.2352   23.2242  -30.3013 H   0  0  0  0  0  0  0  0  0  0  0  0
   -3.7344   23.1570  -29.3204 H   0  0  0  0  0  0  0  0  0  0  0  0
   -7.7838   23.5305  -30.7494 H   0  0  0  0  0  0  0  0  0  0  0  0
   -8.4840   21.4211  -31.8770 H   0  0  0  0  0  0  0  0  0  0  0  0
   -7.5490   19.8090  -34.0650 H   0  0  0  0  0  0  0  0  0  0  0  0
   -7.2129   16.5462  -32.8188 H   0  0  0  0  0  0  0  0  0  0  0  0
   -7.7438   17.5093  -34.2390 H   0  0  0  0  0  0  0  0  0  0  0  0
   -6.1278   16.7250  -34.2390 H   0  0  0  0  0  0  0  0  0  0  0  0
   -4.4200   20.8067  -33.2417 H   0  0  0  0  0  0  0  0  0  0  0  0
   -3.7182   22.9083  -32.0960 H   0  0  0  0  0  0  0  0  0  0  0  0
   -0.2788   24.4090  -29.5466 H   0  0  0  0  0  0  0  0  0  0  0  0
    2.1010   24.7472  -25.7423 H   0  0  0  0  0  0  0  0  0  0  0  0
    2.2152   23.5445  -27.0717 H   0  0  0  0  0  0  0  0  0  0  0  0
    3.2849   24.9875  -27.0717 H   0  0  0  0  0  0  0  0  0  0  0  0
  1  2  1  0
  2  3  1  0
  3  4  2  0
  4  5  1  0
  5  6  2  0
  6  7  1  0
  7  8  1  0
  8  9  1  0
  9 10  2  0
  9 11  2  0
  9 12  1  0
 12 13  2  0
 13 14  1  0
 14 15  2  0
 15 16  1  0
 16 17  1  0
 17 18  1  0
 17 19  2  0
 15 20  1  0
 20 21  2  0
  6 22  1  0
 22 23  2  0
 23 24  1  0
 24 25  1  0
 23  3  1  0
 21 12  1  0
  1 26  1  0
  1 27  1  0
  1 28  1  0
  4 29  1  0
  5 30  1  0
  7 31  1  0
  7 32  1  0
 13 33  1  0
 14 34  1  0
 16 35  1  0
 18 36  1  0
 18 37  1  0
 18 38  1  0
 20 39  1  0
 21 40  1  0
 22 41  1  0
 25 42  1  0
 25 43  1  0
 25 44  1  0
M  CHG  1   8  -1
M  END
>  <UniqueID>  (45) 
42

>  <SMILES>  (45) 
COc1ccc(C[N-]S(=O)(=O)c2ccc(NC(C)=O)cc2)cc1OC

>  <Energy>  (45) 
41.46404209721982

>  <Genealogy>  (45) 
COc1ccc(C[N-]S(=O)(=O)c2ccc(NC(C)=O)cc2)cc1OC (protonated)
COc1ccc(C[N-]S(=O)(=O)c2ccc(NC(C)=O)cc2)cc1OC (3D coordinates assigned)
COc1ccc(C[N-]S(=O)(=O)c2ccc(NC(C)=O)cc2)cc1OC (optimized conformer: 41.46404209721982 kcal/mol)

>  <smiles>  (45) 
COc1ccc(CNS(=O)(=O)c2ccc(NC(C)=O)cc2)cc1OC

>  <score_type>  (45) 
oracle

>  <origin>  (45) 
adgpu

>  <m_score__min__energy>  (45) 
-9.1999999999999993

>  <m_primary>  (45) 
energy

$$$$
45:0
     RDKit          3D

 55 57  0  0  0  0  0  0  0  0999 V2000
   -1.9900   24.2330  -26.4470 C   0  0  0  0  0  0  0  0  0  0  0  0
   -3.2730   25.0340  -26.6170 C   0  0  0  0  0  0  0  0  0  0  0  0
   -3.9800   24.5930  -27.8220 N   0  0  0  0  0  0  0  0  0  0  0  0
   -2.8780   24.5070  -29.1640 S   0  0  0  0  0  0  0  0  0  0  0  0
   -3.6150   24.8060  -30.4400 O   0  0  0  0  0  0  0  0  0  0  0  0
   -1.8060   25.5450  -28.9840 O   0  0  0  0  0  0  0  0  0  0  0  0
   -2.1330   22.9130  -29.2720 C   0  0  0  0  0  0  0  0  0  0  0  0
   -2.8690   21.7660  -28.9480 C   0  0  0  0  0  0  0  0  0  0  0  0
   -2.2790   20.5020  -29.0370 C   0  0  0  0  0  0  0  0  0  0  0  0
   -0.9530   20.3640  -29.4900 C   0  0  0  0  0  0  0  0  0  0  0  0
   -0.3300   19.0730  -29.6490 N   0  0  0  0  0  0  0  0  0  0  0  0
    0.1380   18.5350  -30.9290 C   0  0  0  0  0  0  0  0  0  0  0  0
   -0.4520   19.3150  -32.0770 C   0  0  0  0  0  0  0  0  0  0  0  0
    0.3520   20.1600  -32.8580 C   0  0  0  0  0  0  0  0  0  0  0  0
   -0.2060   20.8800  -33.9180 C   0  0  0  0  0  0  0  0  0  0  0  0
   -1.5690   20.7640  -34.2060 C   0  0  0  0  0  0  0  0  0  0  0  0
   -2.3880   19.9300  -33.4350 C   0  0  0  0  0  0  0  0  0  0  0  0
   -3.7610   19.8770  -33.7270 O   0  0  0  0  0  0  0  0  0  0  0  0
   -4.7410   20.7090  -33.1640 C   0  0  0  0  0  0  0  0  0  0  0  0
   -4.4120   21.9820  -32.6690 C   0  0  0  0  0  0  0  0  0  0  0  0
   -5.4040   22.8230  -32.1630 C   0  0  0  0  0  0  0  0  0  0  0  0
   -6.7340   22.3900  -32.1040 C   0  0  0  0  0  0  0  0  0  0  0  0
   -7.8100   23.3200  -31.6260 C   0  0  0  0  0  0  0  0  0  0  0  0
   -7.0620   21.1050  -32.5620 C   0  0  0  0  0  0  0  0  0  0  0  0
   -6.0700   20.2520  -33.0720 C   0  0  0  0  0  0  0  0  0  0  0  0
   -6.4440   18.8960  -33.6000 C   0  0  0  0  0  0  0  0  0  0  0  0
   -1.8210   19.2130  -32.3650 C   0  0  0  0  0  0  0  0  0  0  0  0
   -0.2160   21.5190  -29.7950 C   0  0  0  0  0  0  0  0  0  0  0  0
   -0.8030   22.7830  -29.6880 C   0  0  0  0  0  0  0  0  0  0  0  0
   -1.7792   24.1014  -25.3754 H   0  0  0  0  0  0  0  0  0  0  0  0
   -2.1074   23.2475  -26.9213 H   0  0  0  0  0  0  0  0  0  0  0  0
   -1.1561   24.7712  -26.9213 H   0  0  0  0  0  0  0  0  0  0  0  0
   -3.9178   24.8806  -25.7391 H   0  0  0  0  0  0  0  0  0  0  0  0
   -3.0238   26.1010  -26.7134 H   0  0  0  0  0  0  0  0  0  0  0  0
   -4.6980   25.3140  -28.0610 H   0  0  0  0  0  0  0  0  0  0  0  0
   -3.9154   21.8604  -28.6222 H   0  0  0  0  0  0  0  0  0  0  0  0
   -2.8544   19.6091  -28.7512 H   0  0  0  0  0  0  0  0  0  0  0  0
    0.0130   18.5860  -28.7890 H   0  0  0  0  0  0  0  0  0  0  0  0
    1.2351   18.6032  -30.9709 H   0  0  0  0  0  0  0  0  0  0  0  0
   -0.1801   17.4852  -31.0114 H   0  0  0  0  0  0  0  0  0  0  0  0
    1.4249   20.2558  -32.6350 H   0  0  0  0  0  0  0  0  0  0  0  0
    0.4291   21.5398  -34.5273 H   0  0  0  0  0  0  0  0  0  0  0  0
   -2.0009   21.3314  -35.0436 H   0  0  0  0  0  0  0  0  0  0  0  0
   -3.3647   22.3183  -32.6804 H   0  0  0  0  0  0  0  0  0  0  0  0
   -5.1398   23.8304  -31.8090 H   0  0  0  0  0  0  0  0  0  0  0  0
   -7.8230   23.3312  -30.5261 H   0  0  0  0  0  0  0  0  0  0  0  0
   -7.6106   24.3348  -32.0007 H   0  0  0  0  0  0  0  0  0  0  0  0
   -8.7853   22.9758  -32.0007 H   0  0  0  0  0  0  0  0  0  0  0  0
   -8.1065   20.7624  -32.5212 H   0  0  0  0  0  0  0  0  0  0  0  0
   -6.6322   18.2137  -32.7579 H   0  0  0  0  0  0  0  0  0  0  0  0
   -7.3526   18.9795  -34.2143 H   0  0  0  0  0  0  0  0  0  0  0  0
   -5.6210   18.5019  -34.2143 H   0  0  0  0  0  0  0  0  0  0  0  0
   -2.4593   18.5646  -31.7469 H   0  0  0  0  0  0  0  0  0  0  0  0
    0.8309   21.4288  -30.1205 H   0  0  0  0  0  0  0  0  0  0  0  0
   -0.2162   23.6808  -29.9322 H   0  0  0  0  0  0  0  0  0  0  0  0
  1  2  1  0
  2  3  1  0
  3  4  1  0
  4  5  2  0
  4  6  2  0
  4  7  1  0
  7  8  2  0
  8  9  1  0
  9 10  2  0
 10 11  1  0
 11 12  1  0
 12 13  1  0
 13 14  2  0
 14 15  1  0
 15 16  2  0
 16 17  1  0
 17 18  1  0
 18 19  1  0
 19 20  2  0
 20 21  1  0
 21 22  2  0
 22 23  1  0
 22 24  1  0
 24 25  2  0
 25 26  1  0
 17 27  2  0
 10 28  1  0
 28 29  2  0
 29  7  1  0
 27 13  1  0
 25 19  1  0
  1 30  1  0
  1 31  1  0
  1 32  1  0
  2 33  1  0
  2 34  1  0
  3 35  1  0
  8 36  1  0
  9 37  1  0
 11 38  1  0
 12 39  1  0
 12 40  1  0
 14 41  1  0
 15 42  1  0
 16 43  1  0
 20 44  1  0
 21 45  1  0
 23 46  1  0
 23 47  1  0
 23 48  1  0
 24 49  1  0
 26 50  1  0
 26 51  1  0
 26 52  1  0
 27 53  1  0
 28 54  1  0
 29 55  1  0
M  END
>  <UniqueID>  (46) 
43

>  <SMILES>  (46) 
CCNS(=O)(=O)c1ccc(NCc2cccc(Oc3ccc(C)cc3C)c2)cc1

>  <Energy>  (46) 
53.550100716414455

>  <Genealogy>  (46) 
CCNS(=O)(=O)c1ccc(NCc2cccc(Oc3ccc(C)cc3C)c2)cc1 (3D coordinates assigned)
CCNS(=O)(=O)c1ccc(NCc2cccc(Oc3ccc(C)cc3C)c2)cc1 (optimized conformer: 53.550100716414455 kcal/mol)

>  <smiles>  (46) 
CCNS(=O)(=O)c1ccc(NCc2cccc(Oc3ccc(C)cc3C)c2)cc1

>  <score_type>  (46) 
oracle

>  <origin>  (46) 
adgpu

>  <m_score__min__energy>  (46) 
-10.4

>  <m_primary>  (46) 
energy

$$$$
46:0
     RDKit          3D

 52 54  0  0  0  0  0  0  0  0999 V2000
   -2.0370   26.0410  -25.5270 C   0  0  0  0  0  0  0  0  0  0  0  0
   -2.4510   25.1300  -26.6450 C   0  0  0  0  0  0  0  0  0  0  0  0
   -1.5110   24.6830  -27.5830 C   0  0  0  0  0  0  0  0  0  0  0  0
   -1.8950   23.8100  -28.6060 C   0  0  0  0  0  0  0  0  0  0  0  0
   -3.2230   23.3630  -28.7000 C   0  0  0  0  0  0  0  0  0  0  0  0
   -3.6150   22.4600  -29.7490 N   0  0  0  0  0  0  0  0  0  0  0  0
   -3.3430   21.0260  -29.6280 C   0  0  0  0  0  0  0  0  0  0  0  0
   -4.3440   23.0640  -31.2100 S   0  0  0  0  0  0  0  0  0  0  0  0
   -3.4960   22.6750  -32.3890 O   0  0  0  0  0  0  0  0  0  0  0  0
   -4.4440   24.5640  -31.1590 O   0  0  0  0  0  0  0  0  0  0  0  0
   -5.9690   22.4080  -31.3740 C   0  0  0  0  0  0  0  0  0  0  0  0
   -7.0750   23.2640  -31.2950 C   0  0  0  0  0  0  0  0  0  0  0  0
   -8.3690   22.7510  -31.4160 C   0  0  0  0  0  0  0  0  0  0  0  0
   -8.5650   21.3820  -31.6140 C   0  0  0  0  0  0  0  0  0  0  0  0
   -7.4650   20.5160  -31.6950 C   0  0  0  0  0  0  0  0  0  0  0  0
   -7.7110   18.7870  -31.9600 S   0  0  0  0  0  0  0  0  0  0  0  0
   -7.0600   18.0190  -30.8430 O   0  0  0  0  0  0  0  0  0  0  0  0
   -9.1840   18.4890  -31.9300 O   0  0  0  0  0  0  0  0  0  0  0  0
   -7.0490   18.2680  -33.4940 N   0  0  0  0  0  0  0  0  0  0  0  0
   -6.1130   19.2850  -34.0510 C   0  0  0  0  0  0  0  0  0  0  0  0
   -4.6360   18.9080  -33.8590 C   0  0  0  0  0  0  0  0  0  0  0  0
   -4.3180   17.5630  -34.5340 C   0  0  0  0  0  0  0  0  0  0  0  0
   -5.5130   16.5920  -34.5170 C   0  0  0  0  0  0  0  0  0  0  0  0
   -6.4680   16.9100  -33.3620 C   0  0  0  0  0  0  0  0  0  0  0  0
   -6.1680   21.0320  -31.5640 C   0  0  0  0  0  0  0  0  0  0  0  0
   -4.1560   23.7890  -27.7400 C   0  0  0  0  0  0  0  0  0  0  0  0
   -3.7730   24.6630  -26.7180 C   0  0  0  0  0  0  0  0  0  0  0  0
   -2.2555   25.5601  -24.5621 H   0  0  0  0  0  0  0  0  0  0  0  0
   -0.9583   26.2438  -25.5996 H   0  0  0  0  0  0  0  0  0  0  0  0
   -2.5936   26.9870  -25.5996 H   0  0  0  0  0  0  0  0  0  0  0  0
   -0.4662   25.0202  -27.5145 H   0  0  0  0  0  0  0  0  0  0  0  0
   -1.1514   23.4710  -29.3423 H   0  0  0  0  0  0  0  0  0  0  0  0
   -3.2909   20.7512  -28.5642 H   0  0  0  0  0  0  0  0  0  0  0  0
   -4.1493   20.4575  -30.1145 H   0  0  0  0  0  0  0  0  0  0  0  0
   -2.3845   20.7923  -30.1145 H   0  0  0  0  0  0  0  0  0  0  0  0
   -6.9245   24.3422  -31.1374 H   0  0  0  0  0  0  0  0  0  0  0  0
   -9.2351   23.4264  -31.3552 H   0  0  0  0  0  0  0  0  0  0  0  0
   -9.5855   20.9821  -31.7067 H   0  0  0  0  0  0  0  0  0  0  0  0
   -7.8630   18.1980  -34.1480 H   0  0  0  0  0  0  0  0  0  0  0  0
   -6.3108   19.3914  -35.1278 H   0  0  0  0  0  0  0  0  0  0  0  0
   -6.2866   20.2255  -33.5076 H   0  0  0  0  0  0  0  0  0  0  0  0
   -4.0042   19.6915  -34.3028 H   0  0  0  0  0  0  0  0  0  0  0  0
   -4.4353   18.8154  -32.7814 H   0  0  0  0  0  0  0  0  0  0  0  0
   -4.0335   17.7526  -35.5795 H   0  0  0  0  0  0  0  0  0  0  0  0
   -3.5000   17.0928  -33.9685 H   0  0  0  0  0  0  0  0  0  0  0  0
   -6.0589   16.6780  -35.4681 H   0  0  0  0  0  0  0  0  0  0  0  0
   -5.1298   15.5699  -34.3811 H   0  0  0  0  0  0  0  0  0  0  0  0
   -7.2832   16.1714  -33.3588 H   0  0  0  0  0  0  0  0  0  0  0  0
   -5.8979   16.8689  -32.4221 H   0  0  0  0  0  0  0  0  0  0  0  0
   -5.3023   20.3550  -31.6104 H   0  0  0  0  0  0  0  0  0  0  0  0
   -5.1953   23.4324  -27.7927 H   0  0  0  0  0  0  0  0  0  0  0  0
   -4.5103   24.9859  -25.9683 H   0  0  0  0  0  0  0  0  0  0  0  0
  1  2  1  0
  2  3  2  0
  3  4  1  0
  4  5  2  0
  5  6  1  0
  6  7  1  0
  6  8  1  0
  8  9  2  0
  8 10  2  0
  8 11  1  0
 11 12  2  0
 12 13  1  0
 13 14  2  0
 14 15  1  0
 15 16  1  0
 16 17  2  0
 16 18  2  0
 16 19  1  0
 19 20  1  0
 20 21  1  0
 21 22  1  0
 22 23  1  0
 23 24  1  0
 15 25  2  0
  5 26  1  0
 26 27  2  0
 27  2  1  0
 25 11  1  0
 24 19  1  0
  1 28  1  0
  1 29  1  0
  1 30  1  0
  3 31  1  0
  4 32  1  0
  7 33  1  0
  7 34  1  0
  7 35  1  0
 12 36  1  0
 13 37  1  0
 14 38  1  0
 19 39  1  0
 20 40  1  0
 20 41  1  0
 21 42  1  0
 21 43  1  0
 22 44  1  0
 22 45  1  0
 23 46  1  0
 23 47  1  0
 24 48  1  0
 24 49  1  0
 25 50  1  0
 26 51  1  0
 27 52  1  0
M  CHG  1  19   1
M  END
>  <UniqueID>  (47) 
44

>  <SMILES>  (47) 
Cc1ccc(N(C)S(=O)(=O)c2cccc(S(=O)(=O)[NH+]3CCCCC3)c2)cc1

>  <Energy>  (47) 
60.87433053423002

>  <Genealogy>  (47) 
Cc1ccc(N(C)S(=O)(=O)c2cccc(S(=O)(=O)[NH+]3CCCCC3)c2)cc1 (protonated)
Cc1ccc(N(C)S(=O)(=O)c2cccc(S(=O)(=O)[NH+]3CCCCC3)c2)cc1 (3D coordinates assigned)
Cc1ccc(N(C)S(=O)(=O)c2cccc(S(=O)(=O)[NH+]3CCCCC3)c2)cc1 (nonaromatic ring conformer: 60.87433053423002 kcal/mol)

>  <smiles>  (47) 
Cc1ccc(N(C)S(=O)(=O)c2cccc(S(=O)(=O)N3CCCCC3)c2)cc1

>  <score_type>  (47) 
oracle

>  <origin>  (47) 
adgpu

>  <m_score__min__energy>  (47) 
-9.7400000000000002

>  <m_primary>  (47) 
energy

$$$$
