0:0
     RDKit          3D

 47 50  0  0  0  0  0  0  0  0999 V2000
   -5.7460   26.1010  -31.1960 O   0  0  0  0  0  0  0  0  0  0  0  0
   -5.0480   25.1010  -30.8840 C   0  0  0  0  0  0  0  0  0  0  0  0
   -3.6670   25.2990  -30.5550 N   0  0  0  0  0  0  0  0  0  0  0  0
   -2.8870   24.4820  -29.6700 C   0  0  0  0  0  0  0  0  0  0  0  0
   -3.1290   23.1030  -29.6410 C   0  0  0  0  0  0  0  0  0  0  0  0
   -2.3790   22.2640  -28.8030 C   0  0  0  0  0  0  0  0  0  0  0  0
   -2.7150   20.5290  -28.7490 S   0  0  0  0  0  0  0  0  0  0  0  0
   -3.6260   20.1720  -29.8900 O   0  0  0  0  0  0  0  0  0  0  0  0
   -3.4280   20.2090  -27.4660 O   0  0  0  0  0  0  0  0  0  0  0  0
   -1.2670   19.5550  -28.8520 N   0  0  0  0  0  0  0  0  0  0  0  0
   -0.2530   20.1650  -29.7080 C   0  0  0  0  0  0  0  0  0  0  0  0
    1.0880   19.6200  -29.2400 C   0  0  0  0  0  0  0  0  0  0  0  0
    0.8430   19.1090  -27.8280 C   0  0  0  0  0  0  0  0  0  0  0  0
   -0.6280   19.3820  -27.5490 C   0  0  0  0  0  0  0  0  0  0  0  0
   -1.3790   22.8160  -27.9920 C   0  0  0  0  0  0  0  0  0  0  0  0
   -1.1090   24.1850  -28.0400 C   0  0  0  0  0  0  0  0  0  0  0  0
   -1.8470   25.0190  -28.8870 C   0  0  0  0  0  0  0  0  0  0  0  0
   -1.5240   26.3690  -28.9570 O   0  0  0  0  0  0  0  0  0  0  0  0
   -5.6510   23.7560  -30.9320 C   0  0  0  0  0  0  0  0  0  0  0  0
   -5.5170   22.8460  -31.9610 C   0  0  0  0  0  0  0  0  0  0  0  0
   -6.2410   21.7500  -31.5330 C   0  0  0  0  0  0  0  0  0  0  0  0
   -6.3770   20.4620  -32.2500 C   0  0  0  0  0  0  0  0  0  0  0  0
   -5.4020   20.1080  -33.2020 C   0  0  0  0  0  0  0  0  0  0  0  0
   -5.4550   18.8720  -33.8500 C   0  0  0  0  0  0  0  0  0  0  0  0
   -6.4800   17.9730  -33.5570 C   0  0  0  0  0  0  0  0  0  0  0  0
   -7.4630   18.3130  -32.6270 C   0  0  0  0  0  0  0  0  0  0  0  0
   -7.4350   19.5570  -31.9830 C   0  0  0  0  0  0  0  0  0  0  0  0
   -8.4880   19.8650  -31.1180 O   0  0  0  0  0  0  0  0  0  0  0  0
   -6.7480   21.9960  -30.3080 N   0  0  0  0  0  0  0  0  0  0  0  0
   -6.3920   23.2180  -29.9440 N   0  0  0  0  0  0  0  0  0  0  0  0
   -3.9140   22.6737  -30.2809 H   0  0  0  0  0  0  0  0  0  0  0  0
   -0.4285   19.8926  -30.7592 H   0  0  0  0  0  0  0  0  0  0  0  0
   -0.2827   21.2626  -29.6416 H   0  0  0  0  0  0  0  0  0  0  0  0
    1.4203   18.8004  -29.8941 H   0  0  0  0  0  0  0  0  0  0  0  0
    1.8750   20.3881  -29.2674 H   0  0  0  0  0  0  0  0  0  0  0  0
    1.0526   18.0309  -27.7671 H   0  0  0  0  0  0  0  0  0  0  0  0
    1.4971   19.6035  -27.0947 H   0  0  0  0  0  0  0  0  0  0  0  0
   -1.0782   18.5330  -27.0137 H   0  0  0  0  0  0  0  0  0  0  0  0
   -0.7567   20.2743  -26.9188 H   0  0  0  0  0  0  0  0  0  0  0  0
   -0.8039   22.1679  -27.3143 H   0  0  0  0  0  0  0  0  0  0  0  0
   -0.3135   24.6093  -27.4098 H   0  0  0  0  0  0  0  0  0  0  0  0
   -4.9624   22.9657  -32.9034 H   0  0  0  0  0  0  0  0  0  0  0  0
   -4.5903   20.8120  -33.4378 H   0  0  0  0  0  0  0  0  0  0  0  0
   -4.6875   18.6074  -34.5922 H   0  0  0  0  0  0  0  0  0  0  0  0
   -6.5136   16.9950  -34.0595 H   0  0  0  0  0  0  0  0  0  0  0  0
   -8.2669   17.5982  -32.3974 H   0  0  0  0  0  0  0  0  0  0  0  0
   -8.4710   20.6480  -30.4790 H   0  0  0  0  0  0  0  0  0  0  0  0
  1  2  2  0
  2  3  1  0
  3  4  1  0
  4  5  2  0
  5  6  1  0
  6  7  1  0
  7  8  2  0
  7  9  2  0
  7 10  1  0
 10 11  1  0
 11 12  1  0
 12 13  1  0
 13 14  1  0
  6 15  2  0
 15 16  1  0
 16 17  2  0
 17 18  1  0
  2 19  1  0
 19 20  1  0
 20 21  2  0
 21 22  1  0
 22 23  2  0
 23 24  1  0
 24 25  2  0
 25 26  1  0
 26 27  2  0
 27 28  1  0
 21 29  1  0
 29 30  1  0
 17  4  1  0
 30 19  2  0
 14 10  1  0
 27 22  1  0
  5 31  1  0
 11 32  1  0
 11 33  1  0
 12 34  1  0
 12 35  1  0
 13 36  1  0
 13 37  1  0
 14 38  1  0
 14 39  1  0
 15 40  1  0
 16 41  1  0
 20 42  1  0
 23 43  1  0
 24 44  1  0
 25 45  1  0
 26 46  1  0
 28 47  1  0
M  CHG  3   3  -1  18  -1  29  -1
M  END
>  <UniqueID>  (1) 
1

>  <SMILES>  (1) 
O=C([N-]c1cc(S(=O)(=O)N2CCCC2)ccc1[O-])c1cc(-c2ccccc2O)[n-]n1

>  <Energy>  (1) 
93.13002207848524

>  <Genealogy>  (1) 
O=C([N-]c1cc(S(=O)(=O)N2CCCC2)ccc1[O-])c1cc(-c2ccccc2O)[n-]n1 (protonated)
O=C([N-]c1cc(S(=O)(=O)N2CCCC2)ccc1[O-])c1cc(-c2ccccc2O)[n-]n1 (3D coordinates assigned)
O=C([N-]c1cc(S(=O)(=O)N2CCCC2)ccc1[O-])c1cc(-c2ccccc2O)[n-]n1 (nonaromatic ring conformer: 93.13002207848524 kcal/mol)

>  <smiles>  (1) 
O=C(Nc1cc(S(=O)(=O)N2CCCC2)ccc1O)c1cc(-c2ccccc2O)[nH]n1

>  <score_type>  (1) 
oracle

>  <origin>  (1) 
adgpu

>  <m_score__min__energy>  (1) 
-13.609999999999999

>  <m_primary>  (1) 
energy

$$$$
1:0
     RDKit          3D

 67 70  0  0  0  0  0  0  0  0999 V2000
    1.0720   20.0390  -28.5710 C   0  0  0  0  0  0  0  0  0  0  0  0
    1.6070   18.7100  -28.9160 N   0  0  0  0  0  0  0  0  0  0  0  0
    0.5430   17.6680  -28.8840 C   0  0  0  0  0  0  0  0  0  0  0  0
    0.5030   16.7830  -30.1360 C   0  0  0  0  0  0  0  0  0  0  0  0
    0.5170   17.6250  -31.3390 N   0  0  0  0  0  0  0  0  0  0  0  0
   -0.3770   17.3470  -32.4440 C   0  0  0  0  0  0  0  0  0  0  0  0
   -1.2310   16.4250  -32.3280 O   0  0  0  0  0  0  0  0  0  0  0  0
   -0.3110   18.1320  -33.7070 C   0  0  0  0  0  0  0  0  0  0  0  0
   -1.3440   18.7610  -34.2870 C   0  0  0  0  0  0  0  0  0  0  0  0
   -2.7180   18.7800  -33.7540 C   0  0  0  0  0  0  0  0  0  0  0  0
   -3.5730   17.7200  -34.0880 C   0  0  0  0  0  0  0  0  0  0  0  0
   -4.8750   17.6810  -33.5910 C   0  0  0  0  0  0  0  0  0  0  0  0
   -5.3410   18.7010  -32.7540 C   0  0  0  0  0  0  0  0  0  0  0  0
   -6.9830   18.6340  -32.1180 S   0  0  0  0  0  0  0  0  0  0  0  0
   -7.8730   17.9140  -33.0920 O   0  0  0  0  0  0  0  0  0  0  0  0
   -6.9780   17.8660  -30.8260 O   0  0  0  0  0  0  0  0  0  0  0  0
   -7.6040   20.2610  -31.8560 C   0  0  0  0  0  0  0  0  0  0  0  0
   -8.9440   20.5690  -32.1350 C   0  0  0  0  0  0  0  0  0  0  0  0
   -9.4130   21.8750  -31.9680 C   0  0  0  0  0  0  0  0  0  0  0  0
   -8.5490   22.8800  -31.5250 C   0  0  0  0  0  0  0  0  0  0  0  0
   -7.2090   22.5810  -31.2370 C   0  0  0  0  0  0  0  0  0  0  0  0
   -6.1030   23.8300  -30.6680 S   0  0  0  0  0  0  0  0  0  0  0  0
   -5.0170   24.0140  -31.6880 O   0  0  0  0  0  0  0  0  0  0  0  0
   -6.8160   25.1450  -30.4960 O   0  0  0  0  0  0  0  0  0  0  0  0
   -5.3840   23.3480  -29.1620 N   0  0  0  0  0  0  0  0  0  0  0  0
   -4.0070   22.9940  -28.9670 C   0  0  0  0  0  0  0  0  0  0  0  0
   -3.6380   21.8590  -28.2180 C   0  0  0  0  0  0  0  0  0  0  0  0
   -2.2890   21.5430  -28.0280 C   0  0  0  0  0  0  0  0  0  0  0  0
   -1.8440   20.1310  -27.0830 Cl  0  0  0  0  0  0  0  0  0  0  0  0
   -1.2960   22.3550  -28.5820 C   0  0  0  0  0  0  0  0  0  0  0  0
   -1.6490   23.4870  -29.3230 C   0  0  0  0  0  0  0  0  0  0  0  0
   -2.9960   23.8110  -29.5190 C   0  0  0  0  0  0  0  0  0  0  0  0
   -3.3070   24.9490  -30.2620 O   0  0  0  0  0  0  0  0  0  0  0  0
   -6.7420   21.2710  -31.4040 C   0  0  0  0  0  0  0  0  0  0  0  0
   -4.4940   19.7650  -32.4180 C   0  0  0  0  0  0  0  0  0  0  0  0
   -3.1760   19.8090  -32.8990 C   0  0  0  0  0  0  0  0  0  0  0  0
   -2.1190   21.1440  -32.4080 S   0  0  0  0  0  0  0  0  0  0  0  0
   -1.0650   21.5700  -33.7090 N   0  0  0  0  0  0  0  0  0  0  0  0
   -1.2800   20.7350  -31.2280 O   0  0  0  0  0  0  0  0  0  0  0  0
   -2.9510   22.3340  -32.0220 O   0  0  0  0  0  0  0  0  0  0  0  0
    1.5120   18.7030  -31.4210 C   0  0  0  0  0  0  0  0  0  0  0  0
    2.3970   18.7480  -30.1660 C   0  0  0  0  0  0  0  0  0  0  0  0
    1.0296   20.1444  -27.4769 H   0  0  0  0  0  0  0  0  0  0  0  0
    1.7267   20.8177  -28.9893 H   0  0  0  0  0  0  0  0  0  0  0  0
    0.0604   20.1469  -28.9893 H   0  0  0  0  0  0  0  0  0  0  0  0
    0.7155   17.0235  -28.0095 H   0  0  0  0  0  0  0  0  0  0  0  0
   -0.4205   18.1965  -28.8352 H   0  0  0  0  0  0  0  0  0  0  0  0
    1.3810   16.1204  -30.1434 H   0  0  0  0  0  0  0  0  0  0  0  0
   -0.4162   16.1788  -30.1254 H   0  0  0  0  0  0  0  0  0  0  0  0
    0.6666   18.2021  -34.2064 H   0  0  0  0  0  0  0  0  0  0  0  0
   -1.1523   19.3005  -35.2263 H   0  0  0  0  0  0  0  0  0  0  0  0
   -3.2144   16.9146  -34.7459 H   0  0  0  0  0  0  0  0  0  0  0  0
   -5.5385   16.8452  -33.8579 H   0  0  0  0  0  0  0  0  0  0  0  0
   -9.6268   19.7812  -32.4858 H   0  0  0  0  0  0  0  0  0  0  0  0
  -10.4648   22.1123  -32.1858 H   0  0  0  0  0  0  0  0  0  0  0  0
   -8.9205   23.9080  -31.4018 H   0  0  0  0  0  0  0  0  0  0  0  0
   -4.4164   21.2171  -27.7797 H   0  0  0  0  0  0  0  0  0  0  0  0
   -0.2353   22.1034  -28.4350 H   0  0  0  0  0  0  0  0  0  0  0  0
   -0.8640   24.1259  -29.7539 H   0  0  0  0  0  0  0  0  0  0  0  0
   -3.5570   24.9080  -31.2450 H   0  0  0  0  0  0  0  0  0  0  0  0
   -5.6919   21.0327  -31.1791 H   0  0  0  0  0  0  0  0  0  0  0  0
   -4.8652   20.5736  -31.7712 H   0  0  0  0  0  0  0  0  0  0  0  0
   -1.6450   21.5880  -34.5780 H   0  0  0  0  0  0  0  0  0  0  0  0
    2.1490   18.5354  -32.3019 H   0  0  0  0  0  0  0  0  0  0  0  0
    0.9775   19.6611  -31.5013 H   0  0  0  0  0  0  0  0  0  0  0  0
    3.0756   17.8824  -30.1813 H   0  0  0  0  0  0  0  0  0  0  0  0
    2.9530   19.6970  -30.1821 H   0  0  0  0  0  0  0  0  0  0  0  0
  1  2  1  0
  2  3  1  0
  3  4  1  0
  4  5  1  0
  5  6  1  0
  6  7  2  0
  6  8  1  0
  8  9  2  3
  9 10  1  0
 10 11  2  0
 11 12  1  0
 12 13  2  0
 13 14  1  0
 14 15  2  0
 14 16  2  0
 14 17  1  0
 17 18  2  0
 18 19  1  0
 19 20  2  0
 20 21  1  0
 21 22  1  0
 22 23  2  0
 22 24  2  0
 22 25  1  0
 25 26  1  0
 26 27  2  0
 27 28  1  0
 28 29  1  0
 28 30  2  0
 30 31  1  0
 31 32  2  0
 32 33  1  0
 21 34  2  0
 13 35  1  0
 35 36  2  0
 36 37  1  0
 37 38  1  0
 37 39  2  0
 37 40  2  0
  5 41  1  0
 41 42  1  0
 42  2  1  0
 36 10  1  0
 34 17  1  0
 32 26  1  0
  1 43  1  0
  1 44  1  0
  1 45  1  0
  3 46  1  0
  3 47  1  0
  4 48  1  0
  4 49  1  0
  8 50  1  0
  9 51  1  0
 11 52  1  0
 12 53  1  0
 18 54  1  0
 19 55  1  0
 20 56  1  0
 27 57  1  0
 30 58  1  0
 31 59  1  0
 33 60  1  0
 34 61  1  0
 35 62  1  0
 38 63  1  0
 41 64  1  0
 41 65  1  0
 42 66  1  0
 42 67  1  0
M  CHG  2  25  -1  38  -1
M  END
>  <UniqueID>  (2) 
2

>  <SMILES>  (2) 
CN1CCN(C(=O)C=Cc2ccc(S(=O)(=O)c3cccc(S(=O)(=O)[N-]c4cc(Cl)ccc4O)c3)cc2S([NH-])(=O)=O)CC1

>  <Energy>  (2) 
91.44890563707608

>  <Genealogy>  (2) 
CN1CCN(C(=O)C=Cc2ccc(S(=O)(=O)c3cccc(S(=O)(=O)[N-]c4cc(Cl)ccc4O)c3)cc2S([NH-])(=O)=O)CC1 (protonated)
CN1CCN(C(=O)C=Cc2ccc(S(=O)(=O)c3cccc(S(=O)(=O)[N-]c4cc(Cl)ccc4O)c3)cc2S([NH-])(=O)=O)CC1 (3D coordinates assigned)
CN1CCN(C(=O)C=Cc2ccc(S(=O)(=O)c3cccc(S(=O)(=O)[N-]c4cc(Cl)ccc4O)c3)cc2S([NH-])(=O)=O)CC1 (nonaromatic ring conformer: 91.44890563707608 kcal/mol)

>  <smiles>  (2) 
CN1CCN(C(=O)C=Cc2ccc(S(=O)(=O)c3cccc(S(=O)(=O)Nc4cc(Cl)ccc4O)c3)cc2S(N)(=O)=O)CC1

>  <score_type>  (2) 
oracle

>  <origin>  (2) 
adgpu

>  <m_score__min__energy>  (2) 
-14.15

>  <m_primary>  (2) 
energy

$$$$
2:0
     RDKit          3D

 57 60  0  0  0  0  0  0  0  0999 V2000
   -5.4980   23.5900  -29.7710 O   0  0  0  0  0  0  0  0  0  0  0  0
   -4.1750   24.0570  -30.3140 S   0  0  0  0  0  0  0  0  0  0  0  0
   -4.2340   25.5570  -30.4150 O   0  0  0  0  0  0  0  0  0  0  0  0
   -3.9380   23.3330  -31.8780 N   0  0  0  0  0  0  0  0  0  0  0  0
   -4.4760   22.0900  -32.3560 C   0  0  0  0  0  0  0  0  0  0  0  0
   -3.5830   21.1320  -32.8590 C   0  0  0  0  0  0  0  0  0  0  0  0
   -4.0500   19.8930  -33.3090 C   0  0  0  0  0  0  0  0  0  0  0  0
   -5.4150   19.5900  -33.2550 C   0  0  0  0  0  0  0  0  0  0  0  0
   -6.0010   18.0130  -33.7800 S   0  0  0  0  0  0  0  0  0  0  0  0
   -6.0460   17.9650  -35.2870 O   0  0  0  0  0  0  0  0  0  0  0  0
   -7.3980   17.8080  -33.2550 O   0  0  0  0  0  0  0  0  0  0  0  0
   -4.9510   16.7610  -33.1650 N   0  0  0  0  0  0  0  0  0  0  0  0
   -3.6850   16.7360  -33.9380 C   0  0  0  0  0  0  0  0  0  0  0  0
   -2.9040   15.4350  -33.6830 C   0  0  0  0  0  0  0  0  0  0  0  0
   -3.3680   14.7890  -32.5150 O   0  0  0  0  0  0  0  0  0  0  0  0
   -4.7000   14.3430  -32.7110 C   0  0  0  0  0  0  0  0  0  0  0  0
   -5.6300   15.4570  -33.2440 C   0  0  0  0  0  0  0  0  0  0  0  0
   -6.3140   20.5430  -32.7500 C   0  0  0  0  0  0  0  0  0  0  0  0
   -5.8500   21.7870  -32.3070 C   0  0  0  0  0  0  0  0  0  0  0  0
   -2.9000   23.5240  -29.2140 C   0  0  0  0  0  0  0  0  0  0  0  0
   -2.9580   22.2130  -28.7120 C   0  0  0  0  0  0  0  0  0  0  0  0
   -1.9680   21.7500  -27.8280 C   0  0  0  0  0  0  0  0  0  0  0  0
   -2.0740   20.1290  -27.1400 S   0  0  0  0  0  0  0  0  0  0  0  0
   -1.4350   20.1010  -25.7770 O   0  0  0  0  0  0  0  0  0  0  0  0
   -3.5200   19.7500  -27.0020 O   0  0  0  0  0  0  0  0  0  0  0  0
   -1.2670   19.0030  -28.2060 N   0  0  0  0  0  0  0  0  0  0  0  0
   -0.5690   19.7020  -29.2910 C   0  0  0  0  0  0  0  0  0  0  0  0
    0.5730   18.7970  -29.7170 C   0  0  0  0  0  0  0  0  0  0  0  0
    0.8220   17.8740  -28.5320 C   0  0  0  0  0  0  0  0  0  0  0  0
   -0.2280   18.2520  -27.4950 C   0  0  0  0  0  0  0  0  0  0  0  0
   -0.9130   22.5960  -27.4630 C   0  0  0  0  0  0  0  0  0  0  0  0
   -0.8440   23.8970  -27.9720 C   0  0  0  0  0  0  0  0  0  0  0  0
   -1.8320   24.3690  -28.8390 C   0  0  0  0  0  0  0  0  0  0  0  0
   -1.7430   25.6730  -29.3140 O   0  0  0  0  0  0  0  0  0  0  0  0
   -2.5071   21.3572  -32.8998 H   0  0  0  0  0  0  0  0  0  0  0  0
   -3.3406   19.1528  -33.7075 H   0  0  0  0  0  0  0  0  0  0  0  0
   -3.9177   16.8106  -35.0105 H   0  0  0  0  0  0  0  0  0  0  0  0
   -3.0633   17.5846  -33.6165 H   0  0  0  0  0  0  0  0  0  0  0  0
   -3.0350   14.7618  -34.5431 H   0  0  0  0  0  0  0  0  0  0  0  0
   -1.8410   15.6839  -33.5483 H   0  0  0  0  0  0  0  0  0  0  0  0
   -4.6910   13.5155  -33.4357 H   0  0  0  0  0  0  0  0  0  0  0  0
   -5.0906   14.0236  -31.7335 H   0  0  0  0  0  0  0  0  0  0  0  0
   -5.8896   15.2444  -34.2916 H   0  0  0  0  0  0  0  0  0  0  0  0
   -6.5435   15.4881  -32.6320 H   0  0  0  0  0  0  0  0  0  0  0  0
   -7.3882   20.3108  -32.7023 H   0  0  0  0  0  0  0  0  0  0  0  0
   -6.5616   22.5307  -31.9191 H   0  0  0  0  0  0  0  0  0  0  0  0
   -3.7806   21.5470  -29.0116 H   0  0  0  0  0  0  0  0  0  0  0  0
   -1.2532   19.8745  -30.1349 H   0  0  0  0  0  0  0  0  0  0  0  0
   -0.1987   20.6836  -28.9605 H   0  0  0  0  0  0  0  0  0  0  0  0
    0.2908   18.2140  -30.6061 H   0  0  0  0  0  0  0  0  0  0  0  0
    1.4723   19.3716  -29.9837 H   0  0  0  0  0  0  0  0  0  0  0  0
    0.7047   16.8223  -28.8324 H   0  0  0  0  0  0  0  0  0  0  0  0
    1.8431   17.9823  -28.1375 H   0  0  0  0  0  0  0  0  0  0  0  0
   -0.6572   17.3463  -27.0418 H   0  0  0  0  0  0  0  0  0  0  0  0
    0.2121   18.8527  -26.6854 H   0  0  0  0  0  0  0  0  0  0  0  0
   -0.1355   22.2358  -26.7732 H   0  0  0  0  0  0  0  0  0  0  0  0
   -0.0071   24.5519  -27.6879 H   0  0  0  0  0  0  0  0  0  0  0  0
  1  2  2  0
  2  3  2  0
  2  4  1  0
  4  5  1  0
  5  6  2  0
  6  7  1  0
  7  8  2  0
  8  9  1  0
  9 10  2  0
  9 11  2  0
  9 12  1  0
 12 13  1  0
 13 14  1  0
 14 15  1  0
 15 16  1  0
 16 17  1  0
  8 18  1  0
 18 19  2  0
  2 20  1  0
 20 21  2  0
 21 22  1  0
 22 23  1  0
 23 24  2  0
 23 25  2  0
 23 26  1  0
 26 27  1  0
 27 28  1  0
 28 29  1  0
 29 30  1  0
 22 31  2  0
 31 32  1  0
 32 33  2  0
 33 34  1  0
 19  5  1  0
 33 20  1  0
 17 12  1  0
 30 26  1  0
  6 35  1  0
  7 36  1  0
 13 37  1  0
 13 38  1  0
 14 39  1  0
 14 40  1  0
 16 41  1  0
 16 42  1  0
 17 43  1  0
 17 44  1  0
 18 45  1  0
 19 46  1  0
 21 47  1  0
 27 48  1  0
 27 49  1  0
 28 50  1  0
 28 51  1  0
 29 52  1  0
 29 53  1  0
 30 54  1  0
 30 55  1  0
 31 56  1  0
 32 57  1  0
M  CHG  2   4  -1  34  -1
M  END
>  <UniqueID>  (3) 
3

>  <SMILES>  (3) 
O=S(=O)([N-]c1ccc(S(=O)(=O)N2CCOCC2)cc1)c1cc(S(=O)(=O)N2CCCC2)ccc1[O-]

>  <Energy>  (3) 
73.66667046015371

>  <Genealogy>  (3) 
O=S(=O)([N-]c1ccc(S(=O)(=O)N2CCOCC2)cc1)c1cc(S(=O)(=O)N2CCCC2)ccc1[O-] (protonated)
O=S(=O)([N-]c1ccc(S(=O)(=O)N2CCOCC2)cc1)c1cc(S(=O)(=O)N2CCCC2)ccc1[O-] (3D coordinates assigned)
O=S(=O)([N-]c1ccc(S(=O)(=O)N2CCOCC2)cc1)c1cc(S(=O)(=O)N2CCCC2)ccc1[O-] (nonaromatic ring conformer: 73.66667046015371 kcal/mol)

>  <smiles>  (3) 
O=S(=O)(Nc1ccc(S(=O)(=O)N2CCOCC2)cc1)c1cc(S(=O)(=O)N2CCCC2)ccc1O

>  <score_type>  (3) 
oracle

>  <origin>  (3) 
adgpu

>  <m_score__min__energy>  (3) 
-13.75

>  <m_primary>  (3) 
energy

$$$$
3:0
     RDKit          3D

 52 55  0  0  0  0  0  0  0  0999 V2000
   -6.6450   24.1850  -31.9230 C   0  0  0  0  0  0  0  0  0  0  0  0
   -7.8580   23.6400  -31.2920 N   0  0  0  0  0  0  0  0  0  0  0  0
   -8.7380   23.0180  -32.3110 C   0  0  0  0  0  0  0  0  0  0  0  0
   -9.6580   21.9500  -31.6970 C   0  0  0  0  0  0  0  0  0  0  0  0
   -8.8980   20.8560  -31.0470 N   0  0  0  0  0  0  0  0  0  0  0  0
   -8.7680   19.4640  -32.0980 S   0  0  0  0  0  0  0  0  0  0  0  0
   -9.3360   18.2500  -31.4160 O   0  0  0  0  0  0  0  0  0  0  0  0
   -9.5440   19.7070  -33.3630 O   0  0  0  0  0  0  0  0  0  0  0  0
   -7.0810   19.1780  -32.5200 C   0  0  0  0  0  0  0  0  0  0  0  0
   -6.4380   20.0220  -33.4350 C   0  0  0  0  0  0  0  0  0  0  0  0
   -5.1040   19.7920  -33.7900 C   0  0  0  0  0  0  0  0  0  0  0  0
   -4.3950   18.7230  -33.2200 C   0  0  0  0  0  0  0  0  0  0  0  0
   -2.9770   18.4430  -33.6310 C   0  0  0  0  0  0  0  0  0  0  0  0
   -2.3560   19.6770  -34.0960 N   0  0  0  0  0  0  0  0  0  0  0  0
   -1.8850   20.6910  -33.2060 C   0  0  0  0  0  0  0  0  0  0  0  0
   -1.0660   21.5580  -33.6160 O   0  0  0  0  0  0  0  0  0  0  0  0
   -2.3870   20.7340  -31.8630 N   0  0  0  0  0  0  0  0  0  0  0  0
   -1.9200   21.6490  -30.8560 C   0  0  0  0  0  0  0  0  0  0  0  0
   -0.8130   21.3540  -30.0240 C   0  0  0  0  0  0  0  0  0  0  0  0
   -0.3920   22.2750  -29.0340 C   0  0  0  0  0  0  0  0  0  0  0  0
   -1.0740   23.4900  -28.8520 C   0  0  0  0  0  0  0  0  0  0  0  0
   -2.1720   23.7450  -29.6690 C   0  0  0  0  0  0  0  0  0  0  0  0
   -2.9590   24.8330  -29.6730 N   0  0  0  0  0  0  0  0  0  0  0  0
   -3.8730   24.6550  -30.6230 N   0  0  0  0  0  0  0  0  0  0  0  0
   -3.6660   23.4580  -31.2220 C   0  0  0  0  0  0  0  0  0  0  0  0
   -2.5820   22.8590  -30.6240 C   0  0  0  0  0  0  0  0  0  0  0  0
   -5.0420   17.8780  -32.3040 C   0  0  0  0  0  0  0  0  0  0  0  0
   -6.3750   18.1070  -31.9520 C   0  0  0  0  0  0  0  0  0  0  0  0
   -7.5520   21.2590  -30.5850 C   0  0  0  0  0  0  0  0  0  0  0  0
   -7.5200   22.7360  -30.1650 C   0  0  0  0  0  0  0  0  0  0  0  0
   -5.9373   24.5030  -31.1432 H   0  0  0  0  0  0  0  0  0  0  0  0
   -6.1775   23.4104  -32.5487 H   0  0  0  0  0  0  0  0  0  0  0  0
   -6.9137   25.0489  -32.5487 H   0  0  0  0  0  0  0  0  0  0  0  0
   -9.3590   23.8010  -32.7707 H   0  0  0  0  0  0  0  0  0  0  0  0
   -8.0992   22.5283  -33.0608 H   0  0  0  0  0  0  0  0  0  0  0  0
  -10.3018   22.4286  -30.9444 H   0  0  0  0  0  0  0  0  0  0  0  0
  -10.2505   21.5087  -32.5120 H   0  0  0  0  0  0  0  0  0  0  0  0
   -6.9840   20.8689  -33.8762 H   0  0  0  0  0  0  0  0  0  0  0  0
   -4.6093   20.4513  -34.5184 H   0  0  0  0  0  0  0  0  0  0  0  0
   -2.4157   18.0513  -32.7699 H   0  0  0  0  0  0  0  0  0  0  0  0
   -2.9690   17.6991  -34.4413 H   0  0  0  0  0  0  0  0  0  0  0  0
   -3.2080   20.1290  -31.6380 H   0  0  0  0  0  0  0  0  0  0  0  0
   -0.2758   20.4021  -30.1475 H   0  0  0  0  0  0  0  0  0  0  0  0
    0.4764   22.0372  -28.4021 H   0  0  0  0  0  0  0  0  0  0  0  0
   -0.7514   24.2148  -28.0901 H   0  0  0  0  0  0  0  0  0  0  0  0
   -4.2623   23.0373  -32.0451 H   0  0  0  0  0  0  0  0  0  0  0  0
   -4.4968   17.0314  -31.8612 H   0  0  0  0  0  0  0  0  0  0  0  0
   -6.8721   17.4454  -31.2273 H   0  0  0  0  0  0  0  0  0  0  0  0
   -7.2684   20.6362  -29.7238 H   0  0  0  0  0  0  0  0  0  0  0  0
   -6.8459   21.1214  -31.4171 H   0  0  0  0  0  0  0  0  0  0  0  0
   -8.2474   22.8909  -29.3546 H   0  0  0  0  0  0  0  0  0  0  0  0
   -6.4987   22.9734  -29.8325 H   0  0  0  0  0  0  0  0  0  0  0  0
  1  2  1  0
  2  3  1  0
  3  4  1  0
  4  5  1  0
  5  6  1  0
  6  7  2  0
  6  8  2  0
  6  9  1  0
  9 10  2  0
 10 11  1  0
 11 12  2  0
 12 13  1  0
 13 14  1  0
 14 15  1  0
 15 16  2  0
 15 17  1  0
 17 18  1  0
 18 19  2  0
 19 20  1  0
 20 21  2  0
 21 22  1  0
 22 23  1  0
 23 24  1  0
 24 25  2  0
 25 26  1  0
 12 27  1  0
 27 28  2  0
  5 29  1  0
 29 30  1  0
 30  2  1  0
 28  9  1  0
 26 18  1  0
 26 22  2  0
  1 31  1  0
  1 32  1  0
  1 33  1  0
  3 34  1  0
  3 35  1  0
  4 36  1  0
  4 37  1  0
 10 38  1  0
 11 39  1  0
 13 40  1  0
 13 41  1  0
 17 42  1  0
 19 43  1  0
 20 44  1  0
 21 45  1  0
 25 46  1  0
 27 47  1  0
 28 48  1  0
 29 49  1  0
 29 50  1  0
 30 51  1  0
 30 52  1  0
M  CHG  2  14  -1  23  -1
M  END
>  <UniqueID>  (4) 
4

>  <SMILES>  (4) 
CN1CCN(S(=O)(=O)c2ccc(C[N-]C(=O)Nc3cccc4[n-]ncc34)cc2)CC1

>  <Energy>  (4) 
103.73939620212568

>  <Genealogy>  (4) 
CN1CCN(S(=O)(=O)c2ccc(C[N-]C(=O)Nc3cccc4[n-]ncc34)cc2)CC1 (protonated)
CN1CCN(S(=O)(=O)c2ccc(C[N-]C(=O)Nc3cccc4[n-]ncc34)cc2)CC1 (3D coordinates assigned)
CN1CCN(S(=O)(=O)c2ccc(C[N-]C(=O)Nc3cccc4[n-]ncc34)cc2)CC1 (nonaromatic ring conformer: 103.73939620212568 kcal/mol)

>  <smiles>  (4) 
CN1CCN(S(=O)(=O)c2ccc(CNC(=O)Nc3cccc4[nH]ncc34)cc2)CC1

>  <score_type>  (4) 
oracle

>  <origin>  (4) 
adgpu

>  <m_score__min__energy>  (4) 
-11.859999999999999

>  <m_primary>  (4) 
energy

$$$$
4:0
     RDKit          3D

 42 43  0  0  0  0  0  0  0  0999 V2000
   -2.7930   21.8810  -32.5230 C   0  0  0  0  0  0  0  0  0  0  0  0
   -2.4430   20.5900  -33.1930 C   0  0  0  0  0  0  0  0  0  0  0  0
   -1.1460   20.3650  -33.6610 C   0  0  0  0  0  0  0  0  0  0  0  0
   -0.8320   19.1500  -34.2860 C   0  0  0  0  0  0  0  0  0  0  0  0
    0.5620   18.9180  -34.8040 C   0  0  0  0  0  0  0  0  0  0  0  0
   -1.8340   18.1680  -34.4280 C   0  0  0  0  0  0  0  0  0  0  0  0
   -1.4810   16.6060  -35.2840 S   0  0  0  0  0  0  0  0  0  0  0  0
   -3.1200   18.4280  -33.9180 C   0  0  0  0  0  0  0  0  0  0  0  0
   -4.4470   17.2190  -34.0410 S   0  0  0  0  0  0  0  0  0  0  0  0
   -5.6600   18.3700  -34.7870 C   0  0  0  0  0  0  0  0  0  0  0  0
   -6.2560   19.3330  -33.7630 C   0  0  0  0  0  0  0  0  0  0  0  0
   -7.1270   18.6100  -32.8400 N   0  0  0  0  0  0  0  0  0  0  0  0
   -8.2670   19.7070  -32.1230 S   0  0  0  0  0  0  0  0  0  0  0  0
   -9.2480   20.1510  -33.1710 O   0  0  0  0  0  0  0  0  0  0  0  0
   -9.0250   19.0130  -31.0260 O   0  0  0  0  0  0  0  0  0  0  0  0
   -7.4300   21.1180  -31.4830 C   0  0  0  0  0  0  0  0  0  0  0  0
   -6.0450   21.0880  -31.2640 C   0  0  0  0  0  0  0  0  0  0  0  0
   -5.3860   22.2210  -30.7750 C   0  0  0  0  0  0  0  0  0  0  0  0
   -6.1060   23.3910  -30.5000 C   0  0  0  0  0  0  0  0  0  0  0  0
   -5.2700   24.8200  -29.9010 S   0  0  0  0  0  0  0  0  0  0  0  0
   -3.8430   25.0890  -30.8370 N   0  0  0  0  0  0  0  0  0  0  0  0
   -6.1700   26.0190  -30.0070 O   0  0  0  0  0  0  0  0  0  0  0  0
   -4.8970   24.6250  -28.4580 O   0  0  0  0  0  0  0  0  0  0  0  0
   -7.4880   23.4250  -30.7310 C   0  0  0  0  0  0  0  0  0  0  0  0
   -8.1470   22.2940  -31.2210 C   0  0  0  0  0  0  0  0  0  0  0  0
   -3.3870   19.6240  -33.3310 N   0  0  0  0  0  0  0  0  0  0  0  0
   -2.7572   21.7491  -31.4315 H   0  0  0  0  0  0  0  0  0  0  0  0
   -2.0727   22.6566  -32.8224 H   0  0  0  0  0  0  0  0  0  0  0  0
   -3.8064   22.1866  -32.8224 H   0  0  0  0  0  0  0  0  0  0  0  0
   -0.3736   21.1387  -33.5395 H   0  0  0  0  0  0  0  0  0  0  0  0
    1.2537   18.8029  -33.9565 H   0  0  0  0  0  0  0  0  0  0  0  0
    0.5781   18.0048  -35.4171 H   0  0  0  0  0  0  0  0  0  0  0  0
    0.8730   19.7767  -35.4171 H   0  0  0  0  0  0  0  0  0  0  0  0
   -5.1560   18.9551  -35.5704 H   0  0  0  0  0  0  0  0  0  0  0  0
   -6.4831   17.7681  -35.1995 H   0  0  0  0  0  0  0  0  0  0  0  0
   -5.4428   19.8107  -33.1968 H   0  0  0  0  0  0  0  0  0  0  0  0
   -6.8458   20.0978  -34.2895 H   0  0  0  0  0  0  0  0  0  0  0  0
   -5.4755   20.1714  -31.4773 H   0  0  0  0  0  0  0  0  0  0  0  0
   -4.2994   22.1932  -30.6059 H   0  0  0  0  0  0  0  0  0  0  0  0
   -3.8790   26.0780  -31.1700 H   0  0  0  0  0  0  0  0  0  0  0  0
   -8.0557   24.3446  -30.5260 H   0  0  0  0  0  0  0  0  0  0  0  0
   -9.2316   22.3267  -31.4016 H   0  0  0  0  0  0  0  0  0  0  0  0
  1  2  1  0
  2  3  2  0
  3  4  1  0
  4  5  1  0
  4  6  2  0
  6  7  1  0
  6  8  1  0
  8  9  1  0
  9 10  1  0
 10 11  1  0
 11 12  1  0
 12 13  1  0
 13 14  2  0
 13 15  2  0
 13 16  1  0
 16 17  2  0
 17 18  1  0
 18 19  2  0
 19 20  1  0
 20 21  1  0
 20 22  2  0
 20 23  2  0
 19 24  1  0
 24 25  2  0
  8 26  2  0
 26  2  1  0
 25 16  1  0
  1 27  1  0
  1 28  1  0
  1 29  1  0
  3 30  1  0
  5 31  1  0
  5 32  1  0
  5 33  1  0
 10 34  1  0
 10 35  1  0
 11 36  1  0
 11 37  1  0
 17 38  1  0
 18 39  1  0
 21 40  1  0
 24 41  1  0
 25 42  1  0
M  CHG  3   7  -1  12  -1  21  -1
M  END
>  <UniqueID>  (5) 
5

>  <SMILES>  (5) 
Cc1cc(C)c([S-])c(SCC[N-]S(=O)(=O)c2ccc(S([NH-])(=O)=O)cc2)n1

>  <Energy>  (5) 
35.02979144746268

>  <Genealogy>  (5) 
Cc1cc(C)c([S-])c(SCC[N-]S(=O)(=O)c2ccc(S([NH-])(=O)=O)cc2)n1 (protonated)
Cc1cc(C)c([S-])c(SCC[N-]S(=O)(=O)c2ccc(S([NH-])(=O)=O)cc2)n1 (3D coordinates assigned)
Cc1cc(C)c([S-])c(SCC[N-]S(=O)(=O)c2ccc(S([NH-])(=O)=O)cc2)n1 (optimized conformer: 35.02979144746268 kcal/mol)

>  <smiles>  (5) 
Cc1cc(C)c(S)c(SCCNS(=O)(=O)c2ccc(S(N)(=O)=O)cc2)n1

>  <score_type>  (5) 
oracle

>  <origin>  (5) 
adgpu

>  <m_score__min__energy>  (5) 
-10.41

>  <m_primary>  (5) 
energy

$$$$
5:0
     RDKit          3D

 60 64  0  0  0  0  0  0  0  0999 V2000
   -4.9960   24.7430  -31.4300 O   0  0  0  0  0  0  0  0  0  0  0  0
   -4.5710   24.2140  -30.3680 C   0  0  0  0  0  0  0  0  0  0  0  0
   -5.0460   22.8390  -29.9630 C   0  0  0  0  0  0  0  0  0  0  0  0
   -5.3140   21.9840  -31.1360 N   0  0  0  0  0  0  0  0  0  0  0  0
   -4.1960   21.3750  -31.8440 C   0  0  0  0  0  0  0  0  0  0  0  0
   -2.9360   22.0120  -31.8920 C   0  0  0  0  0  0  0  0  0  0  0  0
   -1.8610   21.4250  -32.5660 C   0  0  0  0  0  0  0  0  0  0  0  0
   -2.0160   20.1920  -33.1940 C   0  0  0  0  0  0  0  0  0  0  0  0
   -3.2480   19.5400  -33.1520 C   0  0  0  0  0  0  0  0  0  0  0  0
   -4.3330   20.1250  -32.4840 C   0  0  0  0  0  0  0  0  0  0  0  0
   -5.8600   19.2840  -32.4330 S   0  0  0  0  0  0  0  0  0  0  0  0
   -6.1310   18.6400  -33.7650 O   0  0  0  0  0  0  0  0  0  0  0  0
   -5.8510   18.2490  -31.3440 O   0  0  0  0  0  0  0  0  0  0  0  0
   -7.0700   20.4980  -32.1100 C   0  0  0  0  0  0  0  0  0  0  0  0
   -8.4080   20.2380  -32.4330 C   0  0  0  0  0  0  0  0  0  0  0  0
   -9.3900   21.1950  -32.1810 C   0  0  0  0  0  0  0  0  0  0  0  0
   -9.0400   22.4140  -31.6020 C   0  0  0  0  0  0  0  0  0  0  0  0
   -7.7100   22.6760  -31.2680 C   0  0  0  0  0  0  0  0  0  0  0  0
   -6.6970   21.7220  -31.5150 C   0  0  0  0  0  0  0  0  0  0  0  0
   -3.6370   24.9430  -29.5640 N   0  0  0  0  0  0  0  0  0  0  0  0
   -2.5330   24.3380  -28.8870 C   0  0  0  0  0  0  0  0  0  0  0  0
   -2.6360   23.0030  -28.4800 C   0  0  0  0  0  0  0  0  0  0  0  0
   -1.5600   22.3670  -27.8480 C   0  0  0  0  0  0  0  0  0  0  0  0
   -1.6900   20.6770  -27.3570 S   0  0  0  0  0  0  0  0  0  0  0  0
   -1.5420   20.5810  -25.8630 O   0  0  0  0  0  0  0  0  0  0  0  0
   -3.0540   20.1600  -27.7220 O   0  0  0  0  0  0  0  0  0  0  0  0
   -0.4720   19.6870  -28.1240 N   0  0  0  0  0  0  0  0  0  0  0  0
   -0.6430   19.7150  -29.5910 C   0  0  0  0  0  0  0  0  0  0  0  0
    0.2360   18.6620  -30.3050 C   0  0  0  0  0  0  0  0  0  0  0  0
    1.3090   18.0900  -29.3730 C   0  0  0  0  0  0  0  0  0  0  0  0
    0.6780   17.4950  -28.1030 C   0  0  0  0  0  0  0  0  0  0  0  0
   -0.5380   18.3070  -27.6140 C   0  0  0  0  0  0  0  0  0  0  0  0
   -0.3780   23.0810  -27.6100 C   0  0  0  0  0  0  0  0  0  0  0  0
   -0.2770   24.4200  -27.9950 C   0  0  0  0  0  0  0  0  0  0  0  0
   -1.3480   25.0590  -28.6290 C   0  0  0  0  0  0  0  0  0  0  0  0
   -1.2210   26.4040  -28.9760 O   0  0  0  0  0  0  0  0  0  0  0  0
   -4.2711   22.3624  -29.3446 H   0  0  0  0  0  0  0  0  0  0  0  0
   -5.9850   22.9533  -29.4016 H   0  0  0  0  0  0  0  0  0  0  0  0
   -2.7989   22.9825  -31.3926 H   0  0  0  0  0  0  0  0  0  0  0  0
   -0.8891   21.9391  -32.6003 H   0  0  0  0  0  0  0  0  0  0  0  0
   -1.1677   19.7328  -33.7226 H   0  0  0  0  0  0  0  0  0  0  0  0
   -3.3689   18.5638  -33.6444 H   0  0  0  0  0  0  0  0  0  0  0  0
   -8.6849   19.2752  -32.8872 H   0  0  0  0  0  0  0  0  0  0  0  0
  -10.4393   20.9886  -32.4386 H   0  0  0  0  0  0  0  0  0  0  0  0
   -9.8138   23.1713  -31.4078 H   0  0  0  0  0  0  0  0  0  0  0  0
   -7.4467   23.6389  -30.8059 H   0  0  0  0  0  0  0  0  0  0  0  0
   -3.5694   22.4488  -28.6579 H   0  0  0  0  0  0  0  0  0  0  0  0
   -1.6982   19.5141  -29.8279 H   0  0  0  0  0  0  0  0  0  0  0  0
   -0.3332   20.7087  -29.9468 H   0  0  0  0  0  0  0  0  0  0  0  0
   -0.4062   17.8404  -30.6551 H   0  0  0  0  0  0  0  0  0  0  0  0
    0.7427   19.1546  -31.1480 H   0  0  0  0  0  0  0  0  0  0  0  0
    1.8620   17.3007  -29.9033 H   0  0  0  0  0  0  0  0  0  0  0  0
    1.9866   18.9048  -29.0781 H   0  0  0  0  0  0  0  0  0  0  0  0
    0.3522   16.4668  -28.3190 H   0  0  0  0  0  0  0  0  0  0  0  0
    1.4383   17.5189  -27.3084 H   0  0  0  0  0  0  0  0  0  0  0  0
   -1.4612   17.8306  -27.9757 H   0  0  0  0  0  0  0  0  0  0  0  0
   -0.5316   18.3321  -26.5143 H   0  0  0  0  0  0  0  0  0  0  0  0
    0.4725   22.5858  -27.1187 H   0  0  0  0  0  0  0  0  0  0  0  0
    0.6515   24.9761  -27.7982 H   0  0  0  0  0  0  0  0  0  0  0  0
   -2.0040   27.0440  -28.9680 H   0  0  0  0  0  0  0  0  0  0  0  0
  1  2  2  0
  2  3  1  0
  3  4  1  0
  4  5  1  0
  5  6  2  0
  6  7  1  0
  7  8  2  0
  8  9  1  0
  9 10  2  0
 10 11  1  0
 11 12  2  0
 11 13  2  0
 11 14  1  0
 14 15  2  0
 15 16  1  0
 16 17  2  0
 17 18  1  0
 18 19  2  0
  2 20  1  0
 20 21  1  0
 21 22  2  0
 22 23  1  0
 23 24  1  0
 24 25  2  0
 24 26  2  0
 24 27  1  0
 27 28  1  0
 28 29  1  0
 29 30  1  0
 30 31  1  0
 31 32  1  0
 23 33  2  0
 33 34  1  0
 34 35  2  0
 35 36  1  0
 19  4  1  0
 35 21  1  0
 10  5  1  0
 19 14  1  0
 32 27  1  0
  3 37  1  0
  3 38  1  0
  6 39  1  0
  7 40  1  0
  8 41  1  0
  9 42  1  0
 15 43  1  0
 16 44  1  0
 17 45  1  0
 18 46  1  0
 22 47  1  0
 28 48  1  0
 28 49  1  0
 29 50  1  0
 29 51  1  0
 30 52  1  0
 30 53  1  0
 31 54  1  0
 31 55  1  0
 32 56  1  0
 32 57  1  0
 33 58  1  0
 34 59  1  0
 36 60  1  0
M  CHG  1  20  -1
M  END
>  <UniqueID>  (6) 
6

>  <SMILES>  (6) 
O=C(CN1c2ccccc2S(=O)(=O)c2ccccc21)[N-]c1cc(S(=O)(=O)N2CCCCC2)ccc1O

>  <Energy>  (6) 
87.55042732182226

>  <Genealogy>  (6) 
O=C(CN1c2ccccc2S(=O)(=O)c2ccccc21)[N-]c1cc(S(=O)(=O)N2CCCCC2)ccc1O (protonated)
O=C(CN1c2ccccc2S(=O)(=O)c2ccccc21)[N-]c1cc(S(=O)(=O)N2CCCCC2)ccc1O (3D coordinates assigned)
O=C(CN1c2ccccc2S(=O)(=O)c2ccccc21)[N-]c1cc(S(=O)(=O)N2CCCCC2)ccc1O (nonaromatic ring conformer: 87.55042732182226 kcal/mol)

>  <smiles>  (6) 
O=C(CN1c2ccccc2S(=O)(=O)c2ccccc21)Nc1cc(S(=O)(=O)N2CCCCC2)ccc1O

>  <score_type>  (6) 
oracle

>  <origin>  (6) 
adgpu

>  <m_score__min__energy>  (6) 
-14.24

>  <m_primary>  (6) 
energy

$$$$
6:0
     RDKit          3D

 57 60  0  0  0  0  0  0  0  0999 V2000
   -5.4500   25.1810  -28.5760 O   0  0  0  0  0  0  0  0  0  0  0  0
   -5.1400   24.9580  -30.0290 S   0  0  0  0  0  0  0  0  0  0  0  0
   -5.7350   26.0890  -30.8200 O   0  0  0  0  0  0  0  0  0  0  0  0
   -3.4270   24.9260  -30.2870 N   0  0  0  0  0  0  0  0  0  0  0  0
   -2.4970   24.3050  -29.3920 C   0  0  0  0  0  0  0  0  0  0  0  0
   -2.6650   22.9760  -28.9650 C   0  0  0  0  0  0  0  0  0  0  0  0
   -1.7600   22.4030  -28.0580 C   0  0  0  0  0  0  0  0  0  0  0  0
   -2.0370   20.7730  -27.4260 S   0  0  0  0  0  0  0  0  0  0  0  0
   -3.5120   20.4840  -27.4750 O   0  0  0  0  0  0  0  0  0  0  0  0
   -1.6070   20.7310  -25.9860 O   0  0  0  0  0  0  0  0  0  0  0  0
   -1.1710   19.5240  -28.2900 N   0  0  0  0  0  0  0  0  0  0  0  0
    0.0010   20.0440  -28.9860 C   0  0  0  0  0  0  0  0  0  0  0  0
    0.9520   18.8690  -29.1600 C   0  0  0  0  0  0  0  0  0  0  0  0
    0.5060   17.8330  -28.1390 C   0  0  0  0  0  0  0  0  0  0  0  0
   -0.6740   18.4640  -27.4140 C   0  0  0  0  0  0  0  0  0  0  0  0
   -0.6650   23.1530  -27.6080 C   0  0  0  0  0  0  0  0  0  0  0  0
   -0.4940   24.4740  -28.0320 C   0  0  0  0  0  0  0  0  0  0  0  0
   -1.4130   25.0540  -28.9100 C   0  0  0  0  0  0  0  0  0  0  0  0
   -1.2380   26.3730  -29.3160 O   0  0  0  0  0  0  0  0  0  0  0  0
   -5.8190   23.4410  -30.6040 C   0  0  0  0  0  0  0  0  0  0  0  0
   -7.1200   23.0820  -30.2350 C   0  0  0  0  0  0  0  0  0  0  0  0
   -7.7010   21.9180  -30.7410 C   0  0  0  0  0  0  0  0  0  0  0  0
   -6.9880   21.1020  -31.6270 C   0  0  0  0  0  0  0  0  0  0  0  0
   -7.7480   19.6660  -32.3190 S   0  0  0  0  0  0  0  0  0  0  0  0
   -8.5420   18.9610  -31.2550 O   0  0  0  0  0  0  0  0  0  0  0  0
   -8.7010   20.0880  -33.4070 O   0  0  0  0  0  0  0  0  0  0  0  0
   -6.5650   18.5600  -32.9740 N   0  0  0  0  0  0  0  0  0  0  0  0
   -6.1210   19.0120  -34.2990 C   0  0  0  0  0  0  0  0  0  0  0  0
   -5.0620   18.0400  -34.8590 C   0  0  0  0  0  0  0  0  0  0  0  0
   -4.9190   16.8800  -34.0590 O   0  0  0  0  0  0  0  0  0  0  0  0
   -6.1810   16.2760  -33.8660 C   0  0  0  0  0  0  0  0  0  0  0  0
   -7.1180   17.1980  -33.0570 C   0  0  0  0  0  0  0  0  0  0  0  0
   -5.6810   21.4540  -31.9870 C   0  0  0  0  0  0  0  0  0  0  0  0
   -5.1000   22.6210  -31.4820 C   0  0  0  0  0  0  0  0  0  0  0  0
   -3.5100   22.3823  -29.3437 H   0  0  0  0  0  0  0  0  0  0  0  0
   -0.2875   20.4488  -29.9673 H   0  0  0  0  0  0  0  0  0  0  0  0
    0.4733   20.8594  -28.4185 H   0  0  0  0  0  0  0  0  0  0  0  0
    0.8779   18.4616  -30.1791 H   0  0  0  0  0  0  0  0  0  0  0  0
    2.0005   19.1659  -29.0100 H   0  0  0  0  0  0  0  0  0  0  0  0
    0.1973   16.9047  -28.6420 H   0  0  0  0  0  0  0  0  0  0  0  0
    1.3171   17.5654  -27.4458 H   0  0  0  0  0  0  0  0  0  0  0  0
   -1.4595   17.7141  -27.2392 H   0  0  0  0  0  0  0  0  0  0  0  0
   -0.3757   18.8617  -26.4327 H   0  0  0  0  0  0  0  0  0  0  0  0
    0.0628   22.7004  -26.9184 H   0  0  0  0  0  0  0  0  0  0  0  0
    0.3663   25.0583  -27.6735 H   0  0  0  0  0  0  0  0  0  0  0  0
   -7.6880   23.7205  -29.5424 H   0  0  0  0  0  0  0  0  0  0  0  0
   -8.7228   21.6410  -30.4424 H   0  0  0  0  0  0  0  0  0  0  0  0
   -6.9834   19.0440  -34.9811 H   0  0  0  0  0  0  0  0  0  0  0  0
   -5.6795   20.0155  -34.2096 H   0  0  0  0  0  0  0  0  0  0  0  0
   -5.3623   17.7357  -35.8725 H   0  0  0  0  0  0  0  0  0  0  0  0
   -4.0951   18.5644  -34.8663 H   0  0  0  0  0  0  0  0  0  0  0  0
   -6.6358   16.0720  -34.8466 H   0  0  0  0  0  0  0  0  0  0  0  0
   -6.0395   15.3407  -33.3046 H   0  0  0  0  0  0  0  0  0  0  0  0
   -8.1004   17.2368  -33.5504 H   0  0  0  0  0  0  0  0  0  0  0  0
   -7.2176   16.7945  -32.0385 H   0  0  0  0  0  0  0  0  0  0  0  0
   -5.1090   20.8092  -32.6703 H   0  0  0  0  0  0  0  0  0  0  0  0
   -4.0759   22.8955  -31.7751 H   0  0  0  0  0  0  0  0  0  0  0  0
  1  2  2  0
  2  3  2  0
  2  4  1  0
  4  5  1  0
  5  6  2  0
  6  7  1  0
  7  8  1  0
  8  9  2  0
  8 10  2  0
  8 11  1  0
 11 12  1  0
 12 13  1  0
 13 14  1  0
 14 15  1  0
  7 16  2  0
 16 17  1  0
 17 18  2  0
 18 19  1  0
  2 20  1  0
 20 21  2  0
 21 22  1  0
 22 23  2  0
 23 24  1  0
 24 25  2  0
 24 26  2  0
 24 27  1  0
 27 28  1  0
 28 29  1  0
 29 30  1  0
 30 31  1  0
 31 32  1  0
 23 33  1  0
 33 34  2  0
 18  5  1  0
 34 20  1  0
 15 11  1  0
 32 27  1  0
  6 35  1  0
 12 36  1  0
 12 37  1  0
 13 38  1  0
 13 39  1  0
 14 40  1  0
 14 41  1  0
 15 42  1  0
 15 43  1  0
 16 44  1  0
 17 45  1  0
 21 46  1  0
 22 47  1  0
 28 48  1  0
 28 49  1  0
 29 50  1  0
 29 51  1  0
 31 52  1  0
 31 53  1  0
 32 54  1  0
 32 55  1  0
 33 56  1  0
 34 57  1  0
M  CHG  2   4  -1  19  -1
M  END
>  <UniqueID>  (7) 
7

>  <SMILES>  (7) 
O=S(=O)([N-]c1cc(S(=O)(=O)N2CCCC2)ccc1[O-])c1ccc(S(=O)(=O)N2CCOCC2)cc1

>  <Energy>  (7) 
70.31220688769736

>  <Genealogy>  (7) 
O=S(=O)([N-]c1cc(S(=O)(=O)N2CCCC2)ccc1[O-])c1ccc(S(=O)(=O)N2CCOCC2)cc1 (protonated)
O=S(=O)([N-]c1cc(S(=O)(=O)N2CCCC2)ccc1[O-])c1ccc(S(=O)(=O)N2CCOCC2)cc1 (3D coordinates assigned)
O=S(=O)([N-]c1cc(S(=O)(=O)N2CCCC2)ccc1[O-])c1ccc(S(=O)(=O)N2CCOCC2)cc1 (nonaromatic ring conformer: 70.31220688769736 kcal/mol)

>  <smiles>  (7) 
O=S(=O)(Nc1cc(S(=O)(=O)N2CCCC2)ccc1O)c1ccc(S(=O)(=O)N2CCOCC2)cc1

>  <score_type>  (7) 
oracle

>  <origin>  (7) 
adgpu

>  <m_score__min__energy>  (7) 
-15.85

>  <m_primary>  (7) 
energy

$$$$
7:0
     RDKit          3D

 67 71  0  0  0  0  0  0  0  0999 V2000
   -5.2200   15.8600  -34.0980 C   0  0  0  0  0  0  0  0  0  0  0  0
   -5.9640   17.1150  -33.7560 C   0  0  0  0  0  0  0  0  0  0  0  0
   -6.8040   17.1510  -32.6340 C   0  0  0  0  0  0  0  0  0  0  0  0
   -7.4670   18.3330  -32.2850 C   0  0  0  0  0  0  0  0  0  0  0  0
   -7.2840   19.5000  -33.0460 C   0  0  0  0  0  0  0  0  0  0  0  0
   -8.0310   20.7610  -32.6890 C   0  0  0  0  0  0  0  0  0  0  0  0
   -7.1550   21.7200  -31.9760 N   0  0  0  0  0  0  0  0  0  0  0  0
   -7.8140   22.2070  -30.7420 C   0  0  0  0  0  0  0  0  0  0  0  0
   -6.9250   23.2030  -29.9460 C   0  0  0  0  0  0  0  0  0  0  0  0
   -5.4460   23.0790  -30.2170 C   0  0  0  0  0  0  0  0  0  0  0  0
   -4.5660   24.0080  -29.6510 C   0  0  0  0  0  0  0  0  0  0  0  0
   -3.1790   23.8930  -29.8380 C   0  0  0  0  0  0  0  0  0  0  0  0
   -2.2750   24.8480  -29.2500 N   0  0  0  0  0  0  0  0  0  0  0  0
   -1.3310   24.4770  -27.8390 S   0  0  0  0  0  0  0  0  0  0  0  0
   -0.0600   25.2840  -27.8470 O   0  0  0  0  0  0  0  0  0  0  0  0
   -2.1220   24.8170  -26.6040 O   0  0  0  0  0  0  0  0  0  0  0  0
   -0.9210   22.7640  -27.8720 C   0  0  0  0  0  0  0  0  0  0  0  0
    0.4030   22.3390  -28.0840 C   0  0  0  0  0  0  0  0  0  0  0  0
    0.7180   20.9790  -28.0490 C   0  0  0  0  0  0  0  0  0  0  0  0
   -0.2780   20.0300  -27.7850 C   0  0  0  0  0  0  0  0  0  0  0  0
    0.1230   18.3130  -27.7570 S   0  0  0  0  0  0  0  0  0  0  0  0
    1.5400   18.1610  -27.2740 O   0  0  0  0  0  0  0  0  0  0  0  0
   -0.7920   17.5860  -26.8090 O   0  0  0  0  0  0  0  0  0  0  0  0
   -0.0300   17.6430  -29.3690 N   0  0  0  0  0  0  0  0  0  0  0  0
    1.2480   17.0800  -29.8210 C   0  0  0  0  0  0  0  0  0  0  0  0
    1.9980   18.1620  -30.5840 C   0  0  0  0  0  0  0  0  0  0  0  0
    0.9580   19.2120  -30.9310 C   0  0  0  0  0  0  0  0  0  0  0  0
   -0.3510   18.7030  -30.3310 C   0  0  0  0  0  0  0  0  0  0  0  0
   -1.6030   20.4520  -27.5880 C   0  0  0  0  0  0  0  0  0  0  0  0
   -1.9200   21.8150  -27.6210 C   0  0  0  0  0  0  0  0  0  0  0  0
   -2.6800   22.8270  -30.5970 C   0  0  0  0  0  0  0  0  0  0  0  0
   -1.3120   22.6800  -30.7850 O   0  0  0  0  0  0  0  0  0  0  0  0
   -3.5570   21.8980  -31.1680 C   0  0  0  0  0  0  0  0  0  0  0  0
   -4.9400   22.0370  -31.0090 C   0  0  0  0  0  0  0  0  0  0  0  0
   -5.8850   21.0520  -31.6330 C   0  0  0  0  0  0  0  0  0  0  0  0
   -6.4180   19.4720  -34.1510 C   0  0  0  0  0  0  0  0  0  0  0  0
   -5.7660   18.2870  -34.5080 C   0  0  0  0  0  0  0  0  0  0  0  0
   -4.9173   15.3493  -33.1720 H   0  0  0  0  0  0  0  0  0  0  0  0
   -5.8709   15.1967  -34.6865 H   0  0  0  0  0  0  0  0  0  0  0  0
   -4.3257   16.1127  -34.6865 H   0  0  0  0  0  0  0  0  0  0  0  0
   -6.9426   16.2456  -32.0249 H   0  0  0  0  0  0  0  0  0  0  0  0
   -8.1345   18.3486  -31.4108 H   0  0  0  0  0  0  0  0  0  0  0  0
   -8.4019   21.2315  -33.6115 H   0  0  0  0  0  0  0  0  0  0  0  0
   -8.8672   20.4942  -32.0260 H   0  0  0  0  0  0  0  0  0  0  0  0
   -8.7506   22.7134  -31.0185 H   0  0  0  0  0  0  0  0  0  0  0  0
   -8.0005   21.3360  -30.0966 H   0  0  0  0  0  0  0  0  0  0  0  0
   -7.2371   24.2252  -30.2063 H   0  0  0  0  0  0  0  0  0  0  0  0
   -7.0679   22.9664  -28.8813 H   0  0  0  0  0  0  0  0  0  0  0  0
   -4.9659   24.8393  -29.0517 H   0  0  0  0  0  0  0  0  0  0  0  0
   -2.0000   25.7070  -29.7880 H   0  0  0  0  0  0  0  0  0  0  0  0
    1.1925   23.0800  -28.2779 H   0  0  0  0  0  0  0  0  0  0  0  0
    1.7525   20.6516  -28.2295 H   0  0  0  0  0  0  0  0  0  0  0  0
    1.8410   16.7570  -28.9527 H   0  0  0  0  0  0  0  0  0  0  0  0
    1.0725   16.2087  -30.4692 H   0  0  0  0  0  0  0  0  0  0  0  0
    2.7885   18.5976  -29.9552 H   0  0  0  0  0  0  0  0  0  0  0  0
    2.4874   17.7608  -31.4837 H   0  0  0  0  0  0  0  0  0  0  0  0
    1.2304   20.1830  -30.4917 H   0  0  0  0  0  0  0  0  0  0  0  0
    0.8774   19.3634  -32.0175 H   0  0  0  0  0  0  0  0  0  0  0  0
   -0.8713   19.5259  -29.8191 H   0  0  0  0  0  0  0  0  0  0  0  0
   -1.0068   18.3127  -31.1232 H   0  0  0  0  0  0  0  0  0  0  0  0
   -2.3940   19.7092  -27.4072 H   0  0  0  0  0  0  0  0  0  0  0  0
   -2.9563   22.1416  -27.4494 H   0  0  0  0  0  0  0  0  0  0  0  0
   -3.1561   21.0523  -31.7460 H   0  0  0  0  0  0  0  0  0  0  0  0
   -5.4314   20.6404  -32.5467 H   0  0  0  0  0  0  0  0  0  0  0  0
   -6.0851   20.2404  -30.9180 H   0  0  0  0  0  0  0  0  0  0  0  0
   -6.2514   20.3867  -34.7389 H   0  0  0  0  0  0  0  0  0  0  0  0
   -5.0959   18.2717  -35.3802 H   0  0  0  0  0  0  0  0  0  0  0  0
  1  2  1  0
  2  3  2  0
  3  4  1  0
  4  5  2  0
  5  6  1  0
  6  7  1  0
  7  8  1  0
  8  9  1  0
  9 10  1  0
 10 11  2  0
 11 12  1  0
 12 13  1  0
 13 14  1  0
 14 15  2  0
 14 16  2  0
 14 17  1  0
 17 18  2  0
 18 19  1  0
 19 20  2  0
 20 21  1  0
 21 22  2  0
 21 23  2  0
 21 24  1  0
 24 25  1  0
 25 26  1  0
 26 27  1  0
 27 28  1  0
 20 29  1  0
 29 30  2  0
 12 31  2  0
 31 32  1  0
 31 33  1  0
 33 34  2  0
 34 35  1  0
  5 36  1  0
 36 37  2  0
 37  2  1  0
 35  7  1  0
 34 10  1  0
 30 17  1  0
 28 24  1  0
  1 38  1  0
  1 39  1  0
  1 40  1  0
  3 41  1  0
  4 42  1  0
  6 43  1  0
  6 44  1  0
  8 45  1  0
  8 46  1  0
  9 47  1  0
  9 48  1  0
 11 49  1  0
 13 50  1  0
 18 51  1  0
 19 52  1  0
 25 53  1  0
 25 54  1  0
 26 55  1  0
 26 56  1  0
 27 57  1  0
 27 58  1  0
 28 59  1  0
 28 60  1  0
 29 61  1  0
 30 62  1  0
 33 63  1  0
 35 64  1  0
 35 65  1  0
 36 66  1  0
 37 67  1  0
M  CHG  1  32  -1
M  END
>  <UniqueID>  (8) 
8

>  <SMILES>  (8) 
Cc1ccc(CN2CCc3cc(NS(=O)(=O)c4ccc(S(=O)(=O)N5CCCC5)cc4)c([O-])cc3C2)cc1

>  <Energy>  (8) 
81.0244177219961

>  <Genealogy>  (8) 
Cc1ccc(CN2CCc3cc(NS(=O)(=O)c4ccc(S(=O)(=O)N5CCCC5)cc4)c([O-])cc3C2)cc1 (protonated)
Cc1ccc(CN2CCc3cc(NS(=O)(=O)c4ccc(S(=O)(=O)N5CCCC5)cc4)c([O-])cc3C2)cc1 (3D coordinates assigned)
Cc1ccc(CN2CCc3cc(NS(=O)(=O)c4ccc(S(=O)(=O)N5CCCC5)cc4)c([O-])cc3C2)cc1 (nonaromatic ring conformer: 81.0244177219961 kcal/mol)

>  <smiles>  (8) 
Cc1ccc(CN2CCc3cc(NS(=O)(=O)c4ccc(S(=O)(=O)N5CCCC5)cc4)c(O)cc3C2)cc1

>  <score_type>  (8) 
oracle

>  <origin>  (8) 
adgpu

>  <m_score__min__energy>  (8) 
-15.19

>  <m_primary>  (8) 
energy

$$$$
8:0
     RDKit          3D

 45 47  0  0  0  0  0  0  0  0999 V2000
   -0.7020   28.6720  -25.1390 C   0  0  0  0  0  0  0  0  0  0  0  0
   -0.3870   27.5400  -24.2520 N   0  0  0  0  0  0  0  0  0  0  0  0
   -1.3710   26.4340  -24.3910 C   0  0  0  0  0  0  0  0  0  0  0  0
   -0.8030   25.1620  -25.0510 C   0  0  0  0  0  0  0  0  0  0  0  0
    0.1730   25.5110  -26.0930 N   0  0  0  0  0  0  0  0  0  0  0  0
    0.2320   24.7840  -27.3370 C   0  0  0  0  0  0  0  0  0  0  0  0
    1.3480   24.5870  -27.8920 O   0  0  0  0  0  0  0  0  0  0  0  0
   -0.9870   24.2550  -27.9880 C   0  0  0  0  0  0  0  0  0  0  0  0
   -1.4360   22.9650  -27.6680 C   0  0  0  0  0  0  0  0  0  0  0  0
   -2.6070   22.4610  -28.2420 C   0  0  0  0  0  0  0  0  0  0  0  0
   -3.3430   23.2330  -29.1480 C   0  0  0  0  0  0  0  0  0  0  0  0
   -4.5640   22.6950  -29.6720 N   0  0  0  0  0  0  0  0  0  0  0  0
   -5.7690   23.6100  -30.5200 S   0  0  0  0  0  0  0  0  0  0  0  0
   -5.1080   24.4050  -31.6110 O   0  0  0  0  0  0  0  0  0  0  0  0
   -6.4390   24.5550  -29.5610 O   0  0  0  0  0  0  0  0  0  0  0  0
   -6.9400   22.5140  -31.2480 C   0  0  0  0  0  0  0  0  0  0  0  0
   -6.5340   21.2340  -31.6520 C   0  0  0  0  0  0  0  0  0  0  0  0
   -7.4570   20.3470  -32.2120 C   0  0  0  0  0  0  0  0  0  0  0  0
   -8.7910   20.7340  -32.3700 C   0  0  0  0  0  0  0  0  0  0  0  0
   -9.2020   22.0090  -31.9710 C   0  0  0  0  0  0  0  0  0  0  0  0
   -8.2800   22.8980  -31.4110 C   0  0  0  0  0  0  0  0  0  0  0  0
   -2.8690   24.5060  -29.5090 C   0  0  0  0  0  0  0  0  0  0  0  0
   -1.6970   25.0130  -28.9390 C   0  0  0  0  0  0  0  0  0  0  0  0
   -1.2360   26.2630  -29.3380 O   0  0  0  0  0  0  0  0  0  0  0  0
    1.2750   26.4170  -25.7440 C   0  0  0  0  0  0  0  0  0  0  0  0
    1.0210   27.1070  -24.3920 C   0  0  0  0  0  0  0  0  0  0  0  0
   -0.9480   29.5559  -24.5322 H   0  0  0  0  0  0  0  0  0  0  0  0
    0.1686   28.8937  -25.7738 H   0  0  0  0  0  0  0  0  0  0  0  0
   -1.5620   28.4122  -25.7738 H   0  0  0  0  0  0  0  0  0  0  0  0
   -1.7357   26.1686  -23.3877 H   0  0  0  0  0  0  0  0  0  0  0  0
   -2.1699   26.8028  -25.0511 H   0  0  0  0  0  0  0  0  0  0  0  0
   -0.3089   24.5469  -24.2845 H   0  0  0  0  0  0  0  0  0  0  0  0
   -1.6300   24.6029  -25.5130 H   0  0  0  0  0  0  0  0  0  0  0  0
   -0.8634   22.3464  -26.9613 H   0  0  0  0  0  0  0  0  0  0  0  0
   -2.9524   21.4501  -27.9795 H   0  0  0  0  0  0  0  0  0  0  0  0
   -5.4850   20.9271  -31.5276 H   0  0  0  0  0  0  0  0  0  0  0  0
   -7.1340   19.3443  -32.5285 H   0  0  0  0  0  0  0  0  0  0  0  0
   -9.5178   20.0345  -32.8087 H   0  0  0  0  0  0  0  0  0  0  0  0
  -10.2515   22.3130  -32.0977 H   0  0  0  0  0  0  0  0  0  0  0  0
   -8.6055   23.9008  -31.0974 H   0  0  0  0  0  0  0  0  0  0  0  0
   -3.4235   25.1073  -30.2446 H   0  0  0  0  0  0  0  0  0  0  0  0
    2.2088   25.8390  -25.6820 H   0  0  0  0  0  0  0  0  0  0  0  0
    1.3491   27.1913  -26.5218 H   0  0  0  0  0  0  0  0  0  0  0  0
    1.2588   26.4017  -23.5821 H   0  0  0  0  0  0  0  0  0  0  0  0
    1.6604   28.0005  -24.3387 H   0  0  0  0  0  0  0  0  0  0  0  0
  1  2  1  0
  2  3  1  0
  3  4  1  0
  4  5  1  0
  5  6  1  0
  6  7  2  0
  6  8  1  0
  8  9  2  0
  9 10  1  0
 10 11  2  0
 11 12  1  0
 12 13  1  0
 13 14  2  0
 13 15  2  0
 13 16  1  0
 16 17  2  0
 17 18  1  0
 18 19  2  0
 19 20  1  0
 20 21  2  0
 11 22  1  0
 22 23  2  0
 23 24  1  0
  5 25  1  0
 25 26  1  0
 26  2  1  0
 23  8  1  0
 21 16  1  0
  1 27  1  0
  1 28  1  0
  1 29  1  0
  3 30  1  0
  3 31  1  0
  4 32  1  0
  4 33  1  0
  9 34  1  0
 10 35  1  0
 17 36  1  0
 18 37  1  0
 19 38  1  0
 20 39  1  0
 21 40  1  0
 22 41  1  0
 25 42  1  0
 25 43  1  0
 26 44  1  0
 26 45  1  0
M  CHG  2  12  -1  24  -1
M  END
>  <UniqueID>  (9) 
9

>  <SMILES>  (9) 
CN1CCN(C(=O)c2ccc([N-]S(=O)(=O)c3ccccc3)cc2[O-])CC1

>  <Energy>  (9) 
62.74400271470551

>  <Genealogy>  (9) 
CN1CCN(C(=O)c2ccc([N-]S(=O)(=O)c3ccccc3)cc2[O-])CC1 (protonated)
CN1CCN(C(=O)c2ccc([N-]S(=O)(=O)c3ccccc3)cc2[O-])CC1 (3D coordinates assigned)
CN1CCN(C(=O)c2ccc([N-]S(=O)(=O)c3ccccc3)cc2[O-])CC1 (nonaromatic ring conformer: 62.74400271470551 kcal/mol)

>  <smiles>  (9) 
CN1CCN(C(=O)c2ccc(NS(=O)(=O)c3ccccc3)cc2O)CC1

>  <score_type>  (9) 
oracle

>  <origin>  (9) 
adgpu

>  <m_score__min__energy>  (9) 
-12.43

>  <m_primary>  (9) 
energy

$$$$
9:0
     RDKit          3D

 47 50  0  0  0  0  0  0  0  0999 V2000
   -8.6570   20.2140  -32.1480 Cl  0  0  0  0  0  0  0  0  0  0  0  0
   -6.9860   20.2170  -32.7040 C   0  0  0  0  0  0  0  0  0  0  0  0
   -6.5230   19.0950  -33.4010 C   0  0  0  0  0  0  0  0  0  0  0  0
   -5.1940   19.0230  -33.8240 C   0  0  0  0  0  0  0  0  0  0  0  0
   -4.3160   20.0690  -33.5420 C   0  0  0  0  0  0  0  0  0  0  0  0
   -4.7680   21.1970  -32.8520 C   0  0  0  0  0  0  0  0  0  0  0  0
   -6.1120   21.2990  -32.4490 C   0  0  0  0  0  0  0  0  0  0  0  0
   -6.5610   22.5220  -31.6850 C   0  0  0  0  0  0  0  0  0  0  0  0
   -5.4450   23.4190  -31.3720 N   0  0  0  0  0  0  0  0  0  0  0  0
   -5.4810   24.7210  -31.5950 N   0  0  0  0  0  0  0  0  0  0  0  0
   -4.4400   25.2880  -31.0080 N   0  0  0  0  0  0  0  0  0  0  0  0
   -3.7250   24.3690  -30.3770 N   0  0  0  0  0  0  0  0  0  0  0  0
   -4.3400   23.1970  -30.6250 C   0  0  0  0  0  0  0  0  0  0  0  0
   -3.9640   21.9050  -29.9460 C   0  0  0  0  0  0  0  0  0  0  0  0
   -3.4270   22.0350  -28.5640 N   0  0  0  0  0  0  0  0  0  0  0  0
   -4.2320   22.8760  -27.6350 C   0  0  0  0  0  0  0  0  0  0  0  0
   -3.7910   24.3520  -27.5290 C   0  0  0  0  0  0  0  0  0  0  0  0
   -2.3340   24.4880  -27.5350 N   0  0  0  0  0  0  0  0  0  0  0  0
   -1.7140   25.6230  -26.9020 C   0  0  0  0  0  0  0  0  0  0  0  0
   -1.8580   25.8460  -25.5230 C   0  0  0  0  0  0  0  0  0  0  0  0
   -1.2370   26.9510  -24.9370 C   0  0  0  0  0  0  0  0  0  0  0  0
   -0.4750   27.8170  -25.7210 C   0  0  0  0  0  0  0  0  0  0  0  0
   -0.3420   27.5620  -27.0870 C   0  0  0  0  0  0  0  0  0  0  0  0
   -0.9540   26.4820  -27.6410 N   0  0  0  0  0  0  0  0  0  0  0  0
   -1.6070   23.7600  -28.5700 C   0  0  0  0  0  0  0  0  0  0  0  0
   -1.9690   22.2820  -28.4880 C   0  0  0  0  0  0  0  0  0  0  0  0
   -7.2107   18.2641  -33.6171 H   0  0  0  0  0  0  0  0  0  0  0  0
   -4.8401   18.1418  -34.3792 H   0  0  0  0  0  0  0  0  0  0  0  0
   -3.2658   20.0061  -33.8632 H   0  0  0  0  0  0  0  0  0  0  0  0
   -4.0666   22.0125  -32.6219 H   0  0  0  0  0  0  0  0  0  0  0  0
   -7.2960   23.0697  -32.2931 H   0  0  0  0  0  0  0  0  0  0  0  0
   -7.0002   22.1845  -30.7346 H   0  0  0  0  0  0  0  0  0  0  0  0
   -4.8629   21.2726  -29.9012 H   0  0  0  0  0  0  0  0  0  0  0  0
   -3.1473   21.4773  -30.5461 H   0  0  0  0  0  0  0  0  0  0  0  0
   -3.5360   21.0620  -28.1850 H   0  0  0  0  0  0  0  0  0  0  0  0
   -5.2766   22.8576  -27.9791 H   0  0  0  0  0  0  0  0  0  0  0  0
   -4.0894   22.4439  -26.6335 H   0  0  0  0  0  0  0  0  0  0  0  0
   -4.2036   24.9087  -28.3833 H   0  0  0  0  0  0  0  0  0  0  0  0
   -4.1668   24.7525  -26.5759 H   0  0  0  0  0  0  0  0  0  0  0  0
   -2.4553   25.1557  -24.9092 H   0  0  0  0  0  0  0  0  0  0  0  0
   -1.3486   27.1381  -23.8588 H   0  0  0  0  0  0  0  0  0  0  0  0
    0.0157   28.6911  -25.2680 H   0  0  0  0  0  0  0  0  0  0  0  0
    0.2587   28.2357  -27.7158 H   0  0  0  0  0  0  0  0  0  0  0  0
   -1.8835   24.1526  -29.5597 H   0  0  0  0  0  0  0  0  0  0  0  0
   -0.5245   23.8852  -28.4201 H   0  0  0  0  0  0  0  0  0  0  0  0
   -1.4810   21.7555  -29.3215 H   0  0  0  0  0  0  0  0  0  0  0  0
   -1.6250   21.9143  -27.5100 H   0  0  0  0  0  0  0  0  0  0  0  0
  1  2  1  0
  2  3  2  0
  3  4  1  0
  4  5  2  0
  5  6  1  0
  6  7  2  0
  7  8  1  0
  8  9  1  0
  9 10  1  0
 10 11  2  0
 11 12  1  0
 12 13  2  0
 13 14  1  0
 14 15  1  0
 15 16  1  0
 16 17  1  0
 17 18  1  0
 18 19  1  0
 19 20  2  0
 20 21  1  0
 21 22  2  0
 22 23  1  0
 23 24  2  0
 18 25  1  0
 25 26  1  0
  7  2  1  0
 13  9  1  0
 26 15  1  0
 24 19  1  0
  3 27  1  0
  4 28  1  0
  5 29  1  0
  6 30  1  0
  8 31  1  0
  8 32  1  0
 14 33  1  0
 14 34  1  0
 15 35  1  0
 16 36  1  0
 16 37  1  0
 17 38  1  0
 17 39  1  0
 20 40  1  0
 21 41  1  0
 22 42  1  0
 23 43  1  0
 25 44  1  0
 25 45  1  0
 26 46  1  0
 26 47  1  0
M  CHG  1  15   1
M  END
>  <UniqueID>  (10) 
10

>  <SMILES>  (10) 
Clc1ccccc1Cn1nnnc1C[NH+]1CCN(c2ccccn2)CC1

>  <Energy>  (10) 
105.5500366517289

>  <Genealogy>  (10) 
Clc1ccccc1Cn1nnnc1C[NH+]1CCN(c2ccccn2)CC1 (protonated)
Clc1ccccc1Cn1nnnc1C[NH+]1CCN(c2ccccn2)CC1 (3D coordinates assigned)
Clc1ccccc1Cn1nnnc1C[NH+]1CCN(c2ccccn2)CC1 (nonaromatic ring conformer: 105.5500366517289 kcal/mol)

>  <smiles>  (10) 
Clc1ccccc1Cn1nnnc1CN1CCN(c2ccccn2)CC1

>  <score_type>  (10) 
oracle

>  <origin>  (10) 
adgpu

>  <m_score__min__energy>  (10) 
-8.8200000000000003

>  <m_primary>  (10) 
energy

$$$$
10:0
     RDKit          3D

 44 47  0  0  0  0  0  0  0  0999 V2000
   -6.6140   17.1880  -32.6720 C   0  0  0  0  0  0  0  0  0  0  0  0
   -6.5390   18.6630  -32.4070 C   0  0  0  0  0  0  0  0  0  0  0  0
   -5.3860   19.3820  -32.7400 C   0  0  0  0  0  0  0  0  0  0  0  0
   -5.3310   20.7610  -32.5290 C   0  0  0  0  0  0  0  0  0  0  0  0
   -6.4290   21.4480  -31.9850 C   0  0  0  0  0  0  0  0  0  0  0  0
   -6.3020   23.1990  -31.7650 S   0  0  0  0  0  0  0  0  0  0  0  0
   -5.3800   23.7990  -32.7890 O   0  0  0  0  0  0  0  0  0  0  0  0
   -7.6540   23.8290  -31.9480 O   0  0  0  0  0  0  0  0  0  0  0  0
   -5.7500   23.5370  -30.1550 N   0  0  0  0  0  0  0  0  0  0  0  0
   -4.3840   23.3460  -29.7690 C   0  0  0  0  0  0  0  0  0  0  0  0
   -3.9500   22.1050  -29.2820 C   0  0  0  0  0  0  0  0  0  0  0  0
   -2.6240   21.9280  -28.8520 C   0  0  0  0  0  0  0  0  0  0  0  0
   -1.6990   22.9800  -29.0170 C   0  0  0  0  0  0  0  0  0  0  0  0
   -2.1250   24.2050  -29.5490 C   0  0  0  0  0  0  0  0  0  0  0  0
   -3.4610   24.3930  -29.9100 C   0  0  0  0  0  0  0  0  0  0  0  0
   -3.8670   25.6250  -30.4100 O   0  0  0  0  0  0  0  0  0  0  0  0
   -0.2370   22.7370  -28.7390 C   0  0  0  0  0  0  0  0  0  0  0  0
   -0.0430   21.8910  -27.4770 C   0  0  0  0  0  0  0  0  0  0  0  0
   -0.9900   20.7750  -27.4320 N   0  0  0  0  0  0  0  0  0  0  0  0
   -1.1900   19.9890  -26.2710 C   0  0  0  0  0  0  0  0  0  0  0  0
   -2.3660   19.4010  -26.2790 C   0  0  0  0  0  0  0  0  0  0  0  0
   -3.1490   19.7960  -27.4860 C   0  0  0  0  0  0  0  0  0  0  0  0
   -2.1270   20.5930  -28.3340 C   0  0  1  0  0  0  0  0  0  0  0  0
   -7.6050   20.7270  -31.6760 C   0  0  0  0  0  0  0  0  0  0  0  0
   -9.1870   21.5530  -30.9720 Br  0  0  0  0  0  0  0  0  0  0  0  0
   -7.6500   19.3440  -31.8910 C   0  0  0  0  0  0  0  0  0  0  0  0
   -6.6416   16.6446  -31.7160 H   0  0  0  0  0  0  0  0  0  0  0  0
   -7.5247   16.9646  -33.2472 H   0  0  0  0  0  0  0  0  0  0  0  0
   -5.7307   16.8734  -33.2472 H   0  0  0  0  0  0  0  0  0  0  0  0
   -4.5192   18.8587  -33.1698 H   0  0  0  0  0  0  0  0  0  0  0  0
   -4.4180   21.3156  -32.7916 H   0  0  0  0  0  0  0  0  0  0  0  0
   -6.4810   23.5660  -29.4100 H   0  0  0  0  0  0  0  0  0  0  0  0
   -4.6545   21.2615  -29.2361 H   0  0  0  0  0  0  0  0  0  0  0  0
   -1.4024   25.0234  -29.6830 H   0  0  0  0  0  0  0  0  0  0  0  0
    0.2077   22.2095  -29.5957 H   0  0  0  0  0  0  0  0  0  0  0  0
    0.2529   23.7095  -28.5835 H   0  0  0  0  0  0  0  0  0  0  0  0
    0.9819   21.4915  -27.4678 H   0  0  0  0  0  0  0  0  0  0  0  0
   -0.2199   22.5311  -26.6001 H   0  0  0  0  0  0  0  0  0  0  0  0
   -0.4522   19.8834  -25.4620 H   0  0  0  0  0  0  0  0  0  0  0  0
   -2.7242   18.7110  -25.5008 H   0  0  0  0  0  0  0  0  0  0  0  0
   -3.5058   18.9095  -28.0308 H   0  0  0  0  0  0  0  0  0  0  0  0
   -4.0497   20.3781  -27.2412 H   0  0  0  0  0  0  0  0  0  0  0  0
   -1.8909   20.0426  -29.2567 H   0  0  0  0  0  0  0  0  0  0  0  0
   -8.5674   18.7860  -31.6523 H   0  0  0  0  0  0  0  0  0  0  0  0
  1  2  1  0
  2  3  2  0
  3  4  1  0
  4  5  2  0
  5  6  1  0
  6  7  2  0
  6  8  2  0
  6  9  1  0
  9 10  1  0
 10 11  2  0
 11 12  1  0
 12 13  2  0
 13 14  1  0
 14 15  2  0
 15 16  1  0
 13 17  1  0
 17 18  1  0
 18 19  1  0
 19 20  1  0
 20 21  2  0
 21 22  1  0
 22 23  1  0
  5 24  1  0
 24 25  1  0
 24 26  2  0
 26  2  1  0
 15 10  1  0
 23 19  1  0
 23 12  1  0
  1 27  1  0
  1 28  1  0
  1 29  1  0
  3 30  1  0
  4 31  1  0
  9 32  1  0
 11 33  1  0
 14 34  1  0
 17 35  1  0
 17 36  1  0
 18 37  1  0
 18 38  1  0
 20 39  1  0
 21 40  1  0
 22 41  1  0
 22 42  1  0
 23 43  1  6
 26 44  1  0
M  CHG  1  16  -1
M  END
>  <UniqueID>  (11) 
11

>  <SMILES>  (11) 
Cc1ccc(S(=O)(=O)Nc2cc3c(cc2[O-])CCN2C=CC[C@@H]32)c(Br)c1

>  <Energy>  (11) 
68.45878379543569

>  <Genealogy>  (11) 
Cc1ccc(S(=O)(=O)Nc2cc3c(cc2[O-])CCN2C=CCC32)c(Br)c1 (protonated)
Cc1ccc(S(=O)(=O)Nc2cc3c(cc2[O-])CCN2C=CC[C@@H]32)c(Br)c1 (chirality)
Cc1ccc(S(=O)(=O)Nc2cc3c(cc2[O-])CCN2C=CC[C@@H]32)c(Br)c1 (3D coordinates assigned)
Cc1ccc(S(=O)(=O)Nc2cc3c(cc2[O-])CCN2C=CC[C@@H]32)c(Br)c1 (nonaromatic ring conformer: 68.45878379543569 kcal/mol)

>  <smiles>  (11) 
Cc1ccc(S(=O)(=O)Nc2cc3c(cc2O)CCN2C=CCC32)c(Br)c1

>  <score_type>  (11) 
oracle

>  <origin>  (11) 
adgpu

>  <m_score__min__energy>  (11) 
-13.369999999999999

>  <m_primary>  (11) 
energy

$$$$
11:0
     RDKit          3D

 29 31  0  0  1  0  0  0  0  0999 V2000
   -4.0570   24.5600  -26.7970 S   0  0  0  0  0  0  0  0  0  0  0  0
   -4.1650   23.9710  -28.3300 C   0  0  0  0  0  0  0  0  0  0  0  0
   -5.3190   24.2030  -28.9730 N   0  0  0  0  0  0  0  0  0  0  0  0
   -5.3990   23.7130  -30.2380 C   0  0  0  0  0  0  0  0  0  0  0  0
   -6.4720   23.9100  -30.8840 N   0  0  0  0  0  0  0  0  0  0  0  0
   -6.6620   23.4260  -32.2480 C   0  0  0  0  0  0  0  0  0  0  0  0
   -7.5570   22.2050  -32.2170 C   0  0  0  0  0  0  0  0  0  0  0  0
   -8.9080   22.3160  -31.9600 C   0  0  0  0  0  0  0  0  0  0  0  0
   -9.6880   21.1690  -31.9420 C   0  0  0  0  0  0  0  0  0  0  0  0
   -9.1600   19.9170  -32.1730 C   0  0  0  0  0  0  0  0  0  0  0  0
   -7.8160   19.8010  -32.4310 C   0  0  0  0  0  0  0  0  0  0  0  0
   -6.9680   18.1160  -32.7660 Br  0  0  0  0  0  0  0  0  0  0  0  0
   -7.0530   20.9420  -32.4460 C   0  0  0  0  0  0  0  0  0  0  0  0
   -4.3380   23.0380  -30.7600 C   0  0  0  0  0  0  0  0  0  0  0  0
   -4.1590   22.2820  -32.4000 S   0  0  0  0  0  0  0  0  0  0  0  0
   -2.4320   21.6890  -32.0290 C   0  0  0  0  0  0  0  0  0  0  0  0
   -2.1890   22.1190  -30.7400 C   0  0  0  0  0  0  0  0  0  0  0  0
   -3.1540   22.7950  -30.1160 C   0  0  0  0  0  0  0  0  0  0  0  0
   -3.1190   23.3110  -28.8300 N   0  0  0  0  0  0  0  0  0  0  0  0
   -6.1210   24.7120  -28.5820 H   0  0  0  0  0  0  0  0  0  0  0  0
   -7.1321   24.2126  -32.8564 H   0  0  0  0  0  0  0  0  0  0  0  0
   -5.6889   23.1627  -32.6881 H   0  0  0  0  0  0  0  0  0  0  0  0
   -9.3605   23.3008  -31.7719 H   0  0  0  0  0  0  0  0  0  0  0  0
  -10.7646   21.2619  -31.7364 H   0  0  0  0  0  0  0  0  0  0  0  0
   -9.8042   19.0256  -32.1511 H   0  0  0  0  0  0  0  0  0  0  0  0
   -5.9771   20.8431  -32.6527 H   0  0  0  0  0  0  0  0  0  0  0  0
   -1.7577   21.1234  -32.6888 H   0  0  0  0  0  0  0  0  0  0  0  0
   -1.2298   21.9106  -30.2435 H   0  0  0  0  0  0  0  0  0  0  0  0
   -2.2820   23.2000  -28.2270 H   0  0  0  0  0  0  0  0  0  0  0  0
  1  2  2  0
  2  3  1  0
  3  4  1  0
  4  5  2  0
  5  6  1  0
  6  7  1  0
  7  8  2  0
  8  9  1  0
  9 10  2  0
 10 11  1  0
 11 12  1  0
 11 13  2  0
  4 14  1  0
 14 15  1  0
 15 16  1  0
 16 17  2  0
 17 18  1  0
 18 19  1  0
 19  2  1  0
 13  7  1  0
 18 14  2  0
  3 20  1  0
  6 21  1  0
  6 22  1  0
  8 23  1  0
  9 24  1  0
 10 25  1  0
 13 26  1  0
 16 27  1  0
 17 28  1  0
 19 29  1  0
M  END
>  <smiles>  (12) 
S=c1[nH]c(=NCc2cccc(Br)c2)c2sccc2[nH]1

>  <score_type>  (12) 
oracle

>  <origin>  (12) 
adgpu

>  <m_score__min__energy>  (12) 
-8

>  <m_primary>  (12) 
energy

$$$$
12:0
     RDKit          3D

 47 49  0  0  0  0  0  0  0  0999 V2000
   -8.5960   21.6130  -30.2790 O   0  0  0  0  0  0  0  0  0  0  0  0
   -7.9820   22.3310  -31.4490 S   0  0  0  0  0  0  0  0  0  0  0  0
   -8.9940   23.3190  -31.9620 O   0  0  0  0  0  0  0  0  0  0  0  0
   -6.5550   23.2130  -30.9050 C   0  0  0  0  0  0  0  0  0  0  0  0
   -6.4240   24.5820  -31.1670 C   0  0  0  0  0  0  0  0  0  0  0  0
   -5.2730   25.2670  -30.7730 C   0  0  0  0  0  0  0  0  0  0  0  0
   -4.2430   24.5930  -30.1130 C   0  0  0  0  0  0  0  0  0  0  0  0
   -3.0950   25.2950  -29.7620 O   0  0  0  0  0  0  0  0  0  0  0  0
   -4.3750   23.2220  -29.8200 C   0  0  0  0  0  0  0  0  0  0  0  0
   -3.0800   22.2940  -29.0530 S   0  0  0  0  0  0  0  0  0  0  0  0
   -3.6120   21.4800  -27.9060 O   0  0  0  0  0  0  0  0  0  0  0  0
   -2.5200   21.3440  -30.0770 O   0  0  0  0  0  0  0  0  0  0  0  0
   -1.8080   23.3710  -28.5100 N   0  0  0  0  0  0  0  0  0  0  0  0
   -0.4860   22.9740  -29.0540 C   0  0  0  0  0  0  0  0  0  0  0  0
    0.3470   22.1530  -28.0510 C   0  0  0  0  0  0  0  0  0  0  0  0
   -0.4960   21.3880  -27.2200 O   0  0  0  0  0  0  0  0  0  0  0  0
   -1.2250   22.2340  -26.3490 C   0  0  0  0  0  0  0  0  0  0  0  0
   -1.7850   23.4990  -27.0390 C   0  0  0  0  0  0  0  0  0  0  0  0
   -5.5400   22.5450  -30.2060 C   0  0  0  0  0  0  0  0  0  0  0  0
   -7.6180   21.1800  -32.7180 N   0  0  0  0  0  0  0  0  0  0  0  0
   -8.5790   20.0610  -32.7920 C   0  0  0  0  0  0  0  0  0  0  0  0
   -8.2710   18.9020  -31.8220 C   0  0  0  0  0  0  0  0  0  0  0  0
   -6.7750   18.7130  -31.5380 C   0  0  0  0  0  0  0  0  0  0  0  0
   -5.9220   19.3040  -32.6540 C   0  0  0  0  0  0  0  0  0  0  0  0
   -6.1830   20.8110  -32.7790 C   0  0  0  0  0  0  0  0  0  0  0  0
   -7.2312   25.1202  -31.6854 H   0  0  0  0  0  0  0  0  0  0  0  0
   -5.1769   26.3424  -30.9833 H   0  0  0  0  0  0  0  0  0  0  0  0
   -2.0450   24.3140  -28.9010 H   0  0  0  0  0  0  0  0  0  0  0  0
   -0.6450   22.3684  -29.9584 H   0  0  0  0  0  0  0  0  0  0  0  0
    0.0729   23.8953  -29.2747 H   0  0  0  0  0  0  0  0  0  0  0  0
    1.0187   21.4797  -28.6037 H   0  0  0  0  0  0  0  0  0  0  0  0
    0.9327   22.8429  -27.4257 H   0  0  0  0  0  0  0  0  0  0  0  0
   -2.0682   21.6622  -25.9341 H   0  0  0  0  0  0  0  0  0  0  0  0
   -0.5263   22.5741  -25.5705 H   0  0  0  0  0  0  0  0  0  0  0  0
   -2.8114   23.6713  -26.6828 H   0  0  0  0  0  0  0  0  0  0  0  0
   -1.1249   24.3414  -26.7847 H   0  0  0  0  0  0  0  0  0  0  0  0
   -5.6589   21.4799  -29.9582 H   0  0  0  0  0  0  0  0  0  0  0  0
   -9.5810   20.4500  -32.5585 H   0  0  0  0  0  0  0  0  0  0  0  0
   -8.5098   19.6499  -33.8100 H   0  0  0  0  0  0  0  0  0  0  0  0
   -8.7823   19.1023  -30.8689 H   0  0  0  0  0  0  0  0  0  0  0  0
   -8.6248   17.9785  -32.3037 H   0  0  0  0  0  0  0  0  0  0  0  0
   -6.5237   19.2135  -30.5912 H   0  0  0  0  0  0  0  0  0  0  0  0
   -6.5665   17.6348  -31.4747 H   0  0  0  0  0  0  0  0  0  0  0  0
   -4.8589   19.1370  -32.4260 H   0  0  0  0  0  0  0  0  0  0  0  0
   -6.1838   18.8144  -33.6036 H   0  0  0  0  0  0  0  0  0  0  0  0
   -5.6588   21.3224  -31.9582 H   0  0  0  0  0  0  0  0  0  0  0  0
   -5.8168   21.1171  -33.7701 H   0  0  0  0  0  0  0  0  0  0  0  0
  1  2  2  0
  2  3  2  0
  2  4  1  0
  4  5  2  0
  5  6  1  0
  6  7  2  0
  7  8  1  0
  7  9  1  0
  9 10  1  0
 10 11  2  0
 10 12  2  0
 10 13  1  0
 13 14  1  0
 14 15  1  0
 15 16  1  0
 16 17  1  0
 17 18  1  0
  9 19  2  0
  2 20  1  0
 20 21  1  0
 21 22  1  0
 22 23  1  0
 23 24  1  0
 24 25  1  0
 19  4  1  0
 25 20  1  0
 18 13  1  0
  5 26  1  0
  6 27  1  0
 13 28  1  0
 14 29  1  0
 14 30  1  0
 15 31  1  0
 15 32  1  0
 17 33  1  0
 17 34  1  0
 18 35  1  0
 18 36  1  0
 19 37  1  0
 21 38  1  0
 21 39  1  0
 22 40  1  0
 22 41  1  0
 23 42  1  0
 23 43  1  0
 24 44  1  0
 24 45  1  0
 25 46  1  0
 25 47  1  0
M  CHG  2   8  -1  13   1
M  END
>  <UniqueID>  (13) 
12

>  <SMILES>  (13) 
O=S(=O)(c1ccc([O-])c(S(=O)(=O)[NH+]2CCOCC2)c1)N1CCCCC1

>  <Energy>  (13) 
64.46946921694389

>  <Genealogy>  (13) 
O=S(=O)(c1ccc([O-])c(S(=O)(=O)[NH+]2CCOCC2)c1)N1CCCCC1 (protonated)
O=S(=O)(c1ccc([O-])c(S(=O)(=O)[NH+]2CCOCC2)c1)N1CCCCC1 (3D coordinates assigned)
O=S(=O)(c1ccc([O-])c(S(=O)(=O)[NH+]2CCOCC2)c1)N1CCCCC1 (nonaromatic ring conformer: 64.46946921694389 kcal/mol)

>  <smiles>  (13) 
O=S(=O)(c1ccc(O)c(S(=O)(=O)N2CCOCC2)c1)N1CCCCC1

>  <score_type>  (13) 
oracle

>  <origin>  (13) 
adgpu

>  <m_score__min__energy>  (13) 
-10.76

>  <m_primary>  (13) 
energy

$$$$
13:0
     RDKit          3D

 54 57  0  0  0  0  0  0  0  0999 V2000
   -0.5060   17.5440  -35.6680 C   0  0  0  0  0  0  0  0  0  0  0  0
   -1.0680   18.5050  -34.6960 N   0  0  0  0  0  0  0  0  0  0  0  0
   -0.3390   19.6080  -34.3330 C   0  0  0  0  0  0  0  0  0  0  0  0
    0.8110   19.8070  -34.8150 O   0  0  0  0  0  0  0  0  0  0  0  0
   -0.8550   20.5330  -33.4210 C   0  0  0  0  0  0  0  0  0  0  0  0
   -0.1520   21.5390  -33.1140 O   0  0  0  0  0  0  0  0  0  0  0  0
   -2.0970   20.3530  -32.8700 N   0  0  0  0  0  0  0  0  0  0  0  0
   -2.6210   21.3460  -31.9090 C   0  0  0  0  0  0  0  0  0  0  0  0
   -2.8420   19.2450  -33.2150 C   0  0  0  0  0  0  0  0  0  0  0  0
   -4.1260   19.0150  -32.6620 C   0  0  0  0  0  0  0  0  0  0  0  0
   -4.8770   17.8910  -33.0160 C   0  0  0  0  0  0  0  0  0  0  0  0
   -6.4500   17.6100  -32.2790 S   0  0  0  0  0  0  0  0  0  0  0  0
   -7.2230   16.6110  -33.0940 O   0  0  0  0  0  0  0  0  0  0  0  0
   -6.2820   17.0540  -30.8920 O   0  0  0  0  0  0  0  0  0  0  0  0
   -7.3140   19.1400  -32.2020 C   0  0  0  0  0  0  0  0  0  0  0  0
   -8.7090   19.1790  -32.3410 C   0  0  0  0  0  0  0  0  0  0  0  0
   -9.3790   20.4050  -32.3210 C   0  0  0  0  0  0  0  0  0  0  0  0
   -8.6610   21.5960  -32.1720 C   0  0  0  0  0  0  0  0  0  0  0  0
   -7.2660   21.5650  -32.0370 C   0  0  0  0  0  0  0  0  0  0  0  0
   -6.3390   23.0560  -31.8840 S   0  0  0  0  0  0  0  0  0  0  0  0
   -7.0520   24.1360  -32.6510 O   0  0  0  0  0  0  0  0  0  0  0  0
   -4.9720   22.8680  -32.4780 O   0  0  0  0  0  0  0  0  0  0  0  0
   -6.2200   23.4980  -30.1910 N   0  0  0  0  0  0  0  0  0  0  0  0
   -6.5210   24.9290  -29.9870 C   0  0  0  0  0  0  0  0  0  0  0  0
   -5.3680   25.8460  -30.4620 C   0  0  0  0  0  0  0  0  0  0  0  0
   -4.1320   25.1710  -30.6200 O   0  0  0  0  0  0  0  0  0  0  0  0
   -3.9200   24.2870  -29.5420 C   0  0  0  0  0  0  0  0  0  0  0  0
   -4.9110   23.1100  -29.6120 C   0  0  0  0  0  0  0  0  0  0  0  0
   -6.5980   20.3330  -32.0530 C   0  0  0  0  0  0  0  0  0  0  0  0
   -4.3530   16.9660  -33.9150 C   0  0  0  0  0  0  0  0  0  0  0  0
   -3.0940   17.1640  -34.4760 C   0  0  0  0  0  0  0  0  0  0  0  0
   -2.3160   18.3020  -34.1450 C   0  0  0  0  0  0  0  0  0  0  0  0
   -0.0222   16.7168  -35.1279 H   0  0  0  0  0  0  0  0  0  0  0  0
   -1.3140   17.1466  -36.2998 H   0  0  0  0  0  0  0  0  0  0  0  0
    0.2366   18.0534  -36.2998 H   0  0  0  0  0  0  0  0  0  0  0  0
   -2.4363   20.9959  -30.8827 H   0  0  0  0  0  0  0  0  0  0  0  0
   -2.1140   22.3097  -32.0645 H   0  0  0  0  0  0  0  0  0  0  0  0
   -3.7027   21.4714  -32.0645 H   0  0  0  0  0  0  0  0  0  0  0  0
   -4.5395   19.7348  -31.9403 H   0  0  0  0  0  0  0  0  0  0  0  0
   -9.2757   18.2445  -32.4658 H   0  0  0  0  0  0  0  0  0  0  0  0
  -10.4739   20.4335  -32.4227 H   0  0  0  0  0  0  0  0  0  0  0  0
   -9.1921   22.5592  -32.1607 H   0  0  0  0  0  0  0  0  0  0  0  0
   -6.9650   22.9510  -29.6980 H   0  0  0  0  0  0  0  0  0  0  0  0
   -7.4303   25.1831  -30.5514 H   0  0  0  0  0  0  0  0  0  0  0  0
   -6.6585   25.0932  -28.9080 H   0  0  0  0  0  0  0  0  0  0  0  0
   -5.6500   26.2854  -31.4302 H   0  0  0  0  0  0  0  0  0  0  0  0
   -5.2210   26.6080  -29.6824 H   0  0  0  0  0  0  0  0  0  0  0  0
   -2.8918   23.8987  -29.5881 H   0  0  0  0  0  0  0  0  0  0  0  0
   -4.0761   24.8301  -28.5983 H   0  0  0  0  0  0  0  0  0  0  0  0
   -4.4719   22.3167  -30.2348 H   0  0  0  0  0  0  0  0  0  0  0  0
   -5.0916   22.7659  -28.5829 H   0  0  0  0  0  0  0  0  0  0  0  0
   -5.5034   20.3037  -31.9477 H   0  0  0  0  0  0  0  0  0  0  0  0
   -4.9370   16.0734  -34.1837 H   0  0  0  0  0  0  0  0  0  0  0  0
   -2.6966   16.4253  -35.1876 H   0  0  0  0  0  0  0  0  0  0  0  0
  1  2  1  0
  2  3  1  0
  3  4  2  0
  3  5  1  0
  5  6  2  0
  5  7  1  0
  7  8  1  0
  7  9  1  0
  9 10  2  0
 10 11  1  0
 11 12  1  0
 12 13  2  0
 12 14  2  0
 12 15  1  0
 15 16  2  0
 16 17  1  0
 17 18  2  0
 18 19  1  0
 19 20  1  0
 20 21  2  0
 20 22  2  0
 20 23  1  0
 23 24  1  0
 24 25  1  0
 25 26  1  0
 26 27  1  0
 27 28  1  0
 19 29  2  0
 11 30  2  0
 30 31  1  0
 31 32  2  0
 32  2  1  0
 32  9  1  0
 29 15  1  0
 28 23  1  0
  1 33  1  0
  1 34  1  0
  1 35  1  0
  8 36  1  0
  8 37  1  0
  8 38  1  0
 10 39  1  0
 16 40  1  0
 17 41  1  0
 18 42  1  0
 23 43  1  0
 24 44  1  0
 24 45  1  0
 25 46  1  0
 25 47  1  0
 27 48  1  0
 27 49  1  0
 28 50  1  0
 28 51  1  0
 29 52  1  0
 30 53  1  0
 31 54  1  0
M  CHG  1  23   1
M  END
>  <UniqueID>  (14) 
13

>  <SMILES>  (14) 
Cn1c(=O)c(=O)n(C)c2cc(S(=O)(=O)c3cccc(S(=O)(=O)[NH+]4CCOCC4)c3)ccc21

>  <Energy>  (14) 
86.57389002096112

>  <Genealogy>  (14) 
Cn1c(=O)c(=O)n(C)c2cc(S(=O)(=O)c3cccc(S(=O)(=O)[NH+]4CCOCC4)c3)ccc21 (protonated)
Cn1c(=O)c(=O)n(C)c2cc(S(=O)(=O)c3cccc(S(=O)(=O)[NH+]4CCOCC4)c3)ccc21 (3D coordinates assigned)
Cn1c(=O)c(=O)n(C)c2cc(S(=O)(=O)c3cccc(S(=O)(=O)[NH+]4CCOCC4)c3)ccc21 (nonaromatic ring conformer: 86.57389002096112 kcal/mol)

>  <smiles>  (14) 
Cn1c(=O)c(=O)n(C)c2cc(S(=O)(=O)c3cccc(S(=O)(=O)N4CCOCC4)c3)ccc21

>  <score_type>  (14) 
oracle

>  <origin>  (14) 
adgpu

>  <m_score__min__energy>  (14) 
-10.26

>  <m_primary>  (14) 
energy

$$$$
14:0
     RDKit          3D

 39 41  0  0  0  0  0  0  0  0999 V2000
    1.2190   21.1800  -33.6300 H   0  0  0  0  0  0  0  0  0  0  0  0
    0.2730   21.5520  -33.3900 N   0  0  0  0  0  0  0  0  0  0  0  0
   -0.7950   20.8420  -33.5600 C   0  0  0  0  0  0  0  0  0  0  0  0
   -0.7040   19.5810  -34.0630 N   0  0  0  0  0  0  0  0  0  0  0  0
   -1.7990   18.7970  -34.2430 C   0  0  0  0  0  0  0  0  0  0  0  0
   -1.6848   17.7814  -34.6499 H   0  0  0  0  0  0  0  0  0  0  0  0
   -3.0780   19.2790  -33.9110 C   0  0  0  0  0  0  0  0  0  0  0  0
   -4.2880   18.4440  -34.1110 C   0  0  0  0  0  0  0  0  0  0  0  0
   -4.2900   17.5780  -35.0280 O   0  0  0  0  0  0  0  0  0  0  0  0
   -5.5010   18.6110  -33.2730 C   0  0  0  0  0  0  0  0  0  0  0  0
   -6.2970   19.7600  -33.4150 C   0  0  0  0  0  0  0  0  0  0  0  0
   -6.0103   20.5322  -34.1441 H   0  0  0  0  0  0  0  0  0  0  0  0
   -7.4560   19.9360  -32.6370 C   0  0  0  0  0  0  0  0  0  0  0  0
   -8.2700   21.1110  -32.7610 N   0  0  0  0  0  0  0  0  0  0  0  0
   -8.5220   22.2970  -31.5200 S   0  0  0  0  0  0  0  0  0  0  0  0
   -8.9390   21.6020  -30.2550 O   0  0  0  0  0  0  0  0  0  0  0  0
   -9.6190   23.2320  -31.9490 O   0  0  0  0  0  0  0  0  0  0  0  0
   -7.0350   23.1910  -31.2120 C   0  0  0  0  0  0  0  0  0  0  0  0
   -7.0790   24.4380  -30.5700 C   0  0  0  0  0  0  0  0  0  0  0  0
   -8.0462   24.8665  -30.2684 H   0  0  0  0  0  0  0  0  0  0  0  0
   -5.8950   25.1370  -30.3130 C   0  0  0  0  0  0  0  0  0  0  0  0
   -5.9322   26.1141  -29.8091 H   0  0  0  0  0  0  0  0  0  0  0  0
   -4.6640   24.5950  -30.6960 C   0  0  0  0  0  0  0  0  0  0  0  0
   -3.4890   25.2910  -30.4380 O   0  0  0  0  0  0  0  0  0  0  0  0
   -4.6160   23.3560  -31.3420 C   0  0  0  0  0  0  0  0  0  0  0  0
   -3.6481   22.9324  -31.6481 H   0  0  0  0  0  0  0  0  0  0  0  0
   -5.7990   22.6550  -31.5990 C   0  0  0  0  0  0  0  0  0  0  0  0
   -5.7591   21.6799  -32.1065 H   0  0  0  0  0  0  0  0  0  0  0  0
   -7.8260   18.9350  -31.7200 C   0  0  0  0  0  0  0  0  0  0  0  0
   -8.9690   19.0620  -30.9310 O   0  0  0  0  0  0  0  0  0  0  0  0
   -9.4700   19.9370  -30.8370 H   0  0  0  0  0  0  0  0  0  0  0  0
   -7.0430   17.7850  -31.5880 C   0  0  0  0  0  0  0  0  0  0  0  0
   -7.3401   17.0032  -30.8735 H   0  0  0  0  0  0  0  0  0  0  0  0
   -5.8870   17.6180  -32.3540 C   0  0  0  0  0  0  0  0  0  0  0  0
   -5.1230   16.4670  -32.1840 O   0  0  0  0  0  0  0  0  0  0  0  0
   -3.1890   20.5860  -33.4120 C   0  0  0  0  0  0  0  0  0  0  0  0
   -4.1796   20.9959  -33.1655 H   0  0  0  0  0  0  0  0  0  0  0  0
   -2.0460   21.3690  -33.2270 C   0  0  0  0  0  0  0  0  0  0  0  0
   -2.1301   22.3889  -32.8237 H   0  0  0  0  0  0  0  0  0  0  0  0
  1  2  1  0
  2  3  2  0
  3  4  1  0
  4  5  1  0
  5  6  1  0
  5  7  2  0
  7  8  1  0
  8  9  2  0
  8 10  1  0
 10 11  2  0
 11 12  1  0
 11 13  1  0
 13 14  1  0
 14 15  1  0
 15 16  2  0
 15 17  2  0
 15 18  1  0
 18 19  2  0
 19 20  1  0
 19 21  1  0
 21 22  1  0
 21 23  2  0
 23 24  1  0
 23 25  1  0
 25 26  1  0
 25 27  2  0
 27 28  1  0
 13 29  2  0
 29 30  1  0
 30 31  1  0
 29 32  1  0
 32 33  1  0
 32 34  2  0
 34 35  1  0
  7 36  1  0
 36 37  1  0
 36 38  2  0
 38 39  1  0
 38  3  1  0
 34 10  1  0
 27 18  1  0
M  CHG  4   4  -1  14  -1  24  -1  35  -1
M  END
>  <UniqueID>  (15) 
14

>  <SMILES>  (15) 
[H]/N=c1/ccc(C(=O)c2cc([N-]S(=O)(=O)c3ccc([O-])cc3)c(O)cc2[O-])c[n-]1

>  <Energy>  (15) 
50.16001009376494

>  <Genealogy>  (15) 
N=c1ccc(C(=O)c2cc([N-]S(=O)(=O)c3ccc([O-])cc3)c(O)cc2[O-])c[n-]1 (protonated)
[H]/N=c1/ccc(C(=O)c2cc([N-]S(=O)(=O)c3ccc([O-])cc3)c(O)cc2[O-])c[n-]1 (cis-trans isomerization)
[H]/N=c1/ccc(C(=O)c2cc([N-]S(=O)(=O)c3ccc([O-])cc3)c(O)cc2[O-])c[n-]1 (3D coordinates assigned)
[H]/N=c1/ccc(C(=O)c2cc([N-]S(=O)(=O)c3ccc([O-])cc3)c(O)cc2[O-])c[n-]1 (optimized conformer: 50.16001009376494 kcal/mol)

>  <smiles>  (15) 
N=c1ccc(C(=O)c2cc(NS(=O)(=O)c3ccc(O)cc3)c(O)cc2O)c[nH]1

>  <score_type>  (15) 
oracle

>  <origin>  (15) 
adgpu

>  <m_score__min__energy>  (15) 
-11.609999999999999

>  <m_primary>  (15) 
energy

$$$$
15:0
     RDKit          3D

 38 40  0  0  0  0  0  0  0  0999 V2000
   -5.8080   24.6960  -29.0680 O   0  0  0  0  0  0  0  0  0  0  0  0
   -5.1960   24.7320  -30.4400 S   0  0  0  0  0  0  0  0  0  0  0  0
   -5.8250   25.8480  -31.2280 O   0  0  0  0  0  0  0  0  0  0  0  0
   -3.4930   25.0320  -30.2940 N   0  0  0  0  0  0  0  0  0  0  0  0
   -2.6120   24.3680  -29.3770 C   0  0  0  0  0  0  0  0  0  0  0  0
   -2.8510   23.0520  -28.9330 C   0  0  0  0  0  0  0  0  0  0  0  0
   -1.9750   22.4440  -28.0280 C   0  0  0  0  0  0  0  0  0  0  0  0
   -2.2140   21.1810  -27.6000 F   0  0  0  0  0  0  0  0  0  0  0  0
   -0.8540   23.1370  -27.5650 C   0  0  0  0  0  0  0  0  0  0  0  0
   -0.6070   24.4400  -28.0040 C   0  0  0  0  0  0  0  0  0  0  0  0
   -1.4820   25.0550  -28.9060 C   0  0  0  0  0  0  0  0  0  0  0  0
   -1.2240   26.3530  -29.3320 O   0  0  0  0  0  0  0  0  0  0  0  0
   -5.4690   23.1820  -31.2280 C   0  0  0  0  0  0  0  0  0  0  0  0
   -6.7410   22.6010  -31.2040 C   0  0  0  0  0  0  0  0  0  0  0  0
   -6.9620   21.3630  -31.8140 C   0  0  0  0  0  0  0  0  0  0  0  0
   -5.9120   20.6840  -32.4640 C   0  0  0  0  0  0  0  0  0  0  0  0
   -6.1380   19.4010  -33.0940 N   0  0  0  0  0  0  0  0  0  0  0  0
   -5.3940   18.9160  -34.2470 C   0  0  0  0  0  0  0  0  0  0  0  0
   -6.0730   17.6210  -34.6670 C   0  0  0  0  0  0  0  0  0  0  0  0
   -6.9050   17.1820  -33.4690 C   0  0  0  0  0  0  0  0  0  0  0  0
   -7.1370   18.4400  -32.6450 C   0  0  0  0  0  0  0  0  0  0  0  0
   -4.6370   21.2840  -32.4890 C   0  0  0  0  0  0  0  0  0  0  0  0
   -4.4200   22.5220  -31.8780 C   0  0  0  0  0  0  0  0  0  0  0  0
   -3.7297   22.5010  -29.2995 H   0  0  0  0  0  0  0  0  0  0  0  0
   -0.1654   22.6565  -26.8544 H   0  0  0  0  0  0  0  0  0  0  0  0
    0.2772   24.9836  -27.6398 H   0  0  0  0  0  0  0  0  0  0  0  0
   -7.5710   23.1206  -30.7029 H   0  0  0  0  0  0  0  0  0  0  0  0
   -7.9658   20.9141  -31.7864 H   0  0  0  0  0  0  0  0  0  0  0  0
   -5.4332   19.6511  -35.0644 H   0  0  0  0  0  0  0  0  0  0  0  0
   -4.3331   18.7555  -34.0046 H   0  0  0  0  0  0  0  0  0  0  0  0
   -6.7195   17.7930  -35.5402 H   0  0  0  0  0  0  0  0  0  0  0  0
   -5.3392   16.8533  -34.9538 H   0  0  0  0  0  0  0  0  0  0  0  0
   -7.8644   16.7597  -33.8025 H   0  0  0  0  0  0  0  0  0  0  0  0
   -6.3948   16.4023  -32.8844 H   0  0  0  0  0  0  0  0  0  0  0  0
   -8.1501   18.8310  -32.8205 H   0  0  0  0  0  0  0  0  0  0  0  0
   -7.0484   18.2390  -31.5672 H   0  0  0  0  0  0  0  0  0  0  0  0
   -3.8044   20.7728  -32.9944 H   0  0  0  0  0  0  0  0  0  0  0  0
   -3.4202   22.9797  -31.9081 H   0  0  0  0  0  0  0  0  0  0  0  0
  1  2  2  0
  2  3  2  0
  2  4  1  0
  4  5  1  0
  5  6  2  0
  6  7  1  0
  7  8  1  0
  7  9  2  0
  9 10  1  0
 10 11  2  0
 11 12  1  0
  2 13  1  0
 13 14  2  0
 14 15  1  0
 15 16  2  0
 16 17  1  0
 17 18  1  0
 18 19  1  0
 19 20  1  0
 20 21  1  0
 16 22  1  0
 22 23  2  0
 11  5  1  0
 23 13  1  0
 21 17  1  0
  6 24  1  0
  9 25  1  0
 10 26  1  0
 14 27  1  0
 15 28  1  0
 18 29  1  0
 18 30  1  0
 19 31  1  0
 19 32  1  0
 20 33  1  0
 20 34  1  0
 21 35  1  0
 21 36  1  0
 22 37  1  0
 23 38  1  0
M  CHG  2   4  -1  12  -1
M  END
>  <UniqueID>  (16) 
15

>  <SMILES>  (16) 
O=S(=O)([N-]c1cc(F)ccc1[O-])c1ccc(N2CCCC2)cc1

>  <Energy>  (16) 
44.07118516681871

>  <Genealogy>  (16) 
O=S(=O)([N-]c1cc(F)ccc1[O-])c1ccc(N2CCCC2)cc1 (protonated)
O=S(=O)([N-]c1cc(F)ccc1[O-])c1ccc(N2CCCC2)cc1 (3D coordinates assigned)
O=S(=O)([N-]c1cc(F)ccc1[O-])c1ccc(N2CCCC2)cc1 (nonaromatic ring conformer: 44.07118516681871 kcal/mol)

>  <smiles>  (16) 
O=S(=O)(Nc1cc(F)ccc1O)c1ccc(N2CCCC2)cc1

>  <score_type>  (16) 
oracle

>  <origin>  (16) 
adgpu

>  <m_score__min__energy>  (16) 
-13

>  <m_primary>  (16) 
energy

$$$$
16:0
     RDKit          3D

 55 58  0  0  0  0  0  0  0  0999 V2000
   -3.9110   25.5240  -30.8200 O   0  0  0  0  0  0  0  0  0  0  0  0
   -4.1380   24.4790  -30.1520 C   0  0  0  0  0  0  0  0  0  0  0  0
   -5.4800   23.9910  -30.0190 N   0  0  0  0  0  0  0  0  0  0  0  0
   -6.1020   22.9770  -30.8220 C   0  0  0  0  0  0  0  0  0  0  0  0
   -7.4910   23.0130  -30.9900 C   0  0  0  0  0  0  0  0  0  0  0  0
   -8.1340   22.0510  -31.7740 C   0  0  0  0  0  0  0  0  0  0  0  0
   -7.3900   21.0520  -32.4080 C   0  0  0  0  0  0  0  0  0  0  0  0
   -5.9960   21.0190  -32.2700 C   0  0  0  0  0  0  0  0  0  0  0  0
   -5.0560   19.7630  -33.0780 S   0  0  0  0  0  0  0  0  0  0  0  0
   -5.7460   19.3670  -34.3550 O   0  0  0  0  0  0  0  0  0  0  0  0
   -4.9880   18.5500  -32.1920 O   0  0  0  0  0  0  0  0  0  0  0  0
   -3.4350   20.3050  -33.4350 N   0  0  0  0  0  0  0  0  0  0  0  0
   -2.6350   19.1990  -33.9880 C   0  0  0  0  0  0  0  0  0  0  0  0
   -1.2960   19.7280  -34.5330 C   0  0  0  0  0  0  0  0  0  0  0  0
   -0.8720   21.0500  -33.8710 C   0  0  0  0  0  0  0  0  0  0  0  0
   -1.2830   21.0840  -32.3960 C   0  0  0  0  0  0  0  0  0  0  0  0
   -2.8010   20.8570  -32.2190 C   0  0  0  0  0  0  0  0  0  0  0  0
   -5.3530   21.9880  -31.4860 C   0  0  0  0  0  0  0  0  0  0  0  0
   -2.9960   23.7440  -29.5600 C   0  0  0  0  0  0  0  0  0  0  0  0
   -3.1230   22.4000  -29.3800 N   0  0  0  0  0  0  0  0  0  0  0  0
   -2.1340   21.6380  -28.8470 C   0  0  0  0  0  0  0  0  0  0  0  0
   -0.9190   22.2210  -28.4630 C   0  0  0  0  0  0  0  0  0  0  0  0
    0.1570   21.3690  -27.8360 C   0  0  0  0  0  0  0  0  0  0  0  0
    0.2560   20.0450  -28.5440 C   0  0  0  0  0  0  0  0  0  0  0  0
    0.1320   18.8460  -27.8230 C   0  0  0  0  0  0  0  0  0  0  0  0
    0.2570   17.6150  -28.4740 C   0  0  0  0  0  0  0  0  0  0  0  0
    0.5120   17.5720  -29.8470 C   0  0  0  0  0  0  0  0  0  0  0  0
    0.6460   18.7600  -30.5710 C   0  0  0  0  0  0  0  0  0  0  0  0
    0.5220   19.9930  -29.9230 C   0  0  0  0  0  0  0  0  0  0  0  0
   -0.7580   23.6090  -28.6270 C   0  0  0  0  0  0  0  0  0  0  0  0
    0.3140   24.1730  -28.2790 O   0  0  0  0  0  0  0  0  0  0  0  0
   -1.7930   24.3750  -29.1800 C   0  0  0  0  0  0  0  0  0  0  0  0
   -1.6130   25.7460  -29.3400 O   0  0  0  0  0  0  0  0  0  0  0  0
   -8.0803   23.8033  -30.5020 H   0  0  0  0  0  0  0  0  0  0  0  0
   -9.2272   22.0802  -31.8922 H   0  0  0  0  0  0  0  0  0  0  0  0
   -7.8997   20.2903  -33.0164 H   0  0  0  0  0  0  0  0  0  0  0  0
   -2.4383   18.4619  -33.1955 H   0  0  0  0  0  0  0  0  0  0  0  0
   -3.1949   18.7287  -34.8098 H   0  0  0  0  0  0  0  0  0  0  0  0
   -0.5168   18.9743  -34.3467 H   0  0  0  0  0  0  0  0  0  0  0  0
   -1.4248   19.9189  -35.6086 H   0  0  0  0  0  0  0  0  0  0  0  0
    0.2208   21.1532  -33.9420 H   0  0  0  0  0  0  0  0  0  0  0  0
   -1.3730   21.8787  -34.3927 H   0  0  0  0  0  0  0  0  0  0  0  0
   -0.7394   20.2944  -31.8564 H   0  0  0  0  0  0  0  0  0  0  0  0
   -1.0364   22.0781  -31.9947 H   0  0  0  0  0  0  0  0  0  0  0  0
   -2.9582   20.1532  -31.3884 H   0  0  0  0  0  0  0  0  0  0  0  0
   -3.2639   21.8335  -32.0138 H   0  0  0  0  0  0  0  0  0  0  0  0
   -4.2573   21.9748  -31.3897 H   0  0  0  0  0  0  0  0  0  0  0  0
   -2.2873   20.5567  -28.7158 H   0  0  0  0  0  0  0  0  0  0  0  0
    1.1219   21.8921  -27.9087 H   0  0  0  0  0  0  0  0  0  0  0  0
   -0.0978   21.1914  -26.7808 H   0  0  0  0  0  0  0  0  0  0  0  0
   -0.0644   18.8756  -26.7411 H   0  0  0  0  0  0  0  0  0  0  0  0
    0.1545   16.6794  -27.9046 H   0  0  0  0  0  0  0  0  0  0  0  0
    0.6073   16.6028  -30.3584 H   0  0  0  0  0  0  0  0  0  0  0  0
    0.8492   18.7251  -31.6515 H   0  0  0  0  0  0  0  0  0  0  0  0
    0.6331   20.9260  -30.4950 H   0  0  0  0  0  0  0  0  0  0  0  0
  1  2  2  0
  2  3  1  0
  3  4  1  0
  4  5  2  0
  5  6  1  0
  6  7  2  0
  7  8  1  0
  8  9  1  0
  9 10  2  0
  9 11  2  0
  9 12  1  0
 12 13  1  0
 13 14  1  0
 14 15  1  0
 15 16  1  0
 16 17  1  0
  8 18  2  0
  2 19  1  0
 19 20  1  0
 20 21  1  0
 21 22  2  0
 22 23  1  0
 23 24  1  0
 24 25  2  0
 25 26  1  0
 26 27  2  0
 27 28  1  0
 28 29  2  0
 22 30  1  0
 30 31  2  0
 30 32  1  0
 32 33  1  0
 18  4  1  0
 32 19  2  0
 17 12  1  0
 29 24  1  0
  5 34  1  0
  6 35  1  0
  7 36  1  0
 13 37  1  0
 13 38  1  0
 14 39  1  0
 14 40  1  0
 15 41  1  0
 15 42  1  0
 16 43  1  0
 16 44  1  0
 17 45  1  0
 17 46  1  0
 18 47  1  0
 21 48  1  0
 23 49  1  0
 23 50  1  0
 25 51  1  0
 26 52  1  0
 27 53  1  0
 28 54  1  0
 29 55  1  0
M  CHG  3   3  -1  20  -1  33  -1
M  END
>  <UniqueID>  (17) 
16

>  <SMILES>  (17) 
O=C([N-]c1cccc(S(=O)(=O)N2CCCCC2)c1)c1[n-]cc(Cc2ccccc2)c(=O)c1[O-]

>  <Energy>  (17) 
66.80111793727717

>  <Genealogy>  (17) 
O=C([N-]c1cccc(S(=O)(=O)N2CCCCC2)c1)c1[n-]cc(Cc2ccccc2)c(=O)c1[O-] (protonated)
O=C([N-]c1cccc(S(=O)(=O)N2CCCCC2)c1)c1[n-]cc(Cc2ccccc2)c(=O)c1[O-] (3D coordinates assigned)
O=C([N-]c1cccc(S(=O)(=O)N2CCCCC2)c1)c1[n-]cc(Cc2ccccc2)c(=O)c1[O-] (nonaromatic ring conformer: 66.80111793727717 kcal/mol)

>  <smiles>  (17) 
O=C(Nc1cccc(S(=O)(=O)N2CCCCC2)c1)c1[nH]cc(Cc2ccccc2)c(=O)c1O

>  <score_type>  (17) 
oracle

>  <origin>  (17) 
adgpu

>  <m_score__min__energy>  (17) 
-15.26

>  <m_primary>  (17) 
energy

$$$$
17:0
     RDKit          3D

 38 41  0  0  0  0  0  0  0  0999 V2000
   -1.9920   25.3870  -29.3390 O   0  0  0  0  0  0  0  0  0  0  0  0
   -3.0350   24.5450  -29.7040 C   0  0  0  0  0  0  0  0  0  0  0  0
   -4.3570   24.9300  -29.4690 C   0  0  0  0  0  0  0  0  0  0  0  0
   -5.4080   24.0850  -29.8280 C   0  0  0  0  0  0  0  0  0  0  0  0
   -5.1440   22.8490  -30.4280 C   0  0  0  0  0  0  0  0  0  0  0  0
   -6.1750   22.0300  -30.7630 N   0  0  0  0  0  0  0  0  0  0  0  0
   -5.9860   20.8160  -31.3470 C   0  0  0  0  0  0  0  0  0  0  0  0
   -7.1680   19.9790  -31.6760 C   0  0  0  0  0  0  0  0  0  0  0  0
   -8.3770   20.5920  -32.0540 C   0  0  0  0  0  0  0  0  0  0  0  0
   -9.4970   19.8190  -32.3740 C   0  0  0  0  0  0  0  0  0  0  0  0
   -9.4230   18.4260  -32.3290 C   0  0  0  0  0  0  0  0  0  0  0  0
   -8.2260   17.8030  -31.9670 C   0  0  0  0  0  0  0  0  0  0  0  0
   -7.1030   18.5710  -31.6450 C   0  0  0  0  0  0  0  0  0  0  0  0
   -4.6770   20.3770  -31.6050 C   0  0  0  0  0  0  0  0  0  0  0  0
   -3.5840   21.1940  -31.2870 C   0  0  0  0  0  0  0  0  0  0  0  0
   -2.2230   20.6990  -31.5880 C   0  0  0  0  0  0  0  0  0  0  0  0
   -1.4090   20.2580  -30.5310 C   0  0  0  0  0  0  0  0  0  0  0  0
   -0.1150   19.7920  -30.7830 C   0  0  0  0  0  0  0  0  0  0  0  0
    0.8960   19.2510  -29.4550 Cl  0  0  0  0  0  0  0  0  0  0  0  0
    0.3740   19.7600  -32.0900 C   0  0  0  0  0  0  0  0  0  0  0  0
   -0.4310   20.1870  -33.1500 C   0  0  0  0  0  0  0  0  0  0  0  0
   -1.7300   20.6510  -32.9120 C   0  0  0  0  0  0  0  0  0  0  0  0
   -2.5060   21.0500  -34.0020 O   0  0  0  0  0  0  0  0  0  0  0  0
   -3.8100   22.4500  -30.6800 C   0  0  0  0  0  0  0  0  0  0  0  0
   -2.7570   23.3120  -30.3030 C   0  0  0  0  0  0  0  0  0  0  0  0
   -4.5702   25.9018  -28.9997 H   0  0  0  0  0  0  0  0  0  0  0  0
   -6.4473   24.3917  -29.6386 H   0  0  0  0  0  0  0  0  0  0  0  0
   -8.4413   21.6892  -32.0981 H   0  0  0  0  0  0  0  0  0  0  0  0
  -10.4385   20.3096  -32.6618 H   0  0  0  0  0  0  0  0  0  0  0  0
  -10.3061   17.8193  -32.5783 H   0  0  0  0  0  0  0  0  0  0  0  0
   -8.1670   16.7050  -31.9352 H   0  0  0  0  0  0  0  0  0  0  0  0
   -6.1626   18.0734  -31.3656 H   0  0  0  0  0  0  0  0  0  0  0  0
   -4.5094   19.3888  -32.0581 H   0  0  0  0  0  0  0  0  0  0  0  0
   -1.7917   20.2795  -29.4999 H   0  0  0  0  0  0  0  0  0  0  0  0
    1.3942   19.3983  -32.2861 H   0  0  0  0  0  0  0  0  0  0  0  0
   -0.0410   20.1582  -34.1781 H   0  0  0  0  0  0  0  0  0  0  0  0
   -2.2750   21.8540  -34.5740 H   0  0  0  0  0  0  0  0  0  0  0  0
   -1.7137   23.0125  -30.4812 H   0  0  0  0  0  0  0  0  0  0  0  0
  1  2  1  0
  2  3  2  0
  3  4  1  0
  4  5  2  0
  5  6  1  0
  6  7  2  0
  7  8  1  0
  8  9  2  0
  9 10  1  0
 10 11  2  0
 11 12  1  0
 12 13  2  0
  7 14  1  0
 14 15  2  0
 15 16  1  0
 16 17  2  0
 17 18  1  0
 18 19  1  0
 18 20  2  0
 20 21  1  0
 21 22  2  0
 22 23  1  0
 15 24  1  0
 24 25  2  0
 25  2  1  0
 24  5  1  0
 13  8  1  0
 22 16  1  0
  3 26  1  0
  4 27  1  0
  9 28  1  0
 10 29  1  0
 11 30  1  0
 12 31  1  0
 13 32  1  0
 14 33  1  0
 17 34  1  0
 20 35  1  0
 21 36  1  0
 23 37  1  0
 25 38  1  0
M  CHG  1   1  -1
M  END
>  <UniqueID>  (18) 
17

>  <SMILES>  (18) 
[O-]c1ccc2nc(-c3ccccc3)cc(-c3cc(Cl)ccc3O)c2c1

>  <Energy>  (18) 
59.416861045484374

>  <Genealogy>  (18) 
[O-]c1ccc2nc(-c3ccccc3)cc(-c3cc(Cl)ccc3O)c2c1 (protonated)
[O-]c1ccc2nc(-c3ccccc3)cc(-c3cc(Cl)ccc3O)c2c1 (3D coordinates assigned)
[O-]c1ccc2nc(-c3ccccc3)cc(-c3cc(Cl)ccc3O)c2c1 (optimized conformer: 59.416861045484374 kcal/mol)

>  <smiles>  (18) 
Oc1ccc2nc(-c3ccccc3)cc(-c3cc(Cl)ccc3O)c2c1

>  <score_type>  (18) 
oracle

>  <origin>  (18) 
adgpu

>  <m_score__min__energy>  (18) 
-10.66

>  <m_primary>  (18) 
energy

$$$$
18:0
     RDKit          3D

 39 41  0  0  0  0  0  0  0  0999 V2000
   -5.8350   25.8440  -30.2020 O   0  0  0  0  0  0  0  0  0  0  0  0
   -4.9760   25.1950  -30.8540 C   0  0  0  0  0  0  0  0  0  0  0  0
   -5.4060   24.3880  -31.9580 N   0  0  0  0  0  0  0  0  0  0  0  0
   -6.3240   23.2870  -31.8950 C   0  0  0  0  0  0  0  0  0  0  0  0
   -7.6840   23.4710  -31.6010 C   0  0  0  0  0  0  0  0  0  0  0  0
   -8.5390   22.3680  -31.5410 C   0  0  0  0  0  0  0  0  0  0  0  0
   -8.0190   21.0900  -31.7510 C   0  0  0  0  0  0  0  0  0  0  0  0
   -6.6940   20.9270  -32.0040 N   0  0  0  0  0  0  0  0  0  0  0  0
   -5.8440   21.9860  -32.0770 C   0  0  0  0  0  0  0  0  0  0  0  0
   -3.5980   25.2810  -30.4620 N   0  0  0  0  0  0  0  0  0  0  0  0
   -2.9710   24.5670  -29.3860 C   0  0  0  0  0  0  0  0  0  0  0  0
   -3.5680   23.3810  -28.9470 C   0  0  0  0  0  0  0  0  0  0  0  0
   -3.0190   22.6640  -27.8870 C   0  0  0  0  0  0  0  0  0  0  0  0
   -1.8540   23.1140  -27.2680 C   0  0  0  0  0  0  0  0  0  0  0  0
   -1.2090   24.2770  -27.7150 C   0  0  0  0  0  0  0  0  0  0  0  0
    0.2740   24.7920  -26.8980 S   0  0  0  0  0  0  0  0  0  0  0  0
    0.6900   23.7730  -25.8750 O   0  0  0  0  0  0  0  0  0  0  0  0
    1.3860   24.9210  -27.9020 O   0  0  0  0  0  0  0  0  0  0  0  0
   -0.0130   26.3210  -26.0730 C   0  0  0  0  0  0  0  0  0  0  0  0
   -0.2350   26.3630  -24.6870 C   0  0  0  0  0  0  0  0  0  0  0  0
   -0.4620   27.5870  -24.0500 C   0  0  0  0  0  0  0  0  0  0  0  0
   -0.4760   28.7720  -24.7910 C   0  0  0  0  0  0  0  0  0  0  0  0
   -0.2630   28.7340  -26.1730 C   0  0  0  0  0  0  0  0  0  0  0  0
   -0.0250   27.5130  -26.8110 C   0  0  0  0  0  0  0  0  0  0  0  0
   -1.7670   25.0090  -28.7940 C   0  0  0  0  0  0  0  0  0  0  0  0
   -1.1460   26.1510  -29.3040 O   0  0  0  0  0  0  0  0  0  0  0  0
   -8.0760   24.4824  -31.4181 H   0  0  0  0  0  0  0  0  0  0  0  0
   -9.6100   22.5051  -31.3306 H   0  0  0  0  0  0  0  0  0  0  0  0
   -8.6826   20.2136  -31.7116 H   0  0  0  0  0  0  0  0  0  0  0  0
   -4.7758   21.8189  -32.2798 H   0  0  0  0  0  0  0  0  0  0  0  0
   -4.4779   23.0118  -29.4427 H   0  0  0  0  0  0  0  0  0  0  0  0
   -3.5054   21.7413  -27.5377 H   0  0  0  0  0  0  0  0  0  0  0  0
   -1.4360   22.5514  -26.4202 H   0  0  0  0  0  0  0  0  0  0  0  0
   -0.2303   25.4317  -24.1016 H   0  0  0  0  0  0  0  0  0  0  0  0
   -0.6299   27.6173  -22.9633 H   0  0  0  0  0  0  0  0  0  0  0  0
   -0.6544   29.7338  -24.2878 H   0  0  0  0  0  0  0  0  0  0  0  0
   -0.2828   29.6653  -26.7581 H   0  0  0  0  0  0  0  0  0  0  0  0
    0.1535   27.4874  -27.8961 H   0  0  0  0  0  0  0  0  0  0  0  0
   -1.2420   26.4660  -30.2580 H   0  0  0  0  0  0  0  0  0  0  0  0
  1  2  2  0
  2  3  1  0
  3  4  1  0
  4  5  2  0
  5  6  1  0
  6  7  2  0
  7  8  1  0
  8  9  2  0
  2 10  1  0
 10 11  1  0
 11 12  2  0
 12 13  1  0
 13 14  2  0
 14 15  1  0
 15 16  1  0
 16 17  2  0
 16 18  2  0
 16 19  1  0
 19 20  2  0
 20 21  1  0
 21 22  2  0
 22 23  1  0
 23 24  2  0
 15 25  2  0
 25 26  1  0
  9  4  1  0
 25 11  1  0
 24 19  1  0
  5 27  1  0
  6 28  1  0
  7 29  1  0
  9 30  1  0
 12 31  1  0
 13 32  1  0
 14 33  1  0
 20 34  1  0
 21 35  1  0
 22 36  1  0
 23 37  1  0
 24 38  1  0
 26 39  1  0
M  CHG  2   3  -1  10  -1
M  END
>  <UniqueID>  (19) 
18

>  <SMILES>  (19) 
O=C([N-]c1cccnc1)[N-]c1cccc(S(=O)(=O)c2ccccc2)c1O

>  <Energy>  (19) 
52.80377450018772

>  <Genealogy>  (19) 
O=C([N-]c1cccnc1)[N-]c1cccc(S(=O)(=O)c2ccccc2)c1O (protonated)
O=C([N-]c1cccnc1)[N-]c1cccc(S(=O)(=O)c2ccccc2)c1O (3D coordinates assigned)
O=C([N-]c1cccnc1)[N-]c1cccc(S(=O)(=O)c2ccccc2)c1O (optimized conformer: 52.80377450018772 kcal/mol)

>  <smiles>  (19) 
O=C(Nc1cccnc1)Nc1cccc(S(=O)(=O)c2ccccc2)c1O

>  <score_type>  (19) 
oracle

>  <origin>  (19) 
adgpu

>  <m_score__min__energy>  (19) 
-11.83

>  <m_primary>  (19) 
energy

$$$$
19:0
     RDKit          3D

 49 51  0  0  0  0  0  0  0  0999 V2000
   -9.1580   18.2120  -31.5990 C   0  0  0  0  0  0  0  0  0  0  0  0
   -8.2760   19.4140  -31.8330 C   0  0  0  0  0  0  0  0  0  0  0  0
   -8.7710   20.6700  -31.4720 C   0  0  0  0  0  0  0  0  0  0  0  0
   -8.0100   21.8140  -31.6560 C   0  0  0  0  0  0  0  0  0  0  0  0
   -6.7220   21.7410  -32.1990 C   0  0  0  0  0  0  0  0  0  0  0  0
   -5.9600   23.0340  -32.3500 C   0  0  0  0  0  0  0  0  0  0  0  0
   -6.1700   20.4770  -32.5490 C   0  0  0  0  0  0  0  0  0  0  0  0
   -4.4870   20.3870  -33.1690 S   0  0  0  0  0  0  0  0  0  0  0  0
   -4.3980   19.3160  -34.2210 O   0  0  0  0  0  0  0  0  0  0  0  0
   -4.0620   21.6680  -33.8260 O   0  0  0  0  0  0  0  0  0  0  0  0
   -3.3170   20.0000  -31.8700 C   0  0  0  0  0  0  0  0  0  0  0  0
   -3.1930   21.1060  -30.8700 C   0  0  0  0  0  0  0  0  0  0  0  0
   -2.8530   20.9570  -29.5390 C   0  0  0  0  0  0  0  0  0  0  0  0
   -2.8030   22.2330  -29.0210 C   0  0  0  0  0  0  0  0  0  0  0  0
   -3.1230   23.0780  -30.0660 C   0  0  0  0  0  0  0  0  0  0  0  0
   -3.1360   24.5500  -30.0020 C   0  0  0  0  0  0  0  0  0  0  0  0
   -4.0950   25.1790  -30.5230 O   0  0  0  0  0  0  0  0  0  0  0  0
   -2.1140   25.2900  -29.3260 N   0  0  0  0  0  0  0  0  0  0  0  0
   -1.2500   24.7480  -28.2810 C   0  0  0  0  0  0  0  0  0  0  0  0
   -1.1290   25.7390  -27.1540 C   0  0  0  0  0  0  0  0  0  0  0  0
   -1.6960   25.4710  -25.8980 C   0  0  0  0  0  0  0  0  0  0  0  0
   -1.5930   26.4090  -24.8700 C   0  0  0  0  0  0  0  0  0  0  0  0
   -0.9290   27.6130  -25.1070 C   0  0  0  0  0  0  0  0  0  0  0  0
   -0.3940   27.8660  -26.3310 N   0  0  0  0  0  0  0  0  0  0  0  0
   -0.4800   26.9680  -27.3490 C   0  0  0  0  0  0  0  0  0  0  0  0
   -3.3570   22.3780  -31.1540 O   0  0  0  0  0  0  0  0  0  0  0  0
   -6.9840   19.3070  -32.4190 C   0  0  0  0  0  0  0  0  0  0  0  0
   -6.4720   17.9530  -32.8620 C   0  0  0  0  0  0  0  0  0  0  0  0
   -9.2772   18.0496  -30.5176 H   0  0  0  0  0  0  0  0  0  0  0  0
  -10.1440   18.3865  -32.0544 H   0  0  0  0  0  0  0  0  0  0  0  0
   -8.6957   17.3238  -32.0544 H   0  0  0  0  0  0  0  0  0  0  0  0
   -9.7776   20.7520  -31.0361 H   0  0  0  0  0  0  0  0  0  0  0  0
   -8.4240   22.7925  -31.3714 H   0  0  0  0  0  0  0  0  0  0  0  0
   -5.7221   23.4377  -31.3548 H   0  0  0  0  0  0  0  0  0  0  0  0
   -5.0274   22.8476  -32.9026 H   0  0  0  0  0  0  0  0  0  0  0  0
   -6.5749   23.7596  -32.9026 H   0  0  0  0  0  0  0  0  0  0  0  0
   -3.6526   19.0899  -31.3512 H   0  0  0  0  0  0  0  0  0  0  0  0
   -2.3313   19.8559  -32.3366 H   0  0  0  0  0  0  0  0  0  0  0  0
   -2.6619   20.0151  -29.0039 H   0  0  0  0  0  0  0  0  0  0  0  0
   -2.5585   22.5198  -27.9876 H   0  0  0  0  0  0  0  0  0  0  0  0
   -1.6825   23.8115  -27.8989 H   0  0  0  0  0  0  0  0  0  0  0  0
   -0.2523   24.5516  -28.7005 H   0  0  0  0  0  0  0  0  0  0  0  0
   -2.2220   24.5207  -25.7241 H   0  0  0  0  0  0  0  0  0  0  0  0
   -2.0310   26.2012  -23.8826 H   0  0  0  0  0  0  0  0  0  0  0  0
   -0.8383   28.3581  -24.3029 H   0  0  0  0  0  0  0  0  0  0  0  0
   -0.0394   27.2059  -28.3284 H   0  0  0  0  0  0  0  0  0  0  0  0
   -6.2406   17.3412  -31.9776 H   0  0  0  0  0  0  0  0  0  0  0  0
   -7.2417   17.4493  -33.4651 H   0  0  0  0  0  0  0  0  0  0  0  0
   -5.5616   18.0847  -33.4651 H   0  0  0  0  0  0  0  0  0  0  0  0
  1  2  1  0
  2  3  2  0
  3  4  1  0
  4  5  2  0
  5  6  1  0
  5  7  1  0
  7  8  1  0
  8  9  2  0
  8 10  2  0
  8 11  1  0
 11 12  1  0
 12 13  2  0
 13 14  1  0
 14 15  2  0
 15 16  1  0
 16 17  2  0
 16 18  1  0
 18 19  1  0
 19 20  1  0
 20 21  2  0
 21 22  1  0
 22 23  2  0
 23 24  1  0
 24 25  2  0
 15 26  1  0
  7 27  2  0
 27 28  1  0
 27  2  1  0
 26 12  1  0
 25 20  1  0
  1 29  1  0
  1 30  1  0
  1 31  1  0
  3 32  1  0
  4 33  1  0
  6 34  1  0
  6 35  1  0
  6 36  1  0
 11 37  1  0
 11 38  1  0
 13 39  1  0
 14 40  1  0
 19 41  1  0
 19 42  1  0
 21 43  1  0
 22 44  1  0
 23 45  1  0
 25 46  1  0
 28 47  1  0
 28 48  1  0
 28 49  1  0
M  CHG  1  18  -1
M  END
>  <UniqueID>  (20) 
19

>  <SMILES>  (20) 
Cc1ccc(C)c(S(=O)(=O)Cc2ccc(C(=O)[N-]Cc3cccnc3)o2)c1C

>  <Energy>  (20) 
81.56813369436945

>  <Genealogy>  (20) 
Cc1ccc(C)c(S(=O)(=O)Cc2ccc(C(=O)[N-]Cc3cccnc3)o2)c1C (protonated)
Cc1ccc(C)c(S(=O)(=O)Cc2ccc(C(=O)[N-]Cc3cccnc3)o2)c1C (3D coordinates assigned)
Cc1ccc(C)c(S(=O)(=O)Cc2ccc(C(=O)[N-]Cc3cccnc3)o2)c1C (optimized conformer: 81.56813369436945 kcal/mol)

>  <smiles>  (20) 
Cc1ccc(C)c(S(=O)(=O)Cc2ccc(C(=O)NCc3cccnc3)o2)c1C

>  <score_type>  (20) 
oracle

>  <origin>  (20) 
adgpu

>  <m_score__min__energy>  (20) 
-11.18

>  <m_primary>  (20) 
energy

$$$$
20:0
     RDKit          3D

 56 59  0  0  0  0  0  0  0  0999 V2000
   -5.8580   18.3420  -31.9860 C   0  0  0  0  0  0  0  0  0  0  0  0
   -5.7340   19.7450  -32.5180 C   0  0  0  0  0  0  0  0  0  0  0  0
   -4.9410   19.9700  -33.4700 O   0  0  0  0  0  0  0  0  0  0  0  0
   -6.4460   20.8380  -31.9070 N   0  0  0  0  0  0  0  0  0  0  0  0
   -7.9140   20.7220  -31.8340 C   0  0  0  0  0  0  0  0  0  0  0  0
   -8.5540   21.8670  -31.0480 C   0  0  0  0  0  0  0  0  0  0  0  0
   -8.0200   23.2130  -31.5520 C   0  0  0  0  0  0  0  0  0  0  0  0
   -6.5210   23.2640  -31.3910 C   0  0  0  0  0  0  0  0  0  0  0  0
   -5.8730   24.4700  -31.0770 C   0  0  0  0  0  0  0  0  0  0  0  0
   -4.4950   24.4810  -30.8480 C   0  0  0  0  0  0  0  0  0  0  0  0
   -3.8760   25.6780  -30.4970 O   0  0  0  0  0  0  0  0  0  0  0  0
   -3.7490   23.2900  -30.9330 C   0  0  0  0  0  0  0  0  0  0  0  0
   -2.3490   23.3050  -30.6100 N   0  0  0  0  0  0  0  0  0  0  0  0
   -1.7460   23.5210  -28.9980 S   0  0  0  0  0  0  0  0  0  0  0  0
   -0.7480   24.6460  -28.9700 O   0  0  0  0  0  0  0  0  0  0  0  0
   -2.8860   23.8480  -28.0730 O   0  0  0  0  0  0  0  0  0  0  0  0
   -1.0080   22.0120  -28.4860 C   0  0  0  0  0  0  0  0  0  0  0  0
   -1.6840   20.8100  -28.6950 C   0  0  0  0  0  0  0  0  0  0  0  0
   -1.0400   19.5940  -28.4840 C   0  0  0  0  0  0  0  0  0  0  0  0
    0.2900   19.5680  -28.0650 C   0  0  0  0  0  0  0  0  0  0  0  0
    1.1490   18.0320  -27.9850 S   0  0  0  0  0  0  0  0  0  0  0  0
    0.2640   17.0160  -27.3100 O   0  0  0  0  0  0  0  0  0  0  0  0
    2.4200   18.1830  -27.1850 O   0  0  0  0  0  0  0  0  0  0  0  0
    1.5240   17.5070  -29.6100 N   0  0  0  0  0  0  0  0  0  0  0  0
    0.4380   16.6780  -30.1420 C   0  0  0  0  0  0  0  0  0  0  0  0
    0.7440   16.2610  -31.5980 C   0  0  0  0  0  0  0  0  0  0  0  0
    1.9800   16.7860  -32.0370 O   0  0  0  0  0  0  0  0  0  0  0  0
    1.9640   18.1990  -31.9420 C   0  0  0  0  0  0  0  0  0  0  0  0
    1.7220   18.6630  -30.4860 C   0  0  0  0  0  0  0  0  0  0  0  0
    0.9550   20.7700  -27.8150 C   0  0  0  0  0  0  0  0  0  0  0  0
    0.3060   21.9860  -28.0140 C   0  0  0  0  0  0  0  0  0  0  0  0
   -4.3900   22.1040  -31.3050 C   0  0  0  0  0  0  0  0  0  0  0  0
   -5.7740   22.0770  -31.5560 C   0  0  0  0  0  0  0  0  0  0  0  0
   -5.8559   18.3654  -30.8862 H   0  0  0  0  0  0  0  0  0  0  0  0
   -6.7990   17.8969  -32.3415 H   0  0  0  0  0  0  0  0  0  0  0  0
   -5.0097   17.7387  -32.3415 H   0  0  0  0  0  0  0  0  0  0  0  0
   -8.3194   20.7263  -32.8566 H   0  0  0  0  0  0  0  0  0  0  0  0
   -8.1493   19.7842  -31.3094 H   0  0  0  0  0  0  0  0  0  0  0  0
   -9.6454   21.8351  -31.1818 H   0  0  0  0  0  0  0  0  0  0  0  0
   -8.3050   21.7564  -29.9823 H   0  0  0  0  0  0  0  0  0  0  0  0
   -8.2768   23.3323  -32.6149 H   0  0  0  0  0  0  0  0  0  0  0  0
   -8.4748   24.0252  -30.9659 H   0  0  0  0  0  0  0  0  0  0  0  0
   -6.4497   25.4044  -31.0115 H   0  0  0  0  0  0  0  0  0  0  0  0
   -2.7321   20.8230  -29.0285 H   0  0  0  0  0  0  0  0  0  0  0  0
   -1.5817   18.6508  -28.6482 H   0  0  0  0  0  0  0  0  0  0  0  0
    0.3326   15.7762  -29.5210 H   0  0  0  0  0  0  0  0  0  0  0  0
   -0.4959   17.2589  -30.1255 H   0  0  0  0  0  0  0  0  0  0  0  0
    0.7812   15.1631  -31.6553 H   0  0  0  0  0  0  0  0  0  0  0  0
   -0.0505   16.6597  -32.2459 H   0  0  0  0  0  0  0  0  0  0  0  0
    2.9317   18.5921  -32.2870 H   0  0  0  0  0  0  0  0  0  0  0  0
    1.1433   18.5793  -32.5680 H   0  0  0  0  0  0  0  0  0  0  0  0
    2.5939   19.2365  -30.1384 H   0  0  0  0  0  0  0  0  0  0  0  0
    0.8204   19.2925  -30.4565 H   0  0  0  0  0  0  0  0  0  0  0  0
    1.9958   20.7564  -27.4594 H   0  0  0  0  0  0  0  0  0  0  0  0
    0.8300   22.9289  -27.7987 H   0  0  0  0  0  0  0  0  0  0  0  0
   -3.8034   21.1786  -31.4028 H   0  0  0  0  0  0  0  0  0  0  0  0
  1  2  1  0
  2  3  2  0
  2  4  1  0
  4  5  1  0
  5  6  1  0
  6  7  1  0
  7  8  1  0
  8  9  2  0
  9 10  1  0
 10 11  1  0
 10 12  2  0
 12 13  1  0
 13 14  1  0
 14 15  2  0
 14 16  2  0
 14 17  1  0
 17 18  2  0
 18 19  1  0
 19 20  2  0
 20 21  1  0
 21 22  2  0
 21 23  2  0
 21 24  1  0
 24 25  1  0
 25 26  1  0
 26 27  1  0
 27 28  1  0
 28 29  1  0
 20 30  1  0
 30 31  2  0
 12 32  1  0
 32 33  2  0
 33  4  1  0
 33  8  1  0
 31 17  1  0
 29 24  1  0
  1 34  1  0
  1 35  1  0
  1 36  1  0
  5 37  1  0
  5 38  1  0
  6 39  1  0
  6 40  1  0
  7 41  1  0
  7 42  1  0
  9 43  1  0
 18 44  1  0
 19 45  1  0
 25 46  1  0
 25 47  1  0
 26 48  1  0
 26 49  1  0
 28 50  1  0
 28 51  1  0
 29 52  1  0
 29 53  1  0
 30 54  1  0
 31 55  1  0
 32 56  1  0
M  CHG  2  11  -1  13  -1
M  END
>  <UniqueID>  (21) 
20

>  <SMILES>  (21) 
CC(=O)N1CCCc2cc([O-])c([N-]S(=O)(=O)c3ccc(S(=O)(=O)N4CCOCC4)cc3)cc21

>  <Energy>  (21) 
74.5402314996046

>  <Genealogy>  (21) 
CC(=O)N1CCCc2cc([O-])c([N-]S(=O)(=O)c3ccc(S(=O)(=O)N4CCOCC4)cc3)cc21 (protonated)
CC(=O)N1CCCc2cc([O-])c([N-]S(=O)(=O)c3ccc(S(=O)(=O)N4CCOCC4)cc3)cc21 (3D coordinates assigned)
CC(=O)N1CCCc2cc([O-])c([N-]S(=O)(=O)c3ccc(S(=O)(=O)N4CCOCC4)cc3)cc21 (nonaromatic ring conformer: 74.5402314996046 kcal/mol)

>  <smiles>  (21) 
CC(=O)N1CCCc2cc(O)c(NS(=O)(=O)c3ccc(S(=O)(=O)N4CCOCC4)cc3)cc21

>  <score_type>  (21) 
oracle

>  <origin>  (21) 
adgpu

>  <m_score__min__energy>  (21) 
-15.220000000000001

>  <m_primary>  (21) 
energy

$$$$
21:0
     RDKit          3D

 52 55  0  0  0  0  0  0  0  0999 V2000
   -1.5320   22.3880  -31.3900 O   0  0  0  0  0  0  0  0  0  0  0  0
   -2.3410   22.6080  -30.4480 C   0  0  0  0  0  0  0  0  0  0  0  0
   -3.5510   23.4130  -30.7210 C   0  0  0  0  0  0  0  0  0  0  0  0
   -4.5600   22.8860  -31.5440 C   0  0  0  0  0  0  0  0  0  0  0  0
   -5.7170   23.6290  -31.8240 C   0  0  0  0  0  0  0  0  0  0  0  0
   -6.7510   23.0450  -32.6340 N   0  0  0  0  0  0  0  0  0  0  0  0
   -7.3990   21.7940  -32.3460 C   0  0  0  0  0  0  0  0  0  0  0  0
   -8.7160   21.7500  -31.8560 C   0  0  0  0  0  0  0  0  0  0  0  0
   -9.3370   20.5230  -31.6140 C   0  0  0  0  0  0  0  0  0  0  0  0
   -8.6590   19.3270  -31.8700 C   0  0  0  0  0  0  0  0  0  0  0  0
   -9.3000   18.1160  -31.6280 O   0  0  0  0  0  0  0  0  0  0  0  0
   -7.3470   19.3570  -32.3730 C   0  0  0  0  0  0  0  0  0  0  0  0
   -6.4910   17.8550  -32.7240 S   0  0  0  0  0  0  0  0  0  0  0  0
   -7.1870   17.1350  -33.8460 O   0  0  0  0  0  0  0  0  0  0  0  0
   -6.4860   16.9550  -31.5200 O   0  0  0  0  0  0  0  0  0  0  0  0
   -4.8290   18.2320  -33.1670 C   0  0  0  0  0  0  0  0  0  0  0  0
   -4.1200   19.2000  -32.4410 C   0  0  0  0  0  0  0  0  0  0  0  0
   -2.8050   19.5190  -32.7930 C   0  0  0  0  0  0  0  0  0  0  0  0
   -2.1930   18.8730  -33.8720 C   0  0  0  0  0  0  0  0  0  0  0  0
   -2.8980   17.9110  -34.6020 C   0  0  0  0  0  0  0  0  0  0  0  0
   -4.2140   17.5910  -34.2530 C   0  0  0  0  0  0  0  0  0  0  0  0
   -6.7300   20.5920  -32.6210 C   0  0  0  0  0  0  0  0  0  0  0  0
   -5.8710   24.9020  -31.2490 C   0  0  0  0  0  0  0  0  0  0  0  0
   -4.8600   25.4410  -30.4500 C   0  0  0  0  0  0  0  0  0  0  0  0
   -3.6960   24.7100  -30.1940 C   0  0  0  0  0  0  0  0  0  0  0  0
   -2.6840   25.2880  -29.4370 O   0  0  0  0  0  0  0  0  0  0  0  0
   -2.0870   22.0480  -29.1450 N   0  0  0  0  0  0  0  0  0  0  0  0
   -0.7170   21.9650  -28.6290 C   0  0  0  0  0  0  0  0  0  0  0  0
   -0.5520   20.6850  -27.8040 C   0  0  0  0  0  0  0  0  0  0  0  0
   -1.5650   20.5840  -26.8210 O   0  0  0  0  0  0  0  0  0  0  0  0
   -2.8260   20.4420  -27.4480 C   0  0  0  0  0  0  0  0  0  0  0  0
   -3.1870   21.7050  -28.2360 C   0  0  0  0  0  0  0  0  0  0  0  0
   -4.4419   21.8802  -31.9735 H   0  0  0  0  0  0  0  0  0  0  0  0
   -7.0530   23.5640  -33.4900 H   0  0  0  0  0  0  0  0  0  0  0  0
   -9.2597   22.6864  -31.6624 H   0  0  0  0  0  0  0  0  0  0  0  0
  -10.3638   20.4970  -31.2203 H   0  0  0  0  0  0  0  0  0  0  0  0
   -4.5997   19.7096  -31.5924 H   0  0  0  0  0  0  0  0  0  0  0  0
   -2.2516   20.2783  -32.2211 H   0  0  0  0  0  0  0  0  0  0  0  0
   -1.1572   19.1216  -34.1464 H   0  0  0  0  0  0  0  0  0  0  0  0
   -2.4168   17.4052  -35.4520 H   0  0  0  0  0  0  0  0  0  0  0  0
   -4.7675   16.8360  -34.8306 H   0  0  0  0  0  0  0  0  0  0  0  0
   -5.7113   20.6183  -33.0353 H   0  0  0  0  0  0  0  0  0  0  0  0
   -6.7917   25.4764  -31.4289 H   0  0  0  0  0  0  0  0  0  0  0  0
   -4.9803   26.4462  -30.0198 H   0  0  0  0  0  0  0  0  0  0  0  0
   -0.0095   21.9508  -29.4711 H   0  0  0  0  0  0  0  0  0  0  0  0
   -0.5149   22.8379  -27.9909 H   0  0  0  0  0  0  0  0  0  0  0  0
   -0.6120   19.8145  -28.4738 H   0  0  0  0  0  0  0  0  0  0  0  0
    0.4253   20.7151  -27.3000 H   0  0  0  0  0  0  0  0  0  0  0  0
   -2.7919   19.5848  -28.1365 H   0  0  0  0  0  0  0  0  0  0  0  0
   -3.5891   20.2801  -26.6725 H   0  0  0  0  0  0  0  0  0  0  0  0
   -4.1015   21.5237  -28.8197 H   0  0  0  0  0  0  0  0  0  0  0  0
   -3.3563   22.5368  -27.5364 H   0  0  0  0  0  0  0  0  0  0  0  0
  1  2  2  0
  2  3  1  0
  3  4  2  0
  4  5  1  0
  5  6  1  0
  6  7  1  0
  7  8  2  0
  8  9  1  0
  9 10  2  0
 10 11  1  0
 10 12  1  0
 12 13  1  0
 13 14  2  0
 13 15  2  0
 13 16  1  0
 16 17  2  0
 17 18  1  0
 18 19  2  0
 19 20  1  0
 20 21  2  0
 12 22  2  0
  5 23  2  0
 23 24  1  0
 24 25  2  0
 25 26  1  0
  2 27  1  0
 27 28  1  0
 28 29  1  0
 29 30  1  0
 30 31  1  0
 31 32  1  0
 25  3  1  0
 32 27  1  0
 22  7  1  0
 21 16  1  0
  4 33  1  0
  6 34  1  0
  8 35  1  0
  9 36  1  0
 17 37  1  0
 18 38  1  0
 19 39  1  0
 20 40  1  0
 21 41  1  0
 22 42  1  0
 23 43  1  0
 24 44  1  0
 28 45  1  0
 28 46  1  0
 29 47  1  0
 29 48  1  0
 31 49  1  0
 31 50  1  0
 32 51  1  0
 32 52  1  0
M  CHG  2  11  -1  26  -1
M  END
>  <UniqueID>  (22) 
21

>  <SMILES>  (22) 
O=C(c1cc(Nc2ccc([O-])c(S(=O)(=O)c3ccccc3)c2)ccc1[O-])N1CCOCC1

>  <Energy>  (22) 
72.23010008162333

>  <Genealogy>  (22) 
O=C(c1cc(Nc2ccc([O-])c(S(=O)(=O)c3ccccc3)c2)ccc1[O-])N1CCOCC1 (protonated)
O=C(c1cc(Nc2ccc([O-])c(S(=O)(=O)c3ccccc3)c2)ccc1[O-])N1CCOCC1 (3D coordinates assigned)
O=C(c1cc(Nc2ccc([O-])c(S(=O)(=O)c3ccccc3)c2)ccc1[O-])N1CCOCC1 (nonaromatic ring conformer: 72.23010008162333 kcal/mol)

>  <smiles>  (22) 
O=C(c1cc(Nc2ccc(O)c(S(=O)(=O)c3ccccc3)c2)ccc1O)N1CCOCC1

>  <score_type>  (22) 
oracle

>  <origin>  (22) 
adgpu

>  <m_score__min__energy>  (22) 
-12.779999999999999

>  <m_primary>  (22) 
energy

$$$$
22:0
     RDKit          3D

 53 56  0  0  0  0  0  0  0  0999 V2000
   -6.5470   15.8090  -33.7740 C   0  0  0  0  0  0  0  0  0  0  0  0
   -6.0890   17.2290  -33.9090 C   0  0  0  0  0  0  0  0  0  0  0  0
   -5.0240   17.4580  -34.5460 O   0  0  0  0  0  0  0  0  0  0  0  0
   -6.8200   18.3280  -33.3180 N   0  0  0  0  0  0  0  0  0  0  0  0
   -7.9510   18.0970  -32.4030 C   0  0  0  0  0  0  0  0  0  0  0  0
   -7.9480   19.1250  -31.2640 C   0  0  0  0  0  0  0  0  0  0  0  0
   -7.6860   20.4850  -31.7550 N   0  0  0  0  0  0  0  0  0  0  0  0
   -7.8000   21.5930  -30.8490 C   0  0  0  0  0  0  0  0  0  0  0  0
   -8.8060   21.6750  -30.0930 O   0  0  0  0  0  0  0  0  0  0  0  0
   -6.7410   22.6240  -30.7670 C   0  0  0  0  0  0  0  0  0  0  0  0
   -6.6840   23.6540  -31.7160 C   0  0  0  0  0  0  0  0  0  0  0  0
   -5.7170   24.6540  -31.6140 C   0  0  0  0  0  0  0  0  0  0  0  0
   -4.8060   24.6500  -30.5540 C   0  0  0  0  0  0  0  0  0  0  0  0
   -3.8590   25.6650  -30.4670 O   0  0  0  0  0  0  0  0  0  0  0  0
   -4.8470   23.6290  -29.5880 C   0  0  0  0  0  0  0  0  0  0  0  0
   -3.9520   23.6770  -28.4630 N   0  0  0  0  0  0  0  0  0  0  0  0
   -2.6750   22.5300  -28.1990 S   0  0  0  0  0  0  0  0  0  0  0  0
   -3.1280   21.4220  -27.2910 O   0  0  0  0  0  0  0  0  0  0  0  0
   -1.5340   23.2420  -27.5260 O   0  0  0  0  0  0  0  0  0  0  0  0
   -2.1290   21.8720  -29.7400 C   0  0  0  0  0  0  0  0  0  0  0  0
   -0.8100   22.0740  -30.1760 C   0  0  0  0  0  0  0  0  0  0  0  0
   -0.3820   21.5520  -31.3990 C   0  0  0  0  0  0  0  0  0  0  0  0
   -1.2710   20.8250  -32.2030 C   0  0  0  0  0  0  0  0  0  0  0  0
   -0.8660   20.2930  -33.4350 C   0  0  0  0  0  0  0  0  0  0  0  0
   -1.7480   19.5950  -34.1980 N   0  0  0  0  0  0  0  0  0  0  0  0
   -3.0320   19.3880  -33.8020 C   0  0  0  0  0  0  0  0  0  0  0  0
   -3.4830   19.8970  -32.5820 C   0  0  0  0  0  0  0  0  0  0  0  0
   -2.6010   20.6220  -31.7730 C   0  0  0  0  0  0  0  0  0  0  0  0
   -3.0200   21.1490  -30.5420 C   0  0  0  0  0  0  0  0  0  0  0  0
   -5.8200   22.6180  -29.7030 C   0  0  0  0  0  0  0  0  0  0  0  0
   -7.4790   20.7240  -33.1860 C   0  0  0  0  0  0  0  0  0  0  0  0
   -6.4900   19.6980  -33.7470 C   0  0  0  0  0  0  0  0  0  0  0  0
   -6.6304   15.5504  -32.7081 H   0  0  0  0  0  0  0  0  0  0  0  0
   -7.5282   15.6927  -34.2574 H   0  0  0  0  0  0  0  0  0  0  0  0
   -5.8187   15.1413  -34.2574 H   0  0  0  0  0  0  0  0  0  0  0  0
   -8.8929   18.1835  -32.9646 H   0  0  0  0  0  0  0  0  0  0  0  0
   -7.8549   17.0903  -31.9701 H   0  0  0  0  0  0  0  0  0  0  0  0
   -8.9295   19.1089  -30.7676 H   0  0  0  0  0  0  0  0  0  0  0  0
   -7.1449   18.8548  -30.5626 H   0  0  0  0  0  0  0  0  0  0  0  0
   -7.4059   23.6738  -32.5458 H   0  0  0  0  0  0  0  0  0  0  0  0
   -5.6711   25.4500  -32.3718 H   0  0  0  0  0  0  0  0  0  0  0  0
   -3.9090   24.5530  -27.8960 H   0  0  0  0  0  0  0  0  0  0  0  0
   -0.1092   22.6468  -29.5508 H   0  0  0  0  0  0  0  0  0  0  0  0
    0.6542   21.7117  -31.7317 H   0  0  0  0  0  0  0  0  0  0  0  0
    0.1665   20.4405  -33.7846 H   0  0  0  0  0  0  0  0  0  0  0  0
   -3.7184   18.8174  -34.4449 H   0  0  0  0  0  0  0  0  0  0  0  0
   -4.5215   19.7296  -32.2603 H   0  0  0  0  0  0  0  0  0  0  0  0
   -4.0554   20.9930  -30.2049 H   0  0  0  0  0  0  0  0  0  0  0  0
   -5.8608   21.8145  -28.9529 H   0  0  0  0  0  0  0  0  0  0  0  0
   -8.4395   20.6316  -33.7141 H   0  0  0  0  0  0  0  0  0  0  0  0
   -7.0722   21.7359  -33.3295 H   0  0  0  0  0  0  0  0  0  0  0  0
   -6.5156   19.7428  -34.8458 H   0  0  0  0  0  0  0  0  0  0  0  0
   -5.4885   19.9440  -33.3642 H   0  0  0  0  0  0  0  0  0  0  0  0
  1  2  1  0
  2  3  2  0
  2  4  1  0
  4  5  1  0
  5  6  1  0
  6  7  1  0
  7  8  1  0
  8  9  2  0
  8 10  1  0
 10 11  2  0
 11 12  1  0
 12 13  2  0
 13 14  1  0
 13 15  1  0
 15 16  1  0
 16 17  1  0
 17 18  2  0
 17 19  2  0
 17 20  1  0
 20 21  2  0
 21 22  1  0
 22 23  2  0
 23 24  1  0
 24 25  2  0
 25 26  1  0
 26 27  2  0
 27 28  1  0
 28 29  2  0
 15 30  2  0
  7 31  1  0
 31 32  1  0
 32  4  1  0
 30 10  1  0
 29 20  1  0
 28 23  1  0
  1 33  1  0
  1 34  1  0
  1 35  1  0
  5 36  1  0
  5 37  1  0
  6 38  1  0
  6 39  1  0
 11 40  1  0
 12 41  1  0
 16 42  1  0
 21 43  1  0
 22 44  1  0
 24 45  1  0
 26 46  1  0
 27 47  1  0
 29 48  1  0
 30 49  1  0
 31 50  1  0
 31 51  1  0
 32 52  1  0
 32 53  1  0
M  CHG  1  14  -1
M  END
>  <UniqueID>  (23) 
22

>  <SMILES>  (23) 
CC(=O)N1CCN(C(=O)c2ccc([O-])c(NS(=O)(=O)c3ccc4cnccc4c3)c2)CC1

>  <Energy>  (23) 
68.0722132793726

>  <Genealogy>  (23) 
CC(=O)N1CCN(C(=O)c2ccc([O-])c(NS(=O)(=O)c3ccc4cnccc4c3)c2)CC1 (protonated)
CC(=O)N1CCN(C(=O)c2ccc([O-])c(NS(=O)(=O)c3ccc4cnccc4c3)c2)CC1 (3D coordinates assigned)
CC(=O)N1CCN(C(=O)c2ccc([O-])c(NS(=O)(=O)c3ccc4cnccc4c3)c2)CC1 (nonaromatic ring conformer: 68.0722132793726 kcal/mol)

>  <smiles>  (23) 
CC(=O)N1CCN(C(=O)c2ccc(O)c(NS(=O)(=O)c3ccc4cnccc4c3)c2)CC1

>  <score_type>  (23) 
oracle

>  <origin>  (23) 
adgpu

>  <m_score__min__energy>  (23) 
-13.32

>  <m_primary>  (23) 
energy

$$$$
23:0
     RDKit          3D

 51 54  0  0  0  0  0  0  0  0999 V2000
   -2.3210   20.7960  -27.2750 C   0  0  0  0  0  0  0  0  0  0  0  0
   -2.6430   21.9880  -28.1290 C   0  0  0  0  0  0  0  0  0  0  0  0
   -1.6190   22.7430  -28.7130 C   0  0  0  0  0  0  0  0  0  0  0  0
   -1.9260   23.8440  -29.5130 C   0  0  0  0  0  0  0  0  0  0  0  0
   -3.2570   24.2110  -29.7410 C   0  0  0  0  0  0  0  0  0  0  0  0
   -3.5050   25.3000  -30.5800 O   0  0  0  0  0  0  0  0  0  0  0  0
   -4.3010   23.4750  -29.1330 C   0  0  0  0  0  0  0  0  0  0  0  0
   -5.7560   23.7790  -29.4000 C   0  0  0  0  0  0  0  0  0  0  0  0
   -5.9860   24.5390  -31.0520 S   0  0  0  0  0  0  0  0  0  0  0  0
   -6.0770   22.9710  -31.9370 C   0  0  0  0  0  0  0  0  0  0  0  0
   -4.9050   22.3940  -32.3040 N   0  0  0  0  0  0  0  0  0  0  0  0
   -4.8620   21.1630  -32.8630 C   0  0  0  0  0  0  0  0  0  0  0  0
   -3.6300   20.5890  -33.1940 C   0  0  0  0  0  0  0  0  0  0  0  0
   -3.5810   19.3030  -33.7370 C   0  0  0  0  0  0  0  0  0  0  0  0
   -4.7620   18.5800  -33.9460 C   0  0  0  0  0  0  0  0  0  0  0  0
   -4.7050   16.9700  -34.6520 S   0  0  0  0  0  0  0  0  0  0  0  0
   -6.0640   16.3270  -34.5990 O   0  0  0  0  0  0  0  0  0  0  0  0
   -4.2900   17.0670  -36.0940 O   0  0  0  0  0  0  0  0  0  0  0  0
   -3.5560   15.9910  -33.7470 C   0  0  0  0  0  0  0  0  0  0  0  0
   -2.2060   16.3650  -33.6740 C   0  0  0  0  0  0  0  0  0  0  0  0
   -1.3040   15.5940  -32.9330 C   0  0  0  0  0  0  0  0  0  0  0  0
   -1.7470   14.4520  -32.2580 C   0  0  0  0  0  0  0  0  0  0  0  0
   -3.0940   14.0810  -32.3230 C   0  0  0  0  0  0  0  0  0  0  0  0
   -3.9980   14.8490  -33.0630 C   0  0  0  0  0  0  0  0  0  0  0  0
   -5.9990   19.1560  -33.6230 C   0  0  0  0  0  0  0  0  0  0  0  0
   -6.0550   20.4520  -33.0750 C   0  0  0  0  0  0  0  0  0  0  0  0
   -7.2680   21.0680  -32.7200 C   0  0  0  0  0  0  0  0  0  0  0  0
   -8.3550   20.4490  -32.8940 O   0  0  0  0  0  0  0  0  0  0  0  0
   -7.2710   22.3330  -32.1790 N   0  0  0  0  0  0  0  0  0  0  0  0
   -8.5430   22.9700  -31.7980 C   0  0  0  0  0  0  0  0  0  0  0  0
   -3.9770   22.3740  -28.3180 C   0  0  0  0  0  0  0  0  0  0  0  0
   -2.3962   21.0744  -26.2135 H   0  0  0  0  0  0  0  0  0  0  0  0
   -3.0325   19.9859  -27.4929 H   0  0  0  0  0  0  0  0  0  0  0  0
   -1.2984   20.4543  -27.4929 H   0  0  0  0  0  0  0  0  0  0  0  0
   -0.5682   22.4671  -28.5405 H   0  0  0  0  0  0  0  0  0  0  0  0
   -1.1139   24.4293  -29.9690 H   0  0  0  0  0  0  0  0  0  0  0  0
   -3.4050   25.2610  -31.5860 H   0  0  0  0  0  0  0  0  0  0  0  0
   -6.3320   22.8430  -29.3529 H   0  0  0  0  0  0  0  0  0  0  0  0
   -6.1071   24.4910  -28.6386 H   0  0  0  0  0  0  0  0  0  0  0  0
   -2.6992   21.1508  -33.0266 H   0  0  0  0  0  0  0  0  0  0  0  0
   -2.6111   18.8565  -34.0014 H   0  0  0  0  0  0  0  0  0  0  0  0
   -1.8562   17.2655  -34.2000 H   0  0  0  0  0  0  0  0  0  0  0  0
   -0.2448   15.8864  -32.8812 H   0  0  0  0  0  0  0  0  0  0  0  0
   -1.0366   13.8461  -31.6764 H   0  0  0  0  0  0  0  0  0  0  0  0
   -3.4427   13.1835  -31.7910 H   0  0  0  0  0  0  0  0  0  0  0  0
   -5.0576   14.5572  -33.1089 H   0  0  0  0  0  0  0  0  0  0  0  0
   -6.9282   18.5939  -33.7982 H   0  0  0  0  0  0  0  0  0  0  0  0
   -8.6198   23.0085  -30.7014 H   0  0  0  0  0  0  0  0  0  0  0  0
   -8.5775   23.9917  -32.2040 H   0  0  0  0  0  0  0  0  0  0  0  0
   -9.3818   22.3856  -32.2040 H   0  0  0  0  0  0  0  0  0  0  0  0
   -4.7810   21.8094  -27.8232 H   0  0  0  0  0  0  0  0  0  0  0  0
  1  2  1  0
  2  3  2  0
  3  4  1  0
  4  5  2  0
  5  6  1  0
  5  7  1  0
  7  8  1  0
  8  9  1  0
  9 10  1  0
 10 11  2  0
 11 12  1  0
 12 13  2  0
 13 14  1  0
 14 15  2  0
 15 16  1  0
 16 17  2  0
 16 18  2  0
 16 19  1  0
 19 20  2  0
 20 21  1  0
 21 22  2  0
 22 23  1  0
 23 24  2  0
 15 25  1  0
 25 26  2  0
 26 27  1  0
 27 28  2  0
 27 29  1  0
 29 30  1  0
  7 31  2  0
 31  2  1  0
 29 10  1  0
 26 12  1  0
 24 19  1  0
  1 32  1  0
  1 33  1  0
  1 34  1  0
  3 35  1  0
  4 36  1  0
  6 37  1  0
  8 38  1  0
  8 39  1  0
 13 40  1  0
 14 41  1  0
 20 42  1  0
 21 43  1  0
 22 44  1  0
 23 45  1  0
 24 46  1  0
 25 47  1  0
 30 48  1  0
 30 49  1  0
 30 50  1  0
 31 51  1  0
M  END
>  <UniqueID>  (24) 
23

>  <SMILES>  (24) 
Cc1ccc(O)c(CSc2nc3ccc(S(=O)(=O)c4ccccc4)cc3c(=O)n2C)c1

>  <Energy>  (24) 
59.785438263612896

>  <Genealogy>  (24) 
Cc1ccc(O)c(CSc2nc3ccc(S(=O)(=O)c4ccccc4)cc3c(=O)n2C)c1 (3D coordinates assigned)
Cc1ccc(O)c(CSc2nc3ccc(S(=O)(=O)c4ccccc4)cc3c(=O)n2C)c1 (optimized conformer: 59.785438263612896 kcal/mol)

>  <smiles>  (24) 
Cc1ccc(O)c(CSc2nc3ccc(S(=O)(=O)c4ccccc4)cc3c(=O)n2C)c1

>  <score_type>  (24) 
oracle

>  <origin>  (24) 
adgpu

>  <m_score__min__energy>  (24) 
-10.460000000000001

>  <m_primary>  (24) 
energy

$$$$
24:0
     RDKit          3D

 41 43  0  0  0  0  0  0  0  0999 V2000
   -3.8020   18.6300  -26.2860 C   0  0  0  0  0  0  0  0  0  0  0  0
   -2.7480   19.3320  -27.1380 C   0  0  0  0  0  0  0  0  0  0  0  0
   -1.9860   20.3550  -26.3420 C   0  0  0  0  0  0  0  0  0  0  0  0
   -1.6790   20.0940  -25.1470 O   0  0  0  0  0  0  0  0  0  0  0  0
   -1.4860   21.5600  -26.9450 N   0  0  0  0  0  0  0  0  0  0  0  0
   -0.0810   21.9630  -26.8730 C   0  0  0  0  0  0  0  0  0  0  0  0
    0.0930   23.1030  -27.9040 C   0  0  0  0  0  0  0  0  0  0  0  0
   -1.2850   23.3030  -28.4330 C   0  0  0  0  0  0  0  0  0  0  0  0
   -1.7170   24.2630  -29.3470 C   0  0  0  0  0  0  0  0  0  0  0  0
   -3.0840   24.3230  -29.6720 C   0  0  0  0  0  0  0  0  0  0  0  0
   -3.5190   25.2950  -30.5720 O   0  0  0  0  0  0  0  0  0  0  0  0
   -3.9900   23.4190  -29.0630 C   0  0  0  0  0  0  0  0  0  0  0  0
   -5.3780   23.4320  -29.4010 N   0  0  0  0  0  0  0  0  0  0  0  0
   -5.8930   23.6570  -31.0650 S   0  0  0  0  0  0  0  0  0  0  0  0
   -4.6420   23.4230  -31.9010 O   0  0  0  0  0  0  0  0  0  0  0  0
   -6.9740   22.2860  -31.4230 C   0  0  0  0  0  0  0  0  0  0  0  0
   -8.2910   22.2620  -30.9380 C   0  0  0  0  0  0  0  0  0  0  0  0
   -9.1300   21.1840  -31.2380 C   0  0  0  0  0  0  0  0  0  0  0  0
   -8.6580   20.1280  -32.0230 C   0  0  0  0  0  0  0  0  0  0  0  0
   -9.4760   19.0880  -32.3210 F   0  0  0  0  0  0  0  0  0  0  0  0
   -7.3480   20.1500  -32.5110 C   0  0  0  0  0  0  0  0  0  0  0  0
   -6.5070   21.2250  -32.2100 C   0  0  0  0  0  0  0  0  0  0  0  0
   -3.5250   22.4810  -28.1250 C   0  0  0  0  0  0  0  0  0  0  0  0
   -2.1550   22.4180  -27.8600 C   0  0  0  0  0  0  0  0  0  0  0  0
   -3.5734   18.7823  -25.2208 H   0  0  0  0  0  0  0  0  0  0  0  0
   -4.7940   19.0484  -26.5116 H   0  0  0  0  0  0  0  0  0  0  0  0
   -3.7982   17.5534  -26.5116 H   0  0  0  0  0  0  0  0  0  0  0  0
   -2.0424   18.5813  -27.5235 H   0  0  0  0  0  0  0  0  0  0  0  0
   -3.2602   19.8489  -27.9629 H   0  0  0  0  0  0  0  0  0  0  0  0
    0.1615   22.3225  -25.8621 H   0  0  0  0  0  0  0  0  0  0  0  0
    0.5902   21.1191  -27.0906 H   0  0  0  0  0  0  0  0  0  0  0  0
    0.4655   24.0179  -27.4201 H   0  0  0  0  0  0  0  0  0  0  0  0
    0.8243   22.8634  -28.6900 H   0  0  0  0  0  0  0  0  0  0  0  0
   -1.0014   24.9611  -29.8058 H   0  0  0  0  0  0  0  0  0  0  0  0
   -3.4280   25.1830  -31.5740 H   0  0  0  0  0  0  0  0  0  0  0  0
   -6.0520   22.9690  -28.7510 H   0  0  0  0  0  0  0  0  0  0  0  0
   -8.6639   23.0927  -30.3208 H   0  0  0  0  0  0  0  0  0  0  0  0
  -10.1615   21.1671  -30.8562 H   0  0  0  0  0  0  0  0  0  0  0  0
   -6.9789   19.3207  -33.1323 H   0  0  0  0  0  0  0  0  0  0  0  0
   -5.4756   21.2381  -32.5920 H   0  0  0  0  0  0  0  0  0  0  0  0
   -4.2269   21.8091  -27.6093 H   0  0  0  0  0  0  0  0  0  0  0  0
  1  2  1  0
  2  3  1  0
  3  4  2  0
  3  5  1  0
  5  6  1  0
  6  7  1  0
  7  8  1  0
  8  9  2  0
  9 10  1  0
 10 11  1  0
 10 12  2  0
 12 13  1  0
 14 13  1  1
 14 15  2  0
 14 16  1  0
 16 17  2  0
 17 18  1  0
 18 19  2  0
 19 20  1  0
 19 21  1  0
 21 22  2  0
 12 23  1  0
 23 24  2  0
 24  5  1  0
 24  8  1  0
 22 16  1  0
  1 25  1  0
  1 26  1  0
  1 27  1  0
  2 28  1  0
  2 29  1  0
  6 30  1  0
  6 31  1  0
  7 32  1  0
  7 33  1  0
  9 34  1  0
 11 35  1  0
 13 36  1  0
 17 37  1  0
 18 38  1  0
 21 39  1  0
 22 40  1  0
 23 41  1  0
M  END
>  <UniqueID>  (25) 
24

>  <SMILES>  (25) 
CCC(=O)N1CCc2cc(O)c(N[S@@](=O)c3ccc(F)cc3)cc21

>  <Energy>  (25) 
62.95739582743174

>  <Genealogy>  (25) 
CCC(=O)N1CCc2cc(O)c(N[S@@](=O)c3ccc(F)cc3)cc21 (chirality)
CCC(=O)N1CCc2cc(O)c(N[S@@](=O)c3ccc(F)cc3)cc21 (3D coordinates assigned)
CCC(=O)N1CCc2cc(O)c(N[S@@](=O)c3ccc(F)cc3)cc21 (nonaromatic ring conformer: 62.95739582743174 kcal/mol)

>  <smiles>  (25) 
CCC(=O)N1CCc2cc(O)c(NS(=O)c3ccc(F)cc3)cc21

>  <score_type>  (25) 
oracle

>  <origin>  (25) 
adgpu

>  <m_score__min__energy>  (25) 
-9.1699999999999999

>  <m_primary>  (25) 
energy

$$$$
25:0
     RDKit          3D

 63 67  0  0  0  0  0  0  0  0999 V2000
    2.3160   21.5440  -35.1920 O   0  0  0  0  0  0  0  0  0  0  0  0
    1.0820   21.7990  -35.1310 C   0  0  0  0  0  0  0  0  0  0  0  0
    0.5240   22.8760  -35.9020 N   0  0  0  0  0  0  0  0  0  0  0  0
    1.2960   23.9560  -36.4540 C   0  0  0  0  0  0  0  0  0  0  0  0
    2.7010   23.9150  -36.4860 C   0  0  0  0  0  0  0  0  0  0  0  0
    3.4270   24.9950  -36.9950 C   0  0  0  0  0  0  0  0  0  0  0  0
    2.7600   26.1300  -37.4610 C   0  0  0  0  0  0  0  0  0  0  0  0
    1.3590   26.1960  -37.4130 C   0  0  0  0  0  0  0  0  0  0  0  0
    0.5110   27.6290  -38.0030 S   0  0  0  0  0  0  0  0  0  0  0  0
    1.5040   28.5510  -38.6560 O   0  0  0  0  0  0  0  0  0  0  0  0
   -0.4880   27.2120  -39.0450 O   0  0  0  0  0  0  0  0  0  0  0  0
   -0.3190   28.4990  -36.7360 N   0  0  0  0  0  0  0  0  0  0  0  0
   -1.6330   27.9290  -36.4450 C   0  0  0  0  0  0  0  0  0  0  0  0
   -1.9600   28.3230  -35.0110 C   0  0  0  0  0  0  0  0  0  0  0  0
   -0.6230   28.6770  -34.3770 C   0  0  0  0  0  0  0  0  0  0  0  0
    0.4110   28.4560  -35.4720 C   0  0  0  0  0  0  0  0  0  0  0  0
    0.6330   25.1070  -36.9120 C   0  0  0  0  0  0  0  0  0  0  0  0
    0.2160   20.9490  -34.3010 C   0  0  0  0  0  0  0  0  0  0  0  0
   -0.6920   20.0120  -34.7540 C   0  0  0  0  0  0  0  0  0  0  0  0
   -1.2280   19.4900  -33.5920 C   0  0  0  0  0  0  0  0  0  0  0  0
   -2.2490   18.4240  -33.4700 C   0  0  0  0  0  0  0  0  0  0  0  0
   -3.4980   18.6080  -33.9350 C   0  0  0  0  0  0  0  0  0  0  0  0
   -4.4980   17.5800  -33.8290 N   0  0  0  0  0  0  0  0  0  0  0  0
   -6.1140   17.9360  -34.3560 S   0  0  0  0  0  0  0  0  0  0  0  0
   -6.0890   18.5790  -35.7150 O   0  0  0  0  0  0  0  0  0  0  0  0
   -6.9040   16.6600  -34.4440 O   0  0  0  0  0  0  0  0  0  0  0  0
   -6.8790   19.0480  -33.2220 C   0  0  0  0  0  0  0  0  0  0  0  0
   -6.3110   20.3080  -32.9810 C   0  0  0  0  0  0  0  0  0  0  0  0
   -6.9060   21.1840  -32.0660 C   0  0  0  0  0  0  0  0  0  0  0  0
   -8.0650   20.8040  -31.3820 C   0  0  0  0  0  0  0  0  0  0  0  0
   -8.6300   19.5450  -31.6120 C   0  0  0  0  0  0  0  0  0  0  0  0
   -8.0390   18.6680  -32.5280 C   0  0  0  0  0  0  0  0  0  0  0  0
   -4.2320   16.3360  -33.0960 C   0  0  0  0  0  0  0  0  0  0  0  0
   -2.7490   15.9750  -33.1730 C   0  0  0  0  0  0  0  0  0  0  0  0
   -1.8930   17.1600  -32.7210 C   0  0  0  0  0  0  0  0  0  0  0  0
   -0.6660   20.0900  -32.5660 O   0  0  0  0  0  0  0  0  0  0  0  0
    0.2040   20.9760  -32.9540 N   0  0  0  0  0  0  0  0  0  0  0  0
   -0.4890   22.8230  -36.1570 H   0  0  0  0  0  0  0  0  0  0  0  0
    3.2314   23.0283  -36.1085 H   0  0  0  0  0  0  0  0  0  0  0  0
    4.5256   24.9511  -37.0287 H   0  0  0  0  0  0  0  0  0  0  0  0
    3.3348   26.9753  -37.8671 H   0  0  0  0  0  0  0  0  0  0  0  0
   -2.3868   28.3378  -37.1339 H   0  0  0  0  0  0  0  0  0  0  0  0
   -1.6319   26.8361  -36.5696 H   0  0  0  0  0  0  0  0  0  0  0  0
   -2.6360   29.1906  -34.9944 H   0  0  0  0  0  0  0  0  0  0  0  0
   -2.4691   27.5124  -34.4690 H   0  0  0  0  0  0  0  0  0  0  0  0
   -0.6181   29.7268  -34.0485 H   0  0  0  0  0  0  0  0  0  0  0  0
   -0.4158   28.0644  -33.4872 H   0  0  0  0  0  0  0  0  0  0  0  0
    1.1719   29.2499  -35.4439 H   0  0  0  0  0  0  0  0  0  0  0  0
    0.9329   27.4963  -35.3429 H   0  0  0  0  0  0  0  0  0  0  0  0
   -0.4654   25.1537  -36.8770 H   0  0  0  0  0  0  0  0  0  0  0  0
   -0.9318   19.7445  -35.7937 H   0  0  0  0  0  0  0  0  0  0  0  0
   -3.7602   19.5664  -34.4069 H   0  0  0  0  0  0  0  0  0  0  0  0
   -5.3959   20.6081  -33.5125 H   0  0  0  0  0  0  0  0  0  0  0  0
   -6.4611   22.1735  -31.8845 H   0  0  0  0  0  0  0  0  0  0  0  0
   -8.5319   21.4942  -30.6639 H   0  0  0  0  0  0  0  0  0  0  0  0
   -9.5399   19.2443  -31.0720 H   0  0  0  0  0  0  0  0  0  0  0  0
   -8.4844   17.6779  -32.7050 H   0  0  0  0  0  0  0  0  0  0  0  0
   -4.5178   16.4688  -32.0421 H   0  0  0  0  0  0  0  0  0  0  0  0
   -4.8194   15.5239  -33.5492 H   0  0  0  0  0  0  0  0  0  0  0  0
   -2.5504   15.1129  -32.5193 H   0  0  0  0  0  0  0  0  0  0  0  0
   -2.4941   15.7239  -34.2132 H   0  0  0  0  0  0  0  0  0  0  0  0
   -2.0530   17.3258  -31.6454 H   0  0  0  0  0  0  0  0  0  0  0  0
   -0.8396   16.9221  -32.9304 H   0  0  0  0  0  0  0  0  0  0  0  0
  1  2  2  0
  2  3  1  0
  3  4  1  0
  4  5  2  0
  5  6  1  0
  6  7  2  0
  7  8  1  0
  8  9  1  0
  9 10  2  0
  9 11  2  0
  9 12  1  0
 12 13  1  0
 13 14  1  0
 14 15  1  0
 15 16  1  0
  8 17  2  0
  2 18  1  0
 18 19  1  0
 19 20  2  0
 20 21  1  0
 21 22  2  0
 22 23  1  0
 23 24  1  0
 24 25  2  0
 24 26  2  0
 24 27  1  0
 27 28  2  0
 28 29  1  0
 29 30  2  0
 30 31  1  0
 31 32  2  0
 23 33  1  0
 33 34  1  0
 34 35  1  0
 20 36  1  0
 36 37  1  0
 17  4  1  0
 37 18  2  0
 16 12  1  0
 35 21  1  0
 32 27  1  0
  3 38  1  0
  5 39  1  0
  6 40  1  0
  7 41  1  0
 13 42  1  0
 13 43  1  0
 14 44  1  0
 14 45  1  0
 15 46  1  0
 15 47  1  0
 16 48  1  0
 16 49  1  0
 17 50  1  0
 19 51  1  0
 22 52  1  0
 28 53  1  0
 29 54  1  0
 30 55  1  0
 31 56  1  0
 32 57  1  0
 33 58  1  0
 33 59  1  0
 34 60  1  0
 34 61  1  0
 35 62  1  0
 35 63  1  0
M  END
>  <UniqueID>  (26) 
25

>  <SMILES>  (26) 
O=C(Nc1cccc(S(=O)(=O)N2CCCC2)c1)c1cc(C2=CN(S(=O)(=O)c3ccccc3)CCC2)on1

>  <Energy>  (26) 
101.48866541759283

>  <Genealogy>  (26) 
O=C(Nc1cccc(S(=O)(=O)N2CCCC2)c1)c1cc(C2=CN(S(=O)(=O)c3ccccc3)CCC2)on1 (3D coordinates assigned)
O=C(Nc1cccc(S(=O)(=O)N2CCCC2)c1)c1cc(C2=CN(S(=O)(=O)c3ccccc3)CCC2)on1 (nonaromatic ring conformer: 101.48866541759283 kcal/mol)

>  <smiles>  (26) 
O=C(Nc1cccc(S(=O)(=O)N2CCCC2)c1)c1cc(C2=CN(S(=O)(=O)c3ccccc3)CCC2)on1

>  <score_type>  (26) 
oracle

>  <origin>  (26) 
adgpu

>  <m_score__min__energy>  (26) 
-12.06

>  <m_primary>  (26) 
energy

$$$$
26:0
     RDKit          3D

 31 33  0  0  0  0  0  0  0  0999 V2000
   -3.4190   21.0320  -30.5360 O   0  0  0  0  0  0  0  0  0  0  0  0
   -3.7920   22.2150  -30.3080 C   0  0  0  0  0  0  0  0  0  0  0  0
   -5.1450   22.6440  -30.7340 C   0  0  0  0  0  0  0  0  0  0  0  0
   -5.6980   22.1490  -31.9300 C   0  0  0  0  0  0  0  0  0  0  0  0
   -6.9800   22.5370  -32.3320 C   0  0  0  0  0  0  0  0  0  0  0  0
   -7.7270   23.4130  -31.5400 C   0  0  0  0  0  0  0  0  0  0  0  0
   -7.1950   23.8990  -30.3430 C   0  0  0  0  0  0  0  0  0  0  0  0
   -5.9140   23.5150  -29.9370 C   0  0  0  0  0  0  0  0  0  0  0  0
   -2.8560   23.1370  -29.6310 C   0  0  0  0  0  0  0  0  0  0  0  0
   -1.7320   22.8110  -28.8700 C   0  0  0  0  0  0  0  0  0  0  0  0
   -1.3280   21.4570  -28.4250 C   0  0  0  0  0  0  0  0  0  0  0  0
   -1.7410   20.9710  -27.1730 C   0  0  0  0  0  0  0  0  0  0  0  0
   -1.3450   19.7020  -26.7400 C   0  0  0  0  0  0  0  0  0  0  0  0
   -0.5230   18.9110  -27.5470 C   0  0  0  0  0  0  0  0  0  0  0  0
   -0.1300   17.6510  -27.1140 O   0  0  0  0  0  0  0  0  0  0  0  0
   -0.0970   19.3900  -28.7880 C   0  0  0  0  0  0  0  0  0  0  0  0
   -0.4920   20.6570  -29.2290 C   0  0  0  0  0  0  0  0  0  0  0  0
   -0.0590   21.1070  -30.4730 O   0  0  0  0  0  0  0  0  0  0  0  0
   -1.0420   23.9240  -28.5270 N   0  0  0  0  0  0  0  0  0  0  0  0
   -1.7200   24.9500  -29.0740 C   0  0  0  0  0  0  0  0  0  0  0  0
   -1.3280   26.2770  -28.9590 O   0  0  0  0  0  0  0  0  0  0  0  0
   -2.8240   24.5100  -29.7570 C   0  0  0  0  0  0  0  0  0  0  0  0
   -3.7100   25.3010  -30.4790 O   0  0  0  0  0  0  0  0  0  0  0  0
   -5.1178   21.4522  -32.5527 H   0  0  0  0  0  0  0  0  0  0  0  0
   -7.4008   22.1522  -33.2727 H   0  0  0  0  0  0  0  0  0  0  0  0
   -8.7340   23.7200  -31.8590 H   0  0  0  0  0  0  0  0  0  0  0  0
   -7.7858   24.5855  -29.7187 H   0  0  0  0  0  0  0  0  0  0  0  0
   -5.5037   23.8950  -28.9897 H   0  0  0  0  0  0  0  0  0  0  0  0
   -2.3802   21.5931  -26.5292 H   0  0  0  0  0  0  0  0  0  0  0  0
   -1.6810   19.3257  -25.7625 H   0  0  0  0  0  0  0  0  0  0  0  0
    0.5522   18.7677  -29.4214 H   0  0  0  0  0  0  0  0  0  0  0  0
  1  2  2  0
  2  3  1  0
  3  4  2  0
  4  5  1  0
  5  6  2  0
  6  7  1  0
  7  8  2  0
  2  9  1  0
  9 10  2  0
 10 11  1  0
 11 12  2  0
 12 13  1  0
 13 14  2  0
 14 15  1  0
 14 16  1  0
 16 17  2  0
 17 18  1  0
 10 19  1  0
 19 20  1  0
 20 21  1  0
 20 22  2  0
 22 23  1  0
  8  3  1  0
 22  9  1  0
 17 11  1  0
  4 24  1  0
  5 25  1  0
  6 26  1  0
  7 27  1  0
  8 28  1  0
 12 29  1  0
 13 30  1  0
 16 31  1  0
M  CHG  5  15  -1  18  -1  19  -1  21  -1  23  -1
M  END
>  <UniqueID>  (27) 
26

>  <SMILES>  (27) 
O=C(c1ccccc1)c1c(-c2ccc([O-])cc2[O-])[n-]c([O-])c1[O-]

>  <Energy>  (27) 
73.0718065737728

>  <Genealogy>  (27) 
O=C(c1ccccc1)c1c(-c2ccc([O-])cc2[O-])[n-]c([O-])c1[O-] (protonated)
O=C(c1ccccc1)c1c(-c2ccc([O-])cc2[O-])[n-]c([O-])c1[O-] (3D coordinates assigned)
O=C(c1ccccc1)c1c(-c2ccc([O-])cc2[O-])[n-]c([O-])c1[O-] (optimized conformer: 73.0718065737728 kcal/mol)

>  <smiles>  (27) 
O=C(c1ccccc1)c1c(-c2ccc(O)cc2O)[nH]c(O)c1O

>  <score_type>  (27) 
oracle

>  <origin>  (27) 
adgpu

>  <m_score__min__energy>  (27) 
-13.56

>  <m_primary>  (27) 
energy

$$$$
27:0
     RDKit          3D

 59 62  0  0  0  0  0  0  0  0999 V2000
   -0.1180   23.4220  -25.3820 C   0  0  0  0  0  0  0  0  0  0  0  0
   -0.7320   22.3260  -26.1850 C   0  0  0  0  0  0  0  0  0  0  0  0
   -1.2410   21.1930  -25.6590 N   0  0  0  0  0  0  0  0  0  0  0  0
   -1.7460   20.4770  -26.6540 N   0  0  0  0  0  0  0  0  0  0  0  0
   -2.4740   19.2290  -26.4590 C   0  0  0  0  0  0  0  0  0  0  0  0
   -1.5880   21.1380  -27.8210 C   0  0  0  0  0  0  0  0  0  0  0  0
   -2.1270   20.6880  -29.1450 C   0  0  0  0  0  0  0  0  0  0  0  0
   -0.9290   22.3200  -27.5510 C   0  0  0  0  0  0  0  0  0  0  0  0
   -0.7280   23.4160  -28.4440 N   0  0  0  0  0  0  0  0  0  0  0  0
   -1.8510   24.7330  -28.4970 S   0  0  0  0  0  0  0  0  0  0  0  0
   -2.1980   25.1660  -27.0990 O   0  0  0  0  0  0  0  0  0  0  0  0
   -1.2220   25.8910  -29.2210 O   0  0  0  0  0  0  0  0  0  0  0  0
   -3.3070   24.2230  -29.3440 C   0  0  0  0  0  0  0  0  0  0  0  0
   -4.5630   24.5200  -28.8000 C   0  0  0  0  0  0  0  0  0  0  0  0
   -5.7220   23.9940  -29.3750 C   0  0  0  0  0  0  0  0  0  0  0  0
   -5.6400   23.1690  -30.5110 C   0  0  0  0  0  0  0  0  0  0  0  0
   -6.8570   22.5310  -31.0660 C   0  0  0  0  0  0  0  0  0  0  0  0
   -7.9770   23.3060  -31.4100 C   0  0  0  0  0  0  0  0  0  0  0  0
   -9.1060   22.7030  -31.9660 C   0  0  0  0  0  0  0  0  0  0  0  0
   -9.1230   21.3280  -32.2060 C   0  0  0  0  0  0  0  0  0  0  0  0
   -8.0060   20.5390  -31.8870 C   0  0  0  0  0  0  0  0  0  0  0  0
   -8.0090   19.0580  -32.1940 C   0  0  0  0  0  0  0  0  0  0  0  0
   -6.6580   18.4950  -32.4260 N   0  0  0  0  0  0  0  0  0  0  0  0
   -5.8020   19.2580  -33.3630 C   0  0  0  0  0  0  0  0  0  0  0  0
   -5.1220   18.3630  -34.4070 C   0  0  0  0  0  0  0  0  0  0  0  0
   -6.0890   17.4360  -34.9950 N   0  0  0  0  0  0  0  0  0  0  0  0
   -6.6740   16.5210  -33.9970 C   0  0  0  0  0  0  0  0  0  0  0  0
   -6.5810   17.0240  -32.5370 C   0  0  0  0  0  0  0  0  0  0  0  0
   -6.8870   21.1450  -31.2920 C   0  0  0  0  0  0  0  0  0  0  0  0
   -4.3790   22.9090  -31.0770 C   0  0  0  0  0  0  0  0  0  0  0  0
   -3.2200   23.4300  -30.4950 C   0  0  0  0  0  0  0  0  0  0  0  0
   -0.2400   23.2042  -24.3107 H   0  0  0  0  0  0  0  0  0  0  0  0
    0.9531   23.4962  -25.6214 H   0  0  0  0  0  0  0  0  0  0  0  0
   -0.6141   24.3741  -25.6214 H   0  0  0  0  0  0  0  0  0  0  0  0
   -2.5872   19.0349  -25.3822 H   0  0  0  0  0  0  0  0  0  0  0  0
   -3.4678   19.3078  -26.9238 H   0  0  0  0  0  0  0  0  0  0  0  0
   -1.9162   18.4027  -26.9238 H   0  0  0  0  0  0  0  0  0  0  0  0
   -2.9622   19.9907  -28.9830 H   0  0  0  0  0  0  0  0  0  0  0  0
   -2.4828   21.5609  -29.7119 H   0  0  0  0  0  0  0  0  0  0  0  0
   -1.3316   20.1820  -29.7119 H   0  0  0  0  0  0  0  0  0  0  0  0
   -4.6369   25.1704  -27.9160 H   0  0  0  0  0  0  0  0  0  0  0  0
   -6.7040   24.2262  -28.9371 H   0  0  0  0  0  0  0  0  0  0  0  0
   -7.9640   24.3928  -31.2404 H   0  0  0  0  0  0  0  0  0  0  0  0
   -9.9861   23.3137  -32.2161 H   0  0  0  0  0  0  0  0  0  0  0  0
  -10.0156   20.8603  -32.6471 H   0  0  0  0  0  0  0  0  0  0  0  0
   -8.4648   18.5282  -31.3446 H   0  0  0  0  0  0  0  0  0  0  0  0
   -8.5775   18.9241  -33.1261 H   0  0  0  0  0  0  0  0  0  0  0  0
   -6.4256   19.9977  -33.8864 H   0  0  0  0  0  0  0  0  0  0  0  0
   -5.0093   19.7395  -32.7715 H   0  0  0  0  0  0  0  0  0  0  0  0
   -4.6955   18.9932  -35.2013 H   0  0  0  0  0  0  0  0  0  0  0  0
   -4.3271   17.7832  -33.9150 H   0  0  0  0  0  0  0  0  0  0  0  0
   -6.8530   17.9930  -35.4450 H   0  0  0  0  0  0  0  0  0  0  0  0
   -7.7361   16.3761  -34.2440 H   0  0  0  0  0  0  0  0  0  0  0  0
   -6.0914   15.5892  -34.0458 H   0  0  0  0  0  0  0  0  0  0  0  0
   -7.4099   16.5855  -31.9619 H   0  0  0  0  0  0  0  0  0  0  0  0
   -5.6004   16.7159  -32.1453 H   0  0  0  0  0  0  0  0  0  0  0  0
   -6.0249   20.5274  -30.9999 H   0  0  0  0  0  0  0  0  0  0  0  0
   -4.3044   22.2913  -31.9841 H   0  0  0  0  0  0  0  0  0  0  0  0
   -2.2377   23.2168  -30.9418 H   0  0  0  0  0  0  0  0  0  0  0  0
  1  2  1  0
  2  3  2  0
  3  4  1  0
  4  5  1  0
  4  6  1  0
  6  7  1  0
  6  8  2  0
  8  9  1  0
  9 10  1  0
 10 11  2  0
 10 12  2  0
 10 13  1  0
 13 14  2  0
 14 15  1  0
 15 16  2  0
 16 17  1  0
 17 18  2  0
 18 19  1  0
 19 20  2  0
 20 21  1  0
 21 22  1  0
 22 23  1  0
 23 24  1  0
 24 25  1  0
 25 26  1  0
 26 27  1  0
 27 28  1  0
 21 29  2  0
 16 30  1  0
 30 31  2  0
  8  2  1  0
 31 13  1  0
 29 17  1  0
 28 23  1  0
  1 32  1  0
  1 33  1  0
  1 34  1  0
  5 35  1  0
  5 36  1  0
  5 37  1  0
  7 38  1  0
  7 39  1  0
  7 40  1  0
 14 41  1  0
 15 42  1  0
 18 43  1  0
 19 44  1  0
 20 45  1  0
 22 46  1  0
 22 47  1  0
 24 48  1  0
 24 49  1  0
 25 50  1  0
 25 51  1  0
 26 52  1  0
 27 53  1  0
 27 54  1  0
 28 55  1  0
 28 56  1  0
 29 57  1  0
 30 58  1  0
 31 59  1  0
M  CHG  1   9  -1
M  END
>  <UniqueID>  (28) 
27

>  <SMILES>  (28) 
Cc1nn(C)c(C)c1[N-]S(=O)(=O)c1ccc(-c2cccc(CN3CCNCC3)c2)cc1

>  <Energy>  (28) 
115.88547111082529

>  <Genealogy>  (28) 
Cc1nn(C)c(C)c1[N-]S(=O)(=O)c1ccc(-c2cccc(CN3CCNCC3)c2)cc1 (protonated)
Cc1nn(C)c(C)c1[N-]S(=O)(=O)c1ccc(-c2cccc(CN3CCNCC3)c2)cc1 (3D coordinates assigned)
Cc1nn(C)c(C)c1[N-]S(=O)(=O)c1ccc(-c2cccc(CN3CCNCC3)c2)cc1 (nonaromatic ring conformer: 115.88547111082529 kcal/mol)

>  <smiles>  (28) 
Cc1nn(C)c(C)c1NS(=O)(=O)c1ccc(-c2cccc(CN3CCNCC3)c2)cc1

>  <score_type>  (28) 
oracle

>  <origin>  (28) 
adgpu

>  <m_score__min__energy>  (28) 
-11.09

>  <m_primary>  (28) 
energy

$$$$
28:0
     RDKit          3D

 63 66  0  0  0  0  0  0  0  0999 V2000
   -7.8560   23.3610  -30.8820 O   0  0  0  0  0  0  0  0  0  0  0  0
   -6.9040   22.7760  -31.4700 C   0  0  0  0  0  0  0  0  0  0  0  0
   -7.0910   21.4820  -31.9700 C   0  0  0  0  0  0  0  0  0  0  0  0
   -8.6540   20.6830  -31.8070 Cl  0  0  0  0  0  0  0  0  0  0  0  0
   -6.0270   20.8430  -32.6160 C   0  0  0  0  0  0  0  0  0  0  0  0
   -6.1660   19.5140  -33.1360 N   0  0  0  0  0  0  0  0  0  0  0  0
   -6.1100   19.2770  -34.5770 C   0  0  0  0  0  0  0  0  0  0  0  0
   -5.5090   17.8910  -34.8290 C   0  0  0  0  0  0  0  0  0  0  0  0
   -6.2770   16.7920  -34.1720 N   0  0  0  0  0  0  0  0  0  0  0  0
   -5.3920   15.6570  -33.7990 C   0  0  0  0  0  0  0  0  0  0  0  0
   -5.9760   14.2830  -34.1850 C   0  0  0  0  0  0  0  0  0  0  0  0
   -7.2740   14.4030  -34.7020 O   0  0  0  0  0  0  0  0  0  0  0  0
   -7.0820   17.2370  -32.9960 C   0  0  0  0  0  0  0  0  0  0  0  0
   -6.4360   18.3980  -32.2270 C   0  0  0  0  0  0  0  0  0  0  0  0
   -4.8150   21.5170  -32.7470 C   0  0  0  0  0  0  0  0  0  0  0  0
   -4.6850   22.7700  -32.2420 N   0  0  0  0  0  0  0  0  0  0  0  0
   -5.6900   23.3960  -31.6240 N   0  0  0  0  0  0  0  0  0  0  0  0
   -5.4340   24.7350  -31.0780 C   0  0  0  0  0  0  0  0  0  0  0  0
   -4.5360   24.6470  -29.8390 C   0  0  0  0  0  0  0  0  0  0  0  0
   -3.9360   23.2990  -29.7210 N   0  0  0  0  0  0  0  0  0  0  0  0
   -4.1840   22.6770  -28.3910 C   0  0  0  0  0  0  0  0  0  0  0  0
   -2.9650   22.6900  -27.4470 C   0  0  0  0  0  0  0  0  0  0  0  0
   -2.0900   23.8310  -27.7330 N   0  0  0  0  0  0  0  0  0  0  0  0
   -1.5780   24.6410  -26.6650 C   0  0  0  0  0  0  0  0  0  0  0  0
   -2.4040   25.6180  -26.0910 C   0  0  0  0  0  0  0  0  0  0  0  0
   -1.9340   26.4120  -25.0440 C   0  0  0  0  0  0  0  0  0  0  0  0
   -0.6340   26.2410  -24.5660 C   0  0  0  0  0  0  0  0  0  0  0  0
    0.2060   25.2780  -25.1340 C   0  0  0  0  0  0  0  0  0  0  0  0
    1.8400   25.1040  -24.5070 Cl  0  0  0  0  0  0  0  0  0  0  0  0
   -0.2610   24.4720  -26.1900 C   0  0  0  0  0  0  0  0  0  0  0  0
    0.8090   23.2880  -26.9390 Cl  0  0  0  0  0  0  0  0  0  0  0  0
   -1.6640   24.0980  -29.1080 C   0  0  0  0  0  0  0  0  0  0  0  0
   -2.5080   23.2880  -30.1010 C   0  0  0  0  0  0  0  0  0  0  0  0
   -7.1252   19.3214  -34.9982 H   0  0  0  0  0  0  0  0  0  0  0  0
   -5.4872   20.0461  -35.0572 H   0  0  0  0  0  0  0  0  0  0  0  0
   -5.4938   17.7078  -35.9135 H   0  0  0  0  0  0  0  0  0  0  0  0
   -4.4974   17.8883  -34.3970 H   0  0  0  0  0  0  0  0  0  0  0  0
   -6.9660   16.4290  -34.8740 H   0  0  0  0  0  0  0  0  0  0  0  0
   -4.4263   15.7832  -34.3104 H   0  0  0  0  0  0  0  0  0  0  0  0
   -5.2832   15.6716  -32.7045 H   0  0  0  0  0  0  0  0  0  0  0  0
   -5.3296   13.8208  -34.9457 H   0  0  0  0  0  0  0  0  0  0  0  0
   -6.0215   13.6606  -33.2792 H   0  0  0  0  0  0  0  0  0  0  0  0
   -7.4350   13.5940  -35.2560 H   0  0  0  0  0  0  0  0  0  0  0  0
   -8.0714   17.5604  -33.3515 H   0  0  0  0  0  0  0  0  0  0  0  0
   -7.1506   16.3842  -32.3046 H   0  0  0  0  0  0  0  0  0  0  0  0
   -7.1189   18.7329  -31.4323 H   0  0  0  0  0  0  0  0  0  0  0  0
   -5.4885   18.0551  -31.7858 H   0  0  0  0  0  0  0  0  0  0  0  0
   -3.9675   21.0360  -33.2572 H   0  0  0  0  0  0  0  0  0  0  0  0
   -4.9361   25.3488  -31.8431 H   0  0  0  0  0  0  0  0  0  0  0  0
   -6.3928   25.1913  -30.7907 H   0  0  0  0  0  0  0  0  0  0  0  0
   -3.7325   25.3937  -29.9219 H   0  0  0  0  0  0  0  0  0  0  0  0
   -5.1473   24.8409  -28.9453 H   0  0  0  0  0  0  0  0  0  0  0  0
   -5.0039   23.2239  -27.9024 H   0  0  0  0  0  0  0  0  0  0  0  0
   -4.4264   21.6204  -28.5778 H   0  0  0  0  0  0  0  0  0  0  0  0
   -3.3164   22.7582  -26.4069 H   0  0  0  0  0  0  0  0  0  0  0  0
   -2.3931   21.7631  -27.6010 H   0  0  0  0  0  0  0  0  0  0  0  0
   -3.4277   25.7593  -26.4679 H   0  0  0  0  0  0  0  0  0  0  0  0
   -2.5888   27.1734  -24.5951 H   0  0  0  0  0  0  0  0  0  0  0  0
   -0.2683   26.8667  -23.7385 H   0  0  0  0  0  0  0  0  0  0  0  0
   -1.7839   25.1703  -29.3220 H   0  0  0  0  0  0  0  0  0  0  0  0
   -0.6095   23.8043  -29.2162 H   0  0  0  0  0  0  0  0  0  0  0  0
   -2.4002   23.7258  -31.1044 H   0  0  0  0  0  0  0  0  0  0  0  0
   -2.1529   22.2469  -30.0922 H   0  0  0  0  0  0  0  0  0  0  0  0
  1  2  2  0
  2  3  1  0
  3  4  1  0
  3  5  2  0
  5  6  1  0
  6  7  1  0
  7  8  1  0
  8  9  1  0
  9 10  1  0
 10 11  1  0
 11 12  1  0
  9 13  1  0
 13 14  1  0
  5 15  1  0
 15 16  2  0
 16 17  1  0
 17 18  1  0
 18 19  1  0
 19 20  1  0
 20 21  1  0
 21 22  1  0
 22 23  1  0
 23 24  1  0
 24 25  2  0
 25 26  1  0
 26 27  2  0
 27 28  1  0
 28 29  1  0
 28 30  2  0
 30 31  1  0
 23 32  1  0
 32 33  1  0
 17  2  1  0
 33 20  1  0
 14  6  1  0
 30 24  1  0
  7 34  1  0
  7 35  1  0
  8 36  1  0
  8 37  1  0
  9 38  1  0
 10 39  1  0
 10 40  1  0
 11 41  1  0
 11 42  1  0
 12 43  1  0
 13 44  1  0
 13 45  1  0
 14 46  1  0
 14 47  1  0
 15 48  1  0
 18 49  1  0
 18 50  1  0
 19 51  1  0
 19 52  1  0
 21 53  1  0
 21 54  1  0
 22 55  1  0
 22 56  1  0
 25 57  1  0
 26 58  1  0
 27 59  1  0
 32 60  1  0
 32 61  1  0
 33 62  1  0
 33 63  1  0
M  CHG  1   9   1
M  END
>  <UniqueID>  (29) 
28

>  <SMILES>  (29) 
O=c1c(Cl)c(N2CC[NH+](CCO)CC2)cnn1CCN1CCN(c2cccc(Cl)c2Cl)CC1

>  <Energy>  (29) 
94.25855382850746

>  <Genealogy>  (29) 
O=c1c(Cl)c(N2CC[NH+](CCO)CC2)cnn1CCN1CCN(c2cccc(Cl)c2Cl)CC1 (protonated)
O=c1c(Cl)c(N2CC[NH+](CCO)CC2)cnn1CCN1CCN(c2cccc(Cl)c2Cl)CC1 (3D coordinates assigned)
O=c1c(Cl)c(N2CC[NH+](CCO)CC2)cnn1CCN1CCN(c2cccc(Cl)c2Cl)CC1 (nonaromatic ring conformer: 94.25855382850746 kcal/mol)

>  <smiles>  (29) 
O=c1c(Cl)c(N2CCN(CCO)CC2)cnn1CCN1CCN(c2cccc(Cl)c2Cl)CC1

>  <score_type>  (29) 
oracle

>  <origin>  (29) 
adgpu

>  <m_score__min__energy>  (29) 
-9.8900000000000006

>  <m_primary>  (29) 
energy

$$$$
29:0
     RDKit          3D

 53 56  0  0  0  0  0  0  0  0999 V2000
   -9.8700   17.1980  -31.2710 H   0  0  0  0  0  0  0  0  0  0  0  0
   -9.4510   18.1550  -31.2570 N   0  0  0  0  0  0  0  0  0  0  0  0
   -8.3680   18.4390  -31.9110 C   0  0  0  0  0  0  0  0  0  0  0  0
   -7.7210   17.4960  -32.6520 N   0  0  0  0  0  0  0  0  0  0  0  0
   -8.0980   16.5220  -32.6960 H   0  0  0  0  0  0  0  0  0  0  0  0
   -6.5750   17.8100  -33.3400 C   0  0  0  0  0  0  0  0  0  0  0  0
   -5.9980   16.8680  -34.0260 N   0  0  0  0  0  0  0  0  0  0  0  0
   -5.1270   16.9810  -34.5880 H   0  0  0  0  0  0  0  0  0  0  0  0
   -6.0630   19.0980  -33.2940 N   0  0  0  0  0  0  0  0  0  0  0  0
   -4.8260   19.4970  -33.9960 C   0  0  0  0  0  0  0  0  0  0  0  0
   -4.3744   18.6088  -34.4619 H   0  0  0  0  0  0  0  0  0  0  0  0
   -5.0828   20.2449  -34.7607 H   0  0  0  0  0  0  0  0  0  0  0  0
   -3.8340   20.1100  -33.0380 C   0  0  0  0  0  0  0  0  0  0  0  0
   -3.9250   19.8530  -31.6610 C   0  0  0  0  0  0  0  0  0  0  0  0
   -4.7174   19.1920  -31.2799 H   0  0  0  0  0  0  0  0  0  0  0  0
   -3.0160   20.4310  -30.7710 C   0  0  0  0  0  0  0  0  0  0  0  0
   -3.0930   20.2149  -29.6952 H   0  0  0  0  0  0  0  0  0  0  0  0
   -2.0080   21.2830  -31.2380 C   0  0  0  0  0  0  0  0  0  0  0  0
   -1.1180   21.8360  -30.3050 O   0  0  0  0  0  0  0  0  0  0  0  0
   -0.7620   21.2200  -29.0720 C   0  0  0  0  0  0  0  0  0  0  0  0
   -1.1198   21.8391  -28.2361 H   0  0  0  0  0  0  0  0  0  0  0  0
   -1.2232   20.2231  -29.0136 H   0  0  0  0  0  0  0  0  0  0  0  0
    0.3321   21.1219  -29.0136 H   0  0  0  0  0  0  0  0  0  0  0  0
   -1.9250   21.5550  -32.6160 C   0  0  0  0  0  0  0  0  0  0  0  0
   -1.1402   22.2264  -32.9944 H   0  0  0  0  0  0  0  0  0  0  0  0
   -2.8340   20.9770  -33.5070 C   0  0  0  0  0  0  0  0  0  0  0  0
   -2.7655   21.2026  -34.5814 H   0  0  0  0  0  0  0  0  0  0  0  0
   -6.7440   20.0100  -32.5370 C   0  0  0  0  0  0  0  0  0  0  0  0
   -6.4160   21.3050  -32.3610 N   0  0  0  0  0  0  0  0  0  0  0  0
   -7.4110   21.7180  -31.5330 C   0  0  0  0  0  0  0  0  0  0  0  0
   -7.5570   23.1300  -31.0690 C   0  0  0  0  0  0  0  0  0  0  0  0
   -7.9672   23.7414  -31.8862 H   0  0  0  0  0  0  0  0  0  0  0  0
   -8.2371   23.1577  -30.2049 H   0  0  0  0  0  0  0  0  0  0  0  0
   -6.2180   23.6780  -30.6610 C   0  0  0  0  0  0  0  0  0  0  0  0
   -5.2930   22.8610  -29.9930 C   0  0  0  0  0  0  0  0  0  0  0  0
   -5.5361   21.8067  -29.7945 H   0  0  0  0  0  0  0  0  0  0  0  0
   -4.0640   23.3820  -29.5790 C   0  0  0  0  0  0  0  0  0  0  0  0
   -3.3429   22.7317  -29.0621 H   0  0  0  0  0  0  0  0  0  0  0  0
   -3.7420   24.7240  -29.8160 C   0  0  0  0  0  0  0  0  0  0  0  0
   -2.4690   25.2110  -29.3700 N   0  0  0  0  0  0  0  0  0  0  0  0
   -1.8370   25.0740  -27.7600 S   0  0  0  0  0  0  0  0  0  0  0  0
   -1.0670   26.3240  -27.4370 O   0  0  0  0  0  0  0  0  0  0  0  0
   -0.9060   23.8980  -27.6720 O   0  0  0  0  0  0  0  0  0  0  0  0
   -3.1680   24.9040  -26.5910 C   0  0  0  0  0  0  0  0  0  0  0  0
   -2.7665   24.9553  -25.5682 H   0  0  0  0  0  0  0  0  0  0  0  0
   -3.8939   25.7167  -26.7411 H   0  0  0  0  0  0  0  0  0  0  0  0
   -3.6663   23.9349  -26.7411 H   0  0  0  0  0  0  0  0  0  0  0  0
   -4.6760   25.5470  -30.4720 C   0  0  0  0  0  0  0  0  0  0  0  0
   -4.4373   26.6042  -30.6599 H   0  0  0  0  0  0  0  0  0  0  0  0
   -5.9060   25.0270  -30.8860 C   0  0  0  0  0  0  0  0  0  0  0  0
   -6.6334   25.6795  -31.3911 H   0  0  0  0  0  0  0  0  0  0  0  0
   -8.3030   20.7420  -31.2350 N   0  0  0  0  0  0  0  0  0  0  0  0
   -7.8500   19.6830  -31.8750 N   0  0  0  0  0  0  0  0  0  0  0  0
  1  2  1  0
  2  3  2  3
  3  4  1  0
  4  5  1  0
  4  6  1  0
  6  7  2  0
  7  8  1  0
  6  9  1  0
  9 10  1  0
 10 11  1  0
 10 12  1  0
 10 13  1  0
 13 14  2  0
 14 15  1  0
 14 16  1  0
 16 17  1  0
 16 18  2  0
 18 19  1  0
 19 20  1  0
 20 21  1  0
 20 22  1  0
 20 23  1  0
 18 24  1  0
 24 25  1  0
 24 26  2  0
 26 27  1  0
  9 28  1  0
 28 29  2  0
 29 30  1  0
 30 31  1  0
 31 32  1  0
 31 33  1  0
 31 34  1  0
 34 35  2  0
 35 36  1  0
 35 37  1  0
 37 38  1  0
 37 39  2  0
 39 40  1  0
 40 41  1  0
 41 42  2  0
 41 43  2  0
 41 44  1  0
 44 45  1  0
 44 46  1  0
 44 47  1  0
 39 48  1  0
 48 49  1  0
 48 50  2  0
 50 51  1  0
 30 52  2  0
 52 53  1  0
 53  3  1  0
 26 13  1  0
 53 28  1  0
 50 34  1  0
M  CHG  1  40  -1
M  END
>  <UniqueID>  (30) 
29

>  <SMILES>  (30) 
[H]/N=c1/[nH]c(=N)n2nc(Cc3ccc([N-]S(C)(=O)=O)cc3)nc2n1Cc1ccc(OC)cc1

>  <Energy>  (30) 
97.65369162343988

>  <Genealogy>  (30) 
COc1ccc(Cn2c(=N)[nH]c(=N)n3nc(Cc4ccc([N-]S(C)(=O)=O)cc4)nc23)cc1 (protonated)
[H]/N=c1/[nH]c(=N)n2nc(Cc3ccc([N-]S(C)(=O)=O)cc3)nc2n1Cc1ccc(OC)cc1 (cis-trans isomerization)
[H]/N=c1/[nH]c(=N)n2nc(Cc3ccc([N-]S(C)(=O)=O)cc3)nc2n1Cc1ccc(OC)cc1 (3D coordinates assigned)
[H]/N=c1/[nH]c(=N)n2nc(Cc3ccc([N-]S(C)(=O)=O)cc3)nc2n1Cc1ccc(OC)cc1 (optimized conformer: 97.65369162343988 kcal/mol)

>  <smiles>  (30) 
COc1ccc(Cn2c(=N)[nH]c(=N)n3nc(Cc4ccc(NS(C)(=O)=O)cc4)nc23)cc1

>  <score_type>  (30) 
oracle

>  <origin>  (30) 
adgpu

>  <m_score__min__energy>  (30) 
-10.619999999999999

>  <m_primary>  (30) 
energy

$$$$
30:0
     RDKit          3D

 46 48  0  0  0  0  0  0  0  0999 V2000
   -9.4150   20.1720  -33.1190 O   0  0  0  0  0  0  0  0  0  0  0  0
   -8.4000   20.2740  -32.0160 S   0  0  0  0  0  0  0  0  0  0  0  0
   -8.6880   19.1870  -31.0160 O   0  0  0  0  0  0  0  0  0  0  0  0
   -6.7850   20.0330  -32.6890 C   0  0  0  0  0  0  0  0  0  0  0  0
   -6.5280   18.9480  -33.5380 C   0  0  0  0  0  0  0  0  0  0  0  0
   -5.2540   18.7610  -34.0760 C   0  0  0  0  0  0  0  0  0  0  0  0
   -4.2230   19.6560  -33.7740 C   0  0  0  0  0  0  0  0  0  0  0  0
   -2.9580   19.4440  -34.3120 O   0  0  0  0  0  0  0  0  0  0  0  0
   -4.4690   20.7550  -32.9300 C   0  0  0  0  0  0  0  0  0  0  0  0
   -3.3610   21.7090  -32.5710 C   0  0  0  0  0  0  0  0  0  0  0  0
   -3.9070   22.8200  -31.7820 N   0  0  0  0  0  0  0  0  0  0  0  0
   -4.0430   22.4530  -30.3660 C   0  0  0  0  0  0  0  0  0  0  0  0
   -2.9640   23.1140  -29.5450 C   0  0  0  0  0  0  0  0  0  0  0  0
   -2.1620   22.3240  -28.7030 C   0  0  0  0  0  0  0  0  0  0  0  0
   -1.1390   22.9060  -27.9510 C   0  0  0  0  0  0  0  0  0  0  0  0
   -0.9040   24.2800  -28.0330 C   0  0  0  0  0  0  0  0  0  0  0  0
   -1.6900   25.0770  -28.8710 C   0  0  0  0  0  0  0  0  0  0  0  0
   -1.4460   26.4430  -28.9490 O   0  0  0  0  0  0  0  0  0  0  0  0
   -2.7180   24.5000  -29.6290 C   0  0  0  0  0  0  0  0  0  0  0  0
   -3.4850   25.3070  -30.4630 O   0  0  0  0  0  0  0  0  0  0  0  0
   -5.7490   20.9250  -32.3780 C   0  0  0  0  0  0  0  0  0  0  0  0
   -8.5480   21.8340  -31.2390 N   0  0  0  0  0  0  0  0  0  0  0  0
   -8.5770   22.9360  -32.2250 C   0  0  0  0  0  0  0  0  0  0  0  0
   -7.2460   23.7080  -32.2680 C   0  0  0  0  0  0  0  0  0  0  0  0
   -6.8830   24.2710  -31.0140 O   0  0  0  0  0  0  0  0  0  0  0  0
   -7.2880   23.4900  -29.8950 C   0  0  0  0  0  0  0  0  0  0  0  0
   -7.5000   22.0010  -30.2130 C   0  0  0  0  0  0  0  0  0  0  0  0
   -7.3343   18.2405  -33.7815 H   0  0  0  0  0  0  0  0  0  0  0  0
   -5.0601   17.9060  -34.7404 H   0  0  0  0  0  0  0  0  0  0  0  0
   -2.5988   21.1798  -31.9802 H   0  0  0  0  0  0  0  0  0  0  0  0
   -2.9044   22.1028  -33.4910 H   0  0  0  0  0  0  0  0  0  0  0  0
   -3.2270   23.6150  -31.8390 H   0  0  0  0  0  0  0  0  0  0  0  0
   -5.0278   22.7792  -30.0001 H   0  0  0  0  0  0  0  0  0  0  0  0
   -3.9462   21.3615  -30.2696 H   0  0  0  0  0  0  0  0  0  0  0  0
   -2.3413   21.2408  -28.6360 H   0  0  0  0  0  0  0  0  0  0  0  0
   -0.5174   22.2809  -27.2930 H   0  0  0  0  0  0  0  0  0  0  0  0
   -0.0994   24.7361  -27.4375 H   0  0  0  0  0  0  0  0  0  0  0  0
   -5.9406   21.7659  -31.6952 H   0  0  0  0  0  0  0  0  0  0  0  0
   -8.7756   22.5153  -33.2218 H   0  0  0  0  0  0  0  0  0  0  0  0
   -9.3676   23.6393  -31.9246 H   0  0  0  0  0  0  0  0  0  0  0  0
   -6.4510   23.0164  -32.5837 H   0  0  0  0  0  0  0  0  0  0  0  0
   -7.3746   24.5410  -32.9748 H   0  0  0  0  0  0  0  0  0  0  0  0
   -6.5128   23.5706  -29.1187 H   0  0  0  0  0  0  0  0  0  0  0  0
   -8.2604   23.8860  -29.5669 H   0  0  0  0  0  0  0  0  0  0  0  0
   -6.5577   21.5730  -30.5855 H   0  0  0  0  0  0  0  0  0  0  0  0
   -7.8159   21.4834  -29.2952 H   0  0  0  0  0  0  0  0  0  0  0  0
  1  2  2  0
  2  3  2  0
  2  4  1  0
  4  5  2  0
  5  6  1  0
  6  7  2  0
  7  8  1  0
  7  9  1  0
  9 10  1  0
 10 11  1  0
 11 12  1  0
 12 13  1  0
 13 14  2  0
 14 15  1  0
 15 16  2  0
 16 17  1  0
 17 18  1  0
 17 19  2  0
 19 20  1  0
  9 21  2  0
  2 22  1  0
 22 23  1  0
 23 24  1  0
 24 25  1  0
 25 26  1  0
 26 27  1  0
 21  4  1  0
 27 22  1  0
 19 13  1  0
  5 28  1  0
  6 29  1  0
 10 30  1  0
 10 31  1  0
 11 32  1  0
 12 33  1  0
 12 34  1  0
 14 35  1  0
 15 36  1  0
 16 37  1  0
 21 38  1  0
 23 39  1  0
 23 40  1  0
 24 41  1  0
 24 42  1  0
 26 43  1  0
 26 44  1  0
 27 45  1  0
 27 46  1  0
M  CHG  3   8  -1  18  -1  20  -1
M  END
>  <UniqueID>  (31) 
30

>  <SMILES>  (31) 
O=S(=O)(c1ccc([O-])c(CNCc2cccc([O-])c2[O-])c1)N1CCOCC1

>  <Energy>  (31) 
58.79673595106927

>  <Genealogy>  (31) 
O=S(=O)(c1ccc([O-])c(CNCc2cccc([O-])c2[O-])c1)N1CCOCC1 (protonated)
O=S(=O)(c1ccc([O-])c(CNCc2cccc([O-])c2[O-])c1)N1CCOCC1 (3D coordinates assigned)
O=S(=O)(c1ccc([O-])c(CNCc2cccc([O-])c2[O-])c1)N1CCOCC1 (nonaromatic ring conformer: 58.79673595106927 kcal/mol)

>  <smiles>  (31) 
O=S(=O)(c1ccc(O)c(CNCc2cccc(O)c2O)c1)N1CCOCC1

>  <score_type>  (31) 
oracle

>  <origin>  (31) 
adgpu

>  <m_score__min__energy>  (31) 
-15.01

>  <m_primary>  (31) 
energy

$$$$
31:0
     RDKit          3D

 60 63  0  0  0  0  0  0  0  0999 V2000
   -6.1180   26.4240  -30.4390 O   0  0  0  0  0  0  0  0  0  0  0  0
   -5.3960   25.1940  -29.9660 S   0  0  0  0  0  0  0  0  0  0  0  0
   -5.4560   25.1500  -28.4630 O   0  0  0  0  0  0  0  0  0  0  0  0
   -3.7530   25.2550  -30.5110 N   0  0  0  0  0  0  0  0  0  0  0  0
   -2.7300   24.3590  -30.0580 C   0  0  0  0  0  0  0  0  0  0  0  0
   -2.7770   22.9830  -30.3520 C   0  0  0  0  0  0  0  0  0  0  0  0
   -1.7910   22.1150  -29.8560 C   0  0  0  0  0  0  0  0  0  0  0  0
   -1.9200   20.3730  -30.1160 S   0  0  0  0  0  0  0  0  0  0  0  0
   -3.2790   20.0650  -30.6880 O   0  0  0  0  0  0  0  0  0  0  0  0
   -1.8170   19.6930  -28.7780 O   0  0  0  0  0  0  0  0  0  0  0  0
   -0.6350   19.7850  -31.1620 N   0  0  0  0  0  0  0  0  0  0  0  0
   -0.0320   20.8360  -32.0050 C   0  0  0  0  0  0  0  0  0  0  0  0
   -0.9220   21.2320  -33.1980 C   0  0  0  0  0  0  0  0  0  0  0  0
   -1.3100   20.0040  -34.0220 C   0  0  0  0  0  0  0  0  0  0  0  0
   -1.9430   18.9290  -33.1380 C   0  0  0  0  0  0  0  0  0  0  0  0
   -1.0370   18.5930  -31.9390 C   0  0  0  0  0  0  0  0  0  0  0  0
   -0.7390   22.6300  -29.0900 C   0  0  0  0  0  0  0  0  0  0  0  0
   -0.6830   24.0000  -28.8020 C   0  0  0  0  0  0  0  0  0  0  0  0
   -1.6790   24.8620  -29.2730 C   0  0  0  0  0  0  0  0  0  0  0  0
   -1.6100   26.2250  -28.9690 O   0  0  0  0  0  0  0  0  0  0  0  0
   -6.1440   23.7680  -30.6740 C   0  0  0  0  0  0  0  0  0  0  0  0
   -7.2230   23.1380  -30.0320 C   0  0  0  0  0  0  0  0  0  0  0  0
   -7.6840   21.8930  -30.4810 C   0  0  0  0  0  0  0  0  0  0  0  0
   -7.0780   21.2810  -31.5910 C   0  0  0  0  0  0  0  0  0  0  0  0
   -7.5230   19.6460  -32.0810 S   0  0  0  0  0  0  0  0  0  0  0  0
   -8.0580   19.7020  -33.4850 O   0  0  0  0  0  0  0  0  0  0  0  0
   -8.6000   19.1100  -31.1780 O   0  0  0  0  0  0  0  0  0  0  0  0
   -6.1140   18.5970  -32.0420 N   0  0  0  0  0  0  0  0  0  0  0  0
   -6.4760   17.1740  -32.1980 C   0  0  0  0  0  0  0  0  0  0  0  0
   -6.8850   16.8340  -33.6490 C   0  0  0  0  0  0  0  0  0  0  0  0
   -6.4250   17.7720  -34.6060 O   0  0  0  0  0  0  0  0  0  0  0  0
   -5.1060   18.1740  -34.3060 C   0  0  0  0  0  0  0  0  0  0  0  0
   -5.0830   19.0190  -33.0160 C   0  0  0  0  0  0  0  0  0  0  0  0
   -6.0390   21.9400  -32.2670 C   0  0  0  0  0  0  0  0  0  0  0  0
   -5.5650   23.1710  -31.8040 C   0  0  0  0  0  0  0  0  0  0  0  0
   -3.5919   22.5851  -30.9746 H   0  0  0  0  0  0  0  0  0  0  0  0
    0.1402   21.7278  -31.3845 H   0  0  0  0  0  0  0  0  0  0  0  0
    0.9068   20.4334  -32.4131 H   0  0  0  0  0  0  0  0  0  0  0  0
   -1.8352   21.7156  -32.8209 H   0  0  0  0  0  0  0  0  0  0  0  0
   -0.3585   21.9231  -33.8421 H   0  0  0  0  0  0  0  0  0  0  0  0
   -2.0314   20.3037  -34.7964 H   0  0  0  0  0  0  0  0  0  0  0  0
   -0.4011   19.5891  -34.4821 H   0  0  0  0  0  0  0  0  0  0  0  0
   -2.9112   19.2946  -32.7653 H   0  0  0  0  0  0  0  0  0  0  0  0
   -2.0792   18.0179  -33.7391 H   0  0  0  0  0  0  0  0  0  0  0  0
   -1.5797   17.9072  -31.2718 H   0  0  0  0  0  0  0  0  0  0  0  0
   -0.1189   18.1385  -32.3397 H   0  0  0  0  0  0  0  0  0  0  0  0
    0.0457   21.9576  -28.7132 H   0  0  0  0  0  0  0  0  0  0  0  0
    0.1482   24.3997  -28.2026 H   0  0  0  0  0  0  0  0  0  0  0  0
   -7.7084   23.6241  -29.1729 H   0  0  0  0  0  0  0  0  0  0  0  0
   -8.5188   21.3959  -29.9653 H   0  0  0  0  0  0  0  0  0  0  0  0
   -5.6104   16.5552  -31.9192 H   0  0  0  0  0  0  0  0  0  0  0  0
   -7.3385   16.9704  -31.5464 H   0  0  0  0  0  0  0  0  0  0  0  0
   -6.4717   15.8470  -33.9039 H   0  0  0  0  0  0  0  0  0  0  0  0
   -7.9843   16.8513  -33.6851 H   0  0  0  0  0  0  0  0  0  0  0  0
   -4.4778   17.2818  -34.1664 H   0  0  0  0  0  0  0  0  0  0  0  0
   -4.7196   18.7812  -35.1378 H   0  0  0  0  0  0  0  0  0  0  0  0
   -4.0931   18.9192  -32.5469 H   0  0  0  0  0  0  0  0  0  0  0  0
   -5.2955   20.0613  -33.2961 H   0  0  0  0  0  0  0  0  0  0  0  0
   -5.5957   21.4856  -33.1653 H   0  0  0  0  0  0  0  0  0  0  0  0
   -4.7369   23.6723  -32.3264 H   0  0  0  0  0  0  0  0  0  0  0  0
  1  2  2  0
  2  3  2  0
  2  4  1  0
  4  5  1  0
  5  6  2  0
  6  7  1  0
  7  8  1  0
  8  9  2  0
  8 10  2  0
  8 11  1  0
 11 12  1  0
 12 13  1  0
 13 14  1  0
 14 15  1  0
 15 16  1  0
  7 17  2  0
 17 18  1  0
 18 19  2  0
 19 20  1  0
  2 21  1  0
 21 22  2  0
 22 23  1  0
 23 24  2  0
 24 25  1  0
 25 26  2  0
 25 27  2  0
 25 28  1  0
 28 29  1  0
 29 30  1  0
 30 31  1  0
 31 32  1  0
 32 33  1  0
 24 34  1  0
 34 35  2  0
 19  5  1  0
 35 21  1  0
 16 11  1  0
 33 28  1  0
  6 36  1  0
 12 37  1  0
 12 38  1  0
 13 39  1  0
 13 40  1  0
 14 41  1  0
 14 42  1  0
 15 43  1  0
 15 44  1  0
 16 45  1  0
 16 46  1  0
 17 47  1  0
 18 48  1  0
 22 49  1  0
 23 50  1  0
 29 51  1  0
 29 52  1  0
 30 53  1  0
 30 54  1  0
 32 55  1  0
 32 56  1  0
 33 57  1  0
 33 58  1  0
 34 59  1  0
 35 60  1  0
M  CHG  2   4  -1  20  -1
M  END
>  <UniqueID>  (32) 
31

>  <SMILES>  (32) 
O=S(=O)([N-]c1cc(S(=O)(=O)N2CCCCC2)ccc1[O-])c1ccc(S(=O)(=O)N2CCOCC2)cc1

>  <Energy>  (32) 
76.85559417170458

>  <Genealogy>  (32) 
O=S(=O)([N-]c1cc(S(=O)(=O)N2CCCCC2)ccc1[O-])c1ccc(S(=O)(=O)N2CCOCC2)cc1 (protonated)
O=S(=O)([N-]c1cc(S(=O)(=O)N2CCCCC2)ccc1[O-])c1ccc(S(=O)(=O)N2CCOCC2)cc1 (3D coordinates assigned)
O=S(=O)([N-]c1cc(S(=O)(=O)N2CCCCC2)ccc1[O-])c1ccc(S(=O)(=O)N2CCOCC2)cc1 (nonaromatic ring conformer: 76.85559417170458 kcal/mol)

>  <smiles>  (32) 
O=S(=O)(Nc1cc(S(=O)(=O)N2CCCCC2)ccc1O)c1ccc(S(=O)(=O)N2CCOCC2)cc1

>  <score_type>  (32) 
oracle

>  <origin>  (32) 
adgpu

>  <m_score__min__energy>  (32) 
-15.24

>  <m_primary>  (32) 
energy

$$$$
32:0
     RDKit          3D

 67 71  0  0  0  0  0  0  0  0999 V2000
   -8.0180   18.5150  -31.5010 O   0  0  0  0  0  0  0  0  0  0  0  0
   -7.8200   19.5740  -32.5490 S   0  0  0  0  0  0  0  0  0  0  0  0
   -9.1660   19.9630  -33.0930 O   0  0  0  0  0  0  0  0  0  0  0  0
   -6.8590   18.9150  -33.8330 N   0  0  0  0  0  0  0  0  0  0  0  0
   -5.5230   18.4410  -33.6490 C   0  0  0  0  0  0  0  0  0  0  0  0
   -4.4310   19.2440  -34.0000 C   0  0  0  0  0  0  0  0  0  0  0  0
   -3.1170   18.7940  -33.8070 C   0  0  0  0  0  0  0  0  0  0  0  0
   -2.8960   17.5380  -33.2050 C   0  0  0  0  0  0  0  0  0  0  0  0
   -3.9920   16.7410  -32.8430 C   0  0  0  0  0  0  0  0  0  0  0  0
   -5.2990   17.1890  -33.0510 C   0  0  0  0  0  0  0  0  0  0  0  0
   -6.3610   16.3690  -32.6640 O   0  0  0  0  0  0  0  0  0  0  0  0
   -1.4990   17.0110  -32.9940 C   0  0  0  0  0  0  0  0  0  0  0  0
   -0.4930   18.0860  -32.9570 N   0  0  0  0  0  0  0  0  0  0  0  0
   -0.2040   18.6750  -31.6280 C   0  0  0  0  0  0  0  0  0  0  0  0
   -0.7630   20.0950  -31.4110 C   0  0  0  0  0  0  0  0  0  0  0  0
   -1.3900   20.2030  -30.0470 C   0  0  0  0  0  0  0  0  0  0  0  0
   -0.7710   19.6100  -28.9340 C   0  0  0  0  0  0  0  0  0  0  0  0
   -1.3310   19.7450  -27.6590 C   0  0  0  0  0  0  0  0  0  0  0  0
   -2.5080   20.4810  -27.4860 C   0  0  0  0  0  0  0  0  0  0  0  0
   -3.1240   21.0850  -28.5860 C   0  0  0  0  0  0  0  0  0  0  0  0
   -2.5670   20.9510  -29.8630 C   0  0  0  0  0  0  0  0  0  0  0  0
   -0.6020   19.0310  -34.0840 C   0  0  0  0  0  0  0  0  0  0  0  0
   -1.9760   19.7100  -34.1690 C   0  0  0  0  0  0  0  0  0  0  0  0
   -7.0570   20.9770  -31.8060 C   0  0  0  0  0  0  0  0  0  0  0  0
   -5.7540   21.3460  -32.1650 C   0  0  0  0  0  0  0  0  0  0  0  0
   -5.1480   22.4560  -31.5690 C   0  0  0  0  0  0  0  0  0  0  0  0
   -5.8390   23.2080  -30.6080 C   0  0  0  0  0  0  0  0  0  0  0  0
   -5.0410   24.5610  -29.7990 S   0  0  0  0  0  0  0  0  0  0  0  0
   -6.0810   25.3910  -29.1010 O   0  0  0  0  0  0  0  0  0  0  0  0
   -4.3790   25.4250  -30.8360 O   0  0  0  0  0  0  0  0  0  0  0  0
   -3.8470   24.0570  -28.6290 N   0  0  0  0  0  0  0  0  0  0  0  0
   -4.1390   24.5640  -27.2920 C   0  0  0  0  0  0  0  0  0  0  0  0
   -2.8190   24.5280  -26.5420 C   0  0  0  0  0  0  0  0  0  0  0  0
   -1.7490   24.6000  -27.6240 C   0  0  0  0  0  0  0  0  0  0  0  0
   -2.5080   24.5520  -28.9440 C   0  0  0  0  0  0  0  0  0  0  0  0
   -7.1470   22.8450  -30.2580 C   0  0  0  0  0  0  0  0  0  0  0  0
   -7.7550   21.7380  -30.8580 C   0  0  0  0  0  0  0  0  0  0  0  0
   -4.6060   20.2402  -34.4325 H   0  0  0  0  0  0  0  0  0  0  0  0
   -3.8208   15.7530  -32.3907 H   0  0  0  0  0  0  0  0  0  0  0  0
   -7.2930   16.7310  -32.5050 H   0  0  0  0  0  0  0  0  0  0  0  0
   -1.4678   16.4650  -32.0396 H   0  0  0  0  0  0  0  0  0  0  0  0
   -1.2567   16.3540  -33.8423 H   0  0  0  0  0  0  0  0  0  0  0  0
   -0.6375   18.0164  -30.8610 H   0  0  0  0  0  0  0  0  0  0  0  0
    0.8905   18.7611  -31.5606 H   0  0  0  0  0  0  0  0  0  0  0  0
    0.0561   20.8246  -31.4934 H   0  0  0  0  0  0  0  0  0  0  0  0
   -1.5271   20.3010  -32.1750 H   0  0  0  0  0  0  0  0  0  0  0  0
    0.1585   19.0367  -29.0656 H   0  0  0  0  0  0  0  0  0  0  0  0
   -0.8457   19.2723  -26.7924 H   0  0  0  0  0  0  0  0  0  0  0  0
   -2.9491   20.5845  -26.4837 H   0  0  0  0  0  0  0  0  0  0  0  0
   -4.0476   21.6663  -28.4478 H   0  0  0  0  0  0  0  0  0  0  0  0
   -3.0512   21.4322  -30.7256 H   0  0  0  0  0  0  0  0  0  0  0  0
    0.1663   19.8091  -33.9642 H   0  0  0  0  0  0  0  0  0  0  0  0
   -0.4629   18.4545  -35.0104 H   0  0  0  0  0  0  0  0  0  0  0  0
   -1.9848   20.5677  -33.4803 H   0  0  0  0  0  0  0  0  0  0  0  0
   -2.1237   20.0168  -35.2150 H   0  0  0  0  0  0  0  0  0  0  0  0
   -5.2061   20.7606  -32.9181 H   0  0  0  0  0  0  0  0  0  0  0  0
   -4.1247   22.7407  -31.8551 H   0  0  0  0  0  0  0  0  0  0  0  0
   -4.5208   25.5941  -27.3473 H   0  0  0  0  0  0  0  0  0  0  0  0
   -4.9090   23.9612  -26.7882 H   0  0  0  0  0  0  0  0  0  0  0  0
   -2.7380   25.3875  -25.8603 H   0  0  0  0  0  0  0  0  0  0  0  0
   -2.7202   23.6244  -25.9225 H   0  0  0  0  0  0  0  0  0  0  0  0
   -1.1795   25.5374  -27.5409 H   0  0  0  0  0  0  0  0  0  0  0  0
   -1.0232   23.7779  -27.5382 H   0  0  0  0  0  0  0  0  0  0  0  0
   -2.5678   25.5576  -29.3859 H   0  0  0  0  0  0  0  0  0  0  0  0
   -2.0023   23.9016  -29.6728 H   0  0  0  0  0  0  0  0  0  0  0  0
   -7.6970   23.4331  -29.5086 H   0  0  0  0  0  0  0  0  0  0  0  0
   -8.7846   21.4633  -30.5852 H   0  0  0  0  0  0  0  0  0  0  0  0
  1  2  2  0
  2  3  2  0
  2  4  1  0
  4  5  1  0
  5  6  2  0
  6  7  1  0
  7  8  2  0
  8  9  1  0
  9 10  2  0
 10 11  1  0
  8 12  1  0
 12 13  1  0
 13 14  1  0
 14 15  1  0
 15 16  1  0
 16 17  2  0
 17 18  1  0
 18 19  2  0
 19 20  1  0
 20 21  2  0
 13 22  1  0
 22 23  1  0
  2 24  1  0
 24 25  2  0
 25 26  1  0
 26 27  2  0
 27 28  1  0
 28 29  2  0
 28 30  2  0
 28 31  1  0
 31 32  1  0
 32 33  1  0
 33 34  1  0
 34 35  1  0
 27 36  1  0
 36 37  2  0
 10  5  1  0
 21 16  1  0
 37 24  1  0
 23  7  1  0
 35 31  1  0
  6 38  1  0
  9 39  1  0
 11 40  1  0
 12 41  1  0
 12 42  1  0
 14 43  1  0
 14 44  1  0
 15 45  1  0
 15 46  1  0
 17 47  1  0
 18 48  1  0
 19 49  1  0
 20 50  1  0
 21 51  1  0
 22 52  1  0
 22 53  1  0
 23 54  1  0
 23 55  1  0
 25 56  1  0
 26 57  1  0
 32 58  1  0
 32 59  1  0
 33 60  1  0
 33 61  1  0
 34 62  1  0
 34 63  1  0
 35 64  1  0
 35 65  1  0
 36 66  1  0
 37 67  1  0
M  CHG  1   4  -1
M  END
>  <UniqueID>  (33) 
32

>  <SMILES>  (33) 
O=S(=O)([N-]c1cc2c(cc1O)CN(CCc1ccccc1)CC2)c1ccc(S(=O)(=O)N2CCCC2)cc1

>  <Energy>  (33) 
87.0519896194178

>  <Genealogy>  (33) 
O=S(=O)([N-]c1cc2c(cc1O)CN(CCc1ccccc1)CC2)c1ccc(S(=O)(=O)N2CCCC2)cc1 (protonated)
O=S(=O)([N-]c1cc2c(cc1O)CN(CCc1ccccc1)CC2)c1ccc(S(=O)(=O)N2CCCC2)cc1 (3D coordinates assigned)
O=S(=O)([N-]c1cc2c(cc1O)CN(CCc1ccccc1)CC2)c1ccc(S(=O)(=O)N2CCCC2)cc1 (nonaromatic ring conformer: 87.0519896194178 kcal/mol)

>  <smiles>  (33) 
O=S(=O)(Nc1cc2c(cc1O)CN(CCc1ccccc1)CC2)c1ccc(S(=O)(=O)N2CCCC2)cc1

>  <score_type>  (33) 
oracle

>  <origin>  (33) 
adgpu

>  <m_score__min__energy>  (33) 
-14.31

>  <m_primary>  (33) 
energy

$$$$
33:0
     RDKit          3D

 55 58  0  0  0  0  0  0  0  0999 V2000
   -2.0040   21.3480  -32.8040 C   0  0  0  0  0  0  0  0  0  0  0  0
   -2.6890   22.2620  -31.9550 O   0  0  0  0  0  0  0  0  0  0  0  0
   -4.0840   22.3310  -31.8170 C   0  0  0  0  0  0  0  0  0  0  0  0
   -4.9330   21.2940  -32.2520 C   0  0  0  0  0  0  0  0  0  0  0  0
   -6.3370   21.3850  -32.0970 C   0  0  0  0  0  0  0  0  0  0  0  0
   -6.8690   22.5540  -31.4950 C   0  0  0  0  0  0  0  0  0  0  0  0
   -8.2490   22.6760  -31.3300 C   0  0  0  0  0  0  0  0  0  0  0  0
   -9.0880   21.6570  -31.7540 C   0  0  0  0  0  0  0  0  0  0  0  0
   -8.5520   20.5130  -32.3440 C   0  0  0  0  0  0  0  0  0  0  0  0
   -9.3470   19.6060  -32.7170 O   0  0  0  0  0  0  0  0  0  0  0  0
   -7.1910   20.3760  -32.5130 N   0  0  0  0  0  0  0  0  0  0  0  0
   -6.6540   19.1500  -33.1370 C   0  0  0  0  0  0  0  0  0  0  0  0
   -6.0200   23.5820  -31.0640 C   0  0  0  0  0  0  0  0  0  0  0  0
   -4.6380   23.4690  -31.2170 C   0  0  0  0  0  0  0  0  0  0  0  0
   -3.7910   24.5080  -30.7280 N   0  0  0  0  0  0  0  0  0  0  0  0
   -3.1030   24.4080  -29.1440 S   0  0  0  0  0  0  0  0  0  0  0  0
   -4.1880   24.5500  -28.1130 O   0  0  0  0  0  0  0  0  0  0  0  0
   -2.1190   25.5280  -28.9640 O   0  0  0  0  0  0  0  0  0  0  0  0
   -2.2840   22.8610  -28.9440 C   0  0  0  0  0  0  0  0  0  0  0  0
   -0.8960   22.7790  -29.1160 C   0  0  0  0  0  0  0  0  0  0  0  0
   -0.2300   21.5700  -28.9030 C   0  0  0  0  0  0  0  0  0  0  0  0
   -0.9480   20.4270  -28.5240 C   0  0  0  0  0  0  0  0  0  0  0  0
   -0.0940   18.9100  -28.2480 S   0  0  0  0  0  0  0  0  0  0  0  0
    1.2700   19.1890  -27.6790 O   0  0  0  0  0  0  0  0  0  0  0  0
   -0.8720   18.1020  -27.2460 O   0  0  0  0  0  0  0  0  0  0  0  0
    0.0420   18.0260  -29.7520 N   0  0  0  0  0  0  0  0  0  0  0  0
    1.4470   17.7500  -30.0780 C   0  0  0  0  0  0  0  0  0  0  0  0
    1.9440   18.8820  -30.9630 C   0  0  0  0  0  0  0  0  0  0  0  0
    0.6950   19.5400  -31.5210 C   0  0  0  0  0  0  0  0  0  0  0  0
   -0.4790   18.8110  -30.8790 C   0  0  0  0  0  0  0  0  0  0  0  0
   -2.3370   20.5080  -28.3510 C   0  0  0  0  0  0  0  0  0  0  0  0
   -3.0010   21.7210  -28.5560 C   0  0  0  0  0  0  0  0  0  0  0  0
   -1.4565   20.6174  -32.1904 H   0  0  0  0  0  0  0  0  0  0  0  0
   -2.7317   20.8214  -33.4389 H   0  0  0  0  0  0  0  0  0  0  0  0
   -1.2943   21.8987  -33.4389 H   0  0  0  0  0  0  0  0  0  0  0  0
   -4.4974   20.3988  -32.7198 H   0  0  0  0  0  0  0  0  0  0  0  0
   -8.6706   23.5790  -30.8644 H   0  0  0  0  0  0  0  0  0  0  0  0
  -10.1764   21.7510  -31.6250 H   0  0  0  0  0  0  0  0  0  0  0  0
   -6.3449   18.4442  -32.3520 H   0  0  0  0  0  0  0  0  0  0  0  0
   -7.4313   18.6859  -33.7619 H   0  0  0  0  0  0  0  0  0  0  0  0
   -5.7859   19.4066  -33.7619 H   0  0  0  0  0  0  0  0  0  0  0  0
   -6.4463   24.4846  -30.6017 H   0  0  0  0  0  0  0  0  0  0  0  0
   -0.3283   23.6707  -29.4201 H   0  0  0  0  0  0  0  0  0  0  0  0
    0.8609   21.5144  -29.0330 H   0  0  0  0  0  0  0  0  0  0  0  0
   -0.4900   17.1300  -29.6570 H   0  0  0  0  0  0  0  0  0  0  0  0
    2.0444   17.7051  -29.1554 H   0  0  0  0  0  0  0  0  0  0  0  0
    1.5410   16.7843  -30.5963 H   0  0  0  0  0  0  0  0  0  0  0  0
    2.5274   19.6037  -30.3724 H   0  0  0  0  0  0  0  0  0  0  0  0
    2.6035   18.5146  -31.7631 H   0  0  0  0  0  0  0  0  0  0  0  0
    0.6738   20.6077  -31.2571 H   0  0  0  0  0  0  0  0  0  0  0  0
    0.6597   19.4774  -32.6186 H   0  0  0  0  0  0  0  0  0  0  0  0
   -1.2192   19.5397  -30.5170 H   0  0  0  0  0  0  0  0  0  0  0  0
   -0.9696   18.1530  -31.6113 H   0  0  0  0  0  0  0  0  0  0  0  0
   -2.9057   19.6148  -28.0532 H   0  0  0  0  0  0  0  0  0  0  0  0
   -4.0899   21.7809  -28.4123 H   0  0  0  0  0  0  0  0  0  0  0  0
  1  2  1  0
  2  3  1  0
  3  4  2  0
  4  5  1  0
  5  6  2  0
  6  7  1  0
  7  8  2  0
  8  9  1  0
  9 10  2  0
  9 11  1  0
 11 12  1  0
  6 13  1  0
 13 14  2  0
 14 15  1  0
 15 16  1  0
 16 17  2  0
 16 18  2  0
 16 19  1  0
 19 20  2  0
 20 21  1  0
 21 22  2  0
 22 23  1  0
 23 24  2  0
 23 25  2  0
 23 26  1  0
 26 27  1  0
 27 28  1  0
 28 29  1  0
 29 30  1  0
 22 31  1  0
 31 32  2  0
 14  3  1  0
 32 19  1  0
 11  5  1  0
 30 26  1  0
  1 33  1  0
  1 34  1  0
  1 35  1  0
  4 36  1  0
  7 37  1  0
  8 38  1  0
 12 39  1  0
 12 40  1  0
 12 41  1  0
 13 42  1  0
 20 43  1  0
 21 44  1  0
 26 45  1  0
 27 46  1  0
 27 47  1  0
 28 48  1  0
 28 49  1  0
 29 50  1  0
 29 51  1  0
 30 52  1  0
 30 53  1  0
 31 54  1  0
 32 55  1  0
M  CHG  2  15  -1  26   1
M  END
>  <UniqueID>  (34) 
33

>  <SMILES>  (34) 
COc1cc2c(ccc(=O)n2C)cc1[N-]S(=O)(=O)c1ccc(S(=O)(=O)[NH+]2CCCC2)cc1

>  <Energy>  (34) 
75.0930760990076

>  <Genealogy>  (34) 
COc1cc2c(ccc(=O)n2C)cc1[N-]S(=O)(=O)c1ccc(S(=O)(=O)[NH+]2CCCC2)cc1 (protonated)
COc1cc2c(ccc(=O)n2C)cc1[N-]S(=O)(=O)c1ccc(S(=O)(=O)[NH+]2CCCC2)cc1 (3D coordinates assigned)
COc1cc2c(ccc(=O)n2C)cc1[N-]S(=O)(=O)c1ccc(S(=O)(=O)[NH+]2CCCC2)cc1 (nonaromatic ring conformer: 75.0930760990076 kcal/mol)

>  <smiles>  (34) 
COc1cc2c(ccc(=O)n2C)cc1NS(=O)(=O)c1ccc(S(=O)(=O)N2CCCC2)cc1

>  <score_type>  (34) 
oracle

>  <origin>  (34) 
adgpu

>  <m_score__min__energy>  (34) 
-11.66

>  <m_primary>  (34) 
energy

$$$$
34:0
     RDKit          3D

 47 50  0  0  0  0  0  0  0  0999 V2000
   -5.3960   25.0510  -28.7050 O   0  0  0  0  0  0  0  0  0  0  0  0
   -5.1420   24.9530  -30.1830 S   0  0  0  0  0  0  0  0  0  0  0  0
   -5.7420   26.1570  -30.8550 O   0  0  0  0  0  0  0  0  0  0  0  0
   -3.4290   24.9170  -30.4690 N   0  0  0  0  0  0  0  0  0  0  0  0
   -2.7200   24.7620  -29.2020 C   0  0  0  0  0  0  0  0  0  0  0  0
   -2.2930   23.3320  -29.0500 C   0  0  0  0  0  0  0  0  0  0  0  0
   -1.6670   22.6570  -30.1300 C   0  0  0  0  0  0  0  0  0  0  0  0
   -1.2950   21.3060  -30.0070 C   0  0  0  0  0  0  0  0  0  0  0  0
   -1.5720   20.6620  -28.8050 C   0  0  0  0  0  0  0  0  0  0  0  0
   -2.1820   21.2980  -27.7730 C   0  0  0  0  0  0  0  0  0  0  0  0
   -2.5660   22.6330  -27.8520 C   0  0  0  0  0  0  0  0  0  0  0  0
   -2.3360   20.4210  -26.7170 O   0  0  0  0  0  0  0  0  0  0  0  0
   -1.7850   19.1550  -27.1090 C   0  0  0  0  0  0  0  0  0  0  0  0
   -1.3090   19.3540  -28.4490 O   0  0  0  0  0  0  0  0  0  0  0  0
   -5.8850   23.4760  -30.7940 C   0  0  0  0  0  0  0  0  0  0  0  0
   -7.2520   23.4650  -31.0990 C   0  0  0  0  0  0  0  0  0  0  0  0
   -7.8600   22.2960  -31.5660 C   0  0  0  0  0  0  0  0  0  0  0  0
   -7.1060   21.1240  -31.7230 C   0  0  0  0  0  0  0  0  0  0  0  0
   -7.8710   19.6600  -32.3320 S   0  0  0  0  0  0  0  0  0  0  0  0
   -8.6830   19.0200  -31.2370 O   0  0  0  0  0  0  0  0  0  0  0  0
   -8.7940   20.0190  -33.4630 O   0  0  0  0  0  0  0  0  0  0  0  0
   -6.6420   18.5630  -32.9080 N   0  0  0  0  0  0  0  0  0  0  0  0
   -7.1880   17.2250  -33.1340 C   0  0  0  0  0  0  0  0  0  0  0  0
   -6.3250   16.5800  -34.2060 C   0  0  0  0  0  0  0  0  0  0  0  0
   -5.6260   17.7350  -34.9080 C   0  0  0  0  0  0  0  0  0  0  0  0
   -6.1120   18.9910  -34.2010 C   0  0  0  0  0  0  0  0  0  0  0  0
   -5.7370   21.1370  -31.4210 C   0  0  0  0  0  0  0  0  0  0  0  0
   -5.1300   22.3060  -30.9550 C   0  0  0  0  0  0  0  0  0  0  0  0
   -1.8340   25.4138  -29.1936 H   0  0  0  0  0  0  0  0  0  0  0  0
   -3.3830   25.0411  -28.3698 H   0  0  0  0  0  0  0  0  0  0  0  0
   -1.4713   23.1940  -31.0699 H   0  0  0  0  0  0  0  0  0  0  0  0
   -0.8010   20.7756  -30.8345 H   0  0  0  0  0  0  0  0  0  0  0  0
   -3.0669   23.1295  -27.0078 H   0  0  0  0  0  0  0  0  0  0  0  0
   -0.9568   18.8712  -26.4430 H   0  0  0  0  0  0  0  0  0  0  0  0
   -2.5281   18.3460  -27.0511 H   0  0  0  0  0  0  0  0  0  0  0  0
   -7.8494   24.3797  -30.9706 H   0  0  0  0  0  0  0  0  0  0  0  0
   -8.9324   22.2954  -31.8109 H   0  0  0  0  0  0  0  0  0  0  0  0
   -7.1447   16.6356  -32.2062 H   0  0  0  0  0  0  0  0  0  0  0  0
   -8.2410   17.2738  -33.4483 H   0  0  0  0  0  0  0  0  0  0  0  0
   -5.5874   15.9027  -33.7508 H   0  0  0  0  0  0  0  0  0  0  0  0
   -6.9225   15.9766  -34.9052 H   0  0  0  0  0  0  0  0  0  0  0  0
   -4.5343   17.6385  -34.8140 H   0  0  0  0  0  0  0  0  0  0  0  0
   -5.8532   17.7574  -35.9841 H   0  0  0  0  0  0  0  0  0  0  0  0
   -5.2769   19.6921  -34.0558 H   0  0  0  0  0  0  0  0  0  0  0  0
   -6.8810   19.5078  -34.7938 H   0  0  0  0  0  0  0  0  0  0  0  0
   -5.1385   20.2234  -31.5514 H   0  0  0  0  0  0  0  0  0  0  0  0
   -4.0568   22.3082  -30.7138 H   0  0  0  0  0  0  0  0  0  0  0  0
  1  2  2  0
  2  3  2  0
  2  4  1  0
  4  5  1  0
  5  6  1  0
  6  7  2  0
  7  8  1  0
  8  9  2  0
  9 10  1  0
 10 11  2  0
 10 12  1  0
 12 13  1  0
 13 14  1  0
  2 15  1  0
 15 16  2  0
 16 17  1  0
 17 18  2  0
 18 19  1  0
 19 20  2  0
 19 21  2  0
 19 22  1  0
 22 23  1  0
 23 24  1  0
 24 25  1  0
 25 26  1  0
 18 27  1  0
 27 28  2  0
 11  6  1  0
 28 15  1  0
 14  9  1  0
 26 22  1  0
  5 29  1  0
  5 30  1  0
  7 31  1  0
  8 32  1  0
 11 33  1  0
 13 34  1  0
 13 35  1  0
 16 36  1  0
 17 37  1  0
 23 38  1  0
 23 39  1  0
 24 40  1  0
 24 41  1  0
 25 42  1  0
 25 43  1  0
 26 44  1  0
 26 45  1  0
 27 46  1  0
 28 47  1  0
M  CHG  1   4  -1
M  END
>  <UniqueID>  (35) 
34

>  <SMILES>  (35) 
O=S(=O)([N-]Cc1ccc2c(c1)OCO2)c1ccc(S(=O)(=O)N2CCCC2)cc1

>  <Energy>  (35) 
75.51686978440318

>  <Genealogy>  (35) 
O=S(=O)([N-]Cc1ccc2c(c1)OCO2)c1ccc(S(=O)(=O)N2CCCC2)cc1 (protonated)
O=S(=O)([N-]Cc1ccc2c(c1)OCO2)c1ccc(S(=O)(=O)N2CCCC2)cc1 (3D coordinates assigned)
O=S(=O)([N-]Cc1ccc2c(c1)OCO2)c1ccc(S(=O)(=O)N2CCCC2)cc1 (nonaromatic ring conformer: 75.51686978440318 kcal/mol)

>  <smiles>  (35) 
O=S(=O)(NCc1ccc2c(c1)OCO2)c1ccc(S(=O)(=O)N2CCCC2)cc1

>  <score_type>  (35) 
oracle

>  <origin>  (35) 
adgpu

>  <m_score__min__energy>  (35) 
-10.960000000000001

>  <m_primary>  (35) 
energy

$$$$
35:0
     RDKit          3D

 46 49  0  0  0  0  0  0  0  0999 V2000
   -5.3120   26.2880  -30.6180 O   0  0  0  0  0  0  0  0  0  0  0  0
   -5.0500   25.0750  -30.4030 C   0  0  0  0  0  0  0  0  0  0  0  0
   -4.8600   24.6070  -28.9850 C   0  0  0  0  0  0  0  0  0  0  0  0
   -3.6250   23.7640  -28.8430 C   0  0  0  0  0  0  0  0  0  0  0  0
   -3.5970   22.1070  -28.5420 S   0  0  0  0  0  0  0  0  0  0  0  0
   -1.9160   22.0200  -28.6310 C   0  0  0  0  0  0  0  0  0  0  0  0
   -1.1460   20.8240  -28.4540 N   0  0  0  0  0  0  0  0  0  0  0  0
   -1.4750   19.8040  -27.4770 C   0  0  0  0  0  0  0  0  0  0  0  0
   -0.3230   18.8100  -27.5210 C   0  0  0  0  0  0  0  0  0  0  0  0
    0.4270   19.0930  -28.8210 C   0  0  0  0  0  0  0  0  0  0  0  0
    0.0400   20.5080  -29.2290 C   0  0  0  0  0  0  0  0  0  0  0  0
   -1.3630   23.2240  -28.9040 N   0  0  0  0  0  0  0  0  0  0  0  0
   -2.3110   24.1890  -29.0280 C   0  0  0  0  0  0  0  0  0  0  0  0
   -1.9740   25.5040  -29.3230 O   0  0  0  0  0  0  0  0  0  0  0  0
   -5.0250   24.1660  -31.5110 N   0  0  0  0  0  0  0  0  0  0  0  0
   -5.9980   23.1470  -31.7750 C   0  0  0  0  0  0  0  0  0  0  0  0
   -7.3690   23.4390  -31.6920 C   0  0  0  0  0  0  0  0  0  0  0  0
   -8.3210   22.4420  -31.9090 C   0  0  0  0  0  0  0  0  0  0  0  0
   -7.9170   21.1360  -32.1900 C   0  0  0  0  0  0  0  0  0  0  0  0
   -6.5530   20.8230  -32.2600 C   0  0  0  0  0  0  0  0  0  0  0  0
   -5.5880   21.8250  -32.0450 C   0  0  0  0  0  0  0  0  0  0  0  0
   -4.1350   21.4220  -32.0940 C   0  0  0  0  0  0  0  0  0  0  0  0
   -3.8710   20.5100  -33.3030 C   0  0  0  0  0  0  0  0  0  0  0  0
   -4.9100   19.3720  -33.4860 C   0  0  0  0  0  0  0  0  0  0  0  0
   -6.0900   19.4120  -32.4990 C   0  0  0  0  0  0  0  0  0  0  0  0
   -4.7708   25.4848  -28.3281 H   0  0  0  0  0  0  0  0  0  0  0  0
   -5.7295   23.9942  -28.7050 H   0  0  0  0  0  0  0  0  0  0  0  0
   -1.5623   20.2468  -26.4738 H   0  0  0  0  0  0  0  0  0  0  0  0
   -2.4381   19.3217  -27.7000 H   0  0  0  0  0  0  0  0  0  0  0  0
    0.3415   18.9563  -26.6567 H   0  0  0  0  0  0  0  0  0  0  0  0
   -0.6846   17.7719  -27.4820 H   0  0  0  0  0  0  0  0  0  0  0  0
    1.5128   19.0255  -28.6583 H   0  0  0  0  0  0  0  0  0  0  0  0
    0.1685   18.3633  -29.6025 H   0  0  0  0  0  0  0  0  0  0  0  0
    0.8520   21.2117  -28.9935 H   0  0  0  0  0  0  0  0  0  0  0  0
   -0.1466   20.5845  -30.3104 H   0  0  0  0  0  0  0  0  0  0  0  0
   -7.6953   24.4622  -31.4539 H   0  0  0  0  0  0  0  0  0  0  0  0
   -9.3924   22.6860  -31.8585 H   0  0  0  0  0  0  0  0  0  0  0  0
   -8.6700   20.3517  -32.3567 H   0  0  0  0  0  0  0  0  0  0  0  0
   -3.5115   22.3243  -32.1779 H   0  0  0  0  0  0  0  0  0  0  0  0
   -3.8860   20.8740  -31.1733 H   0  0  0  0  0  0  0  0  0  0  0  0
   -3.8777   21.1313  -34.2107 H   0  0  0  0  0  0  0  0  0  0  0  0
   -2.9008   20.0237  -33.1237 H   0  0  0  0  0  0  0  0  0  0  0  0
   -5.3149   19.4389  -34.5066 H   0  0  0  0  0  0  0  0  0  0  0  0
   -4.3757   18.4302  -33.2925 H   0  0  0  0  0  0  0  0  0  0  0  0
   -6.9239   18.8262  -32.9131 H   0  0  0  0  0  0  0  0  0  0  0  0
   -5.7561   18.9883  -31.5403 H   0  0  0  0  0  0  0  0  0  0  0  0
  1  2  2  0
  2  3  1  0
  3  4  1  0
  4  5  1  0
  5  6  1  0
  6  7  1  0
  7  8  1  0
  8  9  1  0
  9 10  1  0
 10 11  1  0
  6 12  2  0
 12 13  1  0
 13 14  1  0
  2 15  1  0
 15 16  1  0
 16 17  2  0
 17 18  1  0
 18 19  2  0
 19 20  1  0
 20 21  2  0
 21 22  1  0
 22 23  1  0
 23 24  1  0
 24 25  1  0
 13  4  2  0
 21 16  1  0
 11  7  1  0
 25 20  1  0
  3 26  1  0
  3 27  1  0
  8 28  1  0
  8 29  1  0
  9 30  1  0
  9 31  1  0
 10 32  1  0
 10 33  1  0
 11 34  1  0
 11 35  1  0
 17 36  1  0
 18 37  1  0
 19 38  1  0
 22 39  1  0
 22 40  1  0
 23 41  1  0
 23 42  1  0
 24 43  1  0
 24 44  1  0
 25 45  1  0
 25 46  1  0
M  CHG  2  14  -1  15  -1
M  END
>  <UniqueID>  (36) 
35

>  <SMILES>  (36) 
O=C(Cc1sc(N2CCCC2)nc1[O-])[N-]c1cccc2c1CCCC2

>  <Energy>  (36) 
85.69424554143427

>  <Genealogy>  (36) 
O=C(Cc1sc(N2CCCC2)nc1[O-])[N-]c1cccc2c1CCCC2 (protonated)
O=C(Cc1sc(N2CCCC2)nc1[O-])[N-]c1cccc2c1CCCC2 (3D coordinates assigned)
O=C(Cc1sc(N2CCCC2)nc1[O-])[N-]c1cccc2c1CCCC2 (nonaromatic ring conformer: 85.69424554143427 kcal/mol)

>  <smiles>  (36) 
O=C(Cc1sc(N2CCCC2)nc1O)Nc1cccc2c1CCCC2

>  <score_type>  (36) 
oracle

>  <origin>  (36) 
adgpu

>  <m_score__min__energy>  (36) 
-12.94

>  <m_primary>  (36) 
energy

$$$$
36:0
     RDKit          3D

 42 45  0  0  1  0  0  0  0  0999 V2000
   -6.2930   26.2070  -29.3190 O   0  0  0  0  0  0  0  0  0  0  0  0
   -6.1280   24.9950  -29.9780 C   0  0  0  0  0  0  0  0  0  0  0  0
   -7.1340   24.0590  -30.0880 C   0  0  0  0  0  0  0  0  0  0  0  0
   -6.9040   22.8700  -30.7580 C   0  0  0  0  0  0  0  0  0  0  0  0
   -5.6910   22.5610  -31.3370 C   0  0  0  0  0  0  0  0  0  0  0  0
   -5.4390   21.3120  -32.0450 C   0  0  0  0  0  0  0  0  0  0  0  0
   -6.4000   20.3720  -32.0640 N   0  0  0  0  0  0  0  0  0  0  0  0
   -6.2890   19.1930  -32.6750 C   0  0  0  0  0  0  0  0  0  0  0  0
   -7.3250   18.2620  -32.6560 C   0  0  0  0  0  0  0  0  0  0  0  0
   -7.1770   17.0400  -33.3040 C   0  0  0  0  0  0  0  0  0  0  0  0
   -5.9970   16.7940  -33.9490 C   0  0  0  0  0  0  0  0  0  0  0  0
   -4.9540   17.6890  -33.9890 C   0  0  0  0  0  0  0  0  0  0  0  0
   -5.1250   18.8890  -33.3400 C   0  0  0  0  0  0  0  0  0  0  0  0
   -4.1280   19.8710  -33.3180 C   0  0  0  0  0  0  0  0  0  0  0  0
   -3.0460   19.5780  -33.9410 N   0  0  0  0  0  0  0  0  0  0  0  0
   -1.9170   20.4720  -34.0200 C   0  0  0  0  0  0  0  0  0  0  0  0
   -1.4220   20.6840  -32.6250 C   0  0  0  0  0  0  0  0  0  0  0  0
   -0.6770   19.7560  -31.9390 C   0  0  0  0  0  0  0  0  0  0  0  0
   -0.2210   19.9560  -30.6450 C   0  0  0  0  0  0  0  0  0  0  0  0
   -0.5170   21.1330  -29.9930 C   0  0  0  0  0  0  0  0  0  0  0  0
   -1.2710   22.0560  -30.7050 C   0  0  0  0  0  0  0  0  0  0  0  0
   -1.6980   21.8390  -31.9520 N   0  0  0  0  0  0  0  0  0  0  0  0
   -4.2980   21.0360  -32.6860 N   0  0  0  0  0  0  0  0  0  0  0  0
   -4.6920   23.5070  -31.2190 C   0  0  0  0  0  0  0  0  0  0  0  0
   -4.9150   24.6940  -30.5530 C   0  0  0  0  0  0  0  0  0  0  0  0
   -3.8570   25.6140  -30.4690 O   0  0  0  0  0  0  0  0  0  0  0  0
   -5.4310   26.6400  -29.0080 H   0  0  0  0  0  0  0  0  0  0  0  0
   -8.1202   24.2572  -29.6430 H   0  0  0  0  0  0  0  0  0  0  0  0
   -7.7237   22.1402  -30.8319 H   0  0  0  0  0  0  0  0  0  0  0  0
   -8.2617   18.4935  -32.1277 H   0  0  0  0  0  0  0  0  0  0  0  0
   -7.9853   16.2939  -33.2976 H   0  0  0  0  0  0  0  0  0  0  0  0
   -5.8756   15.8291  -34.4631 H   0  0  0  0  0  0  0  0  0  0  0  0
   -4.0194   17.4542  -34.5194 H   0  0  0  0  0  0  0  0  0  0  0  0
   -1.1242   20.0242  -34.6372 H   0  0  0  0  0  0  0  0  0  0  0  0
   -2.2074   21.4278  -34.4806 H   0  0  0  0  0  0  0  0  0  0  0  0
   -0.4303   18.8085  -32.4404 H   0  0  0  0  0  0  0  0  0  0  0  0
    0.3737   19.1794  -30.1418 H   0  0  0  0  0  0  0  0  0  0  0  0
   -0.1752   21.3303  -28.9662 H   0  0  0  0  0  0  0  0  0  0  0  0
   -1.5285   23.0093  -30.2203 H   0  0  0  0  0  0  0  0  0  0  0  0
   -3.5550   21.7320  -32.6860 H   0  0  0  0  0  0  0  0  0  0  0  0
   -3.7045   23.3111  -31.6624 H   0  0  0  0  0  0  0  0  0  0  0  0
   -3.9140   26.4260  -29.8430 H   0  0  0  0  0  0  0  0  0  0  0  0
  1  2  1  0
  2  3  2  0
  3  4  1  0
  4  5  2  0
  5  6  1  0
  6  7  2  0
  7  8  1  0
  8  9  2  0
  9 10  1  0
 10 11  2  0
 11 12  1  0
 12 13  2  0
 13 14  1  0
 14 15  2  0
 15 16  1  0
 16 17  1  0
 17 18  2  0
 18 19  1  0
 19 20  2  0
 20 21  1  0
 21 22  2  0
 14 23  1  0
  5 24  1  0
 24 25  2  0
 25 26  1  0
 25  2  1  0
 23  6  1  0
 13  8  1  0
 22 17  1  0
  1 27  1  0
  3 28  1  0
  4 29  1  0
  9 30  1  0
 10 31  1  0
 11 32  1  0
 12 33  1  0
 16 34  1  0
 16 35  1  0
 18 36  1  0
 19 37  1  0
 20 38  1  0
 21 39  1  0
 23 40  1  0
 24 41  1  0
 26 42  1  0
M  END
>  <smiles>  (37) 
Oc1ccc(-c2nc3ccccc3c(=NCc3ccccn3)[nH]2)cc1O

>  <score_type>  (37) 
oracle

>  <origin>  (37) 
adgpu

>  <m_score__min__energy>  (37) 
-9.1799999999999997

>  <m_primary>  (37) 
energy

$$$$
37:0
     RDKit          3D

 59 62  0  0  0  0  0  0  0  0999 V2000
   -3.7080   24.9350  -27.3150 O   0  0  0  0  0  0  0  0  0  0  0  0
   -2.5690   24.7980  -28.2830 S   0  0  0  0  0  0  0  0  0  0  0  0
   -1.5860   25.9050  -28.0320 O   0  0  0  0  0  0  0  0  0  0  0  0
   -3.1830   24.8930  -29.9030 N   0  0  0  0  0  0  0  0  0  0  0  0
   -4.3250   24.1520  -30.3460 C   0  0  0  0  0  0  0  0  0  0  0  0
   -4.1210   22.9450  -31.0300 C   0  0  0  0  0  0  0  0  0  0  0  0
   -5.2130   22.1990  -31.4970 C   0  0  0  0  0  0  0  0  0  0  0  0
   -4.9530   20.6840  -32.3640 S   0  0  0  0  0  0  0  0  0  0  0  0
   -3.6890   20.0360  -31.8670 O   0  0  0  0  0  0  0  0  0  0  0  0
   -4.7810   20.9800  -33.8280 O   0  0  0  0  0  0  0  0  0  0  0  0
   -6.2970   19.5840  -32.1630 N   0  0  0  0  0  0  0  0  0  0  0  0
   -6.0330   18.3150  -32.8550 C   0  0  0  0  0  0  0  0  0  0  0  0
   -7.2210   17.3490  -32.6620 C   0  0  0  0  0  0  0  0  0  0  0  0
   -8.3160   17.9700  -32.0080 O   0  0  0  0  0  0  0  0  0  0  0  0
   -8.6780   19.1500  -32.6950 C   0  0  0  0  0  0  0  0  0  0  0  0
   -7.5400   20.1890  -32.6650 C   0  0  0  0  0  0  0  0  0  0  0  0
   -6.5160   22.6670  -31.2750 C   0  0  0  0  0  0  0  0  0  0  0  0
   -6.7250   23.8580  -30.5780 C   0  0  0  0  0  0  0  0  0  0  0  0
   -5.6370   24.5970  -30.0950 C   0  0  0  0  0  0  0  0  0  0  0  0
   -5.8590   25.7510  -29.3470 O   0  0  0  0  0  0  0  0  0  0  0  0
   -1.8180   23.2220  -28.0570 C   0  0  0  0  0  0  0  0  0  0  0  0
   -0.4440   23.0460  -28.2780 C   0  0  0  0  0  0  0  0  0  0  0  0
    0.1150   21.7650  -28.2370 C   0  0  0  0  0  0  0  0  0  0  0  0
   -0.6960   20.6500  -27.9770 C   0  0  0  0  0  0  0  0  0  0  0  0
   -0.0250   19.0190  -28.0590 S   0  0  0  0  0  0  0  0  0  0  0  0
   -0.8330   18.1050  -27.1770 O   0  0  0  0  0  0  0  0  0  0  0  0
    1.3890   19.0360  -27.5470 O   0  0  0  0  0  0  0  0  0  0  0  0
   -0.0400   18.4120  -29.7020 N   0  0  0  0  0  0  0  0  0  0  0  0
   -0.6490   19.4010  -30.6120 C   0  0  0  0  0  0  0  0  0  0  0  0
   -0.2320   19.1320  -32.0670 C   0  0  0  0  0  0  0  0  0  0  0  0
    1.1720   19.1870  -32.2900 O   0  0  0  0  0  0  0  0  0  0  0  0
    1.9500   18.9730  -31.1200 C   0  0  0  0  0  0  0  0  0  0  0  0
    1.3090   17.9760  -30.1360 C   0  0  0  0  0  0  0  0  0  0  0  0
   -2.0610   20.8340  -27.7120 C   0  0  0  0  0  0  0  0  0  0  0  0
   -2.6200   22.1130  -27.7600 C   0  0  0  0  0  0  0  0  0  0  0  0
   -3.0973   22.5807  -31.2015 H   0  0  0  0  0  0  0  0  0  0  0  0
   -5.8920   18.5085  -33.9286 H   0  0  0  0  0  0  0  0  0  0  0  0
   -5.1250   17.8577  -32.4349 H   0  0  0  0  0  0  0  0  0  0  0  0
   -7.5528   16.9940  -33.6489 H   0  0  0  0  0  0  0  0  0  0  0  0
   -6.8793   16.5155  -32.0307 H   0  0  0  0  0  0  0  0  0  0  0  0
   -8.9064   18.8993  -33.7414 H   0  0  0  0  0  0  0  0  0  0  0  0
   -9.5573   19.5848  -32.1973 H   0  0  0  0  0  0  0  0  0  0  0  0
   -7.3710   20.5690  -33.6833 H   0  0  0  0  0  0  0  0  0  0  0  0
   -7.8293   21.0112  -31.9940 H   0  0  0  0  0  0  0  0  0  0  0  0
   -7.3761   22.0937  -31.6513 H   0  0  0  0  0  0  0  0  0  0  0  0
   -7.7500   24.2186  -30.4068 H   0  0  0  0  0  0  0  0  0  0  0  0
   -5.3640   25.9260  -28.4800 H   0  0  0  0  0  0  0  0  0  0  0  0
    0.1949   23.9174  -28.4840 H   0  0  0  0  0  0  0  0  0  0  0  0
    1.1932   21.6311  -28.4090 H   0  0  0  0  0  0  0  0  0  0  0  0
   -1.7443   19.3375  -30.5330 H   0  0  0  0  0  0  0  0  0  0  0  0
   -0.3024   20.4048  -30.3253 H   0  0  0  0  0  0  0  0  0  0  0  0
   -0.5871   18.1296  -32.3481 H   0  0  0  0  0  0  0  0  0  0  0  0
   -0.6809   19.9294  -32.6775 H   0  0  0  0  0  0  0  0  0  0  0  0
    2.9335   18.5830  -31.4212 H   0  0  0  0  0  0  0  0  0  0  0  0
    2.0288   19.9391  -30.5999 H   0  0  0  0  0  0  0  0  0  0  0  0
    1.2240   16.9961  -30.6285 H   0  0  0  0  0  0  0  0  0  0  0  0
    1.9505   17.9193  -29.2443 H   0  0  0  0  0  0  0  0  0  0  0  0
   -2.6932   19.9682  -27.4656 H   0  0  0  0  0  0  0  0  0  0  0  0
   -3.6937   22.2497  -27.5639 H   0  0  0  0  0  0  0  0  0  0  0  0
  1  2  2  0
  2  3  2  0
  2  4  1  0
  4  5  1  0
  5  6  2  0
  6  7  1  0
  7  8  1  0
  8  9  2  0
  8 10  2  0
  8 11  1  0
 11 12  1  0
 12 13  1  0
 13 14  1  0
 14 15  1  0
 15 16  1  0
  7 17  2  0
 17 18  1  0
 18 19  2  0
 19 20  1  0
  2 21  1  0
 21 22  2  0
 22 23  1  0
 23 24  2  0
 24 25  1  0
 25 26  2  0
 25 27  2  0
 25 28  1  0
 28 29  1  0
 29 30  1  0
 30 31  1  0
 31 32  1  0
 32 33  1  0
 24 34  1  0
 34 35  2  0
 19  5  1  0
 35 21  1  0
 16 11  1  0
 33 28  1  0
  6 36  1  0
 12 37  1  0
 12 38  1  0
 13 39  1  0
 13 40  1  0
 15 41  1  0
 15 42  1  0
 16 43  1  0
 16 44  1  0
 17 45  1  0
 18 46  1  0
 20 47  1  0
 22 48  1  0
 23 49  1  0
 29 50  1  0
 29 51  1  0
 30 52  1  0
 30 53  1  0
 32 54  1  0
 32 55  1  0
 33 56  1  0
 33 57  1  0
 34 58  1  0
 35 59  1  0
M  CHG  1   4  -1
M  END
>  <UniqueID>  (38) 
36

>  <SMILES>  (38) 
O=S(=O)([N-]c1cc(S(=O)(=O)N2CCOCC2)ccc1O)c1ccc(S(=O)(=O)N2CCOCC2)cc1

>  <Energy>  (38) 
84.18391050622529

>  <Genealogy>  (38) 
O=S(=O)([N-]c1cc(S(=O)(=O)N2CCOCC2)ccc1O)c1ccc(S(=O)(=O)N2CCOCC2)cc1 (protonated)
O=S(=O)([N-]c1cc(S(=O)(=O)N2CCOCC2)ccc1O)c1ccc(S(=O)(=O)N2CCOCC2)cc1 (3D coordinates assigned)
O=S(=O)([N-]c1cc(S(=O)(=O)N2CCOCC2)ccc1O)c1ccc(S(=O)(=O)N2CCOCC2)cc1 (nonaromatic ring conformer: 84.18391050622529 kcal/mol)

>  <smiles>  (38) 
O=S(=O)(Nc1cc(S(=O)(=O)N2CCOCC2)ccc1O)c1ccc(S(=O)(=O)N2CCOCC2)cc1

>  <score_type>  (38) 
oracle

>  <origin>  (38) 
adgpu

>  <m_score__min__energy>  (38) 
-11.91

>  <m_primary>  (38) 
energy

$$$$
38:0
     RDKit          3D

 52 55  0  0  0  0  0  0  0  0999 V2000
    0.8710   18.5520  -29.0790 O   0  0  0  0  0  0  0  0  0  0  0  0
    0.2350   19.4770  -29.6510 C   0  0  0  0  0  0  0  0  0  0  0  0
    0.5790   19.8850  -30.9800 N   0  0  0  0  0  0  0  0  0  0  0  0
   -0.3330   20.1740  -32.0500 C   0  0  0  0  0  0  0  0  0  0  0  0
   -0.0420   21.1280  -33.0420 C   0  0  0  0  0  0  0  0  0  0  0  0
   -0.9480   21.3600  -34.0810 C   0  0  0  0  0  0  0  0  0  0  0  0
   -2.1420   20.6390  -34.1450 C   0  0  0  0  0  0  0  0  0  0  0  0
   -2.4370   19.6750  -33.1710 C   0  0  0  0  0  0  0  0  0  0  0  0
   -3.9380   18.7460  -33.2640 S   0  0  0  0  0  0  0  0  0  0  0  0
   -3.7030   17.3790  -32.6850 O   0  0  0  0  0  0  0  0  0  0  0  0
   -4.3220   18.5800  -34.7070 O   0  0  0  0  0  0  0  0  0  0  0  0
   -5.2600   19.5060  -32.4080 N   0  0  0  0  0  0  0  0  0  0  0  0
   -6.0960   20.3130  -33.2920 C   0  0  0  0  0  0  0  0  0  0  0  0
   -7.4670   20.3840  -32.6380 C   0  0  0  0  0  0  0  0  0  0  0  0
   -7.5120   19.2090  -31.6710 C   0  0  0  0  0  0  0  0  0  0  0  0
   -6.1600   18.5260  -31.8050 C   0  0  0  0  0  0  0  0  0  0  0  0
   -1.5200   19.4360  -32.1360 C   0  0  0  0  0  0  0  0  0  0  0  0
   -0.8450   20.1400  -28.9840 N   0  0  0  0  0  0  0  0  0  0  0  0
   -1.1510   21.5430  -29.0330 C   0  0  0  0  0  0  0  0  0  0  0  0
   -0.2670   22.4980  -28.5060 C   0  0  0  0  0  0  0  0  0  0  0  0
   -0.5650   23.8570  -28.5880 C   0  0  0  0  0  0  0  0  0  0  0  0
   -1.7400   24.2860  -29.2060 C   0  0  0  0  0  0  0  0  0  0  0  0
   -1.9980   25.6510  -29.2790 O   0  0  0  0  0  0  0  0  0  0  0  0
   -2.6350   23.3490  -29.7570 C   0  0  0  0  0  0  0  0  0  0  0  0
   -4.1300   23.8940  -30.5500 S   0  0  0  0  0  0  0  0  0  0  0  0
   -4.0130   25.3560  -30.8810 O   0  0  0  0  0  0  0  0  0  0  0  0
   -4.3110   23.1520  -31.8430 O   0  0  0  0  0  0  0  0  0  0  0  0
   -5.6080   23.6600  -29.5580 C   0  0  0  0  0  0  0  0  0  0  0  0
   -6.7030   24.6910  -29.7700 C   0  0  0  0  0  0  0  0  0  0  0  0
   -6.8670   23.2830  -30.3210 C   0  0  0  0  0  0  0  0  0  0  0  0
   -2.3280   21.9730  -29.6800 C   0  0  0  0  0  0  0  0  0  0  0  0
   -3.1970   21.0410  -30.2530 O   0  0  0  0  0  0  0  0  0  0  0  0
    0.9009   21.6929  -33.0000 H   0  0  0  0  0  0  0  0  0  0  0  0
   -0.7197   22.1125  -34.8501 H   0  0  0  0  0  0  0  0  0  0  0  0
   -2.8535   20.8281  -34.9624 H   0  0  0  0  0  0  0  0  0  0  0  0
   -5.6727   21.3226  -33.3992 H   0  0  0  0  0  0  0  0  0  0  0  0
   -6.1559   19.8715  -34.2977 H   0  0  0  0  0  0  0  0  0  0  0  0
   -7.5867   21.3338  -32.0961 H   0  0  0  0  0  0  0  0  0  0  0  0
   -8.2781   20.3362  -33.3795 H   0  0  0  0  0  0  0  0  0  0  0  0
   -7.6640   19.5636  -30.6409 H   0  0  0  0  0  0  0  0  0  0  0  0
   -8.3417   18.5233  -31.8976 H   0  0  0  0  0  0  0  0  0  0  0  0
   -5.7863   18.2249  -30.8152 H   0  0  0  0  0  0  0  0  0  0  0  0
   -6.2316   17.6181  -32.4220 H   0  0  0  0  0  0  0  0  0  0  0  0
   -1.7356   18.6616  -31.3851 H   0  0  0  0  0  0  0  0  0  0  0  0
    0.6669   22.1715  -28.0252 H   0  0  0  0  0  0  0  0  0  0  0  0
    0.1303   24.5958  -28.1629 H   0  0  0  0  0  0  0  0  0  0  0  0
   -5.0776   23.2502  -28.6858 H   0  0  0  0  0  0  0  0  0  0  0  0
   -7.3169   25.0240  -28.9202 H   0  0  0  0  0  0  0  0  0  0  0  0
   -6.7458   25.7036  -30.1977 H   0  0  0  0  0  0  0  0  0  0  0  0
   -7.5993   22.5974  -29.8697 H   0  0  0  0  0  0  0  0  0  0  0  0
   -7.0774   22.8548  -31.3122 H   0  0  0  0  0  0  0  0  0  0  0  0
   -2.9970   20.0490  -30.2800 H   0  0  0  0  0  0  0  0  0  0  0  0
  1  2  2  0
  2  3  1  0
  3  4  1  0
  4  5  2  0
  5  6  1  0
  6  7  2  0
  7  8  1  0
  8  9  1  0
  9 10  2  0
  9 11  2  0
  9 12  1  0
 12 13  1  0
 13 14  1  0
 14 15  1  0
 15 16  1  0
  8 17  2  0
  2 18  1  0
 18 19  1  0
 19 20  2  0
 20 21  1  0
 21 22  2  0
 22 23  1  0
 22 24  1  0
 24 25  1  0
 25 26  2  0
 25 27  2  0
 25 28  1  0
 28 29  1  0
 29 30  1  0
 24 31  2  0
 31 32  1  0
 17  4  1  0
 31 19  1  0
 16 12  1  0
 30 28  1  0
  5 33  1  0
  6 34  1  0
  7 35  1  0
 13 36  1  0
 13 37  1  0
 14 38  1  0
 14 39  1  0
 15 40  1  0
 15 41  1  0
 16 42  1  0
 16 43  1  0
 17 44  1  0
 20 45  1  0
 21 46  1  0
 28 47  1  0
 29 48  1  0
 29 49  1  0
 30 50  1  0
 30 51  1  0
 32 52  1  0
M  CHG  3   3  -1  18  -1  23  -1
M  END
>  <UniqueID>  (39) 
37

>  <SMILES>  (39) 
O=C([N-]c1cccc(S(=O)(=O)N2CCCC2)c1)[N-]c1ccc([O-])c(S(=O)(=O)C2CC2)c1O

>  <Energy>  (39) 
328.15105446510864

>  <Genealogy>  (39) 
O=C([N-]c1cccc(S(=O)(=O)N2CCCC2)c1)[N-]c1ccc([O-])c(S(=O)(=O)C2CC2)c1O (protonated)
O=C([N-]c1cccc(S(=O)(=O)N2CCCC2)c1)[N-]c1ccc([O-])c(S(=O)(=O)C2CC2)c1O (3D coordinates assigned)
O=C([N-]c1cccc(S(=O)(=O)N2CCCC2)c1)[N-]c1ccc([O-])c(S(=O)(=O)C2CC2)c1O (nonaromatic ring conformer: 328.15105446510864 kcal/mol)

>  <smiles>  (39) 
O=C(Nc1cccc(S(=O)(=O)N2CCCC2)c1)Nc1ccc(O)c(S(=O)(=O)C2CC2)c1O

>  <score_type>  (39) 
oracle

>  <origin>  (39) 
adgpu

>  <m_score__min__energy>  (39) 
-13.56

>  <m_primary>  (39) 
energy

$$$$
39:0
     RDKit          3D

 27 29  0  0  0  0  0  0  0  0999 V2000
   -1.4130   25.6350  -29.2560 O   0  0  0  0  0  0  0  0  0  0  0  0
   -2.0190   24.5320  -29.3430 C   0  0  0  0  0  0  0  0  0  0  0  0
   -3.2840   24.4930  -29.9360 C   0  0  0  0  0  0  0  0  0  0  0  0
   -3.8650   25.6660  -30.4110 O   0  0  0  0  0  0  0  0  0  0  0  0
   -3.9600   23.2640  -30.0310 C   0  0  0  0  0  0  0  0  0  0  0  0
   -5.2870   23.1690  -30.6750 C   0  0  0  0  0  0  0  0  0  0  0  0
   -5.4870   22.2100  -31.6230 N   0  0  0  0  0  0  0  0  0  0  0  0
   -6.6930   22.0170  -32.2190 C   0  0  0  0  0  0  0  0  0  0  0  0
   -7.7840   22.8030  -31.8570 C   0  0  0  0  0  0  0  0  0  0  0  0
   -7.6180   23.7980  -30.8930 C   0  0  0  0  0  0  0  0  0  0  0  0
   -6.3670   24.0050  -30.3020 C   0  0  0  0  0  0  0  0  0  0  0  0
   -6.2300   25.0510  -29.3870 O   0  0  0  0  0  0  0  0  0  0  0  0
   -3.3870   22.1590  -29.5620 O   0  0  0  0  0  0  0  0  0  0  0  0
   -2.1900   22.1460  -28.9870 C   0  0  0  0  0  0  0  0  0  0  0  0
   -1.6690   20.9370  -28.5170 C   0  0  0  0  0  0  0  0  0  0  0  0
   -0.4120   20.9000  -27.9100 C   0  0  0  0  0  0  0  0  0  0  0  0
    0.0990   19.6950  -27.4450 O   0  0  0  0  0  0  0  0  0  0  0  0
    0.3320   22.0730  -27.7710 C   0  0  0  0  0  0  0  0  0  0  0  0
   -0.1720   23.2940  -28.2360 C   0  0  0  0  0  0  0  0  0  0  0  0
    0.6020   24.4390  -28.0770 O   0  0  0  0  0  0  0  0  0  0  0  0
   -1.4440   23.3430  -28.8520 C   0  0  0  0  0  0  0  0  0  0  0  0
   -6.8075   21.2390  -32.9882 H   0  0  0  0  0  0  0  0  0  0  0  0
   -8.7658   22.6413  -32.3258 H   0  0  0  0  0  0  0  0  0  0  0  0
   -8.4740   24.4220  -30.5966 H   0  0  0  0  0  0  0  0  0  0  0  0
   -5.4070   25.6380  -29.3360 H   0  0  0  0  0  0  0  0  0  0  0  0
   -2.2519   20.0105  -28.6258 H   0  0  0  0  0  0  0  0  0  0  0  0
    1.3218   22.0379  -27.2925 H   0  0  0  0  0  0  0  0  0  0  0  0
  1  2  2  0
  2  3  1  0
  3  4  1  0
  3  5  2  0
  5  6  1  0
  6  7  2  0
  7  8  1  0
  8  9  2  0
  9 10  1  0
 10 11  2  0
 11 12  1  0
  5 13  1  0
 13 14  1  0
 14 15  2  0
 15 16  1  0
 16 17  1  0
 16 18  2  0
 18 19  1  0
 19 20  1  0
 19 21  2  0
 21  2  1  0
 11  6  1  0
 21 14  1  0
  8 22  1  0
  9 23  1  0
 10 24  1  0
 12 25  1  0
 15 26  1  0
 18 27  1  0
M  CHG  3   4  -1  17  -1  20  -1
M  END
>  <UniqueID>  (40) 
38

>  <SMILES>  (40) 
O=c1c([O-])c(-c2ncccc2O)oc2cc([O-])cc([O-])c12

>  <Energy>  (40) 
44.53343232771523

>  <Genealogy>  (40) 
O=c1c([O-])c(-c2ncccc2O)oc2cc([O-])cc([O-])c12 (protonated)
O=c1c([O-])c(-c2ncccc2O)oc2cc([O-])cc([O-])c12 (3D coordinates assigned)
O=c1c([O-])c(-c2ncccc2O)oc2cc([O-])cc([O-])c12 (optimized conformer: 44.53343232771523 kcal/mol)

>  <smiles>  (40) 
O=c1c(O)c(-c2ncccc2O)oc2cc(O)cc(O)c12

>  <score_type>  (40) 
oracle

>  <origin>  (40) 
adgpu

>  <m_score__min__energy>  (40) 
-10.17

>  <m_primary>  (40) 
energy

$$$$
40:0
     RDKit          3D

 49 52  0  0  0  0  0  0  0  0999 V2000
   -4.2330   17.1490  -35.3660 C   0  0  0  0  0  0  0  0  0  0  0  0
   -5.2260   17.6130  -34.3420 C   0  0  0  0  0  0  0  0  0  0  0  0
   -6.3420   16.8240  -34.0310 C   0  0  0  0  0  0  0  0  0  0  0  0
   -7.2850   17.2750  -33.1060 C   0  0  0  0  0  0  0  0  0  0  0  0
   -7.1300   18.5210  -32.4950 C   0  0  0  0  0  0  0  0  0  0  0  0
   -6.0270   19.3370  -32.8080 C   0  0  0  0  0  0  0  0  0  0  0  0
   -5.8650   20.6650  -32.1640 C   0  0  0  0  0  0  0  0  0  0  0  0
   -4.6700   21.3910  -32.3130 C   0  0  0  0  0  0  0  0  0  0  0  0
   -4.5230   22.6460  -31.7160 C   0  0  0  0  0  0  0  0  0  0  0  0
   -5.5700   23.1960  -30.9640 C   0  0  0  0  0  0  0  0  0  0  0  0
   -5.4210   24.8020  -30.2570 S   0  0  0  0  0  0  0  0  0  0  0  0
   -6.7760   25.4130  -30.0270 O   0  0  0  0  0  0  0  0  0  0  0  0
   -4.6430   25.6750  -31.2000 O   0  0  0  0  0  0  0  0  0  0  0  0
   -4.5810   24.6990  -28.7410 N   0  0  0  0  0  0  0  0  0  0  0  0
   -3.4260   23.8660  -28.5360 C   0  0  0  0  0  0  0  0  0  0  0  0
   -3.5520   22.5580  -28.0320 C   0  0  0  0  0  0  0  0  0  0  0  0
   -2.4250   21.7420  -27.8590 C   0  0  0  0  0  0  0  0  0  0  0  0
   -1.1500   22.2310  -28.2090 C   0  0  0  0  0  0  0  0  0  0  0  0
   -1.0190   23.5460  -28.6730 C   0  0  0  0  0  0  0  0  0  0  0  0
   -2.1440   24.3580  -28.8410 C   0  0  0  0  0  0  0  0  0  0  0  0
   -1.9810   25.6510  -29.3240 O   0  0  0  0  0  0  0  0  0  0  0  0
    0.0850   21.3900  -27.9900 C   0  0  0  0  0  0  0  0  0  0  0  0
   -0.2200   19.9530  -27.9240 N   0  0  0  0  0  0  0  0  0  0  0  0
   -1.2830   19.6930  -26.9450 C   0  0  0  0  0  0  0  0  0  0  0  0
   -2.6080   20.3210  -27.3940 C   0  0  0  0  0  0  0  0  0  0  0  0
   -6.7590   22.4760  -30.8060 C   0  0  0  0  0  0  0  0  0  0  0  0
   -6.9080   21.2210  -31.4010 C   0  0  0  0  0  0  0  0  0  0  0  0
   -5.0810   18.8730  -33.7410 C   0  0  0  0  0  0  0  0  0  0  0  0
   -3.3488   16.7359  -34.8585 H   0  0  0  0  0  0  0  0  0  0  0  0
   -4.6912   16.3717  -35.9952 H   0  0  0  0  0  0  0  0  0  0  0  0
   -3.9308   17.9991  -35.9952 H   0  0  0  0  0  0  0  0  0  0  0  0
   -6.4751   15.8464  -34.5174 H   0  0  0  0  0  0  0  0  0  0  0  0
   -8.1531   16.6468  -32.8575 H   0  0  0  0  0  0  0  0  0  0  0  0
   -7.8754   18.8672  -31.7638 H   0  0  0  0  0  0  0  0  0  0  0  0
   -3.8445   20.9678  -32.9041 H   0  0  0  0  0  0  0  0  0  0  0  0
   -3.5827   23.2039  -31.8367 H   0  0  0  0  0  0  0  0  0  0  0  0
   -4.8610   25.3820  -28.0020 H   0  0  0  0  0  0  0  0  0  0  0  0
   -4.5478   22.1708  -27.7704 H   0  0  0  0  0  0  0  0  0  0  0  0
   -0.0206   23.9437  -28.9076 H   0  0  0  0  0  0  0  0  0  0  0  0
    0.7836   21.5651  -28.8214 H   0  0  0  0  0  0  0  0  0  0  0  0
    0.5246   21.6843  -27.0255 H   0  0  0  0  0  0  0  0  0  0  0  0
   -0.5380   19.6300  -28.8690 H   0  0  0  0  0  0  0  0  0  0  0  0
   -1.4172   18.6063  -26.8396 H   0  0  0  0  0  0  0  0  0  0  0  0
   -0.9911   20.1399  -25.9832 H   0  0  0  0  0  0  0  0  0  0  0  0
   -3.0214   19.7261  -28.2217 H   0  0  0  0  0  0  0  0  0  0  0  0
   -3.2917   20.3288  -26.5323 H   0  0  0  0  0  0  0  0  0  0  0  0
   -7.5807   22.9002  -30.2103 H   0  0  0  0  0  0  0  0  0  0  0  0
   -7.8475   20.6635  -31.2720 H   0  0  0  0  0  0  0  0  0  0  0  0
   -4.2189   19.5045  -34.0019 H   0  0  0  0  0  0  0  0  0  0  0  0
  1  2  1  0
  2  3  2  0
  3  4  1  0
  4  5  2  0
  5  6  1  0
  6  7  1  0
  7  8  2  0
  8  9  1  0
  9 10  2  0
 10 11  1  0
 11 12  2  0
 11 13  2  0
 11 14  1  0
 14 15  1  0
 15 16  2  0
 16 17  1  0
 17 18  2  0
 18 19  1  0
 19 20  2  0
 20 21  1  0
 18 22  1  0
 22 23  1  0
 23 24  1  0
 24 25  1  0
 10 26  1  0
 26 27  2  0
  6 28  2  0
 28  2  1  0
 27  7  1  0
 20 15  1  0
 25 17  1  0
  1 29  1  0
  1 30  1  0
  1 31  1  0
  3 32  1  0
  4 33  1  0
  5 34  1  0
  8 35  1  0
  9 36  1  0
 14 37  1  0
 16 38  1  0
 19 39  1  0
 22 40  1  0
 22 41  1  0
 23 42  1  0
 24 43  1  0
 24 44  1  0
 25 45  1  0
 25 46  1  0
 26 47  1  0
 27 48  1  0
 28 49  1  0
M  CHG  1  21  -1
M  END
>  <UniqueID>  (41) 
39

>  <SMILES>  (41) 
Cc1cccc(-c2ccc(S(=O)(=O)Nc3cc4c(cc3[O-])CNCC4)cc2)c1

>  <Energy>  (41) 
61.9897658342972

>  <Genealogy>  (41) 
Cc1cccc(-c2ccc(S(=O)(=O)Nc3cc4c(cc3[O-])CNCC4)cc2)c1 (protonated)
Cc1cccc(-c2ccc(S(=O)(=O)Nc3cc4c(cc3[O-])CNCC4)cc2)c1 (3D coordinates assigned)
Cc1cccc(-c2ccc(S(=O)(=O)Nc3cc4c(cc3[O-])CNCC4)cc2)c1 (nonaromatic ring conformer: 61.9897658342972 kcal/mol)

>  <smiles>  (41) 
Cc1cccc(-c2ccc(S(=O)(=O)Nc3cc4c(cc3O)CNCC4)cc2)c1

>  <score_type>  (41) 
oracle

>  <origin>  (41) 
adgpu

>  <m_score__min__energy>  (41) 
-14.199999999999999

>  <m_primary>  (41) 
energy

$$$$
41:0
     RDKit          3D

 59 63  0  0  0  0  0  0  0  0999 V2000
   -0.4700   29.5930  -25.4550 C   0  0  0  0  0  0  0  0  0  0  0  0
   -0.7170   28.4030  -26.2140 O   0  0  0  0  0  0  0  0  0  0  0  0
   -0.7250   27.0790  -25.7250 C   0  0  0  0  0  0  0  0  0  0  0  0
   -1.0170   26.8800  -24.3580 C   0  0  0  0  0  0  0  0  0  0  0  0
   -0.8620   25.6210  -23.7840 C   0  0  0  0  0  0  0  0  0  0  0  0
   -0.4070   24.5850  -24.5340 N   0  0  0  0  0  0  0  0  0  0  0  0
   -0.1260   24.7140  -25.8630 C   0  0  0  0  0  0  0  0  0  0  0  0
    0.5050   23.5290  -26.5650 C   0  0  0  0  0  0  0  0  0  0  0  0
   -0.4460   22.8740  -27.4720 N   0  0  0  0  0  0  0  0  0  0  0  0
   -0.7300   23.1960  -28.7540 C   0  0  0  0  0  0  0  0  0  0  0  0
   -0.2020   24.1750  -29.3500 O   0  0  0  0  0  0  0  0  0  0  0  0
   -1.6170   22.3560  -29.3390 N   0  0  0  0  0  0  0  0  0  0  0  0
   -2.3130   22.5710  -30.6230 C   0  0  0  0  0  0  0  0  0  0  0  0
   -3.7290   23.0410  -30.3540 C   0  0  0  0  0  0  0  0  0  0  0  0
   -3.9030   24.1110  -29.4540 C   0  0  0  0  0  0  0  0  0  0  0  0
   -5.1320   24.7480  -29.3380 C   0  0  0  0  0  0  0  0  0  0  0  0
   -6.2130   24.3170  -30.0990 C   0  0  0  0  0  0  0  0  0  0  0  0
   -6.0890   23.2120  -30.9350 C   0  0  0  0  0  0  0  0  0  0  0  0
   -4.8560   22.5390  -31.0600 C   0  0  0  0  0  0  0  0  0  0  0  0
   -4.7910   21.0440  -32.0240 S   0  0  0  0  0  0  0  0  0  0  0  0
   -3.7530   20.1130  -31.4570 O   0  0  0  0  0  0  0  0  0  0  0  0
   -4.4380   21.3570  -33.4530 O   0  0  0  0  0  0  0  0  0  0  0  0
   -6.3450   20.2280  -32.0100 C   0  0  0  0  0  0  0  0  0  0  0  0
   -6.4250   18.8630  -31.6920 C   0  0  0  0  0  0  0  0  0  0  0  0
   -7.6540   18.2000  -31.7480 C   0  0  0  0  0  0  0  0  0  0  0  0
   -8.8020   18.8970  -32.1290 C   0  0  0  0  0  0  0  0  0  0  0  0
   -8.7280   20.2530  -32.4690 C   0  0  0  0  0  0  0  0  0  0  0  0
   -7.4990   20.9150  -32.4170 C   0  0  0  0  0  0  0  0  0  0  0  0
   -1.8880   21.4440  -28.3860 C   0  0  0  0  0  0  0  0  0  0  0  0
   -2.7280   20.3280  -28.4440 C   0  0  0  0  0  0  0  0  0  0  0  0
   -2.8310   19.5290  -27.2950 C   0  0  0  0  0  0  0  0  0  0  0  0
   -2.0800   19.8430  -26.1390 C   0  0  0  0  0  0  0  0  0  0  0  0
   -1.2280   20.9590  -26.1120 C   0  0  0  0  0  0  0  0  0  0  0  0
   -1.1690   21.7600  -27.2550 C   0  0  0  0  0  0  0  0  0  0  0  0
   -0.3320   25.9680  -26.5030 C   0  0  0  0  0  0  0  0  0  0  0  0
   -0.1170   26.1250  -27.8740 O   0  0  0  0  0  0  0  0  0  0  0  0
   -0.5184   29.3596  -24.3811 H   0  0  0  0  0  0  0  0  0  0  0  0
    0.5284   29.9839  -25.7006 H   0  0  0  0  0  0  0  0  0  0  0  0
   -1.2304   30.3490  -25.7006 H   0  0  0  0  0  0  0  0  0  0  0  0
   -1.3682   27.7226  -23.7443 H   0  0  0  0  0  0  0  0  0  0  0  0
   -1.1081   25.4659  -22.7232 H   0  0  0  0  0  0  0  0  0  0  0  0
    1.3716   23.8773  -27.1461 H   0  0  0  0  0  0  0  0  0  0  0  0
    0.8139   22.7993  -25.8020 H   0  0  0  0  0  0  0  0  0  0  0  0
   -1.7777   23.3336  -31.2077 H   0  0  0  0  0  0  0  0  0  0  0  0
   -2.3394   21.6285  -31.1896 H   0  0  0  0  0  0  0  0  0  0  0  0
   -3.0564   24.4456  -28.8365 H   0  0  0  0  0  0  0  0  0  0  0  0
   -5.2500   25.5934  -28.6441 H   0  0  0  0  0  0  0  0  0  0  0  0
   -7.1718   24.8529  -30.0396 H   0  0  0  0  0  0  0  0  0  0  0  0
   -6.9617   22.8596  -31.5044 H   0  0  0  0  0  0  0  0  0  0  0  0
   -5.5182   18.3140  -31.3981 H   0  0  0  0  0  0  0  0  0  0  0  0
   -7.7166   17.1319  -31.4926 H   0  0  0  0  0  0  0  0  0  0  0  0
   -9.7710   18.3774  -32.1623 H   0  0  0  0  0  0  0  0  0  0  0  0
   -9.6345   20.7953  -32.7760 H   0  0  0  0  0  0  0  0  0  0  0  0
   -7.4356   21.9772  -32.6957 H   0  0  0  0  0  0  0  0  0  0  0  0
   -3.2887   20.0847  -29.3585 H   0  0  0  0  0  0  0  0  0  0  0  0
   -3.4987   18.6549  -27.2937 H   0  0  0  0  0  0  0  0  0  0  0  0
   -2.1643   19.2038  -25.2477 H   0  0  0  0  0  0  0  0  0  0  0  0
   -0.6274   21.1945  -25.2210 H   0  0  0  0  0  0  0  0  0  0  0  0
   -0.6530   25.5840  -28.5440 H   0  0  0  0  0  0  0  0  0  0  0  0
  1  2  1  0
  2  3  1  0
  3  4  2  0
  4  5  1  0
  5  6  2  0
  6  7  1  0
  7  8  1  0
  8  9  1  0
  9 10  1  0
 10 11  2  0
 10 12  1  0
 12 13  1  0
 13 14  1  0
 14 15  2  0
 15 16  1  0
 16 17  2  0
 17 18  1  0
 18 19  2  0
 19 20  1  0
 20 21  2  0
 20 22  2  0
 20 23  1  0
 23 24  2  0
 24 25  1  0
 25 26  2  0
 26 27  1  0
 27 28  2  0
 12 29  1  0
 29 30  2  0
 30 31  1  0
 31 32  2  0
 32 33  1  0
 33 34  2  0
  7 35  2  0
 35 36  1  0
 35  3  1  0
 34  9  1  0
 19 14  1  0
 28 23  1  0
 34 29  1  0
  1 37  1  0
  1 38  1  0
  1 39  1  0
  4 40  1  0
  5 41  1  0
  8 42  1  0
  8 43  1  0
 13 44  1  0
 13 45  1  0
 15 46  1  0
 16 47  1  0
 17 48  1  0
 18 49  1  0
 24 50  1  0
 25 51  1  0
 26 52  1  0
 27 53  1  0
 28 54  1  0
 30 55  1  0
 31 56  1  0
 32 57  1  0
 33 58  1  0
 36 59  1  0
M  END
>  <UniqueID>  (42) 
40

>  <SMILES>  (42) 
COc1ccnc(Cn2c(=O)n(Cc3ccccc3S(=O)(=O)c3ccccc3)c3ccccc32)c1O

>  <Energy>  (42) 
124.58513741588868

>  <Genealogy>  (42) 
COc1ccnc(Cn2c(=O)n(Cc3ccccc3S(=O)(=O)c3ccccc3)c3ccccc32)c1O (3D coordinates assigned)
COc1ccnc(Cn2c(=O)n(Cc3ccccc3S(=O)(=O)c3ccccc3)c3ccccc32)c1O (optimized conformer: 124.58513741588868 kcal/mol)

>  <smiles>  (42) 
COc1ccnc(Cn2c(=O)n(Cc3ccccc3S(=O)(=O)c3ccccc3)c3ccccc32)c1O

>  <score_type>  (42) 
oracle

>  <origin>  (42) 
adgpu

>  <m_score__min__energy>  (42) 
-11.09

>  <m_primary>  (42) 
energy

$$$$
42:0
     RDKit          3D

 50 53  0  0  0  0  0  0  0  0999 V2000
   -2.1060   23.1760  -30.7740 O   0  0  0  0  0  0  0  0  0  0  0  0
   -3.1200   22.5270  -31.1440 C   0  0  0  0  0  0  0  0  0  0  0  0
   -2.9430   21.1770  -31.5960 N   0  0  0  0  0  0  0  0  0  0  0  0
   -1.7730   20.6300  -32.2270 C   0  0  0  0  0  0  0  0  0  0  0  0
   -1.8050   20.1710  -33.5540 C   0  0  0  0  0  0  0  0  0  0  0  0
   -0.6330   19.7410  -34.1750 C   0  0  0  0  0  0  0  0  0  0  0  0
    0.5710   19.7960  -33.4740 C   0  0  0  0  0  0  0  0  0  0  0  0
    0.5960   20.2640  -32.1990 N   0  0  0  0  0  0  0  0  0  0  0  0
   -0.5320   20.6710  -31.5570 C   0  0  0  0  0  0  0  0  0  0  0  0
   -0.4240   21.1460  -30.2440 O   0  0  0  0  0  0  0  0  0  0  0  0
   -1.0340   20.5310  -29.1430 C   0  0  0  0  0  0  0  0  0  0  0  0
   -2.1970   21.0980  -28.6080 C   0  0  0  0  0  0  0  0  0  0  0  0
   -2.8480   20.4870  -27.5310 C   0  0  0  0  0  0  0  0  0  0  0  0
   -2.3300   19.3140  -26.9730 C   0  0  0  0  0  0  0  0  0  0  0  0
   -3.1520   18.5450  -25.6270 Cl  0  0  0  0  0  0  0  0  0  0  0  0
   -1.1510   18.7600  -27.4820 C   0  0  0  0  0  0  0  0  0  0  0  0
   -0.4930   19.3730  -28.5530 C   0  0  0  0  0  0  0  0  0  0  0  0
    0.7070   18.8430  -29.0090 O   0  0  0  0  0  0  0  0  0  0  0  0
   -4.4620   23.1460  -31.0330 C   0  0  0  0  0  0  0  0  0  0  0  0
   -5.6090   22.3690  -31.2570 C   0  0  0  0  0  0  0  0  0  0  0  0
   -6.8870   22.9320  -31.1530 C   0  0  0  0  0  0  0  0  0  0  0  0
   -8.3110   21.9350  -31.4360 S   0  0  0  0  0  0  0  0  0  0  0  0
   -9.3360   22.7180  -32.2120 O   0  0  0  0  0  0  0  0  0  0  0  0
   -8.8940   21.5340  -30.1100 O   0  0  0  0  0  0  0  0  0  0  0  0
   -7.8530   20.5060  -32.3270 N   0  0  0  0  0  0  0  0  0  0  0  0
   -8.9700   19.5720  -32.4530 C   0  0  0  0  0  0  0  0  0  0  0  0
   -8.3570   18.1930  -32.6320 C   0  0  0  0  0  0  0  0  0  0  0  0
   -6.9440   18.3100  -32.0800 C   0  0  0  0  0  0  0  0  0  0  0  0
   -6.7980   19.7600  -31.6430 C   0  0  0  0  0  0  0  0  0  0  0  0
   -7.0230   24.2800  -30.8010 C   0  0  0  0  0  0  0  0  0  0  0  0
   -5.8890   25.0590  -30.5640 C   0  0  0  0  0  0  0  0  0  0  0  0
   -4.6110   24.5020  -30.6770 C   0  0  0  0  0  0  0  0  0  0  0  0
   -3.5000   25.3050  -30.4490 O   0  0  0  0  0  0  0  0  0  0  0  0
   -2.7570   20.1507  -34.1047 H   0  0  0  0  0  0  0  0  0  0  0  0
   -0.6580   19.3622  -35.2074 H   0  0  0  0  0  0  0  0  0  0  0  0
    1.5019   19.4600  -33.9541 H   0  0  0  0  0  0  0  0  0  0  0  0
   -2.6004   22.0275  -29.0362 H   0  0  0  0  0  0  0  0  0  0  0  0
   -3.7684   20.9298  -27.1226 H   0  0  0  0  0  0  0  0  0  0  0  0
   -0.7406   17.8405  -27.0392 H   0  0  0  0  0  0  0  0  0  0  0  0
   -5.5029   21.3055  -31.5173 H   0  0  0  0  0  0  0  0  0  0  0  0
   -9.5915   19.5974  -31.5458 H   0  0  0  0  0  0  0  0  0  0  0  0
   -9.6162   19.8350  -33.3035 H   0  0  0  0  0  0  0  0  0  0  0  0
   -8.9296   17.4404  -32.0701 H   0  0  0  0  0  0  0  0  0  0  0  0
   -8.3621   17.8743  -33.6848 H   0  0  0  0  0  0  0  0  0  0  0  0
   -6.8090   17.6344  -31.2225 H   0  0  0  0  0  0  0  0  0  0  0  0
   -6.1884   18.0312  -32.8292 H   0  0  0  0  0  0  0  0  0  0  0  0
   -6.9192   19.8427  -30.5528 H   0  0  0  0  0  0  0  0  0  0  0  0
   -5.8028   20.1543  -31.8961 H   0  0  0  0  0  0  0  0  0  0  0  0
   -8.0245   24.7260  -30.7110 H   0  0  0  0  0  0  0  0  0  0  0  0
   -6.0013   26.1175  -30.2866 H   0  0  0  0  0  0  0  0  0  0  0  0
  1  2  2  0
  2  3  1  0
  3  4  1  0
  4  5  2  0
  5  6  1  0
  6  7  2  0
  7  8  1  0
  8  9  2  0
  9 10  1  0
 10 11  1  0
 11 12  2  0
 12 13  1  0
 13 14  2  0
 14 15  1  0
 14 16  1  0
 16 17  2  0
 17 18  1  0
  2 19  1  0
 19 20  2  0
 20 21  1  0
 21 22  1  0
 22 23  2  0
 22 24  2  0
 22 25  1  0
 25 26  1  0
 26 27  1  0
 27 28  1  0
 28 29  1  0
 21 30  2  0
 30 31  1  0
 31 32  2  0
 32 33  1  0
  9  4  1  0
 17 11  1  0
 32 19  1  0
 29 25  1  0
  5 34  1  0
  6 35  1  0
  7 36  1  0
 12 37  1  0
 13 38  1  0
 16 39  1  0
 20 40  1  0
 26 41  1  0
 26 42  1  0
 27 43  1  0
 27 44  1  0
 28 45  1  0
 28 46  1  0
 29 47  1  0
 29 48  1  0
 30 49  1  0
 31 50  1  0
M  CHG  3   3  -1  18  -1  33  -1
M  END
>  <UniqueID>  (43) 
41

>  <SMILES>  (43) 
O=C([N-]c1cccnc1Oc1ccc(Cl)cc1[O-])c1cc(S(=O)(=O)N2CCCC2)ccc1[O-]

>  <Energy>  (43) 
68.14229869758053

>  <Genealogy>  (43) 
O=C([N-]c1cccnc1Oc1ccc(Cl)cc1[O-])c1cc(S(=O)(=O)N2CCCC2)ccc1[O-] (protonated)
O=C([N-]c1cccnc1Oc1ccc(Cl)cc1[O-])c1cc(S(=O)(=O)N2CCCC2)ccc1[O-] (3D coordinates assigned)
O=C([N-]c1cccnc1Oc1ccc(Cl)cc1[O-])c1cc(S(=O)(=O)N2CCCC2)ccc1[O-] (nonaromatic ring conformer: 68.14229869758053 kcal/mol)

>  <smiles>  (43) 
O=C(Nc1cccnc1Oc1ccc(Cl)cc1O)c1cc(S(=O)(=O)N2CCCC2)ccc1O

>  <score_type>  (43) 
oracle

>  <origin>  (43) 
adgpu

>  <m_score__min__energy>  (43) 
-17.079999999999998

>  <m_primary>  (43) 
energy

$$$$
43:0
     RDKit          3D

 50 53  0  0  0  0  0  0  0  0999 V2000
   -0.4990   21.9180  -34.4380 O   0  0  0  0  0  0  0  0  0  0  0  0
   -0.7050   20.7120  -33.5690 S   0  0  0  0  0  0  0  0  0  0  0  0
   -0.0230   19.5370  -34.2240 O   0  0  0  0  0  0  0  0  0  0  0  0
   -0.0150   20.9730  -32.0010 N   0  0  0  0  0  0  0  0  0  0  0  0
   -0.8090   21.1970  -30.8230 C   0  0  0  0  0  0  0  0  0  0  0  0
   -0.8410   20.2170  -29.8170 C   0  0  0  0  0  0  0  0  0  0  0  0
   -1.5680   20.4320  -28.6420 C   0  0  0  0  0  0  0  0  0  0  0  0
   -2.2510   21.6370  -28.4500 C   0  0  0  0  0  0  0  0  0  0  0  0
   -2.2190   22.6290  -29.4390 C   0  0  0  0  0  0  0  0  0  0  0  0
   -3.0170   24.1790  -29.1730 S   0  0  0  0  0  0  0  0  0  0  0  0
   -2.0060   25.2820  -29.3200 O   0  0  0  0  0  0  0  0  0  0  0  0
   -3.5520   24.2310  -27.7710 O   0  0  0  0  0  0  0  0  0  0  0  0
   -4.3200   24.4380  -30.3050 N   0  0  0  0  0  0  0  0  0  0  0  0
   -5.4810   25.0380  -29.6190 C   0  0  0  0  0  0  0  0  0  0  0  0
   -6.7530   24.9260  -30.4670 C   0  0  0  0  0  0  0  0  0  0  0  0
   -7.1230   23.4560  -30.7210 C   0  0  0  0  0  0  0  0  0  0  0  0
   -5.9120   22.5140  -30.6250 C   0  0  0  0  0  0  0  0  0  0  0  0
   -4.6250   23.2130  -31.0840 C   0  0  0  0  0  0  0  0  0  0  0  0
   -1.5090   22.4010  -30.6290 C   0  0  0  0  0  0  0  0  0  0  0  0
   -2.4170   20.3490  -33.3970 C   0  0  0  0  0  0  0  0  0  0  0  0
   -2.8500   19.0420  -33.1520 C   0  0  0  0  0  0  0  0  0  0  0  0
   -4.2110   18.7710  -32.9690 C   0  0  0  0  0  0  0  0  0  0  0  0
   -5.1580   19.8020  -33.0350 C   0  0  0  0  0  0  0  0  0  0  0  0
   -6.5590   19.5020  -32.8670 N   0  0  0  0  0  0  0  0  0  0  0  0
   -7.1250   18.3890  -32.3770 C   0  0  0  0  0  0  0  0  0  0  0  0
   -8.4650   18.5390  -32.3440 N   0  0  0  0  0  0  0  0  0  0  0  0
   -8.7000   19.7510  -32.8170 N   0  0  0  0  0  0  0  0  0  0  0  0
   -7.5530   20.3340  -33.1210 N   0  0  0  0  0  0  0  0  0  0  0  0
   -4.7110   21.1140  -33.2790 C   0  0  0  0  0  0  0  0  0  0  0  0
   -3.3530   21.3840  -33.4620 C   0  0  0  0  0  0  0  0  0  0  0  0
    0.9880   20.7110  -31.8830 H   0  0  0  0  0  0  0  0  0  0  0  0
   -0.2907   19.2745  -29.9544 H   0  0  0  0  0  0  0  0  0  0  0  0
   -1.6027   19.6518  -27.8673 H   0  0  0  0  0  0  0  0  0  0  0  0
   -2.8145   21.8065  -27.5206 H   0  0  0  0  0  0  0  0  0  0  0  0
   -5.6409   24.5163  -28.6639 H   0  0  0  0  0  0  0  0  0  0  0  0
   -5.2701   26.1045  -29.4516 H   0  0  0  0  0  0  0  0  0  0  0  0
   -7.5819   25.4185  -29.9375 H   0  0  0  0  0  0  0  0  0  0  0  0
   -6.5695   25.4119  -31.4366 H   0  0  0  0  0  0  0  0  0  0  0  0
   -7.8693   23.1469  -29.9743 H   0  0  0  0  0  0  0  0  0  0  0  0
   -7.5185   23.3852  -31.7450 H   0  0  0  0  0  0  0  0  0  0  0  0
   -5.7913   22.1906  -29.5806 H   0  0  0  0  0  0  0  0  0  0  0  0
   -6.0911   21.6497  -31.2814 H   0  0  0  0  0  0  0  0  0  0  0  0
   -3.7862   22.5100  -30.9740 H   0  0  0  0  0  0  0  0  0  0  0  0
   -4.7718   23.5174  -32.1308 H   0  0  0  0  0  0  0  0  0  0  0  0
   -1.5004   23.1701  -31.4153 H   0  0  0  0  0  0  0  0  0  0  0  0
   -2.1174   18.2229  -33.1029 H   0  0  0  0  0  0  0  0  0  0  0  0
   -4.5401   17.7401  -32.7717 H   0  0  0  0  0  0  0  0  0  0  0  0
   -6.5795   17.4909  -32.0517 H   0  0  0  0  0  0  0  0  0  0  0  0
   -5.4398   21.9365  -33.3261 H   0  0  0  0  0  0  0  0  0  0  0  0
   -3.0197   22.4139  -33.6577 H   0  0  0  0  0  0  0  0  0  0  0  0
  1  2  2  0
  2  3  2  0
  2  4  1  0
  4  5  1  0
  5  6  2  0
  6  7  1  0
  7  8  2  0
  8  9  1  0
  9 10  1  0
 10 11  2  0
 10 12  2  0
 10 13  1  0
 13 14  1  0
 14 15  1  0
 15 16  1  0
 16 17  1  0
 17 18  1  0
  9 19  2  0
  2 20  1  0
 20 21  2  0
 21 22  1  0
 22 23  2  0
 23 24  1  0
 24 25  1  0
 25 26  2  0
 26 27  1  0
 27 28  2  0
 23 29  1  0
 29 30  2  0
 19  5  1  0
 30 20  1  0
 18 13  1  0
 28 24  1  0
  4 31  1  0
  6 32  1  0
  7 33  1  0
  8 34  1  0
 14 35  1  0
 14 36  1  0
 15 37  1  0
 15 38  1  0
 16 39  1  0
 16 40  1  0
 17 41  1  0
 17 42  1  0
 18 43  1  0
 18 44  1  0
 19 45  1  0
 21 46  1  0
 22 47  1  0
 25 48  1  0
 29 49  1  0
 30 50  1  0
M  END
>  <UniqueID>  (44) 
42

>  <SMILES>  (44) 
O=S(=O)(Nc1cccc(S(=O)(=O)N2CCCCC2)c1)c1ccc(-n2cnnn2)cc1

>  <Energy>  (44) 
101.50119428719456

>  <Genealogy>  (44) 
O=S(=O)(Nc1cccc(S(=O)(=O)N2CCCCC2)c1)c1ccc(-n2cnnn2)cc1 (3D coordinates assigned)
O=S(=O)(Nc1cccc(S(=O)(=O)N2CCCCC2)c1)c1ccc(-n2cnnn2)cc1 (nonaromatic ring conformer: 101.50119428719456 kcal/mol)

>  <smiles>  (44) 
O=S(=O)(Nc1cccc(S(=O)(=O)N2CCCCC2)c1)c1ccc(-n2cnnn2)cc1

>  <score_type>  (44) 
oracle

>  <origin>  (44) 
adgpu

>  <m_score__min__energy>  (44) 
-11.43

>  <m_primary>  (44) 
energy

$$$$
44:0
     RDKit          3D

 63 67  0  0  0  0  0  0  0  0999 V2000
   -7.3020   17.2680  -31.9540 O   0  0  0  0  0  0  0  0  0  0  0  0
   -6.6600   17.5370  -33.0080 C   0  0  0  0  0  0  0  0  0  0  0  0
   -6.8570   16.6600  -34.2180 C   0  0  0  0  0  0  0  0  0  0  0  0
   -6.4950   15.1950  -33.9300 C   0  0  0  0  0  0  0  0  0  0  0  0
   -5.0210   15.0370  -33.6520 C   0  0  0  0  0  0  0  0  0  0  0  0
   -4.0660   15.5760  -34.5350 C   0  0  0  0  0  0  0  0  0  0  0  0
   -2.7030   15.3930  -34.2950 C   0  0  0  0  0  0  0  0  0  0  0  0
   -2.2760   14.6630  -33.1810 C   0  0  0  0  0  0  0  0  0  0  0  0
   -3.2180   14.1090  -32.3070 C   0  0  0  0  0  0  0  0  0  0  0  0
   -4.5890   14.3000  -32.5370 C   0  0  0  0  0  0  0  0  0  0  0  0
   -5.7830   18.6830  -33.0350 N   0  0  0  0  0  0  0  0  0  0  0  0
   -4.3290   18.4450  -33.0560 C   0  0  0  0  0  0  0  0  0  0  0  0
   -3.5550   19.6790  -33.5300 C   0  0  0  0  0  0  0  0  0  0  0  0
   -3.9940   20.8860  -32.7560 C   0  0  0  0  0  0  0  0  0  0  0  0
   -3.0670   21.8420  -32.3040 C   0  0  0  0  0  0  0  0  0  0  0  0
   -3.5070   22.9630  -31.5960 C   0  0  0  0  0  0  0  0  0  0  0  0
   -4.8770   23.1470  -31.3480 C   0  0  0  0  0  0  0  0  0  0  0  0
   -5.4410   24.5440  -30.4300 S   0  0  0  0  0  0  0  0  0  0  0  0
   -5.2220   25.8150  -31.2020 O   0  0  0  0  0  0  0  0  0  0  0  0
   -6.9120   24.3810  -30.1600 O   0  0  0  0  0  0  0  0  0  0  0  0
   -4.5810   24.6440  -28.9250 N   0  0  0  0  0  0  0  0  0  0  0  0
   -3.4220   23.8380  -28.6500 C   0  0  0  0  0  0  0  0  0  0  0  0
   -3.5580   22.5290  -28.1630 C   0  0  0  0  0  0  0  0  0  0  0  0
   -2.4310   21.7690  -27.8280 C   0  0  0  0  0  0  0  0  0  0  0  0
   -1.1430   22.3020  -28.0310 C   0  0  0  0  0  0  0  0  0  0  0  0
   -1.0060   23.6050  -28.5320 C   0  0  0  0  0  0  0  0  0  0  0  0
   -2.1340   24.3670  -28.8440 C   0  0  0  0  0  0  0  0  0  0  0  0
   -1.9660   25.6590  -29.3260 O   0  0  0  0  0  0  0  0  0  0  0  0
    0.0860   21.5240  -27.6280 C   0  0  0  0  0  0  0  0  0  0  0  0
   -0.1680   20.0760  -27.5660 N   0  0  0  0  0  0  0  0  0  0  0  0
   -1.3320   19.7930  -26.7140 C   0  0  0  0  0  0  0  0  0  0  0  0
   -2.6150   20.3550  -27.3410 C   0  0  0  0  0  0  0  0  0  0  0  0
   -5.8020   22.2020  -31.8140 C   0  0  0  0  0  0  0  0  0  0  0  0
   -5.3620   21.0630  -32.5050 C   0  0  0  0  0  0  0  0  0  0  0  0
   -6.3510   20.0460  -33.0170 C   0  0  0  0  0  0  0  0  0  0  0  0
   -7.9116   16.7115  -34.5264 H   0  0  0  0  0  0  0  0  0  0  0  0
   -6.1920   17.0247  -35.0147 H   0  0  0  0  0  0  0  0  0  0  0  0
   -7.0635   14.8516  -33.0531 H   0  0  0  0  0  0  0  0  0  0  0  0
   -6.7463   14.5953  -34.8173 H   0  0  0  0  0  0  0  0  0  0  0  0
   -4.3953   16.1437  -35.4178 H   0  0  0  0  0  0  0  0  0  0  0  0
   -1.9623   15.8244  -34.9844 H   0  0  0  0  0  0  0  0  0  0  0  0
   -1.2012   14.5246  -32.9922 H   0  0  0  0  0  0  0  0  0  0  0  0
   -2.8833   13.5229  -31.4384 H   0  0  0  0  0  0  0  0  0  0  0  0
   -5.3269   13.8717  -31.8427 H   0  0  0  0  0  0  0  0  0  0  0  0
   -3.9965   18.1852  -32.0402 H   0  0  0  0  0  0  0  0  0  0  0  0
   -4.1279   17.6249  -33.7610 H   0  0  0  0  0  0  0  0  0  0  0  0
   -2.4784   19.5168  -33.3728 H   0  0  0  0  0  0  0  0  0  0  0  0
   -3.7545   19.8426  -34.5993 H   0  0  0  0  0  0  0  0  0  0  0  0
   -1.9946   21.7070  -32.5081 H   0  0  0  0  0  0  0  0  0  0  0  0
   -2.7790   23.7030  -31.2321 H   0  0  0  0  0  0  0  0  0  0  0  0
   -5.0770   25.1150  -28.1300 H   0  0  0  0  0  0  0  0  0  0  0  0
   -4.5616   22.0951  -28.0431 H   0  0  0  0  0  0  0  0  0  0  0  0
   -0.0023   24.0299  -28.6803 H   0  0  0  0  0  0  0  0  0  0  0  0
    0.8817   21.7128  -28.3636 H   0  0  0  0  0  0  0  0  0  0  0  0
    0.3824   21.8581  -26.6227 H   0  0  0  0  0  0  0  0  0  0  0  0
   -0.3590   19.7210  -28.5380 H   0  0  0  0  0  0  0  0  0  0  0  0
   -1.4356   18.7044  -26.5948 H   0  0  0  0  0  0  0  0  0  0  0  0
   -1.1781   20.2721  -25.7358 H   0  0  0  0  0  0  0  0  0  0  0  0
   -2.9020   19.7204  -28.1924 H   0  0  0  0  0  0  0  0  0  0  0  0
   -3.3976   20.3603  -26.5680 H   0  0  0  0  0  0  0  0  0  0  0  0
   -6.8770   22.3542  -31.6371 H   0  0  0  0  0  0  0  0  0  0  0  0
   -7.2372   20.0530  -32.3654 H   0  0  0  0  0  0  0  0  0  0  0  0
   -6.6146   20.3181  -34.0497 H   0  0  0  0  0  0  0  0  0  0  0  0
  1  2  2  0
  2  3  1  0
  3  4  1  0
  4  5  1  0
  5  6  2  0
  6  7  1  0
  7  8  2  0
  8  9  1  0
  9 10  2  0
  2 11  1  0
 11 12  1  0
 12 13  1  0
 13 14  1  0
 14 15  2  0
 15 16  1  0
 16 17  2  0
 17 18  1  0
 18 19  2  0
 18 20  2  0
 18 21  1  0
 21 22  1  0
 22 23  2  0
 23 24  1  0
 24 25  2  0
 25 26  1  0
 26 27  2  0
 27 28  1  0
 25 29  1  0
 29 30  1  0
 30 31  1  0
 31 32  1  0
 17 33  1  0
 33 34  2  0
 34 35  1  0
 10  5  1  0
 35 11  1  0
 34 14  1  0
 27 22  1  0
 32 24  1  0
  3 36  1  0
  3 37  1  0
  4 38  1  0
  4 39  1  0
  6 40  1  0
  7 41  1  0
  8 42  1  0
  9 43  1  0
 10 44  1  0
 12 45  1  0
 12 46  1  0
 13 47  1  0
 13 48  1  0
 15 49  1  0
 16 50  1  0
 21 51  1  0
 23 52  1  0
 26 53  1  0
 29 54  1  0
 29 55  1  0
 30 56  1  0
 31 57  1  0
 31 58  1  0
 32 59  1  0
 32 60  1  0
 33 61  1  0
 35 62  1  0
 35 63  1  0
M  CHG  1  28  -1
M  END
>  <UniqueID>  (45) 
43

>  <SMILES>  (45) 
O=C(CCc1ccccc1)N1CCc2ccc(S(=O)(=O)Nc3cc4c(cc3[O-])CNCC4)cc2C1

>  <Energy>  (45) 
72.3549990793746

>  <Genealogy>  (45) 
O=C(CCc1ccccc1)N1CCc2ccc(S(=O)(=O)Nc3cc4c(cc3[O-])CNCC4)cc2C1 (protonated)
O=C(CCc1ccccc1)N1CCc2ccc(S(=O)(=O)Nc3cc4c(cc3[O-])CNCC4)cc2C1 (3D coordinates assigned)
O=C(CCc1ccccc1)N1CCc2ccc(S(=O)(=O)Nc3cc4c(cc3[O-])CNCC4)cc2C1 (nonaromatic ring conformer: 72.3549990793746 kcal/mol)

>  <smiles>  (45) 
O=C(CCc1ccccc1)N1CCc2ccc(S(=O)(=O)Nc3cc4c(cc3O)CNCC4)cc2C1

>  <score_type>  (45) 
oracle

>  <origin>  (45) 
adgpu

>  <m_score__min__energy>  (45) 
-14.68

>  <m_primary>  (45) 
energy

$$$$
45:0
     RDKit          3D

 58 61  0  0  0  0  0  0  0  0999 V2000
    1.1570   16.7490  -27.4540 C   0  0  0  0  0  0  0  0  0  0  0  0
   -0.0400   17.3100  -27.9840 O   0  0  0  0  0  0  0  0  0  0  0  0
   -0.4740   18.6220  -27.7420 C   0  0  0  0  0  0  0  0  0  0  0  0
   -1.6180   18.9080  -26.9760 C   0  0  0  0  0  0  0  0  0  0  0  0
   -2.0150   20.2320  -26.7700 C   0  0  0  0  0  0  0  0  0  0  0  0
   -1.2880   21.2890  -27.3410 C   0  0  0  0  0  0  0  0  0  0  0  0
   -1.6930   22.6930  -27.1270 C   0  0  0  0  0  0  0  0  0  0  0  0
   -0.9170   23.4820  -26.3380 N   0  0  0  0  0  0  0  0  0  0  0  0
   -1.2060   24.7920  -26.1070 C   0  0  0  0  0  0  0  0  0  0  0  0
   -0.3420   25.5930  -25.2070 C   0  0  0  0  0  0  0  0  0  0  0  0
   -0.9200   26.6270  -24.4400 C   0  0  0  0  0  0  0  0  0  0  0  0
   -0.1510   27.3480  -23.5260 C   0  0  0  0  0  0  0  0  0  0  0  0
    1.1990   27.0360  -23.3460 C   0  0  0  0  0  0  0  0  0  0  0  0
    1.7880   26.0240  -24.1020 C   0  0  0  0  0  0  0  0  0  0  0  0
    1.0390   25.3130  -25.0480 C   0  0  0  0  0  0  0  0  0  0  0  0
    1.7070   24.3640  -25.8280 O   0  0  0  0  0  0  0  0  0  0  0  0
   -2.3550   25.3390  -26.6960 C   0  0  0  0  0  0  0  0  0  0  0  0
   -3.1360   24.5620  -27.4900 N   0  0  0  0  0  0  0  0  0  0  0  0
   -2.8380   23.2580  -27.7300 C   0  0  0  0  0  0  0  0  0  0  0  0
   -3.8820   22.3320  -28.8650 S   0  0  0  0  0  0  0  0  0  0  0  0
   -5.0250   23.7150  -29.1840 C   0  0  0  0  0  0  0  0  0  0  0  0
   -4.6470   24.3870  -30.4620 C   0  0  0  0  0  0  0  0  0  0  0  0
   -3.7780   25.3020  -30.4600 O   0  0  0  0  0  0  0  0  0  0  0  0
   -5.2770   23.9810  -31.6810 N   0  0  0  0  0  0  0  0  0  0  0  0
   -6.1950   22.8910  -31.8290 C   0  0  0  0  0  0  0  0  0  0  0  0
   -7.5240   23.0720  -31.4390 C   0  0  0  0  0  0  0  0  0  0  0  0
   -8.4550   22.0440  -31.5980 C   0  0  0  0  0  0  0  0  0  0  0  0
   -8.0800   20.8210  -32.1800 C   0  0  0  0  0  0  0  0  0  0  0  0
   -9.1130   19.7390  -32.3480 C   0  0  0  0  0  0  0  0  0  0  0  0
   -6.7350   20.6270  -32.5780 C   0  0  0  0  0  0  0  0  0  0  0  0
   -6.2820   19.3560  -33.2470 C   0  0  0  0  0  0  0  0  0  0  0  0
   -5.8080   21.6740  -32.4140 C   0  0  0  0  0  0  0  0  0  0  0  0
   -0.1320   21.0020  -28.0820 C   0  0  0  0  0  0  0  0  0  0  0  0
    0.2660   19.6780  -28.2840 C   0  0  0  0  0  0  0  0  0  0  0  0
    1.1157   16.7684  -26.3549 H   0  0  0  0  0  0  0  0  0  0  0  0
    1.2587   15.7094  -27.7989 H   0  0  0  0  0  0  0  0  0  0  0  0
    2.0210   17.3359  -27.7989 H   0  0  0  0  0  0  0  0  0  0  0  0
   -2.2028   18.0862  -26.5371 H   0  0  0  0  0  0  0  0  0  0  0  0
   -2.9024   20.4475  -26.1568 H   0  0  0  0  0  0  0  0  0  0  0  0
   -1.9864   26.8667  -24.5639 H   0  0  0  0  0  0  0  0  0  0  0  0
   -0.6082   28.1633  -22.9462 H   0  0  0  0  0  0  0  0  0  0  0  0
    1.7973   27.5894  -22.6072 H   0  0  0  0  0  0  0  0  0  0  0  0
    2.8507   25.7816  -23.9543 H   0  0  0  0  0  0  0  0  0  0  0  0
    1.2290   23.6800  -26.3990 H   0  0  0  0  0  0  0  0  0  0  0  0
   -2.6220   26.3908  -26.5160 H   0  0  0  0  0  0  0  0  0  0  0  0
   -6.0529   23.3310  -29.2615 H   0  0  0  0  0  0  0  0  0  0  0  0
   -4.9657   24.4384  -28.3574 H   0  0  0  0  0  0  0  0  0  0  0  0
   -7.8393   24.0316  -31.0034 H   0  0  0  0  0  0  0  0  0  0  0  0
   -9.4926   22.1927  -31.2644 H   0  0  0  0  0  0  0  0  0  0  0  0
   -9.4445   19.3917  -31.3583 H   0  0  0  0  0  0  0  0  0  0  0  0
   -9.9743   20.1375  -32.9042 H   0  0  0  0  0  0  0  0  0  0  0  0
   -8.6750   18.8971  -32.9042 H   0  0  0  0  0  0  0  0  0  0  0  0
   -6.0170   18.6126  -32.4807 H   0  0  0  0  0  0  0  0  0  0  0  0
   -7.0951   18.9620  -33.8745 H   0  0  0  0  0  0  0  0  0  0  0  0
   -5.4030   19.5651  -33.8745 H   0  0  0  0  0  0  0  0  0  0  0  0
   -4.7688   21.5374  -32.7478 H   0  0  0  0  0  0  0  0  0  0  0  0
    0.4641   21.8234  -28.5062 H   0  0  0  0  0  0  0  0  0  0  0  0
    1.1692   19.4642  -28.8744 H   0  0  0  0  0  0  0  0  0  0  0  0
  1  2  1  0
  2  3  1  0
  3  4  2  0
  4  5  1  0
  5  6  2  0
  6  7  1  0
  7  8  2  0
  8  9  1  0
  9 10  1  0
 10 11  2  0
 11 12  1  0
 12 13  2  0
 13 14  1  0
 14 15  2  0
 15 16  1  0
  9 17  2  0
 17 18  1  0
 18 19  2  0
 19 20  1  0
 20 21  1  0
 21 22  1  0
 22 23  2  0
 22 24  1  0
 24 25  1  0
 25 26  2  0
 26 27  1  0
 27 28  2  0
 28 29  1  0
 28 30  1  0
 30 31  1  0
 30 32  2  0
  6 33  1  0
 33 34  2  0
 34  3  1  0
 19  7  1  0
 32 25  1  0
 15 10  1  0
  1 35  1  0
  1 36  1  0
  1 37  1  0
  4 38  1  0
  5 39  1  0
 11 40  1  0
 12 41  1  0
 13 42  1  0
 14 43  1  0
 16 44  1  0
 17 45  1  0
 21 46  1  0
 21 47  1  0
 26 48  1  0
 27 49  1  0
 29 50  1  0
 29 51  1  0
 29 52  1  0
 31 53  1  0
 31 54  1  0
 31 55  1  0
 32 56  1  0
 33 57  1  0
 34 58  1  0
M  CHG  1  24  -1
M  END
>  <UniqueID>  (46) 
44

>  <SMILES>  (46) 
COc1ccc(-c2nc(-c3ccccc3O)cnc2SCC(=O)[N-]c2ccc(C)c(C)c2)cc1

>  <Energy>  (46) 
75.4557836099473

>  <Genealogy>  (46) 
COc1ccc(-c2nc(-c3ccccc3O)cnc2SCC(=O)[N-]c2ccc(C)c(C)c2)cc1 (protonated)
COc1ccc(-c2nc(-c3ccccc3O)cnc2SCC(=O)[N-]c2ccc(C)c(C)c2)cc1 (3D coordinates assigned)
COc1ccc(-c2nc(-c3ccccc3O)cnc2SCC(=O)[N-]c2ccc(C)c(C)c2)cc1 (optimized conformer: 75.4557836099473 kcal/mol)

>  <smiles>  (46) 
COc1ccc(-c2nc(-c3ccccc3O)cnc2SCC(=O)Nc2ccc(C)c(C)c2)cc1

>  <score_type>  (46) 
oracle

>  <origin>  (46) 
adgpu

>  <m_score__min__energy>  (46) 
-11.279999999999999

>  <m_primary>  (46) 
energy

$$$$
46:0
     RDKit          3D

 55 58  0  0  0  0  0  0  0  0999 V2000
   -8.6240   21.2370  -30.8460 C   0  0  0  0  0  0  0  0  0  0  0  0
   -8.5470   22.6590  -30.8930 O   0  0  0  0  0  0  0  0  0  0  0  0
   -7.3540   23.3970  -30.8150 C   0  0  0  0  0  0  0  0  0  0  0  0
   -7.2450   24.5440  -30.0010 C   0  0  0  0  0  0  0  0  0  0  0  0
   -6.0610   25.2910  -29.9850 C   0  0  0  0  0  0  0  0  0  0  0  0
   -4.9820   24.9110  -30.7870 C   0  0  0  0  0  0  0  0  0  0  0  0
   -3.8160   25.6660  -30.7870 O   0  0  0  0  0  0  0  0  0  0  0  0
   -5.0790   23.7740  -31.5950 C   0  0  0  0  0  0  0  0  0  0  0  0
   -6.2440   22.9950  -31.5920 C   0  0  0  0  0  0  0  0  0  0  0  0
   -6.3060   21.8500  -32.4580 N   0  0  0  0  0  0  0  0  0  0  0  0
   -5.3630   20.9680  -32.6230 C   0  0  0  0  0  0  0  0  0  0  0  0
   -4.1490   21.1100  -32.0200 N   0  0  0  0  0  0  0  0  0  0  0  0
   -3.1640   20.1910  -32.1980 C   0  0  0  0  0  0  0  0  0  0  0  0
   -3.3860   19.0840  -33.0200 C   0  0  0  0  0  0  0  0  0  0  0  0
   -2.1180   17.8370  -33.2590 S   0  0  0  0  0  0  0  0  0  0  0  0
   -0.8100   19.0620  -33.4610 C   0  0  0  0  0  0  0  0  0  0  0  0
   -0.7060   19.7180  -34.6960 C   0  0  0  0  0  0  0  0  0  0  0  0
    0.2360   20.7290  -34.8830 C   0  0  0  0  0  0  0  0  0  0  0  0
    1.0820   21.0990  -33.8360 C   0  0  0  0  0  0  0  0  0  0  0  0
    1.0000   20.4420  -32.6050 C   0  0  0  0  0  0  0  0  0  0  0  0
    0.0770   19.4000  -32.4120 C   0  0  0  0  0  0  0  0  0  0  0  0
    0.0570   18.7040  -31.1090 C   0  0  0  0  0  0  0  0  0  0  0  0
    0.2730   17.4630  -31.0670 O   0  0  0  0  0  0  0  0  0  0  0  0
   -0.2630   19.4180  -29.9060 N   0  0  0  0  0  0  0  0  0  0  0  0
   -0.3450   18.7730  -28.5950 C   0  0  0  0  0  0  0  0  0  0  0  0
   -1.5780   19.2470  -27.8180 C   0  0  0  0  0  0  0  0  0  0  0  0
   -1.2740   20.8840  -27.0620 S   0  0  0  0  0  0  0  0  0  0  0  0
   -1.3960   21.7830  -28.6110 C   0  0  0  0  0  0  0  0  0  0  0  0
   -0.3510   22.0160  -29.4310 N   0  0  0  0  0  0  0  0  0  0  0  0
   -0.8690   22.6600  -30.4700 N   0  0  0  0  0  0  0  0  0  0  0  0
   -2.1750   22.8180  -30.3020 N   0  0  0  0  0  0  0  0  0  0  0  0
   -2.5270   22.2600  -29.1560 N   0  0  0  0  0  0  0  0  0  0  0  0
   -3.8590   22.3490  -28.5630 C   0  0  0  0  0  0  0  0  0  0  0  0
   -4.6290   18.9580  -33.6410 C   0  0  0  0  0  0  0  0  0  0  0  0
   -5.5870   19.8990  -33.4360 N   0  0  0  0  0  0  0  0  0  0  0  0
   -8.6420   20.9052  -29.7974 H   0  0  0  0  0  0  0  0  0  0  0  0
   -9.5416   20.9025  -31.3522 H   0  0  0  0  0  0  0  0  0  0  0  0
   -7.7479   20.8054  -31.3522 H   0  0  0  0  0  0  0  0  0  0  0  0
   -8.0952   24.8533  -29.3752 H   0  0  0  0  0  0  0  0  0  0  0  0
   -5.9802   26.1784  -29.3400 H   0  0  0  0  0  0  0  0  0  0  0  0
   -4.2337   23.4885  -32.2385 H   0  0  0  0  0  0  0  0  0  0  0  0
   -2.1938   20.3187  -31.6957 H   0  0  0  0  0  0  0  0  0  0  0  0
   -1.3725   19.4330  -35.5234 H   0  0  0  0  0  0  0  0  0  0  0  0
    0.3126   21.2355  -35.8565 H   0  0  0  0  0  0  0  0  0  0  0  0
    1.8134   21.9079  -33.9798 H   0  0  0  0  0  0  0  0  0  0  0  0
    1.6633   20.7430  -31.7807 H   0  0  0  0  0  0  0  0  0  0  0  0
   -0.4540   20.4440  -29.9580 H   0  0  0  0  0  0  0  0  0  0  0  0
   -0.4063   17.6836  -28.7347 H   0  0  0  0  0  0  0  0  0  0  0  0
    0.5529   19.0413  -28.0190 H   0  0  0  0  0  0  0  0  0  0  0  0
   -2.4328   19.3201  -28.5065 H   0  0  0  0  0  0  0  0  0  0  0  0
   -1.7932   18.5223  -27.0189 H   0  0  0  0  0  0  0  0  0  0  0  0
   -3.7733   22.3433  -27.4664 H   0  0  0  0  0  0  0  0  0  0  0  0
   -4.3435   23.2815  -28.8880 H   0  0  0  0  0  0  0  0  0  0  0  0
   -4.4633   21.4892  -28.8880 H   0  0  0  0  0  0  0  0  0  0  0  0
   -4.8330   18.0979  -34.2957 H   0  0  0  0  0  0  0  0  0  0  0  0
  1  2  1  0
  2  3  1  0
  3  4  2  0
  4  5  1  0
  5  6  2  0
  6  7  1  0
  6  8  1  0
  8  9  2  0
  9 10  1  0
 10 11  2  3
 11 12  1  0
 12 13  2  0
 13 14  1  0
 14 15  1  0
 15 16  1  0
 16 17  2  0
 17 18  1  0
 18 19  2  0
 19 20  1  0
 20 21  2  0
 21 22  1  0
 22 23  2  0
 22 24  1  0
 24 25  1  0
 25 26  1  0
 26 27  1  0
 27 28  1  0
 28 29  2  0
 29 30  1  0
 30 31  2  0
 31 32  1  0
 32 33  1  0
 14 34  2  0
 34 35  1  0
  9  3  1  0
 35 11  1  0
 21 16  1  0
 32 28  1  0
  1 36  1  0
  1 37  1  0
  1 38  1  0
  4 39  1  0
  5 40  1  0
  8 41  1  0
 13 42  1  0
 17 43  1  0
 18 44  1  0
 19 45  1  0
 20 46  1  0
 24 47  1  0
 25 48  1  0
 25 49  1  0
 26 50  1  0
 26 51  1  0
 33 52  1  0
 33 53  1  0
 33 54  1  0
 34 55  1  0
M  CHG  2   7  -1  35  -1
M  END
>  <UniqueID>  (47) 
45

>  <SMILES>  (47) 
COc1ccc([O-])cc1N=c1ncc(Sc2ccccc2C(=O)NCCSc2nnnn2C)c[n-]1

>  <Energy>  (47) 
100.97778437127351

>  <Genealogy>  (47) 
COc1ccc([O-])cc1N=c1ncc(Sc2ccccc2C(=O)NCCSc2nnnn2C)c[n-]1 (protonated)
COc1ccc([O-])cc1N=c1ncc(Sc2ccccc2C(=O)NCCSc2nnnn2C)c[n-]1 (3D coordinates assigned)
COc1ccc([O-])cc1N=c1ncc(Sc2ccccc2C(=O)NCCSc2nnnn2C)c[n-]1 (optimized conformer: 100.97778437127351 kcal/mol)

>  <smiles>  (47) 
COc1ccc(O)cc1N=c1ncc(Sc2ccccc2C(=O)NCCSc2nnnn2C)c[nH]1

>  <score_type>  (47) 
oracle

>  <origin>  (47) 
adgpu

>  <m_score__min__energy>  (47) 
-12.25

>  <m_primary>  (47) 
energy

$$$$
47:0
     RDKit          3D

 41 43  0  0  0  0  0  0  0  0999 V2000
   -4.1100   20.0790  -33.0730 C   0  0  0  0  0  0  0  0  0  0  0  0
   -4.1520   21.8940  -32.9630 S   0  0  0  0  0  0  0  0  0  0  0  0
   -5.7690   21.9320  -32.1700 C   0  0  0  0  0  0  0  0  0  0  0  0
   -6.6970   20.9370  -32.5060 C   0  0  0  0  0  0  0  0  0  0  0  0
   -7.9830   20.9570  -31.9640 C   0  0  0  0  0  0  0  0  0  0  0  0
   -8.3560   21.9760  -31.0860 C   0  0  0  0  0  0  0  0  0  0  0  0
   -7.4390   22.9720  -30.7390 C   0  0  0  0  0  0  0  0  0  0  0  0
   -6.1350   22.9520  -31.2610 C   0  0  0  0  0  0  0  0  0  0  0  0
   -5.1910   24.0180  -30.8630 C   0  0  0  0  0  0  0  0  0  0  0  0
   -5.2840   25.1470  -31.4160 O   0  0  0  0  0  0  0  0  0  0  0  0
   -4.1790   23.7950  -29.8620 N   0  0  0  0  0  0  0  0  0  0  0  0
   -4.4320   24.1580  -28.4580 C   0  0  0  0  0  0  0  0  0  0  0  0
   -3.8310   23.1310  -27.4780 C   0  0  0  0  0  0  0  0  0  0  0  0
   -2.5970   22.3870  -28.0270 C   0  0  0  0  0  0  0  0  0  0  0  0
   -1.8640   23.1730  -29.1230 C   0  0  2  0  0  0  0  0  0  0  0  0
   -1.2570   24.4440  -28.5730 C   0  0  0  0  0  0  0  0  0  0  0  0
   -0.3170   24.4940  -27.6070 N   0  0  0  0  0  0  0  0  0  0  0  0
   -0.1330   25.8250  -27.4870 C   0  0  0  0  0  0  0  0  0  0  0  0
    0.7910   26.4420  -26.4920 C   0  0  0  0  0  0  0  0  0  0  0  0
   -0.9290   26.5360  -28.3070 N   0  0  0  0  0  0  0  0  0  0  0  0
   -1.6060   25.6450  -28.9650 O   0  0  0  0  0  0  0  0  0  0  0  0
   -2.8260   23.4180  -30.3050 C   0  0  0  0  0  0  0  0  0  0  0  0
   -4.1001   19.6504  -32.0600 H   0  0  0  0  0  0  0  0  0  0  0  0
   -5.0002   19.7237  -33.6128 H   0  0  0  0  0  0  0  0  0  0  0  0
   -3.2044   19.7652  -33.6128 H   0  0  0  0  0  0  0  0  0  0  0  0
   -6.4099   20.1348  -33.2017 H   0  0  0  0  0  0  0  0  0  0  0  0
   -8.7033   20.1690  -32.2290 H   0  0  0  0  0  0  0  0  0  0  0  0
   -9.3728   21.9951  -30.6667 H   0  0  0  0  0  0  0  0  0  0  0  0
   -7.7404   23.7769  -30.0525 H   0  0  0  0  0  0  0  0  0  0  0  0
   -3.9836   25.1427  -28.2596 H   0  0  0  0  0  0  0  0  0  0  0  0
   -5.5209   24.1779  -28.3034 H   0  0  0  0  0  0  0  0  0  0  0  0
   -3.5355   23.6606  -26.5603 H   0  0  0  0  0  0  0  0  0  0  0  0
   -4.6062   22.3716  -27.2982 H   0  0  0  0  0  0  0  0  0  0  0  0
   -1.8979   22.2069  -27.1971 H   0  0  0  0  0  0  0  0  0  0  0  0
   -2.9509   21.4471  -28.4756 H   0  0  0  0  0  0  0  0  0  0  0  0
   -1.0165   22.5825  -29.5011 H   0  0  0  0  0  0  0  0  0  0  0  0
    0.4428   26.2095  -25.4748 H   0  0  0  0  0  0  0  0  0  0  0  0
    1.8046   26.0389  -26.6337 H   0  0  0  0  0  0  0  0  0  0  0  0
    0.8071   27.5327  -26.6337 H   0  0  0  0  0  0  0  0  0  0  0  0
   -2.4201   24.2286  -30.9280 H   0  0  0  0  0  0  0  0  0  0  0  0
   -2.9089   22.4773  -30.8691 H   0  0  0  0  0  0  0  0  0  0  0  0
  1  2  1  0
  2  3  1  0
  3  4  2  0
  4  5  1  0
  5  6  2  0
  6  7  1  0
  7  8  2  0
  8  9  1  0
  9 10  2  0
  9 11  1  0
 11 12  1  0
 12 13  1  0
 13 14  1  0
 14 15  1  0
 15 16  1  0
 16 17  2  0
 17 18  1  0
 18 19  1  0
 18 20  2  0
 20 21  1  0
 15 22  1  0
  8  3  1  0
 22 11  1  0
 21 16  1  0
  1 23  1  0
  1 24  1  0
  1 25  1  0
  4 26  1  0
  5 27  1  0
  6 28  1  0
  7 29  1  0
 12 30  1  0
 12 31  1  0
 13 32  1  0
 13 33  1  0
 14 34  1  0
 14 35  1  0
 15 36  1  6
 19 37  1  0
 19 38  1  0
 19 39  1  0
 22 40  1  0
 22 41  1  0
M  END
>  <UniqueID>  (48) 
46

>  <SMILES>  (48) 
CSc1ccccc1C(=O)N1CCC[C@H](c2nc(C)no2)C1

>  <Energy>  (48) 
78.71274886290765

>  <Genealogy>  (48) 
CSc1ccccc1C(=O)N1CCC[C@H](c2nc(C)no2)C1 (chirality)
CSc1ccccc1C(=O)N1CCC[C@H](c2nc(C)no2)C1 (3D coordinates assigned)
CSc1ccccc1C(=O)N1CCC[C@H](c2nc(C)no2)C1 (nonaromatic ring conformer: 78.71274886290765 kcal/mol)

>  <smiles>  (48) 
CSc1ccccc1C(=O)N1CCCC(c2nc(C)no2)C1

>  <score_type>  (48) 
oracle

>  <origin>  (48) 
adgpu

>  <m_score__min__energy>  (48) 
-8.4199999999999999

>  <m_primary>  (48) 
energy

$$$$
48:0
     RDKit          3D

 67 71  0  0  0  0  0  0  0  0999 V2000
   -0.8360   23.5940  -25.5990 C   0  0  0  0  0  0  0  0  0  0  0  0
   -0.7020   22.6430  -26.7550 C   0  0  0  0  0  0  0  0  0  0  0  0
   -0.7320   21.2590  -26.5270 C   0  0  0  0  0  0  0  0  0  0  0  0
   -0.5320   20.3630  -27.5800 C   0  0  0  0  0  0  0  0  0  0  0  0
   -0.3340   20.8290  -28.8860 C   0  0  0  0  0  0  0  0  0  0  0  0
    0.0370   19.6660  -30.1720 S   0  0  0  0  0  0  0  0  0  0  0  0
   -0.5140   18.3260  -29.7730 O   0  0  0  0  0  0  0  0  0  0  0  0
    1.5240   19.5480  -30.3550 O   0  0  0  0  0  0  0  0  0  0  0  0
   -0.6630   20.1590  -31.6900 N   0  0  0  0  0  0  0  0  0  0  0  0
    0.0680   20.4220  -32.8780 C   0  0  0  0  0  0  0  0  0  0  0  0
    1.3570   19.9800  -33.1960 C   0  0  0  0  0  0  0  0  0  0  0  0
    1.9310   20.4090  -34.4030 C   0  0  0  0  0  0  0  0  0  0  0  0
    1.2150   21.2620  -35.2640 C   0  0  0  0  0  0  0  0  0  0  0  0
   -0.0840   21.6740  -34.9300 C   0  0  0  0  0  0  0  0  0  0  0  0
   -0.6390   21.2230  -33.7320 C   0  0  0  0  0  0  0  0  0  0  0  0
   -1.9780   21.5420  -33.1680 C   0  0  0  0  0  0  0  0  0  0  0  0
   -1.9840   20.7840  -31.8090 C   0  0  1  0  0  0  0  0  0  0  0  0
   -3.0780   19.7160  -31.7490 C   0  0  0  0  0  0  0  0  0  0  0  0
   -0.3590   22.2190  -29.1310 C   0  0  0  0  0  0  0  0  0  0  0  0
   -0.3070   22.7360  -30.4260 O   0  0  0  0  0  0  0  0  0  0  0  0
   -0.4570   23.1200  -28.0550 C   0  0  0  0  0  0  0  0  0  0  0  0
   -0.2570   24.5180  -28.2920 N   0  0  0  0  0  0  0  0  0  0  0  0
   -1.3890   25.3760  -28.4360 C   0  0  0  0  0  0  0  0  0  0  0  0
   -1.2430   26.5060  -28.9750 O   0  0  0  0  0  0  0  0  0  0  0  0
   -2.6940   24.8830  -28.1150 N   0  0  0  0  0  0  0  0  0  0  0  0
   -3.5680   24.2260  -29.0430 C   0  0  0  0  0  0  0  0  0  0  0  0
   -3.7030   22.8350  -28.9740 C   0  0  0  0  0  0  0  0  0  0  0  0
   -4.4950   22.1540  -29.9030 C   0  0  0  0  0  0  0  0  0  0  0  0
   -5.1870   22.8630  -30.8940 C   0  0  0  0  0  0  0  0  0  0  0  0
   -6.1660   21.9970  -32.0750 S   0  0  0  0  0  0  0  0  0  0  0  0
   -5.2730   21.3710  -33.1140 O   0  0  0  0  0  0  0  0  0  0  0  0
   -7.0720   22.9850  -32.7580 O   0  0  0  0  0  0  0  0  0  0  0  0
   -7.1270   20.7710  -31.2720 N   0  0  0  0  0  0  0  0  0  0  0  0
   -7.4620   19.6840  -32.1990 C   0  0  0  0  0  0  0  0  0  0  0  0
   -8.8250   19.9780  -32.8100 C   0  0  0  0  0  0  0  0  0  0  0  0
   -9.4200   21.0890  -31.9670 C   0  0  0  0  0  0  0  0  0  0  0  0
   -8.4170   21.3280  -30.8490 C   0  0  0  0  0  0  0  0  0  0  0  0
   -5.0830   24.2600  -30.9410 C   0  0  0  0  0  0  0  0  0  0  0  0
   -4.2770   24.9390  -30.0240 C   0  0  0  0  0  0  0  0  0  0  0  0
   -0.7574   23.0361  -24.6542 H   0  0  0  0  0  0  0  0  0  0  0  0
   -0.0350   24.3463  -25.6483 H   0  0  0  0  0  0  0  0  0  0  0  0
   -1.8137   24.0957  -25.6483 H   0  0  0  0  0  0  0  0  0  0  0  0
   -0.9143   20.8766  -25.5118 H   0  0  0  0  0  0  0  0  0  0  0  0
   -0.5300   19.2810  -27.3816 H   0  0  0  0  0  0  0  0  0  0  0  0
    1.9072   19.3125  -32.5165 H   0  0  0  0  0  0  0  0  0  0  0  0
    2.9435   20.0776  -34.6769 H   0  0  0  0  0  0  0  0  0  0  0  0
    1.6754   21.6067  -36.2017 H   0  0  0  0  0  0  0  0  0  0  0  0
   -0.6523   22.3380  -35.5980 H   0  0  0  0  0  0  0  0  0  0  0  0
   -2.0934   22.6252  -33.0155 H   0  0  0  0  0  0  0  0  0  0  0  0
   -2.8054   21.2459  -33.8296 H   0  0  0  0  0  0  0  0  0  0  0  0
   -2.1919   21.4818  -30.9844 H   0  0  0  0  0  0  0  0  0  0  0  0
   -3.3111   19.4885  -30.6983 H   0  0  0  0  0  0  0  0  0  0  0  0
   -3.9821   20.0885  -32.2528 H   0  0  0  0  0  0  0  0  0  0  0  0
   -2.7273   18.8032  -32.2528 H   0  0  0  0  0  0  0  0  0  0  0  0
   -0.4940   23.7050  -30.6360 H   0  0  0  0  0  0  0  0  0  0  0  0
   -3.1827   22.2739  -28.1838 H   0  0  0  0  0  0  0  0  0  0  0  0
   -4.5753   21.0579  -29.8560 H   0  0  0  0  0  0  0  0  0  0  0  0
   -6.7033   19.6258  -32.9934 H   0  0  0  0  0  0  0  0  0  0  0  0
   -7.4867   18.7237  -31.6630 H   0  0  0  0  0  0  0  0  0  0  0  0
   -8.7148   20.3056  -33.8543 H   0  0  0  0  0  0  0  0  0  0  0  0
   -9.4678   19.0854  -32.8185 H   0  0  0  0  0  0  0  0  0  0  0  0
   -9.5507   22.0007  -32.5684 H   0  0  0  0  0  0  0  0  0  0  0  0
  -10.4123   20.8197  -31.5761 H   0  0  0  0  0  0  0  0  0  0  0  0
   -8.3149   22.4074  -30.6632 H   0  0  0  0  0  0  0  0  0  0  0  0
   -8.7564   20.8451  -29.9208 H   0  0  0  0  0  0  0  0  0  0  0  0
   -5.6390   24.8247  -31.7039 H   0  0  0  0  0  0  0  0  0  0  0  0
   -4.1973   26.0351  -30.0702 H   0  0  0  0  0  0  0  0  0  0  0  0
  1  2  1  0
  2  3  2  0
  3  4  1  0
  4  5  2  0
  5  6  1  0
  6  7  2  0
  6  8  2  0
  6  9  1  0
  9 10  1  0
 10 11  2  0
 11 12  1  0
 12 13  2  0
 13 14  1  0
 14 15  2  0
 15 16  1  0
 16 17  1  0
 17 18  1  0
  5 19  1  0
 19 20  1  0
 19 21  2  0
 21 22  1  0
 22 23  1  0
 23 24  2  0
 23 25  1  0
 25 26  1  0
 26 27  2  0
 27 28  1  0
 28 29  2  0
 29 30  1  0
 30 31  2  0
 30 32  2  0
 30 33  1  0
 33 34  1  0
 34 35  1  0
 35 36  1  0
 36 37  1  0
 29 38  1  0
 38 39  2  0
 21  2  1  0
 39 26  1  0
 17  9  1  0
 37 33  1  0
 15 10  1  0
  1 40  1  0
  1 41  1  0
  1 42  1  0
  3 43  1  0
  4 44  1  0
 11 45  1  0
 12 46  1  0
 13 47  1  0
 14 48  1  0
 16 49  1  0
 16 50  1  0
 17 51  1  1
 18 52  1  0
 18 53  1  0
 18 54  1  0
 20 55  1  0
 27 56  1  0
 28 57  1  0
 34 58  1  0
 34 59  1  0
 35 60  1  0
 35 61  1  0
 36 62  1  0
 36 63  1  0
 37 64  1  0
 37 65  1  0
 38 66  1  0
 39 67  1  0
M  CHG  2  22  -1  25  -1
M  END
>  <UniqueID>  (49) 
47

>  <SMILES>  (49) 
Cc1ccc(S(=O)(=O)N2c3ccccc3C[C@H]2C)c(O)c1[N-]C(=O)[N-]c1ccc(S(=O)(=O)N2CCCC2)cc1

>  <Energy>  (49) 
100.30406409690866

>  <Genealogy>  (49) 
Cc1ccc(S(=O)(=O)N2c3ccccc3CC2C)c(O)c1[N-]C(=O)[N-]c1ccc(S(=O)(=O)N2CCCC2)cc1 (protonated)
Cc1ccc(S(=O)(=O)N2c3ccccc3C[C@H]2C)c(O)c1[N-]C(=O)[N-]c1ccc(S(=O)(=O)N2CCCC2)cc1 (chirality)
Cc1ccc(S(=O)(=O)N2c3ccccc3C[C@H]2C)c(O)c1[N-]C(=O)[N-]c1ccc(S(=O)(=O)N2CCCC2)cc1 (3D coordinates assigned)
Cc1ccc(S(=O)(=O)N2c3ccccc3C[C@H]2C)c(O)c1[N-]C(=O)[N-]c1ccc(S(=O)(=O)N2CCCC2)cc1 (nonaromatic ring conformer: 100.30406409690866 kcal/mol)

>  <smiles>  (49) 
Cc1ccc(S(=O)(=O)N2c3ccccc3CC2C)c(O)c1NC(=O)Nc1ccc(S(=O)(=O)N2CCCC2)cc1

>  <score_type>  (49) 
oracle

>  <origin>  (49) 
adgpu

>  <m_score__min__energy>  (49) 
-13.09

>  <m_primary>  (49) 
energy

$$$$
