0:0
     RDKit          3D

 51 53  0  0  0  0  0  0  0  0999 V2000
    0.1460   26.8920  -23.3280 C   0  0  0  0  0  0  0  0  0  0  0  0
   -1.1210   26.5920  -23.9060 O   0  0  0  0  0  0  0  0  0  0  0  0
   -1.3230   26.3110  -25.2660 C   0  0  0  0  0  0  0  0  0  0  0  0
   -2.3230   25.3930  -25.6150 C   0  0  0  0  0  0  0  0  0  0  0  0
   -2.5400   25.0550  -26.9550 C   0  0  0  0  0  0  0  0  0  0  0  0
   -1.7490   25.6170  -27.9640 C   0  0  0  0  0  0  0  0  0  0  0  0
   -1.9970   25.2470  -29.3290 N   0  0  0  0  0  0  0  0  0  0  0  0
   -3.1360   24.5270  -29.8190 C   0  0  0  0  0  0  0  0  0  0  0  0
   -3.8610   25.0670  -30.6970 O   0  0  0  0  0  0  0  0  0  0  0  0
   -3.5530   23.1990  -29.2450 C   0  0  0  0  0  0  0  0  0  0  0  0
   -3.0140   22.0990  -30.0520 N   0  0  0  0  0  0  0  0  0  0  0  0
   -3.8040   21.4920  -31.0900 C   0  0  0  0  0  0  0  0  0  0  0  0
   -5.2000   21.6270  -31.0830 C   0  0  0  0  0  0  0  0  0  0  0  0
   -5.9740   21.0390  -32.0890 C   0  0  0  0  0  0  0  0  0  0  0  0
   -5.3570   20.3110  -33.1260 C   0  0  0  0  0  0  0  0  0  0  0  0
   -6.0860   19.7020  -34.1590 O   0  0  0  0  0  0  0  0  0  0  0  0
   -5.9340   18.3430  -34.5580 C   0  0  0  0  0  0  0  0  0  0  0  0
   -3.9610   20.1870  -33.1340 C   0  0  0  0  0  0  0  0  0  0  0  0
   -3.1890   20.7700  -32.1250 C   0  0  0  0  0  0  0  0  0  0  0  0
   -1.3550   21.6170  -29.8370 S   0  0  0  0  0  0  0  0  0  0  0  0
   -1.2260   20.1280  -30.0120 O   0  0  0  0  0  0  0  0  0  0  0  0
   -0.5070   22.2730  -30.8870 O   0  0  0  0  0  0  0  0  0  0  0  0
   -0.8120   22.0300  -28.2020 C   0  0  0  0  0  0  0  0  0  0  0  0
    0.1640   23.0330  -28.0690 C   0  0  0  0  0  0  0  0  0  0  0  0
    0.6180   23.4230  -26.8070 C   0  0  0  0  0  0  0  0  0  0  0  0
    0.1010   22.8170  -25.6620 C   0  0  0  0  0  0  0  0  0  0  0  0
   -0.8610   21.8110  -25.7760 C   0  0  0  0  0  0  0  0  0  0  0  0
   -1.3150   21.4010  -27.0360 C   0  0  0  0  0  0  0  0  0  0  0  0
   -2.4860   20.0880  -27.0840 Cl  0  0  0  0  0  0  0  0  0  0  0  0
   -0.7840   26.5820  -27.6250 C   0  0  0  0  0  0  0  0  0  0  0  0
   -0.5620   26.9160  -26.2850 C   0  0  0  0  0  0  0  0  0  0  0  0
    0.0626   26.8723  -22.2313 H   0  0  0  0  0  0  0  0  0  0  0  0
    0.8838   26.1437  -23.6532 H   0  0  0  0  0  0  0  0  0  0  0  0
    0.4699   27.8917  -23.6532 H   0  0  0  0  0  0  0  0  0  0  0  0
   -2.9418   24.9349  -24.8294 H   0  0  0  0  0  0  0  0  0  0  0  0
   -3.3368   24.3435  -27.2173 H   0  0  0  0  0  0  0  0  0  0  0  0
   -3.1726   23.1136  -28.2164 H   0  0  0  0  0  0  0  0  0  0  0  0
   -4.6513   23.1385  -29.2491 H   0  0  0  0  0  0  0  0  0  0  0  0
   -5.6895   22.1991  -30.2811 H   0  0  0  0  0  0  0  0  0  0  0  0
   -7.0687   21.1453  -32.0706 H   0  0  0  0  0  0  0  0  0  0  0  0
   -5.8626   17.7045  -33.6651 H   0  0  0  0  0  0  0  0  0  0  0  0
   -6.8036   18.0377  -35.1585 H   0  0  0  0  0  0  0  0  0  0  0  0
   -5.0184   18.2374  -35.1585 H   0  0  0  0  0  0  0  0  0  0  0  0
   -3.4683   19.6258  -33.9417 H   0  0  0  0  0  0  0  0  0  0  0  0
   -2.0944   20.6625  -32.1421 H   0  0  0  0  0  0  0  0  0  0  0  0
    0.5744   23.5157  -28.9682 H   0  0  0  0  0  0  0  0  0  0  0  0
    1.3832   24.2080  -26.7161 H   0  0  0  0  0  0  0  0  0  0  0  0
    0.4514   23.1318  -24.6680 H   0  0  0  0  0  0  0  0  0  0  0  0
   -1.2652   21.3370  -24.8694 H   0  0  0  0  0  0  0  0  0  0  0  0
   -0.2015   27.0761  -28.4166 H   0  0  0  0  0  0  0  0  0  0  0  0
    0.2107   27.6548  -26.0258 H   0  0  0  0  0  0  0  0  0  0  0  0
  1  2  1  0
  2  3  1  0
  3  4  2  0
  4  5  1  0
  5  6  2  0
  6  7  1  0
  7  8  1  0
  8  9  2  0
  8 10  1  0
 10 11  1  0
 11 12  1  0
 12 13  2  0
 13 14  1  0
 14 15  2  0
 15 16  1  0
 16 17  1  0
 15 18  1  0
 18 19  2  0
 11 20  1  0
 20 21  2  0
 20 22  2  0
 20 23  1  0
 23 24  2  0
 24 25  1  0
 25 26  2  0
 26 27  1  0
 27 28  2  0
 28 29  1  0
  6 30  1  0
 30 31  2  0
 31  3  1  0
 19 12  1  0
 28 23  1  0
  1 32  1  0
  1 33  1  0
  1 34  1  0
  4 35  1  0
  5 36  1  0
 10 37  1  0
 10 38  1  0
 13 39  1  0
 14 40  1  0
 17 41  1  0
 17 42  1  0
 17 43  1  0
 18 44  1  0
 19 45  1  0
 24 46  1  0
 25 47  1  0
 26 48  1  0
 27 49  1  0
 30 50  1  0
 31 51  1  0
M  CHG  1   7  -1
M  END
>  <UniqueID>  (1) 
1

>  <SMILES>  (1) 
COc1ccc([N-]C(=O)CN(c2ccc(OC)cc2)S(=O)(=O)c2ccccc2Cl)cc1

>  <Energy>  (1) 
60.8214512715985

>  <Genealogy>  (1) 
COc1ccc([N-]C(=O)CN(c2ccc(OC)cc2)S(=O)(=O)c2ccccc2Cl)cc1 (protonated)
COc1ccc([N-]C(=O)CN(c2ccc(OC)cc2)S(=O)(=O)c2ccccc2Cl)cc1 (3D coordinates assigned)
COc1ccc([N-]C(=O)CN(c2ccc(OC)cc2)S(=O)(=O)c2ccccc2Cl)cc1 (optimized conformer: 60.8214512715985 kcal/mol)

>  <smiles>  (1) 
COc1ccc(NC(=O)CN(c2ccc(OC)cc2)S(=O)(=O)c2ccccc2Cl)cc1

>  <score_type>  (1) 
oracle

>  <origin>  (1) 
adgpu

>  <m_score__min__energy>  (1) 
-10.42

>  <m_primary>  (1) 
energy

$$$$
1:0
     RDKit          3D

 55 58  0  0  0  0  0  0  0  0999 V2000
   -6.4960   25.6820  -30.0060 O   0  0  0  0  0  0  0  0  0  0  0  0
   -5.3340   24.7600  -30.2470 S   0  0  0  0  0  0  0  0  0  0  0  0
   -4.3010   25.5110  -31.0400 O   0  0  0  0  0  0  0  0  0  0  0  0
   -4.6410   24.2740  -28.7320 N   0  0  0  0  0  0  0  0  0  0  0  0
   -3.3930   24.4410  -28.4160 C   0  0  0  0  0  0  0  0  0  0  0  0
   -2.9260   23.9960  -27.1770 C   0  0  0  0  0  0  0  0  0  0  0  0
   -1.5760   24.1540  -26.8620 C   0  0  0  0  0  0  0  0  0  0  0  0
   -0.7270   24.7570  -27.7920 C   0  0  0  0  0  0  0  0  0  0  0  0
    0.9800   24.9510  -27.4470 Cl  0  0  0  0  0  0  0  0  0  0  0  0
   -1.2300   25.1800  -28.9790 N   0  0  0  0  0  0  0  0  0  0  0  0
   -2.5230   25.0310  -29.2800 N   0  0  0  0  0  0  0  0  0  0  0  0
   -5.8520   23.3430  -31.1530 C   0  0  0  0  0  0  0  0  0  0  0  0
   -7.1770   22.8980  -31.0770 C   0  0  0  0  0  0  0  0  0  0  0  0
   -7.5820   21.7680  -31.7930 C   0  0  0  0  0  0  0  0  0  0  0  0
   -6.6700   21.0710  -32.6000 C   0  0  0  0  0  0  0  0  0  0  0  0
   -7.1170   19.9150  -33.3300 N   0  0  0  0  0  0  0  0  0  0  0  0
   -6.6280   18.2930  -32.9480 S   0  0  0  0  0  0  0  0  0  0  0  0
   -7.6110   17.3230  -33.5410 O   0  0  0  0  0  0  0  0  0  0  0  0
   -6.6100   18.1240  -31.4540 O   0  0  0  0  0  0  0  0  0  0  0  0
   -5.0370   17.9790  -33.6330 C   0  0  0  0  0  0  0  0  0  0  0  0
   -4.7920   16.8100  -34.3640 C   0  0  0  0  0  0  0  0  0  0  0  0
   -3.5100   16.5480  -34.8570 C   0  0  0  0  0  0  0  0  0  0  0  0
   -2.4690   17.4480  -34.6210 C   0  0  0  0  0  0  0  0  0  0  0  0
   -2.7080   18.6250  -33.8960 C   0  0  0  0  0  0  0  0  0  0  0  0
   -1.3940   19.7590  -33.5770 S   0  0  0  0  0  0  0  0  0  0  0  0
   -1.1350   20.5720  -34.8150 O   0  0  0  0  0  0  0  0  0  0  0  0
   -0.1420   18.9910  -33.2550 O   0  0  0  0  0  0  0  0  0  0  0  0
   -1.7680   20.8310  -32.2490 N   0  0  0  0  0  0  0  0  0  0  0  0
   -0.5440   21.4680  -31.7370 C   0  0  0  0  0  0  0  0  0  0  0  0
   -0.8540   22.2900  -30.4680 C   0  0  0  0  0  0  0  0  0  0  0  0
   -2.2460   22.3570  -30.2240 O   0  0  0  0  0  0  0  0  0  0  0  0
   -2.7490   21.0540  -29.9930 C   0  0  0  0  0  0  0  0  0  0  0  0
   -2.4490   20.1010  -31.1680 C   0  0  0  0  0  0  0  0  0  0  0  0
   -3.9960   18.8900  -33.4120 C   0  0  0  0  0  0  0  0  0  0  0  0
   -5.3360   21.5170  -32.6640 C   0  0  0  0  0  0  0  0  0  0  0  0
   -4.9340   22.6460  -31.9470 C   0  0  0  0  0  0  0  0  0  0  0  0
   -3.6141   23.5268  -26.4585 H   0  0  0  0  0  0  0  0  0  0  0  0
   -1.1856   23.8080  -25.8935 H   0  0  0  0  0  0  0  0  0  0  0  0
   -7.9020   23.4395  -30.4516 H   0  0  0  0  0  0  0  0  0  0  0  0
   -8.6240   21.4224  -31.7233 H   0  0  0  0  0  0  0  0  0  0  0  0
   -7.6640   20.0510  -34.2080 H   0  0  0  0  0  0  0  0  0  0  0  0
   -5.6088   16.0972  -34.5505 H   0  0  0  0  0  0  0  0  0  0  0  0
   -3.3210   15.6299  -35.4326 H   0  0  0  0  0  0  0  0  0  0  0  0
   -1.4603   17.2339  -35.0040 H   0  0  0  0  0  0  0  0  0  0  0  0
    0.1944   20.6900  -31.4932 H   0  0  0  0  0  0  0  0  0  0  0  0
   -0.1434   22.1417  -32.5088 H   0  0  0  0  0  0  0  0  0  0  0  0
   -0.3618   21.8165  -29.6057 H   0  0  0  0  0  0  0  0  0  0  0  0
   -0.4790   23.3132  -30.6179 H   0  0  0  0  0  0  0  0  0  0  0  0
   -2.2843   20.6506  -29.0812 H   0  0  0  0  0  0  0  0  0  0  0  0
   -3.8413   21.1261  -29.8850 H   0  0  0  0  0  0  0  0  0  0  0  0
   -1.8022   19.2832  -30.8174 H   0  0  0  0  0  0  0  0  0  0  0  0
   -3.3955   19.6914  -31.5504 H   0  0  0  0  0  0  0  0  0  0  0  0
   -4.1908   19.8186  -32.8554 H   0  0  0  0  0  0  0  0  0  0  0  0
   -4.6065   20.9732  -33.2821 H   0  0  0  0  0  0  0  0  0  0  0  0
   -3.8906   22.9892  -32.0066 H   0  0  0  0  0  0  0  0  0  0  0  0
  1  2  2  0
  2  3  2  0
  2  4  1  0
  4  5  2  3
  5  6  1  0
  6  7  2  0
  7  8  1  0
  8  9  1  0
  8 10  2  0
 10 11  1  0
  2 12  1  0
 12 13  2  0
 13 14  1  0
 14 15  2  0
 15 16  1  0
 16 17  1  0
 17 18  2  0
 17 19  2  0
 17 20  1  0
 20 21  2  0
 21 22  1  0
 22 23  2  0
 23 24  1  0
 24 25  1  0
 25 26  2  0
 25 27  2  0
 25 28  1  0
 28 29  1  0
 29 30  1  0
 30 31  1  0
 31 32  1  0
 32 33  1  0
 24 34  2  0
 15 35  1  0
 35 36  2  0
 11  5  1  0
 36 12  1  0
 34 20  1  0
 33 28  1  0
  6 37  1  0
  7 38  1  0
 13 39  1  0
 14 40  1  0
 16 41  1  0
 21 42  1  0
 22 43  1  0
 23 44  1  0
 29 45  1  0
 29 46  1  0
 30 47  1  0
 30 48  1  0
 32 49  1  0
 32 50  1  0
 33 51  1  0
 33 52  1  0
 34 53  1  0
 35 54  1  0
 36 55  1  0
M  CHG  1  11  -1
M  END
>  <UniqueID>  (2) 
2

>  <SMILES>  (2) 
O=S(=O)(N=c1ccc(Cl)n[n-]1)c1ccc(NS(=O)(=O)c2cccc(S(=O)(=O)N3CCOCC3)c2)cc1

>  <Energy>  (2) 
68.5092422500948

>  <Genealogy>  (2) 
O=S(=O)(N=c1ccc(Cl)n[n-]1)c1ccc(NS(=O)(=O)c2cccc(S(=O)(=O)N3CCOCC3)c2)cc1 (protonated)
O=S(=O)(N=c1ccc(Cl)n[n-]1)c1ccc(NS(=O)(=O)c2cccc(S(=O)(=O)N3CCOCC3)c2)cc1 (3D coordinates assigned)
O=S(=O)(N=c1ccc(Cl)n[n-]1)c1ccc(NS(=O)(=O)c2cccc(S(=O)(=O)N3CCOCC3)c2)cc1 (nonaromatic ring conformer: 68.5092422500948 kcal/mol)

>  <smiles>  (2) 
O=S(=O)(N=c1ccc(Cl)n[nH]1)c1ccc(NS(=O)(=O)c2cccc(S(=O)(=O)N3CCOCC3)c2)cc1

>  <score_type>  (2) 
oracle

>  <origin>  (2) 
adgpu

>  <m_score__min__energy>  (2) 
-12.94

>  <m_primary>  (2) 
energy

$$$$
2:0
     RDKit          3D

 33 34  0  0  0  0  0  0  0  0999 V2000
   -6.4240   25.6590  -29.4430 C   0  0  0  0  0  0  0  0  0  0  0  0
   -5.4370   25.1840  -30.5030 C   0  0  0  0  0  0  0  0  0  0  0  0
   -5.9710   24.0200  -31.2020 N   0  0  0  0  0  0  0  0  0  0  0  0
   -7.2290   23.5520  -31.1030 C   0  0  0  0  0  0  0  0  0  0  0  0
   -7.2940   22.3800  -31.8210 C   0  0  0  0  0  0  0  0  0  0  0  0
   -8.6490   21.2710  -31.9160 S   0  0  0  0  0  0  0  0  0  0  0  0
   -8.8990   20.6390  -30.5750 O   0  0  0  0  0  0  0  0  0  0  0  0
   -9.8730   22.0350  -32.3340 O   0  0  0  0  0  0  0  0  0  0  0  0
   -8.3110   20.0320  -33.0840 N   0  0  0  0  0  0  0  0  0  0  0  0
   -7.2650   19.0580  -32.9270 C   0  0  0  0  0  0  0  0  0  0  0  0
   -7.2070   18.3010  -31.7460 C   0  0  0  0  0  0  0  0  0  0  0  0
   -6.2200   17.3260  -31.5770 C   0  0  0  0  0  0  0  0  0  0  0  0
   -5.2770   17.1010  -32.5820 C   0  0  0  0  0  0  0  0  0  0  0  0
   -5.2990   17.8690  -33.7540 C   0  0  0  0  0  0  0  0  0  0  0  0
   -4.3110   17.6000  -34.8500 C   0  0  0  0  0  0  0  0  0  0  0  0
   -6.2950   18.8430  -33.9250 C   0  0  0  0  0  0  0  0  0  0  0  0
   -6.0270   22.1810  -32.3280 C   0  0  0  0  0  0  0  0  0  0  0  0
   -5.2320   23.1940  -31.9280 N   0  0  0  0  0  0  0  0  0  0  0  0
   -6.0116   25.4605  -28.4428 H   0  0  0  0  0  0  0  0  0  0  0  0
   -6.5969   26.7389  -29.5606 H   0  0  0  0  0  0  0  0  0  0  0  0
   -7.3758   25.1203  -29.5606 H   0  0  0  0  0  0  0  0  0  0  0  0
   -5.2627   25.9941  -31.2264 H   0  0  0  0  0  0  0  0  0  0  0  0
   -4.4910   24.9071  -30.0147 H   0  0  0  0  0  0  0  0  0  0  0  0
   -8.0552   24.0212  -30.5487 H   0  0  0  0  0  0  0  0  0  0  0  0
   -8.8110   20.0960  -33.9990 H   0  0  0  0  0  0  0  0  0  0  0  0
   -7.9436   18.4765  -30.9481 H   0  0  0  0  0  0  0  0  0  0  0  0
   -6.1859   16.7345  -30.6502 H   0  0  0  0  0  0  0  0  0  0  0  0
   -4.5146   16.3186  -32.4534 H   0  0  0  0  0  0  0  0  0  0  0  0
   -3.3383   17.3352  -34.4099 H   0  0  0  0  0  0  0  0  0  0  0  0
   -4.6710   16.7672  -35.4719 H   0  0  0  0  0  0  0  0  0  0  0  0
   -4.1991   18.5004  -35.4719 H   0  0  0  0  0  0  0  0  0  0  0  0
   -6.3181   19.4435  -34.8463 H   0  0  0  0  0  0  0  0  0  0  0  0
   -5.7156   21.3337  -32.9565 H   0  0  0  0  0  0  0  0  0  0  0  0
  1  2  1  0
  2  3  1  0
  3  4  1  0
  4  5  2  0
  5  6  1  0
  6  7  2  0
  6  8  2  0
  6  9  1  0
  9 10  1  0
 10 11  2  0
 11 12  1  0
 12 13  2  0
 13 14  1  0
 14 15  1  0
 14 16  2  0
  5 17  1  0
 17 18  2  0
 18  3  1  0
 16 10  1  0
  1 19  1  0
  1 20  1  0
  1 21  1  0
  2 22  1  0
  2 23  1  0
  4 24  1  0
  9 25  1  0
 11 26  1  0
 12 27  1  0
 13 28  1  0
 15 29  1  0
 15 30  1  0
 15 31  1  0
 16 32  1  0
 17 33  1  0
M  END
>  <UniqueID>  (3) 
3

>  <SMILES>  (3) 
CCn1cc(S(=O)(=O)Nc2cccc(C)c2)cn1

>  <Energy>  (3) 
60.40825810110956

>  <Genealogy>  (3) 
CCn1cc(S(=O)(=O)Nc2cccc(C)c2)cn1 (3D coordinates assigned)
CCn1cc(S(=O)(=O)Nc2cccc(C)c2)cn1 (optimized conformer: 60.40825810110956 kcal/mol)

>  <smiles>  (3) 
CCn1cc(S(=O)(=O)Nc2cccc(C)c2)cn1

>  <score_type>  (3) 
oracle

>  <origin>  (3) 
adgpu

>  <m_score__min__energy>  (3) 
-7.4000000000000004

>  <m_primary>  (3) 
energy

$$$$
3:0
     RDKit          3D

 42 44  0  0  0  0  0  0  0  0999 V2000
   -9.3830   18.2190  -31.6260 C   0  0  0  0  0  0  0  0  0  0  0  0
   -8.0790   18.5590  -32.2850 C   0  0  0  0  0  0  0  0  0  0  0  0
   -7.9270   19.7770  -32.9620 C   0  0  0  0  0  0  0  0  0  0  0  0
   -6.7000   20.1130  -33.5380 C   0  0  0  0  0  0  0  0  0  0  0  0
   -5.6010   19.2530  -33.4260 C   0  0  0  0  0  0  0  0  0  0  0  0
   -4.3530   19.6640  -33.9970 N   0  0  0  0  0  0  0  0  0  0  0  0
   -3.0970   19.6270  -33.3120 C   0  0  0  0  0  0  0  0  0  0  0  0
   -2.2090   18.8070  -33.6800 O   0  0  0  0  0  0  0  0  0  0  0  0
   -2.8580   20.5000  -32.1330 C   0  0  0  0  0  0  0  0  0  0  0  0
   -3.7730   21.4560  -31.8540 C   0  0  0  0  0  0  0  0  0  0  0  0
   -3.7060   22.4320  -30.7310 C   0  0  0  0  0  0  0  0  0  0  0  0
   -4.8440   23.3510  -30.4970 C   0  0  0  0  0  0  0  0  0  0  0  0
   -6.1540   22.8370  -30.4630 C   0  0  0  0  0  0  0  0  0  0  0  0
   -7.2430   23.6820  -30.2380 C   0  0  0  0  0  0  0  0  0  0  0  0
   -7.0390   25.0510  -30.0510 C   0  0  0  0  0  0  0  0  0  0  0  0
   -5.7470   25.5770  -30.0980 C   0  0  0  0  0  0  0  0  0  0  0  0
   -4.6510   24.7390  -30.3280 C   0  0  0  0  0  0  0  0  0  0  0  0
   -3.3800   25.2990  -30.4120 O   0  0  0  0  0  0  0  0  0  0  0  0
   -2.6560   22.5510  -29.9780 N   0  0  0  0  0  0  0  0  0  0  0  0
   -1.2730   21.5500  -30.1640 S   0  0  0  0  0  0  0  0  0  0  0  0
   -0.1140   22.3640  -30.6660 O   0  0  0  0  0  0  0  0  0  0  0  0
   -0.9370   20.9230  -28.8400 O   0  0  0  0  0  0  0  0  0  0  0  0
   -1.6770   20.3290  -31.3160 N   0  0  0  0  0  0  0  0  0  0  0  0
   -0.8610   19.1120  -31.3610 C   0  0  0  0  0  0  0  0  0  0  0  0
   -5.7570   18.0090  -32.7730 C   0  0  0  0  0  0  0  0  0  0  0  0
   -4.7320   17.0630  -32.7210 O   0  0  0  0  0  0  0  0  0  0  0  0
   -6.9860   17.6870  -32.1830 C   0  0  0  0  0  0  0  0  0  0  0  0
   -9.2609   18.2508  -30.5333 H   0  0  0  0  0  0  0  0  0  0  0  0
  -10.1488   18.9475  -31.9307 H   0  0  0  0  0  0  0  0  0  0  0  0
   -9.6956   17.2093  -31.9307 H   0  0  0  0  0  0  0  0  0  0  0  0
   -8.7772   20.4706  -33.0398 H   0  0  0  0  0  0  0  0  0  0  0  0
   -6.5961   21.0619  -34.0846 H   0  0  0  0  0  0  0  0  0  0  0  0
   -4.6478   21.5185  -32.5180 H   0  0  0  0  0  0  0  0  0  0  0  0
   -6.3214   21.7605  -30.6150 H   0  0  0  0  0  0  0  0  0  0  0  0
   -8.2621   23.2690  -30.2080 H   0  0  0  0  0  0  0  0  0  0  0  0
   -7.8966   25.7147  -29.8667 H   0  0  0  0  0  0  0  0  0  0  0  0
   -5.5899   26.6561  -29.9534 H   0  0  0  0  0  0  0  0  0  0  0  0
   -0.6392   18.7812  -30.3357 H   0  0  0  0  0  0  0  0  0  0  0  0
   -1.4117   18.3206  -31.8906 H   0  0  0  0  0  0  0  0  0  0  0  0
    0.0802   19.3210  -31.8906 H   0  0  0  0  0  0  0  0  0  0  0  0
   -3.7870   17.2620  -33.0180 H   0  0  0  0  0  0  0  0  0  0  0  0
   -7.0946   16.7401  -31.6339 H   0  0  0  0  0  0  0  0  0  0  0  0
  1  2  1  0
  2  3  2  0
  3  4  1  0
  4  5  2  0
  5  6  1  0
  6  7  1  0
  7  8  2  0
  7  9  1  0
  9 10  2  0
 10 11  1  0
 11 12  1  0
 12 13  2  0
 13 14  1  0
 14 15  2  0
 15 16  1  0
 16 17  2  0
 17 18  1  0
 11 19  2  0
 19 20  1  0
 20 21  2  0
 20 22  2  0
 20 23  1  0
 23 24  1  0
  5 25  1  0
 25 26  1  0
 25 27  2  0
 27  2  1  0
 23  9  1  0
 17 12  1  0
  1 28  1  0
  1 29  1  0
  1 30  1  0
  3 31  1  0
  4 32  1  0
 10 33  1  0
 13 34  1  0
 14 35  1  0
 15 36  1  0
 16 37  1  0
 24 38  1  0
 24 39  1  0
 24 40  1  0
 26 41  1  0
 27 42  1  0
M  CHG  2   6  -1  18  -1
M  END
>  <UniqueID>  (4) 
4

>  <SMILES>  (4) 
Cc1ccc([N-]C(=O)C2=CC(c3ccccc3[O-])=NS(=O)(=O)N2C)c(O)c1

>  <Energy>  (4) 
64.34806385982107

>  <Genealogy>  (4) 
Cc1ccc([N-]C(=O)C2=CC(c3ccccc3[O-])=NS(=O)(=O)N2C)c(O)c1 (protonated)
Cc1ccc([N-]C(=O)C2=CC(c3ccccc3[O-])=NS(=O)(=O)N2C)c(O)c1 (3D coordinates assigned)
Cc1ccc([N-]C(=O)C2=CC(c3ccccc3[O-])=NS(=O)(=O)N2C)c(O)c1 (nonaromatic ring conformer: 64.34806385982107 kcal/mol)

>  <smiles>  (4) 
Cc1ccc(NC(=O)C2=CC(c3ccccc3O)=NS(=O)(=O)N2C)c(O)c1

>  <score_type>  (4) 
oracle

>  <origin>  (4) 
adgpu

>  <m_score__min__energy>  (4) 
-13.02

>  <m_primary>  (4) 
energy

$$$$
4:0
     RDKit          3D

 58 60  0  0  0  0  0  0  0  0999 V2000
   -2.6680   13.3250  -31.8130 C   0  0  0  0  0  0  0  0  0  0  0  0
   -3.9750   13.5390  -32.5700 C   0  0  0  0  0  0  0  0  0  0  0  0
   -3.7260   14.1720  -33.9440 C   0  0  0  0  0  0  0  0  0  0  0  0
   -4.0450   15.6150  -33.9060 N   0  0  0  0  0  0  0  0  0  0  0  0
   -5.3360   16.0240  -33.6640 C   0  0  0  0  0  0  0  0  0  0  0  0
   -6.2680   15.1910  -33.4880 O   0  0  0  0  0  0  0  0  0  0  0  0
   -5.6030   17.3800  -33.6190 C   0  0  0  0  0  0  0  0  0  0  0  0
   -6.7820   18.0740  -33.4500 C   0  0  0  0  0  0  0  0  0  0  0  0
   -6.4110   19.4100  -33.5190 C   0  0  0  0  0  0  0  0  0  0  0  0
   -7.3400   20.4970  -33.4560 N   0  0  0  0  0  0  0  0  0  0  0  0
   -7.5890   21.3100  -32.3020 C   0  0  0  0  0  0  0  0  0  0  0  0
   -8.7150   21.2740  -31.7350 O   0  0  0  0  0  0  0  0  0  0  0  0
   -6.5400   22.2290  -31.8060 C   0  0  0  0  0  0  0  0  0  0  0  0
   -5.1980   21.8270  -31.7800 C   0  0  0  0  0  0  0  0  0  0  0  0
   -4.2070   22.6940  -31.3170 C   0  0  0  0  0  0  0  0  0  0  0  0
   -4.5390   23.9880  -30.8750 C   0  0  0  0  0  0  0  0  0  0  0  0
   -3.5420   24.9110  -30.4090 N   0  0  0  0  0  0  0  0  0  0  0  0
   -2.3550   24.5960  -29.1830 S   0  0  0  0  0  0  0  0  0  0  0  0
   -3.1560   24.1650  -27.6510 C   0  0  0  0  0  0  0  0  0  0  0  0
   -1.4380   23.4880  -29.6250 O   0  0  0  0  0  0  0  0  0  0  0  0
   -1.5400   25.8420  -28.9700 O   0  0  0  0  0  0  0  0  0  0  0  0
   -5.8800   24.4020  -30.8930 C   0  0  0  0  0  0  0  0  0  0  0  0
   -6.1850   25.6960  -30.4400 O   0  0  0  0  0  0  0  0  0  0  0  0
   -6.4860   26.0330  -29.0880 C   0  0  0  0  0  0  0  0  0  0  0  0
   -6.8750   23.5200  -31.3570 C   0  0  0  0  0  0  0  0  0  0  0  0
   -5.0790   19.5470  -33.7340 N   0  0  0  0  0  0  0  0  0  0  0  0
   -4.6020   18.2880  -33.7840 C   0  0  0  0  0  0  0  0  0  0  0  0
   -3.3070   17.9040  -33.9960 N   0  0  0  0  0  0  0  0  0  0  0  0
   -2.2410   18.9040  -34.1880 C   0  0  0  0  0  0  0  0  0  0  0  0
   -2.0400   19.7170  -32.9030 C   0  0  0  0  0  0  0  0  0  0  0  0
   -1.8180   21.1950  -33.2120 C   0  0  0  0  0  0  0  0  0  0  0  0
   -3.0370   16.5500  -34.0670 C   0  0  0  0  0  0  0  0  0  0  0  0
   -1.8530   16.1640  -34.2810 O   0  0  0  0  0  0  0  0  0  0  0  0
   -2.8617   13.3567  -30.7307 H   0  0  0  0  0  0  0  0  0  0  0  0
   -2.2450   12.3456  -32.0812 H   0  0  0  0  0  0  0  0  0  0  0  0
   -1.9548   14.1183  -32.0812 H   0  0  0  0  0  0  0  0  0  0  0  0
   -4.4724   12.5676  -32.7079 H   0  0  0  0  0  0  0  0  0  0  0  0
   -4.6083   14.2208  -31.9834 H   0  0  0  0  0  0  0  0  0  0  0  0
   -2.6690   14.0405  -34.2186 H   0  0  0  0  0  0  0  0  0  0  0  0
   -4.3708   13.6811  -34.6878 H   0  0  0  0  0  0  0  0  0  0  0  0
   -7.7901   17.6619  -33.2953 H   0  0  0  0  0  0  0  0  0  0  0  0
   -4.9233   20.8201  -32.1273 H   0  0  0  0  0  0  0  0  0  0  0  0
   -3.1581   22.3631  -31.2975 H   0  0  0  0  0  0  0  0  0  0  0  0
   -2.5356   24.4989  -26.8063 H   0  0  0  0  0  0  0  0  0  0  0  0
   -4.1391   24.6559  -27.6004 H   0  0  0  0  0  0  0  0  0  0  0  0
   -3.2879   23.0741  -27.6004 H   0  0  0  0  0  0  0  0  0  0  0  0
   -5.9082   25.3861  -28.4115 H   0  0  0  0  0  0  0  0  0  0  0  0
   -6.2212   27.0848  -28.9046 H   0  0  0  0  0  0  0  0  0  0  0  0
   -7.5609   25.8882  -28.9046 H   0  0  0  0  0  0  0  0  0  0  0  0
   -7.9262   23.8439  -31.3686 H   0  0  0  0  0  0  0  0  0  0  0  0
   -4.5560   20.4370  -33.8860 H   0  0  0  0  0  0  0  0  0  0  0  0
   -1.3025   18.3902  -34.4435 H   0  0  0  0  0  0  0  0  0  0  0  0
   -2.5299   19.5849  -35.0022 H   0  0  0  0  0  0  0  0  0  0  0  0
   -2.9335   19.6134  -32.2698 H   0  0  0  0  0  0  0  0  0  0  0  0
   -1.1493   19.3327  -32.3843 H   0  0  0  0  0  0  0  0  0  0  0  0
   -1.7335   21.7577  -32.2706 H   0  0  0  0  0  0  0  0  0  0  0  0
   -0.8921   21.3129  -33.7940 H   0  0  0  0  0  0  0  0  0  0  0  0
   -2.6684   21.5797  -33.7940 H   0  0  0  0  0  0  0  0  0  0  0  0
  1  2  1  0
  2  3  1  0
  3  4  1  0
  4  5  1  0
  5  6  2  0
  5  7  1  0
  7  8  1  0
  8  9  2  0
  9 10  1  0
 10 11  1  0
 11 12  2  0
 11 13  1  0
 13 14  2  0
 14 15  1  0
 15 16  2  0
 16 17  1  0
 17 18  1  0
 18 19  1  0
 18 20  2  0
 18 21  2  0
 16 22  1  0
 22 23  1  0
 23 24  1  0
 22 25  2  0
  9 26  1  0
 26 27  1  0
 27 28  1  0
 28 29  1  0
 29 30  1  0
 30 31  1  0
 28 32  1  0
 32 33  2  0
 32  4  1  0
 27  7  2  0
 25 13  1  0
  1 34  1  0
  1 35  1  0
  1 36  1  0
  2 37  1  0
  2 38  1  0
  3 39  1  0
  3 40  1  0
  8 41  1  0
 14 42  1  0
 15 43  1  0
 19 44  1  0
 19 45  1  0
 19 46  1  0
 24 47  1  0
 24 48  1  0
 24 49  1  0
 25 50  1  0
 26 51  1  0
 29 52  1  0
 29 53  1  0
 30 54  1  0
 30 55  1  0
 31 56  1  0
 31 57  1  0
 31 58  1  0
M  CHG  2  10  -1  17  -1
M  END
>  <UniqueID>  (5) 
5

>  <SMILES>  (5) 
CCCn1c(=O)c2cc([N-]C(=O)c3ccc([N-]S(C)(=O)=O)c(OC)c3)[nH]c2n(CCC)c1=O

>  <Energy>  (5) 
92.72358224185933

>  <Genealogy>  (5) 
CCCn1c(=O)c2cc([N-]C(=O)c3ccc([N-]S(C)(=O)=O)c(OC)c3)[nH]c2n(CCC)c1=O (protonated)
CCCn1c(=O)c2cc([N-]C(=O)c3ccc([N-]S(C)(=O)=O)c(OC)c3)[nH]c2n(CCC)c1=O (3D coordinates assigned)
CCCn1c(=O)c2cc([N-]C(=O)c3ccc([N-]S(C)(=O)=O)c(OC)c3)[nH]c2n(CCC)c1=O (optimized conformer: 92.72358224185933 kcal/mol)

>  <smiles>  (5) 
CCCn1c(=O)c2cc(NC(=O)c3ccc(NS(C)(=O)=O)c(OC)c3)[nH]c2n(CCC)c1=O

>  <score_type>  (5) 
oracle

>  <origin>  (5) 
adgpu

>  <m_score__min__energy>  (5) 
-10.42

>  <m_primary>  (5) 
energy

$$$$
5:0
     RDKit          3D

 50 53  0  0  0  0  0  0  0  0999 V2000
   -5.4760   25.2790  -31.1090 O   0  0  0  0  0  0  0  0  0  0  0  0
   -4.5660   24.4270  -30.9190 C   0  0  0  0  0  0  0  0  0  0  0  0
   -3.2920   24.8380  -30.4050 N   0  0  0  0  0  0  0  0  0  0  0  0
   -2.7560   24.5410  -29.1070 C   0  0  0  0  0  0  0  0  0  0  0  0
   -3.2050   23.4390  -28.3540 C   0  0  0  0  0  0  0  0  0  0  0  0
   -2.6430   23.1650  -27.1040 C   0  0  0  0  0  0  0  0  0  0  0  0
   -1.6230   23.9750  -26.6010 C   0  0  0  0  0  0  0  0  0  0  0  0
   -1.1550   25.0570  -27.3510 C   0  0  0  0  0  0  0  0  0  0  0  0
   -1.7150   25.3370  -28.6040 C   0  0  0  0  0  0  0  0  0  0  0  0
   -1.2350   26.4110  -29.3440 O   0  0  0  0  0  0  0  0  0  0  0  0
   -4.7980   23.0070  -31.2780 C   0  0  0  0  0  0  0  0  0  0  0  0
   -6.0110   22.3770  -30.9450 C   0  0  0  0  0  0  0  0  0  0  0  0
   -6.2260   21.0360  -31.2760 C   0  0  0  0  0  0  0  0  0  0  0  0
   -5.2350   20.3090  -31.9380 C   0  0  0  0  0  0  0  0  0  0  0  0
   -4.0210   20.9190  -32.2740 C   0  0  0  0  0  0  0  0  0  0  0  0
   -2.7740   19.9770  -33.0870 S   0  0  0  0  0  0  0  0  0  0  0  0
   -2.9240   18.5330  -32.7030 O   0  0  0  0  0  0  0  0  0  0  0  0
   -2.9210   20.0810  -34.5800 O   0  0  0  0  0  0  0  0  0  0  0  0
   -1.2050   20.5730  -32.6200 N   0  0  0  0  0  0  0  0  0  0  0  0
   -0.9290   20.7850  -31.2260 C   0  0  0  0  0  0  0  0  0  0  0  0
   -0.6520   22.0750  -30.7430 C   0  0  0  0  0  0  0  0  0  0  0  0
   -0.3880   22.2750  -29.3850 C   0  0  0  0  0  0  0  0  0  0  0  0
   -0.4010   21.1920  -28.5020 C   0  0  0  0  0  0  0  0  0  0  0  0
   -0.6850   19.9070  -28.9750 C   0  0  0  0  0  0  0  0  0  0  0  0
   -0.9530   19.7050  -30.3310 C   0  0  0  0  0  0  0  0  0  0  0  0
   -0.2380   20.9790  -33.6120 C   0  0  0  0  0  0  0  0  0  0  0  0
   -0.5950   21.9120  -34.6030 C   0  0  0  0  0  0  0  0  0  0  0  0
    0.3320   22.3060  -35.5730 C   0  0  0  0  0  0  0  0  0  0  0  0
    1.6230   21.7720  -35.5670 C   0  0  0  0  0  0  0  0  0  0  0  0
    2.5430   22.1650  -36.5310 O   0  0  0  0  0  0  0  0  0  0  0  0
    1.9870   20.8410  -34.5900 C   0  0  0  0  0  0  0  0  0  0  0  0
    1.0630   20.4440  -33.6180 C   0  0  0  0  0  0  0  0  0  0  0  0
   -3.8060   22.2660  -31.9480 C   0  0  0  0  0  0  0  0  0  0  0  0
   -4.0008   22.7916  -28.7510 H   0  0  0  0  0  0  0  0  0  0  0  0
   -3.0051   22.3093  -26.5152 H   0  0  0  0  0  0  0  0  0  0  0  0
   -1.1876   23.7612  -25.6137 H   0  0  0  0  0  0  0  0  0  0  0  0
   -0.3459   25.6896  -26.9570 H   0  0  0  0  0  0  0  0  0  0  0  0
   -6.7951   22.9431  -30.4209 H   0  0  0  0  0  0  0  0  0  0  0  0
   -7.1786   20.5523  -31.0141 H   0  0  0  0  0  0  0  0  0  0  0  0
   -5.4087   19.2539  -32.1962 H   0  0  0  0  0  0  0  0  0  0  0  0
   -0.6429   22.9298  -31.4353 H   0  0  0  0  0  0  0  0  0  0  0  0
   -0.1697   23.2862  -29.0109 H   0  0  0  0  0  0  0  0  0  0  0  0
   -0.1878   21.3503  -27.4345 H   0  0  0  0  0  0  0  0  0  0  0  0
   -0.6974   19.0551  -28.2792 H   0  0  0  0  0  0  0  0  0  0  0  0
   -1.1839   18.6943  -30.6987 H   0  0  0  0  0  0  0  0  0  0  0  0
   -1.6106   22.3345  -34.6148 H   0  0  0  0  0  0  0  0  0  0  0  0
    0.0442   23.0378  -36.3422 H   0  0  0  0  0  0  0  0  0  0  0  0
    3.0030   20.4194  -34.5856 H   0  0  0  0  0  0  0  0  0  0  0  0
    1.3554   19.7090  -32.8536 H   0  0  0  0  0  0  0  0  0  0  0  0
   -2.8545   22.7475  -32.2180 H   0  0  0  0  0  0  0  0  0  0  0  0
  1  2  2  0
  2  3  1  0
  3  4  1  0
  4  5  2  0
  5  6  1  0
  6  7  2  0
  7  8  1  0
  8  9  2  0
  9 10  1  0
  2 11  1  0
 11 12  2  0
 12 13  1  0
 13 14  2  0
 14 15  1  0
 15 16  1  0
 16 17  2  0
 16 18  2  0
 16 19  1  0
 19 20  1  0
 20 21  2  0
 21 22  1  0
 22 23  2  0
 23 24  1  0
 24 25  2  0
 19 26  1  0
 26 27  2  0
 27 28  1  0
 28 29  2  0
 29 30  1  0
 29 31  1  0
 31 32  2  0
 15 33  2  0
  9  4  1  0
 33 11  1  0
 25 20  1  0
 32 26  1  0
  5 34  1  0
  6 35  1  0
  7 36  1  0
  8 37  1  0
 12 38  1  0
 13 39  1  0
 14 40  1  0
 21 41  1  0
 22 42  1  0
 23 43  1  0
 24 44  1  0
 25 45  1  0
 27 46  1  0
 28 47  1  0
 31 48  1  0
 32 49  1  0
 33 50  1  0
M  CHG  3   3  -1  10  -1  30  -1
M  END
>  <UniqueID>  (6) 
6

>  <SMILES>  (6) 
O=C([N-]c1ccccc1[O-])c1cccc(S(=O)(=O)N(c2ccccc2)c2ccc([O-])cc2)c1

>  <Energy>  (6) 
70.51585472159748

>  <Genealogy>  (6) 
O=C([N-]c1ccccc1[O-])c1cccc(S(=O)(=O)N(c2ccccc2)c2ccc([O-])cc2)c1 (protonated)
O=C([N-]c1ccccc1[O-])c1cccc(S(=O)(=O)N(c2ccccc2)c2ccc([O-])cc2)c1 (3D coordinates assigned)
O=C([N-]c1ccccc1[O-])c1cccc(S(=O)(=O)N(c2ccccc2)c2ccc([O-])cc2)c1 (optimized conformer: 70.51585472159748 kcal/mol)

>  <smiles>  (6) 
O=C(Nc1ccccc1O)c1cccc(S(=O)(=O)N(c2ccccc2)c2ccc(O)cc2)c1

>  <score_type>  (6) 
oracle

>  <origin>  (6) 
adgpu

>  <m_score__min__energy>  (6) 
-14.199999999999999

>  <m_primary>  (6) 
energy

$$$$
6:0
     RDKit          3D

 46 48  0  0  0  0  0  0  0  0999 V2000
   -0.5960   21.2660  -32.1760 N   0  0  0  0  0  0  0  0  0  0  0  0
   -1.6280   20.4010  -32.6650 C   0  0  0  0  0  0  0  0  0  0  0  0
   -1.4270   19.6940  -33.8590 C   0  0  0  0  0  0  0  0  0  0  0  0
   -2.4200   18.8490  -34.3580 C   0  0  0  0  0  0  0  0  0  0  0  0
   -3.6240   18.6880  -33.6630 C   0  0  0  0  0  0  0  0  0  0  0  0
   -4.8830   17.6260  -34.2980 S   0  0  0  0  0  0  0  0  0  0  0  0
   -4.7170   17.4920  -35.7860 O   0  0  0  0  0  0  0  0  0  0  0  0
   -4.7320   16.2590  -33.6900 O   0  0  0  0  0  0  0  0  0  0  0  0
   -6.4800   18.2460  -33.9460 N   0  0  0  0  0  0  0  0  0  0  0  0
   -7.1130   17.5190  -32.8160 C   0  0  0  0  0  0  0  0  0  0  0  0
   -7.0970   18.3180  -31.5050 C   0  0  0  0  0  0  0  0  0  0  0  0
   -7.8180   19.6670  -31.6680 C   0  0  0  0  0  0  0  0  0  0  0  0
   -7.6930   20.2410  -33.0900 C   0  0  0  0  0  0  0  0  0  0  0  0
   -6.4350   19.7160  -33.7880 C   0  0  0  0  0  0  0  0  0  0  0  0
   -3.8270   19.3820  -32.4630 C   0  0  0  0  0  0  0  0  0  0  0  0
   -2.8480   20.2650  -31.9720 C   0  0  0  0  0  0  0  0  0  0  0  0
   -3.0520   20.9890  -30.7480 N   0  0  0  0  0  0  0  0  0  0  0  0
   -3.1630   22.4130  -30.6120 C   0  0  0  0  0  0  0  0  0  0  0  0
   -2.1300   23.1010  -30.3890 O   0  0  0  0  0  0  0  0  0  0  0  0
   -4.5010   23.0610  -30.6750 C   0  0  0  0  0  0  0  0  0  0  0  0
   -5.6540   22.2640  -30.8210 C   0  0  0  0  0  0  0  0  0  0  0  0
   -6.9210   22.8460  -30.8830 C   0  0  0  0  0  0  0  0  0  0  0  0
   -7.0610   24.2310  -30.8000 C   0  0  0  0  0  0  0  0  0  0  0  0
   -5.9330   25.0380  -30.6580 C   0  0  0  0  0  0  0  0  0  0  0  0
   -4.6530   24.4670  -30.5970 C   0  0  0  0  0  0  0  0  0  0  0  0
   -3.5410   25.3000  -30.4630 O   0  0  0  0  0  0  0  0  0  0  0  0
   -0.7110   21.8130  -31.2950 H   0  0  0  0  0  0  0  0  0  0  0  0
    0.3040   21.3660  -32.6970 H   0  0  0  0  0  0  0  0  0  0  0  0
   -0.4797   19.8060  -34.4068 H   0  0  0  0  0  0  0  0  0  0  0  0
   -2.2554   18.3076  -35.3013 H   0  0  0  0  0  0  0  0  0  0  0  0
   -8.1581   17.3009  -33.0809 H   0  0  0  0  0  0  0  0  0  0  0  0
   -6.5317   16.6003  -32.6487 H   0  0  0  0  0  0  0  0  0  0  0  0
   -7.6021   17.7333  -30.7221 H   0  0  0  0  0  0  0  0  0  0  0  0
   -6.0504   18.5132  -31.2283 H   0  0  0  0  0  0  0  0  0  0  0  0
   -8.8844   19.5257  -31.4384 H   0  0  0  0  0  0  0  0  0  0  0  0
   -7.3439   20.3816  -30.9792 H   0  0  0  0  0  0  0  0  0  0  0  0
   -8.5773   19.9476  -33.6748 H   0  0  0  0  0  0  0  0  0  0  0  0
   -7.6220   21.3364  -33.0195 H   0  0  0  0  0  0  0  0  0  0  0  0
   -6.3567   20.1807  -34.7819 H   0  0  0  0  0  0  0  0  0  0  0  0
   -5.5628   19.9714  -33.1683 H   0  0  0  0  0  0  0  0  0  0  0  0
   -4.7603   19.2352  -31.8996 H   0  0  0  0  0  0  0  0  0  0  0  0
   -5.5542   21.1705  -30.8869 H   0  0  0  0  0  0  0  0  0  0  0  0
   -7.8115   22.2105  -30.9976 H   0  0  0  0  0  0  0  0  0  0  0  0
   -8.0611   24.6866  -30.8465 H   0  0  0  0  0  0  0  0  0  0  0  0
   -6.0475   26.1301  -30.5933 H   0  0  0  0  0  0  0  0  0  0  0  0
   -2.5990   24.9280  -30.4230 H   0  0  0  0  0  0  0  0  0  0  0  0
  1  2  1  0
  2  3  2  0
  3  4  1  0
  4  5  2  0
  5  6  1  0
  6  7  2  0
  6  8  2  0
  6  9  1  0
  9 10  1  0
 10 11  1  0
 11 12  1  0
 12 13  1  0
 13 14  1  0
  5 15  1  0
 15 16  2  0
 16 17  1  0
 17 18  1  0
 18 19  2  0
 18 20  1  0
 20 21  2  0
 21 22  1  0
 22 23  2  0
 23 24  1  0
 24 25  2  0
 25 26  1  0
 16  2  1  0
 25 20  1  0
 14  9  1  0
  1 27  1  0
  1 28  1  0
  3 29  1  0
  4 30  1  0
 10 31  1  0
 10 32  1  0
 11 33  1  0
 11 34  1  0
 12 35  1  0
 12 36  1  0
 13 37  1  0
 13 38  1  0
 14 39  1  0
 14 40  1  0
 15 41  1  0
 21 42  1  0
 22 43  1  0
 23 44  1  0
 24 45  1  0
 26 46  1  0
M  CHG  1  17  -1
M  END
>  <UniqueID>  (7) 
7

>  <SMILES>  (7) 
Nc1ccc(S(=O)(=O)N2CCCCC2)cc1[N-]C(=O)c1ccccc1O

>  <Energy>  (7) 
56.91456609875378

>  <Genealogy>  (7) 
Nc1ccc(S(=O)(=O)N2CCCCC2)cc1[N-]C(=O)c1ccccc1O (protonated)
Nc1ccc(S(=O)(=O)N2CCCCC2)cc1[N-]C(=O)c1ccccc1O (3D coordinates assigned)
Nc1ccc(S(=O)(=O)N2CCCCC2)cc1[N-]C(=O)c1ccccc1O (nonaromatic ring conformer: 56.91456609875378 kcal/mol)

>  <smiles>  (7) 
Nc1ccc(S(=O)(=O)N2CCCCC2)cc1NC(=O)c1ccccc1O

>  <score_type>  (7) 
oracle

>  <origin>  (7) 
adgpu

>  <m_score__min__energy>  (7) 
-11.199999999999999

>  <m_primary>  (7) 
energy

$$$$
7:0
     RDKit          3D

 55 57  0  0  1  0  0  0  0  0999 V2000
   -5.9810   17.6600  -34.5730 C   0  0  0  0  0  0  0  0  0  0  0  0
   -6.4770   18.1220  -33.4590 C   0  0  0  0  0  0  0  0  0  0  0  0
   -6.4060   19.5210  -33.0710 C   0  0  0  0  0  0  0  0  0  0  0  0
   -5.9500   20.4250  -33.8500 O   0  0  0  0  0  0  0  0  0  0  0  0
   -6.8390   19.9790  -31.7960 N   0  0  0  0  0  0  0  0  0  0  0  0
   -6.7070   21.3880  -31.5560 C   0  0  0  0  0  0  0  0  0  0  0  0
   -5.4470   21.9040  -31.3310 C   0  0  0  0  0  0  0  0  0  0  0  0
   -5.3230   23.2550  -31.1010 C   0  0  0  0  0  0  0  0  0  0  0  0
   -4.0750   23.8950  -30.8560 N   0  0  0  0  0  0  0  0  0  0  0  0
   -3.7520   24.1940  -29.6440 C   0  0  0  0  0  0  0  0  0  0  0  0
   -4.5440   23.9270  -28.5900 N   0  0  0  0  0  0  0  0  0  0  0  0
   -4.2180   24.2340  -27.3210 C   0  0  0  0  0  0  0  0  0  0  0  0
   -3.0000   24.8540  -27.1190 C   0  0  0  0  0  0  0  0  0  0  0  0
   -2.1540   25.1470  -28.1760 C   0  0  0  0  0  0  0  0  0  0  0  0
   -1.0030   25.7330  -27.9840 N   0  0  0  0  0  0  0  0  0  0  0  0
   -0.7020   26.0410  -26.6060 C   0  0  0  0  0  0  0  0  0  0  0  0
   -0.8670   27.3350  -26.1650 C   0  0  0  0  0  0  0  0  0  0  0  0
   -0.6050   27.7280  -24.8630 C   0  0  0  0  0  0  0  0  0  0  0  0
   -0.1650   26.7600  -24.0010 C   0  0  0  0  0  0  0  0  0  0  0  0
   -0.0000   25.4600  -24.4480 C   0  0  0  0  0  0  0  0  0  0  0  0
   -0.2570   25.0640  -25.7360 C   0  0  0  0  0  0  0  0  0  0  0  0
   -0.1080   23.7590  -26.2440 N   0  0  0  0  0  0  0  0  0  0  0  0
    0.5610   23.3970  -27.4340 C   0  0  0  0  0  0  0  0  0  0  0  0
    1.1160   24.2100  -28.2020 O   0  0  0  0  0  0  0  0  0  0  0  0
    0.6360   21.9490  -27.8490 C   0  0  0  0  0  0  0  0  0  0  0  0
   -0.7330   21.3110  -27.7480 C   0  0  0  0  0  0  0  0  0  0  0  0
   -2.5720   24.7990  -29.4130 N   0  0  0  0  0  0  0  0  0  0  0  0
   -6.4470   24.0880  -31.0970 C   0  0  0  0  0  0  0  0  0  0  0  0
   -7.6970   23.5520  -31.3240 C   0  0  0  0  0  0  0  0  0  0  0  0
   -7.8390   22.2040  -31.5560 C   0  0  0  0  0  0  0  0  0  0  0  0
   -9.1840   21.6270  -31.8010 C   0  0  0  0  0  0  0  0  0  0  0  0
   -6.0664   16.5894  -34.8109 H   0  0  0  0  0  0  0  0  0  0  0  0
   -5.4772   18.3409  -35.2748 H   0  0  0  0  0  0  0  0  0  0  0  0
   -6.9749   17.4165  -32.7776 H   0  0  0  0  0  0  0  0  0  0  0  0
   -7.2270   19.3200  -31.0880 H   0  0  0  0  0  0  0  0  0  0  0  0
   -4.5622   21.2504  -31.3354 H   0  0  0  0  0  0  0  0  0  0  0  0
   -5.4660   23.4600  -28.7300 H   0  0  0  0  0  0  0  0  0  0  0  0
   -4.8909   24.0018  -26.4824 H   0  0  0  0  0  0  0  0  0  0  0  0
   -2.6953   25.1208  -26.0963 H   0  0  0  0  0  0  0  0  0  0  0  0
   -1.2233   28.0914  -26.8797 H   0  0  0  0  0  0  0  0  0  0  0  0
   -0.7440   28.7693  -24.5369 H   0  0  0  0  0  0  0  0  0  0  0  0
    0.0573   27.0147  -22.9542 H   0  0  0  0  0  0  0  0  0  0  0  0
    0.3561   24.7045  -23.7322 H   0  0  0  0  0  0  0  0  0  0  0  0
   -0.5290   22.9480  -25.7000 H   0  0  0  0  0  0  0  0  0  0  0  0
    0.9919   21.8856  -28.8879 H   0  0  0  0  0  0  0  0  0  0  0  0
    1.3324   21.4178  -27.1835 H   0  0  0  0  0  0  0  0  0  0  0  0
   -1.0019   21.1857  -26.6888 H   0  0  0  0  0  0  0  0  0  0  0  0
   -1.4754   21.9559  -28.2409 H   0  0  0  0  0  0  0  0  0  0  0  0
   -0.7166   20.3278  -28.2409 H   0  0  0  0  0  0  0  0  0  0  0  0
   -1.9650   25.0030  -30.2300 H   0  0  0  0  0  0  0  0  0  0  0  0
   -6.3340   25.1667  -30.9134 H   0  0  0  0  0  0  0  0  0  0  0  0
   -8.5827   24.2043  -31.3195 H   0  0  0  0  0  0  0  0  0  0  0  0
   -9.6737   21.4169  -30.8387 H   0  0  0  0  0  0  0  0  0  0  0  0
   -9.7918   22.3436  -32.3730 H   0  0  0  0  0  0  0  0  0  0  0  0
   -9.0836   20.6928  -32.3730 H   0  0  0  0  0  0  0  0  0  0  0  0
  1  2  2  0
  2  3  1  0
  3  4  2  0
  3  5  1  0
  5  6  1  0
  6  7  2  0
  7  8  1  0
  8  9  1  0
  9 10  2  0
 10 11  1  0
 11 12  1  0
 12 13  2  0
 13 14  1  0
 14 15  2  0
 15 16  1  0
 16 17  2  0
 17 18  1  0
 18 19  2  0
 19 20  1  0
 20 21  2  0
 21 22  1  0
 22 23  1  0
 23 24  2  0
 23 25  1  0
 25 26  1  0
 14 27  1  0
  8 28  2  0
 28 29  1  0
 29 30  2  0
 30 31  1  0
 30  6  1  0
 27 10  1  0
 21 16  1  0
  1 32  1  0
  1 33  1  0
  2 34  1  0
  5 35  1  0
  7 36  1  0
 11 37  1  0
 12 38  1  0
 13 39  1  0
 17 40  1  0
 18 41  1  0
 19 42  1  0
 20 43  1  0
 22 44  1  0
 25 45  1  0
 25 46  1  0
 26 47  1  0
 26 48  1  0
 26 49  1  0
 27 50  1  0
 28 51  1  0
 29 52  1  0
 31 53  1  0
 31 54  1  0
 31 55  1  0
M  END
>  <smiles>  (8) 
C=CC(=O)Nc1cc(N=c2[nH]ccc(=Nc3ccccc3NC(=O)CC)[nH]2)ccc1C

>  <score_type>  (8) 
oracle

>  <origin>  (8) 
adgpu

>  <m_score__min__energy>  (8) 
-10.15

>  <m_primary>  (8) 
energy

$$$$
8:0
     RDKit          3D

 65 69  0  0  0  0  0  0  0  0999 V2000
    1.8790   23.2520  -27.1850 O   0  0  0  0  0  0  0  0  0  0  0  0
    0.7680   23.2970  -27.7750 C   0  0  0  0  0  0  0  0  0  0  0  0
    0.2510   24.5720  -28.1780 N   0  0  0  0  0  0  0  0  0  0  0  0
   -0.2700   25.5910  -27.3100 C   0  0  0  0  0  0  0  0  0  0  0  0
    0.4500   26.7680  -27.0360 C   0  0  0  0  0  0  0  0  0  0  0  0
   -0.0630   27.7030  -26.1940 N   0  0  0  0  0  0  0  0  0  0  0  0
   -1.2660   27.5340  -25.5870 C   0  0  0  0  0  0  0  0  0  0  0  0
   -2.0060   26.3710  -25.8100 C   0  0  0  0  0  0  0  0  0  0  0  0
   -1.5100   25.3910  -26.6860 C   0  0  0  0  0  0  0  0  0  0  0  0
   -2.2060   24.1960  -26.9230 O   0  0  0  0  0  0  0  0  0  0  0  0
   -3.0590   23.9580  -28.0110 C   0  0  0  0  0  0  0  0  0  0  0  0
   -4.2350   23.1970  -27.8800 C   0  0  0  0  0  0  0  0  0  0  0  0
   -5.0650   22.9910  -28.9870 C   0  0  0  0  0  0  0  0  0  0  0  0
   -4.7350   23.5520  -30.2240 C   0  0  0  0  0  0  0  0  0  0  0  0
   -3.5790   24.3270  -30.3540 C   0  0  0  0  0  0  0  0  0  0  0  0
   -2.7470   24.5340  -29.2490 C   0  0  0  0  0  0  0  0  0  0  0  0
    0.0300   22.0370  -28.0160 C   0  0  0  0  0  0  0  0  0  0  0  0
    0.1340   21.4240  -29.2740 C   0  0  0  0  0  0  0  0  0  0  0  0
   -0.5710   20.2510  -29.5620 C   0  0  0  0  0  0  0  0  0  0  0  0
   -0.4500   19.6820  -30.8720 N   0  0  0  0  0  0  0  0  0  0  0  0
   -0.9920   20.4210  -32.3420 S   0  0  0  0  0  0  0  0  0  0  0  0
   -0.2890   19.8080  -33.5200 O   0  0  0  0  0  0  0  0  0  0  0  0
   -0.7070   21.8970  -32.3040 O   0  0  0  0  0  0  0  0  0  0  0  0
   -2.7240   20.1460  -32.5010 C   0  0  0  0  0  0  0  0  0  0  0  0
   -3.6320   20.8370  -31.6940 C   0  0  0  0  0  0  0  0  0  0  0  0
   -4.9990   20.5810  -31.7980 C   0  0  0  0  0  0  0  0  0  0  0  0
   -5.4800   19.6320  -32.7120 C   0  0  0  0  0  0  0  0  0  0  0  0
   -6.8910   19.3640  -32.7420 N   0  0  0  0  0  0  0  0  0  0  0  0
   -7.4120   18.0480  -32.3730 C   0  0  0  0  0  0  0  0  0  0  0  0
   -8.5770   18.2270  -31.3940 C   0  0  0  0  0  0  0  0  0  0  0  0
   -9.5420   19.1230  -31.9180 O   0  0  0  0  0  0  0  0  0  0  0  0
   -8.9790   20.4180  -32.0460 C   0  0  0  0  0  0  0  0  0  0  0  0
   -7.8470   20.4200  -33.0760 C   0  0  0  0  0  0  0  0  0  0  0  0
   -4.5740   18.9520  -33.5620 C   0  0  0  0  0  0  0  0  0  0  0  0
   -5.0490   17.9280  -34.5720 C   0  0  0  0  0  0  0  0  0  0  0  0
   -5.4980   16.7870  -33.9320 F   0  0  0  0  0  0  0  0  0  0  0  0
   -6.0940   18.4230  -35.3340 F   0  0  0  0  0  0  0  0  0  0  0  0
   -4.0070   17.5970  -35.4170 F   0  0  0  0  0  0  0  0  0  0  0  0
   -3.1940   19.2030  -33.4220 C   0  0  0  0  0  0  0  0  0  0  0  0
   -1.3770   19.6710  -28.5680 C   0  0  0  0  0  0  0  0  0  0  0  0
   -1.4670   20.2600  -27.3060 C   0  0  0  0  0  0  0  0  0  0  0  0
   -0.7680   21.4370  -27.0180 C   0  0  0  0  0  0  0  0  0  0  0  0
   -0.8590   22.0780  -25.3800 Cl  0  0  0  0  0  0  0  0  0  0  0  0
    1.4315   26.9320  -27.5049 H   0  0  0  0  0  0  0  0  0  0  0  0
   -1.6582   28.3146  -24.9185 H   0  0  0  0  0  0  0  0  0  0  0  0
   -2.9710   26.2231  -25.3031 H   0  0  0  0  0  0  0  0  0  0  0  0
   -4.5023   22.7631  -26.9052 H   0  0  0  0  0  0  0  0  0  0  0  0
   -5.9784   22.3868  -28.8839 H   0  0  0  0  0  0  0  0  0  0  0  0
   -5.3851   23.3836  -31.0952 H   0  0  0  0  0  0  0  0  0  0  0  0
   -3.3235   24.7743  -31.3259 H   0  0  0  0  0  0  0  0  0  0  0  0
   -1.8431   25.1522  -29.3527 H   0  0  0  0  0  0  0  0  0  0  0  0
    0.7789   21.8722  -30.0442 H   0  0  0  0  0  0  0  0  0  0  0  0
   -3.2674   21.5850  -30.9746 H   0  0  0  0  0  0  0  0  0  0  0  0
   -5.7063   21.1282  -31.1575 H   0  0  0  0  0  0  0  0  0  0  0  0
   -7.7651   17.5256  -33.2743 H   0  0  0  0  0  0  0  0  0  0  0  0
   -6.6169   17.4541  -31.8985 H   0  0  0  0  0  0  0  0  0  0  0  0
   -9.0511   17.2506  -31.2153 H   0  0  0  0  0  0  0  0  0  0  0  0
   -8.1860   18.6410  -30.4529 H   0  0  0  0  0  0  0  0  0  0  0  0
   -9.7612   21.1209  -32.3687 H   0  0  0  0  0  0  0  0  0  0  0  0
   -8.5691   20.7218  -31.0715 H   0  0  0  0  0  0  0  0  0  0  0  0
   -8.2614   20.2376  -34.0785 H   0  0  0  0  0  0  0  0  0  0  0  0
   -7.3389   21.3956  -33.0649 H   0  0  0  0  0  0  0  0  0  0  0  0
   -2.4763   18.6498  -34.0456 H   0  0  0  0  0  0  0  0  0  0  0  0
   -1.9385   18.7503  -28.7850 H   0  0  0  0  0  0  0  0  0  0  0  0
   -2.0933   19.7945  -26.5307 H   0  0  0  0  0  0  0  0  0  0  0  0
  1  2  2  0
  2  3  1  0
  3  4  1  0
  4  5  2  0
  5  6  1  0
  6  7  2  0
  7  8  1  0
  8  9  2  0
  9 10  1  0
 10 11  1  0
 11 12  2  0
 12 13  1  0
 13 14  2  0
 14 15  1  0
 15 16  2  0
  2 17  1  0
 17 18  2  0
 18 19  1  0
 19 20  1  0
 20 21  1  0
 21 22  2  0
 21 23  2  0
 21 24  1  0
 24 25  2  0
 25 26  1  0
 26 27  2  0
 27 28  1  0
 28 29  1  0
 29 30  1  0
 30 31  1  0
 31 32  1  0
 32 33  1  0
 27 34  1  0
 34 35  1  0
 35 36  1  0
 35 37  1  0
 35 38  1  0
 34 39  2  0
 19 40  2  0
 40 41  1  0
 41 42  2  0
 42 43  1  0
  9  4  1  0
 16 11  1  0
 42 17  1  0
 39 24  1  0
 33 28  1  0
  5 44  1  0
  7 45  1  0
  8 46  1  0
 12 47  1  0
 13 48  1  0
 14 49  1  0
 15 50  1  0
 16 51  1  0
 18 52  1  0
 25 53  1  0
 26 54  1  0
 29 55  1  0
 29 56  1  0
 30 57  1  0
 30 58  1  0
 32 59  1  0
 32 60  1  0
 33 61  1  0
 33 62  1  0
 39 63  1  0
 40 64  1  0
 41 65  1  0
M  CHG  2   3  -1  20  -1
M  END
>  <UniqueID>  (9) 
8

>  <SMILES>  (9) 
O=C([N-]c1cnccc1Oc1ccccc1)c1cc([N-]S(=O)(=O)c2ccc(N3CCOCC3)c(C(F)(F)F)c2)ccc1Cl

>  <Energy>  (9) 
100.79886782845391

>  <Genealogy>  (9) 
O=C([N-]c1cnccc1Oc1ccccc1)c1cc([N-]S(=O)(=O)c2ccc(N3CCOCC3)c(C(F)(F)F)c2)ccc1Cl (protonated)
O=C([N-]c1cnccc1Oc1ccccc1)c1cc([N-]S(=O)(=O)c2ccc(N3CCOCC3)c(C(F)(F)F)c2)ccc1Cl (3D coordinates assigned)
O=C([N-]c1cnccc1Oc1ccccc1)c1cc([N-]S(=O)(=O)c2ccc(N3CCOCC3)c(C(F)(F)F)c2)ccc1Cl (nonaromatic ring conformer: 100.79886782845391 kcal/mol)

>  <smiles>  (9) 
O=C(Nc1cnccc1Oc1ccccc1)c1cc(NS(=O)(=O)c2ccc(N3CCOCC3)c(C(F)(F)F)c2)ccc1Cl

>  <score_type>  (9) 
oracle

>  <origin>  (9) 
adgpu

>  <m_score__min__energy>  (9) 
-11.869999999999999

>  <m_primary>  (9) 
energy

$$$$
9:0
     RDKit          3D

 60 63  0  0  0  0  0  0  0  0999 V2000
   -7.6050   23.8070  -33.0530 C   0  0  0  0  0  0  0  0  0  0  0  0
   -7.2220   23.0470  -31.8620 N   0  0  0  0  0  0  0  0  0  0  0  0
   -6.0190   23.3810  -31.1380 C   0  0  0  0  0  0  0  0  0  0  0  0
   -5.1440   22.3730  -30.7030 C   0  0  0  0  0  0  0  0  0  0  0  0
   -3.9890   22.6910  -29.9820 C   0  0  0  0  0  0  0  0  0  0  0  0
   -3.6690   24.0310  -29.6970 C   0  0  0  0  0  0  0  0  0  0  0  0
   -2.4600   24.3940  -28.9150 C   0  0  0  0  0  0  0  0  0  0  0  0
   -1.7280   25.3340  -29.3300 O   0  0  0  0  0  0  0  0  0  0  0  0
   -2.1210   23.7100  -27.6930 N   0  0  0  0  0  0  0  0  0  0  0  0
   -0.9770   24.0420  -26.8880 C   0  0  0  0  0  0  0  0  0  0  0  0
    0.3270   23.7120  -27.2940 C   0  0  0  0  0  0  0  0  0  0  0  0
    1.4200   24.0150  -26.4750 C   0  0  0  0  0  0  0  0  0  0  0  0
    1.2220   24.6440  -25.2370 C   0  0  0  0  0  0  0  0  0  0  0  0
    2.6020   25.0200  -24.2080 S   0  0  0  0  0  0  0  0  0  0  0  0
    2.9180   23.8360  -23.3390 O   0  0  0  0  0  0  0  0  0  0  0  0
    3.8070   25.3140  -25.0570 O   0  0  0  0  0  0  0  0  0  0  0  0
    2.2510   26.4400  -23.2650 N   0  0  0  0  0  0  0  0  0  0  0  0
    1.9480   27.6120  -23.7510 C   0  0  0  0  0  0  0  0  0  0  0  0
    1.7960   27.9530  -25.1890 C   0  0  0  0  0  0  0  0  0  0  0  0
    1.5540   29.4700  -25.1750 C   0  0  0  0  0  0  0  0  0  0  0  0
    1.3410   29.8820  -23.7090 C   0  0  0  0  0  0  0  0  0  0  0  0
    1.6920   28.7220  -22.9150 N   0  0  0  0  0  0  0  0  0  0  0  0
   -0.0790   24.9620  -24.8260 C   0  0  0  0  0  0  0  0  0  0  0  0
   -1.1720   24.6530  -25.6410 C   0  0  0  0  0  0  0  0  0  0  0  0
   -4.5430   25.0400  -30.1380 C   0  0  0  0  0  0  0  0  0  0  0  0
   -5.7000   24.7200  -30.8530 C   0  0  0  0  0  0  0  0  0  0  0  0
   -8.2490   21.7410  -31.3330 S   0  0  0  0  0  0  0  0  0  0  0  0
   -8.2250   21.6570  -29.8310 O   0  0  0  0  0  0  0  0  0  0  0  0
   -9.6660   22.0100  -31.7560 O   0  0  0  0  0  0  0  0  0  0  0  0
   -7.7090   20.2180  -32.0360 C   0  0  0  0  0  0  0  0  0  0  0  0
   -6.7710   20.2270  -33.0800 C   0  0  0  0  0  0  0  0  0  0  0  0
   -6.3360   19.0240  -33.6460 C   0  0  0  0  0  0  0  0  0  0  0  0
   -6.8360   17.8080  -33.1720 C   0  0  0  0  0  0  0  0  0  0  0  0
   -7.7740   17.7930  -32.1320 C   0  0  0  0  0  0  0  0  0  0  0  0
   -8.2110   18.9940  -31.5660 C   0  0  0  0  0  0  0  0  0  0  0  0
   -8.0807   24.7509  -32.7484 H   0  0  0  0  0  0  0  0  0  0  0  0
   -6.7090   24.0248  -33.6528 H   0  0  0  0  0  0  0  0  0  0  0  0
   -8.3131   23.2164  -33.6528 H   0  0  0  0  0  0  0  0  0  0  0  0
   -5.3696   21.3210  -30.9320 H   0  0  0  0  0  0  0  0  0  0  0  0
   -3.3245   21.8862  -29.6345 H   0  0  0  0  0  0  0  0  0  0  0  0
   -2.7650   22.9850  -27.3130 H   0  0  0  0  0  0  0  0  0  0  0  0
    0.4893   23.2129  -28.2607 H   0  0  0  0  0  0  0  0  0  0  0  0
    2.4383   23.7591  -26.8031 H   0  0  0  0  0  0  0  0  0  0  0  0
    2.3130   26.3300  -22.2280 H   0  0  0  0  0  0  0  0  0  0  0  0
    2.7092   27.7058  -25.7502 H   0  0  0  0  0  0  0  0  0  0  0  0
    0.9843   27.3945  -25.6780 H   0  0  0  0  0  0  0  0  0  0  0  0
    2.4265   29.9949  -25.5912 H   0  0  0  0  0  0  0  0  0  0  0  0
    0.6774   29.7316  -25.7858 H   0  0  0  0  0  0  0  0  0  0  0  0
    1.9903   30.7320  -23.4523 H   0  0  0  0  0  0  0  0  0  0  0  0
    0.3035   30.1981  -23.5252 H   0  0  0  0  0  0  0  0  0  0  0  0
    1.6820   28.6970  -21.8710 H   0  0  0  0  0  0  0  0  0  0  0  0
   -0.2413   25.4572  -23.8573 H   0  0  0  0  0  0  0  0  0  0  0  0
   -2.1911   24.8906  -25.3020 H   0  0  0  0  0  0  0  0  0  0  0  0
   -4.3135   26.0930  -29.9177 H   0  0  0  0  0  0  0  0  0  0  0  0
   -6.3678   25.5238  -31.1963 H   0  0  0  0  0  0  0  0  0  0  0  0
   -6.3766   21.1832  -33.4544 H   0  0  0  0  0  0  0  0  0  0  0  0
   -5.6006   19.0351  -34.4639 H   0  0  0  0  0  0  0  0  0  0  0  0
   -6.4926   16.8620  -33.6161 H   0  0  0  0  0  0  0  0  0  0  0  0
   -8.1671   16.8352  -31.7603 H   0  0  0  0  0  0  0  0  0  0  0  0
   -8.9495   18.9801  -30.7509 H   0  0  0  0  0  0  0  0  0  0  0  0
  1  2  1  0
  2  3  1  0
  3  4  2  0
  4  5  1  0
  5  6  2  0
  6  7  1  0
  7  8  2  0
  7  9  1  0
  9 10  1  0
 10 11  2  0
 11 12  1  0
 12 13  2  0
 13 14  1  0
 14 15  2  0
 14 16  2  0
 14 17  1  0
 17 18  2  3
 18 19  1  0
 19 20  1  0
 20 21  1  0
 21 22  1  0
 13 23  1  0
 23 24  2  0
  6 25  1  0
 25 26  2  0
  2 27  1  0
 27 28  2  0
 27 29  2  0
 27 30  1  0
 30 31  2  0
 31 32  1  0
 32 33  2  0
 33 34  1  0
 34 35  2  0
 26  3  1  0
 35 30  1  0
 24 10  1  0
 22 18  1  0
  1 36  1  0
  1 37  1  0
  1 38  1  0
  4 39  1  0
  5 40  1  0
  9 41  1  0
 11 42  1  0
 12 43  1  0
 17 44  1  0
 19 45  1  0
 19 46  1  0
 20 47  1  0
 20 48  1  0
 21 49  1  0
 21 50  1  0
 22 51  1  0
 23 52  1  0
 24 53  1  0
 25 54  1  0
 26 55  1  0
 31 56  1  0
 32 57  1  0
 33 58  1  0
 34 59  1  0
 35 60  1  0
M  CHG  1  17   1
M  END
>  <UniqueID>  (10) 
9

>  <SMILES>  (10) 
CN(c1ccc(C(=O)Nc2ccc(S(=O)(=O)[NH+]=C3CCCN3)cc2)cc1)S(=O)(=O)c1ccccc1

>  <Energy>  (10) 
84.7895870988463

>  <Genealogy>  (10) 
CN(c1ccc(C(=O)Nc2ccc(S(=O)(=O)[NH+]=C3CCCN3)cc2)cc1)S(=O)(=O)c1ccccc1 (protonated)
CN(c1ccc(C(=O)Nc2ccc(S(=O)(=O)[NH+]=C3CCCN3)cc2)cc1)S(=O)(=O)c1ccccc1 (3D coordinates assigned)
CN(c1ccc(C(=O)Nc2ccc(S(=O)(=O)[NH+]=C3CCCN3)cc2)cc1)S(=O)(=O)c1ccccc1 (nonaromatic ring conformer: 84.7895870988463 kcal/mol)

>  <smiles>  (10) 
CN(c1ccc(C(=O)Nc2ccc(S(=O)(=O)N=C3CCCN3)cc2)cc1)S(=O)(=O)c1ccccc1

>  <score_type>  (10) 
oracle

>  <origin>  (10) 
adgpu

>  <m_score__min__energy>  (10) 
-10.539999999999999

>  <m_primary>  (10) 
energy

$$$$
10:0
     RDKit          3D

 62 65  0  0  0  0  0  0  0  0999 V2000
   -1.1760   26.3000  -28.1380 C   0  0  0  0  0  0  0  0  0  0  0  0
   -1.9930   25.4800  -28.9650 O   0  0  0  0  0  0  0  0  0  0  0  0
   -2.1040   24.0860  -28.8430 C   0  0  0  0  0  0  0  0  0  0  0  0
   -0.9790   23.2370  -28.8960 C   0  0  0  0  0  0  0  0  0  0  0  0
   -1.1320   21.8540  -28.7710 C   0  0  0  0  0  0  0  0  0  0  0  0
   -2.4030   21.3010  -28.6130 C   0  0  0  0  0  0  0  0  0  0  0  0
   -3.5250   22.1320  -28.5690 C   0  0  0  0  0  0  0  0  0  0  0  0
   -3.3810   23.5240  -28.6540 C   0  0  0  0  0  0  0  0  0  0  0  0
   -4.5340   24.3710  -28.5770 N   0  0  0  0  0  0  0  0  0  0  0  0
   -5.3090   24.9570  -30.0150 S   0  0  0  0  0  0  0  0  0  0  0  0
   -4.2640   25.5100  -30.9430 O   0  0  0  0  0  0  0  0  0  0  0  0
   -6.2610   26.0610  -29.6540 O   0  0  0  0  0  0  0  0  0  0  0  0
   -6.1880   23.6660  -30.8310 C   0  0  0  0  0  0  0  0  0  0  0  0
   -7.5890   23.6530  -30.8540 C   0  0  0  0  0  0  0  0  0  0  0  0
   -8.2670   22.6660  -31.5740 C   0  0  0  0  0  0  0  0  0  0  0  0
   -7.5550   21.7080  -32.3000 C   0  0  0  0  0  0  0  0  0  0  0  0
   -6.1480   21.7140  -32.2930 C   0  0  0  0  0  0  0  0  0  0  0  0
   -5.3810   20.7910  -33.1590 C   0  0  0  0  0  0  0  0  0  0  0  0
   -4.1920   21.0620  -33.4850 O   0  0  0  0  0  0  0  0  0  0  0  0
   -5.9820   19.5750  -33.6130 N   0  0  0  0  0  0  0  0  0  0  0  0
   -5.3350   18.3000  -33.6860 C   0  0  0  0  0  0  0  0  0  0  0  0
   -6.0350   17.1340  -34.0430 C   0  0  0  0  0  0  0  0  0  0  0  0
   -5.3490   15.9290  -34.2090 C   0  0  0  0  0  0  0  0  0  0  0  0
   -3.9640   15.8800  -34.0390 C   0  0  0  0  0  0  0  0  0  0  0  0
   -3.2550   17.0390  -33.6930 C   0  0  0  0  0  0  0  0  0  0  0  0
   -1.4950   16.9990  -33.5660 S   0  0  0  0  0  0  0  0  0  0  0  0
   -0.9200   16.4200  -34.8280 O   0  0  0  0  0  0  0  0  0  0  0  0
   -1.1010   16.1060  -32.4210 O   0  0  0  0  0  0  0  0  0  0  0  0
   -0.8370   18.6010  -33.3270 N   0  0  0  0  0  0  0  0  0  0  0  0
   -1.3090   19.1660  -32.0430 C   0  0  0  0  0  0  0  0  0  0  0  0
   -1.1040   20.6920  -31.9500 C   0  0  0  0  0  0  0  0  0  0  0  0
   -0.0440   21.1790  -32.9400 C   0  0  0  0  0  0  0  0  0  0  0  0
   -0.4150   20.7950  -34.3840 C   0  0  0  0  0  0  0  0  0  0  0  0
   -1.1950   19.4710  -34.4590 C   0  0  0  0  0  0  0  0  0  0  0  0
   -3.9480   18.2420  -33.5080 C   0  0  0  0  0  0  0  0  0  0  0  0
   -5.4760   22.6780  -31.5210 C   0  0  0  0  0  0  0  0  0  0  0  0
   -1.3910   26.0843  -27.0810 H   0  0  0  0  0  0  0  0  0  0  0  0
   -0.1164   26.0910  -28.3468 H   0  0  0  0  0  0  0  0  0  0  0  0
   -1.3889   27.3588  -28.3468 H   0  0  0  0  0  0  0  0  0  0  0  0
    0.0241   23.6660  -29.0365 H   0  0  0  0  0  0  0  0  0  0  0  0
   -0.2482   21.1996  -28.7972 H   0  0  0  0  0  0  0  0  0  0  0  0
   -2.5216   20.2111  -28.5231 H   0  0  0  0  0  0  0  0  0  0  0  0
   -4.5278   21.6915  -28.4670 H   0  0  0  0  0  0  0  0  0  0  0  0
   -5.1180   24.3310  -27.7130 H   0  0  0  0  0  0  0  0  0  0  0  0
   -8.1551   24.4200  -30.3051 H   0  0  0  0  0  0  0  0  0  0  0  0
   -9.3668   22.6431  -31.5692 H   0  0  0  0  0  0  0  0  0  0  0  0
   -8.0966   20.9459  -32.8795 H   0  0  0  0  0  0  0  0  0  0  0  0
   -7.1243   17.1710  -34.1917 H   0  0  0  0  0  0  0  0  0  0  0  0
   -5.9015   15.0156  -34.4745 H   0  0  0  0  0  0  0  0  0  0  0  0
   -3.4277   14.9295  -34.1769 H   0  0  0  0  0  0  0  0  0  0  0  0
   -2.3820   18.9484  -31.9366 H   0  0  0  0  0  0  0  0  0  0  0  0
   -0.7170   18.7028  -31.2399 H   0  0  0  0  0  0  0  0  0  0  0  0
   -2.0571   21.1944  -32.1716 H   0  0  0  0  0  0  0  0  0  0  0  0
   -0.7609   20.9318  -30.9328 H   0  0  0  0  0  0  0  0  0  0  0  0
    0.0375   22.2737  -32.8692 H   0  0  0  0  0  0  0  0  0  0  0  0
    0.9147   20.7023  -32.6874 H   0  0  0  0  0  0  0  0  0  0  0  0
   -1.0358   21.5951  -34.8135 H   0  0  0  0  0  0  0  0  0  0  0  0
    0.5213   20.6640  -34.9463 H   0  0  0  0  0  0  0  0  0  0  0  0
   -2.2738   19.6833  -34.4262 H   0  0  0  0  0  0  0  0  0  0  0  0
   -0.9396   18.9585  -35.3982 H   0  0  0  0  0  0  0  0  0  0  0  0
   -3.3971   19.1496  -33.2202 H   0  0  0  0  0  0  0  0  0  0  0  0
   -4.3780   22.6555  -31.4586 H   0  0  0  0  0  0  0  0  0  0  0  0
  1  2  1  0
  2  3  1  0
  3  4  2  0
  4  5  1  0
  5  6  2  0
  6  7  1  0
  7  8  2  0
  8  9  1  0
  9 10  1  0
 10 11  2  0
 10 12  2  0
 10 13  1  0
 13 14  2  0
 14 15  1  0
 15 16  2  0
 16 17  1  0
 17 18  1  0
 18 19  2  0
 18 20  1  0
 20 21  1  0
 21 22  2  0
 22 23  1  0
 23 24  2  0
 24 25  1  0
 25 26  1  0
 26 27  2  0
 26 28  2  0
 26 29  1  0
 29 30  1  0
 30 31  1  0
 31 32  1  0
 32 33  1  0
 33 34  1  0
 25 35  2  0
 17 36  2  0
  8  3  1  0
 36 13  1  0
 35 21  1  0
 34 29  1  0
  1 37  1  0
  1 38  1  0
  1 39  1  0
  4 40  1  0
  5 41  1  0
  6 42  1  0
  7 43  1  0
  9 44  1  0
 14 45  1  0
 15 46  1  0
 16 47  1  0
 22 48  1  0
 23 49  1  0
 24 50  1  0
 30 51  1  0
 30 52  1  0
 31 53  1  0
 31 54  1  0
 32 55  1  0
 32 56  1  0
 33 57  1  0
 33 58  1  0
 34 59  1  0
 34 60  1  0
 35 61  1  0
 36 62  1  0
M  CHG  1  20  -1
M  END
>  <UniqueID>  (11) 
10

>  <SMILES>  (11) 
COc1ccccc1NS(=O)(=O)c1cccc(C(=O)[N-]c2cccc(S(=O)(=O)N3CCCCC3)c2)c1

>  <Energy>  (11) 
75.71916408287906

>  <Genealogy>  (11) 
COc1ccccc1NS(=O)(=O)c1cccc(C(=O)[N-]c2cccc(S(=O)(=O)N3CCCCC3)c2)c1 (protonated)
COc1ccccc1NS(=O)(=O)c1cccc(C(=O)[N-]c2cccc(S(=O)(=O)N3CCCCC3)c2)c1 (3D coordinates assigned)
COc1ccccc1NS(=O)(=O)c1cccc(C(=O)[N-]c2cccc(S(=O)(=O)N3CCCCC3)c2)c1 (nonaromatic ring conformer: 75.71916408287906 kcal/mol)

>  <smiles>  (11) 
COc1ccccc1NS(=O)(=O)c1cccc(C(=O)Nc2cccc(S(=O)(=O)N3CCCCC3)c2)c1

>  <score_type>  (11) 
oracle

>  <origin>  (11) 
adgpu

>  <m_score__min__energy>  (11) 
-11.75

>  <m_primary>  (11) 
energy

$$$$
11:0
     RDKit          3D

 47 49  0  0  0  0  0  0  0  0999 V2000
   -8.5660   19.7920  -33.8910 H   0  0  0  0  0  0  0  0  0  0  0  0
   -7.6790   20.1210  -33.4490 N   0  0  0  0  0  0  0  0  0  0  0  0
   -6.8940   18.7270  -32.7970 S   0  0  0  0  0  0  0  0  0  0  0  0
   -6.9260   18.7870  -31.2950 O   0  0  0  0  0  0  0  0  0  0  0  0
   -7.6200   17.4890  -33.2450 O   0  0  0  0  0  0  0  0  0  0  0  0
   -5.2250   18.6760  -33.3550 C   0  0  0  0  0  0  0  0  0  0  0  0
   -4.3580   19.7400  -33.0800 C   0  0  0  0  0  0  0  0  0  0  0  0
   -4.7184   20.6061  -32.5055 H   0  0  0  0  0  0  0  0  0  0  0  0
   -3.0350   19.7060  -33.5330 C   0  0  0  0  0  0  0  0  0  0  0  0
   -2.3624   20.5503  -33.3214 H   0  0  0  0  0  0  0  0  0  0  0  0
   -2.5620   18.6020  -34.2550 C   0  0  0  0  0  0  0  0  0  0  0  0
   -1.2090   18.6120  -34.7300 N   0  0  0  0  0  0  0  0  0  0  0  0
   -0.2710   19.6890  -34.6070 C   0  0  0  0  0  0  0  0  0  0  0  0
   -0.3180   20.6310  -35.4410 O   0  0  0  0  0  0  0  0  0  0  0  0
    0.7300   19.7470  -33.4860 C   0  0  0  0  0  0  0  0  0  0  0  0
    1.2888   20.6925  -33.5472 H   0  0  0  0  0  0  0  0  0  0  0  0
    1.4195   18.8948  -33.5779 H   0  0  0  0  0  0  0  0  0  0  0  0
    0.0480   19.6710  -32.1890 N   0  0  0  0  0  0  0  0  0  0  0  0
   -0.2610   18.5790  -31.4450 C   0  0  0  0  0  0  0  0  0  0  0  0
   -0.0070   17.3170  -31.7970 C   0  0  0  0  0  0  0  0  0  0  0  0
    0.4815   17.1020  -32.7588 H   0  0  0  0  0  0  0  0  0  0  0  0
   -0.2862   16.4918  -31.1253 H   0  0  0  0  0  0  0  0  0  0  0  0
   -0.8600   18.8920  -30.2720 N   0  0  0  0  0  0  0  0  0  0  0  0
   -0.9130   20.2410  -30.2610 C   0  0  0  0  0  0  0  0  0  0  0  0
   -1.4580   20.9330  -29.2480 C   0  0  0  0  0  0  0  0  0  0  0  0
   -1.9262   20.3608  -28.4335 H   0  0  0  0  0  0  0  0  0  0  0  0
   -1.4750   22.4050  -29.1470 C   0  0  0  0  0  0  0  0  0  0  0  0
   -2.4940   23.1590  -29.7490 C   0  0  0  0  0  0  0  0  0  0  0  0
   -3.3145   22.6492  -30.2752 H   0  0  0  0  0  0  0  0  0  0  0  0
   -2.4710   24.5540  -29.6830 C   0  0  0  0  0  0  0  0  0  0  0  0
   -3.4950   25.2890  -30.2700 O   0  0  0  0  0  0  0  0  0  0  0  0
   -1.4190   25.2090  -29.0320 C   0  0  0  0  0  0  0  0  0  0  0  0
   -1.4040   26.5980  -28.9670 O   0  0  0  0  0  0  0  0  0  0  0  0
   -0.3770   24.4720  -28.4530 C   0  0  0  0  0  0  0  0  0  0  0  0
    0.6650   25.1680  -27.8200 O   0  0  0  0  0  0  0  0  0  0  0  0
    0.4950   26.0240  -26.6960 C   0  0  0  0  0  0  0  0  0  0  0  0
    0.6108   25.4411  -25.7704 H   0  0  0  0  0  0  0  0  0  0  0  0
    1.2524   26.8213  -26.7244 H   0  0  0  0  0  0  0  0  0  0  0  0
   -0.5095   26.4713  -26.7244 H   0  0  0  0  0  0  0  0  0  0  0  0
   -0.4050   23.0640  -28.5230 C   0  0  0  0  0  0  0  0  0  0  0  0
    0.4172   22.4786  -28.0857 H   0  0  0  0  0  0  0  0  0  0  0  0
   -0.3580   20.7130  -31.4390 C   0  0  0  0  0  0  0  0  0  0  0  0
   -0.2680   21.9170  -31.8020 O   0  0  0  0  0  0  0  0  0  0  0  0
   -3.4430   17.5520  -34.5610 C   0  0  0  0  0  0  0  0  0  0  0  0
   -3.0911   16.6989  -35.1597 H   0  0  0  0  0  0  0  0  0  0  0  0
   -4.7660   17.5860  -34.1080 C   0  0  0  0  0  0  0  0  0  0  0  0
   -5.4479   16.7555  -34.3431 H   0  0  0  0  0  0  0  0  0  0  0  0
  1  2  1  0
  2  3  1  0
  3  4  2  0
  3  5  2  0
  3  6  1  0
  6  7  2  0
  7  8  1  0
  7  9  1  0
  9 10  1  0
  9 11  2  0
 11 12  1  0
 12 13  1  0
 13 14  2  0
 13 15  1  0
 15 16  1  0
 15 17  1  0
 15 18  1  0
 18 19  1  0
 19 20  2  0
 20 21  1  0
 20 22  1  0
 19 23  1  0
 23 24  1  0
 24 25  2  0
 25 26  1  0
 25 27  1  0
 27 28  2  0
 28 29  1  0
 28 30  1  0
 30 31  1  0
 30 32  2  0
 32 33  1  0
 32 34  1  0
 34 35  1  0
 35 36  1  0
 36 37  1  0
 36 38  1  0
 36 39  1  0
 34 40  2  0
 40 41  1  0
 24 42  1  0
 42 43  2  0
 11 44  1  0
 44 45  1  0
 44 46  2  0
 46 47  1  0
 46  6  1  0
 42 18  1  0
 40 27  1  0
M  CHG  5   2  -1  12  -1  23  -1  31  -1  33  -1
M  END
>  <UniqueID>  (12) 
11

>  <SMILES>  (12) 
C=c1[n-]/c(=C/c2cc([O-])c([O-])c(OC)c2)c(=O)n1CC(=O)[N-]c1ccc(S([NH-])(=O)=O)cc1

>  <Energy>  (12) 
93.79501275658731

>  <Genealogy>  (12) 
C=c1[n-]c(=Cc2cc([O-])c([O-])c(OC)c2)c(=O)n1CC(=O)[N-]c1ccc(S([NH-])(=O)=O)cc1 (protonated)
C=c1[n-]/c(=C/c2cc([O-])c([O-])c(OC)c2)c(=O)n1CC(=O)[N-]c1ccc(S([NH-])(=O)=O)cc1 (cis-trans isomerization)
C=c1[n-]/c(=C/c2cc([O-])c([O-])c(OC)c2)c(=O)n1CC(=O)[N-]c1ccc(S([NH-])(=O)=O)cc1 (3D coordinates assigned)
C=c1[n-]/c(=C/c2cc([O-])c([O-])c(OC)c2)c(=O)n1CC(=O)[N-]c1ccc(S([NH-])(=O)=O)cc1 (optimized conformer: 93.79501275658731 kcal/mol)

>  <smiles>  (12) 
C=c1[nH]c(=Cc2cc(O)c(O)c(OC)c2)c(=O)n1CC(=O)Nc1ccc(S(N)(=O)=O)cc1

>  <score_type>  (12) 
oracle

>  <origin>  (12) 
adgpu

>  <m_score__min__energy>  (12) 
-14.539999999999999

>  <m_primary>  (12) 
energy

$$$$
12:0
     RDKit          3D

 52 54  0  0  0  0  0  0  0  0999 V2000
   -9.4670   22.2700  -31.9770 C   0  0  0  0  0  0  0  0  0  0  0  0
   -8.4230   23.3400  -31.6730 C   0  0  0  0  0  0  0  0  0  0  0  0
   -7.1960   23.1870  -32.5760 C   0  0  0  0  0  0  0  0  0  0  0  0
   -6.1550   22.4110  -31.8930 N   0  0  0  0  0  0  0  0  0  0  0  0
   -5.1320   23.0810  -31.1400 C   0  0  0  0  0  0  0  0  0  0  0  0
   -4.8530   24.3950  -31.2430 N   0  0  0  0  0  0  0  0  0  0  0  0
   -3.8510   24.6230  -30.4080 N   0  0  0  0  0  0  0  0  0  0  0  0
   -3.5630   23.4410  -29.8300 C   0  0  0  0  0  0  0  0  0  0  0  0
   -2.4820   23.2410  -28.8180 C   0  0  0  0  0  0  0  0  0  0  0  0
   -1.7640   21.9480  -29.0880 C   0  0  0  0  0  0  0  0  0  0  0  0
   -1.0350   21.3200  -28.0710 C   0  0  0  0  0  0  0  0  0  0  0  0
   -0.4150   20.1020  -28.3500 C   0  0  0  0  0  0  0  0  0  0  0  0
    0.2530   19.5140  -27.4600 O   0  0  0  0  0  0  0  0  0  0  0  0
   -0.5350   19.5480  -29.5820 N   0  0  0  0  0  0  0  0  0  0  0  0
   -1.2510   20.1620  -30.5610 C   0  0  0  0  0  0  0  0  0  0  0  0
   -1.3840   19.5140  -31.9020 C   0  0  0  0  0  0  0  0  0  0  0  0
   -1.8690   21.3510  -30.3090 N   0  0  0  0  0  0  0  0  0  0  0  0
   -4.3460   22.4870  -30.2740 O   0  0  0  0  0  0  0  0  0  0  0  0
   -6.0650   20.9970  -32.1150 C   0  0  0  0  0  0  0  0  0  0  0  0
   -7.0980   20.1590  -31.6750 C   0  0  0  0  0  0  0  0  0  0  0  0
   -7.0220   18.7790  -31.8760 C   0  0  0  0  0  0  0  0  0  0  0  0
   -5.9110   18.2130  -32.5250 C   0  0  0  0  0  0  0  0  0  0  0  0
   -5.8420   16.7120  -32.7410 C   0  0  0  0  0  0  0  0  0  0  0  0
   -4.4020   16.2580  -33.0140 C   0  0  0  0  0  0  0  0  0  0  0  0
   -6.7810   16.2760  -33.8710 C   0  0  0  0  0  0  0  0  0  0  0  0
   -4.8810   19.0610  -32.9760 C   0  0  0  0  0  0  0  0  0  0  0  0
   -4.9540   20.4430  -32.7740 C   0  0  0  0  0  0  0  0  0  0  0  0
   -3.5430   21.5520  -33.4420 Br  0  0  0  0  0  0  0  0  0  0  0  0
   -9.8623   21.8649  -31.0338 H   0  0  0  0  0  0  0  0  0  0  0  0
  -10.2886   22.7140  -32.5582 H   0  0  0  0  0  0  0  0  0  0  0  0
   -9.0029   21.4596  -32.5582 H   0  0  0  0  0  0  0  0  0  0  0  0
   -8.8679   24.3326  -31.8369 H   0  0  0  0  0  0  0  0  0  0  0  0
   -8.1024   23.2273  -30.6268 H   0  0  0  0  0  0  0  0  0  0  0  0
   -7.4883   22.6674  -33.5004 H   0  0  0  0  0  0  0  0  0  0  0  0
   -6.8001   24.1853  -32.8140 H   0  0  0  0  0  0  0  0  0  0  0  0
   -1.7672   24.0749  -28.8777 H   0  0  0  0  0  0  0  0  0  0  0  0
   -2.9276   23.2058  -27.8129 H   0  0  0  0  0  0  0  0  0  0  0  0
   -0.9530   21.7771  -27.0738 H   0  0  0  0  0  0  0  0  0  0  0  0
   -1.6036   18.4440  -31.7720 H   0  0  0  0  0  0  0  0  0  0  0  0
   -2.2029   19.9912  -32.4602 H   0  0  0  0  0  0  0  0  0  0  0  0
   -0.4433   19.6301  -32.4602 H   0  0  0  0  0  0  0  0  0  0  0  0
   -2.4320   21.8080  -31.0620 H   0  0  0  0  0  0  0  0  0  0  0  0
   -7.9739   20.5904  -31.1683 H   0  0  0  0  0  0  0  0  0  0  0  0
   -7.8375   18.1303  -31.5238 H   0  0  0  0  0  0  0  0  0  0  0  0
   -6.1779   16.2227  -31.8149 H   0  0  0  0  0  0  0  0  0  0  0  0
   -3.8819   16.0940  -32.0587 H   0  0  0  0  0  0  0  0  0  0  0  0
   -4.4159   15.3207  -33.5895 H   0  0  0  0  0  0  0  0  0  0  0  0
   -3.8758   17.0338  -33.5895 H   0  0  0  0  0  0  0  0  0  0  0  0
   -7.6992   15.8496  -33.4408 H   0  0  0  0  0  0  0  0  0  0  0  0
   -7.0371   17.1473  -34.4916 H   0  0  0  0  0  0  0  0  0  0  0  0
   -6.2806   15.5181  -34.4916 H   0  0  0  0  0  0  0  0  0  0  0  0
   -4.0098   18.6318  -33.4926 H   0  0  0  0  0  0  0  0  0  0  0  0
  1  2  1  0
  2  3  1  0
  3  4  1  0
  4  5  1  0
  5  6  2  0
  6  7  1  0
  7  8  2  0
  8  9  1  0
  9 10  1  0
 10 11  2  0
 11 12  1  0
 12 13  2  0
 12 14  1  0
 14 15  2  0
 15 16  1  0
 15 17  1  0
  8 18  1  0
  4 19  1  0
 19 20  2  0
 20 21  1  0
 21 22  2  0
 22 23  1  0
 23 24  1  0
 23 25  1  0
 22 26  1  0
 26 27  2  0
 27 28  1  0
 18  5  1  0
 27 19  1  0
 17 10  1  0
  1 29  1  0
  1 30  1  0
  1 31  1  0
  2 32  1  0
  2 33  1  0
  3 34  1  0
  3 35  1  0
  9 36  1  0
  9 37  1  0
 11 38  1  0
 16 39  1  0
 16 40  1  0
 16 41  1  0
 17 42  1  0
 20 43  1  0
 21 44  1  0
 23 45  1  0
 24 46  1  0
 24 47  1  0
 24 48  1  0
 25 49  1  0
 25 50  1  0
 25 51  1  0
 26 52  1  0
M  END
>  <UniqueID>  (13) 
12

>  <SMILES>  (13) 
CCCN(c1nnc(Cc2cc(=O)nc(C)[nH]2)o1)c1ccc(C(C)C)cc1Br

>  <Energy>  (13) 
82.18342176889824

>  <Genealogy>  (13) 
CCCN(c1nnc(Cc2cc(=O)nc(C)[nH]2)o1)c1ccc(C(C)C)cc1Br (3D coordinates assigned)
CCCN(c1nnc(Cc2cc(=O)nc(C)[nH]2)o1)c1ccc(C(C)C)cc1Br (optimized conformer: 82.18342176889824 kcal/mol)

>  <smiles>  (13) 
CCCN(c1nnc(Cc2cc(=O)nc(C)[nH]2)o1)c1ccc(C(C)C)cc1Br

>  <score_type>  (13) 
oracle

>  <origin>  (13) 
adgpu

>  <m_score__min__energy>  (13) 
-9.0700000000000003

>  <m_primary>  (13) 
energy

$$$$
13:0
     RDKit          3D

 43 45  0  0  0  0  0  0  0  0999 V2000
   -3.1940   22.8790  -27.9760 O   0  0  0  0  0  0  0  0  0  0  0  0
   -3.3660   22.5630  -29.1830 C   0  0  0  0  0  0  0  0  0  0  0  0
   -2.5620   21.5150  -29.7400 N   0  0  0  0  0  0  0  0  0  0  0  0
   -2.1500   21.3910  -31.1100 C   0  0  0  0  0  0  0  0  0  0  0  0
   -0.7920   21.2960  -31.4720 C   0  0  0  0  0  0  0  0  0  0  0  0
   -0.4310   21.1530  -32.8150 C   0  0  0  0  0  0  0  0  0  0  0  0
   -1.4170   21.0850  -33.8030 C   0  0  0  0  0  0  0  0  0  0  0  0
   -2.7670   21.1520  -33.4480 C   0  0  0  0  0  0  0  0  0  0  0  0
   -3.1320   21.2980  -32.1050 C   0  0  0  0  0  0  0  0  0  0  0  0
   -4.4310   23.2330  -29.9670 C   0  0  0  0  0  0  0  0  0  0  0  0
   -5.6100   22.5350  -30.2850 C   0  0  0  0  0  0  0  0  0  0  0  0
   -6.6160   23.1460  -31.0470 C   0  0  0  0  0  0  0  0  0  0  0  0
   -8.0860   22.2660  -31.4610 S   0  0  0  0  0  0  0  0  0  0  0  0
   -9.1360   23.2460  -31.9040 O   0  0  0  0  0  0  0  0  0  0  0  0
   -8.5660   21.5420  -30.2350 O   0  0  0  0  0  0  0  0  0  0  0  0
   -7.7660   21.1180  -32.7460 N   0  0  0  0  0  0  0  0  0  0  0  0
   -8.7730   20.0280  -32.7870 C   0  0  0  0  0  0  0  0  0  0  0  0
   -8.1940   18.6250  -32.5370 C   0  0  0  0  0  0  0  0  0  0  0  0
   -7.2090   18.6530  -31.3710 C   0  0  0  0  0  0  0  0  0  0  0  0
   -6.0650   19.6560  -31.6080 C   0  0  0  0  0  0  0  0  0  0  0  0
   -6.3630   20.6600  -32.7390 C   0  0  0  0  0  0  0  0  0  0  0  0
   -6.4590   24.4720  -31.4650 C   0  0  0  0  0  0  0  0  0  0  0  0
   -5.3020   25.1800  -31.1360 C   0  0  0  0  0  0  0  0  0  0  0  0
   -4.2880   24.5680  -30.3920 C   0  0  0  0  0  0  0  0  0  0  0  0
   -3.1360   25.2910  -30.0970 O   0  0  0  0  0  0  0  0  0  0  0  0
   -0.0135   21.3344  -30.6959 H   0  0  0  0  0  0  0  0  0  0  0  0
    0.6312   21.0939  -33.0946 H   0  0  0  0  0  0  0  0  0  0  0  0
   -1.1306   20.9788  -34.8597 H   0  0  0  0  0  0  0  0  0  0  0  0
   -3.5433   21.0899  -34.2249 H   0  0  0  0  0  0  0  0  0  0  0  0
   -4.1960   21.3400  -31.8289 H   0  0  0  0  0  0  0  0  0  0  0  0
   -5.7439   21.5015  -29.9331 H   0  0  0  0  0  0  0  0  0  0  0  0
   -9.5319   20.2303  -32.0168 H   0  0  0  0  0  0  0  0  0  0  0  0
   -9.1901   20.0211  -33.8048 H   0  0  0  0  0  0  0  0  0  0  0  0
   -9.0146   17.9315  -32.3010 H   0  0  0  0  0  0  0  0  0  0  0  0
   -7.6646   18.2922  -33.4420 H   0  0  0  0  0  0  0  0  0  0  0  0
   -7.7490   18.9394  -30.4564 H   0  0  0  0  0  0  0  0  0  0  0  0
   -6.7677   17.6501  -31.2741 H   0  0  0  0  0  0  0  0  0  0  0  0
   -5.8941   20.2177  -30.6778 H   0  0  0  0  0  0  0  0  0  0  0  0
   -5.1796   19.0771  -31.9094 H   0  0  0  0  0  0  0  0  0  0  0  0
   -5.7088   21.5352  -32.6127 H   0  0  0  0  0  0  0  0  0  0  0  0
   -6.1791   20.1456  -33.6938 H   0  0  0  0  0  0  0  0  0  0  0  0
   -7.2500   24.9581  -32.0549 H   0  0  0  0  0  0  0  0  0  0  0  0
   -5.1871   26.2239  -31.4633 H   0  0  0  0  0  0  0  0  0  0  0  0
  1  2  2  0
  2  3  1  0
  3  4  1  0
  4  5  2  0
  5  6  1  0
  6  7  2  0
  7  8  1  0
  8  9  2  0
  2 10  1  0
 10 11  2  0
 11 12  1  0
 12 13  1  0
 13 14  2  0
 13 15  2  0
 13 16  1  0
 16 17  1  0
 17 18  1  0
 18 19  1  0
 19 20  1  0
 20 21  1  0
 12 22  2  0
 22 23  1  0
 23 24  2  0
 24 25  1  0
  9  4  1  0
 24 10  1  0
 21 16  1  0
  5 26  1  0
  6 27  1  0
  7 28  1  0
  8 29  1  0
  9 30  1  0
 11 31  1  0
 17 32  1  0
 17 33  1  0
 18 34  1  0
 18 35  1  0
 19 36  1  0
 19 37  1  0
 20 38  1  0
 20 39  1  0
 21 40  1  0
 21 41  1  0
 22 42  1  0
 23 43  1  0
M  CHG  2   3  -1  25  -1
M  END
>  <UniqueID>  (14) 
13

>  <SMILES>  (14) 
O=C([N-]c1ccccc1)c1cc(S(=O)(=O)N2CCCCC2)ccc1[O-]

>  <Energy>  (14) 
56.68605188622826

>  <Genealogy>  (14) 
O=C([N-]c1ccccc1)c1cc(S(=O)(=O)N2CCCCC2)ccc1[O-] (protonated)
O=C([N-]c1ccccc1)c1cc(S(=O)(=O)N2CCCCC2)ccc1[O-] (3D coordinates assigned)
O=C([N-]c1ccccc1)c1cc(S(=O)(=O)N2CCCCC2)ccc1[O-] (nonaromatic ring conformer: 56.68605188622826 kcal/mol)

>  <smiles>  (14) 
O=C(Nc1ccccc1)c1cc(S(=O)(=O)N2CCCCC2)ccc1O

>  <score_type>  (14) 
oracle

>  <origin>  (14) 
adgpu

>  <m_score__min__energy>  (14) 
-12.75

>  <m_primary>  (14) 
energy

$$$$
14:0
     RDKit          3D

 62 65  0  0  0  0  0  0  0  0999 V2000
   -6.1570   25.8300  -29.3510 N   0  0  0  0  0  0  0  0  0  0  0  0
   -5.8720   24.6140  -30.0510 C   0  0  0  0  0  0  0  0  0  0  0  0
   -6.9030   23.6950  -30.2910 C   0  0  0  0  0  0  0  0  0  0  0  0
   -6.6420   22.4910  -30.9520 C   0  0  0  0  0  0  0  0  0  0  0  0
   -5.3510   22.2030  -31.4090 C   0  0  0  0  0  0  0  0  0  0  0  0
   -5.0170   20.7040  -32.2790 S   0  0  0  0  0  0  0  0  0  0  0  0
   -4.6800   19.6340  -31.2790 O   0  0  0  0  0  0  0  0  0  0  0  0
   -3.8110   20.9180  -33.1530 O   0  0  0  0  0  0  0  0  0  0  0  0
   -6.3860   20.2520  -33.2810 N   0  0  0  0  0  0  0  0  0  0  0  0
   -6.0470   19.1840  -34.2480 C   0  0  0  0  0  0  0  0  0  0  0  0
   -5.9480   17.7940  -33.6020 C   0  0  0  0  0  0  0  0  0  0  0  0
   -7.2240   17.4620  -32.8270 C   0  0  0  0  0  0  0  0  0  0  0  0
   -7.5470   18.5580  -31.8150 C   0  0  0  0  0  0  0  0  0  0  0  0
   -7.6010   19.9320  -32.4990 C   0  0  0  0  0  0  0  0  0  0  0  0
   -4.3200   23.1220  -31.1800 C   0  0  0  0  0  0  0  0  0  0  0  0
   -4.5630   24.3100  -30.4720 C   0  0  0  0  0  0  0  0  0  0  0  0
   -3.4810   25.2050  -30.1780 N   0  0  0  0  0  0  0  0  0  0  0  0
   -2.4410   24.9090  -29.2370 C   0  0  0  0  0  0  0  0  0  0  0  0
   -1.9190   25.8530  -28.5860 O   0  0  0  0  0  0  0  0  0  0  0  0
   -2.0010   23.5160  -28.9890 C   0  0  0  0  0  0  0  0  0  0  0  0
   -0.7340   23.0840  -29.4150 C   0  0  0  0  0  0  0  0  0  0  0  0
   -0.3220   21.7670  -29.1910 C   0  0  0  0  0  0  0  0  0  0  0  0
   -1.1670   20.8650  -28.5330 C   0  0  0  0  0  0  0  0  0  0  0  0
   -0.6500   19.2030  -28.2520 S   0  0  0  0  0  0  0  0  0  0  0  0
    0.6330   19.2250  -27.4660 O   0  0  0  0  0  0  0  0  0  0  0  0
   -1.6890   18.4780  -27.4410 O   0  0  0  0  0  0  0  0  0  0  0  0
   -0.3980   18.3880  -29.7790 N   0  0  0  0  0  0  0  0  0  0  0  0
    0.9990   17.9180  -29.9190 C   0  0  0  0  0  0  0  0  0  0  0  0
    1.8190   18.8140  -30.8660 C   0  0  0  0  0  0  0  0  0  0  0  0
    1.2710   18.8960  -32.1750 O   0  0  0  0  0  0  0  0  0  0  0  0
   -0.1500   18.8310  -32.2050 C   0  0  0  0  0  0  0  0  0  0  0  0
   -0.8240   19.2580  -30.8920 C   0  0  0  0  0  0  0  0  0  0  0  0
   -2.4340   21.2920  -28.1080 C   0  0  0  0  0  0  0  0  0  0  0  0
   -2.8530   22.6050  -28.3430 C   0  0  0  0  0  0  0  0  0  0  0  0
   -7.1410   26.1670  -29.2480 H   0  0  0  0  0  0  0  0  0  0  0  0
   -5.3970   26.4080  -28.9270 H   0  0  0  0  0  0  0  0  0  0  0  0
   -7.9258   23.9230  -29.9565 H   0  0  0  0  0  0  0  0  0  0  0  0
   -7.4545   21.7673  -31.1135 H   0  0  0  0  0  0  0  0  0  0  0  0
   -6.6090   21.1070  -33.8430 H   0  0  0  0  0  0  0  0  0  0  0  0
   -6.8260   19.1545  -35.0240 H   0  0  0  0  0  0  0  0  0  0  0  0
   -5.0577   19.4223  -34.6656 H   0  0  0  0  0  0  0  0  0  0  0  0
   -5.7981   17.0405  -34.3893 H   0  0  0  0  0  0  0  0  0  0  0  0
   -5.0998   17.7908  -32.9017 H   0  0  0  0  0  0  0  0  0  0  0  0
   -8.0608   17.3671  -33.5346 H   0  0  0  0  0  0  0  0  0  0  0  0
   -7.0704   16.5172  -32.2850 H   0  0  0  0  0  0  0  0  0  0  0  0
   -8.5226   18.3464  -31.3530 H   0  0  0  0  0  0  0  0  0  0  0  0
   -6.7571   18.5756  -31.0496 H   0  0  0  0  0  0  0  0  0  0  0  0
   -8.4662   19.9488  -33.1781 H   0  0  0  0  0  0  0  0  0  0  0  0
   -7.6802   20.6864  -31.7023 H   0  0  0  0  0  0  0  0  0  0  0  0
   -3.3090   22.9112  -31.5587 H   0  0  0  0  0  0  0  0  0  0  0  0
   -0.0614   23.7869  -29.9284 H   0  0  0  0  0  0  0  0  0  0  0  0
    0.6703   21.4379  -29.5331 H   0  0  0  0  0  0  0  0  0  0  0  0
    1.4752   17.9204  -28.9274 H   0  0  0  0  0  0  0  0  0  0  0  0
    0.9745   16.9051  -30.3473 H   0  0  0  0  0  0  0  0  0  0  0  0
    1.8598   19.8274  -30.4401 H   0  0  0  0  0  0  0  0  0  0  0  0
    2.8183   18.3634  -30.9580 H   0  0  0  0  0  0  0  0  0  0  0  0
   -0.5093   19.4907  -33.0085 H   0  0  0  0  0  0  0  0  0  0  0  0
   -0.4165   17.7767  -32.3708 H   0  0  0  0  0  0  0  0  0  0  0  0
   -0.5452   20.2975  -30.6646 H   0  0  0  0  0  0  0  0  0  0  0  0
   -1.9142   19.1719  -31.0103 H   0  0  0  0  0  0  0  0  0  0  0  0
   -3.1015   20.5899  -27.5870 H   0  0  0  0  0  0  0  0  0  0  0  0
   -3.8545   22.9261  -28.0205 H   0  0  0  0  0  0  0  0  0  0  0  0
  1  2  1  0
  2  3  2  0
  3  4  1  0
  4  5  2  0
  5  6  1  0
  6  7  2  0
  6  8  2  0
  6  9  1  0
  9 10  1  0
 10 11  1  0
 11 12  1  0
 12 13  1  0
 13 14  1  0
  5 15  1  0
 15 16  2  0
 16 17  1  0
 17 18  1  0
 18 19  2  0
 18 20  1  0
 20 21  2  0
 21 22  1  0
 22 23  2  0
 23 24  1  0
 24 25  2  0
 24 26  2  0
 24 27  1  0
 27 28  1  0
 28 29  1  0
 29 30  1  0
 30 31  1  0
 31 32  1  0
 23 33  1  0
 33 34  2  0
 16  2  1  0
 34 20  1  0
 14  9  1  0
 32 27  1  0
  1 35  1  0
  1 36  1  0
  3 37  1  0
  4 38  1  0
  9 39  1  0
 10 40  1  0
 10 41  1  0
 11 42  1  0
 11 43  1  0
 12 44  1  0
 12 45  1  0
 13 46  1  0
 13 47  1  0
 14 48  1  0
 14 49  1  0
 15 50  1  0
 21 51  1  0
 22 52  1  0
 28 53  1  0
 28 54  1  0
 29 55  1  0
 29 56  1  0
 31 57  1  0
 31 58  1  0
 32 59  1  0
 32 60  1  0
 33 61  1  0
 34 62  1  0
M  CHG  2   9   1  17  -1
M  END
>  <UniqueID>  (15) 
14

>  <SMILES>  (15) 
Nc1ccc(S(=O)(=O)[NH+]2CCCCC2)cc1[N-]C(=O)c1ccc(S(=O)(=O)N2CCOCC2)cc1

>  <Energy>  (15) 
78.35572821040998

>  <Genealogy>  (15) 
Nc1ccc(S(=O)(=O)[NH+]2CCCCC2)cc1[N-]C(=O)c1ccc(S(=O)(=O)N2CCOCC2)cc1 (protonated)
Nc1ccc(S(=O)(=O)[NH+]2CCCCC2)cc1[N-]C(=O)c1ccc(S(=O)(=O)N2CCOCC2)cc1 (3D coordinates assigned)
Nc1ccc(S(=O)(=O)[NH+]2CCCCC2)cc1[N-]C(=O)c1ccc(S(=O)(=O)N2CCOCC2)cc1 (nonaromatic ring conformer: 78.35572821040998 kcal/mol)

>  <smiles>  (15) 
Nc1ccc(S(=O)(=O)N2CCCCC2)cc1NC(=O)c1ccc(S(=O)(=O)N2CCOCC2)cc1

>  <score_type>  (15) 
oracle

>  <origin>  (15) 
adgpu

>  <m_score__min__energy>  (15) 
-11.550000000000001

>  <m_primary>  (15) 
energy

$$$$
15:0
     RDKit          3D

 65 68  0  0  0  0  0  0  0  0999 V2000
   -0.1940   21.2330  -32.5740 C   0  0  0  0  0  0  0  0  0  0  0  0
   -1.6780   21.0120  -32.4620 C   0  0  0  0  0  0  0  0  0  0  0  0
   -2.5300   21.4920  -33.4680 C   0  0  0  0  0  0  0  0  0  0  0  0
   -3.9130   21.3210  -33.3670 C   0  0  0  0  0  0  0  0  0  0  0  0
   -4.4670   20.6770  -32.2510 C   0  0  0  0  0  0  0  0  0  0  0  0
   -5.9340   20.5090  -32.1320 C   0  0  0  0  0  0  0  0  0  0  0  0
   -6.5260   19.3650  -32.6960 C   0  0  0  0  0  0  0  0  0  0  0  0
   -7.9120   19.2010  -32.6800 C   0  0  0  0  0  0  0  0  0  0  0  0
   -8.7250   20.1770  -32.1050 C   0  0  0  0  0  0  0  0  0  0  0  0
   -8.1540   21.3130  -31.5270 C   0  0  0  0  0  0  0  0  0  0  0  0
   -6.7590   21.4860  -31.5130 C   0  0  0  0  0  0  0  0  0  0  0  0
   -6.2060   22.6770  -30.8280 C   0  0  0  0  0  0  0  0  0  0  0  0
   -6.7140   23.9580  -31.0710 C   0  0  0  0  0  0  0  0  0  0  0  0
   -6.1560   25.0370  -30.3920 C   0  0  0  0  0  0  0  0  0  0  0  0
   -5.1210   24.8450  -29.5320 N   0  0  0  0  0  0  0  0  0  0  0  0
   -4.5990   23.5930  -29.3370 C   0  0  0  0  0  0  0  0  0  0  0  0
   -3.6020   23.3770  -28.5260 N   0  0  0  0  0  0  0  0  0  0  0  0
   -2.8100   24.3590  -27.8390 C   0  0  0  0  0  0  0  0  0  0  0  0
   -1.7220   24.9410  -28.4970 C   0  0  0  0  0  0  0  0  0  0  0  0
   -0.9660   25.9350  -27.8700 C   0  0  0  0  0  0  0  0  0  0  0  0
   -1.3120   26.3840  -26.5860 C   0  0  0  0  0  0  0  0  0  0  0  0
   -0.4830   27.4310  -25.8960 C   0  0  0  0  0  0  0  0  0  0  0  0
   -0.0070   26.8860  -24.2640 S   0  0  0  0  0  0  0  0  0  0  0  0
    0.7720   25.2860  -24.3490 C   0  0  0  0  0  0  0  0  0  0  0  0
    0.9620   27.8740  -23.6790 O   0  0  0  0  0  0  0  0  0  0  0  0
   -1.2220   26.8030  -23.3800 O   0  0  0  0  0  0  0  0  0  0  0  0
   -2.4230   25.8220  -25.9370 C   0  0  0  0  0  0  0  0  0  0  0  0
   -3.1760   24.8270  -26.5650 C   0  0  0  0  0  0  0  0  0  0  0  0
   -5.1560   22.5310  -29.9770 N   0  0  0  0  0  0  0  0  0  0  0  0
   -3.6200   20.1970  -31.2420 C   0  0  0  0  0  0  0  0  0  0  0  0
   -2.2340   20.3740  -31.3330 C   0  0  0  0  0  0  0  0  0  0  0  0
   -1.4020   19.9280  -30.2570 N   0  0  0  0  0  0  0  0  0  0  0  0
   -0.4710   18.8240  -30.4730 C   0  0  0  0  0  0  0  0  0  0  0  0
   -1.6770   20.5430  -28.6590 S   0  0  0  0  0  0  0  0  0  0  0  0
   -0.9690   19.4270  -27.4680 C   0  0  0  0  0  0  0  0  0  0  0  0
   -1.0470   21.9010  -28.5250 O   0  0  0  0  0  0  0  0  0  0  0  0
   -3.1540   20.6640  -28.4040 O   0  0  0  0  0  0  0  0  0  0  0  0
    0.2440   21.2982  -31.5671 H   0  0  0  0  0  0  0  0  0  0  0  0
    0.2618   20.3928  -33.1184 H   0  0  0  0  0  0  0  0  0  0  0  0
   -0.0028   22.1695  -33.1184 H   0  0  0  0  0  0  0  0  0  0  0  0
   -2.1060   22.0068  -34.3428 H   0  0  0  0  0  0  0  0  0  0  0  0
   -4.5704   21.6932  -34.1665 H   0  0  0  0  0  0  0  0  0  0  0  0
   -5.8910   18.5923  -33.1540 H   0  0  0  0  0  0  0  0  0  0  0  0
   -8.3636   18.3004  -33.1217 H   0  0  0  0  0  0  0  0  0  0  0  0
   -9.8179   20.0521  -32.1066 H   0  0  0  0  0  0  0  0  0  0  0  0
   -8.8023   22.0800  -31.0782 H   0  0  0  0  0  0  0  0  0  0  0  0
   -7.5377   24.1090  -31.7843 H   0  0  0  0  0  0  0  0  0  0  0  0
   -6.5543   26.0498  -30.5520 H   0  0  0  0  0  0  0  0  0  0  0  0
   -4.7650   25.6750  -29.0110 H   0  0  0  0  0  0  0  0  0  0  0  0
   -1.4597   24.6144  -29.5141 H   0  0  0  0  0  0  0  0  0  0  0  0
   -0.0957   26.3676  -28.3851 H   0  0  0  0  0  0  0  0  0  0  0  0
    0.4222   27.6241  -26.4903 H   0  0  0  0  0  0  0  0  0  0  0  0
   -1.0811   28.3493  -25.8013 H   0  0  0  0  0  0  0  0  0  0  0  0
    0.9540   24.9122  -23.3306 H   0  0  0  0  0  0  0  0  0  0  0  0
    0.1140   24.5858  -24.8845 H   0  0  0  0  0  0  0  0  0  0  0  0
    1.7290   25.3721  -24.8845 H   0  0  0  0  0  0  0  0  0  0  0  0
   -2.7015   26.1665  -24.9302 H   0  0  0  0  0  0  0  0  0  0  0  0
   -4.0591   24.4079  -26.0605 H   0  0  0  0  0  0  0  0  0  0  0  0
   -4.0477   19.6772  -30.3720 H   0  0  0  0  0  0  0  0  0  0  0  0
   -0.1383   18.4295  -29.5016 H   0  0  0  0  0  0  0  0  0  0  0  0
   -0.9733   18.0264  -31.0401 H   0  0  0  0  0  0  0  0  0  0  0  0
    0.3999   19.1844  -31.0401 H   0  0  0  0  0  0  0  0  0  0  0  0
   -1.1950   19.7832  -26.4521 H   0  0  0  0  0  0  0  0  0  0  0  0
   -1.3955   18.4227  -27.6077 H   0  0  0  0  0  0  0  0  0  0  0  0
    0.1213   19.3850  -27.6077 H   0  0  0  0  0  0  0  0  0  0  0  0
  1  2  1  0
  2  3  2  0
  3  4  1  0
  4  5  2  0
  5  6  1  0
  6  7  2  0
  7  8  1  0
  8  9  2  0
  9 10  1  0
 10 11  2  0
 11 12  1  0
 12 13  1  0
 13 14  2  0
 14 15  1  0
 15 16  1  0
 16 17  2  3
 17 18  1  0
 18 19  2  0
 19 20  1  0
 20 21  2  0
 21 22  1  0
 22 23  1  0
 23 24  1  0
 23 25  2  0
 23 26  2  0
 21 27  1  0
 27 28  2  0
 16 29  1  0
  5 30  1  0
 30 31  2  0
 31 32  1  0
 32 33  1  0
 32 34  1  0
 34 35  1  0
 34 36  2  0
 34 37  2  0
 31  2  1  0
 11  6  1  0
 29 12  2  0
 28 18  1  0
  1 38  1  0
  1 39  1  0
  1 40  1  0
  3 41  1  0
  4 42  1  0
  7 43  1  0
  8 44  1  0
  9 45  1  0
 10 46  1  0
 13 47  1  0
 14 48  1  0
 15 49  1  0
 19 50  1  0
 20 51  1  0
 22 52  1  0
 22 53  1  0
 24 54  1  0
 24 55  1  0
 24 56  1  0
 27 57  1  0
 28 58  1  0
 30 59  1  0
 33 60  1  0
 33 61  1  0
 33 62  1  0
 35 63  1  0
 35 64  1  0
 35 65  1  0
M  END
>  <UniqueID>  (16) 
15

>  <SMILES>  (16) 
Cc1ccc(-c2ccccc2-c2cc[nH]c(=Nc3ccc(CS(C)(=O)=O)cc3)n2)cc1N(C)S(C)(=O)=O

>  <Energy>  (16) 
82.31614199551498

>  <Genealogy>  (16) 
Cc1ccc(-c2ccccc2-c2cc[nH]c(=Nc3ccc(CS(C)(=O)=O)cc3)n2)cc1N(C)S(C)(=O)=O (3D coordinates assigned)
Cc1ccc(-c2ccccc2-c2cc[nH]c(=Nc3ccc(CS(C)(=O)=O)cc3)n2)cc1N(C)S(C)(=O)=O (optimized conformer: 82.31614199551498 kcal/mol)

>  <smiles>  (16) 
Cc1ccc(-c2ccccc2-c2cc[nH]c(=Nc3ccc(CS(C)(=O)=O)cc3)n2)cc1N(C)S(C)(=O)=O

>  <score_type>  (16) 
oracle

>  <origin>  (16) 
adgpu

>  <m_score__min__energy>  (16) 
-10.99

>  <m_primary>  (16) 
energy

$$$$
16:0
     RDKit          3D

 46 48  0  0  0  0  0  0  0  0999 V2000
   -2.6960   20.9150  -33.0840 C   0  0  0  0  0  0  0  0  0  0  0  0
   -2.5480   21.3530  -31.6620 C   0  0  0  0  0  0  0  0  0  0  0  0
   -2.1670   20.4360  -30.6740 C   0  0  0  0  0  0  0  0  0  0  0  0
   -2.0150   20.8690  -29.3490 C   0  0  0  0  0  0  0  0  0  0  0  0
   -1.6150   19.8890  -28.2640 C   0  0  0  0  0  0  0  0  0  0  0  0
   -2.2540   20.1500  -26.9510 N   0  0  0  0  0  0  0  0  0  0  0  0
   -1.3350   20.7960  -25.9980 C   0  0  0  0  0  0  0  0  0  0  0  0
   -2.8470   18.9370  -26.3630 C   0  0  0  0  0  0  0  0  0  0  0  0
   -2.2250   22.2220  -29.0430 C   0  0  0  0  0  0  0  0  0  0  0  0
   -2.5970   23.1160  -30.0590 C   0  0  0  0  0  0  0  0  0  0  0  0
   -2.8270   24.5440  -29.7760 C   0  0  0  0  0  0  0  0  0  0  0  0
   -2.1450   25.1380  -28.8950 O   0  0  0  0  0  0  0  0  0  0  0  0
   -3.8330   25.2560  -30.5040 N   0  0  0  0  0  0  0  0  0  0  0  0
   -5.2450   25.2540  -30.1400 C   0  0  0  0  0  0  0  0  0  0  0  0
   -5.9350   24.0740  -30.7510 C   0  0  0  0  0  0  0  0  0  0  0  0
   -7.2330   23.6660  -30.4530 C   0  0  0  0  0  0  0  0  0  0  0  0
   -7.4210   22.5200  -31.1940 C   0  0  0  0  0  0  0  0  0  0  0  0
   -8.5230   21.6750  -31.2910 C   0  0  0  0  0  0  0  0  0  0  0  0
   -8.4170   20.5520  -32.1330 C   0  0  0  0  0  0  0  0  0  0  0  0
   -7.2230   20.3060  -32.8490 C   0  0  0  0  0  0  0  0  0  0  0  0
   -6.1260   21.1770  -32.7280 C   0  0  0  0  0  0  0  0  0  0  0  0
   -6.2620   22.2810  -31.8870 C   0  0  0  0  0  0  0  0  0  0  0  0
   -5.3420   23.2240  -31.6220 N   0  0  0  0  0  0  0  0  0  0  0  0
   -2.7430   22.6580  -31.3330 N   0  0  0  0  0  0  0  0  0  0  0  0
   -3.0480   19.8732  -33.1120 H   0  0  0  0  0  0  0  0  0  0  0  0
   -3.4253   21.5623  -33.5930 H   0  0  0  0  0  0  0  0  0  0  0  0
   -1.7235   20.9873  -33.5930 H   0  0  0  0  0  0  0  0  0  0  0  0
   -1.9882   19.3827  -30.9360 H   0  0  0  0  0  0  0  0  0  0  0  0
   -1.8964   18.8771  -28.5908 H   0  0  0  0  0  0  0  0  0  0  0  0
   -0.5304   20.0002  -28.1182 H   0  0  0  0  0  0  0  0  0  0  0  0
   -3.0400   20.8220  -27.1250 H   0  0  0  0  0  0  0  0  0  0  0  0
   -1.6551   20.5710  -24.9700 H   0  0  0  0  0  0  0  0  0  0  0  0
   -0.3153   20.4149  -26.1562 H   0  0  0  0  0  0  0  0  0  0  0  0
   -1.3483   21.8845  -26.1562 H   0  0  0  0  0  0  0  0  0  0  0  0
   -2.8128   19.0070  -25.2658 H   0  0  0  0  0  0  0  0  0  0  0  0
   -3.8925   18.8434  -26.6920 H   0  0  0  0  0  0  0  0  0  0  0  0
   -2.2787   18.0545  -26.6920 H   0  0  0  0  0  0  0  0  0  0  0  0
   -2.0986   22.5807  -28.0109 H   0  0  0  0  0  0  0  0  0  0  0  0
   -5.3379   25.2024  -29.0451 H   0  0  0  0  0  0  0  0  0  0  0  0
   -5.7132   26.1766  -30.5136 H   0  0  0  0  0  0  0  0  0  0  0  0
   -7.9502   24.1519  -29.7751 H   0  0  0  0  0  0  0  0  0  0  0  0
   -9.4461   21.8782  -30.7283 H   0  0  0  0  0  0  0  0  0  0  0  0
   -9.2677   19.8621  -32.2345 H   0  0  0  0  0  0  0  0  0  0  0  0
   -7.1517   19.4264  -33.5057 H   0  0  0  0  0  0  0  0  0  0  0  0
   -5.1914   20.9937  -33.2785 H   0  0  0  0  0  0  0  0  0  0  0  0
   -4.3700   23.2810  -32.0010 H   0  0  0  0  0  0  0  0  0  0  0  0
  1  2  1  0
  2  3  2  0
  3  4  1  0
  4  5  1  0
  5  6  1  0
  6  7  1  0
  6  8  1  0
  4  9  2  0
  9 10  1  0
 10 11  1  0
 11 12  2  0
 11 13  1  0
 13 14  1  0
 14 15  1  0
 15 16  2  0
 16 17  1  0
 17 18  2  0
 18 19  1  0
 19 20  2  0
 20 21  1  0
 21 22  2  0
 22 23  1  0
 10 24  2  0
 24  2  1  0
 23 15  1  0
 22 17  1  0
  1 25  1  0
  1 26  1  0
  1 27  1  0
  3 28  1  0
  5 29  1  0
  5 30  1  0
  6 31  1  0
  7 32  1  0
  7 33  1  0
  7 34  1  0
  8 35  1  0
  8 36  1  0
  8 37  1  0
  9 38  1  0
 14 39  1  0
 14 40  1  0
 16 41  1  0
 18 42  1  0
 19 43  1  0
 20 44  1  0
 21 45  1  0
 23 46  1  0
M  CHG  2   6   1  13  -1
M  END
>  <UniqueID>  (17) 
16

>  <SMILES>  (17) 
Cc1cc(C[NH+](C)C)cc(C(=O)[N-]Cc2cc3ccccc3[nH]2)n1

>  <Energy>  (17) 
77.88983984566238

>  <Genealogy>  (17) 
Cc1cc(C[NH+](C)C)cc(C(=O)[N-]Cc2cc3ccccc3[nH]2)n1 (protonated)
Cc1cc(C[NH+](C)C)cc(C(=O)[N-]Cc2cc3ccccc3[nH]2)n1 (3D coordinates assigned)
Cc1cc(C[NH+](C)C)cc(C(=O)[N-]Cc2cc3ccccc3[nH]2)n1 (optimized conformer: 77.88983984566238 kcal/mol)

>  <smiles>  (17) 
Cc1cc(CN(C)C)cc(C(=O)NCc2cc3ccccc3[nH]2)n1

>  <score_type>  (17) 
oracle

>  <origin>  (17) 
adgpu

>  <m_score__min__energy>  (17) 
-9.7200000000000006

>  <m_primary>  (17) 
energy

$$$$
17:0
     RDKit          3D

 48 50  0  0  0  0  0  0  0  0999 V2000
   -6.1860   16.6460  -33.6090 C   0  0  0  0  0  0  0  0  0  0  0  0
   -6.7350   17.9580  -33.1330 C   0  0  0  0  0  0  0  0  0  0  0  0
   -6.1660   19.1630  -33.5710 C   0  0  0  0  0  0  0  0  0  0  0  0
   -6.6520   20.3860  -33.0980 C   0  0  0  0  0  0  0  0  0  0  0  0
   -7.6990   20.4150  -32.1670 C   0  0  0  0  0  0  0  0  0  0  0  0
   -8.3140   21.9570  -31.5790 S   0  0  0  0  0  0  0  0  0  0  0  0
   -9.7350   22.1240  -32.0380 O   0  0  0  0  0  0  0  0  0  0  0  0
   -8.2520   21.9820  -30.0770 O   0  0  0  0  0  0  0  0  0  0  0  0
   -7.3330   23.2410  -32.2100 N   0  0  0  0  0  0  0  0  0  0  0  0
   -6.1650   23.7780  -31.5760 C   0  0  0  0  0  0  0  0  0  0  0  0
   -6.0980   25.1110  -31.1430 C   0  0  0  0  0  0  0  0  0  0  0  0
   -4.9410   25.5920  -30.5290 C   0  0  0  0  0  0  0  0  0  0  0  0
   -3.8380   24.7550  -30.3380 C   0  0  0  0  0  0  0  0  0  0  0  0
   -2.7060   25.2830  -29.7250 O   0  0  0  0  0  0  0  0  0  0  0  0
   -3.8850   23.4080  -30.7670 C   0  0  0  0  0  0  0  0  0  0  0  0
   -2.7370   22.4780  -30.5830 C   0  0  0  0  0  0  0  0  0  0  0  0
   -1.6820   22.6440  -31.2530 O   0  0  0  0  0  0  0  0  0  0  0  0
   -2.8150   21.3890  -29.6540 N   0  0  0  0  0  0  0  0  0  0  0  0
   -2.2270   21.4220  -28.3170 C   0  0  1  0  0  0  0  0  0  0  0  0
   -0.7300   21.1320  -28.4130 C   0  0  0  0  0  0  0  0  0  0  0  0
   -2.4640   22.7680  -27.6650 C   0  0  0  0  0  0  0  0  0  0  0  0
   -1.3740   23.5610  -27.2660 C   0  0  0  0  0  0  0  0  0  0  0  0
   -1.5880   24.8100  -26.6770 C   0  0  0  0  0  0  0  0  0  0  0  0
   -2.8880   25.2830  -26.4880 C   0  0  0  0  0  0  0  0  0  0  0  0
   -3.9800   24.5080  -26.8890 C   0  0  0  0  0  0  0  0  0  0  0  0
   -3.7710   23.2580  -27.4800 C   0  0  0  0  0  0  0  0  0  0  0  0
   -5.0610   22.9390  -31.3850 C   0  0  0  0  0  0  0  0  0  0  0  0
   -8.2630   19.2130  -31.7200 C   0  0  0  0  0  0  0  0  0  0  0  0
   -7.7770   17.9890  -32.1930 C   0  0  0  0  0  0  0  0  0  0  0  0
   -5.9247   16.0216  -32.7419 H   0  0  0  0  0  0  0  0  0  0  0  0
   -6.9438   16.1304  -34.2171 H   0  0  0  0  0  0  0  0  0  0  0  0
   -5.2868   16.8238  -34.2171 H   0  0  0  0  0  0  0  0  0  0  0  0
   -5.3336   19.1459  -34.2899 H   0  0  0  0  0  0  0  0  0  0  0  0
   -6.2114   21.3275  -33.4576 H   0  0  0  0  0  0  0  0  0  0  0  0
   -6.9600   25.7787  -31.2880 H   0  0  0  0  0  0  0  0  0  0  0  0
   -4.8966   26.6383  -30.1926 H   0  0  0  0  0  0  0  0  0  0  0  0
   -2.7059   20.6522  -27.6941 H   0  0  0  0  0  0  0  0  0  0  0  0
   -0.3068   21.0500  -27.4010 H   0  0  0  0  0  0  0  0  0  0  0  0
   -0.5735   20.1868  -28.9536 H   0  0  0  0  0  0  0  0  0  0  0  0
   -0.2319   21.9504  -28.9536 H   0  0  0  0  0  0  0  0  0  0  0  0
   -0.3474   23.1965  -27.4182 H   0  0  0  0  0  0  0  0  0  0  0  0
   -0.7302   25.4220  -26.3615 H   0  0  0  0  0  0  0  0  0  0  0  0
   -3.0530   26.2662  -26.0232 H   0  0  0  0  0  0  0  0  0  0  0  0
   -5.0038   24.8814  -26.7397 H   0  0  0  0  0  0  0  0  0  0  0  0
   -4.6323   22.6543  -27.8021 H   0  0  0  0  0  0  0  0  0  0  0  0
   -5.1126   21.8937  -31.7238 H   0  0  0  0  0  0  0  0  0  0  0  0
   -9.0902   19.2315  -30.9952 H   0  0  0  0  0  0  0  0  0  0  0  0
   -8.2131   17.0478  -31.8269 H   0  0  0  0  0  0  0  0  0  0  0  0
  1  2  1  0
  2  3  2  0
  3  4  1  0
  4  5  2  0
  5  6  1  0
  6  7  2  0
  6  8  2  0
  6  9  1  0
  9 10  1  0
 10 11  2  0
 11 12  1  0
 12 13  2  0
 13 14  1  0
 13 15  1  0
 15 16  1  0
 16 17  2  0
 16 18  1  0
 18 19  1  0
 19 20  1  0
 19 21  1  0
 21 22  2  0
 22 23  1  0
 23 24  2  0
 24 25  1  0
 25 26  2  0
 15 27  2  0
  5 28  1  0
 28 29  2  0
 29  2  1  0
 27 10  1  0
 26 21  1  0
  1 30  1  0
  1 31  1  0
  1 32  1  0
  3 33  1  0
  4 34  1  0
 11 35  1  0
 12 36  1  0
 19 37  1  1
 20 38  1  0
 20 39  1  0
 20 40  1  0
 22 41  1  0
 23 42  1  0
 24 43  1  0
 25 44  1  0
 26 45  1  0
 27 46  1  0
 28 47  1  0
 29 48  1  0
M  CHG  3   9  -1  14  -1  18  -1
M  END
>  <UniqueID>  (18) 
17

>  <SMILES>  (18) 
Cc1ccc(S(=O)(=O)[N-]c2ccc([O-])c(C(=O)[N-][C@@H](C)c3ccccc3)c2)cc1

>  <Energy>  (18) 
52.494508553133166

>  <Genealogy>  (18) 
Cc1ccc(S(=O)(=O)[N-]c2ccc([O-])c(C(=O)[N-]C(C)c3ccccc3)c2)cc1 (protonated)
Cc1ccc(S(=O)(=O)[N-]c2ccc([O-])c(C(=O)[N-][C@@H](C)c3ccccc3)c2)cc1 (chirality)
Cc1ccc(S(=O)(=O)[N-]c2ccc([O-])c(C(=O)[N-][C@@H](C)c3ccccc3)c2)cc1 (3D coordinates assigned)
Cc1ccc(S(=O)(=O)[N-]c2ccc([O-])c(C(=O)[N-][C@@H](C)c3ccccc3)c2)cc1 (optimized conformer: 52.494508553133166 kcal/mol)

>  <smiles>  (18) 
Cc1ccc(S(=O)(=O)Nc2ccc(O)c(C(=O)NC(C)c3ccccc3)c2)cc1

>  <score_type>  (18) 
oracle

>  <origin>  (18) 
adgpu

>  <m_score__min__energy>  (18) 
-13.529999999999999

>  <m_primary>  (18) 
energy

$$$$
18:0
     RDKit          3D

 48 50  0  0  0  0  0  0  0  0999 V2000
   -3.8540   24.5350  -26.8100 C   0  0  0  0  0  0  0  0  0  0  0  0
   -3.8480   23.4710  -27.6170 C   0  0  0  0  0  0  0  0  0  0  0  0
   -2.7070   23.1900  -28.5550 C   0  0  0  0  0  0  0  0  0  0  0  0
   -3.1950   22.9390  -29.9190 N   0  0  0  0  0  0  0  0  0  0  0  0
   -4.1460   23.8450  -30.5110 C   0  0  0  0  0  0  0  0  0  0  0  0
   -3.8730   25.0730  -30.5880 O   0  0  0  0  0  0  0  0  0  0  0  0
   -5.4470   23.3620  -31.0260 C   0  0  0  0  0  0  0  0  0  0  0  0
   -6.6020   24.1510  -30.8990 C   0  0  0  0  0  0  0  0  0  0  0  0
   -7.8330   23.6800  -31.3640 C   0  0  0  0  0  0  0  0  0  0  0  0
   -7.9230   22.4170  -31.9500 C   0  0  0  0  0  0  0  0  0  0  0  0
   -6.7800   21.6160  -32.0790 C   0  0  0  0  0  0  0  0  0  0  0  0
   -6.9060   19.9930  -32.7570 S   0  0  0  0  0  0  0  0  0  0  0  0
   -8.0340   19.2730  -32.0710 O   0  0  0  0  0  0  0  0  0  0  0  0
   -7.2530   20.0970  -34.2170 O   0  0  0  0  0  0  0  0  0  0  0  0
   -5.4310   19.0600  -32.5740 N   0  0  0  0  0  0  0  0  0  0  0  0
   -5.6840   17.7230  -31.9960 C   0  0  0  0  0  0  0  0  0  0  0  0
   -6.1730   16.6870  -33.0380 C   0  0  0  0  0  0  0  0  0  0  0  0
   -6.0940   17.1540  -34.3700 O   0  0  0  0  0  0  0  0  0  0  0  0
   -4.8170   17.6990  -34.6060 C   0  0  0  0  0  0  0  0  0  0  0  0
   -4.6370   19.0120  -33.8270 C   0  0  0  0  0  0  0  0  0  0  0  0
   -5.5400   22.1020  -31.6390 C   0  0  0  0  0  0  0  0  0  0  0  0
   -2.6870   21.8250  -30.6810 C   0  0  0  0  0  0  0  0  0  0  0  0
   -3.3350   20.6420  -30.7960 N   0  0  0  0  0  0  0  0  0  0  0  0
   -2.6920   19.7600  -31.5580 N   0  0  0  0  0  0  0  0  0  0  0  0
   -1.5220   20.2280  -32.0470 C   0  0  0  0  0  0  0  0  0  0  0  0
   -0.6550   19.4590  -32.9840 C   0  0  0  0  0  0  0  0  0  0  0  0
   -1.2470   21.8180  -31.5640 S   0  0  0  0  0  0  0  0  0  0  0  0
   -4.7059   24.7095  -26.1363 H   0  0  0  0  0  0  0  0  0  0  0  0
   -3.0071   25.2369  -26.8190 H   0  0  0  0  0  0  0  0  0  0  0  0
   -4.7033   22.7796  -27.5948 H   0  0  0  0  0  0  0  0  0  0  0  0
   -2.0309   24.0576  -28.5689 H   0  0  0  0  0  0  0  0  0  0  0  0
   -2.1765   22.2932  -28.2023 H   0  0  0  0  0  0  0  0  0  0  0  0
   -6.5374   25.1445  -30.4313 H   0  0  0  0  0  0  0  0  0  0  0  0
   -8.7323   24.3061  -31.2678 H   0  0  0  0  0  0  0  0  0  0  0  0
   -8.8942   22.0486  -32.3120 H   0  0  0  0  0  0  0  0  0  0  0  0
   -4.8650   19.5900  -31.8700 H   0  0  0  0  0  0  0  0  0  0  0  0
   -4.7494   17.3536  -31.5486 H   0  0  0  0  0  0  0  0  0  0  0  0
   -6.4843   17.8370  -31.2500 H   0  0  0  0  0  0  0  0  0  0  0  0
   -5.5540   15.7822  -32.9479 H   0  0  0  0  0  0  0  0  0  0  0  0
   -7.2334   16.4864  -32.8253 H   0  0  0  0  0  0  0  0  0  0  0  0
   -4.0511   16.9788  -34.2825 H   0  0  0  0  0  0  0  0  0  0  0  0
   -4.7134   17.9073  -35.6811 H   0  0  0  0  0  0  0  0  0  0  0  0
   -3.5730   19.1243  -33.5715 H   0  0  0  0  0  0  0  0  0  0  0  0
   -4.9943   19.8277  -34.4727 H   0  0  0  0  0  0  0  0  0  0  0  0
   -4.6346   21.4923  -31.7750 H   0  0  0  0  0  0  0  0  0  0  0  0
    0.0461   18.8371  -32.4081 H   0  0  0  0  0  0  0  0  0  0  0  0
   -1.2816   18.8142  -33.6178 H   0  0  0  0  0  0  0  0  0  0  0  0
   -0.0896   20.1581  -33.6178 H   0  0  0  0  0  0  0  0  0  0  0  0
  1  2  2  0
  2  3  1  0
  3  4  1  0
  4  5  1  0
  5  6  2  0
  5  7  1  0
  7  8  2  0
  8  9  1  0
  9 10  2  0
 10 11  1  0
 11 12  1  0
 12 13  2  0
 12 14  2  0
 12 15  1  0
 15 16  1  0
 16 17  1  0
 17 18  1  0
 18 19  1  0
 19 20  1  0
 11 21  2  0
  4 22  1  0
 22 23  2  0
 23 24  1  0
 24 25  2  0
 25 26  1  0
 25 27  1  0
 21  7  1  0
 27 22  1  0
 20 15  1  0
  1 28  1  0
  1 29  1  0
  2 30  1  0
  3 31  1  0
  3 32  1  0
  8 33  1  0
  9 34  1  0
 10 35  1  0
 15 36  1  0
 16 37  1  0
 16 38  1  0
 17 39  1  0
 17 40  1  0
 19 41  1  0
 19 42  1  0
 20 43  1  0
 20 44  1  0
 21 45  1  0
 26 46  1  0
 26 47  1  0
 26 48  1  0
M  CHG  1  15   1
M  END
>  <UniqueID>  (19) 
18

>  <SMILES>  (19) 
C=CCN(C(=O)c1cccc(S(=O)(=O)[NH+]2CCOCC2)c1)c1nnc(C)s1

>  <Energy>  (19) 
94.38701944708491

>  <Genealogy>  (19) 
C=CCN(C(=O)c1cccc(S(=O)(=O)[NH+]2CCOCC2)c1)c1nnc(C)s1 (protonated)
C=CCN(C(=O)c1cccc(S(=O)(=O)[NH+]2CCOCC2)c1)c1nnc(C)s1 (3D coordinates assigned)
C=CCN(C(=O)c1cccc(S(=O)(=O)[NH+]2CCOCC2)c1)c1nnc(C)s1 (nonaromatic ring conformer: 94.38701944708491 kcal/mol)

>  <smiles>  (19) 
C=CCN(C(=O)c1cccc(S(=O)(=O)N2CCOCC2)c1)c1nnc(C)s1

>  <score_type>  (19) 
oracle

>  <origin>  (19) 
adgpu

>  <m_score__min__energy>  (19) 
-8.6799999999999997

>  <m_primary>  (19) 
energy

$$$$
19:0
     RDKit          3D

 58 61  0  0  1  0  0  0  0  0999 V2000
   -2.4040   21.1480  -32.1620 C   0  0  0  0  0  0  0  0  0  0  0  0
   -2.9140   21.9460  -31.0930 O   0  0  0  0  0  0  0  0  0  0  0  0
   -4.2400   22.3570  -31.1670 C   0  0  0  0  0  0  0  0  0  0  0  0
   -5.2680   21.5130  -31.5510 C   0  0  0  0  0  0  0  0  0  0  0  0
   -6.5760   21.9210  -31.6240 C   0  0  0  0  0  0  0  0  0  0  0  0
   -7.5770   20.9950  -32.0280 N   0  0  0  0  0  0  0  0  0  0  0  0
   -7.2000   19.6050  -32.1090 C   0  0  0  0  0  0  0  0  0  0  0  0
   -8.2420   18.7140  -32.6820 C   0  0  0  0  0  0  0  0  0  0  0  0
   -9.4400   19.3490  -33.1290 N   0  0  0  0  0  0  0  0  0  0  0  0
   -9.8660   20.3350  -32.1360 C   0  0  0  0  0  0  0  0  0  0  0  0
   -8.8900   21.5040  -32.3260 C   0  0  0  0  0  0  0  0  0  0  0  0
   -6.8480   23.2320  -31.2940 C   0  0  0  0  0  0  0  0  0  0  0  0
   -5.8280   24.0770  -30.9100 C   0  0  0  0  0  0  0  0  0  0  0  0
   -4.5100   23.6820  -30.8330 C   0  0  0  0  0  0  0  0  0  0  0  0
   -3.4540   24.5480  -30.4380 N   0  0  0  0  0  0  0  0  0  0  0  0
   -2.6350   24.2800  -29.4780 C   0  0  0  0  0  0  0  0  0  0  0  0
   -2.7550   23.1360  -28.7920 N   0  0  0  0  0  0  0  0  0  0  0  0
   -1.9050   22.8590  -27.7940 C   0  0  0  0  0  0  0  0  0  0  0  0
   -0.9220   23.7390  -27.4790 C   0  0  0  0  0  0  0  0  0  0  0  0
    0.1800   23.3860  -26.1910 Cl  0  0  0  0  0  0  0  0  0  0  0  0
   -0.8260   24.9050  -28.2020 C   0  0  0  0  0  0  0  0  0  0  0  0
    0.0780   25.7480  -27.9350 N   0  0  0  0  0  0  0  0  0  0  0  0
    1.0730   25.6560  -26.9290 C   0  0  0  0  0  0  0  0  0  0  0  0
    2.3020   25.0670  -27.2630 C   0  0  0  0  0  0  0  0  0  0  0  0
    3.3050   24.9370  -26.3120 C   0  0  0  0  0  0  0  0  0  0  0  0
    4.5050   24.3740  -26.5930 F   0  0  0  0  0  0  0  0  0  0  0  0
    3.0870   25.3930  -25.0190 C   0  0  0  0  0  0  0  0  0  0  0  0
    1.8790   25.9740  -24.6820 C   0  0  0  0  0  0  0  0  0  0  0  0
    0.8530   26.1180  -25.6220 C   0  0  0  0  0  0  0  0  0  0  0  0
   -0.6650   26.8470  -25.2010 S   0  0  0  0  0  0  0  0  0  0  0  0
   -0.8550   27.0060  -23.4290 C   0  0  0  0  0  0  0  0  0  0  0  0
   -1.8500   26.1310  -25.7610 O   0  0  0  0  0  0  0  0  0  0  0  0
   -0.6860   28.2460  -25.7500 O   0  0  0  0  0  0  0  0  0  0  0  0
   -1.6860   25.1970  -29.2180 N   0  0  0  0  0  0  0  0  0  0  0  0
   -1.8550   20.2890  -31.7487 H   0  0  0  0  0  0  0  0  0  0  0  0
   -3.2389   20.7865  -32.7803 H   0  0  0  0  0  0  0  0  0  0  0  0
   -1.7253   21.7538  -32.7803 H   0  0  0  0  0  0  0  0  0  0  0  0
   -5.0260   20.4713  -31.8085 H   0  0  0  0  0  0  0  0  0  0  0  0
   -6.3005   19.5295  -32.7376 H   0  0  0  0  0  0  0  0  0  0  0  0
   -7.0339   19.2662  -31.0757 H   0  0  0  0  0  0  0  0  0  0  0  0
   -7.7993   18.1900  -33.5419 H   0  0  0  0  0  0  0  0  0  0  0  0
   -8.5495   18.0537  -31.8577 H   0  0  0  0  0  0  0  0  0  0  0  0
   -9.4180   19.7400  -34.0730 H   0  0  0  0  0  0  0  0  0  0  0  0
  -10.9012   20.6562  -32.3239 H   0  0  0  0  0  0  0  0  0  0  0  0
   -9.8514   19.9354  -31.1113 H   0  0  0  0  0  0  0  0  0  0  0  0
   -8.9300   21.8672  -33.3635 H   0  0  0  0  0  0  0  0  0  0  0  0
   -9.1476   22.3472  -31.6683 H   0  0  0  0  0  0  0  0  0  0  0  0
   -7.8819   23.6050  -31.3372 H   0  0  0  0  0  0  0  0  0  0  0  0
   -6.0786   25.1167  -30.6527 H   0  0  0  0  0  0  0  0  0  0  0  0
   -3.5090   22.4660  -29.0380 H   0  0  0  0  0  0  0  0  0  0  0  0
   -2.0042   21.9193  -27.2309 H   0  0  0  0  0  0  0  0  0  0  0  0
    2.4723   24.7050  -28.2877 H   0  0  0  0  0  0  0  0  0  0  0  0
    3.8776   25.2917  -24.2609 H   0  0  0  0  0  0  0  0  0  0  0  0
    1.7211   26.3305  -23.6534 H   0  0  0  0  0  0  0  0  0  0  0  0
   -0.1063   26.3794  -22.9223 H   0  0  0  0  0  0  0  0  0  0  0  0
   -0.7114   28.0570  -23.1377 H   0  0  0  0  0  0  0  0  0  0  0  0
   -1.8642   26.6794  -23.1377 H   0  0  0  0  0  0  0  0  0  0  0  0
   -1.6040   26.0750  -29.7540 H   0  0  0  0  0  0  0  0  0  0  0  0
  1  2  1  0
  2  3  1  0
  3  4  2  0
  4  5  1  0
  5  6  1  0
  6  7  1  0
  7  8  1  0
  8  9  1  0
  9 10  1  0
 10 11  1  0
  5 12  2  0
 12 13  1  0
 13 14  2  0
 14 15  1  0
 15 16  2  0
 16 17  1  0
 17 18  1  0
 18 19  2  0
 19 20  1  0
 19 21  1  0
 21 22  2  0
 22 23  1  0
 23 24  2  0
 24 25  1  0
 25 26  1  0
 25 27  2  0
 27 28  1  0
 28 29  2  0
 29 30  1  0
 30 31  1  0
 30 32  2  0
 30 33  2  0
 21 34  1  0
 14  3  1  0
 34 16  1  0
 11  6  1  0
 29 23  1  0
  1 35  1  0
  1 36  1  0
  1 37  1  0
  4 38  1  0
  7 39  1  0
  7 40  1  0
  8 41  1  0
  8 42  1  0
  9 43  1  0
 10 44  1  0
 10 45  1  0
 11 46  1  0
 11 47  1  0
 12 48  1  0
 13 49  1  0
 17 50  1  0
 18 51  1  0
 24 52  1  0
 27 53  1  0
 28 54  1  0
 31 55  1  0
 31 56  1  0
 31 57  1  0
 34 58  1  0
M  END
>  <smiles>  (20) 
COc1cc(N2CCNCC2)ccc1N=c1[nH]cc(Cl)c(=Nc2cc(F)ccc2S(C)(=O)=O)[nH]1

>  <score_type>  (20) 
oracle

>  <origin>  (20) 
adgpu

>  <m_score__min__energy>  (20) 
-10.52

>  <m_primary>  (20) 
energy

$$$$
20:0
     RDKit          3D

 33 33  0  0  0  0  0  0  0  0999 V2000
   -6.1090   25.3120  -30.2980 C   0  0  0  0  0  0  0  0  0  0  0  0
   -5.1150   24.2460  -30.4520 N   0  0  0  0  0  0  0  0  0  0  0  0
   -3.7920   24.3640  -29.8320 C   0  0  0  0  0  0  0  0  0  0  0  0
   -5.4410   23.0710  -31.2200 C   0  0  0  0  0  0  0  0  0  0  0  0
   -6.7250   22.6340  -31.2950 N   0  0  0  0  0  0  0  0  0  0  0  0
   -7.0400   21.5260  -32.0180 C   0  0  0  0  0  0  0  0  0  0  0  0
   -8.4040   21.0700  -32.0930 N   0  0  0  0  0  0  0  0  0  0  0  0
   -9.4850   21.9210  -31.5860 C   0  0  0  0  0  0  0  0  0  0  0  0
   -8.7000   19.7570  -32.6750 C   0  0  0  0  0  0  0  0  0  0  0  0
   -6.0540   20.8550  -32.6690 N   0  0  0  0  0  0  0  0  0  0  0  0
   -4.7650   21.2800  -32.6030 C   0  0  0  0  0  0  0  0  0  0  0  0
   -3.7260   20.5630  -33.2960 N   0  0  0  0  0  0  0  0  0  0  0  0
   -2.4010   21.1720  -33.4530 C   0  0  0  0  0  0  0  0  0  0  0  0
   -4.0000   19.2290  -33.8390 C   0  0  0  0  0  0  0  0  0  0  0  0
   -4.4660   22.3890  -31.8760 N   0  0  0  0  0  0  0  0  0  0  0  0
   -6.2834   25.4990  -29.2281 H   0  0  0  0  0  0  0  0  0  0  0  0
   -5.7380   26.2311  -30.7751 H   0  0  0  0  0  0  0  0  0  0  0  0
   -7.0517   25.0060  -30.7751 H   0  0  0  0  0  0  0  0  0  0  0  0
   -3.8980   24.3545  -28.7372 H   0  0  0  0  0  0  0  0  0  0  0  0
   -3.1628   23.5184  -30.1468 H   0  0  0  0  0  0  0  0  0  0  0  0
   -3.3224   25.3076  -30.1468 H   0  0  0  0  0  0  0  0  0  0  0  0
   -9.4736   21.9120  -30.4861 H   0  0  0  0  0  0  0  0  0  0  0  0
   -9.3407   22.9504  -31.9458 H   0  0  0  0  0  0  0  0  0  0  0  0
  -10.4518   21.5390  -31.9458 H   0  0  0  0  0  0  0  0  0  0  0  0
   -8.8645   19.0272  -31.8686 H   0  0  0  0  0  0  0  0  0  0  0  0
   -9.6049   19.8270  -33.2965 H   0  0  0  0  0  0  0  0  0  0  0  0
   -7.8526   19.4319  -33.2965 H   0  0  0  0  0  0  0  0  0  0  0  0
   -1.9689   21.3706  -32.4611 H   0  0  0  0  0  0  0  0  0  0  0  0
   -1.7451   20.4850  -34.0078 H   0  0  0  0  0  0  0  0  0  0  0  0
   -2.4953   22.1171  -34.0078 H   0  0  0  0  0  0  0  0  0  0  0  0
   -4.1458   18.5191  -33.0115 H   0  0  0  0  0  0  0  0  0  0  0  0
   -4.9097   19.2642  -34.4565 H   0  0  0  0  0  0  0  0  0  0  0  0
   -3.1501   18.9028  -34.4565 H   0  0  0  0  0  0  0  0  0  0  0  0
  1  2  1  0
  2  3  1  0
  2  4  1  0
  4  5  2  0
  5  6  1  0
  6  7  1  0
  7  8  1  0
  7  9  1  0
  6 10  2  0
 10 11  1  0
 11 12  1  0
 12 13  1  0
 12 14  1  0
 11 15  2  0
 15  4  1  0
  1 16  1  0
  1 17  1  0
  1 18  1  0
  3 19  1  0
  3 20  1  0
  3 21  1  0
  8 22  1  0
  8 23  1  0
  8 24  1  0
  9 25  1  0
  9 26  1  0
  9 27  1  0
 13 28  1  0
 13 29  1  0
 13 30  1  0
 14 31  1  0
 14 32  1  0
 14 33  1  0
M  END
>  <UniqueID>  (21) 
19

>  <SMILES>  (21) 
CN(C)c1nc(N(C)C)nc(N(C)C)n1

>  <Energy>  (21) 
21.750317233456222

>  <Genealogy>  (21) 
CN(C)c1nc(N(C)C)nc(N(C)C)n1 (3D coordinates assigned)
CN(C)c1nc(N(C)C)nc(N(C)C)n1 (optimized conformer: 21.750317233456222 kcal/mol)

>  <smiles>  (21) 
CN(C)c1nc(N(C)C)nc(N(C)C)n1

>  <score_type>  (21) 
oracle

>  <origin>  (21) 
adgpu

>  <m_score__min__energy>  (21) 
-4.1500000000000004

>  <m_primary>  (21) 
energy

$$$$
21:0
     RDKit          3D

 43 45  0  0  0  0  0  0  0  0999 V2000
    0.0950   25.3510  -24.8450 C   0  0  0  0  0  0  0  0  0  0  0  0
    0.5120   25.6110  -26.2870 C   0  0  0  0  0  0  0  0  0  0  0  0
   -0.6120   25.3080  -27.2240 C   0  0  0  0  0  0  0  0  0  0  0  0
   -0.5560   25.5350  -28.5560 N   0  0  0  0  0  0  0  0  0  0  0  0
   -1.6930   25.2490  -29.1860 N   0  0  0  0  0  0  0  0  0  0  0  0
   -2.6570   24.7960  -28.3530 C   0  0  0  0  0  0  0  0  0  0  0  0
   -3.8610   24.4800  -28.7280 N   0  0  0  0  0  0  0  0  0  0  0  0
   -4.3390   24.4730  -30.0820 C   0  0  0  0  0  0  0  0  0  0  0  0
   -3.9040   25.3460  -30.8780 O   0  0  0  0  0  0  0  0  0  0  0  0
   -5.3650   23.5130  -30.5540 C   0  0  0  0  0  0  0  0  0  0  0  0
   -5.0630   22.1460  -30.6870 C   0  0  0  0  0  0  0  0  0  0  0  0
   -6.0380   21.2460  -31.1260 C   0  0  0  0  0  0  0  0  0  0  0  0
   -7.3300   21.6940  -31.4240 C   0  0  0  0  0  0  0  0  0  0  0  0
   -8.5390   20.5490  -32.0010 S   0  0  0  0  0  0  0  0  0  0  0  0
   -9.1120   19.8180  -30.8170 O   0  0  0  0  0  0  0  0  0  0  0  0
   -9.6530   21.2810  -32.6980 O   0  0  0  0  0  0  0  0  0  0  0  0
   -7.7960   19.4120  -33.1000 N   0  0  0  0  0  0  0  0  0  0  0  0
   -6.6290   20.0410  -33.7570 C   0  0  0  0  0  0  0  0  0  0  0  0
   -5.6580   18.9710  -34.2820 C   0  0  0  0  0  0  0  0  0  0  0  0
   -5.1380   18.1110  -33.2750 O   0  0  0  0  0  0  0  0  0  0  0  0
   -5.9460   18.0410  -32.1080 C   0  0  0  0  0  0  0  0  0  0  0  0
   -7.4520   18.1440  -32.4070 C   0  0  0  0  0  0  0  0  0  0  0  0
   -7.6420   23.0520  -31.2770 C   0  0  0  0  0  0  0  0  0  0  0  0
   -6.6680   23.9540  -30.8380 C   0  0  0  0  0  0  0  0  0  0  0  0
   -2.1340   24.7500  -26.7570 S   0  0  0  0  0  0  0  0  0  0  0  0
    0.8276   25.8078  -24.1634 H   0  0  0  0  0  0  0  0  0  0  0  0
   -0.8971   25.7909  -24.6652 H   0  0  0  0  0  0  0  0  0  0  0  0
    0.0533   24.2666  -24.6652 H   0  0  0  0  0  0  0  0  0  0  0  0
    0.7978   26.6677  -26.3954 H   0  0  0  0  0  0  0  0  0  0  0  0
    1.3630   24.9587  -26.5324 H   0  0  0  0  0  0  0  0  0  0  0  0
   -4.0535   21.7829  -30.4441 H   0  0  0  0  0  0  0  0  0  0  0  0
   -5.7887   20.1805  -31.2378 H   0  0  0  0  0  0  0  0  0  0  0  0
   -8.5060   19.1970  -33.8380 H   0  0  0  0  0  0  0  0  0  0  0  0
   -6.9774   20.6567  -34.5993 H   0  0  0  0  0  0  0  0  0  0  0  0
   -6.1023   20.6649  -33.0199 H   0  0  0  0  0  0  0  0  0  0  0  0
   -6.1908   18.3544  -35.0209 H   0  0  0  0  0  0  0  0  0  0  0  0
   -4.8000   19.5072  -34.7137 H   0  0  0  0  0  0  0  0  0  0  0  0
   -5.7539   17.0809  -31.6067 H   0  0  0  0  0  0  0  0  0  0  0  0
   -5.6791   18.8989  -31.4734 H   0  0  0  0  0  0  0  0  0  0  0  0
   -7.7458   17.2987  -33.0466 H   0  0  0  0  0  0  0  0  0  0  0  0
   -7.9910   18.1235  -31.4483 H   0  0  0  0  0  0  0  0  0  0  0  0
   -8.6563   23.4096  -31.5077 H   0  0  0  0  0  0  0  0  0  0  0  0
   -6.9240   25.0166  -30.7141 H   0  0  0  0  0  0  0  0  0  0  0  0
  1  2  1  0
  2  3  1  0
  3  4  2  0
  4  5  1  0
  5  6  1  0
  6  7  2  3
  7  8  1  0
  8  9  2  0
  8 10  1  0
 10 11  2  0
 11 12  1  0
 12 13  2  0
 13 14  1  0
 14 15  2  0
 14 16  2  0
 14 17  1  0
 17 18  1  0
 18 19  1  0
 19 20  1  0
 20 21  1  0
 21 22  1  0
 13 23  1  0
 23 24  2  0
  6 25  1  0
 25  3  1  0
 24 10  1  0
 22 17  1  0
  1 26  1  0
  1 27  1  0
  1 28  1  0
  2 29  1  0
  2 30  1  0
 11 31  1  0
 12 32  1  0
 17 33  1  0
 18 34  1  0
 18 35  1  0
 19 36  1  0
 19 37  1  0
 21 38  1  0
 21 39  1  0
 22 40  1  0
 22 41  1  0
 23 42  1  0
 24 43  1  0
M  CHG  2   5  -1  17   1
M  END
>  <UniqueID>  (22) 
20

>  <SMILES>  (22) 
CCc1n[n-]c(=NC(=O)c2ccc(S(=O)(=O)[NH+]3CCOCC3)cc2)s1

>  <Energy>  (22) 
93.7380320938309

>  <Genealogy>  (22) 
CCc1n[n-]c(=NC(=O)c2ccc(S(=O)(=O)[NH+]3CCOCC3)cc2)s1 (protonated)
CCc1n[n-]c(=NC(=O)c2ccc(S(=O)(=O)[NH+]3CCOCC3)cc2)s1 (3D coordinates assigned)
CCc1n[n-]c(=NC(=O)c2ccc(S(=O)(=O)[NH+]3CCOCC3)cc2)s1 (nonaromatic ring conformer: 93.7380320938309 kcal/mol)

>  <smiles>  (22) 
CCc1n[nH]c(=NC(=O)c2ccc(S(=O)(=O)N3CCOCC3)cc2)s1

>  <score_type>  (22) 
oracle

>  <origin>  (22) 
adgpu

>  <m_score__min__energy>  (22) 
-10.550000000000001

>  <m_primary>  (22) 
energy

$$$$
22:0
     RDKit          3D

 68 74  0  0  0  0  0  0  0  0999 V2000
    1.9910   19.6760  -31.6900 O   0  0  0  0  0  0  0  0  0  0  0  0
    0.9450   20.0460  -32.2910 C   0  0  0  0  0  0  0  0  0  0  0  0
    1.0370   20.6070  -33.5740 C   0  0  0  0  0  0  0  0  0  0  0  0
    2.2680   20.8020  -34.2280 C   0  0  0  0  0  0  0  0  0  0  0  0
    2.3010   21.3760  -35.5020 C   0  0  0  0  0  0  0  0  0  0  0  0
    1.1130   21.7560  -36.1320 C   0  0  0  0  0  0  0  0  0  0  0  0
   -0.1140   21.5600  -35.4930 C   0  0  0  0  0  0  0  0  0  0  0  0
   -0.1540   20.9880  -34.2170 C   0  0  0  0  0  0  0  0  0  0  0  0
   -1.3430   20.7970  -33.5990 N   0  0  0  0  0  0  0  0  0  0  0  0
   -1.4270   20.2680  -32.3500 C   0  0  0  0  0  0  0  0  0  0  0  0
   -2.8030   20.0680  -31.7470 C   0  0  0  0  0  0  0  0  0  0  0  0
   -3.7490   19.3790  -32.7080 C   0  0  0  0  0  0  0  0  0  0  0  0
   -3.1960   18.6700  -33.7920 C   0  0  0  0  0  0  0  0  0  0  0  0
   -4.0070   17.9270  -34.6510 C   0  0  0  0  0  0  0  0  0  0  0  0
   -5.3820   17.8670  -34.4340 C   0  0  0  0  0  0  0  0  0  0  0  0
   -5.9530   18.5660  -33.3730 C   0  0  0  0  0  0  0  0  0  0  0  0
   -5.1600   19.3480  -32.5190 C   0  0  0  0  0  0  0  0  0  0  0  0
   -5.8160   20.0650  -31.4590 N   0  0  0  0  0  0  0  0  0  0  0  0
   -6.9520   20.9350  -31.6250 C   0  0  0  0  0  0  0  0  0  0  0  0
   -8.2770   20.4350  -31.7220 C   0  0  0  0  0  0  0  0  0  0  0  0
   -8.6720   18.7300  -31.5420 Cl  0  0  0  0  0  0  0  0  0  0  0  0
   -9.3440   21.3200  -31.9090 C   0  0  0  0  0  0  0  0  0  0  0  0
   -9.1210   22.6950  -31.9690 C   0  0  0  0  0  0  0  0  0  0  0  0
   -7.8280   23.1980  -31.8310 C   0  0  0  0  0  0  0  0  0  0  0  0
   -6.7460   22.3290  -31.6630 C   0  0  0  0  0  0  0  0  0  0  0  0
   -5.1340   23.0190  -31.5370 Cl  0  0  0  0  0  0  0  0  0  0  0  0
   -0.2770   19.8950  -31.6900 N   0  0  0  0  0  0  0  0  0  0  0  0
   -0.3390   19.3690  -30.3800 N   0  0  0  0  0  0  0  0  0  0  0  0
   -0.8060   19.9790  -29.2700 C   0  0  0  0  0  0  0  0  0  0  0  0
   -1.3140   21.3660  -29.1900 C   0  0  0  0  0  0  0  0  0  0  0  0
   -2.6660   21.6200  -28.9040 C   0  0  0  0  0  0  0  0  0  0  0  0
   -3.1210   22.9370  -28.8300 C   0  0  0  0  0  0  0  0  0  0  0  0
   -2.2320   23.9880  -29.0470 C   0  0  0  0  0  0  0  0  0  0  0  0
   -0.8980   23.7020  -29.3510 C   0  0  0  0  0  0  0  0  0  0  0  0
   -0.4740   22.4140  -29.4160 N   0  0  0  0  0  0  0  0  0  0  0  0
   -0.8370   19.1170  -28.2310 N   0  0  0  0  0  0  0  0  0  0  0  0
   -0.4210   17.9420  -28.6810 N   0  0  0  0  0  0  0  0  0  0  0  0
   -0.1220   18.0920  -29.9880 C   0  0  0  0  0  0  0  0  0  0  0  0
    0.2290   16.9460  -30.8630 C   0  0  0  0  0  0  0  0  0  0  0  0
   -0.2640   16.9350  -32.1800 C   0  0  0  0  0  0  0  0  0  0  0  0
    0.0410   15.8840  -33.0490 C   0  0  0  0  0  0  0  0  0  0  0  0
    0.8490   14.8330  -32.6140 C   0  0  0  0  0  0  0  0  0  0  0  0
    1.3340   14.8190  -31.3050 C   0  0  0  0  0  0  0  0  0  0  0  0
    1.0090   15.8550  -30.4180 C   0  0  0  0  0  0  0  0  0  0  0  0
    1.4350   15.7770  -29.0960 O   0  0  0  0  0  0  0  0  0  0  0  0
    3.2051   20.5023  -33.7360 H   0  0  0  0  0  0  0  0  0  0  0  0
    3.2646   21.5290  -36.0100 H   0  0  0  0  0  0  0  0  0  0  0  0
    1.1439   22.2105  -37.1333 H   0  0  0  0  0  0  0  0  0  0  0  0
   -1.0482   21.8554  -35.9931 H   0  0  0  0  0  0  0  0  0  0  0  0
   -2.7073   19.4525  -30.8403 H   0  0  0  0  0  0  0  0  0  0  0  0
   -3.2187   21.0592  -31.5131 H   0  0  0  0  0  0  0  0  0  0  0  0
   -2.1100   18.7023  -33.9639 H   0  0  0  0  0  0  0  0  0  0  0  0
   -3.5604   17.3884  -35.4998 H   0  0  0  0  0  0  0  0  0  0  0  0
   -6.0176   17.2667  -35.1016 H   0  0  0  0  0  0  0  0  0  0  0  0
   -7.0380   18.5044  -33.2025 H   0  0  0  0  0  0  0  0  0  0  0  0
   -5.5060   19.8520  -30.4850 H   0  0  0  0  0  0  0  0  0  0  0  0
  -10.3669   20.9281  -32.0095 H   0  0  0  0  0  0  0  0  0  0  0  0
   -9.9651   23.3829  -32.1252 H   0  0  0  0  0  0  0  0  0  0  0  0
   -7.6584   24.2846  -31.8544 H   0  0  0  0  0  0  0  0  0  0  0  0
   -3.3624   20.7846  -28.7392 H   0  0  0  0  0  0  0  0  0  0  0  0
   -4.1767   23.1447  -28.6014 H   0  0  0  0  0  0  0  0  0  0  0  0
   -2.5761   25.0306  -28.9798 H   0  0  0  0  0  0  0  0  0  0  0  0
   -0.1899   24.5227  -29.5381 H   0  0  0  0  0  0  0  0  0  0  0  0
   -0.8972   17.7635  -32.5302 H   0  0  0  0  0  0  0  0  0  0  0  0
   -0.3556   15.8853  -34.0750 H   0  0  0  0  0  0  0  0  0  0  0  0
    1.1041   14.0145  -33.3032 H   0  0  0  0  0  0  0  0  0  0  0  0
    1.9745   13.9908  -30.9677 H   0  0  0  0  0  0  0  0  0  0  0  0
    1.0230   16.3500  -28.3690 H   0  0  0  0  0  0  0  0  0  0  0  0
  1  2  2  0
  2  3  1  0
  3  4  2  0
  4  5  1  0
  5  6  2  0
  6  7  1  0
  7  8  2  0
  8  9  1  0
  9 10  2  0
 10 11  1  0
 11 12  1  0
 12 13  2  0
 13 14  1  0
 14 15  2  0
 15 16  1  0
 16 17  2  0
 17 18  1  0
 18 19  1  0
 19 20  2  0
 20 21  1  0
 20 22  1  0
 22 23  2  0
 23 24  1  0
 24 25  2  0
 25 26  1  0
 10 27  1  0
 27 28  1  0
 28 29  1  0
 29 30  1  0
 30 31  2  0
 31 32  1  0
 32 33  2  0
 33 34  1  0
 34 35  2  0
 29 36  2  0
 36 37  1  0
 37 38  2  0
 38 39  1  0
 39 40  2  0
 40 41  1  0
 41 42  2  0
 42 43  1  0
 43 44  2  0
 44 45  1  0
 27  2  1  0
 38 28  1  0
 44 39  1  0
  8  3  1  0
 17 12  1  0
 25 19  1  0
 35 30  1  0
  4 46  1  0
  5 47  1  0
  6 48  1  0
  7 49  1  0
 11 50  1  0
 11 51  1  0
 13 52  1  0
 14 53  1  0
 15 54  1  0
 16 55  1  0
 18 56  1  0
 22 57  1  0
 23 58  1  0
 24 59  1  0
 31 60  1  0
 32 61  1  0
 33 62  1  0
 34 63  1  0
 40 64  1  0
 41 65  1  0
 42 66  1  0
 43 67  1  0
 45 68  1  0
M  END
>  <UniqueID>  (23) 
21

>  <SMILES>  (23) 
O=c1c2ccccc2nc(Cc2ccccc2Nc2c(Cl)cccc2Cl)n1-n1c(-c2ccccn2)nnc1-c1ccccc1O

>  <Energy>  (23) 
141.6777047766527

>  <Genealogy>  (23) 
O=c1c2ccccc2nc(Cc2ccccc2Nc2c(Cl)cccc2Cl)n1-n1c(-c2ccccn2)nnc1-c1ccccc1O (3D coordinates assigned)
O=c1c2ccccc2nc(Cc2ccccc2Nc2c(Cl)cccc2Cl)n1-n1c(-c2ccccn2)nnc1-c1ccccc1O (optimized conformer: 141.6777047766527 kcal/mol)

>  <smiles>  (23) 
O=c1c2ccccc2nc(Cc2ccccc2Nc2c(Cl)cccc2Cl)n1-n1c(-c2ccccn2)nnc1-c1ccccc1O

>  <score_type>  (23) 
oracle

>  <origin>  (23) 
adgpu

>  <m_score__min__energy>  (23) 
-9.8300000000000001

>  <m_primary>  (23) 
energy

$$$$
23:0
     RDKit          3D

 38 40  0  0  0  0  0  0  0  0999 V2000
   -8.1340   19.0980  -32.5060 C   0  0  0  0  0  0  0  0  0  0  0  0
   -6.9510   19.8020  -33.1630 C   0  0  0  0  0  0  0  0  0  0  0  0
   -6.6120   21.0710  -32.4270 C   0  0  0  0  0  0  0  0  0  0  0  0
   -7.6110   21.7820  -31.7450 C   0  0  0  0  0  0  0  0  0  0  0  0
   -7.2890   22.9390  -31.0290 C   0  0  0  0  0  0  0  0  0  0  0  0
   -5.9630   23.3890  -30.9770 C   0  0  0  0  0  0  0  0  0  0  0  0
   -5.5430   24.8240  -30.0460 S   0  0  0  0  0  0  0  0  0  0  0  0
   -4.5590   25.6430  -30.8320 O   0  0  0  0  0  0  0  0  0  0  0  0
   -6.7630   25.6540  -29.7670 O   0  0  0  0  0  0  0  0  0  0  0  0
   -4.8190   24.3590  -28.5400 N   0  0  0  0  0  0  0  0  0  0  0  0
   -3.6770   23.5010  -28.3980 C   0  0  0  0  0  0  0  0  0  0  0  0
   -3.7850   22.2050  -27.8600 C   0  0  0  0  0  0  0  0  0  0  0  0
   -2.6510   21.3880  -27.7510 C   0  0  0  0  0  0  0  0  0  0  0  0
   -2.7370   20.0910  -27.2260 C   0  0  0  0  0  0  0  0  0  0  0  0
   -1.5880   19.3030  -27.1310 C   0  0  0  0  0  0  0  0  0  0  0  0
   -0.3610   19.8210  -27.5610 C   0  0  0  0  0  0  0  0  0  0  0  0
    0.6820   19.1210  -27.4800 O   0  0  0  0  0  0  0  0  0  0  0  0
   -0.2920   21.0810  -28.0680 N   0  0  0  0  0  0  0  0  0  0  0  0
   -1.3950   21.8710  -28.1750 C   0  0  0  0  0  0  0  0  0  0  0  0
   -1.2870   23.1610  -28.7010 C   0  0  0  0  0  0  0  0  0  0  0  0
   -2.4220   23.9750  -28.8130 C   0  0  0  0  0  0  0  0  0  0  0  0
   -2.3110   25.2600  -29.3420 O   0  0  0  0  0  0  0  0  0  0  0  0
   -4.9630   22.6770  -31.6520 C   0  0  0  0  0  0  0  0  0  0  0  0
   -5.2840   21.5220  -32.3680 C   0  0  0  0  0  0  0  0  0  0  0  0
   -8.0345   19.1572  -31.4121 H   0  0  0  0  0  0  0  0  0  0  0  0
   -9.0696   19.5864  -32.8161 H   0  0  0  0  0  0  0  0  0  0  0  0
   -8.1510   18.0427  -32.8161 H   0  0  0  0  0  0  0  0  0  0  0  0
   -6.0786   19.1321  -33.1487 H   0  0  0  0  0  0  0  0  0  0  0  0
   -7.2206   20.0550  -34.1990 H   0  0  0  0  0  0  0  0  0  0  0  0
   -8.6520   21.4277  -31.7737 H   0  0  0  0  0  0  0  0  0  0  0  0
   -8.0787   23.4975  -30.5051 H   0  0  0  0  0  0  0  0  0  0  0  0
   -4.7634   21.8315  -27.5236 H   0  0  0  0  0  0  0  0  0  0  0  0
   -3.7067   19.6951  -26.8899 H   0  0  0  0  0  0  0  0  0  0  0  0
   -1.6468   18.2837  -26.7216 H   0  0  0  0  0  0  0  0  0  0  0  0
   -0.3072   23.5389  -29.0284 H   0  0  0  0  0  0  0  0  0  0  0  0
   -3.1130   25.7490  -29.7230 H   0  0  0  0  0  0  0  0  0  0  0  0
   -3.9214   23.0290  -31.6178 H   0  0  0  0  0  0  0  0  0  0  0  0
   -4.4924   20.9628  -32.8883 H   0  0  0  0  0  0  0  0  0  0  0  0
  1  2  1  0
  2  3  1  0
  3  4  2  0
  4  5  1  0
  5  6  2  0
  6  7  1  0
  7  8  2  0
  7  9  2  0
  7 10  1  0
 10 11  1  0
 11 12  2  0
 12 13  1  0
 13 14  1  0
 14 15  2  0
 15 16  1  0
 16 17  2  0
 16 18  1  0
 18 19  1  0
 19 20  1  0
 20 21  2  0
 21 22  1  0
  6 23  1  0
 23 24  2  0
 24  3  1  0
 21 11  1  0
 19 13  2  0
  1 25  1  0
  1 26  1  0
  1 27  1  0
  2 28  1  0
  2 29  1  0
  4 30  1  0
  5 31  1  0
 12 32  1  0
 14 33  1  0
 15 34  1  0
 20 35  1  0
 22 36  1  0
 23 37  1  0
 24 38  1  0
M  CHG  2  10  -1  18  -1
M  END
>  <UniqueID>  (24) 
22

>  <SMILES>  (24) 
CCc1ccc(S(=O)(=O)[N-]c2cc3ccc(=O)[n-]c3cc2O)cc1

>  <Energy>  (24) 
43.14793460231599

>  <Genealogy>  (24) 
CCc1ccc(S(=O)(=O)[N-]c2cc3ccc(=O)[n-]c3cc2O)cc1 (protonated)
CCc1ccc(S(=O)(=O)[N-]c2cc3ccc(=O)[n-]c3cc2O)cc1 (3D coordinates assigned)
CCc1ccc(S(=O)(=O)[N-]c2cc3ccc(=O)[n-]c3cc2O)cc1 (optimized conformer: 43.14793460231599 kcal/mol)

>  <smiles>  (24) 
CCc1ccc(S(=O)(=O)Nc2cc3ccc(=O)[nH]c3cc2O)cc1

>  <score_type>  (24) 
oracle

>  <origin>  (24) 
adgpu

>  <m_score__min__energy>  (24) 
-11.199999999999999

>  <m_primary>  (24) 
energy

$$$$
24:0
     RDKit          3D

 56 59  0  0  0  0  0  0  0  0999 V2000
   -0.3860   20.4650  -35.7110 O   0  0  0  0  0  0  0  0  0  0  0  0
   -0.1300   21.3120  -34.8120 C   0  0  0  0  0  0  0  0  0  0  0  0
    1.1020   22.0430  -34.8330 N   0  0  0  0  0  0  0  0  0  0  0  0
    1.3830   23.2260  -35.5950 C   0  0  0  0  0  0  0  0  0  0  0  0
    2.7190   23.6040  -35.7800 C   0  0  0  0  0  0  0  0  0  0  0  0
    3.0370   24.7630  -36.4940 C   0  0  0  0  0  0  0  0  0  0  0  0
    2.0180   25.5640  -37.0250 C   0  0  0  0  0  0  0  0  0  0  0  0
    2.4180   27.0400  -37.8950 S   0  0  0  0  0  0  0  0  0  0  0  0
    3.8180   27.4690  -37.5570 O   0  0  0  0  0  0  0  0  0  0  0  0
    2.3460   26.8000  -39.3770 O   0  0  0  0  0  0  0  0  0  0  0  0
    1.2760   28.2980  -37.4390 C   0  0  0  0  0  0  0  0  0  0  0  0
    0.4140   28.8520  -38.3980 C   0  0  0  0  0  0  0  0  0  0  0  0
   -0.4790   29.8660  -38.0370 C   0  0  0  0  0  0  0  0  0  0  0  0
   -0.5130   30.3340  -36.7200 C   0  0  0  0  0  0  0  0  0  0  0  0
    0.3510   29.7910  -35.7630 C   0  0  0  0  0  0  0  0  0  0  0  0
    1.2440   28.7770  -36.1210 C   0  0  0  0  0  0  0  0  0  0  0  0
    0.6790   25.2100  -36.8150 C   0  0  0  0  0  0  0  0  0  0  0  0
    0.3610   24.0500  -36.1000 C   0  0  0  0  0  0  0  0  0  0  0  0
   -1.0630   21.5500  -33.7500 N   0  0  0  0  0  0  0  0  0  0  0  0
   -2.2410   20.7600  -33.5120 C   0  0  0  0  0  0  0  0  0  0  0  0
   -3.4940   21.3880  -33.4710 C   0  0  0  0  0  0  0  0  0  0  0  0
   -4.6520   20.6450  -33.2210 C   0  0  0  0  0  0  0  0  0  0  0  0
   -4.5700   19.2670  -32.9890 C   0  0  0  0  0  0  0  0  0  0  0  0
   -6.0390   18.3430  -32.6930 S   0  0  0  0  0  0  0  0  0  0  0  0
   -5.6500   16.9500  -32.2800 O   0  0  0  0  0  0  0  0  0  0  0  0
   -6.8510   18.2580  -33.9560 O   0  0  0  0  0  0  0  0  0  0  0  0
   -6.9570   19.1180  -31.4190 N   0  0  0  0  0  0  0  0  0  0  0  0
   -7.0060   20.5870  -31.5890 C   0  0  0  0  0  0  0  0  0  0  0  0
   -8.3220   21.0700  -32.2250 C   0  0  0  0  0  0  0  0  0  0  0  0
   -8.8150   20.1030  -33.1240 O   0  0  0  0  0  0  0  0  0  0  0  0
   -9.2540   18.9560  -32.4180 C   0  0  0  0  0  0  0  0  0  0  0  0
   -8.2980   18.5260  -31.2770 C   0  0  0  0  0  0  0  0  0  0  0  0
   -3.3180   18.6360  -33.0100 C   0  0  0  0  0  0  0  0  0  0  0  0
   -2.1600   19.3770  -33.2620 C   0  0  0  0  0  0  0  0  0  0  0  0
    3.5246   22.9838  -35.3600 H   0  0  0  0  0  0  0  0  0  0  0  0
    4.0899   25.0466  -36.6391 H   0  0  0  0  0  0  0  0  0  0  0  0
    0.4408   28.4880  -39.4357 H   0  0  0  0  0  0  0  0  0  0  0  0
   -1.1555   30.2959  -38.7903 H   0  0  0  0  0  0  0  0  0  0  0  0
   -1.2187   31.1287  -36.4364 H   0  0  0  0  0  0  0  0  0  0  0  0
    0.3276   30.1624  -34.7279 H   0  0  0  0  0  0  0  0  0  0  0  0
    1.9237   28.3534  -35.3669 H   0  0  0  0  0  0  0  0  0  0  0  0
   -0.1251   25.8460  -37.2135 H   0  0  0  0  0  0  0  0  0  0  0  0
   -0.6924   23.7814  -35.9322 H   0  0  0  0  0  0  0  0  0  0  0  0
   -0.9200   22.4080  -33.1690 H   0  0  0  0  0  0  0  0  0  0  0  0
   -3.5666   22.4730  -33.6367 H   0  0  0  0  0  0  0  0  0  0  0  0
   -5.6314   21.1455  -33.2066 H   0  0  0  0  0  0  0  0  0  0  0  0
   -6.8990   21.0589  -30.6012 H   0  0  0  0  0  0  0  0  0  0  0  0
   -6.1871   20.8696  -32.2669 H   0  0  0  0  0  0  0  0  0  0  0  0
   -9.0660   21.2419  -31.4332 H   0  0  0  0  0  0  0  0  0  0  0  0
   -8.1323   22.0045  -32.7735 H   0  0  0  0  0  0  0  0  0  0  0  0
  -10.2405   19.1724  -31.9821 H   0  0  0  0  0  0  0  0  0  0  0  0
   -9.2883   18.1266  -33.1398 H   0  0  0  0  0  0  0  0  0  0  0  0
   -8.7267   18.8473  -30.3163 H   0  0  0  0  0  0  0  0  0  0  0  0
   -8.1898   17.4323  -31.3227 H   0  0  0  0  0  0  0  0  0  0  0  0
   -3.2469   17.5536  -32.8274 H   0  0  0  0  0  0  0  0  0  0  0  0
   -1.1803   18.8769  -33.2650 H   0  0  0  0  0  0  0  0  0  0  0  0
  1  2  2  0
  2  3  1  0
  3  4  1  0
  4  5  2  0
  5  6  1  0
  6  7  2  0
  7  8  1  0
  8  9  2  0
  8 10  2  0
  8 11  1  0
 11 12  2  0
 12 13  1  0
 13 14  2  0
 14 15  1  0
 15 16  2  0
  7 17  1  0
 17 18  2  0
  2 19  1  0
 19 20  1  0
 20 21  2  0
 21 22  1  0
 22 23  2  0
 23 24  1  0
 24 25  2  0
 24 26  2  0
 24 27  1  0
 27 28  1  0
 28 29  1  0
 29 30  1  0
 30 31  1  0
 31 32  1  0
 23 33  1  0
 33 34  2  0
 18  4  1  0
 34 20  1  0
 16 11  1  0
 32 27  1  0
  5 35  1  0
  6 36  1  0
 12 37  1  0
 13 38  1  0
 14 39  1  0
 15 40  1  0
 16 41  1  0
 17 42  1  0
 18 43  1  0
 19 44  1  0
 21 45  1  0
 22 46  1  0
 28 47  1  0
 28 48  1  0
 29 49  1  0
 29 50  1  0
 31 51  1  0
 31 52  1  0
 32 53  1  0
 32 54  1  0
 33 55  1  0
 34 56  1  0
M  CHG  1   3  -1
M  END
>  <UniqueID>  (25) 
23

>  <SMILES>  (25) 
O=C([N-]c1ccc(S(=O)(=O)c2ccccc2)cc1)Nc1ccc(S(=O)(=O)N2CCOCC2)cc1

>  <Energy>  (25) 
79.21057030652318

>  <Genealogy>  (25) 
O=C([N-]c1ccc(S(=O)(=O)c2ccccc2)cc1)Nc1ccc(S(=O)(=O)N2CCOCC2)cc1 (protonated)
O=C([N-]c1ccc(S(=O)(=O)c2ccccc2)cc1)Nc1ccc(S(=O)(=O)N2CCOCC2)cc1 (3D coordinates assigned)
O=C([N-]c1ccc(S(=O)(=O)c2ccccc2)cc1)Nc1ccc(S(=O)(=O)N2CCOCC2)cc1 (nonaromatic ring conformer: 79.21057030652318 kcal/mol)

>  <smiles>  (25) 
O=C(Nc1ccc(S(=O)(=O)c2ccccc2)cc1)Nc1ccc(S(=O)(=O)N2CCOCC2)cc1

>  <score_type>  (25) 
oracle

>  <origin>  (25) 
adgpu

>  <m_score__min__energy>  (25) 
-12.02

>  <m_primary>  (25) 
energy

$$$$
25:0
     RDKit          3D

 46 48  0  0  0  0  0  0  0  0999 V2000
   -8.9850   21.6810  -31.8450 C   0  0  0  0  0  0  0  0  0  0  0  0
   -7.5070   21.9550  -31.8710 C   0  0  0  0  0  0  0  0  0  0  0  0
   -6.9940   23.0610  -31.1700 C   0  0  0  0  0  0  0  0  0  0  0  0
   -5.6230   23.3400  -31.1820 C   0  0  0  0  0  0  0  0  0  0  0  0
   -5.0080   24.7260  -30.2840 S   0  0  0  0  0  0  0  0  0  0  0  0
   -5.6230   25.9790  -30.8370 O   0  0  0  0  0  0  0  0  0  0  0  0
   -5.3560   24.6140  -28.8260 O   0  0  0  0  0  0  0  0  0  0  0  0
   -3.2890   24.8080  -30.4560 N   0  0  0  0  0  0  0  0  0  0  0  0
   -2.4330   24.2740  -29.4480 C   0  0  0  0  0  0  0  0  0  0  0  0
   -2.6210   22.9590  -29.0060 C   0  0  0  0  0  0  0  0  0  0  0  0
   -1.8010   22.4270  -28.0020 C   0  0  0  0  0  0  0  0  0  0  0  0
   -2.0650   20.7800  -27.4240 S   0  0  0  0  0  0  0  0  0  0  0  0
   -3.5340   20.4680  -27.4760 O   0  0  0  0  0  0  0  0  0  0  0  0
   -1.6190   20.6830  -25.9900 O   0  0  0  0  0  0  0  0  0  0  0  0
   -1.1880   19.6110  -28.3780 N   0  0  0  0  0  0  0  0  0  0  0  0
   -0.5040   18.6420  -27.5070 C   0  0  0  0  0  0  0  0  0  0  0  0
    0.2790   17.6240  -28.3640 C   0  0  0  0  0  0  0  0  0  0  0  0
    0.2100   17.9260  -29.7450 O   0  0  0  0  0  0  0  0  0  0  0  0
    0.6740   19.2440  -29.9700 C   0  0  0  0  0  0  0  0  0  0  0  0
   -0.2120   20.2820  -29.2500 C   0  0  0  0  0  0  0  0  0  0  0  0
   -0.7790   23.2130  -27.4540 C   0  0  0  0  0  0  0  0  0  0  0  0
   -0.5840   24.5240  -27.9000 C   0  0  0  0  0  0  0  0  0  0  0  0
   -1.4090   25.0570  -28.8960 C   0  0  0  0  0  0  0  0  0  0  0  0
   -1.2050   26.3590  -29.3350 O   0  0  0  0  0  0  0  0  0  0  0  0
   -4.7530   22.5120  -31.9020 C   0  0  0  0  0  0  0  0  0  0  0  0
   -5.2510   21.4070  -32.5940 C   0  0  0  0  0  0  0  0  0  0  0  0
   -6.6190   21.1150  -32.5800 C   0  0  0  0  0  0  0  0  0  0  0  0
   -7.0640   19.9900  -33.2770 O   0  0  0  0  0  0  0  0  0  0  0  0
   -9.3278   21.6174  -30.8017 H   0  0  0  0  0  0  0  0  0  0  0  0
   -9.5180   22.4956  -32.3571 H   0  0  0  0  0  0  0  0  0  0  0  0
   -9.1906   20.7294  -32.3571 H   0  0  0  0  0  0  0  0  0  0  0  0
   -7.6775   23.7133  -30.6066 H   0  0  0  0  0  0  0  0  0  0  0  0
   -3.4158   22.3408  -29.4488 H   0  0  0  0  0  0  0  0  0  0  0  0
    0.1947   19.1758  -26.8461 H   0  0  0  0  0  0  0  0  0  0  0  0
   -1.2523   18.1070  -26.9038 H   0  0  0  0  0  0  0  0  0  0  0  0
    1.3335   17.6337  -28.0511 H   0  0  0  0  0  0  0  0  0  0  0  0
   -0.1737   16.6332  -28.2109 H   0  0  0  0  0  0  0  0  0  0  0  0
    1.7041   19.3301  -29.5940 H   0  0  0  0  0  0  0  0  0  0  0  0
    0.6355   19.4454  -31.0507 H   0  0  0  0  0  0  0  0  0  0  0  0
    0.4245   20.9407  -28.6410 H   0  0  0  0  0  0  0  0  0  0  0  0
   -0.7549   20.8702  -30.0045 H   0  0  0  0  0  0  0  0  0  0  0  0
   -0.1280   22.7977  -26.6706 H   0  0  0  0  0  0  0  0  0  0  0  0
    0.2198   25.1373  -27.4667 H   0  0  0  0  0  0  0  0  0  0  0  0
   -3.6756   22.7328  -31.9222 H   0  0  0  0  0  0  0  0  0  0  0  0
   -4.5614   20.7597  -33.1556 H   0  0  0  0  0  0  0  0  0  0  0  0
   -7.6100   20.0480  -34.1260 H   0  0  0  0  0  0  0  0  0  0  0  0
  1  2  1  0
  2  3  2  0
  3  4  1  0
  4  5  1  0
  5  6  2  0
  5  7  2  0
  5  8  1  0
  8  9  1  0
  9 10  2  0
 10 11  1  0
 11 12  1  0
 12 13  2  0
 12 14  2  0
 12 15  1  0
 15 16  1  0
 16 17  1  0
 17 18  1  0
 18 19  1  0
 19 20  1  0
 11 21  2  0
 21 22  1  0
 22 23  2  0
 23 24  1  0
  4 25  2  0
 25 26  1  0
 26 27  2  0
 27 28  1  0
 27  2  1  0
 23  9  1  0
 20 15  1  0
  1 29  1  0
  1 30  1  0
  1 31  1  0
  3 32  1  0
 10 33  1  0
 16 34  1  0
 16 35  1  0
 17 36  1  0
 17 37  1  0
 19 38  1  0
 19 39  1  0
 20 40  1  0
 20 41  1  0
 21 42  1  0
 22 43  1  0
 25 44  1  0
 26 45  1  0
 28 46  1  0
M  CHG  2   8  -1  24  -1
M  END
>  <UniqueID>  (26) 
24

>  <SMILES>  (26) 
Cc1cc(S(=O)(=O)[N-]c2cc(S(=O)(=O)N3CCOCC3)ccc2[O-])ccc1O

>  <Energy>  (26) 
60.39788726604459

>  <Genealogy>  (26) 
Cc1cc(S(=O)(=O)[N-]c2cc(S(=O)(=O)N3CCOCC3)ccc2[O-])ccc1O (protonated)
Cc1cc(S(=O)(=O)[N-]c2cc(S(=O)(=O)N3CCOCC3)ccc2[O-])ccc1O (3D coordinates assigned)
Cc1cc(S(=O)(=O)[N-]c2cc(S(=O)(=O)N3CCOCC3)ccc2[O-])ccc1O (nonaromatic ring conformer: 60.39788726604459 kcal/mol)

>  <smiles>  (26) 
Cc1cc(S(=O)(=O)Nc2cc(S(=O)(=O)N3CCOCC3)ccc2O)ccc1O

>  <score_type>  (26) 
oracle

>  <origin>  (26) 
adgpu

>  <m_score__min__energy>  (26) 
-13.44

>  <m_primary>  (26) 
energy

$$$$
26:0
     RDKit          3D

 46 48  0  0  0  0  0  0  0  0999 V2000
   -8.5010   18.3120  -32.3500 C   0  0  0  0  0  0  0  0  0  0  0  0
   -7.1630   18.9910  -32.3470 C   0  0  0  0  0  0  0  0  0  0  0  0
   -6.2760   18.7990  -31.2750 C   0  0  0  0  0  0  0  0  0  0  0  0
   -5.0160   19.4010  -31.2870 C   0  0  0  0  0  0  0  0  0  0  0  0
   -4.6230   20.1940  -32.3740 C   0  0  0  0  0  0  0  0  0  0  0  0
   -3.0480   20.9790  -32.3930 S   0  0  0  0  0  0  0  0  0  0  0  0
   -1.9570   19.9940  -32.0790 O   0  0  0  0  0  0  0  0  0  0  0  0
   -2.8120   21.5520  -33.7620 O   0  0  0  0  0  0  0  0  0  0  0  0
   -3.0150   22.2580  -31.2210 N   0  0  0  0  0  0  0  0  0  0  0  0
   -2.5770   22.0630  -29.8630 C   0  0  0  0  0  0  0  0  0  0  0  0
   -2.3420   20.7650  -29.3700 C   0  0  0  0  0  0  0  0  0  0  0  0
   -1.8900   20.5730  -28.0620 C   0  0  0  0  0  0  0  0  0  0  0  0
   -1.6650   21.6690  -27.2310 C   0  0  0  0  0  0  0  0  0  0  0  0
   -1.8890   22.9630  -27.7050 C   0  0  0  0  0  0  0  0  0  0  0  0
   -2.3360   23.1730  -29.0190 C   0  0  0  0  0  0  0  0  0  0  0  0
   -2.6100   24.5530  -29.4680 C   0  0  0  0  0  0  0  0  0  0  0  0
   -1.9570   25.5050  -28.9650 O   0  0  0  0  0  0  0  0  0  0  0  0
   -3.6110   24.8410  -30.4500 N   0  0  0  0  0  0  0  0  0  0  0  0
   -4.9530   25.3160  -30.1380 C   0  0  0  0  0  0  0  0  0  0  0  0
   -5.9600   24.3140  -30.6230 C   0  0  0  0  0  0  0  0  0  0  0  0
   -6.6660   23.5180  -29.7060 C   0  0  0  0  0  0  0  0  0  0  0  0
   -7.5810   22.5630  -30.1630 C   0  0  0  0  0  0  0  0  0  0  0  0
   -7.7870   22.3900  -31.5340 C   0  0  0  0  0  0  0  0  0  0  0  0
   -8.6730   21.4610  -31.9740 F   0  0  0  0  0  0  0  0  0  0  0  0
   -7.0750   23.1680  -32.4520 C   0  0  0  0  0  0  0  0  0  0  0  0
   -6.1610   24.1230  -32.0000 C   0  0  0  0  0  0  0  0  0  0  0  0
   -5.5000   20.3710  -33.4540 C   0  0  0  0  0  0  0  0  0  0  0  0
   -6.7610   19.7680  -33.4430 C   0  0  0  0  0  0  0  0  0  0  0  0
   -8.8298   18.1451  -31.3136 H   0  0  0  0  0  0  0  0  0  0  0  0
   -9.2335   18.9475  -32.8693 H   0  0  0  0  0  0  0  0  0  0  0  0
   -8.4206   17.3456  -32.8693 H   0  0  0  0  0  0  0  0  0  0  0  0
   -6.5751   18.1717  -30.4223 H   0  0  0  0  0  0  0  0  0  0  0  0
   -4.3295   19.2524  -30.4405 H   0  0  0  0  0  0  0  0  0  0  0  0
   -3.4330   23.1710  -31.5080 H   0  0  0  0  0  0  0  0  0  0  0  0
   -2.5158   19.8949  -30.0202 H   0  0  0  0  0  0  0  0  0  0  0  0
   -1.7113   19.5544  -27.6872 H   0  0  0  0  0  0  0  0  0  0  0  0
   -1.3107   21.5145  -26.2011 H   0  0  0  0  0  0  0  0  0  0  0  0
   -1.7139   23.8245  -27.0438 H   0  0  0  0  0  0  0  0  0  0  0  0
   -5.0545   25.4416  -29.0499 H   0  0  0  0  0  0  0  0  0  0  0  0
   -5.1263   26.2821  -30.6346 H   0  0  0  0  0  0  0  0  0  0  0  0
   -6.4992   23.6456  -28.6262 H   0  0  0  0  0  0  0  0  0  0  0  0
   -8.1389   21.9476  -29.4418 H   0  0  0  0  0  0  0  0  0  0  0  0
   -7.2347   23.0280  -33.5313 H   0  0  0  0  0  0  0  0  0  0  0  0
   -5.5966   24.7276  -32.7252 H   0  0  0  0  0  0  0  0  0  0  0  0
   -5.1944   20.9866  -34.3129 H   0  0  0  0  0  0  0  0  0  0  0  0
   -7.4406   19.9035  -34.2973 H   0  0  0  0  0  0  0  0  0  0  0  0
  1  2  1  0
  2  3  2  0
  3  4  1  0
  4  5  2  0
  5  6  1  0
  6  7  2  0
  6  8  2  0
  6  9  1  0
  9 10  1  0
 10 11  2  0
 11 12  1  0
 12 13  2  0
 13 14  1  0
 14 15  2  0
 15 16  1  0
 16 17  2  0
 16 18  1  0
 18 19  1  0
 19 20  1  0
 20 21  2  0
 21 22  1  0
 22 23  2  0
 23 24  1  0
 23 25  1  0
 25 26  2  0
  5 27  1  0
 27 28  2  0
 28  2  1  0
 15 10  1  0
 26 20  1  0
  1 29  1  0
  1 30  1  0
  1 31  1  0
  3 32  1  0
  4 33  1  0
  9 34  1  0
 11 35  1  0
 12 36  1  0
 13 37  1  0
 14 38  1  0
 19 39  1  0
 19 40  1  0
 21 41  1  0
 22 42  1  0
 25 43  1  0
 26 44  1  0
 27 45  1  0
 28 46  1  0
M  CHG  1  18  -1
M  END
>  <UniqueID>  (27) 
25

>  <SMILES>  (27) 
Cc1ccc(S(=O)(=O)Nc2ccccc2C(=O)[N-]Cc2ccc(F)cc2)cc1

>  <Energy>  (27) 
55.435487204878406

>  <Genealogy>  (27) 
Cc1ccc(S(=O)(=O)Nc2ccccc2C(=O)[N-]Cc2ccc(F)cc2)cc1 (protonated)
Cc1ccc(S(=O)(=O)Nc2ccccc2C(=O)[N-]Cc2ccc(F)cc2)cc1 (3D coordinates assigned)
Cc1ccc(S(=O)(=O)Nc2ccccc2C(=O)[N-]Cc2ccc(F)cc2)cc1 (optimized conformer: 55.435487204878406 kcal/mol)

>  <smiles>  (27) 
Cc1ccc(S(=O)(=O)Nc2ccccc2C(=O)NCc2ccc(F)cc2)cc1

>  <score_type>  (27) 
oracle

>  <origin>  (27) 
adgpu

>  <m_score__min__energy>  (27) 
-10.210000000000001

>  <m_primary>  (27) 
energy

$$$$
27:0
     RDKit          3D

 43 45  0  0  0  0  0  0  0  0999 V2000
   -1.7260   23.4950  -27.7640 C   0  0  0  0  0  0  0  0  0  0  0  0
   -2.6300   23.9760  -28.8530 C   0  0  0  0  0  0  0  0  0  0  0  0
   -2.5960   25.2290  -29.3430 N   0  0  0  0  0  0  0  0  0  0  0  0
   -3.4880   25.2940  -30.2870 O   0  0  0  0  0  0  0  0  0  0  0  0
   -4.1070   24.1480  -30.4430 C   0  0  0  0  0  0  0  0  0  0  0  0
   -5.0380   23.9970  -31.3430 N   0  0  0  0  0  0  0  0  0  0  0  0
   -6.0140   22.6090  -31.7090 S   0  0  0  0  0  0  0  0  0  0  0  0
   -7.1190   22.9980  -32.6480 O   0  0  0  0  0  0  0  0  0  0  0  0
   -6.6300   22.1210  -30.4280 O   0  0  0  0  0  0  0  0  0  0  0  0
   -5.0360   21.2960  -32.3740 C   0  0  0  0  0  0  0  0  0  0  0  0
   -3.8040   21.5830  -32.9800 C   0  0  0  0  0  0  0  0  0  0  0  0
   -3.0170   20.5580  -33.5260 C   0  0  0  0  0  0  0  0  0  0  0  0
   -1.7590   20.8940  -34.1390 N   0  0  0  0  0  0  0  0  0  0  0  0
   -0.2150   20.4120  -33.5100 S   0  0  0  0  0  0  0  0  0  0  0  0
    0.2130   19.1390  -34.1820 O   0  0  0  0  0  0  0  0  0  0  0  0
    0.7960   21.4840  -33.8010 O   0  0  0  0  0  0  0  0  0  0  0  0
   -0.3180   20.1920  -31.7650 C   0  0  0  0  0  0  0  0  0  0  0  0
   -0.6310   21.2730  -30.9300 C   0  0  0  0  0  0  0  0  0  0  0  0
   -0.6950   21.0930  -29.5430 C   0  0  0  0  0  0  0  0  0  0  0  0
   -0.4490   19.8340  -28.9890 C   0  0  0  0  0  0  0  0  0  0  0  0
   -0.1420   18.7520  -29.8190 C   0  0  0  0  0  0  0  0  0  0  0  0
   -0.0780   18.9290  -31.2040 C   0  0  0  0  0  0  0  0  0  0  0  0
   -3.4810   19.2320  -33.4600 C   0  0  0  0  0  0  0  0  0  0  0  0
   -4.7000   18.9380  -32.8430 C   0  0  0  0  0  0  0  0  0  0  0  0
   -5.2430   17.2690  -32.7640 Cl  0  0  0  0  0  0  0  0  0  0  0  0
   -5.4780   19.9650  -32.2950 C   0  0  0  0  0  0  0  0  0  0  0  0
   -6.6870   19.6600  -31.6760 O   0  0  0  0  0  0  0  0  0  0  0  0
   -3.5940   23.2330  -29.5200 C   0  0  0  0  0  0  0  0  0  0  0  0
   -3.8570   21.7690  -29.3250 C   0  0  0  0  0  0  0  0  0  0  0  0
   -2.1713   23.7319  -26.7864 H   0  0  0  0  0  0  0  0  0  0  0  0
   -1.5926   22.4067  -27.8521 H   0  0  0  0  0  0  0  0  0  0  0  0
   -0.7489   23.9925  -27.8521 H   0  0  0  0  0  0  0  0  0  0  0  0
   -3.4509   22.6237  -33.0277 H   0  0  0  0  0  0  0  0  0  0  0  0
   -1.7520   21.5340  -34.9650 H   0  0  0  0  0  0  0  0  0  0  0  0
   -0.8267   22.2643  -31.3648 H   0  0  0  0  0  0  0  0  0  0  0  0
   -0.9391   21.9432  -28.8890 H   0  0  0  0  0  0  0  0  0  0  0  0
   -0.4970   19.6943  -27.8990 H   0  0  0  0  0  0  0  0  0  0  0  0
    0.0493   17.7608  -29.3820 H   0  0  0  0  0  0  0  0  0  0  0  0
    0.1612   18.0757  -31.8557 H   0  0  0  0  0  0  0  0  0  0  0  0
   -2.8803   18.4207  -33.8970 H   0  0  0  0  0  0  0  0  0  0  0  0
   -3.8974   21.5439  -28.2490 H   0  0  0  0  0  0  0  0  0  0  0  0
   -4.8172   21.5036  -29.7915 H   0  0  0  0  0  0  0  0  0  0  0  0
   -3.0492   21.1860  -29.7915 H   0  0  0  0  0  0  0  0  0  0  0  0
  1  2  1  0
  2  3  1  0
  3  4  1  0
  4  5  1  0
  5  6  2  3
  6  7  1  0
  7  8  2  0
  7  9  2  0
  7 10  1  0
 10 11  2  0
 11 12  1  0
 12 13  1  0
 13 14  1  0
 14 15  2  0
 14 16  2  0
 14 17  1  0
 17 18  2  0
 18 19  1  0
 19 20  2  0
 20 21  1  0
 21 22  2  0
 12 23  2  0
 23 24  1  0
 24 25  1  0
 24 26  2  0
 26 27  1  0
  5 28  1  0
 28 29  1  0
 28  2  2  0
 26 10  1  0
 22 17  1  0
  1 30  1  0
  1 31  1  0
  1 32  1  0
 11 33  1  0
 13 34  1  0
 18 35  1  0
 19 36  1  0
 20 37  1  0
 21 38  1  0
 22 39  1  0
 23 40  1  0
 29 41  1  0
 29 42  1  0
 29 43  1  0
M  CHG  2   3  -1  27  -1
M  END
>  <UniqueID>  (28) 
26

>  <SMILES>  (28) 
Cc1[n-]oc(=NS(=O)(=O)c2cc(NS(=O)(=O)c3ccccc3)cc(Cl)c2[O-])c1C

>  <Energy>  (28) 
88.26587887818125

>  <Genealogy>  (28) 
Cc1[n-]oc(=NS(=O)(=O)c2cc(NS(=O)(=O)c3ccccc3)cc(Cl)c2[O-])c1C (protonated)
Cc1[n-]oc(=NS(=O)(=O)c2cc(NS(=O)(=O)c3ccccc3)cc(Cl)c2[O-])c1C (3D coordinates assigned)
Cc1[n-]oc(=NS(=O)(=O)c2cc(NS(=O)(=O)c3ccccc3)cc(Cl)c2[O-])c1C (optimized conformer: 88.26587887818125 kcal/mol)

>  <smiles>  (28) 
Cc1[nH]oc(=NS(=O)(=O)c2cc(NS(=O)(=O)c3ccccc3)cc(Cl)c2O)c1C

>  <score_type>  (28) 
oracle

>  <origin>  (28) 
adgpu

>  <m_score__min__energy>  (28) 
-12.369999999999999

>  <m_primary>  (28) 
energy

$$$$
28:0
     RDKit          3D

 52 55  0  0  0  0  0  0  0  0999 V2000
    0.5320   20.3180  -31.0150 O   0  0  0  0  0  0  0  0  0  0  0  0
   -0.4290   21.1000  -30.7820 C   0  0  0  0  0  0  0  0  0  0  0  0
   -1.2040   21.6300  -31.8670 N   0  0  0  0  0  0  0  0  0  0  0  0
   -2.6290   21.7890  -31.9030 C   0  0  0  0  0  0  0  0  0  0  0  0
   -3.3020   22.0890  -30.7130 C   0  0  0  0  0  0  0  0  0  0  0  0
   -4.6920   22.2360  -30.7000 C   0  0  0  0  0  0  0  0  0  0  0  0
   -5.4290   22.0720  -31.8810 C   0  0  0  0  0  0  0  0  0  0  0  0
   -7.1820   22.2830  -31.8720 S   0  0  0  0  0  0  0  0  0  0  0  0
   -7.5460   23.4510  -32.7470 O   0  0  0  0  0  0  0  0  0  0  0  0
   -7.6380   22.5910  -30.4730 O   0  0  0  0  0  0  0  0  0  0  0  0
   -8.0020   20.8510  -32.4520 N   0  0  0  0  0  0  0  0  0  0  0  0
   -8.6970   20.1710  -31.3360 C   0  0  0  0  0  0  0  0  0  0  0  0
   -9.0640   18.7290  -31.7030 C   0  0  0  0  0  0  0  0  0  0  0  0
   -7.8030   17.8930  -31.9890 C   0  0  0  0  0  0  0  0  0  0  0  0
   -6.6150   18.7490  -32.4590 C   0  0  0  0  0  0  0  0  0  0  0  0
   -7.0940   19.9820  -33.2400 C   0  0  0  0  0  0  0  0  0  0  0  0
   -4.7630   21.7400  -33.0680 C   0  0  0  0  0  0  0  0  0  0  0  0
   -3.3730   21.5930  -33.0800 C   0  0  0  0  0  0  0  0  0  0  0  0
   -0.7240   21.5130  -29.3890 C   0  0  0  0  0  0  0  0  0  0  0  0
   -1.1270   20.5650  -28.4310 C   0  0  0  0  0  0  0  0  0  0  0  0
   -1.4060   20.9590  -27.1210 C   0  0  0  0  0  0  0  0  0  0  0  0
   -1.2870   22.2990  -26.7480 C   0  0  0  0  0  0  0  0  0  0  0  0
   -0.8840   23.2620  -27.6860 C   0  0  0  0  0  0  0  0  0  0  0  0
   -0.7580   24.6430  -27.3000 N   0  0  0  0  0  0  0  0  0  0  0  0
   -1.0980   25.7270  -28.0280 C   0  0  0  0  0  0  0  0  0  0  0  0
   -1.6170   25.6750  -29.3160 O   0  0  0  0  0  0  0  0  0  0  0  0
   -0.8360   26.8930  -27.3370 C   0  0  0  0  0  0  0  0  0  0  0  0
   -0.3050   26.5060  -26.1200 C   0  0  0  0  0  0  0  0  0  0  0  0
   -0.2760   25.1240  -26.1350 C   0  0  0  0  0  0  0  0  0  0  0  0
    0.1670   24.3240  -25.0840 O   0  0  0  0  0  0  0  0  0  0  0  0
   -0.6050   22.8620  -29.0040 C   0  0  0  0  0  0  0  0  0  0  0  0
   -2.7321   22.2101  -29.7799 H   0  0  0  0  0  0  0  0  0  0  0  0
   -5.2089   22.4810  -29.7604 H   0  0  0  0  0  0  0  0  0  0  0  0
   -8.0363   20.1596  -30.4566 H   0  0  0  0  0  0  0  0  0  0  0  0
   -9.6250   20.7205  -31.1193 H   0  0  0  0  0  0  0  0  0  0  0  0
   -9.6147   18.2742  -30.8664 H   0  0  0  0  0  0  0  0  0  0  0  0
   -9.6856   18.7463  -32.6104 H   0  0  0  0  0  0  0  0  0  0  0  0
   -7.5140   17.3663  -31.0676 H   0  0  0  0  0  0  0  0  0  0  0  0
   -8.0474   17.1915  -32.8002 H   0  0  0  0  0  0  0  0  0  0  0  0
   -6.0420   19.0808  -31.5806 H   0  0  0  0  0  0  0  0  0  0  0  0
   -5.9865   18.1380  -33.1236 H   0  0  0  0  0  0  0  0  0  0  0  0
   -6.2145   20.5721  -33.5371 H   0  0  0  0  0  0  0  0  0  0  0  0
   -7.6594   19.6201  -34.1114 H   0  0  0  0  0  0  0  0  0  0  0  0
   -5.3368   21.5943  -33.9951 H   0  0  0  0  0  0  0  0  0  0  0  0
   -2.8589   21.3228  -34.0142 H   0  0  0  0  0  0  0  0  0  0  0  0
   -1.2229   19.5068  -28.7158 H   0  0  0  0  0  0  0  0  0  0  0  0
   -1.7210   20.2102  -26.3794 H   0  0  0  0  0  0  0  0  0  0  0  0
   -1.5101   22.6014  -25.7142 H   0  0  0  0  0  0  0  0  0  0  0  0
   -1.0136   27.9216  -27.6840 H   0  0  0  0  0  0  0  0  0  0  0  0
    0.0273   27.1651  -25.3044 H   0  0  0  0  0  0  0  0  0  0  0  0
    0.2850   24.7060  -24.1540 H   0  0  0  0  0  0  0  0  0  0  0  0
   -0.2897   23.6123  -29.7441 H   0  0  0  0  0  0  0  0  0  0  0  0
  1  2  2  0
  2  3  1  0
  3  4  1  0
  4  5  2  0
  5  6  1  0
  6  7  2  0
  7  8  1  0
  8  9  2  0
  8 10  2  0
  8 11  1  0
 11 12  1  0
 12 13  1  0
 13 14  1  0
 14 15  1  0
 15 16  1  0
  7 17  1  0
 17 18  2  0
  2 19  1  0
 19 20  2  0
 20 21  1  0
 21 22  2  0
 22 23  1  0
 23 24  1  0
 24 25  1  0
 25 26  1  0
 25 27  2  0
 27 28  1  0
 28 29  2  0
 29 30  1  0
 23 31  2  0
 18  4  1  0
 31 19  1  0
 16 11  1  0
 29 24  1  0
  5 32  1  0
  6 33  1  0
 12 34  1  0
 12 35  1  0
 13 36  1  0
 13 37  1  0
 14 38  1  0
 14 39  1  0
 15 40  1  0
 15 41  1  0
 16 42  1  0
 16 43  1  0
 17 44  1  0
 18 45  1  0
 20 46  1  0
 21 47  1  0
 22 48  1  0
 27 49  1  0
 28 50  1  0
 30 51  1  0
 31 52  1  0
M  CHG  2   3  -1  26  -1
M  END
>  <UniqueID>  (29) 
27

>  <SMILES>  (29) 
O=C([N-]c1ccc(S(=O)(=O)N2CCCCC2)cc1)c1cccc(-n2c([O-])ccc2O)c1

>  <Energy>  (29) 
96.79913087897626

>  <Genealogy>  (29) 
O=C([N-]c1ccc(S(=O)(=O)N2CCCCC2)cc1)c1cccc(-n2c([O-])ccc2O)c1 (protonated)
O=C([N-]c1ccc(S(=O)(=O)N2CCCCC2)cc1)c1cccc(-n2c([O-])ccc2O)c1 (3D coordinates assigned)
O=C([N-]c1ccc(S(=O)(=O)N2CCCCC2)cc1)c1cccc(-n2c([O-])ccc2O)c1 (nonaromatic ring conformer: 96.79913087897626 kcal/mol)

>  <smiles>  (29) 
O=C(Nc1ccc(S(=O)(=O)N2CCCCC2)cc1)c1cccc(-n2c(O)ccc2O)c1

>  <score_type>  (29) 
oracle

>  <origin>  (29) 
adgpu

>  <m_score__min__energy>  (29) 
-12.220000000000001

>  <m_primary>  (29) 
energy

$$$$
29:0
     RDKit          3D

 32 34  0  0  0  0  0  0  0  0999 V2000
    1.1960   29.7390  -23.7450 C   0  0  0  0  0  0  0  0  0  0  0  0
    0.4760   28.6400  -24.4690 C   0  0  0  0  0  0  0  0  0  0  0  0
   -0.0470   27.5360  -23.7470 C   0  0  0  0  0  0  0  0  0  0  0  0
   -0.6900   26.4810  -24.4200 C   0  0  0  0  0  0  0  0  0  0  0  0
   -0.7820   26.5570  -25.8060 C   0  0  0  0  0  0  0  0  0  0  0  0
   -1.3390   25.6700  -26.6420 N   0  0  0  0  0  0  0  0  0  0  0  0
   -1.1380   26.2480  -27.8570 C   0  0  0  0  0  0  0  0  0  0  0  0
   -1.4990   25.7050  -28.9820 N   0  0  0  0  0  0  0  0  0  0  0  0
   -2.2360   24.4800  -29.1440 C   0  0  0  0  0  0  0  0  0  0  0  0
   -1.8380   23.2860  -28.5110 C   0  0  0  0  0  0  0  0  0  0  0  0
   -2.5920   22.1140  -28.6680 C   0  0  0  0  0  0  0  0  0  0  0  0
   -2.0860   20.6290  -27.8690 S   0  0  0  0  0  0  0  0  0  0  0  0
   -0.9010   19.8260  -28.8380 N   0  0  0  0  0  0  0  0  0  0  0  0
   -3.2730   19.7270  -27.6750 O   0  0  0  0  0  0  0  0  0  0  0  0
   -1.4980   20.9470  -26.5230 O   0  0  0  0  0  0  0  0  0  0  0  0
   -3.7660   22.1420  -29.4300 C   0  0  0  0  0  0  0  0  0  0  0  0
   -4.1830   23.3300  -30.0330 C   0  0  0  0  0  0  0  0  0  0  0  0
   -3.4270   24.4970  -29.8850 C   0  0  0  0  0  0  0  0  0  0  0  0
   -3.8600   25.6740  -30.4860 O   0  0  0  0  0  0  0  0  0  0  0  0
   -0.4770   27.4340  -27.8200 N   0  0  0  0  0  0  0  0  0  0  0  0
   -0.2700   27.6070  -26.5060 C   0  0  0  0  0  0  0  0  0  0  0  0
    0.3750   28.6700  -25.8790 C   0  0  0  0  0  0  0  0  0  0  0  0
    1.0977   29.5889  -22.6597 H   0  0  0  0  0  0  0  0  0  0  0  0
    2.2604   29.7248  -24.0222 H   0  0  0  0  0  0  0  0  0  0  0  0
    0.7579   30.7092  -24.0222 H   0  0  0  0  0  0  0  0  0  0  0  0
    0.0511   27.5048  -22.6518 H   0  0  0  0  0  0  0  0  0  0  0  0
   -1.1060   25.6248  -23.8688 H   0  0  0  0  0  0  0  0  0  0  0  0
   -0.9303   23.2729  -27.8898 H   0  0  0  0  0  0  0  0  0  0  0  0
   -0.4560   19.1000  -28.2340 H   0  0  0  0  0  0  0  0  0  0  0  0
   -4.3615   21.2255  -29.5539 H   0  0  0  0  0  0  0  0  0  0  0  0
   -5.1091   23.3481  -30.6263 H   0  0  0  0  0  0  0  0  0  0  0  0
    0.7919   29.5050  -26.4611 H   0  0  0  0  0  0  0  0  0  0  0  0
  1  2  1  0
  2  3  2  0
  3  4  1  0
  4  5  2  0
  5  6  1  0
  6  7  1  0
  7  8  2  3
  8  9  1  0
  9 10  2  0
 10 11  1  0
 11 12  1  0
 12 13  1  0
 12 14  2  0
 12 15  2  0
 11 16  2  0
 16 17  1  0
 17 18  2  0
 18 19  1  0
  7 20  1  0
 20 21  1  0
 21 22  2  0
 22  2  1  0
 21  5  1  0
 18  9  1  0
  1 23  1  0
  1 24  1  0
  1 25  1  0
  3 26  1  0
  4 27  1  0
 10 28  1  0
 13 29  1  0
 16 30  1  0
 17 31  1  0
 22 32  1  0
M  CHG  4   6  -1  13  -1  19  -1  20  -1
M  END
>  <UniqueID>  (30) 
28

>  <SMILES>  (30) 
Cc1ccc2[n-]c(=Nc3cc(S([NH-])(=O)=O)ccc3[O-])[n-]c2c1

>  <Energy>  (30) 
74.55010682195763

>  <Genealogy>  (30) 
Cc1ccc2[n-]c(=Nc3cc(S([NH-])(=O)=O)ccc3[O-])[n-]c2c1 (protonated)
Cc1ccc2[n-]c(=Nc3cc(S([NH-])(=O)=O)ccc3[O-])[n-]c2c1 (3D coordinates assigned)
Cc1ccc2[n-]c(=Nc3cc(S([NH-])(=O)=O)ccc3[O-])[n-]c2c1 (optimized conformer: 74.55010682195763 kcal/mol)

>  <smiles>  (30) 
Cc1ccc2[nH]c(=Nc3cc(S(N)(=O)=O)ccc3O)[nH]c2c1

>  <score_type>  (30) 
oracle

>  <origin>  (30) 
adgpu

>  <m_score__min__energy>  (30) 
-11.369999999999999

>  <m_primary>  (30) 
energy

$$$$
30:0
     RDKit          3D

 50 52  0  0  0  0  0  0  0  0999 V2000
   -7.1070   11.8860  -36.5250 C   0  0  0  0  0  0  0  0  0  0  0  0
   -7.9850   13.1010  -35.5700 S   0  0  0  0  0  0  0  0  0  0  0  0
   -8.7310   14.0250  -36.4910 O   0  0  0  0  0  0  0  0  0  0  0  0
   -8.9740   12.4110  -34.6730 O   0  0  0  0  0  0  0  0  0  0  0  0
   -6.8380   14.0250  -34.6050 C   0  0  0  0  0  0  0  0  0  0  0  0
   -5.6140   13.4600  -34.2280 C   0  0  0  0  0  0  0  0  0  0  0  0
   -4.7030   14.2010  -33.4740 C   0  0  0  0  0  0  0  0  0  0  0  0
   -5.0030   15.5170  -33.0940 C   0  0  0  0  0  0  0  0  0  0  0  0
   -4.0900   16.2540  -32.3420 O   0  0  0  0  0  0  0  0  0  0  0  0
   -6.2240   16.0990  -33.4740 C   0  0  0  0  0  0  0  0  0  0  0  0
   -6.4900   17.4540  -33.0730 N   0  0  0  0  0  0  0  0  0  0  0  0
   -5.7970   18.7370  -33.6640 S   0  0  2  0  0  0  0  0  0  0  0  0
   -6.0960   18.8370  -35.1350 O   0  0  0  0  0  0  0  0  0  0  0  0
   -4.1330   18.6420  -33.4390 O   0  0  0  0  0  0  0  0  0  0  0  0
   -6.4140   20.1520  -32.8180 C   0  0  0  0  0  0  0  0  0  0  0  0
   -7.7910   20.3450  -32.6480 C   0  0  0  0  0  0  0  0  0  0  0  0
   -8.2630   21.4690  -31.9660 C   0  0  0  0  0  0  0  0  0  0  0  0
   -7.3650   22.4080  -31.4490 C   0  0  0  0  0  0  0  0  0  0  0  0
   -7.8510   23.4810  -30.7760 F   0  0  0  0  0  0  0  0  0  0  0  0
   -5.9810   22.2260  -31.6210 C   0  0  0  0  0  0  0  0  0  0  0  0
   -4.8140   23.3720  -30.9550 S   0  0  0  0  0  0  0  0  0  0  0  0
   -3.4620   23.0770  -31.5430 O   0  0  0  0  0  0  0  0  0  0  0  0
   -5.1940   24.7810  -31.3220 O   0  0  0  0  0  0  0  0  0  0  0  0
   -4.7420   23.2040  -29.2170 N   0  0  0  0  0  0  0  0  0  0  0  0
   -4.7270   24.5350  -28.5820 C   0  0  0  0  0  0  0  0  0  0  0  0
   -4.1850   24.4420  -27.1450 C   0  0  0  0  0  0  0  0  0  0  0  0
   -2.8650   23.9190  -27.0470 O   0  0  0  0  0  0  0  0  0  0  0  0
   -2.4560   23.1780  -28.1880 C   0  0  0  0  0  0  0  0  0  0  0  0
   -3.5970   22.3560  -28.8110 C   0  0  0  0  0  0  0  0  0  0  0  0
   -5.5140   21.0930  -32.3010 C   0  0  0  0  0  0  0  0  0  0  0  0
   -7.1390   15.3420  -34.2340 C   0  0  0  0  0  0  0  0  0  0  0  0
   -6.5995   11.1837  -35.8473 H   0  0  0  0  0  0  0  0  0  0  0  0
   -7.8170   11.3351  -37.1593 H   0  0  0  0  0  0  0  0  0  0  0  0
   -6.3611   12.3872  -37.1593 H   0  0  0  0  0  0  0  0  0  0  0  0
   -5.3698   12.4299  -34.5267 H   0  0  0  0  0  0  0  0  0  0  0  0
   -3.7447   13.7504  -33.1763 H   0  0  0  0  0  0  0  0  0  0  0  0
   -4.3300   17.1600  -31.9570 H   0  0  0  0  0  0  0  0  0  0  0  0
   -3.9320   17.6720  -33.4270 H   0  0  0  0  0  0  0  0  0  0  0  0
   -8.5022   19.6098  -33.0525 H   0  0  0  0  0  0  0  0  0  0  0  0
   -9.3452   21.6160  -31.8351 H   0  0  0  0  0  0  0  0  0  0  0  0
   -4.0842   25.2082  -29.1682 H   0  0  0  0  0  0  0  0  0  0  0  0
   -5.7552   24.9245  -28.5492 H   0  0  0  0  0  0  0  0  0  0  0  0
   -4.1878   25.4524  -26.7102 H   0  0  0  0  0  0  0  0  0  0  0  0
   -4.8408   23.7417  -26.6070 H   0  0  0  0  0  0  0  0  0  0  0  0
   -2.0763   23.8804  -28.9446 H   0  0  0  0  0  0  0  0  0  0  0  0
   -1.6810   22.4696  -27.8600 H   0  0  0  0  0  0  0  0  0  0  0  0
   -3.2123   21.8321  -29.6984 H   0  0  0  0  0  0  0  0  0  0  0  0
   -3.9556   21.6466  -28.0507 H   0  0  0  0  0  0  0  0  0  0  0  0
   -4.4321   20.9414  -32.4298 H   0  0  0  0  0  0  0  0  0  0  0  0
   -8.0969   15.7891  -34.5381 H   0  0  0  0  0  0  0  0  0  0  0  0
  1  2  1  0
  2  3  2  0
  2  4  2  0
  2  5  1  0
  5  6  2  0
  6  7  1  0
  7  8  2  0
  8  9  1  0
  8 10  1  0
 10 11  1  0
 11 12  2  0
 12 13  2  0
 12 14  1  6
 12 15  1  0
 15 16  2  0
 16 17  1  0
 17 18  2  0
 18 19  1  0
 18 20  1  0
 20 21  1  0
 21 22  2  0
 21 23  2  0
 21 24  1  0
 24 25  1  0
 25 26  1  0
 26 27  1  0
 27 28  1  0
 28 29  1  0
 20 30  2  0
 10 31  2  0
 31  5  1  0
 30 15  1  0
 29 24  1  0
  1 32  1  0
  1 33  1  0
  1 34  1  0
  6 35  1  0
  7 36  1  0
  9 37  1  0
 14 38  1  0
 16 39  1  0
 17 40  1  0
 25 41  1  0
 25 42  1  0
 26 43  1  0
 26 44  1  0
 28 45  1  0
 28 46  1  0
 29 47  1  0
 29 48  1  0
 30 49  1  0
 31 50  1  0
M  END
>  <UniqueID>  (31) 
29

>  <SMILES>  (31) 
CS(=O)(=O)c1ccc(O)c(N=[S@](=O)(O)c2ccc(F)c(S(=O)(=O)N3CCOCC3)c2)c1

>  <Energy>  (31) 
63.19043935805308

>  <Genealogy>  (31) 
CS(=O)(=O)c1ccc(O)c(N=S(=O)(O)c2ccc(F)c(S(=O)(=O)N3CCOCC3)c2)c1 (protonated)
CS(=O)(=O)c1ccc(O)c(N=[S@](=O)(O)c2ccc(F)c(S(=O)(=O)N3CCOCC3)c2)c1 (chirality)
CS(=O)(=O)c1ccc(O)c(N=[S@](=O)(O)c2ccc(F)c(S(=O)(=O)N3CCOCC3)c2)c1 (3D coordinates assigned)
CS(=O)(=O)c1ccc(O)c(N=[S@](=O)(O)c2ccc(F)c(S(=O)(=O)N3CCOCC3)c2)c1 (nonaromatic ring conformer: 63.19043935805308 kcal/mol)

>  <smiles>  (31) 
CS(=O)(=O)c1ccc(O)c(N=S(=O)([O-])c2ccc(F)c(S(=O)(=O)N3CCOCC3)c2)c1

>  <score_type>  (31) 
oracle

>  <origin>  (31) 
adgpu

>  <m_score__min__energy>  (31) 
-11.050000000000001

>  <m_primary>  (31) 
energy

$$$$
31:0
     RDKit          3D

 55 58  0  0  0  0  0  0  0  0999 V2000
    0.6830   16.9780  -29.2800 C   0  0  0  0  0  0  0  0  0  0  0  0
    1.6520   15.9060  -29.4580 N   0  0  0  0  0  0  0  0  0  0  0  0
    1.3920   14.5140  -29.2370 C   0  0  0  0  0  0  0  0  0  0  0  0
    1.5850   14.0380  -28.0880 O   0  0  0  0  0  0  0  0  0  0  0  0
    0.9500   13.6100  -30.3140 C   0  0  0  0  0  0  0  0  0  0  0  0
    0.0330   14.0320  -31.2870 C   0  0  0  0  0  0  0  0  0  0  0  0
   -0.3850   13.1330  -32.2850 C   0  0  0  0  0  0  0  0  0  0  0  0
   -1.2860   13.5050  -33.2940 O   0  0  0  0  0  0  0  0  0  0  0  0
   -2.2210   14.5390  -33.1740 C   0  0  0  0  0  0  0  0  0  0  0  0
   -3.5440   14.2170  -32.8510 C   0  0  0  0  0  0  0  0  0  0  0  0
   -4.5090   15.2220  -32.7450 C   0  0  0  0  0  0  0  0  0  0  0  0
   -4.1590   16.5650  -32.9510 C   0  0  0  0  0  0  0  0  0  0  0  0
   -5.1500   17.6010  -32.8410 N   0  0  0  0  0  0  0  0  0  0  0  0
   -5.0460   18.7630  -33.7340 C   0  0  0  0  0  0  0  0  0  0  0  0
   -6.3760   19.4970  -33.8310 C   0  0  0  0  0  0  0  0  0  0  0  0
   -6.8410   19.8100  -32.4790 N   0  0  0  0  0  0  0  0  0  0  0  0
   -7.1260   21.1660  -32.0810 C   0  0  0  0  0  0  0  0  0  0  0  0
   -8.4200   21.6910  -32.2180 C   0  0  0  0  0  0  0  0  0  0  0  0
   -8.6980   22.9990  -31.8160 C   0  0  0  0  0  0  0  0  0  0  0  0
   -7.6920   23.7940  -31.2640 C   0  0  0  0  0  0  0  0  0  0  0  0
   -6.3900   23.2860  -31.1060 C   0  0  0  0  0  0  0  0  0  0  0  0
   -5.3100   24.1150  -30.5190 C   0  0  0  0  0  0  0  0  0  0  0  0
   -5.4440   24.7110  -29.2260 N   0  0  0  0  0  0  0  0  0  0  0  0
   -4.2370   24.2870  -31.1600 O   0  0  0  0  0  0  0  0  0  0  0  0
   -6.1160   21.9710  -31.5250 C   0  0  0  0  0  0  0  0  0  0  0  0
   -7.0980   18.6930  -31.5620 C   0  0  0  0  0  0  0  0  0  0  0  0
   -6.0840   17.5950  -31.7380 C   0  0  0  0  0  0  0  0  0  0  0  0
   -6.0990   16.6300  -30.9260 O   0  0  0  0  0  0  0  0  0  0  0  0
   -2.8270   16.8910  -33.2450 C   0  0  0  0  0  0  0  0  0  0  0  0
   -1.8570   15.8880  -33.3520 C   0  0  0  0  0  0  0  0  0  0  0  0
   -0.1870   16.3490  -33.6540 Cl  0  0  0  0  0  0  0  0  0  0  0  0
    0.1240   11.8320  -32.2860 C   0  0  0  0  0  0  0  0  0  0  0  0
    1.0110   11.4380  -31.2820 C   0  0  0  0  0  0  0  0  0  0  0  0
    1.3950   12.3240  -30.3250 N   0  0  0  0  0  0  0  0  0  0  0  0
    0.5240   17.1539  -28.2059 H   0  0  0  0  0  0  0  0  0  0  0  0
    1.0627   17.8973  -29.7498 H   0  0  0  0  0  0  0  0  0  0  0  0
   -0.2698   16.6927  -29.7498 H   0  0  0  0  0  0  0  0  0  0  0  0
   -0.3574   15.0603  -31.2701 H   0  0  0  0  0  0  0  0  0  0  0  0
   -3.8257   13.1676  -32.6797 H   0  0  0  0  0  0  0  0  0  0  0  0
   -5.5483   14.9589  -32.4988 H   0  0  0  0  0  0  0  0  0  0  0  0
   -4.2830   19.4513  -33.3414 H   0  0  0  0  0  0  0  0  0  0  0  0
   -4.7665   18.4099  -34.7376 H   0  0  0  0  0  0  0  0  0  0  0  0
   -6.2437   20.4282  -34.4014 H   0  0  0  0  0  0  0  0  0  0  0  0
   -7.1156   18.8646  -34.3439 H   0  0  0  0  0  0  0  0  0  0  0  0
   -9.2202   21.0684  -32.6446 H   0  0  0  0  0  0  0  0  0  0  0  0
   -9.7136   23.4045  -31.9347 H   0  0  0  0  0  0  0  0  0  0  0  0
   -7.9189   24.8238  -30.9508 H   0  0  0  0  0  0  0  0  0  0  0  0
   -6.2340   24.4650  -28.5880 H   0  0  0  0  0  0  0  0  0  0  0  0
   -4.6940   25.3370  -28.8590 H   0  0  0  0  0  0  0  0  0  0  0  0
   -5.0985   21.5675  -31.4162 H   0  0  0  0  0  0  0  0  0  0  0  0
   -7.0507   19.0615  -30.5266 H   0  0  0  0  0  0  0  0  0  0  0  0
   -8.0944   18.2837  -31.7849 H   0  0  0  0  0  0  0  0  0  0  0  0
   -2.5425   17.9433  -33.3926 H   0  0  0  0  0  0  0  0  0  0  0  0
   -0.1721   11.1225  -33.0727 H   0  0  0  0  0  0  0  0  0  0  0  0
    1.3996   10.4091  -31.2654 H   0  0  0  0  0  0  0  0  0  0  0  0
  1  2  1  0
  2  3  1  0
  3  4  2  0
  3  5  1  0
  5  6  2  0
  6  7  1  0
  7  8  1  0
  8  9  1  0
  9 10  2  0
 10 11  1  0
 11 12  2  0
 12 13  1  0
 13 14  1  0
 14 15  1  0
 15 16  1  0
 16 17  1  0
 17 18  2  0
 18 19  1  0
 19 20  2  0
 20 21  1  0
 21 22  1  0
 22 23  1  0
 22 24  2  0
 21 25  2  0
 16 26  1  0
 26 27  1  0
 27 28  2  0
 12 29  1  0
 29 30  2  0
 30 31  1  0
  7 32  2  0
 32 33  1  0
 33 34  2  0
 34  5  1  0
 30  9  1  0
 27 13  1  0
 25 17  1  0
  1 35  1  0
  1 36  1  0
  1 37  1  0
  6 38  1  0
 10 39  1  0
 11 40  1  0
 14 41  1  0
 14 42  1  0
 15 43  1  0
 15 44  1  0
 18 45  1  0
 19 46  1  0
 20 47  1  0
 23 48  1  0
 23 49  1  0
 25 50  1  0
 26 51  1  0
 26 52  1  0
 29 53  1  0
 32 54  1  0
 33 55  1  0
M  CHG  1   2  -1
M  END
>  <UniqueID>  (32) 
30

>  <SMILES>  (32) 
C[N-]C(=O)c1cc(Oc2ccc(N3CCN(c4cccc(C(N)=O)c4)CC3=O)cc2Cl)ccn1

>  <Energy>  (32) 
82.6289060971829

>  <Genealogy>  (32) 
C[N-]C(=O)c1cc(Oc2ccc(N3CCN(c4cccc(C(N)=O)c4)CC3=O)cc2Cl)ccn1 (protonated)
C[N-]C(=O)c1cc(Oc2ccc(N3CCN(c4cccc(C(N)=O)c4)CC3=O)cc2Cl)ccn1 (3D coordinates assigned)
C[N-]C(=O)c1cc(Oc2ccc(N3CCN(c4cccc(C(N)=O)c4)CC3=O)cc2Cl)ccn1 (nonaromatic ring conformer: 82.6289060971829 kcal/mol)

>  <smiles>  (32) 
CNC(=O)c1cc(Oc2ccc(N3CCN(c4cccc(C(N)=O)c4)CC3=O)cc2Cl)ccn1

>  <score_type>  (32) 
oracle

>  <origin>  (32) 
adgpu

>  <m_score__min__energy>  (32) 
-9.2599999999999998

>  <m_primary>  (32) 
energy

$$$$
32:0
     RDKit          3D

 44 45  0  0  0  0  0  0  0  0999 V2000
   -8.4279   22.5265  -29.6469 H   0  0  0  0  0  0  0  0  0  0  0  0
   -7.6090   22.6430  -30.3720 C   0  0  0  0  0  0  0  0  0  0  0  0
   -6.4120   23.2460  -29.9740 C   0  0  0  0  0  0  0  0  0  0  0  0
   -6.2962   23.6004  -28.9391 H   0  0  0  0  0  0  0  0  0  0  0  0
   -5.3570   23.4020  -30.8870 C   0  0  0  0  0  0  0  0  0  0  0  0
   -4.1120   24.1010  -30.4830 C   0  0  0  0  0  0  0  0  0  0  0  0
   -3.9290   25.2970  -30.8320 O   0  0  0  0  0  0  0  0  0  0  0  0
   -3.1370   23.4720  -29.6370 N   0  0  0  0  0  0  0  0  0  0  0  0
   -2.1850   24.0630  -28.9690 C   0  0  0  0  0  0  0  0  0  0  0  0
   -1.2510   23.2700  -28.2910 C   0  0  0  0  0  0  0  0  0  0  0  0
   -1.3390   22.1737  -28.3116 H   0  0  0  0  0  0  0  0  0  0  0  0
   -0.2080   23.8760  -27.5890 C   0  0  0  0  0  0  0  0  0  0  0  0
    0.5279   23.2569  -27.0551 H   0  0  0  0  0  0  0  0  0  0  0  0
   -0.0980   25.2700  -27.5640 C   0  0  0  0  0  0  0  0  0  0  0  0
    0.9980   25.9370  -26.7890 C   0  0  0  0  0  0  0  0  0  0  0  0
    0.8080   25.8214  -25.7117 H   0  0  0  0  0  0  0  0  0  0  0  0
    1.9621   25.4723  -27.0433 H   0  0  0  0  0  0  0  0  0  0  0  0
    1.0282   27.0068  -27.0433 H   0  0  0  0  0  0  0  0  0  0  0  0
   -1.0760   26.0350  -28.2120 C   0  0  0  0  0  0  0  0  0  0  0  0
   -1.0267   27.1331  -28.1709 H   0  0  0  0  0  0  0  0  0  0  0  0
   -2.0880   25.4280  -28.8930 N   0  0  0  0  0  0  0  0  0  0  0  0
   -2.8050   26.0490  -29.3270 H   0  0  0  0  0  0  0  0  0  0  0  0
   -5.5050   22.9000  -32.1910 C   0  0  0  0  0  0  0  0  0  0  0  0
   -4.6733   22.9848  -32.9059 H   0  0  0  0  0  0  0  0  0  0  0  0
   -6.7000   22.2940  -32.5870 C   0  0  0  0  0  0  0  0  0  0  0  0
   -6.8012   21.8994  -33.6088 H   0  0  0  0  0  0  0  0  0  0  0  0
   -7.7750   22.1860  -31.6850 C   0  0  0  0  0  0  0  0  0  0  0  0
   -9.0190   21.6370  -32.0390 O   0  0  0  0  0  0  0  0  0  0  0  0
   -9.4220   20.2760  -31.8660 C   0  0  0  0  0  0  0  0  0  0  0  0
  -10.4788   20.1770  -32.1549 H   0  0  0  0  0  0  0  0  0  0  0  0
   -9.2768   20.0055  -30.8097 H   0  0  0  0  0  0  0  0  0  0  0  0
   -8.5790   19.3240  -32.7260 C   0  0  0  0  0  0  0  0  0  0  0  0
   -7.9546   19.9242  -33.4041 H   0  0  0  0  0  0  0  0  0  0  0  0
   -9.2752   18.6741  -33.2764 H   0  0  0  0  0  0  0  0  0  0  0  0
   -7.6640   18.4160  -31.8940 C   0  0  0  0  0  0  0  0  0  0  0  0
   -8.1503   17.4378  -31.7648 H   0  0  0  0  0  0  0  0  0  0  0  0
   -7.4912   18.8947  -30.9188 H   0  0  0  0  0  0  0  0  0  0  0  0
   -6.3090   18.2140  -32.5830 C   0  0  0  0  0  0  0  0  0  0  0  0
   -6.2286   17.1694  -32.9182 H   0  0  0  0  0  0  0  0  0  0  0  0
   -5.5121   18.4514  -31.8629 H   0  0  0  0  0  0  0  0  0  0  0  0
   -6.1630   19.1370  -33.7890 C   0  0  0  0  0  0  0  0  0  0  0  0
   -5.9998   20.1685  -33.4436 H   0  0  0  0  0  0  0  0  0  0  0  0
   -5.3048   18.8136  -34.3965 H   0  0  0  0  0  0  0  0  0  0  0  0
   -7.0791   19.0943  -34.3965 H   0  0  0  0  0  0  0  0  0  0  0  0
  1  2  1  0
  2  3  2  0
  3  4  1  0
  3  5  1  0
  5  6  1  0
  6  7  2  0
  6  8  1  0
  8  9  2  0
  9 10  1  0
 10 11  1  0
 10 12  2  0
 12 13  1  0
 12 14  1  0
 14 15  1  0
 15 16  1  0
 15 17  1  0
 15 18  1  0
 14 19  2  0
 19 20  1  0
 19 21  1  0
 21 22  1  0
  5 23  2  0
 23 24  1  0
 23 25  1  0
 25 26  1  0
 25 27  2  0
 27 28  1  0
 28 29  1  0
 29 30  1  0
 29 31  1  0
 29 32  1  0
 32 33  1  0
 32 34  1  0
 32 35  1  0
 35 36  1  0
 35 37  1  0
 35 38  1  0
 38 39  1  0
 38 40  1  0
 38 41  1  0
 41 42  1  0
 41 43  1  0
 41 44  1  0
 27  2  1  0
 21  9  1  0
M  END
>  <UniqueID>  (33) 
31

>  <SMILES>  (33) 
CCCCCOc1ccc(C(=O)/N=c2/ccc(C)c[nH]2)cc1

>  <Energy>  (33) 
45.33888853171681

>  <Genealogy>  (33) 
CCCCCOc1ccc(C(=O)/N=c2/ccc(C)c[nH]2)cc1 (cis-trans isomerization)
CCCCCOc1ccc(C(=O)/N=c2/ccc(C)c[nH]2)cc1 (3D coordinates assigned)
CCCCCOc1ccc(C(=O)/N=c2/ccc(C)c[nH]2)cc1 (optimized conformer: 45.33888853171681 kcal/mol)

>  <smiles>  (33) 
CCCCCOc1ccc(C(=O)N=c2ccc(C)c[nH]2)cc1

>  <score_type>  (33) 
oracle

>  <origin>  (33) 
adgpu

>  <m_score__min__energy>  (33) 
-8.5700000000000003

>  <m_primary>  (33) 
energy

$$$$
33:0
     RDKit          3D

 46 48  0  0  0  0  0  0  0  0999 V2000
   -9.1410   18.2280  -31.7460 C   0  0  0  0  0  0  0  0  0  0  0  0
   -7.8280   18.4640  -31.2510 O   0  0  0  0  0  0  0  0  0  0  0  0
   -6.6850   18.6090  -32.0550 C   0  0  0  0  0  0  0  0  0  0  0  0
   -5.6160   17.6910  -31.9900 C   0  0  0  0  0  0  0  0  0  0  0  0
   -4.4880   17.8610  -32.7940 C   0  0  0  0  0  0  0  0  0  0  0  0
   -4.4130   18.9410  -33.6720 C   0  0  0  0  0  0  0  0  0  0  0  0
   -5.4640   19.8560  -33.7500 C   0  0  0  0  0  0  0  0  0  0  0  0
   -6.6060   19.7060  -32.9390 C   0  0  0  0  0  0  0  0  0  0  0  0
   -7.6940   20.6470  -33.0090 N   0  0  0  0  0  0  0  0  0  0  0  0
   -8.0960   21.7460  -31.7270 S   0  0  0  0  0  0  0  0  0  0  0  0
   -8.4460   20.9650  -30.4930 O   0  0  0  0  0  0  0  0  0  0  0  0
   -9.2860   22.5680  -32.1390 O   0  0  0  0  0  0  0  0  0  0  0  0
   -6.7140   22.7770  -31.3700 C   0  0  0  0  0  0  0  0  0  0  0  0
   -6.8820   24.1650  -31.3040 C   0  0  0  0  0  0  0  0  0  0  0  0
   -5.7990   24.9890  -30.9960 C   0  0  0  0  0  0  0  0  0  0  0  0
   -4.5360   24.4360  -30.7610 C   0  0  0  0  0  0  0  0  0  0  0  0
   -3.4710   25.2810  -30.4670 O   0  0  0  0  0  0  0  0  0  0  0  0
   -4.3490   23.0410  -30.8380 C   0  0  0  0  0  0  0  0  0  0  0  0
   -3.0240   22.4350  -30.5760 C   0  0  0  0  0  0  0  0  0  0  0  0
   -2.4050   22.7510  -29.5250 O   0  0  0  0  0  0  0  0  0  0  0  0
   -2.4280   21.4960  -31.4940 N   0  0  0  0  0  0  0  0  0  0  0  0
   -2.7260   21.5380  -32.9310 C   0  0  0  0  0  0  0  0  0  0  0  0
   -1.4690   21.1710  -33.7260 C   0  0  0  0  0  0  0  0  0  0  0  0
   -0.9280   19.9460  -33.2730 O   0  0  0  0  0  0  0  0  0  0  0  0
   -0.4720   20.0870  -31.9410 C   0  0  0  0  0  0  0  0  0  0  0  0
   -1.6410   20.3660  -30.9910 C   0  0  0  0  0  0  0  0  0  0  0  0
   -5.4500   22.2190  -31.1350 C   0  0  0  0  0  0  0  0  0  0  0  0
   -9.8344   18.1034  -30.9012 H   0  0  0  0  0  0  0  0  0  0  0  0
   -9.4607   19.0831  -32.3597 H   0  0  0  0  0  0  0  0  0  0  0  0
   -9.1429   17.3151  -32.3597 H   0  0  0  0  0  0  0  0  0  0  0  0
   -5.6718   16.8354  -31.3010 H   0  0  0  0  0  0  0  0  0  0  0  0
   -3.6575   17.1422  -32.7348 H   0  0  0  0  0  0  0  0  0  0  0  0
   -3.5231   19.0725  -34.3051 H   0  0  0  0  0  0  0  0  0  0  0  0
   -5.4000   20.7015  -34.4507 H   0  0  0  0  0  0  0  0  0  0  0  0
   -8.3550   20.6140  -33.8170 H   0  0  0  0  0  0  0  0  0  0  0  0
   -7.8707   24.6075  -31.4955 H   0  0  0  0  0  0  0  0  0  0  0  0
   -5.9391   26.0785  -30.9377 H   0  0  0  0  0  0  0  0  0  0  0  0
   -3.5271   20.8198  -33.1602 H   0  0  0  0  0  0  0  0  0  0  0  0
   -3.0510   22.5518  -33.2078 H   0  0  0  0  0  0  0  0  0  0  0  0
   -1.7300   21.0782  -34.7906 H   0  0  0  0  0  0  0  0  0  0  0  0
   -0.7182   21.9621  -33.5832 H   0  0  0  0  0  0  0  0  0  0  0  0
    0.0300   19.1584  -31.6317 H   0  0  0  0  0  0  0  0  0  0  0  0
    0.2278   20.9345  -31.8964 H   0  0  0  0  0  0  0  0  0  0  0  0
   -2.2814   19.4739  -30.9275 H   0  0  0  0  0  0  0  0  0  0  0  0
   -1.2487   20.6110  -29.9930 H   0  0  0  0  0  0  0  0  0  0  0  0
   -5.3183   21.1280  -31.1834 H   0  0  0  0  0  0  0  0  0  0  0  0
  1  2  1  0
  2  3  1  0
  3  4  2  0
  4  5  1  0
  5  6  2  0
  6  7  1  0
  7  8  2  0
  8  9  1  0
  9 10  1  0
 10 11  2  0
 10 12  2  0
 10 13  1  0
 13 14  2  0
 14 15  1  0
 15 16  2  0
 16 17  1  0
 16 18  1  0
 18 19  1  0
 19 20  2  0
 19 21  1  0
 21 22  1  0
 22 23  1  0
 23 24  1  0
 24 25  1  0
 25 26  1  0
 18 27  2  0
  8  3  1  0
 27 13  1  0
 26 21  1  0
  1 28  1  0
  1 29  1  0
  1 30  1  0
  4 31  1  0
  5 32  1  0
  6 33  1  0
  7 34  1  0
  9 35  1  0
 14 36  1  0
 15 37  1  0
 22 38  1  0
 22 39  1  0
 23 40  1  0
 23 41  1  0
 25 42  1  0
 25 43  1  0
 26 44  1  0
 26 45  1  0
 27 46  1  0
M  CHG  1  17  -1
M  END
>  <UniqueID>  (34) 
32

>  <SMILES>  (34) 
COc1ccccc1NS(=O)(=O)c1ccc([O-])c(C(=O)N2CCOCC2)c1

>  <Energy>  (34) 
57.7732644046622

>  <Genealogy>  (34) 
COc1ccccc1NS(=O)(=O)c1ccc([O-])c(C(=O)N2CCOCC2)c1 (protonated)
COc1ccccc1NS(=O)(=O)c1ccc([O-])c(C(=O)N2CCOCC2)c1 (3D coordinates assigned)
COc1ccccc1NS(=O)(=O)c1ccc([O-])c(C(=O)N2CCOCC2)c1 (nonaromatic ring conformer: 57.7732644046622 kcal/mol)

>  <smiles>  (34) 
COc1ccccc1NS(=O)(=O)c1ccc(O)c(C(=O)N2CCOCC2)c1

>  <score_type>  (34) 
oracle

>  <origin>  (34) 
adgpu

>  <m_score__min__energy>  (34) 
-11.470000000000001

>  <m_primary>  (34) 
energy

$$$$
34:0
     RDKit          3D

 50 53  0  0  0  0  0  0  0  0999 V2000
   -9.2820   19.6880  -33.0750 C   0  0  0  0  0  0  0  0  0  0  0  0
   -8.1250   19.4630  -32.2100 N   0  0  0  0  0  0  0  0  0  0  0  0
   -7.9500   18.1720  -31.5440 C   0  0  0  0  0  0  0  0  0  0  0  0
   -7.0950   20.4580  -32.1020 C   0  0  0  0  0  0  0  0  0  0  0  0
   -7.3300   21.5860  -31.3040 C   0  0  0  0  0  0  0  0  0  0  0  0
   -6.3440   22.5590  -31.1400 C   0  0  0  0  0  0  0  0  0  0  0  0
   -5.1040   22.4220  -31.7800 C   0  0  0  0  0  0  0  0  0  0  0  0
   -4.0490   23.3810  -31.6060 N   0  0  0  0  0  0  0  0  0  0  0  0
   -3.8390   24.2230  -30.4670 C   0  0  0  0  0  0  0  0  0  0  0  0
   -3.9220   25.4760  -30.5740 O   0  0  0  0  0  0  0  0  0  0  0  0
   -3.5220   23.6220  -29.2040 N   0  0  0  0  0  0  0  0  0  0  0  0
   -3.0910   24.3510  -28.0420 C   0  0  0  0  0  0  0  0  0  0  0  0
   -1.8140   24.9260  -28.0200 C   0  0  0  0  0  0  0  0  0  0  0  0
   -1.3920   25.6560  -26.9080 C   0  0  0  0  0  0  0  0  0  0  0  0
   -2.2610   25.8280  -25.8280 C   0  0  0  0  0  0  0  0  0  0  0  0
   -1.8320   26.5470  -24.7080 O   0  0  0  0  0  0  0  0  0  0  0  0
   -0.5390   27.0630  -24.5560 C   0  0  0  0  0  0  0  0  0  0  0  0
    0.3750   26.4100  -23.7160 C   0  0  0  0  0  0  0  0  0  0  0  0
    1.6790   26.9210  -23.5620 C   0  0  0  0  0  0  0  0  0  0  0  0
    2.0710   28.0370  -24.2430 N   0  0  0  0  0  0  0  0  0  0  0  0
    1.2030   28.6680  -25.0760 C   0  0  0  0  0  0  0  0  0  0  0  0
    1.5120   29.7860  -25.8520 C   0  0  0  0  0  0  0  0  0  0  0  0
    0.4460   30.1890  -26.6540 C   0  0  0  0  0  0  0  0  0  0  0  0
   -0.8650   29.1520  -26.3910 S   0  0  0  0  0  0  0  0  0  0  0  0
   -0.0890   28.1980  -25.2420 C   0  0  0  0  0  0  0  0  0  0  0  0
   -3.5060   25.2750  -25.8700 N   0  0  0  0  0  0  0  0  0  0  0  0
   -3.9380   24.5560  -26.9400 C   0  0  0  0  0  0  0  0  0  0  0  0
   -4.8570   21.2880  -32.5610 C   0  0  0  0  0  0  0  0  0  0  0  0
   -5.8510   20.3110  -32.7630 C   0  0  0  0  0  0  0  0  0  0  0  0
   -5.5470   19.1010  -33.6220 C   0  0  0  0  0  0  0  0  0  0  0  0
   -6.4600   18.9910  -34.6560 F   0  0  0  0  0  0  0  0  0  0  0  0
   -5.6000   17.9590  -32.8450 F   0  0  0  0  0  0  0  0  0  0  0  0
   -4.2850   19.1920  -34.1850 F   0  0  0  0  0  0  0  0  0  0  0  0
  -10.1745   19.8616  -32.4558 H   0  0  0  0  0  0  0  0  0  0  0  0
   -9.0996   20.5675  -33.7100 H   0  0  0  0  0  0  0  0  0  0  0  0
   -9.4425   18.8042  -33.7100 H   0  0  0  0  0  0  0  0  0  0  0  0
   -7.9696   18.3163  -30.4537 H   0  0  0  0  0  0  0  0  0  0  0  0
   -8.7644   17.4939  -31.8388 H   0  0  0  0  0  0  0  0  0  0  0  0
   -6.9844   17.7352  -31.8388 H   0  0  0  0  0  0  0  0  0  0  0  0
   -8.3015   21.7052  -30.8021 H   0  0  0  0  0  0  0  0  0  0  0  0
   -6.5399   23.4367  -30.5065 H   0  0  0  0  0  0  0  0  0  0  0  0
   -3.7020   22.5970  -29.1030 H   0  0  0  0  0  0  0  0  0  0  0  0
   -1.1418   24.8018  -28.8818 H   0  0  0  0  0  0  0  0  0  0  0  0
   -0.3827   26.0926  -26.8822 H   0  0  0  0  0  0  0  0  0  0  0  0
    0.0739   25.4992  -23.1776 H   0  0  0  0  0  0  0  0  0  0  0  0
    2.3867   26.4166  -22.8876 H   0  0  0  0  0  0  0  0  0  0  0  0
    2.4882   30.2926  -25.8327 H   0  0  0  0  0  0  0  0  0  0  0  0
    0.4553   31.0436  -27.3465 H   0  0  0  0  0  0  0  0  0  0  0  0
   -4.9536   24.1336  -26.9429 H   0  0  0  0  0  0  0  0  0  0  0  0
   -3.8686   21.1571  -33.0257 H   0  0  0  0  0  0  0  0  0  0  0  0
  1  2  1  0
  2  3  1  0
  2  4  1  0
  4  5  2  0
  5  6  1  0
  6  7  2  0
  7  8  1  0
  8  9  1  0
  9 10  2  0
  9 11  1  0
 11 12  1  0
 12 13  2  0
 13 14  1  0
 14 15  2  0
 15 16  1  0
 16 17  1  0
 17 18  2  0
 18 19  1  0
 19 20  2  0
 20 21  1  0
 21 22  1  0
 22 23  2  0
 23 24  1  0
 24 25  1  0
 15 26  1  0
 26 27  2  0
  7 28  1  0
 28 29  2  0
 29 30  1  0
 30 31  1  0
 30 32  1  0
 30 33  1  0
 29  4  1  0
 27 12  1  0
 25 17  1  0
 25 21  2  0
  1 34  1  0
  1 35  1  0
  1 36  1  0
  3 37  1  0
  3 38  1  0
  3 39  1  0
  5 40  1  0
  6 41  1  0
 11 42  1  0
 13 43  1  0
 14 44  1  0
 18 45  1  0
 19 46  1  0
 22 47  1  0
 23 48  1  0
 27 49  1  0
 28 50  1  0
M  CHG  1   8  -1
M  END
>  <UniqueID>  (35) 
33

>  <SMILES>  (35) 
CN(C)c1ccc([N-]C(=O)Nc2ccc(Oc3ccnc4ccsc34)nc2)cc1C(F)(F)F

>  <Energy>  (35) 
106.09681208480538

>  <Genealogy>  (35) 
CN(C)c1ccc([N-]C(=O)Nc2ccc(Oc3ccnc4ccsc34)nc2)cc1C(F)(F)F (protonated)
CN(C)c1ccc([N-]C(=O)Nc2ccc(Oc3ccnc4ccsc34)nc2)cc1C(F)(F)F (3D coordinates assigned)
CN(C)c1ccc([N-]C(=O)Nc2ccc(Oc3ccnc4ccsc34)nc2)cc1C(F)(F)F (optimized conformer: 106.09681208480538 kcal/mol)

>  <smiles>  (35) 
CN(C)c1ccc(NC(=O)Nc2ccc(Oc3ccnc4ccsc34)nc2)cc1C(F)(F)F

>  <score_type>  (35) 
oracle

>  <origin>  (35) 
adgpu

>  <m_score__min__energy>  (35) 
-10.49

>  <m_primary>  (35) 
energy

$$$$
35:0
     RDKit          3D

 66 69  0  0  0  0  0  0  0  0999 V2000
   -3.1810   15.1700  -35.4850 C   0  0  0  0  0  0  0  0  0  0  0  0
   -3.2150   16.5090  -34.9990 O   0  0  0  0  0  0  0  0  0  0  0  0
   -4.3290   17.1070  -34.3890 C   0  0  0  0  0  0  0  0  0  0  0  0
   -5.6160   16.5400  -34.4690 C   0  0  0  0  0  0  0  0  0  0  0  0
   -6.6960   17.1400  -33.8190 C   0  0  0  0  0  0  0  0  0  0  0  0
   -6.5130   18.3190  -33.0850 C   0  0  0  0  0  0  0  0  0  0  0  0
   -7.8660   19.0510  -32.2200 S   0  0  0  0  0  0  0  0  0  0  0  0
   -9.0980   18.9250  -33.0720 O   0  0  0  0  0  0  0  0  0  0  0  0
   -8.0810   18.2990  -30.9350 O   0  0  0  0  0  0  0  0  0  0  0  0
   -7.5630   20.7640  -31.8620 C   0  0  0  0  0  0  0  0  0  0  0  0
   -6.2480   21.1930  -31.6140 C   0  0  0  0  0  0  0  0  0  0  0  0
   -5.9650   22.5400  -31.3670 C   0  0  0  0  0  0  0  0  0  0  0  0
   -4.3000   23.0600  -31.0820 S   0  0  0  0  0  0  0  0  0  0  0  0
   -3.4170   22.5090  -32.1650 O   0  0  0  0  0  0  0  0  0  0  0  0
   -4.2340   24.5600  -31.1450 O   0  0  0  0  0  0  0  0  0  0  0  0
   -3.7110   22.5170  -29.5280 N   0  0  0  0  0  0  0  0  0  0  0  0
   -4.5400   23.0330  -28.4170 C   0  0  0  0  0  0  0  0  0  0  0  0
   -3.8320   24.1590  -27.6400 C   0  0  0  0  0  0  0  0  0  0  0  0
   -2.5790   23.7630  -27.0960 O   0  0  0  0  0  0  0  0  0  0  0  0
   -1.8760   22.8200  -27.8970 C   0  0  0  0  0  0  0  0  0  0  0  0
   -2.2790   22.8390  -29.3780 C   0  0  0  0  0  0  0  0  0  0  0  0
   -7.0080   23.4710  -31.3440 C   0  0  0  0  0  0  0  0  0  0  0  0
   -8.3200   23.0600  -31.5700 C   0  0  0  0  0  0  0  0  0  0  0  0
   -8.6160   21.7130  -31.8350 C   0  0  0  0  0  0  0  0  0  0  0  0
  -10.0520   21.3100  -32.0480 C   0  0  0  0  0  0  0  0  0  0  0  0
   -5.2370   18.8890  -33.0020 C   0  0  0  0  0  0  0  0  0  0  0  0
   -4.1470   18.2960  -33.6560 C   0  0  0  0  0  0  0  0  0  0  0  0
   -2.8440   18.8870  -33.5310 N   0  0  0  0  0  0  0  0  0  0  0  0
   -2.5570   20.1820  -34.1550 C   0  0  0  0  0  0  0  0  0  0  0  0
   -1.1930   20.7110  -33.6940 C   0  0  0  0  0  0  0  0  0  0  0  0
   -1.0520   20.5510  -32.2320 N   0  0  0  0  0  0  0  0  0  0  0  0
    0.1910   21.2020  -31.7720 C   0  0  0  0  0  0  0  0  0  0  0  0
   -1.0860   19.1230  -31.7990 C   0  0  0  0  0  0  0  0  0  0  0  0
   -1.7930   18.1830  -32.7950 C   0  0  0  0  0  0  0  0  0  0  0  0
   -3.1633   14.4718  -34.6352 H   0  0  0  0  0  0  0  0  0  0  0  0
   -4.0746   14.9794  -36.0975 H   0  0  0  0  0  0  0  0  0  0  0  0
   -2.2789   15.0250  -36.0975 H   0  0  0  0  0  0  0  0  0  0  0  0
   -5.7712   15.6176  -35.0479 H   0  0  0  0  0  0  0  0  0  0  0  0
   -7.6953   16.6848  -33.8835 H   0  0  0  0  0  0  0  0  0  0  0  0
   -5.4292   20.4584  -31.6142 H   0  0  0  0  0  0  0  0  0  0  0  0
   -5.4817   23.4244  -28.8293 H   0  0  0  0  0  0  0  0  0  0  0  0
   -4.7243   22.2035  -27.7184 H   0  0  0  0  0  0  0  0  0  0  0  0
   -3.6646   25.0040  -28.3241 H   0  0  0  0  0  0  0  0  0  0  0  0
   -4.4826   24.4327  -26.7963 H   0  0  0  0  0  0  0  0  0  0  0  0
   -0.8005   23.0404  -27.8279 H   0  0  0  0  0  0  0  0  0  0  0  0
   -2.1282   21.8216  -27.5102 H   0  0  0  0  0  0  0  0  0  0  0  0
   -2.0877   23.8398  -29.7924 H   0  0  0  0  0  0  0  0  0  0  0  0
   -1.6865   22.0855  -29.9176 H   0  0  0  0  0  0  0  0  0  0  0  0
   -6.7920   24.5314  -31.1468 H   0  0  0  0  0  0  0  0  0  0  0  0
   -9.1338   23.7995  -31.5405 H   0  0  0  0  0  0  0  0  0  0  0  0
  -10.5426   21.1723  -31.0732 H   0  0  0  0  0  0  0  0  0  0  0  0
  -10.5736   22.0965  -32.6132 H   0  0  0  0  0  0  0  0  0  0  0  0
  -10.0882   20.3670  -32.6132 H   0  0  0  0  0  0  0  0  0  0  0  0
   -5.0879   19.8098  -32.4189 H   0  0  0  0  0  0  0  0  0  0  0  0
   -2.5480   20.0627  -35.2485 H   0  0  0  0  0  0  0  0  0  0  0  0
   -3.3355   20.9000  -33.8578 H   0  0  0  0  0  0  0  0  0  0  0  0
   -0.3949   20.1479  -34.1999 H   0  0  0  0  0  0  0  0  0  0  0  0
   -1.1175   21.7787  -33.9474 H   0  0  0  0  0  0  0  0  0  0  0  0
   -1.8500   21.0580  -31.7700 H   0  0  0  0  0  0  0  0  0  0  0  0
    0.2135   21.2138  -30.6723 H   0  0  0  0  0  0  0  0  0  0  0  0
    1.0595   20.6430  -32.1505 H   0  0  0  0  0  0  0  0  0  0  0  0
    0.2261   22.2342  -32.1505 H   0  0  0  0  0  0  0  0  0  0  0  0
   -0.0502   18.7755  -31.6710 H   0  0  0  0  0  0  0  0  0  0  0  0
   -1.6631   19.0877  -30.8632 H   0  0  0  0  0  0  0  0  0  0  0  0
   -1.0525   17.7949  -33.5099 H   0  0  0  0  0  0  0  0  0  0  0  0
   -2.2545   17.3597  -32.2300 H   0  0  0  0  0  0  0  0  0  0  0  0
  1  2  1  0
  2  3  1  0
  3  4  2  0
  4  5  1  0
  5  6  2  0
  6  7  1  0
  7  8  2  0
  7  9  2  0
  7 10  1  0
 10 11  2  0
 11 12  1  0
 12 13  1  0
 13 14  2  0
 13 15  2  0
 13 16  1  0
 16 17  1  0
 17 18  1  0
 18 19  1  0
 19 20  1  0
 20 21  1  0
 12 22  2  0
 22 23  1  0
 23 24  2  0
 24 25  1  0
  6 26  1  0
 26 27  2  0
 27 28  1  0
 28 29  1  0
 29 30  1  0
 30 31  1  0
 31 32  1  0
 31 33  1  0
 33 34  1  0
 27  3  1  0
 34 28  1  0
 24 10  1  0
 21 16  1  0
  1 35  1  0
  1 36  1  0
  1 37  1  0
  4 38  1  0
  5 39  1  0
 11 40  1  0
 17 41  1  0
 17 42  1  0
 18 43  1  0
 18 44  1  0
 20 45  1  0
 20 46  1  0
 21 47  1  0
 21 48  1  0
 22 49  1  0
 23 50  1  0
 25 51  1  0
 25 52  1  0
 25 53  1  0
 26 54  1  0
 29 55  1  0
 29 56  1  0
 30 57  1  0
 30 58  1  0
 31 59  1  0
 32 60  1  0
 32 61  1  0
 32 62  1  0
 33 63  1  0
 33 64  1  0
 34 65  1  0
 34 66  1  0
M  CHG  1  31   1
M  END
>  <UniqueID>  (36) 
34

>  <SMILES>  (36) 
COc1ccc(S(=O)(=O)c2cc(S(=O)(=O)N3CCOCC3)ccc2C)cc1N1CC[NH+](C)CC1

>  <Energy>  (36) 
90.68245872701323

>  <Genealogy>  (36) 
COc1ccc(S(=O)(=O)c2cc(S(=O)(=O)N3CCOCC3)ccc2C)cc1N1CC[NH+](C)CC1 (protonated)
COc1ccc(S(=O)(=O)c2cc(S(=O)(=O)N3CCOCC3)ccc2C)cc1N1CC[NH+](C)CC1 (3D coordinates assigned)
COc1ccc(S(=O)(=O)c2cc(S(=O)(=O)N3CCOCC3)ccc2C)cc1N1CC[NH+](C)CC1 (nonaromatic ring conformer: 90.68245872701323 kcal/mol)

>  <smiles>  (36) 
COc1ccc(S(=O)(=O)c2cc(S(=O)(=O)N3CCOCC3)ccc2C)cc1N1CCN(C)CC1

>  <score_type>  (36) 
oracle

>  <origin>  (36) 
adgpu

>  <m_score__min__energy>  (36) 
-9.9900000000000002

>  <m_primary>  (36) 
energy

$$$$
36:0
     RDKit          3D

 53 56  0  0  0  0  0  0  0  0999 V2000
   -5.3990   26.1030  -30.8000 O   0  0  0  0  0  0  0  0  0  0  0  0
   -4.8820   24.9540  -30.7550 C   0  0  0  0  0  0  0  0  0  0  0  0
   -3.4870   24.8070  -30.4650 N   0  0  0  0  0  0  0  0  0  0  0  0
   -2.9290   24.8850  -29.1190 C   0  0  0  0  0  0  0  0  0  0  0  0
   -2.6570   23.5100  -28.5750 C   0  0  0  0  0  0  0  0  0  0  0  0
   -3.6980   22.5840  -28.4100 C   0  0  0  0  0  0  0  0  0  0  0  0
   -3.4240   21.3080  -27.9150 C   0  0  0  0  0  0  0  0  0  0  0  0
   -2.1080   20.9680  -27.5900 C   0  0  0  0  0  0  0  0  0  0  0  0
   -1.1100   21.8750  -27.7570 N   0  0  0  0  0  0  0  0  0  0  0  0
   -1.3510   23.1240  -28.2370 C   0  0  0  0  0  0  0  0  0  0  0  0
   -5.7130   23.7550  -30.9950 C   0  0  0  0  0  0  0  0  0  0  0  0
   -6.9810   23.6690  -30.3990 C   0  0  0  0  0  0  0  0  0  0  0  0
   -7.8190   22.5880  -30.6770 C   0  0  0  0  0  0  0  0  0  0  0  0
   -7.3830   21.5940  -31.5520 C   0  0  0  0  0  0  0  0  0  0  0  0
   -6.1450   21.6680  -32.1030 N   0  0  0  0  0  0  0  0  0  0  0  0
   -5.2910   22.6940  -31.8380 C   0  0  0  0  0  0  0  0  0  0  0  0
   -4.0170   22.6600  -32.4230 O   0  0  0  0  0  0  0  0  0  0  0  0
   -2.9880   21.7820  -32.0480 C   0  0  0  0  0  0  0  0  0  0  0  0
   -1.8720   22.3030  -31.3830 C   0  0  0  0  0  0  0  0  0  0  0  0
   -0.8570   21.4550  -30.9340 C   0  0  0  0  0  0  0  0  0  0  0  0
   -0.9380   20.0760  -31.1620 C   0  0  0  0  0  0  0  0  0  0  0  0
    0.3040   19.0100  -30.5080 S   0  0  0  0  0  0  0  0  0  0  0  0
   -0.0460   17.5750  -30.7940 O   0  0  0  0  0  0  0  0  0  0  0  0
    1.6110   19.3300  -31.1770 O   0  0  0  0  0  0  0  0  0  0  0  0
    0.4450   19.2630  -28.7820 N   0  0  0  0  0  0  0  0  0  0  0  0
   -0.2970   18.2410  -28.0310 C   0  0  0  0  0  0  0  0  0  0  0  0
    0.6740   17.1210  -27.6920 C   0  0  0  0  0  0  0  0  0  0  0  0
    2.0620   17.7100  -27.8830 C   0  0  0  0  0  0  0  0  0  0  0  0
    1.8400   19.1440  -28.3430 C   0  0  0  0  0  0  0  0  0  0  0  0
   -2.0330   19.5530  -31.8650 C   0  0  0  0  0  0  0  0  0  0  0  0
   -3.0470   20.4020  -32.3150 C   0  0  0  0  0  0  0  0  0  0  0  0
   -1.9877   25.4532  -29.1509 H   0  0  0  0  0  0  0  0  0  0  0  0
   -3.6562   25.3867  -28.4636 H   0  0  0  0  0  0  0  0  0  0  0  0
   -4.7295   22.8634  -28.6706 H   0  0  0  0  0  0  0  0  0  0  0  0
   -4.2356   20.5775  -27.7821 H   0  0  0  0  0  0  0  0  0  0  0  0
   -1.8799   19.9656  -27.1988 H   0  0  0  0  0  0  0  0  0  0  0  0
   -0.5199   23.8339  -28.3607 H   0  0  0  0  0  0  0  0  0  0  0  0
   -7.3160   24.4577  -29.7092 H   0  0  0  0  0  0  0  0  0  0  0  0
   -8.8130   22.5210  -30.2106 H   0  0  0  0  0  0  0  0  0  0  0  0
   -8.0433   20.7487  -31.7961 H   0  0  0  0  0  0  0  0  0  0  0  0
   -1.7938   23.3870  -31.2129 H   0  0  0  0  0  0  0  0  0  0  0  0
    0.0091   21.8721  -30.3993 H   0  0  0  0  0  0  0  0  0  0  0  0
    0.0740   20.2160  -28.5570 H   0  0  0  0  0  0  0  0  0  0  0  0
   -0.7038   18.6769  -27.1066 H   0  0  0  0  0  0  0  0  0  0  0  0
   -1.1357   17.8560  -28.6296 H   0  0  0  0  0  0  0  0  0  0  0  0
    0.5354   16.7950  -26.6506 H   0  0  0  0  0  0  0  0  0  0  0  0
    0.5155   16.2387  -28.3295 H   0  0  0  0  0  0  0  0  0  0  0  0
    2.6198   17.6931  -26.9351 H   0  0  0  0  0  0  0  0  0  0  0  0
    2.6504   17.1353  -28.6134 H   0  0  0  0  0  0  0  0  0  0  0  0
    2.0310   19.8377  -27.5110 H   0  0  0  0  0  0  0  0  0  0  0  0
    2.5248   19.3938  -29.1668 H   0  0  0  0  0  0  0  0  0  0  0  0
   -2.0935   18.4725  -32.0624 H   0  0  0  0  0  0  0  0  0  0  0  0
   -3.8955   19.9896  -32.8807 H   0  0  0  0  0  0  0  0  0  0  0  0
  1  2  2  0
  2  3  1  0
  3  4  1  0
  4  5  1  0
  5  6  2  0
  6  7  1  0
  7  8  2  0
  8  9  1  0
  9 10  2  0
  2 11  1  0
 11 12  2  0
 12 13  1  0
 13 14  2  0
 14 15  1  0
 15 16  2  0
 16 17  1  0
 17 18  1  0
 18 19  2  0
 19 20  1  0
 20 21  2  0
 21 22  1  0
 22 23  2  0
 22 24  2  0
 22 25  1  0
 25 26  1  0
 26 27  1  0
 27 28  1  0
 28 29  1  0
 21 30  1  0
 30 31  2  0
 10  5  1  0
 16 11  1  0
 31 18  1  0
 29 25  1  0
  4 32  1  0
  4 33  1  0
  6 34  1  0
  7 35  1  0
  8 36  1  0
 10 37  1  0
 12 38  1  0
 13 39  1  0
 14 40  1  0
 19 41  1  0
 20 42  1  0
 25 43  1  0
 26 44  1  0
 26 45  1  0
 27 46  1  0
 27 47  1  0
 28 48  1  0
 28 49  1  0
 29 50  1  0
 29 51  1  0
 30 52  1  0
 31 53  1  0
M  CHG  2   3  -1  25   1
M  END
>  <UniqueID>  (37) 
35

>  <SMILES>  (37) 
O=C([N-]Cc1cccnc1)c1cccnc1Oc1ccc(S(=O)(=O)[NH+]2CCCC2)cc1

>  <Energy>  (37) 
66.93744124177599

>  <Genealogy>  (37) 
O=C([N-]Cc1cccnc1)c1cccnc1Oc1ccc(S(=O)(=O)[NH+]2CCCC2)cc1 (protonated)
O=C([N-]Cc1cccnc1)c1cccnc1Oc1ccc(S(=O)(=O)[NH+]2CCCC2)cc1 (3D coordinates assigned)
O=C([N-]Cc1cccnc1)c1cccnc1Oc1ccc(S(=O)(=O)[NH+]2CCCC2)cc1 (nonaromatic ring conformer: 66.93744124177599 kcal/mol)

>  <smiles>  (37) 
O=C(NCc1cccnc1)c1cccnc1Oc1ccc(S(=O)(=O)N2CCCC2)cc1

>  <score_type>  (37) 
oracle

>  <origin>  (37) 
adgpu

>  <m_score__min__energy>  (37) 
-10.73

>  <m_primary>  (37) 
energy

$$$$
37:0
     RDKit          3D

 61 64  0  0  0  0  0  0  0  0999 V2000
   -7.3130   18.1480  -31.6300 C   0  0  0  0  0  0  0  0  0  0  0  0
   -6.4710   17.8020  -32.7740 N   0  0  0  0  0  0  0  0  0  0  0  0
   -6.0060   16.4540  -32.9500 C   0  0  0  0  0  0  0  0  0  0  0  0
   -5.0220   15.9250  -32.0980 C   0  0  0  0  0  0  0  0  0  0  0  0
   -4.5690   14.6130  -32.2730 C   0  0  0  0  0  0  0  0  0  0  0  0
   -5.0910   13.8220  -33.3000 C   0  0  0  0  0  0  0  0  0  0  0  0
   -6.0660   14.3420  -34.1560 C   0  0  0  0  0  0  0  0  0  0  0  0
   -6.5210   15.6530  -33.9850 C   0  0  0  0  0  0  0  0  0  0  0  0
   -6.0130   19.0470  -33.8980 S   0  0  0  0  0  0  0  0  0  0  0  0
   -7.0480   20.1380  -33.8910 O   0  0  0  0  0  0  0  0  0  0  0  0
   -5.9130   18.4900  -35.2910 O   0  0  0  0  0  0  0  0  0  0  0  0
   -4.4390   19.6820  -33.4340 C   0  0  0  0  0  0  0  0  0  0  0  0
   -3.4450   18.8090  -32.9800 C   0  0  0  0  0  0  0  0  0  0  0  0
   -2.2010   19.3030  -32.5780 C   0  0  0  0  0  0  0  0  0  0  0  0
   -1.9360   20.6830  -32.6160 C   0  0  0  0  0  0  0  0  0  0  0  0
   -0.6210   21.2110  -32.1830 C   0  0  0  0  0  0  0  0  0  0  0  0
    0.2710   21.4540  -33.0400 O   0  0  0  0  0  0  0  0  0  0  0  0
   -0.3820   21.4950  -30.7960 N   0  0  0  0  0  0  0  0  0  0  0  0
   -1.0590   22.4760  -29.9990 C   0  0  0  0  0  0  0  0  0  0  0  0
   -0.3880   23.0330  -28.9050 C   0  0  0  0  0  0  0  0  0  0  0  0
   -1.0140   23.9920  -28.1050 C   0  0  0  0  0  0  0  0  0  0  0  0
   -2.3130   24.4100  -28.4000 C   0  0  0  0  0  0  0  0  0  0  0  0
   -2.9890   23.8800  -29.5080 C   0  0  0  0  0  0  0  0  0  0  0  0
   -4.6350   24.4000  -29.8770 S   0  0  0  0  0  0  0  0  0  0  0  0
   -5.2890   24.9140  -28.6230 O   0  0  0  0  0  0  0  0  0  0  0  0
   -4.5880   25.5280  -30.8710 O   0  0  0  0  0  0  0  0  0  0  0  0
   -5.5900   23.0850  -30.5220 N   0  0  0  0  0  0  0  0  0  0  0  0
   -6.8450   22.9300  -29.7520 C   0  0  0  0  0  0  0  0  0  0  0  0
   -7.8840   22.1150  -30.5310 C   0  0  0  0  0  0  0  0  0  0  0  0
   -8.2790   22.8310  -31.8340 C   0  0  0  0  0  0  0  0  0  0  0  0
   -7.1620   23.7400  -32.3770 C   0  0  0  0  0  0  0  0  0  0  0  0
   -5.7730   23.2100  -31.9880 C   0  0  0  0  0  0  0  0  0  0  0  0
   -2.3530   22.9270  -30.3150 C   0  0  0  0  0  0  0  0  0  0  0  0
   -2.9410   21.5560  -33.0700 C   0  0  0  0  0  0  0  0  0  0  0  0
   -4.1830   21.0580  -33.4750 C   0  0  0  0  0  0  0  0  0  0  0  0
   -6.7736   17.9263  -30.6973 H   0  0  0  0  0  0  0  0  0  0  0  0
   -7.5581   19.2197  -31.6660 H   0  0  0  0  0  0  0  0  0  0  0  0
   -8.2409   17.5583  -31.6660 H   0  0  0  0  0  0  0  0  0  0  0  0
   -4.6061   16.5449  -31.2901 H   0  0  0  0  0  0  0  0  0  0  0  0
   -3.8005   14.2033  -31.6010 H   0  0  0  0  0  0  0  0  0  0  0  0
   -4.7346   12.7901  -33.4348 H   0  0  0  0  0  0  0  0  0  0  0  0
   -6.4757   13.7193  -34.9649 H   0  0  0  0  0  0  0  0  0  0  0  0
   -7.2855   16.0599  -34.6633 H   0  0  0  0  0  0  0  0  0  0  0  0
   -3.6435   17.7278  -32.9391 H   0  0  0  0  0  0  0  0  0  0  0  0
   -1.4237   18.6070  -32.2294 H   0  0  0  0  0  0  0  0  0  0  0  0
    0.6389   22.7138  -28.6733 H   0  0  0  0  0  0  0  0  0  0  0  0
   -0.4827   24.4184  -27.2414 H   0  0  0  0  0  0  0  0  0  0  0  0
   -2.8073   25.1570  -27.7615 H   0  0  0  0  0  0  0  0  0  0  0  0
   -6.6227   22.4150  -28.8058 H   0  0  0  0  0  0  0  0  0  0  0  0
   -7.2610   23.9308  -29.5642 H   0  0  0  0  0  0  0  0  0  0  0  0
   -7.4594   21.1302  -30.7757 H   0  0  0  0  0  0  0  0  0  0  0  0
   -8.7822   22.0018  -29.9061 H   0  0  0  0  0  0  0  0  0  0  0  0
   -8.5153   22.0721  -32.5944 H   0  0  0  0  0  0  0  0  0  0  0  0
   -9.1467   23.4694  -31.6113 H   0  0  0  0  0  0  0  0  0  0  0  0
   -7.2354   23.7819  -33.4737 H   0  0  0  0  0  0  0  0  0  0  0  0
   -7.2864   24.7419  -31.9403 H   0  0  0  0  0  0  0  0  0  0  0  0
   -5.6359   22.2185  -32.4441 H   0  0  0  0  0  0  0  0  0  0  0  0
   -5.0305   23.9356  -32.3515 H   0  0  0  0  0  0  0  0  0  0  0  0
   -2.8692   22.5292  -31.2012 H   0  0  0  0  0  0  0  0  0  0  0  0
   -2.7484   22.6384  -33.1067 H   0  0  0  0  0  0  0  0  0  0  0  0
   -4.9622   21.7499  -33.8273 H   0  0  0  0  0  0  0  0  0  0  0  0
  1  2  1  0
  2  3  1  0
  3  4  2  0
  4  5  1  0
  5  6  2  0
  6  7  1  0
  7  8  2  0
  2  9  1  0
  9 10  2  0
  9 11  2  0
  9 12  1  0
 12 13  2  0
 13 14  1  0
 14 15  2  0
 15 16  1  0
 16 17  2  0
 16 18  1  0
 18 19  1  0
 19 20  2  0
 20 21  1  0
 21 22  2  0
 22 23  1  0
 23 24  1  0
 24 25  2  0
 24 26  2  0
 24 27  1  0
 27 28  1  0
 28 29  1  0
 29 30  1  0
 30 31  1  0
 31 32  1  0
 23 33  2  0
 15 34  1  0
 34 35  2  0
  8  3  1  0
 35 12  1  0
 33 19  1  0
 32 27  1  0
  1 36  1  0
  1 37  1  0
  1 38  1  0
  4 39  1  0
  5 40  1  0
  6 41  1  0
  7 42  1  0
  8 43  1  0
 13 44  1  0
 14 45  1  0
 20 46  1  0
 21 47  1  0
 22 48  1  0
 28 49  1  0
 28 50  1  0
 29 51  1  0
 29 52  1  0
 30 53  1  0
 30 54  1  0
 31 55  1  0
 31 56  1  0
 32 57  1  0
 32 58  1  0
 33 59  1  0
 34 60  1  0
 35 61  1  0
M  CHG  1  18  -1
M  END
>  <UniqueID>  (38) 
36

>  <SMILES>  (38) 
CN(c1ccccc1)S(=O)(=O)c1ccc(C(=O)[N-]c2cccc(S(=O)(=O)N3CCCCC3)c2)cc1

>  <Energy>  (38) 
77.86215137303206

>  <Genealogy>  (38) 
CN(c1ccccc1)S(=O)(=O)c1ccc(C(=O)[N-]c2cccc(S(=O)(=O)N3CCCCC3)c2)cc1 (protonated)
CN(c1ccccc1)S(=O)(=O)c1ccc(C(=O)[N-]c2cccc(S(=O)(=O)N3CCCCC3)c2)cc1 (3D coordinates assigned)
CN(c1ccccc1)S(=O)(=O)c1ccc(C(=O)[N-]c2cccc(S(=O)(=O)N3CCCCC3)c2)cc1 (nonaromatic ring conformer: 77.86215137303206 kcal/mol)

>  <smiles>  (38) 
CN(c1ccccc1)S(=O)(=O)c1ccc(C(=O)Nc2cccc(S(=O)(=O)N3CCCCC3)c2)cc1

>  <score_type>  (38) 
oracle

>  <origin>  (38) 
adgpu

>  <m_score__min__energy>  (38) 
-12.98

>  <m_primary>  (38) 
energy

$$$$
38:0
     RDKit          3D

 44 46  0  0  0  0  0  0  0  0999 V2000
   -1.2300   26.4300  -30.3080 H   0  0  0  0  0  0  0  0  0  0  0  0
   -1.2440   26.0890  -29.3530 O   0  0  0  0  0  0  0  0  0  0  0  0
   -1.8850   24.9010  -28.9970 C   0  0  0  0  0  0  0  0  0  0  0  0
   -1.2850   24.0610  -28.0500 C   0  0  0  0  0  0  0  0  0  0  0  0
   -0.0700   24.4120  -27.4760 O   0  0  0  0  0  0  0  0  0  0  0  0
   -1.9040   22.8640  -27.6840 C   0  0  0  0  0  0  0  0  0  0  0  0
   -1.4270   22.2034  -26.9451 H   0  0  0  0  0  0  0  0  0  0  0  0
   -3.1280   22.5030  -28.2540 C   0  0  0  0  0  0  0  0  0  0  0  0
   -3.6048   21.5540  -27.9676 H   0  0  0  0  0  0  0  0  0  0  0  0
   -3.7540   23.3430  -29.1900 C   0  0  0  0  0  0  0  0  0  0  0  0
   -5.0740   22.9230  -29.7930 C   0  0  0  0  0  0  0  0  0  0  0  0
   -5.8367   23.6782  -29.5523 H   0  0  0  0  0  0  0  0  0  0  0  0
   -5.3567   21.9455  -29.3751 H   0  0  0  0  0  0  0  0  0  0  0  0
   -4.9660   22.7970  -31.2480 N   0  0  0  0  0  0  0  0  0  0  0  0
   -4.6600   23.6450  -31.7780 H   0  0  0  0  0  0  0  0  0  0  0  0
   -5.1720   21.5700  -31.9750 C   0  0  0  0  0  0  0  0  0  0  0  0
   -4.0800   20.9630  -32.6160 C   0  0  0  0  0  0  0  0  0  0  0  0
   -3.0880   21.4359  -32.5695 H   0  0  0  0  0  0  0  0  0  0  0  0
   -4.2440   19.7620  -33.3130 C   0  0  0  0  0  0  0  0  0  0  0  0
   -3.3803   19.2925  -33.8066 H   0  0  0  0  0  0  0  0  0  0  0  0
   -5.5030   19.1550  -33.3850 C   0  0  0  0  0  0  0  0  0  0  0  0
   -5.7150   17.6180  -34.2180 S   0  0  0  0  0  0  0  0  0  0  0  0
   -5.6430   17.8050  -35.7080 O   0  0  0  0  0  0  0  0  0  0  0  0
   -7.0620   17.0510  -33.8700 O   0  0  0  0  0  0  0  0  0  0  0  0
   -4.4800   16.5140  -33.7130 N   0  0  0  0  0  0  0  0  0  0  0  0
   -3.2400   16.6530  -34.0630 C   0  0  0  0  0  0  0  0  0  0  0  0
   -2.7810   17.6160  -34.8290 O   0  0  0  0  0  0  0  0  0  0  0  0
   -1.4910   17.5070  -34.9800 N   0  0  0  0  0  0  0  0  0  0  0  0
   -1.1010   16.4210  -34.2780 C   0  0  0  0  0  0  0  0  0  0  0  0
    0.3160   15.9640  -34.1680 C   0  0  0  0  0  0  0  0  0  0  0  0
    0.5913   15.8752  -33.1067 H   0  0  0  0  0  0  0  0  0  0  0  0
    0.4247   14.9852  -34.6581 H   0  0  0  0  0  0  0  0  0  0  0  0
    0.9761   16.6948  -34.6581 H   0  0  0  0  0  0  0  0  0  0  0  0
   -2.2030   15.8310  -33.6870 C   0  0  0  0  0  0  0  0  0  0  0  0
   -2.2360   14.6750  -32.7370 C   0  0  0  0  0  0  0  0  0  0  0  0
   -2.2253   15.0498  -31.7029 H   0  0  0  0  0  0  0  0  0  0  0  0
   -3.1513   14.0884  -32.9049 H   0  0  0  0  0  0  0  0  0  0  0  0
   -1.3557   14.0371  -32.9049 H   0  0  0  0  0  0  0  0  0  0  0  0
   -6.5980   19.7570  -32.7530 C   0  0  0  0  0  0  0  0  0  0  0  0
   -7.5890   19.2823  -32.8043 H   0  0  0  0  0  0  0  0  0  0  0  0
   -6.4370   20.9590  -32.0570 C   0  0  0  0  0  0  0  0  0  0  0  0
   -7.3042   21.4297  -31.5708 H   0  0  0  0  0  0  0  0  0  0  0  0
   -3.1160   24.5410  -29.5740 C   0  0  0  0  0  0  0  0  0  0  0  0
   -3.6970   25.3720  -30.5270 O   0  0  0  0  0  0  0  0  0  0  0  0
  1  2  1  0
  2  3  1  0
  3  4  2  0
  4  5  1  0
  4  6  1  0
  6  7  1  0
  6  8  2  0
  8  9  1  0
  8 10  1  0
 10 11  1  0
 11 12  1  0
 11 13  1  0
 11 14  1  0
 14 15  1  0
 14 16  1  0
 16 17  2  0
 17 18  1  0
 17 19  1  0
 19 20  1  0
 19 21  2  0
 21 22  1  0
 22 23  2  0
 22 24  2  0
 22 25  1  0
 25 26  2  0
 26 27  1  0
 27 28  1  0
 28 29  1  0
 29 30  1  0
 30 31  1  0
 30 32  1  0
 30 33  1  0
 29 34  2  0
 34 35  1  0
 35 36  1  0
 35 37  1  0
 35 38  1  0
 21 39  1  0
 39 40  1  0
 39 41  2  0
 41 42  1  0
 10 43  2  0
 43 44  1  0
 43  3  1  0
 41 16  1  0
 34 26  1  0
M  CHG  3   5  -1  28  -1  44  -1
M  END
>  <UniqueID>  (39) 
37

>  <SMILES>  (39) 
Cc1[n-]o/c(=N\S(=O)(=O)c2ccc(NCc3ccc([O-])c(O)c3[O-])cc2)c1C

>  <Energy>  (39) 
79.18325226447963

>  <Genealogy>  (39) 
Cc1[n-]oc(=NS(=O)(=O)c2ccc(NCc3ccc([O-])c(O)c3[O-])cc2)c1C (protonated)
Cc1[n-]o/c(=N\S(=O)(=O)c2ccc(NCc3ccc([O-])c(O)c3[O-])cc2)c1C (cis-trans isomerization)
Cc1[n-]o/c(=N\S(=O)(=O)c2ccc(NCc3ccc([O-])c(O)c3[O-])cc2)c1C (3D coordinates assigned)
Cc1[n-]o/c(=N\S(=O)(=O)c2ccc(NCc3ccc([O-])c(O)c3[O-])cc2)c1C (optimized conformer: 79.18325226447963 kcal/mol)

>  <smiles>  (39) 
Cc1[nH]oc(=NS(=O)(=O)c2ccc(NCc3ccc(O)c(O)c3O)cc2)c1C

>  <score_type>  (39) 
oracle

>  <origin>  (39) 
adgpu

>  <m_score__min__energy>  (39) 
-12.93

>  <m_primary>  (39) 
energy

$$$$
39:0
     RDKit          3D

 45 47  0  0  0  0  0  0  0  0999 V2000
   -3.4800   19.5130  -26.7680 O   0  0  0  0  0  0  0  0  0  0  0  0
   -2.3050   19.4600  -27.1870 N   0  0  0  0  0  0  0  0  0  0  0  0
   -1.4850   18.4510  -26.7340 O   0  0  0  0  0  0  0  0  0  0  0  0
   -1.8140   20.4380  -28.1220 C   0  0  0  0  0  0  0  0  0  0  0  0
   -0.9700   20.0510  -29.1770 C   0  0  0  0  0  0  0  0  0  0  0  0
   -0.4840   21.0000  -30.0790 C   0  0  0  0  0  0  0  0  0  0  0  0
   -0.8380   22.3440  -29.9440 C   0  0  0  0  0  0  0  0  0  0  0  0
   -1.6820   22.7460  -28.9000 C   0  0  0  0  0  0  0  0  0  0  0  0
   -2.1150   24.4430  -28.7100 S   0  0  0  0  0  0  0  0  0  0  0  0
   -2.7710   24.6780  -27.3780 O   0  0  0  0  0  0  0  0  0  0  0  0
   -0.8680   25.2750  -28.7970 O   0  0  0  0  0  0  0  0  0  0  0  0
   -3.2080   24.9250  -29.9690 N   0  0  0  0  0  0  0  0  0  0  0  0
   -4.1970   24.0790  -30.5750 C   0  0  0  0  0  0  0  0  0  0  0  0
   -3.8460   22.8640  -31.1920 C   0  0  0  0  0  0  0  0  0  0  0  0
   -4.8190   22.0730  -31.8150 C   0  0  0  0  0  0  0  0  0  0  0  0
   -4.3550   20.5930  -32.6520 S   0  0  0  0  0  0  0  0  0  0  0  0
   -3.5030   20.9300  -33.8450 O   0  0  0  0  0  0  0  0  0  0  0  0
   -3.5500   19.7350  -31.7160 O   0  0  0  0  0  0  0  0  0  0  0  0
   -5.7820   19.7240  -33.1630 N   0  0  0  0  0  0  0  0  0  0  0  0
   -5.3990   18.5530  -33.9750 C   0  0  0  0  0  0  0  0  0  0  0  0
   -6.5360   17.5190  -33.9960 C   0  0  0  0  0  0  0  0  0  0  0  0
   -6.8810   17.0110  -32.7130 O   0  0  0  0  0  0  0  0  0  0  0  0
   -6.5250   17.8750  -31.6430 C   0  0  0  0  0  0  0  0  0  0  0  0
   -6.6310   19.3680  -32.0030 C   0  0  0  0  0  0  0  0  0  0  0  0
   -6.1550   22.4880  -31.8140 C   0  0  0  0  0  0  0  0  0  0  0  0
   -6.5160   23.6820  -31.1850 C   0  0  0  0  0  0  0  0  0  0  0  0
   -5.5480   24.4800  -30.5680 C   0  0  0  0  0  0  0  0  0  0  0  0
   -5.9480   25.6710  -29.9610 O   0  0  0  0  0  0  0  0  0  0  0  0
   -2.1680   21.7940  -27.9930 C   0  0  0  0  0  0  0  0  0  0  0  0
   -0.6903   18.9935  -29.2931 H   0  0  0  0  0  0  0  0  0  0  0  0
    0.1799   20.6877  -30.8986 H   0  0  0  0  0  0  0  0  0  0  0  0
   -0.4541   23.0878  -30.6577 H   0  0  0  0  0  0  0  0  0  0  0  0
   -2.7972   22.5325  -31.1848 H   0  0  0  0  0  0  0  0  0  0  0  0
   -5.1871   18.8793  -35.0039 H   0  0  0  0  0  0  0  0  0  0  0  0
   -4.5045   18.0900  -33.5329 H   0  0  0  0  0  0  0  0  0  0  0  0
   -7.4276   17.9944  -34.4308 H   0  0  0  0  0  0  0  0  0  0  0  0
   -6.1782   16.6652  -34.5902 H   0  0  0  0  0  0  0  0  0  0  0  0
   -7.1941   17.6725  -30.7937 H   0  0  0  0  0  0  0  0  0  0  0  0
   -5.4716   17.6733  -31.3989 H   0  0  0  0  0  0  0  0  0  0  0  0
   -7.6784   19.6007  -32.2456 H   0  0  0  0  0  0  0  0  0  0  0  0
   -6.2824   19.9503  -31.1373 H   0  0  0  0  0  0  0  0  0  0  0  0
   -6.9217   21.8738  -32.3088 H   0  0  0  0  0  0  0  0  0  0  0  0
   -7.5700   23.9967  -31.1751 H   0  0  0  0  0  0  0  0  0  0  0  0
   -5.3580   26.1730  -29.3090 H   0  0  0  0  0  0  0  0  0  0  0  0
   -2.8312   22.1093  -27.1740 H   0  0  0  0  0  0  0  0  0  0  0  0
  1  2  2  0
  2  3  1  0
  2  4  1  0
  4  5  2  0
  5  6  1  0
  6  7  2  0
  7  8  1  0
  8  9  1  0
  9 10  2  0
  9 11  2  0
  9 12  1  0
 12 13  1  0
 13 14  2  0
 14 15  1  0
 15 16  1  0
 16 17  2  0
 16 18  2  0
 16 19  1  0
 19 20  1  0
 20 21  1  0
 21 22  1  0
 22 23  1  0
 23 24  1  0
 15 25  2  0
 25 26  1  0
 26 27  2  0
 27 28  1  0
  8 29  2  0
 29  4  1  0
 27 13  1  0
 24 19  1  0
  5 30  1  0
  6 31  1  0
  7 32  1  0
 14 33  1  0
 20 34  1  0
 20 35  1  0
 21 36  1  0
 21 37  1  0
 23 38  1  0
 23 39  1  0
 24 40  1  0
 24 41  1  0
 25 42  1  0
 26 43  1  0
 28 44  1  0
 29 45  1  0
M  CHG  3   2   1   3  -1  12  -1
M  END
>  <UniqueID>  (40) 
38

>  <SMILES>  (40) 
O=[N+]([O-])c1cccc(S(=O)(=O)[N-]c2cc(S(=O)(=O)N3CCOCC3)ccc2O)c1

>  <Energy>  (40) 
59.357735124395965

>  <Genealogy>  (40) 
O=[N+]([O-])c1cccc(S(=O)(=O)[N-]c2cc(S(=O)(=O)N3CCOCC3)ccc2O)c1 (protonated)
O=[N+]([O-])c1cccc(S(=O)(=O)[N-]c2cc(S(=O)(=O)N3CCOCC3)ccc2O)c1 (3D coordinates assigned)
O=[N+]([O-])c1cccc(S(=O)(=O)[N-]c2cc(S(=O)(=O)N3CCOCC3)ccc2O)c1 (nonaromatic ring conformer: 59.357735124395965 kcal/mol)

>  <smiles>  (40) 
O=[N+]([O-])c1cccc(S(=O)(=O)Nc2cc(S(=O)(=O)N3CCOCC3)ccc2O)c1

>  <score_type>  (40) 
oracle

>  <origin>  (40) 
adgpu

>  <m_score__min__energy>  (40) 
-10.56

>  <m_primary>  (40) 
energy

$$$$
40:0
     RDKit          3D

 41 43  0  0  0  0  0  0  0  0999 V2000
   -1.9130   21.6230  -30.1990 O   0  0  0  0  0  0  0  0  0  0  0  0
   -2.5380   21.7990  -31.2780 C   0  0  0  0  0  0  0  0  0  0  0  0
   -3.1740   23.0630  -31.5090 N   0  0  0  0  0  0  0  0  0  0  0  0
   -4.5070   23.4150  -31.1110 C   0  0  0  0  0  0  0  0  0  0  0  0
   -5.5350   22.4830  -31.3020 C   0  0  0  0  0  0  0  0  0  0  0  0
   -6.8450   22.7840  -30.9180 C   0  0  0  0  0  0  0  0  0  0  0  0
   -7.1410   24.0270  -30.3570 C   0  0  0  0  0  0  0  0  0  0  0  0
   -6.1310   24.9790  -30.1940 C   0  0  0  0  0  0  0  0  0  0  0  0
   -4.8180   24.6870  -30.5830 C   0  0  0  0  0  0  0  0  0  0  0  0
   -3.8460   25.6740  -30.4700 O   0  0  0  0  0  0  0  0  0  0  0  0
   -2.5770   20.7090  -32.2790 C   0  0  0  0  0  0  0  0  0  0  0  0
   -3.7860   20.0300  -32.5130 C   0  0  0  0  0  0  0  0  0  0  0  0
   -3.8620   19.0250  -33.4850 C   0  0  0  0  0  0  0  0  0  0  0  0
   -5.4030   18.2250  -33.8120 S   0  0  0  0  0  0  0  0  0  0  0  0
   -5.2430   16.7450  -33.5990 O   0  0  0  0  0  0  0  0  0  0  0  0
   -5.7830   18.4490  -35.2490 O   0  0  0  0  0  0  0  0  0  0  0  0
   -6.6740   18.8230  -32.7750 N   0  0  0  0  0  0  0  0  0  0  0  0
   -7.3310   19.9880  -33.3830 C   0  0  0  0  0  0  0  0  0  0  0  0
   -8.4320   20.5220  -32.4400 C   0  0  0  0  0  0  0  0  0  0  0  0
   -8.6650   19.6570  -31.3420 O   0  0  0  0  0  0  0  0  0  0  0  0
   -8.9080   18.3440  -31.8070 C   0  0  0  0  0  0  0  0  0  0  0  0
   -7.6630   17.7640  -32.5090 C   0  0  0  0  0  0  0  0  0  0  0  0
   -2.7170   18.6730  -34.2100 C   0  0  0  0  0  0  0  0  0  0  0  0
   -1.5060   19.3220  -33.9650 C   0  0  0  0  0  0  0  0  0  0  0  0
   -1.4270   20.3310  -33.0010 C   0  0  0  0  0  0  0  0  0  0  0  0
   -0.1980   20.9330  -32.7510 O   0  0  0  0  0  0  0  0  0  0  0  0
   -5.3099   21.5073  -31.7574 H   0  0  0  0  0  0  0  0  0  0  0  0
   -7.6433   22.0403  -31.0582 H   0  0  0  0  0  0  0  0  0  0  0  0
   -8.1697   24.2575  -30.0430 H   0  0  0  0  0  0  0  0  0  0  0  0
   -6.3683   25.9609  -29.7587 H   0  0  0  0  0  0  0  0  0  0  0  0
   -4.6799   20.2907  -31.9273 H   0  0  0  0  0  0  0  0  0  0  0  0
   -6.5853   20.7777  -33.5571 H   0  0  0  0  0  0  0  0  0  0  0  0
   -7.7862   19.6893  -34.3388 H   0  0  0  0  0  0  0  0  0  0  0  0
   -8.1229   21.5055  -32.0563 H   0  0  0  0  0  0  0  0  0  0  0  0
   -9.3655   20.5918  -33.0177 H   0  0  0  0  0  0  0  0  0  0  0  0
   -9.1698   17.7029  -30.9523 H   0  0  0  0  0  0  0  0  0  0  0  0
   -9.7341   18.3777  -32.5325 H   0  0  0  0  0  0  0  0  0  0  0  0
   -7.2078   16.9990  -31.8629 H   0  0  0  0  0  0  0  0  0  0  0  0
   -7.9719   17.3202  -33.4669 H   0  0  0  0  0  0  0  0  0  0  0  0
   -2.7721   17.8835  -34.9740 H   0  0  0  0  0  0  0  0  0  0  0  0
   -0.6084   19.0378  -34.5339 H   0  0  0  0  0  0  0  0  0  0  0  0
  1  2  2  0
  2  3  1  0
  3  4  1  0
  4  5  2  0
  5  6  1  0
  6  7  2  0
  7  8  1  0
  8  9  2  0
  9 10  1  0
  2 11  1  0
 11 12  2  0
 12 13  1  0
 13 14  1  0
 14 15  2  0
 14 16  2  0
 14 17  1  0
 17 18  1  0
 18 19  1  0
 19 20  1  0
 20 21  1  0
 21 22  1  0
 13 23  2  0
 23 24  1  0
 24 25  2  0
 25 26  1  0
  9  4  1  0
 25 11  1  0
 22 17  1  0
  5 27  1  0
  6 28  1  0
  7 29  1  0
  8 30  1  0
 12 31  1  0
 18 32  1  0
 18 33  1  0
 19 34  1  0
 19 35  1  0
 21 36  1  0
 21 37  1  0
 22 38  1  0
 22 39  1  0
 23 40  1  0
 24 41  1  0
M  CHG  3   3  -1  10  -1  26  -1
M  END
>  <UniqueID>  (41) 
39

>  <SMILES>  (41) 
O=C([N-]c1ccccc1[O-])c1cc(S(=O)(=O)N2CCOCC2)ccc1[O-]

>  <Energy>  (41) 
59.59007429699943

>  <Genealogy>  (41) 
O=C([N-]c1ccccc1[O-])c1cc(S(=O)(=O)N2CCOCC2)ccc1[O-] (protonated)
O=C([N-]c1ccccc1[O-])c1cc(S(=O)(=O)N2CCOCC2)ccc1[O-] (3D coordinates assigned)
O=C([N-]c1ccccc1[O-])c1cc(S(=O)(=O)N2CCOCC2)ccc1[O-] (nonaromatic ring conformer: 59.59007429699943 kcal/mol)

>  <smiles>  (41) 
O=C(Nc1ccccc1O)c1cc(S(=O)(=O)N2CCOCC2)ccc1O

>  <score_type>  (41) 
oracle

>  <origin>  (41) 
adgpu

>  <m_score__min__energy>  (41) 
-15.56

>  <m_primary>  (41) 
energy

$$$$
41:0
     RDKit          3D

 52 55  0  0  0  0  0  0  0  0999 V2000
   -1.1400   15.4180  -32.7740 C   0  0  0  0  0  0  0  0  0  0  0  0
   -1.6940   16.1510  -33.8630 O   0  0  0  0  0  0  0  0  0  0  0  0
   -2.9830   16.7010  -33.8710 C   0  0  0  0  0  0  0  0  0  0  0  0
   -4.1270   15.9470  -33.5510 C   0  0  0  0  0  0  0  0  0  0  0  0
   -5.3900   16.5460  -33.5570 C   0  0  0  0  0  0  0  0  0  0  0  0
   -5.5290   17.9120  -33.8530 C   0  0  0  0  0  0  0  0  0  0  0  0
   -6.7970   18.5790  -33.8110 N   0  0  0  0  0  0  0  0  0  0  0  0
   -7.7480   18.8440  -32.3830 S   0  0  0  0  0  0  0  0  0  0  0  0
   -7.3450   17.8950  -31.2890 O   0  0  0  0  0  0  0  0  0  0  0  0
   -9.1900   18.5810  -32.7180 O   0  0  0  0  0  0  0  0  0  0  0  0
   -7.5660   20.5160  -31.8510 C   0  0  0  0  0  0  0  0  0  0  0  0
   -8.6820   21.3590  -31.7490 C   0  0  0  0  0  0  0  0  0  0  0  0
   -8.5250   22.6910  -31.3580 C   0  0  0  0  0  0  0  0  0  0  0  0
   -7.2500   23.2050  -31.0970 C   0  0  0  0  0  0  0  0  0  0  0  0
   -7.1150   24.4730  -30.7270 O   0  0  0  0  0  0  0  0  0  0  0  0
   -5.9340   25.0310  -30.4880 C   0  0  0  0  0  0  0  0  0  0  0  0
   -5.8830   26.2400  -30.1400 O   0  0  0  0  0  0  0  0  0  0  0  0
   -4.7510   24.2940  -30.6420 C   0  0  0  0  0  0  0  0  0  0  0  0
   -3.4860   24.9430  -30.4330 N   0  0  0  0  0  0  0  0  0  0  0  0
   -2.6170   24.7440  -29.3110 C   0  0  0  0  0  0  0  0  0  0  0  0
   -2.8360   23.6430  -28.3170 C   0  0  0  0  0  0  0  0  0  0  0  0
   -1.6270   25.5070  -29.1650 O   0  0  0  0  0  0  0  0  0  0  0  0
   -4.8440   22.9290  -30.9880 C   0  0  0  0  0  0  0  0  0  0  0  0
   -3.6630   22.1200  -31.1270 N   0  0  0  0  0  0  0  0  0  0  0  0
   -3.1790   21.6630  -32.3960 C   0  0  0  0  0  0  0  0  0  0  0  0
   -3.7460   22.0260  -33.4630 O   0  0  0  0  0  0  0  0  0  0  0  0
   -2.0080   20.7770  -32.4570 C   0  0  0  0  0  0  0  0  0  0  0  0
   -1.1670   20.6130  -33.5410 C   0  0  0  0  0  0  0  0  0  0  0  0
   -0.2220   19.6930  -33.1420 C   0  0  0  0  0  0  0  0  0  0  0  0
   -0.5430   19.3520  -31.8430 C   0  0  0  0  0  0  0  0  0  0  0  0
   -1.6110   20.0150  -31.4630 O   0  0  0  0  0  0  0  0  0  0  0  0
   -6.1160   22.3740  -31.2250 C   0  0  0  0  0  0  0  0  0  0  0  0
   -6.2920   21.0220  -31.5660 C   0  0  0  0  0  0  0  0  0  0  0  0
   -4.3940   18.6500  -34.2080 C   0  0  0  0  0  0  0  0  0  0  0  0
   -3.1300   18.0510  -34.2130 C   0  0  0  0  0  0  0  0  0  0  0  0
   -1.4754   15.8617  -31.8250 H   0  0  0  0  0  0  0  0  0  0  0  0
   -1.4750   14.3716  -32.8281 H   0  0  0  0  0  0  0  0  0  0  0  0
   -0.0419   15.4547  -32.8281 H   0  0  0  0  0  0  0  0  0  0  0  0
   -4.0271   14.8819  -33.2951 H   0  0  0  0  0  0  0  0  0  0  0  0
   -6.2813   15.9433  -33.3283 H   0  0  0  0  0  0  0  0  0  0  0  0
   -9.6851   20.9699  -31.9778 H   0  0  0  0  0  0  0  0  0  0  0  0
   -9.4080   23.3389  -31.2548 H   0  0  0  0  0  0  0  0  0  0  0  0
   -2.7554   24.0481  -27.2975 H   0  0  0  0  0  0  0  0  0  0  0  0
   -3.8375   23.2118  -28.4621 H   0  0  0  0  0  0  0  0  0  0  0  0
   -2.0757   22.8614  -28.4621 H   0  0  0  0  0  0  0  0  0  0  0  0
   -3.0890   21.9360  -30.2720 H   0  0  0  0  0  0  0  0  0  0  0  0
   -1.2372   21.1126  -34.5185 H   0  0  0  0  0  0  0  0  0  0  0  0
    0.6185   19.3079  -33.7380 H   0  0  0  0  0  0  0  0  0  0  0  0
    0.0116   18.6340  -31.2210 H   0  0  0  0  0  0  0  0  0  0  0  0
   -5.4192   20.3539  -31.6095 H   0  0  0  0  0  0  0  0  0  0  0  0
   -4.4968   19.7095  -34.4853 H   0  0  0  0  0  0  0  0  0  0  0  0
   -2.2454   18.6444  -34.4875 H   0  0  0  0  0  0  0  0  0  0  0  0
  1  2  1  0
  2  3  1  0
  3  4  2  0
  4  5  1  0
  5  6  2  0
  6  7  1  0
  7  8  1  0
  8  9  2  0
  8 10  2  0
  8 11  1  0
 11 12  2  0
 12 13  1  0
 13 14  2  0
 14 15  1  0
 15 16  1  0
 16 17  2  0
 16 18  1  0
 18 19  1  0
 19 20  1  0
 20 21  1  0
 20 22  2  0
 18 23  2  0
 23 24  1  0
 24 25  1  0
 25 26  2  0
 25 27  1  0
 27 28  2  0
 28 29  1  0
 29 30  2  0
 30 31  1  0
 23 32  1  0
 32 33  2  0
  6 34  1  0
 34 35  2  0
 35  3  1  0
 33 11  1  0
 32 14  1  0
 31 27  1  0
  1 36  1  0
  1 37  1  0
  1 38  1  0
  4 39  1  0
  5 40  1  0
 12 41  1  0
 13 42  1  0
 21 43  1  0
 21 44  1  0
 21 45  1  0
 24 46  1  0
 28 47  1  0
 29 48  1  0
 30 49  1  0
 33 50  1  0
 34 51  1  0
 35 52  1  0
M  CHG  2   7  -1  19  -1
M  END
>  <UniqueID>  (42) 
40

>  <SMILES>  (42) 
COc1ccc([N-]S(=O)(=O)c2ccc3oc(=O)c([N-]C(C)=O)c(NC(=O)c4ccco4)c3c2)cc1

>  <Energy>  (42) 
99.28448933377234

>  <Genealogy>  (42) 
COc1ccc([N-]S(=O)(=O)c2ccc3oc(=O)c([N-]C(C)=O)c(NC(=O)c4ccco4)c3c2)cc1 (protonated)
COc1ccc([N-]S(=O)(=O)c2ccc3oc(=O)c([N-]C(C)=O)c(NC(=O)c4ccco4)c3c2)cc1 (3D coordinates assigned)
COc1ccc([N-]S(=O)(=O)c2ccc3oc(=O)c([N-]C(C)=O)c(NC(=O)c4ccco4)c3c2)cc1 (optimized conformer: 99.28448933377234 kcal/mol)

>  <smiles>  (42) 
COc1ccc(NS(=O)(=O)c2ccc3oc(=O)c(NC(C)=O)c(NC(=O)c4ccco4)c3c2)cc1

>  <score_type>  (42) 
oracle

>  <origin>  (42) 
adgpu

>  <m_score__min__energy>  (42) 
-11.27

>  <m_primary>  (42) 
energy

$$$$
42:0
     RDKit          3D

 43 46  0  0  0  0  0  0  0  0999 V2000
   -0.8610   22.3330  -26.8220 C   0  0  0  0  0  0  0  0  0  0  0  0
   -1.9450   22.9290  -27.6700 C   0  0  0  0  0  0  0  0  0  0  0  0
   -1.6470   23.9560  -28.5800 C   0  0  0  0  0  0  0  0  0  0  0  0
   -2.6640   24.5390  -29.3420 C   0  0  0  0  0  0  0  0  0  0  0  0
   -3.9880   24.1130  -29.1900 C   0  0  0  0  0  0  0  0  0  0  0  0
   -5.2940   24.8740  -30.1530 S   0  0  0  0  0  0  0  0  0  0  0  0
   -5.4100   23.4700  -31.2590 C   0  0  0  0  0  0  0  0  0  0  0  0
   -4.2990   22.9980  -31.8980 N   0  0  0  0  0  0  0  0  0  0  0  0
   -4.3570   21.8980  -32.7190 C   0  0  0  0  0  0  0  0  0  0  0  0
   -3.1270   21.4310  -33.4220 C   0  0  0  0  0  0  0  0  0  0  0  0
   -5.5470   21.2590  -32.9320 N   0  0  0  0  0  0  0  0  0  0  0  0
   -6.6480   21.7380  -32.3030 C   0  0  0  0  0  0  0  0  0  0  0  0
   -6.6100   22.8110  -31.4820 C   0  0  0  0  0  0  0  0  0  0  0  0
   -7.8270   23.0450  -30.9530 N   0  0  0  0  0  0  0  0  0  0  0  0
   -8.5880   22.0570  -31.5030 C   0  0  0  0  0  0  0  0  0  0  0  0
   -7.8910   21.2480  -32.3420 N   0  0  0  0  0  0  0  0  0  0  0  0
   -8.3630   20.0340  -33.0030 C   0  0  0  0  0  0  0  0  0  0  0  0
   -7.3550   18.9320  -32.8250 C   0  0  0  0  0  0  0  0  0  0  0  0
   -7.2280   18.2850  -31.5850 C   0  0  0  0  0  0  0  0  0  0  0  0
   -6.2590   17.2930  -31.4060 C   0  0  0  0  0  0  0  0  0  0  0  0
   -5.4050   16.9490  -32.4580 C   0  0  0  0  0  0  0  0  0  0  0  0
   -5.5170   17.5980  -33.6900 C   0  0  0  0  0  0  0  0  0  0  0  0
   -6.4840   18.5910  -33.8740 C   0  0  0  0  0  0  0  0  0  0  0  0
   -4.2930   23.0980  -28.2740 C   0  0  0  0  0  0  0  0  0  0  0  0
   -3.2770   22.5140  -27.5110 C   0  0  0  0  0  0  0  0  0  0  0  0
   -1.1098   22.4698  -25.7593 H   0  0  0  0  0  0  0  0  0  0  0  0
   -0.7718   21.2590  -27.0424 H   0  0  0  0  0  0  0  0  0  0  0  0
    0.0937   22.8331  -27.0424 H   0  0  0  0  0  0  0  0  0  0  0  0
   -0.6095   24.3032  -28.6938 H   0  0  0  0  0  0  0  0  0  0  0  0
   -2.4227   25.3343  -30.0626 H   0  0  0  0  0  0  0  0  0  0  0  0
   -2.3677   21.1427  -32.6801 H   0  0  0  0  0  0  0  0  0  0  0  0
   -3.3719   20.5633  -34.0522 H   0  0  0  0  0  0  0  0  0  0  0  0
   -2.7343   22.2426  -34.0522 H   0  0  0  0  0  0  0  0  0  0  0  0
   -9.6592   21.9279  -31.2888 H   0  0  0  0  0  0  0  0  0  0  0  0
   -9.3220   19.7266  -32.5605 H   0  0  0  0  0  0  0  0  0  0  0  0
   -8.4970   20.2336  -34.0764 H   0  0  0  0  0  0  0  0  0  0  0  0
   -7.8925   18.5593  -30.7525 H   0  0  0  0  0  0  0  0  0  0  0  0
   -6.1685   16.7824  -30.4359 H   0  0  0  0  0  0  0  0  0  0  0  0
   -4.6446   16.1670  -32.3156 H   0  0  0  0  0  0  0  0  0  0  0  0
   -4.8435   17.3274  -34.5165 H   0  0  0  0  0  0  0  0  0  0  0  0
   -6.5633   19.1067  -34.8424 H   0  0  0  0  0  0  0  0  0  0  0  0
   -5.3330   22.7600  -28.1548 H   0  0  0  0  0  0  0  0  0  0  0  0
   -3.5222   21.7264  -26.7833 H   0  0  0  0  0  0  0  0  0  0  0  0
  1  2  1  0
  2  3  2  0
  3  4  1  0
  4  5  2  0
  5  6  1  0
  6  7  1  0
  7  8  2  0
  8  9  1  0
  9 10  1  0
  9 11  2  0
 11 12  1  0
 12 13  2  0
 13 14  1  0
 14 15  2  0
 15 16  1  0
 16 17  1  0
 17 18  1  0
 18 19  2  0
 19 20  1  0
 20 21  2  0
 21 22  1  0
 22 23  2  0
  5 24  1  0
 24 25  2  0
 25  2  1  0
 13  7  1  0
 23 18  1  0
 16 12  1  0
  1 26  1  0
  1 27  1  0
  1 28  1  0
  3 29  1  0
  4 30  1  0
 10 31  1  0
 10 32  1  0
 10 33  1  0
 15 34  1  0
 17 35  1  0
 17 36  1  0
 19 37  1  0
 20 38  1  0
 21 39  1  0
 22 40  1  0
 23 41  1  0
 24 42  1  0
 25 43  1  0
M  END
>  <UniqueID>  (43) 
41

>  <SMILES>  (43) 
Cc1ccc(Sc2nc(C)nc3c2ncn3Cc2ccccc2)cc1

>  <Energy>  (43) 
78.913280760377

>  <Genealogy>  (43) 
Cc1ccc(Sc2nc(C)nc3c2ncn3Cc2ccccc2)cc1 (3D coordinates assigned)
Cc1ccc(Sc2nc(C)nc3c2ncn3Cc2ccccc2)cc1 (optimized conformer: 78.913280760377 kcal/mol)

>  <smiles>  (43) 
Cc1ccc(Sc2nc(C)nc3c2ncn3Cc2ccccc2)cc1

>  <score_type>  (43) 
oracle

>  <origin>  (43) 
adgpu

>  <m_score__min__energy>  (43) 
-8.6999999999999993

>  <m_primary>  (43) 
energy

$$$$
43:0
     RDKit          3D

 68 72  0  0  0  0  0  0  0  0999 V2000
   -0.1855   21.5136  -30.4014 H   0  0  0  0  0  0  0  0  0  0  0  0
   -1.1550   21.4340  -30.9150 C   0  0  0  0  0  0  0  0  0  0  0  0
   -2.0670   22.4360  -30.8050 N   0  0  0  0  0  0  0  0  0  0  0  0
   -3.2540   22.4130  -31.4730 C   0  0  0  0  0  0  0  0  0  0  0  0
   -4.1170   23.3800  -31.3400 N   0  0  0  0  0  0  0  0  0  0  0  0
   -4.0440   24.5060  -30.4570 C   0  0  0  0  0  0  0  0  0  0  0  0
   -4.2970   25.6750  -30.8610 O   0  0  0  0  0  0  0  0  0  0  0  0
   -3.5780   24.2980  -29.0850 C   0  0  0  0  0  0  0  0  0  0  0  0
   -2.7100   25.0700  -28.4700 O   0  0  0  0  0  0  0  0  0  0  0  0
   -2.4790   24.5760  -27.2720 C   0  0  0  0  0  0  0  0  0  0  0  0
   -1.5320   25.1750  -26.3050 C   0  0  0  0  0  0  0  0  0  0  0  0
   -0.8230   24.3420  -25.4200 C   0  0  0  0  0  0  0  0  0  0  0  0
   -0.9772   23.2533  -25.4517 H   0  0  0  0  0  0  0  0  0  0  0  0
    0.0760   24.8900  -24.5010 C   0  0  0  0  0  0  0  0  0  0  0  0
    0.6142   24.2314  -23.8034 H   0  0  0  0  0  0  0  0  0  0  0  0
    0.2950   26.2680  -24.4630 C   0  0  0  0  0  0  0  0  0  0  0  0
    1.0046   26.6906  -23.7365 H   0  0  0  0  0  0  0  0  0  0  0  0
   -0.3890   27.1180  -25.3510 C   0  0  0  0  0  0  0  0  0  0  0  0
   -0.1520   28.6040  -25.2790 C   0  0  0  0  0  0  0  0  0  0  0  0
    0.9090   28.8620  -24.4310 F   0  0  0  0  0  0  0  0  0  0  0  0
   -1.2830   29.2260  -24.7870 F   0  0  0  0  0  0  0  0  0  0  0  0
    0.1430   29.1360  -26.5210 F   0  0  0  0  0  0  0  0  0  0  0  0
   -1.3130   26.5660  -26.2620 C   0  0  0  0  0  0  0  0  0  0  0  0
   -1.8673   27.2269  -26.9446 H   0  0  0  0  0  0  0  0  0  0  0  0
   -3.2350   23.4290  -27.0920 C   0  0  0  0  0  0  0  0  0  0  0  0
   -3.2670   22.7921  -26.1957 H   0  0  0  0  0  0  0  0  0  0  0  0
   -3.9400   23.2470  -28.2650 C   0  0  0  0  0  0  0  0  0  0  0  0
   -4.6436   22.4342  -28.4981 H   0  0  0  0  0  0  0  0  0  0  0  0
   -3.5530   21.3270  -32.3160 C   0  0  0  0  0  0  0  0  0  0  0  0
   -4.8350   21.2850  -33.1020 C   0  0  0  0  0  0  0  0  0  0  0  0
   -5.6890   21.2570  -32.4093 H   0  0  0  0  0  0  0  0  0  0  0  0
   -4.9061   22.1813  -33.7357 H   0  0  0  0  0  0  0  0  0  0  0  0
   -4.8473   20.3860  -33.7357 H   0  0  0  0  0  0  0  0  0  0  0  0
   -2.6570   20.2540  -32.3810 C   0  0  0  0  0  0  0  0  0  0  0  0
   -2.9052   19.3694  -32.9859 H   0  0  0  0  0  0  0  0  0  0  0  0
   -1.4500   20.3010  -31.6820 C   0  0  0  0  0  0  0  0  0  0  0  0
   -0.3220   18.9060  -31.8040 S   0  0  0  0  0  0  0  0  0  0  0  0
   -1.2640   18.0520  -33.0660 C   0  0  0  0  0  0  0  0  0  0  0  0
   -0.8500   18.0440  -34.4040 C   0  0  0  0  0  0  0  0  0  0  0  0
    0.0719   18.5672  -34.6980 H   0  0  0  0  0  0  0  0  0  0  0  0
   -1.6110   17.3690  -35.3680 C   0  0  0  0  0  0  0  0  0  0  0  0
   -1.3134   17.4040  -36.4264 H   0  0  0  0  0  0  0  0  0  0  0  0
   -2.7500   16.6500  -34.9850 C   0  0  0  0  0  0  0  0  0  0  0  0
   -3.4860   16.0150  -35.9300 F   0  0  0  0  0  0  0  0  0  0  0  0
   -3.1280   16.5960  -33.6320 C   0  0  0  0  0  0  0  0  0  0  0  0
   -4.2360   15.7390  -33.1730 C   0  0  0  0  0  0  0  0  0  0  0  0
   -3.9840   14.5220  -32.9550 O   0  0  0  0  0  0  0  0  0  0  0  0
   -5.6030   16.2130  -33.0090 N   0  0  0  0  0  0  0  0  0  0  0  0
   -6.2040   15.3500  -32.9890 H   0  0  0  0  0  0  0  0  0  0  0  0
   -6.1230   17.0470  -34.1380 C   0  0  0  0  0  0  0  0  0  0  0  0
   -5.5336   16.8272  -35.0404 H   0  0  0  0  0  0  0  0  0  0  0  0
   -7.1846   16.7961  -34.2793 H   0  0  0  0  0  0  0  0  0  0  0  0
   -6.0320   18.5560  -33.8430 C   0  0  0  0  0  0  0  0  0  0  0  0
   -4.9736   18.8296  -33.7213 H   0  0  0  0  0  0  0  0  0  0  0  0
   -6.4906   19.0925  -34.6867 H   0  0  0  0  0  0  0  0  0  0  0  0
   -6.7690   18.9340  -32.6080 N   0  0  0  0  0  0  0  0  0  0  0  0
   -8.0560   19.5650  -32.9390 C   0  0  0  0  0  0  0  0  0  0  0  0
   -8.5863   19.8250  -32.0110 H   0  0  0  0  0  0  0  0  0  0  0  0
   -7.8766   20.4773  -33.5267 H   0  0  0  0  0  0  0  0  0  0  0  0
   -8.6674   18.8645  -33.5267 H   0  0  0  0  0  0  0  0  0  0  0  0
   -6.9690   17.8110  -31.6640 C   0  0  0  0  0  0  0  0  0  0  0  0
   -7.0970   18.2122  -30.6478 H   0  0  0  0  0  0  0  0  0  0  0  0
   -7.8641   17.2488  -31.9684 H   0  0  0  0  0  0  0  0  0  0  0  0
   -5.7610   16.8630  -31.6830 C   0  0  0  0  0  0  0  0  0  0  0  0
   -4.8512   17.4380  -31.4556 H   0  0  0  0  0  0  0  0  0  0  0  0
   -5.9251   16.0781  -30.9301 H   0  0  0  0  0  0  0  0  0  0  0  0
   -2.4070   17.3460  -32.6870 C   0  0  0  0  0  0  0  0  0  0  0  0
   -2.7459   17.3769  -31.6410 H   0  0  0  0  0  0  0  0  0  0  0  0
  1  2  1  0
  2  3  1  0
  3  4  1  0
  4  5  2  0
  5  6  1  0
  6  7  2  0
  6  8  1  0
  8  9  1  0
  9 10  1  0
 10 11  1  0
 11 12  2  0
 12 13  1  0
 12 14  1  0
 14 15  1  0
 14 16  2  0
 16 17  1  0
 16 18  1  0
 18 19  1  0
 19 20  1  0
 19 21  1  0
 19 22  1  0
 18 23  2  0
 23 24  1  0
 10 25  2  0
 25 26  1  0
 25 27  1  0
 27 28  1  0
  4 29  1  0
 29 30  1  0
 30 31  1  0
 30 32  1  0
 30 33  1  0
 29 34  2  0
 34 35  1  0
 34 36  1  0
 36 37  1  0
 37 38  1  0
 38 39  2  0
 39 40  1  0
 39 41  1  0
 41 42  1  0
 41 43  2  0
 43 44  1  0
 43 45  1  0
 45 46  1  0
 46 47  2  0
 46 48  1  0
 48 49  1  0
 48 50  1  0
 50 51  1  0
 50 52  1  0
 50 53  1  0
 53 54  1  0
 53 55  1  0
 53 56  1  0
 56 57  1  0
 57 58  1  0
 57 59  1  0
 57 60  1  0
 56 61  1  0
 61 62  1  0
 61 63  1  0
 61 64  1  0
 64 65  1  0
 64 66  1  0
 45 67  2  0
 67 68  1  0
 36  2  2  0
 67 38  1  0
 27  8  2  0
 64 48  1  0
 23 11  1  0
M  CHG  2   3  -1  48   1
M  END
>  <UniqueID>  (44) 
42

>  <SMILES>  (44) 
Cc1cc(Sc2ccc(F)c(C(=O)[NH+]3CCN(C)CC3)c2)c[n-]/c1=N\C(=O)c1ccc(-c2cccc(C(F)(F)F)c2)o1

>  <Energy>  (44) 
131.66267275694887

>  <Genealogy>  (44) 
Cc1cc(Sc2ccc(F)c(C(=O)[NH+]3CCN(C)CC3)c2)c[n-]c1=NC(=O)c1ccc(-c2cccc(C(F)(F)F)c2)o1 (protonated)
Cc1cc(Sc2ccc(F)c(C(=O)[NH+]3CCN(C)CC3)c2)c[n-]/c1=N\C(=O)c1ccc(-c2cccc(C(F)(F)F)c2)o1 (cis-trans isomerization)
Cc1cc(Sc2ccc(F)c(C(=O)[NH+]3CCN(C)CC3)c2)c[n-]/c1=N\C(=O)c1ccc(-c2cccc(C(F)(F)F)c2)o1 (3D coordinates assigned)
Cc1cc(Sc2ccc(F)c(C(=O)[NH+]3CCN(C)CC3)c2)c[n-]/c1=N\C(=O)c1ccc(-c2cccc(C(F)(F)F)c2)o1 (nonaromatic ring conformer: 131.66267275694887 kcal/mol)

>  <smiles>  (44) 
Cc1cc(Sc2ccc(F)c(C(=O)N3CCN(C)CC3)c2)c[nH]c1=NC(=O)c1ccc(-c2cccc(C(F)(F)F)c2)o1

>  <score_type>  (44) 
oracle

>  <origin>  (44) 
adgpu

>  <m_score__min__energy>  (44) 
-10.890000000000001

>  <m_primary>  (44) 
energy

$$$$
44:0
     RDKit          3D

 23 24  0  0  0  0  0  0  0  0999 V2000
   -5.7430   26.3190  -30.9110 O   0  0  0  0  0  0  0  0  0  0  0  0
   -5.2680   25.0170  -30.3290 S   0  0  0  0  0  0  0  0  0  0  0  0
   -5.6740   24.9480  -28.8850 O   0  0  0  0  0  0  0  0  0  0  0  0
   -3.5380   24.9300  -30.4330 N   0  0  0  0  0  0  0  0  0  0  0  0
   -2.6360   24.3840  -29.4570 C   0  0  0  0  0  0  0  0  0  0  0  0
   -2.9030   23.0930  -28.9790 C   0  0  0  0  0  0  0  0  0  0  0  0
   -2.0580   22.4900  -28.0420 C   0  0  0  0  0  0  0  0  0  0  0  0
   -0.9420   23.1760  -27.5650 C   0  0  0  0  0  0  0  0  0  0  0  0
   -0.6740   24.4710  -28.0140 C   0  0  0  0  0  0  0  0  0  0  0  0
   -1.5170   25.0850  -28.9480 C   0  0  0  0  0  0  0  0  0  0  0  0
   -1.2380   26.3910  -29.3300 O   0  0  0  0  0  0  0  0  0  0  0  0
   -5.9950   23.6610  -31.1750 C   0  0  0  0  0  0  0  0  0  0  0  0
   -7.3500   23.3780  -31.2420 C   0  0  0  0  0  0  0  0  0  0  0  0
   -7.6300   22.2320  -31.9950 C   0  0  0  0  0  0  0  0  0  0  0  0
   -6.4970   21.6170  -32.5160 C   0  0  0  0  0  0  0  0  0  0  0  0
   -5.1460   22.4990  -32.0400 S   0  0  0  0  0  0  0  0  0  0  0  0
   -3.7863   22.5490  -29.3449 H   0  0  0  0  0  0  0  0  0  0  0  0
   -2.2740   21.4736  -27.6810 H   0  0  0  0  0  0  0  0  0  0  0  0
   -0.2726   22.6973  -26.8351 H   0  0  0  0  0  0  0  0  0  0  0  0
    0.2044   25.0116  -27.6316 H   0  0  0  0  0  0  0  0  0  0  0  0
   -8.1237   23.9895  -30.7548 H   0  0  0  0  0  0  0  0  0  0  0  0
   -8.6498   21.8537  -32.1591 H   0  0  0  0  0  0  0  0  0  0  0  0
   -6.4860   20.7076  -33.1347 H   0  0  0  0  0  0  0  0  0  0  0  0
  1  2  2  0
  2  3  2  0
  2  4  1  0
  4  5  1  0
  5  6  2  0
  6  7  1  0
  7  8  2  0
  8  9  1  0
  9 10  2  0
 10 11  1  0
  2 12  1  0
 12 13  2  0
 13 14  1  0
 14 15  2  0
 15 16  1  0
 10  5  1  0
 16 12  1  0
  6 17  1  0
  7 18  1  0
  8 19  1  0
  9 20  1  0
 13 21  1  0
 14 22  1  0
 15 23  1  0
M  CHG  2   4  -1  11  -1
M  END
>  <UniqueID>  (45) 
43

>  <SMILES>  (45) 
O=S(=O)([N-]c1ccccc1[O-])c1cccs1

>  <Energy>  (45) 
56.42021921222462

>  <Genealogy>  (45) 
O=S(=O)([N-]c1ccccc1[O-])c1cccs1 (protonated)
O=S(=O)([N-]c1ccccc1[O-])c1cccs1 (3D coordinates assigned)
O=S(=O)([N-]c1ccccc1[O-])c1cccs1 (optimized conformer: 56.42021921222462 kcal/mol)

>  <smiles>  (45) 
O=S(=O)(Nc1ccccc1O)c1cccs1

>  <score_type>  (45) 
oracle

>  <origin>  (45) 
adgpu

>  <m_score__min__energy>  (45) 
-11.08

>  <m_primary>  (45) 
energy

$$$$
45:0
     RDKit          3D

 47 50  0  0  0  0  0  0  0  0999 V2000
   -8.6700   20.1470  -31.9350 C   0  0  0  0  0  0  0  0  0  0  0  0
   -8.4350   21.5070  -32.2950 O   0  0  0  0  0  0  0  0  0  0  0  0
   -7.3170   22.2510  -31.9070 C   0  0  0  0  0  0  0  0  0  0  0  0
   -7.4340   23.4460  -31.1750 C   0  0  0  0  0  0  0  0  0  0  0  0
   -6.2890   24.1560  -30.8070 C   0  0  0  0  0  0  0  0  0  0  0  0
   -5.0180   23.7050  -31.1820 C   0  0  0  0  0  0  0  0  0  0  0  0
   -3.8250   24.4210  -30.8350 N   0  0  0  0  0  0  0  0  0  0  0  0
   -3.0840   24.3880  -29.2660 S   0  0  0  0  0  0  0  0  0  0  0  0
   -4.0580   24.9230  -28.2540 O   0  0  0  0  0  0  0  0  0  0  0  0
   -1.8760   25.2870  -29.2770 O   0  0  0  0  0  0  0  0  0  0  0  0
   -2.6230   22.7520  -28.8040 C   0  0  0  0  0  0  0  0  0  0  0  0
   -3.2510   22.1220  -27.7030 C   0  0  0  0  0  0  0  0  0  0  0  0
   -2.8670   20.8270  -27.3060 C   0  0  0  0  0  0  0  0  0  0  0  0
   -1.8640   20.1960  -28.0350 C   0  0  0  0  0  0  0  0  0  0  0  0
   -1.3310   18.9840  -27.8290 N   0  0  0  0  0  0  0  0  0  0  0  0
   -0.4070   18.8930  -28.8240 C   0  0  0  0  0  0  0  0  0  0  0  0
    0.4730   17.7180  -29.0050 C   0  0  0  0  0  0  0  0  0  0  0  0
    0.9470   17.3660  -30.2820 C   0  0  0  0  0  0  0  0  0  0  0  0
    1.7480   16.2320  -30.4510 C   0  0  0  0  0  0  0  0  0  0  0  0
    2.1000   15.4480  -29.3510 C   0  0  0  0  0  0  0  0  0  0  0  0
    1.6470   15.7960  -28.0690 C   0  0  0  0  0  0  0  0  0  0  0  0
    2.0370   14.7870  -26.6800 S   0  0  0  0  0  0  0  0  0  0  0  0
    0.5950   14.0470  -26.0850 N   0  0  0  0  0  0  0  0  0  0  0  0
    3.0270   13.7300  -27.0800 O   0  0  0  0  0  0  0  0  0  0  0  0
    2.6440   15.6300  -25.5950 O   0  0  0  0  0  0  0  0  0  0  0  0
    0.8300   16.9230  -27.9010 C   0  0  0  0  0  0  0  0  0  0  0  0
   -0.3380   19.9890  -29.6250 N   0  0  0  0  0  0  0  0  0  0  0  0
   -1.2690   20.7950  -29.1000 C   0  0  0  0  0  0  0  0  0  0  0  0
   -1.6110   22.0750  -29.5170 C   0  0  0  0  0  0  0  0  0  0  0  0
   -4.9040   22.5270  -31.9300 C   0  0  0  0  0  0  0  0  0  0  0  0
   -6.0430   21.7920  -32.2640 C   0  0  0  0  0  0  0  0  0  0  0  0
   -8.6858   20.0553  -30.8389 H   0  0  0  0  0  0  0  0  0  0  0  0
   -9.6377   19.8213  -32.3442 H   0  0  0  0  0  0  0  0  0  0  0  0
   -7.8677   19.5155  -32.3442 H   0  0  0  0  0  0  0  0  0  0  0  0
   -8.4283   23.8219  -30.8920 H   0  0  0  0  0  0  0  0  0  0  0  0
   -6.3869   25.0789  -30.2165 H   0  0  0  0  0  0  0  0  0  0  0  0
   -4.0452   22.6483  -27.1533 H   0  0  0  0  0  0  0  0  0  0  0  0
   -3.3441   20.3307  -26.4481 H   0  0  0  0  0  0  0  0  0  0  0  0
    0.6862   17.9861  -31.1523 H   0  0  0  0  0  0  0  0  0  0  0  0
    2.1022   15.9567  -31.4553 H   0  0  0  0  0  0  0  0  0  0  0  0
    2.7319   14.5582  -29.4888 H   0  0  0  0  0  0  0  0  0  0  0  0
   -0.2080   14.6430  -26.3800 H   0  0  0  0  0  0  0  0  0  0  0  0
    0.6460   14.0700  -25.0450 H   0  0  0  0  0  0  0  0  0  0  0  0
    0.4652   17.1876  -26.8975 H   0  0  0  0  0  0  0  0  0  0  0  0
   -1.1092   22.5456  -30.3753 H   0  0  0  0  0  0  0  0  0  0  0  0
   -3.9127   22.1791  -32.2559 H   0  0  0  0  0  0  0  0  0  0  0  0
   -5.9388   20.8441  -32.8123 H   0  0  0  0  0  0  0  0  0  0  0  0
  1  2  1  0
  2  3  1  0
  3  4  2  0
  4  5  1  0
  5  6  2  0
  6  7  1  0
  7  8  1  0
  8  9  2  0
  8 10  2  0
  8 11  1  0
 11 12  2  0
 12 13  1  0
 13 14  2  0
 14 15  1  0
 15 16  2  0
 16 17  1  0
 17 18  2  0
 18 19  1  0
 19 20  2  0
 20 21  1  0
 21 22  1  0
 22 23  1  0
 22 24  2  0
 22 25  2  0
 21 26  2  0
 16 27  1  0
 27 28  1  0
 28 29  2  0
  6 30  1  0
 30 31  2  0
 31  3  1  0
 29 11  1  0
 28 14  1  0
 26 17  1  0
  1 32  1  0
  1 33  1  0
  1 34  1  0
  4 35  1  0
  5 36  1  0
 12 37  1  0
 13 38  1  0
 18 39  1  0
 19 40  1  0
 20 41  1  0
 23 42  1  0
 23 43  1  0
 26 44  1  0
 29 45  1  0
 30 46  1  0
 31 47  1  0
M  CHG  2   7  -1  27  -1
M  END
>  <UniqueID>  (46) 
44

>  <SMILES>  (46) 
COc1ccc([N-]S(=O)(=O)c2ccc3nc(-c4cccc(S(N)(=O)=O)c4)[n-]c3c2)cc1

>  <Energy>  (46) 
90.68928960091625

>  <Genealogy>  (46) 
COc1ccc([N-]S(=O)(=O)c2ccc3nc(-c4cccc(S(N)(=O)=O)c4)[n-]c3c2)cc1 (protonated)
COc1ccc([N-]S(=O)(=O)c2ccc3nc(-c4cccc(S(N)(=O)=O)c4)[n-]c3c2)cc1 (3D coordinates assigned)
COc1ccc([N-]S(=O)(=O)c2ccc3nc(-c4cccc(S(N)(=O)=O)c4)[n-]c3c2)cc1 (optimized conformer: 90.68928960091625 kcal/mol)

>  <smiles>  (46) 
COc1ccc(NS(=O)(=O)c2ccc3nc(-c4cccc(S(N)(=O)=O)c4)[nH]c3c2)cc1

>  <score_type>  (46) 
oracle

>  <origin>  (46) 
adgpu

>  <m_score__min__energy>  (46) 
-10.380000000000001

>  <m_primary>  (46) 
energy

$$$$
46:0
     RDKit          3D

 49 51  0  0  0  0  0  0  0  0999 V2000
   -6.5380   23.7880  -31.7070 C   0  0  0  0  0  0  0  0  0  0  0  0
   -5.7790   23.9320  -30.6220 C   0  0  0  0  0  0  0  0  0  0  0  0
   -4.3210   24.1210  -30.6930 C   0  0  0  0  0  0  0  0  0  0  0  0
   -3.8650   25.2890  -30.8190 O   0  0  0  0  0  0  0  0  0  0  0  0
   -3.4330   23.0020  -30.5630 N   0  0  0  0  0  0  0  0  0  0  0  0
   -3.1150   22.0380  -31.5790 C   0  0  0  0  0  0  0  0  0  0  0  0
   -4.1490   21.2550  -32.1060 C   0  0  0  0  0  0  0  0  0  0  0  0
   -3.8810   20.3030  -33.0920 C   0  0  0  0  0  0  0  0  0  0  0  0
   -2.5830   20.1450  -33.5810 C   0  0  0  0  0  0  0  0  0  0  0  0
   -1.5460   20.9600  -33.1110 C   0  0  0  0  0  0  0  0  0  0  0  0
   -0.2210   20.7590  -33.6330 N   0  0  0  0  0  0  0  0  0  0  0  0
    0.4270   21.5430  -34.4430 C   0  0  0  0  0  0  0  0  0  0  0  0
   -0.1570   22.6540  -34.9710 N   0  0  0  0  0  0  0  0  0  0  0  0
    0.5120   23.4560  -35.8390 C   0  0  0  0  0  0  0  0  0  0  0  0
    1.8150   23.1360  -36.2270 C   0  0  0  0  0  0  0  0  0  0  0  0
    2.5140   24.0050  -37.1280 N   0  0  0  0  0  0  0  0  0  0  0  0
    2.2710   25.4040  -37.3150 C   0  0  0  0  0  0  0  0  0  0  0  0
    2.2850   25.9080  -38.4700 O   0  0  0  0  0  0  0  0  0  0  0  0
    1.9190   26.2030  -36.1820 N   0  0  0  0  0  0  0  0  0  0  0  0
    1.1390   27.4090  -36.2310 C   0  0  0  0  0  0  0  0  0  0  0  0
   -0.1840   27.3500  -36.7220 C   0  0  0  0  0  0  0  0  0  0  0  0
   -0.7570   26.0490  -37.2130 C   0  0  0  0  0  0  0  0  0  0  0  0
   -0.9560   28.5200  -36.7810 C   0  0  0  0  0  0  0  0  0  0  0  0
   -0.4310   29.7340  -36.3380 C   0  0  0  0  0  0  0  0  0  0  0  0
    0.8600   29.7920  -35.8180 C   0  0  0  0  0  0  0  0  0  0  0  0
    1.6530   28.6310  -35.7410 C   0  0  0  0  0  0  0  0  0  0  0  0
    2.9340   28.6510  -35.1630 O   0  0  0  0  0  0  0  0  0  0  0  0
    3.2140   29.0560  -33.8270 C   0  0  0  0  0  0  0  0  0  0  0  0
    2.4050   21.9950  -35.6630 C   0  0  0  0  0  0  0  0  0  0  0  0
    1.6990   21.2240  -34.7960 N   0  0  0  0  0  0  0  0  0  0  0  0
   -1.8130   21.8960  -32.0920 C   0  0  0  0  0  0  0  0  0  0  0  0
   -7.6243   23.6492  -31.6038 H   0  0  0  0  0  0  0  0  0  0  0  0
   -6.0785   23.8079  -32.7062 H   0  0  0  0  0  0  0  0  0  0  0  0
   -6.2610   23.9088  -29.6335 H   0  0  0  0  0  0  0  0  0  0  0  0
   -5.1780   21.3904  -31.7415 H   0  0  0  0  0  0  0  0  0  0  0  0
   -4.6950   19.6758  -33.4845 H   0  0  0  0  0  0  0  0  0  0  0  0
   -2.3738   19.3763  -34.3395 H   0  0  0  0  0  0  0  0  0  0  0  0
    0.0268   24.3593  -36.2372 H   0  0  0  0  0  0  0  0  0  0  0  0
   -1.0332   25.4220  -36.3524 H   0  0  0  0  0  0  0  0  0  0  0  0
   -1.6504   26.2488  -37.8228 H   0  0  0  0  0  0  0  0  0  0  0  0
   -0.0065   25.5247  -37.8228 H   0  0  0  0  0  0  0  0  0  0  0  0
   -1.9808   28.4798  -37.1787 H   0  0  0  0  0  0  0  0  0  0  0  0
   -1.0386   30.6489  -36.3995 H   0  0  0  0  0  0  0  0  0  0  0  0
    1.2632   30.7525  -35.4647 H   0  0  0  0  0  0  0  0  0  0  0  0
    2.7327   28.3599  -33.1243 H   0  0  0  0  0  0  0  0  0  0  0  0
    4.3016   29.0498  -33.6623 H   0  0  0  0  0  0  0  0  0  0  0  0
    2.8240   30.0713  -33.6623 H   0  0  0  0  0  0  0  0  0  0  0  0
    3.4392   21.7249  -35.9229 H   0  0  0  0  0  0  0  0  0  0  0  0
   -0.9982   22.5195  -31.6953 H   0  0  0  0  0  0  0  0  0  0  0  0
  1  2  2  0
  2  3  1  0
  3  4  2  0
  3  5  1  0
  5  6  1  0
  6  7  2  0
  7  8  1  0
  8  9  2  0
  9 10  1  0
 10 11  1  0
 11 12  2  3
 12 13  1  0
 13 14  2  0
 14 15  1  0
 15 16  1  0
 16 17  1  0
 17 18  2  0
 17 19  1  0
 19 20  1  0
 20 21  2  0
 21 22  1  0
 21 23  1  0
 23 24  2  0
 24 25  1  0
 25 26  2  0
 26 27  1  0
 27 28  1  0
 15 29  2  0
 29 30  1  0
 10 31  2  0
 31  6  1  0
 30 12  1  0
 26 20  1  0
  1 32  1  0
  1 33  1  0
  2 34  1  0
  7 35  1  0
  8 36  1  0
  9 37  1  0
 14 38  1  0
 22 39  1  0
 22 40  1  0
 22 41  1  0
 23 42  1  0
 24 43  1  0
 25 44  1  0
 28 45  1  0
 28 46  1  0
 28 47  1  0
 29 48  1  0
 31 49  1  0
M  CHG  4   5  -1  16  -1  19  -1  30  -1
M  END
>  <UniqueID>  (47) 
45

>  <SMILES>  (47) 
C=CC(=O)[N-]c1cccc(N=c2ncc([N-]C(=O)[N-]c3c(C)cccc3OC)c[n-]2)c1

>  <Energy>  (47) 
68.44864982735237

>  <Genealogy>  (47) 
C=CC(=O)[N-]c1cccc(N=c2ncc([N-]C(=O)[N-]c3c(C)cccc3OC)c[n-]2)c1 (protonated)
C=CC(=O)[N-]c1cccc(N=c2ncc([N-]C(=O)[N-]c3c(C)cccc3OC)c[n-]2)c1 (3D coordinates assigned)
C=CC(=O)[N-]c1cccc(N=c2ncc([N-]C(=O)[N-]c3c(C)cccc3OC)c[n-]2)c1 (optimized conformer: 68.44864982735237 kcal/mol)

>  <smiles>  (47) 
C=CC(=O)Nc1cccc(N=c2ncc(NC(=O)Nc3c(C)cccc3OC)c[nH]2)c1

>  <score_type>  (47) 
oracle

>  <origin>  (47) 
adgpu

>  <m_score__min__energy>  (47) 
-11.779999999999999

>  <m_primary>  (47) 
energy

$$$$
47:0
     RDKit          3D

 45 48  0  0  0  0  0  0  0  0999 V2000
   -3.7670   25.2610  -30.4280 N   0  0  0  0  0  0  0  0  0  0  0  0
   -5.1860   25.4060  -30.4060 C   0  0  0  0  0  0  0  0  0  0  0  0
   -5.6820   26.5140  -30.0810 O   0  0  0  0  0  0  0  0  0  0  0  0
   -6.0620   24.2740  -30.7680 C   0  0  0  0  0  0  0  0  0  0  0  0
   -6.4770   24.0900  -32.0980 C   0  0  0  0  0  0  0  0  0  0  0  0
   -7.2910   23.0110  -32.4400 C   0  0  0  0  0  0  0  0  0  0  0  0
   -7.6990   22.0960  -31.4640 C   0  0  0  0  0  0  0  0  0  0  0  0
   -8.6150   20.6660  -31.9410 S   0  0  0  0  0  0  0  0  0  0  0  0
   -8.5350   19.5960  -30.8800 O   0  0  0  0  0  0  0  0  0  0  0  0
  -10.0530   21.0550  -32.1510 O   0  0  0  0  0  0  0  0  0  0  0  0
   -7.9580   20.0510  -33.4270 N   0  0  0  0  0  0  0  0  0  0  0  0
   -6.6120   19.5760  -33.5460 C   0  0  0  0  0  0  0  0  0  0  0  0
   -5.5490   20.4710  -33.2720 C   0  0  0  0  0  0  0  0  0  0  0  0
   -4.2200   20.0110  -33.2240 C   0  0  0  0  0  0  0  0  0  0  0  0
   -3.9920   18.6570  -33.4870 C   0  0  0  0  0  0  0  0  0  0  0  0
   -5.0050   17.7990  -33.7990 C   0  0  0  0  0  0  0  0  0  0  0  0
   -6.3310   18.2170  -33.8460 C   0  0  0  0  0  0  0  0  0  0  0  0
   -4.5400   16.5420  -33.9190 N   0  0  0  0  0  0  0  0  0  0  0  0
   -3.2140   16.6790  -33.6640 C   0  0  0  0  0  0  0  0  0  0  0  0
   -2.8490   17.9580  -33.3960 N   0  0  0  0  0  0  0  0  0  0  0  0
   -1.5630   18.4000  -32.8580 C   0  0  0  0  0  0  0  0  0  0  0  0
   -0.8820   19.3130  -33.8450 C   0  0  0  0  0  0  0  0  0  0  0  0
   -0.8760   20.7080  -33.6550 C   0  0  0  0  0  0  0  0  0  0  0  0
   -0.1830   21.5410  -34.5410 C   0  0  0  0  0  0  0  0  0  0  0  0
    0.5140   20.9890  -35.6140 C   0  0  0  0  0  0  0  0  0  0  0  0
    0.5130   19.5990  -35.8150 C   0  0  0  0  0  0  0  0  0  0  0  0
   -0.1910   18.7660  -34.9390 C   0  0  0  0  0  0  0  0  0  0  0  0
   -7.3030   22.2810  -30.1350 C   0  0  0  0  0  0  0  0  0  0  0  0
   -6.4930   23.3610  -29.7910 C   0  0  0  0  0  0  0  0  0  0  0  0
   -3.1930   25.6620  -31.2040 H   0  0  0  0  0  0  0  0  0  0  0  0
   -6.1577   24.8015  -32.8738 H   0  0  0  0  0  0  0  0  0  0  0  0
   -7.6141   22.8786  -33.4831 H   0  0  0  0  0  0  0  0  0  0  0  0
   -5.7642   21.5351  -33.0951 H   0  0  0  0  0  0  0  0  0  0  0  0
   -3.3897   20.6928  -32.9878 H   0  0  0  0  0  0  0  0  0  0  0  0
   -7.1373   17.5160  -34.1076 H   0  0  0  0  0  0  0  0  0  0  0  0
   -2.5060   15.8372  -33.6736 H   0  0  0  0  0  0  0  0  0  0  0  0
   -1.7286   18.9409  -31.9146 H   0  0  0  0  0  0  0  0  0  0  0  0
   -0.9252   17.5225  -32.6758 H   0  0  0  0  0  0  0  0  0  0  0  0
   -1.4194   21.1461  -32.8048 H   0  0  0  0  0  0  0  0  0  0  0  0
   -0.1886   22.6306  -34.3904 H   0  0  0  0  0  0  0  0  0  0  0  0
    1.0660   21.6432  -36.3049 H   0  0  0  0  0  0  0  0  0  0  0  0
    1.0658   19.1653  -36.6613 H   0  0  0  0  0  0  0  0  0  0  0  0
   -0.2036   17.6790  -35.1073 H   0  0  0  0  0  0  0  0  0  0  0  0
   -7.6317   21.5725  -29.3604 H   0  0  0  0  0  0  0  0  0  0  0  0
   -6.1877   23.5004  -28.7435 H   0  0  0  0  0  0  0  0  0  0  0  0
  1  2  1  0
  2  3  2  0
  2  4  1  0
  4  5  2  0
  5  6  1  0
  6  7  2  0
  7  8  1  0
  8  9  2  0
  8 10  2  0
  8 11  1  0
 11 12  1  0
 12 13  2  0
 13 14  1  0
 14 15  2  0
 15 16  1  0
 16 17  2  0
 16 18  1  0
 18 19  2  0
 19 20  1  0
 20 21  1  0
 21 22  1  0
 22 23  2  0
 23 24  1  0
 24 25  2  0
 25 26  1  0
 26 27  2  0
  7 28  1  0
 28 29  2  0
 29  4  1  0
 17 12  1  0
 27 22  1  0
 20 15  1  0
  1 30  1  0
  5 31  1  0
  6 32  1  0
 13 33  1  0
 14 34  1  0
 17 35  1  0
 19 36  1  0
 21 37  1  0
 21 38  1  0
 23 39  1  0
 24 40  1  0
 25 41  1  0
 26 42  1  0
 27 43  1  0
 28 44  1  0
 29 45  1  0
M  CHG  2   1  -1  11  -1
M  END
>  <UniqueID>  (48) 
46

>  <SMILES>  (48) 
[NH-]C(=O)c1ccc(S(=O)(=O)[N-]c2ccc3c(c2)ncn3Cc2ccccc2)cc1

>  <Energy>  (48) 
90.42576608095021

>  <Genealogy>  (48) 
[NH-]C(=O)c1ccc(S(=O)(=O)[N-]c2ccc3c(c2)ncn3Cc2ccccc2)cc1 (protonated)
[NH-]C(=O)c1ccc(S(=O)(=O)[N-]c2ccc3c(c2)ncn3Cc2ccccc2)cc1 (3D coordinates assigned)
[NH-]C(=O)c1ccc(S(=O)(=O)[N-]c2ccc3c(c2)ncn3Cc2ccccc2)cc1 (optimized conformer: 90.42576608095021 kcal/mol)

>  <smiles>  (48) 
NC(=O)c1ccc(S(=O)(=O)Nc2ccc3c(c2)ncn3Cc2ccccc2)cc1

>  <score_type>  (48) 
oracle

>  <origin>  (48) 
adgpu

>  <m_score__min__energy>  (48) 
-11.58

>  <m_primary>  (48) 
energy

$$$$
48:0
     RDKit          3D

 40 42  0  0  0  0  0  0  0  0999 V2000
   -3.1440   17.5640  -33.2680 N   0  0  0  0  0  0  0  0  0  0  0  0
   -4.2050   17.9880  -33.0890 C   0  0  0  0  0  0  0  0  0  0  0  0
   -5.5260   18.5160  -32.8680 C   0  0  0  0  0  0  0  0  0  0  0  0
   -6.3170   18.0150  -31.8260 C   0  0  0  0  0  0  0  0  0  0  0  0
   -7.6000   18.5270  -31.6110 C   0  0  0  0  0  0  0  0  0  0  0  0
   -8.1070   19.5400  -32.4420 C   0  0  0  0  0  0  0  0  0  0  0  0
   -9.4870   20.0990  -32.2120 C   0  0  0  0  0  0  0  0  0  0  0  0
   -9.4260   21.5400  -31.9590 N   0  0  0  0  0  0  0  0  0  0  0  0
   -8.2490   22.2410  -31.5130 C   0  0  0  0  0  0  0  0  0  0  0  0
   -7.7820   22.0310  -30.2060 C   0  0  0  0  0  0  0  0  0  0  0  0
   -6.6420   22.6930  -29.7440 C   0  0  0  0  0  0  0  0  0  0  0  0
   -5.9500   23.5760  -30.5810 C   0  0  0  0  0  0  0  0  0  0  0  0
   -4.5290   24.4210  -29.9750 S   0  0  0  0  0  0  0  0  0  0  0  0
   -4.2750   25.6280  -30.8340 O   0  0  0  0  0  0  0  0  0  0  0  0
   -4.7410   24.8760  -28.5590 O   0  0  0  0  0  0  0  0  0  0  0  0
   -3.1490   23.3710  -30.0440 N   0  0  0  0  0  0  0  0  0  0  0  0
   -2.9070   22.5630  -31.0300 C   0  0  0  0  0  0  0  0  0  0  0  0
   -3.7480   22.4890  -32.1000 N   0  0  0  0  0  0  0  0  0  0  0  0
   -3.4940   21.6480  -33.1350 C   0  0  0  0  0  0  0  0  0  0  0  0
   -2.3560   20.8420  -33.1120 C   0  0  0  0  0  0  0  0  0  0  0  0
   -1.5050   20.9270  -32.0100 C   0  0  0  0  0  0  0  0  0  0  0  0
   -1.7950   21.7830  -30.9940 N   0  0  0  0  0  0  0  0  0  0  0  0
   -6.4160   23.8000  -31.8830 C   0  0  0  0  0  0  0  0  0  0  0  0
   -7.5570   23.1400  -32.3470 C   0  0  0  0  0  0  0  0  0  0  0  0
   -7.3050   20.0470  -33.4770 C   0  0  0  0  0  0  0  0  0  0  0  0
   -6.0220   19.5340  -33.6910 C   0  0  0  0  0  0  0  0  0  0  0  0
   -5.9280   17.2175  -31.1759 H   0  0  0  0  0  0  0  0  0  0  0  0
   -8.2152   18.1350  -30.7876 H   0  0  0  0  0  0  0  0  0  0  0  0
  -10.1045   19.9147  -33.1035 H   0  0  0  0  0  0  0  0  0  0  0  0
   -9.9273   19.6040  -31.3339 H   0  0  0  0  0  0  0  0  0  0  0  0
  -10.3150   22.0800  -32.0710 H   0  0  0  0  0  0  0  0  0  0  0  0
   -8.3184   21.3392  -29.5399 H   0  0  0  0  0  0  0  0  0  0  0  0
   -6.2865   22.5196  -28.7176 H   0  0  0  0  0  0  0  0  0  0  0  0
   -4.1844   21.6023  -33.9901 H   0  0  0  0  0  0  0  0  0  0  0  0
   -2.1349   20.1558  -33.9428 H   0  0  0  0  0  0  0  0  0  0  0  0
   -0.6007   20.3025  -31.9629 H   0  0  0  0  0  0  0  0  0  0  0  0
   -5.8812   24.4987  -32.5432 H   0  0  0  0  0  0  0  0  0  0  0  0
   -7.9168   23.3239  -33.3701 H   0  0  0  0  0  0  0  0  0  0  0  0
   -7.6877   20.8514  -34.1224 H   0  0  0  0  0  0  0  0  0  0  0  0
   -5.4012   19.9311  -34.5076 H   0  0  0  0  0  0  0  0  0  0  0  0
  1  2  3  0
  2  3  1  0
  3  4  2  0
  4  5  1  0
  5  6  2  0
  6  7  1  0
  7  8  1  0
  8  9  1  0
  9 10  2  0
 10 11  1  0
 11 12  2  0
 12 13  1  0
 13 14  2  0
 13 15  2  0
 13 16  1  0
 16 17  2  3
 17 18  1  0
 18 19  2  0
 19 20  1  0
 20 21  2  0
 21 22  1  0
 12 23  1  0
 23 24  2  0
  6 25  1  0
 25 26  2  0
 26  3  1  0
 24  9  1  0
 22 17  1  0
  4 27  1  0
  5 28  1  0
  7 29  1  0
  7 30  1  0
  8 31  1  0
 10 32  1  0
 11 33  1  0
 19 34  1  0
 20 35  1  0
 21 36  1  0
 23 37  1  0
 24 38  1  0
 25 39  1  0
 26 40  1  0
M  CHG  1  22  -1
M  END
>  <UniqueID>  (49) 
47

>  <SMILES>  (49) 
N#Cc1ccc(CNc2ccc(S(=O)(=O)N=c3nccc[n-]3)cc2)cc1

>  <Energy>  (49) 
45.17191519167761

>  <Genealogy>  (49) 
N#Cc1ccc(CNc2ccc(S(=O)(=O)N=c3nccc[n-]3)cc2)cc1 (protonated)
N#Cc1ccc(CNc2ccc(S(=O)(=O)N=c3nccc[n-]3)cc2)cc1 (3D coordinates assigned)
N#Cc1ccc(CNc2ccc(S(=O)(=O)N=c3nccc[n-]3)cc2)cc1 (optimized conformer: 45.17191519167761 kcal/mol)

>  <smiles>  (49) 
N#Cc1ccc(CNc2ccc(S(=O)(=O)N=c3nccc[nH]3)cc2)cc1

>  <score_type>  (49) 
oracle

>  <origin>  (49) 
adgpu

>  <m_score__min__energy>  (49) 
-10.720000000000001

>  <m_primary>  (49) 
energy

$$$$
49:0
     RDKit          3D

 64 68  0  0  0  0  0  0  0  0999 V2000
   -4.2620   24.5370  -29.5350 O   0  0  0  0  0  0  0  0  0  0  0  0
   -3.0360   24.2450  -29.5520 C   0  0  0  0  0  0  0  0  0  0  0  0
   -2.0800   25.2920  -29.3410 N   0  0  0  0  0  0  0  0  0  0  0  0
   -1.5980   25.7850  -28.0800 C   0  0  0  0  0  0  0  0  0  0  0  0
   -2.1140   25.2330  -26.9030 C   0  0  0  0  0  0  0  0  0  0  0  0
   -1.6430   25.6500  -25.6550 C   0  0  0  0  0  0  0  0  0  0  0  0
   -0.6490   26.6360  -25.5680 C   0  0  0  0  0  0  0  0  0  0  0  0
   -0.0260   27.1990  -24.0120 S   0  0  0  0  0  0  0  0  0  0  0  0
   -1.0610   26.9400  -22.9510 O   0  0  0  0  0  0  0  0  0  0  0  0
    0.1990   28.6830  -24.1200 O   0  0  0  0  0  0  0  0  0  0  0  0
    1.4810   26.4190  -23.5670 N   0  0  0  0  0  0  0  0  0  0  0  0
    1.6650   25.2140  -24.4000 C   0  0  0  0  0  0  0  0  0  0  0  0
    3.0880   24.6430  -24.2370 C   0  0  0  0  0  0  0  0  0  0  0  0
    4.1500   25.5870  -24.3470 O   0  0  0  0  0  0  0  0  0  0  0  0
    3.7050   26.8940  -24.6540 C   0  0  0  0  0  0  0  0  0  0  0  0
    2.6290   27.3620  -23.6610 C   0  0  0  0  0  0  0  0  0  0  0  0
   -0.1180   27.1780  -26.7450 C   0  0  0  0  0  0  0  0  0  0  0  0
   -0.5720   26.7420  -27.9930 C   0  0  0  0  0  0  0  0  0  0  0  0
   -2.6320   22.8480  -29.8310 C   0  0  0  0  0  0  0  0  0  0  0  0
   -2.0290   22.0600  -28.8360 C   0  0  0  0  0  0  0  0  0  0  0  0
   -1.6710   20.7360  -29.1050 C   0  0  0  0  0  0  0  0  0  0  0  0
   -1.9110   20.1870  -30.3680 C   0  0  0  0  0  0  0  0  0  0  0  0
   -2.5040   20.9640  -31.3710 C   0  0  0  0  0  0  0  0  0  0  0  0
   -2.8200   20.2830  -32.9650 S   0  0  0  0  0  0  0  0  0  0  0  0
   -2.1230   18.9540  -33.0650 O   0  0  0  0  0  0  0  0  0  0  0  0
   -2.2610   21.1920  -34.0270 O   0  0  0  0  0  0  0  0  0  0  0  0
   -4.5420   20.0790  -33.1810 N   0  0  0  0  0  0  0  0  0  0  0  0
   -4.9240   18.7080  -32.8080 C   0  0  0  0  0  0  0  0  0  0  0  0
   -6.3810   18.4550  -33.2010 C   0  0  0  0  0  0  0  0  0  0  0  0
   -7.2830   19.5680  -32.7330 C   0  0  0  0  0  0  0  0  0  0  0  0
   -8.6730   19.3730  -32.7210 C   0  0  0  0  0  0  0  0  0  0  0  0
   -9.5280   20.4090  -32.3340 C   0  0  0  0  0  0  0  0  0  0  0  0
   -9.0030   21.6480  -31.9610 C   0  0  0  0  0  0  0  0  0  0  0  0
   -7.6210   21.8580  -31.9820 C   0  0  0  0  0  0  0  0  0  0  0  0
   -6.7540   20.8310  -32.3850 C   0  0  0  0  0  0  0  0  0  0  0  0
   -5.2610   21.0560  -32.3430 C   0  0  0  0  0  0  0  0  0  0  0  0
   -2.8480   22.2970  -31.1050 C   0  0  0  0  0  0  0  0  0  0  0  0
   -2.8979   24.4634  -26.9601 H   0  0  0  0  0  0  0  0  0  0  0  0
   -2.0533   25.2033  -24.7374 H   0  0  0  0  0  0  0  0  0  0  0  0
    1.3830   26.1030  -22.5740 H   0  0  0  0  0  0  0  0  0  0  0  0
    0.9338   24.4507  -24.0953 H   0  0  0  0  0  0  0  0  0  0  0  0
    1.5163   25.4902  -25.4543 H   0  0  0  0  0  0  0  0  0  0  0  0
    3.1528   24.1760  -23.2432 H   0  0  0  0  0  0  0  0  0  0  0  0
    3.2255   23.9391  -25.0710 H   0  0  0  0  0  0  0  0  0  0  0  0
    4.5602   27.5843  -24.6082 H   0  0  0  0  0  0  0  0  0  0  0  0
    3.2676   26.8851  -25.6633 H   0  0  0  0  0  0  0  0  0  0  0  0
    3.0873   27.4580  -22.6656 H   0  0  0  0  0  0  0  0  0  0  0  0
    2.2384   28.3237  -24.0250 H   0  0  0  0  0  0  0  0  0  0  0  0
    0.6615   27.9519  -26.6870 H   0  0  0  0  0  0  0  0  0  0  0  0
   -0.1243   27.1497  -28.9114 H   0  0  0  0  0  0  0  0  0  0  0  0
   -1.8378   22.4872  -27.8406 H   0  0  0  0  0  0  0  0  0  0  0  0
   -1.1995   20.1248  -28.3214 H   0  0  0  0  0  0  0  0  0  0  0  0
   -1.6336   19.1428  -30.5744 H   0  0  0  0  0  0  0  0  0  0  0  0
   -4.2741   17.9917  -33.3319 H   0  0  0  0  0  0  0  0  0  0  0  0
   -4.8120   18.5810  -31.7211 H   0  0  0  0  0  0  0  0  0  0  0  0
   -6.4472   18.3785  -34.2963 H   0  0  0  0  0  0  0  0  0  0  0  0
   -6.7096   17.5211  -32.7215 H   0  0  0  0  0  0  0  0  0  0  0  0
   -9.0916   18.4000  -33.0176 H   0  0  0  0  0  0  0  0  0  0  0  0
  -10.6161   20.2480  -32.3233 H   0  0  0  0  0  0  0  0  0  0  0  0
   -9.6775   22.4596  -31.6504 H   0  0  0  0  0  0  0  0  0  0  0  0
   -7.2112   22.8334  -31.6810 H   0  0  0  0  0  0  0  0  0  0  0  0
   -5.0422   22.0700  -32.7091 H   0  0  0  0  0  0  0  0  0  0  0  0
   -4.9232   20.9327  -31.3034 H   0  0  0  0  0  0  0  0  0  0  0  0
   -3.2902   22.9158  -31.8997 H   0  0  0  0  0  0  0  0  0  0  0  0
  1  2  2  0
  2  3  1  0
  3  4  1  0
  4  5  2  0
  5  6  1  0
  6  7  2  0
  7  8  1  0
  8  9  2  0
  8 10  2  0
  8 11  1  0
 11 12  1  0
 12 13  1  0
 13 14  1  0
 14 15  1  0
 15 16  1  0
  7 17  1  0
 17 18  2  0
  2 19  1  0
 19 20  2  0
 20 21  1  0
 21 22  2  0
 22 23  1  0
 23 24  1  0
 24 25  2  0
 24 26  2  0
 24 27  1  0
 27 28  1  0
 28 29  1  0
 29 30  1  0
 30 31  2  0
 31 32  1  0
 32 33  2  0
 33 34  1  0
 34 35  2  0
 35 36  1  0
 23 37  2  0
 18  4  1  0
 37 19  1  0
 16 11  1  0
 36 27  1  0
 35 30  1  0
  5 38  1  0
  6 39  1  0
 11 40  1  0
 12 41  1  0
 12 42  1  0
 13 43  1  0
 13 44  1  0
 15 45  1  0
 15 46  1  0
 16 47  1  0
 16 48  1  0
 17 49  1  0
 18 50  1  0
 20 51  1  0
 21 52  1  0
 22 53  1  0
 28 54  1  0
 28 55  1  0
 29 56  1  0
 29 57  1  0
 31 58  1  0
 32 59  1  0
 33 60  1  0
 34 61  1  0
 36 62  1  0
 36 63  1  0
 37 64  1  0
M  CHG  2   3  -1  11   1
M  END
>  <UniqueID>  (50) 
48

>  <SMILES>  (50) 
O=C([N-]c1ccc(S(=O)(=O)[NH+]2CCOCC2)cc1)c1cccc(S(=O)(=O)N2CCc3ccccc3C2)c1

>  <Energy>  (50) 
91.19104179337126

>  <Genealogy>  (50) 
O=C([N-]c1ccc(S(=O)(=O)[NH+]2CCOCC2)cc1)c1cccc(S(=O)(=O)N2CCc3ccccc3C2)c1 (protonated)
O=C([N-]c1ccc(S(=O)(=O)[NH+]2CCOCC2)cc1)c1cccc(S(=O)(=O)N2CCc3ccccc3C2)c1 (3D coordinates assigned)
O=C([N-]c1ccc(S(=O)(=O)[NH+]2CCOCC2)cc1)c1cccc(S(=O)(=O)N2CCc3ccccc3C2)c1 (nonaromatic ring conformer: 91.19104179337126 kcal/mol)

>  <smiles>  (50) 
O=C(Nc1ccc(S(=O)(=O)N2CCOCC2)cc1)c1cccc(S(=O)(=O)N2CCc3ccccc3C2)c1

>  <score_type>  (50) 
oracle

>  <origin>  (50) 
adgpu

>  <m_score__min__energy>  (50) 
-13.01

>  <m_primary>  (50) 
energy

$$$$
