0:0
     RDKit          3D

 34 36  0  0  0  0  0  0  0  0999 V2000
   -6.6040   25.0820  -29.7590 C   0  0  0  0  0  0  0  0  0  0  0  0
   -4.9250   24.5820  -30.0660 S   0  0  0  0  0  0  0  0  0  0  0  0
   -4.2210   24.3530  -28.7590 O   0  0  0  0  0  0  0  0  0  0  0  0
   -4.2060   25.6670  -30.8170 O   0  0  0  0  0  0  0  0  0  0  0  0
   -4.9220   23.0980  -31.0120 C   0  0  0  0  0  0  0  0  0  0  0  0
   -3.9470   22.1180  -30.7810 C   0  0  0  0  0  0  0  0  0  0  0  0
   -3.9560   20.9300  -31.5170 C   0  0  0  0  0  0  0  0  0  0  0  0
   -4.9500   20.7010  -32.4840 C   0  0  0  0  0  0  0  0  0  0  0  0
   -4.9620   19.4420  -33.2630 C   0  0  0  0  0  0  0  0  0  0  0  0
   -3.8030   19.0620  -33.9580 C   0  0  0  0  0  0  0  0  0  0  0  0
   -3.7460   17.8350  -34.6160 C   0  0  0  0  0  0  0  0  0  0  0  0
   -4.8490   16.9860  -34.5740 C   0  0  0  0  0  0  0  0  0  0  0  0
   -5.9750   17.3680  -33.9180 N   0  0  0  0  0  0  0  0  0  0  0  0
   -6.0770   18.5660  -33.2780 C   0  0  0  0  0  0  0  0  0  0  0  0
   -7.3280   18.9120  -32.6600 N   0  0  0  0  0  0  0  0  0  0  0  0
   -8.2440   19.7980  -33.0900 C   0  0  0  0  0  0  0  0  0  0  0  0
   -9.3270   19.7330  -32.2420 C   0  0  0  0  0  0  0  0  0  0  0  0
   -9.1050   18.7980  -31.2960 N   0  0  0  0  0  0  0  0  0  0  0  0
   -7.8800   18.3110  -31.5880 C   0  0  0  0  0  0  0  0  0  0  0  0
   -5.9210   21.6880  -32.7170 C   0  0  0  0  0  0  0  0  0  0  0  0
   -5.9100   22.8770  -31.9800 C   0  0  0  0  0  0  0  0  0  0  0  0
   -6.7786   25.1340  -28.6742 H   0  0  0  0  0  0  0  0  0  0  0  0
   -6.7796   26.0714  -30.2065 H   0  0  0  0  0  0  0  0  0  0  0  0
   -7.2923   24.3498  -30.2065 H   0  0  0  0  0  0  0  0  0  0  0  0
   -3.1723   22.2844  -30.0180 H   0  0  0  0  0  0  0  0  0  0  0  0
   -3.1810   20.1701  -31.3386 H   0  0  0  0  0  0  0  0  0  0  0  0
   -2.9347   19.7368  -33.9833 H   0  0  0  0  0  0  0  0  0  0  0  0
   -2.8386   17.5399  -35.1633 H   0  0  0  0  0  0  0  0  0  0  0  0
   -4.8082   16.0061  -35.0721 H   0  0  0  0  0  0  0  0  0  0  0  0
   -8.1455   20.4579  -33.9645 H   0  0  0  0  0  0  0  0  0  0  0  0
  -10.2344   20.3494  -32.3238 H   0  0  0  0  0  0  0  0  0  0  0  0
   -7.3874   17.5122  -31.0143 H   0  0  0  0  0  0  0  0  0  0  0  0
   -6.6940   21.5256  -33.4826 H   0  0  0  0  0  0  0  0  0  0  0  0
   -6.6801   23.6412  -32.1613 H   0  0  0  0  0  0  0  0  0  0  0  0
  1  2  1  0
  2  3  2  0
  2  4  2  0
  2  5  1  0
  5  6  2  0
  6  7  1  0
  7  8  2  0
  8  9  1  0
  9 10  2  0
 10 11  1  0
 11 12  2  0
 12 13  1  0
 13 14  2  0
 14 15  1  0
 15 16  1  0
 16 17  2  0
 17 18  1  0
 18 19  2  0
  8 20  1  0
 20 21  2  0
 21  5  1  0
 14  9  1  0
 19 15  1  0
  1 22  1  0
  1 23  1  0
  1 24  1  0
  6 25  1  0
  7 26  1  0
 10 27  1  0
 11 28  1  0
 12 29  1  0
 16 30  1  0
 17 31  1  0
 19 32  1  0
 20 33  1  0
 21 34  1  0
M  END
>  <UniqueID>  (1) 
1

>  <SMILES>  (1) 
CS(=O)(=O)c1ccc(-c2cccnc2-n2ccnc2)cc1

>  <Energy>  (1) 
74.46562542876516

>  <Genealogy>  (1) 
CS(=O)(=O)c1ccc(-c2cccnc2-n2ccnc2)cc1 (3D coordinates assigned)
CS(=O)(=O)c1ccc(-c2cccnc2-n2ccnc2)cc1 (optimized conformer: 74.46562542876516 kcal/mol)

>  <smiles>  (1) 
CS(=O)(=O)c1ccc(-c2cccnc2-n2ccnc2)cc1

>  <score_type>  (1) 
oracle

>  <origin>  (1) 
adgpu

>  <m_score__min__energy>  (1) 
-8.1999999999999993

>  <m_primary>  (1) 
energy

$$$$
1:0
     RDKit          3D

 40 42  0  0  0  0  0  0  0  0999 V2000
   -2.9869   21.3335  -32.7775 H   0  0  0  0  0  0  0  0  0  0  0  0
   -4.0200   20.9560  -32.7910 C   0  0  0  0  0  0  0  0  0  0  0  0
   -4.9770   21.4840  -31.9080 C   0  0  0  0  0  0  0  0  0  0  0  0
   -4.6200   22.5540  -30.9440 C   0  0  0  0  0  0  0  0  0  0  0  0
   -3.4680   22.4640  -30.2240 N   0  0  0  0  0  0  0  0  0  0  0  0
   -3.1040   23.4170  -29.3250 C   0  0  0  0  0  0  0  0  0  0  0  0
   -1.9830   23.2660  -28.6800 N   0  0  0  0  0  0  0  0  0  0  0  0
   -1.4690   24.0970  -27.6250 C   0  0  0  0  0  0  0  0  0  0  0  0
   -1.0570   23.5410  -26.4080 C   0  0  0  0  0  0  0  0  0  0  0  0
   -1.1737   22.4618  -26.2302 H   0  0  0  0  0  0  0  0  0  0  0  0
   -0.4980   24.3540  -25.4190 C   0  0  0  0  0  0  0  0  0  0  0  0
   -0.1050   23.7770  -24.0910 C   0  0  0  0  0  0  0  0  0  0  0  0
   -0.5257   24.3947  -23.2839 H   0  0  0  0  0  0  0  0  0  0  0  0
   -0.4929   22.7510  -24.0077 H   0  0  0  0  0  0  0  0  0  0  0  0
    0.9917   23.7622  -24.0077 H   0  0  0  0  0  0  0  0  0  0  0  0
   -0.3620   25.7260  -25.6660 C   0  0  0  0  0  0  0  0  0  0  0  0
    0.0492   26.3806  -24.8834 H   0  0  0  0  0  0  0  0  0  0  0  0
   -0.7340   26.2620  -26.8680 N   0  0  0  0  0  0  0  0  0  0  0  0
   -0.5470   27.6970  -27.1100 C   0  0  0  0  0  0  0  0  0  0  0  0
   -0.4782   28.2252  -26.1476 H   0  0  0  0  0  0  0  0  0  0  0  0
    0.3793   27.8547  -27.6819 H   0  0  0  0  0  0  0  0  0  0  0  0
   -1.4019   28.0869  -27.6819 H   0  0  0  0  0  0  0  0  0  0  0  0
   -1.2660   25.4660  -27.8520 C   0  0  0  0  0  0  0  0  0  0  0  0
   -1.5870   25.9610  -28.9680 O   0  0  0  0  0  0  0  0  0  0  0  0
   -3.9010   24.5170  -29.1550 N   0  0  0  0  0  0  0  0  0  0  0  0
   -3.6270   25.3000  -28.5210 H   0  0  0  0  0  0  0  0  0  0  0  0
   -5.0610   24.6470  -29.8480 C   0  0  0  0  0  0  0  0  0  0  0  0
   -5.6966   25.5310  -29.6910 H   0  0  0  0  0  0  0  0  0  0  0  0
   -5.4500   23.6660  -30.7570 C   0  0  0  0  0  0  0  0  0  0  0  0
   -6.3915   23.7630  -31.3174 H   0  0  0  0  0  0  0  0  0  0  0  0
   -6.2490   20.9980  -31.9450 N   0  0  0  0  0  0  0  0  0  0  0  0
   -6.6350   20.0200  -32.8050 C   0  0  0  0  0  0  0  0  0  0  0  0
   -8.3060   19.4750  -32.7600 Cl  0  0  0  0  0  0  0  0  0  0  0  0
   -5.7040   19.4680  -33.7040 C   0  0  0  0  0  0  0  0  0  0  0  0
   -6.1000   18.3830  -34.6670 C   0  0  0  0  0  0  0  0  0  0  0  0
   -6.4243   17.4946  -34.1053 H   0  0  0  0  0  0  0  0  0  0  0  0
   -6.9264   18.7383  -35.3001 H   0  0  0  0  0  0  0  0  0  0  0  0
   -5.2390   18.1225  -35.3001 H   0  0  0  0  0  0  0  0  0  0  0  0
   -4.3880   19.9500  -33.6850 C   0  0  0  0  0  0  0  0  0  0  0  0
   -3.6421   19.5334  -34.3779 H   0  0  0  0  0  0  0  0  0  0  0  0
  1  2  1  0
  2  3  2  0
  3  4  1  0
  4  5  2  0
  5  6  1  0
  6  7  2  0
  7  8  1  0
  8  9  2  0
  9 10  1  0
  9 11  1  0
 11 12  1  0
 12 13  1  0
 12 14  1  0
 12 15  1  0
 11 16  2  0
 16 17  1  0
 16 18  1  0
 18 19  1  0
 19 20  1  0
 19 21  1  0
 19 22  1  0
 18 23  1  0
 23 24  2  0
  6 25  1  0
 25 26  1  0
 25 27  1  0
 27 28  1  0
 27 29  2  0
 29 30  1  0
  3 31  1  0
 31 32  2  0
 32 33  1  0
 32 34  1  0
 34 35  1  0
 35 36  1  0
 35 37  1  0
 35 38  1  0
 34 39  2  0
 39 40  1  0
 39  2  1  0
 29  4  1  0
 23  8  1  0
M  END
>  <UniqueID>  (2) 
2

>  <SMILES>  (2) 
Cc1cc(/N=c2/nc(-c3ccc(C)c(Cl)n3)cc[nH]2)c(=O)n(C)c1

>  <Energy>  (2) 
55.45326479546554

>  <Genealogy>  (2) 
Cc1cc(/N=c2/nc(-c3ccc(C)c(Cl)n3)cc[nH]2)c(=O)n(C)c1 (cis-trans isomerization)
Cc1cc(/N=c2/nc(-c3ccc(C)c(Cl)n3)cc[nH]2)c(=O)n(C)c1 (3D coordinates assigned)
Cc1cc(/N=c2/nc(-c3ccc(C)c(Cl)n3)cc[nH]2)c(=O)n(C)c1 (optimized conformer: 55.45326479546554 kcal/mol)

>  <smiles>  (2) 
Cc1cc(N=c2nc(-c3ccc(C)c(Cl)n3)cc[nH]2)c(=O)n(C)c1

>  <score_type>  (2) 
oracle

>  <origin>  (2) 
adgpu

>  <m_score__min__energy>  (2) 
-8.1400000000000006

>  <m_primary>  (2) 
energy

$$$$
2:0
     RDKit          3D

 32 33  0  0  0  0  0  0  0  0999 V2000
   -1.0020   25.6380  -26.8080 C   0  0  0  0  0  0  0  0  0  0  0  0
   -1.6150   25.1060  -28.0620 C   0  0  0  0  0  0  0  0  0  0  0  0
   -0.8920   24.9410  -29.0810 O   0  0  0  0  0  0  0  0  0  0  0  0
   -3.0320   24.8760  -28.1210 N   0  0  0  0  0  0  0  0  0  0  0  0
   -3.6980   24.2160  -29.2110 C   0  0  0  0  0  0  0  0  0  0  0  0
   -3.6130   22.8230  -29.3330 C   0  0  0  0  0  0  0  0  0  0  0  0
   -4.2420   22.1700  -30.3950 C   0  0  0  0  0  0  0  0  0  0  0  0
   -4.9470   22.9190  -31.3420 C   0  0  0  0  0  0  0  0  0  0  0  0
   -5.5620   22.2610  -32.4140 O   0  0  0  0  0  0  0  0  0  0  0  0
   -6.6000   21.3250  -32.3000 C   0  0  0  0  0  0  0  0  0  0  0  0
   -7.8790   21.7820  -31.9670 C   0  0  0  0  0  0  0  0  0  0  0  0
   -8.9460   20.8880  -31.8620 C   0  0  0  0  0  0  0  0  0  0  0  0
   -8.7450   19.5260  -32.0980 C   0  0  0  0  0  0  0  0  0  0  0  0
   -7.4700   19.0490  -32.4360 C   0  0  0  0  0  0  0  0  0  0  0  0
   -7.2630   17.5960  -32.7460 C   0  0  0  0  0  0  0  0  0  0  0  0
   -6.4040   19.9540  -32.5570 C   0  0  0  0  0  0  0  0  0  0  0  0
   -4.9880   24.2760  -31.2300 N   0  0  0  0  0  0  0  0  0  0  0  0
   -4.3890   24.9340  -30.2020 C   0  0  0  0  0  0  0  0  0  0  0  0
   -1.5091   25.1979  -25.9367 H   0  0  0  0  0  0  0  0  0  0  0  0
    0.0659   25.3756  -26.7819 H   0  0  0  0  0  0  0  0  0  0  0  0
   -1.1114   26.7322  -26.7819 H   0  0  0  0  0  0  0  0  0  0  0  0
   -3.6220   25.2930  -27.3650 H   0  0  0  0  0  0  0  0  0  0  0  0
   -3.0486   22.2413  -28.5893 H   0  0  0  0  0  0  0  0  0  0  0  0
   -4.1833   21.0753  -30.4858 H   0  0  0  0  0  0  0  0  0  0  0  0
   -8.0456   22.8542  -31.7864 H   0  0  0  0  0  0  0  0  0  0  0  0
   -9.9468   21.2568  -31.5929 H   0  0  0  0  0  0  0  0  0  0  0  0
   -9.5892   18.8253  -32.0185 H   0  0  0  0  0  0  0  0  0  0  0  0
   -7.1822   17.0287  -31.8071 H   0  0  0  0  0  0  0  0  0  0  0  0
   -8.1167   17.2202  -33.3291 H   0  0  0  0  0  0  0  0  0  0  0  0
   -6.3383   17.4736  -33.3291 H   0  0  0  0  0  0  0  0  0  0  0  0
   -5.4093   19.5904  -32.8544 H   0  0  0  0  0  0  0  0  0  0  0  0
   -4.4454   26.0311  -30.1458 H   0  0  0  0  0  0  0  0  0  0  0  0
  1  2  1  0
  2  3  2  0
  2  4  1  0
  4  5  1  0
  5  6  2  0
  6  7  1  0
  7  8  2  0
  8  9  1  0
  9 10  1  0
 10 11  2  0
 11 12  1  0
 12 13  2  0
 13 14  1  0
 14 15  1  0
 14 16  2  0
  8 17  1  0
 17 18  2  0
 18  5  1  0
 16 10  1  0
  1 19  1  0
  1 20  1  0
  1 21  1  0
  4 22  1  0
  6 23  1  0
  7 24  1  0
 11 25  1  0
 12 26  1  0
 13 27  1  0
 15 28  1  0
 15 29  1  0
 15 30  1  0
 16 31  1  0
 18 32  1  0
M  END
>  <UniqueID>  (3) 
3

>  <SMILES>  (3) 
CC(=O)Nc1ccc(Oc2cccc(C)c2)nc1

>  <Energy>  (3) 
38.48036495482212

>  <Genealogy>  (3) 
CC(=O)Nc1ccc(Oc2cccc(C)c2)nc1 (3D coordinates assigned)
CC(=O)Nc1ccc(Oc2cccc(C)c2)nc1 (optimized conformer: 38.48036495482212 kcal/mol)

>  <smiles>  (3) 
CC(=O)Nc1ccc(Oc2cccc(C)c2)nc1

>  <score_type>  (3) 
oracle

>  <origin>  (3) 
adgpu

>  <m_score__min__energy>  (3) 
-7.2000000000000002

>  <m_primary>  (3) 
energy

$$$$
3:0
     RDKit          3D

 43 47  0  0  0  0  0  0  0  0999 V2000
   -7.3527   15.8155  -33.3796 H   0  0  0  0  0  0  0  0  0  0  0  0
   -6.8050   16.7670  -33.4480 C   0  0  0  0  0  0  0  0  0  0  0  0
   -5.5460   16.8030  -34.0480 C   0  0  0  0  0  0  0  0  0  0  0  0
   -5.0992   15.8762  -34.4370 H   0  0  0  0  0  0  0  0  0  0  0  0
   -4.8480   18.0110  -34.1580 C   0  0  0  0  0  0  0  0  0  0  0  0
   -3.5430   18.0010  -34.7640 N   0  0  0  0  0  0  0  0  0  0  0  0
   -2.4130   18.2900  -34.1840 C   0  0  0  0  0  0  0  0  0  0  0  0
   -2.3730   18.7400  -32.8980 N   0  0  0  0  0  0  0  0  0  0  0  0
   -1.2050   19.0680  -32.2820 C   0  0  0  0  0  0  0  0  0  0  0  0
   -1.2100   19.5170  -30.9570 C   0  0  0  0  0  0  0  0  0  0  0  0
   -2.1600   19.6071  -30.4099 H   0  0  0  0  0  0  0  0  0  0  0  0
   -0.0070   19.8510  -30.3290 C   0  0  0  0  0  0  0  0  0  0  0  0
   -0.0125   20.2034  -29.2870 H   0  0  0  0  0  0  0  0  0  0  0  0
    1.2040   19.7390  -31.0200 C   0  0  0  0  0  0  0  0  0  0  0  0
    2.1473   20.0031  -30.5196 H   0  0  0  0  0  0  0  0  0  0  0  0
    1.2190   19.2920  -32.3460 C   0  0  0  0  0  0  0  0  0  0  0  0
    2.1726   19.2056  -32.8875 H   0  0  0  0  0  0  0  0  0  0  0  0
    0.0150   18.9540  -32.9840 C   0  0  0  0  0  0  0  0  0  0  0  0
   -0.0060   18.5050  -34.3100 C   0  0  0  0  0  0  0  0  0  0  0  0
    0.9328   18.4115  -34.8756 H   0  0  0  0  0  0  0  0  0  0  0  0
   -1.2230   18.1760  -34.9130 C   0  0  0  0  0  0  0  0  0  0  0  0
   -1.2460   17.8288  -35.9565 H   0  0  0  0  0  0  0  0  0  0  0  0
   -5.4040   19.1810  -33.6070 C   0  0  0  0  0  0  0  0  0  0  0  0
   -4.8403   20.1246  -33.6502 H   0  0  0  0  0  0  0  0  0  0  0  0
   -6.6750   19.1550  -33.0010 C   0  0  0  0  0  0  0  0  0  0  0  0
   -7.2670   20.3930  -32.4340 C   0  0  0  0  0  0  0  0  0  0  0  0
   -8.6610   20.5360  -32.3340 C   0  0  0  0  0  0  0  0  0  0  0  0
   -9.3198   19.7257  -32.6794 H   0  0  0  0  0  0  0  0  0  0  0  0
   -9.2150   21.7000  -31.7990 C   0  0  0  0  0  0  0  0  0  0  0  0
  -10.3077   21.8030  -31.7254 H   0  0  0  0  0  0  0  0  0  0  0  0
   -8.3880   22.7340  -31.3570 C   0  0  0  0  0  0  0  0  0  0  0  0
   -8.8324   23.6479  -30.9359 H   0  0  0  0  0  0  0  0  0  0  0  0
   -6.9920   22.6140  -31.4470 C   0  0  0  0  0  0  0  0  0  0  0  0
   -6.1150   23.7070  -30.9760 C   0  0  0  0  0  0  0  0  0  0  0  0
   -4.9770   24.0910  -31.5910 N   0  0  0  0  0  0  0  0  0  0  0  0
   -4.5090   25.0840  -30.8530 N   0  0  0  0  0  0  0  0  0  0  0  0
   -5.3260   25.2900  -29.8350 N   0  0  0  0  0  0  0  0  0  0  0  0
   -5.1870   26.0170  -29.1010 H   0  0  0  0  0  0  0  0  0  0  0  0
   -6.3450   24.4490  -29.8750 N   0  0  0  0  0  0  0  0  0  0  0  0
   -6.4380   21.4390  -31.9870 C   0  0  0  0  0  0  0  0  0  0  0  0
   -5.3453   21.3366  -32.0607 H   0  0  0  0  0  0  0  0  0  0  0  0
   -7.3720   17.9350  -32.9340 C   0  0  0  0  0  0  0  0  0  0  0  0
   -8.3704   17.9008  -32.4736 H   0  0  0  0  0  0  0  0  0  0  0  0
  1  2  1  0
  2  3  2  0
  3  4  1  0
  3  5  1  0
  5  6  1  0
  6  7  2  0
  7  8  1  0
  8  9  1  0
  9 10  2  0
 10 11  1  0
 10 12  1  0
 12 13  1  0
 12 14  2  0
 14 15  1  0
 14 16  1  0
 16 17  1  0
 16 18  2  0
 18 19  1  0
 19 20  1  0
 19 21  2  0
 21 22  1  0
  5 23  2  0
 23 24  1  0
 23 25  1  0
 25 26  1  0
 26 27  2  0
 27 28  1  0
 27 29  1  0
 29 30  1  0
 29 31  2  0
 31 32  1  0
 31 33  1  0
 33 34  1  0
 34 35  1  0
 35 36  2  0
 36 37  1  0
 37 38  1  0
 37 39  1  0
 33 40  2  0
 40 41  1  0
 25 42  2  0
 42 43  1  0
 42  2  1  0
 21  7  1  0
 40 26  1  0
 18  9  1  0
 39 34  2  0
M  CHG  1   8  -1
M  END
>  <UniqueID>  (4) 
4

>  <SMILES>  (4) 
c1cc(/N=c2/ccc3ccccc3[n-]2)cc(-c2cccc(-c3nn[nH]n3)c2)c1

>  <Energy>  (4) 
103.21000155664743

>  <Genealogy>  (4) 
c1cc(N=c2ccc3ccccc3[n-]2)cc(-c2cccc(-c3nn[nH]n3)c2)c1 (protonated)
c1cc(/N=c2/ccc3ccccc3[n-]2)cc(-c2cccc(-c3nn[nH]n3)c2)c1 (cis-trans isomerization)
c1cc(/N=c2/ccc3ccccc3[n-]2)cc(-c2cccc(-c3nn[nH]n3)c2)c1 (3D coordinates assigned)
c1cc(/N=c2/ccc3ccccc3[n-]2)cc(-c2cccc(-c3nn[nH]n3)c2)c1 (optimized conformer: 103.21000155664743 kcal/mol)

>  <smiles>  (4) 
c1cc(N=c2ccc3ccccc3[nH]2)cc(-c2cccc(-c3nn[nH]n3)c2)c1

>  <score_type>  (4) 
oracle

>  <origin>  (4) 
adgpu

>  <m_score__min__energy>  (4) 
-11.300000000000001

>  <m_primary>  (4) 
energy

$$$$
4:0
     RDKit          3D

 41 43  0  0  0  0  0  0  0  0999 V2000
   -0.8450   26.6900  -27.9310 C   0  0  0  0  0  0  0  0  0  0  0  0
   -1.5960   26.0400  -28.9510 O   0  0  0  0  0  0  0  0  0  0  0  0
   -1.9850   24.6910  -28.9200 C   0  0  0  0  0  0  0  0  0  0  0  0
   -1.2920   23.7390  -28.1430 C   0  0  0  0  0  0  0  0  0  0  0  0
   -1.6590   22.3920  -28.1830 C   0  0  0  0  0  0  0  0  0  0  0  0
   -2.7100   21.9760  -28.9990 C   0  0  0  0  0  0  0  0  0  0  0  0
   -3.4100   22.9090  -29.7660 C   0  0  0  0  0  0  0  0  0  0  0  0
   -3.0770   24.2680  -29.7110 C   0  0  0  0  0  0  0  0  0  0  0  0
   -3.8260   25.1860  -30.5220 N   0  0  0  0  0  0  0  0  0  0  0  0
   -5.2430   25.3730  -30.4650 C   0  0  0  0  0  0  0  0  0  0  0  0
   -5.7310   26.4880  -30.1320 O   0  0  0  0  0  0  0  0  0  0  0  0
   -6.1510   24.2090  -30.7040 C   0  0  0  0  0  0  0  0  0  0  0  0
   -6.1750   23.8440  -32.1890 C   0  0  0  0  0  0  0  0  0  0  0  0
   -6.2070   22.3520  -32.3640 C   0  0  0  0  0  0  0  0  0  0  0  0
   -5.1260   21.5110  -32.6030 C   0  0  0  0  0  0  0  0  0  0  0  0
   -3.7080   21.9350  -32.8110 C   0  0  0  0  0  0  0  0  0  0  0  0
   -5.5330   20.2200  -32.6320 N   0  0  0  0  0  0  0  0  0  0  0  0
   -6.8580   20.3070  -32.3940 C   0  0  0  0  0  0  0  0  0  0  0  0
   -7.7400   19.2300  -32.3070 C   0  0  0  0  0  0  0  0  0  0  0  0
   -9.0870   19.5100  -32.0310 C   0  0  0  0  0  0  0  0  0  0  0  0
   -9.5150   20.8390  -31.8470 C   0  0  0  0  0  0  0  0  0  0  0  0
   -8.5850   21.8840  -31.9450 C   0  0  0  0  0  0  0  0  0  0  0  0
   -7.2910   21.5690  -32.2200 N   0  0  0  0  0  0  0  0  0  0  0  0
   -1.2134   26.3711  -26.9448 H   0  0  0  0  0  0  0  0  0  0  0  0
    0.2171   26.4214  -28.0301 H   0  0  0  0  0  0  0  0  0  0  0  0
   -0.9584   27.7796  -28.0301 H   0  0  0  0  0  0  0  0  0  0  0  0
   -0.4576   24.0595  -27.5018 H   0  0  0  0  0  0  0  0  0  0  0  0
   -1.1173   21.6574  -27.5690 H   0  0  0  0  0  0  0  0  0  0  0  0
   -2.9878   20.9124  -29.0385 H   0  0  0  0  0  0  0  0  0  0  0  0
   -4.2296   22.5740  -30.4187 H   0  0  0  0  0  0  0  0  0  0  0  0
   -5.7924   23.3453  -30.1248 H   0  0  0  0  0  0  0  0  0  0  0  0
   -7.1689   24.4813  -30.3883 H   0  0  0  0  0  0  0  0  0  0  0  0
   -7.0698   24.2824  -32.6550 H   0  0  0  0  0  0  0  0  0  0  0  0
   -5.2663   24.2387  -32.6670 H   0  0  0  0  0  0  0  0  0  0  0  0
   -3.2218   22.0804  -31.8350 H   0  0  0  0  0  0  0  0  0  0  0  0
   -3.1720   21.1578  -33.3755 H   0  0  0  0  0  0  0  0  0  0  0  0
   -3.6866   22.8788  -33.3755 H   0  0  0  0  0  0  0  0  0  0  0  0
   -7.3916   18.1965  -32.4499 H   0  0  0  0  0  0  0  0  0  0  0  0
   -9.8128   18.6867  -31.9579 H   0  0  0  0  0  0  0  0  0  0  0  0
  -10.5710   21.0558  -31.6280 H   0  0  0  0  0  0  0  0  0  0  0  0
   -8.8938   22.9302  -31.8033 H   0  0  0  0  0  0  0  0  0  0  0  0
  1  2  1  0
  2  3  1  0
  3  4  2  0
  4  5  1  0
  5  6  2  0
  6  7  1  0
  7  8  2  0
  8  9  1  0
  9 10  1  0
 10 11  2  0
 10 12  1  0
 12 13  1  0
 13 14  1  0
 14 15  2  0
 15 16  1  0
 15 17  1  0
 17 18  2  0
 18 19  1  0
 19 20  2  0
 20 21  1  0
 21 22  2  0
 22 23  1  0
  8  3  1  0
 23 14  1  0
 23 18  1  0
  1 24  1  0
  1 25  1  0
  1 26  1  0
  4 27  1  0
  5 28  1  0
  6 29  1  0
  7 30  1  0
 12 31  1  0
 12 32  1  0
 13 33  1  0
 13 34  1  0
 16 35  1  0
 16 36  1  0
 16 37  1  0
 19 38  1  0
 20 39  1  0
 21 40  1  0
 22 41  1  0
M  CHG  1   9  -1
M  END
>  <UniqueID>  (5) 
5

>  <SMILES>  (5) 
COc1ccccc1[N-]C(=O)CCc1c(C)nc2ccccn12

>  <Energy>  (5) 
77.0871246681567

>  <Genealogy>  (5) 
COc1ccccc1[N-]C(=O)CCc1c(C)nc2ccccn12 (protonated)
COc1ccccc1[N-]C(=O)CCc1c(C)nc2ccccn12 (3D coordinates assigned)
COc1ccccc1[N-]C(=O)CCc1c(C)nc2ccccn12 (optimized conformer: 77.0871246681567 kcal/mol)

>  <smiles>  (5) 
COc1ccccc1NC(=O)CCc1c(C)nc2ccccn12

>  <score_type>  (5) 
oracle

>  <origin>  (5) 
adgpu

>  <m_score__min__energy>  (5) 
-10.859999999999999

>  <m_primary>  (5) 
energy

$$$$
5:0
     RDKit          3D

 39 41  0  0  1  0  0  0  0  0999 V2000
    1.4960   16.3330  -27.6970 C   0  0  0  0  0  0  0  0  0  0  0  0
    0.2360   16.7080  -27.1090 N   0  0  0  0  0  0  0  0  0  0  0  0
   -0.3570   17.9750  -27.3220 C   0  0  0  0  0  0  0  0  0  0  0  0
   -1.5420   18.3700  -26.7450 C   0  0  0  0  0  0  0  0  0  0  0  0
   -2.0860   19.6310  -26.9880 C   0  0  0  0  0  0  0  0  0  0  0  0
   -1.4550   20.5440  -27.8230 C   0  0  0  0  0  0  0  0  0  0  0  0
   -2.0330   21.8570  -28.0670 C   0  0  0  0  0  0  0  0  0  0  0  0
   -3.0070   22.0310  -29.0310 C   0  0  0  0  0  0  0  0  0  0  0  0
   -3.5750   23.2870  -29.2800 C   0  0  0  0  0  0  0  0  0  0  0  0
   -4.4860   23.4530  -30.1810 N   0  0  0  0  0  0  0  0  0  0  0  0
   -5.0200   24.7570  -30.3800 C   0  0  0  0  0  0  0  0  0  0  0  0
   -6.4290   25.1080  -30.0740 C   0  0  0  0  0  0  0  0  0  0  0  0
   -4.2750   25.6700  -30.8360 O   0  0  0  0  0  0  0  0  0  0  0  0
   -3.1590   24.3420  -28.5610 N   0  0  0  0  0  0  0  0  0  0  0  0
   -2.2130   24.1780  -27.6210 C   0  0  0  0  0  0  0  0  0  0  0  0
   -1.7620   25.3350  -26.8370 C   0  0  0  0  0  0  0  0  0  0  0  0
   -2.0540   25.6720  -25.5470 C   0  0  0  0  0  0  0  0  0  0  0  0
   -1.5140   26.7920  -25.0460 C   0  0  0  0  0  0  0  0  0  0  0  0
   -0.7070   27.5320  -25.8460 C   0  0  0  0  0  0  0  0  0  0  0  0
   -0.7040   26.5640  -27.4570 S   0  0  0  0  0  0  0  0  0  0  0  0
   -1.6670   22.9600  -27.3860 N   0  0  0  0  0  0  0  0  0  0  0  0
   -0.2770   20.1400  -28.3910 C   0  0  0  0  0  0  0  0  0  0  0  0
    0.2710   18.8770  -28.1500 C   0  0  0  0  0  0  0  0  0  0  0  0
    2.2227   16.1167  -26.9000 H   0  0  0  0  0  0  0  0  0  0  0  0
    1.3577   15.4371  -28.3201 H   0  0  0  0  0  0  0  0  0  0  0  0
    1.8701   17.1587  -28.3201 H   0  0  0  0  0  0  0  0  0  0  0  0
   -0.2980   16.0440  -26.4880 H   0  0  0  0  0  0  0  0  0  0  0  0
   -2.0723   17.6755  -26.0769 H   0  0  0  0  0  0  0  0  0  0  0  0
   -3.0359   19.9086  -26.5077 H   0  0  0  0  0  0  0  0  0  0  0  0
   -3.3444   21.1631  -29.6167 H   0  0  0  0  0  0  0  0  0  0  0  0
   -6.5696   25.1430  -28.9836 H   0  0  0  0  0  0  0  0  0  0  0  0
   -6.6638   26.0921  -30.5058 H   0  0  0  0  0  0  0  0  0  0  0  0
   -7.0980   24.3491  -30.5058 H   0  0  0  0  0  0  0  0  0  0  0  0
   -2.7150   25.0412  -24.9346 H   0  0  0  0  0  0  0  0  0  0  0  0
   -1.7205   27.1031  -24.0113 H   0  0  0  0  0  0  0  0  0  0  0  0
   -0.1824   28.4696  -25.6098 H   0  0  0  0  0  0  0  0  0  0  0  0
   -0.9500   22.9140  -26.6540 H   0  0  0  0  0  0  0  0  0  0  0  0
    0.2561   20.8323  -29.0593 H   0  0  0  0  0  0  0  0  0  0  0  0
    1.2207   18.5992  -28.6305 H   0  0  0  0  0  0  0  0  0  0  0  0
  1  2  1  0
  2  3  1  0
  3  4  2  0
  4  5  1  0
  5  6  2  0
  6  7  1  0
  7  8  2  0
  8  9  1  0
  9 10  2  0
 10 11  1  0
 11 12  1  0
 11 13  2  0
  9 14  1  0
 14 15  2  0
 15 16  1  0
 16 17  2  0
 17 18  1  0
 18 19  2  0
 19 20  1  0
 15 21  1  0
  6 22  1  0
 22 23  2  0
 23  3  1  0
 21  7  1  0
 20 16  1  0
  1 24  1  0
  1 25  1  0
  1 26  1  0
  2 27  1  0
  4 28  1  0
  5 29  1  0
  8 30  1  0
 12 31  1  0
 12 32  1  0
 12 33  1  0
 17 34  1  0
 18 35  1  0
 19 36  1  0
 21 37  1  0
 22 38  1  0
 23 39  1  0
M  END
>  <smiles>  (6) 
CNc1ccc(-c2cc(=NC(C)=O)nc(-c3cccs3)[nH]2)cc1

>  <score_type>  (6) 
oracle

>  <origin>  (6) 
adgpu

>  <m_score__min__energy>  (6) 
-7.8300000000000001

>  <m_primary>  (6) 
energy

$$$$
6:0
     RDKit          3D

 22 23  0  0  0  0  0  0  0  0999 V2000
   -5.3390   17.7970  -35.9270 F   0  0  0  0  0  0  0  0  0  0  0  0
   -5.7170   18.0040  -34.6410 C   0  0  0  0  0  0  0  0  0  0  0  0
   -5.7340   16.9380  -33.7360 C   0  0  0  0  0  0  0  0  0  0  0  0
   -6.1230   17.1510  -32.4100 C   0  0  0  0  0  0  0  0  0  0  0  0
   -6.4940   18.4300  -31.9870 C   0  0  0  0  0  0  0  0  0  0  0  0
   -6.4790   19.5060  -32.8900 C   0  0  0  0  0  0  0  0  0  0  0  0
   -6.8720   20.8590  -32.4430 C   0  0  0  0  0  0  0  0  0  0  0  0
   -8.2240   21.1490  -32.1520 C   0  0  0  0  0  0  0  0  0  0  0  0
   -9.4910   19.9410  -32.3410 Cl  0  0  0  0  0  0  0  0  0  0  0  0
   -8.5870   22.4330  -31.7290 C   0  0  0  0  0  0  0  0  0  0  0  0
   -7.6210   23.4300  -31.5930 C   0  0  0  0  0  0  0  0  0  0  0  0
   -6.2840   23.1530  -31.8770 C   0  0  0  0  0  0  0  0  0  0  0  0
   -5.9020   21.8750  -32.3020 C   0  0  0  0  0  0  0  0  0  0  0  0
   -4.1950   21.5730  -32.6120 Cl  0  0  0  0  0  0  0  0  0  0  0  0
   -6.0880   19.2860  -34.2200 C   0  0  0  0  0  0  0  0  0  0  0  0
   -5.4410   15.9309  -34.0677 H   0  0  0  0  0  0  0  0  0  0  0  0
   -6.1370   16.3113  -31.6995 H   0  0  0  0  0  0  0  0  0  0  0  0
   -6.7989   18.5949  -30.9431 H   0  0  0  0  0  0  0  0  0  0  0  0
   -9.6399   22.6570  -31.5026 H   0  0  0  0  0  0  0  0  0  0  0  0
   -7.9144   24.4368  -31.2610 H   0  0  0  0  0  0  0  0  0  0  0  0
   -5.5260   23.9425  -31.7665 H   0  0  0  0  0  0  0  0  0  0  0  0
   -6.0732   20.1234  -34.9332 H   0  0  0  0  0  0  0  0  0  0  0  0
  1  2  1  0
  2  3  2  0
  3  4  1  0
  4  5  2  0
  5  6  1  0
  6  7  1  0
  7  8  2  0
  8  9  1  0
  8 10  1  0
 10 11  2  0
 11 12  1  0
 12 13  2  0
 13 14  1  0
  6 15  2  0
 15  2  1  0
 13  7  1  0
  3 16  1  0
  4 17  1  0
  5 18  1  0
 10 19  1  0
 11 20  1  0
 12 21  1  0
 15 22  1  0
M  END
>  <UniqueID>  (7) 
6

>  <SMILES>  (7) 
Fc1cccc(-c2c(Cl)cccc2Cl)c1

>  <Energy>  (7) 
31.907292477751437

>  <Genealogy>  (7) 
Fc1cccc(-c2c(Cl)cccc2Cl)c1 (3D coordinates assigned)
Fc1cccc(-c2c(Cl)cccc2Cl)c1 (optimized conformer: 31.907292477751437 kcal/mol)

>  <smiles>  (7) 
Fc1cccc(-c2c(Cl)cccc2Cl)c1

>  <score_type>  (7) 
oracle

>  <origin>  (7) 
adgpu

>  <m_score__min__energy>  (7) 
-6.96

>  <m_primary>  (7) 
energy

$$$$
7:0
     RDKit          3D

 32 34  0  0  0  0  0  0  0  0999 V2000
    0.1290   25.7030  -25.2010 C   0  0  0  0  0  0  0  0  0  0  0  0
   -0.8690   25.4260  -26.2850 C   0  0  0  0  0  0  0  0  0  0  0  0
   -2.1770   25.0360  -25.9600 C   0  0  0  0  0  0  0  0  0  0  0  0
   -3.0980   24.7420  -26.9700 C   0  0  0  0  0  0  0  0  0  0  0  0
   -2.7190   24.8200  -28.3210 C   0  0  0  0  0  0  0  0  0  0  0  0
   -3.6880   24.5110  -29.3910 C   0  0  0  0  0  0  0  0  0  0  0  0
   -4.5040   23.4380  -29.3920 N   0  0  0  0  0  0  0  0  0  0  0  0
   -5.1800   23.6100  -30.5470 C   0  0  0  0  0  0  0  0  0  0  0  0
   -6.1840   22.6580  -31.0740 C   0  0  0  0  0  0  0  0  0  0  0  0
   -7.4090   22.5330  -30.3930 C   0  0  0  0  0  0  0  0  0  0  0  0
   -8.4220   21.7120  -30.8900 C   0  0  0  0  0  0  0  0  0  0  0  0
   -9.6020   21.6130  -30.2280 F   0  0  0  0  0  0  0  0  0  0  0  0
   -8.2280   21.0020  -32.0750 C   0  0  0  0  0  0  0  0  0  0  0  0
   -7.0130   21.0970  -32.7540 C   0  0  0  0  0  0  0  0  0  0  0  0
   -5.9760   21.9040  -32.2600 C   0  0  0  0  0  0  0  0  0  0  0  0
   -4.7150   21.8930  -32.9420 N   0  0  0  0  0  0  0  0  0  0  0  0
   -4.7790   24.7120  -31.2130 N   0  0  0  0  0  0  0  0  0  0  0  0
   -3.8620   25.2430  -30.4640 O   0  0  0  0  0  0  0  0  0  0  0  0
   -1.4060   25.1930  -28.6440 C   0  0  0  0  0  0  0  0  0  0  0  0
   -0.4850   25.4870  -27.6320 C   0  0  0  0  0  0  0  0  0  0  0  0
   -0.3495   25.5702  -24.2194 H   0  0  0  0  0  0  0  0  0  0  0  0
    0.9745   25.0056  -25.2941 H   0  0  0  0  0  0  0  0  0  0  0  0
    0.4941   26.7364  -25.2941 H   0  0  0  0  0  0  0  0  0  0  0  0
   -2.4794   24.9612  -24.9050 H   0  0  0  0  0  0  0  0  0  0  0  0
   -4.1246   24.4481  -26.7058 H   0  0  0  0  0  0  0  0  0  0  0  0
   -7.5700   23.0891  -29.4577 H   0  0  0  0  0  0  0  0  0  0  0  0
   -9.0329   20.3673  -32.4740 H   0  0  0  0  0  0  0  0  0  0  0  0
   -6.8659   20.5332  -33.6870 H   0  0  0  0  0  0  0  0  0  0  0  0
   -4.6140   22.3560  -33.8730 H   0  0  0  0  0  0  0  0  0  0  0  0
   -3.9150   21.3090  -32.6150 H   0  0  0  0  0  0  0  0  0  0  0  0
   -1.0985   25.2548  -29.6983 H   0  0  0  0  0  0  0  0  0  0  0  0
    0.5457   25.7674  -27.8949 H   0  0  0  0  0  0  0  0  0  0  0  0
  1  2  1  0
  2  3  2  0
  3  4  1  0
  4  5  2  0
  5  6  1  0
  6  7  2  0
  7  8  1  0
  8  9  1  0
  9 10  2  0
 10 11  1  0
 11 12  1  0
 11 13  2  0
 13 14  1  0
 14 15  2  0
 15 16  1  0
  8 17  2  0
 17 18  1  0
  5 19  1  0
 19 20  2  0
 20  2  1  0
 18  6  1  0
 15  9  1  0
  1 21  1  0
  1 22  1  0
  1 23  1  0
  3 24  1  0
  4 25  1  0
 10 26  1  0
 13 27  1  0
 14 28  1  0
 16 29  1  0
 16 30  1  0
 19 31  1  0
 20 32  1  0
M  END
>  <UniqueID>  (8) 
7

>  <SMILES>  (8) 
Cc1ccc(-c2nc(-c3cc(F)ccc3N)no2)cc1

>  <Energy>  (8) 
72.00813912303056

>  <Genealogy>  (8) 
Cc1ccc(-c2nc(-c3cc(F)ccc3N)no2)cc1 (3D coordinates assigned)
Cc1ccc(-c2nc(-c3cc(F)ccc3N)no2)cc1 (optimized conformer: 72.00813912303056 kcal/mol)

>  <smiles>  (8) 
Cc1ccc(-c2nc(-c3cc(F)ccc3N)no2)cc1

>  <score_type>  (8) 
oracle

>  <origin>  (8) 
adgpu

>  <m_score__min__energy>  (8) 
-8.0600000000000005

>  <m_primary>  (8) 
energy

$$$$
8:0
     RDKit          3D

 47 50  0  0  0  0  0  0  0  0999 V2000
   -1.6250   20.2100  -26.4320 C   0  0  0  0  0  0  0  0  0  0  0  0
   -1.5450   20.9130  -27.6660 O   0  0  0  0  0  0  0  0  0  0  0  0
   -0.7880   22.0790  -27.8740 C   0  0  0  0  0  0  0  0  0  0  0  0
    0.5000   22.2300  -27.3250 C   0  0  0  0  0  0  0  0  0  0  0  0
    1.1970   23.4220  -27.5140 C   0  0  0  0  0  0  0  0  0  0  0  0
    0.6370   24.4350  -28.2230 N   0  0  0  0  0  0  0  0  0  0  0  0
   -0.5990   24.3220  -28.7740 C   0  0  0  0  0  0  0  0  0  0  0  0
   -1.3380   23.1360  -28.6310 C   0  0  0  0  0  0  0  0  0  0  0  0
   -2.6800   23.0420  -29.2520 C   0  0  0  0  0  0  0  0  0  0  0  0
   -3.1220   21.8580  -29.8600 C   0  0  0  0  0  0  0  0  0  0  0  0
   -4.3870   21.8120  -30.4490 C   0  0  0  0  0  0  0  0  0  0  0  0
   -5.2190   22.9460  -30.4340 C   0  0  0  0  0  0  0  0  0  0  0  0
   -6.5110   22.9600  -31.0120 C   0  0  0  0  0  0  0  0  0  0  0  0
   -7.1360   21.7550  -31.6040 C   0  0  0  0  0  0  0  0  0  0  0  0
   -8.3010   21.2160  -31.0410 C   0  0  0  0  0  0  0  0  0  0  0  0
   -8.8810   20.0710  -31.5890 C   0  0  0  0  0  0  0  0  0  0  0  0
   -8.3000   19.4480  -32.6960 C   0  0  0  0  0  0  0  0  0  0  0  0
   -7.1190   19.9630  -33.2650 C   0  0  0  0  0  0  0  0  0  0  0  0
   -6.4870   19.3490  -34.4030 N   0  0  0  0  0  0  0  0  0  0  0  0
   -5.0700   18.3480  -34.3250 S   0  0  0  0  0  0  0  0  0  0  0  0
   -5.2280   17.1610  -33.0080 C   0  0  0  0  0  0  0  0  0  0  0  0
   -4.8580   17.6500  -35.6390 O   0  0  0  0  0  0  0  0  0  0  0  0
   -3.8780   19.2180  -34.0430 O   0  0  0  0  0  0  0  0  0  0  0  0
   -6.5460   21.1190  -32.7080 C   0  0  0  0  0  0  0  0  0  0  0  0
   -7.2370   24.1620  -31.0060 C   0  0  0  0  0  0  0  0  0  0  0  0
   -6.7200   25.2810  -30.4340 N   0  0  0  0  0  0  0  0  0  0  0  0
   -5.4920   25.2890  -29.8560 C   0  0  0  0  0  0  0  0  0  0  0  0
   -4.7160   24.1280  -29.8440 C   0  0  0  0  0  0  0  0  0  0  0  0
   -3.4810   24.1430  -29.2770 N   0  0  0  0  0  0  0  0  0  0  0  0
   -1.5439   20.9227  -25.5981 H   0  0  0  0  0  0  0  0  0  0  0  0
   -2.5889   19.6834  -26.3718 H   0  0  0  0  0  0  0  0  0  0  0  0
   -0.8041   19.4803  -26.3718 H   0  0  0  0  0  0  0  0  0  0  0  0
    0.9543   21.4102  -26.7492 H   0  0  0  0  0  0  0  0  0  0  0  0
    2.2038   23.5422  -27.0874 H   0  0  0  0  0  0  0  0  0  0  0  0
   -1.0248   25.1658  -29.3367 H   0  0  0  0  0  0  0  0  0  0  0  0
   -2.4744   20.9689  -29.8728 H   0  0  0  0  0  0  0  0  0  0  0  0
   -4.7347   20.8844  -30.9271 H   0  0  0  0  0  0  0  0  0  0  0  0
   -8.7596   21.6970  -30.1645 H   0  0  0  0  0  0  0  0  0  0  0  0
   -9.7996   19.6574  -31.1473 H   0  0  0  0  0  0  0  0  0  0  0  0
   -8.7676   18.5499  -33.1259 H   0  0  0  0  0  0  0  0  0  0  0  0
   -6.8590   19.5560  -35.3580 H   0  0  0  0  0  0  0  0  0  0  0  0
   -5.1593   17.6771  -32.0390 H   0  0  0  0  0  0  0  0  0  0  0  0
   -6.2015   16.6547  -33.0855 H   0  0  0  0  0  0  0  0  0  0  0  0
   -4.4209   16.4177  -33.0855 H   0  0  0  0  0  0  0  0  0  0  0  0
   -5.6233   21.5309  -33.1426 H   0  0  0  0  0  0  0  0  0  0  0  0
   -8.2342   24.1981  -31.4690 H   0  0  0  0  0  0  0  0  0  0  0  0
   -5.1074   26.2114  -29.3963 H   0  0  0  0  0  0  0  0  0  0  0  0
  1  2  1  0
  2  3  1  0
  3  4  2  0
  4  5  1  0
  5  6  2  0
  6  7  1  0
  7  8  2  0
  8  9  1  0
  9 10  2  0
 10 11  1  0
 11 12  2  0
 12 13  1  0
 13 14  1  0
 14 15  2  0
 15 16  1  0
 16 17  2  0
 17 18  1  0
 18 19  1  0
 19 20  1  0
 20 21  1  0
 20 22  2  0
 20 23  2  0
 18 24  2  0
 13 25  2  0
 25 26  1  0
 26 27  2  0
 27 28  1  0
 28 29  2  0
  8  3  1  0
 29  9  1  0
 28 12  1  0
 24 14  1  0
  1 30  1  0
  1 31  1  0
  1 32  1  0
  4 33  1  0
  5 34  1  0
  7 35  1  0
 10 36  1  0
 11 37  1  0
 15 38  1  0
 16 39  1  0
 17 40  1  0
 19 41  1  0
 21 42  1  0
 21 43  1  0
 21 44  1  0
 24 45  1  0
 25 46  1  0
 27 47  1  0
M  END
>  <UniqueID>  (9) 
8

>  <SMILES>  (9) 
COc1ccncc1-c1ccc2c(-c3cccc(NS(C)(=O)=O)c3)cncc2n1

>  <Energy>  (9) 
68.76813135200713

>  <Genealogy>  (9) 
COc1ccncc1-c1ccc2c(-c3cccc(NS(C)(=O)=O)c3)cncc2n1 (3D coordinates assigned)
COc1ccncc1-c1ccc2c(-c3cccc(NS(C)(=O)=O)c3)cncc2n1 (optimized conformer: 68.76813135200713 kcal/mol)

>  <smiles>  (9) 
COc1ccncc1-c1ccc2c(-c3cccc(NS(C)(=O)=O)c3)cncc2n1

>  <score_type>  (9) 
oracle

>  <origin>  (9) 
adgpu

>  <m_score__min__energy>  (9) 
-9.7300000000000004

>  <m_primary>  (9) 
energy

$$$$
9:0
     RDKit          3D

 30 33  0  0  0  0  0  0  0  0999 V2000
   -7.6480   20.1970  -31.7740 C   0  0  0  0  0  0  0  0  0  0  0  0
   -8.2360   21.3250  -31.1980 C   0  0  0  0  0  0  0  0  0  0  0  0
   -7.4550   22.4460  -30.9100 C   0  0  0  0  0  0  0  0  0  0  0  0
   -6.0850   22.4310  -31.2180 C   0  0  0  0  0  0  0  0  0  0  0  0
   -5.2140   23.5820  -30.9110 C   0  0  0  0  0  0  0  0  0  0  0  0
   -5.5130   24.9030  -31.1650 C   0  0  0  0  0  0  0  0  0  0  0  0
   -4.4510   25.6690  -30.8520 N   0  0  0  0  0  0  0  0  0  0  0  0
   -3.4860   24.8880  -30.3930 N   0  0  0  0  0  0  0  0  0  0  0  0
   -3.9180   23.6120  -30.4090 C   0  0  0  0  0  0  0  0  0  0  0  0
   -3.1190   22.4900  -29.8740 C   0  0  0  0  0  0  0  0  0  0  0  0
   -2.0330   21.9510  -30.6140 C   0  0  0  0  0  0  0  0  0  0  0  0
   -1.2890   20.8700  -30.1070 C   0  0  0  0  0  0  0  0  0  0  0  0
   -1.6650   20.3430  -28.8760 C   0  0  0  0  0  0  0  0  0  0  0  0
   -2.7130   20.8400  -28.1730 C   0  0  0  0  0  0  0  0  0  0  0  0
   -3.4750   21.9080  -28.6370 C   0  0  0  0  0  0  0  0  0  0  0  0
   -2.8590   20.1260  -26.9990 O   0  0  0  0  0  0  0  0  0  0  0  0
   -1.8380   19.1190  -26.9630 C   0  0  0  0  0  0  0  0  0  0  0  0
   -1.0980   19.2930  -28.1800 O   0  0  0  0  0  0  0  0  0  0  0  0
   -5.5340   21.3080  -31.7590 N   0  0  0  0  0  0  0  0  0  0  0  0
   -6.2790   20.2060  -32.0450 C   0  0  0  0  0  0  0  0  0  0  0  0
   -8.2566   19.3119  -32.0113 H   0  0  0  0  0  0  0  0  0  0  0  0
   -9.3124   21.3304  -30.9716 H   0  0  0  0  0  0  0  0  0  0  0  0
   -7.9092   23.3337  -30.4456 H   0  0  0  0  0  0  0  0  0  0  0  0
   -6.4698   25.2737  -31.5615 H   0  0  0  0  0  0  0  0  0  0  0  0
   -1.7716   22.3824  -31.5915 H   0  0  0  0  0  0  0  0  0  0  0  0
   -0.4374   20.4550  -30.6661 H   0  0  0  0  0  0  0  0  0  0  0  0
   -4.3294   22.2879  -28.0576 H   0  0  0  0  0  0  0  0  0  0  0  0
   -1.1846   19.2627  -26.0899 H   0  0  0  0  0  0  0  0  0  0  0  0
   -2.2603   18.1068  -26.8787 H   0  0  0  0  0  0  0  0  0  0  0  0
   -5.8015   19.3208  -32.4905 H   0  0  0  0  0  0  0  0  0  0  0  0
  1  2  2  0
  2  3  1  0
  3  4  2  0
  4  5  1  0
  5  6  1  0
  6  7  2  0
  7  8  1  0
  8  9  1  0
  9 10  1  0
 10 11  2  0
 11 12  1  0
 12 13  2  0
 13 14  1  0
 14 15  2  0
 14 16  1  0
 16 17  1  0
 17 18  1  0
  4 19  1  0
 19 20  2  0
 20  1  1  0
  9  5  2  0
 15 10  1  0
 18 13  1  0
  1 21  1  0
  2 22  1  0
  3 23  1  0
  6 24  1  0
 11 25  1  0
 12 26  1  0
 15 27  1  0
 17 28  1  0
 17 29  1  0
 20 30  1  0
M  CHG  1   8  -1
M  END
>  <UniqueID>  (10) 
9

>  <SMILES>  (10) 
c1ccc(-c2cn[n-]c2-c2ccc3c(c2)OCO3)nc1

>  <Energy>  (10) 
100.04169397241053

>  <Genealogy>  (10) 
c1ccc(-c2cn[n-]c2-c2ccc3c(c2)OCO3)nc1 (protonated)
c1ccc(-c2cn[n-]c2-c2ccc3c(c2)OCO3)nc1 (3D coordinates assigned)
c1ccc(-c2cn[n-]c2-c2ccc3c(c2)OCO3)nc1 (nonaromatic ring conformer: 100.04169397241053 kcal/mol)

>  <smiles>  (10) 
c1ccc(-c2cn[nH]c2-c2ccc3c(c2)OCO3)nc1

>  <score_type>  (10) 
oracle

>  <origin>  (10) 
adgpu

>  <m_score__min__energy>  (10) 
-8.5800000000000001

>  <m_primary>  (10) 
energy

$$$$
10:0
     RDKit          3D

 46 48  0  0  0  0  0  0  0  0999 V2000
   -2.3840   18.1830  -34.1350 C   0  0  0  0  0  0  0  0  0  0  0  0
   -3.8250   17.8240  -34.2880 C   0  0  0  0  0  0  0  0  0  0  0  0
   -4.8220   18.0480  -33.3580 C   0  0  0  0  0  0  0  0  0  0  0  0
   -5.9620   17.6130  -34.0140 C   0  0  0  0  0  0  0  0  0  0  0  0
   -7.1760   17.6090  -33.5540 N   0  0  0  0  0  0  0  0  0  0  0  0
   -7.6190   18.1660  -31.9710 S   0  0  0  0  0  0  0  0  0  0  0  0
   -9.0790   17.8860  -31.7410 O   0  0  0  0  0  0  0  0  0  0  0  0
   -6.7960   17.4640  -30.9290 O   0  0  0  0  0  0  0  0  0  0  0  0
   -7.3200   19.8980  -31.8660 C   0  0  0  0  0  0  0  0  0  0  0  0
   -6.0120   20.3930  -31.7940 C   0  0  0  0  0  0  0  0  0  0  0  0
   -5.7850   21.7720  -31.7270 C   0  0  0  0  0  0  0  0  0  0  0  0
   -6.8590   22.6750  -31.7390 C   0  0  0  0  0  0  0  0  0  0  0  0
   -6.5920   24.0890  -31.6820 N   0  0  0  0  0  0  0  0  0  0  0  0
   -6.4560   24.8310  -30.4270 C   0  0  0  0  0  0  0  0  0  0  0  0
   -5.2520   25.7170  -30.4660 C   0  0  0  0  0  0  0  0  0  0  0  0
   -5.3870   26.9630  -30.3180 O   0  0  0  0  0  0  0  0  0  0  0  0
   -3.9550   25.1360  -30.6480 N   0  0  0  0  0  0  0  0  0  0  0  0
   -3.4770   23.9150  -30.0580 C   0  0  0  0  0  0  0  0  0  0  0  0
   -2.7480   22.9780  -30.8120 C   0  0  0  0  0  0  0  0  0  0  0  0
   -2.3150   21.7840  -30.2290 C   0  0  0  0  0  0  0  0  0  0  0  0
   -2.6160   21.5060  -28.8960 C   0  0  0  0  0  0  0  0  0  0  0  0
   -3.3600   22.4170  -28.1440 C   0  0  0  0  0  0  0  0  0  0  0  0
   -3.8040   23.6190  -28.7180 C   0  0  0  0  0  0  0  0  0  0  0  0
   -4.5770   24.5320  -27.9290 N   0  0  0  0  0  0  0  0  0  0  0  0
   -8.1720   22.1700  -31.8140 C   0  0  0  0  0  0  0  0  0  0  0  0
   -8.3970   20.7910  -31.8790 C   0  0  0  0  0  0  0  0  0  0  0  0
   -5.6480   17.1890  -35.2150 O   0  0  0  0  0  0  0  0  0  0  0  0
   -4.3690   17.3110  -35.4080 N   0  0  0  0  0  0  0  0  0  0  0  0
   -2.1332   18.2455  -33.0658 H   0  0  0  0  0  0  0  0  0  0  0  0
   -1.7614   17.4125  -34.6132 H   0  0  0  0  0  0  0  0  0  0  0  0
   -2.1956   19.1555  -34.6132 H   0  0  0  0  0  0  0  0  0  0  0  0
   -4.7325   18.4684  -32.3455 H   0  0  0  0  0  0  0  0  0  0  0  0
   -5.1610   19.6960  -31.7901 H   0  0  0  0  0  0  0  0  0  0  0  0
   -4.7546   22.1520  -31.6643 H   0  0  0  0  0  0  0  0  0  0  0  0
   -6.5040   24.6090  -32.5860 H   0  0  0  0  0  0  0  0  0  0  0  0
   -7.3537   25.4478  -30.2728 H   0  0  0  0  0  0  0  0  0  0  0  0
   -6.3407   24.1129  -29.6017 H   0  0  0  0  0  0  0  0  0  0  0  0
   -2.5172   23.1862  -31.8672 H   0  0  0  0  0  0  0  0  0  0  0  0
   -1.7355   21.0619  -30.8229 H   0  0  0  0  0  0  0  0  0  0  0  0
   -2.2673   20.5691  -28.4372 H   0  0  0  0  0  0  0  0  0  0  0  0
   -3.6001   22.1915  -27.0945 H   0  0  0  0  0  0  0  0  0  0  0  0
   -5.0070   24.2450  -27.0210 H   0  0  0  0  0  0  0  0  0  0  0  0
   -4.7280   25.5140  -28.2490 H   0  0  0  0  0  0  0  0  0  0  0  0
   -9.0252   22.8642  -31.8215 H   0  0  0  0  0  0  0  0  0  0  0  0
   -9.4258   20.4067  -31.9406 H   0  0  0  0  0  0  0  0  0  0  0  0
   -3.8690   17.0580  -36.2900 H   0  0  0  0  0  0  0  0  0  0  0  0
  1  2  1  0
  2  3  2  0
  3  4  1  0
  4  5  2  3
  5  6  1  0
  6  7  2  0
  6  8  2  0
  6  9  1  0
  9 10  2  0
 10 11  1  0
 11 12  2  0
 12 13  1  0
 13 14  1  0
 14 15  1  0
 15 16  2  0
 15 17  1  0
 17 18  1  0
 18 19  2  0
 19 20  1  0
 20 21  2  0
 21 22  1  0
 22 23  2  0
 23 24  1  0
 12 25  1  0
 25 26  2  0
  4 27  1  0
 27 28  1  0
 28  2  1  0
 26  9  1  0
 23 18  1  0
  1 29  1  0
  1 30  1  0
  1 31  1  0
  3 32  1  0
 10 33  1  0
 11 34  1  0
 13 35  1  0
 14 36  1  0
 14 37  1  0
 19 38  1  0
 20 39  1  0
 21 40  1  0
 22 41  1  0
 24 42  1  0
 24 43  1  0
 25 44  1  0
 26 45  1  0
 28 46  1  0
M  CHG  1  17  -1
M  END
>  <UniqueID>  (11) 
10

>  <SMILES>  (11) 
Cc1cc(=NS(=O)(=O)c2ccc(NCC(=O)[N-]c3ccccc3N)cc2)o[nH]1

>  <Energy>  (11) 
85.23484176251563

>  <Genealogy>  (11) 
Cc1cc(=NS(=O)(=O)c2ccc(NCC(=O)[N-]c3ccccc3N)cc2)o[nH]1 (protonated)
Cc1cc(=NS(=O)(=O)c2ccc(NCC(=O)[N-]c3ccccc3N)cc2)o[nH]1 (3D coordinates assigned)
Cc1cc(=NS(=O)(=O)c2ccc(NCC(=O)[N-]c3ccccc3N)cc2)o[nH]1 (optimized conformer: 85.23484176251563 kcal/mol)

>  <smiles>  (11) 
Cc1cc(=NS(=O)(=O)c2ccc(NCC(=O)Nc3ccccc3N)cc2)o[nH]1

>  <score_type>  (11) 
oracle

>  <origin>  (11) 
adgpu

>  <m_score__min__energy>  (11) 
-10.6

>  <m_primary>  (11) 
energy

$$$$
11:0
     RDKit          3D

 42 44  0  0  0  0  0  0  0  0999 V2000
   -2.4274   23.9945  -26.1673 H   0  0  0  0  0  0  0  0  0  0  0  0
   -2.5790   24.2600  -27.2240 C   0  0  0  0  0  0  0  0  0  0  0  0
   -3.8460   23.7370  -28.2000 S   0  0  0  0  0  0  0  0  0  0  0  0
   -3.2930   24.5920  -29.5420 C   0  0  0  0  0  0  0  0  0  0  0  0
   -3.8650   24.6310  -30.7070 N   0  0  0  0  0  0  0  0  0  0  0  0
   -5.0560   23.9040  -31.0390 C   0  0  0  0  0  0  0  0  0  0  0  0
   -6.3070   24.3590  -30.5700 C   0  0  0  0  0  0  0  0  0  0  0  0
   -6.3980   25.5760  -29.6910 C   0  0  0  0  0  0  0  0  0  0  0  0
   -6.3750   25.2683  -28.6352 H   0  0  0  0  0  0  0  0  0  0  0  0
   -5.5471   26.2419  -29.8975 H   0  0  0  0  0  0  0  0  0  0  0  0
   -7.3384   26.1079  -29.8975 H   0  0  0  0  0  0  0  0  0  0  0  0
   -7.4680   23.6310  -30.8710 C   0  0  0  0  0  0  0  0  0  0  0  0
   -8.4407   23.9731  -30.4879 H   0  0  0  0  0  0  0  0  0  0  0  0
   -7.3990   22.4710  -31.6560 C   0  0  0  0  0  0  0  0  0  0  0  0
   -8.6390   21.6910  -31.9830 C   0  0  0  0  0  0  0  0  0  0  0  0
   -9.1332   21.3802  -31.0507 H   0  0  0  0  0  0  0  0  0  0  0  0
   -9.3245   22.3209  -32.5690 H   0  0  0  0  0  0  0  0  0  0  0  0
   -8.3681   20.8004  -32.5690 H   0  0  0  0  0  0  0  0  0  0  0  0
   -6.1610   22.0390  -32.1440 C   0  0  0  0  0  0  0  0  0  0  0  0
   -6.1065   21.1275  -32.7574 H   0  0  0  0  0  0  0  0  0  0  0  0
   -4.9880   22.7550  -31.8600 C   0  0  0  0  0  0  0  0  0  0  0  0
   -3.6720   22.2510  -32.3870 C   0  0  0  0  0  0  0  0  0  0  0  0
   -3.0120   21.9982  -31.5440 H   0  0  0  0  0  0  0  0  0  0  0  0
   -3.8421   21.3544  -33.0011 H   0  0  0  0  0  0  0  0  0  0  0  0
   -3.1997   23.0319  -33.0011 H   0  0  0  0  0  0  0  0  0  0  0  0
   -2.1650   25.2780  -29.2700 N   0  0  0  0  0  0  0  0  0  0  0  0
   -1.7520   25.0900  -27.9870 C   0  0  0  0  0  0  0  0  0  0  0  0
   -0.5540   25.7800  -27.4730 C   0  0  0  0  0  0  0  0  0  0  0  0
   -0.4890   27.4470  -27.2160 S   0  0  0  0  0  0  0  0  0  0  0  0
    1.1070   27.4160  -26.6860 C   0  0  0  0  0  0  0  0  0  0  0  0
    1.8050   28.4450  -26.3090 N   0  0  0  0  0  0  0  0  0  0  0  0
    1.2950   29.8110  -26.2850 C   0  0  0  0  0  0  0  0  0  0  0  0
    1.1727   30.1385  -25.2420 H   0  0  0  0  0  0  0  0  0  0  0  0
    2.0052   30.4766  -26.7974 H   0  0  0  0  0  0  0  0  0  0  0  0
    0.3224   29.8483  -26.7974 H   0  0  0  0  0  0  0  0  0  0  0  0
    1.6090   26.1640  -26.7060 N   0  0  0  0  0  0  0  0  0  0  0  0
    2.5890   25.9310  -26.4270 H   0  0  0  0  0  0  0  0  0  0  0  0
    0.7080   25.2450  -27.1570 C   0  0  0  0  0  0  0  0  0  0  0  0
    1.0900   23.8040  -27.3110 C   0  0  0  0  0  0  0  0  0  0  0  0
    1.2108   23.3484  -26.3171 H   0  0  0  0  0  0  0  0  0  0  0  0
    0.3016   23.2728  -27.8645 H   0  0  0  0  0  0  0  0  0  0  0  0
    2.0380   23.7331  -27.8645 H   0  0  0  0  0  0  0  0  0  0  0  0
  1  2  1  0
  2  3  1  0
  3  4  1  0
  4  5  2  0
  5  6  1  0
  6  7  2  0
  7  8  1  0
  8  9  1  0
  8 10  1  0
  8 11  1  0
  7 12  1  0
 12 13  1  0
 12 14  2  0
 14 15  1  0
 15 16  1  0
 15 17  1  0
 15 18  1  0
 14 19  1  0
 19 20  1  0
 19 21  2  0
 21 22  1  0
 22 23  1  0
 22 24  1  0
 22 25  1  0
  4 26  1  0
 26 27  1  0
 27 28  1  0
 28 29  1  0
 29 30  1  0
 30 31  2  0
 31 32  1  0
 32 33  1  0
 32 34  1  0
 32 35  1  0
 30 36  1  0
 36 37  1  0
 36 38  1  0
 38 39  1  0
 39 40  1  0
 39 41  1  0
 39 42  1  0
 27  2  2  0
 38 28  2  0
 21  6  1  0
M  CHG  1  26  -1
M  END
>  <UniqueID>  (12) 
11

>  <SMILES>  (12) 
C/N=c1/[nH]c(C)c(-c2cs/c(=N\c3c(C)cc(C)cc3C)[n-]2)s1

>  <Energy>  (12) 
112.78252649546833

>  <Genealogy>  (12) 
CN=c1[nH]c(C)c(-c2csc(=Nc3c(C)cc(C)cc3C)[n-]2)s1 (protonated)
C/N=c1/[nH]c(C)c(-c2cs/c(=N\c3c(C)cc(C)cc3C)[n-]2)s1 (cis-trans isomerization)
C/N=c1/[nH]c(C)c(-c2cs/c(=N\c3c(C)cc(C)cc3C)[n-]2)s1 (3D coordinates assigned)
C/N=c1/[nH]c(C)c(-c2cs/c(=N\c3c(C)cc(C)cc3C)[n-]2)s1 (optimized conformer: 112.78252649546833 kcal/mol)

>  <smiles>  (12) 
CN=c1[nH]c(C)c(-c2csc(=Nc3c(C)cc(C)cc3C)[nH]2)s1

>  <score_type>  (12) 
oracle

>  <origin>  (12) 
adgpu

>  <m_score__min__energy>  (12) 
-9.6899999999999995

>  <m_primary>  (12) 
energy

$$$$
12:0
     RDKit          3D

 48 50  0  0  0  0  0  0  0  0999 V2000
   -1.7570   21.5080  -32.7970 C   0  0  0  0  0  0  0  0  0  0  0  0
   -3.1840   21.7050  -32.4040 C   0  0  0  0  0  0  0  0  0  0  0  0
   -4.2320   21.2190  -33.0980 N   0  0  0  0  0  0  0  0  0  0  0  0
   -5.3380   21.5470  -32.4440 N   0  0  0  0  0  0  0  0  0  0  0  0
   -6.6730   21.1460  -32.8910 C   0  0  0  0  0  0  0  0  0  0  0  0
   -6.7400   19.6530  -33.0750 C   0  0  0  0  0  0  0  0  0  0  0  0
   -7.4950   18.8560  -32.1980 C   0  0  0  0  0  0  0  0  0  0  0  0
   -7.5480   17.4690  -32.3740 C   0  0  0  0  0  0  0  0  0  0  0  0
   -6.8530   16.8700  -33.4260 C   0  0  0  0  0  0  0  0  0  0  0  0
   -6.1050   17.6550  -34.3070 C   0  0  0  0  0  0  0  0  0  0  0  0
   -6.0490   19.0420  -34.1360 C   0  0  0  0  0  0  0  0  0  0  0  0
   -5.0210   22.2210  -31.3130 C   0  0  0  0  0  0  0  0  0  0  0  0
   -6.0050   22.6910  -30.2820 C   0  0  0  0  0  0  0  0  0  0  0  0
   -3.6440   22.3610  -31.2790 C   0  0  0  0  0  0  0  0  0  0  0  0
   -2.8350   22.9630  -30.2590 N   0  0  0  0  0  0  0  0  0  0  0  0
   -3.0590   24.2960  -29.7760 C   0  0  0  0  0  0  0  0  0  0  0  0
   -3.7440   25.1010  -30.4640 O   0  0  0  0  0  0  0  0  0  0  0  0
   -2.4600   24.7530  -28.4980 C   0  0  0  0  0  0  0  0  0  0  0  0
   -1.2220   25.4210  -28.4950 C   0  0  0  0  0  0  0  0  0  0  0  0
   -0.6550   25.8610  -27.2960 C   0  0  0  0  0  0  0  0  0  0  0  0
   -1.3200   25.6510  -26.0820 C   0  0  0  0  0  0  0  0  0  0  0  0
   -0.5980   26.1900  -24.5700 S   0  0  0  0  0  0  0  0  0  0  0  0
    1.1530   26.3990  -24.7940 C   0  0  0  0  0  0  0  0  0  0  0  0
   -1.2110   27.4970  -24.1500 O   0  0  0  0  0  0  0  0  0  0  0  0
   -0.8490   25.1710  -23.4940 O   0  0  0  0  0  0  0  0  0  0  0  0
   -2.5550   24.9900  -26.0760 C   0  0  0  0  0  0  0  0  0  0  0  0
   -3.1240   24.5480  -27.2750 C   0  0  0  0  0  0  0  0  0  0  0  0
   -1.1362   21.4223  -31.8930 H   0  0  0  0  0  0  0  0  0  0  0  0
   -1.6646   20.5886  -33.3938 H   0  0  0  0  0  0  0  0  0  0  0  0
   -1.4190   22.3680  -33.3938 H   0  0  0  0  0  0  0  0  0  0  0  0
   -7.4142   21.4517  -32.1379 H   0  0  0  0  0  0  0  0  0  0  0  0
   -6.8878   21.6335  -33.8534 H   0  0  0  0  0  0  0  0  0  0  0  0
   -8.0467   19.3245  -31.3696 H   0  0  0  0  0  0  0  0  0  0  0  0
   -8.1381   16.8497  -31.6824 H   0  0  0  0  0  0  0  0  0  0  0  0
   -6.8943   15.7792  -33.5614 H   0  0  0  0  0  0  0  0  0  0  0  0
   -5.5593   17.1815  -35.1364 H   0  0  0  0  0  0  0  0  0  0  0  0
   -5.4622   19.6570  -34.8342 H   0  0  0  0  0  0  0  0  0  0  0  0
   -5.6025   22.4987  -29.2765 H   0  0  0  0  0  0  0  0  0  0  0  0
   -6.1798   23.7698  -30.4069 H   0  0  0  0  0  0  0  0  0  0  0  0
   -6.9540   22.1489  -30.4069 H   0  0  0  0  0  0  0  0  0  0  0  0
   -1.9490   22.4790  -29.9930 H   0  0  0  0  0  0  0  0  0  0  0  0
   -0.6958   25.5985  -29.4445 H   0  0  0  0  0  0  0  0  0  0  0  0
    0.3178   26.3744  -27.3060 H   0  0  0  0  0  0  0  0  0  0  0  0
    1.6439   26.4576  -23.8114 H   0  0  0  0  0  0  0  0  0  0  0  0
    1.5557   25.5426  -25.3546 H   0  0  0  0  0  0  0  0  0  0  0  0
    1.3429   27.3262  -25.3546 H   0  0  0  0  0  0  0  0  0  0  0  0
   -3.0795   24.8178  -25.1246 H   0  0  0  0  0  0  0  0  0  0  0  0
   -4.0977   24.0364  -27.2614 H   0  0  0  0  0  0  0  0  0  0  0  0
  1  2  1  0
  2  3  2  0
  3  4  1  0
  4  5  1  0
  5  6  1  0
  6  7  2  0
  7  8  1  0
  8  9  2  0
  9 10  1  0
 10 11  2  0
  4 12  1  0
 12 13  1  0
 12 14  2  0
 14 15  1  0
 15 16  1  0
 16 17  2  0
 16 18  1  0
 18 19  2  0
 19 20  1  0
 20 21  2  0
 21 22  1  0
 22 23  1  0
 22 24  2  0
 22 25  2  0
 21 26  1  0
 26 27  2  0
 14  2  1  0
 27 18  1  0
 11  6  1  0
  1 28  1  0
  1 29  1  0
  1 30  1  0
  5 31  1  0
  5 32  1  0
  7 33  1  0
  8 34  1  0
  9 35  1  0
 10 36  1  0
 11 37  1  0
 13 38  1  0
 13 39  1  0
 13 40  1  0
 15 41  1  0
 19 42  1  0
 20 43  1  0
 23 44  1  0
 23 45  1  0
 23 46  1  0
 26 47  1  0
 27 48  1  0
M  END
>  <UniqueID>  (13) 
12

>  <SMILES>  (13) 
Cc1nn(Cc2ccccc2)c(C)c1NC(=O)c1ccc(S(C)(=O)=O)cc1

>  <Energy>  (13) 
81.57575106141839

>  <Genealogy>  (13) 
Cc1nn(Cc2ccccc2)c(C)c1NC(=O)c1ccc(S(C)(=O)=O)cc1 (3D coordinates assigned)
Cc1nn(Cc2ccccc2)c(C)c1NC(=O)c1ccc(S(C)(=O)=O)cc1 (optimized conformer: 81.57575106141839 kcal/mol)

>  <smiles>  (13) 
Cc1nn(Cc2ccccc2)c(C)c1NC(=O)c1ccc(S(C)(=O)=O)cc1

>  <score_type>  (13) 
oracle

>  <origin>  (13) 
adgpu

>  <m_score__min__energy>  (13) 
-9.0299999999999994

>  <m_primary>  (13) 
energy

$$$$
13:0
     RDKit          3D

 32 33  0  0  0  0  0  0  0  0999 V2000
   -6.1080   17.1130  -32.0980 C   0  0  0  0  0  0  0  0  0  0  0  0
   -6.6090   17.1120  -33.4820 N   0  0  0  0  0  0  0  0  0  0  0  0
   -6.3520   15.8190  -34.1340 C   0  0  0  0  0  0  0  0  0  0  0  0
   -6.1070   18.2600  -34.2700 C   0  0  0  0  0  0  0  0  0  0  0  0
   -6.0470   19.5590  -33.4930 C   0  0  0  0  0  0  0  0  0  0  0  0
   -4.8150   20.1820  -33.2430 C   0  0  0  0  0  0  0  0  0  0  0  0
   -4.7590   21.3840  -32.5300 C   0  0  0  0  0  0  0  0  0  0  0  0
   -5.9370   21.9870  -32.0530 C   0  0  0  0  0  0  0  0  0  0  0  0
   -5.8990   23.2610  -31.2880 C   0  0  0  0  0  0  0  0  0  0  0  0
   -7.0310   23.7510  -30.6090 C   0  0  0  0  0  0  0  0  0  0  0  0
   -6.9420   24.9510  -29.9000 C   0  0  0  0  0  0  0  0  0  0  0  0
   -5.7370   25.6510  -29.8640 C   0  0  0  0  0  0  0  0  0  0  0  0
   -4.6290   25.1360  -30.5370 C   0  0  0  0  0  0  0  0  0  0  0  0
   -4.7330   23.9660  -31.2230 N   0  0  0  0  0  0  0  0  0  0  0  0
   -7.1680   21.3490  -32.2880 C   0  0  0  0  0  0  0  0  0  0  0  0
   -7.2220   20.1480  -33.0010 C   0  0  0  0  0  0  0  0  0  0  0  0
   -6.9584   17.1113  -31.4002 H   0  0  0  0  0  0  0  0  0  0  0  0
   -5.4938   16.2161  -31.9297 H   0  0  0  0  0  0  0  0  0  0  0  0
   -5.4974   18.0124  -31.9297 H   0  0  0  0  0  0  0  0  0  0  0  0
   -6.1983   15.0457  -33.3669 H   0  0  0  0  0  0  0  0  0  0  0  0
   -7.2137   15.5470  -34.7614 H   0  0  0  0  0  0  0  0  0  0  0  0
   -5.4518   15.8972  -34.7614 H   0  0  0  0  0  0  0  0  0  0  0  0
   -5.0931   18.0206  -34.6232 H   0  0  0  0  0  0  0  0  0  0  0  0
   -6.8167   18.4148  -35.0961 H   0  0  0  0  0  0  0  0  0  0  0  0
   -3.8860   19.7216  -33.6105 H   0  0  0  0  0  0  0  0  0  0  0  0
   -3.7863   21.8615  -32.3408 H   0  0  0  0  0  0  0  0  0  0  0  0
   -7.9784   23.1928  -30.6367 H   0  0  0  0  0  0  0  0  0  0  0  0
   -7.8224   25.3436  -29.3702 H   0  0  0  0  0  0  0  0  0  0  0  0
   -5.6608   26.5989  -29.3111 H   0  0  0  0  0  0  0  0  0  0  0  0
   -3.6710   25.6761  -30.5130 H   0  0  0  0  0  0  0  0  0  0  0  0
   -8.0967   21.7991  -31.9073 H   0  0  0  0  0  0  0  0  0  0  0  0
   -8.1924   19.6610  -33.1778 H   0  0  0  0  0  0  0  0  0  0  0  0
  1  2  1  0
  2  3  1  0
  2  4  1  0
  4  5  1  0
  5  6  2  0
  6  7  1  0
  7  8  2  0
  8  9  1  0
  9 10  2  0
 10 11  1  0
 11 12  2  0
 12 13  1  0
 13 14  2  0
  8 15  1  0
 15 16  2  0
 16  5  1  0
 14  9  1  0
  1 17  1  0
  1 18  1  0
  1 19  1  0
  3 20  1  0
  3 21  1  0
  3 22  1  0
  4 23  1  0
  4 24  1  0
  6 25  1  0
  7 26  1  0
 10 27  1  0
 11 28  1  0
 12 29  1  0
 13 30  1  0
 15 31  1  0
 16 32  1  0
M  END
>  <UniqueID>  (14) 
13

>  <SMILES>  (14) 
CN(C)Cc1ccc(-c2ccccn2)cc1

>  <Energy>  (14) 
38.9033860197969

>  <Genealogy>  (14) 
CN(C)Cc1ccc(-c2ccccn2)cc1 (3D coordinates assigned)
CN(C)Cc1ccc(-c2ccccn2)cc1 (optimized conformer: 38.9033860197969 kcal/mol)

>  <smiles>  (14) 
CN(C)Cc1ccc(-c2ccccn2)cc1

>  <score_type>  (14) 
oracle

>  <origin>  (14) 
adgpu

>  <m_score__min__energy>  (14) 
-6.5800000000000001

>  <m_primary>  (14) 
energy

$$$$
14:0
     RDKit          3D

 40 41  0  0  0  0  0  0  0  0999 V2000
   -4.3170   24.9140  -26.4280 C   0  0  0  0  0  0  0  0  0  0  0  0
   -3.1400   24.3920  -27.1820 C   0  0  0  0  0  0  0  0  0  0  0  0
   -1.8700   24.9360  -27.1740 C   0  0  0  0  0  0  0  0  0  0  0  0
   -1.1240   24.0650  -27.9420 C   0  0  0  0  0  0  0  0  0  0  0  0
    0.3490   24.1770  -28.1860 C   0  0  0  0  0  0  0  0  0  0  0  0
   -1.9220   23.0490  -28.3440 N   0  0  0  0  0  0  0  0  0  0  0  0
   -1.5480   21.8820  -29.1450 C   0  0  0  0  0  0  0  0  0  0  0  0
   -1.7020   22.1420  -30.6510 C   0  0  0  0  0  0  0  0  0  0  0  0
   -3.0940   21.7920  -31.2010 C   0  0  0  0  0  0  0  0  0  0  0  0
   -4.1410   22.5790  -30.5470 N   0  0  0  0  0  0  0  0  0  0  0  0
   -5.1170   23.3260  -31.2880 C   0  0  0  0  0  0  0  0  0  0  0  0
   -5.5970   24.7910  -30.7390 S   0  0  0  0  0  0  0  0  0  0  0  0
   -5.6620   22.8240  -32.5160 N   0  0  0  0  0  0  0  0  0  0  0  0
   -5.9950   21.4400  -32.7080 C   0  0  0  0  0  0  0  0  0  0  0  0
   -5.0620   20.5640  -33.2910 C   0  0  0  0  0  0  0  0  0  0  0  0
   -5.3750   19.2170  -33.4750 C   0  0  0  0  0  0  0  0  0  0  0  0
   -6.6160   18.7260  -33.0690 C   0  0  0  0  0  0  0  0  0  0  0  0
   -7.5500   19.5790  -32.4720 C   0  0  0  0  0  0  0  0  0  0  0  0
   -9.1030   18.9160  -31.9750 Cl  0  0  0  0  0  0  0  0  0  0  0  0
   -7.2420   20.9390  -32.2830 C   0  0  0  0  0  0  0  0  0  0  0  0
   -8.4310   22.0230  -31.5600 Cl  0  0  0  0  0  0  0  0  0  0  0  0
   -3.1490   23.2430  -27.8860 N   0  0  0  0  0  0  0  0  0  0  0  0
   -4.1272   24.8298  -25.3478 H   0  0  0  0  0  0  0  0  0  0  0  0
   -4.4817   25.9695  -26.6902 H   0  0  0  0  0  0  0  0  0  0  0  0
   -5.2099   24.3275  -26.6902 H   0  0  0  0  0  0  0  0  0  0  0  0
   -1.5310   25.8534  -26.6707 H   0  0  0  0  0  0  0  0  0  0  0  0
    0.8782   24.2172  -27.2225 H   0  0  0  0  0  0  0  0  0  0  0  0
    0.6936   23.3025  -28.7574 H   0  0  0  0  0  0  0  0  0  0  0  0
    0.5574   25.0936  -28.7574 H   0  0  0  0  0  0  0  0  0  0  0  0
   -0.4985   21.6286  -28.9342 H   0  0  0  0  0  0  0  0  0  0  0  0
   -2.2204   21.0549  -28.8734 H   0  0  0  0  0  0  0  0  0  0  0  0
   -1.5124   23.2089  -30.8401 H   0  0  0  0  0  0  0  0  0  0  0  0
   -0.9808   21.4892  -31.1646 H   0  0  0  0  0  0  0  0  0  0  0  0
   -3.1139   21.9978  -32.2814 H   0  0  0  0  0  0  0  0  0  0  0  0
   -3.2867   20.7274  -31.0024 H   0  0  0  0  0  0  0  0  0  0  0  0
   -4.0270   22.8040  -29.5350 H   0  0  0  0  0  0  0  0  0  0  0  0
   -5.9090   23.5090  -33.2660 H   0  0  0  0  0  0  0  0  0  0  0  0
   -4.0783   20.9437  -33.6042 H   0  0  0  0  0  0  0  0  0  0  0  0
   -4.6425   18.5414  -33.9407 H   0  0  0  0  0  0  0  0  0  0  0  0
   -6.8609   17.6641  -33.2189 H   0  0  0  0  0  0  0  0  0  0  0  0
  1  2  1  0
  2  3  1  0
  3  4  2  0
  4  5  1  0
  4  6  1  0
  6  7  1  0
  7  8  1  0
  8  9  1  0
  9 10  1  0
 10 11  1  0
 11 12  2  0
 11 13  1  0
 13 14  1  0
 14 15  2  0
 15 16  1  0
 16 17  2  0
 17 18  1  0
 18 19  1  0
 18 20  2  0
 20 21  1  0
  6 22  1  0
 22  2  2  0
 20 14  1  0
  1 23  1  0
  1 24  1  0
  1 25  1  0
  3 26  1  0
  5 27  1  0
  5 28  1  0
  5 29  1  0
  7 30  1  0
  7 31  1  0
  8 32  1  0
  8 33  1  0
  9 34  1  0
  9 35  1  0
 10 36  1  0
 13 37  1  0
 15 38  1  0
 16 39  1  0
 17 40  1  0
M  END
>  <UniqueID>  (15) 
14

>  <SMILES>  (15) 
Cc1cc(C)n(CCCNC(=S)Nc2cccc(Cl)c2Cl)n1

>  <Energy>  (15) 
68.97164825956622

>  <Genealogy>  (15) 
Cc1cc(C)n(CCCNC(=S)Nc2cccc(Cl)c2Cl)n1 (3D coordinates assigned)
Cc1cc(C)n(CCCNC(=S)Nc2cccc(Cl)c2Cl)n1 (optimized conformer: 68.97164825956622 kcal/mol)

>  <smiles>  (15) 
Cc1cc(C)n(CCCNC(=S)Nc2cccc(Cl)c2Cl)n1

>  <score_type>  (15) 
oracle

>  <origin>  (15) 
adgpu

>  <m_score__min__energy>  (15) 
-8.2100000000000009

>  <m_primary>  (15) 
energy

$$$$
15:0
     RDKit          3D

 35 36  0  0  0  0  0  0  0  0999 V2000
   -2.7860   22.6300  -27.7890 C   0  0  0  0  0  0  0  0  0  0  0  0
   -3.2570   24.0800  -27.9600 C   0  0  0  0  0  0  0  0  0  0  0  0
   -3.0450   24.8730  -26.6650 C   0  0  0  0  0  0  0  0  0  0  0  0
   -2.5810   24.7480  -29.1760 C   0  0  0  0  0  0  0  0  0  0  0  0
   -3.4540   24.8080  -30.3070 O   0  0  0  0  0  0  0  0  0  0  0  0
   -4.3740   23.8240  -30.7150 C   0  0  0  0  0  0  0  0  0  0  0  0
   -3.9960   22.6900  -31.4590 C   0  0  0  0  0  0  0  0  0  0  0  0
   -4.9470   21.7420  -31.8410 C   0  0  0  0  0  0  0  0  0  0  0  0
   -6.3000   21.9060  -31.5040 C   0  0  0  0  0  0  0  0  0  0  0  0
   -7.2940   20.8810  -31.9140 C   0  0  0  0  0  0  0  0  0  0  0  0
   -8.6720   21.1640  -31.9650 C   0  0  0  0  0  0  0  0  0  0  0  0
   -9.5650   20.1660  -32.3630 C   0  0  0  0  0  0  0  0  0  0  0  0
   -9.0880   18.9030  -32.7100 C   0  0  0  0  0  0  0  0  0  0  0  0
   -7.7160   18.6550  -32.6610 C   0  0  0  0  0  0  0  0  0  0  0  0
   -6.8600   19.6370  -32.2710 N   0  0  0  0  0  0  0  0  0  0  0  0
   -6.6790   23.0380  -30.7580 C   0  0  0  0  0  0  0  0  0  0  0  0
   -5.7270   23.9900  -30.3720 C   0  0  0  0  0  0  0  0  0  0  0  0
   -6.1470   25.1340  -29.6010 C   0  0  0  0  0  0  0  0  0  0  0  0
   -6.4830   26.0520  -28.9820 N   0  0  0  0  0  0  0  0  0  0  0  0
   -2.7091   22.3934  -26.7175 H   0  0  0  0  0  0  0  0  0  0  0  0
   -3.5098   21.9510  -28.2634 H   0  0  0  0  0  0  0  0  0  0  0  0
   -1.8014   22.5059  -28.2634 H   0  0  0  0  0  0  0  0  0  0  0  0
   -4.3376   24.0740  -28.1657 H   0  0  0  0  0  0  0  0  0  0  0  0
   -3.2205   24.2164  -25.8001 H   0  0  0  0  0  0  0  0  0  0  0  0
   -2.0135   25.2538  -26.6329 H   0  0  0  0  0  0  0  0  0  0  0  0
   -3.7489   25.7177  -26.6329 H   0  0  0  0  0  0  0  0  0  0  0  0
   -2.2854   25.7711  -28.9006 H   0  0  0  0  0  0  0  0  0  0  0  0
   -1.7056   24.1426  -29.4537 H   0  0  0  0  0  0  0  0  0  0  0  0
   -2.9422   22.5498  -31.7417 H   0  0  0  0  0  0  0  0  0  0  0  0
   -4.6326   20.8563  -32.4126 H   0  0  0  0  0  0  0  0  0  0  0  0
   -9.0429   22.1634  -31.6935 H   0  0  0  0  0  0  0  0  0  0  0  0
  -10.6439   20.3768  -32.4025 H   0  0  0  0  0  0  0  0  0  0  0  0
   -9.7856   18.1107  -33.0190 H   0  0  0  0  0  0  0  0  0  0  0  0
   -7.3263   17.6643  -32.9381 H   0  0  0  0  0  0  0  0  0  0  0  0
   -7.7331   23.1762  -30.4755 H   0  0  0  0  0  0  0  0  0  0  0  0
  1  2  1  0
  2  3  1  0
  2  4  1  0
  4  5  1  0
  5  6  1  0
  6  7  2  0
  7  8  1  0
  8  9  2  0
  9 10  1  0
 10 11  2  0
 11 12  1  0
 12 13  2  0
 13 14  1  0
 14 15  2  0
  9 16  1  0
 16 17  2  0
 17 18  1  0
 18 19  3  0
 17  6  1  0
 15 10  1  0
  1 20  1  0
  1 21  1  0
  1 22  1  0
  2 23  1  0
  3 24  1  0
  3 25  1  0
  3 26  1  0
  4 27  1  0
  4 28  1  0
  7 29  1  0
  8 30  1  0
 11 31  1  0
 12 32  1  0
 13 33  1  0
 14 34  1  0
 16 35  1  0
M  END
>  <UniqueID>  (16) 
15

>  <SMILES>  (16) 
CC(C)COc1ccc(-c2ccccn2)cc1C#N

>  <Energy>  (16) 
36.241210614482924

>  <Genealogy>  (16) 
CC(C)COc1ccc(-c2ccccn2)cc1C#N (3D coordinates assigned)
CC(C)COc1ccc(-c2ccccn2)cc1C#N (optimized conformer: 36.241210614482924 kcal/mol)

>  <smiles>  (16) 
CC(C)COc1ccc(-c2ccccn2)cc1C#N

>  <score_type>  (16) 
oracle

>  <origin>  (16) 
adgpu

>  <m_score__min__energy>  (16) 
-7.5300000000000002

>  <m_primary>  (16) 
energy

$$$$
16:0
     RDKit          3D

 33 34  0  0  0  0  0  0  0  0999 V2000
   -9.2160   20.4410  -32.2250 C   0  0  0  0  0  0  0  0  0  0  0  0
   -8.9840   21.2990  -31.2280 C   0  0  0  0  0  0  0  0  0  0  0  0
   -8.2740   22.6030  -31.4570 C   0  0  0  0  0  0  0  0  0  0  0  0
   -6.7870   22.3890  -31.5650 C   0  0  0  0  0  0  0  0  0  0  0  0
   -6.2450   21.7210  -32.6710 C   0  0  0  0  0  0  0  0  0  0  0  0
   -4.8700   21.4920  -32.7540 C   0  0  0  0  0  0  0  0  0  0  0  0
   -4.0090   21.9270  -31.7270 C   0  0  0  0  0  0  0  0  0  0  0  0
   -2.6270   21.6830  -31.7690 O   0  0  0  0  0  0  0  0  0  0  0  0
   -1.9330   21.1510  -32.8930 C   0  0  0  0  0  0  0  0  0  0  0  0
   -4.5510   22.6080  -30.6170 C   0  0  0  0  0  0  0  0  0  0  0  0
   -3.6810   23.0810  -29.5160 C   0  0  0  0  0  0  0  0  0  0  0  0
   -3.3650   22.2140  -28.4570 C   0  0  0  0  0  0  0  0  0  0  0  0
   -2.5430   22.6450  -27.4110 C   0  0  0  0  0  0  0  0  0  0  0  0
   -2.0360   23.9450  -27.4100 C   0  0  0  0  0  0  0  0  0  0  0  0
   -2.3530   24.8210  -28.4520 C   0  0  0  0  0  0  0  0  0  0  0  0
   -3.1780   24.3980  -29.5010 C   0  0  0  0  0  0  0  0  0  0  0  0
   -3.5060   25.2960  -30.5110 O   0  0  0  0  0  0  0  0  0  0  0  0
   -5.9370   22.8200  -30.5370 C   0  0  0  0  0  0  0  0  0  0  0  0
   -9.7385   19.4939  -32.0252 H   0  0  0  0  0  0  0  0  0  0  0  0
   -8.8845   20.6815  -33.2459 H   0  0  0  0  0  0  0  0  0  0  0  0
   -9.3217   21.0441  -30.2126 H   0  0  0  0  0  0  0  0  0  0  0  0
   -8.6422   23.0555  -32.3896 H   0  0  0  0  0  0  0  0  0  0  0  0
   -8.4740   23.2685  -30.6043 H   0  0  0  0  0  0  0  0  0  0  0  0
   -6.9066   21.3749  -33.4788 H   0  0  0  0  0  0  0  0  0  0  0  0
   -4.4558   20.9679  -33.6280 H   0  0  0  0  0  0  0  0  0  0  0  0
   -1.1047   20.5160  -32.5456 H   0  0  0  0  0  0  0  0  0  0  0  0
   -2.6255   20.5502  -33.5008 H   0  0  0  0  0  0  0  0  0  0  0  0
   -1.5327   21.9758  -33.5008 H   0  0  0  0  0  0  0  0  0  0  0  0
   -3.7665   21.1899  -28.4504 H   0  0  0  0  0  0  0  0  0  0  0  0
   -2.2958   21.9583  -26.5880 H   0  0  0  0  0  0  0  0  0  0  0  0
   -1.3862   24.2807  -26.5884 H   0  0  0  0  0  0  0  0  0  0  0  0
   -1.9531   25.8457  -28.4478 H   0  0  0  0  0  0  0  0  0  0  0  0
   -6.3599   23.3295  -29.6586 H   0  0  0  0  0  0  0  0  0  0  0  0
  1  2  2  0
  2  3  1  0
  3  4  1  0
  4  5  2  0
  5  6  1  0
  6  7  2  0
  7  8  1  0
  8  9  1  0
  7 10  1  0
 10 11  1  0
 11 12  2  0
 12 13  1  0
 13 14  2  0
 14 15  1  0
 15 16  2  0
 16 17  1  0
 10 18  2  0
 18  4  1  0
 16 11  1  0
  1 19  1  0
  1 20  1  0
  2 21  1  0
  3 22  1  0
  3 23  1  0
  5 24  1  0
  6 25  1  0
  9 26  1  0
  9 27  1  0
  9 28  1  0
 12 29  1  0
 13 30  1  0
 14 31  1  0
 15 32  1  0
 18 33  1  0
M  CHG  1  17  -1
M  END
>  <UniqueID>  (17) 
16

>  <SMILES>  (17) 
C=CCc1ccc(OC)c(-c2ccccc2[O-])c1

>  <Energy>  (17) 
36.8292727322151

>  <Genealogy>  (17) 
C=CCc1ccc(OC)c(-c2ccccc2[O-])c1 (protonated)
C=CCc1ccc(OC)c(-c2ccccc2[O-])c1 (3D coordinates assigned)
C=CCc1ccc(OC)c(-c2ccccc2[O-])c1 (optimized conformer: 36.8292727322151 kcal/mol)

>  <smiles>  (17) 
C=CCc1ccc(OC)c(-c2ccccc2O)c1

>  <score_type>  (17) 
oracle

>  <origin>  (17) 
adgpu

>  <m_score__min__energy>  (17) 
-9.8200000000000003

>  <m_primary>  (17) 
energy

$$$$
17:0
     RDKit          3D

 46 49  0  0  0  0  0  0  0  0999 V2000
   -6.0550   18.9120  -34.9630 C   0  0  0  0  0  0  0  0  0  0  0  0
   -5.8220   17.7450  -34.0400 C   0  0  0  0  0  0  0  0  0  0  0  0
   -5.6040   16.4700  -34.5900 C   0  0  0  0  0  0  0  0  0  0  0  0
   -5.3740   15.3680  -33.7630 C   0  0  0  0  0  0  0  0  0  0  0  0
   -5.3730   15.5240  -32.3770 C   0  0  0  0  0  0  0  0  0  0  0  0
   -5.6030   16.7790  -31.8130 C   0  0  0  0  0  0  0  0  0  0  0  0
   -5.8230   17.9010  -32.6310 C   0  0  0  0  0  0  0  0  0  0  0  0
   -6.0950   19.2100  -31.9950 C   0  0  0  0  0  0  0  0  0  0  0  0
   -5.0680   20.0170  -31.6060 N   0  0  0  0  0  0  0  0  0  0  0  0
   -5.4870   21.2160  -31.1450 C   0  0  0  0  0  0  0  0  0  0  0  0
   -4.5690   22.2690  -30.6560 C   0  0  0  0  0  0  0  0  0  0  0  0
   -5.0710   23.5330  -30.3050 C   0  0  0  0  0  0  0  0  0  0  0  0
   -4.2110   24.5360  -29.8440 C   0  0  0  0  0  0  0  0  0  0  0  0
   -2.8420   24.2880  -29.7080 C   0  0  0  0  0  0  0  0  0  0  0  0
   -2.0110   25.3220  -29.2520 O   0  0  0  0  0  0  0  0  0  0  0  0
   -1.6380   25.5360  -27.9170 C   0  0  0  0  0  0  0  0  0  0  0  0
   -0.8600   26.6590  -27.6060 C   0  0  0  0  0  0  0  0  0  0  0  0
   -0.4830   26.9150  -26.2840 C   0  0  0  0  0  0  0  0  0  0  0  0
   -0.8900   26.0540  -25.2600 C   0  0  0  0  0  0  0  0  0  0  0  0
   -1.6780   24.9380  -25.5590 C   0  0  0  0  0  0  0  0  0  0  0  0
   -2.0570   24.6810  -26.8800 C   0  0  0  0  0  0  0  0  0  0  0  0
   -2.3320   23.0310  -30.0770 C   0  0  0  0  0  0  0  0  0  0  0  0
   -3.1880   22.0310  -30.5430 C   0  0  0  0  0  0  0  0  0  0  0  0
   -7.1660   21.3250  -31.2100 S   0  0  0  0  0  0  0  0  0  0  0  0
   -7.3690   19.7770  -31.8330 C   0  0  0  0  0  0  0  0  0  0  0  0
   -8.6870   19.1650  -32.0890 C   0  0  0  0  0  0  0  0  0  0  0  0
   -9.4310   19.4620  -33.2720 N   0  0  0  0  0  0  0  0  0  0  0  0
   -9.1440   18.3220  -31.2710 O   0  0  0  0  0  0  0  0  0  0  0  0
   -6.2362   19.8194  -34.3682 H   0  0  0  0  0  0  0  0  0  0  0  0
   -5.1687   19.0603  -35.5975 H   0  0  0  0  0  0  0  0  0  0  0  0
   -6.9303   18.7086  -35.5975 H   0  0  0  0  0  0  0  0  0  0  0  0
   -5.6146   16.3387  -35.6821 H   0  0  0  0  0  0  0  0  0  0  0  0
   -5.1936   14.3770  -34.2049 H   0  0  0  0  0  0  0  0  0  0  0  0
   -5.1904   14.6555  -31.7272 H   0  0  0  0  0  0  0  0  0  0  0  0
   -5.6123   16.8917  -30.7188 H   0  0  0  0  0  0  0  0  0  0  0  0
   -6.1485   23.7360  -30.3932 H   0  0  0  0  0  0  0  0  0  0  0  0
   -4.6150   25.5263  -29.5869 H   0  0  0  0  0  0  0  0  0  0  0  0
   -0.5438   27.3436  -28.4068 H   0  0  0  0  0  0  0  0  0  0  0  0
    0.1344   27.7946  -26.0493 H   0  0  0  0  0  0  0  0  0  0  0  0
   -0.5907   26.2543  -24.2206 H   0  0  0  0  0  0  0  0  0  0  0  0
   -2.0001   24.2614  -24.7537 H   0  0  0  0  0  0  0  0  0  0  0  0
   -2.6849   23.8075  -27.1099 H   0  0  0  0  0  0  0  0  0  0  0  0
   -1.2526   22.8341  -29.9982 H   0  0  0  0  0  0  0  0  0  0  0  0
   -2.7786   21.0494  -30.8239 H   0  0  0  0  0  0  0  0  0  0  0  0
   -9.0090   20.0010  -34.0590 H   0  0  0  0  0  0  0  0  0  0  0  0
  -10.3800   19.0460  -33.4090 H   0  0  0  0  0  0  0  0  0  0  0  0
  1  2  1  0
  2  3  2  0
  3  4  1  0
  4  5  2  0
  5  6  1  0
  6  7  2  0
  7  8  1  0
  8  9  1  0
  9 10  2  0
 10 11  1  0
 11 12  2  0
 12 13  1  0
 13 14  2  0
 14 15  1  0
 15 16  1  0
 16 17  2  0
 17 18  1  0
 18 19  2  0
 19 20  1  0
 20 21  2  0
 14 22  1  0
 22 23  2  0
 10 24  1  0
 24 25  1  0
 25 26  1  0
 26 27  1  0
 26 28  2  0
  7  2  1  0
 25  8  2  0
 23 11  1  0
 21 16  1  0
  1 29  1  0
  1 30  1  0
  1 31  1  0
  3 32  1  0
  4 33  1  0
  5 34  1  0
  6 35  1  0
 12 36  1  0
 13 37  1  0
 17 38  1  0
 18 39  1  0
 19 40  1  0
 20 41  1  0
 21 42  1  0
 22 43  1  0
 23 44  1  0
 27 45  1  0
 27 46  1  0
M  END
>  <UniqueID>  (18) 
17

>  <SMILES>  (18) 
Cc1ccccc1-c1nc(-c2ccc(Oc3ccccc3)cc2)sc1C(N)=O

>  <Energy>  (18) 
95.15719354894645

>  <Genealogy>  (18) 
Cc1ccccc1-c1nc(-c2ccc(Oc3ccccc3)cc2)sc1C(N)=O (3D coordinates assigned)
Cc1ccccc1-c1nc(-c2ccc(Oc3ccccc3)cc2)sc1C(N)=O (optimized conformer: 95.15719354894645 kcal/mol)

>  <smiles>  (18) 
Cc1ccccc1-c1nc(-c2ccc(Oc3ccccc3)cc2)sc1C(N)=O

>  <score_type>  (18) 
oracle

>  <origin>  (18) 
adgpu

>  <m_score__min__energy>  (18) 
-9.4100000000000001

>  <m_primary>  (18) 
energy

$$$$
18:0
     RDKit          3D

 27 28  0  0  0  0  0  0  0  0999 V2000
   -2.7770   24.9100  -29.7260 N   0  0  0  0  0  0  0  0  0  0  0  0
   -3.5550   24.1380  -30.6400 C   0  0  0  0  0  0  0  0  0  0  0  0
   -4.6270   24.6220  -31.0900 O   0  0  0  0  0  0  0  0  0  0  0  0
   -3.1170   22.7720  -31.0250 C   0  0  0  0  0  0  0  0  0  0  0  0
   -1.9510   22.2400  -30.4430 C   0  0  0  0  0  0  0  0  0  0  0  0
   -1.5310   20.9420  -30.7410 C   0  0  0  0  0  0  0  0  0  0  0  0
   -2.2620   20.1570  -31.6300 C   0  0  0  0  0  0  0  0  0  0  0  0
   -3.4130   20.6690  -32.2290 C   0  0  0  0  0  0  0  0  0  0  0  0
   -3.8560   21.9710  -31.9340 C   0  0  0  0  0  0  0  0  0  0  0  0
   -4.9960   22.5010  -32.6330 N   0  0  0  0  0  0  0  0  0  0  0  0
   -6.3560   22.1300  -32.3450 C   0  0  0  0  0  0  0  0  0  0  0  0
   -7.2890   23.1260  -32.0190 C   0  0  0  0  0  0  0  0  0  0  0  0
   -8.6110   22.7870  -31.7170 C   0  0  0  0  0  0  0  0  0  0  0  0
   -9.0110   21.4490  -31.7280 C   0  0  0  0  0  0  0  0  0  0  0  0
   -8.0870   20.4450  -32.0330 C   0  0  0  0  0  0  0  0  0  0  0  0
   -8.5860   18.7640  -32.0310 Cl  0  0  0  0  0  0  0  0  0  0  0  0
   -6.7630   20.7810  -32.3350 C   0  0  0  0  0  0  0  0  0  0  0  0
   -3.2020   25.7030  -29.1960 H   0  0  0  0  0  0  0  0  0  0  0  0
   -1.3634   22.8543  -29.7449 H   0  0  0  0  0  0  0  0  0  0  0  0
   -0.6211   20.5385  -30.2728 H   0  0  0  0  0  0  0  0  0  0  0  0
   -1.9315   19.1333  -31.8596 H   0  0  0  0  0  0  0  0  0  0  0  0
   -3.9797   20.0486  -32.9389 H   0  0  0  0  0  0  0  0  0  0  0  0
   -4.8170   23.1490  -33.4320 H   0  0  0  0  0  0  0  0  0  0  0  0
   -6.9779   24.1809  -32.0010 H   0  0  0  0  0  0  0  0  0  0  0  0
   -9.3374   23.5753  -31.4703 H   0  0  0  0  0  0  0  0  0  0  0  0
  -10.0535   21.1849  -31.4966 H   0  0  0  0  0  0  0  0  0  0  0  0
   -6.0361   19.9883  -32.5658 H   0  0  0  0  0  0  0  0  0  0  0  0
  1  2  1  0
  2  3  2  0
  2  4  1  0
  4  5  2  0
  5  6  1  0
  6  7  2  0
  7  8  1  0
  8  9  2  0
  9 10  1  0
 10 11  1  0
 11 12  2  0
 12 13  1  0
 13 14  2  0
 14 15  1  0
 15 16  1  0
 15 17  2  0
  9  4  1  0
 17 11  1  0
  1 18  1  0
  5 19  1  0
  6 20  1  0
  7 21  1  0
  8 22  1  0
 10 23  1  0
 12 24  1  0
 13 25  1  0
 14 26  1  0
 17 27  1  0
M  CHG  1   1  -1
M  END
>  <UniqueID>  (19) 
18

>  <SMILES>  (19) 
[NH-]C(=O)c1ccccc1Nc1cccc(Cl)c1

>  <Energy>  (19) 
36.60392038765965

>  <Genealogy>  (19) 
[NH-]C(=O)c1ccccc1Nc1cccc(Cl)c1 (protonated)
[NH-]C(=O)c1ccccc1Nc1cccc(Cl)c1 (3D coordinates assigned)
[NH-]C(=O)c1ccccc1Nc1cccc(Cl)c1 (optimized conformer: 36.60392038765965 kcal/mol)

>  <smiles>  (19) 
NC(=O)c1ccccc1Nc1cccc(Cl)c1

>  <score_type>  (19) 
oracle

>  <origin>  (19) 
adgpu

>  <m_score__min__energy>  (19) 
-9.8800000000000008

>  <m_primary>  (19) 
energy

$$$$
19:0
     RDKit          3D

 52 55  0  0  0  0  0  0  0  0999 V2000
   -8.7150   18.7610  -31.6030 C   0  0  0  0  0  0  0  0  0  0  0  0
   -9.1270   19.8900  -32.5330 C   0  0  0  0  0  0  0  0  0  0  0  0
   -7.9660   20.6040  -32.9520 O   0  0  0  0  0  0  0  0  0  0  0  0
   -7.2890   21.5610  -32.1790 C   0  0  0  0  0  0  0  0  0  0  0  0
   -7.9790   22.5920  -31.5120 C   0  0  0  0  0  0  0  0  0  0  0  0
   -7.2800   23.5630  -30.7940 C   0  0  0  0  0  0  0  0  0  0  0  0
   -5.8830   23.5270  -30.7300 C   0  0  0  0  0  0  0  0  0  0  0  0
   -4.9990   24.7820  -29.8580 S   0  0  0  0  0  0  0  0  0  0  0  0
   -4.2780   25.6570  -30.8450 O   0  0  0  0  0  0  0  0  0  0  0  0
   -5.9750   25.6400  -29.1010 O   0  0  0  0  0  0  0  0  0  0  0  0
   -3.8400   24.0910  -28.7460 N   0  0  0  0  0  0  0  0  0  0  0  0
   -4.3100   22.7720  -28.2660 C   0  0  0  0  0  0  0  0  0  0  0  0
   -3.1670   21.9630  -27.6450 C   0  0  0  0  0  0  0  0  0  0  0  0
   -2.0700   21.6680  -28.6840 C   0  0  0  0  0  0  0  0  0  0  0  0
   -2.0270   22.7100  -29.8160 C   0  0  0  0  0  0  0  0  0  0  0  0
   -2.4690   24.0920  -29.3140 C   0  0  0  0  0  0  0  0  0  0  0  0
   -5.1910   22.4930  -31.3730 C   0  0  0  0  0  0  0  0  0  0  0  0
   -5.8820   21.5010  -32.0870 C   0  0  0  0  0  0  0  0  0  0  0  0
   -5.1120   20.4300  -32.7590 C   0  0  0  0  0  0  0  0  0  0  0  0
   -3.8120   20.6550  -33.0910 N   0  0  0  0  0  0  0  0  0  0  0  0
   -3.0580   19.7090  -33.7060 C   0  0  0  0  0  0  0  0  0  0  0  0
   -1.8600   19.9690  -33.9970 O   0  0  0  0  0  0  0  0  0  0  0  0
   -3.6220   18.4600  -34.0100 C   0  0  0  0  0  0  0  0  0  0  0  0
   -2.8920   17.4430  -34.6520 C   0  0  0  0  0  0  0  0  0  0  0  0
   -3.4980   16.2140  -34.9260 C   0  0  0  0  0  0  0  0  0  0  0  0
   -4.8290   15.9900  -34.5650 C   0  0  0  0  0  0  0  0  0  0  0  0
   -5.5630   16.9940  -33.9280 C   0  0  0  0  0  0  0  0  0  0  0  0
   -4.9680   18.2340  -33.6480 C   0  0  0  0  0  0  0  0  0  0  0  0
   -5.6770   19.2170  -33.0250 N   0  0  0  0  0  0  0  0  0  0  0  0
   -8.8332   19.0848  -30.5584 H   0  0  0  0  0  0  0  0  0  0  0  0
   -9.3505   17.8826  -31.7887 H   0  0  0  0  0  0  0  0  0  0  0  0
   -7.6631   18.4984  -31.7887 H   0  0  0  0  0  0  0  0  0  0  0  0
   -9.6390   19.4729  -33.4127 H   0  0  0  0  0  0  0  0  0  0  0  0
   -9.8081   20.5728  -32.0039 H   0  0  0  0  0  0  0  0  0  0  0  0
   -9.0773   22.6320  -31.5575 H   0  0  0  0  0  0  0  0  0  0  0  0
   -7.8307   24.3615  -30.2752 H   0  0  0  0  0  0  0  0  0  0  0  0
   -5.0928   22.9250  -27.5085 H   0  0  0  0  0  0  0  0  0  0  0  0
   -4.7035   22.2108  -29.1264 H   0  0  0  0  0  0  0  0  0  0  0  0
   -2.7304   22.5369  -26.8143 H   0  0  0  0  0  0  0  0  0  0  0  0
   -3.5719   21.0066  -27.2826 H   0  0  0  0  0  0  0  0  0  0  0  0
   -1.0952   21.6620  -28.1743 H   0  0  0  0  0  0  0  0  0  0  0  0
   -2.2977   20.6928  -29.1391 H   0  0  0  0  0  0  0  0  0  0  0  0
   -0.9989   22.7798  -30.2009 H   0  0  0  0  0  0  0  0  0  0  0  0
   -2.7172   22.3904  -30.6107 H   0  0  0  0  0  0  0  0  0  0  0  0
   -1.7669   24.4230  -28.5346 H   0  0  0  0  0  0  0  0  0  0  0  0
   -2.4717   24.7712  -30.1793 H   0  0  0  0  0  0  0  0  0  0  0  0
   -4.0929   22.4576  -31.3180 H   0  0  0  0  0  0  0  0  0  0  0  0
   -1.8440   17.6153  -34.9383 H   0  0  0  0  0  0  0  0  0  0  0  0
   -2.9251   15.4202  -35.4276 H   0  0  0  0  0  0  0  0  0  0  0  0
   -5.3005   15.0204  -34.7829 H   0  0  0  0  0  0  0  0  0  0  0  0
   -6.6103   16.8120  -33.6451 H   0  0  0  0  0  0  0  0  0  0  0  0
   -6.6610   19.0270  -32.7250 H   0  0  0  0  0  0  0  0  0  0  0  0
  1  2  1  0
  2  3  1  0
  3  4  1  0
  4  5  2  0
  5  6  1  0
  6  7  2  0
  7  8  1  0
  8  9  2  0
  8 10  2  0
  8 11  1  0
 11 12  1  0
 12 13  1  0
 13 14  1  0
 14 15  1  0
 15 16  1  0
  7 17  1  0
 17 18  2  0
 18 19  1  0
 19 20  2  0
 20 21  1  0
 21 22  2  0
 21 23  1  0
 23 24  2  0
 24 25  1  0
 25 26  2  0
 26 27  1  0
 27 28  2  0
 28 29  1  0
 18  4  1  0
 29 19  1  0
 16 11  1  0
 28 23  1  0
  1 30  1  0
  1 31  1  0
  1 32  1  0
  2 33  1  0
  2 34  1  0
  5 35  1  0
  6 36  1  0
 12 37  1  0
 12 38  1  0
 13 39  1  0
 13 40  1  0
 14 41  1  0
 14 42  1  0
 15 43  1  0
 15 44  1  0
 16 45  1  0
 16 46  1  0
 17 47  1  0
 24 48  1  0
 25 49  1  0
 26 50  1  0
 27 51  1  0
 29 52  1  0
M  END
>  <UniqueID>  (20) 
19

>  <SMILES>  (20) 
CCOc1ccc(S(=O)(=O)N2CCCCC2)cc1-c1nc(=O)c2ccccc2[nH]1

>  <Energy>  (20) 
65.4889144249321

>  <Genealogy>  (20) 
CCOc1ccc(S(=O)(=O)N2CCCCC2)cc1-c1nc(=O)c2ccccc2[nH]1 (3D coordinates assigned)
CCOc1ccc(S(=O)(=O)N2CCCCC2)cc1-c1nc(=O)c2ccccc2[nH]1 (nonaromatic ring conformer: 65.4889144249321 kcal/mol)

>  <smiles>  (20) 
CCOc1ccc(S(=O)(=O)N2CCCCC2)cc1-c1nc(=O)c2ccccc2[nH]1

>  <score_type>  (20) 
oracle

>  <origin>  (20) 
adgpu

>  <m_score__min__energy>  (20) 
-10.390000000000001

>  <m_primary>  (20) 
energy

$$$$
20:0
     RDKit          3D

 30 32  0  0  0  0  0  0  0  0999 V2000
   -4.0120   26.2140  -29.8770 H   0  0  0  0  0  0  0  0  0  0  0  0
   -3.8680   25.3720  -30.4780 N   0  0  0  0  0  0  0  0  0  0  0  0
   -4.8340   24.5450  -30.7120 C   0  0  0  0  0  0  0  0  0  0  0  0
   -4.6860   23.4480  -31.4820 N   0  0  0  0  0  0  0  0  0  0  0  0
   -5.8460   22.7380  -31.5780 C   0  0  0  0  0  0  0  0  0  0  0  0
   -5.9200   21.4830  -32.3730 C   0  0  0  0  0  0  0  0  0  0  0  0
   -4.8110   21.0030  -33.0960 C   0  0  0  0  0  0  0  0  0  0  0  0
   -3.8650   21.5641  -33.0804 H   0  0  0  0  0  0  0  0  0  0  0  0
   -4.9030   19.8180  -33.8340 C   0  0  0  0  0  0  0  0  0  0  0  0
   -4.0321   19.4611  -34.4033 H   0  0  0  0  0  0  0  0  0  0  0  0
   -6.0920   19.0840  -33.8540 C   0  0  0  0  0  0  0  0  0  0  0  0
   -6.1470   17.9090  -34.6190 O   0  0  0  0  0  0  0  0  0  0  0  0
   -5.6580   16.6570  -34.2230 C   0  0  0  0  0  0  0  0  0  0  0  0
   -4.3100   16.4590  -33.8730 C   0  0  0  0  0  0  0  0  0  0  0  0
   -3.6090   17.3065  -33.8938 H   0  0  0  0  0  0  0  0  0  0  0  0
   -3.8570   15.1910  -33.4990 C   0  0  0  0  0  0  0  0  0  0  0  0
   -2.8037   15.0445  -33.2178 H   0  0  0  0  0  0  0  0  0  0  0  0
   -4.7430   14.1070  -33.4820 C   0  0  0  0  0  0  0  0  0  0  0  0
   -4.1730   12.5150  -33.0150 Cl  0  0  0  0  0  0  0  0  0  0  0  0
   -6.0800   14.2930  -33.8480 C   0  0  0  0  0  0  0  0  0  0  0  0
   -6.7753   13.4406  -33.8410 H   0  0  0  0  0  0  0  0  0  0  0  0
   -6.5340   15.5620  -34.2230 C   0  0  0  0  0  0  0  0  0  0  0  0
   -7.5840   15.7016  -34.5195 H   0  0  0  0  0  0  0  0  0  0  0  0
   -7.2070   19.5650  -33.1480 C   0  0  0  0  0  0  0  0  0  0  0  0
   -8.1549   19.0076  -33.1773 H   0  0  0  0  0  0  0  0  0  0  0  0
   -7.1190   20.7470  -32.4090 C   0  0  0  0  0  0  0  0  0  0  0  0
   -7.9955   21.1061  -31.8497 H   0  0  0  0  0  0  0  0  0  0  0  0
   -6.9200   23.2890  -30.8660 C   0  0  0  0  0  0  0  0  0  0  0  0
   -7.9368   22.8728  -30.8118 H   0  0  0  0  0  0  0  0  0  0  0  0
   -6.3900   24.6970  -30.1070 S   0  0  0  0  0  0  0  0  0  0  0  0
  1  2  1  0
  2  3  2  0
  3  4  1  0
  4  5  1  0
  5  6  1  0
  6  7  2  0
  7  8  1  0
  7  9  1  0
  9 10  1  0
  9 11  2  0
 11 12  1  0
 12 13  1  0
 13 14  2  0
 14 15  1  0
 14 16  1  0
 16 17  1  0
 16 18  2  0
 18 19  1  0
 18 20  1  0
 20 21  1  0
 20 22  2  0
 22 23  1  0
 11 24  1  0
 24 25  1  0
 24 26  2  0
 26 27  1  0
  5 28  2  0
 28 29  1  0
 28 30  1  0
 30  3  1  0
 26  6  1  0
 22 13  1  0
M  CHG  1   4  -1
M  END
>  <UniqueID>  (21) 
20

>  <SMILES>  (21) 
[H]/N=c1/[n-]c(-c2ccc(Oc3ccc(Cl)cc3)cc2)cs1

>  <Energy>  (21) 
71.5482531710958

>  <Genealogy>  (21) 
N=c1[n-]c(-c2ccc(Oc3ccc(Cl)cc3)cc2)cs1 (protonated)
[H]/N=c1/[n-]c(-c2ccc(Oc3ccc(Cl)cc3)cc2)cs1 (cis-trans isomerization)
[H]/N=c1/[n-]c(-c2ccc(Oc3ccc(Cl)cc3)cc2)cs1 (3D coordinates assigned)
[H]/N=c1/[n-]c(-c2ccc(Oc3ccc(Cl)cc3)cc2)cs1 (optimized conformer: 71.5482531710958 kcal/mol)

>  <smiles>  (21) 
N=c1[nH]c(-c2ccc(Oc3ccc(Cl)cc3)cc2)cs1

>  <score_type>  (21) 
oracle

>  <origin>  (21) 
adgpu

>  <m_score__min__energy>  (21) 
-9.4399999999999995

>  <m_primary>  (21) 
energy

$$$$
21:0
     RDKit          3D

 30 32  0  0  0  0  0  0  0  0999 V2000
   -7.1550   14.2460  -34.5130 C   0  0  0  0  0  0  0  0  0  0  0  0
   -6.4010   15.4730  -34.2930 N   0  0  0  0  0  0  0  0  0  0  0  0
   -6.8600   16.5780  -33.6790 C   0  0  0  0  0  0  0  0  0  0  0  0
   -5.8230   17.4870  -33.6050 C   0  0  0  0  0  0  0  0  0  0  0  0
   -5.8770   18.8370  -33.0080 C   0  0  0  0  0  0  0  0  0  0  0  0
   -7.0980   19.4510  -32.6870 C   0  0  0  0  0  0  0  0  0  0  0  0
   -7.0980   20.7280  -32.1240 C   0  0  0  0  0  0  0  0  0  0  0  0
   -5.8880   21.3970  -31.8800 C   0  0  0  0  0  0  0  0  0  0  0  0
   -5.8740   22.7570  -31.2820 C   0  0  0  0  0  0  0  0  0  0  0  0
   -7.0750   23.4400  -31.0150 C   0  0  0  0  0  0  0  0  0  0  0  0
   -7.0510   24.6850  -30.4670 N   0  0  0  0  0  0  0  0  0  0  0  0
   -5.8830   25.3110  -30.1630 C   0  0  0  0  0  0  0  0  0  0  0  0
   -4.6660   24.6750  -30.4090 C   0  0  0  0  0  0  0  0  0  0  0  0
   -3.4980   25.2950  -30.1120 F   0  0  0  0  0  0  0  0  0  0  0  0
   -4.6620   23.3960  -30.9690 C   0  0  0  0  0  0  0  0  0  0  0  0
   -4.6900   20.7460  -32.2170 C   0  0  0  0  0  0  0  0  0  0  0  0
   -4.7150   19.5010  -32.7620 N   0  0  0  0  0  0  0  0  0  0  0  0
   -4.7430   16.8460  -34.1950 C   0  0  0  0  0  0  0  0  0  0  0  0
   -5.1210   15.6170  -34.5970 N   0  0  0  0  0  0  0  0  0  0  0  0
   -7.4268   13.8038  -33.5432 H   0  0  0  0  0  0  0  0  0  0  0  0
   -8.0690   14.4741  -35.0810 H   0  0  0  0  0  0  0  0  0  0  0  0
   -6.5386   13.5337  -35.0810 H   0  0  0  0  0  0  0  0  0  0  0  0
   -7.8820   16.7309  -33.3019 H   0  0  0  0  0  0  0  0  0  0  0  0
   -8.0475   18.9295  -32.8778 H   0  0  0  0  0  0  0  0  0  0  0  0
   -8.0519   21.2134  -31.8699 H   0  0  0  0  0  0  0  0  0  0  0  0
   -8.0386   22.9646  -31.2507 H   0  0  0  0  0  0  0  0  0  0  0  0
   -5.8976   26.3191  -29.7230 H   0  0  0  0  0  0  0  0  0  0  0  0
   -3.7070   22.8868  -31.1659 H   0  0  0  0  0  0  0  0  0  0  0  0
   -3.7266   21.2462  -32.0390 H   0  0  0  0  0  0  0  0  0  0  0  0
   -3.7368   17.2739  -34.3155 H   0  0  0  0  0  0  0  0  0  0  0  0
  1  2  1  0
  2  3  1  0
  3  4  2  0
  4  5  1  0
  5  6  2  0
  6  7  1  0
  7  8  2  0
  8  9  1  0
  9 10  2  0
 10 11  1  0
 11 12  2  0
 12 13  1  0
 13 14  1  0
 13 15  2  0
  8 16  1  0
 16 17  2  0
  4 18  1  0
 18 19  2  0
 19  2  1  0
 17  5  1  0
 15  9  1  0
  1 20  1  0
  1 21  1  0
  1 22  1  0
  3 23  1  0
  6 24  1  0
  7 25  1  0
 10 26  1  0
 12 27  1  0
 15 28  1  0
 16 29  1  0
 18 30  1  0
M  END
>  <UniqueID>  (22) 
21

>  <SMILES>  (22) 
Cn1cc(-c2ccc(-c3cncc(F)c3)cn2)cn1

>  <Energy>  (22) 
69.01463141844745

>  <Genealogy>  (22) 
Cn1cc(-c2ccc(-c3cncc(F)c3)cn2)cn1 (3D coordinates assigned)
Cn1cc(-c2ccc(-c3cncc(F)c3)cn2)cn1 (optimized conformer: 69.01463141844745 kcal/mol)

>  <smiles>  (22) 
Cn1cc(-c2ccc(-c3cncc(F)c3)cn2)cn1

>  <score_type>  (22) 
oracle

>  <origin>  (22) 
adgpu

>  <m_score__min__energy>  (22) 
-6.5099999999999998

>  <m_primary>  (22) 
energy

$$$$
22:0
     RDKit          3D

 28 29  0  0  0  0  0  0  0  0999 V2000
   -6.4970   17.7760  -31.2880 C   0  0  0  0  0  0  0  0  0  0  0  0
   -7.5860   17.6890  -32.3560 C   0  0  0  0  0  0  0  0  0  0  0  0
   -8.8920   18.3850  -31.9350 C   0  0  0  0  0  0  0  0  0  0  0  0
   -9.1360   19.7380  -32.6250 C   0  0  0  0  0  0  0  0  0  0  0  0
   -8.1140   20.7760  -32.2300 C   0  0  0  0  0  0  0  0  0  0  0  0
   -8.4220   21.7300  -31.2480 C   0  0  0  0  0  0  0  0  0  0  0  0
   -7.4890   22.7090  -30.8940 C   0  0  0  0  0  0  0  0  0  0  0  0
   -6.2320   22.7530  -31.5190 C   0  0  0  0  0  0  0  0  0  0  0  0
   -5.2470   23.7890  -31.1450 C   0  0  0  0  0  0  0  0  0  0  0  0
   -4.0070   23.5330  -30.6870 N   0  0  0  0  0  0  0  0  0  0  0  0
   -3.4720   24.7240  -30.4790 N   0  0  0  0  0  0  0  0  0  0  0  0
   -4.3440   25.6680  -30.7950 N   0  0  0  0  0  0  0  0  0  0  0  0
   -5.4690   25.1150  -31.2170 N   0  0  0  0  0  0  0  0  0  0  0  0
   -5.9250   21.7990  -32.5030 C   0  0  0  0  0  0  0  0  0  0  0  0
   -6.8570   20.8190  -32.8580 C   0  0  0  0  0  0  0  0  0  0  0  0
   -6.5330   19.9120  -33.8150 F   0  0  0  0  0  0  0  0  0  0  0  0
   -6.9583   17.7391  -30.2901 H   0  0  0  0  0  0  0  0  0  0  0  0
   -5.8028   16.9305  -31.4025 H   0  0  0  0  0  0  0  0  0  0  0  0
   -5.9458   18.7210  -31.4025 H   0  0  0  0  0  0  0  0  0  0  0  0
   -7.2149   18.1649  -33.2757 H   0  0  0  0  0  0  0  0  0  0  0  0
   -7.8136   16.6239  -32.5105 H   0  0  0  0  0  0  0  0  0  0  0  0
   -9.7322   17.7177  -32.1773 H   0  0  0  0  0  0  0  0  0  0  0  0
   -8.8078   18.5902  -30.8576 H   0  0  0  0  0  0  0  0  0  0  0  0
   -9.0896   19.5928  -33.7144 H   0  0  0  0  0  0  0  0  0  0  0  0
  -10.1247   20.1027  -32.3096 H   0  0  0  0  0  0  0  0  0  0  0  0
   -9.4043   21.7073  -30.7534 H   0  0  0  0  0  0  0  0  0  0  0  0
   -7.7410   23.4498  -30.1208 H   0  0  0  0  0  0  0  0  0  0  0  0
   -4.9432   21.8230  -32.9985 H   0  0  0  0  0  0  0  0  0  0  0  0
  1  2  1  0
  2  3  1  0
  3  4  1  0
  4  5  1  0
  5  6  2  0
  6  7  1  0
  7  8  2  0
  8  9  1  0
  9 10  1  0
 10 11  2  0
 11 12  1  0
 12 13  1  0
  8 14  1  0
 14 15  2  0
 15 16  1  0
 15  5  1  0
 13  9  2  0
  1 17  1  0
  1 18  1  0
  1 19  1  0
  2 20  1  0
  2 21  1  0
  3 22  1  0
  3 23  1  0
  4 24  1  0
  4 25  1  0
  6 26  1  0
  7 27  1  0
 14 28  1  0
M  CHG  1  12  -1
M  END
>  <UniqueID>  (23) 
22

>  <SMILES>  (23) 
CCCCc1ccc(-c2nn[n-]n2)cc1F

>  <Energy>  (23) 
61.00814766827852

>  <Genealogy>  (23) 
CCCCc1ccc(-c2nn[n-]n2)cc1F (protonated)
CCCCc1ccc(-c2nn[n-]n2)cc1F (3D coordinates assigned)
CCCCc1ccc(-c2nn[n-]n2)cc1F (optimized conformer: 61.00814766827852 kcal/mol)

>  <smiles>  (23) 
CCCCc1ccc(-c2nn[nH]n2)cc1F

>  <score_type>  (23) 
oracle

>  <origin>  (23) 
adgpu

>  <m_score__min__energy>  (23) 
-9.0099999999999998

>  <m_primary>  (23) 
energy

$$$$
23:0
     RDKit          3D

 35 37  0  0  0  0  0  0  0  0999 V2000
   -5.2049   26.6891  -31.2639 H   0  0  0  0  0  0  0  0  0  0  0  0
   -5.1050   25.6790  -30.8400 C   0  0  0  0  0  0  0  0  0  0  0  0
   -3.8810   25.2100  -30.4830 N   0  0  0  0  0  0  0  0  0  0  0  0
   -3.7310   23.9630  -29.9580 C   0  0  0  0  0  0  0  0  0  0  0  0
   -2.5420   23.5640  -29.6130 N   0  0  0  0  0  0  0  0  0  0  0  0
   -2.1550   22.2980  -29.0450 C   0  0  0  0  0  0  0  0  0  0  0  0
   -2.4840   21.7800  -27.8000 C   0  0  0  0  0  0  0  0  0  0  0  0
   -3.0796   22.2512  -27.0042 H   0  0  0  0  0  0  0  0  0  0  0  0
   -1.8870   20.5320  -27.7950 C   0  0  0  0  0  0  0  0  0  0  0  0
   -2.0010   19.5190  -26.7050 C   0  0  0  0  0  0  0  0  0  0  0  0
   -1.9443   20.0228  -25.7288 H   0  0  0  0  0  0  0  0  0  0  0  0
   -2.9639   18.9942  -26.7914 H   0  0  0  0  0  0  0  0  0  0  0  0
   -1.1789   18.7933  -26.7914 H   0  0  0  0  0  0  0  0  0  0  0  0
   -1.2660   20.3040  -28.9700 N   0  0  0  0  0  0  0  0  0  0  0  0
   -1.4220   21.3870  -29.7130 N   0  0  0  0  0  0  0  0  0  0  0  0
   -0.9280   21.5110  -31.0790 C   0  0  0  0  0  0  0  0  0  0  0  0
    0.1387   21.7788  -31.0602 H   0  0  0  0  0  0  0  0  0  0  0  0
   -1.0563   20.5528  -31.6037 H   0  0  0  0  0  0  0  0  0  0  0  0
   -1.4937   22.2950  -31.6037 H   0  0  0  0  0  0  0  0  0  0  0  0
   -4.8250   23.1750  -29.7880 N   0  0  0  0  0  0  0  0  0  0  0  0
   -6.0660   23.6040  -30.1300 C   0  0  0  0  0  0  0  0  0  0  0  0
   -7.4760   22.5300  -29.8770 S   0  0  0  0  0  0  0  0  0  0  0  0
   -7.0820   21.5340  -31.3170 C   0  0  0  0  0  0  0  0  0  0  0  0
   -5.7730   21.5220  -31.8150 C   0  0  0  0  0  0  0  0  0  0  0  0
   -4.9947   22.1270  -31.3269 H   0  0  0  0  0  0  0  0  0  0  0  0
   -5.4530   20.7430  -32.9310 C   0  0  0  0  0  0  0  0  0  0  0  0
   -4.4232   20.7323  -33.3175 H   0  0  0  0  0  0  0  0  0  0  0  0
   -6.4430   19.9770  -33.5560 C   0  0  0  0  0  0  0  0  0  0  0  0
   -6.1330   19.2220  -34.6380 F   0  0  0  0  0  0  0  0  0  0  0  0
   -7.7520   19.9890  -33.0630 C   0  0  0  0  0  0  0  0  0  0  0  0
   -8.5294   19.3852  -33.5541 H   0  0  0  0  0  0  0  0  0  0  0  0
   -8.0740   20.7680  -31.9460 C   0  0  0  0  0  0  0  0  0  0  0  0
   -9.3470   20.7720  -31.4770 F   0  0  0  0  0  0  0  0  0  0  0  0
   -6.2340   24.8800  -30.6690 C   0  0  0  0  0  0  0  0  0  0  0  0
   -7.2321   25.2459  -30.9517 H   0  0  0  0  0  0  0  0  0  0  0  0
  1  2  1  0
  2  3  1  0
  3  4  1  0
  4  5  2  0
  5  6  1  0
  6  7  2  0
  7  8  1  0
  7  9  1  0
  9 10  1  0
 10 11  1  0
 10 12  1  0
 10 13  1  0
  9 14  2  0
 14 15  1  0
 15 16  1  0
 16 17  1  0
 16 18  1  0
 16 19  1  0
  4 20  1  0
 20 21  2  0
 21 22  1  0
 22 23  1  0
 23 24  2  0
 24 25  1  0
 24 26  1  0
 26 27  1  0
 26 28  2  0
 28 29  1  0
 28 30  1  0
 30 31  1  0
 30 32  2  0
 32 33  1  0
 21 34  1  0
 34 35  1  0
 34  2  2  0
 15  6  1  0
 32 23  1  0
M  CHG  1   3  -1
M  END
>  <UniqueID>  (24) 
23

>  <SMILES>  (24) 
Cc1cc(/N=c2\nc(Sc3ccc(F)cc3F)cc[n-]2)n(C)n1

>  <Energy>  (24) 
66.18688995649669

>  <Genealogy>  (24) 
Cc1cc(N=c2nc(Sc3ccc(F)cc3F)cc[n-]2)n(C)n1 (protonated)
Cc1cc(/N=c2\nc(Sc3ccc(F)cc3F)cc[n-]2)n(C)n1 (cis-trans isomerization)
Cc1cc(/N=c2\nc(Sc3ccc(F)cc3F)cc[n-]2)n(C)n1 (3D coordinates assigned)
Cc1cc(/N=c2\nc(Sc3ccc(F)cc3F)cc[n-]2)n(C)n1 (optimized conformer: 66.18688995649669 kcal/mol)

>  <smiles>  (24) 
Cc1cc(N=c2nc(Sc3ccc(F)cc3F)cc[nH]2)n(C)n1

>  <score_type>  (24) 
oracle

>  <origin>  (24) 
adgpu

>  <m_score__min__energy>  (24) 
-8.5700000000000003

>  <m_primary>  (24) 
energy

$$$$
24:0
     RDKit          3D

 39 41  0  0  1  0  0  0  0  0999 V2000
   -2.1770   24.8010  -28.1170 C   0  0  0  0  0  0  0  0  0  0  0  0
   -2.6450   25.2880  -29.3620 O   0  0  0  0  0  0  0  0  0  0  0  0
   -3.5310   24.5140  -30.0990 C   0  0  0  0  0  0  0  0  0  0  0  0
   -4.7520   25.0800  -30.4060 C   0  0  0  0  0  0  0  0  0  0  0  0
   -5.6590   24.3270  -31.1430 C   0  0  0  0  0  0  0  0  0  0  0  0
   -5.3690   23.0470  -31.5670 C   0  0  0  0  0  0  0  0  0  0  0  0
   -6.4130   22.3400  -32.3470 C   0  0  0  0  0  0  0  0  0  0  0  0
   -5.9450   21.0360  -32.8020 N   0  0  0  0  0  0  0  0  0  0  0  0
   -6.7280   20.0340  -32.6110 C   0  0  0  0  0  0  0  0  0  0  0  0
   -7.9650   20.1420  -32.0050 C   0  0  0  0  0  0  0  0  0  0  0  0
   -8.7400   19.0110  -31.8410 C   0  0  0  0  0  0  0  0  0  0  0  0
   -8.2500   17.8450  -32.2820 N   0  0  0  0  0  0  0  0  0  0  0  0
   -7.0510   17.7180  -32.8730 C   0  0  0  0  0  0  0  0  0  0  0  0
   -6.5090   16.4610  -33.3540 C   0  0  0  0  0  0  0  0  0  0  0  0
   -5.2040   16.0710  -33.0320 C   0  0  0  0  0  0  0  0  0  0  0  0
   -4.6700   14.8810  -33.4810 C   0  0  0  0  0  0  0  0  0  0  0  0
   -5.4020   14.0170  -34.2690 C   0  0  0  0  0  0  0  0  0  0  0  0
   -6.6930   14.3840  -34.5980 C   0  0  0  0  0  0  0  0  0  0  0  0
   -7.2140   15.5770  -34.1420 C   0  0  0  0  0  0  0  0  0  0  0  0
   -6.3190   18.8360  -33.0200 N   0  0  0  0  0  0  0  0  0  0  0  0
   -4.1410   22.4740  -31.2610 C   0  0  0  0  0  0  0  0  0  0  0  0
   -3.2420   23.2330  -30.5250 C   0  0  0  0  0  0  0  0  0  0  0  0
   -2.6875   25.3322  -27.3002 H   0  0  0  0  0  0  0  0  0  0  0  0
   -2.3876   23.7240  -28.0420 H   0  0  0  0  0  0  0  0  0  0  0  0
   -1.0924   24.9686  -28.0420 H   0  0  0  0  0  0  0  0  0  0  0  0
   -5.0007   26.0995  -30.0763 H   0  0  0  0  0  0  0  0  0  0  0  0
   -6.6361   24.7647  -31.3952 H   0  0  0  0  0  0  0  0  0  0  0  0
   -7.3007   22.2004  -31.7126 H   0  0  0  0  0  0  0  0  0  0  0  0
   -6.6566   22.9482  -33.2306 H   0  0  0  0  0  0  0  0  0  0  0  0
   -8.3290   21.1198  -31.6565 H   0  0  0  0  0  0  0  0  0  0  0  0
   -9.7292   19.0659  -31.3630 H   0  0  0  0  0  0  0  0  0  0  0  0
   -8.8480   17.0010  -32.1490 H   0  0  0  0  0  0  0  0  0  0  0  0
   -4.5876   16.7311  -32.4040 H   0  0  0  0  0  0  0  0  0  0  0  0
   -3.6389   14.6154  -33.2049 H   0  0  0  0  0  0  0  0  0  0  0  0
   -4.9726   13.0683  -34.6233 H   0  0  0  0  0  0  0  0  0  0  0  0
   -7.3075   13.7222  -35.2260 H   0  0  0  0  0  0  0  0  0  0  0  0
   -8.2457   15.8363  -34.4218 H   0  0  0  0  0  0  0  0  0  0  0  0
   -3.8901   21.4549  -31.5904 H   0  0  0  0  0  0  0  0  0  0  0  0
   -2.2638   22.7982  -30.2719 H   0  0  0  0  0  0  0  0  0  0  0  0
  1  2  1  0
  2  3  1  0
  3  4  2  0
  4  5  1  0
  5  6  2  0
  6  7  1  0
  7  8  1  0
  8  9  2  0
  9 10  1  0
 10 11  2  0
 11 12  1  0
 12 13  1  0
 13 14  1  0
 14 15  2  0
 15 16  1  0
 16 17  2  0
 17 18  1  0
 18 19  2  0
 13 20  2  0
  6 21  1  0
 21 22  2  0
 22  3  1  0
 20  9  1  0
 19 14  1  0
  1 23  1  0
  1 24  1  0
  1 25  1  0
  4 26  1  0
  5 27  1  0
  7 28  1  0
  7 29  1  0
 10 30  1  0
 11 31  1  0
 12 32  1  0
 15 33  1  0
 16 34  1  0
 17 35  1  0
 18 36  1  0
 19 37  1  0
 21 38  1  0
 22 39  1  0
M  END
>  <smiles>  (25) 
COc1ccc(CN=c2cc[nH]c(-c3ccccc3)n2)cc1

>  <score_type>  (25) 
oracle

>  <origin>  (25) 
adgpu

>  <m_score__min__energy>  (25) 
-7.8200000000000003

>  <m_primary>  (25) 
energy

$$$$
25:0
     RDKit          3D

 25 26  0  0  0  0  0  0  0  0999 V2000
   -2.7520   20.2830  -27.7920 C   0  0  0  0  0  0  0  0  0  0  0  0
   -2.9280   21.3140  -28.8580 C   0  0  0  0  0  0  0  0  0  0  0  0
   -2.1130   21.3640  -29.8180 O   0  0  0  0  0  0  0  0  0  0  0  0
   -4.0160   22.2450  -28.7800 N   0  0  0  0  0  0  0  0  0  0  0  0
   -4.1480   23.3150  -29.6860 N   0  0  0  0  0  0  0  0  0  0  0  0
   -5.0900   23.5200  -30.6300 C   0  0  0  0  0  0  0  0  0  0  0  0
   -6.1190   22.5510  -31.0630 C   0  0  0  0  0  0  0  0  0  0  0  0
   -5.8470   21.6030  -32.0660 C   0  0  0  0  0  0  0  0  0  0  0  0
   -6.8360   20.7040  -32.4760 C   0  0  0  0  0  0  0  0  0  0  0  0
   -8.1080   20.7500  -31.8970 C   0  0  0  0  0  0  0  0  0  0  0  0
   -8.3930   21.7010  -30.9140 C   0  0  0  0  0  0  0  0  0  0  0  0
   -7.4070   22.6020  -30.5020 C   0  0  0  0  0  0  0  0  0  0  0  0
   -4.9220   24.7260  -31.2140 N   0  0  0  0  0  0  0  0  0  0  0  0
   -3.8650   25.2960  -30.6480 N   0  0  0  0  0  0  0  0  0  0  0  0
   -3.3990   24.4290  -29.7300 C   0  0  0  0  0  0  0  0  0  0  0  0
   -2.1340   24.7470  -28.7420 S   0  0  0  0  0  0  0  0  0  0  0  0
   -2.8334   20.7596  -26.8039 H   0  0  0  0  0  0  0  0  0  0  0  0
   -3.5318   19.5139  -27.8934 H   0  0  0  0  0  0  0  0  0  0  0  0
   -1.7612   19.8161  -27.8934 H   0  0  0  0  0  0  0  0  0  0  0  0
   -4.8080   22.0320  -28.1330 H   0  0  0  0  0  0  0  0  0  0  0  0
   -4.8504   21.5688  -32.5304 H   0  0  0  0  0  0  0  0  0  0  0  0
   -6.6134   19.9598  -33.2548 H   0  0  0  0  0  0  0  0  0  0  0  0
   -8.8837   20.0379  -32.2153 H   0  0  0  0  0  0  0  0  0  0  0  0
   -9.3956   21.7408  -30.4633 H   0  0  0  0  0  0  0  0  0  0  0  0
   -7.6401   23.3550  -29.7347 H   0  0  0  0  0  0  0  0  0  0  0  0
  1  2  1  0
  2  3  2  0
  2  4  1  0
  4  5  1  0
  5  6  1  0
  6  7  1  0
  7  8  2  0
  8  9  1  0
  9 10  2  0
 10 11  1  0
 11 12  2  0
  6 13  2  0
 13 14  1  0
 14 15  1  0
 15 16  2  0
 15  5  1  0
 12  7  1  0
  1 17  1  0
  1 18  1  0
  1 19  1  0
  4 20  1  0
  8 21  1  0
  9 22  1  0
 10 23  1  0
 11 24  1  0
 12 25  1  0
M  CHG  1  14  -1
M  END
>  <UniqueID>  (26) 
24

>  <SMILES>  (26) 
CC(=O)Nn1c(-c2ccccc2)n[n-]c1=S

>  <Energy>  (26) 
68.34969683712971

>  <Genealogy>  (26) 
CC(=O)Nn1c(-c2ccccc2)n[n-]c1=S (protonated)
CC(=O)Nn1c(-c2ccccc2)n[n-]c1=S (3D coordinates assigned)
CC(=O)Nn1c(-c2ccccc2)n[n-]c1=S (optimized conformer: 68.34969683712971 kcal/mol)

>  <smiles>  (26) 
CC(=O)Nn1c(-c2ccccc2)n[nH]c1=S

>  <score_type>  (26) 
oracle

>  <origin>  (26) 
adgpu

>  <m_score__min__energy>  (26) 
-7.5800000000000001

>  <m_primary>  (26) 
energy

$$$$
26:0
     RDKit          3D

 43 45  0  0  0  0  0  0  0  0999 V2000
   -1.2340   25.7660  -29.2830 O   0  0  0  0  0  0  0  0  0  0  0  0
   -0.7410   25.7840  -27.9730 C   0  0  0  0  0  0  0  0  0  0  0  0
    0.3920   24.9410  -27.8830 O   0  0  0  0  0  0  0  0  0  0  0  0
    0.3090   24.0660  -26.7730 C   0  0  0  0  0  0  0  0  0  0  0  0
   -0.2930   22.7130  -27.1650 C   0  0  0  0  0  0  0  0  0  0  0  0
   -1.1220   22.8590  -28.3570 N   0  0  0  0  0  0  0  0  0  0  0  0
   -2.4630   22.8110  -28.4150 C   0  0  0  0  0  0  0  0  0  0  0  0
   -2.7940   22.9250  -29.7530 C   0  0  0  0  0  0  0  0  0  0  0  0
   -4.1480   22.9270  -30.3560 C   0  0  0  0  0  0  0  0  0  0  0  0
   -5.2970   23.1130  -29.5680 C   0  0  0  0  0  0  0  0  0  0  0  0
   -6.5660   23.1130  -30.1550 C   0  0  0  0  0  0  0  0  0  0  0  0
   -6.7150   22.9320  -31.5330 C   0  0  0  0  0  0  0  0  0  0  0  0
   -8.0140   22.9470  -32.0680 O   0  0  0  0  0  0  0  0  0  0  0  0
   -8.9890   21.9190  -31.8960 C   0  0  0  0  0  0  0  0  0  0  0  0
   -8.3890   20.5620  -32.1480 C   0  0  0  0  0  0  0  0  0  0  0  0
   -8.7930   19.4590  -31.3770 C   0  0  0  0  0  0  0  0  0  0  0  0
   -8.2310   18.1990  -31.6020 C   0  0  0  0  0  0  0  0  0  0  0  0
   -7.2560   18.0320  -32.5890 C   0  0  0  0  0  0  0  0  0  0  0  0
   -6.8400   19.1270  -33.3520 C   0  0  0  0  0  0  0  0  0  0  0  0
   -7.3990   20.3890  -33.1310 C   0  0  0  0  0  0  0  0  0  0  0  0
   -5.5690   22.7420  -32.3260 C   0  0  0  0  0  0  0  0  0  0  0  0
   -4.2990   22.7410  -31.7410 C   0  0  0  0  0  0  0  0  0  0  0  0
   -1.6460   23.0270  -30.4570 N   0  0  0  0  0  0  0  0  0  0  0  0
   -0.6490   22.9780  -29.5860 N   0  0  0  0  0  0  0  0  0  0  0  0
   -0.9030   24.9230  -29.6910 H   0  0  0  0  0  0  0  0  0  0  0  0
   -0.4558   26.8114  -27.7028 H   0  0  0  0  0  0  0  0  0  0  0  0
   -1.5197   25.4259  -27.2836 H   0  0  0  0  0  0  0  0  0  0  0  0
    1.3196   23.9037  -26.3701 H   0  0  0  0  0  0  0  0  0  0  0  0
   -0.3452   24.5280  -26.0190 H   0  0  0  0  0  0  0  0  0  0  0  0
    0.5187   21.9999  -27.3715 H   0  0  0  0  0  0  0  0  0  0  0  0
   -0.9153   22.3426  -26.3370 H   0  0  0  0  0  0  0  0  0  0  0  0
   -3.1578   22.7029  -27.5691 H   0  0  0  0  0  0  0  0  0  0  0  0
   -5.1972   23.2595  -28.4824 H   0  0  0  0  0  0  0  0  0  0  0  0
   -7.4566   23.2570  -29.5257 H   0  0  0  0  0  0  0  0  0  0  0  0
   -9.3744   21.9568  -30.8664 H   0  0  0  0  0  0  0  0  0  0  0  0
   -9.8032   22.0827  -32.6173 H   0  0  0  0  0  0  0  0  0  0  0  0
   -9.5543   19.5875  -30.5935 H   0  0  0  0  0  0  0  0  0  0  0  0
   -8.5569   17.3373  -31.0009 H   0  0  0  0  0  0  0  0  0  0  0  0
   -6.8160   17.0394  -32.7655 H   0  0  0  0  0  0  0  0  0  0  0  0
   -6.0713   18.9953  -34.1278 H   0  0  0  0  0  0  0  0  0  0  0  0
   -7.0632   21.2496  -33.7282 H   0  0  0  0  0  0  0  0  0  0  0  0
   -5.6723   22.5936  -33.4110 H   0  0  0  0  0  0  0  0  0  0  0  0
   -3.4094   22.5932  -32.3708 H   0  0  0  0  0  0  0  0  0  0  0  0
  1  2  1  0
  2  3  1  0
  3  4  1  0
  4  5  1  0
  5  6  1  0
  6  7  1  0
  7  8  2  0
  8  9  1  0
  9 10  2  0
 10 11  1  0
 11 12  2  0
 12 13  1  0
 13 14  1  0
 14 15  1  0
 15 16  2  0
 16 17  1  0
 17 18  2  0
 18 19  1  0
 19 20  2  0
 12 21  1  0
 21 22  2  0
  8 23  1  0
 23 24  2  0
 24  6  1  0
 22  9  1  0
 20 15  1  0
  1 25  1  0
  2 26  1  0
  2 27  1  0
  4 28  1  0
  4 29  1  0
  5 30  1  0
  5 31  1  0
  7 32  1  0
 10 33  1  0
 11 34  1  0
 14 35  1  0
 14 36  1  0
 16 37  1  0
 17 38  1  0
 18 39  1  0
 19 40  1  0
 20 41  1  0
 21 42  1  0
 22 43  1  0
M  END
>  <UniqueID>  (27) 
25

>  <SMILES>  (27) 
OCOCCn1cc(-c2ccc(OCc3ccccc3)cc2)nn1

>  <Energy>  (27) 
81.8671561252298

>  <Genealogy>  (27) 
OCOCCn1cc(-c2ccc(OCc3ccccc3)cc2)nn1 (3D coordinates assigned)
OCOCCn1cc(-c2ccc(OCc3ccccc3)cc2)nn1 (optimized conformer: 81.8671561252298 kcal/mol)

>  <smiles>  (27) 
OCOCCn1cc(-c2ccc(OCc3ccccc3)cc2)nn1

>  <score_type>  (27) 
oracle

>  <origin>  (27) 
adgpu

>  <m_score__min__energy>  (27) 
-7.8700000000000001

>  <m_primary>  (27) 
energy

$$$$
27:0
     RDKit          3D

 31 32  0  0  0  0  0  0  0  0999 V2000
   -1.2470   26.4130  -27.5420 C   0  0  0  0  0  0  0  0  0  0  0  0
   -1.5170   25.2060  -28.3840 C   0  0  0  0  0  0  0  0  0  0  0  0
   -0.7180   24.0670  -28.2650 C   0  0  0  0  0  0  0  0  0  0  0  0
   -0.9660   22.9480  -29.0750 C   0  0  0  0  0  0  0  0  0  0  0  0
   -0.0870   21.7330  -28.9330 C   0  0  0  0  0  0  0  0  0  0  0  0
   -2.0500   22.9810  -29.9870 C   0  0  0  0  0  0  0  0  0  0  0  0
   -2.3550   21.8030  -30.8930 C   0  0  0  0  0  0  0  0  0  0  0  0
   -3.7960   21.6720  -31.1020 N   0  0  0  0  0  0  0  0  0  0  0  0
   -4.3270   20.7770  -32.0900 C   0  0  0  0  0  0  0  0  0  0  0  0
   -3.5450   20.0710  -32.7820 O   0  0  0  0  0  0  0  0  0  0  0  0
   -5.7770   20.6600  -32.3210 C   0  0  0  0  0  0  0  0  0  0  0  0
   -6.4210   19.7630  -33.1560 C   0  0  0  0  0  0  0  0  0  0  0  0
   -7.7670   20.0380  -33.0370 C   0  0  0  0  0  0  0  0  0  0  0  0
   -7.8590   21.0810  -32.1410 C   0  0  0  0  0  0  0  0  0  0  0  0
   -9.4770   21.9080  -31.5660 Br  0  0  0  0  0  0  0  0  0  0  0  0
   -6.6640   21.4310  -31.7300 O   0  0  0  0  0  0  0  0  0  0  0  0
   -2.8070   24.1670  -30.0900 C   0  0  0  0  0  0  0  0  0  0  0  0
   -3.7510   24.2580  -30.9200 O   0  0  0  0  0  0  0  0  0  0  0  0
   -2.5250   25.2290  -29.2940 N   0  0  0  0  0  0  0  0  0  0  0  0
   -1.3082   26.1392  -26.4784 H   0  0  0  0  0  0  0  0  0  0  0  0
   -0.2406   26.7975  -27.7643 H   0  0  0  0  0  0  0  0  0  0  0  0
   -1.9936   27.1896  -27.7643 H   0  0  0  0  0  0  0  0  0  0  0  0
    0.1058   24.0468  -27.5364 H   0  0  0  0  0  0  0  0  0  0  0  0
    0.0697   21.5165  -27.8660 H   0  0  0  0  0  0  0  0  0  0  0  0
   -0.5721   20.8712  -29.4147 H   0  0  0  0  0  0  0  0  0  0  0  0
    0.8833   21.9241  -29.4147 H   0  0  0  0  0  0  0  0  0  0  0  0
   -1.8617   21.9570  -31.8641 H   0  0  0  0  0  0  0  0  0  0  0  0
   -1.9815   20.8844  -30.4169 H   0  0  0  0  0  0  0  0  0  0  0  0
   -4.4490   22.2440  -30.5200 H   0  0  0  0  0  0  0  0  0  0  0  0
   -5.9550   18.9901  -33.7849 H   0  0  0  0  0  0  0  0  0  0  0  0
   -8.5961   19.5298  -33.5511 H   0  0  0  0  0  0  0  0  0  0  0  0
  1  2  1  0
  2  3  2  0
  3  4  1  0
  4  5  1  0
  4  6  2  0
  6  7  1  0
  7  8  1  0
  8  9  1  0
  9 10  2  0
  9 11  1  0
 11 12  2  0
 12 13  1  0
 13 14  2  0
 14 15  1  0
 14 16  1  0
  6 17  1  0
 17 18  2  0
 17 19  1  0
 19  2  1  0
 16 11  1  0
  1 20  1  0
  1 21  1  0
  1 22  1  0
  3 23  1  0
  5 24  1  0
  5 25  1  0
  5 26  1  0
  7 27  1  0
  7 28  1  0
  8 29  1  0
 12 30  1  0
 13 31  1  0
M  CHG  1  19  -1
M  END
>  <UniqueID>  (28) 
26

>  <SMILES>  (28) 
Cc1cc(C)c(CNC(=O)c2ccc(Br)o2)c(=O)[n-]1

>  <Energy>  (28) 
55.97006595867211

>  <Genealogy>  (28) 
Cc1cc(C)c(CNC(=O)c2ccc(Br)o2)c(=O)[n-]1 (protonated)
Cc1cc(C)c(CNC(=O)c2ccc(Br)o2)c(=O)[n-]1 (3D coordinates assigned)
Cc1cc(C)c(CNC(=O)c2ccc(Br)o2)c(=O)[n-]1 (optimized conformer: 55.97006595867211 kcal/mol)

>  <smiles>  (28) 
Cc1cc(C)c(CNC(=O)c2ccc(Br)o2)c(=O)[nH]1

>  <score_type>  (28) 
oracle

>  <origin>  (28) 
adgpu

>  <m_score__min__energy>  (28) 
-7.7999999999999998

>  <m_primary>  (28) 
energy

$$$$
28:0
     RDKit          3D

 51 54  0  0  0  0  0  0  0  0999 V2000
   -5.3590   26.4410  -30.4990 O   0  0  0  0  0  0  0  0  0  0  0  0
   -4.9100   25.2860  -30.2830 C   0  0  0  0  0  0  0  0  0  0  0  0
   -3.4910   25.0750  -30.3040 N   0  0  0  0  0  0  0  0  0  0  0  0
   -2.7220   24.5020  -29.2370 C   0  0  0  0  0  0  0  0  0  0  0  0
   -1.4420   25.0010  -28.9730 C   0  0  0  0  0  0  0  0  0  0  0  0
   -0.6440   24.4130  -27.9860 C   0  0  0  0  0  0  0  0  0  0  0  0
   -1.1310   23.3300  -27.2300 C   0  0  0  0  0  0  0  0  0  0  0  0
   -0.3690   22.6910  -26.2390 O   0  0  0  0  0  0  0  0  0  0  0  0
   -0.2670   23.1100  -24.8770 C   0  0  0  0  0  0  0  0  0  0  0  0
   -0.2850   24.6120  -24.7730 C   0  0  0  0  0  0  0  0  0  0  0  0
   -1.4970   25.3130  -24.8960 C   0  0  0  0  0  0  0  0  0  0  0  0
   -1.5190   26.7070  -24.7850 C   0  0  0  0  0  0  0  0  0  0  0  0
   -0.3360   27.4090  -24.5410 C   0  0  0  0  0  0  0  0  0  0  0  0
    0.8710   26.7180  -24.4040 C   0  0  0  0  0  0  0  0  0  0  0  0
    0.8970   25.3240  -24.5130 C   0  0  0  0  0  0  0  0  0  0  0  0
   -2.4270   22.8590  -27.4730 C   0  0  0  0  0  0  0  0  0  0  0  0
   -3.2220   23.4420  -28.4630 C   0  0  0  0  0  0  0  0  0  0  0  0
   -5.8320   24.2170  -30.0240 N   0  0  0  0  0  0  0  0  0  0  0  0
   -6.1740   23.1770  -30.9510 C   0  0  0  0  0  0  0  0  0  0  0  0
   -5.1980   22.5590  -31.7480 C   0  0  0  0  0  0  0  0  0  0  0  0
   -5.5390   21.4830  -32.5700 C   0  0  0  0  0  0  0  0  0  0  0  0
   -6.8650   21.0170  -32.6100 C   0  0  0  0  0  0  0  0  0  0  0  0
   -7.2360   19.9160  -33.3950 O   0  0  0  0  0  0  0  0  0  0  0  0
   -6.5080   18.7200  -33.5020 C   0  0  0  0  0  0  0  0  0  0  0  0
   -6.6080   17.6970  -32.5390 C   0  0  0  0  0  0  0  0  0  0  0  0
   -5.8710   16.5170  -32.6860 C   0  0  0  0  0  0  0  0  0  0  0  0
   -5.0460   16.3420  -33.7990 C   0  0  0  0  0  0  0  0  0  0  0  0
   -4.9600   17.3440  -34.7710 C   0  0  0  0  0  0  0  0  0  0  0  0
   -5.6930   18.5260  -34.6250 C   0  0  0  0  0  0  0  0  0  0  0  0
   -7.8490   21.6870  -31.8770 C   0  0  0  0  0  0  0  0  0  0  0  0
   -7.5070   22.7630  -31.0520 C   0  0  0  0  0  0  0  0  0  0  0  0
   -1.0611   25.8602  -29.5445 H   0  0  0  0  0  0  0  0  0  0  0  0
    0.3691   24.7988  -27.7997 H   0  0  0  0  0  0  0  0  0  0  0  0
   -1.1154   22.6997  -24.3097 H   0  0  0  0  0  0  0  0  0  0  0  0
    0.6846   22.7411  -24.4666 H   0  0  0  0  0  0  0  0  0  0  0  0
   -2.4317   24.7632  -25.0803 H   0  0  0  0  0  0  0  0  0  0  0  0
   -2.4691   27.2514  -24.8900 H   0  0  0  0  0  0  0  0  0  0  0  0
   -0.3546   28.5056  -24.4567 H   0  0  0  0  0  0  0  0  0  0  0  0
    1.8018   27.2713  -24.2102 H   0  0  0  0  0  0  0  0  0  0  0  0
    1.8474   24.7830  -24.3946 H   0  0  0  0  0  0  0  0  0  0  0  0
   -2.8229   22.0222  -26.8789 H   0  0  0  0  0  0  0  0  0  0  0  0
   -4.2424   23.0698  -28.6368 H   0  0  0  0  0  0  0  0  0  0  0  0
   -4.1605   22.9237  -31.7250 H   0  0  0  0  0  0  0  0  0  0  0  0
   -4.7684   20.9987  -33.1878 H   0  0  0  0  0  0  0  0  0  0  0  0
   -7.2678   17.8263  -31.6684 H   0  0  0  0  0  0  0  0  0  0  0  0
   -5.9414   15.7265  -31.9243 H   0  0  0  0  0  0  0  0  0  0  0  0
   -4.4635   15.4157  -33.9113 H   0  0  0  0  0  0  0  0  0  0  0  0
   -4.3153   17.2022  -35.6509 H   0  0  0  0  0  0  0  0  0  0  0  0
   -5.6293   19.3078  -35.3962 H   0  0  0  0  0  0  0  0  0  0  0  0
   -8.8986   21.3658  -31.9497 H   0  0  0  0  0  0  0  0  0  0  0  0
   -8.2882   23.2857  -30.4806 H   0  0  0  0  0  0  0  0  0  0  0  0
  1  2  2  0
  2  3  1  0
  3  4  1  0
  4  5  2  0
  5  6  1  0
  6  7  2  0
  7  8  1  0
  8  9  1  0
  9 10  1  0
 10 11  2  0
 11 12  1  0
 12 13  2  0
 13 14  1  0
 14 15  2  0
  7 16  1  0
 16 17  2  0
  2 18  1  0
 18 19  1  0
 19 20  2  0
 20 21  1  0
 21 22  2  0
 22 23  1  0
 23 24  1  0
 24 25  2  0
 25 26  1  0
 26 27  2  0
 27 28  1  0
 28 29  2  0
 22 30  1  0
 30 31  2  0
 17  4  1  0
 31 19  1  0
 15 10  1  0
 29 24  1  0
  5 32  1  0
  6 33  1  0
  9 34  1  0
  9 35  1  0
 11 36  1  0
 12 37  1  0
 13 38  1  0
 14 39  1  0
 15 40  1  0
 16 41  1  0
 17 42  1  0
 20 43  1  0
 21 44  1  0
 25 45  1  0
 26 46  1  0
 27 47  1  0
 28 48  1  0
 29 49  1  0
 30 50  1  0
 31 51  1  0
M  CHG  2   3  -1  18  -1
M  END
>  <UniqueID>  (29) 
27

>  <SMILES>  (29) 
O=C([N-]c1ccc(OCc2ccccc2)cc1)[N-]c1ccc(Oc2ccccc2)cc1

>  <Energy>  (29) 
67.14733732477542

>  <Genealogy>  (29) 
O=C([N-]c1ccc(OCc2ccccc2)cc1)[N-]c1ccc(Oc2ccccc2)cc1 (protonated)
O=C([N-]c1ccc(OCc2ccccc2)cc1)[N-]c1ccc(Oc2ccccc2)cc1 (3D coordinates assigned)
O=C([N-]c1ccc(OCc2ccccc2)cc1)[N-]c1ccc(Oc2ccccc2)cc1 (optimized conformer: 67.14733732477542 kcal/mol)

>  <smiles>  (29) 
O=C(Nc1ccc(OCc2ccccc2)cc1)Nc1ccc(Oc2ccccc2)cc1

>  <score_type>  (29) 
oracle

>  <origin>  (29) 
adgpu

>  <m_score__min__energy>  (29) 
-11.359999999999999

>  <m_primary>  (29) 
energy

$$$$
29:0
     RDKit          3D

 34 36  0  0  0  0  0  0  0  0999 V2000
   -4.9800   12.3960  -31.8660 C   0  0  0  0  0  0  0  0  0  0  0  0
   -4.3220   12.4960  -33.2380 C   0  0  0  0  0  0  0  0  0  0  0  0
   -5.0480   13.3870  -34.0860 O   0  0  0  0  0  0  0  0  0  0  0  0
   -5.4020   14.7100  -33.7690 C   0  0  0  0  0  0  0  0  0  0  0  0
   -6.5950   15.3090  -34.2170 C   0  0  0  0  0  0  0  0  0  0  0  0
   -6.8960   16.6290  -33.8680 C   0  0  0  0  0  0  0  0  0  0  0  0
   -6.0160   17.3710  -33.0660 C   0  0  0  0  0  0  0  0  0  0  0  0
   -6.3400   18.7640  -32.7020 C   0  0  0  0  0  0  0  0  0  0  0  0
   -7.5840   19.2810  -32.6900 N   0  0  0  0  0  0  0  0  0  0  0  0
   -7.4610   20.5440  -32.3140 N   0  0  0  0  0  0  0  0  0  0  0  0
   -6.1450   20.7520  -32.1120 C   0  0  0  0  0  0  0  0  0  0  0  0
   -5.5580   22.0360  -31.6800 C   0  0  0  0  0  0  0  0  0  0  0  0
   -6.3330   23.2100  -31.6670 C   0  0  0  0  0  0  0  0  0  0  0  0
   -5.7680   24.4220  -31.2560 C   0  0  0  0  0  0  0  0  0  0  0  0
   -4.4300   24.4730  -30.8550 C   0  0  0  0  0  0  0  0  0  0  0  0
   -3.8720   25.6790  -30.4470 O   0  0  0  0  0  0  0  0  0  0  0  0
   -3.6540   23.3100  -30.8640 C   0  0  0  0  0  0  0  0  0  0  0  0
   -4.2140   22.0970  -31.2750 C   0  0  0  0  0  0  0  0  0  0  0  0
   -5.4530   19.6640  -32.3490 O   0  0  0  0  0  0  0  0  0  0  0  0
   -4.8280   16.7710  -32.6160 C   0  0  0  0  0  0  0  0  0  0  0  0
   -4.5290   15.4520  -32.9660 C   0  0  0  0  0  0  0  0  0  0  0  0
   -4.2157   12.5122  -31.0835 H   0  0  0  0  0  0  0  0  0  0  0  0
   -5.7344   13.1898  -31.7624 H   0  0  0  0  0  0  0  0  0  0  0  0
   -5.4645   11.4139  -31.7624 H   0  0  0  0  0  0  0  0  0  0  0  0
   -3.2942   12.8694  -33.1185 H   0  0  0  0  0  0  0  0  0  0  0  0
   -4.3159   11.4974  -33.6993 H   0  0  0  0  0  0  0  0  0  0  0  0
   -7.2934   14.7358  -34.8444 H   0  0  0  0  0  0  0  0  0  0  0  0
   -7.8294   17.0890  -34.2248 H   0  0  0  0  0  0  0  0  0  0  0  0
   -7.3866   23.1749  -31.9810 H   0  0  0  0  0  0  0  0  0  0  0  0
   -6.3783   25.3372  -31.2484 H   0  0  0  0  0  0  0  0  0  0  0  0
   -2.6013   23.3496  -30.5472 H   0  0  0  0  0  0  0  0  0  0  0  0
   -3.5990   21.1850  -31.2814 H   0  0  0  0  0  0  0  0  0  0  0  0
   -4.1305   17.3421  -31.9856 H   0  0  0  0  0  0  0  0  0  0  0  0
   -3.5969   14.9917  -32.6063 H   0  0  0  0  0  0  0  0  0  0  0  0
  1  2  1  0
  2  3  1  0
  3  4  1  0
  4  5  2  0
  5  6  1  0
  6  7  2  0
  7  8  1  0
  8  9  2  0
  9 10  1  0
 10 11  2  0
 11 12  1  0
 12 13  2  0
 13 14  1  0
 14 15  2  0
 15 16  1  0
 15 17  1  0
 17 18  2  0
 11 19  1  0
  7 20  1  0
 20 21  2  0
 21  4  1  0
 19  8  1  0
 18 12  1  0
  1 22  1  0
  1 23  1  0
  1 24  1  0
  2 25  1  0
  2 26  1  0
  5 27  1  0
  6 28  1  0
 13 29  1  0
 14 30  1  0
 17 31  1  0
 18 32  1  0
 20 33  1  0
 21 34  1  0
M  CHG  1  16  -1
M  END
>  <UniqueID>  (30) 
28

>  <SMILES>  (30) 
CCOc1ccc(-c2nnc(-c3ccc([O-])cc3)o2)cc1

>  <Energy>  (30) 
69.43073712862495

>  <Genealogy>  (30) 
CCOc1ccc(-c2nnc(-c3ccc([O-])cc3)o2)cc1 (protonated)
CCOc1ccc(-c2nnc(-c3ccc([O-])cc3)o2)cc1 (3D coordinates assigned)
CCOc1ccc(-c2nnc(-c3ccc([O-])cc3)o2)cc1 (optimized conformer: 69.43073712862495 kcal/mol)

>  <smiles>  (30) 
CCOc1ccc(-c2nnc(-c3ccc(O)cc3)o2)cc1

>  <score_type>  (30) 
oracle

>  <origin>  (30) 
adgpu

>  <m_score__min__energy>  (30) 
-9.1600000000000001

>  <m_primary>  (30) 
energy

$$$$
30:0
     RDKit          3D

 19 20  0  0  0  0  0  0  0  0999 V2000
   -8.7490   20.0980  -32.4910 C   0  0  0  0  0  0  0  0  0  0  0  0
   -7.3580   20.1150  -32.6080 C   0  0  0  0  0  0  0  0  0  0  0  0
   -6.6340   21.2400  -32.2020 C   0  0  0  0  0  0  0  0  0  0  0  0
   -7.2970   22.3650  -31.6740 C   0  0  0  0  0  0  0  0  0  0  0  0
   -6.5150   23.5510  -31.2480 C   0  0  0  0  0  0  0  0  0  0  0  0
   -6.7190   24.3250  -30.1140 C   0  0  0  0  0  0  0  0  0  0  0  0
   -5.7400   25.2920  -30.1740 C   0  0  0  0  0  0  0  0  0  0  0  0
   -5.0060   25.0950  -31.2810 N   0  0  0  0  0  0  0  0  0  0  0  0
   -5.4660   24.0430  -31.9390 N   0  0  0  0  0  0  0  0  0  0  0  0
   -8.7010   22.3340  -31.5620 C   0  0  0  0  0  0  0  0  0  0  0  0
   -9.4190   21.2060  -31.9690 C   0  0  0  0  0  0  0  0  0  0  0  0
   -9.3171   19.2117  -32.8101 H   0  0  0  0  0  0  0  0  0  0  0  0
   -6.8308   19.2420  -33.0202 H   0  0  0  0  0  0  0  0  0  0  0  0
   -5.5380   21.2466  -32.2956 H   0  0  0  0  0  0  0  0  0  0  0  0
   -7.4901   24.1951  -29.3404 H   0  0  0  0  0  0  0  0  0  0  0  0
   -5.5850   26.0935  -29.4367 H   0  0  0  0  0  0  0  0  0  0  0  0
   -4.1930   25.6720  -31.5910 H   0  0  0  0  0  0  0  0  0  0  0  0
   -9.2357   23.2033  -31.1515 H   0  0  0  0  0  0  0  0  0  0  0  0
  -10.5151   21.1912  -31.8778 H   0  0  0  0  0  0  0  0  0  0  0  0
  1  2  2  0
  2  3  1  0
  3  4  2  0
  4  5  1  0
  5  6  1  0
  6  7  2  0
  7  8  1  0
  8  9  1  0
  4 10  1  0
 10 11  2  0
 11  1  1  0
  9  5  2  0
  1 12  1  0
  2 13  1  0
  3 14  1  0
  6 15  1  0
  7 16  1  0
  8 17  1  0
 10 18  1  0
 11 19  1  0
M  END
>  <UniqueID>  (31) 
29

>  <SMILES>  (31) 
c1ccc(-c2cc[nH]n2)cc1

>  <Energy>  (31) 
50.284541835687904

>  <Genealogy>  (31) 
c1ccc(-c2cc[nH]n2)cc1 (3D coordinates assigned)
c1ccc(-c2cc[nH]n2)cc1 (optimized conformer: 50.284541835687904 kcal/mol)

>  <smiles>  (31) 
c1ccc(-c2cc[nH]n2)cc1

>  <score_type>  (31) 
oracle

>  <origin>  (31) 
adgpu

>  <m_score__min__energy>  (31) 
-6.2800000000000002

>  <m_primary>  (31) 
energy

$$$$
31:0
     RDKit          3D

 30 31  0  0  0  0  0  0  0  0999 V2000
    0.8200   27.5090  -23.5900 C   0  0  0  0  0  0  0  0  0  0  0  0
   -0.8620   26.8590  -23.3530 S   0  0  0  0  0  0  0  0  0  0  0  0
   -1.0780   26.4490  -25.0870 C   0  0  0  0  0  0  0  0  0  0  0  0
   -0.3290   27.1150  -26.0630 C   0  0  0  0  0  0  0  0  0  0  0  0
   -0.4970   26.7980  -27.4150 C   0  0  0  0  0  0  0  0  0  0  0  0
   -1.4350   25.8220  -27.8010 C   0  0  0  0  0  0  0  0  0  0  0  0
   -1.6210   25.4520  -29.1740 N   0  0  0  0  0  0  0  0  0  0  0  0
   -2.5970   24.5320  -29.6750 C   0  0  0  0  0  0  0  0  0  0  0  0
   -2.5240   23.3220  -29.3360 O   0  0  0  0  0  0  0  0  0  0  0  0
   -3.7050   25.0020  -30.4550 N   0  0  0  0  0  0  0  0  0  0  0  0
   -4.8640   24.2460  -30.8350 C   0  0  0  0  0  0  0  0  0  0  0  0
   -6.1290   24.7310  -30.4740 C   0  0  0  0  0  0  0  0  0  0  0  0
   -7.2850   24.0370  -30.8440 C   0  0  0  0  0  0  0  0  0  0  0  0
   -7.1870   22.8600  -31.5910 C   0  0  0  0  0  0  0  0  0  0  0  0
   -8.3110   22.1910  -31.9500 F   0  0  0  0  0  0  0  0  0  0  0  0
   -5.9320   22.3820  -31.9780 C   0  0  0  0  0  0  0  0  0  0  0  0
   -5.8350   21.2530  -32.7230 F   0  0  0  0  0  0  0  0  0  0  0  0
   -4.7720   23.0740  -31.6090 C   0  0  0  0  0  0  0  0  0  0  0  0
   -2.1650   25.1450  -26.8160 C   0  0  0  0  0  0  0  0  0  0  0  0
   -1.9950   25.4620  -25.4660 C   0  0  0  0  0  0  0  0  0  0  0  0
    1.2852   27.6888  -22.6095 H   0  0  0  0  0  0  0  0  0  0  0  0
    1.4198   26.7779  -24.1519 H   0  0  0  0  0  0  0  0  0  0  0  0
    0.7723   28.4535  -24.1519 H   0  0  0  0  0  0  0  0  0  0  0  0
    0.3936   27.8896  -25.7666 H   0  0  0  0  0  0  0  0  0  0  0  0
    0.1052   27.3126  -28.1783 H   0  0  0  0  0  0  0  0  0  0  0  0
   -6.2125   25.6632  -29.8961 H   0  0  0  0  0  0  0  0  0  0  0  0
   -8.2731   24.4180  -30.5467 H   0  0  0  0  0  0  0  0  0  0  0  0
   -3.7866   22.7008  -31.9247 H   0  0  0  0  0  0  0  0  0  0  0  0
   -2.8768   24.3586  -27.1072 H   0  0  0  0  0  0  0  0  0  0  0  0
   -2.5827   24.9351  -24.6999 H   0  0  0  0  0  0  0  0  0  0  0  0
  1  2  1  0
  2  3  1  0
  3  4  2  0
  4  5  1  0
  5  6  2  0
  6  7  1  0
  7  8  1  0
  8  9  2  0
  8 10  1  0
 10 11  1  0
 11 12  2  0
 12 13  1  0
 13 14  2  0
 14 15  1  0
 14 16  1  0
 16 17  1  0
 16 18  2  0
  6 19  1  0
 19 20  2  0
 20  3  1  0
 18 11  1  0
  1 21  1  0
  1 22  1  0
  1 23  1  0
  4 24  1  0
  5 25  1  0
 12 26  1  0
 13 27  1  0
 18 28  1  0
 19 29  1  0
 20 30  1  0
M  CHG  2   7  -1  10  -1
M  END
>  <UniqueID>  (32) 
30

>  <SMILES>  (32) 
CSc1ccc([N-]C(=O)[N-]c2ccc(F)c(F)c2)cc1

>  <Energy>  (32) 
33.165302827000716

>  <Genealogy>  (32) 
CSc1ccc([N-]C(=O)[N-]c2ccc(F)c(F)c2)cc1 (protonated)
CSc1ccc([N-]C(=O)[N-]c2ccc(F)c(F)c2)cc1 (3D coordinates assigned)
CSc1ccc([N-]C(=O)[N-]c2ccc(F)c(F)c2)cc1 (optimized conformer: 33.165302827000716 kcal/mol)

>  <smiles>  (32) 
CSc1ccc(NC(=O)Nc2ccc(F)c(F)c2)cc1

>  <score_type>  (32) 
oracle

>  <origin>  (32) 
adgpu

>  <m_score__min__energy>  (32) 
-9.9000000000000004

>  <m_primary>  (32) 
energy

$$$$
32:0
     RDKit          3D

 28 30  0  0  0  0  0  0  0  0999 V2000
   -3.4970   23.1870  -29.5970 O   0  0  0  0  0  0  0  0  0  0  0  0
   -3.2010   24.4090  -29.6420 C   0  0  0  0  0  0  0  0  0  0  0  0
   -3.8650   25.2420  -30.6040 N   0  0  0  0  0  0  0  0  0  0  0  0
   -5.3080   25.3630  -30.7950 C   0  0  0  0  0  0  0  0  0  0  0  0
   -5.8960   24.0620  -31.2740 C   0  0  0  0  0  0  0  0  0  0  0  0
   -5.0830   23.1290  -31.9690 C   0  0  0  0  0  0  0  0  0  0  0  0
   -5.6140   21.9020  -32.4040 C   0  0  0  0  0  0  0  0  0  0  0  0
   -6.9540   21.6430  -32.1340 C   0  0  0  0  0  0  0  0  0  0  0  0
   -7.7400   22.5330  -31.4780 C   0  0  0  0  0  0  0  0  0  0  0  0
   -7.2550   23.7590  -31.0320 C   0  0  0  0  0  0  0  0  0  0  0  0
   -9.0140   22.0150  -31.3510 O   0  0  0  0  0  0  0  0  0  0  0  0
   -9.0300   20.7190  -31.9660 C   0  0  0  0  0  0  0  0  0  0  0  0
   -7.6950   20.5210  -32.4530 O   0  0  0  0  0  0  0  0  0  0  0  0
   -2.2180   24.9300  -28.6780 C   0  0  0  0  0  0  0  0  0  0  0  0
   -1.9660   24.4490  -27.4070 C   0  0  0  0  0  0  0  0  0  0  0  0
   -0.9890   25.2690  -26.8860 C   0  0  0  0  0  0  0  0  0  0  0  0
   -0.7130   26.2040  -27.8620 C   0  0  0  0  0  0  0  0  0  0  0  0
   -1.4660   25.9800  -28.9140 O   0  0  0  0  0  0  0  0  0  0  0  0
   -5.7762   25.6398  -29.8389 H   0  0  0  0  0  0  0  0  0  0  0  0
   -5.4992   26.1363  -31.5536 H   0  0  0  0  0  0  0  0  0  0  0  0
   -4.0281   23.3680  -32.1691 H   0  0  0  0  0  0  0  0  0  0  0  0
   -4.9907   21.1711  -32.9400 H   0  0  0  0  0  0  0  0  0  0  0  0
   -7.9095   24.4704  -30.5071 H   0  0  0  0  0  0  0  0  0  0  0  0
   -9.2913   19.9450  -31.2294 H   0  0  0  0  0  0  0  0  0  0  0  0
   -9.7768   20.6535  -32.7710 H   0  0  0  0  0  0  0  0  0  0  0  0
   -2.4455   23.5904  -26.9141 H   0  0  0  0  0  0  0  0  0  0  0  0
   -0.5231   25.1934  -25.8924 H   0  0  0  0  0  0  0  0  0  0  0  0
    0.0257   27.0141  -27.7725 H   0  0  0  0  0  0  0  0  0  0  0  0
  1  2  2  0
  2  3  1  0
  3  4  1  0
  4  5  1  0
  5  6  2  0
  6  7  1  0
  7  8  2  0
  8  9  1  0
  9 10  2  0
  9 11  1  0
 11 12  1  0
 12 13  1  0
  2 14  1  0
 14 15  2  0
 15 16  1  0
 16 17  2  0
 17 18  1  0
 10  5  1  0
 18 14  1  0
 13  8  1  0
  4 19  1  0
  4 20  1  0
  6 21  1  0
  7 22  1  0
 10 23  1  0
 12 24  1  0
 12 25  1  0
 15 26  1  0
 16 27  1  0
 17 28  1  0
M  CHG  1   3  -1
M  END
>  <UniqueID>  (33) 
31

>  <SMILES>  (33) 
O=C([N-]Cc1ccc2c(c1)OCO2)c1ccco1

>  <Energy>  (33) 
84.95442834395375

>  <Genealogy>  (33) 
O=C([N-]Cc1ccc2c(c1)OCO2)c1ccco1 (protonated)
O=C([N-]Cc1ccc2c(c1)OCO2)c1ccco1 (3D coordinates assigned)
O=C([N-]Cc1ccc2c(c1)OCO2)c1ccco1 (nonaromatic ring conformer: 84.95442834395375 kcal/mol)

>  <smiles>  (33) 
O=C(NCc1ccc2c(c1)OCO2)c1ccco1

>  <score_type>  (33) 
oracle

>  <origin>  (33) 
adgpu

>  <m_score__min__energy>  (33) 
-8.1099999999999994

>  <m_primary>  (33) 
energy

$$$$
33:0
     RDKit          3D

 40 41  0  0  0  0  0  0  0  0999 V2000
   -5.4000   25.1610  -30.6970 C   0  0  0  0  0  0  0  0  0  0  0  0
   -4.0810   24.6410  -30.8240 O   0  0  0  0  0  0  0  0  0  0  0  0
   -3.3980   23.9390  -29.8180 C   0  0  0  0  0  0  0  0  0  0  0  0
   -2.5440   24.5910  -28.9060 C   0  0  0  0  0  0  0  0  0  0  0  0
   -1.9200   23.8720  -27.8840 C   0  0  0  0  0  0  0  0  0  0  0  0
   -2.1450   22.5020  -27.7540 C   0  0  0  0  0  0  0  0  0  0  0  0
   -2.9830   21.8420  -28.6540 C   0  0  0  0  0  0  0  0  0  0  0  0
   -3.5930   22.5450  -29.7030 C   0  0  0  0  0  0  0  0  0  0  0  0
   -4.4560   21.8360  -30.6070 N   0  0  0  0  0  0  0  0  0  0  0  0
   -4.2870   21.8280  -32.0350 C   0  0  0  0  0  0  0  0  0  0  0  0
   -2.7830   21.9250  -32.6880 S   0  0  0  0  0  0  0  0  0  0  0  0
   -5.3890   21.4820  -32.8870 N   0  0  0  0  0  0  0  0  0  0  0  0
   -6.7660   21.6470  -32.5040 C   0  0  0  0  0  0  0  0  0  0  0  0
   -7.2970   22.9320  -32.2870 C   0  0  0  0  0  0  0  0  0  0  0  0
   -8.6470   23.0950  -31.9700 C   0  0  0  0  0  0  0  0  0  0  0  0
   -9.4840   21.9820  -31.8780 C   0  0  0  0  0  0  0  0  0  0  0  0
   -8.9730   20.7030  -32.1030 C   0  0  0  0  0  0  0  0  0  0  0  0
   -7.6170   20.5250  -32.4160 C   0  0  0  0  0  0  0  0  0  0  0  0
   -7.1070   19.1990  -32.6160 N   0  0  0  0  0  0  0  0  0  0  0  0
   -7.3470   18.1780  -31.5940 C   0  0  0  0  0  0  0  0  0  0  0  0
   -6.4120   18.8840  -33.8650 C   0  0  0  0  0  0  0  0  0  0  0  0
   -5.6537   25.2610  -29.6313 H   0  0  0  0  0  0  0  0  0  0  0  0
   -5.4534   26.1475  -31.1808 H   0  0  0  0  0  0  0  0  0  0  0  0
   -6.1122   24.4764  -31.1808 H   0  0  0  0  0  0  0  0  0  0  0  0
   -2.3678   25.6728  -28.9996 H   0  0  0  0  0  0  0  0  0  0  0  0
   -1.2498   24.3874  -27.1803 H   0  0  0  0  0  0  0  0  0  0  0  0
   -1.6613   21.9407  -26.9410 H   0  0  0  0  0  0  0  0  0  0  0  0
   -3.1662   20.7634  -28.5398 H   0  0  0  0  0  0  0  0  0  0  0  0
   -5.1910   21.2160  -30.1990 H   0  0  0  0  0  0  0  0  0  0  0  0
   -5.1800   21.0820  -33.8300 H   0  0  0  0  0  0  0  0  0  0  0  0
   -6.6443   23.8137  -32.3676 H   0  0  0  0  0  0  0  0  0  0  0  0
   -9.0515   24.1024  -31.7925 H   0  0  0  0  0  0  0  0  0  0  0  0
  -10.5472   22.1130  -31.6280 H   0  0  0  0  0  0  0  0  0  0  0  0
   -9.6375   19.8290  -32.0345 H   0  0  0  0  0  0  0  0  0  0  0  0
   -7.2415   18.6269  -30.5953 H   0  0  0  0  0  0  0  0  0  0  0  0
   -8.3642   17.7756  -31.7095 H   0  0  0  0  0  0  0  0  0  0  0  0
   -6.6156   17.3646  -31.7095 H   0  0  0  0  0  0  0  0  0  0  0  0
   -5.4318   18.4397  -33.6372 H   0  0  0  0  0  0  0  0  0  0  0  0
   -7.0117   18.1697  -34.4482 H   0  0  0  0  0  0  0  0  0  0  0  0
   -6.2702   19.8058  -34.4482 H   0  0  0  0  0  0  0  0  0  0  0  0
  1  2  1  0
  2  3  1  0
  3  4  2  0
  4  5  1  0
  5  6  2  0
  6  7  1  0
  7  8  2  0
  8  9  1  0
  9 10  1  0
 10 11  2  0
 10 12  1  0
 12 13  1  0
 13 14  2  0
 14 15  1  0
 15 16  2  0
 16 17  1  0
 17 18  2  0
 18 19  1  0
 19 20  1  0
 19 21  1  0
  8  3  1  0
 18 13  1  0
  1 22  1  0
  1 23  1  0
  1 24  1  0
  4 25  1  0
  5 26  1  0
  6 27  1  0
  7 28  1  0
  9 29  1  0
 12 30  1  0
 14 31  1  0
 15 32  1  0
 16 33  1  0
 17 34  1  0
 20 35  1  0
 20 36  1  0
 20 37  1  0
 21 38  1  0
 21 39  1  0
 21 40  1  0
M  END
>  <UniqueID>  (34) 
32

>  <SMILES>  (34) 
COc1ccccc1NC(=S)Nc1ccccc1N(C)C

>  <Energy>  (34) 
51.57891309241803

>  <Genealogy>  (34) 
COc1ccccc1NC(=S)Nc1ccccc1N(C)C (3D coordinates assigned)
COc1ccccc1NC(=S)Nc1ccccc1N(C)C (optimized conformer: 51.57891309241803 kcal/mol)

>  <smiles>  (34) 
COc1ccccc1NC(=S)Nc1ccccc1N(C)C

>  <score_type>  (34) 
oracle

>  <origin>  (34) 
adgpu

>  <m_score__min__energy>  (34) 
-7.3799999999999999

>  <m_primary>  (34) 
energy

$$$$
34:0
     RDKit          3D

 33 35  0  0  0  0  0  0  0  0999 V2000
   -7.7330   25.7000  -30.4470 H   0  0  0  0  0  0  0  0  0  0  0  0
   -6.8780   25.1010  -30.3960 N   0  0  0  0  0  0  0  0  0  0  0  0
   -6.8460   23.8930  -30.8690 C   0  0  0  0  0  0  0  0  0  0  0  0
   -5.6640   23.1200  -30.7840 C   0  0  0  0  0  0  0  0  0  0  0  0
   -4.4270   23.6350  -30.1330 C   0  0  0  0  0  0  0  0  0  0  0  0
   -3.7830   24.7600  -30.5050 N   0  0  0  0  0  0  0  0  0  0  0  0
   -2.7310   24.9260  -29.7180 N   0  0  0  0  0  0  0  0  0  0  0  0
   -2.6930   23.9110  -28.8370 C   0  0  0  0  0  0  0  0  0  0  0  0
   -1.9310   23.7768  -28.0551 H   0  0  0  0  0  0  0  0  0  0  0  0
   -3.7550   23.0660  -29.0650 C   0  0  0  0  0  0  0  0  0  0  0  0
   -4.0121   22.1453  -28.5208 H   0  0  0  0  0  0  0  0  0  0  0  0
   -5.6790   21.8250  -31.3280 C   0  0  0  0  0  0  0  0  0  0  0  0
   -4.7730   21.2037  -31.2722 H   0  0  0  0  0  0  0  0  0  0  0  0
   -6.8310   21.3120  -31.9410 C   0  0  0  0  0  0  0  0  0  0  0  0
   -6.8430   19.9420  -32.5150 C   0  0  0  0  0  0  0  0  0  0  0  0
   -7.6200   18.9280  -31.9280 C   0  0  0  0  0  0  0  0  0  0  0  0
   -8.2254   19.1500  -31.0369 H   0  0  0  0  0  0  0  0  0  0  0  0
   -7.6280   17.6410  -32.4690 C   0  0  0  0  0  0  0  0  0  0  0  0
   -8.2396   16.8541  -32.0035 H   0  0  0  0  0  0  0  0  0  0  0  0
   -6.8620   17.3500  -33.5990 C   0  0  0  0  0  0  0  0  0  0  0  0
   -6.8715   16.3328  -34.0175 H   0  0  0  0  0  0  0  0  0  0  0  0
   -6.0830   18.3410  -34.2030 C   0  0  0  0  0  0  0  0  0  0  0  0
   -5.3330   17.9980  -35.3390 O   0  0  0  0  0  0  0  0  0  0  0  0
   -4.2760   17.0440  -35.3470 C   0  0  0  0  0  0  0  0  0  0  0  0
   -3.9995   16.7944  -34.3120 H   0  0  0  0  0  0  0  0  0  0  0  0
   -4.6077   16.1335  -35.8676 H   0  0  0  0  0  0  0  0  0  0  0  0
   -3.4042   17.4670  -35.8676 H   0  0  0  0  0  0  0  0  0  0  0  0
   -6.0760   19.6400  -33.6570 C   0  0  0  0  0  0  0  0  0  0  0  0
   -5.4659   20.4254  -34.1270 H   0  0  0  0  0  0  0  0  0  0  0  0
   -7.9730   22.1210  -31.9940 C   0  0  0  0  0  0  0  0  0  0  0  0
   -8.8899   21.7398  -32.4673 H   0  0  0  0  0  0  0  0  0  0  0  0
   -7.9580   23.3720  -31.4660 N   0  0  0  0  0  0  0  0  0  0  0  0
   -8.8310   23.9440  -31.5340 H   0  0  0  0  0  0  0  0  0  0  0  0
  1  2  1  0
  2  3  2  0
  3  4  1  0
  4  5  1  0
  5  6  2  0
  6  7  1  0
  7  8  1  0
  8  9  1  0
  8 10  2  0
 10 11  1  0
  4 12  2  0
 12 13  1  0
 12 14  1  0
 14 15  1  0
 15 16  2  0
 16 17  1  0
 16 18  1  0
 18 19  1  0
 18 20  2  0
 20 21  1  0
 20 22  1  0
 22 23  1  0
 23 24  1  0
 24 25  1  0
 24 26  1  0
 24 27  1  0
 22 28  2  0
 28 29  1  0
 14 30  2  0
 30 31  1  0
 30 32  1  0
 32 33  1  0
 32  3  1  0
 10  5  1  0
 28 15  1  0
M  CHG  1   7  -1
M  END
>  <UniqueID>  (35) 
33

>  <SMILES>  (35) 
[H]/N=c1\[nH]cc(-c2cccc(OC)c2)cc1-c1cc[n-]n1

>  <Energy>  (35) 
73.7254206394909

>  <Genealogy>  (35) 
COc1cccc(-c2c[nH]c(=N)c(-c3cc[n-]n3)c2)c1 (protonated)
[H]/N=c1\[nH]cc(-c2cccc(OC)c2)cc1-c1cc[n-]n1 (cis-trans isomerization)
[H]/N=c1\[nH]cc(-c2cccc(OC)c2)cc1-c1cc[n-]n1 (3D coordinates assigned)
[H]/N=c1\[nH]cc(-c2cccc(OC)c2)cc1-c1cc[n-]n1 (optimized conformer: 73.7254206394909 kcal/mol)

>  <smiles>  (35) 
COc1cccc(-c2c[nH]c(=N)c(-c3cc[nH]n3)c2)c1

>  <score_type>  (35) 
oracle

>  <origin>  (35) 
adgpu

>  <m_score__min__energy>  (35) 
-9.3900000000000006

>  <m_primary>  (35) 
energy

$$$$
35:0
     RDKit          3D

 37 39  0  0  0  0  0  0  0  0999 V2000
   -1.5100   21.8990  -31.7320 N   0  0  0  0  0  0  0  0  0  0  0  0
   -2.2520   20.8660  -32.3920 C   0  0  0  0  0  0  0  0  0  0  0  0
   -1.5890   19.6970  -32.7980 C   0  0  0  0  0  0  0  0  0  0  0  0
   -2.2690   18.7070  -33.5110 C   0  0  0  0  0  0  0  0  0  0  0  0
   -3.6170   18.8760  -33.8300 C   0  0  0  0  0  0  0  0  0  0  0  0
   -4.2920   20.0300  -33.4250 C   0  0  0  0  0  0  0  0  0  0  0  0
   -3.6280   21.0190  -32.6850 C   0  0  0  0  0  0  0  0  0  0  0  0
   -4.3630   22.1750  -32.2610 N   0  0  0  0  0  0  0  0  0  0  0  0
   -4.4270   22.5810  -30.8850 C   0  0  0  0  0  0  0  0  0  0  0  0
   -3.7710   21.9500  -30.0110 O   0  0  0  0  0  0  0  0  0  0  0  0
   -5.2450   23.7390  -30.4750 C   0  0  0  0  0  0  0  0  0  0  0  0
   -4.7840   25.0700  -30.4670 C   0  0  0  0  0  0  0  0  0  0  0  0
   -3.5060   25.4430  -30.8640 O   0  0  0  0  0  0  0  0  0  0  0  0
   -5.7260   26.0020  -30.0530 C   0  0  0  0  0  0  0  0  0  0  0  0
   -7.1520   25.1840  -29.7030 S   0  0  0  0  0  0  0  0  0  0  0  0
   -6.5860   23.6440  -30.0950 C   0  0  0  0  0  0  0  0  0  0  0  0
   -7.3070   22.4200  -29.8920 N   0  0  0  0  0  0  0  0  0  0  0  0
   -7.8330   21.6160  -30.9610 C   0  0  0  0  0  0  0  0  0  0  0  0
   -7.0390   20.6490  -31.6050 C   0  0  0  0  0  0  0  0  0  0  0  0
   -7.5800   19.8590  -32.6260 C   0  0  0  0  0  0  0  0  0  0  0  0
   -8.9180   20.0170  -33.0000 C   0  0  0  0  0  0  0  0  0  0  0  0
   -9.7180   20.9600  -32.3490 C   0  0  0  0  0  0  0  0  0  0  0  0
   -9.1800   21.7500  -31.3280 C   0  0  0  0  0  0  0  0  0  0  0  0
   -1.8800   22.3860  -30.8860 H   0  0  0  0  0  0  0  0  0  0  0  0
   -0.6040   22.2370  -32.1270 H   0  0  0  0  0  0  0  0  0  0  0  0
   -0.5255   19.5596  -32.5526 H   0  0  0  0  0  0  0  0  0  0  0  0
   -1.7414   17.7931  -33.8214 H   0  0  0  0  0  0  0  0  0  0  0  0
   -4.1483   18.1001  -34.4007 H   0  0  0  0  0  0  0  0  0  0  0  0
   -5.3516   20.1639  -33.6883 H   0  0  0  0  0  0  0  0  0  0  0  0
   -4.9660   22.6520  -32.9670 H   0  0  0  0  0  0  0  0  0  0  0  0
   -5.5668   27.0872  -29.9687 H   0  0  0  0  0  0  0  0  0  0  0  0
   -7.5420   22.1450  -28.9120 H   0  0  0  0  0  0  0  0  0  0  0  0
   -5.9894   20.5135  -31.3050 H   0  0  0  0  0  0  0  0  0  0  0  0
   -6.9518   19.1130  -33.1347 H   0  0  0  0  0  0  0  0  0  0  0  0
   -9.3407   19.3994  -33.8062 H   0  0  0  0  0  0  0  0  0  0  0  0
  -10.7719   21.0810  -32.6399 H   0  0  0  0  0  0  0  0  0  0  0  0
   -9.8175   22.4812  -30.8094 H   0  0  0  0  0  0  0  0  0  0  0  0
  1  2  1  0
  2  3  2  0
  3  4  1  0
  4  5  2  0
  5  6  1  0
  6  7  2  0
  7  8  1  0
  8  9  1  0
  9 10  2  0
  9 11  1  0
 11 12  1  0
 12 13  1  0
 12 14  2  0
 14 15  1  0
 15 16  1  0
 16 17  1  0
 17 18  1  0
 18 19  2  0
 19 20  1  0
 20 21  2  0
 21 22  1  0
 22 23  2  0
  7  2  1  0
 16 11  2  0
 23 18  1  0
  1 24  1  0
  1 25  1  0
  3 26  1  0
  4 27  1  0
  5 28  1  0
  6 29  1  0
  8 30  1  0
 14 31  1  0
 17 32  1  0
 19 33  1  0
 20 34  1  0
 21 35  1  0
 22 36  1  0
 23 37  1  0
M  CHG  1  13  -1
M  END
>  <UniqueID>  (36) 
34

>  <SMILES>  (36) 
Nc1ccccc1NC(=O)c1c([O-])csc1Nc1ccccc1

>  <Energy>  (36) 
80.36282907333141

>  <Genealogy>  (36) 
Nc1ccccc1NC(=O)c1c([O-])csc1Nc1ccccc1 (protonated)
Nc1ccccc1NC(=O)c1c([O-])csc1Nc1ccccc1 (3D coordinates assigned)
Nc1ccccc1NC(=O)c1c([O-])csc1Nc1ccccc1 (optimized conformer: 80.36282907333141 kcal/mol)

>  <smiles>  (36) 
Nc1ccccc1NC(=O)c1c(O)csc1Nc1ccccc1

>  <score_type>  (36) 
oracle

>  <origin>  (36) 
adgpu

>  <m_score__min__energy>  (36) 
-10.73

>  <m_primary>  (36) 
energy

$$$$
36:0
     RDKit          3D

 35 36  0  0  0  0  0  0  0  0999 V2000
   -0.8680   26.6260  -27.8340 C   0  0  0  0  0  0  0  0  0  0  0  0
   -1.5270   26.0030  -28.9310 O   0  0  0  0  0  0  0  0  0  0  0  0
   -1.8440   24.6360  -28.9980 C   0  0  0  0  0  0  0  0  0  0  0  0
   -1.0670   23.6570  -28.3460 C   0  0  0  0  0  0  0  0  0  0  0  0
   -1.3950   22.3050  -28.4620 C   0  0  0  0  0  0  0  0  0  0  0  0
   -2.4820   21.9140  -29.2430 C   0  0  0  0  0  0  0  0  0  0  0  0
   -3.2570   22.8750  -29.8950 C   0  0  0  0  0  0  0  0  0  0  0  0
   -2.9700   24.2430  -29.7410 C   0  0  0  0  0  0  0  0  0  0  0  0
   -3.7340   25.2460  -30.4250 N   0  0  0  0  0  0  0  0  0  0  0  0
   -5.1610   25.3090  -30.5650 C   0  0  0  0  0  0  0  0  0  0  0  0
   -5.7280   26.4260  -30.4430 O   0  0  0  0  0  0  0  0  0  0  0  0
   -6.0130   24.0790  -30.7040 C   0  0  0  0  0  0  0  0  0  0  0  0
   -5.7340   23.3090  -32.3330 S   0  0  0  0  0  0  0  0  0  0  0  0
   -6.9330   21.9960  -32.0840 C   0  0  0  0  0  0  0  0  0  0  0  0
   -6.6020   20.6960  -31.9670 N   0  0  0  0  0  0  0  0  0  0  0  0
   -7.8130   20.1160  -31.8000 C   0  0  0  0  0  0  0  0  0  0  0  0
   -8.0100   18.6480  -31.6370 C   0  0  0  0  0  0  0  0  0  0  0  0
   -8.8290   21.0000  -31.8220 N   0  0  0  0  0  0  0  0  0  0  0  0
   -8.2620   22.1800  -31.9880 N   0  0  0  0  0  0  0  0  0  0  0  0
   -8.9960   23.4330  -32.1170 C   0  0  0  0  0  0  0  0  0  0  0  0
   -1.2791   26.2374  -26.8906 H   0  0  0  0  0  0  0  0  0  0  0  0
    0.2092   26.4084  -27.8818 H   0  0  0  0  0  0  0  0  0  0  0  0
   -1.0248   27.7137  -27.8818 H   0  0  0  0  0  0  0  0  0  0  0  0
   -0.1982   23.9598  -27.7430 H   0  0  0  0  0  0  0  0  0  0  0  0
   -0.7952   21.5472  -27.9366 H   0  0  0  0  0  0  0  0  0  0  0  0
   -2.7292   20.8471  -29.3455 H   0  0  0  0  0  0  0  0  0  0  0  0
   -4.0965   22.5604  -30.5325 H   0  0  0  0  0  0  0  0  0  0  0  0
   -5.7500   23.3621  -29.9122 H   0  0  0  0  0  0  0  0  0  0  0  0
   -7.0724   24.3612  -30.6144 H   0  0  0  0  0  0  0  0  0  0  0  0
   -8.0434   18.3992  -30.5660 H   0  0  0  0  0  0  0  0  0  0  0  0
   -8.9562   18.3500  -32.1123 H   0  0  0  0  0  0  0  0  0  0  0  0
   -7.1759   18.1111  -32.1123 H   0  0  0  0  0  0  0  0  0  0  0  0
   -9.2270   23.8273  -31.1164 H   0  0  0  0  0  0  0  0  0  0  0  0
   -8.3824   24.1625  -32.6660 H   0  0  0  0  0  0  0  0  0  0  0  0
   -9.9324   23.2546  -32.6660 H   0  0  0  0  0  0  0  0  0  0  0  0
  1  2  1  0
  2  3  1  0
  3  4  2  0
  4  5  1  0
  5  6  2  0
  6  7  1  0
  7  8  2  0
  8  9  1  0
  9 10  1  0
 10 11  2  0
 10 12  1  0
 12 13  1  0
 13 14  1  0
 14 15  2  0
 15 16  1  0
 16 17  1  0
 16 18  2  0
 18 19  1  0
 19 20  1  0
  8  3  1  0
 19 14  1  0
  1 21  1  0
  1 22  1  0
  1 23  1  0
  4 24  1  0
  5 25  1  0
  6 26  1  0
  7 27  1  0
 12 28  1  0
 12 29  1  0
 17 30  1  0
 17 31  1  0
 17 32  1  0
 20 33  1  0
 20 34  1  0
 20 35  1  0
M  CHG  1   9  -1
M  END
>  <UniqueID>  (37) 
35

>  <SMILES>  (37) 
COc1ccccc1[N-]C(=O)CSc1nc(C)nn1C

>  <Energy>  (37) 
63.52484701511216

>  <Genealogy>  (37) 
COc1ccccc1[N-]C(=O)CSc1nc(C)nn1C (protonated)
COc1ccccc1[N-]C(=O)CSc1nc(C)nn1C (3D coordinates assigned)
COc1ccccc1[N-]C(=O)CSc1nc(C)nn1C (optimized conformer: 63.52484701511216 kcal/mol)

>  <smiles>  (37) 
COc1ccccc1NC(=O)CSc1nc(C)nn1C

>  <score_type>  (37) 
oracle

>  <origin>  (37) 
adgpu

>  <m_score__min__energy>  (37) 
-9.3200000000000003

>  <m_primary>  (37) 
energy

$$$$
37:0
     RDKit          3D

 35 37  0  0  0  0  0  0  0  0999 V2000
   -2.1660   21.8630  -30.5690 C   0  0  0  0  0  0  0  0  0  0  0  0
   -3.5760   22.1600  -30.8190 N   0  0  0  0  0  0  0  0  0  0  0  0
   -4.2400   23.3380  -30.7090 C   0  0  0  0  0  0  0  0  0  0  0  0
   -3.6540   24.6330  -30.3130 C   0  0  0  0  0  0  0  0  0  0  0  0
   -4.2900   25.6920  -30.5640 O   0  0  0  0  0  0  0  0  0  0  0  0
   -2.3590   24.6930  -29.7040 N   0  0  0  0  0  0  0  0  0  0  0  0
   -2.0500   25.1830  -28.3910 C   0  0  0  0  0  0  0  0  0  0  0  0
   -2.7790   24.7870  -27.2540 C   0  0  0  0  0  0  0  0  0  0  0  0
   -2.4270   25.2710  -25.9890 C   0  0  0  0  0  0  0  0  0  0  0  0
   -1.3400   26.1390  -25.8470 C   0  0  0  0  0  0  0  0  0  0  0  0
   -0.8610   26.7960  -24.1190 Br  0  0  0  0  0  0  0  0  0  0  0  0
   -0.5980   26.5170  -26.9700 C   0  0  0  0  0  0  0  0  0  0  0  0
   -0.9480   26.0340  -28.2350 C   0  0  0  0  0  0  0  0  0  0  0  0
   -5.5530   23.1910  -30.9970 N   0  0  0  0  0  0  0  0  0  0  0  0
   -5.7360   21.9150  -31.3030 N   0  0  0  0  0  0  0  0  0  0  0  0
   -7.0130   21.3510  -31.6540 C   0  0  0  0  0  0  0  0  0  0  0  0
   -8.2180   21.9750  -31.2760 C   0  0  0  0  0  0  0  0  0  0  0  0
   -9.4470   21.4030  -31.6170 C   0  0  0  0  0  0  0  0  0  0  0  0
   -9.4900   20.2020  -32.3290 C   0  0  0  0  0  0  0  0  0  0  0  0
   -8.3020   19.5670  -32.6960 C   0  0  0  0  0  0  0  0  0  0  0  0
   -7.0700   20.1330  -32.3570 C   0  0  0  0  0  0  0  0  0  0  0  0
   -4.5430   21.2970  -31.1840 C   0  0  0  0  0  0  0  0  0  0  0  0
   -4.3580   20.0610  -31.3470 O   0  0  0  0  0  0  0  0  0  0  0  0
   -1.9860   21.8251  -29.4845 H   0  0  0  0  0  0  0  0  0  0  0  0
   -1.9109   20.8914  -31.0172 H   0  0  0  0  0  0  0  0  0  0  0  0
   -1.5406   22.6491  -31.0172 H   0  0  0  0  0  0  0  0  0  0  0  0
   -3.6277   24.0952  -27.3600 H   0  0  0  0  0  0  0  0  0  0  0  0
   -3.0066   24.9680  -25.1046 H   0  0  0  0  0  0  0  0  0  0  0  0
    0.2614   27.1945  -26.8586 H   0  0  0  0  0  0  0  0  0  0  0  0
   -0.3537   26.3244  -29.1139 H   0  0  0  0  0  0  0  0  0  0  0  0
   -8.1917   22.9175  -30.7094 H   0  0  0  0  0  0  0  0  0  0  0  0
  -10.3833   21.9003  -31.3237 H   0  0  0  0  0  0  0  0  0  0  0  0
  -10.4587   19.7570  -32.6002 H   0  0  0  0  0  0  0  0  0  0  0  0
   -8.3358   18.6192  -33.2532 H   0  0  0  0  0  0  0  0  0  0  0  0
   -6.1380   19.6228  -32.6417 H   0  0  0  0  0  0  0  0  0  0  0  0
  1  2  1  0
  2  3  1  0
  3  4  1  0
  4  5  2  0
  4  6  1  0
  6  7  1  0
  7  8  2  0
  8  9  1  0
  9 10  2  0
 10 11  1  0
 10 12  1  0
 12 13  2  0
  3 14  2  0
 14 15  1  0
 15 16  1  0
 16 17  2  0
 17 18  1  0
 18 19  2  0
 19 20  1  0
 20 21  2  0
 15 22  1  0
 22 23  2  0
 22  2  1  0
 13  7  1  0
 21 16  1  0
  1 24  1  0
  1 25  1  0
  1 26  1  0
  8 27  1  0
  9 28  1  0
 12 29  1  0
 13 30  1  0
 17 31  1  0
 18 32  1  0
 19 33  1  0
 20 34  1  0
 21 35  1  0
M  CHG  1   6  -1
M  END
>  <UniqueID>  (38) 
36

>  <SMILES>  (38) 
Cn1c(C(=O)[N-]c2ccc(Br)cc2)nn(-c2ccccc2)c1=O

>  <Energy>  (38) 
82.67438141383332

>  <Genealogy>  (38) 
Cn1c(C(=O)[N-]c2ccc(Br)cc2)nn(-c2ccccc2)c1=O (protonated)
Cn1c(C(=O)[N-]c2ccc(Br)cc2)nn(-c2ccccc2)c1=O (3D coordinates assigned)
Cn1c(C(=O)[N-]c2ccc(Br)cc2)nn(-c2ccccc2)c1=O (optimized conformer: 82.67438141383332 kcal/mol)

>  <smiles>  (38) 
Cn1c(C(=O)Nc2ccc(Br)cc2)nn(-c2ccccc2)c1=O

>  <score_type>  (38) 
oracle

>  <origin>  (38) 
adgpu

>  <m_score__min__energy>  (38) 
-9.8499999999999996

>  <m_primary>  (38) 
energy

$$$$
38:0
     RDKit          3D

 40 42  0  0  0  0  0  0  0  0999 V2000
   -1.8600   25.3140  -29.3010 O   0  0  0  0  0  0  0  0  0  0  0  0
   -2.7500   24.5180  -29.7020 C   0  0  0  0  0  0  0  0  0  0  0  0
   -3.8660   25.0410  -30.4320 N   0  0  0  0  0  0  0  0  0  0  0  0
   -5.0870   24.3370  -30.6930 C   0  0  0  0  0  0  0  0  0  0  0  0
   -5.6090   23.4860  -29.7120 C   0  0  0  0  0  0  0  0  0  0  0  0
   -6.7750   22.7560  -29.9580 C   0  0  0  0  0  0  0  0  0  0  0  0
   -7.4420   22.8840  -31.1850 C   0  0  0  0  0  0  0  0  0  0  0  0
   -8.8550   21.8890  -31.5390 S   0  0  0  0  0  0  0  0  0  0  0  0
   -9.8230   22.6800  -32.3740 O   0  0  0  0  0  0  0  0  0  0  0  0
   -9.5420   21.5240  -30.2510 O   0  0  0  0  0  0  0  0  0  0  0  0
   -8.4060   20.4320  -32.3960 N   0  0  0  0  0  0  0  0  0  0  0  0
   -8.7340   19.2380  -31.5850 C   0  0  0  0  0  0  0  0  0  0  0  0
   -7.9820   17.9990  -32.0830 C   0  0  0  0  0  0  0  0  0  0  0  0
   -6.4600   18.1880  -31.9570 C   0  0  0  0  0  0  0  0  0  0  0  0
   -6.0380   19.6670  -32.0060 C   0  0  0  0  0  0  0  0  0  0  0  0
   -7.0020   20.4900  -32.8730 C   0  0  0  0  0  0  0  0  0  0  0  0
   -6.9530   23.7800  -32.1450 C   0  0  0  0  0  0  0  0  0  0  0  0
   -5.7850   24.5060  -31.9010 C   0  0  0  0  0  0  0  0  0  0  0  0
   -2.6480   23.0860  -29.3550 C   0  0  0  0  0  0  0  0  0  0  0  0
   -2.2760   22.0680  -30.2260 C   0  0  0  0  0  0  0  0  0  0  0  0
   -2.2210   20.8080  -29.6170 C   0  0  0  0  0  0  0  0  0  0  0  0
   -2.5350   20.8270  -28.2650 C   0  0  0  0  0  0  0  0  0  0  0  0
   -2.8780   22.4130  -27.8280 S   0  0  0  0  0  0  0  0  0  0  0  0
   -5.0987   23.3913  -28.7421 H   0  0  0  0  0  0  0  0  0  0  0  0
   -7.1709   22.0789  -29.1868 H   0  0  0  0  0  0  0  0  0  0  0  0
   -8.4552   19.4290  -30.5382 H   0  0  0  0  0  0  0  0  0  0  0  0
   -9.8135   19.0460  -31.6731 H   0  0  0  0  0  0  0  0  0  0  0  0
   -8.2869   17.1285  -31.4837 H   0  0  0  0  0  0  0  0  0  0  0  0
   -8.2285   17.8431  -33.1436 H   0  0  0  0  0  0  0  0  0  0  0  0
   -6.1306   17.7598  -30.9988 H   0  0  0  0  0  0  0  0  0  0  0  0
   -5.9907   17.6806  -32.8128 H   0  0  0  0  0  0  0  0  0  0  0  0
   -6.0375   20.0742  -30.9842 H   0  0  0  0  0  0  0  0  0  0  0  0
   -5.0325   19.7284  -32.4479 H   0  0  0  0  0  0  0  0  0  0  0  0
   -6.6721   21.5393  -32.8642 H   0  0  0  0  0  0  0  0  0  0  0  0
   -6.9811   20.0608  -33.8856 H   0  0  0  0  0  0  0  0  0  0  0  0
   -7.4914   23.9122  -33.0951 H   0  0  0  0  0  0  0  0  0  0  0  0
   -5.4103   25.2122  -32.6566 H   0  0  0  0  0  0  0  0  0  0  0  0
   -2.0474   22.2358  -31.2888 H   0  0  0  0  0  0  0  0  0  0  0  0
   -1.9539   19.8891  -30.1594 H   0  0  0  0  0  0  0  0  0  0  0  0
   -2.5557   19.9546  -27.5953 H   0  0  0  0  0  0  0  0  0  0  0  0
  1  2  2  0
  2  3  1  0
  3  4  1  0
  4  5  2  0
  5  6  1  0
  6  7  2  0
  7  8  1  0
  8  9  2  0
  8 10  2  0
  8 11  1  0
 11 12  1  0
 12 13  1  0
 13 14  1  0
 14 15  1  0
 15 16  1  0
  7 17  1  0
 17 18  2  0
  2 19  1  0
 19 20  2  0
 20 21  1  0
 21 22  2  0
 22 23  1  0
 18  4  1  0
 23 19  1  0
 16 11  1  0
  5 24  1  0
  6 25  1  0
 12 26  1  0
 12 27  1  0
 13 28  1  0
 13 29  1  0
 14 30  1  0
 14 31  1  0
 15 32  1  0
 15 33  1  0
 16 34  1  0
 16 35  1  0
 17 36  1  0
 18 37  1  0
 20 38  1  0
 21 39  1  0
 22 40  1  0
M  CHG  1   3  -1
M  END
>  <UniqueID>  (39) 
37

>  <SMILES>  (39) 
O=C([N-]c1ccc(S(=O)(=O)N2CCCCC2)cc1)c1cccs1

>  <Energy>  (39) 
76.14125648360975

>  <Genealogy>  (39) 
O=C([N-]c1ccc(S(=O)(=O)N2CCCCC2)cc1)c1cccs1 (protonated)
O=C([N-]c1ccc(S(=O)(=O)N2CCCCC2)cc1)c1cccs1 (3D coordinates assigned)
O=C([N-]c1ccc(S(=O)(=O)N2CCCCC2)cc1)c1cccs1 (nonaromatic ring conformer: 76.14125648360975 kcal/mol)

>  <smiles>  (39) 
O=C(Nc1ccc(S(=O)(=O)N2CCCCC2)cc1)c1cccs1

>  <score_type>  (39) 
oracle

>  <origin>  (39) 
adgpu

>  <m_score__min__energy>  (39) 
-10.69

>  <m_primary>  (39) 
energy

$$$$
39:0
     RDKit          3D

 33 34  0  0  0  0  0  0  0  0999 V2000
   -6.1160   25.6810  -29.9530 C   0  0  0  0  0  0  0  0  0  0  0  0
   -5.0730   24.6680  -30.2920 C   0  0  0  0  0  0  0  0  0  0  0  0
   -3.8780   24.5980  -29.6710 N   0  0  0  0  0  0  0  0  0  0  0  0
   -3.1870   23.6150  -30.2290 N   0  0  0  0  0  0  0  0  0  0  0  0
   -1.8490   23.2290  -29.7960 C   0  0  0  0  0  0  0  0  0  0  0  0
   -3.9080   23.0520  -31.2240 C   0  0  0  0  0  0  0  0  0  0  0  0
   -3.5000   21.8400  -32.0080 C   0  0  0  0  0  0  0  0  0  0  0  0
   -5.1350   23.6850  -31.2690 C   0  0  0  0  0  0  0  0  0  0  0  0
   -6.2300   23.3590  -32.1340 N   0  0  0  0  0  0  0  0  0  0  0  0
   -7.6730   22.5960  -31.5460 S   0  0  0  0  0  0  0  0  0  0  0  0
   -7.7450   22.7510  -30.0530 O   0  0  0  0  0  0  0  0  0  0  0  0
   -8.8680   23.2630  -32.1630 O   0  0  0  0  0  0  0  0  0  0  0  0
   -7.6910   20.8940  -32.0010 C   0  0  0  0  0  0  0  0  0  0  0  0
   -6.6540   20.3710  -32.7870 C   0  0  0  0  0  0  0  0  0  0  0  0
   -6.6550   19.0190  -33.1430 C   0  0  0  0  0  0  0  0  0  0  0  0
   -7.6960   18.1860  -32.7240 C   0  0  0  0  0  0  0  0  0  0  0  0
   -8.7380   18.7040  -31.9500 C   0  0  0  0  0  0  0  0  0  0  0  0
   -8.7390   20.0560  -31.5910 C   0  0  0  0  0  0  0  0  0  0  0  0
   -6.2032   25.7657  -28.8597 H   0  0  0  0  0  0  0  0  0  0  0  0
   -5.8309   26.6561  -30.3747 H   0  0  0  0  0  0  0  0  0  0  0  0
   -7.0824   25.3675  -30.3747 H   0  0  0  0  0  0  0  0  0  0  0  0
   -1.8085   23.2173  -28.6968 H   0  0  0  0  0  0  0  0  0  0  0  0
   -1.6136   22.2263  -30.1823 H   0  0  0  0  0  0  0  0  0  0  0  0
   -1.1157   23.9522  -30.1823 H   0  0  0  0  0  0  0  0  0  0  0  0
   -3.2273   21.0300  -31.3155 H   0  0  0  0  0  0  0  0  0  0  0  0
   -4.3379   21.5140  -32.6417 H   0  0  0  0  0  0  0  0  0  0  0  0
   -2.6355   22.0871  -32.6417 H   0  0  0  0  0  0  0  0  0  0  0  0
   -6.0570   23.3080  -33.1610 H   0  0  0  0  0  0  0  0  0  0  0  0
   -5.8375   21.0264  -33.1244 H   0  0  0  0  0  0  0  0  0  0  0  0
   -5.8359   18.6107  -33.7533 H   0  0  0  0  0  0  0  0  0  0  0  0
   -7.6952   17.1221  -33.0035 H   0  0  0  0  0  0  0  0  0  0  0  0
   -9.5581   18.0480  -31.6228 H   0  0  0  0  0  0  0  0  0  0  0  0
   -9.5628   20.4629  -30.9862 H   0  0  0  0  0  0  0  0  0  0  0  0
  1  2  1  0
  2  3  2  0
  3  4  1  0
  4  5  1  0
  4  6  1  0
  6  7  1  0
  6  8  2  0
  8  9  1  0
  9 10  1  0
 10 11  2  0
 10 12  2  0
 10 13  1  0
 13 14  2  0
 14 15  1  0
 15 16  2  0
 16 17  1  0
 17 18  2  0
  8  2  1  0
 18 13  1  0
  1 19  1  0
  1 20  1  0
  1 21  1  0
  5 22  1  0
  5 23  1  0
  5 24  1  0
  7 25  1  0
  7 26  1  0
  7 27  1  0
  9 28  1  0
 14 29  1  0
 15 30  1  0
 16 31  1  0
 17 32  1  0
 18 33  1  0
M  END
>  <UniqueID>  (40) 
38

>  <SMILES>  (40) 
Cc1nn(C)c(C)c1NS(=O)(=O)c1ccccc1

>  <Energy>  (40) 
65.97579167092421

>  <Genealogy>  (40) 
Cc1nn(C)c(C)c1NS(=O)(=O)c1ccccc1 (3D coordinates assigned)
Cc1nn(C)c(C)c1NS(=O)(=O)c1ccccc1 (optimized conformer: 65.97579167092421 kcal/mol)

>  <smiles>  (40) 
Cc1nn(C)c(C)c1NS(=O)(=O)c1ccccc1

>  <score_type>  (40) 
oracle

>  <origin>  (40) 
adgpu

>  <m_score__min__energy>  (40) 
-7.9299999999999997

>  <m_primary>  (40) 
energy

$$$$
40:0
     RDKit          3D

 42 43  0  0  0  0  0  0  0  0999 V2000
   -5.9360   15.2230  -34.0890 C   0  0  0  0  0  0  0  0  0  0  0  0
   -6.0850   16.0640  -32.9480 O   0  0  0  0  0  0  0  0  0  0  0  0
   -6.3400   17.4440  -33.0020 C   0  0  0  0  0  0  0  0  0  0  0  0
   -7.6040   17.9740  -32.6930 C   0  0  0  0  0  0  0  0  0  0  0  0
   -7.8510   19.3470  -32.8140 C   0  0  0  0  0  0  0  0  0  0  0  0
   -9.1850   19.9210  -32.5110 C   0  0  0  0  0  0  0  0  0  0  0  0
   -9.3780   21.1080  -32.0070 N   0  0  0  0  0  0  0  0  0  0  0  0
   -8.3780   22.0120  -31.5090 C   0  0  0  0  0  0  0  0  0  0  0  0
   -7.9020   23.0280  -32.3450 C   0  0  0  0  0  0  0  0  0  0  0  0
   -6.9130   23.9070  -31.8930 C   0  0  0  0  0  0  0  0  0  0  0  0
   -6.4120   23.7960  -30.5900 C   0  0  0  0  0  0  0  0  0  0  0  0
   -5.1340   24.8710  -30.0360 S   0  0  0  0  0  0  0  0  0  0  0  0
   -4.8190   24.5700  -28.3640 N   0  0  0  0  0  0  0  0  0  0  0  0
   -3.8830   24.6290  -30.8340 O   0  0  0  0  0  0  0  0  0  0  0  0
   -5.5550   26.3020  -30.2220 O   0  0  0  0  0  0  0  0  0  0  0  0
   -6.9140   22.8040  -29.7380 C   0  0  0  0  0  0  0  0  0  0  0  0
   -7.9040   21.9260  -30.1880 C   0  0  0  0  0  0  0  0  0  0  0  0
   -6.8040   20.2030  -33.1650 C   0  0  0  0  0  0  0  0  0  0  0  0
   -5.5210   19.7000  -33.4560 C   0  0  0  0  0  0  0  0  0  0  0  0
   -4.4750   20.5630  -33.8190 O   0  0  0  0  0  0  0  0  0  0  0  0
   -4.0100   21.6590  -33.0370 C   0  0  0  0  0  0  0  0  0  0  0  0
   -5.2930   18.3010  -33.3820 C   0  0  0  0  0  0  0  0  0  0  0  0
   -4.0550   17.6940  -33.6700 O   0  0  0  0  0  0  0  0  0  0  0  0
   -2.7950   18.0210  -33.0940 C   0  0  0  0  0  0  0  0  0  0  0  0
   -5.7528   14.1891  -33.7610 H   0  0  0  0  0  0  0  0  0  0  0  0
   -6.8545   15.2587  -34.6933 H   0  0  0  0  0  0  0  0  0  0  0  0
   -5.0857   15.5721  -34.6933 H   0  0  0  0  0  0  0  0  0  0  0  0
   -8.4073   17.3039  -32.3528 H   0  0  0  0  0  0  0  0  0  0  0  0
  -10.0702   19.3043  -32.7258 H   0  0  0  0  0  0  0  0  0  0  0  0
   -8.3074   23.1357  -33.3619 H   0  0  0  0  0  0  0  0  0  0  0  0
   -6.5269   24.6888  -32.5636 H   0  0  0  0  0  0  0  0  0  0  0  0
   -4.6140   25.4930  -27.9200 H   0  0  0  0  0  0  0  0  0  0  0  0
   -5.7090   24.2230  -27.9420 H   0  0  0  0  0  0  0  0  0  0  0  0
   -6.5280   22.7157  -28.7118 H   0  0  0  0  0  0  0  0  0  0  0  0
   -8.3135   21.1656  -29.5068 H   0  0  0  0  0  0  0  0  0  0  0  0
   -6.9846   21.2869  -33.2149 H   0  0  0  0  0  0  0  0  0  0  0  0
   -4.1127   21.4170  -31.9689 H   0  0  0  0  0  0  0  0  0  0  0  0
   -2.9523   21.8524  -33.2691 H   0  0  0  0  0  0  0  0  0  0  0  0
   -4.6059   22.5540  -33.2691 H   0  0  0  0  0  0  0  0  0  0  0  0
   -2.8766   17.9998  -31.9972 H   0  0  0  0  0  0  0  0  0  0  0  0
   -2.0417   17.2886  -33.4198 H   0  0  0  0  0  0  0  0  0  0  0  0
   -2.4930   19.0273  -33.4198 H   0  0  0  0  0  0  0  0  0  0  0  0
  1  2  1  0
  2  3  1  0
  3  4  2  0
  4  5  1  0
  5  6  1  0
  6  7  2  3
  7  8  1  0
  8  9  2  0
  9 10  1  0
 10 11  2  0
 11 12  1  0
 12 13  1  0
 12 14  2  0
 12 15  2  0
 11 16  1  0
 16 17  2  0
  5 18  2  0
 18 19  1  0
 19 20  1  0
 20 21  1  0
 19 22  2  0
 22 23  1  0
 23 24  1  0
 22  3  1  0
 17  8  1  0
  1 25  1  0
  1 26  1  0
  1 27  1  0
  4 28  1  0
  6 29  1  0
  9 30  1  0
 10 31  1  0
 13 32  1  0
 13 33  1  0
 16 34  1  0
 17 35  1  0
 18 36  1  0
 21 37  1  0
 21 38  1  0
 21 39  1  0
 24 40  1  0
 24 41  1  0
 24 42  1  0
M  END
>  <UniqueID>  (41) 
39

>  <SMILES>  (41) 
COc1cc(C=Nc2ccc(S(N)(=O)=O)cc2)cc(OC)c1OC

>  <Energy>  (41) 
52.53791149636813

>  <Genealogy>  (41) 
COc1cc(C=Nc2ccc(S(N)(=O)=O)cc2)cc(OC)c1OC (3D coordinates assigned)
COc1cc(C=Nc2ccc(S(N)(=O)=O)cc2)cc(OC)c1OC (optimized conformer: 52.53791149636813 kcal/mol)

>  <smiles>  (41) 
COc1cc(C=Nc2ccc(S(N)(=O)=O)cc2)cc(OC)c1OC

>  <score_type>  (41) 
oracle

>  <origin>  (41) 
adgpu

>  <m_score__min__energy>  (41) 
-8.7799999999999994

>  <m_primary>  (41) 
energy

$$$$
41:0
     RDKit          3D

 26 28  0  0  0  0  0  0  0  0999 V2000
  -10.0300   17.7900  -30.7540 H   0  0  0  0  0  0  0  0  0  0  0  0
   -9.4630   17.9520  -31.6160 N   0  0  0  0  0  0  0  0  0  0  0  0
   -8.9450   19.1090  -31.8680 C   0  0  0  0  0  0  0  0  0  0  0  0
   -9.1010   20.4700  -30.8880 S   0  0  0  0  0  0  0  0  0  0  0  0
   -8.1670   21.3640  -31.9720 C   0  0  0  0  0  0  0  0  0  0  0  0
   -7.7460   23.0900  -31.7630 S   0  0  0  0  0  0  0  0  0  0  0  0
   -6.0020   22.8390  -32.2210 C   0  0  0  0  0  0  0  0  0  0  0  0
   -5.7167   21.7954  -32.0220 H   0  0  0  0  0  0  0  0  0  0  0  0
   -5.8677   23.0569  -33.2908 H   0  0  0  0  0  0  0  0  0  0  0  0
   -5.1410   23.7540  -31.4130 C   0  0  0  0  0  0  0  0  0  0  0  0
   -4.0620   23.3530  -30.7150 N   0  0  0  0  0  0  0  0  0  0  0  0
   -3.6570   24.4890  -30.1100 C   0  0  0  0  0  0  0  0  0  0  0  0
   -2.4880   24.5590  -29.2280 C   0  0  0  0  0  0  0  0  0  0  0  0
   -1.8260   25.6620  -28.9710 O   0  0  0  0  0  0  0  0  0  0  0  0
   -0.8410   25.3760  -28.1510 C   0  0  0  0  0  0  0  0  0  0  0  0
   -0.1136   26.1012  -27.7572 H   0  0  0  0  0  0  0  0  0  0  0  0
   -0.8570   24.0260  -27.8580 C   0  0  0  0  0  0  0  0  0  0  0  0
   -0.1605   23.4833  -27.2019 H   0  0  0  0  0  0  0  0  0  0  0  0
   -1.9220   23.4970  -28.5540 C   0  0  0  0  0  0  0  0  0  0  0  0
   -2.2517   22.4477  -28.5690 H   0  0  0  0  0  0  0  0  0  0  0  0
   -4.4220   25.5210  -30.3910 O   0  0  0  0  0  0  0  0  0  0  0  0
   -5.3620   25.0960  -31.1970 C   0  0  0  0  0  0  0  0  0  0  0  0
   -6.1774   25.6992  -31.6229 H   0  0  0  0  0  0  0  0  0  0  0  0
   -7.7710   20.6220  -33.0300 N   0  0  0  0  0  0  0  0  0  0  0  0
   -8.2070   19.3650  -32.9680 N   0  0  0  0  0  0  0  0  0  0  0  0
   -7.9880   18.6600  -33.7060 H   0  0  0  0  0  0  0  0  0  0  0  0
  1  2  1  0
  2  3  2  0
  3  4  1  0
  4  5  1  0
  5  6  1  0
  6  7  1  0
  7  8  1  0
  7  9  1  0
  7 10  1  0
 10 11  1  0
 11 12  2  0
 12 13  1  0
 13 14  1  0
 14 15  1  0
 15 16  1  0
 15 17  2  0
 17 18  1  0
 17 19  1  0
 19 20  1  0
 12 21  1  0
 21 22  1  0
 22 23  1  0
  5 24  2  0
 24 25  1  0
 25 26  1  0
 25  3  1  0
 22 10  2  0
 19 13  2  0
M  END
>  <UniqueID>  (42) 
40

>  <SMILES>  (42) 
[H]/N=c1/[nH]nc(SCc2coc(-c3ccco3)n2)s1

>  <Energy>  (42) 
111.50900477364102

>  <Genealogy>  (42) 
[H]/N=c1/[nH]nc(SCc2coc(-c3ccco3)n2)s1 (cis-trans isomerization)
[H]/N=c1/[nH]nc(SCc2coc(-c3ccco3)n2)s1 (3D coordinates assigned)
[H]/N=c1/[nH]nc(SCc2coc(-c3ccco3)n2)s1 (optimized conformer: 111.50900477364102 kcal/mol)

>  <smiles>  (42) 
N=c1[nH]nc(SCc2coc(-c3ccco3)n2)s1

>  <score_type>  (42) 
oracle

>  <origin>  (42) 
adgpu

>  <m_score__min__energy>  (42) 
-7.8099999999999996

>  <m_primary>  (42) 
energy

$$$$
42:0
     RDKit          3D

 32 33  0  0  0  0  0  0  0  0999 V2000
   -0.9000   23.0040  -29.7360 C   0  0  0  0  0  0  0  0  0  0  0  0
   -1.2060   23.7640  -28.4730 C   0  0  0  0  0  0  0  0  0  0  0  0
   -0.1450   24.2850  -27.7160 C   0  0  0  0  0  0  0  0  0  0  0  0
   -0.3950   25.0120  -26.5530 C   0  0  0  0  0  0  0  0  0  0  0  0
   -1.7060   25.2240  -26.1260 C   0  0  0  0  0  0  0  0  0  0  0  0
   -2.7840   24.6920  -26.8500 C   0  0  0  0  0  0  0  0  0  0  0  0
   -4.1910   24.9220  -26.3720 C   0  0  0  0  0  0  0  0  0  0  0  0
   -2.5360   23.9440  -28.0230 C   0  0  0  0  0  0  0  0  0  0  0  0
   -3.6390   23.4010  -28.7620 N   0  0  0  0  0  0  0  0  0  0  0  0
   -4.0720   23.9670  -30.0080 C   0  0  0  0  0  0  0  0  0  0  0  0
   -3.4830   24.9790  -30.4760 O   0  0  0  0  0  0  0  0  0  0  0  0
   -5.1900   23.3560  -30.7620 C   0  0  0  0  0  0  0  0  0  0  0  0
   -4.9490   22.2120  -31.5430 C   0  0  0  0  0  0  0  0  0  0  0  0
   -5.9830   21.6250  -32.2790 C   0  0  0  0  0  0  0  0  0  0  0  0
   -7.2650   22.1720  -32.2430 C   0  0  0  0  0  0  0  0  0  0  0  0
   -7.5200   23.3070  -31.4710 C   0  0  0  0  0  0  0  0  0  0  0  0
   -6.4930   23.9040  -30.7290 C   0  0  0  0  0  0  0  0  0  0  0  0
   -6.8970   25.2980  -29.7310 Cl  0  0  0  0  0  0  0  0  0  0  0  0
   -0.5005   22.0118  -29.4792 H   0  0  0  0  0  0  0  0  0  0  0  0
   -1.8211   22.8870  -30.3258 H   0  0  0  0  0  0  0  0  0  0  0  0
   -0.1548   23.5579  -30.3258 H   0  0  0  0  0  0  0  0  0  0  0  0
    0.8920   24.1184  -28.0430 H   0  0  0  0  0  0  0  0  0  0  0  0
    0.4441   25.4197  -25.9702 H   0  0  0  0  0  0  0  0  0  0  0  0
   -1.8960   25.8120  -25.2159 H   0  0  0  0  0  0  0  0  0  0  0  0
   -4.2087   24.9249  -25.2721 H   0  0  0  0  0  0  0  0  0  0  0  0
   -4.5519   25.8911  -26.7471 H   0  0  0  0  0  0  0  0  0  0  0  0
   -4.8417   24.1183  -26.7471 H   0  0  0  0  0  0  0  0  0  0  0  0
   -4.0720   22.5160  -28.4150 H   0  0  0  0  0  0  0  0  0  0  0  0
   -3.9398   21.7756  -31.5753 H   0  0  0  0  0  0  0  0  0  0  0  0
   -5.7846   20.7303  -32.8873 H   0  0  0  0  0  0  0  0  0  0  0  0
   -8.0764   21.7088  -32.8235 H   0  0  0  0  0  0  0  0  0  0  0  0
   -8.5331   23.7347  -31.4454 H   0  0  0  0  0  0  0  0  0  0  0  0
  1  2  1  0
  2  3  2  0
  3  4  1  0
  4  5  2  0
  5  6  1  0
  6  7  1  0
  6  8  2  0
  8  9  1  0
  9 10  1  0
 10 11  2  0
 10 12  1  0
 12 13  2  0
 13 14  1  0
 14 15  2  0
 15 16  1  0
 16 17  2  0
 17 18  1  0
  8  2  1  0
 17 12  1  0
  1 19  1  0
  1 20  1  0
  1 21  1  0
  3 22  1  0
  4 23  1  0
  5 24  1  0
  7 25  1  0
  7 26  1  0
  7 27  1  0
  9 28  1  0
 13 29  1  0
 14 30  1  0
 15 31  1  0
 16 32  1  0
M  END
>  <UniqueID>  (43) 
41

>  <SMILES>  (43) 
Cc1cccc(C)c1NC(=O)c1ccccc1Cl

>  <Energy>  (43) 
43.43565373216591

>  <Genealogy>  (43) 
Cc1cccc(C)c1NC(=O)c1ccccc1Cl (3D coordinates assigned)
Cc1cccc(C)c1NC(=O)c1ccccc1Cl (optimized conformer: 43.43565373216591 kcal/mol)

>  <smiles>  (43) 
Cc1cccc(C)c1NC(=O)c1ccccc1Cl

>  <score_type>  (43) 
oracle

>  <origin>  (43) 
adgpu

>  <m_score__min__energy>  (43) 
-7.3200000000000003

>  <m_primary>  (43) 
energy

$$$$
43:0
     RDKit          3D

 44 47  0  0  0  0  0  0  0  0999 V2000
   -1.9510   20.3990  -34.2140 O   0  0  0  0  0  0  0  0  0  0  0  0
   -2.6880   20.5740  -33.2050 C   0  0  0  0  0  0  0  0  0  0  0  0
   -2.0940   21.1040  -31.9600 C   0  0  0  0  0  0  0  0  0  0  0  0
   -1.0050   20.4520  -31.3600 C   0  0  0  0  0  0  0  0  0  0  0  0
   -0.4550   20.9450  -30.1750 C   0  0  0  0  0  0  0  0  0  0  0  0
   -0.9750   22.0980  -29.5850 C   0  0  0  0  0  0  0  0  0  0  0  0
   -2.0470   22.7720  -30.1850 C   0  0  0  0  0  0  0  0  0  0  0  0
   -2.6920   24.2510  -29.4790 S   0  0  0  0  0  0  0  0  0  0  0  0
   -1.6200   25.2960  -29.3390 O   0  0  0  0  0  0  0  0  0  0  0  0
   -3.2440   23.9360  -28.1170 O   0  0  0  0  0  0  0  0  0  0  0  0
   -3.9650   24.8710  -30.4800 N   0  0  0  0  0  0  0  0  0  0  0  0
   -5.1950   24.1920  -30.7670 C   0  0  0  0  0  0  0  0  0  0  0  0
   -5.8580   23.5350  -29.7230 C   0  0  0  0  0  0  0  0  0  0  0  0
   -7.0550   22.8510  -29.9610 C   0  0  0  0  0  0  0  0  0  0  0  0
   -7.6020   22.8260  -31.2480 C   0  0  0  0  0  0  0  0  0  0  0  0
   -9.2400   21.8960  -31.5740 Br  0  0  0  0  0  0  0  0  0  0  0  0
   -6.9540   23.4890  -32.2940 C   0  0  0  0  0  0  0  0  0  0  0  0
   -5.7570   24.1720  -32.0580 C   0  0  0  0  0  0  0  0  0  0  0  0
   -2.6010   22.2760  -31.3730 C   0  0  0  0  0  0  0  0  0  0  0  0
   -4.0800   20.2120  -33.2640 N   0  0  0  0  0  0  0  0  0  0  0  0
   -5.1360   20.9420  -32.5540 C   0  0  0  0  0  0  0  0  0  0  0  0
   -6.3550   19.9910  -32.4920 C   0  0  0  0  0  0  0  0  0  0  0  0
   -5.8820   18.7760  -33.2050 C   0  0  0  0  0  0  0  0  0  0  0  0
   -6.5940   17.6060  -33.4730 C   0  0  0  0  0  0  0  0  0  0  0  0
   -5.9570   16.5830  -34.1940 C   0  0  0  0  0  0  0  0  0  0  0  0
   -4.6330   16.7530  -34.6430 C   0  0  0  0  0  0  0  0  0  0  0  0
   -3.9380   17.9410  -34.3650 C   0  0  0  0  0  0  0  0  0  0  0  0
   -4.5880   18.9360  -33.6250 C   0  0  0  0  0  0  0  0  0  0  0  0
   -0.5832   19.5489  -31.8254 H   0  0  0  0  0  0  0  0  0  0  0  0
    0.3912   20.4227  -29.7048 H   0  0  0  0  0  0  0  0  0  0  0  0
   -0.5427   22.4782  -28.6477 H   0  0  0  0  0  0  0  0  0  0  0  0
   -5.4344   23.5569  -28.7081 H   0  0  0  0  0  0  0  0  0  0  0  0
   -7.5659   22.3329  -29.1360 H   0  0  0  0  0  0  0  0  0  0  0  0
   -7.3867   23.4734  -33.3052 H   0  0  0  0  0  0  0  0  0  0  0  0
   -5.2526   24.6955  -32.8836 H   0  0  0  0  0  0  0  0  0  0  0  0
   -3.4381   22.8075  -31.8491 H   0  0  0  0  0  0  0  0  0  0  0  0
   -4.8030   21.2011  -31.5381 H   0  0  0  0  0  0  0  0  0  0  0  0
   -5.3876   21.8815  -33.0680 H   0  0  0  0  0  0  0  0  0  0  0  0
   -6.6194   19.7578  -31.4500 H   0  0  0  0  0  0  0  0  0  0  0  0
   -7.2612   20.4254  -32.9393 H   0  0  0  0  0  0  0  0  0  0  0  0
   -7.6315   17.4877  -33.1270 H   0  0  0  0  0  0  0  0  0  0  0  0
   -6.4933   15.6469  -34.4085 H   0  0  0  0  0  0  0  0  0  0  0  0
   -4.1412   15.9516  -35.2139 H   0  0  0  0  0  0  0  0  0  0  0  0
   -2.9072   18.0865  -34.7203 H   0  0  0  0  0  0  0  0  0  0  0  0
  1  2  2  0
  2  3  1  0
  3  4  2  0
  4  5  1  0
  5  6  2  0
  6  7  1  0
  7  8  1  0
  8  9  2  0
  8 10  2  0
  8 11  1  0
 11 12  1  0
 12 13  2  0
 13 14  1  0
 14 15  2  0
 15 16  1  0
 15 17  1  0
 17 18  2  0
  7 19  2  0
  2 20  1  0
 20 21  1  0
 21 22  1  0
 22 23  1  0
 23 24  2  0
 24 25  1  0
 25 26  2  0
 26 27  1  0
 27 28  2  0
 19  3  1  0
 28 20  1  0
 18 12  1  0
 28 23  1  0
  4 29  1  0
  5 30  1  0
  6 31  1  0
 13 32  1  0
 14 33  1  0
 17 34  1  0
 18 35  1  0
 19 36  1  0
 21 37  1  0
 21 38  1  0
 22 39  1  0
 22 40  1  0
 24 41  1  0
 25 42  1  0
 26 43  1  0
 27 44  1  0
M  CHG  1  11  -1
M  END
>  <UniqueID>  (44) 
42

>  <SMILES>  (44) 
O=C(c1cccc(S(=O)(=O)[N-]c2ccc(Br)cc2)c1)N1CCc2ccccc21

>  <Energy>  (44) 
71.26842530605275

>  <Genealogy>  (44) 
O=C(c1cccc(S(=O)(=O)[N-]c2ccc(Br)cc2)c1)N1CCc2ccccc21 (protonated)
O=C(c1cccc(S(=O)(=O)[N-]c2ccc(Br)cc2)c1)N1CCc2ccccc21 (3D coordinates assigned)
O=C(c1cccc(S(=O)(=O)[N-]c2ccc(Br)cc2)c1)N1CCc2ccccc21 (nonaromatic ring conformer: 71.26842530605275 kcal/mol)

>  <smiles>  (44) 
O=C(c1cccc(S(=O)(=O)Nc2ccc(Br)cc2)c1)N1CCc2ccccc21

>  <score_type>  (44) 
oracle

>  <origin>  (44) 
adgpu

>  <m_score__min__energy>  (44) 
-12.42

>  <m_primary>  (44) 
energy

$$$$
44:0
     RDKit          3D

 34 35  0  0  0  0  0  0  0  0999 V2000
   -9.2740   22.2050  -31.9390 C   0  0  0  0  0  0  0  0  0  0  0  0
   -8.2930   22.0470  -30.9180 O   0  0  0  0  0  0  0  0  0  0  0  0
   -7.1050   22.7890  -30.8210 C   0  0  0  0  0  0  0  0  0  0  0  0
   -7.1130   24.0960  -30.2980 C   0  0  0  0  0  0  0  0  0  0  0  0
   -5.9330   24.8280  -30.1900 C   0  0  0  0  0  0  0  0  0  0  0  0
   -4.7130   24.2680  -30.5880 C   0  0  0  0  0  0  0  0  0  0  0  0
   -3.4850   24.9980  -30.4450 N   0  0  0  0  0  0  0  0  0  0  0  0
   -2.5700   24.8880  -29.3460 C   0  0  0  0  0  0  0  0  0  0  0  0
   -1.5620   25.6380  -29.3140 O   0  0  0  0  0  0  0  0  0  0  0  0
   -2.7700   23.9460  -28.2810 N   0  0  0  0  0  0  0  0  0  0  0  0
   -2.1800   22.6420  -28.1930 C   0  0  0  0  0  0  0  0  0  0  0  0
   -0.9270   22.4240  -28.7760 C   0  0  0  0  0  0  0  0  0  0  0  0
   -0.3100   21.1740  -28.6730 C   0  0  0  0  0  0  0  0  0  0  0  0
   -0.9440   20.1250  -27.9980 C   0  0  0  0  0  0  0  0  0  0  0  0
   -0.1290   18.5730  -27.8740 Cl  0  0  0  0  0  0  0  0  0  0  0  0
   -2.2170   20.3280  -27.4370 C   0  0  0  0  0  0  0  0  0  0  0  0
   -3.0520   19.0390  -26.5810 Cl  0  0  0  0  0  0  0  0  0  0  0  0
   -2.8360   21.5780  -27.5500 C   0  0  0  0  0  0  0  0  0  0  0  0
   -4.6940   22.9780  -31.1400 C   0  0  0  0  0  0  0  0  0  0  0  0
   -3.1610   22.2740  -31.6510 Cl  0  0  0  0  0  0  0  0  0  0  0  0
   -5.8760   22.2250  -31.2520 C   0  0  0  0  0  0  0  0  0  0  0  0
   -5.7590   20.9290  -31.7940 O   0  0  0  0  0  0  0  0  0  0  0  0
   -6.4730   20.4080  -32.9090 C   0  0  0  0  0  0  0  0  0  0  0  0
  -10.2602   22.3638  -31.4785 H   0  0  0  0  0  0  0  0  0  0  0  0
   -9.0168   23.0733  -32.5634 H   0  0  0  0  0  0  0  0  0  0  0  0
   -9.3024   21.2999  -32.5634 H   0  0  0  0  0  0  0  0  0  0  0  0
   -8.0626   24.5445  -29.9707 H   0  0  0  0  0  0  0  0  0  0  0  0
   -5.9597   25.8522  -29.7896 H   0  0  0  0  0  0  0  0  0  0  0  0
   -0.4254   23.2395  -29.3176 H   0  0  0  0  0  0  0  0  0  0  0  0
    0.6799   21.0140  -29.1253 H   0  0  0  0  0  0  0  0  0  0  0  0
   -3.8426   21.7289  -27.1329 H   0  0  0  0  0  0  0  0  0  0  0  0
   -7.3135   19.7947  -32.5521 H   0  0  0  0  0  0  0  0  0  0  0  0
   -6.8582   21.2388  -33.5185 H   0  0  0  0  0  0  0  0  0  0  0  0
   -5.7993   19.7877  -33.5185 H   0  0  0  0  0  0  0  0  0  0  0  0
  1  2  1  0
  2  3  1  0
  3  4  2  0
  4  5  1  0
  5  6  2  0
  6  7  1  0
  7  8  1  0
  8  9  2  0
  8 10  1  0
 10 11  1  0
 11 12  2  0
 12 13  1  0
 13 14  2  0
 14 15  1  0
 14 16  1  0
 16 17  1  0
 16 18  2  0
  6 19  1  0
 19 20  1  0
 19 21  2  0
 21 22  1  0
 22 23  1  0
 21  3  1  0
 18 11  1  0
  1 24  1  0
  1 25  1  0
  1 26  1  0
  4 27  1  0
  5 28  1  0
 12 29  1  0
 13 30  1  0
 18 31  1  0
 23 32  1  0
 23 33  1  0
 23 34  1  0
M  CHG  2   7  -1  10  -1
M  END
>  <UniqueID>  (45) 
43

>  <SMILES>  (45) 
COc1ccc([N-]C(=O)[N-]c2ccc(Cl)c(Cl)c2)c(Cl)c1OC

>  <Energy>  (45) 
44.471997245684776

>  <Genealogy>  (45) 
COc1ccc([N-]C(=O)[N-]c2ccc(Cl)c(Cl)c2)c(Cl)c1OC (protonated)
COc1ccc([N-]C(=O)[N-]c2ccc(Cl)c(Cl)c2)c(Cl)c1OC (3D coordinates assigned)
COc1ccc([N-]C(=O)[N-]c2ccc(Cl)c(Cl)c2)c(Cl)c1OC (optimized conformer: 44.471997245684776 kcal/mol)

>  <smiles>  (45) 
COc1ccc(NC(=O)Nc2ccc(Cl)c(Cl)c2)c(Cl)c1OC

>  <score_type>  (45) 
oracle

>  <origin>  (45) 
adgpu

>  <m_score__min__energy>  (45) 
-10.130000000000001

>  <m_primary>  (45) 
energy

$$$$
45:0
     RDKit          3D

 40 42  0  0  0  0  0  0  0  0999 V2000
    0.0580   20.5300  -32.7810 C   0  0  0  0  0  0  0  0  0  0  0  0
   -1.3300   21.0140  -32.4870 C   0  0  0  0  0  0  0  0  0  0  0  0
   -2.3130   20.9970  -33.4880 C   0  0  0  0  0  0  0  0  0  0  0  0
   -3.5970   21.4800  -33.2240 C   0  0  0  0  0  0  0  0  0  0  0  0
   -3.9130   22.0110  -31.9630 C   0  0  0  0  0  0  0  0  0  0  0  0
   -5.2490   22.4780  -31.6960 N   0  0  0  0  0  0  0  0  0  0  0  0
   -6.2590   21.6250  -31.8870 N   0  0  0  0  0  0  0  0  0  0  0  0
   -7.5610   21.9680  -31.6880 C   0  0  0  0  0  0  0  0  0  0  0  0
   -8.6670   20.9630  -31.9200 C   0  0  1  0  0  0  0  0  0  0  0  0
   -9.8610   21.6090  -32.2830 O   0  0  0  0  0  0  0  0  0  0  0  0
   -8.3020   19.9860  -32.9530 N   0  0  0  0  0  0  0  0  0  0  0  0
   -7.2850   18.9670  -32.8270 C   0  0  0  0  0  0  0  0  0  0  0  0
   -7.2120   18.2210  -31.6380 C   0  0  0  0  0  0  0  0  0  0  0  0
   -6.2250   17.2460  -31.4680 C   0  0  0  0  0  0  0  0  0  0  0  0
   -5.2970   17.0040  -32.4830 C   0  0  0  0  0  0  0  0  0  0  0  0
   -5.3580   17.7340  -33.6730 C   0  0  0  0  0  0  0  0  0  0  0  0
   -4.1830   17.4410  -34.9400 Cl  0  0  0  0  0  0  0  0  0  0  0  0
   -6.3470   18.7090  -33.8490 C   0  0  0  0  0  0  0  0  0  0  0  0
   -7.8540   23.2590  -31.2420 C   0  0  0  0  0  0  0  0  0  0  0  0
   -6.8160   24.1640  -31.0460 C   0  0  0  0  0  0  0  0  0  0  0  0
   -5.5010   23.7640  -31.2900 C   0  0  0  0  0  0  0  0  0  0  0  0
   -4.5660   24.5990  -31.1520 O   0  0  0  0  0  0  0  0  0  0  0  0
   -2.9260   22.0280  -30.9610 C   0  0  0  0  0  0  0  0  0  0  0  0
   -1.6410   21.5440  -31.2250 C   0  0  0  0  0  0  0  0  0  0  0  0
    0.5895   20.3446  -31.8360 H   0  0  0  0  0  0  0  0  0  0  0  0
    0.0058   19.5970  -33.3614 H   0  0  0  0  0  0  0  0  0  0  0  0
    0.5972   21.2932  -33.3614 H   0  0  0  0  0  0  0  0  0  0  0  0
   -2.0715   20.6014  -34.4856 H   0  0  0  0  0  0  0  0  0  0  0  0
   -4.3661   21.4441  -34.0096 H   0  0  0  0  0  0  0  0  0  0  0  0
   -8.8197   20.4255  -30.9725 H   0  0  0  0  0  0  0  0  0  0  0  0
  -10.2620   21.9740  -31.4520 H   0  0  0  0  0  0  0  0  0  0  0  0
   -8.8270   20.0420  -33.8550 H   0  0  0  0  0  0  0  0  0  0  0  0
   -7.9388   18.4063  -30.8333 H   0  0  0  0  0  0  0  0  0  0  0  0
   -6.1792   16.6683  -30.5330 H   0  0  0  0  0  0  0  0  0  0  0  0
   -4.5184   16.2392  -32.3459 H   0  0  0  0  0  0  0  0  0  0  0  0
   -6.3931   19.2774  -34.7896 H   0  0  0  0  0  0  0  0  0  0  0  0
   -8.8949   23.5569  -31.0478 H   0  0  0  0  0  0  0  0  0  0  0  0
   -7.0296   25.1866  -30.7015 H   0  0  0  0  0  0  0  0  0  0  0  0
   -3.1665   22.4245  -29.9635 H   0  0  0  0  0  0  0  0  0  0  0  0
   -0.8707   21.5787  -30.4405 H   0  0  0  0  0  0  0  0  0  0  0  0
  1  2  1  0
  2  3  2  0
  3  4  1  0
  4  5  2  0
  5  6  1  0
  6  7  1  0
  7  8  2  0
  8  9  1  0
  9 10  1  0
  9 11  1  0
 11 12  1  0
 12 13  2  0
 13 14  1  0
 14 15  2  0
 15 16  1  0
 16 17  1  0
 16 18  2  0
  8 19  1  0
 19 20  2  0
 20 21  1  0
 21 22  2  0
  5 23  1  0
 23 24  2  0
 24  2  1  0
 21  6  1  0
 18 12  1  0
  1 25  1  0
  1 26  1  0
  1 27  1  0
  3 28  1  0
  4 29  1  0
  9 30  1  1
 10 31  1  0
 11 32  1  0
 13 33  1  0
 14 34  1  0
 15 35  1  0
 18 36  1  0
 19 37  1  0
 20 38  1  0
 23 39  1  0
 24 40  1  0
M  END
>  <UniqueID>  (46) 
44

>  <SMILES>  (46) 
Cc1ccc(-n2nc([C@@H](O)Nc3cccc(Cl)c3)ccc2=O)cc1

>  <Energy>  (46) 
49.89618588814706

>  <Genealogy>  (46) 
Cc1ccc(-n2nc([C@@H](O)Nc3cccc(Cl)c3)ccc2=O)cc1 (chirality)
Cc1ccc(-n2nc([C@@H](O)Nc3cccc(Cl)c3)ccc2=O)cc1 (3D coordinates assigned)
Cc1ccc(-n2nc([C@@H](O)Nc3cccc(Cl)c3)ccc2=O)cc1 (optimized conformer: 49.89618588814706 kcal/mol)

>  <smiles>  (46) 
Cc1ccc(-n2nc(C(O)Nc3cccc(Cl)c3)ccc2=O)cc1

>  <score_type>  (46) 
oracle

>  <origin>  (46) 
adgpu

>  <m_score__min__energy>  (46) 
-9.4700000000000006

>  <m_primary>  (46) 
energy

$$$$
46:0
     RDKit          3D

 34 35  0  0  0  0  0  0  0  0999 V2000
   -0.9450   23.4420  -29.6810 C   0  0  0  0  0  0  0  0  0  0  0  0
   -1.3440   24.7620  -29.3240 O   0  0  0  0  0  0  0  0  0  0  0  0
   -1.6070   25.1900  -28.0130 C   0  0  0  0  0  0  0  0  0  0  0  0
   -0.7300   26.0510  -27.3230 C   0  0  0  0  0  0  0  0  0  0  0  0
   -1.0290   26.4700  -26.0240 C   0  0  0  0  0  0  0  0  0  0  0  0
   -2.2010   26.0410  -25.4010 C   0  0  0  0  0  0  0  0  0  0  0  0
   -3.0780   25.1880  -26.0730 C   0  0  0  0  0  0  0  0  0  0  0  0
   -2.7830   24.7450  -27.3730 C   0  0  0  0  0  0  0  0  0  0  0  0
   -3.7550   23.8510  -28.0960 C   0  0  0  0  0  0  0  0  0  0  0  0
   -4.9480   24.6190  -28.4570 N   0  0  0  0  0  0  0  0  0  0  0  0
   -4.9830   24.8840  -30.1740 S   0  0  0  0  0  0  0  0  0  0  0  0
   -3.5770   24.9360  -30.6990 O   0  0  0  0  0  0  0  0  0  0  0  0
   -5.6640   26.1930  -30.4670 O   0  0  0  0  0  0  0  0  0  0  0  0
   -5.8380   23.5600  -30.9570 C   0  0  0  0  0  0  0  0  0  0  0  0
   -5.1450   22.6140  -31.7280 C   0  0  0  0  0  0  0  0  0  0  0  0
   -5.8390   21.5740  -32.3540 C   0  0  0  0  0  0  0  0  0  0  0  0
   -7.2270   21.4710  -32.2110 C   0  0  0  0  0  0  0  0  0  0  0  0
   -7.8980   20.4640  -32.8200 F   0  0  0  0  0  0  0  0  0  0  0  0
   -7.9210   22.4100  -31.4410 C   0  0  0  0  0  0  0  0  0  0  0  0
   -7.2290   23.4500  -30.8140 C   0  0  0  0  0  0  0  0  0  0  0  0
   -0.7671   22.8534  -28.7689 H   0  0  0  0  0  0  0  0  0  0  0  0
   -1.7396   22.9667  -30.2749 H   0  0  0  0  0  0  0  0  0  0  0  0
   -0.0202   23.4865  -30.2749 H   0  0  0  0  0  0  0  0  0  0  0  0
    0.1946   26.3949  -27.8096 H   0  0  0  0  0  0  0  0  0  0  0  0
   -0.3382   27.1400  -25.4912 H   0  0  0  0  0  0  0  0  0  0  0  0
   -2.4343   26.3752  -24.3793 H   0  0  0  0  0  0  0  0  0  0  0  0
   -4.0060   24.8606  -25.5815 H   0  0  0  0  0  0  0  0  0  0  0  0
   -3.2825   23.4571  -29.0079 H   0  0  0  0  0  0  0  0  0  0  0  0
   -4.0412   23.0148  -27.4412 H   0  0  0  0  0  0  0  0  0  0  0  0
   -5.7900   24.0450  -28.2180 H   0  0  0  0  0  0  0  0  0  0  0  0
   -4.0534   22.6909  -31.8401 H   0  0  0  0  0  0  0  0  0  0  0  0
   -5.2930   20.8358  -32.9597 H   0  0  0  0  0  0  0  0  0  0  0  0
   -9.0123   22.3299  -31.3288 H   0  0  0  0  0  0  0  0  0  0  0  0
   -7.7772   24.1849  -30.2062 H   0  0  0  0  0  0  0  0  0  0  0  0
  1  2  1  0
  2  3  1  0
  3  4  2  0
  4  5  1  0
  5  6  2  0
  6  7  1  0
  7  8  2  0
  8  9  1  0
  9 10  1  0
 10 11  1  0
 11 12  2  0
 11 13  2  0
 11 14  1  0
 14 15  2  0
 15 16  1  0
 16 17  2  0
 17 18  1  0
 17 19  1  0
 19 20  2  0
  8  3  1  0
 20 14  1  0
  1 21  1  0
  1 22  1  0
  1 23  1  0
  4 24  1  0
  5 25  1  0
  6 26  1  0
  7 27  1  0
  9 28  1  0
  9 29  1  0
 10 30  1  0
 15 31  1  0
 16 32  1  0
 19 33  1  0
 20 34  1  0
M  END
>  <UniqueID>  (47) 
45

>  <SMILES>  (47) 
COc1ccccc1CNS(=O)(=O)c1ccc(F)cc1

>  <Energy>  (47) 
30.357127421465165

>  <Genealogy>  (47) 
COc1ccccc1CNS(=O)(=O)c1ccc(F)cc1 (3D coordinates assigned)
COc1ccccc1CNS(=O)(=O)c1ccc(F)cc1 (optimized conformer: 30.357127421465165 kcal/mol)

>  <smiles>  (47) 
COc1ccccc1CNS(=O)(=O)c1ccc(F)cc1

>  <score_type>  (47) 
oracle

>  <origin>  (47) 
adgpu

>  <m_score__min__energy>  (47) 
-7.9100000000000001

>  <m_primary>  (47) 
energy

$$$$
47:0
     RDKit          3D

 48 50  0  0  0  0  0  0  0  0999 V2000
   -1.1380   20.0930  -30.3390 C   0  0  0  0  0  0  0  0  0  0  0  0
   -1.8310   21.1780  -29.5680 C   0  0  0  0  0  0  0  0  0  0  0  0
   -1.6230   21.3150  -28.1910 C   0  0  0  0  0  0  0  0  0  0  0  0
   -2.2940   22.3040  -27.4720 C   0  0  0  0  0  0  0  0  0  0  0  0
   -3.2010   23.1650  -28.1120 C   0  0  0  0  0  0  0  0  0  0  0  0
   -3.8970   24.2260  -27.2990 C   0  0  0  0  0  0  0  0  0  0  0  0
   -3.4250   23.0260  -29.5030 C   0  0  0  0  0  0  0  0  0  0  0  0
   -4.5550   24.0740  -30.3770 S   0  0  0  0  0  0  0  0  0  0  0  0
   -3.8440   25.3150  -30.8410 O   0  0  0  0  0  0  0  0  0  0  0  0
   -5.6950   24.4360  -29.4660 O   0  0  0  0  0  0  0  0  0  0  0  0
   -5.1740   23.2290  -31.7570 N   0  0  0  0  0  0  0  0  0  0  0  0
   -6.4590   22.6000  -31.8570 C   0  0  0  0  0  0  0  0  0  0  0  0
   -7.6420   23.2960  -31.5440 C   0  0  0  0  0  0  0  0  0  0  0  0
   -8.8860   22.6790  -31.6920 C   0  0  0  0  0  0  0  0  0  0  0  0
   -8.9650   21.3660  -32.1570 C   0  0  0  0  0  0  0  0  0  0  0  0
   -7.8010   20.6640  -32.4740 C   0  0  0  0  0  0  0  0  0  0  0  0
   -6.5410   21.2670  -32.3210 C   0  0  0  0  0  0  0  0  0  0  0  0
   -5.3180   20.4930  -32.6510 C   0  0  0  0  0  0  0  0  0  0  0  0
   -5.3080   19.0950  -32.5350 C   0  0  0  0  0  0  0  0  0  0  0  0
   -4.1530   18.3690  -32.8230 C   0  0  0  0  0  0  0  0  0  0  0  0
   -2.9830   19.0240  -33.2440 C   0  0  0  0  0  0  0  0  0  0  0  0
   -1.7510   18.2120  -33.5440 C   0  0  0  0  0  0  0  0  0  0  0  0
   -2.9870   20.4330  -33.3810 C   0  0  0  0  0  0  0  0  0  0  0  0
   -1.7570   21.1760  -33.8310 C   0  0  0  0  0  0  0  0  0  0  0  0
   -4.1580   21.1520  -33.0840 C   0  0  0  0  0  0  0  0  0  0  0  0
   -2.7420   22.0240  -30.2130 C   0  0  0  0  0  0  0  0  0  0  0  0
   -0.6819   19.3788  -29.6376 H   0  0  0  0  0  0  0  0  0  0  0  0
   -1.8690   19.5690  -30.9723 H   0  0  0  0  0  0  0  0  0  0  0  0
   -0.3552   20.5359  -30.9723 H   0  0  0  0  0  0  0  0  0  0  0  0
   -0.9267   20.6392  -27.6729 H   0  0  0  0  0  0  0  0  0  0  0  0
   -2.1111   22.4109  -26.3926 H   0  0  0  0  0  0  0  0  0  0  0  0
   -3.7595   24.0163  -26.2280 H   0  0  0  0  0  0  0  0  0  0  0  0
   -3.4688   25.2107  -27.5378 H   0  0  0  0  0  0  0  0  0  0  0  0
   -4.9708   24.2254  -27.5378 H   0  0  0  0  0  0  0  0  0  0  0  0
   -7.5861   24.3327  -31.1805 H   0  0  0  0  0  0  0  0  0  0  0  0
   -9.8051   23.2291  -31.4416 H   0  0  0  0  0  0  0  0  0  0  0  0
   -9.9464   20.8831  -32.2740 H   0  0  0  0  0  0  0  0  0  0  0  0
   -7.8705   19.6312  -32.8463 H   0  0  0  0  0  0  0  0  0  0  0  0
   -6.2184   18.5675  -32.2143 H   0  0  0  0  0  0  0  0  0  0  0  0
   -4.1576   17.2739  -32.7198 H   0  0  0  0  0  0  0  0  0  0  0  0
   -1.2785   17.9006  -32.6008 H   0  0  0  0  0  0  0  0  0  0  0  0
   -2.0315   17.3212  -34.1252 H   0  0  0  0  0  0  0  0  0  0  0  0
   -1.0430   18.8210  -34.1252 H   0  0  0  0  0  0  0  0  0  0  0  0
   -1.1922   21.5172  -32.9509 H   0  0  0  0  0  0  0  0  0  0  0  0
   -1.1257   20.5080  -34.4354 H   0  0  0  0  0  0  0  0  0  0  0  0
   -2.0545   22.0456  -34.4354 H   0  0  0  0  0  0  0  0  0  0  0  0
   -4.1646   22.2466  -33.1927 H   0  0  0  0  0  0  0  0  0  0  0  0
   -2.9254   21.9023  -31.2907 H   0  0  0  0  0  0  0  0  0  0  0  0
  1  2  1  0
  2  3  2  0
  3  4  1  0
  4  5  2  0
  5  6  1  0
  5  7  1  0
  7  8  1  0
  8  9  2  0
  8 10  2  0
  8 11  1  0
 11 12  1  0
 12 13  2  0
 13 14  1  0
 14 15  2  0
 15 16  1  0
 16 17  2  0
 17 18  1  0
 18 19  2  0
 19 20  1  0
 20 21  2  0
 21 22  1  0
 21 23  1  0
 23 24  1  0
 23 25  2  0
  7 26  2  0
 26  2  1  0
 17 12  1  0
 25 18  1  0
  1 27  1  0
  1 28  1  0
  1 29  1  0
  3 30  1  0
  4 31  1  0
  6 32  1  0
  6 33  1  0
  6 34  1  0
 13 35  1  0
 14 36  1  0
 15 37  1  0
 16 38  1  0
 19 39  1  0
 20 40  1  0
 22 41  1  0
 22 42  1  0
 22 43  1  0
 24 44  1  0
 24 45  1  0
 24 46  1  0
 25 47  1  0
 26 48  1  0
M  CHG  1  11  -1
M  END
>  <UniqueID>  (48) 
46

>  <SMILES>  (48) 
Cc1ccc(C)c(S(=O)(=O)[N-]c2ccccc2-c2ccc(C)c(C)c2)c1

>  <Energy>  (48) 
60.59405032810023

>  <Genealogy>  (48) 
Cc1ccc(C)c(S(=O)(=O)[N-]c2ccccc2-c2ccc(C)c(C)c2)c1 (protonated)
Cc1ccc(C)c(S(=O)(=O)[N-]c2ccccc2-c2ccc(C)c(C)c2)c1 (3D coordinates assigned)
Cc1ccc(C)c(S(=O)(=O)[N-]c2ccccc2-c2ccc(C)c(C)c2)c1 (optimized conformer: 60.59405032810023 kcal/mol)

>  <smiles>  (48) 
Cc1ccc(C)c(S(=O)(=O)Nc2ccccc2-c2ccc(C)c(C)c2)c1

>  <score_type>  (48) 
oracle

>  <origin>  (48) 
adgpu

>  <m_score__min__energy>  (48) 
-9.9399999999999995

>  <m_primary>  (48) 
energy

$$$$
48:0
     RDKit          3D

 45 47  0  0  1  0  0  0  0  0999 V2000
    2.5520   30.0750  -21.5010 C   0  0  0  0  0  0  0  0  0  0  0  0
    1.8480   30.0890  -22.6230 C   0  0  0  0  0  0  0  0  0  0  0  0
    1.8110   28.9750  -23.5610 C   0  0  0  0  0  0  0  0  0  0  0  0
    2.5180   28.9690  -24.6220 O   0  0  0  0  0  0  0  0  0  0  0  0
    0.9910   27.8370  -23.3560 N   0  0  0  0  0  0  0  0  0  0  0  0
    1.0560   26.8160  -24.3640 C   0  0  0  0  0  0  0  0  0  0  0  0
    1.8660   25.7330  -24.0840 C   0  0  0  0  0  0  0  0  0  0  0  0
    1.9750   24.7130  -25.0110 C   0  0  0  0  0  0  0  0  0  0  0  0
    1.2630   24.8270  -26.1820 C   0  0  0  0  0  0  0  0  0  0  0  0
    0.4520   25.8920  -26.4840 C   0  0  0  0  0  0  0  0  0  0  0  0
   -0.2850   26.0080  -27.6950 N   0  0  0  0  0  0  0  0  0  0  0  0
   -1.2500   25.1760  -27.8940 C   0  0  0  0  0  0  0  0  0  0  0  0
   -1.5980   24.2110  -27.0290 N   0  0  0  0  0  0  0  0  0  0  0  0
   -2.6320   23.3680  -27.3070 C   0  0  0  0  0  0  0  0  0  0  0  0
   -3.3360   23.4920  -28.4830 C   0  0  0  0  0  0  0  0  0  0  0  0
   -4.6400   22.4140  -28.8180 Cl  0  0  0  0  0  0  0  0  0  0  0  0
   -2.9770   24.4690  -29.3530 C   0  0  0  0  0  0  0  0  0  0  0  0
   -3.5810   24.6350  -30.4480 N   0  0  0  0  0  0  0  0  0  0  0  0
   -4.6750   23.8650  -30.9170 C   0  0  0  0  0  0  0  0  0  0  0  0
   -4.4470   22.7100  -31.6820 C   0  0  0  0  0  0  0  0  0  0  0  0
   -3.0690   22.2510  -32.0030 C   0  0  0  0  0  0  0  0  0  0  0  0
   -5.5180   21.9700  -32.1580 C   0  0  0  0  0  0  0  0  0  0  0  0
   -6.7870   22.3970  -31.8600 C   0  0  0  0  0  0  0  0  0  0  0  0
   -7.0590   23.5260  -31.1100 C   0  0  0  0  0  0  0  0  0  0  0  0
   -5.9920   24.2650  -30.6350 C   0  0  0  0  0  0  0  0  0  0  0  0
   -6.2880   25.7150  -29.6740 Cl  0  0  0  0  0  0  0  0  0  0  0  0
   -1.9470   25.2900  -29.0480 N   0  0  0  0  0  0  0  0  0  0  0  0
    0.3530   26.9040  -25.5470 C   0  0  0  0  0  0  0  0  0  0  0  0
    2.5392   30.9486  -20.8327 H   0  0  0  0  0  0  0  0  0  0  0  0
    3.1494   29.1897  -21.2376 H   0  0  0  0  0  0  0  0  0  0  0  0
    1.2607   30.9887  -22.8587 H   0  0  0  0  0  0  0  0  0  0  0  0
    0.3790   27.7580  -22.5160 H   0  0  0  0  0  0  0  0  0  0  0  0
    2.4183   25.6825  -23.1340 H   0  0  0  0  0  0  0  0  0  0  0  0
    2.6118   23.8371  -24.8178 H   0  0  0  0  0  0  0  0  0  0  0  0
    1.3487   24.0163  -26.9205 H   0  0  0  0  0  0  0  0  0  0  0  0
   -1.0760   24.1090  -26.1400 H   0  0  0  0  0  0  0  0  0  0  0  0
   -2.9058   22.5831  -26.5866 H   0  0  0  0  0  0  0  0  0  0  0  0
   -2.5170   22.0671  -31.0695 H   0  0  0  0  0  0  0  0  0  0  0  0
   -3.1193   21.3211  -32.5885 H   0  0  0  0  0  0  0  0  0  0  0  0
   -2.5517   23.0253  -32.5885 H   0  0  0  0  0  0  0  0  0  0  0  0
   -5.3545   21.0635  -32.7593 H   0  0  0  0  0  0  0  0  0  0  0  0
   -7.6355   21.8083  -32.2389 H   0  0  0  0  0  0  0  0  0  0  0  0
   -8.0952   23.8276  -30.8973 H   0  0  0  0  0  0  0  0  0  0  0  0
   -1.6780   26.0400  -29.7250 H   0  0  0  0  0  0  0  0  0  0  0  0
   -0.2854   27.7777  -25.7449 H   0  0  0  0  0  0  0  0  0  0  0  0
  1  2  2  0
  2  3  1  0
  3  4  2  0
  3  5  1  0
  5  6  1  0
  6  7  2  0
  7  8  1  0
  8  9  2  0
  9 10  1  0
 10 11  1  0
 11 12  2  0
 12 13  1  0
 13 14  1  0
 14 15  2  0
 15 16  1  0
 15 17  1  0
 17 18  2  0
 18 19  1  0
 19 20  2  0
 20 21  1  0
 20 22  1  0
 22 23  2  0
 23 24  1  0
 24 25  2  0
 25 26  1  0
 17 27  1  0
 10 28  2  0
 28  6  1  0
 27 12  1  0
 25 19  1  0
  1 29  1  0
  1 30  1  0
  2 31  1  0
  5 32  1  0
  7 33  1  0
  8 34  1  0
  9 35  1  0
 13 36  1  0
 14 37  1  0
 21 38  1  0
 21 39  1  0
 21 40  1  0
 22 41  1  0
 23 42  1  0
 24 43  1  0
 27 44  1  0
 28 45  1  0
M  END
>  <smiles>  (49) 
C=CC(=O)Nc1cccc(N=c2[nH]cc(Cl)c(=Nc3c(C)cccc3Cl)[nH]2)c1

>  <score_type>  (49) 
oracle

>  <origin>  (49) 
adgpu

>  <m_score__min__energy>  (49) 
-9.2799999999999994

>  <m_primary>  (49) 
energy

$$$$
